drugbank_target|P54548 Ribonuclease Z (DB03814)
 OpenBabel12092120283D

  0  0  0     0  0            999 V3000
M  V30 BEGIN CTAB
M  V30 COUNTS 4818 4865 0 0 0
M  V30 BEGIN ATOM
M  V30 1 H -0.908 1.98254 -0.117106 0
M  V30 2 N 0 1.576 0 0
M  V30 3 C 0.933 2.03868 1.02534 0
M  V30 4 C 1.911 0.928543 1.3348 0
M  V30 5 O 3.095 1.19667 1.45644 0
M  V30 6 C 0.222 2.43627 2.35294 0
M  V30 7 C -0.732 3.65373 2.2001 0
M  V30 8 S 0.101 5.13292 1.52614 0
M  V30 9 C 1.257 5.56322 2.86805 0
M  V30 10 H 1.49 2.90518 0.631377 0
M  V30 11 H -0.977 1.52953 0.210867 0
M  V30 12 H 0.981 2.67203 3.11629 0
M  V30 13 H -0.358 1.57376 2.7183 0
M  V30 14 H -1.165 3.90944 3.18086 0
M  V30 15 H -1.563 3.418 1.51819 0
M  V30 16 H 0.729 5.58782 3.83104 0
M  V30 17 H 1.672 6.56266 2.65933 0
M  V30 18 H 2.08 4.83886 2.90714 0
M  V30 19 N 1.4781 -0.272755 1.55222 0
M  V30 20 C 2.3881 -1.35918 1.91216 0
M  V30 21 C 3.4041 -1.54026 0.809436 0
M  V30 22 O 4.5801 -1.68148 1.10852 0
M  V30 23 C 1.6451 -2.69834 2.17693 0
M  V30 24 C 0.7061 -2.6047 3.41253 0
M  V30 25 C -0.0609 -3.88 3.66458 0
M  V30 26 O 0.1621 -4.88693 2.94169 0
M  V30 27 O -0.9039 -3.88189 4.59992 0
M  V30 28 H 2.9221 -1.0839 2.83699 0
M  V30 29 H 0.5071 -0.471301 1.41771 0
M  V30 30 H 2.3891 -3.49017 2.36147 0
M  V30 31 H 1.0641 -2.97148 1.28392 0
M  V30 32 H -0.0289 -1.79663 3.28134 0
M  V30 33 H 1.3041 -2.38106 4.30774 0
M  V30 34 N 2.9562 -1.48159 -0.537278 0
M  V30 35 C 3.8862 -1.65029 -1.6519 0
M  V30 36 C 4.8672 -0.499281 -1.62607 0
M  V30 37 O 6.0522 -0.730972 -1.79918 0
M  V30 38 C 3.1822 -1.68303 -3.03795 0
M  V30 39 C 2.1362 -2.8283 -3.21234 0
M  V30 40 C 1.4622 -2.71189 -4.60826 0
M  V30 41 C 2.7622 -4.24211 -3.04701 0
M  V30 42 H 4.4562 -2.58341 -1.51328 0
M  V30 43 H 2.0022 -1.24325 -0.726585 0
M  V30 44 H 3.9552 -1.78693 -3.81637 0
M  V30 45 H 2.6792 -0.715635 -3.18663 0
M  V30 46 H 1.3382 -2.71983 -2.45807 0
M  V30 47 H 0.9862 -1.72435 -4.7252 0
M  V30 48 H 0.6862 -3.48035 -4.7344 0
M  V30 49 H 2.2102 -2.83537 -5.40777 0
M  V30 50 H 3.6242 -4.3593 -3.72341 0
M  V30 51 H 2.0212 -5.01998 -3.28813 0
M  V30 52 H 3.0912 -4.41184 -2.01209 0
M  V30 53 N 4.4343 0.785586 -1.36625 0
M  V30 54 C 5.3643 1.91259 -1.33949 0
M  V30 55 C 6.3453 1.68795 -0.210325 0
M  V30 56 O 7.5303 1.89854 -0.408561 0
M  V30 57 C 4.6603 3.28339 -1.13186 0
M  V30 58 C 3.6143 3.65335 -2.22967 0
M  V30 59 C 2.9403 5.00806 -1.87342 0
M  V30 60 C 4.2403 3.7352 -3.65075 0
M  V30 61 H 5.9343 1.93755 -2.28253 0
M  V30 62 H 3.4803 0.930788 -1.09874 0
M  V30 63 H 5.4333 4.06804 -1.09948 0
M  V30 64 H 4.1573 3.2624 -0.153332 0
M  V30 65 H 2.8163 2.89169 -2.25337 0
M  V30 66 H 2.4643 4.95233 -0.880545 0
M  V30 67 H 2.1643 5.26529 -2.60846 0
M  V30 68 H 3.6883 5.81687 -1.85667 0
M  V30 69 H 5.1023 4.42168 -3.64911 0
M  V30 70 H 3.4993 4.10731 -4.37516 0
M  V30 71 H 4.5693 2.74527 -3.99703 0
M  V30 72 N 5.9124 1.20967 1.01018 0
M  V30 73 C 7.1594 1.02374 1.74716 0
M  V30 74 C 7.4874 -0.443375 1.89379 0
M  V30 75 O 6.7424 -1.34535 1.42123 0
M  V30 76 C 7.0414 1.65997 3.16512 0
M  V30 77 C 6.7074 3.15831 3.2181 0
M  V30 78 C 5.3694 3.56719 3.22963 0
M  V30 79 C 7.7214 4.11816 3.19464 0
M  V30 80 C 5.0494 4.92107 3.19449 0
M  V30 81 C 7.4014 5.47158 3.17491 0
M  V30 82 C 6.0654 5.87451 3.16951 0
M  V30 83 H 5.3354 0.374614 0.639332 0
M  V30 84 H 7.9824 1.50485 1.18434 0
M  V30 85 H 6.2874 1.10166 3.75993 0
M  V30 86 H 7.9844 1.49119 3.72242 0
M  V30 87 H 4.5744 2.83263 3.21652 0
M  V30 88 H 8.7584 3.81257 3.17737 0
M  V30 89 H 4.0144 5.22579 3.17366 0
M  V30 90 H 8.1884 6.21274 3.14629 0
M  V30 91 H 5.8154 6.92329 3.13983 0
M  V30 92 N 7.3905 -1.2043 1.01659 0
M  V30 93 C 8.3205 -2.25466 0.607226 0
M  V30 94 C 9.3015 -1.65853 -0.377716 0
M  V30 95 O 10.4865 -1.92409 -0.263149 0
M  V30 96 C 7.6165 -3.47256 -0.0552949 0
M  V30 97 C 6.5705 -4.19462 0.850632 0
M  V30 98 C 5.8965 -5.34673 0.0538859 0
M  V30 99 C 7.1965 -4.75603 2.15868 0
M  V30 100 H 8.8905 -2.59962 1.48526 0
M  V30 101 H 6.4365 -1.2496 0.715605 0
M  V30 102 H 8.3895 -4.19917 -0.353233 0
M  V30 103 H 7.1135 -3.11924 -0.968045 0
M  V30 104 H 5.7725 -3.48667 1.13257 0
M  V30 105 H 5.4205 -4.95585 -0.860514 0
M  V30 106 H 5.1205 -5.83913 0.657192 0
M  V30 107 H 6.6445 -6.10138 -0.237598 0
M  V30 108 H 8.0585 -5.40083 1.92311 0
M  V30 109 H 6.4555 -5.3528 2.71284 0
M  V30 110 H 7.5255 -3.94346 2.82169 0
M  V30 111 N 8.8686 -0.792821 -1.36206 0
M  V30 112 C 10.1166 -0.366062 -1.98757 0
M  V30 113 C 10.4376 1.0668 -1.63231 0
M  V30 114 O 9.7076 1.73587 -0.907978 0
M  V30 115 H 8.2876 -0.132364 -0.735179 0
M  V30 116 H 10.9496 -1.01562 -1.66347 0
M  V30 117 H 10.0456 -0.460638 -3.08682 0
M  V30 118 N 10.3467 1.47872 -0.545128 0
M  V30 119 C 11.5747 2.06889 -0.021084 0
M  V30 120 C 11.9897 1.39955 1.2672 0
M  V30 121 O 11.3467 0.492036 1.75742 0
M  V30 122 C 11.3977 3.60996 0.190817 0
M  V30 123 O 11.1187 4.25419 -1.04644 0
M  V30 124 C 12.6197 4.36849 0.753521 0
M  V30 125 H 9.8397 0.669785 -0.0403635 0
M  V30 126 H 12.3837 1.90049 -0.755095 0
M  V30 127 H 10.5387 3.77391 0.87492 0
M  V30 128 H 10.9527 5.17785 -0.836611 0
M  V30 129 H 12.4267 5.45399 0.851139 0
M  V30 130 H 12.9037 4.02306 1.762 0
M  V30 131 H 13.5097 4.25169 0.105503 0
M  V30 132 N 11.8248 0.280983 1.55075 0
M  V30 133 C 13.0728 -0.333455 1.9933 0
M  V30 134 C 13.3938 -1.55937 1.17085 0
M  V30 135 O 12.6638 -1.94143 0.261805 0
M  V30 136 H 11.2438 -0.126197 0.736263 0
M  V30 137 H 13.9058 0.387678 1.91005 0
M  V30 138 H 13.0018 -0.619292 3.05894 0
M  V30 139 N 13.3029 -1.57598 0.00835791 0
M  V30 140 C 14.2659 -2.07884 -0.965242 0
M  V30 141 C 15.2659 -0.989825 -1.26725 0
M  V30 142 O 16.4559 -1.25218 -1.21104 0
M  V30 143 C 13.5879 -2.52731 -2.28779 0
M  V30 144 H 14.7809 -2.95178 -0.530112 0
M  V30 145 H 12.3339 -1.54458 -0.239283 0
M  V30 146 H 13.0689 -1.68705 -2.76964 0
M  V30 147 H 12.8539 -3.32272 -2.08177 0
M  V30 148 H 14.3439 -2.91933 -2.98605 0
M  V30 149 N 14.781 0.264519 -1.55364 0
M  V30 150 C 16.029 0.993021 -1.76021 0
M  V30 151 C 16.35 1.86511 -0.569099 0
M  V30 152 O 15.62 1.91438 0.415735 0
M  V30 153 H 14.2 0.369639 -0.649135 0
M  V30 154 H 16.862 0.286707 -1.9278 0
M  V30 155 H 15.958 1.62502 -2.66457 0
M  V30 156 N 16.2591 1.48442 0.529413 0
M  V30 157 C 17.5081 1.55742 1.28169 0
M  V30 158 C 17.8211 0.236511 1.94165 0
M  V30 159 O 19.0271 0.187761 2.7085 0
M  V30 160 C 17.4831 2.74667 2.32564 0
M  V30 161 C 17.0911 4.13402 1.72636 0
M  V30 162 C 18.8351 2.9128 3.08798 0
M  V30 163 C 16.7421 5.23587 2.74975 0
M  V30 164 H 15.6721 0.579796 0.48203 0
M  V30 165 H 18.3231 1.74776 0.559056 0
M  V30 166 H 16.7051 2.49067 3.07866 0
M  V30 167 H 17.8791 4.49022 1.03519 0
M  V30 168 H 16.1941 4.0191 1.08892 0
M  V30 169 H 18.7911 3.70767 3.85274 0
M  V30 170 H 19.1341 2.00757 3.64695 0
M  V30 171 H 19.6671 3.16782 2.40611 0
M  V30 172 H 16.4061 6.16076 2.23897 0
M  V30 173 H 15.9261 4.92454 3.42417 0
M  V30 174 H 17.6051 5.51724 3.37949 0
M  V30 175 N 17.7372 -0.778329 1.37039 0
M  V30 176 C 19.1482 -1.35421 1.28523 0
M  V30 177 C 19.4992 -1.96075 -0.0700901 0
M  V30 178 O 18.6242 -1.93352 -0.971801 0
M  V30 179 C 19.2192 -2.46211 2.32735 0
M  V30 180 C 17.7782 -2.99585 2.27873 0
M  V30 181 C 16.9252 -1.72748 2.16918 0
M  V30 182 H 19.8762 -0.5791 1.47757 0
M  V30 183 H 19.8972 -3.2552 1.9702 0
M  V30 184 H 19.4092 -2.02036 3.31365 0
M  V30 185 H 17.5102 -3.48152 1.32745 0
M  V30 186 H 17.6232 -3.55646 3.21018 0
M  V30 187 H 15.9872 -1.95416 1.63354 0
M  V30 188 H 16.7702 -1.30686 3.17452 0
M  V30 189 N 19.2153 -1.21501 -1.00376 0
M  V30 190 C 20.1783 -0.976927 -2.07337 0
M  V30 191 C 21.1783 0.0525322 -1.60714 0
M  V30 192 O 22.3683 -0.184869 -1.73216 0
M  V30 193 C 19.5003 -0.473423 -3.37597 0
M  V30 194 H 20.6933 -1.92587 -2.29892 0
M  V30 195 H 18.2463 -1.03217 -1.17371 0
M  V30 196 H 18.9813 0.480379 -3.20722 0
M  V30 197 H 18.7663 -1.216 -3.72768 0
M  V30 198 H 20.2563 -0.32675 -4.1632 0
M  V30 199 N 20.6934 1.19889 -1.02296 0
M  V30 200 C 21.6404 2.22901 -0.598651 0
M  V30 201 C 22.6104 1.61588 0.384521 0
M  V30 202 O 23.7954 1.88697 0.282522 0
M  V30 203 C 20.9354 3.45063 0.0504476 0
M  V30 204 C 20.0484 4.20783 -0.978053 0
M  V30 205 C 19.1834 5.30356 -0.299338 0
M  V30 206 C 18.2224 5.97826 -1.31416 0
M  V30 207 N 17.3594 6.98975 -0.661667 0
M  V30 208 H 22.1994 2.58554 -1.48169 0
M  V30 209 H 19.7364 1.27039 -0.741584 0
M  V30 210 H 21.6944 4.14831 0.443971 0
M  V30 211 H 20.3244 3.10084 0.897097 0
M  V30 212 H 19.3764 3.50018 -1.48969 0
M  V30 213 H 20.6884 4.67109 -1.74958 0
M  V30 214 H 19.8424 6.06516 0.149347 0
M  V30 215 H 18.5814 4.85084 0.504445 0
M  V30 216 H 17.5864 5.20422 -1.77317 0
M  V30 217 H 18.8114 6.45183 -2.11933 0
M  V30 218 H 16.7574 6.55886 0.122132 0
M  V30 219 H 16.6744 7.43461 -1.37117 0
M  V30 220 H 17.9424 7.7914 -0.236785 0
M  V30 221 N 22.1715 0.800033 1.35784 0
M  V30 222 C 23.1345 0.211565 2.28221 0
M  V30 223 C 24.1345 -0.59728 1.49296 0
M  V30 224 O 25.3245 -0.416721 1.69142 0
M  V30 225 C 22.4565 -0.705846 3.33513 0
M  V30 226 H 23.6495 1.02677 2.81776 0
M  V30 227 H 21.2025 0.570211 1.45528 0
M  V30 228 H 21.9375 -1.54498 2.85133 0
M  V30 229 H 21.7225 -0.127655 3.91892 0
M  V30 230 H 23.2125 -1.11211 4.02519 0
M  V30 231 N 23.6496 -1.47581 0.552962 0
M  V30 232 C 25.0656 -1.5818 0.212424 0
M  V30 233 C 25.2656 -1.55213 -1.28496 0
M  V30 234 O 24.3216 -1.45329 -2.06484 0
M  V30 235 C 25.6346 -2.88865 0.835318 0
M  V30 236 C 27.1826 -3.0244 0.806156 0
M  V30 237 C 27.6576 -4.35819 1.40804 0
M  V30 238 N 29.1486 -4.42444 1.37103 0
M  V30 239 C 29.8836 -5.44202 1.80641 0
M  V30 240 N 29.3796 -6.52795 2.32015 0
M  V30 241 N 31.1726 -5.35222 1.71738 0
M  V30 242 H 23.3236 -1.47753 1.52587 0
M  V30 243 H 25.5866 -0.702941 0.636064 0
M  V30 244 H 25.2926 -2.9676 1.88749 0
M  V30 245 H 25.1666 -3.7579 0.325848 0
M  V30 246 H 27.5536 -2.94144 -0.237317 0
M  V30 247 H 27.6346 -2.17068 1.35334 0
M  V30 248 H 27.2786 -4.44871 2.45056 0
M  V30 249 H 27.2086 -5.19916 0.836338 0
M  V30 250 H 29.6996 -3.6456 0.995202 0
M  V30 251 H 30.0126 -7.26609 2.63171 0
M  V30 252 H 28.3576 -6.53696 2.36023 0
M  V30 253 H 31.5486 -4.49284 1.31382 0
M  V30 254 H 31.7216 -6.14389 2.05987 0
M  V30 255 N 25.1277 -0.289203 -1.54924 0
M  V30 256 C 26.0757 0.607966 -2.24514 0
M  V30 257 C 27.0697 1.14655 -1.24702 0
M  V30 258 O 28.2757 1.09856 -1.4259 0
M  V30 259 H 24.6507 0.21464 -0.720718 0
M  V30 260 H 26.6217 -0.00164182 -2.984 0
M  V30 261 C 25.3707 1.77406 -2.99036 0
M  V30 262 H 24.6937 1.36884 -3.75637 0
M  V30 263 H 26.1337 2.37814 -3.51028 0
M  V30 264 C 24.5927 2.67107 -2.05318 0
M  V30 265 O 25.1227 3.6787 -1.61353 0
M  V30 266 N 23.3287 2.34582 -1.71521 0
M  V30 267 H 22.8757 1.52688 -2.07471 0
M  V30 268 H 22.8337 2.94867 -1.0909 0
M  V30 269 N 26.6058 1.57591 -0.0167156 0
M  V30 270 C 27.8518 1.91567 0.665582 0
M  V30 271 C 28.1848 0.892298 1.72487 0
M  V30 272 O 27.4598 -0.0867127 1.94307 0
M  V30 273 C 27.7428 3.36069 1.29342 0
M  V30 274 C 27.5958 4.49135 0.244541 0
M  V30 275 C 28.9148 3.803 2.21495 0
M  V30 276 H 26.0338 0.69666 0.240488 0
M  V30 277 H 28.6758 1.89866 -0.0714356 0
M  V30 278 H 26.8258 3.3765 1.92158 0
M  V30 279 H 28.4978 4.59689 -0.385228 0
M  V30 280 H 26.7408 4.3165 -0.431379 0
M  V30 281 H 27.4118 5.47242 0.723207 0
M  V30 282 H 29.8878 3.80377 1.68678 0
M  V30 283 H 28.7638 4.82127 2.62382 0
M  V30 284 H 29.0248 3.15104 3.101 0
M  V30 285 N 28.0839 -0.256276 1.55502 0
M  V30 286 C 29.3119 -1.00342 1.8094 0
M  V30 287 C 29.7269 -1.79307 0.59114 0
M  V30 288 O 29.0839 -1.77114 -0.440081 0
M  V30 289 C 29.1349 -1.94875 3.04476 0
M  V30 290 O 28.8559 -1.19107 4.21598 0
M  V30 291 C 30.3569 -2.81266 3.42644 0
M  V30 292 H 27.5769 -0.295685 0.602338 0
M  V30 293 H 30.1209 -0.281998 2.02546 0
M  V30 294 H 28.2759 -2.62457 2.84947 0
M  V30 295 H 28.6899 -1.82969 4.91551 0
M  V30 296 H 30.1639 -3.43362 4.32211 0
M  V30 297 H 30.6409 -3.51897 2.62802 0
M  V30 298 H 31.2469 -2.1915 3.64491 0
M  V30 299 N 29.562 -1.4872 -0.521534 0
M  V30 300 C 30.787 -1.61101 -1.30618 0
M  V30 301 C 31.212 -0.274611 -1.86085 0
M  V30 302 O 30.57 0.754937 -1.64834 0
M  V30 303 C 30.618 -2.66709 -2.4269 0
M  V30 304 O 29.722 -2.24456 -3.45967 0
M  V30 305 H 29.063 -0.539921 -0.386499 0
M  V30 306 H 31.593 -1.94767 -0.626645 0
M  V30 307 H 31.603 -2.88245 -2.88754 0
M  V30 308 H 30.278 -3.63727 -2.01682 0
M  V30 309 H 28.855 -2.13168 -3.05964 0
M  V30 310 N 31.0401 0.771051 -1.3745 0
M  V30 311 C 32.2861 1.5319 -1.32894 0
M  V30 312 C 32.6191 1.94008 0.0862511 0
M  V30 313 O 31.8941 1.64124 1.04373 0
M  V30 314 C 32.1771 2.79648 -2.26868 0
M  V30 315 C 32.0301 2.45079 -3.77169 0
M  V30 316 C 33.3491 3.81583 -2.19277 0
M  V30 317 H 30.4681 0.555744 -0.484064 0
M  V30 318 H 33.1101 0.884492 -1.68157 0
M  V30 319 H 31.2601 3.34891 -1.96926 0
M  V30 320 H 32.9321 1.95745 -4.1771 0
M  V30 321 H 31.1751 1.77767 -3.95704 0
M  V30 322 H 31.8461 3.35478 -4.38359 0
M  V30 323 H 34.3221 3.35835 -2.45671 0
M  V30 324 H 33.1981 4.67787 -2.87171 0
M  V30 325 H 33.4591 4.25897 -1.18592 0
M  V30 326 N 32.5182 1.22032 0.997298 0
M  V30 327 C 33.4812 0.987909 2.06816 0
M  V30 328 C 34.4812 -0.0440084 1.6074 0
M  V30 329 O 35.6712 0.194053 1.73116 0
M  V30 330 C 32.8032 0.49132 3.37341 0
M  V30 331 H 33.9962 1.93803 2.28868 0
M  V30 332 H 31.5492 1.03838 1.16822 0
M  V30 333 H 32.2842 -0.463364 3.20973 0
M  V30 334 H 32.0692 1.23575 3.72118 0
M  V30 335 H 33.5592 0.348824 4.16141 0
M  V30 336 N 33.9963 -1.19345 1.0293 0
M  V30 337 C 34.9263 -2.2481 0.631105 0
M  V30 338 C 35.9073 -1.66245 -0.360104 0
M  V30 339 O 37.0923 -1.92677 -0.242726 0
M  V30 340 C 34.2223 -3.47295 -0.0184607 0
M  V30 341 C 33.1763 -4.18536 0.895073 0
M  V30 342 C 32.5023 -5.34586 0.110592 0
M  V30 343 C 33.8023 -4.73287 2.209 0
M  V30 344 H 35.4963 -2.58372 1.51275 0
M  V30 345 H 33.0423 -1.24194 0.728818 0
M  V30 346 H 34.9953 -4.20268 -0.308675 0
M  V30 347 H 33.7193 -3.12933 -0.934907 0
M  V30 348 H 32.3783 -3.47446 1.16949 0
M  V30 349 H 32.0263 -4.96469 -0.807902 0
M  V30 350 H 31.7263 -5.83183 0.719087 0
M  V30 351 H 33.2503 -6.10355 -0.172871 0
M  V30 352 H 34.6643 -5.38013 1.98028 0
M  V30 353 H 33.0613 -5.32373 2.76946 0
M  V30 354 H 34.1313 -3.91331 2.86336 0
M  V30 355 N 35.4744 -0.807222 -1.35358 0
M  V30 356 C 36.4214 -0.216037 -2.29787 0
M  V30 357 C 37.3914 0.650278 -1.52842 0
M  V30 358 O 38.5764 0.595227 -1.81278 0
M  V30 359 C 35.7164 0.628893 -3.39321 0
M  V30 360 C 34.8294 -0.257927 -4.31229 0
M  V30 361 C 33.9644 0.595069 -5.27856 0
M  V30 362 C 33.0034 -0.292111 -6.11403 0
M  V30 363 N 32.1404 0.520895 -7.00165 0
M  V30 364 H 36.9804 -1.02671 -2.79755 0
M  V30 365 H 34.5174 -0.517839 -1.37684 0
M  V30 366 H 36.4754 1.13393 -4.01494 0
M  V30 367 H 35.1054 1.40482 -2.90628 0
M  V30 368 H 34.1574 -0.881076 -3.70056 0
M  V30 369 H 35.4694 -0.940759 -4.89848 0
M  V30 370 H 34.6234 1.16522 -5.95405 0
M  V30 371 H 33.3624 1.31146 -4.69736 0
M  V30 372 H 32.3674 -0.874525 -5.428 0
M  V30 373 H 33.5924 -1.00638 -6.71602 0
M  V30 374 H 31.5384 1.22125 -6.44532 0
M  V30 375 H 31.4554 -0.103877 -7.55929 0
M  V30 376 H 32.7234 1.0743 -7.72062 0
M  V30 377 N 36.9525 1.47285 -0.560781 0
M  V30 378 C 37.8825 2.32857 0.173105 0
M  V30 379 C 38.8635 1.44009 0.905281 0
M  V30 380 O 40.0485 1.7286 0.885046 0
M  V30 381 C 37.1785 3.25861 1.20133 0
M  V30 382 C 36.1325 4.23978 0.585388 0
M  V30 383 C 35.4585 5.06332 1.7185 0
M  V30 384 C 36.7585 5.20242 -0.463178 0
M  V30 385 H 38.4525 2.94466 -0.541307 0
M  V30 386 H 35.9985 1.41601 -0.261764 0
M  V30 387 H 37.9515 3.84569 1.72293 0
M  V30 388 H 36.6755 2.62315 1.94573 0
M  V30 389 H 35.3345 3.66501 0.085054 0
M  V30 390 H 34.9825 4.39186 2.45203 0
M  V30 391 H 34.6825 5.72762 1.31213 0
M  V30 392 H 36.2065 5.67899 2.24329 0
M  V30 393 H 37.6205 5.73293 -0.027502 0
M  V30 394 H 36.0175 5.94896 -0.788627 0
M  V30 395 H 37.0875 4.65504 -1.35773 0
M  V30 396 N 38.4306 0.297415 1.54768 0
M  V30 397 C 39.3606 -0.573494 2.26348 0
M  V30 398 C 40.3416 -1.14085 1.26169 0
M  V30 399 O 41.5266 -1.17086 1.54934 0
M  V30 400 C 38.6566 -1.74716 3.00153 0
M  V30 401 C 37.6106 -1.31032 4.07449 0
M  V30 402 C 36.9366 -2.56887 4.68949 0
M  V30 403 C 38.2366 -0.444183 5.20408 0
M  V30 404 H 39.9306 0.0235131 2.99391 0
M  V30 405 H 37.4766 0.0127488 1.43994 0
M  V30 406 H 39.4296 -2.3625 3.48947 0
M  V30 407 H 38.1536 -2.37035 2.24682 0
M  V30 408 H 36.8126 -0.718066 3.59499 0
M  V30 409 H 36.4606 -3.17512 3.90122 0
M  V30 410 H 36.1606 -2.2836 5.41411 0
M  V30 411 H 37.6846 -3.19229 5.20505 0
M  V30 412 H 39.0986 -0.9651 5.65118 0
M  V30 413 H 37.4956 -0.252846 5.99567 0
M  V30 414 H 38.5656 0.531609 4.81977 0
M  V30 415 N 39.9087 -1.5758 0.0250728 0
M  V30 416 C 40.8187 -2.1343 -0.973905 0
M  V30 417 C 41.8347 -1.08556 -1.35984 0
M  V30 418 O 43.0107 -1.40592 -1.44207 0
M  V30 419 C 40.0757 -2.64703 -2.23904 0
M  V30 420 C 39.1367 -3.84276 -1.91391 0
M  V30 421 C 38.3697 -4.33095 -3.11873 0
M  V30 422 O 38.5927 -3.81107 -4.24398 0
M  V30 423 O 37.5267 -5.24984 -2.94406 0
M  V30 424 H 41.3527 -2.99057 -0.529036 0
M  V30 425 H 38.9377 -1.48118 -0.195288 0
M  V30 426 H 40.8197 -2.97769 -2.98181 0
M  V30 427 H 39.4947 -1.82161 -2.6758 0
M  V30 428 H 38.4017 -3.56143 -1.14511 0
M  V30 429 H 39.7347 -4.67968 -1.52534 0
M  V30 430 N 41.3868 0.248026 -1.55636 0
M  V30 431 C 42.2968 1.32859 -1.93354 0
M  V30 432 C 43.3128 1.52719 -0.833838 0
M  V30 433 O 44.4888 1.66363 -1.13513 0
M  V30 434 C 41.5538 2.66337 -2.21958 0
M  V30 435 C 40.6148 2.55008 -3.45354 0
M  V30 436 C 39.8478 3.82121 -3.72584 0
M  V30 437 O 40.0708 4.83951 -3.01907 0
M  V30 438 O 39.0048 3.80822 -4.6611 0
M  V30 439 H 42.8308 1.03862 -2.85388 0
M  V30 440 H 40.4158 0.448686 -1.42503 0
M  V30 441 H 42.2978 3.45216 -2.4167 0
M  V30 442 H 40.9728 2.95068 -1.33103 0
M  V30 443 H 39.8798 1.7442 -3.30951 0
M  V30 444 H 41.2128 2.31222 -4.34508 0
M  V30 445 N 42.8649 1.48995 0.513639 0
M  V30 446 C 44.2809 1.35478 0.843682 0
M  V30 447 C 44.4809 0.378213 1.97919 0
M  V30 448 O 43.5369 -0.194689 2.51748 0
M  V30 449 C 44.8499 2.75901 1.1958 0
M  V30 450 C 46.3979 2.84509 1.30474 0
M  V30 451 C 46.8729 4.25671 1.69021 0
M  V30 452 N 48.3639 4.28422 1.76094 0
M  V30 453 C 49.0989 5.34601 2.07338 0
M  V30 454 N 48.5949 6.5104 2.36894 0
M  V30 455 N 50.3879 5.22007 2.08483 0
M  V30 456 H 42.5389 2.11092 -0.235328 0
M  V30 457 H 44.8019 0.947039 -0.0426669 0
M  V30 458 H 44.5079 3.49001 0.434913 0
M  V30 459 H 44.3819 3.10467 2.1422 0
M  V30 460 H 46.7689 2.11655 2.05637 0
M  V30 461 H 46.8499 2.53542 0.339155 0
M  V30 462 H 46.4939 4.99048 0.944135 0
M  V30 463 H 46.4239 4.54094 2.66658 0
M  V30 464 H 48.9149 3.44441 1.55464 0
M  V30 465 H 49.2279 7.2779 2.59887 0
M  V30 466 H 47.5729 6.54287 2.34378 0
M  V30 467 H 50.7639 4.30051 1.84861 0
M  V30 468 H 50.9369 6.04854 2.325 0
M  V30 469 N 44.343 -0.763751 1.37857 0
M  V30 470 C 45.759 -1.06542 1.18832 0
M  V30 471 C 45.959 -2.01478 0.0299722 0
M  V30 472 O 45.015 -2.4458 -0.627447 0
M  V30 473 C 46.328 -1.65525 2.51042 0
M  V30 474 C 47.876 -1.77745 2.57635 0
M  V30 475 C 48.351 -2.4014 3.89996 0
M  V30 476 N 49.842 -2.47582 3.91481 0
M  V30 477 C 50.577 -2.96732 4.9065 0
M  V30 478 N 50.073 -3.45993 6.00217 0
M  V30 479 N 51.866 -2.95679 4.78048 0
M  V30 480 H 44.017 -0.133556 2.1198 0
M  V30 481 H 46.28 -0.121879 0.940133 0
M  V30 482 H 45.986 -1.03236 3.36207 0
M  V30 483 H 45.86 -2.64719 2.68707 0
M  V30 484 H 48.247 -2.39164 1.72872 0
M  V30 485 H 48.328 -0.772836 2.43846 0
M  V30 486 H 47.972 -1.79358 4.75177 0
M  V30 487 H 47.902 -3.41223 4.01092 0
M  V30 488 H 50.393 -2.1273 3.12337 0
M  V30 489 H 50.706 -3.81922 6.7183 0
M  V30 490 H 49.051 -3.44077 6.03851 0
M  V30 491 H 52.242 -2.56499 3.91568 0
M  V30 492 H 52.415 -3.33672 5.55488 0
M  V30 493 N 45.8211 -1.22559 -0.990812 0
M  V30 494 C 47.0461 -1.07862 -1.77145 0
M  V30 495 C 47.4711 0.366447 -1.84496 0
M  V30 496 O 46.8291 1.26478 -1.29896 0
M  V30 497 C 46.8771 -1.69686 -3.18181 0
M  V30 498 O 45.9811 -0.951946 -4.01263 0
M  V30 499 H 45.3221 -0.378712 -0.545411 0
M  V30 500 H 47.8521 -1.62399 -1.2445 0
M  V30 501 H 47.8621 -1.74496 -3.68802 0
M  V30 502 H 46.5371 -2.74841 -3.12146 0
M  V30 503 H 45.1141 -0.980011 -3.59792 0
M  V30 504 N 47.2992 1.18797 -1.03562 0
M  V30 505 C 48.5452 1.8893 -0.737113 0
M  V30 506 C 48.8782 1.79837 0.732956 0
M  V30 507 O 48.1532 1.19525 1.5344 0
M  V30 508 C 48.4362 3.39607 -1.19745 0
M  V30 509 C 48.2892 3.57537 -2.72924 0
M  V30 510 C 49.6082 4.33069 -0.783526 0
M  V30 511 H 46.7272 0.686057 -0.269249 0
M  V30 512 H 49.3692 1.39797 -1.28673 0
M  V30 513 H 47.5192 3.81583 -0.729855 0
M  V30 514 H 49.1912 3.24688 -3.27682 0
M  V30 515 H 47.4342 3.00363 -3.12993 0
M  V30 516 H 48.1052 4.63238 -3.00191 0
M  V30 517 H 50.5812 3.98846 -1.18581 0
M  V30 518 H 49.4572 5.3707 -1.13343 0
M  V30 519 H 49.7182 4.40986 0.313681 0
M  V30 520 N 48.7773 0.814389 1.34928 0
M  V30 521 C 50.0233 0.408167 1.99263 0
M  V30 522 C 50.3783 -1.0154 1.63424 0
M  V30 523 O 49.6713 -1.69607 0.891289 0
M  V30 524 C 49.8653 0.537781 3.53331 0
M  V30 525 C 49.6943 1.9724 4.04137 0
M  V30 526 C 48.4643 2.60245 4.33129 0
M  V30 527 C 50.6623 2.93801 4.2212 0
M  V30 528 N 48.6443 3.95036 4.69914 0
M  V30 529 C 50.0153 4.1348 4.6199 0
M  V30 530 C 52.0703 2.9053 4.04348 0
M  V30 531 C 50.7733 5.3033 4.85945 0
M  V30 532 C 52.7993 4.06589 4.29464 0
M  V30 533 C 52.1613 5.25017 4.69613 0
M  V30 534 H 48.2603 0.197289 0.756704 0
M  V30 535 H 50.8443 1.05728 1.63492 0
M  V30 536 H 49.0153 -0.0813868 3.88315 0
M  V30 537 H 50.7473 0.105389 4.04563 0
M  V30 538 H 47.5023 2.11545 4.23728 0
M  V30 539 H 47.9263 4.64455 4.92555 0
M  V30 540 H 52.5683 2.00115 3.72443 0
M  V30 541 H 50.2863 6.21309 5.16721 0
M  V30 542 H 53.8723 4.05447 4.17257 0
M  V30 543 H 52.7523 6.1333 4.88667 0
M  V30 544 N 50.2554 -1.46986 0.568584 0
M  V30 545 C 51.1854 -2.32946 -0.160753 0
M  V30 546 C 52.1664 -1.44487 -0.897631 0
M  V30 547 O 53.3514 -1.73327 -0.875867 0
M  V30 548 C 50.4814 -3.26494 -1.18403 0
M  V30 549 C 49.4354 -4.24282 -0.562895 0
M  V30 550 C 48.7614 -5.07236 -1.69163 0
M  V30 551 C 50.0614 -5.19989 0.490761 0
M  V30 552 H 51.7554 -2.94175 0.556916 0
M  V30 553 H 49.3014 -1.4146 0.26927 0
M  V30 554 H 51.2544 -3.85477 -1.70251 0
M  V30 555 H 49.9784 -2.63343 -1.93179 0
M  V30 556 H 48.6374 -3.66541 -0.0656164 0
M  V30 557 H 48.2854 -4.4048 -2.42871 0
M  V30 558 H 47.9854 -5.7345 -1.28174 0
M  V30 559 H 49.5094 -5.6908 -2.21314 0
M  V30 560 H 50.9234 -5.73271 0.0579047 0
M  V30 561 H 49.3204 -5.94469 0.820165 0
M  V30 562 H 50.3904 -4.64777 1.3824 0
M  V30 563 N 51.7335 -0.305618 -1.54608 0
M  V30 564 C 52.9805 0.302298 -2.00231 0
M  V30 565 C 53.3085 1.5354 -1.19398 0
M  V30 566 O 52.5635 1.93973 -0.259423 0
M  V30 567 C 52.8625 0.698983 -3.50498 0
M  V30 568 C 52.5285 -0.432903 -4.48817 0
M  V30 569 C 51.1905 -0.743622 -4.75419 0
M  V30 570 C 53.5425 -1.19409 -5.07337 0
M  V30 571 C 50.8705 -1.81857 -5.57804 0
M  V30 572 C 53.2225 -2.25899 -5.90891 0
M  V30 573 C 51.8865 -2.57572 -6.15803 0
M  V30 574 H 51.1565 0.110619 -0.732697 0
M  V30 575 H 53.8035 -0.425674 -1.86709 0
M  V30 576 H 52.1085 1.50711 -3.61654 0
M  V30 577 H 53.8055 1.1806 -3.83227 0
M  V30 578 H 50.3955 -0.18063 -4.28219 0
M  V30 579 H 54.5795 -0.967295 -4.86782 0
M  V30 580 H 49.8355 -2.06864 -5.75341 0
M  V30 581 H 54.0095 -2.85335 -6.35261 0
M  V30 582 H 51.6365 -3.40998 -6.7943 0
M  V30 583 N 53.2116 1.57565 -0.0334293 0
M  V30 584 C 54.4886 1.83282 0.683163 0
M  V30 585 C 54.8686 0.91823 1.90084 0
M  V30 586 O 54.2166 -0.025113 2.28486 0
M  V30 587 C 54.4266 3.32599 1.0573 0
M  V30 588 C 55.7746 3.99179 1.44711 0
M  V30 589 O 56.7986 3.3712 1.15015 0
M  V30 590 O 55.6576 5.08565 2.0006 0
M  V30 591 H 52.7516 0.755869 0.335546 0
M  V30 592 H 55.2976 1.69589 -0.0614402 0
M  V30 593 H 54.0696 3.90834 0.190828 0
M  V30 594 H 53.6926 3.51415 1.85993 0
M  V30 595 N 54.6897 -0.239769 1.55765 0
M  V30 596 C 55.9297 -0.974076 1.79697 0
M  V30 597 C 56.2937 -1.82249 0.604088 0
M  V30 598 O 57.4947 -2.58913 0.722324 0
M  V30 599 C 55.7657 -1.80595 3.08416 0
M  V30 600 S 57.3247 -2.59838 3.53596 0
M  V30 601 H 54.1427 -0.327524 0.63107 0
M  V30 602 H 56.7447 -0.241277 1.94005 0
M  V30 603 H 55.4487 -1.17249 3.93295 0
M  V30 604 H 54.9797 -2.58137 2.96865 0
M  V30 605 H 56.9947 -3.82987 3.15492 0
M  V30 606 N 56.1678 -1.49265 -0.50573 0
M  V30 607 C 57.4158 -1.582 -1.25766 0
M  V30 608 C 57.7368 -0.268482 -1.93143 0
M  V30 609 O 57.0068 0.711833 -1.8251 0
M  V30 610 H 55.5868 -0.582873 -0.467191 0
M  V30 611 H 58.2488 -1.85865 -0.586525 0
M  V30 612 H 57.3448 -2.37563 -2.02412 0
M  V30 613 N 57.6459 0.756429 -1.3826 0
M  V30 614 C 58.5559 1.9009 -1.37488 0
M  V30 615 C 59.5719 1.71855 -0.272366 0
M  V30 616 O 60.7479 1.94827 -0.510318 0
M  V30 617 C 57.8129 3.25421 -1.19592 0
M  V30 618 C 56.8739 3.56202 -2.39622 0
M  V30 619 C 56.1069 4.85075 -2.2257 0
M  V30 620 O 56.3299 5.57246 -1.21793 0
M  V30 621 O 55.2639 5.15269 -3.11098 0
M  V30 622 H 59.0899 1.93695 -2.33914 0
M  V30 623 H 56.6749 0.901313 -1.1915 0
M  V30 624 H 58.5569 4.06337 -1.11661 0
M  V30 625 H 57.2319 3.22634 -0.262486 0
M  V30 626 H 56.1389 2.75458 -2.53128 0
M  V30 627 H 57.4719 3.63747 -3.31586 0
M  V30 628 N 59.124 1.23083 0.984299 0
M  V30 629 C 60.087 1.00979 2.05757 0
M  V30 630 C 61.087 -0.0269573 1.60777 0
M  V30 631 O 62.277 0.212403 1.729 0
M  V30 632 C 59.409 0.527072 3.36801 0
M  V30 633 H 60.602 1.9622 2.26799 0
M  V30 634 H 58.155 1.05072 1.15714 0
M  V30 635 H 58.89 -0.429294 3.21446 0
M  V30 636 H 58.675 1.27515 3.70786 0
M  V30 637 H 60.165 0.392942 4.15747 0
M  V30 638 N 60.6021 -1.18246 1.0419 0
M  V30 639 C 61.8301 -1.92195 0.766072 0
M  V30 640 C 62.2451 -1.76247 -0.676933 0
M  V30 641 O 61.6021 -1.09293 -1.46155 0
M  V30 642 C 61.6531 -3.43568 1.12442 0
M  V30 643 O 61.3741 -3.59015 2.51078 0
M  V30 644 C 62.8751 -4.34613 0.873275 0
M  V30 645 H 60.0951 -0.610114 0.279288 0
M  V30 646 H 62.6391 -1.50007 1.38989 0
M  V30 647 H 60.7941 -3.8354 0.545542 0
M  V30 648 H 61.2081 -4.5273 2.64831 0
M  V30 649 H 62.6821 -5.39374 1.17385 0
M  V30 650 H 63.1591 -4.38781 -0.191909 0
M  V30 651 H 63.7651 -4.00341 1.43551 0
M  V30 652 N 62.0802 -0.821533 -1.34494 0
M  V30 653 C 63.0122 -0.199946 -2.28326 0
M  V30 654 C 64.0252 0.609377 -1.50965 0
M  V30 655 O 65.2142 0.439285 -1.7301 0
M  V30 656 C 62.3142 0.738431 -3.30757 0
M  V30 657 C 61.4872 -0.0277632 -4.37391 0
M  V30 658 C 60.5462 0.831332 -5.19591 0
M  V30 659 O 59.5722 0.276822 -5.68526 0
M  V30 660 N 60.7742 2.15132 -5.39165 0
M  V30 661 H 63.5392 -1.00609 -2.82308 0
M  V30 662 H 61.1002 -0.678366 -1.47003 0
M  V30 663 H 63.0922 1.31773 -3.82646 0
M  V30 664 H 61.6622 1.44533 -2.7718 0
M  V30 665 H 60.8822 -0.788359 -3.86236 0
M  V30 666 H 62.1702 -0.555251 -5.05761 0
M  V30 667 H 61.5682 2.62559 -5.01078 0
M  V30 668 H 60.1252 2.6795 -5.94177 0
M  V30 669 N 63.5583 1.46682 -0.576371 0
M  V30 670 C 64.5083 2.27278 0.181288 0
M  V30 671 C 65.4923 1.35497 0.867721 0
M  V30 672 O 66.6843 1.59717 0.762863 0
M  V30 673 C 63.8133 3.21703 1.19841 0
M  V30 674 C 62.8993 4.20969 0.51442 0
M  V30 675 N 63.2903 5.03999 -0.426407 0
M  V30 676 C 61.5883 4.39373 0.765963 0
M  V30 677 C 62.2893 5.75812 -0.825565 0
M  V30 678 N 61.2653 5.43315 -0.176116 0
M  V30 679 H 65.0673 2.88863 -0.541785 0
M  V30 680 H 62.5813 1.57455 -0.397697 0
M  V30 681 H 64.5783 3.78145 1.75533 0
M  V30 682 H 63.2383 2.61677 1.92238 0
M  V30 683 H 64.2493 5.11659 -0.8016 0
M  V30 684 H 60.9263 3.90502 1.47698 0
M  V30 685 H 62.3163 6.52577 -1.59976 0
M  V30 686 N 65.0364 0.313813 1.54444 0
M  V30 687 C 65.9684 -0.590425 2.21465 0
M  V30 688 C 66.9814 -1.08753 1.21147 0
M  V30 689 O 68.1704 -1.00278 1.4767 0
M  V30 690 C 65.2704 -1.82179 2.85769 0
M  V30 691 C 64.4434 -1.46502 4.12136 0
M  V30 692 C 63.5024 -2.55288 4.60124 0
M  V30 693 O 62.5284 -2.19842 5.25032 0
M  V30 694 N 63.7304 -3.86053 4.33525 0
M  V30 695 H 66.4954 -0.0166033 2.99695 0
M  V30 696 H 64.0564 0.136578 1.61323 0
M  V30 697 H 66.0484 -2.54328 3.14801 0
M  V30 698 H 64.6184 -2.30369 2.11303 0
M  V30 699 H 63.8384 -0.575595 3.89975 0
M  V30 700 H 65.1264 -1.20221 4.94393 0
M  V30 701 H 64.5244 -4.17654 3.81552 0
M  V30 702 H 63.0814 -4.54461 4.67235 0
M  V30 703 N 66.5145 -1.57545 0.0417849 0
M  V30 704 C 67.7635 -1.91494 -0.633492 0
M  V30 705 C 68.0765 -0.921084 -1.72556 0
M  V30 706 O 69.2825 -1.15228 -2.45835 0
M  V30 707 C 67.7385 -3.40072 -1.17808 0
M  V30 708 C 67.3465 -4.47843 -0.118633 0
M  V30 709 C 69.0905 -3.8307 -1.82915 0
M  V30 710 C 66.9975 -5.87529 -0.675578 0
M  V30 711 H 65.9275 -0.714653 -0.24039 0
M  V30 712 H 68.5785 -1.83175 0.109148 0
M  V30 713 H 66.9605 -3.43364 -1.97274 0
M  V30 714 H 68.1345 -4.56128 0.654494 0
M  V30 715 H 66.4495 -4.14128 0.434414 0
M  V30 716 H 69.0465 -4.84794 -2.25563 0
M  V30 717 H 69.3895 -3.1881 -2.67705 0
M  V30 718 H 69.9225 -3.82255 -1.10119 0
M  V30 719 H 66.6615 -6.55362 0.134475 0
M  V30 720 H 66.1815 -5.82824 -1.4169 0
M  V30 721 H 67.8605 -6.36491 -1.1614 0
M  V30 722 N 67.9926 0.231505 -1.5589 0
M  V30 723 C 68.9226 1.29022 -1.94617 0
M  V30 724 C 69.9036 1.4941 -0.813067 0
M  V30 725 O 71.0886 1.6176 -1.07459 0
M  V30 726 C 68.2186 2.64199 -2.25424 0
M  V30 727 C 67.1726 2.58484 -3.41131 0
M  V30 728 C 66.4986 3.97599 -3.57518 0
M  V30 729 C 67.7986 2.1413 -4.76388 0
M  V30 730 H 69.4926 0.968563 -2.83301 0
M  V30 731 H 67.0386 0.464479 -1.36303 0
M  V30 732 H 68.9916 3.38413 -2.51107 0
M  V30 733 H 67.7156 2.98032 -1.33583 0
M  V30 734 H 66.3746 1.86727 -3.15481 0
M  V30 735 H 66.0226 4.28723 -2.6307 0
M  V30 736 H 65.7226 3.94659 -4.35337 0
M  V30 737 H 67.2466 4.7349 -3.85538 0
M  V30 738 H 68.6606 2.78083 -5.01341 0
M  V30 739 H 67.0576 2.2227 -5.57419 0
M  V30 740 H 68.1276 1.09331 -4.72414 0
M  V30 741 N 69.4707 1.49531 0.497807 0
M  V30 742 C 70.4207 1.62829 1.59596 0
M  V30 743 C 71.4047 0.483824 1.53453 0
M  V30 744 O 72.5967 0.736937 1.60929 0
M  V30 745 C 69.7257 1.7011 2.98191 0
M  V30 746 C 68.8117 2.90144 3.09317 0
M  V30 747 N 69.2027 4.1418 2.90324 0
M  V30 748 C 67.5007 2.88148 3.40422 0
M  V30 749 C 68.2017 4.94886 3.05717 0
M  V30 750 N 67.1777 4.28314 3.34736 0
M  V30 751 H 70.9797 2.56446 1.4357 0
M  V30 752 H 68.4937 1.46347 0.704001 0
M  V30 753 H 70.4907 1.77735 3.77115 0
M  V30 754 H 69.1507 0.776315 3.15283 0
M  V30 755 H 70.1617 4.44109 2.66436 0
M  V30 756 H 66.8387 2.05061 3.63671 0
M  V30 757 H 68.2287 6.03432 2.95499 0
M  V30 758 N 70.9488 -0.749086 1.3866 0
M  V30 759 C 72.1768 -1.53834 1.38358 0
M  V30 760 C 72.5918 -1.88783 -0.0255219 0
M  V30 761 O 71.9488 -1.53101 -0.993292 0
M  V30 762 C 71.9998 -2.83468 2.2434 0
M  V30 763 O 71.7208 -2.50008 3.5976 0
M  V30 764 C 73.2218 -3.7758 2.32267 0
M  V30 765 H 70.4418 -0.47585 0.473083 0
M  V30 766 H 72.9858 -0.926726 1.82297 0
M  V30 767 H 71.1408 -3.40995 1.83851 0
M  V30 768 H 71.5548 -3.33182 4.05081 0
M  V30 769 H 73.0288 -4.65478 2.96706 0
M  V30 770 H 73.5058 -4.18334 1.33765 0
M  V30 771 H 74.1118 -3.25976 2.73166 0
M  V30 772 N 72.4269 -1.23603 -0.977757 0
M  V30 773 C 73.6549 -1.09646 -1.75458 0
M  V30 774 C 74.0699 0.351859 -1.85492 0
M  V30 775 O 73.4269 1.24327 -1.336 0
M  V30 776 C 73.4779 -1.71895 -3.18016 0
M  V30 777 O 73.1989 -3.11063 -3.08498 0
M  V30 778 C 74.6999 -1.63415 -4.12081 0
M  V30 779 H 71.9199 -0.38359 -0.550545 0
M  V30 780 H 74.4639 -1.63507 -1.22824 0
M  V30 781 H 72.6189 -1.22061 -3.67668 0
M  V30 782 H 73.0329 -3.41305 -3.9826 0
M  V30 783 H 74.5069 -2.11669 -5.09804 0
M  V30 784 H 74.9839 -0.593462 -4.35172 0
M  V30 785 H 75.5899 -2.12628 -3.68334 0
M  V30 786 N 73.905 1.17692 -1.04816 0
M  V30 787 C 75.154 1.87192 -0.751132 0
M  V30 788 C 75.467 1.8169 0.724441 0
M  V30 789 O 76.673 2.46625 1.13527 0
M  V30 790 C 75.129 3.35857 -1.29338 0
M  V30 791 C 74.737 3.4987 -2.79812 0
M  V30 792 C 76.481 4.10709 -1.07322 0
M  V30 793 C 74.388 4.92536 -3.27356 0
M  V30 794 H 73.318 0.701162 -0.277288 0
M  V30 795 H 75.969 1.32932 -1.26496 0
M  V30 796 H 74.351 3.89631 -0.707376 0
M  V30 797 H 75.525 3.06332 -3.44235 0
M  V30 798 H 73.84 2.88433 -3.00325 0
M  V30 799 H 76.437 5.15952 -1.4035 0
M  V30 800 H 76.78 4.16299 -0.0108001 0
M  V30 801 H 77.313 3.6313 -1.62423 0
M  V30 802 H 74.052 4.92119 -4.33012 0
M  V30 803 H 73.572 5.3676 -2.67673 0
M  V30 804 H 75.251 5.61288 -3.21815 0
M  V30 805 N 75.3831 0.828654 1.34056 0
M  V30 806 C 76.3301 0.252567 2.29414 0
M  V30 807 C 77.3001 -0.62588 1.53857 0
M  V30 808 O 78.4851 -0.566312 1.82202 0
M  V30 809 C 75.6251 -0.574831 3.40279 0
M  V30 810 C 74.7381 0.326499 4.30764 0
M  V30 811 C 73.8731 -0.511016 5.28736 0
M  V30 812 C 72.9121 0.389342 6.1086 0
M  V30 813 N 72.0491 -0.409439 7.00905 0
M  V30 814 H 76.8891 1.07108 2.78086 0
M  V30 815 H 74.4261 0.539677 1.36843 0
M  V30 816 H 76.3841 -1.06992 4.03248 0
M  V30 817 H 75.0141 -1.35841 2.92826 0
M  V30 818 H 74.0661 0.939837 3.68607 0
M  V30 819 H 75.3781 1.01857 4.88289 0
M  V30 820 H 74.5321 -1.07035 5.97184 0
M  V30 821 H 73.2711 -1.23657 4.71763 0
M  V30 822 H 72.2761 0.960769 5.4134 0
M  V30 823 H 73.5011 1.1131 6.69916 0
M  V30 824 H 71.4471 -1.11856 6.46393 0
M  V30 825 H 71.3641 0.224126 7.55668 0
M  V30 826 H 72.6321 -0.951336 7.73673 0
M  V30 827 N 76.8612 -1.46375 0.584142 0
M  V30 828 C 78.2722 -1.86031 0.157959 0
M  V30 829 C 78.6232 -1.48753 -1.27933 0
M  V30 830 O 77.7482 -0.903098 -1.96655 0
M  V30 831 C 78.3432 -3.37642 0.279892 0
M  V30 832 C 76.9022 -3.76289 -0.09143 0
M  V30 833 C 76.0492 -2.7039 0.615178 0
M  V30 834 H 79.0002 -1.37509 0.792274 0
M  V30 835 H 79.0212 -3.77275 -0.494364 0
M  V30 836 H 78.5332 -3.64742 1.32607 0
M  V30 837 H 76.6342 -3.54806 -1.13769 0
M  V30 838 H 76.7472 -4.78246 0.285886 0
M  V30 839 H 75.1112 -2.5464 0.0552833 0
M  V30 840 H 75.8942 -3.0033 1.66303 0
M  V30 841 N 78.3393 -0.321999 -1.54275 0
M  V30 842 C 79.7553 0.0306999 -1.5957 0
M  V30 843 C 79.9553 1.50614 -1.33857 0
M  V30 844 O 79.0113 2.2619 -1.12223 0
M  V30 845 C 80.3243 -0.386122 -2.98211 0
M  V30 846 C 81.8723 -0.336647 -3.11184 0
M  V30 847 C 82.3473 -0.728607 -4.52167 0
M  V30 848 N 83.8383 -0.681952 -4.58152 0
M  V30 849 C 84.5733 -0.957449 -5.6535 0
M  V30 850 N 84.0693 -1.3 -6.80494 0
M  V30 851 N 85.8623 -0.883113 -5.55119 0
M  V30 852 H 78.0133 -1.28332 -1.69247 0
M  V30 853 H 80.2763 -0.521716 -0.791528 0
M  V30 854 H 79.9823 -1.41404 -3.22022 0
M  V30 855 H 79.8563 0.249662 -3.76373 0
M  V30 856 H 82.2433 0.682058 -2.8711 0
M  V30 857 H 82.3243 -1.00734 -2.3513 0
M  V30 858 H 81.9683 -1.74522 -4.76974 0
M  V30 859 H 81.8983 -0.0356152 -5.26588 0
M  V30 860 H 84.3893 -0.428985 -3.75457 0
M  V30 861 H 84.7023 -1.49563 -7.58189 0
M  V30 862 H 83.0473 -1.33824 -6.81994 0
M  V30 863 H 86.2383 -0.615001 -4.64042 0
M  V30 864 H 86.4113 -1.10118 -6.38575 0
M  V30 865 N 79.8174 1.5752 -0.0501392 0
M  V30 866 C 80.7644 2.1147 0.924603 0
M  V30 867 C 81.7344 1.02182 1.30951 0
M  V30 868 O 82.9194 1.29723 1.39916 0
M  V30 869 C 80.0594 2.66337 2.19451 0
M  V30 870 C 79.1724 3.89708 1.86418 0
M  V30 871 C 78.3074 4.32893 3.07859 0
M  V30 872 C 77.3464 5.48967 2.70742 0
M  V30 873 N 76.4834 5.87211 3.84874 0
M  V30 874 H 81.3234 2.94465 0.457639 0
M  V30 875 H 78.8604 1.45531 0.214266 0
M  V30 876 H 80.8184 2.96247 2.93758 0
M  V30 877 H 79.4484 1.86141 2.63726 0
M  V30 878 H 78.5004 3.66396 1.02264 0
M  V30 879 H 79.8124 4.74074 1.55096 0
M  V30 880 H 78.9664 4.6435 3.90466 0
M  V30 881 H 77.7054 3.47336 3.42358 0
M  V30 882 H 76.7104 5.17183 1.86551 0
M  V30 883 H 77.9354 6.3624 2.37436 0
M  V30 884 H 75.8814 5.04607 4.19175 0
M  V30 885 H 75.7984 6.66266 3.57247 0
M  V30 886 H 77.0664 6.23282 4.68123 0
M  V30 887 N 81.2955 -0.223234 1.56011 0
M  V30 888 C 82.5445 -0.945912 1.78144 0
M  V30 889 C 82.8575 -1.85567 0.618396 0
M  V30 890 O 84.0635 -2.61688 0.723318 0
M  V30 891 C 82.5195 -1.73216 3.15475 0
M  V30 892 C 82.1275 -0.868619 4.39499 0
M  V30 893 C 83.8715 -2.44615 3.46935 0
M  V30 894 C 81.7785 -1.65212 5.67855 0
M  V30 895 H 80.7085 -0.356929 0.664167 0
M  V30 896 H 83.3595 -0.199845 1.82409 0
M  V30 897 H 81.7415 -2.52107 3.05382 0
M  V30 898 H 82.9155 -0.120366 4.60643 0
M  V30 899 H 81.2305 -0.26683 4.15544 0
M  V30 900 H 83.8275 -3.03732 4.40058 0
M  V30 901 H 84.1705 -3.17417 2.69355 0
M  V30 902 H 84.7035 -1.72715 3.58349 0
M  V30 903 H 81.4425 -0.967407 6.48322 0
M  V30 904 H 80.9625 -2.37503 5.50774 0
M  V30 905 H 82.6415 -2.21322 6.07968 0
M  V30 906 N 82.7736 -1.49793 -0.48987 0
M  V30 907 C 83.6836 -1.70036 -1.61632 0
M  V30 908 C 84.6996 -0.583102 -1.63939 0
M  V30 909 O 85.8756 -0.859169 -1.82154 0
M  V30 910 C 82.9406 -1.77277 -2.97949 0
M  V30 911 C 82.0016 -3.00918 -3.06181 0
M  V30 912 C 81.2346 -3.07804 -4.35996 0
M  V30 913 O 81.4576 -2.21982 -5.25433 0
M  V30 914 O 80.3916 -4.00369 -4.49431 0
M  V30 915 H 84.2176 -2.65486 -1.47482 0
M  V30 916 H 81.8026 -1.33666 -0.667362 0
M  V30 917 H 83.6846 -1.84329 -3.78947 0
M  V30 918 H 82.3596 -0.850076 -3.12339 0
M  V30 919 H 81.2666 -2.99377 -2.2433 0
M  V30 920 H 82.5996 -3.92704 -2.96723 0
M  V30 921 N 84.2517 0.741722 -1.39055 0
M  V30 922 C 85.1987 1.85566 -1.37237 0
M  V30 923 C 86.1687 1.64457 -0.233072 0
M  V30 924 O 87.3537 1.85957 -0.427147 0
M  V30 925 C 84.4937 3.23004 -1.215 0
M  V30 926 C 83.6067 3.55864 -2.44918 0
M  V30 927 C 82.7417 4.82669 -2.21821 0
M  V30 928 C 81.7807 5.08351 -3.40948 0
M  V30 929 N 80.9177 6.26356 -3.17211 0
M  V30 930 H 85.7577 1.86455 -2.32462 0
M  V30 931 H 83.2947 0.911176 -1.15482 0
M  V30 932 H 85.2527 4.02331 -1.10389 0
M  V30 933 H 83.8827 3.21411 -0.29908 0
M  V30 934 H 82.9347 2.7129 -2.66657 0
M  V30 935 H 84.2467 3.70765 -3.33668 0
M  V30 936 H 83.4007 5.69962 -2.07914 0
M  V30 937 H 82.1397 4.69929 -1.30454 0
M  V30 938 H 81.1447 4.19522 -3.55361 0
M  V30 939 H 82.3697 5.22981 -4.33207 0
M  V30 940 H 80.3157 6.14917 -2.28502 0
M  V30 941 H 80.2327 6.41813 -3.99515 0
M  V30 942 H 81.5007 7.16506 -3.06984 0
M  V30 943 N 85.7298 1.2412 0.971189 0
M  V30 944 C 86.9788 1.07284 1.70801 0
M  V30 945 C 87.2918 -0.388902 1.91695 0
M  V30 946 O 88.4978 -0.677379 2.62914 0
M  V30 947 C 86.9538 1.87145 3.07416 0
M  V30 948 C 86.5618 3.37707 2.94377 0
M  V30 949 C 88.3058 1.78828 3.84995 0
M  V30 950 C 86.2128 4.09925 4.26281 0
M  V30 951 H 85.1428 0.397854 0.64049 0
M  V30 952 H 87.7938 1.4817 1.0825 0
M  V30 953 H 86.1758 1.39071 3.70777 0
M  V30 954 H 87.3498 3.93335 2.4005 0
M  V30 955 H 85.6648 3.46938 2.30267 0
M  V30 956 H 88.2618 2.30089 4.82662 0
M  V30 957 H 88.6048 0.75284 4.09436 0
M  V30 958 H 89.1378 2.24563 3.28354 0
M  V30 959 H 85.8768 5.13813 4.07033 0
M  V30 960 H 85.3968 3.59083 4.80437 0
M  V30 961 H 87.0758 4.1673 4.94919 0
M  V30 962 N 87.2079 -1.17134 1.05439 0
M  V30 963 C 88.4549 -1.87456 0.765942 0
M  V30 964 C 88.7829 -1.81189 -0.707153 0
M  V30 965 O 88.0379 -1.21633 -1.5331 0
M  V30 966 C 88.3369 -3.36833 1.19491 0
M  V30 967 C 88.0029 -3.63301 2.67063 0
M  V30 968 C 86.6649 -3.70234 3.07376 0
M  V30 969 C 89.0169 -3.74575 3.62413 0
M  V30 970 C 86.3449 -3.85933 4.41896 0
M  V30 971 C 88.6969 -3.91793 4.9667 0
M  V30 972 C 87.3609 -3.96966 5.36633 0
M  V30 973 H 86.6309 -0.685948 0.280278 0
M  V30 974 H 89.2779 -1.38556 1.32192 0
M  V30 975 H 87.5829 -3.87807 0.557969 0
M  V30 976 H 89.2799 -3.89611 0.948893 0
M  V30 977 H 85.8699 -3.58532 2.34846 0
M  V30 978 H 90.0539 -3.68537 3.32406 0
M  V30 979 H 85.3099 -3.88187 4.72357 0
M  V30 980 H 89.4839 -3.99458 5.70444 0
M  V30 981 H 87.1109 -4.08883 6.40874 0
M  V30 982 N 88.686 -0.835752 -1.33615 0
M  V30 983 C 89.935 -0.426289 -1.97144 0
M  V30 984 C 90.248 1.01912 -1.66953 0
M  V30 985 O 91.454 1.53311 -2.24072 0
M  V30 986 C 89.91 -0.711321 -3.52801 0
M  V30 987 C 89.518 -2.1712 -3.91871 0
M  V30 988 C 91.262 -0.368654 -4.22896 0
M  V30 989 C 89.169 -2.40044 -5.40493 0
M  V30 990 H 88.099 -0.15567 -0.737755 0
M  V30 991 H 90.75 -1.0239 -1.52278 0
M  V30 992 H 89.132 -0.0433766 -3.95976 0
M  V30 993 H 90.306 -2.87936 -3.59763 0
M  V30 994 H 88.621 -2.47654 -3.34749 0
M  V30 995 H 91.218 -0.517601 -5.32189 0
M  V30 996 H 91.561 0.688078 -4.10574 0
M  V30 997 H 92.094 -0.991702 -3.8524 0
M  V30 998 H 88.833 -3.44271 -5.57815 0
M  V30 999 H 88.353 -1.73785 -5.74072 0
M  V30 1000 H 90.032 -2.23042 -6.0734 0
M  V30 1001 N 90.1641 1.46063 -0.591896 0
M  V30 1002 C 91.3921 2.06717 -0.0868936 0
M  V30 1003 C 91.8071 1.43916 1.22203 0
M  V30 1004 O 91.1641 0.547698 1.74088 0
M  V30 1005 C 91.2151 3.6142 0.0758725 0
M  V30 1006 O 90.9361 4.21874 -1.18126 0
M  V30 1007 C 92.4371 4.39025 0.61416 0
M  V30 1008 H 89.6571 0.668162 -0.0616518 0
M  V30 1009 H 92.2011 1.8755 -0.815175 0
M  V30 1010 H 90.3561 3.79983 0.754413 0
M  V30 1011 H 90.7701 5.14861 -1.00092 0
M  V30 1012 H 92.2441 5.4783 0.677193 0
M  V30 1013 H 92.7211 4.07708 1.63312 0
M  V30 1014 H 93.3271 4.2529 -0.0298142 0
M  V30 1015 N 91.6422 0.330177 1.54103 0
M  V30 1016 C 92.5922 -0.548456 2.21305 0
M  V30 1017 C 93.5762 -1.07651 1.19583 0
M  V30 1018 O 94.7682 -1.01243 1.45186 0
M  V30 1019 C 91.8972 -1.70559 2.97934 0
M  V30 1020 C 90.9832 -1.19212 4.07 0
M  V30 1021 N 91.3742 -0.398831 5.04225 0
M  V30 1022 C 89.6722 -1.47024 4.2107 0
M  V30 1023 C 90.3732 -0.121761 5.81573 0
M  V30 1024 N 89.3492 -0.709722 5.38947 0
M  V30 1025 H 93.1512 0.0648483 2.93828 0
M  V30 1026 H 90.6652 0.136363 1.61826 0
M  V30 1027 H 92.6622 -2.34688 3.44568 0
M  V30 1028 H 91.3222 -2.32231 2.26934 0
M  V30 1029 H 92.3332 -0.0410869 5.17884 0
M  V30 1030 H 89.0102 -2.09232 3.61287 0
M  V30 1031 H 90.4002 0.517298 6.69906 0
M  V30 1032 N 93.1203 -1.57491 0.0584922 0
M  V30 1033 C 94.0533 -2.07533 -0.948969 0
M  V30 1034 C 95.0313 -0.977444 -1.29942 0
M  V30 1035 O 96.2153 -1.2499 -1.41102 0
M  V30 1036 C 93.3423 -2.52192 -2.2609 0
M  V30 1037 C 92.3883 -3.73287 -2.06298 0
M  V30 1038 S 93.2213 -5.18603 -1.33459 0
M  V30 1039 C 94.3773 -5.66583 -2.65959 0
M  V30 1040 H 94.6103 -2.92662 -0.523118 0
M  V30 1041 H 92.1433 -1.53631 -0.153954 0
M  V30 1042 H 94.1013 -2.78585 -3.01498 0
M  V30 1043 H 92.7623 -1.67356 -2.65802 0
M  V30 1044 H 91.9553 -4.0248 -3.03357 0
M  V30 1045 H 91.5573 -3.47199 -1.39029 0
M  V30 1046 H 93.8493 -5.72616 -3.62101 0
M  V30 1047 H 94.7923 -6.65684 -2.41393 0
M  V30 1048 H 95.2003 -4.94342 -2.72554 0
M  V30 1049 N 94.5984 0.214957 -1.56127 0
M  V30 1050 C 95.5484 1.27006 -1.8935 0
M  V30 1051 C 96.5324 1.41969 -0.757202 0
M  V30 1052 O 97.7244 1.44673 -1.01973 0
M  V30 1053 C 94.8534 2.61911 -2.2194 0
M  V30 1054 C 93.9394 2.50822 -3.41978 0
M  V30 1055 N 94.3304 2.09391 -4.60423 0
M  V30 1056 C 92.6284 2.81765 -3.45723 0
M  V30 1057 C 93.3294 2.09712 -5.42582 0
M  V30 1058 N 92.3054 2.50454 -4.82466 0
M  V30 1059 H 96.1074 0.940734 -2.78437 0
M  V30 1060 H 93.6214 0.423492 -1.56781 0
M  V30 1061 H 95.6184 3.38096 -2.43919 0
M  V30 1062 H 94.2784 2.95684 -1.34169 0
M  V30 1063 H 95.2894 1.80416 -4.85459 0
M  V30 1064 H 91.9664 3.19865 -2.68314 0
M  V30 1065 H 93.3564 1.79748 -6.4741 0
M  V30 1066 N 96.0765 1.50051 0.48192 0
M  V30 1067 C 97.3245 1.60181 1.23234 0
M  V30 1068 C 97.6455 0.299176 1.92691 0
M  V30 1069 O 96.9155 -0.682708 1.83619 0
M  V30 1070 H 95.4955 0.590232 0.457859 0
M  V30 1071 H 98.1575 1.86775 0.556881 0
M  V30 1072 H 97.2535 2.40753 1.98607 0
M  V30 1073 N 97.5546 -0.734337 1.39446 0
M  V30 1074 C 98.8316 -1.48579 1.27215 0
M  V30 1075 C 99.2116 -2.1077 -0.117968 0
M  V30 1076 O 98.5596 -1.98646 -1.12924 0
M  V30 1077 C 98.7696 -2.53667 2.39696 0
M  V30 1078 C 100.118 -3.20031 2.79044 0
M  V30 1079 O 101.142 -2.6398 2.39151 0
M  V30 1080 O 100.001 -4.21455 3.47905 0
M  V30 1081 H 97.0946 -0.659816 0.49857 0
M  V30 1082 H 99.6406 -0.768106 1.51322 0
M  V30 1083 H 98.4126 -2.06096 3.32626 0
M  V30 1084 H 98.0356 -3.32994 2.17258 0
M  V30 1085 N 99.0327 -1.24633 -0.964593 0
M  V30 1086 C 99.9827 -1.00841 -2.04487 0
M  V30 1087 C 100.967 0.0512468 -1.60818 0
M  V30 1088 O 102.159 -0.162865 -1.76249 0
M  V30 1089 C 99.2877 -0.618474 -3.37683 0
M  V30 1090 C 98.3737 -1.71437 -3.87905 0
M  V30 1091 N 98.7647 -2.9477 -4.11029 0
M  V30 1092 C 97.0627 -1.5926 -4.16596 0
M  V30 1093 C 97.7637 -3.65834 -4.52261 0
M  V30 1094 N 96.7397 -2.9341 -4.57615 0
M  V30 1095 H 100.542 -1.94487 -2.20345 0
M  V30 1096 H 98.0557 -1.14805 -1.14863 0
M  V30 1097 H 100.053 -0.429247 -4.14684 0
M  V30 1098 H 98.7127 0.310766 -3.23209 0
M  V30 1099 H 99.7237 -3.30917 -3.9839 0
M  V30 1100 H 96.4007 -0.731606 -4.1104 0
M  V30 1101 H 97.7907 -4.71646 -4.78539 0
M  V30 1102 N 100.511 1.16574 -1.06058 0
M  V30 1103 C 101.757 1.87324 -0.777022 0
M  V30 1104 C 102.09 1.81351 0.694645 0
M  V30 1105 O 101.365 1.22753 1.50871 0
M  V30 1106 C 101.648 3.36991 -1.26922 0
M  V30 1107 C 101.501 3.51667 -2.80447 0
M  V30 1108 C 102.82 4.3131 -0.87521 0
M  V30 1109 H 99.9388 0.680191 -0.28374 0
M  V30 1110 H 102.581 1.37036 -1.3161 0
M  V30 1111 H 100.731 3.79949 -0.81063 0
M  V30 1112 H 102.403 3.17664 -3.34495 0
M  V30 1113 H 100.646 2.93656 -3.19294 0
M  V30 1114 H 101.317 4.56766 -3.0995 0
M  V30 1115 H 103.793 3.9624 -1.27014 0
M  V30 1116 H 102.669 5.34545 -1.2471 0
M  V30 1117 H 102.93 4.41552 0.220071 0
M  V30 1118 N 101.989 0.842826 1.3317 0
M  V30 1119 C 103.219 0.453397 2.01564 0
M  V30 1120 C 103.627 -0.951147 1.63554 0
M  V30 1121 O 102.97 -1.63021 0.846746 0
M  V30 1122 C 103.032 0.499013 3.5602 0
M  V30 1123 C 102.696 1.86037 4.1742 0
M  V30 1124 C 103.693 2.82416 4.36506 0
M  V30 1125 C 101.378 2.15428 4.53757 0
M  V30 1126 C 103.372 4.06346 4.91082 0
M  V30 1127 C 101.059 3.39615 5.0804 0
M  V30 1128 C 102.057 4.3489 5.26649 0
M  V30 1129 O 101.745 5.5688 5.79776 0
M  V30 1130 H 101.477 0.177871 0.652179 0
M  V30 1131 H 104.031 1.13808 1.70988 0
M  V30 1132 H 102.261 -0.242467 3.85939 0
M  V30 1133 H 103.95 0.126852 4.05702 0
M  V30 1134 H 104.716 2.6101 4.08777 0
M  V30 1135 H 100.595 1.42061 4.38565 0
M  V30 1136 H 104.139 4.80722 5.05522 0
M  V30 1137 H 100.036 3.60876 5.352 0
M  V30 1138 H 100.804 5.58674 5.98185 0
M  V30 1139 N 103.467 -1.45747 0.599634 0
M  V30 1140 C 104.715 -2.01893 0.0915472 0
M  V30 1141 C 105.036 -1.47155 -1.27946 0
M  V30 1142 O 104.306 -0.66273 -1.84349 0
M  V30 1143 H 102.886 -0.746363 0.0308524 0
M  V30 1144 H 105.548 -1.78645 0.779237 0
M  V30 1145 H 104.644 -3.1208 0.0353086 0
M  V30 1146 N 104.945 -0.338344 -1.53925 0
M  V30 1147 C 105.875 0.51328 -2.27789 0
M  V30 1148 C 106.856 1.107 -1.29149 0
M  V30 1149 O 108.041 1.12937 -1.57984 0
M  V30 1150 C 105.171 1.66697 -3.04679 0
M  V30 1151 C 104.125 1.20183 -4.1078 0
M  V30 1152 C 103.451 2.44363 -4.75595 0
M  V30 1153 C 104.751 0.30605 -5.21403 0
M  V30 1154 H 106.445 -0.102883 -2.99223 0
M  V30 1155 H 103.991 -0.0509219 -1.4391 0
M  V30 1156 H 105.944 2.26915 -3.55088 0
M  V30 1157 H 104.668 2.30995 -2.30887 0
M  V30 1158 H 103.327 0.622499 -3.61276 0
M  V30 1159 H 102.975 3.07057 -3.98403 0
M  V30 1160 H 102.675 2.13925 -5.47275 0
M  V30 1161 H 104.199 3.05317 -5.28786 0
M  V30 1162 H 105.613 0.814929 -5.67478 0
M  V30 1163 H 104.01 0.0937929 -6.00027 0
M  V30 1164 H 105.08 -0.65921 -4.80398 0
M  V30 1165 N 106.423 1.57458 -0.0668435 0
M  V30 1166 C 107.834 1.80776 0.466558 0
M  V30 1167 C 108.185 0.980361 1.69951 0
M  V30 1168 O 107.31 0.201441 2.1546 0
M  V30 1169 C 107.905 3.27881 0.85321 0
M  V30 1170 C 106.464 3.52062 1.3315 0
M  V30 1171 C 105.611 2.75513 0.314264 0
M  V30 1172 H 108.562 1.5598 -0.292588 0
M  V30 1173 H 108.583 3.39659 1.715 0
M  V30 1174 H 108.095 3.88075 -0.0443439 0
M  V30 1175 H 106.196 2.97167 2.24772 0
M  V30 1176 H 106.309 4.60762 1.31285 0
M  V30 1177 H 104.673 2.42123 0.790492 0
M  V30 1178 H 105.456 3.38442 -0.575477 0
M  V30 1179 N 107.901 -0.206675 1.56239 0
M  V30 1180 C 109.149 -0.927007 1.79586 0
M  V30 1181 C 109.47 -1.8427 0.637929 0
M  V30 1182 O 108.74 -1.92849 -0.344398 0
M  V30 1183 H 107.32 -0.345292 0.662407 0
M  V30 1184 H 109.982 -0.21496 1.93711 0
M  V30 1185 H 109.078 -1.52501 2.72305 0
M  V30 1186 N 109.379 -1.50304 -0.473955 0
M  V30 1187 C 110.309 -1.71886 -1.58042 0
M  V30 1188 C 111.29 -0.567799 -1.60344 0
M  V30 1189 O 112.475 -0.806623 -1.76656 0
M  V30 1190 C 109.605 -1.81036 -2.96384 0
M  V30 1191 C 108.559 -2.962 -3.08949 0
M  V30 1192 C 107.885 -2.9049 -4.48909 0
M  V30 1193 C 109.185 -4.36752 -2.86434 0
M  V30 1194 H 110.879 -2.64527 -1.40234 0
M  V30 1195 H 108.425 -1.27295 -0.673201 0
M  V30 1196 H 110.378 -1.94719 -3.73714 0
M  V30 1197 H 109.102 -0.850147 -3.15341 0
M  V30 1198 H 107.761 -2.82164 -2.3405 0
M  V30 1199 H 107.409 -1.92321 -4.64781 0
M  V30 1200 H 107.109 -3.67802 -4.58253 0
M  V30 1201 H 108.633 -3.06218 -5.28264 0
M  V30 1202 H 110.047 -4.5133 -3.53517 0
M  V30 1203 H 108.444 -5.15493 -3.07225 0
M  V30 1204 H 109.514 -4.49321 -1.82316 0
M  V30 1205 N 110.857 0.726932 -1.39834 0
M  V30 1206 C 111.787 1.85405 -1.41941 0
M  V30 1207 C 112.768 1.67751 -0.281728 0
M  V30 1208 O 113.953 1.8795 -0.488717 0
M  V30 1209 C 111.083 3.23243 -1.2701 0
M  V30 1210 C 110.037 3.55549 -2.38262 0
M  V30 1211 C 109.363 4.9241 -2.08415 0
M  V30 1212 C 110.663 3.577 -3.80589 0
M  V30 1213 H 112.357 1.83899 -2.36266 0
M  V30 1214 H 109.903 0.883349 -1.13723 0
M  V30 1215 H 111.856 4.01775 -1.27103 0
M  V30 1216 H 110.58 3.25296 -0.291564 0
M  V30 1217 H 109.239 2.79351 -2.37399 0
M  V30 1218 H 108.887 4.91052 -1.0898 0
M  V30 1219 H 108.587 5.14992 -2.82943 0
M  V30 1220 H 110.111 5.73289 -2.10171 0
M  V30 1221 H 111.525 4.26293 -3.83337 0
M  V30 1222 H 109.922 3.91804 -4.54543 0
M  V30 1223 H 110.992 2.57328 -4.10987 0
M  V30 1224 N 112.336 1.25143 0.95797 0
M  V30 1225 C 113.584 1.09476 1.69881 0
M  V30 1226 C 113.905 -0.365502 1.91544 0
M  V30 1227 O 113.175 -1.25985 1.50015 0
M  V30 1228 H 111.755 0.402128 0.629525 0
M  V30 1229 H 114.417 1.57214 1.15194 0
M  V30 1230 H 113.513 1.60046 2.6794 0
M  V30 1231 N 113.814 -1.1601 1.06675 0
M  V30 1232 C 115.039 -1.91068 0.806706 0
M  V30 1233 C 115.464 -1.77112 -0.633485 0
M  V30 1234 O 114.822 -1.09908 -1.44187 0
M  V30 1235 C 114.87 -3.39655 1.21106 0
M  V30 1236 O 113.974 -4.10893 0.352189 0
M  V30 1237 H 113.315 -0.595125 0.294486 0
M  V30 1238 H 115.845 -1.46955 1.42356 0
M  V30 1239 H 115.855 -3.90434 1.18428 0
M  V30 1240 H 114.53 -3.49132 2.26008 0
M  V30 1241 H 113.107 -3.70285 0.440868 0
M  V30 1242 N 115.292 -0.849877 -1.32721 0
M  V30 1243 C 116.708 -0.539102 -1.50219 0
M  V30 1244 C 116.908 0.931271 -1.78689 0
M  V30 1245 O 115.964 1.71455 -1.85363 0
M  V30 1246 C 117.277 -1.42196 -2.64954 0
M  V30 1247 C 118.825 -1.42189 -2.78839 0
M  V30 1248 C 119.3 -2.28985 -3.96648 0
M  V30 1249 N 120.791 -2.26754 -4.03902 0
M  V30 1250 C 121.526 -2.90644 -4.94281 0
M  V30 1251 N 121.022 -3.63629 -5.897 0
M  V30 1252 N 122.815 -2.80057 -4.87365 0
M  V30 1253 H 114.966 -1.80156 -1.12506 0
M  V30 1254 H 117.229 -0.769217 -0.554085 0
M  V30 1255 H 116.935 -2.46733 -2.50631 0
M  V30 1256 H 116.809 -1.10591 -3.60624 0
M  V30 1257 H 119.196 -0.38419 -2.92588 0
M  V30 1258 H 119.277 -1.77807 -1.83898 0
M  V30 1259 H 118.921 -3.32819 -3.83658 0
M  V30 1260 H 118.851 -1.90702 -4.90857 0
M  V30 1261 H 121.342 -1.73688 -3.3562 0
M  V30 1262 H 121.655 -4.09558 -6.55349 0
M  V30 1263 H 120 -3.67737 -5.89741 0
M  V30 1264 H 123.191 -2.22593 -4.11789 0
M  V30 1265 H 123.364 -3.30132 -5.57599 0
M  V30 1266 N 116.77 1.45427 -0.607355 0
M  V30 1267 C 117.995 2.07124 -0.107006 0
M  V30 1268 C 118.42 1.44906 1.19933 0
M  V30 1269 O 117.778 0.541687 1.73019 0
M  V30 1270 C 117.826 3.60595 0.0194119 0
M  V30 1271 O 116.93 3.98285 1.0697 0
M  V30 1272 H 116.271 0.659868 -0.0739597 0
M  V30 1273 H 118.801 1.86683 -0.837297 0
M  V30 1274 H 118.811 4.07419 0.2177 0
M  V30 1275 H 117.486 4.05266 -0.934453 0
M  V30 1276 H 116.063 3.63133 0.847889 0
M  V30 1277 N 118.248 0.346503 1.53744 0
M  V30 1278 C 119.495 -0.249104 2.00962 0
M  V30 1279 C 119.823 -1.5032 1.23426 0
M  V30 1280 O 119.078 -1.93217 0.310761 0
M  V30 1281 C 119.377 -0.605809 3.52228 0
M  V30 1282 C 119.043 0.551747 4.47512 0
M  V30 1283 C 117.705 0.86941 4.73281 0
M  V30 1284 C 120.057 1.32818 5.03993 0
M  V30 1285 C 117.385 1.96582 5.52786 0
M  V30 1286 C 119.737 2.41486 5.84694 0
M  V30 1287 C 118.401 2.73808 6.08757 0
M  V30 1288 H 117.671 -0.0911538 0.735372 0
M  V30 1289 H 120.318 0.475027 1.85515 0
M  V30 1290 H 118.623 -1.4107 3.65522 0
M  V30 1291 H 120.32 -1.07858 3.86222 0
M  V30 1292 H 116.91 0.294102 4.2759 0
M  V30 1293 H 121.094 1.09602 4.84047 0
M  V30 1294 H 116.35 2.22045 5.69654 0
M  V30 1295 H 120.524 3.02078 6.27473 0
M  V30 1296 H 118.151 3.58892 6.7015 0
M  V30 1297 N 119.726 -1.57421 0.075193 0
M  V30 1298 C 120.658 -2.09904 -0.920483 0
M  V30 1299 C 121.671 -1.03191 -1.25918 0
M  V30 1300 O 122.86 -1.30695 -1.21577 0
M  V30 1301 C 119.96 -2.54726 -2.23534 0
M  V30 1302 C 119.133 -3.8505 -2.07498 0
M  V30 1303 C 118.192 -4.15929 -3.22319 0
M  V30 1304 O 117.218 -4.85474 -2.9716 0
M  V30 1305 N 118.42 -3.69745 -4.47514 0
M  V30 1306 H 121.185 -2.95954 -0.472359 0
M  V30 1307 H 118.746 -1.61523 -0.110444 0
M  V30 1308 H 120.738 -2.72443 -2.9926 0
M  V30 1309 H 119.308 -1.73795 -2.59835 0
M  V30 1310 H 118.528 -3.76679 -1.16219 0
M  V30 1311 H 119.816 -4.70348 -1.94038 0
M  V30 1312 H 119.214 -3.13569 -4.7084 0
M  V30 1313 H 117.771 -3.92655 -5.20255 0
M  V30 1314 N 121.204 0.198386 -1.56346 0
M  V30 1315 C 122.452 0.91747 -1.80075 0
M  V30 1316 C 122.773 1.83929 -0.647692 0
M  V30 1317 O 122.043 1.93029 0.334166 0
M  V30 1318 H 120.623 0.341774 -0.664228 0
M  V30 1319 H 123.285 0.204684 -1.93822 0
M  V30 1320 H 122.381 1.51055 -2.7311 0
M  V30 1321 N 122.682 1.50554 0.465978 0
M  V30 1322 C 123.93 1.61479 1.21528 0
M  V30 1323 C 124.251 0.319596 1.92363 0
M  V30 1324 O 123.521 -0.663194 1.84333 0
M  V30 1325 H 122.101 0.595055 0.451573 0
M  V30 1326 H 124.763 1.87355 0.53704 0
M  V30 1327 H 123.859 2.42846 1.96042 0
M  V30 1328 N 124.16 -0.719506 1.40217 0
M  V30 1329 C 125.07 -1.86378 1.42479 0
M  V30 1330 C 126.086 -1.71073 0.317834 0
M  V30 1331 O 127.262 -1.93406 0.561794 0
M  V30 1332 C 124.327 -3.22136 1.28178 0
M  V30 1333 C 123.388 -3.49723 2.48982 0
M  V30 1334 C 122.621 -4.79004 2.35353 0
M  V30 1335 O 122.844 -5.53821 1.36524 0
M  V30 1336 O 121.778 -5.06839 3.2465 0
M  V30 1337 H 125.604 -1.87425 2.38968 0
M  V30 1338 H 123.189 -0.869405 1.21498 0
M  V30 1339 H 125.071 -4.03234 1.22395 0
M  V30 1340 H 123.746 -3.21825 0.347934 0
M  V30 1341 H 122.653 -2.6865 2.60342 0
M  V30 1342 H 123.986 -3.54828 3.41113 0
M  V30 1343 N 125.638 -1.25649 -0.95132 0
M  V30 1344 C 126.915 -1.01361 -1.67288 0
M  V30 1345 C 127.295 0.459135 -2.06046 0
M  V30 1346 O 126.643 1.43723 -1.7764 0
M  V30 1347 C 126.853 -1.95256 -2.89268 0
M  V30 1348 C 128.201 -2.23289 -3.61147 0
M  V30 1349 O 129.225 -1.93041 -2.99355 0
M  V30 1350 O 128.084 -2.74741 -4.72419 0
M  V30 1351 H 125.178 -0.38464 -0.732107 0
M  V30 1352 H 127.724 -1.36817 -1.00395 0
M  V30 1353 H 126.496 -2.94685 -2.57442 0
M  V30 1354 H 126.119 -1.60218 -3.6389 0
M  V30 1355 N 127.117 1.15442 -1.07289 0
M  V30 1356 C 128.027 2.23786 -0.704057 0
M  V30 1357 C 129.043 1.7166 0.284413 0
M  V30 1358 O 130.219 2.00972 0.131205 0
M  V30 1359 C 127.284 3.46535 -0.106792 0
M  V30 1360 C 126.345 4.13654 -1.14842 0
M  V30 1361 C 125.578 5.30544 -0.57956 0
M  V30 1362 O 125.801 5.67187 0.604585 0
M  V30 1363 O 124.735 5.87154 -1.32414 0
M  V30 1364 H 128.561 2.57664 -1.60757 0
M  V30 1365 H 126.146 1.23152 -0.845803 0
M  V30 1366 H 128.028 4.20804 0.224048 0
M  V30 1367 H 126.703 3.14407 0.770049 0
M  V30 1368 H 125.61 3.4131 -1.5316 0
M  V30 1369 H 126.943 4.49861 -1.99714 0
M  V30 1370 N 128.595 0.856903 1.32268 0
M  V30 1371 C 129.525 0.31858 2.31316 0
M  V30 1372 C 130.506 -0.583487 1.59779 0
M  V30 1373 O 131.691 -0.503259 1.87566 0
M  V30 1374 C 128.821 -0.491979 3.43798 0
M  V30 1375 C 127.775 0.315849 4.26833 0
M  V30 1376 C 127.101 -0.619586 5.31098 0
M  V30 1377 C 128.401 1.54282 4.98993 0
M  V30 1378 H 130.095 1.14621 2.76591 0
M  V30 1379 H 127.641 0.552613 1.32974 0
M  V30 1380 H 129.594 -0.879012 4.1213 0
M  V30 1381 H 128.318 -1.35299 2.97257 0
M  V30 1382 H 126.977 0.684664 3.6015 0
M  V30 1383 H 126.625 -1.47751 4.8081 0
M  V30 1384 H 126.325 -0.0830621 5.87541 0
M  V30 1385 H 127.849 -1.00375 6.02293 0
M  V30 1386 H 129.263 1.22796 5.59995 0
M  V30 1387 H 127.66 2.01745 5.65172 0
M  V30 1388 H 128.73 2.30285 4.26728 0
M  V30 1389 N 130.073 -1.45103 0.615059 0
M  V30 1390 C 131.301 -2.06553 0.11977 0
M  V30 1391 C 131.716 -1.45842 -1.19898 0
M  V30 1392 O 131.073 -0.575325 -1.73194 0
M  V30 1393 C 131.124 -3.61495 -0.018364 0
M  V30 1394 O 130.845 -4.19942 1.24822 0
M  V30 1395 C 132.346 -4.39947 -0.544237 0
M  V30 1396 H 129.566 -0.667096 0.0722739 0
M  V30 1397 H 132.11 -1.8623 0.84491 0
M  V30 1398 H 130.265 -3.81135 -0.693865 0
M  V30 1399 H 130.679 -5.13204 1.0827 0
M  V30 1400 H 132.153 -5.48838 -0.589953 0
M  V30 1401 H 132.63 -4.10255 -1.56805 0
M  V30 1402 H 133.236 -4.25188 0.0974703 0
M  V30 1403 N 131.551 -0.354651 -1.53558 0
M  V30 1404 C 132.797 0.238797 -2.01389 0
M  V30 1405 C 133.13 1.49309 -1.2418 0
M  V30 1406 O 132.405 1.91638 -0.332457 0
M  V30 1407 C 132.688 0.541771 -3.56001 0
M  V30 1408 C 132.541 -0.725388 -4.43912 0
M  V30 1409 C 133.86 1.34685 -4.18984 0
M  V30 1410 H 130.979 0.0853177 -0.732045 0
M  V30 1411 H 133.621 -0.477384 -1.83905 0
M  V30 1412 H 131.771 1.15189 -3.71031 0
M  V30 1413 H 133.443 -1.36313 -4.407 0
M  V30 1414 H 131.686 -1.34801 -4.12324 0
M  V30 1415 H 132.357 -0.468505 -5.50008 0
M  V30 1416 H 134.833 0.830837 -4.07721 0
M  V30 1417 H 133.709 1.52759 -5.27215 0
M  V30 1418 H 133.97 2.35221 -3.74331 0
M  V30 1419 N 133.029 1.57378 -0.0835403 0
M  V30 1420 C 134.259 1.97975 0.590713 0
M  V30 1421 C 134.667 0.961083 1.62972 0
M  V30 1422 O 134.01 -0.0590879 1.83605 0
M  V30 1423 C 134.072 3.34915 1.3066 0
M  V30 1424 C 133.736 4.55069 0.419698 0
M  V30 1425 C 134.733 5.18868 -0.32749 0
M  V30 1426 C 132.418 5.0114 0.341137 0
M  V30 1427 C 134.412 6.27098 -1.14134 0
M  V30 1428 C 132.099 6.0924 -0.476374 0
M  V30 1429 C 133.097 6.72083 -1.21627 0
M  V30 1430 O 132.785 7.781 -2.02028 0
M  V30 1431 H 132.517 0.655818 0.163947 0
M  V30 1432 H 135.071 2.04807 -0.156021 0
M  V30 1433 H 133.301 3.24733 2.09966 0
M  V30 1434 H 134.99 3.60037 1.87424 0
M  V30 1435 H 135.756 4.84211 -0.276459 0
M  V30 1436 H 131.635 4.51996 0.90668 0
M  V30 1437 H 135.179 6.7608 -1.71935 0
M  V30 1438 H 131.076 6.43329 -0.528927 0
M  V30 1439 H 131.844 7.95034 -1.94586 0
M  V30 1440 N 134.507 -0.190092 1.56449 0
M  V30 1441 C 135.755 -0.907908 1.80559 0
M  V30 1442 C 136.076 -1.83583 0.657438 0
M  V30 1443 O 135.346 -1.93203 -0.323924 0
M  V30 1444 H 133.926 -0.338247 0.666032 0
M  V30 1445 H 136.588 -0.194403 1.93928 0
M  V30 1446 H 135.684 -1.49604 2.73907 0
M  V30 1447 N 135.985 -1.50799 -0.457987 0
M  V30 1448 C 137.396 -1.55152 -1.0385 0
M  V30 1449 C 137.747 -0.362719 -1.92818 0
M  V30 1450 O 136.872 0.522915 -2.09987 0
M  V30 1451 C 137.467 -2.81173 -1.89017 0
M  V30 1452 C 136.026 -2.88164 -2.42154 0
M  V30 1453 C 135.173 -2.49591 -1.20829 0
M  V30 1454 H 138.124 -1.56874 -0.240068 0
M  V30 1455 H 138.145 -2.63769 -2.74238 0
M  V30 1456 H 137.657 -3.67677 -1.24238 0
M  V30 1457 H 135.758 -2.06042 -3.10447 0
M  V30 1458 H 135.871 -3.91356 -2.76364 0
M  V30 1459 H 134.235 -2.02322 -1.54719 0
M  V30 1460 H 135.018 -3.38418 -0.576927 0
M  V30 1461 N 137.463 0.71206 -1.40597 0
M  V30 1462 C 138.41 1.82613 -1.41142 0
M  V30 1463 C 139.38 1.63925 -0.267903 0
M  V30 1464 O 140.565 1.85009 -0.466495 0
M  V30 1465 C 137.705 3.20354 -1.28324 0
M  V30 1466 C 136.818 3.50589 -2.52411 0
M  V30 1467 C 135.953 4.77855 -2.32009 0
M  V30 1468 C 134.992 5.01005 -3.51654 0
M  V30 1469 N 134.129 6.19487 -3.30425 0
M  V30 1470 H 138.969 1.81482 -2.36365 0
M  V30 1471 H 136.506 0.886475 -1.17388 0
M  V30 1472 H 138.464 3.99899 -1.18899 0
M  V30 1473 H 137.094 3.20705 -0.367189 0
M  V30 1474 H 136.146 2.65573 -2.72351 0
M  V30 1475 H 137.458 3.63604 -3.41458 0
M  V30 1476 H 136.612 5.65424 -2.19956 0
M  V30 1477 H 135.351 4.67056 -1.40392 0
M  V30 1478 H 134.356 4.1189 -3.64179 0
M  V30 1479 H 135.581 5.13674 -4.44202 0
M  V30 1480 H 133.527 6.09932 -2.41494 0
M  V30 1481 H 133.444 6.33194 -4.13039 0
M  V30 1482 H 134.712 7.09834 -3.22113 0
M  V30 1483 N 138.941 1.26152 0.944643 0
M  V30 1484 C 140.189 1.11271 1.6871 0
M  V30 1485 C 140.51 -0.345166 1.91921 0
M  V30 1486 O 139.78 -1.24387 1.51343 0
M  V30 1487 H 138.36 0.408783 0.625224 0
M  V30 1488 H 141.022 1.58427 1.1352 0
M  V30 1489 H 140.118 1.62879 2.66227 0
M  V30 1490 N 140.419 -1.14872 1.07899 0
M  V30 1491 C 141.668 -1.85135 0.800499 0
M  V30 1492 C 141.981 -1.83547 -0.676014 0
M  V30 1493 O 143.187 -2.49548 -1.06948 0
M  V30 1494 C 141.643 -3.3231 1.38197 0
M  V30 1495 C 141.251 -3.42329 2.8899 0
M  V30 1496 C 142.995 -4.0772 1.18174 0
M  V30 1497 C 140.902 -4.83684 3.403 0
M  V30 1498 H 139.832 -0.693563 0.29578 0
M  V30 1499 H 142.483 -1.29532 1.29976 0
M  V30 1500 H 140.865 -3.87618 0.810431 0
M  V30 1501 H 142.039 -2.97097 3.52236 0
M  V30 1502 H 140.354 -2.80369 3.07867 0
M  V30 1503 H 142.951 -5.12049 1.5398 0
M  V30 1504 H 143.294 -4.16124 0.12117 0
M  V30 1505 H 143.827 -3.58696 1.71994 0
M  V30 1506 H 140.566 -4.80465 4.45907 0
M  V30 1507 H 140.086 -5.29474 2.81811 0
M  V30 1508 H 141.765 -5.52558 3.36584 0
M  V30 1509 N 141.898 -0.863906 -1.31812 0
M  V30 1510 C 142.845 -0.313303 -2.28664 0
M  V30 1511 C 143.815 0.584868 -1.55462 0
M  V30 1512 O 145 0.517805 -1.83639 0
M  V30 1513 C 142.14 0.48441 -3.41683 0
M  V30 1514 C 141.253 -0.440594 -4.29747 0
M  V30 1515 C 140.388 0.370652 -5.29905 0
M  V30 1516 C 139.427 -0.551164 -6.09613 0
M  V30 1517 N 138.564 0.223462 -7.01744 0
M  V30 1518 H 143.404 -1.14444 -2.75148 0
M  V30 1519 H 140.941 -0.575769 -1.35364 0
M  V30 1520 H 142.899 0.962627 -4.05943 0
M  V30 1521 H 141.529 1.28029 -2.96325 0
M  V30 1522 H 140.581 -1.03724 -3.65986 0
M  V30 1523 H 141.893 -1.14767 -4.85417 0
M  V30 1524 H 141.047 0.911638 -5.99812 0
M  V30 1525 H 139.786 1.11105 -4.74876 0
M  V30 1526 H 138.791 -1.10396 -5.38603 0
M  V30 1527 H 140.016 -1.29032 -6.66729 0
M  V30 1528 H 137.962 0.946787 -6.49132 0
M  V30 1529 H 137.879 -0.424399 -7.54808 0
M  V30 1530 H 139.147 0.745876 -7.75923 0
M  V30 1531 N 143.376 1.44774 -0.622745 0
M  V30 1532 C 144.339 2.29069 0.0774015 0
M  V30 1533 C 145.339 1.4059 0.780461 0
M  V30 1534 O 146.529 1.62551 0.626322 0
M  V30 1535 C 143.661 3.21974 1.12006 0
M  V30 1536 H 144.854 2.92459 -0.663901 0
M  V30 1537 H 142.407 1.51548 -0.382486 0
M  V30 1538 H 143.142 2.63417 1.89162 0
M  V30 1539 H 142.927 3.87168 0.619951 0
M  V30 1540 H 144.417 3.85318 1.60995 0
M  V30 1541 N 144.854 0.36279 1.53368 0
M  V30 1542 C 146.101 -0.227776 2.01215 0
M  V30 1543 C 146.429 -1.49003 1.25014 0
M  V30 1544 O 145.684 -1.92876 0.331236 0
M  V30 1545 C 145.983 -0.568417 3.52851 0
M  V30 1546 C 145.649 0.59918 4.46901 0
M  V30 1547 C 144.311 0.919559 4.72332 0
M  V30 1548 C 146.663 1.38156 5.02556 0
M  V30 1549 C 143.991 2.02434 5.5067 0
M  V30 1550 C 146.343 2.47674 5.821 0
M  V30 1551 C 145.007 2.8025 6.05819 0
M  V30 1552 H 144.277 -0.083349 0.736297 0
M  V30 1553 H 146.924 0.494677 1.85001 0
M  V30 1554 H 145.229 -1.37185 3.66998 0
M  V30 1555 H 146.926 -1.03756 3.87344 0
M  V30 1556 H 143.516 0.339437 4.27254 0
M  V30 1557 H 147.7 1.14729 4.82857 0
M  V30 1558 H 142.956 2.28075 5.67267 0
M  V30 1559 H 147.13 3.08716 6.24234 0
M  V30 1560 H 144.757 3.65979 6.66306 0
M  V30 1561 N 146.332 -1.57332 0.0918853 0
M  V30 1562 C 147.581 -1.93412 -0.572249 0
M  V30 1563 C 147.894 -0.975515 -1.69538 0
M  V30 1564 O 149.1 -1.22991 -2.42045 0
M  V30 1565 C 147.556 -3.43648 -1.0693 0
M  V30 1566 C 147.164 -4.47994 0.0239049 0
M  V30 1567 C 148.908 -3.88695 -1.70635 0
M  V30 1568 C 146.815 -5.89381 -0.488319 0
M  V30 1569 H 145.745 -0.721939 -0.217532 0
M  V30 1570 H 148.396 -1.82735 0.167369 0
M  V30 1571 H 146.778 -3.49466 -1.8625 0
M  V30 1572 H 147.952 -4.53815 0.799277 0
M  V30 1573 H 146.267 -4.12536 0.565946 0
M  V30 1574 H 148.864 -4.91725 -2.10025 0
M  V30 1575 H 149.207 -3.27166 -2.57426 0
M  V30 1576 H 149.74 -3.85564 -0.979023 0
M  V30 1577 H 146.479 -6.54602 0.342906 0
M  V30 1578 H 145.999 -5.87037 -1.23077 0
M  V30 1579 H 147.678 -6.39863 -0.958317 0
M  V30 1580 N 147.81 0.181792 -1.56548 0
M  V30 1581 C 148.72 1.24538 -1.98815 0
M  V30 1582 C 149.736 1.49045 -0.897861 0
M  V30 1583 O 150.912 1.61399 -1.20467 0
M  V30 1584 C 147.977 2.56683 -2.33055 0
M  V30 1585 C 147.038 2.40131 -3.55859 0
M  V30 1586 C 146.271 3.65975 -3.88456 0
M  V30 1587 O 146.494 4.70711 -3.22161 0
M  V30 1588 O 145.428 3.6071 -4.81842 0
M  V30 1589 H 149.254 0.916647 -2.89536 0
M  V30 1590 H 146.839 0.387842 -1.44278 0
M  V30 1591 H 148.721 3.34655 -2.56094 0
M  V30 1592 H 147.396 2.89157 -1.45498 0
M  V30 1593 H 146.303 1.60226 -3.38051 0
M  V30 1594 H 147.636 2.12585 -4.43924 0
M  V30 1595 N 149.288 1.51039 0.449983 0
M  V30 1596 C 150.516 1.66869 1.2232 0
M  V30 1597 C 150.931 0.360727 1.85322 0
M  V30 1598 O 150.288 -0.659531 1.70166 0
M  V30 1599 C 150.339 2.77524 2.31652 0
M  V30 1600 O 150.06 4.03252 1.7123 0
M  V30 1601 C 151.561 3.04512 3.2216 0
M  V30 1602 H 148.781 0.560326 0.369155 0
M  V30 1603 H 151.325 1.97385 0.534719 0
M  V30 1604 H 149.48 2.49642 2.96239 0
M  V30 1605 H 149.894 4.64609 2.43389 0
M  V30 1606 H 151.368 3.85551 3.95038 0
M  V30 1607 H 151.845 2.16415 3.8218 0
M  V30 1608 H 152.451 3.34005 2.63288 0
M  V30 1609 N 150.766 -0.704594 1.40972 0
M  V30 1610 C 151.991 -1.49858 1.43378 0
M  V30 1611 C 152.416 -1.88061 0.038184 0
M  V30 1612 O 151.774 -1.5402 -0.956425 0
M  V30 1613 C 151.822 -2.74333 2.34038 0
M  V30 1614 O 150.926 -3.7147 1.7912 0
M  V30 1615 H 150.267 -0.45139 0.486974 0
M  V30 1616 H 152.797 -0.866832 1.8533 0
M  V30 1617 H 152.807 -3.22741 2.49604 0
M  V30 1618 H 151.482 -2.45863 3.35446 0
M  V30 1619 H 150.059 -3.30363 1.72958 0
M  V30 1620 N 152.244 -1.26651 -0.937939 0
M  V30 1621 C 153.174 -1.10993 -2.05433 0
M  V30 1622 C 154.155 -0.0142161 -1.70094 0
M  V30 1623 O 155.34 -0.186837 -1.93299 0
M  V30 1624 C 152.47 -0.745561 -3.39203 0
M  V30 1625 C 151.424 -1.79337 -3.88616 0
M  V30 1626 C 150.75 -1.28324 -5.19073 0
M  V30 1627 C 152.05 -3.19553 -4.13138 0
M  V30 1628 H 153.744 -2.0438 -2.1879 0
M  V30 1629 H 151.29 -0.984041 -1.05131 0
M  V30 1630 H 153.243 -0.622888 -4.16771 0
M  V30 1631 H 151.967 0.22401 -3.25831 0
M  V30 1632 H 150.626 -1.90477 -3.13231 0
M  V30 1633 H 150.274 -0.303414 -5.02084 0
M  V30 1634 H 149.974 -1.98369 -5.53103 0
M  V30 1635 H 151.498 -1.1733 -5.99221 0
M  V30 1636 H 152.912 -3.11471 -4.81309 0
M  V30 1637 H 151.309 -3.87218 -4.58457 0
M  V30 1638 H 152.379 -3.65368 -3.18801 0
M  V30 1639 N 153.722 1.14298 -1.08507 0
M  V30 1640 C 154.685 2.17607 -0.719711 0
M  V30 1641 C 155.685 1.58907 0.245997 0
M  V30 1642 O 156.875 1.74181 0.0254081 0
M  V30 1643 C 154.007 3.40842 -0.0627695 0
M  V30 1644 H 155.2 2.51443 -1.63452 0
M  V30 1645 H 152.753 1.28963 -0.88307 0
M  V30 1646 H 153.488 3.12587 0.863716 0
M  V30 1647 H 153.273 3.84713 -0.757504 0
M  V30 1648 H 154.763 4.17221 0.177786 0
M  V30 1649 N 155.201 0.870884 1.31352 0
M  V30 1650 C 156.447 0.482987 1.96965 0
M  V30 1651 C 156.78 -0.962462 1.68672 0
M  V30 1652 O 156.055 -1.6779 0.98371 0
M  V30 1653 C 156.338 0.741752 3.52378 0
M  V30 1654 C 156.191 2.2368 3.9024 0
M  V30 1655 C 157.51 0.208838 4.39604 0
M  V30 1656 H 154.629 0.176955 0.715441 0
M  V30 1657 H 157.271 1.09229 1.55464 0
M  V30 1658 H 155.421 0.223149 3.87859 0
M  V30 1659 H 157.093 2.82273 3.64856 0
M  V30 1660 H 155.336 2.70901 3.38814 0
M  V30 1661 H 156.007 2.3685 4.98604 0
M  V30 1662 H 158.483 0.652529 4.10952 0
M  V30 1663 H 157.359 0.419336 5.47296 0
M  V30 1664 H 157.62 -0.889275 4.33064 0
M  V30 1665 N 156.679 -1.44442 0.630414 0
M  V30 1666 C 157.907 -2.06414 0.141671 0
M  V30 1667 C 158.322 -1.47105 -1.18345 0
M  V30 1668 O 157.679 -0.593662 -1.72574 0
M  V30 1669 C 157.73 -3.61494 0.0199784 0
M  V30 1670 O 157.451 -4.18594 1.29269 0
M  V30 1671 C 158.952 -4.40499 -0.497544 0
M  V30 1672 H 156.172 -0.666292 0.0793452 0
M  V30 1673 H 158.716 -1.85323 0.864614 0
M  V30 1674 H 156.871 -3.8185 -0.653402 0
M  V30 1675 H 157.285 -5.12026 1.13707 0
M  V30 1676 H 158.759 -5.49433 -0.531708 0
M  V30 1677 H 159.236 -4.11895 -1.52445 0
M  V30 1678 H 159.842 -4.25061 0.142562 0
M  V30 1679 N 158.157 -0.370918 -1.53173 0
M  V30 1680 C 159.104 0.473035 -2.259 0
M  V30 1681 C 160.074 1.07311 -1.26781 0
M  V30 1682 O 161.259 1.1046 -1.55574 0
M  V30 1683 C 158.399 1.60405 -3.05556 0
M  V30 1684 C 157.512 1.02863 -4.19575 0
M  V30 1685 C 156.647 2.12918 -4.86661 0
M  V30 1686 C 155.686 1.52869 -5.92704 0
M  V30 1687 N 154.823 2.56779 -6.53459 0
M  V30 1688 H 159.663 -0.153649 -2.97604 0
M  V30 1689 H 157.2 -0.0875946 -1.46839 0
M  V30 1690 H 159.158 2.27034 -3.50016 0
M  V30 1691 H 157.788 2.20131 -2.36097 0
M  V30 1692 H 156.84 0.252465 -3.79561 0
M  V30 1693 H 158.152 0.549642 -4.95762 0
M  V30 1694 H 157.306 2.87356 -5.34333 0
M  V30 1695 H 156.045 2.6417 -4.09958 0
M  V30 1696 H 155.05 0.769479 -5.44389 0
M  V30 1697 H 156.275 1.02435 -6.7133 0
M  V30 1698 H 154.221 3.07235 -5.79606 0
M  V30 1699 H 154.138 2.13583 -7.25202 0
M  V30 1700 H 155.406 3.30903 -7.05779 0
M  V30 1701 N 159.635 1.57281 -0.100228 0
M  V30 1702 C 160.863 1.98879 0.570509 0
M  V30 1703 C 161.278 0.979476 1.61405 0
M  V30 1704 O 160.635 -0.0302288 1.82475 0
M  V30 1705 C 160.686 3.4052 1.2136 0
M  V30 1706 O 160.407 4.37588 0.211786 0
M  V30 1707 C 161.908 3.97149 1.96945 0
M  V30 1708 H 159.128 0.653428 0.152555 0
M  V30 1709 H 161.672 2.03697 -0.18103 0
M  V30 1710 H 159.827 3.367 1.91603 0
M  V30 1711 H 160.241 5.20118 0.676607 0
M  V30 1712 H 161.715 4.98393 2.37294 0
M  V30 1713 H 162.192 3.3525 2.83733 0
M  V30 1714 H 162.798 4.04458 1.31506 0
M  V30 1715 N 161.113 -0.173488 1.56642 0
M  V30 1716 C 162.063 -1.21941 1.92651 0
M  V30 1717 C 163.047 -1.39912 0.794577 0
M  V30 1718 O 164.239 -1.41919 1.05773 0
M  V30 1719 C 161.368 -2.55935 2.28806 0
M  V30 1720 C 160.454 -2.41667 3.48508 0
M  V30 1721 N 160.845 -1.9711 4.65813 0
M  V30 1722 C 159.143 -2.72499 3.53072 0
M  V30 1723 C 159.844 -1.95253 5.47952 0
M  V30 1724 N 158.82 -2.37575 4.88937 0
M  V30 1725 H 162.622 -0.866581 2.80834 0
M  V30 1726 H 160.136 -0.381776 1.57849 0
M  V30 1727 H 162.133 -3.31511 2.52797 0
M  V30 1728 H 160.793 -2.92022 1.41961 0
M  V30 1729 H 161.804 -1.67481 4.90072 0
M  V30 1730 H 158.481 -3.12639 2.767 0
M  V30 1731 H 159.871 -1.6252 6.51948 0
M  V30 1732 N 162.591 -1.51276 -0.441967 0
M  V30 1733 C 163.521 -1.752 -1.54361 0
M  V30 1734 C 164.502 -0.601682 -1.59103 0
M  V30 1735 O 165.687 -0.843913 -1.74905 0
M  V30 1736 C 162.817 -1.87282 -2.92477 0
M  V30 1737 C 161.771 -3.02687 -3.02596 0
M  V30 1738 C 161.097 -2.99947 -4.42647 0
M  V30 1739 C 162.397 -4.4273 -2.77106 0
M  V30 1740 H 164.091 -2.67442 -1.34592 0
M  V30 1741 H 161.637 -1.28694 -0.646048 0
M  V30 1742 H 163.59 -2.02602 -3.695 0
M  V30 1743 H 162.314 -0.916844 -3.13467 0
M  V30 1744 H 160.973 -2.87065 -2.28012 0
M  V30 1745 H 160.621 -2.02136 -4.60597 0
M  V30 1746 H 160.321 -3.77439 -4.50348 0
M  V30 1747 H 161.845 -3.17354 -5.2165 0
M  V30 1748 H 163.259 -4.58727 -3.43864 0
M  V30 1749 H 161.656 -5.21893 -2.96222 0
M  V30 1750 H 162.726 -4.53087 -1.72744 0
M  V30 1751 N 164.069 0.697108 -1.41344 0
M  V30 1752 C 165.297 1.48593 -1.43972 0
M  V30 1753 C 165.712 1.88747 -0.0445612 0
M  V30 1754 O 165.069 1.56682 0.935785 0
M  V30 1755 C 165.12 2.74946 -2.34706 0
M  V30 1756 O 164.841 2.36484 -3.68791 0
M  V30 1757 C 166.342 3.687 -2.46121 0
M  V30 1758 H 163.562 0.457964 -0.490418 0
M  V30 1759 H 166.106 0.858429 -1.8561 0
M  V30 1760 H 164.261 3.33937 -1.9638 0
M  V30 1761 H 164.675 3.17918 -4.17167 0
M  V30 1762 H 166.149 4.54145 -3.13777 0
M  V30 1763 H 166.626 4.13081 -1.49199 0
M  V30 1764 H 167.232 3.15613 -2.85076 0
M  V30 1765 N 165.547 1.27147 0.931209 0
M  V30 1766 C 166.777 1.15914 1.71019 0
M  V30 1767 C 167.185 -0.287112 1.87009 0
M  V30 1768 O 166.528 -1.20761 1.38429 0
M  V30 1769 C 166.59 1.76647 3.13107 0
M  V30 1770 C 166.254 3.25807 3.20467 0
M  V30 1771 C 167.251 4.22489 3.02983 0
M  V30 1772 C 164.936 3.66452 3.43538 0
M  V30 1773 C 166.93 5.57794 3.08454 0
M  V30 1774 C 164.617 5.01888 3.48643 0
M  V30 1775 C 165.615 5.97369 3.31119 0
M  V30 1776 O 165.303 7.30337 3.35952 0
M  V30 1777 H 165.035 0.404062 0.54195 0
M  V30 1778 H 167.589 1.68457 1.17521 0
M  V30 1779 H 165.819 1.18578 3.68071 0
M  V30 1780 H 167.508 1.60179 3.72958 0
M  V30 1781 H 168.274 3.92425 2.85004 0
M  V30 1782 H 164.153 2.92611 3.5623 0
M  V30 1783 H 167.697 6.32298 2.94694 0
M  V30 1784 H 163.594 5.31609 3.66145 0
M  V30 1785 H 164.362 7.38739 3.5243 0
M  V30 1786 N 167.025 -1.13721 1.09112 0
M  V30 1787 C 168.436 -1.6648 0.845068 0
M  V30 1788 C 168.787 -1.85911 -0.62701 0
M  V30 1789 O 167.912 -1.57556 -1.48341 0
M  V30 1790 C 168.507 -3.02413 1.52748 0
M  V30 1791 C 167.066 -3.52176 1.32849 0
M  V30 1792 C 166.213 -2.27492 1.58564 0
M  V30 1793 H 169.164 -0.976872 1.25072 0
M  V30 1794 H 169.185 -3.68223 0.958752 0
M  V30 1795 H 168.697 -2.88238 2.59885 0
M  V30 1796 H 166.798 -3.7156 0.278137 0
M  V30 1797 H 166.911 -4.32499 2.0611 0
M  V30 1798 H 165.275 -2.33923 1.00758 0
M  V30 1799 H 166.058 -2.15886 2.66924 0
M  V30 1800 N 168.503 -0.877838 -1.30888 0
M  V30 1801 C 169.433 -0.35534 -2.3078 0
M  V30 1802 C 170.414 0.557994 -1.60687 0
M  V30 1803 O 171.599 0.473355 -1.88343 0
M  V30 1804 C 168.729 0.437221 -3.44537 0
M  V30 1805 C 167.683 -0.383715 -4.26276 0
M  V30 1806 C 167.009 0.535014 -5.32017 0
M  V30 1807 C 168.309 -1.62201 -4.96476 0
M  V30 1808 H 170.003 -1.19007 -2.74732 0
M  V30 1809 H 167.549 -0.573698 -1.32078 0
M  V30 1810 H 169.502 0.813334 -4.13477 0
M  V30 1811 H 168.226 1.30553 -2.99372 0
M  V30 1812 H 166.885 -0.741874 -3.59015 0
M  V30 1813 H 166.533 1.40083 -4.831 0
M  V30 1814 H 166.233 -0.0104211 -5.87599 0
M  V30 1815 H 167.757 0.907799 -6.03814 0
M  V30 1816 H 169.171 -1.31689 -5.5797 0
M  V30 1817 H 167.568 -2.10711 -5.61891 0
M  V30 1818 H 168.638 -2.37044 -4.23011 0
M  V30 1819 N 169.982 1.44106 -0.638065 0
M  V30 1820 C 170.945 2.29138 0.0531013 0
M  V30 1821 C 171.945 1.41409 0.765506 0
M  V30 1822 O 173.135 1.63206 0.609046 0
M  V30 1823 C 170.267 3.23144 1.08584 0
M  V30 1824 H 171.46 2.91739 -0.694883 0
M  V30 1825 H 169.013 1.51134 -0.398538 0
M  V30 1826 H 169.748 2.65408 1.86357 0
M  V30 1827 H 169.533 3.87804 0.578852 0
M  V30 1828 H 171.023 3.87004 1.56899 0
M  V30 1829 N 171.46 0.379036 1.52974 0
M  V30 1830 C 172.709 -0.207612 2.00629 0
M  V30 1831 C 173.022 -1.48758 1.27006 0
M  V30 1832 O 174.228 -2.15365 1.65318 0
M  V30 1833 C 172.684 -0.42053 3.57435 0
M  V30 1834 C 172.292 0.845587 4.39948 0
M  V30 1835 C 174.036 -0.964102 4.13407 0
M  V30 1836 C 171.943 0.601513 5.88333 0
M  V30 1837 H 170.873 -0.0813591 0.749598 0
M  V30 1838 H 173.524 0.499853 1.76561 0
M  V30 1839 H 171.906 -1.18959 3.7771 0
M  V30 1840 H 173.08 1.61848 4.31442 0
M  V30 1841 H 171.395 1.31336 3.95145 0
M  V30 1842 H 173.992 -1.16225 5.21916 0
M  V30 1843 H 174.335 -1.93019 3.68849 0
M  V30 1844 H 174.868 -0.25487 3.96983 0
M  V30 1845 H 171.607 1.53831 6.37194 0
M  V30 1846 H 171.127 -0.132628 5.99653 0
M  V30 1847 H 172.806 0.232134 6.46583 0
M  V30 1848 N 172.938 -1.57226 0.108567 0
M  V30 1849 C 173.87 -2.11809 -0.875752 0
M  V30 1850 C 174.883 -1.05839 -1.23701 0
M  V30 1851 O 176.072 -1.33245 -1.18778 0
M  V30 1852 C 173.172 -2.59411 -2.18081 0
M  V30 1853 C 172.345 -3.89364 -1.99284 0
M  V30 1854 C 171.404 -4.22672 -3.13424 0
M  V30 1855 O 170.43 -4.91668 -2.86795 0
M  V30 1856 N 171.632 -3.79154 -4.3957 0
M  V30 1857 H 174.397 -2.9689 -0.409477 0
M  V30 1858 H 171.958 -1.61721 -0.076158 0
M  V30 1859 H 173.95 -2.7873 -2.93414 0
M  V30 1860 H 172.52 -1.79268 -2.5609 0
M  V30 1861 H 171.74 -3.79059 -1.08203 0
M  V30 1862 H 173.028 -4.74358 -1.84017 0
M  V30 1863 H 172.426 -3.23486 -4.64083 0
M  V30 1864 H 170.983 -4.03602 -5.11809 0
M  V30 1865 N 174.416 0.165178 -1.56732 0
M  V30 1866 C 175.326 1.22423 -2.00125 0
M  V30 1867 C 176.342 1.48084 -0.913619 0
M  V30 1868 O 177.518 1.60112 -1.22172 0
M  V30 1869 C 174.583 2.54197 -2.35764 0
M  V30 1870 C 173.644 2.36343 -3.58386 0
M  V30 1871 C 172.877 3.61834 -3.92316 0
M  V30 1872 O 173.1 4.67267 -3.27135 0
M  V30 1873 O 172.034 3.55579 -4.85641 0
M  V30 1874 H 175.86 0.885886 -2.90492 0
M  V30 1875 H 173.445 0.372518 -1.44681 0
M  V30 1876 H 175.327 3.3192 -2.59629 0
M  V30 1877 H 174.002 2.87598 -1.48557 0
M  V30 1878 H 172.909 1.56632 -3.39731 0
M  V30 1879 H 174.242 2.07865 -4.46154 0
M  V30 1880 N 175.894 1.51508 0.433938 0
M  V30 1881 C 177.143 1.63578 1.18005 0
M  V30 1882 C 177.456 0.359514 1.92268 0
M  V30 1883 O 178.662 0.359632 2.69108 0
M  V30 1884 C 177.118 2.88901 2.14626 0
M  V30 1885 C 176.726 4.23544 1.45995 0
M  V30 1886 C 178.47 3.10328 2.89649 0
M  V30 1887 C 176.377 5.40014 2.4112 0
M  V30 1888 H 175.307 0.609277 0.444182 0
M  V30 1889 H 177.958 1.77978 0.446773 0
M  V30 1890 H 176.34 2.68142 2.91403 0
M  V30 1891 H 177.514 4.54696 0.747532 0
M  V30 1892 H 175.829 4.08021 0.831115 0
M  V30 1893 H 178.426 3.94518 3.60915 0
M  V30 1894 H 178.769 2.23544 3.51189 0
M  V30 1895 H 179.302 3.31443 2.19978 0
M  V30 1896 H 176.041 6.29068 1.84264 0
M  V30 1897 H 175.561 5.13233 3.10406 0
M  V30 1898 H 177.24 5.72099 3.02177 0
M  V30 1899 N 177.372 -0.689602 1.41712 0
M  V30 1900 C 178.282 -1.83314 1.46401 0
M  V30 1901 C 179.298 -1.7036 0.35405 0
M  V30 1902 O 180.474 -1.92171 0.602692 0
M  V30 1903 C 177.539 -3.19344 1.34982 0
M  V30 1904 C 176.6 -3.44363 2.56344 0
M  V30 1905 C 175.833 -4.73904 2.45461 0
M  V30 1906 O 176.056 -5.508 1.48241 0
M  V30 1907 O 174.99 -4.99839 3.35328 0
M  V30 1908 H 178.816 -1.82314 2.42889 0
M  V30 1909 H 176.401 -0.843438 1.23315 0
M  V30 1910 H 178.283 -4.00547 1.3092 0
M  V30 1911 H 176.958 -3.21014 0.41612 0
M  V30 1912 H 175.865 -2.63067 2.65982 0
M  V30 1913 H 177.198 -3.47512 3.48563 0
M  V30 1914 N 178.85 -1.27639 -0.924453 0
M  V30 1915 C 179.76 -1.12466 -2.05885 0
M  V30 1916 C 180.776 -0.053869 -1.73917 0
M  V30 1917 O 181.952 -0.261012 -1.99702 0
M  V30 1918 C 179.017 -0.776768 -3.37886 0
M  V30 1919 C 178.078 -1.92878 -3.83532 0
M  V30 1920 C 177.311 -1.59739 -5.09234 0
M  V30 1921 O 177.534 -0.506782 -5.68144 0
M  V30 1922 O 176.468 -2.43761 -5.50331 0
M  V30 1923 H 180.294 -2.07671 -2.21599 0
M  V30 1924 H 177.879 -1.06857 -1.04413 0
M  V30 1925 H 179.761 -0.596229 -4.17161 0
M  V30 1926 H 178.436 0.145732 -3.23372 0
M  V30 1927 H 177.343 -2.1644 -3.0513 0
M  V30 1928 H 178.676 -2.8316 -4.02593 0
M  V30 1929 N 180.328 1.1314 -1.09713 0
M  V30 1930 C 181.576 1.84119 -0.833338 0
M  V30 1931 C 181.897 1.84097 0.642904 0
M  V30 1932 O 181.167 1.29881 1.46655 0
M  V30 1933 H 179.747 0.681766 -0.305293 0
M  V30 1934 H 182.409 1.37038 -1.38588 0
M  V30 1935 H 181.505 2.88543 -1.18951 0
M  V30 1936 N 181.806 0.884767 1.30421 0
M  V30 1937 C 183.055 0.499164 1.95426 0
M  V30 1938 C 183.368 -0.95645 1.70621 0
M  V30 1939 O 184.574 -1.44889 2.29607 0
M  V30 1940 C 183.03 0.84177 3.49917 0
M  V30 1941 C 182.638 2.31514 3.83543 0
M  V30 1942 C 184.382 0.525355 4.21237 0
M  V30 1943 C 182.289 2.59939 5.31212 0
M  V30 1944 H 181.219 0.182944 0.73147 0
M  V30 1945 H 183.87 1.07971 1.48373 0
M  V30 1946 H 182.252 0.190311 3.95542 0
M  V30 1947 H 183.426 3.0109 3.48829 0
M  V30 1948 H 181.741 2.59907 3.25326 0
M  V30 1949 H 184.338 0.714762 5.29901 0
M  V30 1950 H 184.681 -0.535222 4.12845 0
M  V30 1951 H 185.214 1.134 3.81294 0
M  V30 1952 H 181.953 3.64736 5.44654 0
M  V30 1953 H 181.473 1.94972 5.67227 0
M  V30 1954 H 183.152 2.45429 5.98643 0
M  V30 1955 N 183.284 -1.43765 0.645699 0
M  V30 1956 C 184.53 -2.02197 0.156271 0
M  V30 1957 C 184.863 -1.50776 -1.22393 0
M  V30 1958 O 184.138 -0.697771 -1.81553 0
M  V30 1959 C 184.421 -3.59749 0.158872 0
M  V30 1960 C 184.274 -4.21419 1.57245 0
M  V30 1961 C 185.593 -4.37149 -0.50879 0
M  V30 1962 H 182.712 -0.734694 0.0582602 0
M  V30 1963 H 185.354 -1.71157 0.824951 0
M  V30 1964 H 183.504 -3.86325 -0.410525 0
M  V30 1965 H 185.176 -4.059 2.19186 0
M  V30 1966 H 183.419 -3.78356 2.122 0
M  V30 1967 H 184.09 -5.30482 1.52619 0
M  V30 1968 H 186.566 -4.16093 -0.024412 0
M  V30 1969 H 185.442 -5.4683 -0.476213 0
M  V30 1970 H 185.703 -4.12839 -1.58165 0
M  V30 1971 N 184.763 -0.387143 -1.52771 0
M  V30 1972 C 186.01 0.195735 -2.01552 0
M  V30 1973 C 186.338 1.46995 -1.27369 0
M  V30 1974 O 185.593 1.92325 -0.361879 0
M  V30 1975 C 185.892 0.512209 -3.53711 0
M  V30 1976 C 185.558 -0.670202 -4.45891 0
M  V30 1977 C 184.22 -0.994586 -4.70809 0
M  V30 1978 C 186.572 -1.46134 -5.00294 0
M  V30 1979 C 183.9 -2.11169 -5.4738 0
M  V30 1980 C 186.252 -2.56903 -5.78086 0
M  V30 1981 C 184.916 -2.89852 -6.01284 0
M  V30 1982 H 184.186 0.0716246 -0.73753 0
M  V30 1983 H 186.833 -0.524046 -1.8419 0
M  V30 1984 H 185.138 1.31329 -3.69134 0
M  V30 1985 H 186.835 0.975804 -3.88946 0
M  V30 1986 H 183.425 -0.407366 -4.2666 0
M  V30 1987 H 187.609 -1.22397 -4.80971 0
M  V30 1988 H 182.865 -2.3707 -5.63567 0
M  V30 1989 H 187.039 -3.18608 -6.19243 0
M  V30 1990 H 184.666 -3.76533 -6.60399 0
M  V30 1991 N 186.241 1.57166 -0.116904 0
M  V30 1992 C 187.151 2.18745 0.847812 0
M  V30 1993 C 188.167 1.163 1.29423 0
M  V30 1994 O 189.343 1.48761 1.35765 0
M  V30 1995 C 186.408 2.77307 2.0809 0
M  V30 1996 C 185.469 3.94781 1.68661 0
M  V30 1997 C 184.702 4.50541 2.86091 0
M  V30 1998 O 184.925 4.05202 4.01456 0
M  V30 1999 O 183.859 5.41256 2.63298 0
M  V30 2000 H 187.685 3.01632 0.353778 0
M  V30 2001 H 185.27 1.49005 0.108599 0
M  V30 2002 H 187.152 3.14647 2.80313 0
M  V30 2003 H 185.827 1.97452 2.56504 0
M  V30 2004 H 184.734 3.62214 0.935518 0
M  V30 2005 H 186.067 4.76065 1.24991 0
M  V30 2006 N 187.719 -0.156864 1.56817 0
M  V30 2007 C 188.996 -0.899244 1.73704 0
M  V30 2008 C 189.376 -1.99771 0.682254 0
M  V30 2009 O 188.724 -2.26515 -0.300522 0
M  V30 2010 C 188.934 -1.45075 3.17418 0
M  V30 2011 C 190.282 -1.91802 3.7881 0
M  V30 2012 O 191.306 -1.54838 3.20786 0
M  V30 2013 O 190.165 -2.5994 4.80722 0
M  V30 2014 H 187.259 -0.424267 0.709878 0
M  V30 2015 H 189.805 -0.143561 1.69092 0
M  V30 2016 H 188.577 -0.660846 3.85679 0
M  V30 2017 H 188.2 -2.27021 3.26416 0
M  V30 2018 N 189.197 -1.51736 -0.425897 0
M  V30 2019 C 190.474 -1.55519 -1.1863 0
M  V30 2020 C 190.854 -0.326219 -2.08564 0
M  V30 2021 O 190.202 0.688012 -2.17896 0
M  V30 2022 C 190.412 -2.87521 -1.9782 0
M  V30 2023 C 191.76 -3.39899 -2.54468 0
M  V30 2024 O 192.784 -2.89148 -2.08019 0
M  V30 2025 O 191.643 -4.2848 -3.39215 0
M  V30 2026 H 188.737 -0.625739 -0.540721 0
M  V30 2027 H 191.283 -1.64055 -0.434038 0
M  V30 2028 H 190.055 -3.68422 -1.31836 0
M  V30 2029 H 189.678 -2.822 -2.80088 0
M  V30 2030 N 190.675 0.682077 -1.42076 0
M  V30 2031 C 191.607 1.80755 -1.40926 0
M  V30 2032 C 192.62 1.59833 -0.309398 0
M  V30 2033 O 193.809 1.69087 -0.572014 0
M  V30 2034 C 190.909 3.17744 -1.17865 0
M  V30 2035 C 190.082 3.65578 -2.40149 0
M  V30 2036 C 189.141 4.81277 -2.12742 0
M  V30 2037 O 188.167 4.92197 -2.85887 0
M  V30 2038 N 189.369 5.69474 -1.12602 0
M  V30 2039 H 192.134 1.82229 -2.37935 0
M  V30 2040 H 189.695 0.864903 -1.36861 0
M  V30 2041 H 191.687 3.9279 -0.9746 0
M  V30 2042 H 190.257 3.11214 -0.294068 0
M  V30 2043 H 189.477 2.81291 -2.76169 0
M  V30 2044 H 190.765 3.94278 -3.21593 0
M  V30 2045 H 190.163 5.63297 -0.520899 0
M  V30 2046 H 188.72 6.44363 -0.981842 0
M  V30 2047 N 192.153 1.28127 0.917671 0
M  V30 2048 C 193.4 1.15052 1.66641 0
M  V30 2049 C 193.728 -0.301677 1.92146 0
M  V30 2050 O 192.983 -1.23622 1.51711 0
M  V30 2051 C 193.282 1.89018 3.03327 0
M  V30 2052 C 192.948 3.38832 2.97496 0
M  V30 2053 C 191.61 3.79693 2.95613 0
M  V30 2054 C 193.962 4.34378 2.88036 0
M  V30 2055 C 191.29 5.14447 2.82066 0
M  V30 2056 C 193.642 5.69201 2.7603 0
M  V30 2057 C 192.306 6.09343 2.72502 0
M  V30 2058 H 191.576 0.421006 0.609783 0
M  V30 2059 H 194.223 1.58855 1.06945 0
M  V30 2060 H 192.528 1.37752 3.66785 0
M  V30 2061 H 194.225 1.76321 3.60156 0
M  V30 2062 H 190.815 3.06342 2.99754 0
M  V30 2063 H 194.999 4.03775 2.88581 0
M  V30 2064 H 190.255 5.44681 2.77728 0
M  V30 2065 H 194.429 6.42901 2.67678 0
M  V30 2066 H 192.056 7.13712 2.61762 0
M  V30 2067 N 193.631 -1.12557 1.10312 0
M  V30 2068 C 194.88 -1.83395 0.839588 0
M  V30 2069 C 195.193 -1.84939 -0.636929 0
M  V30 2070 O 196.399 -2.51761 -1.01631 0
M  V30 2071 C 194.855 -3.29303 1.45215 0
M  V30 2072 C 194.463 -3.36122 2.96186 0
M  V30 2073 C 196.207 -4.05121 1.26796 0
M  V30 2074 C 194.114 -4.76357 3.50483 0
M  V30 2075 H 193.044 -0.687133 0.310425 0
M  V30 2076 H 195.695 -1.26746 1.32694 0
M  V30 2077 H 194.077 -3.85812 0.892469 0
M  V30 2078 H 195.251 -2.89559 3.58458 0
M  V30 2079 H 193.566 -2.73776 3.13745 0
M  V30 2080 H 196.163 -5.08668 1.64806 0
M  V30 2081 H 196.506 -4.15773 0.209409 0
M  V30 2082 H 197.039 -3.54967 1.79563 0
M  V30 2083 H 193.778 -4.70899 4.55998 0
M  V30 2084 H 193.298 -5.23377 2.92978 0
M  V30 2085 H 194.977 -5.45294 3.48228 0
M  V30 2086 N 195.109 -0.891671 -1.2995 0
M  V30 2087 C 196.355 -0.514261 -1.96171 0
M  V30 2088 C 196.688 0.935506 -1.70182 0
M  V30 2089 O 195.963 1.66204 -1.01028 0
M  V30 2090 C 196.246 -0.797719 -3.51153 0
M  V30 2091 C 196.099 -2.2986 -3.86632 0
M  V30 2092 C 197.418 -0.278749 -4.39216 0
M  V30 2093 H 194.537 -0.188314 -0.712535 0
M  V30 2094 H 197.179 -1.11689 -1.53706 0
M  V30 2095 H 195.329 -0.284826 -3.87455 0
M  V30 2096 H 197.001 -2.88042 -3.60319 0
M  V30 2097 H 195.244 -2.76257 -3.34462 0
M  V30 2098 H 195.915 -2.44753 -4.94773 0
M  V30 2099 H 198.391 -0.717825 -4.09862 0
M  V30 2100 H 197.267 -0.506353 -5.46559 0
M  V30 2101 H 197.528 0.820266 -4.34424 0
M  V30 2102 N 196.587 1.43421 -0.653314 0
M  V30 2103 C 197.815 2.06163 -0.174491 0
M  V30 2104 C 198.23 1.48969 1.1599 0
M  V30 2105 O 197.587 0.621042 1.71608 0
M  V30 2106 C 197.638 3.61417 -0.0774865 0
M  V30 2107 O 197.359 4.16485 -1.35912 0
M  V30 2108 C 198.86 4.41235 0.427402 0
M  V30 2109 H 196.08 0.664946 -0.0899353 0
M  V30 2110 H 198.624 1.83924 -0.893988 0
M  V30 2111 H 196.779 3.82841 0.59257 0
M  V30 2112 H 197.193 5.10153 -1.21839 0
M  V30 2113 H 198.667 5.5021 0.44423 0
M  V30 2114 H 199.144 4.14268 1.45873 0
M  V30 2115 H 199.75 4.2478 -0.210167 0
M  V30 2116 N 198.065 0.39524 1.52563 0
M  V30 2117 C 199.028 -0.425001 2.25225 0
M  V30 2118 C 200.028 -0.985266 1.27079 0
M  V30 2119 O 201.218 -0.866332 1.5113 0
M  V30 2120 C 198.35 -1.59686 3.01186 0
M  V30 2121 H 199.543 0.211233 2.99155 0
M  V30 2122 H 197.096 0.147472 1.55603 0
M  V30 2123 H 197.831 -2.27035 2.31572 0
M  V30 2124 H 197.616 -1.20176 3.73229 0
M  V30 2125 H 199.106 -2.17743 3.5634 0
M  V30 2126 N 199.544 -1.57102 0.125237 0
M  V30 2127 C 200.79 -1.95697 -0.532035 0
M  V30 2128 C 201.123 -1.009 -1.6593 0
M  V30 2129 O 200.398 -0.047347 -1.94442 0
M  V30 2130 C 200.681 -3.44181 -1.05884 0
M  V30 2131 C 200.534 -4.49752 0.0654392 0
M  V30 2132 C 201.853 -3.94655 -1.9477 0
M  V30 2133 H 198.972 -0.711571 -0.191925 0
M  V30 2134 H 201.614 -1.88923 0.20206 0
M  V30 2135 H 199.764 -3.50085 -1.68442 0
M  V30 2136 H 201.436 -4.55943 0.700982 0
M  V30 2137 H 199.679 -4.27653 0.727709 0
M  V30 2138 H 200.35 -5.50924 -0.344505 0
M  V30 2139 H 202.826 -3.91094 -1.42074 0
M  V30 2140 H 201.702 -4.99057 -2.28546 0
M  V30 2141 H 201.963 -3.35718 -2.87656 0
M  V30 2142 N 201.022 0.148545 -1.56898 0
M  V30 2143 C 202.247 0.880385 -1.87787 0
M  V30 2144 C 202.672 1.74018 -0.714093 0
M  V30 2145 O 202.03 1.78153 0.336343 0
M  V30 2146 C 202.078 1.71422 -3.17249 0
M  V30 2147 O 201.182 2.8183 -3.01074 0
M  V30 2148 H 200.523 0.245301 -0.617028 0
M  V30 2149 H 203.053 0.139826 -2.04122 0
M  V30 2150 H 203.063 2.10954 -3.49231 0
M  V30 2151 H 201.738 1.08284 -4.01556 0
M  V30 2152 H 200.315 2.45715 -2.80497 0
M  V30 2153 N 202.5 1.5196 0.417844 0
M  V30 2154 C 203.746 1.65836 1.16732 0
M  V30 2155 C 204.079 0.382881 1.90388 0
M  V30 2156 O 203.354 -0.618368 1.84408 0
M  V30 2157 C 203.637 2.87466 2.16876 0
M  V30 2158 C 203.49 4.25041 1.47174 0
M  V30 2159 C 204.809 3.04613 3.17646 0
M  V30 2160 H 201.928 0.603515 0.423011 0
M  V30 2161 H 204.57 1.84494 0.454105 0
M  V30 2162 H 202.72 2.71689 2.777 0
M  V30 2163 H 204.392 4.52527 0.895376 0
M  V30 2164 H 202.635 4.26843 0.773806 0
M  V30 2165 H 203.306 5.06176 2.20204 0
M  V30 2166 H 205.782 3.1923 2.66892 0
M  V30 2167 H 204.658 3.91247 3.8499 0
M  V30 2168 H 204.919 2.17541 3.84874 0
M  V30 2169 N 203.978 -0.674533 1.42435 0
M  V30 2170 C 205.227 -1.43034 1.42212 0
M  V30 2171 C 205.54 -1.95555 0.0420788 0
M  V30 2172 O 206.746 -2.71374 -0.0827558 0
M  V30 2173 C 205.202 -2.58748 2.50155 0
M  V30 2174 C 204.81 -2.12925 3.94166 0
M  V30 2175 C 206.554 -3.36257 2.59098 0
M  V30 2176 C 204.461 -3.25723 4.93618 0
M  V30 2177 H 203.391 -0.537345 0.528939 0
M  V30 2178 H 206.042 -0.73024 1.68344 0
M  V30 2179 H 204.424 -3.31128 2.17188 0
M  V30 2180 H 205.598 -1.47697 4.36488 0
M  V30 2181 H 203.913 -1.48354 3.89076 0
M  V30 2182 H 206.51 -4.20264 3.30578 0
M  V30 2183 H 206.853 -3.82866 1.63461 0
M  V30 2184 H 207.386 -2.70947 2.9126 0
M  V30 2185 H 204.125 -2.84105 5.90732 0
M  V30 2186 H 203.645 -3.89732 4.55926 0
M  V30 2187 H 205.324 -3.91186 5.15347 0
M  V30 2188 N 205.456 -1.28612 -0.910864 0
M  V30 2189 C 206.406 -1.09423 -2.00026 0
M  V30 2190 C 207.39 -0.0170079 -1.60891 0
M  V30 2191 O 208.582 -0.237472 -1.754 0
M  V30 2192 C 205.711 -0.76114 -3.34756 0
M  V30 2193 C 204.797 -1.87735 -3.80285 0
M  V30 2194 N 205.188 -3.11938 -3.98156 0
M  V30 2195 C 203.486 -1.76786 -4.09467 0
M  V30 2196 C 204.187 -3.84687 -4.36338 0
M  V30 2197 N 203.163 -3.12555 -4.44759 0
M  V30 2198 H 206.965 -2.03658 -2.11898 0
M  V30 2199 H 204.479 -1.19573 -1.09891 0
M  V30 2200 H 206.476 -0.604743 -4.12491 0
M  V30 2201 H 205.136 0.173403 -3.24237 0
M  V30 2202 H 206.147 -3.47516 -3.83996 0
M  V30 2203 H 202.824 -0.905284 -4.07567 0
M  V30 2204 H 204.214 -4.91518 -4.58104 0
M  V30 2205 N 206.934 1.1197 -1.10907 0
M  V30 2206 C 208.182 1.83225 -0.852819 0
M  V30 2207 C 208.503 1.84769 0.623341 0
M  V30 2208 O 207.773 1.3143 1.45269 0
M  V30 2209 H 206.353 0.67849 -0.312507 0
M  V30 2210 H 209.015 1.3556 -1.40033 0
M  V30 2211 H 208.111 2.87265 -1.22005 0
M  V30 2212 N 208.412 0.89855 1.29475 0
M  V30 2213 C 209.658 0.524658 1.95896 0
M  V30 2214 C 209.991 -0.926468 1.70676 0
M  V30 2215 O 209.266 -1.65665 1.01908 0
M  V30 2216 C 209.549 0.81633 3.50725 0
M  V30 2217 C 209.402 2.31907 3.85408 0
M  V30 2218 C 210.721 0.302038 4.39062 0
M  V30 2219 H 207.84 0.19209 0.711527 0
M  V30 2220 H 210.482 1.12502 1.53112 0
M  V30 2221 H 208.632 0.305369 3.87298 0
M  V30 2222 H 210.304 2.89949 3.58786 0
M  V30 2223 H 208.547 2.78027 3.32992 0
M  V30 2224 H 209.218 2.47373 4.93468 0
M  V30 2225 H 211.694 0.739551 4.09475 0
M  V30 2226 H 210.57 0.535331 5.46283 0
M  V30 2227 H 210.831 -0.797216 4.34853 0
M  V30 2228 N 209.89 -1.43072 0.660911 0
M  V30 2229 C 210.8 -2.34585 -0.0264163 0
M  V30 2230 C 211.816 -1.54316 -0.803898 0
M  V30 2231 O 212.992 -1.86939 -0.749391 0
M  V30 2232 C 210.057 -3.32689 -0.975639 0
M  V30 2233 C 209.118 -4.2886 -0.194236 0
M  V30 2234 C 208.351 -5.22278 -1.09825 0
M  V30 2235 O 208.574 -5.20299 -2.33763 0
M  V30 2236 O 207.508 -5.99228 -0.566513 0
M  V30 2237 H 211.334 -2.94869 0.727034 0
M  V30 2238 H 208.919 -1.43342 0.42111 0
M  V30 2239 H 210.801 -3.92995 -1.52094 0
M  V30 2240 H 209.476 -2.74898 -1.70918 0
M  V30 2241 H 208.383 -3.72011 0.394835 0
M  V30 2242 H 209.716 -4.89655 0.499899 0
M  V30 2243 N 211.368 -0.403325 -1.52352 0
M  V30 2244 C 212.331 0.413051 -2.25447 0
M  V30 2245 C 213.331 0.978513 -1.276 0
M  V30 2246 O 214.521 0.858305 -1.51587 0
M  V30 2247 C 211.653 1.58087 -3.02029 0
M  V30 2248 H 212.846 -0.227094 -2.99039 0
M  V30 2249 H 210.399 -0.155722 -1.55522 0
M  V30 2250 H 211.134 2.25804 -2.32772 0
M  V30 2251 H 210.919 1.18195 -3.73861 0
M  V30 2252 H 212.409 2.1585 -3.57489 0
M  V30 2253 N 212.846 1.57033 -0.133567 0
M  V30 2254 C 214.093 1.95686 0.520877 0
M  V30 2255 C 214.421 1.0177 1.6575 0
M  V30 2256 O 213.676 0.0443195 1.9565 0
M  V30 2257 C 213.975 3.40674 1.08057 0
M  V30 2258 C 213.641 4.50855 0.0637899 0
M  V30 2259 C 212.303 4.80716 -0.215757 0
M  V30 2260 C 214.655 5.17398 -0.62835 0
M  V30 2261 C 211.983 5.74433 -1.19348 0
M  V30 2262 C 214.335 6.12167 -1.5948 0
M  V30 2263 C 212.999 6.40414 -1.88218 0
M  V30 2264 H 212.269 0.716067 0.190602 0
M  V30 2265 H 214.916 1.9026 -0.217556 0
M  V30 2266 H 213.221 3.42865 1.89606 0
M  V30 2267 H 214.918 3.67902 1.59529 0
M  V30 2268 H 211.508 4.27605 0.291855 0
M  V30 2269 H 215.692 4.94472 -0.425562 0
M  V30 2270 H 210.948 5.94616 -1.42272 0
M  V30 2271 H 215.122 6.6281 -2.13671 0
M  V30 2272 H 212.749 7.12838 -2.64133 0
M  V30 2273 N 214.325 -0.140222 1.56975 0
M  V30 2274 C 215.573 -0.850005 1.83356 0
M  V30 2275 C 215.894 -1.81399 0.71551 0
M  V30 2276 O 215.164 -1.94136 -0.262294 0
M  V30 2277 H 213.744 -0.316886 0.676456 0
M  V30 2278 H 216.406 -0.132608 1.94448 0
M  V30 2279 H 215.502 -1.40814 2.78528 0
M  V30 2280 N 215.803 -1.52179 -0.40978 0
M  V30 2281 C 217.033 -1.69807 -1.17682 0
M  V30 2282 C 217.441 -0.406908 -1.84773 0
M  V30 2283 O 216.784 0.626863 -1.72673 0
M  V30 2284 C 216.846 -2.77712 -2.2829 0
M  V30 2285 C 216.51 -4.19481 -1.81341 0
M  V30 2286 C 217.507 -5.03345 -1.30154 0
M  V30 2287 C 215.192 -4.65713 -1.88194 0
M  V30 2288 C 217.186 -6.31511 -0.864416 0
M  V30 2289 C 214.873 -5.93869 -1.44093 0
M  V30 2290 C 215.871 -6.76597 -0.933023 0
M  V30 2291 O 215.559 -8.02354 -0.49838 0
M  V30 2292 H 215.291 -0.572372 -0.359675 0
M  V30 2293 H 217.845 -1.99511 -0.488311 0
M  V30 2294 H 216.075 -2.43383 -3.00502 0
M  V30 2295 H 217.764 -2.83946 -2.90051 0
M  V30 2296 H 218.53 -4.68819 -1.24232 0
M  V30 2297 H 214.409 -4.01424 -2.26671 0
M  V30 2298 H 217.953 -6.96033 -0.467286 0
M  V30 2299 H 213.85 -6.27903 -1.49694 0
M  V30 2300 H 214.618 -8.16135 -0.621747 0
M  V30 2301 N 217.281 0.66697 -1.42791 0
M  V30 2302 C 218.697 0.981027 -1.25889 0
M  V30 2303 C 218.897 2.00793 -0.168695 0
M  V30 2304 O 217.953 2.48321 0.45747 0
M  V30 2305 C 219.266 1.47838 -2.61848 0
M  V30 2306 C 220.814 1.59575 -2.69267 0
M  V30 2307 C 221.289 2.12704 -4.05612 0
M  V30 2308 N 222.78 2.20026 -4.07606 0
M  V30 2309 C 223.515 2.62227 -5.09926 0
M  V30 2310 N 223.011 3.03824 -6.22626 0
M  V30 2311 N 224.804 2.62045 -4.97281 0
M  V30 2312 H 216.955 -0.0127891 -2.12396 0
M  V30 2313 H 219.218 0.0568258 -0.946295 0
M  V30 2314 H 218.924 0.798299 -3.4252 0
M  V30 2315 H 218.798 2.45579 -2.86305 0
M  V30 2316 H 221.185 2.26687 -1.88936 0
M  V30 2317 H 221.266 0.60302 -2.48591 0
M  V30 2318 H 220.91 1.46198 -4.86404 0
M  V30 2319 H 220.84 3.12782 -4.23645 0
M  V30 2320 H 223.331 1.90708 -3.2625 0
M  V30 2321 H 223.644 3.34734 -6.96544 0
M  V30 2322 H 221.989 3.01662 -6.26119 0
M  V30 2323 H 225.18 2.28916 -4.08308 0
M  V30 2324 H 225.353 2.94613 -5.77154 0
M  V30 2325 N 218.759 1.29093 0.90403 0
M  V30 2326 C 220.005 1.16986 1.65656 0
M  V30 2327 C 220.338 -0.278925 1.92186 0
M  V30 2328 O 219.613 -1.2019 1.5292 0
M  V30 2329 C 219.896 1.97908 3.0084 0
M  V30 2330 C 219.749 3.50903 2.81403 0
M  V30 2331 C 221.068 1.80208 4.01513 0
M  V30 2332 H 218.187 0.426346 0.601164 0
M  V30 2333 H 220.829 1.58518 1.04747 0
M  V30 2334 H 218.979 1.62616 3.52829 0
M  V30 2335 H 220.651 3.96153 2.36348 0
M  V30 2336 H 218.894 3.76045 2.1627 0
M  V30 2337 H 219.565 4.02791 3.77443 0
M  V30 2338 H 222.041 2.11025 3.58619 0
M  V30 2339 H 220.917 2.39184 4.94047 0
M  V30 2340 H 221.178 0.756119 4.35586 0
M  V30 2341 N 220.237 -1.11381 1.11499 0
M  V30 2342 C 221.169 -2.17207 0.731704 0
M  V30 2343 C 222.182 -1.61066 -0.236957 0
M  V30 2344 O 223.371 -1.78489 -0.0197591 0
M  V30 2345 C 220.471 -3.38846 0.0607624 0
M  V30 2346 C 219.644 -4.24451 1.0564 0
M  V30 2347 C 218.703 -5.24562 0.4149 0
M  V30 2348 O 217.729 -5.59071 1.069 0
M  V30 2349 N 218.931 -5.74651 -0.821943 0
M  V30 2350 H 221.696 -2.50699 1.64225 0
M  V30 2351 H 219.257 -1.26908 1.00529 0
M  V30 2352 H 221.249 -4.02911 -0.380139 0
M  V30 2353 H 219.819 -3.03411 -0.752376 0
M  V30 2354 H 219.039 -3.56833 1.67524 0
M  V30 2355 H 220.327 -4.78486 1.72998 0
M  V30 2356 H 219.725 -5.48797 -1.37252 0
M  V30 2357 H 218.282 -6.40549 -1.20582 0
M  V30 2358 N 221.715 -0.905404 -1.28997 0
M  V30 2359 C 222.625 -0.392246 -2.31298 0
M  V30 2360 C 223.641 0.515889 -1.66176 0
M  V30 2361 O 224.817 0.404093 -1.97304 0
M  V30 2362 C 221.882 0.36686 -3.44754 0
M  V30 2363 C 220.943 -0.573485 -4.25452 0
M  V30 2364 C 220.176 0.149488 -5.33491 0
M  V30 2365 O 220.399 1.37255 -5.5364 0
M  V30 2366 O 219.333 -0.510919 -5.99728 0
M  V30 2367 H 223.159 -1.2411 -2.77183 0
M  V30 2368 H 220.744 -0.669926 -1.33538 0
M  V30 2369 H 222.626 0.795907 -4.13816 0
M  V30 2370 H 221.301 1.19169 -3.00966 0
M  V30 2371 H 220.208 -1.05176 -3.59011 0
M  V30 2372 H 221.541 -1.36489 -4.72897 0
M  V30 2373 N 223.193 1.4272 -0.668489 0
M  V30 2374 C 224.14 2.30796 0.0137489 0
M  V30 2375 C 225.11 1.4561 0.799177 0
M  V30 2376 O 226.295 1.74453 0.772702 0
M  V30 2377 C 223.435 3.31377 0.963507 0
M  V30 2378 C 222.548 4.31655 0.172569 0
M  V30 2379 C 221.683 5.19312 1.1175 0
M  V30 2380 C 220.722 6.11274 0.317886 0
M  V30 2381 N 219.859 6.91504 1.2152 0
M  V30 2382 H 224.699 2.88585 -0.743161 0
M  V30 2383 H 222.236 1.42154 -0.378226 0
M  V30 2384 H 224.194 3.88214 1.52792 0
M  V30 2385 H 222.824 2.75202 1.68712 0
M  V30 2386 H 221.876 3.76988 -0.508374 0
M  V30 2387 H 223.188 4.96779 -0.448527 0
M  V30 2388 H 222.342 5.80851 1.75206 0
M  V30 2389 H 221.081 4.5435 1.77249 0
M  V30 2390 H 220.086 5.48809 -0.329918 0
M  V30 2391 H 221.311 6.78283 -0.332917 0
M  V30 2392 H 219.257 6.29176 1.85671 0
M  V30 2393 H 219.174 7.53209 0.649036 0
M  V30 2394 H 220.442 7.57535 1.83742 0
M  V30 2395 N 224.671 0.411399 1.52136 0
M  V30 2396 C 225.948 -0.222308 1.94333 0
M  V30 2397 C 226.328 -1.6242 1.34844 0
M  V30 2398 O 225.676 -2.22384 0.525145 0
M  V30 2399 C 225.886 -0.226345 3.48265 0
M  V30 2400 C 227.234 -0.444592 4.22266 0
M  V30 2401 O 228.258 -0.305602 3.54887 0
M  V30 2402 O 227.117 -0.718749 5.41753 0
M  V30 2403 H 224.211 -0.143907 0.814383 0
M  V30 2404 H 226.757 0.467506 1.63133 0
M  V30 2405 H 225.529 0.75475 3.83952 0
M  V30 2406 H 225.152 -0.960163 3.85832 0
M  V30 2407 N 226.149 -1.5696 0.141893 0
M  V30 2408 C 227.395 -1.9625 -0.511248 0
M  V30 2409 C 227.728 -1.02654 -1.64851 0
M  V30 2410 O 227.003 -0.0679676 -1.94381 0
M  V30 2411 C 227.286 -3.45285 -1.02227 0
M  V30 2412 C 227.139 -4.49658 0.113138 0
M  V30 2413 C 228.458 -3.96698 -1.90574 0
M  V30 2414 H 225.577 -0.713567 -0.184367 0
M  V30 2415 H 228.219 -1.88698 0.222087 0
M  V30 2416 H 226.369 -3.51852 -1.64719 0
M  V30 2417 H 228.041 -4.55174 0.749302 0
M  V30 2418 H 226.284 -4.26857 0.773026 0
M  V30 2419 H 226.955 -5.51258 -0.286053 0
M  V30 2420 H 229.431 -3.92578 -1.37918 0
M  V30 2421 H 228.307 -5.01453 -2.2324 0
M  V30 2422 H 228.568 -3.3875 -2.84079 0
M  V30 2423 N 227.627 0.131896 -1.57047 0
M  V30 2424 C 229.038 0.690407 -1.73465 0
M  V30 2425 C 229.389 1.8094 -0.758629 0
M  V30 2426 O 228.514 2.16282 0.0713813 0
M  V30 2427 C 229.109 1.25916 -3.14532 0
M  V30 2428 C 227.668 1.76409 -3.32501 0
M  V30 2429 C 226.815 0.658579 -2.69366 0
M  V30 2430 H 229.766 -0.0939144 -1.58422 0
M  V30 2431 H 229.787 2.12892 -3.15369 0
M  V30 2432 H 229.299 0.444515 -3.85546 0
M  V30 2433 H 227.4 2.60391 -2.66509 0
M  V30 2434 H 227.513 1.88241 -4.4057 0
M  V30 2435 H 225.877 1.08899 -2.30246 0
M  V30 2436 H 226.66 -0.14487 -3.42994 0
M  V30 2437 N 229.106 1.52395 0.401703 0
M  V30 2438 C 230.354 1.66488 1.14569 0
M  V30 2439 C 230.675 0.400897 1.90835 0
M  V30 2440 O 229.945 -0.584415 1.8698 0
M  V30 2441 H 228.525 0.613672 0.425929 0
M  V30 2442 H 231.187 1.89464 0.457093 0
M  V30 2443 H 230.283 2.50942 1.85566 0
M  V30 2444 N 230.584 -0.659388 1.43143 0
M  V30 2445 C 231.809 -1.45221 1.48073 0
M  V30 2446 C 232.234 -1.87845 0.097995 0
M  V30 2447 O 231.592 -1.56985 -0.90694 0
M  V30 2448 C 231.64 -2.66748 2.42647 0
M  V30 2449 O 230.744 -3.65583 1.90848 0
M  V30 2450 H 230.085 -0.435669 0.501088 0
M  V30 2451 H 232.615 -0.807432 1.87994 0
M  V30 2452 H 232.625 -3.14637 2.59745 0
M  V30 2453 H 231.3 -2.35067 3.43098 0
M  V30 2454 H 229.877 -3.24693 1.83381 0
M  V30 2455 N 232.062 -1.29571 -0.897171 0
M  V30 2456 C 232.992 -1.17473 -2.01798 0
M  V30 2457 C 233.973 -0.068323 -1.69963 0
M  V30 2458 O 235.158 -0.248239 -1.92607 0
M  V30 2459 C 232.288 -0.853099 -3.36659 0
M  V30 2460 C 231.242 -1.9161 -3.82713 0
M  V30 2461 C 230.568 -1.44773 -5.14728 0
M  V30 2462 C 231.868 -3.32535 -4.02763 0
M  V30 2463 H 233.562 -2.11237 -2.12177 0
M  V30 2464 H 231.108 -1.01699 -1.01948 0
M  V30 2465 H 233.061 -0.755165 -4.14578 0
M  V30 2466 H 231.785 0.120236 -3.26379 0
M  V30 2467 H 230.444 -2.00346 -3.07013 0
M  V30 2468 H 230.092 -0.462995 -5.00865 0
M  V30 2469 H 229.792 -2.15865 -5.46513 0
M  V30 2470 H 231.316 -1.36334 -5.95185 0
M  V30 2471 H 232.73 -3.26626 -4.71156 0
M  V30 2472 H 231.127 -4.01607 -4.45905 0
M  V30 2473 H 232.197 -3.75326 -3.07016 0
M  V30 2474 N 233.54 1.10788 -1.12088 0
M  V30 2475 C 234.487 2.17025 -0.785407 0
M  V30 2476 C 235.457 1.64265 0.246191 0
M  V30 2477 O 236.642 1.90412 0.121584 0
M  V30 2478 C 233.782 3.44249 -0.242177 0
M  V30 2479 C 232.895 4.1098 -1.33115 0
M  V30 2480 C 232.03 5.25911 -0.747741 0
M  V30 2481 C 231.069 5.84538 -1.81609 0
M  V30 2482 N 230.206 6.90853 -1.25167 0
M  V30 2483 H 235.046 2.45066 -1.69548 0
M  V30 2484 H 232.583 1.20297 -0.846582 0
M  V30 2485 H 234.541 4.17101 0.0908026 0
M  V30 2486 H 233.171 3.16571 0.631072 0
M  V30 2487 H 232.223 3.36133 -1.78097 0
M  V30 2488 H 233.535 4.50601 -2.13917 0
M  V30 2489 H 232.689 6.056 -0.365216 0
M  V30 2490 H 231.428 4.87614 0.0915188 0
M  V30 2491 H 230.433 5.03522 -2.20785 0
M  V30 2492 H 231.658 6.249 -2.6585 0
M  V30 2493 H 229.604 6.54562 -0.434174 0
M  V30 2494 H 229.521 7.29166 -1.99633 0
M  V30 2495 H 230.789 7.7433 -0.896259 0
M  V30 2496 N 235.018 0.912232 1.28515 0
M  V30 2497 C 235.981 0.404223 2.25607 0
M  V30 2498 C 236.981 -0.468602 1.53821 0
M  V30 2499 O 238.171 -0.271873 1.72065 0
M  V30 2500 C 235.303 -0.420653 3.38295 0
M  V30 2501 H 236.496 1.26188 2.7206 0
M  V30 2502 H 234.049 0.691495 1.40171 0
M  V30 2503 H 234.784 -1.29777 2.97201 0
M  V30 2504 H 234.569 0.204935 3.91564 0
M  V30 2505 H 236.059 -0.766971 4.10496 0
M  V30 2506 N 236.496 -1.42363 0.676048 0
M  V30 2507 C 237.773 -1.95183 0.127726 0
M  V30 2508 C 238.153 -1.61641 -1.35777 0
M  V30 2509 O 237.501 -0.913216 -2.09458 0
M  V30 2510 C 237.711 -3.46721 0.398199 0
M  V30 2511 C 239.059 -4.23427 0.315383 0
M  V30 2512 O 240.083 -3.54649 0.332016 0
M  V30 2513 O 238.942 -5.45888 0.25865 0
M  V30 2514 H 236.036 -0.826992 0.00359427 0
M  V30 2515 H 238.582 -1.52184 0.750864 0
M  V30 2516 H 237.354 -3.64344 1.4272 0
M  V30 2517 H 236.977 -3.96769 -0.256885 0
M  V30 2518 N 237.974 -0.419461 -1.51915 0
M  V30 2519 C 239.22 0.153166 -2.02221 0
M  V30 2520 C 239.553 1.43907 -1.30401 0
M  V30 2521 O 238.828 1.90055 -0.413438 0
M  V30 2522 C 239.111 0.390291 -3.57979 0
M  V30 2523 C 238.964 -0.913014 -4.40436 0
M  V30 2524 C 240.283 1.16794 -4.2432 0
M  V30 2525 H 237.402 0.0541924 -0.735005 0
M  V30 2526 H 240.044 -0.554955 -1.81715 0
M  V30 2527 H 238.194 0.993491 -3.75582 0
M  V30 2528 H 239.866 -1.54882 -4.34522 0
M  V30 2529 H 238.109 -1.52168 -4.06236 0
M  V30 2530 H 238.78 -0.701361 -5.47526 0
M  V30 2531 H 241.256 0.657161 -4.10878 0
M  V30 2532 H 240.132 1.3026 -5.3322 0
M  V30 2533 H 240.393 2.19132 -3.83971 0
M  V30 2534 N 239.452 1.56882 -0.150215 0
M  V30 2535 C 240.382 2.19935 0.784284 0
M  V30 2536 C 241.363 1.14854 1.25469 0
M  V30 2537 O 242.548 1.43209 1.31168 0
M  V30 2538 C 239.678 2.82349 2.02229 0
M  V30 2539 C 238.632 3.93285 1.68853 0
M  V30 2540 C 237.958 4.42649 2.99944 0
M  V30 2541 C 239.258 5.13904 0.932714 0
M  V30 2542 H 240.952 2.9828 0.258781 0
M  V30 2543 H 238.498 1.43473 0.123029 0
M  V30 2544 H 240.451 3.25126 2.68088 0
M  V30 2545 H 239.175 2.0134 2.57157 0
M  V30 2546 H 237.834 3.5113 1.05371 0
M  V30 2547 H 237.482 3.58458 3.52869 0
M  V30 2548 H 237.182 5.17476 2.78374 0
M  V30 2549 H 238.706 4.88099 3.66868 0
M  V30 2550 H 240.12 5.53506 1.49345 0
M  V30 2551 H 238.517 5.94515 0.81684 0
M  V30 2552 H 239.587 4.84842 -0.0749568 0
M  V30 2553 N 240.93 -0.123565 1.57115 0
M  V30 2554 C 241.877 -1.15177 2.00007 0
M  V30 2555 C 242.847 -1.41403 0.871454 0
M  V30 2556 O 244.032 -1.53346 1.13533 0
M  V30 2557 C 241.172 -2.47436 2.40561 0
M  V30 2558 C 240.285 -2.28184 3.66819 0
M  V30 2559 C 239.42 -3.53641 3.96373 0
M  V30 2560 C 238.459 -3.29528 5.15827 0
M  V30 2561 N 237.596 -4.47175 5.41275 0
M  V30 2562 H 242.436 -0.779008 2.87638 0
M  V30 2563 H 239.973 -0.373166 1.42288 0
M  V30 2564 H 241.931 -3.24584 2.62109 0
M  V30 2565 H 240.561 -2.82614 1.55978 0
M  V30 2566 H 239.613 -1.41976 3.52912 0
M  V30 2567 H 240.925 -2.0634 4.5412 0
M  V30 2568 H 240.079 -4.39209 4.18545 0
M  V30 2569 H 238.818 -3.78512 3.07538 0
M  V30 2570 H 237.823 -2.42349 4.93505 0
M  V30 2571 H 239.048 -3.06031 6.06236 0
M  V30 2572 H 236.994 -4.72175 4.55397 0
M  V30 2573 H 236.911 -4.28419 6.22891 0
M  V30 2574 H 238.179 -5.3389 5.67963 0
M  V30 2575 N 242.408 -1.52605 -0.393616 0
M  V30 2576 C 243.318 -1.79971 -1.50492 0
M  V30 2577 C 244.334 -0.686181 -1.59899 0
M  V30 2578 O 245.51 -0.973274 -1.76322 0
M  V30 2579 C 242.575 -1.95867 -2.86072 0
M  V30 2580 C 241.636 -3.19781 -2.86424 0
M  V30 2581 C 240.869 -3.34909 -4.15538 0
M  V30 2582 O 241.092 -2.54948 -5.10253 0
M  V30 2583 O 240.026 -4.28141 -4.23059 0
M  V30 2584 H 243.852 -2.74328 -1.30299 0
M  V30 2585 H 241.437 -1.3764 -0.581005 0
M  V30 2586 H 243.319 -2.08056 -3.66457 0
M  V30 2587 H 241.994 -1.04699 -3.063 0
M  V30 2588 H 240.901 -3.13038 -2.04837 0
M  V30 2589 H 242.234 -4.1078 -2.71147 0
M  V30 2590 N 243.887 0.651787 -1.4349 0
M  V30 2591 C 244.82 1.77668 -1.43211 0
M  V30 2592 C 245.798 1.59931 -0.29338 0
M  V30 2593 O 246.982 1.82095 -0.487191 0
M  V30 2594 C 244.109 3.14986 -1.24505 0
M  V30 2595 C 243.155 3.51421 -2.41673 0
M  V30 2596 S 243.988 3.51234 -4.04222 0
M  V30 2597 C 245.144 4.91206 -3.87902 0
M  V30 2598 H 245.377 1.77635 -2.38397 0
M  V30 2599 H 242.91 0.824558 -1.30539 0
M  V30 2600 H 244.868 3.94237 -1.144 0
M  V30 2601 H 243.529 3.1258 -0.308651 0
M  V30 2602 H 242.722 4.51291 -2.24393 0
M  V30 2603 H 242.324 2.79585 -2.48411 0
M  V30 2604 H 244.616 5.79902 -3.50315 0
M  V30 2605 H 245.559 5.13537 -4.8753 0
M  V30 2606 H 245.967 4.64808 -3.20334 0
M  V30 2607 N 245.365 1.30045 0.890287 0
M  V30 2608 C 246.313 1.15873 2.01683 0
M  V30 2609 C 247.307 0.0719403 1.69247 0
M  V30 2610 O 248.513 0.232414 1.78493 0
M  V30 2611 H 244.888 0.358203 0.661207 0
M  V30 2612 H 246.859 2.11229 2.10772 0
M  V30 2613 C 245.608 0.861842 3.36849 0
M  V30 2614 H 244.931 1.69016 3.62317 0
M  V30 2615 H 246.371 0.802762 4.16331 0
M  V30 2616 C 244.83 -0.435132 3.34078 0
M  V30 2617 O 245.36 -1.4583 3.74295 0
M  V30 2618 N 243.566 -0.444377 2.87182 0
M  V30 2619 H 243.113 0.388723 2.5465 0
M  V30 2620 H 243.071 -1.31213 2.85711 0
M  V30 2621 N 246.843 -1.10192 1.12674 0
M  V30 2622 C 248.092 -1.81573 0.8783 0
M  V30 2623 C 248.405 -1.86249 -0.597557 0
M  V30 2624 O 249.611 -2.5386 -0.962681 0
M  V30 2625 C 248.067 -3.26149 1.52167 0
M  V30 2626 C 247.675 -3.29763 3.03249 0
M  V30 2627 C 249.419 -4.0234 1.3536 0
M  V30 2628 C 247.326 -4.68815 3.60508 0
M  V30 2629 H 246.256 -0.680394 0.324931 0
M  V30 2630 H 248.907 -1.23902 1.35353 0
M  V30 2631 H 247.289 -3.83832 0.974104 0
M  V30 2632 H 248.463 -2.8189 3.6452 0
M  V30 2633 H 246.778 -2.67059 3.19481 0
M  V30 2634 H 249.375 -5.05058 1.75559 0
M  V30 2635 H 249.718 -4.15235 0.297554 0
M  V30 2636 H 250.251 -3.51079 1.87052 0
M  V30 2637 H 246.99 -4.61121 4.65884 0
M  V30 2638 H 246.51 -5.17045 3.04014 0
M  V30 2639 H 248.189 -5.37785 3.59717 0
M  V30 2640 N 248.321 -0.919034 -1.28029 0
M  V30 2641 C 249.732 -0.600735 -1.76771 0
M  V30 2642 C 250.083 0.884024 -1.75156 0
M  V30 2643 O 249.208 1.69163 -1.34956 0
M  V30 2644 C 249.803 -1.08372 -3.21 0
M  V30 2645 C 248.362 -0.816248 -3.67443 0
M  V30 2646 C 247.509 -1.24742 -2.47658 0
M  V30 2647 H 250.46 -1.09974 -1.14418 0
M  V30 2648 H 250.481 -0.427512 -3.78091 0
M  V30 2649 H 249.993 -2.16437 -3.22144 0
M  V30 2650 H 248.094 0.250968 -3.71754 0
M  V30 2651 H 248.207 -1.4277 -4.57333 0
M  V30 2652 H 246.571 -0.666083 -2.45836 0
M  V30 2653 H 247.354 -2.33653 -2.51518 0
M  V30 2654 N 249.799 1.42003 -0.683588 0
M  V30 2655 C 251.21 1.84501 -0.285736 0
M  V30 2656 C 251.561 1.57213 1.17382 0
M  V30 2657 O 250.686 1.03642 1.89966 0
M  V30 2658 C 251.281 3.34912 -0.511821 0
M  V30 2659 C 249.84 3.76025 -0.168005 0
M  V30 2660 C 248.987 2.6551 -0.799983 0
M  V30 2661 H 251.938 1.31724 -0.885119 0
M  V30 2662 H 251.959 3.79784 0.233292 0
M  V30 2663 H 251.471 3.54741 -1.57418 0
M  V30 2664 H 249.572 3.61801 0.890567 0
M  V30 2665 H 249.685 4.75141 -0.614661 0
M  V30 2666 H 248.049 2.53654 -0.230568 0
M  V30 2667 H 248.832 2.8816 -1.86597 0
M  V30 2668 N 251.277 0.427512 1.51691 0
M  V30 2669 C 252.525 -0.141948 2.01601 0
M  V30 2670 C 252.846 -1.44067 1.31414 0
M  V30 2671 O 252.116 -1.90763 0.445658 0
M  V30 2672 H 250.696 -0.0554468 0.744939 0
M  V30 2673 H 253.358 0.567968 1.86441 0
M  V30 2674 H 252.454 -0.324913 3.10404 0
M  V30 2675 N 252.755 -1.56801 0.158532 0
M  V30 2676 C 254.166 -1.83189 -0.360366 0
M  V30 2677 C 254.517 -1.07778 -1.63946 0
M  V30 2678 O 253.642 -0.326718 -2.13919 0
M  V30 2679 C 254.237 -3.32297 -0.660595 0
M  V30 2680 C 252.796 -3.59227 -1.12398 0
M  V30 2681 C 251.943 -2.76877 -0.153097 0
M  V30 2682 H 254.894 -1.54008 0.383031 0
M  V30 2683 H 254.915 -3.4908 -1.51405 0
M  V30 2684 H 254.427 -3.87156 0.270527 0
M  V30 2685 H 252.528 -3.09766 -2.07064 0
M  V30 2686 H 252.641 -4.67632 -1.04197 0
M  V30 2687 H 251.005 -2.46319 -0.647983 0
M  V30 2688 H 251.788 -3.34511 0.77182 0
M  V30 2689 N 254.233 0.115231 -1.57178 0
M  V30 2690 C 255.479 0.82357 -1.85325 0
M  V30 2691 C 255.812 1.79349 -0.744814 0
M  V30 2692 O 255.087 1.92899 0.249024 0
M  V30 2693 C 255.37 1.57014 -3.24066 0
M  V30 2694 C 255.223 0.619565 -4.45513 0
M  V30 2695 C 256.542 2.52545 -3.60429 0
M  V30 2696 H 253.661 0.297948 -0.674089 0
M  V30 2697 H 256.303 0.0877138 -1.89797 0
M  V30 2698 H 254.453 2.19742 -3.20383 0
M  V30 2699 H 256.125 0.000837639 -4.613 0
M  V30 2700 H 254.368 -0.0686174 -4.33746 0
M  V30 2701 H 255.039 1.17866 -5.3927 0
M  V30 2702 H 257.515 1.9992 -3.64926 0
M  V30 2703 H 256.391 3.01811 -4.58477 0
M  V30 2704 H 256.652 3.35383 -2.88047 0
M  V30 2705 N 255.711 1.52812 0.385517 0
M  V30 2706 C 256.941 1.71658 1.14966 0
M  V30 2707 C 257.349 0.436253 1.84102 0
M  V30 2708 O 256.692 -0.599313 1.73649 0
M  V30 2709 C 256.754 2.81309 2.23843 0
M  V30 2710 C 256.418 4.22313 1.74644 0
M  V30 2711 C 257.415 5.05352 1.22129 0
M  V30 2712 C 255.1 4.68648 1.80761 0
M  V30 2713 C 257.094 6.32807 0.763838 0
M  V30 2714 C 254.781 5.96086 1.34627 0
M  V30 2715 C 255.779 6.77996 0.825264 0
M  V30 2716 O 255.467 8.03045 0.370669 0
M  V30 2717 H 255.199 0.578022 0.350523 0
M  V30 2718 H 257.753 2.00263 0.456509 0
M  V30 2719 H 255.983 2.48133 2.96592 0
M  V30 2720 H 257.672 2.88524 2.85497 0
M  V30 2721 H 258.438 4.70736 1.16758 0
M  V30 2722 H 254.317 4.04979 2.20256 0
M  V30 2723 H 257.861 6.96689 0.356494 0
M  V30 2724 H 253.758 6.30205 1.39686 0
M  V30 2725 H 254.526 8.17021 0.491829 0
M  V30 2726 N 257.189 -0.644168 1.43834 0
M  V30 2727 C 258.121 -1.76955 1.45669 0
M  V30 2728 C 259.134 -1.58956 0.351666 0
M  V30 2729 O 260.323 -1.6751 0.616644 0
M  V30 2730 C 257.423 -3.14507 1.26248 0
M  V30 2731 C 256.596 -3.59083 2.49757 0
M  V30 2732 C 255.655 -4.75467 2.25427 0
M  V30 2733 O 254.681 -4.84444 2.98836 0
M  V30 2734 N 255.883 -5.66289 1.27661 0
M  V30 2735 H 258.648 -1.75856 2.42682 0
M  V30 2736 H 256.209 -0.828312 1.39106 0
M  V30 2737 H 258.201 -3.90067 1.0784 0
M  V30 2738 H 256.771 -3.10325 0.376478 0
M  V30 2739 H 255.991 -2.7387 2.8353 0
M  V30 2740 H 257.279 -3.85613 3.31934 0
M  V30 2741 H 256.677 -5.61718 0.670064 0
M  V30 2742 H 255.234 -6.41533 1.15234 0
M  V30 2743 N 258.668 -1.30515 -0.883378 0
M  V30 2744 C 259.615 -1.17032 -1.98927 0
M  V30 2745 C 260.585 -0.0594241 -1.65994 0
M  V30 2746 O 261.77 -0.229895 -1.8941 0
M  V30 2747 C 258.91 -0.869777 -3.33959 0
M  V30 2748 C 258.023 -2.06271 -3.79574 0
M  V30 2749 C 257.158 -1.70011 -5.03259 0
M  V30 2750 C 256.197 -2.8579 -5.41286 0
M  V30 2751 N 255.334 -2.49816 -6.56153 0
M  V30 2752 H 260.174 -2.1164 -2.09792 0
M  V30 2753 H 257.711 -1.05296 -1.02719 0
M  V30 2754 H 259.669 -0.676138 -4.11685 0
M  V30 2755 H 258.299 0.0394332 -3.22776 0
M  V30 2756 H 257.351 -2.36755 -2.97744 0
M  V30 2757 H 258.663 -2.92971 -4.03694 0
M  V30 2758 H 257.817 -1.47032 -5.88614 0
M  V30 2759 H 256.556 -0.804829 -4.81013 0
M  V30 2760 H 255.561 -3.09434 -4.54456 0
M  V30 2761 H 256.786 -3.76008 -5.65504 0
M  V30 2762 H 254.732 -1.62795 -6.35479 0
M  V30 2763 H 254.649 -3.30048 -6.8015 0
M  V30 2764 H 255.917 -2.30197 -7.44735 0
M  V30 2765 N 260.146 1.09593 -1.13257 0
M  V30 2766 C 261.395 1.81105 -0.887917 0
M  V30 2767 C 261.708 1.86563 0.587672 0
M  V30 2768 O 262.914 2.54367 0.949204 0
M  V30 2769 C 261.37 3.25338 -1.53895 0
M  V30 2770 C 260.978 3.28151 -3.04994 0
M  V30 2771 C 262.722 4.01617 -1.37492 0
M  V30 2772 C 260.629 4.66897 -3.6299 0
M  V30 2773 H 259.559 0.678661 -0.328534 0
M  V30 2774 H 262.21 1.23183 -1.36008 0
M  V30 2775 H 260.592 3.8331 -0.994446 0
M  V30 2776 H 261.766 2.79953 -3.66009 0
M  V30 2777 H 260.081 2.65361 -3.20893 0
M  V30 2778 H 262.678 5.04119 -1.78235 0
M  V30 2779 H 263.021 4.15072 -0.31957 0
M  V30 2780 H 263.554 3.50082 -1.88912 0
M  V30 2781 H 260.293 4.58643 -4.68323 0
M  V30 2782 H 259.813 5.15426 -3.06752 0
M  V30 2783 H 261.492 5.3587 -3.62563 0
M  V30 2784 N 261.624 0.925811 1.2754 0
M  V30 2785 C 262.571 0.422045 2.26908 0
M  V30 2786 C 263.541 -0.510029 1.58076 0
M  V30 2787 O 264.726 -0.429599 1.85901 0
M  V30 2788 C 261.866 -0.320837 3.43605 0
M  V30 2789 C 260.979 0.64513 4.27156 0
M  V30 2790 C 260.114 -0.117405 5.3107 0
M  V30 2791 C 259.153 0.841391 6.0629 0
M  V30 2792 N 258.29 0.111604 7.02011 0
M  V30 2793 H 263.13 1.27441 2.69375 0
M  V30 2794 H 260.667 0.639697 1.32462 0
M  V30 2795 H 262.625 -0.76785 4.10073 0
M  V30 2796 H 261.255 -1.13745 3.02096 0
M  V30 2797 H 260.307 1.21067 3.6062 0
M  V30 2798 H 261.619 1.37797 4.79389 0
M  V30 2799 H 260.773 -0.624422 6.03478 0
M  V30 2800 H 259.512 -0.883219 4.79636 0
M  V30 2801 H 258.517 1.35967 5.32722 0
M  V30 2802 H 259.742 1.60696 6.59813 0
M  V30 2803 H 257.688 -0.635999 6.5291 0
M  V30 2804 H 257.605 0.784044 7.51923 0
M  V30 2805 H 258.873 -0.374823 7.78598 0
M  V30 2806 N 263.102 -1.41638 0.69111 0
M  V30 2807 C 264.049 -2.30789 0.0229705 0
M  V30 2808 C 265.019 -1.46863 -0.775911 0
M  V30 2809 O 266.204 -1.75661 -0.74485 0
M  V30 2810 C 263.344 -3.32868 -0.910666 0
M  V30 2811 C 262.457 -4.31875 -0.103874 0
M  V30 2812 C 261.592 -5.21024 -1.03475 0
M  V30 2813 C 260.631 -6.11702 -0.220598 0
M  V30 2814 N 259.768 -6.93349 -1.10504 0
M  V30 2815 H 264.608 -2.87366 0.788978 0
M  V30 2816 H 262.145 -1.41535 0.400794 0
M  V30 2817 H 264.103 -3.90596 -1.46597 0
M  V30 2818 H 262.733 -2.77851 -1.64312 0
M  V30 2819 H 261.785 -3.76131 0.568285 0
M  V30 2820 H 263.097 -4.96003 0.527504 0
M  V30 2821 H 262.251 -5.83565 -1.65943 0
M  V30 2822 H 260.99 -4.57112 -1.69999 0
M  V30 2823 H 259.995 -5.48215 0.417187 0
M  V30 2824 H 261.22 -6.77668 0.440784 0
M  V30 2825 H 259.166 -6.3205 -1.75638 0
M  V30 2826 H 259.083 -7.54146 -0.529125 0
M  V30 2827 H 260.351 -7.60362 -1.71667 0
M  V30 2828 N 264.58 -0.43555 -1.51462 0
M  V30 2829 C 265.828 0.131254 -2.01673 0
M  V30 2830 C 266.149 1.43368 -1.32177 0
M  V30 2831 O 265.419 1.90524 -0.455769 0
M  V30 2832 H 263.999 0.0514954 -0.745223 0
M  V30 2833 H 266.661 -0.577847 -1.86137 0
M  V30 2834 H 265.757 0.308446 -3.10572 0
M  V30 2835 N 266.058 1.56714 -0.166846 0
M  V30 2836 C 266.968 2.21331 0.777791 0
M  V30 2837 C 267.984 1.20358 1.25658 0
M  V30 2838 O 269.16 1.53005 1.30964 0
M  V30 2839 C 266.225 2.83787 1.99163 0
M  V30 2840 C 265.286 3.99947 1.56016 0
M  V30 2841 C 264.519 4.59415 2.71613 0
M  V30 2842 O 264.742 4.17769 3.88362 0
M  V30 2843 O 263.676 5.49359 2.45945 0
M  V30 2844 H 267.502 3.02605 0.257636 0
M  V30 2845 H 265.087 1.49275 0.0611393 0
M  V30 2846 H 266.969 3.23405 2.70161 0
M  V30 2847 H 265.644 2.05513 2.50092 0
M  V30 2848 H 264.551 3.65007 0.819809 0
M  V30 2849 H 265.884 4.79801 1.09782 0
M  V30 2850 N 267.536 -0.106894 1.57237 0
M  V30 2851 C 268.764 -0.826389 1.8968 0
M  V30 2852 C 269.179 -1.72856 0.759353 0
M  V30 2853 O 268.536 -1.80503 -0.269263 0
M  V30 2854 C 268.587 -1.64967 3.21665 0
M  V30 2855 O 268.308 -0.783804 4.31031 0
M  V30 2856 C 269.809 -2.47326 3.67892 0
M  V30 2857 H 267.029 -0.236927 0.627779 0
M  V30 2858 H 269.573 -0.0876593 2.04312 0
M  V30 2859 H 267.728 -2.34103 3.08666 0
M  V30 2860 H 268.142 -1.35284 5.06753 0
M  V30 2861 H 269.616 -3.00604 4.6297 0
M  V30 2862 H 270.093 -3.25247 2.95146 0
M  V30 2863 H 270.699 -1.83411 3.83719 0
M  V30 2864 N 269.014 -1.53014 -0.377408 0
M  V30 2865 C 270.26 -1.68872 -1.12294 0
M  V30 2866 C 270.593 -0.433224 -1.89306 0
M  V30 2867 O 269.868 0.569258 -1.85983 0
M  V30 2868 C 270.151 -2.93115 -2.09179 0
M  V30 2869 C 270.004 -4.28794 -1.35853 0
M  V30 2870 C 271.323 -3.12928 -3.09458 0
M  V30 2871 H 268.442 -0.614518 -0.406862 0
M  V30 2872 H 271.084 -1.85633 -0.40503 0
M  V30 2873 H 269.234 -2.78956 -2.70399 0
M  V30 2874 H 270.906 -4.54742 -0.775082 0
M  V30 2875 H 269.149 -4.28744 -0.660364 0
M  V30 2876 H 269.82 -5.11837 -2.06706 0
M  V30 2877 H 272.296 -3.26194 -2.58334 0
M  V30 2878 H 271.172 -4.01316 -3.74482 0
M  V30 2879 H 271.433 -2.27669 -3.78971 0
M  V30 2880 N 270.492 0.636531 -1.44174 0
M  V30 2881 C 271.72 1.42353 -1.50144 0
M  V30 2882 C 272.135 1.88389 -0.124575 0
M  V30 2883 O 271.492 1.6051 0.868489 0
M  V30 2884 C 271.543 2.64744 -2.46156 0
M  V30 2885 O 271.264 2.20629 -3.7849 0
M  V30 2886 C 272.765 3.57929 -2.61537 0
M  V30 2887 H 269.985 0.436752 -0.5094 0
M  V30 2888 H 272.529 0.778933 -1.89084 0
M  V30 2889 H 270.684 3.25307 -2.10366 0
M  V30 2890 H 271.098 2.99938 -4.30276 0
M  V30 2891 H 272.572 4.40428 -3.32757 0
M  V30 2892 H 273.049 4.06382 -1.66585 0
M  V30 2893 H 273.655 3.03238 -2.98206 0
M  V30 2894 N 271.97 1.30982 0.876444 0
M  V30 2895 C 272.9 1.20668 1.99903 0
M  V30 2896 C 273.881 0.095354 1.69833 0
M  V30 2897 O 275.066 0.27885 1.92188 0
M  V30 2898 C 272.196 0.90655 3.3526 0
M  V30 2899 C 271.15 1.97675 3.79617 0
M  V30 2900 C 270.476 1.52943 5.1236 0
M  V30 2901 C 271.776 3.389 3.97422 0
M  V30 2902 H 273.47 2.14586 2.0879 0
M  V30 2903 H 271.016 1.03308 1.00317 0
M  V30 2904 H 272.969 0.821025 4.13324 0
M  V30 2905 H 271.693 -0.0682969 3.26529 0
M  V30 2906 H 270.352 2.05205 3.03787 0
M  V30 2907 H 270 0.54262 5.00065 0
M  V30 2908 H 269.7 2.24532 5.43009 0
M  V30 2909 H 271.224 1.45786 5.92941 0
M  V30 2910 H 272.638 3.34081 4.659 0
M  V30 2911 H 271.035 4.0865 4.3946 0
M  V30 2912 H 272.105 3.80163 3.01006 0
M  V30 2913 N 273.449 -1.08991 1.13837 0
M  V30 2914 C 274.359 -2.19301 0.833333 0
M  V30 2915 C 275.375 -1.73026 -0.183847 0
M  V30 2916 O 276.551 -2.01395 -0.0138092 0
M  V30 2917 C 273.616 -3.45323 0.308651 0
M  V30 2918 C 272.677 -4.06255 1.38764 0
M  V30 2919 C 271.91 -5.26262 0.887896 0
M  V30 2920 O 272.133 -5.69747 -0.27287 0
M  V30 2921 O 271.067 -5.78435 1.66421 0
M  V30 2922 H 274.893 -2.47854 1.75506 0
M  V30 2923 H 272.478 -1.18012 0.916166 0
M  V30 2924 H 274.36 -4.21394 0.0216739 0
M  V30 2925 H 273.035 -3.18362 -0.585431 0
M  V30 2926 H 271.942 -3.318 1.72799 0
M  V30 2927 H 273.275 -4.37452 2.25602 0
M  V30 2928 N 274.927 -0.932562 -1.27047 0
M  V30 2929 C 276.204 -0.49377 -1.89265 0
M  V30 2930 C 276.584 1.02833 -1.8436 0
M  V30 2931 O 275.932 1.88461 -1.29209 0
M  V30 2932 C 276.142 -1.04536 -3.32976 0
M  V30 2933 C 277.49 -1.10879 -4.09867 0
M  V30 2934 O 278.514 -0.995327 -3.42011 0
M  V30 2935 O 277.373 -1.28417 -5.31198 0
M  V30 2936 H 274.467 -0.159596 -0.811454 0
M  V30 2937 H 277.013 -1.02457 -1.3528 0
M  V30 2938 H 275.785 -2.08913 -3.30864 0
M  V30 2939 H 275.408 -0.496494 -3.94488 0
M  V30 2940 N 276.405 1.4127 -0.698611 0
M  V30 2941 C 277.653 2.00782 -0.230409 0
M  V30 2942 C 277.974 1.5562 1.17505 0
M  V30 2943 O 277.244 0.78815 1.79346 0
M  V30 2944 H 275.824 0.742464 -0.0821944 0
M  V30 2945 H 278.486 1.72852 -0.90045 0
M  V30 2946 H 277.582 3.11095 -0.25021 0
M  V30 2947 N 277.883 0.443576 1.51229 0
M  V30 2948 C 279.299 0.0962001 1.5931 0
M  V30 2949 C 279.499 -1.39501 1.45402 0
M  V30 2950 O 278.555 -2.16557 1.29843 0
M  V30 2951 C 279.868 0.621875 2.94199 0
M  V30 2952 C 281.416 0.582865 3.07525 0
M  V30 2953 C 281.891 1.08562 4.44948 0
M  V30 2954 N 283.382 1.04387 4.51284 0
M  V30 2955 C 284.117 1.40368 5.55954 0
M  V30 2956 N 283.613 1.83664 6.68011 0
M  V30 2957 N 285.406 1.32145 5.46346 0
M  V30 2958 H 277.557 1.41376 1.58514 0
M  V30 2959 H 279.82 0.582965 0.747567 0
M  V30 2960 H 279.526 1.66546 3.09767 0
M  V30 2961 H 279.4 0.0502125 3.77167 0
M  V30 2962 H 281.787 -0.451749 2.91622 0
M  V30 2963 H 281.868 1.191 2.26382 0
M  V30 2964 H 281.512 2.11873 4.61598 0
M  V30 2965 H 281.442 0.453956 5.2464 0
M  V30 2966 H 283.933 0.725986 3.70861 0
M  V30 2967 H 284.246 2.0934 7.43906 0
M  V30 2968 H 282.591 1.87596 6.69203 0
M  V30 2969 H 285.782 0.981808 4.57688 0
M  V30 2970 H 285.955 1.60514 6.27805 0
M  V30 2971 N 279.361 -1.56624 0.175154 0
M  V30 2972 C 280.61 -1.96173 -0.468921 0
M  V30 2973 C 280.923 -1.06401 -1.64128 0
M  V30 2974 O 282.129 -1.35648 -2.35185 0
M  V30 2975 C 280.585 -3.48833 -0.885633 0
M  V30 2976 C 280.193 -4.47237 0.261343 0
M  V30 2977 C 281.937 -3.97194 -1.49791 0
M  V30 2978 C 279.844 -5.9114 -0.175214 0
M  V30 2979 H 278.774 -0.732455 -0.178958 0
M  V30 2980 H 281.425 -1.81591 0.263997 0
M  V30 2981 H 279.807 -3.58848 -1.67464 0
M  V30 2982 H 280.981 -4.4894 1.03871 0
M  V30 2983 H 279.296 -4.08956 0.783827 0
M  V30 2984 H 281.893 -5.02167 -1.83665 0
M  V30 2985 H 282.236 -3.40351 -2.39722 0
M  V30 2986 H 282.769 -3.90212 -0.773267 0
M  V30 2987 H 279.508 -6.51865 0.689414 0
M  V30 2988 H 279.028 -5.92735 -0.91786 0
M  V30 2989 H 280.707 -6.44044 -0.617792 0
M  V30 2990 N 280.839 0.0985539 -1.57292 0
M  V30 2991 C 282.088 0.801358 -1.85098 0
M  V30 2992 C 282.401 1.80066 -0.763902 0
M  V30 2993 O 283.607 2.55112 -0.928981 0
M  V30 2994 C 282.063 1.47599 -3.28242 0
M  V30 2995 C 281.671 0.516624 -4.45011 0
M  V30 2996 C 283.415 2.16272 -3.65276 0
M  V30 2997 C 281.322 1.19564 -5.79188 0
M  V30 2998 H 280.252 0.303022 -0.69043 0
M  V30 2999 H 282.903 0.0542623 -1.8342 0
M  V30 3000 H 281.285 2.27042 -3.2445 0
M  V30 3001 H 282.459 -0.246065 -4.60143 0
M  V30 3002 H 280.774 -0.064227 -4.1635 0
M  V30 3003 H 283.371 2.67802 -4.62803 0
M  V30 3004 H 283.714 2.95009 -2.93727 0
M  V30 3005 H 284.247 1.43693 -3.70941 0
M  V30 3006 H 280.986 0.449157 -6.53959 0
M  V30 3007 H 280.506 1.92984 -5.67906 0
M  V30 3008 H 282.185 1.7231 -6.23633 0
M  V30 3009 N 282.317 1.53212 0.369288 0
M  V30 3010 C 283.265 1.80054 1.47253 0
M  V30 3011 C 284.259 0.669456 1.55611 0
M  V30 3012 O 285.465 0.852328 1.58541 0
M  V30 3013 H 281.84 0.570034 0.490475 0
M  V30 3014 H 283.811 2.72403 1.21817 0
M  V30 3015 C 282.56 2.00403 2.84137 0
M  V30 3016 H 281.883 2.86876 2.78464 0
M  V30 3017 H 283.323 2.23164 3.60519 0
M  V30 3018 C 281.782 0.782081 3.27697 0
M  V30 3019 O 282.312 -0.0310205 4.01688 0
M  V30 3020 N 280.518 0.606573 2.84199 0
M  V30 3021 H 280.065 1.26939 2.24152 0
M  V30 3022 H 280.023 -0.20962 3.137 0
M  V30 3023 N 283.795 -0.628877 1.44509 0
M  V30 3024 C 285.043 -1.38565 1.4712 0
M  V30 3025 C 285.364 -1.94712 0.105899 0
M  V30 3026 O 284.634 -1.75912 -0.862079 0
M  V30 3027 H 283.214 -0.514333 0.541729 0
M  V30 3028 H 285.876 -0.740018 1.80305 0
M  V30 3029 H 284.972 -2.21583 2.19789 0
M  V30 3030 N 285.273 -1.31445 -0.869486 0
M  V30 3031 C 286.221 -1.19067 -1.99814 0
M  V30 3032 C 287.215 -0.0988569 -1.69111 0
M  V30 3033 O 288.421 -0.260781 -1.78101 0
M  V30 3034 H 284.796 -0.368677 -0.655425 0
M  V30 3035 H 286.767 -2.14555 -2.07385 0
M  V30 3036 C 285.516 -0.915323 -3.35436 0
M  V30 3037 H 284.839 -1.74759 -3.59582 0
M  V30 3038 H 286.279 -0.868895 -4.15001 0
M  V30 3039 C 284.738 0.381928 -3.34728 0
M  V30 3040 O 285.268 1.39857 -3.76567 0
M  V30 3041 N 283.474 0.398633 -2.87853 0
M  V30 3042 H 283.021 -0.429186 -2.54 0
M  V30 3043 H 282.979 1.26651 -2.87762 0
M  V30 3044 N 286.751 1.08385 -1.14413 0
M  V30 3045 C 288.028 1.77429 -0.823297 0
M  V30 3046 C 288.408 1.9974 0.683163 0
M  V30 3047 O 287.756 1.60739 1.62405 0
M  V30 3048 C 287.966 3.09004 -1.62227 0
M  V30 3049 C 289.314 3.83532 -1.82177 0
M  V30 3050 O 290.338 3.18786 -1.58915 0
M  V30 3051 O 289.197 4.99792 -2.21067 0
M  V30 3052 H 286.291 0.769999 -0.301712 0
M  V30 3053 H 288.837 1.14846 -1.24934 0
M  V30 3054 H 287.609 2.88316 -2.64555 0
M  V30 3055 H 287.232 3.79316 -1.19187 0
M  V30 3056 N 288.23 0.939286 1.26551 0
M  V30 3057 C 289.477 0.585847 1.9384 0
M  V30 3058 C 289.805 -0.874784 1.73718 0
M  V30 3059 O 289.06 -1.64092 1.06642 0
M  V30 3060 C 289.359 0.872106 3.46596 0
M  V30 3061 C 289.025 2.31632 3.86856 0
M  V30 3062 C 287.687 2.71111 3.97558 0
M  V30 3063 C 290.039 3.25494 4.07066 0
M  V30 3064 C 287.367 4.03553 4.25866 0
M  V30 3065 C 289.719 4.57531 4.36862 0
M  V30 3066 C 288.383 4.96828 4.45778 0
M  V30 3067 H 287.653 0.214377 0.709312 0
M  V30 3068 H 290.3 1.18544 1.50398 0
M  V30 3069 H 288.605 0.18996 3.91339 0
M  V30 3070 H 290.302 0.577442 3.96821 0
M  V30 3071 H 286.892 2.00008 3.79071 0
M  V30 3072 H 291.076 2.9619 3.98227 0
M  V30 3073 H 286.332 4.33665 4.30981 0
M  V30 3074 H 290.506 5.30254 4.51446 0
M  V30 3075 H 288.133 5.99482 4.67468 0
M  V30 3076 N 289.708 -1.40897 0.706093 0
M  V30 3077 C 290.638 -2.33418 0.0620085 0
M  V30 3078 C 291.619 -1.52385 -0.755827 0
M  V30 3079 O 292.804 -1.80886 -0.706674 0
M  V30 3080 C 289.934 -3.36293 -0.867445 0
M  V30 3081 C 288.888 -4.27716 -0.155932 0
M  V30 3082 C 288.214 -5.2105 -1.20046 0
M  V30 3083 C 289.514 -5.12944 0.984149 0
M  V30 3084 H 291.208 -2.87527 0.83477 0
M  V30 3085 H 288.754 -1.38249 0.402875 0
M  V30 3086 H 290.707 -3.99949 -1.32735 0
M  V30 3087 H 289.431 -2.80556 -1.67199 0
M  V30 3088 H 288.09 -3.65498 0.284047 0
M  V30 3089 H 287.738 -4.61624 -1.99781 0
M  V30 3090 H 287.438 -5.83056 -0.729328 0
M  V30 3091 H 288.962 -5.87584 -1.66066 0
M  V30 3092 H 290.376 -5.70109 0.604048 0
M  V30 3093 H 288.773 -5.83945 1.38304 0
M  V30 3094 H 289.843 -4.49485 1.81911 0
M  V30 3095 N 291.186 -0.45159 -1.50991 0
M  V30 3096 C 292.096 0.358431 -2.31846 0
M  V30 3097 C 293.112 1.01438 -1.41373 0
M  V30 3098 O 294.288 1.00663 -1.74439 0
M  V30 3099 C 291.353 1.43704 -3.15515 0
M  V30 3100 C 290.414 0.799742 -4.21785 0
M  V30 3101 C 289.647 1.82696 -5.01456 0
M  V30 3102 O 289.87 3.05105 -4.81941 0
M  V30 3103 O 288.804 1.40958 -5.85162 0
M  V30 3104 H 292.63 -0.302032 -3.02194 0
M  V30 3105 H 290.215 -0.213825 -1.47862 0
M  V30 3106 H 292.097 2.06227 -3.67489 0
M  V30 3107 H 290.772 2.08133 -2.47916 0
M  V30 3108 H 289.679 0.136084 -3.73852 0
M  V30 3109 H 291.012 0.198718 -4.91799 0
M  V30 3110 N 292.664 1.56529 -0.183458 0
M  V30 3111 C 294.075 1.83739 0.331177 0
M  V30 3112 C 294.426 1.10373 1.62211 0
M  V30 3113 O 293.551 0.36071 2.13373 0
M  V30 3114 C 294.146 3.33306 0.607646 0
M  V30 3115 C 292.705 3.60969 1.06668 0
M  V30 3116 C 291.852 2.77086 0.109029 0
M  V30 3117 H 294.803 1.53379 -0.407484 0
M  V30 3118 H 294.824 3.51444 1.45832 0
M  V30 3119 H 294.336 3.86677 -0.332086 0
M  V30 3120 H 292.437 3.13021 2.0211 0
M  V30 3121 H 292.55 4.69231 0.967447 0
M  V30 3122 H 290.914 2.47319 0.608714 0
M  V30 3123 H 291.697 3.33241 -0.82494 0
M  V30 3124 N 294.142 -0.090211 1.57342 0
M  V30 3125 C 295.553 -0.644173 1.75235 0
M  V30 3126 C 295.904 -1.78865 0.806335 0
M  V30 3127 O 295.029 -2.16395 -0.0140128 0
M  V30 3128 C 295.624 -1.17532 3.1776 0
M  V30 3129 C 294.183 -1.67531 3.37061 0
M  V30 3130 C 293.33 -0.58693 2.71017 0
M  V30 3131 H 296.281 0.135884 1.58117 0
M  V30 3132 H 296.302 -2.04455 3.20902 0
M  V30 3133 H 295.814 -0.342138 3.86589 0
M  V30 3134 H 293.915 -2.53234 2.73319 0
M  V30 3135 H 294.028 -1.76493 4.45406 0
M  V30 3136 H 292.392 -1.02756 2.33052 0
M  V30 3137 H 293.175 0.235758 3.4249 0
M  V30 3138 N 295.62 -1.53406 -0.361157 0
M  V30 3139 C 296.567 -1.80156 -1.44265 0
M  V30 3140 C 297.537 -0.646183 -1.53015 0
M  V30 3141 O 298.722 -0.888818 -1.68833 0
M  V30 3142 C 295.862 -2.00116 -2.81154 0
M  V30 3143 C 294.975 -3.27833 -2.81335 0
M  V30 3144 C 294.11 -3.37957 -4.09828 0
M  V30 3145 C 293.149 -4.59689 -4.04168 0
M  V30 3146 N 292.286 -4.66942 -5.24318 0
M  V30 3147 H 297.126 -2.72438 -1.20754 0
M  V30 3148 H 294.663 -1.34954 -0.585296 0
M  V30 3149 H 296.621 -2.09677 -3.60682 0
M  V30 3150 H 295.251 -1.11167 -3.03054 0
M  V30 3151 H 294.303 -3.27204 -1.94014 0
M  V30 3152 H 295.615 -4.17442 -2.73027 0
M  V30 3153 H 294.769 -3.46853 -4.97773 0
M  V30 3154 H 293.508 -2.46372 -4.20894 0
M  V30 3155 H 292.513 -4.50889 -3.14609 0
M  V30 3156 H 293.738 -5.5262 -3.947 0
M  V30 3157 H 291.684 -3.7826 -5.35962 0
M  V30 3158 H 291.601 -5.50462 -5.18197 0
M  V30 3159 H 292.869 -4.80127 -6.14084 0
M  V30 3160 N 297.098 0.621204 -1.44841 0
M  V30 3161 C 298.045 1.73267 -1.5247 0
M  V30 3162 C 299.015 1.6189 -0.371611 0
M  V30 3163 O 300.2 1.81668 -0.58321 0
M  V30 3164 C 297.34 3.11545 -1.48438 0
M  V30 3165 C 296.453 3.33827 -2.74196 0
M  V30 3166 C 295.588 4.62133 -2.61929 0
M  V30 3167 C 294.627 4.77627 -3.82804 0
M  V30 3168 N 293.764 5.97219 -3.69153 0
M  V30 3169 H 298.604 1.66082 -2.47428 0
M  V30 3170 H 296.141 0.810026 -1.22788 0
M  V30 3171 H 298.099 3.91528 -1.4409 0
M  V30 3172 H 296.729 3.1772 -0.570402 0
M  V30 3173 H 295.781 2.47715 -2.88689 0
M  V30 3174 H 297.093 3.41153 -3.6389 0
M  V30 3175 H 296.247 5.50291 -2.5547 0
M  V30 3176 H 294.986 4.57182 -1.69811 0
M  V30 3177 H 293.991 3.87896 -3.89637 0
M  V30 3178 H 295.216 4.84385 -4.75971 0
M  V30 3179 H 293.162 5.93339 -2.79794 0
M  V30 3180 H 293.079 6.05644 -4.52472 0
M  V30 3181 H 294.347 6.87912 -3.66603 0
M  V30 3182 N 298.576 1.31904 0.862503 0
M  V30 3183 C 299.824 1.21776 1.61292 0
M  V30 3184 C 300.145 -0.222413 1.93727 0
M  V30 3185 O 299.415 -1.1451 1.58947 0
M  V30 3186 H 297.995 0.447717 0.597962 0
M  V30 3187 H 300.657 1.65326 1.03215 0
M  V30 3188 H 299.753 1.7948 2.5533 0
M  V30 3189 N 300.054 -1.07777 1.14986 0
M  V30 3190 C 301.47 -1.32373 0.891596 0
M  V30 3191 C 301.67 -1.9609 -0.463788 0
M  V30 3192 O 300.726 -2.21801 -1.20667 0
M  V30 3193 C 302.039 -2.21905 2.02925 0
M  V30 3194 C 303.587 -2.35367 2.06329 0
M  V30 3195 C 304.062 -3.28245 3.19405 0
M  V30 3196 N 305.553 -3.35824 3.19024 0
M  V30 3197 C 306.288 -4.07739 4.03158 0
M  V30 3198 N 305.784 -4.82306 4.97346 0
M  V30 3199 N 307.577 -4.03635 3.91197 0
M  V30 3200 H 299.728 -0.648039 2.02273 0
M  V30 3201 H 301.991 -0.348149 0.881757 0
M  V30 3202 H 301.697 -1.82342 3.0074 0
M  V30 3203 H 301.571 -3.22407 1.95789 0
M  V30 3204 H 303.958 -2.74186 1.09116 0
M  V30 3205 H 304.039 -1.34585 2.17533 0
M  V30 3206 H 303.683 -2.90146 4.16867 0
M  V30 3207 H 303.613 -4.28971 3.05437 0
M  V30 3208 H 306.104 -2.8267 2.50811 0
M  V30 3209 H 306.417 -5.34661 5.57994 0
M  V30 3210 H 304.762 -4.81337 5.01338 0
M  V30 3211 H 307.953 -3.44491 3.16928 0
M  V30 3212 H 308.126 -4.59417 4.5699 0
M  V30 3213 N 301.532 -0.945985 -1.26051 0
M  V30 3214 C 302.757 -0.612525 -1.98149 0
M  V30 3215 C 303.182 0.806623 -1.69927 0
M  V30 3216 O 302.54 1.54411 -0.950108 0
M  V30 3217 C 302.588 -0.866981 -3.50023 0
M  V30 3218 O 301.692 0.0585333 -4.12358 0
M  V30 3219 H 301.033 -0.23379 -0.621481 0
M  V30 3220 H 303.563 -1.27023 -1.60395 0
M  V30 3221 H 303.573 -0.789792 -4.00283 0
M  V30 3222 H 302.248 -1.90135 -3.69894 0
M  V30 3223 H 300.825 -0.0701241 -3.72834 0
M  V30 3224 N 303.011 1.40521 -0.713556 0
M  V30 3225 C 304.257 2.01221 -0.252564 0
M  V30 3226 C 304.59 1.56444 1.1506 0
M  V30 3227 O 303.865 0.783597 1.78017 0
M  V30 3228 C 304.148 3.58582 -0.330332 0
M  V30 3229 C 304.001 4.13437 -1.77173 0
M  V30 3230 C 305.32 4.39079 0.299641 0
M  V30 3231 H 302.439 0.731077 -0.0932471 0
M  V30 3232 H 305.081 1.67026 -0.905673 0
M  V30 3233 H 303.231 3.87844 0.225737 0
M  V30 3234 H 304.903 3.9498 -2.38303 0
M  V30 3235 H 303.146 3.67801 -2.3001 0
M  V30 3236 H 303.817 5.22597 -1.77755 0
M  V30 3237 H 306.293 4.15735 -0.174139 0
M  V30 3238 H 305.169 5.4848 0.214771 0
M  V30 3239 H 305.43 4.19915 1.38288 0
M  V30 3240 N 304.489 0.459591 1.5075 0
M  V30 3241 C 305.735 -0.0994966 2.02556 0
M  V30 3242 C 306.068 -1.40399 1.3417 0
M  V30 3243 O 305.343 -1.88892 0.463683 0
M  V30 3244 C 305.626 -0.295242 3.58888 0
M  V30 3245 C 305.479 1.02947 4.37861 0
M  V30 3246 C 306.798 -1.05502 4.27267 0
M  V30 3247 H 303.917 -0.034686 0.736183 0
M  V30 3248 H 306.559 0.602938 1.8018 0
M  V30 3249 H 304.709 -0.893563 3.78084 0
M  V30 3250 H 306.381 1.66348 4.30263 0
M  V30 3251 H 304.624 1.62885 4.02058 0
M  V30 3252 H 305.295 0.846281 5.45474 0
M  V30 3253 H 307.771 -0.547993 4.12476 0
M  V30 3254 H 306.647 -1.16077 5.36486 0
M  V30 3255 H 306.908 -2.08875 3.89645 0
M  V30 3256 N 305.967 -1.56429 0.191757 0
M  V30 3257 C 307.214 -1.97485 -0.447891 0
M  V30 3258 C 307.542 -1.07852 -1.61859 0
M  V30 3259 O 306.797 -0.116903 -1.95351 0
M  V30 3260 C 307.096 -3.44449 -0.953384 0
M  V30 3261 C 306.762 -4.50781 0.103586 0
M  V30 3262 C 305.424 -4.79584 0.394023 0
M  V30 3263 C 307.776 -5.1471 0.819946 0
M  V30 3264 C 305.104 -5.69607 1.40585 0
M  V30 3265 C 307.456 -6.05827 1.8209 0
M  V30 3266 C 306.12 -6.32987 2.11857 0
M  V30 3267 H 305.39 -0.722648 -0.163895 0
M  V30 3268 H 308.037 -1.89322 0.28802 0
M  V30 3269 H 306.342 -3.49666 -1.76751 0
M  V30 3270 H 308.039 -3.73569 -1.45765 0
M  V30 3271 H 304.629 -4.28394 -0.132951 0
M  V30 3272 H 308.813 -4.92552 0.608789 0
M  V30 3273 H 304.069 -5.88926 1.64243 0
M  V30 3274 H 308.243 -6.54424 2.38123 0
M  V30 3275 H 305.87 -7.02544 2.90407 0
M  V30 3276 N 307.445 0.0818655 -1.57387 0
M  V30 3277 C 308.67 0.799946 -1.91352 0
M  V30 3278 C 309.095 1.70833 -0.787258 0
M  V30 3279 O 308.453 1.79419 0.26048 0
M  V30 3280 C 308.501 1.57812 -3.24234 0
M  V30 3281 O 307.605 2.68806 -3.12757 0
M  V30 3282 H 306.946 0.21891 -0.626877 0
M  V30 3283 H 309.476 0.0531256 -2.04531 0
M  V30 3284 H 309.486 1.95952 -3.57864 0
M  V30 3285 H 308.161 0.911548 -4.05788 0
M  V30 3286 H 306.738 2.33597 -2.90666 0
M  V30 3287 N 308.923 1.53595 0.353017 0
M  V30 3288 C 310.171 1.70049 1.09215 0
M  V30 3289 C 310.492 0.461406 1.89463 0
M  V30 3290 O 309.762 -0.524633 1.88744 0
M  V30 3291 H 308.342 0.626912 0.40619 0
M  V30 3292 H 311.004 1.90822 0.396585 0
M  V30 3293 H 310.1 2.56718 1.77488 0
M  V30 3294 N 310.401 -0.613514 1.45168 0
M  V30 3295 C 311.678 -1.37263 1.39349 0
M  V30 3296 C 312.058 -2.11012 0.0610848 0
M  V30 3297 O 311.406 -2.07502 -0.956825 0
M  V30 3298 C 311.616 -2.3244 2.60332 0
M  V30 3299 C 312.964 -2.9523 3.05163 0
M  V30 3300 O 313.988 -2.42762 2.60663 0
M  V30 3301 O 312.847 -3.90454 3.82372 0
M  V30 3302 H 309.941 -0.615188 0.552696 0
M  V30 3303 H 312.487 -0.637097 1.57287 0
M  V30 3304 H 311.259 -1.77164 3.48896 0
M  V30 3305 H 310.882 -3.13383 2.44698 0
M  V30 3306 N 311.879 -1.3236 -0.855495 0
M  V30 3307 C 313.107 -1.2587 -1.64208 0
M  V30 3308 C 313.522 0.173457 -1.88002 0
M  V30 3309 O 312.879 1.11027 -1.44842 0
M  V30 3310 C 312.93 -2.01424 -3.00184 0
M  V30 3311 O 312.651 -3.39051 -2.77445 0
M  V30 3312 C 314.152 -2.01948 -3.94629 0
M  V30 3313 H 311.372 -0.434318 -0.511477 0
M  V30 3314 H 313.916 -1.74469 -1.0668 0
M  V30 3315 H 312.071 -1.56549 -3.5436 0
M  V30 3316 H 312.485 -3.77711 -3.63916 0
M  V30 3317 H 313.959 -2.59297 -4.87308 0
M  V30 3318 H 314.436 -1.00554 -4.27534 0
M  V30 3319 H 315.042 -2.46767 -3.4639 0
M  V30 3320 N 313.357 1.07166 -1.15556 0
M  V30 3321 C 314.773 1.31899 -0.898603 0
M  V30 3322 C 314.973 1.96333 0.453383 0
M  V30 3323 O 314.029 2.22438 1.19489 0
M  V30 3324 C 315.342 2.20826 -2.04099 0
M  V30 3325 C 316.89 2.34269 -2.07574 0
M  V30 3326 C 317.365 3.26546 -3.21141 0
M  V30 3327 N 318.856 3.34127 -3.20801 0
M  V30 3328 C 319.591 4.05595 -4.05315 0
M  V30 3329 N 319.087 4.79661 -4.99897 0
M  V30 3330 N 320.88 4.01555 -3.93332 0
M  V30 3331 H 313.031 0.637302 -2.02613 0
M  V30 3332 H 315.294 0.343468 -0.883591 0
M  V30 3333 H 315 1.80744 -3.01703 0
M  V30 3334 H 314.874 3.21364 -1.97496 0
M  V30 3335 H 317.261 2.73603 -1.10568 0
M  V30 3336 H 317.342 1.33429 -2.18244 0
M  V30 3337 H 316.986 2.87931 -4.184 0
M  V30 3338 H 316.916 4.27345 -3.07708 0
M  V30 3339 H 319.407 2.81336 -2.52306 0
M  V30 3340 H 319.72 5.31694 -5.60822 0
M  V30 3341 H 318.065 4.78671 -5.03884 0
M  V30 3342 H 321.256 3.42806 -3.18751 0
M  V30 3343 H 321.429 4.56987 -4.5942 0
M  V30 3344 N 314.835 0.952656 1.25548 0
M  V30 3345 C 316.081 0.607272 1.93494 0
M  V30 3346 C 316.414 -0.853245 1.74452 0
M  V30 3347 O 315.689 -1.61194 1.08843 0
M  V30 3348 C 315.972 0.96435 3.46947 0
M  V30 3349 C 315.825 2.48045 3.75225 0
M  V30 3350 C 317.144 0.487987 4.37386 0
M  V30 3351 H 314.263 0.222096 0.702739 0
M  V30 3352 H 316.905 1.18895 1.48203 0
M  V30 3353 H 315.055 0.469361 3.85654 0
M  V30 3354 H 316.727 3.04905 3.46166 0
M  V30 3355 H 314.97 2.919 3.209 0
M  V30 3356 H 315.641 2.6808 4.82532 0
M  V30 3357 H 318.117 0.912558 4.0597 0
M  V30 3358 H 316.993 0.766547 5.43521 0
M  V30 3359 H 317.254 -0.612063 4.37843 0
M  V30 3360 N 316.313 -1.40141 0.720998 0
M  V30 3361 C 317.538 -2.05618 0.271258 0
M  V30 3362 C 317.963 -1.53978 -1.08039 0
M  V30 3363 O 317.321 -0.677463 -1.68167 0
M  V30 3364 C 317.369 -3.59609 0.267197 0
M  V30 3365 O 316.473 -4.05526 -0.749814 0
M  V30 3366 H 315.814 -0.651904 0.126162 0
M  V30 3367 H 318.344 -1.79439 0.982997 0
M  V30 3368 H 318.354 -4.0786 0.106744 0
M  V30 3369 H 317.029 -3.96559 1.25354 0
M  V30 3370 H 315.606 -3.68722 -0.556644 0
M  V30 3371 N 317.792 -0.46758 -1.50504 0
M  V30 3372 C 319.069 0.15003 -1.95024 0
M  V30 3373 C 319.449 1.57304 -1.40779 0
M  V30 3374 O 318.797 2.20281 -0.607319 0
M  V30 3375 C 319.007 0.0969324 -3.48865 0
M  V30 3376 C 320.355 0.287565 -4.23625 0
M  V30 3377 O 321.379 0.173678 -3.55776 0
M  V30 3378 O 320.238 0.517186 -5.44047 0
M  V30 3379 H 317.332 0.113582 -0.819163 0
M  V30 3380 H 319.878 -0.52773 -1.61286 0
M  V30 3381 H 318.65 -0.896732 -3.80886 0
M  V30 3382 H 318.273 0.816303 -3.8913 0
M  V30 3383 N 319.27 1.56325 -0.20005 0
M  V30 3384 C 320.217 2.1932 0.718833 0
M  V30 3385 C 321.187 1.14198 1.20615 0
M  V30 3386 O 322.372 1.42469 1.26914 0
M  V30 3387 C 319.512 2.86041 1.93066 0
M  V30 3388 C 318.625 4.05702 1.48425 0
M  V30 3389 C 317.76 4.60266 2.65196 0
M  V30 3390 C 316.799 5.72273 2.17185 0
M  V30 3391 N 315.936 6.21221 3.27152 0
M  V30 3392 H 320.776 2.97486 0.17489 0
M  V30 3393 H 318.313 1.46911 0.0745794 0
M  V30 3394 H 320.271 3.22897 2.64184 0
M  V30 3395 H 318.901 2.1043 2.44783 0
M  V30 3396 H 317.953 3.74475 0.668755 0
M  V30 3397 H 319.265 4.86699 1.09204 0
M  V30 3398 H 318.419 4.99453 3.4443 0
M  V30 3399 H 317.158 3.78386 3.07693 0
M  V30 3400 H 316.163 5.3261 1.36407 0
M  V30 3401 H 317.388 6.55974 1.75713 0
M  V30 3402 H 315.334 5.42263 3.69171 0
M  V30 3403 H 315.251 6.97284 2.92116 0
M  V30 3404 H 316.519 6.65063 4.06585 0
M  V30 3405 N 320.748 -0.0735177 1.57428 0
M  V30 3406 C 321.678 -1.0879 2.06608 0
M  V30 3407 C 322.659 -1.40473 0.959237 0
M  V30 3408 O 323.844 -1.5013 1.23185 0
M  V30 3409 C 320.974 -2.40183 2.50857 0
M  V30 3410 C 319.928 -2.22858 3.65402 0
M  V30 3411 C 319.254 -3.59619 3.957 0
M  V30 3412 C 320.554 -1.65123 4.95511 0
M  V30 3413 H 322.248 -0.678673 2.91607 0
M  V30 3414 H 319.794 -0.325013 1.40284 0
M  V30 3415 H 321.747 -3.11437 2.83874 0
M  V30 3416 H 320.471 -2.83083 1.62885 0
M  V30 3417 H 319.13 -1.54045 3.32664 0
M  V30 3418 H 318.778 -4.00086 3.04861 0
M  V30 3419 H 318.478 -3.48866 4.72828 0
M  V30 3420 H 320.002 -4.32306 4.31212 0
M  V30 3421 H 321.416 -2.26241 5.26771 0
M  V30 3422 H 319.813 -1.65071 5.7695 0
M  V30 3423 H 320.883 -0.612559 4.81015 0
M  V30 3424 N 322.226 -1.5378 -0.344866 0
M  V30 3425 C 323.173 -1.81676 -1.42346 0
M  V30 3426 C 324.143 -0.662376 -1.52321 0
M  V30 3427 O 325.328 -0.906675 -1.67881 0
M  V30 3428 C 322.468 -2.03087 -2.79015 0
M  V30 3429 C 321.581 -3.30799 -2.77842 0
M  V30 3430 C 320.716 -3.42285 -4.0622 0
M  V30 3431 C 319.755 -4.6395 -3.9927 0
M  V30 3432 N 318.892 -4.72477 -5.19336 0
M  V30 3433 H 323.732 -2.73703 -1.17858 0
M  V30 3434 H 321.269 -1.35568 -0.570949 0
M  V30 3435 H 323.227 -2.1349 -3.58438 0
M  V30 3436 H 321.857 -1.14375 -3.01858 0
M  V30 3437 H 320.909 -3.29244 -1.90533 0
M  V30 3438 H 322.221 -4.20314 -2.68584 0
M  V30 3439 H 321.375 -3.52113 -4.94066 0
M  V30 3440 H 320.114 -2.50823 -4.18258 0
M  V30 3441 H 319.119 -4.54201 -3.09809 0
M  V30 3442 H 320.344 -5.56775 -3.88817 0
M  V30 3443 H 318.29 -3.83924 -5.3192 0
M  V30 3444 H 318.207 -5.55927 -5.12329 0
M  V30 3445 H 319.475 -4.86613 -6.08957 0
M  V30 3446 N 323.704 0.605807 -1.45491 0
M  V30 3447 C 324.614 1.74466 -1.56839 0
M  V30 3448 C 325.63 1.68006 -0.452772 0
M  V30 3449 O 326.806 1.8833 -0.713708 0
M  V30 3450 C 323.871 3.10931 -1.53371 0
M  V30 3451 C 322.932 3.28832 -2.75986 0
M  V30 3452 C 322.165 4.58787 -2.72673 0
M  V30 3453 O 322.388 5.4122 -1.80102 0
M  V30 3454 O 321.322 4.79438 -3.63899 0
M  V30 3455 H 325.148 1.67843 -2.53106 0
M  V30 3456 H 322.733 0.770108 -1.28022 0
M  V30 3457 H 324.615 3.92233 -1.54051 0
M  V30 3458 H 323.29 3.18042 -0.602572 0
M  V30 3459 H 322.197 2.47112 -2.80867 0
M  V30 3460 H 323.53 3.26599 -3.68231 0
M  V30 3461 N 325.182 1.32811 0.848464 0
M  V30 3462 C 326.112 1.24882 1.97299 0
M  V30 3463 C 327.093 0.131357 1.69592 0
M  V30 3464 O 328.278 0.319553 1.91553 0
M  V30 3465 C 325.408 0.97746 3.33261 0
M  V30 3466 C 324.362 2.05682 3.75338 0
M  V30 3467 C 323.688 1.63777 5.09 0
M  V30 3468 C 324.988 3.47254 3.90144 0
M  V30 3469 H 326.682 2.18966 2.04191 0
M  V30 3470 H 324.228 1.05413 0.981029 0
M  V30 3471 H 326.181 0.908513 4.1149 0
M  V30 3472 H 324.905 0.000980011 3.266 0
M  V30 3473 H 323.564 2.11603 2.99366 0
M  V30 3474 H 323.212 0.648569 4.98801 0
M  V30 3475 H 322.912 2.36 5.38124 0
M  V30 3476 H 324.436 1.5833 5.89715 0
M  V30 3477 H 325.85 3.43888 4.58709 0
M  V30 3478 H 324.247 4.1788 4.30693 0
M  V30 3479 H 325.317 3.86462 2.92874 0
M  V30 3480 N 326.66 -1.06551 1.16123 0
M  V30 3481 C 327.623 -2.12132 0.867906 0
M  V30 3482 C 328.623 -1.60224 -0.135944 0
M  V30 3483 O 329.813 -1.73943 0.0946422 0
M  V30 3484 C 326.945 -3.396 0.297419 0
M  V30 3485 H 328.138 -2.39586 1.80385 0
M  V30 3486 H 325.691 -1.22574 0.969812 0
M  V30 3487 H 326.426 -3.17794 -0.64633 0
M  V30 3488 H 326.211 -3.78581 1.02073 0
M  V30 3489 H 327.701 -4.17455 0.110052 0
M  V30 3490 N 328.138 -0.959301 -1.25041 0
M  V30 3491 C 329.554 -0.664474 -1.4511 0
M  V30 3492 C 329.754 0.776481 -1.85938 0
M  V30 3493 O 328.81 1.55128 -1.99227 0
M  V30 3494 C 330.123 -1.64139 -2.5195 0
M  V30 3495 C 331.671 -1.65309 -2.65786 0
M  V30 3496 C 332.146 -2.61777 -3.75815 0
M  V30 3497 N 333.637 -2.60169 -3.83231 0
M  V30 3498 C 334.372 -3.31489 -4.6787 0
M  V30 3499 N 333.868 -4.12298 -5.56761 0
M  V30 3500 N 335.661 -3.20354 -4.61876 0
M  V30 3501 H 327.812 -1.89043 -0.968332 0
M  V30 3502 H 330.075 -0.813408 -0.4869 0
M  V30 3503 H 329.781 -2.67086 -2.28819 0
M  V30 3504 H 329.655 -1.40756 -3.49954 0
M  V30 3505 H 332.042 -0.630778 -2.8828 0
M  V30 3506 H 332.123 -1.92753 -1.68167 0
M  V30 3507 H 331.767 -3.64137 -3.54071 0
M  V30 3508 H 331.697 -2.31616 -4.72929 0
M  V30 3509 H 334.188 -2.01507 -3.19692 0
M  V30 3510 H 334.501 -4.63625 -6.18281 0
M  V30 3511 H 332.846 -4.16395 -5.56454 0
M  V30 3512 H 336.037 -2.56692 -3.91442 0
M  V30 3513 H 336.21 -3.76201 -5.27614 0
M  V30 3514 N 329.616 1.39756 -0.72842 0
M  V30 3515 C 330.893 1.94574 -0.200079 0
M  V30 3516 C 331.273 1.66569 1.29684 0
M  V30 3517 O 330.621 0.990326 2.05924 0
M  V30 3518 C 330.831 3.45004 -0.526608 0
M  V30 3519 C 332.179 4.21965 -0.472318 0
M  V30 3520 O 333.203 3.53173 -0.463413 0
M  V30 3521 O 332.062 5.44552 -0.461075 0
M  V30 3522 H 329.156 0.826289 -0.0342851 0
M  V30 3523 H 331.702 1.49293 -0.806829 0
M  V30 3524 H 330.474 3.58796 -1.56144 0
M  V30 3525 H 330.097 3.97449 0.109449 0
M  V30 3526 N 331.094 0.475555 1.50254 0
M  V30 3527 C 332.334 -0.0765802 2.04256 0
M  V30 3528 C 332.698 -1.36587 1.34937 0
M  V30 3529 O 333.899 -2.00066 1.79519 0
M  V30 3530 C 332.17 -0.251668 3.56513 0
M  V30 3531 S 333.729 -0.761716 4.32138 0
M  V30 3532 H 330.547 -0.0138456 0.710865 0
M  V30 3533 H 333.149 0.643714 1.84598 0
M  V30 3534 H 331.853 0.692404 4.04517 0
M  V30 3535 H 331.384 -0.997946 3.80532 0
M  V30 3536 H 333.399 -2.03451 4.52573 0
M  V30 3537 N 332.573 -1.56217 0.208337 0
M  V30 3538 C 333.85 -1.89739 -0.475234 0
M  V30 3539 C 334.23 -1.1238 -1.78701 0
M  V30 3540 O 333.578 -0.228979 -2.2735 0
M  V30 3541 C 333.788 -3.42289 -0.681101 0
M  V30 3542 C 335.136 -4.12789 -0.994507 0
M  V30 3543 O 336.16 -3.47814 -0.768357 0
M  V30 3544 O 335.019 -5.27649 -1.42299 0
M  V30 3545 H 332.113 -0.788478 -0.249461 0
M  V30 3546 H 334.659 -1.67855 0.249538 0
M  V30 3547 H 333.431 -3.90534 0.244722 0
M  V30 3548 H 333.054 -3.69909 -1.45785 0
M  V30 3549 N 334.051 0.0651679 -1.57465 0
M  V30 3550 C 335.297 0.764193 -1.87851 0
M  V30 3551 C 335.63 1.76889 -0.801495 0
M  V30 3552 O 334.905 1.93594 0.187528 0
M  V30 3553 C 335.188 1.46625 -3.28897 0
M  V30 3554 C 335.041 0.477515 -4.47258 0
M  V30 3555 C 336.36 2.4095 -3.68281 0
M  V30 3556 H 333.479 0.276351 -0.683227 0
M  V30 3557 H 336.121 0.0272868 -1.8998 0
M  V30 3558 H 334.271 2.09438 -3.27212 0
M  V30 3559 H 335.943 -0.145922 -4.61069 0
M  V30 3560 H 334.186 -0.206576 -4.33308 0
M  V30 3561 H 334.857 1.0065 -5.42746 0
M  V30 3562 H 337.333 1.88209 -3.71102 0
M  V30 3563 H 336.209 2.87072 -4.67847 0
M  V30 3564 H 336.47 3.26049 -2.98571 0
M  V30 3565 N 335.529 1.53961 0.336706 0
M  V30 3566 C 336.459 1.85417 1.41925 0
M  V30 3567 C 337.44 0.709856 1.5458 0
M  V30 3568 O 338.625 0.962396 1.68676 0
M  V30 3569 C 335.755 2.06985 2.78881 0
M  V30 3570 C 334.709 3.22813 2.81026 0
M  V30 3571 C 334.035 3.29727 4.20932 0
M  V30 3572 C 335.335 4.60767 2.45949 0
M  V30 3573 H 337.029 2.76079 1.15848 0
M  V30 3574 H 334.575 1.32839 0.555859 0
M  V30 3575 H 336.528 2.27575 3.54665 0
M  V30 3576 H 335.252 1.13061 3.06406 0
M  V30 3577 H 333.911 3.0209 2.07695 0
M  V30 3578 H 333.559 2.33385 4.45579 0
M  V30 3579 H 333.259 4.07566 4.23277 0
M  V30 3580 H 334.783 3.52536 4.98549 0
M  V30 3581 H 336.197 4.81325 3.11446 0
M  V30 3582 H 334.594 5.4106 2.59566 0
M  V30 3583 H 335.664 4.6391 1.41122 0
M  V30 3584 N 337.007 -0.598083 1.45811 0
M  V30 3585 C 338.253 -1.35882 1.50545 0
M  V30 3586 C 338.586 -1.93616 0.150445 0
M  V30 3587 O 337.861 -1.75604 -0.83628 0
M  V30 3588 C 338.144 -2.49966 2.59208 0
M  V30 3589 C 337.997 -1.97367 4.04186 0
M  V30 3590 C 339.316 -3.52068 2.64076 0
M  V30 3591 H 336.435 -0.492717 0.548087 0
M  V30 3592 H 339.077 -0.673319 1.77669 0
M  V30 3593 H 337.227 -3.08443 2.3621 0
M  V30 3594 H 338.899 -1.43466 4.38423 0
M  V30 3595 H 337.142 -1.283 4.14393 0
M  V30 3596 H 337.813 -2.79649 4.75921 0
M  V30 3597 H 340.289 -3.03448 2.84708 0
M  V30 3598 H 339.165 -4.2937 3.41954 0
M  V30 3599 H 339.426 -4.08304 1.69531 0
M  V30 3600 N 338.485 -1.33259 -0.841409 0
M  V30 3601 C 339.435 -1.19872 -1.93945 0
M  V30 3602 C 340.419 -0.102269 -1.60575 0
M  V30 3603 O 341.611 -0.330114 -1.73894 0
M  V30 3604 C 338.74 -0.937517 -3.30251 0
M  V30 3605 C 337.826 -2.07629 -3.69799 0
M  V30 3606 N 338.217 -3.32604 -3.81062 0
M  V30 3607 C 336.515 -1.98242 -3.9952 0
M  V30 3608 C 337.216 -4.07275 -4.15333 0
M  V30 3609 N 336.192 -3.35691 -4.27566 0
M  V30 3610 H 339.994 -2.14604 -2.00805 0
M  V30 3611 H 337.508 -1.2523 -1.03398 0
M  V30 3612 H 339.505 -0.822545 -4.08705 0
M  V30 3613 H 338.165 0.00128798 -3.247 0
M  V30 3614 H 339.176 -3.67382 -3.65035 0
M  V30 3615 H 335.853 -1.12005 -4.02195 0
M  V30 3616 H 337.243 -5.1511 -4.31406 0
M  V30 3617 N 339.963 1.05934 -1.16686 0
M  V30 3618 C 340.873 2.17014 -0.891183 0
M  V30 3619 C 341.889 1.73453 0.137907 0
M  V30 3620 O 343.065 2.01361 -0.039592 0
M  V30 3621 C 340.13 3.44384 -0.400099 0
M  V30 3622 C 339.191 4.02433 -1.49486 0
M  V30 3623 C 338.424 5.23723 -1.02711 0
M  V30 3624 O 338.647 5.7027 0.121716 0
M  V30 3625 O 337.581 5.7382 -1.81699 0
M  V30 3626 H 341.407 2.43113 -1.82015 0
M  V30 3627 H 338.992 1.15541 -0.947132 0
M  V30 3628 H 340.874 4.21189 -0.133392 0
M  V30 3629 H 339.549 3.19802 0.500817 0
M  V30 3630 H 338.456 3.27102 -1.81535 0
M  V30 3631 H 339.789 4.31317 -2.37121 0
M  V30 3632 N 341.441 0.965919 1.2453 0
M  V30 3633 C 342.404 0.499547 2.2369 0
M  V30 3634 C 343.404 -0.40294 1.5567 0
M  V30 3635 O 344.594 -0.19865 1.73064 0
M  V30 3636 C 341.726 -0.276792 3.39774 0
M  V30 3637 H 342.919 1.37613 2.66463 0
M  V30 3638 H 340.472 0.750324 1.37112 0
M  V30 3639 H 341.207 -1.17055 3.02438 0
M  V30 3640 H 340.992 0.370826 3.90343 0
M  V30 3641 H 342.482 -0.592175 4.1338 0
M  V30 3642 N 342.919 -1.39368 0.735821 0
M  V30 3643 C 344.147 -2.04795 0.294393 0
M  V30 3644 C 344.562 -1.55478 -1.07107 0
M  V30 3645 O 343.919 -0.720038 -1.67695 0
M  V30 3646 C 343.97 -3.6035 0.288071 0
M  V30 3647 O 343.691 -4.07852 1.59963 0
M  V30 3648 C 345.192 -4.42976 -0.169422 0
M  V30 3649 H 342.412 -0.658571 0.128551 0
M  V30 3650 H 344.956 -1.78399 0.999701 0
M  V30 3651 H 343.111 -3.85645 -0.368355 0
M  V30 3652 H 343.525 -5.02181 1.51375 0
M  V30 3653 H 344.999 -5.51864 -0.122687 0
M  V30 3654 H 345.476 -4.22068 -1.21472 0
M  V30 3655 H 346.082 -4.22832 0.457469 0
M  V30 3656 N 344.397 -0.483516 -1.5 0
M  V30 3657 C 345.644 0.0671597 -2.02389 0
M  V30 3658 C 345.972 1.38597 -1.36459 0
M  V30 3659 O 345.227 1.89634 -0.483458 0
M  V30 3660 C 345.526 0.286226 -3.56252 0
M  V30 3661 C 345.192 -0.952416 -4.40726 0
M  V30 3662 C 343.854 -1.29199 -4.63531 0
M  V30 3663 C 346.206 -1.77655 -4.89988 0
M  V30 3664 C 343.534 -2.45553 -5.32842 0
M  V30 3665 C 345.886 -2.93147 -5.60578 0
M  V30 3666 C 344.55 -3.27505 -5.81633 0
M  V30 3667 H 343.82 0.0245755 -0.740592 0
M  V30 3668 H 346.467 -0.640124 -1.80485 0
M  V30 3669 H 344.772 1.07587 -3.76739 0
M  V30 3670 H 346.469 0.726473 -3.94365 0
M  V30 3671 H 343.059 -0.677881 -4.23205 0
M  V30 3672 H 347.243 -1.52737 -4.72213 0
M  V30 3673 H 342.499 -2.72431 -5.47349 0
M  V30 3674 H 346.673 -3.57344 -5.97727 0
M  V30 3675 H 344.3 -4.1777 -6.35116 0
M  V30 3676 N 345.875 1.56104 -0.216619 0
M  V30 3677 C 346.838 2.18819 0.681962 0
M  V30 3678 C 347.838 1.14866 1.12528 0
M  V30 3679 O 349.028 1.40128 1.03488 0
M  V30 3680 C 346.16 2.80756 1.93362 0
M  V30 3681 H 347.353 2.99595 0.135254 0
M  V30 3682 H 344.906 1.56265 0.0330003 0
M  V30 3683 H 345.641 2.03837 2.52232 0
M  V30 3684 H 345.426 3.56876 1.62426 0
M  V30 3685 H 346.916 3.28844 2.57393 0
M  V30 3686 N 347.353 -0.0568162 1.57498 0
M  V30 3687 C 348.3 -1.06591 2.04712 0
M  V30 3688 C 349.27 -1.3758 0.930644 0
M  V30 3689 O 350.455 -1.48392 1.19935 0
M  V30 3690 C 347.595 -2.3701 2.50839 0
M  V30 3691 C 346.708 -2.12421 3.76167 0
M  V30 3692 C 345.843 -3.36511 4.11015 0
M  V30 3693 C 344.882 -3.07353 5.2934 0
M  V30 3694 N 344.019 -4.23816 5.59754 0
M  V30 3695 H 348.859 -0.65631 2.90683 0
M  V30 3696 H 346.396 -0.312481 1.43743 0
M  V30 3697 H 348.354 -3.13175 2.7564 0
M  V30 3698 H 346.984 -2.75744 1.67825 0
M  V30 3699 H 346.036 -1.2688 3.58616 0
M  V30 3700 H 347.348 -1.86894 4.62463 0
M  V30 3701 H 346.502 -4.21062 4.36797 0
M  V30 3702 H 345.241 -3.65128 3.23315 0
M  V30 3703 H 344.246 -2.212 5.03339 0
M  V30 3704 H 345.471 -2.80043 6.1867 0
M  V30 3705 H 343.417 -4.52436 4.75014 0
M  V30 3706 H 343.334 -4.01614 6.40501 0
M  V30 3707 H 344.602 -5.0932 5.90096 0
M  V30 3708 N 348.832 -1.54138 -0.328536 0
M  V30 3709 C 349.742 -1.86192 -1.42723 0
M  V30 3710 C 350.758 -0.753382 -1.56844 0
M  V30 3711 O 351.934 -1.04718 -1.72035 0
M  V30 3712 C 348.999 -2.07824 -2.77507 0
M  V30 3713 C 348.06 -3.31641 -2.72603 0
M  V30 3714 C 347.293 -3.52232 -4.00959 0
M  V30 3715 O 347.516 -2.7636 -4.9898 0
M  V30 3716 O 346.45 -4.45699 -4.0452 0
M  V30 3717 H 350.276 -2.79608 -1.18547 0
M  V30 3718 H 347.861 -1.3998 -0.522104 0
M  V30 3719 H 349.743 -2.23411 -3.57303 0
M  V30 3720 H 348.418 -1.17596 -3.01584 0
M  V30 3721 H 347.325 -3.21444 -1.91376 0
M  V30 3722 H 348.658 -4.2191 -2.53481 0
M  V30 3723 N 350.31 0.590341 -1.46126 0
M  V30 3724 C 351.587 1.35029 -1.41515 0
M  V30 3725 C 351.967 2.10888 -0.0946472 0
M  V30 3726 O 351.315 2.08998 0.923693 0
M  V30 3727 C 351.525 2.28269 -2.63997 0
M  V30 3728 C 352.873 2.90338 -3.09821 0
M  V30 3729 O 353.897 2.38585 -2.64492 0
M  V30 3730 O 352.756 3.84321 -3.88535 0
M  V30 3731 H 349.85 0.606317 -0.562413 0
M  V30 3732 H 352.396 0.611994 -1.58281 0
M  V30 3733 H 351.168 1.71591 -3.51671 0
M  V30 3734 H 350.791 3.0945 -2.49652 0
M  V30 3735 N 351.788 1.33704 0.83433 0
M  V30 3736 C 353.204 1.13137 1.12571 0
M  V30 3737 C 353.404 -0.0747261 2.01361 0
M  V30 3738 O 352.46 -0.753647 2.4099 0
M  V30 3739 C 353.773 2.42105 1.78342 0
M  V30 3740 C 355.321 2.48054 1.90888 0
M  V30 3741 C 355.796 3.76995 2.60075 0
M  V30 3742 N 357.287 3.78092 2.67584 0
M  V30 3743 C 358.022 4.74574 3.21818 0
M  V30 3744 N 357.518 5.81434 3.76705 0
M  V30 3745 N 359.311 4.62044 3.20112 0
M  V30 3746 H 351.462 2.11 0.243489 0
M  V30 3747 H 353.725 0.932532 0.17055 0
M  V30 3748 H 353.431 3.30391 1.20561 0
M  V30 3749 H 353.305 2.54594 2.7832 0
M  V30 3750 H 355.692 1.60215 2.47821 0
M  V30 3751 H 355.773 2.39502 0.898459 0
M  V30 3752 H 355.417 4.65219 2.03799 0
M  V30 3753 H 355.347 3.82825 3.61597 0
M  V30 3754 H 357.838 3.00865 2.28667 0
M  V30 3755 H 358.151 6.51084 4.16305 0
M  V30 3756 H 356.496 5.85163 3.7498 0
M  V30 3757 H 359.687 3.77716 2.76493 0
M  V30 3758 H 359.86 5.37406 3.62076 0
M  V30 3759 N 353.266 -1.05314 1.17247 0
M  V30 3760 C 354.213 -2.13031 0.888058 0
M  V30 3761 C 355.183 -1.65253 -0.167537 0
M  V30 3762 O 356.368 -1.90775 -0.0305974 0
M  V30 3763 C 353.508 -3.42702 0.406147 0
M  V30 3764 C 352.621 -4.04161 1.52572 0
M  V30 3765 C 351.756 -5.21744 0.997808 0
M  V30 3766 C 350.795 -5.75207 2.09291 0
M  V30 3767 N 349.932 -6.84094 1.57986 0
M  V30 3768 H 354.772 -2.36698 1.81048 0
M  V30 3769 H 352.309 -1.16121 0.903013 0
M  V30 3770 H 354.267 -4.17059 0.108305 0
M  V30 3771 H 352.897 -3.19222 -0.479313 0
M  V30 3772 H 351.949 -3.27253 1.93931 0
M  V30 3773 H 353.261 -4.39881 2.35172 0
M  V30 3774 H 352.415 -6.03168 0.653739 0
M  V30 3775 H 351.154 -4.87495 0.141232 0
M  V30 3776 H 350.159 -4.92414 2.44557 0
M  V30 3777 H 351.384 -6.11505 2.95362 0
M  V30 3778 H 349.33 -6.51745 0.74598 0
M  V30 3779 H 349.247 -7.18811 2.34195 0
M  V30 3780 H 350.515 -7.69172 1.26468 0
M  V30 3781 N 354.744 -0.972509 -1.24016 0
M  V30 3782 C 355.674 -0.525548 -2.27509 0
M  V30 3783 C 356.655 0.437262 -1.64384 0
M  V30 3784 O 357.84 0.332343 -1.91335 0
M  V30 3785 C 354.97 0.180448 -3.46831 0
M  V30 3786 C 353.924 -0.698859 -4.22256 0
M  V30 3787 C 353.25 0.138903 -5.3452 0
M  V30 3788 C 354.55 -1.98582 -4.83076 0
M  V30 3789 H 356.244 -1.39058 -2.65148 0
M  V30 3790 H 353.79 -0.67009 -1.27459 0
M  V30 3791 H 355.743 0.504387 -4.18371 0
M  V30 3792 H 354.467 1.07987 -3.08231 0
M  V30 3793 H 353.126 -1.00614 -3.52523 0
M  V30 3794 H 352.774 1.03862 -4.9216 0
M  V30 3795 H 352.474 -0.446259 -5.85903 0
M  V30 3796 H 353.998 0.457404 -6.08884 0
M  V30 3797 H 355.412 -1.72715 -5.46665 0
M  V30 3798 H 353.809 -2.5181 -5.44713 0
M  V30 3799 H 354.879 -2.67769 -4.04262 0
M  V30 3800 N 356.222 1.38976 -0.743202 0
M  V30 3801 C 357.185 2.28901 -0.117014 0
M  V30 3802 C 358.185 1.46698 0.658503 0
M  V30 3803 O 359.375 1.67274 0.486305 0
M  V30 3804 C 356.507 3.30309 0.84315 0
M  V30 3805 H 357.7 2.8578 -0.909373 0
M  V30 3806 H 355.253 1.47761 -0.509547 0
M  V30 3807 H 355.988 2.785 1.66157 0
M  V30 3808 H 355.773 3.91029 0.289594 0
M  V30 3809 H 357.263 3.97577 1.2776 0
M  V30 3810 N 357.7 0.491464 1.49741 0
M  V30 3811 C 358.93 -0.0534375 2.06531 0
M  V30 3812 C 359.338 -1.32233 1.35318 0
M  V30 3813 O 358.681 -1.78781 0.422243 0
M  V30 3814 C 358.743 -0.387034 3.57411 0
M  V30 3815 C 358.407 0.782764 4.50246 0
M  V30 3816 C 359.404 1.67059 4.92329 0
M  V30 3817 C 357.089 0.978866 4.9267 0
M  V30 3818 C 359.083 2.73874 5.75562 0
M  V30 3819 C 356.77 2.05022 5.75682 0
M  V30 3820 C 357.768 2.92851 6.17031 0
M  V30 3821 O 357.456 3.98138 6.98385 0
M  V30 3822 H 357.188 0.0129324 0.675876 0
M  V30 3823 H 359.742 0.685238 1.93633 0
M  V30 3824 H 357.972 -1.17918 3.68283 0
M  V30 3825 H 359.661 -0.869419 3.96479 0
M  V30 3826 H 360.427 1.53086 4.60206 0
M  V30 3827 H 356.306 0.304646 4.59992 0
M  V30 3828 H 359.85 3.42458 6.07757 0
M  V30 3829 H 355.747 2.18993 6.07217 0
M  V30 3830 H 356.515 3.95374 7.16674 0
M  V30 3831 N 359.178 -1.55987 0.224894 0
M  V30 3832 C 360.455 -1.90232 -0.455083 0
M  V30 3833 C 360.835 -1.14269 -1.77499 0
M  V30 3834 O 360.183 -0.253079 -2.27094 0
M  V30 3835 C 360.393 -3.42993 -0.644758 0
M  V30 3836 C 361.741 -4.13821 -0.950669 0
M  V30 3837 O 362.765 -3.4861 -0.731423 0
M  V30 3838 O 361.624 -5.29128 -1.36695 0
M  V30 3839 H 358.718 -0.79108 -0.241084 0
M  V30 3840 H 361.264 -1.67581 0.267327 0
M  V30 3841 H 360.036 -3.90252 0.28613 0
M  V30 3842 H 359.659 -3.71434 -1.41853 0
M  V30 3843 N 360.656 0.0484629 -1.57525 0
M  V30 3844 C 361.886 0.754326 -1.92337 0
M  V30 3845 C 362.294 1.70443 -0.82132 0
M  V30 3846 O 361.637 1.82466 0.21254 0
M  V30 3847 C 361.699 1.58231 -3.22805 0
M  V30 3848 C 361.363 0.799074 -4.4996 0
M  V30 3849 C 362.36 0.1079 -5.19788 0
M  V30 3850 C 360.045 0.759345 -4.96527 0
M  V30 3851 C 362.039 -0.612516 -6.3445 0
M  V30 3852 C 359.726 0.0351713 -6.1109 0
M  V30 3853 C 360.724 -0.649537 -6.79904 0
M  V30 3854 O 360.412 -1.36199 -7.92278 0
M  V30 3855 H 360.144 0.218257 -0.639797 0
M  V30 3856 H 362.698 0.0159295 -2.05394 0
M  V30 3857 H 360.928 2.36406 -3.06021 0
M  V30 3858 H 362.617 2.16898 -3.43089 0
M  V30 3859 H 363.383 0.129748 -4.84826 0
M  V30 3860 H 359.262 1.28177 -4.42822 0
M  V30 3861 H 362.806 -1.14751 -6.88097 0
M  V30 3862 H 358.703 0.0113314 -6.45499 0
M  V30 3863 H 359.471 -1.27366 -8.0853 0
M  V30 3864 N 362.134 1.5431 0.320358 0
M  V30 3865 C 363.364 1.7638 1.07582 0
M  V30 3866 C 363.772 0.513944 1.82086 0
M  V30 3867 O 363.115 -0.525123 1.76035 0
M  V30 3868 C 363.177 2.9055 2.1171 0
M  V30 3869 C 362.841 4.2934 1.56575 0
M  V30 3870 C 363.838 5.10077 1.00586 0
M  V30 3871 C 361.523 4.75893 1.60722 0
M  V30 3872 C 363.517 6.35477 0.494756 0
M  V30 3873 C 361.204 6.0126 1.09224 0
M  V30 3874 C 362.202 6.80886 0.53696 0
M  V30 3875 O 361.89 8.03894 0.0297371 0
M  V30 3876 H 361.622 0.592369 0.325692 0
M  V30 3877 H 364.176 2.02019 0.37116 0
M  V30 3878 H 362.406 2.60489 2.85801 0
M  V30 3879 H 364.095 3.00373 2.73003 0
M  V30 3880 H 364.861 4.75265 0.966869 0
M  V30 3881 H 360.74 4.13957 2.02882 0
M  V30 3882 H 364.284 6.97574 0.0606842 0
M  V30 3883 H 360.181 6.35562 1.12831 0
M  V30 3884 H 360.949 8.18372 0.14486 0
M  V30 3885 N 363.613 -0.582584 1.46437 0
M  V30 3886 C 364.563 -1.68654 1.53426 0
M  V30 3887 C 365.547 -1.55971 0.395194 0
M  V30 3888 O 366.739 -1.64884 0.643612 0
M  V30 3889 C 363.868 -3.07439 1.52762 0
M  V30 3890 C 362.954 -3.25418 2.71963 0
M  V30 3891 N 363.345 -3.13556 3.96883 0
M  V30 3892 C 361.643 -3.56357 2.68189 0
M  V30 3893 C 362.344 -3.33543 4.76575 0
M  V30 3894 N 361.32 -3.58704 4.08451 0
M  V30 3895 H 365.122 -1.58014 2.47808 0
M  V30 3896 H 362.636 -0.786617 1.42078 0
M  V30 3897 H 364.633 -3.86671 1.55857 0
M  V30 3898 H 363.293 -3.1921 0.594573 0
M  V30 3899 H 364.304 -2.9142 4.28129 0
M  V30 3900 H 360.981 -3.74812 1.83908 0
M  V30 3901 H 362.371 -3.29555 5.85528 0
M  V30 3902 N 365.091 -1.34144 -0.827227 0
M  V30 3903 C 366.316 -1.29476 -1.62021 0
M  V30 3904 C 366.741 0.129292 -1.87655 0
M  V30 3905 O 366.099 1.08967 -1.449 0
M  V30 3906 C 366.147 -2.08702 -2.94068 0
M  V30 3907 O 365.251 -1.45359 -3.85933 0
M  V30 3908 H 364.592 -0.444881 -0.492927 0
M  V30 3909 H 367.122 -1.76882 -1.02829 0
M  V30 3910 H 367.132 -2.19898 -3.43669 0
M  V30 3911 H 365.807 -3.12241 -2.74734 0
M  V30 3912 H 364.384 -1.42879 -3.44442 0
M  V30 3913 N 366.569 1.04691 -1.17803 0
M  V30 3914 C 367.797 1.81446 -0.99423 0
M  V30 3915 C 368.212 1.83174 0.457459 0
M  V30 3916 O 367.569 1.26265 1.31771 0
M  V30 3917 C 367.62 3.27334 -1.5341 0
M  V30 3918 O 367.341 3.25798 -2.92895 0
M  V30 3919 C 368.842 4.20759 -1.39559 0
M  V30 3920 H 366.062 0.571599 -0.351447 0
M  V30 3921 H 368.606 1.31982 -1.56208 0
M  V30 3922 H 366.761 3.74052 -1.00815 0
M  V30 3923 H 367.175 4.17144 -3.17949 0
M  V30 3924 H 368.649 5.21084 -1.82141 0
M  V30 3925 H 369.126 4.37856 -0.343394 0
M  V30 3926 H 369.732 3.79901 -1.91195 0
M  V30 3927 N 368.047 0.979072 1.23499 0
M  V30 3928 C 369.275 0.665202 1.95915 0
M  V30 3929 C 369.69 -0.767571 1.72493 0
M  V30 3930 O 369.047 -1.51635 1.01554 0
M  V30 3931 C 369.098 0.944438 3.48945 0
M  V30 3932 O 368.819 2.3209 3.71572 0
M  V30 3933 C 370.32 0.646336 4.38563 0
M  V30 3934 H 367.54 0.247218 0.623798 0
M  V30 3935 H 370.084 1.31009 1.57025 0
M  V30 3936 H 368.239 0.345575 3.85856 0
M  V30 3937 H 368.653 2.40957 4.65876 0
M  V30 3938 H 370.127 0.892091 5.44744 0
M  V30 3939 H 370.604 -0.419575 4.37191 0
M  V30 3940 H 371.21 1.22562 4.07258 0
M  V30 3941 N 369.525 -1.3858 0.750561 0
M  V30 3942 C 370.435 -2.34278 0.122825 0
M  V30 3943 C 371.451 -1.59116 -0.704131 0
M  V30 3944 O 372.627 -1.91326 -0.628987 0
M  V30 3945 C 369.692 -3.38221 -0.762086 0
M  V30 3946 C 368.753 -4.29227 0.078896 0
M  V30 3947 C 367.986 -5.28205 -0.763874 0
M  V30 3948 O 368.209 -5.34112 -2.00201 0
M  V30 3949 O 367.143 -6.01618 -0.18428 0
M  V30 3950 H 370.969 -2.89649 0.913088 0
M  V30 3951 H 368.554 -1.40374 0.511417 0
M  V30 3952 H 370.436 -4.01872 -1.26793 0
M  V30 3953 H 369.111 -2.85211 -1.5309 0
M  V30 3954 H 368.018 -3.68747 0.630621 0
M  V30 3955 H 369.351 -4.85484 0.810289 0
M  V30 3956 N 371.003 -0.499398 -1.49478 0
M  V30 3957 C 371.935 0.316575 -2.27003 0
M  V30 3958 C 372.948 0.932047 -1.33479 0
M  V30 3959 O 374.137 0.815658 -1.58774 0
M  V30 3960 C 371.237 1.46055 -3.05812 0
M  V30 3961 C 370.41 0.952679 -4.26899 0
M  V30 3962 C 369.469 1.97407 -4.87767 0
M  V30 3963 O 368.495 1.54326 -5.4788 0
M  V30 3964 N 369.697 3.30436 -4.77276 0
M  V30 3965 H 372.462 -0.348168 -2.97671 0
M  V30 3966 H 370.023 -0.33185 -1.58463 0
M  V30 3967 H 372.015 2.14135 -3.43407 0
M  V30 3968 H 370.585 2.02948 -2.37762 0
M  V30 3969 H 369.805 0.0968248 -3.94081 0
M  V30 3970 H 371.093 0.59174 -5.05347 0
M  V30 3971 H 370.491 3.68126 -4.29534 0
M  V30 3972 H 369.048 3.94235 -5.19059 0
M  V30 3973 N 372.481 1.55866 -0.233164 0
M  V30 3974 C 373.444 2.1953 0.658715 0
M  V30 3975 C 374.444 1.16053 1.11303 0
M  V30 3976 O 375.634 1.41218 1.01996 0
M  V30 3977 C 372.766 2.82791 1.90373 0
M  V30 3978 H 373.959 2.99721 0.10347 0
M  V30 3979 H 371.512 1.56291 0.0164245 0
M  V30 3980 H 372.247 2.06501 2.50056 0
M  V30 3981 H 372.032 3.58578 1.58632 0
M  V30 3982 H 373.522 3.31556 2.53891 0
M  V30 3983 N 373.959 -0.0401083 1.57549 0
M  V30 3984 C 374.922 -1.02871 2.04817 0
M  V30 3985 C 375.922 -1.29708 0.950388 0
M  V30 3986 O 377.112 -1.24897 1.21435 0
M  V30 3987 C 374.244 -2.36443 2.45576 0
M  V30 3988 H 375.437 -0.620631 2.93408 0
M  V30 3989 H 372.99 -0.286667 1.53649 0
M  V30 3990 H 373.725 -2.82021 1.60108 0
M  V30 3991 H 373.51 -2.18296 3.25713 0
M  V30 3992 H 375 -3.07441 2.82612 0
M  V30 3993 N 375.437 -1.54477 -0.31217 0
M  V30 3994 C 376.683 -1.73483 -1.0503 0
M  V30 3995 C 377.016 -0.513125 -1.87298 0
M  V30 3996 O 376.291 0.489864 -1.8823 0
M  V30 3997 C 376.574 -3.01723 -1.96558 0
M  V30 3998 C 376.427 -4.3417 -1.17545 0
M  V30 3999 C 377.746 -3.25772 -2.95907 0
M  V30 4000 H 374.865 -0.631222 -0.380432 0
M  V30 4001 H 377.507 -1.87184 -0.325932 0
M  V30 4002 H 375.657 -2.90174 -2.58324 0
M  V30 4003 H 377.329 -4.5762 -0.581513 0
M  V30 4004 H 375.572 -4.31159 -0.477925 0
M  V30 4005 H 376.243 -5.20143 -1.84811 0
M  V30 4006 H 378.719 -3.36857 -2.44267 0
M  V30 4007 H 377.595 -4.16838 -3.57123 0
M  V30 4008 H 377.856 -2.43537 -3.68974 0
M  V30 4009 N 376.915 0.57481 -1.46744 0
M  V30 4010 C 378.143 1.35856 -1.56047 0
M  V30 4011 C 378.558 1.87691 -0.204365 0
M  V30 4012 O 377.915 1.64049 0.79963 0
M  V30 4013 C 377.966 2.54066 -2.57163 0
M  V30 4014 O 377.687 2.04377 -3.87507 0
M  V30 4015 C 379.188 3.46514 -2.76483 0
M  V30 4016 H 376.408 0.414754 -0.527466 0
M  V30 4017 H 378.952 0.698035 -1.92218 0
M  V30 4018 H 377.107 3.16092 -2.23974 0
M  V30 4019 H 377.521 2.81419 -4.4261 0
M  V30 4020 H 378.995 4.25919 -3.51137 0
M  V30 4021 H 379.472 3.98951 -1.83671 0
M  V30 4022 H 380.078 2.90318 -3.10799 0
M  V30 4023 N 378.394 1.34581 0.820102 0
M  V30 4024 C 379.357 1.2628 1.91275 0
M  V30 4025 C 380.357 0.177344 1.59819 0
M  V30 4026 O 381.547 0.430156 1.68806 0
M  V30 4027 C 378.679 0.950327 3.27386 0
M  V30 4028 H 379.872 2.23421 2.00057 0
M  V30 4029 H 377.425 1.1891 1.0144 0
M  V30 4030 H 378.16 -0.0177938 3.24295 0
M  V30 4031 H 377.945 1.73549 3.51601 0
M  V30 4032 H 379.435 0.917492 4.07396 0
M  V30 4033 N 379.872 -1.04064 1.18357 0
M  V30 4034 C 380.819 -2.12077 0.910603 0
M  V30 4035 C 381.789 -1.65421 -0.15 0
M  V30 4036 O 382.974 -1.90797 -0.0103614 0
M  V30 4037 C 380.114 -3.42252 0.442472 0
M  V30 4038 C 379.227 -4.0252 1.5685 0
M  V30 4039 C 378.362 -5.20657 1.05309 0
M  V30 4040 C 377.401 -5.72955 2.1538 0
M  V30 4041 N 376.538 -6.8238 1.65233 0
M  V30 4042 H 381.378 -2.34764 1.83548 0
M  V30 4043 H 378.915 -1.15157 0.915279 0
M  V30 4044 H 380.873 -4.16921 0.152534 0
M  V30 4045 H 379.503 -3.19712 -0.445428 0
M  V30 4046 H 378.555 -3.25178 1.97391 0
M  V30 4047 H 379.867 -4.37362 2.39824 0
M  V30 4048 H 379.021 -6.0244 0.717677 0
M  V30 4049 H 377.76 -4.87318 0.19293 0
M  V30 4050 H 376.765 -4.89793 2.49766 0
M  V30 4051 H 377.99 -6.08337 3.01832 0
M  V30 4052 H 375.936 -6.50917 0.815064 0
M  V30 4053 H 375.853 -7.16286 2.41805 0
M  V30 4054 H 377.121 -7.67788 1.34619 0
M  V30 4055 N 381.35 -0.985608 -1.22978 0
M  V30 4056 C 382.26 -0.538548 -2.28335 0
M  V30 4057 C 383.276 0.409163 -1.69121 0
M  V30 4058 O 384.452 0.277797 -1.99475 0
M  V30 4059 C 381.517 0.146867 -3.46389 0
M  V30 4060 C 380.578 -0.842896 -4.20944 0
M  V30 4061 C 379.811 -0.190095 -5.33361 0
M  V30 4062 O 380.034 1.01767 -5.61248 0
M  V30 4063 O 378.968 -0.891289 -5.95264 0
M  V30 4064 H 382.794 -1.41487 -2.68729 0
M  V30 4065 H 380.379 -0.753495 -1.29007 0
M  V30 4066 H 382.261 0.531125 -4.1804 0
M  V30 4067 H 380.936 0.997871 -3.07935 0
M  V30 4068 H 379.843 -1.27795 -3.51595 0
M  V30 4069 H 381.176 -1.66287 -4.6326 0
M  V30 4070 N 382.828 1.3818 -0.7579 0
M  V30 4071 C 383.791 2.28764 -0.141286 0
M  V30 4072 C 384.791 1.47388 0.642907 0
M  V30 4073 O 385.981 1.67781 0.468536 0
M  V30 4074 C 383.113 3.31184 0.808069 0
M  V30 4075 H 384.306 2.848 -0.939633 0
M  V30 4076 H 381.859 1.47212 -0.525191 0
M  V30 4077 H 382.594 2.80247 1.63193 0
M  V30 4078 H 382.379 3.91314 0.248104 0
M  V30 4079 H 383.869 3.98909 1.23536 0
M  V30 4080 N 384.306 0.507319 1.49211 0
M  V30 4081 C 385.722 0.163682 1.58758 0
M  V30 4082 C 385.922 -1.33208 1.51188 0
M  V30 4083 O 384.978 -2.10855 1.38911 0
M  V30 4084 C 386.291 0.746095 2.91297 0
M  V30 4085 C 387.839 0.712773 3.04776 0
M  V30 4086 C 388.314 1.27336 4.39943 0
M  V30 4087 N 389.805 1.23433 4.46451 0
M  V30 4088 C 390.54 1.63821 5.495 0
M  V30 4089 N 390.036 2.11832 6.5962 0
M  V30 4090 N 391.829 1.55198 5.4025 0
M  V30 4091 H 383.98 1.47972 1.52375 0
M  V30 4092 H 386.243 0.614147 0.722168 0
M  V30 4093 H 385.949 1.79534 3.02424 0
M  V30 4094 H 385.823 0.210137 3.76614 0
M  V30 4095 H 388.21 -0.327656 2.93275 0
M  V30 4096 H 388.291 1.28595 2.21127 0
M  V30 4097 H 387.935 2.3126 4.52196 0
M  V30 4098 H 387.865 0.676066 5.22242 0
M  V30 4099 H 390.356 0.882627 3.67448 0
M  V30 4100 H 390.669 2.40703 7.34358 0
M  V30 4101 H 389.014 2.1581 6.60644 0
M  V30 4102 H 392.205 1.17505 4.53112 0
M  V30 4103 H 392.378 1.86997 6.20432 0
M  V30 4104 N 385.784 -1.5574 0.241426 0
M  V30 4105 C 386.747 -2.19877 -0.647063 0
M  V30 4106 C 387.747 -1.16642 -1.10686 0
M  V30 4107 O 388.937 -1.41757 -1.01245 0
M  V30 4108 C 386.069 -2.83797 -1.88871 0
M  V30 4109 H 387.262 -2.99772 -0.087574 0
M  V30 4110 H 384.815 -1.56298 -0.00813574 0
M  V30 4111 H 385.55 -2.07824 -2.48957 0
M  V30 4112 H 385.335 -3.59414 -1.56728 0
M  V30 4113 H 386.825 -3.32898 -2.52129 0
M  V30 4114 N 387.262 0.0317525 -1.57568 0
M  V30 4115 C 388.209 1.0332 -2.06382 0
M  V30 4116 C 389.179 1.36082 -0.952414 0
M  V30 4117 O 390.364 1.46466 -1.2228 0
M  V30 4118 C 387.504 2.32989 -2.54578 0
M  V30 4119 C 386.617 2.0641 -3.79498 0
M  V30 4120 C 385.752 3.2993 -4.16317 0
M  V30 4121 C 384.791 2.98893 -5.34162 0
M  V30 4122 N 383.928 4.14857 -5.66426 0
M  V30 4123 H 388.768 0.609982 -2.9169 0
M  V30 4124 H 386.305 0.289573 -1.44222 0
M  V30 4125 H 388.263 3.0875 -2.80587 0
M  V30 4126 H 386.893 2.73039 -1.7219 0
M  V30 4127 H 385.945 1.21158 -3.6059 0
M  V30 4128 H 387.257 1.79513 -4.65378 0
M  V30 4129 H 386.411 4.1406 -4.4344 0
M  V30 4130 H 385.15 3.59938 -3.29083 0
M  V30 4131 H 384.155 2.13164 -5.06795 0
M  V30 4132 H 385.38 2.70165 -6.23047 0
M  V30 4133 H 383.326 4.44821 -4.82151 0
M  V30 4134 H 383.243 3.91374 -6.4681 0
M  V30 4135 H 384.511 4.99868 -5.98124 0
M  V30 4136 N 388.74 1.54641 0.303973 0
M  V30 4137 C 389.672 1.81754 1.39636 0
M  V30 4138 C 390.685 0.70035 1.46966 0
M  V30 4139 O 391.874 0.97778 1.49338 0
M  V30 4140 C 388.974 1.93785 2.7803 0
M  V30 4141 C 388.147 3.24156 2.93669 0
M  V30 4142 C 387.206 3.26641 4.12544 0
M  V30 4143 O 386.232 4.00187 4.04771 0
M  V30 4144 N 387.434 2.5182 5.23036 0
M  V30 4145 H 390.199 2.76031 1.16734 0
M  V30 4146 H 387.76 1.54178 0.494033 0
M  V30 4147 H 389.752 1.92852 3.55795 0
M  V30 4148 H 388.322 1.06515 2.93893 0
M  V30 4149 H 387.542 3.37887 2.03042 0
M  V30 4150 H 388.83 4.10195 3.01027 0
M  V30 4151 H 388.228 1.91692 5.32232 0
M  V30 4152 H 386.785 2.56644 5.99147 0
M  V30 4153 N 390.218 -0.567019 1.47046 0
M  V30 4154 C 391.148 -1.68482 1.61667 0
M  V30 4155 C 392.129 -1.6358 0.466418 0
M  V30 4156 O 393.314 -1.81354 0.694574 0
M  V30 4157 C 390.444 -3.07124 1.62148 0
M  V30 4158 C 389.398 -3.26867 2.76301 0
M  V30 4159 C 388.724 -4.66196 2.61849 0
M  V30 4160 C 390.024 -3.13186 4.17986 0
M  V30 4161 H 391.718 -1.56502 2.5524 0
M  V30 4162 H 389.264 -0.751486 1.22836 0
M  V30 4163 H 391.217 -3.8516 1.70968 0
M  V30 4164 H 389.941 -3.2004 0.651287 0
M  V30 4165 H 388.6 -2.51237 2.66975 0
M  V30 4166 H 388.248 -4.75898 1.62879 0
M  V30 4167 H 387.948 -4.80356 3.38425 0
M  V30 4168 H 389.472 -5.46379 2.72584 0
M  V30 4169 H 390.886 -3.81049 4.2834 0
M  V30 4170 H 389.283 -3.3886 4.95272 0
M  V30 4171 H 390.353 -2.10057 4.3704 0
M  V30 4172 N 391.696 -1.35014 -0.812953 0
M  V30 4173 C 392.945 -1.27269 -1.56479 0
M  V30 4174 C 393.258 0.152771 -1.95002 0
M  V30 4175 O 394.464 0.352451 -2.69203 0
M  V30 4176 C 392.92 -2.23159 -2.82362 0
M  V30 4177 C 392.528 -3.71016 -2.511 0
M  V30 4178 C 394.272 -2.24342 -3.60376 0
M  V30 4179 C 392.179 -4.58746 -3.73237 0
M  V30 4180 H 391.109 -0.472829 -0.587324 0
M  V30 4181 H 393.76 -1.6024 -0.894171 0
M  V30 4182 H 392.142 -1.83151 -3.51101 0
M  V30 4183 H 393.316 -4.1962 -1.90409 0
M  V30 4184 H 391.631 -3.72378 -1.86343 0
M  V30 4185 H 394.228 -2.87107 -4.51081 0
M  V30 4186 H 394.571 -1.24542 -3.97234 0
M  V30 4187 H 395.104 -2.62846 -2.98591 0
M  V30 4188 H 391.843 -5.59521 -3.41492 0
M  V30 4189 H 391.363 -4.14871 -4.33176 0
M  V30 4190 H 393.042 -4.73852 -4.40537 0
M  V30 4191 N 393.175 1.03435 -1.18907 0
M  V30 4192 C 394.105 2.13503 -0.945448 0
M  V30 4193 C 395.086 1.69682 0.119189 0
M  V30 4194 O 396.271 1.94169 -0.034707 0
M  V30 4195 C 393.401 3.44004 -0.477316 0
M  V30 4196 C 392.355 4.0148 -1.48316 0
M  V30 4197 C 391.681 5.27537 -0.872311 0
M  V30 4198 C 392.981 4.36921 -2.86177 0
M  V30 4199 H 394.675 2.34141 -1.86597 0
M  V30 4200 H 392.221 1.12523 -0.898584 0
M  V30 4201 H 394.174 4.20372 -0.294204 0
M  V30 4202 H 392.898 3.23072 0.478786 0
M  V30 4203 H 391.557 3.27201 -1.65332 0
M  V30 4204 H 391.205 5.02917 0.0911752 0
M  V30 4205 H 390.905 5.66954 -1.54393 0
M  V30 4206 H 392.429 6.06576 -0.699871 0
M  V30 4207 H 393.843 5.04248 -2.72776 0
M  V30 4208 H 392.24 4.87405 -3.50081 0
M  V30 4209 H 393.31 3.46466 -3.39248 0
M  V30 4210 N 394.653 0.992116 1.22453 0
M  V30 4211 C 395.881 0.685944 1.95198 0
M  V30 4212 C 396.296 -0.749233 1.73297 0
M  V30 4213 O 395.653 -1.50549 1.03156 0
M  V30 4214 C 395.704 0.981395 3.47924 0
M  V30 4215 O 395.425 2.36018 3.6909 0
M  V30 4216 C 396.926 0.692815 4.37853 0
M  V30 4217 H 394.146 0.253821 0.621141 0
M  V30 4218 H 396.69 1.32668 1.55626 0
M  V30 4219 H 394.845 0.386481 3.85467 0
M  V30 4220 H 395.259 2.45884 4.63294 0
M  V30 4221 H 396.733 0.949818 5.43767 0
M  V30 4222 H 397.21 -0.373181 4.37612 0
M  V30 4223 H 397.816 1.26874 4.05935 0
M  V30 4224 N 396.131 -1.37776 0.765217 0
M  V30 4225 C 397.081 -2.2768 0.12075 0
M  V30 4226 C 398.065 -1.45778 -0.680988 0
M  V30 4227 O 399.257 -1.684 -0.545033 0
M  V30 4228 C 396.386 -3.34722 -0.762626 0
M  V30 4229 C 395.472 -4.24074 0.0465881 0
M  V30 4230 N 395.863 -4.93939 1.08892 0
M  V30 4231 C 394.161 -4.45643 -0.178418 0
M  V30 4232 C 394.862 -5.59845 1.57951 0
M  V30 4233 N 393.838 -5.36218 0.892797 0
M  V30 4234 H 397.64 -2.79166 0.918889 0
M  V30 4235 H 395.154 -1.50816 0.602353 0
M  V30 4236 H 397.151 -3.98031 -1.24005 0
M  V30 4237 H 395.811 -2.84793 -1.55959 0
M  V30 4238 H 396.822 -4.96572 1.47095 0
M  V30 4239 H 393.499 -4.06599 -0.9478 0
M  V30 4240 H 394.889 -6.25703 2.44838 0
M  V30 4241 N 397.609 -0.515225 -1.4894 0
M  V30 4242 C 398.858 0.0261361 -2.01683 0
M  V30 4243 C 399.171 1.36719 -1.39883 0
M  V30 4244 O 400.377 1.99606 -1.84037 0
M  V30 4245 C 398.833 0.0970111 -3.59769 0
M  V30 4246 C 398.441 -1.23825 -4.30548 0
M  V30 4247 C 400.185 0.587981 -4.20408 0
M  V30 4248 C 398.092 -1.12877 -5.80528 0
M  V30 4249 H 397.022 0.0135398 -0.753878 0
M  V30 4250 H 399.673 -0.656787 -1.71343 0
M  V30 4251 H 398.055 0.844694 -3.86886 0
M  V30 4252 H 399.229 -2.00034 -4.15118 0
M  V30 4253 H 397.544 -1.66379 -3.81716 0
M  V30 4254 H 400.141 0.68763 -5.3026 0
M  V30 4255 H 400.484 1.59026 -3.84729 0
M  V30 4256 H 401.017 -0.103582 -3.97665 0
M  V30 4257 H 397.756 -2.10575 -6.20756 0
M  V30 4258 H 397.276 -0.407799 -5.98412 0
M  V30 4259 H 398.955 -0.813332 -6.41868 0
M  V30 4260 N 399.087 1.5561 -0.249682 0
M  V30 4261 C 400.312 2.03865 0.381305 0
M  V30 4262 C 400.737 1.12769 1.50548 0
M  V30 4263 O 400.095 0.121189 1.80895 0
M  V30 4264 C 400.143 3.50101 0.863816 0
M  V30 4265 O 399.247 3.62132 1.97318 0
M  V30 4266 H 398.588 0.658827 0.0827194 0
M  V30 4267 H 401.118 2.01105 -0.376552 0
M  V30 4268 H 401.128 3.90975 1.1663 0
M  V30 4269 H 399.803 4.1588 0.0411816 0
M  V30 4270 H 398.38 3.33155 1.67517 0
M  V30 4271 N 400.565 -0.0233959 1.57583 0
M  V30 4272 C 401.528 -1.00693 2.05897 0
M  V30 4273 C 402.528 -1.28693 0.964092 0
M  V30 4274 O 403.718 -1.23602 1.22753 0
M  V30 4275 C 400.85 -2.33825 2.4807 0
M  V30 4276 H 402.043 -0.589476 2.9405 0
M  V30 4277 H 399.596 -0.270354 1.53944 0
M  V30 4278 H 400.331 -2.80307 1.6309 0
M  V30 4279 H 400.116 -2.1483 3.2801 0
M  V30 4280 H 401.606 -3.04426 2.85857 0
M  V30 4281 N 402.043 -1.548 -0.295768 0
M  V30 4282 C 403.459 -1.4613 -0.641722 0
M  V30 4283 C 403.659 -0.656771 -1.90496 0
M  V30 4284 O 402.715 -0.166547 -2.5195 0
M  V30 4285 C 404.028 -2.90141 -0.789852 0
M  V30 4286 C 405.576 -3.00216 -0.885396 0
M  V30 4287 C 406.051 -4.45434 -1.06548 0
M  V30 4288 N 407.542 -4.49166 -1.13156 0
M  V30 4289 C 408.277 -5.58717 -1.28929 0
M  V30 4290 N 407.773 -6.78182 -1.41567 0
M  V30 4291 N 409.566 -5.46415 -1.31859 0
M  V30 4292 H 401.717 -2.05574 0.534147 0
M  V30 4293 H 403.98 -0.931259 0.177372 0
M  V30 4294 H 403.686 -3.51635 0.0675598 0
M  V30 4295 H 403.56 -3.37859 -1.67724 0
M  V30 4296 H 405.947 -2.38833 -1.73329 0
M  V30 4297 H 406.028 -2.55787 0.0261185 0
M  V30 4298 H 405.672 -5.07413 -0.222335 0
M  V30 4299 H 405.602 -4.87499 -1.9913 0
M  V30 4300 H 408.093 -3.631 -1.04721 0
M  V30 4301 H 408.406 -7.57428 -1.53372 0
M  V30 4302 H 406.751 -6.81037 -1.38613 0
M  V30 4303 H 409.942 -4.5203 -1.21601 0
M  V30 4304 H 410.115 -6.31841 -1.43808 0
M  V30 4305 N 403.521 0.559213 -1.47345 0
M  V30 4306 C 404.751 1.33999 -1.57251 0
M  V30 4307 C 405.159 1.87905 -0.220978 0
M  V30 4308 O 404.502 1.65577 0.795617 0
M  V30 4309 C 404.564 2.54798 -2.53611 0
M  V30 4310 C 404.228 2.22192 -3.99349 0
M  V30 4311 C 405.225 1.79607 -4.87891 0
M  V30 4312 C 402.91 2.33613 -4.44669 0
M  V30 4313 C 404.904 1.48868 -6.19772 0
M  V30 4314 C 402.591 2.02487 -5.76578 0
M  V30 4315 C 403.589 1.60183 -6.63951 0
M  V30 4316 O 403.277 1.29451 -7.93409 0
M  V30 4317 H 403.009 0.414858 -0.533731 0
M  V30 4318 H 405.563 0.684465 -1.9366 0
M  V30 4319 H 403.793 3.23235 -2.12265 0
M  V30 4320 H 405.482 3.16873 -2.53666 0
M  V30 4321 H 406.248 1.70278 -4.54126 0
M  V30 4322 H 402.127 2.65501 -3.76869 0
M  V30 4323 H 405.671 1.15775 -6.87926 0
M  V30 4324 H 401.568 2.11448 -6.09885 0
M  V30 4325 H 402.336 1.43098 -8.05894 0
M  V30 4326 N 404.999 1.35443 0.805782 0
M  V30 4327 C 405.931 1.24285 1.92577 0
M  V30 4328 C 406.944 0.165962 1.61952 0
M  V30 4329 O 408.133 0.419303 1.73505 0
M  V30 4330 C 405.233 0.891272 3.2697 0
M  V30 4331 C 404.406 2.06669 3.85495 0
M  V30 4332 C 403.465 1.69077 4.98297 0
M  V30 4333 O 402.491 2.4096 5.15681 0
M  V30 4334 N 403.693 0.614869 5.77234 0
M  V30 4335 H 406.458 2.20777 2.02676 0
M  V30 4336 H 404.019 1.28623 0.983243 0
M  V30 4337 H 406.011 0.621256 3.99903 0
M  V30 4338 H 404.581 0.016004 3.12596 0
M  V30 4339 H 403.801 2.50046 3.04747 0
M  V30 4340 H 405.089 2.85237 4.21328 0
M  V30 4341 H 404.487 0.017648 5.65697 0
M  V30 4342 H 403.044 0.404636 6.50543 0
M  V30 4343 N 406.477 -1.02803 1.19454 0
M  V30 4344 C 407.725 -1.75869 0.995722 0
M  V30 4345 C 408.046 -1.89138 -0.474543 0
M  V30 4346 O 407.316 -1.42558 -1.34366 0
M  V30 4347 H 405.896 -0.651511 0.365435 0
M  V30 4348 H 408.558 -1.24004 1.50363 0
M  V30 4349 H 407.654 -2.76661 1.44447 0
M  V30 4350 N 407.956 -0.998596 -1.21925 0
M  V30 4351 C 409.233 -0.593401 -1.86382 0
M  V30 4352 C 409.613 0.92916 -1.89552 0
M  V30 4353 O 408.961 1.81347 -1.39017 0
M  V30 4354 C 409.171 -1.22039 -3.26967 0
M  V30 4355 C 410.519 -1.32449 -4.03413 0
M  V30 4356 O 411.543 -1.17522 -3.36254 0
M  V30 4357 O 410.402 -1.56395 -5.23644 0
M  V30 4358 H 407.496 -0.202385 -0.801854 0
M  V30 4359 H 410.042 -1.09484 -1.29659 0
M  V30 4360 H 408.814 -2.26158 -3.19325 0
M  V30 4361 H 408.437 -0.704906 -3.91301 0
M  V30 4362 N 409.434 1.37368 -0.772513 0
M  V30 4363 C 410.397 2.28601 -0.165541 0
M  V30 4364 C 411.397 1.48062 0.627238 0
M  V30 4365 O 412.587 1.68268 0.450715 0
M  V30 4366 C 409.719 3.32023 0.772897 0
M  V30 4367 H 410.912 2.83787 -0.969787 0
M  V30 4368 H 408.465 1.46647 -0.540775 0
M  V30 4369 H 409.2 2.81962 1.60212 0
M  V30 4370 H 408.985 3.91555 0.206585 0
M  V30 4371 H 410.475 4.00197 1.19298 0
M  V30 4372 N 410.912 0.523116 1.48665 0
M  V30 4373 C 412.137 -0.0117284 2.07397 0
M  V30 4374 C 412.562 -1.28031 1.37803 0
M  V30 4375 O 411.92 -1.75836 0.441762 0
M  V30 4376 C 411.968 -0.225786 3.59892 0
M  V30 4377 O 411.072 -1.29592 3.91509 0
M  V30 4378 H 410.413 0.0360673 0.66302 0
M  V30 4379 H 412.943 0.729066 1.9117 0
M  V30 4380 H 412.953 -0.450552 4.05505 0
M  V30 4381 H 411.628 0.700944 4.09951 0
M  V30 4382 H 410.205 -1.05436 3.57684 0
M  V30 4383 N 412.39 -1.55475 0.257931 0
M  V30 4384 C 413.32 -2.24815 -0.630912 0
M  V30 4385 C 414.301 -1.23224 -1.17259 0
M  V30 4386 O 415.486 -1.51904 -1.20991 0
M  V30 4387 C 412.616 -2.95609 -1.82298 0
M  V30 4388 C 411.57 -4.03982 -1.41359 0
M  V30 4389 C 410.896 -4.6226 -2.68738 0
M  V30 4390 C 412.196 -5.19109 -0.57648 0
M  V30 4391 H 413.89 -2.99354 -0.0526878 0
M  V30 4392 H 411.436 -1.4398 -0.023901 0
M  V30 4393 H 413.389 -3.42822 -2.45054 0
M  V30 4394 H 412.113 -2.18577 -2.42676 0
M  V30 4395 H 410.772 -3.57555 -0.809324 0
M  V30 4396 H 410.42 -3.81915 -3.27338 0
M  V30 4397 H 410.12 -5.35424 -2.42065 0
M  V30 4398 H 411.644 -5.12212 -3.32372 0
M  V30 4399 H 413.058 -5.62479 -1.10861 0
M  V30 4400 H 411.455 -5.98729 -0.405351 0
M  V30 4401 H 412.525 -4.83174 0.408776 0
M  V30 4402 N 413.868 0.0150385 -1.57593 0
M  V30 4403 C 414.778 1.02791 -2.10882 0
M  V30 4404 C 415.794 1.38702 -1.0506 0
M  V30 4405 O 416.97 1.47739 -1.36877 0
M  V30 4406 C 414.035 2.30568 -2.58919 0
M  V30 4407 C 413.096 2.01108 -3.79281 0
M  V30 4408 C 412.329 3.22794 -4.25018 0
M  V30 4409 O 412.552 4.33959 -3.70183 0
M  V30 4410 O 411.486 3.07672 -5.17322 0
M  V30 4411 H 415.312 0.604973 -2.97613 0
M  V30 4412 H 412.897 0.23292 -1.47573 0
M  V30 4413 H 414.779 3.05662 -2.90084 0
M  V30 4414 H 413.454 2.72129 -1.75293 0
M  V30 4415 H 412.361 1.23537 -3.53114 0
M  V30 4416 H 413.694 1.64394 -4.63935 0
M  V30 4417 N 415.346 1.54954 0.287554 0
M  V30 4418 C 416.276 1.89839 1.35954 0
M  V30 4419 C 417.257 0.758675 1.52244 0
M  V30 4420 O 418.442 1.01557 1.65529 0
M  V30 4421 C 415.572 2.15753 2.72154 0
M  V30 4422 C 414.526 3.3159 2.70614 0
M  V30 4423 C 413.852 3.42952 4.10229 0
M  V30 4424 C 415.152 4.68359 2.31165 0
M  V30 4425 H 416.846 2.79625 1.07007 0
M  V30 4426 H 414.392 1.3454 0.513316 0
M  V30 4427 H 416.345 2.38743 3.47246 0
M  V30 4428 H 415.069 1.22752 3.02654 0
M  V30 4429 H 413.728 3.08545 1.97979 0
M  V30 4430 H 413.376 2.47443 4.37928 0
M  V30 4431 H 413.076 4.20826 4.10097 0
M  V30 4432 H 414.6 3.68218 4.87081 0
M  V30 4433 H 416.014 4.9099 2.95976 0
M  V30 4434 H 414.411 5.49044 2.42221 0
M  V30 4435 H 415.481 4.68165 1.26291 0
M  V30 4436 N 416.824 -0.551391 1.4764 0
M  V30 4437 C 417.756 -1.67333 1.56628 0
M  V30 4438 C 418.769 -1.56398 0.452045 0
M  V30 4439 O 419.958 -1.6325 0.721926 0
M  V30 4440 C 417.058 -3.05841 1.45994 0
M  V30 4441 C 416.231 -3.42472 2.72088 0
M  V30 4442 C 415.29 -4.60168 2.55209 0
M  V30 4443 O 414.316 -4.64458 3.2904 0
M  V30 4444 N 415.518 -5.57024 1.63416 0
M  V30 4445 H 418.283 -1.60066 2.53375 0
M  V30 4446 H 415.844 -0.738169 1.44093 0
M  V30 4447 H 417.836 -3.8242 1.32428 0
M  V30 4448 H 416.406 -3.07302 0.573071 0
M  V30 4449 H 415.626 -2.55284 3.00373 0
M  V30 4450 H 416.914 -3.63723 3.55785 0
M  V30 4451 H 416.312 -5.56319 1.02594 0
M  V30 4452 H 414.869 -6.32906 1.558 0
M  V30 4453 N 418.302 -1.35869 -0.798587 0
M  V30 4454 C 419.249 -1.29446 -1.91082 0
M  V30 4455 C 420.219 -0.16487 -1.6528 0
M  V30 4456 O 421.404 -0.349888 -1.87564 0
M  V30 4457 C 418.544 -1.0804 -3.27752 0
M  V30 4458 C 417.657 -2.29993 -3.65687 0
M  V30 4459 C 416.792 -2.01673 -4.91428 0
M  V30 4460 C 415.831 -3.19636 -5.22015 0
M  V30 4461 N 414.968 -2.91039 -6.38937 0
M  V30 4462 H 419.808 -2.24553 -1.95907 0
M  V30 4463 H 417.345 -1.11615 -0.958148 0
M  V30 4464 H 419.303 -0.936586 -4.06551 0
M  V30 4465 H 417.933 -0.16592 -3.22373 0
M  V30 4466 H 416.985 -2.55211 -2.82085 0
M  V30 4467 H 418.297 -3.18052 -3.84245 0
M  V30 4468 H 417.451 -1.84168 -5.78072 0
M  V30 4469 H 416.19 -1.10911 -4.74921 0
M  V30 4470 H 415.195 -3.37709 -4.33858 0
M  V30 4471 H 416.42 -4.11211 -5.40447 0
M  V30 4472 H 414.366 -2.0288 -6.2384 0
M  V30 4473 H 414.283 -3.72635 -6.57784 0
M  V30 4474 H 415.551 -2.77093 -7.28587 0
M  V30 4475 N 419.78 1.02168 -1.19998 0
M  V30 4476 C 420.69 2.14069 -0.959774 0
M  V30 4477 C 421.706 1.73804 0.082655 0
M  V30 4478 O 422.882 2.01133 -0.103633 0
M  V30 4479 C 419.947 3.42936 -0.509459 0
M  V30 4480 C 419.008 3.97474 -1.62213 0
M  V30 4481 C 418.241 5.2019 -1.19321 0
M  V30 4482 O 418.464 5.70369 -0.0597726 0
M  V30 4483 O 417.398 5.67749 -1.99863 0
M  V30 4484 H 421.224 2.37199 -1.89658 0
M  V30 4485 H 418.809 1.12469 -0.983411 0
M  V30 4486 H 420.691 4.20551 -0.267322 0
M  V30 4487 H 419.366 3.21234 0.398821 0
M  V30 4488 H 418.273 3.21161 -1.9185 0
M  V30 4489 H 419.606 4.23555 -2.50723 0
M  V30 4490 N 421.258 1.00505 1.21394 0
M  V30 4491 C 422.221 0.570459 2.21987 0
M  V30 4492 C 423.221 -0.353211 1.56873 0
M  V30 4493 O 424.411 -0.14349 1.73608 0
M  V30 4494 C 421.543 -0.168555 3.40483 0
M  V30 4495 H 422.736 1.46021 2.6195 0
M  V30 4496 H 420.289 0.793565 1.34656 0
M  V30 4497 H 421.024 -1.07374 3.06009 0
M  V30 4498 H 420.809 0.494823 3.88965 0
M  V30 4499 H 422.299 -0.460362 4.15055 0
M  V30 4500 N 422.737 -1.36956 0.779787 0
M  V30 4501 C 423.983 -1.99787 0.348281 0
M  V30 4502 C 424.316 -1.61756 -1.07465 0
M  V30 4503 O 423.591 -0.867639 -1.74075 0
M  V30 4504 C 423.874 -3.56597 0.50104 0
M  V30 4505 C 423.727 -4.04513 1.96697 0
M  V30 4506 C 425.046 -4.40008 -0.0898097 0
M  V30 4507 H 422.165 -0.725796 0.128022 0
M  V30 4508 H 424.807 -1.62514 0.984331 0
M  V30 4509 H 422.957 -3.88479 -0.0404347 0
M  V30 4510 H 424.629 -3.83161 2.56876 0
M  V30 4511 H 422.872 -3.56408 2.47297 0
M  V30 4512 H 423.543 -5.1352 2.02486 0
M  V30 4513 H 426.019 -4.14431 0.372293 0
M  V30 4514 H 424.895 -5.4888 0.0471605 0
M  V30 4515 H 425.156 -4.26035 -1.18096 0
M  V30 4516 N 424.215 -0.530993 -1.48385 0
M  V30 4517 C 425.492 0.0671788 -1.95485 0
M  V30 4518 C 425.872 1.51191 -1.47324 0
M  V30 4519 O 425.22 2.17507 -0.700202 0
M  V30 4520 C 425.43 -0.0511206 -3.48963 0
M  V30 4521 C 426.778 0.107632 -4.24464 0
M  V30 4522 O 427.802 0.0226248 -3.56193 0
M  V30 4523 O 426.661 0.285972 -5.45751 0
M  V30 4524 H 423.755 0.0787365 -0.823243 0
M  V30 4525 H 426.301 -0.595662 -1.58902 0
M  V30 4526 H 425.073 -1.05747 -3.7674 0
M  V30 4527 H 424.696 0.650525 -3.92242 0
M  V30 4528 N 425.693 1.55336 -0.266172 0
M  V30 4529 C 426.939 1.99692 0.353681 0
M  V30 4530 C 427.272 1.1543 1.56172 0
M  V30 4531 O 426.547 0.222218 1.93226 0
M  V30 4532 C 426.83 3.52316 0.74466 0
M  V30 4533 C 426.683 4.47337 -0.470101 0
M  V30 4534 C 428.002 4.10588 1.58447 0
M  V30 4535 H 425.121 0.725961 0.12708 0
M  V30 4536 H 427.763 1.86336 -0.371333 0
M  V30 4537 H 425.913 3.63829 1.36239 0
M  V30 4538 H 427.585 4.4778 -1.10864 0
M  V30 4539 H 425.828 4.19364 -1.10978 0
M  V30 4540 H 426.499 5.51788 -0.15291 0
M  V30 4541 H 428.975 4.02297 1.06286 0
M  V30 4542 H 427.851 5.17607 1.82686 0
M  V30 4543 H 428.112 3.60253 2.56262 0
M  V30 4544 N 427.171 -0.0066808 1.57599 0
M  V30 4545 C 428.418 -0.69292 1.90276 0
M  V30 4546 C 428.746 -1.74148 0.866192 0
M  V30 4547 O 428.001 -1.95268 -0.129933 0
M  V30 4548 C 428.3 -1.37939 3.29708 0
M  V30 4549 C 427.966 -0.464679 4.48499 0
M  V30 4550 C 426.628 -0.212809 4.80729 0
M  V30 4551 C 428.98 0.16551 5.20937 0
M  V30 4552 C 426.308 0.677653 5.82773 0
M  V30 4553 C 428.66 1.04381 6.23929 0
M  V30 4554 C 427.324 1.30492 6.54621 0
M  V30 4555 H 426.594 -0.253558 0.696268 0
M  V30 4556 H 429.241 0.0474123 1.91441 0
M  V30 4557 H 427.546 -2.1936 3.24636 0
M  V30 4558 H 429.243 -1.9163 3.52249 0
M  V30 4559 H 425.833 -0.671153 4.23313 0
M  V30 4560 H 430.017 -0.0160756 4.96297 0
M  V30 4561 H 425.273 0.88803 6.04917 0
M  V30 4562 H 429.447 1.53851 6.79193 0
M  V30 4563 H 427.074 1.99662 7.33512 0
M  V30 4564 N 428.649 -1.55105 -0.279332 0
M  V30 4565 C 430.06 -1.66186 -0.850832 0
M  V30 4566 C 430.411 -0.584707 -1.87285 0
M  V30 4567 O 429.536 0.274919 -2.14647 0
M  V30 4568 C 430.131 -3.01264 -1.55001 0
M  V30 4569 C 428.69 -3.14394 -2.06963 0
M  V30 4570 C 427.837 -2.61959 -0.909536 0
M  V30 4571 H 430.788 -1.58602 -0.0558235 0
M  V30 4572 H 430.809 -2.93899 -2.41669 0
M  V30 4573 H 430.321 -3.7964 -0.805931 0
M  V30 4574 H 428.422 -2.4078 -2.84352 0
M  V30 4575 H 428.535 -4.20867 -2.28928 0
M  V30 4576 H 426.899 -2.18957 -1.30116 0
M  V30 4577 H 427.682 -3.42833 -0.179062 0
M  V30 4578 N 430.127 0.543554 -1.4793 0
M  V30 4579 C 431.075 1.67039 -1.61866 0
M  V30 4580 C 432.069 1.62294 -0.48549 0
M  V30 4581 O 433.275 1.67315 -0.66376 0
M  V30 4582 H 429.65 0.552954 -0.509652 0
M  V30 4583 H 431.621 1.52426 -2.56533 0
M  V30 4584 C 430.37 3.05357 -1.6629 0
M  V30 4585 H 429.693 3.09696 -2.5284 0
M  V30 4586 H 431.133 3.83855 -1.80088 0
M  V30 4587 C 429.592 3.34531 -0.398861 0
M  V30 4588 O 430.122 3.98649 0.494162 0
M  V30 4589 N 428.328 2.89299 -0.2747 0
M  V30 4590 H 427.875 2.37298 -1.00236 0
M  V30 4591 H 427.833 3.09188 0.570075 0
M  V30 4592 N 431.605 1.3629 0.791371 0
M  V30 4593 C 432.83 1.33726 1.58531 0
M  V30 4594 C 433.255 -0.0794933 1.87932 0
M  V30 4595 O 432.613 -1.05087 1.47738 0
M  V30 4596 C 432.661 2.16425 2.88431 0
M  V30 4597 O 431.765 1.5554 3.81944 0
M  V30 4598 H 431.106 0.457793 0.480959 0
M  V30 4599 H 433.636 1.79547 0.981031 0
M  V30 4600 H 433.646 2.28933 3.37718 0
M  V30 4601 H 432.321 3.19415 2.66359 0
M  V30 4602 H 430.898 1.51961 3.40532 0
M  V30 4603 N 433.083 -1.0153 1.20538 0
M  V30 4604 C 434.329 -1.75408 1.01783 0
M  V30 4605 C 434.662 -1.88943 -0.448814 0
M  V30 4606 O 433.937 -1.4162 -1.33319 0
M  V30 4607 C 434.22 -3.17255 1.70356 0
M  V30 4608 C 434.073 -3.11508 3.24473 0
M  V30 4609 C 435.392 -4.15955 1.43769 0
M  V30 4610 H 432.511 -0.636713 0.371167 0
M  V30 4611 H 435.153 -1.18436 1.4857 0
M  V30 4612 H 433.303 -3.65898 1.30578 0
M  V30 4613 H 434.975 -2.70658 3.73553 0
M  V30 4614 H 433.218 -2.4887 3.55311 0
M  V30 4615 H 433.889 -4.11784 3.67611 0
M  V30 4616 H 436.365 -3.75973 1.7828 0
M  V30 4617 H 435.241 -5.13368 1.94279 0
M  V30 4618 H 435.502 -4.40586 0.365564 0
M  V30 4619 N 434.561 -1.01147 -1.20859 0
M  V30 4620 C 435.524 -0.582224 -2.21682 0
M  V30 4621 C 436.524 0.344887 -1.57058 0
M  V30 4622 O 437.714 0.134281 -1.73682 0
M  V30 4623 C 434.846 0.150496 -3.40568 0
M  V30 4624 H 436.039 -1.47408 -2.61172 0
M  V30 4625 H 433.592 -0.800695 -1.34233 0
M  V30 4626 H 434.327 1.0575 -3.06574 0
M  V30 4627 H 434.112 -0.515444 -3.88697 0
M  V30 4628 H 435.602 0.438344 -4.15293 0
M  V30 4629 N 436.039 1.36541 -0.78704 0
M  V30 4630 C 437.002 2.28413 -0.189778 0
M  V30 4631 C 438.002 1.48719 0.611499 0
M  V30 4632 O 439.192 1.68737 0.432842 0
M  V30 4633 C 436.324 3.32824 0.737638 0
M  V30 4634 H 437.517 2.82743 -0.999831 0
M  V30 4635 H 435.07 1.46065 -0.556298 0
M  V30 4636 H 435.805 2.83646 1.57212 0
M  V30 4637 H 435.59 3.91752 0.165044 0
M  V30 4638 H 437.08 4.0144 1.15047 0
M  V30 4639 N 437.518 0.538854 1.48102 0
M  V30 4640 C 438.748 0.0122958 2.06596 0
M  V30 4641 C 439.156 -1.27861 1.39457 0
M  V30 4642 O 438.499 -1.77348 0.478907 0
M  V30 4643 C 438.561 -0.273131 3.58461 0
M  V30 4644 C 438.225 0.92561 4.47528 0
M  V30 4645 C 439.222 1.82637 4.86765 0
M  V30 4646 C 436.907 1.13511 4.89306 0
M  V30 4647 C 438.901 2.92047 5.66558 0
M  V30 4648 C 436.588 2.23233 5.68868 0
M  V30 4649 C 437.586 3.12333 6.07402 0
M  V30 4650 O 437.274 4.20155 6.85365 0
M  V30 4651 H 437.006 0.0344283 0.675123 0
M  V30 4652 H 439.56 0.746494 1.91355 0
M  V30 4653 H 437.79 -1.06141 3.71848 0
M  V30 4654 H 439.479 -0.742842 3.99045 0
M  V30 4655 H 440.245 1.67649 4.55103 0
M  V30 4656 H 436.124 0.450835 4.5879 0
M  V30 4657 H 439.668 3.6162 5.96554 0
M  V30 4658 H 435.565 2.38201 5.99942 0
M  V30 4659 H 436.333 4.17975 7.03732 0
M  V30 4660 N 438.996 -1.55193 0.274407 0
M  V30 4661 C 440.273 -1.91584 -0.394331 0
M  V30 4662 C 440.653 -1.19858 -1.73774 0
M  V30 4663 O 440.001 -0.3252 -2.26174 0
M  V30 4664 C 440.211 -3.4487 -0.535311 0
M  V30 4665 C 441.559 -4.16636 -0.818534 0
M  V30 4666 O 442.583 -3.5076 -0.620146 0
M  V30 4667 O 441.442 -5.33209 -1.19792 0
M  V30 4668 H 438.536 -0.798349 -0.215794 0
M  V30 4669 H 441.082 -1.66646 0.320507 0
M  V30 4670 H 439.854 -3.89145 0.410141 0
M  V30 4671 H 439.477 -3.75759 -1.29964 0
M  V30 4672 N 440.474 -0.00167713 -1.576 0
M  V30 4673 C 441.721 0.68282 -1.90641 0
M  V30 4674 C 442.049 1.73686 -0.875415 0
M  V30 4675 O 441.304 1.95334 0.119575 0
M  V30 4676 C 441.603 1.36189 -3.30435 0
M  V30 4677 C 441.269 0.440887 -4.48739 0
M  V30 4678 C 439.931 0.187312 -4.80835 0
M  V30 4679 C 442.283 -0.193134 -5.20842 0
M  V30 4680 C 439.611 -0.70855 -5.82406 0
M  V30 4681 C 441.963 -1.07688 -6.23367 0
M  V30 4682 C 440.627 -1.33962 -6.53919 0
M  V30 4683 H 439.897 0.249862 -0.697603 0
M  V30 4684 H 442.544 -0.0575642 -1.91413 0
M  V30 4685 H 440.849 2.17636 -3.25794 0
M  V30 4686 H 442.546 1.89759 -3.5326 0
M  V30 4687 H 439.136 0.648694 -4.23663 0
M  V30 4688 H 443.32 -0.0102445 -4.96299 0
M  V30 4689 H 438.576 -0.920097 -6.04437 0
M  V30 4690 H 442.75 -1.57451 -6.78367 0
M  V30 4691 H 440.377 -2.03549 -7.32442 0
M  V30 4692 N 441.952 1.55251 0.271103 0
M  V30 4693 C 442.882 1.9127 1.33933 0
M  V30 4694 C 443.863 0.77478 1.5143 0
M  V30 4695 O 445.048 1.03307 1.64442 0
M  V30 4696 C 442.178 2.18627 2.69851 0
M  V30 4697 C 441.132 3.34442 2.67081 0
M  V30 4698 C 440.458 3.47284 4.06569 0
M  V30 4699 C 441.758 4.70784 2.26185 0
M  V30 4700 H 443.452 2.80744 1.04035 0
M  V30 4701 H 440.998 1.35077 0.499017 0
M  V30 4702 H 442.951 2.42413 3.44694 0
M  V30 4703 H 441.675 1.25955 3.01335 0
M  V30 4704 H 440.334 3.10627 1.94695 0
M  V30 4705 H 439.982 2.52074 4.35279 0
M  V30 4706 H 439.682 4.25152 4.0561 0
M  V30 4707 H 441.206 3.73363 4.83148 0
M  V30 4708 H 442.62 4.94102 2.90751 0
M  V30 4709 H 441.017 5.51582 2.36384 0
M  V30 4710 H 442.087 4.69478 1.21319 0
M  V30 4711 N 443.43 -0.535701 1.48216 0
M  V30 4712 C 444.34 -1.66785 1.64985 0
M  V30 4713 C 445.356 -1.65654 0.532414 0
M  V30 4714 O 446.532 -1.8471 0.80275 0
M  V30 4715 C 443.597 -3.0326 1.68031 0
M  V30 4716 C 442.658 -3.1529 2.9136 0
M  V30 4717 C 441.891 -4.45255 2.94252 0
M  V30 4718 O 442.114 -5.32011 2.05719 0
M  V30 4719 O 441.048 -4.6153 3.86359 0
M  V30 4720 H 444.874 -1.55576 2.60825 0
M  V30 4721 H 442.459 -0.70815 1.31551 0
M  V30 4722 H 444.341 -3.84436 1.72589 0
M  V30 4723 H 443.016 -3.14805 0.753628 0
M  V30 4724 H 441.923 -2.3343 2.92337 0
M  V30 4725 H 443.256 -3.08658 3.83394 0
M  V30 4726 N 444.908 -1.36708 -0.784132 0
M  V30 4727 C 446.154 -1.31426 -1.54451 0
M  V30 4728 C 446.487 0.10476 -1.93917 0
M  V30 4729 O 445.762 1.05934 -1.6312 0
M  V30 4730 C 446.045 -2.24189 -2.818 0
M  V30 4731 C 445.898 -3.74813 -2.48667 0
M  V30 4732 C 447.217 -2.15626 -3.83658 0
M  V30 4733 H 444.336 -0.478739 -0.560337 0
M  V30 4734 H 446.978 -1.67305 -0.900498 0
M  V30 4735 H 445.128 -1.93722 -3.36755 0
M  V30 4736 H 446.8 -4.15823 -1.99722 0
M  V30 4737 H 445.043 -3.93989 -1.81535 0
M  V30 4738 H 445.714 -4.35138 -3.39646 0
M  V30 4739 H 448.19 -2.42456 -3.38163 0
M  V30 4740 H 447.066 -2.82694 -4.70506 0
M  V30 4741 H 447.327 -1.14522 -4.27009 0
M  V30 4742 N 446.386 1.0089 -1.21074 0
M  V30 4743 C 447.334 2.11707 -0.963476 0
M  V30 4744 C 448.328 1.69172 0.0879032 0
M  V30 4745 O 449.534 1.79889 -0.0631415 0
M  V30 4746 H 445.909 0.692026 -0.294287 0
M  V30 4747 H 447.88 2.29743 -1.90422 0
M  V30 4748 C 446.629 3.43473 -0.540509 0
M  V30 4749 H 445.952 3.76634 -1.34114 0
M  V30 4750 H 447.392 4.22044 -0.406777 0
M  V30 4751 C 445.851 3.2849 0.748079 0
M  V30 4752 O 446.381 3.58883 1.8046 0
M  V30 4753 N 444.587 2.81715 0.713081 0
M  V30 4754 H 444.134 2.5718 -0.146973 0
M  V30 4755 H 444.092 2.72071 1.57558 0
M  V30 4756 N 447.864 1.01787 1.20321 0
M  V30 4757 C 449.11 0.708985 1.90003 0
M  V30 4758 C 449.443 -0.759572 1.78729 0
M  V30 4759 O 448.718 -1.55198 1.17234 0
M  V30 4760 C 449.001 1.1469 3.41348 0
M  V30 4761 C 448.854 2.67586 3.61549 0
M  V30 4762 C 450.173 0.71915 4.34185 0
M  V30 4763 H 447.292 0.259034 0.689978 0
M  V30 4764 H 449.934 1.26584 1.41692 0
M  V30 4765 H 448.084 0.673128 3.82624 0
M  V30 4766 H 449.756 3.22826 3.29517 0
M  V30 4767 H 447.999 3.085 3.04976 0
M  V30 4768 H 448.67 2.93281 4.67643 0
M  V30 4769 H 451.146 1.12647 4.00562 0
M  V30 4770 H 450.022 1.05358 5.38694 0
M  V30 4771 H 450.283 -0.379111 4.40472 0
M  V30 4772 N 449.342 -1.36122 0.79427 0
M  V30 4773 C 450.753 -1.81646 0.431446 0
M  V30 4774 C 451.104 -1.66043 -1.04518 0
M  V30 4775 O 450.229 -1.1841 -1.8113 0
M  V30 4776 C 450.824 -3.29785 0.776341 0
M  V30 4777 C 449.383 -3.73501 0.466282 0
M  V30 4778 C 448.53 -2.58313 1.00844 0
M  V30 4779 H 451.481 -1.24274 0.986995 0
M  V30 4780 H 451.502 -3.80437 0.0692413 0
M  V30 4781 H 451.014 -3.4111 1.8511 0
M  V30 4782 H 449.115 -3.67733 -0.600245 0
M  V30 4783 H 449.228 -4.68754 0.990288 0
M  V30 4784 H 447.592 -2.5102 0.431406 0
M  V30 4785 H 448.375 -2.72421 2.08906 0
M  V30 4786 N 450.82 -0.546701 -1.47814 0
M  V30 4787 C 452.236 -0.205717 -1.58269 0
M  V30 4788 C 452.436 1.29153 -1.54667 0
M  V30 4789 O 451.492 2.07098 -1.44453 0
M  V30 4790 C 452.805 -0.823065 -2.89216 0
M  V30 4791 C 454.353 -0.793328 -3.02779 0
M  V30 4792 C 454.828 -1.38955 -4.36412 0
M  V30 4793 N 456.319 -1.35227 -4.43021 0
M  V30 4794 C 457.054 -1.78333 -5.44963 0
M  V30 4795 N 456.55 -2.29246 -6.53772 0
M  V30 4796 N 458.343 -1.69467 -5.35945 0
M  V30 4797 H 450.494 -1.5196 -1.48398 0
M  V30 4798 H 452.757 -0.633078 -0.705632 0
M  V30 4799 H 452.463 -1.8749 -2.97558 0
M  V30 4800 H 452.337 -0.309915 -3.75925 0
M  V30 4801 H 454.724 0.249784 -2.94041 0
M  V30 4802 H 454.805 -1.34412 -2.17639 0
M  V30 4803 H 454.449 -2.43168 -4.45906 0
M  V30 4804 H 454.379 -0.814291 -5.20266 0
M  V30 4805 H 456.87 -0.979739 -3.64979 0
M  V30 4806 H 457.183 -2.60089 -7.27718 0
M  V30 4807 H 455.528 -2.3325 -6.5469 0
M  V30 4808 H 458.719 -1.29477 -4.49837 0
M  V30 4809 H 458.892 -2.03381 -6.15256 0
M  V30 4810 N 452.299 1.55045 -0.282633 0
M  V30 4811 C 453.547 1.99365 0.331334 0
M  V30 4812 C 453.868 1.1725 1.55812 0
M  V30 4813 O 453.138 0.263871 1.94115 0
M  V30 4814 H 451.718 0.736397 0.125414 0
M  V30 4815 H 454.38 1.90964 -0.389711 0
M  V30 4816 H 453.476 3.0596 0.616036 0
M  V30 4817 O 453.816 0.148543 1.60815 0
M  V30 4818 H 454.507 -0.445161 1.88515 0
M  V30 END ATOM
M  V30 BEGIN BOND
M  V30 END BOND
M  V30 END CTAB
M  END
$$$$
