drugbank_target|A0A068JFB7 Beta-lactamase (DB12107)
 OpenBabel12092121203D

  0  0  0     0  0            999 V3000
M  V30 BEGIN CTAB
M  V30 COUNTS 2049 2063 0 0 0
M  V30 BEGIN ATOM
M  V30 1 H -0.908 1.98254 -0.117106 0
M  V30 2 N 0 1.576 0 0
M  V30 3 C 1.248 1.90191 0.683495 0
M  V30 4 C 1.569 0.874069 1.74313 0
M  V30 5 O 0.839 -0.0885238 1.957 0
M  V30 6 H -0.581 0.701967 0.255443 0
M  V30 7 H 2.081 1.94857 -0.040926 0
M  V30 8 H 1.177 2.89952 1.15474 0
M  V30 9 N 1.4781 -0.272755 1.55222 0
M  V30 10 C 2.4081 -1.34136 1.91127 0
M  V30 11 C 3.3891 -1.51513 0.773168 0
M  V30 12 O 4.5741 -1.64552 1.03132 0
M  V30 13 C 1.7041 -2.70083 2.1834 0
M  V30 14 C 0.6581 -2.67437 3.34158 0
M  V30 15 C -0.0159 -4.06938 3.46851 0
M  V30 16 C 1.2841 -2.26686 4.70543 0
M  V30 17 H 2.9781 -1.04333 2.80633 0
M  V30 18 H 0.5241 -0.500454 1.35024 0
M  V30 19 H 2.4771 -3.44952 2.42046 0
M  V30 20 H 1.2011 -3.01469 1.25634 0
M  V30 21 H -0.1399 -1.95026 3.1042 0
M  V30 22 H -0.4919 -4.35547 2.51611 0
M  V30 23 H -0.7919 -4.06062 4.2472 0
M  V30 24 H 0.7321 -4.83545 3.72849 0
M  V30 25 H 2.1461 -2.91277 4.93792 0
M  V30 26 H 0.5431 -2.36971 5.5133 0
M  V30 27 H 1.6131 -1.21818 4.69349 0
M  V30 28 N 2.9562 -1.48159 -0.537278 0
M  V30 29 C 4.1842 -1.59454 -1.31841 0
M  V30 30 C 4.5992 -0.252065 -1.8711 0
M  V30 31 O 3.9562 0.757621 -1.66031 0
M  V30 32 C 4.0072 -2.63546 -2.47439 0
M  V30 33 O 3.7282 -3.92583 -1.94449 0
M  V30 34 C 5.2292 -2.85212 -3.39366 0
M  V30 35 H 2.4492 -0.53785 -0.401196 0
M  V30 36 H 4.9932 -1.93932 -0.648891 0
M  V30 37 H 3.1482 -2.31946 -3.1029 0
M  V30 38 H 3.5622 -4.49629 -2.70063 0
M  V30 39 H 5.0362 -3.61863 -4.16844 0
M  V30 40 H 5.5132 -1.93765 -3.94147 0
M  V30 41 H 6.1192 -3.18086 -2.82314 0
M  V30 42 N 4.4343 0.785586 -1.36625 0
M  V30 43 C 5.3973 1.87999 -1.31107 0
M  V30 44 C 6.3973 1.59316 -0.217959 0
M  V30 45 O 7.5873 1.67656 -0.472977 0
M  V30 46 C 4.7193 3.24861 -1.03334 0
M  V30 47 H 5.9123 1.94307 -2.2844 0
M  V30 48 H 3.4653 0.983813 -1.21453 0
M  V30 49 H 4.2003 3.24235 -0.0647432 0
M  V30 50 H 3.9853 3.4707 -1.82441 0
M  V30 51 H 5.4753 4.04929 -1.02088 0
M  V30 52 N 5.9124 1.20967 1.01018 0
M  V30 53 C 7.1594 1.02374 1.74716 0
M  V30 54 C 7.4874 -0.443375 1.89379 0
M  V30 55 O 6.7424 -1.34535 1.42123 0
M  V30 56 C 7.0414 1.65997 3.16512 0
M  V30 57 C 6.7074 3.15831 3.2181 0
M  V30 58 C 5.3694 3.56719 3.22963 0
M  V30 59 C 7.7214 4.11816 3.19464 0
M  V30 60 C 5.0494 4.92107 3.19449 0
M  V30 61 C 7.4014 5.47158 3.17491 0
M  V30 62 C 6.0654 5.87451 3.16951 0
M  V30 63 H 5.3354 0.374614 0.639332 0
M  V30 64 H 7.9824 1.50485 1.18434 0
M  V30 65 H 6.2874 1.10166 3.75993 0
M  V30 66 H 7.9844 1.49119 3.72242 0
M  V30 67 H 4.5744 2.83263 3.21652 0
M  V30 68 H 8.7584 3.81257 3.17737 0
M  V30 69 H 4.0144 5.22579 3.17366 0
M  V30 70 H 8.1884 6.21274 3.14629 0
M  V30 71 H 5.8154 6.92329 3.13983 0
M  V30 72 N 7.3905 -1.2043 1.01659 0
M  V30 73 C 8.3205 -2.25466 0.607226 0
M  V30 74 C 9.3015 -1.65853 -0.377716 0
M  V30 75 O 10.4865 -1.92409 -0.263149 0
M  V30 76 C 7.6165 -3.47256 -0.0552949 0
M  V30 77 C 6.5705 -4.19462 0.850632 0
M  V30 78 C 5.8965 -5.34673 0.0538859 0
M  V30 79 C 7.1965 -4.75603 2.15868 0
M  V30 80 H 8.8905 -2.59962 1.48526 0
M  V30 81 H 6.4365 -1.2496 0.715605 0
M  V30 82 H 8.3895 -4.19917 -0.353233 0
M  V30 83 H 7.1135 -3.11924 -0.968045 0
M  V30 84 H 5.7725 -3.48667 1.13257 0
M  V30 85 H 5.4205 -4.95585 -0.860514 0
M  V30 86 H 5.1205 -5.83913 0.657192 0
M  V30 87 H 6.6445 -6.10138 -0.237598 0
M  V30 88 H 8.0585 -5.40083 1.92311 0
M  V30 89 H 6.4555 -5.3528 2.71284 0
M  V30 90 H 7.5255 -3.94346 2.82169 0
M  V30 91 N 8.8686 -0.792821 -1.36206 0
M  V30 92 C 10.2846 -0.474903 -1.52371 0
M  V30 93 C 10.4846 1.00622 -1.74578 0
M  V30 94 O 9.5406 1.79162 -1.77924 0
M  V30 95 C 10.8536 -1.3083 -2.70747 0
M  V30 96 C 12.4016 -1.30234 -2.84619 0
M  V30 97 C 12.8766 -2.11956 -4.06004 0
M  V30 98 N 14.3676 -2.09419 -4.13156 0
M  V30 99 C 15.1026 -2.69419 -5.06163 0
M  V30 100 N 14.5986 -3.3829 -6.04592 0
M  V30 101 N 16.3916 -2.59134 -4.98804 0
M  V30 102 H 8.5426 -1.75222 -1.20046 0
M  V30 103 H 10.8056 -0.745024 -0.586211 0
M  V30 104 H 10.5116 -2.35881 -2.6087 0
M  V30 105 H 10.3856 -0.95196 -3.6499 0
M  V30 106 H 12.7726 -0.259748 -2.93955 0
M  V30 107 H 12.8536 -1.69847 -1.91274 0
M  V30 108 H 12.4976 -3.16248 -3.97429 0
M  V30 109 H 12.4276 -1.69711 -4.98503 0
M  V30 110 H 14.9186 -1.59297 -3.42685 0
M  V30 111 H 15.2316 -3.81394 -6.7213 0
M  V30 112 H 13.5766 -3.42393 -6.04807 0
M  V30 113 H 16.7676 -2.04927 -4.20859 0
M  V30 114 H 16.9406 -3.06185 -5.711 0
M  V30 115 N 10.3467 1.47872 -0.545128 0
M  V30 116 C 11.2787 2.27869 0.246621 0
M  V30 117 C 12.2917 1.36282 0.890561 0
M  V30 118 O 13.4807 1.61207 0.766449 0
M  V30 119 C 10.5807 3.10159 1.36582 0
M  V30 120 C 9.7537 4.29627 0.820954 0
M  V30 121 C 8.8127 4.93607 1.82314 0
M  V30 122 O 7.8387 5.52366 1.37406 0
M  V30 123 N 9.0407 4.87211 3.15603 0
M  V30 124 H 11.8057 2.96459 -0.439539 0
M  V30 125 H 9.3667 1.57367 -0.380421 0
M  V30 126 H 11.3587 3.49829 2.03474 0
M  V30 127 H 9.9287 2.43891 1.9554 0
M  V30 128 H 9.1487 3.94192 -0.0244032 0
M  V30 129 H 10.4367 5.06928 0.436063 0
M  V30 130 H 9.8347 4.40651 3.54744 0
M  V30 131 H 8.3917 5.30937 3.78087 0
M  V30 132 N 11.8248 0.280983 1.55075 0
M  V30 133 C 13.0738 -0.334784 1.98902 0
M  V30 134 C 13.3868 -1.56534 1.17288 0
M  V30 135 O 14.5928 -2.25443 1.51287 0
M  V30 136 C 13.0488 -0.646994 3.54037 0
M  V30 137 C 12.6568 0.564085 4.44435 0
M  V30 138 C 14.4008 -1.22506 4.06439 0
M  V30 139 C 12.3078 0.226137 5.90967 0
M  V30 140 H 11.2378 -0.128866 0.742906 0
M  V30 141 H 13.8888 0.386556 1.79382 0
M  V30 142 H 12.2708 -1.42739 3.6938 0
M  V30 143 H 13.4448 1.34082 4.40861 0
M  V30 144 H 11.7598 1.0594 4.02698 0
M  V30 145 H 14.3568 -1.49182 5.13468 0
M  V30 146 H 14.6998 -2.16085 3.55827 0
M  V30 147 H 15.2328 -0.50682 3.94558 0
M  V30 148 H 11.9718 1.12996 6.45687 0
M  V30 149 H 11.4918 -0.513717 5.97596 0
M  V30 150 H 13.1708 -0.179539 6.46751 0
M  V30 151 N 13.3029 -1.57598 0.00835791 0
M  V30 152 C 14.5509 -1.90551 -0.6734 0
M  V30 153 C 14.8719 -0.883301 -1.73847 0
M  V30 154 O 14.1419 0.0781442 -1.95744 0
M  V30 155 H 12.7219 -0.703312 -0.251717 0
M  V30 156 H 15.3839 -1.94833 0.0512592 0
M  V30 157 H 14.4799 -2.9056 -1.13935 0
M  V30 158 N 14.781 0.264519 -1.55364 0
M  V30 159 C 16.058 1.01677 -1.67096 0
M  V30 160 C 16.438 2.03996 -0.543015 0
M  V30 161 O 15.786 2.23907 0.45585 0
M  V30 162 C 15.996 1.66596 -3.0667 0
M  V30 163 C 17.344 2.17442 -3.64697 0
M  V30 164 O 18.368 1.76568 -3.09358 0
M  V30 165 O 17.227 2.92439 -4.61673 0
M  V30 166 H 14.321 0.472161 -0.678965 0
M  V30 167 H 16.867 0.259703 -1.67701 0
M  V30 168 H 15.639 0.924962 -3.80211 0
M  V30 169 H 15.262 2.48968 -3.10001 0
M  V30 170 N 16.2591 1.48442 0.529413 0
M  V30 171 C 17.2071 1.63452 1.65487 0
M  V30 172 C 18.2011 0.500955 1.61823 0
M  V30 173 O 19.4071 0.679695 1.66674 0
M  V30 174 H 15.7821 0.514905 0.548066 0
M  V30 175 H 17.7531 2.57975 1.49971 0
M  V30 176 C 16.5021 1.69196 3.03756 0
M  V30 177 H 15.8251 2.55784 3.07269 0
M  V30 178 H 17.2651 1.83743 3.82119 0
M  V30 179 C 15.7241 0.430765 3.34135 0
M  V30 180 O 16.2541 -0.4561 3.99102 0
M  V30 181 N 14.4601 0.302293 2.89023 0
M  V30 182 H 14.0071 1.02496 2.36331 0
M  V30 183 H 13.9651 -0.540546 3.09718 0
M  V30 184 N 17.7372 -0.778329 1.37039 0
M  V30 185 C 18.9832 -1.53892 1.32079 0
M  V30 186 C 19.3162 -1.9396 -0.0965386 0
M  V30 187 O 18.5912 -1.63568 -1.05242 0
M  V30 188 C 18.8742 -2.80847 2.25382 0
M  V30 189 C 18.7272 -2.47076 3.75864 0
M  V30 190 C 20.0462 -3.82741 2.1725 0
M  V30 191 H 17.1652 -0.558303 0.48111 0
M  V30 192 H 19.8072 -0.893397 1.67685 0
M  V30 193 H 17.9572 -3.35931 1.95148 0
M  V30 194 H 19.6292 -1.97957 4.16666 0
M  V30 195 H 17.8722 -1.79863 3.94755 0
M  V30 196 H 18.5432 -3.37798 4.36574 0
M  V30 197 H 21.0192 -3.37133 2.43887 0
M  V30 198 H 19.8952 -4.69303 2.84686 0
M  V30 199 H 20.1562 -4.2652 1.16331 0
M  V30 200 N 19.2153 -1.21501 -1.00376 0
M  V30 201 C 20.4433 -1.059 -1.77744 0
M  V30 202 C 20.8583 0.391125 -1.84704 0
M  V30 203 O 20.2153 1.27133 -1.30933 0
M  V30 204 C 20.2663 -1.65111 -3.21591 0
M  V30 205 O 19.9873 -3.0445 -3.15027 0
M  V30 206 C 21.4883 -1.54637 -4.15454 0
M  V30 207 H 18.7083 -0.371825 -0.558558 0
M  V30 208 H 21.2523 -1.60865 -1.26264 0
M  V30 209 H 19.4073 -1.14235 -3.70175 0
M  V30 210 H 19.8213 -3.3278 -4.0541 0
M  V30 211 H 21.2953 -2.00808 -5.14179 0
M  V30 212 H 21.7723 -0.501022 -4.36333 0
M  V30 213 H 22.3783 -2.04767 -3.72761 0
M  V30 214 N 20.6934 1.19889 -1.02296 0
M  V30 215 C 22.1094 1.41462 -0.738954 0
M  V30 216 C 22.3094 1.89721 0.678846 0
M  V30 217 O 21.3654 2.07016 1.4457 0
M  V30 218 C 22.6784 2.43083 -1.77005 0
M  V30 219 C 24.2264 2.5684 -1.78892 0
M  V30 220 C 24.7014 3.61709 -2.80945 0
M  V30 221 N 26.1924 3.69199 -2.79725 0
M  V30 222 C 26.9274 4.50019 -3.55345 0
M  V30 223 N 26.4234 5.34592 -4.40662 0
M  V30 224 N 28.2164 4.44612 -3.43914 0
M  V30 225 H 20.3674 0.868827 -1.93817 0
M  V30 226 H 22.6304 0.44399 -0.837602 0
M  V30 227 H 22.3364 2.14636 -2.78612 0
M  V30 228 H 22.2104 3.4217 -1.58744 0
M  V30 229 H 24.5974 2.84614 -0.779674 0
M  V30 230 H 24.6784 1.57927 -2.01228 0
M  V30 231 H 24.3224 3.34678 -3.82038 0
M  V30 232 H 24.2524 4.60259 -2.5587 0
M  V30 233 H 26.7434 3.08794 -2.17842 0
M  V30 234 H 27.0564 5.93363 -4.95116 0
M  V30 235 H 25.4014 5.34073 -4.44737 0
M  V30 236 H 28.5924 3.7758 -2.76679 0
M  V30 237 H 28.7654 5.0736 -4.031 0
M  V30 238 N 22.1715 0.800033 1.35784 0
M  V30 239 C 23.1015 0.220184 2.3246 0
M  V30 240 C 24.0825 -0.65073 1.57161 0
M  V30 241 O 25.2675 -0.582359 1.85263 0
M  V30 242 C 22.3975 -0.637353 3.41402 0
M  V30 243 C 21.3515 0.134531 4.27789 0
M  V30 244 C 20.6775 -0.844285 5.27992 0
M  V30 245 C 21.9775 1.32979 5.05088 0
M  V30 246 H 23.6715 1.02787 2.81203 0
M  V30 247 H 21.2175 0.495717 1.35199 0
M  V30 248 H 23.1705 -1.05302 4.08031 0
M  V30 249 H 21.8945 -1.47785 2.91251 0
M  V30 250 H 20.5535 0.531296 3.6273 0
M  V30 251 H 20.2015 -1.68011 4.74111 0
M  V30 252 H 19.9015 -0.332184 5.8666 0
M  V30 253 H 21.4255 -1.2583 5.97494 0
M  V30 254 H 22.8395 0.98934 5.64699 0
M  V30 255 H 21.2365 1.77593 5.7322 0
M  V30 256 H 22.3065 2.11978 4.36111 0
M  V30 257 N 23.6496 -1.47581 0.552962 0
M  V30 258 C 24.9266 -1.95563 -0.0381515 0
M  V30 259 C 25.3066 -1.49552 -1.48988 0
M  V30 260 O 24.6546 -0.732414 -2.16444 0
M  V30 261 C 24.8646 -3.48848 0.102919 0
M  V30 262 C 26.2126 -4.24577 -0.0446082 0
M  V30 263 O 27.2366 -3.56187 0.0302548 0
M  V30 264 O 26.0956 -5.46116 -0.204923 0
M  V30 265 H 23.1896 -0.824321 -0.0665067 0
M  V30 266 H 25.7356 -1.58001 0.619186 0
M  V30 267 H 24.5076 -3.75129 1.11328 0
M  V30 268 H 24.1306 -3.93165 -0.592224 0
M  V30 269 N 25.1277 -0.289203 -1.54924 0
M  V30 270 C 26.5437 0.0645403 -1.59469 0
M  V30 271 C 26.7437 1.53419 -1.30632 0
M  V30 272 O 25.7997 2.2852 -1.074 0
M  V30 273 C 27.1127 -0.32278 -2.98963 0
M  V30 274 C 28.6607 -0.270564 -3.11828 0
M  V30 275 C 29.1357 -0.632532 -4.53611 0
M  V30 276 N 30.6267 -0.584617 -4.59496 0
M  V30 277 C 31.3617 -0.837314 -5.67254 0
M  V30 278 N 30.8577 -1.15536 -6.83098 0
M  V30 279 N 32.6507 -0.765166 -5.56868 0
M  V30 280 H 24.8017 -1.24714 -1.71931 0
M  V30 281 H 27.0647 -0.504809 -0.802416 0
M  V30 282 H 26.7707 -1.34541 -3.24948 0
M  V30 283 H 26.6447 0.32944 -3.75759 0
M  V30 284 H 29.0317 0.742805 -2.85598 0
M  V30 285 H 29.1127 -0.957242 -2.37214 0
M  V30 286 H 28.7567 -1.64365 -4.80569 0
M  V30 287 H 28.6867 0.07609 -5.26545 0
M  V30 288 H 31.1777 -0.349248 -3.76283 0
M  V30 289 H 31.4907 -1.33447 -7.61191 0
M  V30 290 H 29.8357 -1.19328 -6.84679 0
M  V30 291 H 33.0267 -0.516432 -4.65243 0
M  V30 292 H 33.1997 -0.965477 -6.40767 0
M  V30 293 N 26.6058 1.57591 -0.0167156 0
M  V30 294 C 27.8518 1.92399 0.659861 0
M  V30 295 C 28.2068 0.892561 1.70444 0
M  V30 296 O 27.4998 -0.0930755 1.91374 0
M  V30 297 C 27.6938 3.3172 1.33029 0
M  V30 298 C 27.5228 4.48319 0.352174 0
M  V30 299 C 26.2928 5.05281 -0.0434883 0
M  V30 300 C 28.4908 5.12831 -0.388474 0
M  V30 301 N 26.4728 6.05399 -1.01807 0
M  V30 302 C 27.8438 6.07934 -1.2172 0
M  V30 303 C 29.8988 4.95858 -0.450513 0
M  V30 304 C 28.6018 6.87891 -2.10235 0
M  V30 305 C 30.6278 5.76413 -1.32295 0
M  V30 306 C 29.9898 6.71123 -2.13948 0
M  V30 307 H 26.0888 0.752106 0.21415 0
M  V30 308 H 28.6728 1.94532 -0.0809846 0
M  V30 309 H 26.8438 3.3043 2.04134 0
M  V30 310 H 28.5758 3.5391 1.9629 0
M  V30 311 H 25.3308 4.7246 0.328384 0
M  V30 312 H 25.7548 6.60145 -1.50123 0
M  V30 313 H 30.3968 4.22472 0.166512 0
M  V30 314 H 28.1148 7.60591 -2.72997 0
M  V30 315 H 31.7008 5.65317 -1.37508 0
M  V30 316 H 30.5808 7.3237 -2.80364 0
M  V30 317 N 28.0839 -0.256276 1.55502 0
M  V30 318 C 28.9939 -1.33882 1.92647 0
M  V30 319 C 30.0099 -1.53159 0.825727 0
M  V30 320 O 31.1859 -1.66963 1.12629 0
M  V30 321 C 28.2509 -2.6751 2.20543 0
M  V30 322 C 27.3119 -2.56836 3.43997 0
M  V30 323 C 26.5449 -3.84092 3.70553 0
M  V30 324 O 26.7679 -4.85545 2.99336 0
M  V30 325 O 25.7019 -3.83288 4.64084 0
M  V30 326 H 29.5279 -1.05374 2.84833 0
M  V30 327 H 27.1129 -0.456237 1.42263 0
M  V30 328 H 28.9949 -3.46492 2.39835 0
M  V30 329 H 27.6699 -2.9577 1.31536 0
M  V30 330 H 26.5769 -1.76172 3.30021 0
M  V30 331 H 27.9099 -2.33523 4.33275 0
M  V30 332 N 29.562 -1.4872 -0.521534 0
M  V30 333 C 30.79 -1.60843 -1.30142 0
M  V30 334 C 31.205 -0.271897 -1.86832 0
M  V30 335 O 30.562 0.739969 -1.66825 0
M  V30 336 C 30.613 -2.66155 -2.4463 0
M  V30 337 O 30.334 -3.94623 -1.90275 0
M  V30 338 C 31.835 -2.88795 -3.36322 0
M  V30 339 H 29.055 -0.542075 -0.395468 0
M  V30 340 H 31.599 -1.94609 -0.628285 0
M  V30 341 H 29.754 -2.35224 -3.07812 0
M  V30 342 H 30.168 -4.52468 -2.65279 0
M  V30 343 H 31.642 -3.66264 -4.12983 0
M  V30 344 H 32.119 -1.97934 -3.9207 0
M  V30 345 H 32.725 -3.21063 -2.78924 0
M  V30 346 N 31.0401 0.771051 -1.3745 0
M  V30 347 C 31.9501 1.91538 -1.35464 0
M  V30 348 C 32.9661 1.72134 -0.254123 0
M  V30 349 O 34.1421 1.95358 -0.489626 0
M  V30 350 C 31.2071 3.26671 -1.16134 0
M  V30 351 C 30.2681 3.58723 -2.35831 0
M  V30 352 C 29.5011 4.87409 -2.17413 0
M  V30 353 O 29.7241 5.58506 -1.15876 0
M  V30 354 O 28.6581 5.18539 -3.05615 0
M  V30 355 H 32.4841 1.96165 -2.31847 0
M  V30 356 H 30.0691 0.9139 -1.18187 0
M  V30 357 H 31.9511 4.07499 -1.07345 0
M  V30 358 H 30.6261 3.22894 -0.228251 0
M  V30 359 H 29.5331 2.78127 -2.50192 0
M  V30 360 H 30.8661 3.67243 -3.27709 0
M  V30 361 N 32.5182 1.22032 0.997298 0
M  V30 362 C 33.4482 1.01065 2.10495 0
M  V30 363 C 34.4292 -0.0669542 1.69968 0
M  V30 364 O 35.6142 0.0943987 1.9397 0
M  V30 365 C 32.7442 0.582874 3.42374 0
M  V30 366 C 31.6982 1.60592 3.96729 0
M  V30 367 C 31.0242 1.03412 5.24605 0
M  V30 368 C 32.3242 2.99478 4.27914 0
M  V30 369 H 34.0182 1.93708 2.28292 0
M  V30 370 H 31.5642 0.932761 1.09707 0
M  V30 371 H 33.5172 0.423332 4.19268 0
M  V30 372 H 32.2412 -0.379213 3.24391 0
M  V30 373 H 30.9002 1.75316 3.21963 0
M  V30 374 H 30.5482 0.063518 5.0296 0
M  V30 375 H 30.2482 1.71754 5.61938 0
M  V30 376 H 31.7722 0.886066 6.04137 0
M  V30 377 H 33.1862 2.88153 4.95622 0
M  V30 378 H 31.5832 3.64903 4.76409 0
M  V30 379 H 32.6532 3.49742 3.3587 0
M  V30 380 N 33.9963 -1.19345 1.0293 0
M  V30 381 C 34.9443 -2.24621 0.604001 0
M  V30 382 C 35.9383 -1.65452 -0.363587 0
M  V30 383 O 37.1443 -1.78497 -0.23212 0
M  V30 384 H 33.5193 -0.730858 0.177061 0
M  V30 385 H 35.4903 -2.5781 1.50255 0
M  V30 386 C 34.2393 -3.47688 -0.0289127 0
M  V30 387 H 33.5623 -3.93505 0.706651 0
M  V30 388 H 35.0023 -4.23011 -0.289432 0
M  V30 389 C 33.4613 -3.11817 -1.2756 0
M  V30 390 O 33.9913 -3.2451 -2.36762 0
M  V30 391 N 32.1973 -2.66246 -1.16453 0
M  V30 392 H 31.7443 -2.56118 -0.275914 0
M  V30 393 H 31.7023 -2.42617 -1.99961 0
M  V30 394 N 35.4744 -0.807222 -1.35358 0
M  V30 395 C 36.3844 -0.219594 -2.3357 0
M  V30 396 C 37.4004 0.637734 -1.61892 0
M  V30 397 O 38.5764 0.549336 -1.93763 0
M  V30 398 C 35.6414 0.62158 -3.41083 0
M  V30 399 C 34.7024 -0.256315 -4.28534 0
M  V30 400 C 33.9354 0.544807 -5.30912 0
M  V30 401 O 34.1584 1.77944 -5.41934 0
M  V30 402 O 33.0924 -0.0646478 -6.01865 0
M  V30 403 H 36.9184 -1.03208 -2.85625 0
M  V30 404 H 34.5034 -0.569025 -1.38139 0
M  V30 405 H 36.3854 1.10067 -4.06772 0
M  V30 406 H 35.0604 1.41165 -2.91297 0
M  V30 407 H 33.9674 -0.782559 -3.65823 0
M  V30 408 H 35.3004 -1.01034 -4.81719 0
M  V30 409 N 36.9525 1.47285 -0.560781 0
M  V30 410 C 37.9155 2.28535 0.174488 0
M  V30 411 C 38.9155 1.37153 0.839388 0
M  V30 412 O 40.1055 1.59748 0.694702 0
M  V30 413 C 37.2375 3.16934 1.25561 0
M  V30 414 H 38.4305 2.95012 -0.539262 0
M  V30 415 H 35.9835 1.53034 -0.317865 0
M  V30 416 H 36.7185 2.55157 2.00164 0
M  V30 417 H 36.5035 3.8419 0.783604 0
M  V30 418 H 37.9935 3.78143 1.77193 0
M  V30 419 N 38.4306 0.297415 1.54768 0
M  V30 420 C 39.3606 -0.573494 2.26348 0
M  V30 421 C 40.3416 -1.14085 1.26169 0
M  V30 422 O 41.5266 -1.17086 1.54934 0
M  V30 423 C 38.6566 -1.74716 3.00153 0
M  V30 424 C 37.6106 -1.31032 4.07449 0
M  V30 425 C 36.9366 -2.56887 4.68949 0
M  V30 426 C 38.2366 -0.444183 5.20408 0
M  V30 427 H 39.9306 0.0235131 2.99391 0
M  V30 428 H 37.4766 0.0127488 1.43994 0
M  V30 429 H 39.4296 -2.3625 3.48947 0
M  V30 430 H 38.1536 -2.37035 2.24682 0
M  V30 431 H 36.8126 -0.718066 3.59499 0
M  V30 432 H 36.4606 -3.17512 3.90122 0
M  V30 433 H 36.1606 -2.2836 5.41411 0
M  V30 434 H 37.6846 -3.19229 5.20505 0
M  V30 435 H 39.0986 -0.9651 5.65118 0
M  V30 436 H 37.4956 -0.252846 5.99567 0
M  V30 437 H 38.5656 0.531609 4.81977 0
M  V30 438 N 39.9087 -1.5758 0.0250728 0
M  V30 439 C 41.3197 -1.79476 -0.514323 0
M  V30 440 C 41.6707 -0.934956 -1.72491 0
M  V30 441 O 40.7957 -0.144245 -2.15919 0
M  V30 442 C 41.3907 -3.25503 -0.939842 0
M  V30 443 C 39.9497 -3.48408 -1.42438 0
M  V30 444 C 39.0967 -2.74583 -0.387201 0
M  V30 445 H 42.0477 -1.567 0.25113 0
M  V30 446 H 42.0687 -3.34992 -1.80445 0
M  V30 447 H 41.5807 -3.88056 -0.0585628 0
M  V30 448 H 39.6817 -2.91103 -2.32572 0
M  V30 449 H 39.7947 -4.57119 -1.43455 0
M  V30 450 H 38.1587 -2.39942 -0.854409 0
M  V30 451 H 38.9417 -3.39849 0.485543 0
M  V30 452 N 41.3868 0.248026 -1.55636 0
M  V30 453 C 42.6348 0.974295 -1.77065 0
M  V30 454 C 42.9558 1.85897 -0.588849 0
M  V30 455 O 42.2258 1.91868 0.395407 0
M  V30 456 H 40.8058 0.362733 -0.653019 0
M  V30 457 H 43.4678 0.266244 -1.93073 0
M  V30 458 H 42.5638 1.59667 -2.68166 0
M  V30 459 N 42.8649 1.48995 0.513639 0
M  V30 460 C 44.1419 1.48338 1.27495 0
M  V30 461 C 44.5219 0.204065 2.10111 0
M  V30 462 O 43.8699 -0.813881 2.13514 0
M  V30 463 C 44.0799 2.75498 2.14247 0
M  V30 464 C 45.4279 3.24484 2.73852 0
M  V30 465 O 46.4519 2.76528 2.24523 0
M  V30 466 O 45.3109 4.07974 3.6362 0
M  V30 467 H 42.4049 0.593149 0.576284 0
M  V30 468 H 44.9509 1.61246 0.528948 0
M  V30 469 H 43.7229 3.60109 1.53092 0
M  V30 470 H 43.3459 2.6539 2.96064 0
M  V30 471 N 44.343 -0.763751 1.37857 0
M  V30 472 C 45.306 -1.85889 1.34081 0
M  V30 473 C 46.306 -1.58949 0.243277 0
M  V30 474 O 47.496 -1.66882 0.499589 0
M  V30 475 C 44.628 -3.23176 1.08489 0
M  V30 476 H 45.821 -1.90648 2.31502 0
M  V30 477 H 43.374 -0.964367 1.23003 0
M  V30 478 H 44.109 -3.24091 0.116318 0
M  V30 479 H 43.894 -3.44124 1.8794 0
M  V30 480 H 45.384 -4.03254 1.08517 0
M  V30 481 N 45.8211 -1.22559 -0.990812 0
M  V30 482 C 47.2371 -0.985996 -1.255 0
M  V30 483 C 47.4371 0.319173 -1.98956 0
M  V30 484 O 46.4931 1.04127 -2.3003 0
M  V30 485 C 47.8061 -2.18607 -2.06474 0
M  V30 486 C 49.3541 -2.22985 -2.19651 0
M  V30 487 C 49.8291 -3.4255 -3.04012 0
M  V30 488 N 51.3201 -3.42725 -3.11599 0
M  V30 489 C 52.0551 -4.31892 -3.7717 0
M  V30 490 N 51.5511 -5.31279 -4.44651 0
M  V30 491 N 53.3441 -4.19662 -3.73952 0
M  V30 492 H 45.4951 -2.06469 -0.49841 0
M  V30 493 H 47.7581 -0.904853 -0.282747 0
M  V30 494 H 47.4641 -3.13267 -1.59865 0
M  V30 495 H 47.3381 -2.18838 -3.07229 0
M  V30 496 H 49.7251 -1.28871 -2.65474 0
M  V30 497 H 49.8061 -2.26791 -1.18319 0
M  V30 498 H 49.4501 -4.36965 -2.58889 0
M  V30 499 H 49.3801 -3.35984 -4.0549 0
M  V30 500 H 51.8711 -2.70807 -2.63575 0
M  V30 501 H 52.1841 -5.95593 -4.92431 0
M  V30 502 H 50.5291 -5.3519 -4.43392 0
M  V30 503 H 53.7201 -3.41268 -3.20396 0
M  V30 504 H 53.8931 -4.89358 -4.24774 0
M  V30 505 N 47.2992 1.18797 -1.03562 0
M  V30 506 C 48.5762 1.84469 -0.650434 0
M  V30 507 C 48.9562 1.92319 0.870433 0
M  V30 508 O 48.3042 1.44528 1.76986 0
M  V30 509 C 48.5142 3.2306 -1.32036 0
M  V30 510 C 49.8622 3.9915 -1.44792 0
M  V30 511 O 50.8862 3.32481 -1.27806 0
M  V30 512 O 49.7452 5.18587 -1.72423 0
M  V30 513 H 46.8392 0.795251 -0.226946 0
M  V30 514 H 49.3852 1.26231 -1.13419 0
M  V30 515 H 48.1572 3.1222 -2.3587 0
M  V30 516 H 47.7802 3.88949 -0.8249 0
M  V30 517 N 48.7773 0.814389 1.34928 0
M  V30 518 C 50.0053 0.411136 2.02774 0
M  V30 519 C 50.4203 -0.980316 1.61354 0
M  V30 520 O 49.7773 -1.63299 0.814847 0
M  V30 521 C 49.8283 0.493865 3.58111 0
M  V30 522 O 49.5493 1.83047 3.98027 0
M  V30 523 C 51.0503 0.0844174 4.4322 0
M  V30 524 H 48.2703 0.166037 0.650133 0
M  V30 525 H 50.8143 1.10018 1.72384 0
M  V30 526 H 48.9693 -0.147006 3.87121 0
M  V30 527 H 49.3833 1.79872 4.92693 0
M  V30 528 H 50.8573 0.193404 5.51661 0
M  V30 529 H 51.3343 -0.97113 4.28329 0
M  V30 530 H 51.9403 0.69875 4.19521 0
M  V30 531 N 50.2554 -1.46986 0.568584 0
M  V30 532 C 51.4834 -2.0683 0.0539956 0
M  V30 533 C 51.8984 -1.41953 -1.24478 0
M  V30 534 O 51.2554 -0.519933 -1.74937 0
M  V30 535 C 51.3064 -3.61254 -0.133362 0
M  V30 536 O 51.0274 -4.237 1.11399 0
M  V30 537 C 52.5284 -4.37992 -0.683927 0
M  V30 538 H 49.7484 -0.669058 0.0510141 0
M  V30 539 H 52.2924 -1.88824 0.785234 0
M  V30 540 H 50.4474 -3.78735 -0.81477 0
M  V30 541 H 50.8614 -5.16388 0.91888 0
M  V30 542 H 52.3354 -5.46684 -0.764263 0
M  V30 543 H 52.8124 -4.05058 -1.69778 0
M  V30 544 H 53.4184 -4.25283 -0.0378494 0
M  V30 545 N 51.7335 -0.305618 -1.54608 0
M  V30 546 C 52.9615 0.304775 -2.04643 0
M  V30 547 C 53.3765 1.47167 -1.18268 0
M  V30 548 O 52.7335 1.81296 -0.209328 0
M  V30 549 C 52.7845 0.756564 -3.53495 0
M  V30 550 O 52.5055 -0.36389 -4.36586 0
M  V30 551 C 54.0065 1.43163 -4.19546 0
M  V30 552 H 51.2265 0.0655481 -0.667791 0
M  V30 553 H 53.7705 -0.446592 -1.99564 0
M  V30 554 H 51.9255 1.45794 -3.58919 0
M  V30 555 H 52.3395 -0.0113121 -5.24499 0
M  V30 556 H 53.8135 1.69886 -5.25207 0
M  V30 557 H 54.2905 2.37318 -3.69563 0
M  V30 558 H 54.8965 0.773307 -4.18211 0
M  V30 559 N 53.2116 1.57565 -0.0334293 0
M  V30 560 C 54.6226 1.79746 0.504798 0
M  V30 561 C 54.9736 0.944091 1.71992 0
M  V30 562 O 54.0986 0.155694 2.15839 0
M  V30 563 C 54.6936 3.25997 0.922567 0
M  V30 564 C 53.2526 3.49159 1.40588 0
M  V30 565 C 52.3996 2.74785 0.372633 0
M  V30 566 H 55.3506 1.56565 -0.259436 0
M  V30 567 H 55.3716 3.35945 1.78666 0
M  V30 568 H 54.8836 3.88081 0.0379825 0
M  V30 569 H 52.9846 2.92332 2.31025 0
M  V30 570 H 53.0976 4.57873 1.41028 0
M  V30 571 H 51.4616 2.40391 0.841672 0
M  V30 572 H 52.2446 3.39587 -0.503559 0
M  V30 573 N 54.6897 -0.239769 1.55765 0
M  V30 574 C 55.6527 -1.28038 1.90103 0
M  V30 575 C 56.6527 -1.40723 0.778055 0
M  V30 576 O 57.8427 -1.39301 1.04599 0
M  V30 577 C 54.9747 -2.65702 2.13577 0
M  V30 578 H 56.1677 -0.988048 2.83157 0
M  V30 579 H 53.7207 -0.479382 1.48767 0
M  V30 580 H 54.4557 -3.00063 1.23015 0
M  V30 581 H 54.2407 -2.57875 2.95369 0
M  V30 582 H 55.7307 -3.40828 2.41301 0
M  V30 583 N 56.1678 -1.49265 -0.50573 0
M  V30 584 C 57.3928 -1.62478 -1.28902 0
M  V30 585 C 57.8178 -0.294332 -1.85783 0
M  V30 586 O 57.1758 0.737412 -1.65626 0
M  V30 587 C 57.2238 -2.69268 -2.39848 0
M  V30 588 O 56.3278 -2.28113 -3.43567 0
M  V30 589 H 55.6688 -0.54399 -0.380751 0
M  V30 590 H 58.1988 -1.95421 -0.605952 0
M  V30 591 H 58.2088 -2.91291 -2.85681 0
M  V30 592 H 56.8838 -3.65846 -1.97812 0
M  V30 593 H 55.4608 -2.16401 -3.03685 0
M  V30 594 N 57.6459 0.756429 -1.3826 0
M  V30 595 C 58.5789 1.87802 -1.29637 0
M  V30 596 C 59.5569 1.61667 -0.173939 0
M  V30 597 O 60.7409 1.85208 -0.350775 0
M  V30 598 C 57.8679 3.23354 -1.00797 0
M  V30 599 C 56.9139 3.68379 -2.14939 0
M  V30 600 S 57.7469 3.8025 -3.77054 0
M  V30 601 C 58.9029 5.18626 -3.50396 0
M  V30 602 H 59.1359 1.94829 -2.24564 0
M  V30 603 H 56.6689 0.919117 -1.24063 0
M  V30 604 H 58.6269 4.01637 -0.848413 0
M  V30 605 H 57.2879 3.14008 -0.0759369 0
M  V30 606 H 56.4809 4.66693 -1.90299 0
M  V30 607 H 56.0829 2.97242 -2.26988 0
M  V30 608 H 58.3749 6.04289 -3.06334 0
M  V30 609 H 59.3179 5.48286 -4.48094 0
M  V30 610 H 59.7259 4.87289 -2.84973 0
M  V30 611 N 59.124 1.23083 0.984299 0
M  V30 612 C 60.087 1.00979 2.05757 0
M  V30 613 C 61.087 -0.0269573 1.60777 0
M  V30 614 O 62.277 0.212403 1.729 0
M  V30 615 C 59.409 0.527072 3.36801 0
M  V30 616 H 60.602 1.9622 2.26799 0
M  V30 617 H 58.155 1.05072 1.15714 0
M  V30 618 H 58.89 -0.429294 3.21446 0
M  V30 619 H 58.675 1.27515 3.70786 0
M  V30 620 H 60.165 0.392942 4.15747 0
M  V30 621 N 60.6021 -1.18246 1.0419 0
M  V30 622 C 61.5651 -2.20128 0.638452 0
M  V30 623 C 62.5651 -1.57885 -0.304805 0
M  V30 624 O 63.7551 -1.73967 -0.0900369 0
M  V30 625 C 60.8871 -3.4084 -0.0637751 0
M  V30 626 H 62.0801 -2.57336 1.54007 0
M  V30 627 H 59.6331 -1.32152 0.834598 0
M  V30 628 H 60.3681 -3.09166 -0.979136 0
M  V30 629 H 60.1531 -3.8726 0.614198 0
M  V30 630 H 61.6431 -4.16274 -0.332512 0
M  V30 631 N 62.0802 -0.821533 -1.34494 0
M  V30 632 C 63.3082 -0.421884 -2.02553 0
M  V30 633 C 63.7232 0.971745 -1.61872 0
M  V30 634 O 63.0802 1.62864 -0.823496 0
M  V30 635 C 63.1312 -0.51285 -3.57844 0
M  V30 636 O 62.8522 -1.85155 -3.97051 0
M  V30 637 C 64.3532 -0.107921 -4.43169 0
M  V30 638 H 61.5732 -0.169482 -0.649243 0
M  V30 639 H 64.1172 -1.1093 -1.71798 0
M  V30 640 H 62.2722 0.126474 -3.87193 0
M  V30 641 H 62.6862 -1.82482 -4.91732 0
M  V30 642 H 64.1602 -0.222657 -5.51551 0
M  V30 643 H 64.6372 0.948401 -4.28838 0
M  V30 644 H 65.2432 -0.720989 -4.19144 0
M  V30 645 N 63.5583 1.46682 -0.576371 0
M  V30 646 C 64.4883 2.33028 0.148397 0
M  V30 647 C 65.4693 1.44961 0.889956 0
M  V30 648 O 66.6543 1.73789 0.866662 0
M  V30 649 C 63.7843 3.27117 1.1667 0
M  V30 650 C 62.7383 4.24575 0.540386 0
M  V30 651 C 62.0643 5.08126 1.6647 0
M  V30 652 C 63.3643 5.19722 -0.518331 0
M  V30 653 H 65.0583 2.93875 -0.572509 0
M  V30 654 H 62.6043 1.41315 -0.276768 0
M  V30 655 H 64.5573 3.86374 1.68204 0
M  V30 656 H 63.2813 2.64364 1.9178 0
M  V30 657 H 61.9403 3.66571 0.0461769 0
M  V30 658 H 61.5883 4.41762 2.40531 0
M  V30 659 H 61.2883 5.74122 1.25131 0
M  V30 660 H 62.8123 5.70246 2.18293 0
M  V30 661 H 64.2263 5.73232 -0.0883058 0
M  V30 662 H 62.6233 5.94026 -0.851679 0
M  V30 663 H 63.6933 4.64037 -1.40703 0
M  V30 664 N 65.0364 0.313813 1.54444 0
M  V30 665 C 66.4524 -0.0391619 1.59552 0
M  V30 666 C 66.6524 -1.51322 1.33056 0
M  V30 667 O 65.7084 -2.26782 1.11022 0
M  V30 668 C 67.0214 0.370302 2.98411 0
M  V30 669 C 68.5694 0.320139 3.11358 0
M  V30 670 C 69.0444 0.704617 4.52547 0
M  V30 671 N 70.5354 0.657645 4.58508 0
M  V30 672 C 71.2704 0.927453 5.6585 0
M  V30 673 N 70.7664 1.26389 6.81174 0
M  V30 674 N 72.5594 0.853662 5.5558 0
M  V30 675 H 64.7104 1.27433 1.69925 0
M  V30 676 H 66.9734 0.517511 0.794284 0
M  V30 677 H 66.6794 1.39694 3.22767 0
M  V30 678 H 66.5534 -0.269619 3.76235 0
M  V30 679 H 68.9404 -0.697275 2.86744 0
M  V30 680 H 69.0214 0.99486 2.35661 0
M  V30 681 H 68.6654 1.7199 4.77893 0
M  V30 682 H 68.5954 0.00768843 5.26599 0
M  V30 683 H 71.0864 0.409067 3.75679 0
M  V30 684 H 71.3994 1.4554 7.58972 0
M  V30 685 H 69.7444 1.30206 6.82694 0
M  V30 686 H 72.9354 0.590383 4.64362 0
M  V30 687 H 73.1084 1.0673 6.3915 0
M  V30 688 N 66.5145 -1.57545 0.0417849 0
M  V30 689 C 67.4615 -2.10977 -0.935805 0
M  V30 690 C 68.4315 -1.01486 -1.31491 0
M  V30 691 O 69.6165 -1.2898 -1.40602 0
M  V30 692 C 66.7565 -2.65169 -2.2086 0
M  V30 693 C 65.8695 -3.88714 -1.88482 0
M  V30 694 C 65.0045 -4.31254 -3.1015 0
M  V30 695 C 64.0435 -5.47524 -2.7365 0
M  V30 696 N 63.1805 -5.85162 -3.87982 0
M  V30 697 H 68.0205 -2.94218 -0.473249 0
M  V30 698 H 65.5575 -1.45415 -0.221981 0
M  V30 699 H 67.5155 -2.94685 -2.95325 0
M  V30 700 H 66.1455 -1.8474 -2.64709 0
M  V30 701 H 65.1975 -3.65849 -1.04205 0
M  V30 702 H 66.5095 -4.73245 -1.57608 0
M  V30 703 H 65.6635 -4.62273 -3.92923 0
M  V30 704 H 64.4025 -3.45516 -3.44195 0
M  V30 705 H 63.4075 -5.16187 -1.89291 0
M  V30 706 H 64.6325 -6.34971 -2.40807 0
M  V30 707 H 62.5785 -5.02377 -4.21846 0
M  V30 708 H 62.4955 -6.64362 -3.60775 0
M  V30 709 H 63.7635 -6.20791 -4.71422 0
M  V30 710 N 67.9926 0.231505 -1.5589 0
M  V30 711 C 68.9226 1.29022 -1.94617 0
M  V30 712 C 69.9036 1.4941 -0.813067 0
M  V30 713 O 71.0886 1.6176 -1.07459 0
M  V30 714 C 68.2186 2.64199 -2.25424 0
M  V30 715 C 67.1726 2.58484 -3.41131 0
M  V30 716 C 66.4986 3.97599 -3.57518 0
M  V30 717 C 67.7986 2.1413 -4.76388 0
M  V30 718 H 69.4926 0.968563 -2.83301 0
M  V30 719 H 67.0386 0.464479 -1.36303 0
M  V30 720 H 68.9916 3.38413 -2.51107 0
M  V30 721 H 67.7156 2.98032 -1.33583 0
M  V30 722 H 66.3746 1.86727 -3.15481 0
M  V30 723 H 66.0226 4.28723 -2.6307 0
M  V30 724 H 65.7226 3.94659 -4.35337 0
M  V30 725 H 67.2466 4.7349 -3.85538 0
M  V30 726 H 68.6606 2.78083 -5.01341 0
M  V30 727 H 67.0576 2.2227 -5.57419 0
M  V30 728 H 68.1276 1.09331 -4.72414 0
M  V30 729 N 69.4707 1.49531 0.497807 0
M  V30 730 C 70.4007 1.6935 1.60757 0
M  V30 731 C 71.3817 0.542218 1.61227 0
M  V30 732 O 72.5667 0.778417 1.77917 0
M  V30 733 C 69.6967 1.76298 2.99226 0
M  V30 734 C 68.6507 2.91248 3.13622 0
M  V30 735 C 67.9767 2.83312 4.53474 0
M  V30 736 C 69.2767 4.3214 2.93346 0
M  V30 737 H 70.9707 2.62263 1.44425 0
M  V30 738 H 68.5167 1.26208 0.693367 0
M  V30 739 H 70.4697 1.88749 3.76765 0
M  V30 740 H 69.1937 0.799871 3.16654 0
M  V30 741 H 67.8527 2.78404 2.38509 0
M  V30 742 H 67.5007 1.84902 4.67782 0
M  V30 743 H 67.2007 3.60465 4.64046 0
M  V30 744 H 68.7247 2.97775 5.33069 0
M  V30 745 H 70.1387 4.45649 3.60652 0
M  V30 746 H 68.5357 5.1054 3.15387 0
M  V30 747 H 69.6057 4.46363 1.89441 0
M  V30 748 N 70.9488 -0.749086 1.3866 0
M  V30 749 C 72.1768 -1.53834 1.38358 0
M  V30 750 C 72.5918 -1.88783 -0.0255219 0
M  V30 751 O 71.9488 -1.53101 -0.993292 0
M  V30 752 C 71.9998 -2.83468 2.2434 0
M  V30 753 O 71.7208 -2.50008 3.5976 0
M  V30 754 C 73.2218 -3.7758 2.32267 0
M  V30 755 H 70.4418 -0.47585 0.473083 0
M  V30 756 H 72.9858 -0.926726 1.82297 0
M  V30 757 H 71.1408 -3.40995 1.83851 0
M  V30 758 H 71.5548 -3.33182 4.05081 0
M  V30 759 H 73.0288 -4.65478 2.96706 0
M  V30 760 H 73.5058 -4.18334 1.33765 0
M  V30 761 H 74.1118 -3.25976 2.73166 0
M  V30 762 N 72.4269 -1.23603 -0.977757 0
M  V30 763 C 73.6519 -1.09735 -1.75991 0
M  V30 764 C 74.0769 0.346858 -1.84874 0
M  V30 765 O 73.4349 1.25093 -1.3123 0
M  V30 766 C 73.4829 -1.73051 -3.16363 0
M  V30 767 O 72.5869 -0.994452 -4.0023 0
M  V30 768 H 71.9279 -0.384476 -0.541364 0
M  V30 769 H 74.4579 -1.6371 -1.2272 0
M  V30 770 H 74.4679 -1.78398 -3.66931 0
M  V30 771 H 73.1429 -2.78137 -3.09213 0
M  V30 772 H 71.7199 -1.01812 -3.58732 0
M  V30 773 N 73.905 1.17692 -1.04816 0
M  V30 774 C 74.837 2.21103 -0.603822 0
M  V30 775 C 75.85 1.59411 0.33046 0
M  V30 776 O 77.039 1.7807 0.12379 0
M  V30 777 C 74.139 3.38623 0.136898 0
M  V30 778 C 73.312 4.29888 -0.807137 0
M  V30 779 C 72.371 5.26088 -0.10836 0
M  V30 780 O 71.397 5.64353 -0.741232 0
M  V30 781 N 72.599 5.68882 1.15558 0
M  V30 782 H 75.364 2.59848 -1.49329 0
M  V30 783 H 72.925 1.32553 -0.929587 0
M  V30 784 H 74.917 4.00009 0.614401 0
M  V30 785 H 73.487 2.98508 0.927993 0
M  V30 786 H 72.707 3.65993 -1.46434 0
M  V30 787 H 73.995 4.87759 -1.44807 0
M  V30 788 H 73.393 5.39861 1.69015 0
M  V30 789 H 71.95 6.32429 1.57722 0
M  V30 790 N 75.3831 0.828654 1.34056 0
M  V30 791 C 76.7991 0.515135 1.51058 0
M  V30 792 C 76.9991 -0.959581 1.77184 0
M  V30 793 O 76.0551 -1.74382 1.82612 0
M  V30 794 C 77.3681 1.37963 2.67183 0
M  V30 795 C 78.9161 1.37735 2.81066 0
M  V30 796 C 79.3911 2.22645 4.00241 0
M  V30 797 N 80.8821 2.203 4.07458 0
M  V30 798 C 81.6171 2.82744 4.98842 0
M  V30 799 N 81.1131 3.54201 5.9541 0
M  V30 800 N 82.9061 2.72268 4.91759 0
M  V30 801 H 75.0571 1.78343 1.15358 0
M  V30 802 H 77.3201 0.760304 0.566252 0
M  V30 803 H 77.0261 2.42714 2.54525 0
M  V30 804 H 76.9001 1.0484 3.62338 0
M  V30 805 H 79.2871 0.337593 2.93163 0
M  V30 806 H 79.3681 1.74859 1.86703 0
M  V30 807 H 79.0121 3.26674 3.88905 0
M  V30 808 H 78.9421 1.82869 4.93829 0
M  V30 809 H 81.4331 1.68327 3.38341 0
M  V30 810 H 81.7461 3.9908 6.61782 0
M  V30 811 H 80.0911 3.58308 5.95517 0
M  V30 812 H 83.2821 2.16014 4.15278 0
M  V30 813 H 83.4551 3.21219 5.62781 0
M  V30 814 N 76.8612 -1.46375 0.584142 0
M  V30 815 C 77.7912 -2.33103 -0.136037 0
M  V30 816 C 78.7722 -1.45431 -0.882255 0
M  V30 817 O 79.9572 -1.74246 -0.857434 0
M  V30 818 C 77.0872 -3.27731 -1.14933 0
M  V30 819 C 76.0412 -4.24855 -0.517862 0
M  V30 820 C 75.3672 -5.09001 -1.63773 0
M  V30 821 C 76.6672 -5.19439 0.545886 0
M  V30 822 H 78.3612 -2.93568 0.588086 0
M  V30 823 H 75.9072 -1.41166 0.284259 0
M  V30 824 H 77.8602 -3.87261 -1.66153 0
M  V30 825 H 76.5842 -2.65377 -1.90375 0
M  V30 826 H 75.2432 -3.6659 -0.0267361 0
M  V30 827 H 74.8912 -4.43031 -2.38185 0
M  V30 828 H 74.5912 -5.74777 -1.22085 0
M  V30 829 H 76.1152 -5.71396 -2.15266 0
M  V30 830 H 77.5292 -5.73177 0.118704 0
M  V30 831 H 75.9262 -5.93566 0.88317 0
M  V30 832 H 76.9962 -4.63285 1.43162 0
M  V30 833 N 78.3393 -0.321999 -1.54275 0
M  V30 834 C 79.5643 0.285791 -2.05422 0
M  V30 835 C 79.9893 1.45124 -1.19669 0
M  V30 836 O 79.3473 1.80132 -0.205441 0
M  V30 837 C 79.3953 0.69956 -3.53749 0
M  V30 838 O 78.4993 1.8021 -3.70942 0
M  V30 839 H 77.8403 0.0518962 -0.661969 0
M  V30 840 H 80.3703 -0.469954 -1.9913 0
M  V30 841 H 80.3803 0.982649 -3.9599 0
M  V30 842 H 79.0553 -0.152864 -4.15619 0
M  V30 843 H 77.6323 1.51794 -3.40607 0
M  V30 844 N 79.8174 1.5752 -0.0501392 0
M  V30 845 C 80.7804 2.1037 0.909786 0
M  V30 846 C 81.7804 1.02308 1.24056 0
M  V30 847 O 82.9704 1.28385 1.17741 0
M  V30 848 C 80.1024 2.58708 2.21998 0
M  V30 849 H 81.2954 2.96479 0.451665 0
M  V30 850 H 78.8484 1.55038 0.198248 0
M  V30 851 H 79.5834 1.75989 2.72394 0
M  V30 852 H 79.3684 3.37675 1.99295 0
M  V30 853 H 80.8584 2.99747 2.9076 0
M  V30 854 N 81.2955 -0.223234 1.56011 0
M  V30 855 C 82.7115 -0.572856 1.48965 0
M  V30 856 C 82.9115 -1.87225 0.74492 0
M  V30 857 O 81.9675 -2.50899 0.283896 0
M  V30 858 C 83.2805 -0.653646 2.9351 0
M  V30 859 C 84.8285 -0.744386 3.0402 0
M  V30 860 C 85.3035 -0.856535 4.49919 0
M  V30 861 N 86.7945 -0.9208 4.53955 0
M  V30 862 C 87.5295 -1.02726 5.64123 0
M  V30 863 N 87.0255 -1.09777 6.84047 0
M  V30 864 N 88.8185 -1.06226 5.51971 0
M  V30 865 H 80.9695 0.629462 2.02858 0
M  V30 866 H 83.2325 0.220621 0.921971 0
M  V30 867 H 82.9385 0.231518 3.50937 0
M  V30 868 H 82.8125 -1.51781 3.45315 0
M  V30 869 H 85.1995 -1.61999 2.46658 0
M  V30 870 H 85.2805 0.14541 2.55386 0
M  V30 871 H 84.9245 0.0146069 5.07898 0
M  V30 872 H 84.8545 -1.76172 4.96257 0
M  V30 873 H 87.3455 -0.876694 3.6759 0
M  V30 874 H 87.6585 -1.17872 7.63758 0
M  V30 875 H 86.0035 -1.06693 6.86762 0
M  V30 876 H 89.1945 -1.00382 4.5721 0
M  V30 877 H 89.3675 -1.14177 6.37862 0
M  V30 878 N 82.7736 -1.49793 -0.48987 0
M  V30 879 C 83.9986 -1.63836 -1.27172 0
M  V30 880 C 84.4236 -0.31402 -1.8546 0
M  V30 881 O 83.7816 0.719803 -1.66399 0
M  V30 882 C 83.8296 -2.71797 -2.36978 0
M  V30 883 O 82.9336 -2.31744 -3.41128 0
M  V30 884 H 82.2746 -0.547997 -0.37496 0
M  V30 885 H 84.8046 -1.96053 -0.585191 0
M  V30 886 H 84.8146 -2.94305 -2.82575 0
M  V30 887 H 83.4896 -3.67923 -1.93921 0
M  V30 888 H 82.0666 -2.1961 -3.01373 0
M  V30 889 N 84.2517 0.741722 -1.39055 0
M  V30 890 C 85.1837 1.8657 -1.33133 0
M  V30 891 C 86.1967 1.61001 -0.241329 0
M  V30 892 O 87.3857 1.7136 -0.499784 0
M  V30 893 C 84.4857 3.22457 -1.04283 0
M  V30 894 C 83.6587 3.75435 -2.24427 0
M  V30 895 C 82.7177 4.89867 -1.92138 0
M  V30 896 O 81.7437 5.03879 -2.64754 0
M  V30 897 N 82.9457 5.73738 -0.88347 0
M  V30 898 H 85.7107 1.92156 -2.29991 0
M  V30 899 H 83.2717 0.922172 -1.3307 0
M  V30 900 H 85.2637 3.9657 -0.807128 0
M  V30 901 H 83.8337 3.12181 -0.161807 0
M  V30 902 H 83.0537 2.92751 -2.6399 0
M  V30 903 H 84.3417 4.07563 -3.04581 0
M  V30 904 H 83.7397 5.64999 -0.281517 0
M  V30 905 H 82.2967 6.47947 -0.707662 0
M  V30 906 N 85.7298 1.2412 0.971189 0
M  V30 907 C 87.1458 1.00584 1.23916 0
M  V30 908 C 87.3458 -0.287481 1.99439 0
M  V30 909 O 86.4018 -1.00454 2.31658 0
M  V30 910 C 87.7148 2.21864 2.0297 0
M  V30 911 C 89.2628 2.26452 2.16076 0
M  V30 912 C 89.7378 3.47343 2.98524 0
M  V30 913 N 91.2288 3.47639 3.06107 0
M  V30 914 C 91.9638 4.37837 3.70251 0
M  V30 915 N 91.4598 5.38286 4.36142 0
M  V30 916 N 93.2528 4.25558 3.67228 0
M  V30 917 H 85.4038 2.07236 0.465499 0
M  V30 918 H 87.6668 0.909236 0.268315 0
M  V30 919 H 87.3728 3.15771 1.54861 0
M  V30 920 H 87.2468 2.23698 3.03709 0
M  V30 921 H 89.6338 1.33078 2.6339 0
M  V30 922 H 89.7148 2.28645 1.14696 0
M  V30 923 H 89.3588 4.41029 2.51905 0
M  V30 924 H 89.2888 3.42393 4.00093 0
M  V30 925 H 91.7798 2.74966 2.59233 0
M  V30 926 H 92.0928 6.03352 4.82894 0
M  V30 927 H 90.4378 5.42176 4.34822 0
M  V30 928 H 93.6288 3.46322 3.14927 0
M  V30 929 H 93.8018 4.96054 4.16935 0
M  V30 930 N 87.2079 -1.17134 1.05439 0
M  V30 931 C 88.1399 -2.2078 0.615539 0
M  V30 932 C 89.1529 -1.59584 -0.322001 0
M  V30 933 O 90.3419 -1.78133 -0.114344 0
M  V30 934 C 87.4419 -3.38691 -0.118938 0
M  V30 935 C 86.6149 -4.29454 0.829924 0
M  V30 936 C 85.6739 -5.26024 0.136258 0
M  V30 937 O 84.6999 -5.63952 0.77115 0
M  V30 938 N 85.9019 -5.69487 -1.1254 0
M  V30 939 H 88.6669 -2.59052 1.50705 0
M  V30 940 H 86.2279 -1.32058 0.936603 0
M  V30 941 H 88.2199 -4.00329 -0.593179 0
M  V30 942 H 86.7899 -2.98996 -0.91215 0
M  V30 943 H 86.0099 -3.65211 1.48373 0
M  V30 944 H 87.2979 -4.86984 1.47392 0
M  V30 945 H 86.6959 -5.4075 -1.6615 0
M  V30 946 H 85.2529 -6.33257 -1.54366 0
M  V30 947 N 88.686 -0.835752 -1.33615 0
M  V30 948 C 89.616 -0.281739 -2.31794 0
M  V30 949 C 90.597 0.608833 -1.58831 0
M  V30 950 O 91.782 0.533035 -1.86741 0
M  V30 951 C 88.912 0.546612 -3.42971 0
M  V30 952 C 87.866 -0.247904 -4.27281 0
M  V30 953 C 87.192 0.704001 -5.30045 0
M  V30 954 C 88.492 -1.46324 -5.01385 0
M  V30 955 H 90.186 -1.10206 -2.78379 0
M  V30 956 H 87.732 -0.531388 -1.33837 0
M  V30 957 H 89.685 0.944467 -4.1068 0
M  V30 958 H 88.409 1.40011 -2.95067 0
M  V30 959 H 87.068 -0.627281 -3.61194 0
M  V30 960 H 86.716 1.55381 -4.78399 0
M  V30 961 H 86.416 0.176524 -5.87335 0
M  V30 962 H 87.94 1.09944 -6.0062 0
M  V30 963 H 89.354 -1.13871 -5.61877 0
M  V30 964 H 87.751 -1.92728 -5.6831 0
M  V30 965 H 88.821 -2.23467 -4.30338 0
M  V30 966 N 90.1641 1.46063 -0.591896 0
M  V30 967 C 91.0941 2.33172 0.123673 0
M  V30 968 C 92.0751 1.45897 0.87453 0
M  V30 969 O 93.2601 1.74698 0.848181 0
M  V30 970 C 90.3901 3.28336 1.13194 0
M  V30 971 C 89.3441 4.25124 0.495324 0
M  V30 972 C 88.6701 5.09863 1.61071 0
M  V30 973 C 89.9701 5.19143 -0.573425 0
M  V30 974 H 91.6641 2.93252 -0.603646 0
M  V30 975 H 89.2101 1.41014 -0.291741 0
M  V30 976 H 91.1631 3.88137 1.64097 0
M  V30 977 H 89.8871 2.66383 1.88965 0
M  V30 978 H 88.5461 3.66599 0.00729452 0
M  V30 979 H 88.1941 4.44288 2.35832 0
M  V30 980 H 87.8941 5.75417 1.19035 0
M  V30 981 H 89.4181 5.72529 2.12233 0
M  V30 982 H 90.8321 5.73106 -0.1491 0
M  V30 983 H 89.2291 5.93089 -0.914636 0
M  V30 984 H 90.2991 4.62519 -1.45617 0
M  V30 985 N 91.6422 0.330177 1.54103 0
M  V30 986 C 92.5742 -0.566902 2.22079 0
M  V30 987 C 93.5872 -1.07462 1.22294 0
M  V30 988 O 94.7762 -0.987065 1.48726 0
M  V30 989 C 91.8762 -1.79138 2.87685 0
M  V30 990 C 91.0492 -1.42123 4.13666 0
M  V30 991 C 90.1082 -2.50394 4.62806 0
M  V30 992 O 89.1342 -2.14261 5.27334 0
M  V30 993 N 90.3362 -3.81433 4.37595 0
M  V30 994 H 93.1012 0.0151844 2.99696 0
M  V30 995 H 90.6622 0.153681 1.61169 0
M  V30 996 H 92.6542 -2.50975 3.1748 0
M  V30 997 H 91.2242 -2.28115 2.13734 0
M  V30 998 H 90.4442 -0.534201 3.90564 0
M  V30 999 H 91.7322 -1.14971 4.9564 0
M  V30 1000 H 91.1302 -4.13584 3.8596 0
M  V30 1001 H 89.6872 -4.4948 4.72029 0
M  V30 1002 N 93.1203 -1.57491 0.0584922 0
M  V30 1003 C 94.3663 -1.94081 -0.608617 0
M  V30 1004 C 94.7213 -0.937438 -1.68017 0
M  V30 1005 O 94.0143 0.0423034 -1.91553 0
M  V30 1006 C 94.2083 -3.3513 -1.24188 0
M  V30 1007 C 94.0373 -4.49095 -0.233187 0
M  V30 1008 C 92.8073 -5.04988 0.177439 0
M  V30 1009 C 95.0053 -5.1162 0.524306 0
M  V30 1010 N 92.9873 -6.02487 1.17823 0
M  V30 1011 C 94.3583 -6.04493 1.37796 0
M  V30 1012 C 96.4133 -4.94489 0.581822 0
M  V30 1013 C 95.1163 -6.82075 2.28399 0
M  V30 1014 C 97.1423 -5.72703 1.47531 0
M  V30 1015 C 96.5043 -6.65214 2.31667 0
M  V30 1016 H 92.6033 -0.75752 -0.194134 0
M  V30 1017 H 95.1873 -1.94248 0.132533 0
M  V30 1018 H 93.3583 -3.35726 -1.95302 0
M  V30 1019 H 95.0903 -3.5899 -1.86838 0
M  V30 1020 H 91.8453 -4.73165 -0.203004 0
M  V30 1021 H 92.2693 -6.55933 1.67573 0
M  V30 1022 H 96.9113 -4.22765 -0.054443 0
M  V30 1023 H 94.6293 -7.53085 2.93067 0
M  V30 1024 H 98.2153 -5.61472 1.52448 0
M  V30 1025 H 97.0953 -7.24679 2.99683 0
M  V30 1026 N 94.5984 0.214957 -1.56127 0
M  V30 1027 C 95.5314 1.29382 -1.87977 0
M  V30 1028 C 96.5094 1.44897 -0.737807 0
M  V30 1029 O 97.6934 1.60605 -0.986833 0
M  V30 1030 C 94.8204 2.66325 -2.09258 0
M  V30 1031 C 93.8664 2.67789 -3.31951 0
M  V30 1032 S 94.6994 2.21198 -4.8768 0
M  V30 1033 C 95.8554 3.60003 -5.12004 0
M  V30 1034 H 96.0884 1.02173 -2.79192 0
M  V30 1035 H 93.6214 0.417516 -1.48648 0
M  V30 1036 H 95.5794 3.45162 -2.22201 0
M  V30 1037 H 94.2404 2.90755 -1.18829 0
M  V30 1038 H 93.4334 3.68436 -3.43906 0
M  V30 1039 H 93.0354 1.9702 -3.17898 0
M  V30 1040 H 95.3274 4.55739 -5.01307 0
M  V30 1041 H 96.2704 3.52959 -6.13861 0
M  V30 1042 H 96.6784 3.53996 -4.39712 0
M  V30 1043 N 96.0765 1.50051 0.48192 0
M  V30 1044 C 97.3225 1.60736 1.2366 0
M  V30 1045 C 97.6555 0.301786 1.91841 0
M  V30 1046 O 96.9305 -0.696025 1.8162 0
M  V30 1047 C 97.2135 2.78009 2.28874 0
M  V30 1048 C 97.0665 4.18416 1.65069 0
M  V30 1049 C 98.3855 2.90867 3.30279 0
M  V30 1050 H 95.5045 0.585031 0.448228 0
M  V30 1051 H 98.1465 1.82402 0.531946 0
M  V30 1052 H 96.2965 2.59667 2.88973 0
M  V30 1053 H 97.9685 4.48322 1.0865 0
M  V30 1054 H 96.2115 4.23177 0.954148 0
M  V30 1055 H 96.8825 4.96381 2.41474 0
M  V30 1056 H 99.3585 3.07623 2.80191 0
M  V30 1057 H 98.2345 3.74566 4.01238 0
M  V30 1058 H 98.4955 2.01021 3.93755 0
M  V30 1059 N 97.5546 -0.734337 1.39446 0
M  V30 1060 C 98.8316 -1.48579 1.27215 0
M  V30 1061 C 99.2116 -2.1077 -0.117968 0
M  V30 1062 O 98.5596 -1.98646 -1.12924 0
M  V30 1063 C 98.7696 -2.53667 2.39696 0
M  V30 1064 C 100.118 -3.20031 2.79044 0
M  V30 1065 O 101.142 -2.6398 2.39151 0
M  V30 1066 O 100.001 -4.21455 3.47905 0
M  V30 1067 H 97.0946 -0.659816 0.49857 0
M  V30 1068 H 99.6406 -0.768106 1.51322 0
M  V30 1069 H 98.4126 -2.06096 3.32626 0
M  V30 1070 H 98.0356 -3.32994 2.17258 0
M  V30 1071 N 99.0327 -1.24633 -0.964593 0
M  V30 1072 C 100.31 -0.995809 -1.68354 0
M  V30 1073 C 100.69 0.480964 -2.05548 0
M  V30 1074 O 100.038 1.45599 -1.76105 0
M  V30 1075 C 100.248 -1.92177 -2.91323 0
M  V30 1076 C 101.596 -2.19446 -3.63495 0
M  V30 1077 O 102.62 -1.89855 -3.01386 0
M  V30 1078 O 101.479 -2.69714 -4.75307 0
M  V30 1079 H 98.5727 -0.376854 -0.736146 0
M  V30 1080 H 101.119 -1.35745 -1.0184 0
M  V30 1081 H 99.8907 -2.91938 -2.60553 0
M  V30 1082 H 99.5137 -1.56349 -3.65569 0
M  V30 1083 N 100.511 1.16574 -1.06058 0
M  V30 1084 C 101.927 1.3904 -0.783585 0
M  V30 1085 C 102.127 1.91784 0.618145 0
M  V30 1086 O 101.183 2.11511 1.37911 0
M  V30 1087 C 102.496 2.37329 -1.84649 0
M  V30 1088 C 104.044 2.51018 -1.86973 0
M  V30 1089 C 104.519 3.52588 -2.92311 0
M  V30 1090 N 106.01 3.60113 -2.91329 0
M  V30 1091 C 106.745 4.38486 -3.69482 0
M  V30 1092 N 106.241 5.20302 -4.57447 0
M  V30 1093 N 108.034 4.33446 -3.57885 0
M  V30 1094 H 100.185 0.806725 -1.96483 0
M  V30 1095 H 102.448 0.417117 -0.851303 0
M  V30 1096 H 102.154 2.05663 -2.85299 0
M  V30 1097 H 102.028 3.36946 -1.6955 0
M  V30 1098 H 104.415 2.81989 -0.869827 0
M  V30 1099 H 104.496 1.51445 -2.0615 0
M  V30 1100 H 104.14 3.22354 -3.92492 0
M  V30 1101 H 104.07 4.51886 -2.70383 0
M  V30 1102 H 106.561 3.01707 -2.27555 0
M  V30 1103 H 106.874 5.77311 -5.13743 0
M  V30 1104 H 105.219 5.19653 -4.61503 0
M  V30 1105 H 108.41 3.68586 -2.88551 0
M  V30 1106 H 108.583 4.94279 -4.19037 0
M  V30 1107 N 101.989 0.842826 1.3317 0
M  V30 1108 C 103.235 0.441099 1.97945 0
M  V30 1109 C 103.568 -0.998024 1.66593 0
M  V30 1110 O 102.843 -1.69839 0.947898 0
M  V30 1111 C 103.126 0.666841 3.53872 0
M  V30 1112 C 102.979 2.15352 3.94897 0
M  V30 1113 C 104.298 0.115544 4.39948 0
M  V30 1114 H 101.417 0.161739 0.719034 0
M  V30 1115 H 104.059 1.05907 1.57746 0
M  V30 1116 H 102.209 0.140828 3.88245 0
M  V30 1117 H 103.881 2.7447 3.70761 0
M  V30 1118 H 102.124 2.63653 3.44484 0
M  V30 1119 H 102.795 2.26221 5.03516 0
M  V30 1120 H 105.271 0.565213 4.12243 0
M  V30 1121 H 104.147 0.303152 5.48062 0
M  V30 1122 H 104.408 -0.980935 4.3108 0
M  V30 1123 N 103.467 -1.45747 0.599634 0
M  V30 1124 C 104.43 -2.28917 -0.113835 0
M  V30 1125 C 105.43 -1.3933 -0.802729 0
M  V30 1126 O 106.62 -1.61534 -0.652103 0
M  V30 1127 C 103.752 -3.20152 -1.17114 0
M  V30 1128 H 104.945 -2.93478 0.617289 0
M  V30 1129 H 102.498 -1.52137 0.358327 0
M  V30 1130 H 103.233 -2.60374 -1.93329 0
M  V30 1131 H 103.018 -3.86133 -0.681468 0
M  V30 1132 H 104.508 -3.82708 -1.67105 0
M  V30 1133 N 104.945 -0.338344 -1.53925 0
M  V30 1134 C 106.193 0.259245 -2.0043 0
M  V30 1135 C 106.514 1.51484 -1.22791 0
M  V30 1136 O 105.784 1.93037 -0.33368 0
M  V30 1137 H 104.364 0.0987845 -0.740439 0
M  V30 1138 H 107.026 -0.458302 -1.89435 0
M  V30 1139 H 106.122 0.505334 -3.07982 0
M  V30 1140 N 106.423 1.57458 -0.0668435 0
M  V30 1141 C 107.834 1.80776 0.466558 0
M  V30 1142 C 108.185 0.980361 1.69951 0
M  V30 1143 O 107.31 0.201441 2.1546 0
M  V30 1144 C 107.905 3.27881 0.85321 0
M  V30 1145 C 106.464 3.52062 1.3315 0
M  V30 1146 C 105.611 2.75513 0.314264 0
M  V30 1147 H 108.562 1.5598 -0.292588 0
M  V30 1148 H 108.583 3.39659 1.715 0
M  V30 1149 H 108.095 3.88075 -0.0443439 0
M  V30 1150 H 106.196 2.97167 2.24772 0
M  V30 1151 H 106.309 4.60762 1.31285 0
M  V30 1152 H 104.673 2.42123 0.790492 0
M  V30 1153 H 105.456 3.38442 -0.575477 0
M  V30 1154 N 107.901 -0.206675 1.56239 0
M  V30 1155 C 108.831 -1.25909 1.96645 0
M  V30 1156 C 109.812 -1.48097 0.836734 0
M  V30 1157 O 110.997 -1.6003 1.10019 0
M  V30 1158 C 108.127 -2.6058 2.29599 0
M  V30 1159 C 107.081 -2.53024 3.452 0
M  V30 1160 C 106.407 -3.91861 3.63798 0
M  V30 1161 C 107.707 -2.06524 4.79734 0
M  V30 1162 H 109.401 -0.923369 2.84806 0
M  V30 1163 H 106.947 -0.442735 1.37025 0
M  V30 1164 H 108.9 -3.34375 2.56459 0
M  V30 1165 H 107.624 -2.95869 1.38307 0
M  V30 1166 H 106.283 -1.81684 3.18412 0
M  V30 1167 H 105.931 -4.24483 2.69857 0
M  V30 1168 H 105.631 -3.87683 4.4156 0
M  V30 1169 H 107.155 -4.67296 3.93022 0
M  V30 1170 H 108.569 -2.70072 5.05702 0
M  V30 1171 H 106.966 -2.13374 5.60885 0
M  V30 1172 H 108.036 -1.01802 4.74093 0
M  V30 1173 N 109.379 -1.50304 -0.473955 0
M  V30 1174 C 110.628 -1.60392 -1.22301 0
M  V30 1175 C 110.941 -0.308411 -1.93153 0
M  V30 1176 O 112.147 -0.288156 -2.69966 0
M  V30 1177 C 110.603 -2.83109 -2.2221 0
M  V30 1178 C 110.211 -4.19524 -1.57173 0
M  V30 1179 C 111.955 -3.0254 -2.97775 0
M  V30 1180 C 109.862 -5.33431 -2.55353 0
M  V30 1181 H 108.792 -0.597286 -0.460179 0
M  V30 1182 H 111.443 -1.76731 -0.493803 0
M  V30 1183 H 109.825 -2.60322 -2.9841 0
M  V30 1184 H 110.999 -4.52554 -0.867824 0
M  V30 1185 H 109.314 -4.05674 -0.939002 0
M  V30 1186 H 111.911 -3.84811 -3.71248 0
M  V30 1187 H 112.254 -2.14154 -3.56992 0
M  V30 1188 H 112.787 -3.25494 -2.28688 0
M  V30 1189 H 109.526 -6.23962 -2.00878 0
M  V30 1190 H 109.046 -5.04823 -3.23904 0
M  V30 1191 H 110.725 -5.63887 -3.17239 0
M  V30 1192 N 110.857 0.726932 -1.39834 0
M  V30 1193 C 112.273 1.03354 -1.21615 0
M  V30 1194 C 112.473 2.01327 -0.08338 0
M  V30 1195 O 111.529 2.46158 0.56238 0
M  V30 1196 C 112.842 1.58811 -2.55342 0
M  V30 1197 C 114.39 1.70851 -2.62257 0
M  V30 1198 C 114.865 2.29716 -3.96225 0
M  V30 1199 N 116.356 2.37116 -3.97907 0
M  V30 1200 C 117.091 2.83619 -4.98345 0
M  V30 1201 N 116.587 3.29958 -6.09179 0
M  V30 1202 N 118.38 2.82901 -4.8572 0
M  V30 1203 H 110.531 0.0773069 -2.12259 0
M  V30 1204 H 112.794 0.0969102 -0.943034 0
M  V30 1205 H 112.5 0.942855 -3.38826 0
M  V30 1206 H 112.374 2.57502 -2.75632 0
M  V30 1207 H 114.761 2.34497 -1.79152 0
M  V30 1208 H 114.842 0.707913 -2.45809 0
M  V30 1209 H 114.486 1.66696 -4.79765 0
M  V30 1210 H 114.416 3.30469 -4.09997 0
M  V30 1211 H 116.907 2.04374 -3.17868 0
M  V30 1212 H 117.22 3.63976 -6.8172 0
M  V30 1213 H 115.565 3.27946 -6.12761 0
M  V30 1214 H 118.756 2.46027 -3.98231 0
M  V30 1215 H 118.929 3.18827 -5.6414 0
M  V30 1216 N 112.336 1.25143 0.95797 0
M  V30 1217 C 113.561 1.12521 1.74223 0
M  V30 1218 C 113.986 -0.317402 1.85403 0
M  V30 1219 O 113.344 -1.2299 1.33204 0
M  V30 1220 C 113.392 1.78062 3.1357 0
M  V30 1221 O 112.496 1.058 3.98598 0
M  V30 1222 H 111.837 0.39304 0.535178 0
M  V30 1223 H 114.367 1.65641 1.201 0
M  V30 1224 H 114.377 1.84213 3.64046 0
M  V30 1225 H 113.052 2.83021 3.04749 0
M  V30 1226 H 111.629 1.07506 3.57067 0
M  V30 1227 N 113.814 -1.1601 1.06675 0
M  V30 1228 C 115.06 -1.86909 0.786945 0
M  V30 1229 C 115.393 -1.81717 -0.685018 0
M  V30 1230 O 114.668 -1.23551 -1.50218 0
M  V30 1231 C 114.951 -3.36313 1.28707 0
M  V30 1232 C 114.804 -3.50175 2.82308 0
M  V30 1233 C 116.123 -4.3084 0.898071 0
M  V30 1234 H 113.242 -0.678677 0.287343 0
M  V30 1235 H 115.884 -1.36336 1.32334 0
M  V30 1236 H 114.034 -3.79513 0.830768 0
M  V30 1237 H 115.706 -3.15886 3.36175 0
M  V30 1238 H 113.949 -2.91959 3.20847 0
M  V30 1239 H 114.62 -4.55116 3.12368 0
M  V30 1240 H 117.096 -3.95561 1.29114 0
M  V30 1241 H 115.972 -5.33876 1.27543 0
M  V30 1242 H 116.233 -4.41662 -0.196651 0
M  V30 1243 N 115.292 -0.849877 -1.32721 0
M  V30 1244 C 116.222 -0.306308 -2.31482 0
M  V30 1245 C 117.203 0.591952 -1.59468 0
M  V30 1246 O 118.388 0.513199 -1.87296 0
M  V30 1247 C 115.518 0.510204 -3.43532 0
M  V30 1248 C 114.472 -0.293209 -4.26994 0
M  V30 1249 C 113.798 0.647743 -5.30762 0
M  V30 1250 C 115.098 -1.51634 -4.99804 0
M  V30 1251 H 116.792 -1.13153 -2.77195 0
M  V30 1252 H 114.338 -0.545553 -1.33266 0
M  V30 1253 H 116.291 0.900856 -4.11658 0
M  V30 1254 H 115.015 1.36874 -2.96535 0
M  V30 1255 H 113.674 -0.665555 -3.60508 0
M  V30 1256 H 113.322 1.50299 -4.8002 0
M  V30 1257 H 113.022 0.11422 -5.87489 0
M  V30 1258 H 114.546 1.03567 -6.01753 0
M  V30 1259 H 115.96 -1.19824 -5.60638 0
M  V30 1260 H 114.357 -1.98745 -5.66234 0
M  V30 1261 H 115.427 -2.28018 -4.27943 0
M  V30 1262 N 116.77 1.45427 -0.607355 0
M  V30 1263 C 118.181 1.85756 -0.187535 0
M  V30 1264 C 118.532 1.5077 1.25551 0
M  V30 1265 O 117.657 0.93427 1.95193 0
M  V30 1266 C 118.252 3.37154 -0.333572 0
M  V30 1267 C 116.811 3.76387 0.0315542 0
M  V30 1268 C 115.958 2.69377 -0.658117 0
M  V30 1269 H 118.909 1.36231 -0.81405 0
M  V30 1270 H 118.93 3.78014 0.43428 0
M  V30 1271 H 118.442 3.62586 -1.38393 0
M  V30 1272 H 116.543 3.56571 1.0811 0
M  V30 1273 H 116.656 4.77731 -0.361935 0
M  V30 1274 H 115.02 2.5452 -0.0957873 0
M  V30 1275 H 115.803 2.97646 -1.7106 0
M  V30 1276 N 118.248 0.346503 1.53744 0
M  V30 1277 C 119.211 -0.496439 2.23759 0
M  V30 1278 C 120.211 -1.0252 1.2388 0
M  V30 1279 O 121.401 -0.913974 1.48297 0
M  V30 1280 C 118.533 -1.69187 2.95954 0
M  V30 1281 H 119.726 0.115952 2.99676 0
M  V30 1282 H 117.279 0.0978939 1.55993 0
M  V30 1283 H 118.014 -2.34288 2.24231 0
M  V30 1284 H 117.799 -1.31989 3.69217 0
M  V30 1285 H 119.289 -2.28969 3.49232 0
M  V30 1286 N 119.726 -1.57421 0.075193 0
M  V30 1287 C 120.974 -1.93236 -0.591974 0
M  V30 1288 C 121.295 -0.956241 -1.69944 0
M  V30 1289 O 120.565 -0.00494792 -1.95899 0
M  V30 1290 H 119.145 -0.713355 -0.22166 0
M  V30 1291 H 121.807 -1.9444 0.133848 0
M  V30 1292 H 120.903 -2.95131 -1.01509 0
M  V30 1293 N 121.204 0.198386 -1.56346 0
M  V30 1294 C 122.45 0.916115 -1.81601 0
M  V30 1295 C 122.805 1.81025 -0.651744 0
M  V30 1296 O 122.098 1.88316 0.353229 0
M  V30 1297 C 122.292 1.77031 -3.10475 0
M  V30 1298 C 122.121 0.960365 -4.39326 0
M  V30 1299 C 120.891 0.646093 -5.01152 0
M  V30 1300 C 123.089 0.314628 -5.13337 0
M  V30 1301 N 121.071 -0.182828 -6.13628 0
M  V30 1302 C 122.442 -0.37664 -6.18855 0
M  V30 1303 C 124.497 0.230019 -4.97368 0
M  V30 1304 C 123.2 -1.14445 -7.10137 0
M  V30 1305 C 125.226 -0.524389 -5.89071 0
M  V30 1306 C 124.588 -1.20412 -6.94032 0
M  V30 1307 H 120.687 0.314732 -0.715868 0
M  V30 1308 H 123.271 0.185102 -1.93818 0
M  V30 1309 H 121.442 2.47295 -2.99499 0
M  V30 1310 H 123.174 2.42727 -3.2383 0
M  V30 1311 H 119.929 0.969724 -4.63566 0
M  V30 1312 H 120.353 -0.586802 -6.74452 0
M  V30 1313 H 124.995 0.741184 -4.16253 0
M  V30 1314 H 122.713 -1.66706 -7.90718 0
M  V30 1315 H 126.299 -0.591167 -5.78789 0
M  V30 1316 H 125.179 -1.77853 -7.63766 0
M  V30 1317 N 122.682 1.50554 0.465978 0
M  V30 1318 C 123.929 1.61798 1.21768 0
M  V30 1319 C 124.257 0.320696 1.91838 0
M  V30 1320 O 123.512 -0.693724 1.82992 0
M  V30 1321 C 123.811 2.75152 2.28093 0
M  V30 1322 C 123.477 4.15454 1.75239 0
M  V30 1323 C 122.139 4.53628 1.60546 0
M  V30 1324 C 124.491 5.03121 1.36083 0
M  V30 1325 C 121.819 5.77204 1.05128 0
M  V30 1326 C 124.171 6.27249 0.821056 0
M  V30 1327 C 122.835 6.64221 0.660795 0
M  V30 1328 H 122.105 0.592063 0.445582 0
M  V30 1329 H 124.752 1.84503 0.512927 0
M  V30 1330 H 123.057 2.46556 3.04496 0
M  V30 1331 H 124.754 2.81055 2.86023 0
M  V30 1332 H 121.344 3.85341 1.87644 0
M  V30 1333 H 125.528 4.74257 1.46267 0
M  V30 1334 H 120.784 6.0452 0.91462 0
M  V30 1335 H 124.958 6.94537 0.509018 0
M  V30 1336 H 122.585 7.59854 0.229226 0
M  V30 1337 N 124.16 -0.719506 1.40217 0
M  V30 1338 C 125.409 -1.47486 1.37589 0
M  V30 1339 C 125.722 -1.9559 -0.0201568 0
M  V30 1340 O 126.928 -2.70973 -0.169049 0
M  V30 1341 C 125.384 -2.66575 2.41796 0
M  V30 1342 C 124.992 -2.25358 3.87192 0
M  V30 1343 C 126.736 -3.4433 2.48269 0
M  V30 1344 C 124.643 -3.41262 4.83005 0
M  V30 1345 H 123.573 -0.553901 0.511576 0
M  V30 1346 H 126.224 -0.783427 1.65936 0
M  V30 1347 H 124.606 -3.3787 2.06543 0
M  V30 1348 H 125.78 -1.61509 4.31569 0
M  V30 1349 H 124.095 -1.60657 3.84159 0
M  V30 1350 H 126.692 -4.30569 3.17041 0
M  V30 1351 H 127.035 -3.87872 1.51198 0
M  V30 1352 H 127.568 -2.80076 2.82493 0
M  V30 1353 H 124.307 -3.02755 5.81394 0
M  V30 1354 H 123.827 -4.0404 4.43297 0
M  V30 1355 H 125.506 -4.07383 5.02641 0
M  V30 1356 N 125.638 -1.25649 -0.95132 0
M  V30 1357 C 126.601 -1.06399 -2.03007 0
M  V30 1358 C 127.601 -0.0156794 -1.60792 0
M  V30 1359 O 128.791 -0.25817 -1.72276 0
M  V30 1360 C 125.923 -0.616184 -3.35285 0
M  V30 1361 H 127.116 -2.02164 -2.21517 0
M  V30 1362 H 124.669 -1.08103 -1.12887 0
M  V30 1363 H 125.404 0.343917 -3.22471 0
M  V30 1364 H 125.189 -1.37301 -3.67275 0
M  V30 1365 H 126.679 -0.503032 -4.14559 0
M  V30 1366 N 127.117 1.15442 -1.07289 0
M  V30 1367 C 128.394 1.82306 -0.708792 0
M  V30 1368 C 128.774 1.94991 0.808807 0
M  V30 1369 O 128.122 1.50085 1.72298 0
M  V30 1370 C 128.332 3.18695 -1.42247 0
M  V30 1371 C 129.68 3.94341 -1.57417 0
M  V30 1372 O 130.704 3.28247 -1.38319 0
M  V30 1373 O 129.563 5.12839 -1.88834 0
M  V30 1374 H 126.657 0.787628 -0.252132 0
M  V30 1375 H 129.203 1.22559 -1.17377 0
M  V30 1376 H 127.975 3.04557 -2.45684 0
M  V30 1377 H 127.598 3.86128 -0.948223 0
M  V30 1378 N 128.595 0.856903 1.32268 0
M  V30 1379 C 129.542 0.301172 2.28827 0
M  V30 1380 C 130.512 -0.593104 1.5515 0
M  V30 1381 O 131.697 -0.527537 1.83362 0
M  V30 1382 C 128.837 -0.502523 3.41422 0
M  V30 1383 C 127.95 0.417797 4.29975 0
M  V30 1384 C 127.085 -0.398749 5.29701 0
M  V30 1385 C 126.124 0.518827 6.09897 0
M  V30 1386 N 125.261 -0.260674 7.01616 0
M  V30 1387 H 130.101 1.12983 2.75751 0
M  V30 1388 H 127.638 0.568582 1.35667 0
M  V30 1389 H 129.596 -0.984141 4.05426 0
M  V30 1390 H 128.226 -1.29599 2.95642 0
M  V30 1391 H 127.278 1.01781 3.66531 0
M  V30 1392 H 128.59 1.12191 4.86019 0
M  V30 1393 H 127.744 -0.943435 5.9932 0
M  V30 1394 H 126.483 -1.13622 4.7428 0
M  V30 1395 H 125.488 1.07538 5.39181 0
M  V30 1396 H 126.713 1.25495 6.67404 0
M  V30 1397 H 124.659 -0.981198 6.4862 0
M  V30 1398 H 124.576 0.384364 7.55022 0
M  V30 1399 H 125.844 -0.787014 7.75517 0
M  V30 1400 N 130.073 -1.45103 0.615059 0
M  V30 1401 C 131.301 -2.06553 0.11977 0
M  V30 1402 C 131.716 -1.45842 -1.19898 0
M  V30 1403 O 131.073 -0.575325 -1.73194 0
M  V30 1404 C 131.124 -3.61495 -0.018364 0
M  V30 1405 O 130.845 -4.19942 1.24822 0
M  V30 1406 C 132.346 -4.39947 -0.544237 0
M  V30 1407 H 129.566 -0.667096 0.0722739 0
M  V30 1408 H 132.11 -1.8623 0.84491 0
M  V30 1409 H 130.265 -3.81135 -0.693865 0
M  V30 1410 H 130.679 -5.13204 1.0827 0
M  V30 1411 H 132.153 -5.48838 -0.589953 0
M  V30 1412 H 132.63 -4.10255 -1.56805 0
M  V30 1413 H 133.236 -4.25188 0.0974703 0
M  V30 1414 N 131.551 -0.354651 -1.53558 0
M  V30 1415 C 132.799 0.237972 -2.00694 0
M  V30 1416 C 133.12 1.50173 -1.24391 0
M  V30 1417 O 132.39 1.92673 -0.354135 0
M  V30 1418 H 130.97 0.0909256 -0.741446 0
M  V30 1419 H 133.632 -0.478368 -1.88938 0
M  V30 1420 H 132.728 0.47264 -3.085 0
M  V30 1421 N 133.029 1.57378 -0.0835403 0
M  V30 1422 C 133.992 2.12252 0.864959 0
M  V30 1423 C 134.992 1.04916 1.21858 0
M  V30 1424 O 136.182 1.30853 1.14991 0
M  V30 1425 C 133.314 2.63358 2.16461 0
M  V30 1426 H 134.507 2.97371 0.388676 0
M  V30 1427 H 132.06 1.55423 0.165317 0
M  V30 1428 H 132.795 1.81727 2.686 0
M  V30 1429 H 132.58 3.41826 1.92087 0
M  V30 1430 H 134.07 3.05847 2.84337 0
M  V30 1431 N 134.507 -0.190092 1.56449 0
M  V30 1432 C 135.732 -0.929864 1.85387 0
M  V30 1433 C 136.157 -1.7585 0.667704 0
M  V30 1434 O 135.515 -1.77198 -0.383459 0
M  V30 1435 C 135.563 -1.79773 3.12593 0
M  V30 1436 O 134.667 -2.89713 2.93496 0
M  V30 1437 H 134.008 -0.261574 0.610307 0
M  V30 1438 H 136.538 -0.193896 2.03679 0
M  V30 1439 H 136.548 -2.20139 3.43515 0
M  V30 1440 H 135.223 -1.18892 3.98544 0
M  V30 1441 H 133.8 -2.53065 2.73884 0
M  V30 1442 N 135.985 -1.50799 -0.457987 0
M  V30 1443 C 136.932 -1.70617 -1.5543 0
M  V30 1444 C 137.902 -0.547562 -1.56815 0
M  V30 1445 O 139.087 -0.779647 -1.74144 0
M  V30 1446 C 136.227 -1.81831 -2.93311 0
M  V30 1447 C 135.34 -3.09278 -3.01615 0
M  V30 1448 C 134.475 -3.11209 -4.30491 0
M  V30 1449 C 133.514 -4.33055 -4.32585 0
M  V30 1450 N 132.651 -4.32652 -5.52952 0
M  V30 1451 H 137.491 -2.64207 -1.37836 0
M  V30 1452 H 135.028 -1.30959 -0.669937 0
M  V30 1453 H 136.986 -1.86314 -3.73287 0
M  V30 1454 H 135.616 -0.916685 -3.0951 0
M  V30 1455 H 134.668 -3.14203 -2.1443 0
M  V30 1456 H 135.98 -3.99233 -2.99022 0
M  V30 1457 H 135.134 -3.14494 -5.18824 0
M  V30 1458 H 133.873 -2.19106 -4.35711 0
M  V30 1459 H 132.878 -4.29969 -3.42647 0
M  V30 1460 H 134.103 -5.264 -4.29046 0
M  V30 1461 H 132.049 -3.43409 -5.58933 0
M  V30 1462 H 131.966 -5.16392 -5.52155 0
M  V30 1463 H 133.234 -4.40101 -6.43375 0
M  V30 1464 N 137.463 0.71206 -1.40597 0
M  V30 1465 C 138.879 1.02058 -1.22704 0
M  V30 1466 C 139.079 2.01228 -0.104729 0
M  V30 1467 O 138.135 2.4674 0.53624 0
M  V30 1468 C 139.448 1.56094 -2.57012 0
M  V30 1469 C 140.996 1.6806 -2.64054 0
M  V30 1470 C 141.471 2.25501 -3.9864 0
M  V30 1471 N 142.962 2.32882 -4.004 0
M  V30 1472 C 143.697 2.78317 -5.01325 0
M  V30 1473 N 143.193 3.23478 -6.12645 0
M  V30 1474 N 144.986 2.77733 -4.88693 0
M  V30 1475 H 137.137 0.0547896 -2.12329 0
M  V30 1476 H 139.4 0.0869027 -0.944008 0
M  V30 1477 H 139.106 0.906865 -3.39807 0
M  V30 1478 H 138.98 2.54564 -2.78347 0
M  V30 1479 H 141.367 2.32583 -1.81629 0
M  V30 1480 H 141.448 0.681802 -2.46546 0
M  V30 1481 H 141.092 1.61598 -4.81506 0
M  V30 1482 H 141.022 3.26102 -4.13479 0
M  V30 1483 H 143.513 2.00991 -3.20017 0
M  V30 1484 H 143.826 3.56725 -6.85542 0
M  V30 1485 H 142.171 3.21429 -6.16205 0
M  V30 1486 H 145.362 2.4179 -4.00818 0
M  V30 1487 H 145.535 3.12826 -5.67489 0
M  V30 1488 N 138.941 1.26152 0.944643 0
M  V30 1489 C 140.189 1.11271 1.6871 0
M  V30 1490 C 140.51 -0.345166 1.91921 0
M  V30 1491 O 139.78 -1.24387 1.51343 0
M  V30 1492 H 138.36 0.408783 0.625224 0
M  V30 1493 H 141.022 1.58427 1.1352 0
M  V30 1494 H 140.118 1.62879 2.66227 0
M  V30 1495 N 140.419 -1.14872 1.07899 0
M  V30 1496 C 141.382 -2.17986 0.708161 0
M  V30 1497 C 142.382 -1.58775 -0.25442 0
M  V30 1498 O 143.572 -1.74166 -0.034645 0
M  V30 1499 C 140.704 -3.40871 0.0446929 0
M  V30 1500 H 141.897 -2.52306 1.62116 0
M  V30 1501 H 139.45 -1.2943 0.876218 0
M  V30 1502 H 140.185 -3.12124 -0.880281 0
M  V30 1503 H 139.97 -3.8511 0.737091 0
M  V30 1504 H 141.46 -4.17121 -0.19991 0
M  V30 1505 N 141.898 -0.863906 -1.31812 0
M  V30 1506 C 143.314 -0.555004 -1.49639 0
M  V30 1507 C 143.514 0.912266 -1.79666 0
M  V30 1508 O 142.57 1.69479 -1.87171 0
M  V30 1509 C 143.883 -1.44998 -2.63431 0
M  V30 1510 C 145.431 -1.45138 -2.77316 0
M  V30 1511 C 145.906 -2.33179 -3.94197 0
M  V30 1512 N 147.397 -2.31025 -4.01474 0
M  V30 1513 C 148.132 -2.95871 -4.9117 0
M  V30 1514 N 147.628 -3.69863 -5.8581 0
M  V30 1515 N 149.421 -2.85211 -4.84367 0
M  V30 1516 H 141.572 -1.81339 -1.10589 0
M  V30 1517 H 143.835 -0.77505 -0.545895 0
M  V30 1518 H 143.541 -2.49377 -2.48 0
M  V30 1519 H 143.415 -1.14409 -3.59431 0
M  V30 1520 H 145.802 -0.415201 -2.92164 0
M  V30 1521 H 145.883 -1.79747 -1.82001 0
M  V30 1522 H 145.527 -3.3687 -3.80107 0
M  V30 1523 H 145.457 -1.95897 -4.88807 0
M  V30 1524 H 147.948 -1.77238 -3.33759 0
M  V30 1525 H 148.261 -4.16486 -6.50968 0
M  V30 1526 H 146.606 -3.73971 -5.85808 0
M  V30 1527 H 149.797 -2.26948 -4.09405 0
M  V30 1528 H 149.97 -3.36027 -5.54066 0
M  V30 1529 N 143.376 1.44774 -0.622745 0
M  V30 1530 C 144.624 2.01721 -0.123655 0
M  V30 1531 C 144.945 1.49172 1.25589 0
M  V30 1532 O 144.215 0.691974 1.83272 0
M  V30 1533 H 142.795 0.745777 -0.0427225 0
M  V30 1534 H 145.457 1.77382 -0.807559 0
M  V30 1535 H 144.553 3.11984 -0.0849534 0
M  V30 1536 N 144.854 0.36279 1.53368 0
M  V30 1537 C 146.103 -0.22888 2.00397 0
M  V30 1538 C 146.416 -1.50096 1.25421 0
M  V30 1539 O 147.622 -2.17106 1.63025 0
M  V30 1540 C 146.078 -0.458417 3.56969 0
M  V30 1541 C 145.686 0.798877 4.4082 0
M  V30 1542 C 147.43 -1.00789 4.12361 0
M  V30 1543 C 145.337 0.539078 5.88938 0
M  V30 1544 H 144.267 -0.089305 0.748693 0
M  V30 1545 H 146.918 0.481099 1.77081 0
M  V30 1546 H 145.3 -1.22959 3.76427 0
M  V30 1547 H 146.474 1.57262 4.33134 0
M  V30 1548 H 144.789 1.27137 3.96516 0
M  V30 1549 H 147.386 -1.21754 5.20653 0
M  V30 1550 H 147.729 -1.9692 3.66781 0
M  V30 1551 H 148.262 -0.296961 3.9669 0
M  V30 1552 H 145.001 1.47064 6.3879 0
M  V30 1553 H 144.521 -0.196222 5.99479 0
M  V30 1554 H 146.2 0.163542 6.46793 0
M  V30 1555 N 146.332 -1.57332 0.0918853 0
M  V30 1556 C 147.578 -1.94524 -0.573425 0
M  V30 1557 C 147.911 -0.973578 -1.68033 0
M  V30 1558 O 147.186 -0.00609226 -1.94499 0
M  V30 1559 C 147.469 -3.41858 -1.13161 0
M  V30 1560 C 147.322 -4.4979 -0.0299747 0
M  V30 1561 C 148.641 -3.90435 -2.03098 0
M  V30 1562 H 145.76 -0.70734 -0.206975 0
M  V30 1563 H 148.402 -1.89309 0.161942 0
M  V30 1564 H 146.552 -3.46433 -1.7583 0
M  V30 1565 H 148.224 -4.57327 0.604112 0
M  V30 1566 H 146.467 -4.291 0.636833 0
M  V30 1567 H 147.138 -5.50069 -0.461287 0
M  V30 1568 H 149.614 -3.87992 -1.50338 0
M  V30 1569 H 148.49 -4.94097 -2.39081 0
M  V30 1570 H 148.751 -3.29541 -2.94712 0
M  V30 1571 N 147.81 0.181792 -1.56548 0
M  V30 1572 C 148.773 1.20894 -1.94724 0
M  V30 1573 C 149.773 1.37738 -0.829747 0
M  V30 1574 O 150.963 1.35323 -1.09697 0
M  V30 1575 C 148.095 2.57593 -2.23291 0
M  V30 1576 H 149.288 0.882275 -2.86629 0
M  V30 1577 H 146.841 0.423838 -1.50444 0
M  V30 1578 H 147.576 2.95291 -1.34067 0
M  V30 1579 H 147.361 2.46735 -3.04736 0
M  V30 1580 H 148.851 3.31637 -2.53785 0
M  V30 1581 N 149.288 1.51039 0.449983 0
M  V30 1582 C 150.218 1.74379 1.55288 0
M  V30 1583 C 151.199 0.593236 1.5942 0
M  V30 1584 O 152.384 0.834625 1.7535 0
M  V30 1585 C 149.514 1.85728 2.93466 0
M  V30 1586 C 148.468 3.01078 3.04197 0
M  V30 1587 C 147.794 2.97595 4.44231 0
M  V30 1588 C 149.094 4.41254 2.7945 0
M  V30 1589 H 150.788 2.66725 1.36008 0
M  V30 1590 H 148.334 1.2835 0.652864 0
M  V30 1591 H 150.287 2.0064 3.70569 0
M  V30 1592 H 149.011 0.900207 3.13949 0
M  V30 1593 H 147.67 2.85851 2.29531 0
M  V30 1594 H 147.318 1.99691 4.61663 0
M  V30 1595 H 147.018 3.75046 4.52343 0
M  V30 1596 H 148.542 3.14583 5.23326 0
M  V30 1597 H 149.956 4.56897 3.46292 0
M  V30 1598 H 148.353 5.20315 2.98985 0
M  V30 1599 H 149.423 4.52164 1.75144 0
M  V30 1600 N 150.766 -0.704594 1.40972 0
M  V30 1601 C 151.696 -1.83124 1.44872 0
M  V30 1602 C 152.677 -1.67281 0.30838 0
M  V30 1603 O 153.862 -1.87149 0.518556 0
M  V30 1604 C 150.992 -3.21181 1.32136 0
M  V30 1605 C 149.946 -3.51714 2.43888 0
M  V30 1606 C 149.272 -4.89032 2.16222 0
M  V30 1607 C 150.572 -3.516 3.86232 0
M  V30 1608 H 152.266 -1.80117 2.39161 0
M  V30 1609 H 149.812 -0.865145 1.15114 0
M  V30 1610 H 151.765 -3.99702 1.33479 0
M  V30 1611 H 150.489 -3.24791 0.343279 0
M  V30 1612 H 149.148 -2.75539 2.41813 0
M  V30 1613 H 148.796 -4.89256 1.16778 0
M  V30 1614 H 148.496 -5.10426 2.911 0
M  V30 1615 H 150.02 -5.69873 2.19265 0
M  V30 1616 H 151.434 -4.2014 3.9007 0
M  V30 1617 H 149.831 -3.84523 4.60719 0
M  V30 1618 H 150.901 -2.50757 4.15029 0
M  V30 1619 N 152.244 -1.26651 -0.937939 0
M  V30 1620 C 153.492 -1.12165 -1.68118 0
M  V30 1621 C 153.813 0.334983 -1.92101 0
M  V30 1622 O 153.083 1.23583 -1.52 0
M  V30 1623 H 151.663 -0.412093 -0.623048 0
M  V30 1624 H 154.325 -1.59027 -1.12678 0
M  V30 1625 H 153.421 -1.64289 -2.6536 0
M  V30 1626 N 153.722 1.14298 -1.08507 0
M  V30 1627 C 155.133 1.66926 -0.836227 0
M  V30 1628 C 155.484 1.85576 0.63686 0
M  V30 1629 O 154.609 1.56767 1.49175 0
M  V30 1630 C 155.204 3.03219 -1.51142 0
M  V30 1631 C 153.763 3.52876 -1.30979 0
M  V30 1632 C 152.91 2.2833 -1.57356 0
M  V30 1633 H 155.861 0.983491 -1.24552 0
M  V30 1634 H 155.882 3.68726 -0.939211 0
M  V30 1635 H 155.394 2.89612 -2.58353 0
M  V30 1636 H 153.495 3.71703 -0.258429 0
M  V30 1637 H 153.608 4.33586 -2.03814 0
M  V30 1638 H 151.972 2.34454 -0.995164 0
M  V30 1639 H 152.755 2.17298 -2.65775 0
M  V30 1640 N 155.201 0.870884 1.31352 0
M  V30 1641 C 156.149 0.316445 2.30437 0
M  V30 1642 C 157.143 -0.568965 1.59559 0
M  V30 1643 O 158.349 -0.454964 1.74155 0
M  V30 1644 H 154.724 0.0836521 0.747333 0
M  V30 1645 H 156.695 1.16606 2.74673 0
M  V30 1646 C 155.444 -0.46635 3.44558 0
M  V30 1647 H 154.767 0.205687 3.99271 0
M  V30 1648 H 156.207 -0.819614 4.16003 0
M  V30 1649 C 154.666 -1.65797 2.9328 0
M  V30 1650 O 155.196 -2.75728 2.92125 0
M  V30 1651 N 153.402 -1.49041 2.4947 0
M  V30 1652 H 152.949 -0.59612 2.50608 0
M  V30 1653 H 152.907 -2.28911 2.15516 0
M  V30 1654 N 156.679 -1.44442 0.630414 0
M  V30 1655 C 157.627 -2.32437 -0.0871428 0
M  V30 1656 C 158.621 -1.47304 -0.836525 0
M  V30 1657 O 159.827 -1.63653 -0.749506 0
M  V30 1658 H 156.202 -0.750533 -0.0469495 0
M  V30 1659 H 158.173 -2.90709 0.673096 0
M  V30 1660 C 156.922 -3.31288 -1.05563 0
M  V30 1661 H 156.245 -3.96805 -0.488426 0
M  V30 1662 H 157.685 -3.9554 -1.52721 0
M  V30 1663 C 156.144 -2.6016 -2.14052 0
M  V30 1664 O 156.674 -2.39997 -3.22124 0
M  V30 1665 N 154.88 -2.19911 -1.89967 0
M  V30 1666 H 154.427 -2.36509 -1.02085 0
M  V30 1667 H 154.385 -1.72646 -2.62756 0
M  V30 1668 N 158.157 -0.370918 -1.53173 0
M  V30 1669 C 159.104 0.473035 -2.259 0
M  V30 1670 C 160.074 1.07311 -1.26781 0
M  V30 1671 O 161.259 1.1046 -1.55574 0
M  V30 1672 C 158.399 1.60405 -3.05556 0
M  V30 1673 C 157.512 1.02863 -4.19575 0
M  V30 1674 C 156.647 2.12918 -4.86661 0
M  V30 1675 C 155.686 1.52869 -5.92704 0
M  V30 1676 N 154.823 2.56779 -6.53459 0
M  V30 1677 H 159.663 -0.153649 -2.97604 0
M  V30 1678 H 157.2 -0.0875946 -1.46839 0
M  V30 1679 H 159.158 2.27034 -3.50016 0
M  V30 1680 H 157.788 2.20131 -2.36097 0
M  V30 1681 H 156.84 0.252465 -3.79561 0
M  V30 1682 H 158.152 0.549642 -4.95762 0
M  V30 1683 H 157.306 2.87356 -5.34333 0
M  V30 1684 H 156.045 2.6417 -4.09958 0
M  V30 1685 H 155.05 0.769479 -5.44389 0
M  V30 1686 H 156.275 1.02435 -6.7133 0
M  V30 1687 H 154.221 3.07235 -5.79606 0
M  V30 1688 H 154.138 2.13583 -7.25202 0
M  V30 1689 H 155.406 3.30903 -7.05779 0
M  V30 1690 N 159.635 1.57281 -0.100228 0
M  V30 1691 C 160.598 2.13158 0.842398 0
M  V30 1692 C 161.598 1.06202 1.20738 0
M  V30 1693 O 162.788 1.32066 1.13597 0
M  V30 1694 C 159.92 2.65639 2.13655 0
M  V30 1695 H 161.113 2.97766 0.357114 0
M  V30 1696 H 158.666 1.5559 0.148823 0
M  V30 1697 H 159.401 1.84566 2.66657 0
M  V30 1698 H 159.186 3.43844 1.88451 0
M  V30 1699 H 160.676 3.08846 2.81077 0
M  V30 1700 N 161.113 -0.173488 1.56642 0
M  V30 1701 C 162.023 -1.23482 1.99473 0
M  V30 1702 C 163.039 -1.48567 0.905752 0
M  V30 1703 O 164.215 -1.60758 1.21321 0
M  V30 1704 C 161.28 -2.55444 2.34413 0
M  V30 1705 C 160.341 -2.38241 3.57127 0
M  V30 1706 C 159.574 -3.63909 3.90392 0
M  V30 1707 O 159.797 -4.68996 3.24653 0
M  V30 1708 O 158.731 -3.58149 4.83749 0
M  V30 1709 H 162.557 -0.901279 2.90018 0
M  V30 1710 H 160.142 -0.380185 1.44482 0
M  V30 1711 H 162.024 -3.33292 2.57865 0
M  V30 1712 H 160.699 -2.88382 1.4703 0
M  V30 1713 H 159.606 -1.58431 3.38896 0
M  V30 1714 H 160.939 -2.10228 4.45045 0
M  V30 1715 N 162.591 -1.51276 -0.441967 0
M  V30 1716 C 164.007 -1.39349 -0.778083 0
M  V30 1717 C 164.207 -0.472212 -1.95889 0
M  V30 1718 O 163.263 0.0743551 -2.5239 0
M  V30 1719 C 164.576 -2.81292 -1.0628 0
M  V30 1720 C 166.124 -2.9041 -1.16751 0
M  V30 1721 C 166.599 -4.33251 -1.48519 0
M  V30 1722 N 168.09 -4.36336 -1.55453 0
M  V30 1723 C 168.825 -5.43885 -1.81596 0
M  V30 1724 N 168.321 -6.61601 -2.05562 0
M  V30 1725 N 170.114 -5.3136 -1.8334 0
M  V30 1726 H 162.265 -2.09729 0.335774 0
M  V30 1727 H 164.528 -0.943925 0.0878028 0
M  V30 1728 H 164.234 -3.50678 -0.267905 0
M  V30 1729 H 164.108 -3.20334 -1.99163 0
M  V30 1730 H 166.495 -2.21225 -1.95304 0
M  V30 1731 H 166.576 -2.54871 -0.217801 0
M  V30 1732 H 166.22 -5.02984 -0.704958 0
M  V30 1733 H 166.15 -4.66299 -2.44689 0
M  V30 1734 H 168.641 -3.51466 -1.38853 0
M  V30 1735 H 168.954 -7.39361 -2.24867 0
M  V30 1736 H 167.299 -6.64725 -2.02894 0
M  V30 1737 H 170.49 -4.38382 -1.64132 0
M  V30 1738 H 170.663 -6.15258 -2.03377 0
M  V30 1739 N 164.069 0.697108 -1.41344 0
M  V30 1740 C 165.318 1.45279 -1.39918 0
M  V30 1741 C 165.631 1.95597 -0.0109624 0
M  V30 1742 O 166.837 2.71208 0.125919 0
M  V30 1743 C 165.293 2.62695 -2.46007 0
M  V30 1744 C 164.901 2.19169 -3.90729 0
M  V30 1745 C 166.645 3.40336 -2.53715 0
M  V30 1746 C 164.552 3.33535 -4.88373 0
M  V30 1747 H 163.482 0.545692 -0.520323 0
M  V30 1748 H 166.133 0.756929 -1.67161 0
M  V30 1749 H 164.515 3.34541 -2.11892 0
M  V30 1750 H 165.689 1.54623 -4.34083 0
M  V30 1751 H 164.004 1.54525 -3.86666 0
M  V30 1752 H 166.601 4.2547 -3.2385 0
M  V30 1753 H 166.944 3.85418 -1.5735 0
M  V30 1754 H 167.477 2.75546 -2.86913 0
M  V30 1755 H 164.216 2.93468 -5.86137 0
M  V30 1756 H 163.736 3.96936 -4.49668 0
M  V30 1757 H 165.415 3.99335 -5.09059 0
M  V30 1758 N 165.547 1.27147 0.931209 0
M  V30 1759 C 166.793 1.13446 1.68101 0
M  V30 1760 C 167.126 -0.319628 1.91552 0
M  V30 1761 O 166.401 -1.23407 1.50336 0
M  V30 1762 C 166.684 1.91482 3.0497 0
M  V30 1763 C 166.537 3.44855 2.88782 0
M  V30 1764 C 167.856 1.71651 4.05246 0
M  V30 1765 H 164.975 0.413498 0.610072 0
M  V30 1766 H 167.617 1.56261 1.08086 0
M  V30 1767 H 165.767 1.55095 3.56199 0
M  V30 1768 H 167.439 3.9105 2.44698 0
M  V30 1769 H 165.682 3.71373 2.24198 0
M  V30 1770 H 166.353 3.94694 3.85902 0
M  V30 1771 H 168.829 2.0337 3.63015 0
M  V30 1772 H 167.705 2.28651 4.99009 0
M  V30 1773 H 167.966 0.663555 4.37092 0
M  V30 1774 N 167.025 -1.13721 1.09112 0
M  V30 1775 C 168.271 -1.85198 0.826414 0
M  V30 1776 C 168.604 -1.83129 -0.646319 0
M  V30 1777 O 167.879 -1.2671 -1.47563 0
M  V30 1778 C 168.162 -3.33507 1.35812 0
M  V30 1779 C 168.015 -3.44108 2.89672 0
M  V30 1780 C 169.334 -4.28838 0.989256 0
M  V30 1781 H 166.453 -0.67243 0.301675 0
M  V30 1782 H 169.095 -1.33499 1.35197 0
M  V30 1783 H 167.245 -3.77666 0.911082 0
M  V30 1784 H 168.917 -3.08684 3.428 0
M  V30 1785 H 167.16 -2.85087 3.26967 0
M  V30 1786 H 167.831 -4.48388 3.21951 0
M  V30 1787 H 170.307 -3.92734 1.37475 0
M  V30 1788 H 169.183 -5.31051 1.38838 0
M  V30 1789 H 169.444 -4.4198 -0.102924 0
M  V30 1790 N 168.503 -0.877838 -1.30888 0
M  V30 1791 C 169.752 -0.488793 -1.95688 0
M  V30 1792 C 170.065 0.965485 -1.70111 0
M  V30 1793 O 171.271 1.46104 -2.28836 0
M  V30 1794 C 169.727 -0.823201 -3.50359 0
M  V30 1795 C 169.335 -2.29477 -3.84765 0
M  V30 1796 C 171.079 -0.503009 -4.21509 0
M  V30 1797 C 168.986 -2.57118 -5.32583 0
M  V30 1798 H 167.916 -0.179062 -0.732429 0
M  V30 1799 H 170.567 -1.07183 -1.48943 0
M  V30 1800 H 168.949 -0.169331 -3.95638 0
M  V30 1801 H 170.123 -2.99236 -3.5042 0
M  V30 1802 H 168.438 -2.58178 -3.267 0
M  V30 1803 H 171.035 -0.68665 -5.30273 0
M  V30 1804 H 171.378 0.557109 -4.12555 0
M  V30 1805 H 171.911 -1.11376 -3.8189 0
M  V30 1806 H 168.65 -3.61843 -5.4658 0
M  V30 1807 H 168.17 -1.91961 -5.68253 0
M  V30 1808 H 169.849 -2.42251 -5.99936 0
M  V30 1809 N 169.982 1.44106 -0.638065 0
M  V30 1810 C 171.212 2.06037 -0.152394 0
M  V30 1811 C 171.62 1.47808 1.18108 0
M  V30 1812 O 170.963 0.598092 1.73691 0
M  V30 1813 C 171.025 3.59488 0.0293714 0
M  V30 1814 C 170.689 4.4022 -1.22702 0
M  V30 1815 C 171.686 4.73256 -2.15232 0
M  V30 1816 C 169.371 4.8048 -1.46437 0
M  V30 1817 C 171.365 5.45444 -3.29802 0
M  V30 1818 C 169.052 5.52417 -2.61303 0
M  V30 1819 C 170.05 5.84819 -3.52811 0
M  V30 1820 O 169.738 6.55289 -4.65673 0
M  V30 1821 H 169.47 0.671233 -0.0801401 0
M  V30 1822 H 172.024 1.85851 -0.874563 0
M  V30 1823 H 170.254 3.78191 0.806758 0
M  V30 1824 H 171.943 4.03164 0.470475 0
M  V30 1825 H 172.709 4.42684 -1.98131 0
M  V30 1826 H 168.588 4.54676 -0.760977 0
M  V30 1827 H 172.132 5.70653 -4.01249 0
M  V30 1828 H 168.029 5.82404 -2.78344 0
M  V30 1829 H 168.797 6.73762 -4.64744 0
M  V30 1830 N 171.46 0.379036 1.52974 0
M  V30 1831 C 172.39 -0.452706 2.29069 0
M  V30 1832 C 173.371 -1.07237 1.32039 0
M  V30 1833 O 174.556 -1.08708 1.60923 0
M  V30 1834 C 171.686 -1.5856 3.08992 0
M  V30 1835 C 170.64 -1.0925 4.13822 0
M  V30 1836 C 169.966 -2.31668 4.81907 0
M  V30 1837 C 171.266 -0.167702 5.22031 0
M  V30 1838 H 172.96 0.182181 2.98845 0
M  V30 1839 H 170.506 0.0890592 1.43724 0
M  V30 1840 H 172.459 -2.1742 3.6098 0
M  V30 1841 H 171.183 -2.24792 2.36931 0
M  V30 1842 H 169.842 -0.526494 3.628 0
M  V30 1843 H 169.49 -2.96386 4.06404 0
M  V30 1844 H 169.19 -1.9934 5.52754 0
M  V30 1845 H 170.714 -2.91189 5.36695 0
M  V30 1846 H 172.128 -0.664186 5.6944 0
M  V30 1847 H 170.525 0.0653265 6.00064 0
M  V30 1848 H 171.595 0.786347 4.78482 0
M  V30 1849 N 172.938 -1.57226 0.108567 0
M  V30 1850 C 174.354 -1.5766 -0.248058 0
M  V30 1851 C 174.554 -1.12063 -1.67464 0
M  V30 1852 O 173.61 -0.803236 -2.39383 0
M  V30 1853 C 174.923 -3.0069 -0.0242287 0
M  V30 1854 C 176.471 -3.12868 -0.0909372 0
M  V30 1855 C 176.946 -4.57879 0.105067 0
M  V30 1856 N 178.437 -4.63172 0.0506846 0
M  V30 1857 C 179.172 -5.73126 0.177396 0
M  V30 1858 N 178.668 -6.91866 0.359696 0
M  V30 1859 N 180.461 -5.61977 0.117709 0
M  V30 1860 H 172.612 -1.85169 1.04049 0
M  V30 1861 H 174.875 -0.85529 0.40888 0
M  V30 1862 H 174.581 -3.38299 0.961604 0
M  V30 1863 H 174.455 -3.6945 -0.76068 0
M  V30 1864 H 176.842 -2.75124 -1.06729 0
M  V30 1865 H 176.923 -2.46672 0.677225 0
M  V30 1866 H 176.567 -4.96321 1.07834 0
M  V30 1867 H 176.497 -5.22153 -0.682954 0
M  V30 1868 H 178.988 -3.778 -0.0871266 0
M  V30 1869 H 179.301 -7.71503 0.447529 0
M  V30 1870 H 177.646 -6.93874 0.395536 0
M  V30 1871 H 180.837 -4.68094 -0.0236741 0
M  V30 1872 H 181.01 -6.47627 0.219905 0
M  V30 1873 N 174.416 0.165178 -1.56732 0
M  V30 1874 C 175.693 0.908443 -1.73224 0
M  V30 1875 C 176.073 2.0013 -0.67165 0
M  V30 1876 O 175.421 2.26353 0.31253 0
M  V30 1877 C 175.631 1.46756 -3.16644 0
M  V30 1878 C 176.979 1.93809 -3.77787 0
M  V30 1879 O 178.003 1.56537 -3.1996 0
M  V30 1880 O 176.862 2.62486 -4.79336 0
M  V30 1881 H 173.956 0.428025 -0.707618 0
M  V30 1882 H 176.502 0.152526 -1.69013 0
M  V30 1883 H 175.274 0.68129 -3.85323 0
M  V30 1884 H 174.897 2.28749 -3.25207 0
M  V30 1885 N 175.894 1.51508 0.433938 0
M  V30 1886 C 177.122 1.68157 1.20543 0
M  V30 1887 C 177.537 0.380362 1.84929 0
M  V30 1888 O 176.894 -0.641446 1.70856 0
M  V30 1889 C 176.945 2.79965 2.28696 0
M  V30 1890 O 176.666 4.05045 1.66943 0
M  V30 1891 C 178.167 3.07912 3.18912 0
M  V30 1892 H 175.387 0.56421 0.363191 0
M  V30 1893 H 177.931 1.97941 0.513754 0
M  V30 1894 H 176.086 2.5277 2.93574 0
M  V30 1895 H 176.5 4.67165 2.38448 0
M  V30 1896 H 177.974 3.89719 3.90926 0
M  V30 1897 H 178.451 2.20456 3.79863 0
M  V30 1898 H 179.057 3.36779 2.59731 0
M  V30 1899 N 177.372 -0.689602 1.41712 0
M  V30 1900 C 178.783 -1.26973 1.36875 0
M  V30 1901 C 179.134 -1.96124 0.054748 0
M  V30 1902 O 178.259 -1.99141 -0.84687 0
M  V30 1903 C 178.854 -2.30912 2.47922 0
M  V30 1904 C 177.413 -2.84486 2.46464 0
M  V30 1905 C 176.56 -1.58603 2.27465 0
M  V30 1906 H 179.511 -0.48396 1.51141 0
M  V30 1907 H 179.532 -3.12331 2.17323 0
M  V30 1908 H 179.044 -1.80554 3.43543 0
M  V30 1909 H 177.145 -3.39005 1.54617 0
M  V30 1910 H 177.258 -3.34511 3.42986 0
M  V30 1911 H 175.622 -1.84632 1.75451 0
M  V30 1912 H 176.405 -1.10233 3.25121 0
M  V30 1913 N 178.85 -1.27639 -0.924453 0
M  V30 1914 C 179.813 -1.10681 -2.00705 0
M  V30 1915 C 180.813 -0.0497823 -1.60723 0
M  V30 1916 O 182.003 -0.294654 -1.7169 0
M  V30 1917 C 179.135 -0.687164 -3.33902 0
M  V30 1918 H 180.328 -2.06817 -2.17179 0
M  V30 1919 H 177.881 -1.10473 -1.10569 0
M  V30 1920 H 178.616 0.275439 -3.23128 0
M  V30 1921 H 178.401 -1.45061 -3.6428 0
M  V30 1922 H 179.891 -0.590853 -4.13399 0
M  V30 1923 N 180.328 1.1314 -1.09713 0
M  V30 1924 C 181.553 1.88862 -0.857081 0
M  V30 1925 C 181.978 1.78729 0.586304 0
M  V30 1926 O 181.336 1.13692 1.41222 0
M  V30 1927 C 181.384 3.36325 -1.30069 0
M  V30 1928 O 180.488 4.09815 -0.461007 0
M  V30 1929 H 179.829 0.587108 -0.310162 0
M  V30 1930 H 182.359 1.43129 -1.46203 0
M  V30 1931 H 182.369 3.87157 -1.28738 0
M  V30 1932 H 181.044 3.43017 -2.35185 0
M  V30 1933 H 179.621 3.68986 -0.538888 0
M  V30 1934 N 181.806 0.884767 1.30421 0
M  V30 1935 C 182.739 0.295999 2.26272 0
M  V30 1936 C 183.717 -0.58332 1.51777 0
M  V30 1937 O 184.901 -0.53346 1.80794 0
M  V30 1938 C 182.028 -0.57944 3.33707 0
M  V30 1939 C 181.074 0.230525 4.25877 0
M  V30 1940 S 181.907 1.61867 5.1045 0
M  V30 1941 C 183.063 0.749756 6.21393 0
M  V30 1942 H 183.296 1.10848 2.75862 0
M  V30 1943 H 180.829 0.684178 1.38414 0
M  V30 1944 H 182.787 -1.07879 3.96071 0
M  V30 1945 H 181.448 -1.36601 2.82841 0
M  V30 1946 H 180.641 -0.437542 5.02097 0
M  V30 1947 H 180.243 0.662493 3.68086 0
M  V30 1948 H 182.535 -0.0333547 6.77492 0
M  V30 1949 H 183.478 1.48356 6.92384 0
M  V30 1950 H 183.886 0.310751 5.63644 0
M  V30 1951 N 183.284 -1.43765 0.645699 0
M  V30 1952 C 184.247 -2.29163 -0.0409488 0
M  V30 1953 C 185.247 -1.41813 -0.757996 0
M  V30 1954 O 186.437 -1.63527 -0.600382 0
M  V30 1955 C 183.569 -3.23716 -1.06869 0
M  V30 1956 H 184.762 -2.91366 0.710345 0
M  V30 1957 H 182.315 -1.5092 0.406547 0
M  V30 1958 H 183.05 -2.66393 -1.84947 0
M  V30 1959 H 182.835 -3.88105 -0.558277 0
M  V30 1960 H 184.325 -3.87831 -1.54845 0
M  V30 1961 N 184.763 -0.387143 -1.52771 0
M  V30 1962 C 185.673 0.456442 -2.30117 0
M  V30 1963 C 186.689 1.07342 -1.36944 0
M  V30 1964 O 187.865 1.07971 -1.70013 0
M  V30 1965 C 184.93 1.56957 -3.09136 0
M  V30 1966 C 183.991 0.977916 -4.18014 0
M  V30 1967 C 183.224 2.038 -4.93256 0
M  V30 1968 O 183.447 3.25271 -4.68567 0
M  V30 1969 O 182.381 1.6565 -5.78657 0
M  V30 1970 H 186.207 -0.17359 -3.03203 0
M  V30 1971 H 183.792 -0.150919 -1.48636 0
M  V30 1972 H 185.674 2.21628 -3.58412 0
M  V30 1973 H 184.349 2.18461 -2.38865 0
M  V30 1974 H 183.256 0.294525 -3.72939 0
M  V30 1975 H 184.589 0.407128 -4.90513 0
M  V30 1976 N 186.241 1.57166 -0.116904 0
M  V30 1977 C 187.657 1.5779 0.239693 0
M  V30 1978 C 187.857 1.1295 1.66867 0
M  V30 1979 O 186.913 0.81592 2.38954 0
M  V30 1980 C 188.226 3.00699 0.00828202 0
M  V30 1981 C 189.774 3.12912 0.0743438 0
M  V30 1982 C 190.249 4.57817 -0.129348 0
M  V30 1983 N 191.74 4.63139 -0.075247 0
M  V30 1984 C 192.475 5.73023 -0.207788 0
M  V30 1985 N 191.971 6.91665 -0.396382 0
M  V30 1986 N 193.764 5.61906 -0.14751 0
M  V30 1987 H 185.915 1.84615 -1.05029 0
M  V30 1988 H 188.178 0.85311 -0.41341 0
M  V30 1989 H 187.884 3.37784 -0.979531 0
M  V30 1990 H 187.758 3.69848 0.741077 0
M  V30 1991 H 190.145 2.75686 1.05268 0
M  V30 1992 H 190.226 2.4631 -0.690297 0
M  V30 1993 H 189.87 4.95742 -1.10465 0
M  V30 1994 H 189.8 5.22507 0.655253 0
M  V30 1995 H 192.291 3.7784 0.0670898 0
M  V30 1996 H 192.604 7.71255 -0.488437 0
M  V30 1997 H 190.949 6.93654 -0.432329 0
M  V30 1998 H 194.14 4.681 -0.00115036 0
M  V30 1999 H 194.313 6.47501 -0.254247 0
M  V30 2000 N 187.719 -0.156864 1.56817 0
M  V30 2001 C 188.667 -1.21319 1.98455 0
M  V30 2002 C 189.661 -1.45025 0.875444 0
M  V30 2003 O 190.867 -1.45435 1.0606 0
M  V30 2004 H 187.242 -0.408142 0.631605 0
M  V30 2005 H 189.213 -0.835244 2.86472 0
M  V30 2006 C 187.962 -2.54148 2.37285 0
M  V30 2007 H 187.285 -2.36733 3.22176 0
M  V30 2008 H 188.725 -3.26712 2.70251 0
M  V30 2009 C 187.184 -3.13967 1.22173 0
M  V30 2010 O 187.714 -3.98357 0.517149 0
M  V30 2011 N 185.92 -2.7327 0.988536 0
M  V30 2012 H 185.467 -2.04744 1.56326 0
M  V30 2013 H 185.425 -3.13628 0.220209 0
M  V30 2014 N 189.197 -1.51736 -0.425897 0
M  V30 2015 C 190.129 -1.70083 -1.53638 0
M  V30 2016 C 191.142 -0.581349 -1.52066 0
M  V30 2017 O 192.331 -0.856017 -1.56635 0
M  V30 2018 C 189.431 -1.71078 -2.9255 0
M  V30 2019 C 188.604 -2.99795 -3.185 0
M  V30 2020 C 187.663 -2.92825 -4.37196 0
M  V30 2021 O 186.689 -3.66756 -4.35291 0
M  V30 2022 N 187.891 -2.0946 -5.41393 0
M  V30 2023 H 190.656 -2.65882 -1.383 0
M  V30 2024 H 188.217 -1.49765 -0.614988 0
M  V30 2025 H 190.209 -1.63969 -3.69995 0
M  V30 2026 H 188.779 -0.828242 -3.01428 0
M  V30 2027 H 187.999 -3.20684 -2.2925 0
M  V30 2028 H 189.287 -3.84977 -3.32671 0
M  V30 2029 H 188.685 -1.48792 -5.45781 0
M  V30 2030 H 187.242 -2.08221 -6.17647 0
M  V30 2031 N 190.675 0.682077 -1.42076 0
M  V30 2032 C 191.607 1.80755 -1.40926 0
M  V30 2033 C 192.62 1.59833 -0.309398 0
M  V30 2034 O 193.809 1.69087 -0.572014 0
M  V30 2035 C 190.909 3.17744 -1.17865 0
M  V30 2036 C 190.082 3.65578 -2.40149 0
M  V30 2037 C 189.141 4.81277 -2.12742 0
M  V30 2038 O 188.167 4.92197 -2.85887 0
M  V30 2039 N 189.369 5.69474 -1.12602 0
M  V30 2040 H 192.134 1.82229 -2.37935 0
M  V30 2041 H 189.695 0.864903 -1.36861 0
M  V30 2042 H 191.687 3.9279 -0.9746 0
M  V30 2043 H 190.257 3.11214 -0.294068 0
M  V30 2044 H 189.477 2.81291 -2.76169 0
M  V30 2045 H 190.765 3.94278 -3.21593 0
M  V30 2046 H 190.163 5.63297 -0.520899 0
M  V30 2047 H 188.72 6.44363 -0.981842 0
M  V30 2048 O 192.192 1.38868 0.824489 0
M  V30 2049 H 192.883 1.26408 1.46767 0
M  V30 END ATOM
M  V30 BEGIN BOND
M  V30 END BOND
M  V30 END CTAB
M  END
$$$$
