drugbank_target|A0A0H2UQB5 LicC protein (DB12153)
 OpenBabel12092120293D

  0  0  0     0  0            999 V3000
M  V30 BEGIN CTAB
M  V30 COUNTS 3768 3807 0 0 0
M  V30 BEGIN ATOM
M  V30 1 H -0.908 1.98254 -0.117106 0
M  V30 2 N 0 1.576 0 0
M  V30 3 C 0.933 2.03868 1.02534 0
M  V30 4 C 1.911 0.928543 1.3348 0
M  V30 5 O 3.095 1.19667 1.45644 0
M  V30 6 C 0.222 2.43627 2.35294 0
M  V30 7 C -0.732 3.65373 2.2001 0
M  V30 8 S 0.101 5.13292 1.52614 0
M  V30 9 C 1.257 5.56322 2.86805 0
M  V30 10 H 1.49 2.90518 0.631377 0
M  V30 11 H -0.977 1.52953 0.210867 0
M  V30 12 H 0.981 2.67203 3.11629 0
M  V30 13 H -0.358 1.57376 2.7183 0
M  V30 14 H -1.165 3.90944 3.18086 0
M  V30 15 H -1.563 3.418 1.51819 0
M  V30 16 H 0.729 5.58782 3.83104 0
M  V30 17 H 1.672 6.56266 2.65933 0
M  V30 18 H 2.08 4.83886 2.90714 0
M  V30 19 N 1.4781 -0.272755 1.55222 0
M  V30 20 C 2.4251 -1.33716 1.88119 0
M  V30 21 C 3.3951 -1.49066 0.73271 0
M  V30 22 O 4.5801 -1.63469 0.984002 0
M  V30 23 C 1.7201 -2.69238 2.15882 0
M  V30 24 C 0.8331 -2.62108 3.43399 0
M  V30 25 C -0.0319 -3.89811 3.60861 0
M  V30 26 C -0.9929 -3.77193 4.8207 0
M  V30 27 N -1.8559 -4.9673 4.96189 0
M  V30 28 H 2.9841 -1.04962 2.78903 0
M  V30 29 H 0.5211 -0.507088 1.38083 0
M  V30 30 H 2.4791 -3.48089 2.29978 0
M  V30 31 H 1.1091 -2.96194 1.28331 0
M  V30 32 H 0.1611 -1.74967 3.37773 0
M  V30 33 H 1.4731 -2.48685 4.32386 0
M  V30 34 H 0.6271 -4.77103 3.74777 0
M  V30 35 H -0.6339 -4.06102 2.7006 0
M  V30 36 H -1.6289 -2.88284 4.68159 0
M  V30 37 H -0.4039 -3.62421 5.74307 0
M  V30 38 H -2.4579 -5.13431 4.08319 0
M  V30 39 H -2.5409 -4.85839 5.79221 0
M  V30 40 H -1.2729 -5.85594 5.1449 0
M  V30 41 N 2.9562 -1.48159 -0.537278 0
M  V30 42 C 3.9192 -1.61665 -1.62472 0
M  V30 43 C 4.9192 -0.490395 -1.5314 0
M  V30 44 O 6.1092 -0.755998 -1.5694 0
M  V30 45 C 3.2412 -1.57997 -3.02076 0
M  V30 46 H 4.4342 -2.58621 -1.51839 0
M  V30 47 H 1.9872 -1.36647 -0.758771 0
M  V30 48 H 2.7222 -0.624913 -3.18222 0
M  V30 49 H 2.5072 -2.39755 -3.10258 0
M  V30 50 H 3.9972 -1.70627 -3.81151 0
M  V30 51 N 4.4343 0.785586 -1.36625 0
M  V30 52 C 5.6833 1.53883 -1.30396 0
M  V30 53 C 5.9963 1.95271 0.113452 0
M  V30 54 O 7.2023 2.69858 0.298142 0
M  V30 55 C 5.6583 2.77808 -2.28802 0
M  V30 56 C 5.2663 2.43574 -3.75999 0
M  V30 57 C 7.0103 3.55783 -2.31558 0
M  V30 58 C 4.9173 3.63919 -4.66173 0
M  V30 59 H 3.8473 0.577678 -0.484566 0
M  V30 60 H 6.4983 0.861705 -1.62009 0
M  V30 61 H 4.8803 3.47339 -1.90188 0
M  V30 62 H 6.0543 1.81916 -4.23371 0
M  V30 63 H 4.3693 1.78803 -3.76056 0
M  V30 64 H 6.9663 4.45205 -2.96137 0
M  V30 65 H 7.3093 3.94644 -1.3252 0
M  V30 66 H 7.8423 2.93235 -2.68809 0
M  V30 67 H 4.5813 3.3015 -5.66287 0
M  V30 68 H 4.1013 4.2473 -4.23515 0
M  V30 69 H 5.7803 4.30901 -4.82632 0
M  V30 70 N 5.9124 1.20967 1.01018 0
M  V30 71 C 7.1614 1.01796 1.74128 0
M  V30 72 C 7.4744 -0.449691 1.90361 0
M  V30 73 O 8.6804 -0.76068 2.60626 0
M  V30 74 C 7.1364 1.7727 3.13215 0
M  V30 75 C 6.7444 3.28171 3.04972 0
M  V30 76 C 8.4884 1.66489 3.90489 0
M  V30 77 C 6.3954 3.96156 4.39107 0
M  V30 78 H 5.3254 0.377276 0.652824 0
M  V30 79 H 7.9764 1.44651 1.12909 0
M  V30 80 H 6.3584 1.27205 3.75013 0
M  V30 81 H 7.5324 3.85499 2.52443 0
M  V30 82 H 5.8474 3.39437 2.41188 0
M  V30 83 H 8.4444 2.14617 4.89738 0
M  V30 84 H 8.7874 0.6222 4.11624 0
M  V30 85 H 9.3204 2.14003 3.35332 0
M  V30 86 H 6.0594 5.00604 4.23174 0
M  V30 87 H 5.5794 3.43617 4.91617 0
M  V30 88 H 7.2584 4.00774 5.07926 0
M  V30 89 N 7.3905 -1.2043 1.01659 0
M  V30 90 C 8.3205 -2.25466 0.607226 0
M  V30 91 C 9.3015 -1.65853 -0.377716 0
M  V30 92 O 10.4865 -1.92409 -0.263149 0
M  V30 93 C 7.6165 -3.47256 -0.0552949 0
M  V30 94 C 6.5705 -4.19462 0.850632 0
M  V30 95 C 5.8965 -5.34673 0.0538859 0
M  V30 96 C 7.1965 -4.75603 2.15868 0
M  V30 97 H 8.8905 -2.59962 1.48526 0
M  V30 98 H 6.4365 -1.2496 0.715605 0
M  V30 99 H 8.3895 -4.19917 -0.353233 0
M  V30 100 H 7.1135 -3.11924 -0.968045 0
M  V30 101 H 5.7725 -3.48667 1.13257 0
M  V30 102 H 5.4205 -4.95585 -0.860514 0
M  V30 103 H 5.1205 -5.83913 0.657192 0
M  V30 104 H 6.6445 -6.10138 -0.237598 0
M  V30 105 H 8.0585 -5.40083 1.92311 0
M  V30 106 H 6.4555 -5.3528 2.71284 0
M  V30 107 H 7.5255 -3.94346 2.82169 0
M  V30 108 N 8.8686 -0.792821 -1.36206 0
M  V30 109 C 9.8316 -0.199459 -2.2833 0
M  V30 110 C 10.8316 0.605189 -1.48977 0
M  V30 111 O 12.0216 0.425685 -1.68919 0
M  V30 112 C 9.1536 0.723523 -3.33134 0
M  V30 113 H 10.3466 -1.01181 -2.82316 0
M  V30 114 H 7.8996 -0.562485 -1.45828 0
M  V30 115 H 8.6346 1.56008 -2.84309 0
M  V30 116 H 8.4196 0.148436 -3.91819 0
M  V30 117 H 9.9096 1.13344 -4.01924 0
M  V30 118 N 10.3467 1.47872 -0.545128 0
M  V30 119 C 11.3097 2.28337 0.198717 0
M  V30 120 C 12.3097 1.36255 0.853888 0
M  V30 121 O 13.4997 1.59003 0.711606 0
M  V30 122 C 10.6317 3.15585 1.28915 0
M  V30 123 H 11.8247 2.95567 -0.507941 0
M  V30 124 H 9.3777 1.53362 -0.301616 0
M  V30 125 H 10.1127 2.53019 2.02859 0
M  V30 126 H 9.8977 3.83337 0.824309 0
M  V30 127 H 11.3877 3.76243 1.81194 0
M  V30 128 N 11.8248 0.280983 1.55075 0
M  V30 129 C 13.0728 -0.333455 1.9933 0
M  V30 130 C 13.3938 -1.55937 1.17085 0
M  V30 131 O 12.6638 -1.94143 0.261805 0
M  V30 132 H 11.2438 -0.126197 0.736263 0
M  V30 133 H 13.9058 0.387678 1.91005 0
M  V30 134 H 13.0018 -0.619292 3.05894 0
M  V30 135 N 13.3029 -1.57598 0.00835791 0
M  V30 136 C 14.2329 -2.1198 -0.979113 0
M  V30 137 C 15.2139 -1.03091 -1.35301 0
M  V30 138 O 16.3989 -1.30818 -1.43528 0
M  V30 139 C 13.5289 -2.62995 -2.26828 0
M  V30 140 C 12.4829 -3.76485 -2.03576 0
M  V30 141 C 11.8089 -4.13846 -3.38579 0
M  V30 142 C 13.1089 -5.0342 -1.39161 0
M  V30 143 H 14.8029 -2.94738 -0.526281 0
M  V30 144 H 12.3489 -1.41783 -0.251704 0
M  V30 145 H 14.3019 -2.99669 -2.96271 0
M  V30 146 H 13.0259 -1.7737 -2.7424 0
M  V30 147 H 11.6849 -3.40217 -1.36557 0
M  V30 148 H 11.3329 -3.25232 -3.83709 0
M  V30 149 H 11.0329 -4.90312 -3.23834 0
M  V30 150 H 12.5569 -4.53086 -4.09323 0
M  V30 151 H 13.9709 -5.37812 -1.98573 0
M  V30 152 H 12.3679 -5.84746 -1.34878 0
M  V30 153 H 13.4379 -4.83548 -0.361868 0
M  V30 154 N 14.781 0.264519 -1.55364 0
M  V30 155 C 16.029 0.993021 -1.76021 0
M  V30 156 C 16.35 1.86511 -0.569099 0
M  V30 157 O 15.62 1.91438 0.415735 0
M  V30 158 H 14.2 0.369639 -0.649135 0
M  V30 159 H 16.862 0.286707 -1.9278 0
M  V30 160 H 15.958 1.62502 -2.66457 0
M  V30 161 N 16.2591 1.48442 0.529413 0
M  V30 162 C 17.4871 1.60151 1.30994 0
M  V30 163 C 17.9021 0.261985 1.86973 0
M  V30 164 O 17.2591 -0.748805 1.66431 0
M  V30 165 C 17.3101 2.64854 2.46038 0
M  V30 166 O 17.0311 3.93608 1.92365 0
M  V30 167 C 18.5321 2.87007 3.37849 0
M  V30 168 H 15.7521 0.539971 0.398338 0
M  V30 169 H 18.2961 1.94273 0.638597 0
M  V30 170 H 16.4511 2.33589 3.09055 0
M  V30 171 H 16.8651 4.51055 2.67675 0
M  V30 172 H 18.3391 3.64068 4.14919 0
M  V30 173 H 18.8161 1.95852 3.93114 0
M  V30 174 H 19.4221 3.19579 2.80623 0
M  V30 175 N 17.7372 -0.778329 1.37039 0
M  V30 176 C 19.1532 -1.07796 1.17695 0
M  V30 177 C 19.3532 -2.01498 0.00860115 0
M  V30 178 O 18.4092 -2.43901 -0.653352 0
M  V30 179 C 19.7222 -1.68178 2.49272 0
M  V30 180 C 21.2702 -1.80467 2.55735 0
M  V30 181 C 21.7452 -2.44263 3.87427 0
M  V30 182 N 23.2362 -2.51721 3.88833 0
M  V30 183 C 23.9712 -3.01919 4.87476 0
M  V30 184 N 23.4672 -3.5234 5.96513 0
M  V30 185 N 25.2602 -3.00733 4.74885 0
M  V30 186 H 17.4112 -0.156032 2.11826 0
M  V30 187 H 19.6742 -0.131844 0.938787 0
M  V30 188 H 19.3802 -1.06796 3.35093 0
M  V30 189 H 19.2542 -2.67554 2.65885 0
M  V30 190 H 21.6412 -2.40984 1.70325 0
M  V30 191 H 21.7222 -0.798656 2.43013 0
M  V30 192 H 21.3662 -1.84388 4.73248 0
M  V30 193 H 21.2962 -3.45458 3.9745 0
M  V30 194 H 23.7872 -2.1603 3.10063 0
M  V30 195 H 24.1002 -3.89027 6.67741 0
M  V30 196 H 22.4452 -3.50462 6.00168 0
M  V30 197 H 25.6362 -2.60638 3.88826 0
M  V30 198 H 25.8092 -3.39545 5.51918 0
M  V30 199 N 19.2153 -1.21501 -1.00376 0
M  V30 200 C 20.1453 -0.999478 -2.11028 0
M  V30 201 C 21.1263 0.0759671 -1.6993 0
M  V30 202 O 22.3113 -0.0841106 -1.94018 0
M  V30 203 C 19.4413 -0.564709 -3.42678 0
M  V30 204 C 18.3953 -1.58486 -3.97576 0
M  V30 205 C 17.7213 -1.00628 -5.25146 0
M  V30 206 C 19.0213 -2.97204 -4.29496 0
M  V30 207 H 20.7153 -1.92495 -2.29317 0
M  V30 208 H 18.2613 -0.92693 -1.102 0
M  V30 209 H 20.2143 -0.401091 -4.19487 0
M  V30 210 H 18.9383 0.396411 -3.24185 0
M  V30 211 H 17.5973 -1.73606 -3.22888 0
M  V30 212 H 17.2453 -0.0368439 -5.02987 0
M  V30 213 H 16.9453 -1.68771 -5.62841 0
M  V30 214 H 18.4693 -0.854015 -6.04598 0
M  V30 215 H 19.8833 -2.8552 -4.97143 0
M  V30 216 H 18.2803 -3.62372 -4.78338 0
M  V30 217 H 19.3503 -3.47956 -3.3772 0
M  V30 218 N 20.6934 1.19889 -1.02296 0
M  V30 219 C 22.1094 1.41462 -0.738954 0
M  V30 220 C 22.3094 1.89721 0.678846 0
M  V30 221 O 21.3654 2.07016 1.4457 0
M  V30 222 C 22.6784 2.43083 -1.77005 0
M  V30 223 C 24.2264 2.5684 -1.78892 0
M  V30 224 C 24.7014 3.61709 -2.80945 0
M  V30 225 N 26.1924 3.69199 -2.79725 0
M  V30 226 C 26.9274 4.50019 -3.55345 0
M  V30 227 N 26.4234 5.34592 -4.40662 0
M  V30 228 N 28.2164 4.44612 -3.43914 0
M  V30 229 H 20.3674 0.868827 -1.93817 0
M  V30 230 H 22.6304 0.44399 -0.837602 0
M  V30 231 H 22.3364 2.14636 -2.78612 0
M  V30 232 H 22.2104 3.4217 -1.58744 0
M  V30 233 H 24.5974 2.84614 -0.779674 0
M  V30 234 H 24.6784 1.57927 -2.01228 0
M  V30 235 H 24.3224 3.34678 -3.82038 0
M  V30 236 H 24.2524 4.60259 -2.5587 0
M  V30 237 H 26.7434 3.08794 -2.17842 0
M  V30 238 H 27.0564 5.93363 -4.95116 0
M  V30 239 H 25.4014 5.34073 -4.44737 0
M  V30 240 H 28.5924 3.7758 -2.76679 0
M  V30 241 H 28.7654 5.0736 -4.031 0
M  V30 242 N 22.1715 0.800033 1.35784 0
M  V30 243 C 23.5825 0.439142 1.81462 0
M  V30 244 C 23.9335 -1.03813 1.66485 0
M  V30 245 O 23.0585 -1.80626 1.19177 0
M  V30 246 C 23.6535 0.790314 3.29453 0
M  V30 247 C 22.2125 0.482111 3.733 0
M  V30 248 C 21.3595 1.01938 2.57883 0
M  V30 249 H 24.3105 0.992254 1.23855 0
M  V30 250 H 24.3315 0.0853677 3.80404 0
M  V30 251 H 23.8435 1.86554 3.40322 0
M  V30 252 H 21.9445 -0.584652 3.67984 0
M  V30 253 H 22.0575 1.01015 4.6833 0
M  V30 254 H 20.4215 0.442043 2.50835 0
M  V30 255 H 21.2045 2.10059 2.71533 0
M  V30 256 N 23.6496 -1.47581 0.552962 0
M  V30 257 C 24.5826 -2.26883 -0.244857 0
M  V30 258 C 25.5606 -1.33784 -0.924147 0
M  V30 259 O 26.7446 -1.6316 -0.943981 0
M  V30 260 C 23.8716 -3.10695 -1.34856 0
M  V30 261 C 22.9176 -4.19339 -0.778268 0
M  V30 262 S 23.7506 -5.34207 0.37184 0
M  V30 263 C 24.9066 -6.21584 -0.733779 0
M  V30 264 H 25.1396 -2.94202 0.428087 0
M  V30 265 H 22.6726 -1.50628 0.339197 0
M  V30 266 H 24.6306 -3.59555 -1.98066 0
M  V30 267 H 23.2916 -2.42746 -1.99332 0
M  V30 268 H 22.4846 -4.77695 -1.60696 0
M  V30 269 H 22.0866 -3.73338 -0.222422 0
M  V30 270 H 24.3786 -6.57676 -1.62692 0
M  V30 271 H 25.3216 -7.07851 -0.187668 0
M  V30 272 H 25.7296 -5.55125 -1.02454 0
M  V30 273 N 25.1277 -0.289203 -1.54924 0
M  V30 274 C 26.3557 0.326463 -2.04308 0
M  V30 275 C 26.7707 1.48413 -1.16701 0
M  V30 276 O 26.1277 1.81507 -0.190087 0
M  V30 277 C 26.1787 0.794014 -3.52672 0
M  V30 278 O 25.8997 -0.317564 -4.36948 0
M  V30 279 C 27.4007 1.47605 -4.18004 0
M  V30 280 H 24.6207 0.0726272 -0.667058 0
M  V30 281 H 27.1647 -0.425401 -2.00026 0
M  V30 282 H 25.3197 1.49593 -3.57352 0
M  V30 283 H 25.7337 0.0443186 -5.24481 0
M  V30 284 H 27.2077 1.75447 -5.23376 0
M  V30 285 H 27.6847 2.41224 -3.67025 0
M  V30 286 H 28.2907 0.81762 -4.17367 0
M  V30 287 N 26.6058 1.57591 -0.0167156 0
M  V30 288 C 27.5158 2.1291 0.98521 0
M  V30 289 C 28.5318 1.07834 1.36557 0
M  V30 290 O 29.7078 1.39826 1.44951 0
M  V30 291 C 26.7728 2.63512 2.25305 0
M  V30 292 C 25.8338 3.83256 1.93426 0
M  V30 293 C 25.0668 4.31435 3.14165 0
M  V30 294 O 25.2898 3.78851 4.26413 0
M  V30 295 O 24.2238 5.23416 2.97186 0
M  V30 296 H 28.0498 2.98772 0.544888 0
M  V30 297 H 25.6348 1.48012 0.203141 0
M  V30 298 H 27.5168 2.96183 2.99756 0
M  V30 299 H 26.1918 1.8074 2.68542 0
M  V30 300 H 25.0988 3.55531 1.16398 0
M  V30 301 H 26.4318 4.67153 1.55013 0
M  V30 302 N 28.0839 -0.256276 1.55502 0
M  V30 303 C 29.0319 -1.33694 1.90338 0
M  V30 304 C 30.0259 -1.50299 0.781441 0
M  V30 305 O 31.2319 -1.51885 0.965966 0
M  V30 306 H 27.6069 -0.447483 0.60437 0
M  V30 307 H 29.5779 -1.01574 2.8058 0
M  V30 308 C 28.3269 -2.68724 2.20642 0
M  V30 309 H 27.6499 -2.56743 3.06469 0
M  V30 310 H 29.0899 -3.43237 2.48926 0
M  V30 311 C 27.5489 -3.21101 1.01959 0
M  V30 312 O 28.0789 -4.0084 0.262762 0
M  V30 313 N 26.2849 -2.79003 0.812746 0
M  V30 314 H 25.8319 -2.14271 1.42989 0
M  V30 315 H 25.7899 -3.14393 0.0203076 0
M  V30 316 N 29.562 -1.4872 -0.521534 0
M  V30 317 C 30.79 -1.60843 -1.30142 0
M  V30 318 C 31.205 -0.271897 -1.86832 0
M  V30 319 O 30.562 0.739969 -1.66825 0
M  V30 320 C 30.613 -2.66155 -2.4463 0
M  V30 321 O 30.334 -3.94623 -1.90275 0
M  V30 322 C 31.835 -2.88795 -3.36322 0
M  V30 323 H 29.055 -0.542075 -0.395468 0
M  V30 324 H 31.599 -1.94609 -0.628285 0
M  V30 325 H 29.754 -2.35224 -3.07812 0
M  V30 326 H 30.168 -4.52468 -2.65279 0
M  V30 327 H 31.642 -3.66264 -4.12983 0
M  V30 328 H 32.119 -1.97934 -3.9207 0
M  V30 329 H 32.725 -3.21063 -2.78924 0
M  V30 330 N 31.0401 0.771051 -1.3745 0
M  V30 331 C 32.4511 1.34737 -1.29239 0
M  V30 332 C 32.8021 1.96109 0.0596908 0
M  V30 333 O 31.9271 1.93865 0.961534 0
M  V30 334 C 32.5221 2.44973 -2.34037 0
M  V30 335 C 31.0811 2.98372 -2.29458 0
M  V30 336 C 30.2281 1.71595 -2.17831 0
M  V30 337 H 33.1791 0.571256 -1.48062 0
M  V30 338 H 33.2001 3.24471 -1.98744 0
M  V30 339 H 32.7121 2.00276 -3.32432 0
M  V30 340 H 30.8131 3.47443 -1.34589 0
M  V30 341 H 30.9261 3.53939 -3.229 0
M  V30 342 H 29.2901 1.94547 -1.64388 0
M  V30 343 H 30.0731 1.29001 -3.18141 0
M  V30 344 N 32.5182 1.22032 0.997298 0
M  V30 345 C 33.4652 0.986467 2.08656 0
M  V30 346 C 34.4352 -0.0902671 1.65855 0
M  V30 347 O 35.6202 0.0584294 1.90711 0
M  V30 348 C 32.7602 0.565569 3.40434 0
M  V30 349 C 31.8732 1.71259 3.96604 0
M  V30 350 C 31.0082 1.24011 5.16522 0
M  V30 351 C 30.0472 2.35896 5.64818 0
M  V30 352 N 29.1842 1.89726 6.7598 0
M  V30 353 H 34.0242 1.91892 2.27994 0
M  V30 354 H 31.5612 0.956199 1.11782 0
M  V30 355 H 33.5192 0.302738 4.161 0
M  V30 356 H 32.1492 -0.329879 3.2111 0
M  V30 357 H 31.2012 2.08986 3.17851 0
M  V30 358 H 32.5132 2.55436 4.28432 0
M  V30 359 H 31.6672 0.934395 5.99461 0
M  V30 360 H 30.4062 0.368487 4.86306 0
M  V30 361 H 29.4112 2.67261 4.8047 0
M  V30 362 H 30.6362 3.23567 5.97061 0
M  V30 363 H 28.5822 1.0492 6.47555 0
M  V30 364 H 28.4992 2.67471 7.07103 0
M  V30 365 H 29.7672 1.62211 7.62435 0
M  V30 366 N 33.9963 -1.19345 1.0293 0
M  V30 367 C 34.9593 -2.20793 0.615069 0
M  V30 368 C 35.9593 -1.57553 -0.321533 0
M  V30 369 O 37.1493 -1.73862 -0.108483 0
M  V30 370 C 34.2813 -3.40754 -0.0999222 0
M  V30 371 H 35.4743 -2.58955 1.51269 0
M  V30 372 H 33.0273 -1.3303 0.820534 0
M  V30 373 H 33.7623 -3.0811 -1.01187 0
M  V30 374 H 33.5473 -3.87889 0.57309 0
M  V30 375 H 35.0373 -4.15898 -0.376645 0
M  V30 376 N 35.4744 -0.807222 -1.35358 0
M  V30 377 C 36.4044 -0.232509 -2.3234 0
M  V30 378 C 37.3854 0.642386 -1.57504 0
M  V30 379 O 38.5704 0.572526 -1.85569 0
M  V30 380 C 35.7004 0.619238 -3.41735 0
M  V30 381 C 34.6544 -0.157215 -4.27711 0
M  V30 382 C 33.9804 0.816273 -5.28433 0
M  V30 383 C 35.2804 -1.35656 -5.04376 0
M  V30 384 H 36.9744 -1.04276 -2.80654 0
M  V30 385 H 34.5204 -0.50288 -1.34934 0
M  V30 386 H 36.4734 1.03137 -4.08584 0
M  V30 387 H 35.1974 1.46239 -2.92031 0
M  V30 388 H 33.8564 -0.550525 -3.62443 0
M  V30 389 H 33.5044 1.65494 -4.74996 0
M  V30 390 H 33.2044 0.301067 -5.86828 0
M  V30 391 H 34.7284 1.22659 -5.98153 0
M  V30 392 H 36.1424 -1.01927 -5.64166 0
M  V30 393 H 34.5394 -1.8063 -5.7227 0
M  V30 394 H 35.6094 -2.14288 -4.34981 0
M  V30 395 N 36.9525 1.47285 -0.560781 0
M  V30 396 C 38.1985 2.02764 -0.0381184 0
M  V30 397 C 38.5315 1.43384 1.30976 0
M  V30 398 O 37.8065 0.590733 1.85312 0
M  V30 399 C 38.0895 3.60064 0.0511427 0
M  V30 400 C 37.9425 4.2987 -1.32408 0
M  V30 401 C 39.2615 4.33439 0.762795 0
M  V30 402 H 36.3805 0.736841 -0.0153264 0
M  V30 403 H 39.0225 1.75675 -0.723759 0
M  V30 404 H 37.1725 3.83274 0.635065 0
M  V30 405 H 38.8445 4.17989 -1.95148 0
M  V30 406 H 37.0875 3.90085 -1.8978 0
M  V30 407 H 37.7585 5.38478 -1.21431 0
M  V30 408 H 40.2345 4.15243 0.266965 0
M  V30 409 H 39.1105 5.43124 0.794221 0
M  V30 410 H 39.3715 4.02915 1.81966 0
M  V30 411 N 38.4306 0.297415 1.54768 0
M  V30 412 C 39.3626 -0.613881 2.20826 0
M  V30 413 C 40.3756 -1.10032 1.19987 0
M  V30 414 O 41.5646 -1.01839 1.46598 0
M  V30 415 C 38.6646 -1.852 2.83821 0
M  V30 416 C 37.8376 -1.50865 4.10559 0
M  V30 417 C 36.8966 -2.60154 4.57391 0
M  V30 418 O 35.9226 -2.25398 5.2267 0
M  V30 419 N 37.1246 -3.90629 4.29406 0
M  V30 420 H 39.8896 -0.048389 2.99661 0
M  V30 421 H 37.4506 0.11946 1.61459 0
M  V30 422 H 39.4426 -2.57652 3.12086 0
M  V30 423 H 38.0126 -2.32597 2.08847 0
M  V30 424 H 37.2326 -0.616925 3.89343 0
M  V30 425 H 38.5206 -1.25458 4.9309 0
M  V30 426 H 37.9186 -4.21677 3.77101 0
M  V30 427 H 36.4756 -4.59391 4.62388 0
M  V30 428 N 39.9087 -1.5758 0.0250728 0
M  V30 429 C 41.1547 -1.91917 -0.655413 0
M  V30 430 C 41.4877 -0.901433 -1.72011 0
M  V30 431 O 40.7627 0.0764069 -1.9435 0
M  V30 432 C 41.0457 -3.36751 -1.27558 0
M  V30 433 C 40.8987 -4.49258 -0.220719 0
M  V30 434 C 42.2177 -3.81469 -2.19475 0
M  V30 435 H 39.3367 -0.697925 -0.23679 0
M  V30 436 H 41.9787 -1.89825 0.0815036 0
M  V30 437 H 40.1287 -3.38664 -1.90365 0
M  V30 438 H 41.8007 -4.59478 0.409601 0
M  V30 439 H 40.0437 -4.31415 0.454264 0
M  V30 440 H 40.7147 -5.47618 -0.694175 0
M  V30 441 H 43.1907 -3.81266 -1.66659 0
M  V30 442 H 42.0667 -4.83512 -2.59822 0
M  V30 443 H 42.3277 -3.16744 -3.08424 0
M  V30 444 N 41.3868 0.248026 -1.55636 0
M  V30 445 C 42.3348 1.32683 -1.91045 0
M  V30 446 C 43.3288 1.49883 -0.789401 0
M  V30 447 O 44.5348 1.51371 -0.974007 0
M  V30 448 H 40.9098 0.444272 -0.606734 0
M  V30 449 H 42.8808 1.00085 -2.81115 0
M  V30 450 C 41.6298 2.6755 -2.22064 0
M  V30 451 H 40.9528 2.55114 -3.07826 0
M  V30 452 H 42.3928 3.41912 -2.50743 0
M  V30 453 C 40.8518 3.20556 -1.0366 0
M  V30 454 O 41.3818 4.00695 -0.284016 0
M  V30 455 N 39.5878 2.78568 -0.82753 0
M  V30 456 H 39.1348 2.1351 -1.44123 0
M  V30 457 H 39.0928 3.14378 -0.0369803 0
M  V30 458 N 42.8649 1.48995 0.513639 0
M  V30 459 C 43.7969 1.60836 1.63293 0
M  V30 460 C 44.8099 0.491701 1.55197 0
M  V30 461 O 45.9989 0.763238 1.6136 0
M  V30 462 C 43.0989 1.53731 3.02027 0
M  V30 463 C 42.2719 2.80715 3.35437 0
M  V30 464 C 41.3309 2.66837 4.53525 0
M  V30 465 O 40.3569 3.40753 4.55934 0
M  V30 466 N 41.5589 1.77539 5.52684 0
M  V30 467 H 44.3239 2.57366 1.53566 0
M  V30 468 H 41.8849 1.45925 0.701259 0
M  V30 469 H 43.8769 1.42118 3.78926 0
M  V30 470 H 42.4469 0.651092 3.05744 0
M  V30 471 H 41.6669 3.06772 2.47557 0
M  V30 472 H 42.9549 3.64927 3.54551 0
M  V30 473 H 42.3529 1.16719 5.53528 0
M  V30 474 H 40.9099 1.71856 6.28736 0
M  V30 475 N 44.343 -0.763751 1.37857 0
M  V30 476 C 45.29 -1.87726 1.34267 0
M  V30 477 C 46.26 -1.64807 0.206879 0
M  V30 478 O 47.445 -1.86613 0.397508 0
M  V30 479 C 44.585 -3.24896 1.16346 0
M  V30 480 C 43.698 -3.59716 2.39225 0
M  V30 481 C 42.833 -4.86137 2.14114 0
M  V30 482 C 41.872 -5.13711 3.32817 0
M  V30 483 N 41.009 -6.31323 3.07206 0
M  V30 484 H 45.849 -1.90129 2.29466 0
M  V30 485 H 43.386 -0.929433 1.14017 0
M  V30 486 H 45.344 -4.04036 1.03975 0
M  V30 487 H 43.974 -3.21847 0.247909 0
M  V30 488 H 43.026 -2.75498 2.62307 0
M  V30 489 H 44.338 -3.76027 3.27728 0
M  V30 490 H 43.492 -5.73198 1.9882 0
M  V30 491 H 42.231 -4.71945 1.22961 0
M  V30 492 H 41.236 -4.25123 3.48641 0
M  V30 493 H 42.461 -5.29807 4.24832 0
M  V30 494 H 40.407 -6.18474 2.1869 0
M  V30 495 H 40.324 -6.48087 3.89254 0
M  V30 496 H 41.592 -7.213 2.95546 0
M  V30 497 N 45.8211 -1.22559 -0.990812 0
M  V30 498 C 47.2321 -1.04791 -1.54518 0
M  V30 499 C 47.5831 0.387998 -1.92325 0
M  V30 500 O 46.7081 1.27328 -1.74976 0
M  V30 501 C 47.3031 -1.896 -2.80779 0
M  V30 502 C 45.8621 -1.76124 -3.32652 0
M  V30 503 C 45.0091 -1.8594 -2.05722 0
M  V30 504 H 47.9601 -1.36374 -0.811662 0
M  V30 505 H 47.9811 -1.41464 -3.53225 0
M  V30 506 H 47.4931 -2.94101 -2.53231 0
M  V30 507 H 45.5941 -0.743643 -3.65104 0
M  V30 508 H 45.7071 -2.58913 -4.03114 0
M  V30 509 H 44.0711 -1.29403 -2.19379 0
M  V30 510 H 44.8541 -2.91976 -1.80568 0
M  V30 511 N 47.2992 1.18797 -1.03562 0
M  V30 512 C 48.2292 2.24472 -0.643019 0
M  V30 513 C 49.2102 1.66433 0.351283 0
M  V30 514 O 50.3952 1.92803 0.232505 0
M  V30 515 C 47.5252 3.473 4.24935e-05 0
M  V30 516 C 46.4792 4.18055 -0.917257 0
M  V30 517 C 45.8052 5.34519 -0.138941 0
M  V30 518 C 47.1052 4.72109 -2.23407 0
M  V30 519 H 48.7992 2.57566 -1.52643 0
M  V30 520 H 46.3452 1.23806 -0.735394 0
M  V30 521 H 48.2982 4.20426 0.286383 0
M  V30 522 H 47.0222 3.13424 0.918299 0
M  V30 523 H 45.6812 3.46821 -1.1879 0
M  V30 524 H 45.3292 4.96891 0.781562 0
M  V30 525 H 45.0292 5.82794 -0.750005 0
M  V30 526 H 46.5532 6.10438 0.1405 0
M  V30 527 H 47.9672 5.36955 -2.00879 0
M  V30 528 H 46.3642 5.30897 -2.79765 0
M  V30 529 H 47.4342 3.89807 -2.88407 0
M  V30 530 N 48.7773 0.814389 1.34928 0
M  V30 531 C 50.0263 0.394871 1.97797 0
M  V30 532 C 50.3393 -1.04555 1.65311 0
M  V30 533 O 51.5453 -1.56856 2.21604 0
M  V30 534 C 50.0013 0.655103 3.53888 0
M  V30 535 C 49.6093 2.10858 3.95276 0
M  V30 536 C 51.3533 0.301329 4.23429 0
M  V30 537 C 49.2603 2.31415 5.44244 0
M  V30 538 H 48.1903 0.143913 0.740139 0
M  V30 539 H 50.8413 0.999544 1.53888 0
M  V30 540 H 49.2233 -0.0196253 3.95995 0
M  V30 541 H 50.3973 2.82176 3.64298 0
M  V30 542 H 48.7123 2.42297 3.38646 0
M  V30 543 H 51.3093 0.432869 5.32945 0
M  V30 544 H 51.6523 -0.75331 4.09428 0
M  V30 545 H 52.1853 0.930288 3.86769 0
M  V30 546 H 48.9243 3.35353 5.63222 0
M  V30 547 H 48.4443 1.6463 5.76764 0
M  V30 548 H 50.1233 2.13352 6.10811 0
M  V30 549 N 50.2554 -1.46986 0.568584 0
M  V30 550 C 51.1654 -2.33942 -0.17555 0
M  V30 551 C 52.1814 -1.48891 -0.90041 0
M  V30 552 O 53.3574 -1.81794 -0.86676 0
M  V30 553 C 50.4224 -3.25811 -1.18524 0
M  V30 554 C 49.4834 -4.26757 -0.466582 0
M  V30 555 C 48.7164 -5.14236 -1.42817 0
M  V30 556 O 48.9394 -5.04379 -2.66379 0
M  V30 557 O 47.8734 -5.94412 -0.946453 0
M  V30 558 H 51.6994 -2.98896 0.538036 0
M  V30 559 H 49.2844 -1.4573 0.329097 0
M  V30 560 H 51.1664 -3.82527 -1.76779 0
M  V30 561 H 49.8414 -2.63471 -1.88055 0
M  V30 562 H 48.7484 -3.73769 0.157451 0
M  V30 563 H 50.0814 -4.91843 0.187485 0
M  V30 564 N 51.7335 -0.305618 -1.54608 0
M  V30 565 C 52.9635 0.304333 -2.04346 0
M  V30 566 C 53.3715 1.47715 -1.18224 0
M  V30 567 O 52.7145 1.82591 -0.201577 0
M  V30 568 C 52.7765 0.819031 -3.50046 0
M  V30 569 C 52.4405 -0.22912 -4.56425 0
M  V30 570 C 53.4375 -1.05914 -5.08997 0
M  V30 571 C 51.1225 -0.372148 -5.0092 0
M  V30 572 C 53.1165 -2.01809 -6.04609 0
M  V30 573 C 50.8035 -1.33454 -5.9635 0
M  V30 574 C 51.8015 -2.15599 -6.48079 0
M  V30 575 O 51.4895 -3.10205 -7.41639 0
M  V30 576 H 51.2215 0.0693996 -0.672428 0
M  V30 577 H 53.7755 -0.444548 -2.00532 0
M  V30 578 H 52.0055 1.61852 -3.51199 0
M  V30 579 H 53.6945 1.34537 -3.82955 0
M  V30 580 H 54.4605 -0.959538 -4.75413 0
M  V30 581 H 50.3395 0.257304 -4.60281 0
M  V30 582 H 53.8835 -2.65966 -6.44909 0
M  V30 583 H 49.7805 -1.43485 -6.29351 0
M  V30 584 H 50.5485 -3.05237 -7.59455 0
M  V30 585 N 53.2116 1.57565 -0.0334293 0
M  V30 586 C 54.1436 2.0739 0.975811 0
M  V30 587 C 55.1566 0.998166 1.2861 0
M  V30 588 O 56.3456 1.27426 1.25 0
M  V30 589 C 53.4456 2.4871 2.30209 0
M  V30 590 C 52.6186 3.79413 2.17634 0
M  V30 591 C 51.6776 4.07237 3.33233 0
M  V30 592 O 50.7036 4.77425 3.09927 0
M  V30 593 N 51.9056 3.5775 4.5716 0
M  V30 594 H 54.6706 2.94598 0.55066 0
M  V30 595 H 52.2316 1.61173 0.15323 0
M  V30 596 H 54.2236 2.64413 3.06378 0
M  V30 597 H 52.7936 1.66845 2.64351 0
M  V30 598 H 52.0136 3.73465 1.26165 0
M  V30 599 H 53.3016 4.65038 2.0644 0
M  V30 600 H 52.6996 3.00976 4.78989 0
M  V30 601 H 51.2566 3.78724 5.30482 0
M  V30 602 N 54.6897 -0.239769 1.55765 0
M  V30 603 C 55.9387 -0.964754 1.77131 0
M  V30 604 C 56.2517 -1.86213 0.59868 0
M  V30 605 O 57.4577 -2.6244 0.695522 0
M  V30 606 C 55.9137 -1.76552 3.1362 0
M  V30 607 C 55.5217 -0.915185 4.38553 0
M  V30 608 C 57.2657 -2.48281 3.44321 0
M  V30 609 C 55.1727 -1.71225 5.66071 0
M  V30 610 H 54.1027 -0.363953 0.660344 0
M  V30 611 H 56.7537 -0.219181 1.82186 0
M  V30 612 H 55.1357 -2.55331 3.02691 0
M  V30 613 H 56.3097 -0.169217 4.60489 0
M  V30 614 H 54.6247 -0.310889 4.15238 0
M  V30 615 H 57.2217 -3.08382 4.36812 0
M  V30 616 H 57.5647 -3.20256 2.65973 0
M  V30 617 H 58.0977 -1.76507 3.56497 0
M  V30 618 H 54.8367 -1.03612 6.4726 0
M  V30 619 H 54.3567 -2.43331 5.48224 0
M  V30 620 H 56.0357 -2.27758 6.05587 0
M  V30 621 N 56.1678 -1.49265 -0.50573 0
M  V30 622 C 57.0778 -1.68312 -1.63427 0
M  V30 623 C 58.0938 -0.565682 -1.64548 0
M  V30 624 O 59.2698 -0.839801 -1.83055 0
M  V30 625 C 56.3348 -1.74107 -2.99813 0
M  V30 626 C 55.3958 -2.97653 -3.09356 0
M  V30 627 C 54.6288 -3.03163 -4.39236 0
M  V30 628 O 54.8518 -2.16396 -5.27758 0
M  V30 629 O 53.7858 -3.9558 -4.53652 0
M  V30 630 H 57.6118 -2.63907 -1.50289 0
M  V30 631 H 55.1968 -1.32951 -0.681502 0
M  V30 632 H 57.0788 -1.803 -3.80881 0
M  V30 633 H 55.7538 -0.816901 -3.13223 0
M  V30 634 H 54.6608 -2.96981 -2.27493 0
M  V30 635 H 55.9938 -3.89535 -3.00871 0
M  V30 636 N 57.6459 0.756429 -1.3826 0
M  V30 637 C 58.8929 1.51547 -1.34312 0
M  V30 638 C 59.2209 1.94382 0.0677144 0
M  V30 639 O 58.4759 1.65514 1.04421 0
M  V30 640 C 58.7749 2.78313 -2.24224 0
M  V30 641 C 58.4409 2.54455 -3.72241 0
M  V30 642 C 57.1029 2.47657 -4.12576 0
M  V30 643 C 59.4549 2.3354 -4.65949 0
M  V30 644 C 56.7829 2.17956 -5.44713 0
M  V30 645 C 59.1349 2.05359 -5.9834 0
M  V30 646 C 57.7989 1.97016 -6.37762 0
M  V30 647 H 57.0689 0.55455 -0.491482 0
M  V30 648 H 59.7159 0.870039 -1.70595 0
M  V30 649 H 58.0209 3.47492 -1.80987 0
M  V30 650 H 59.7179 3.36259 -2.18474 0
M  V30 651 H 56.3079 2.60616 -3.40261 0
M  V30 652 H 60.4919 2.37772 -4.35635 0
M  V30 653 H 55.7479 2.10003 -5.74203 0
M  V30 654 H 59.9219 1.88179 -6.70494 0
M  V30 655 H 57.5489 1.73766 -7.40074 0
M  V30 656 N 59.124 1.23083 0.984299 0
M  V30 657 C 60.054 1.03292 2.09411 0
M  V30 658 C 61.035 -0.048923 1.7003 0
M  V30 659 O 62.22 0.114967 1.93859 0
M  V30 660 C 59.35 0.619155 3.41736 0
M  V30 661 C 58.304 1.64791 3.95004 0
M  V30 662 C 57.63 1.0897 5.23478 0
M  V30 663 C 58.93 3.03999 4.24714 0
M  V30 664 H 60.624 1.96119 2.26225 0
M  V30 665 H 58.17 0.944344 1.08711 0
M  V30 666 H 60.123 0.467777 4.18796 0
M  V30 667 H 58.847 -0.344786 3.24775 0
M  V30 668 H 57.506 1.78721 3.20085 0
M  V30 669 H 57.154 0.11686 5.02864 0
M  V30 670 H 56.854 1.77704 5.60085 0
M  V30 671 H 58.378 0.950093 6.03163 0
M  V30 672 H 59.792 2.93393 4.92538 0
M  V30 673 H 58.189 3.69936 4.72512 0
M  V30 674 H 59.259 3.53285 3.32142 0
M  V30 675 N 60.6021 -1.18246 1.0419 0
M  V30 676 C 61.5491 -2.2192 0.634037 0
M  V30 677 C 62.5191 -1.62179 -0.358765 0
M  V30 678 O 63.7041 -1.89122 -0.252466 0
M  V30 679 C 60.8441 -3.451 0.00445535 0
M  V30 680 C 59.9571 -4.19174 1.04487 0
M  V30 681 C 59.0921 -5.29813 0.383676 0
M  V30 682 C 58.1311 -5.9566 1.4091 0
M  V30 683 N 57.2681 -6.97834 0.772784 0
M  V30 684 H 62.1081 -2.56164 1.52263 0
M  V30 685 H 59.6451 -1.25843 0.761701 0
M  V30 686 H 61.6031 -4.15485 -0.377919 0
M  V30 687 H 60.2331 -3.11472 -0.847652 0
M  V30 688 H 59.2851 -3.47604 1.54518 0
M  V30 689 H 60.5971 -4.64267 1.82368 0
M  V30 690 H 59.7511 -6.06677 -0.0528366 0
M  V30 691 H 58.4901 -4.85825 -0.427208 0
M  V30 692 H 57.4951 -5.17535 1.85574 0
M  V30 693 H 58.7201 -6.4173 2.22171 0
M  V30 694 H 56.6661 -6.55998 -0.0177708 0
M  V30 695 H 56.5831 -7.41186 1.48928 0
M  V30 696 H 57.8511 -7.78665 0.36071 0
M  V30 697 N 62.0802 -0.821533 -1.34494 0
M  V30 698 C 62.9902 -0.244355 -2.33324 0
M  V30 699 C 64.0062 0.620527 -1.62559 0
M  V30 700 O 65.1822 0.528754 -1.94335 0
M  V30 701 C 62.2472 0.585368 -3.41723 0
M  V30 702 C 61.3082 -0.301752 -4.28238 0
M  V30 703 C 60.5412 0.488466 -5.3146 0
M  V30 704 O 60.7642 1.72186 -5.4379 0
M  V30 705 O 59.6982 -0.12848 -6.01763 0
M  V30 706 H 63.5242 -1.06231 -2.84515 0
M  V30 707 H 61.1092 -0.583645 -1.37528 0
M  V30 708 H 62.9912 1.05747 -4.07916 0
M  V30 709 H 61.6662 1.38068 -2.92778 0
M  V30 710 H 60.5732 -0.821315 -3.64973 0
M  V30 711 H 61.9062 -1.06138 -4.8062 0
M  V30 712 N 63.5583 1.46682 -0.576371 0
M  V30 713 C 64.5053 2.30241 0.160499 0
M  V30 714 C 65.4753 1.40233 0.890162 0
M  V30 715 O 66.6603 1.69186 0.882084 0
M  V30 716 C 63.8003 3.24578 1.1723 0
M  V30 717 C 62.9133 4.29684 0.446736 0
M  V30 718 C 62.0483 5.11154 1.44551 0
M  V30 719 C 61.0873 6.08015 0.70599 0
M  V30 720 N 60.2243 6.82376 1.65251 0
M  V30 721 H 65.0643 2.92727 -0.558127 0
M  V30 722 H 62.6013 1.44272 -0.287056 0
M  V30 723 H 64.5593 3.77711 1.77172 0
M  V30 724 H 63.1893 2.63916 1.85872 0
M  V30 725 H 62.2413 3.79458 -0.267594 0
M  V30 726 H 63.5533 4.98626 -0.131686 0
M  V30 727 H 62.7073 5.68533 2.11791 0
M  V30 728 H 61.4463 4.42158 2.05786 0
M  V30 729 H 60.4513 5.49796 0.0197725 0
M  V30 730 H 61.6763 6.79028 0.09912 0
M  V30 731 H 59.6223 6.16094 2.25308 0
M  V30 732 H 59.5393 7.47556 1.12673 0
M  V30 733 H 60.8073 7.44316 2.31546 0
M  V30 734 N 65.0364 0.313813 1.54444 0
M  V30 735 C 66.2844 -0.291099 1.99993 0
M  V30 736 C 66.6054 -1.53418 1.20366 0
M  V30 737 O 65.8754 -1.93544 0.302927 0
M  V30 738 H 64.4554 -0.110552 0.738774 0
M  V30 739 H 67.1174 0.428106 1.9014 0
M  V30 740 H 66.2134 -0.554268 3.07139 0
M  V30 741 N 66.5145 -1.57545 0.0417849 0
M  V30 742 C 67.7635 -1.91494 -0.633492 0
M  V30 743 C 68.0765 -0.921084 -1.72556 0
M  V30 744 O 69.2825 -1.15228 -2.45835 0
M  V30 745 C 67.7385 -3.40072 -1.17808 0
M  V30 746 C 67.3465 -4.47843 -0.118633 0
M  V30 747 C 69.0905 -3.8307 -1.82915 0
M  V30 748 C 66.9975 -5.87529 -0.675578 0
M  V30 749 H 65.9275 -0.714653 -0.24039 0
M  V30 750 H 68.5785 -1.83175 0.109148 0
M  V30 751 H 66.9605 -3.43364 -1.97274 0
M  V30 752 H 68.1345 -4.56128 0.654494 0
M  V30 753 H 66.4495 -4.14128 0.434414 0
M  V30 754 H 69.0465 -4.84794 -2.25563 0
M  V30 755 H 69.3895 -3.1881 -2.67705 0
M  V30 756 H 69.9225 -3.82255 -1.10119 0
M  V30 757 H 66.6615 -6.55362 0.134475 0
M  V30 758 H 66.1815 -5.82824 -1.4169 0
M  V30 759 H 67.8605 -6.36491 -1.1614 0
M  V30 760 N 67.9926 0.231505 -1.5589 0
M  V30 761 C 68.9406 1.30649 -1.92441 0
M  V30 762 C 69.9346 1.49037 -0.805254 0
M  V30 763 O 71.1406 1.50329 -0.990007 0
M  V30 764 H 67.5156 0.437812 -0.611412 0
M  V30 765 H 69.4866 0.970973 -2.82161 0
M  V30 766 C 68.2356 2.65179 -2.24889 0
M  V30 767 H 67.5586 2.51835 -3.10514 0
M  V30 768 H 68.9986 3.39234 -2.54355 0
M  V30 769 C 67.4576 3.19439 -1.07054 0
M  V30 770 O 67.9876 4.00371 -0.326499 0
M  V30 771 N 66.1936 2.77675 -0.85703 0
M  V30 772 H 65.7406 2.11969 -1.46379 0
M  V30 773 H 65.6986 3.14321 -0.0703223 0
M  V30 774 N 69.4707 1.49531 0.497807 0
M  V30 775 C 70.7477 1.49682 1.25915 0
M  V30 776 C 71.1277 0.226339 2.09883 0
M  V30 777 O 70.4757 -0.791189 2.14365 0
M  V30 778 C 70.6857 2.77755 2.11313 0
M  V30 779 C 72.0337 3.27371 2.70395 0
M  V30 780 O 73.0577 2.78894 2.21578 0
M  V30 781 O 71.9167 4.11808 3.59272 0
M  V30 782 H 69.0107 0.599228 0.56996 0
M  V30 783 H 71.5567 1.61798 0.511816 0
M  V30 784 H 70.3287 3.61713 1.49264 0
M  V30 785 H 69.9517 2.68515 2.93233 0
M  V30 786 N 70.9488 -0.749086 1.3866 0
M  V30 787 C 72.1978 -1.50371 1.3443 0
M  V30 788 C 72.5108 -1.95503 -0.0616397 0
M  V30 789 O 73.7168 -2.70554 -0.226489 0
M  V30 790 C 72.1728 -2.71644 2.36088 0
M  V30 791 C 71.7808 -2.3352 3.82325 0
M  V30 792 C 73.5248 -3.49518 2.40909 0
M  V30 793 C 71.4318 -3.51431 4.75658 0
M  V30 794 H 70.3618 -0.564628 0.499712 0
M  V30 795 H 73.0128 -0.818449 1.64237 0
M  V30 796 H 71.3948 -3.42175 1.9933 0
M  V30 797 H 72.5688 -1.70627 4.28046 0
M  V30 798 H 70.8838 -1.6877 3.80665 0
M  V30 799 H 73.4808 -4.37197 3.07836 0
M  V30 800 H 73.8238 -3.90992 1.42937 0
M  V30 801 H 74.3568 -2.86005 2.76489 0
M  V30 802 H 71.0958 -3.15019 5.74842 0
M  V30 803 H 70.6158 -4.13352 4.34627 0
M  V30 804 H 72.2948 -4.17953 4.93887 0
M  V30 805 N 72.4269 -1.23603 -0.977757 0
M  V30 806 C 73.6759 -1.06377 -1.71368 0
M  V30 807 C 73.9889 0.399062 -1.91486 0
M  V30 808 O 75.1949 0.691312 -2.62551 0
M  V30 809 C 73.6509 -1.85512 -3.08404 0
M  V30 810 C 73.2589 -3.36141 -2.96164 0
M  V30 811 C 75.0029 -1.76783 -3.85938 0
M  V30 812 C 72.9099 -4.07659 -4.28449 0
M  V30 813 H 71.8399 -0.394452 -0.642591 0
M  V30 814 H 74.4909 -1.47594 -1.09034 0
M  V30 815 H 72.8729 -1.37103 -3.71509 0
M  V30 816 H 74.0469 -3.92056 -2.42133 0
M  V30 817 H 72.3619 -3.45712 -2.32104 0
M  V30 818 H 74.9589 -2.27526 -4.83876 0
M  V30 819 H 75.3019 -0.731116 -4.0983 0
M  V30 820 H 75.8349 -2.22818 -3.2954 0
M  V30 821 H 72.5739 -5.11648 -4.09752 0
M  V30 822 H 72.0939 -3.5653 -4.82334 0
M  V30 823 H 73.7729 -4.141 -4.97122 0
M  V30 824 N 73.905 1.17692 -1.04816 0
M  V30 825 C 75.154 1.87192 -0.751132 0
M  V30 826 C 75.467 1.8169 0.724441 0
M  V30 827 O 76.673 2.46625 1.13527 0
M  V30 828 C 75.129 3.35857 -1.29338 0
M  V30 829 C 74.737 3.4987 -2.79812 0
M  V30 830 C 76.481 4.10709 -1.07322 0
M  V30 831 C 74.388 4.92536 -3.27356 0
M  V30 832 H 73.318 0.701162 -0.277288 0
M  V30 833 H 75.969 1.32932 -1.26496 0
M  V30 834 H 74.351 3.89631 -0.707376 0
M  V30 835 H 75.525 3.06332 -3.44235 0
M  V30 836 H 73.84 2.88433 -3.00325 0
M  V30 837 H 76.437 5.15952 -1.4035 0
M  V30 838 H 76.78 4.16299 -0.0108001 0
M  V30 839 H 77.313 3.6313 -1.62423 0
M  V30 840 H 74.052 4.92119 -4.33012 0
M  V30 841 H 73.572 5.3676 -2.67673 0
M  V30 842 H 75.251 5.61288 -3.21815 0
M  V30 843 N 75.3831 0.828654 1.34056 0
M  V30 844 C 76.6321 0.415828 1.97367 0
M  V30 845 C 76.9451 -1.02796 1.6641 0
M  V30 846 O 78.1511 -1.54497 2.23255 0
M  V30 847 C 76.6071 0.692601 3.53173 0
M  V30 848 C 76.2151 2.15038 3.93017 0
M  V30 849 C 77.9591 0.346222 4.23086 0
M  V30 850 C 75.8661 2.37174 5.41758 0
M  V30 851 H 74.7961 0.151755 0.738571 0
M  V30 852 H 77.4471 1.01581 1.52819 0
M  V30 853 H 75.8291 0.0223764 3.95994 0
M  V30 854 H 77.0031 2.86024 3.61285 0
M  V30 855 H 75.3181 2.45875 3.36057 0
M  V30 856 H 77.9151 0.48937 5.32456 0
M  V30 857 H 78.2581 -0.709842 4.10204 0
M  V30 858 H 78.7911 0.971258 3.85761 0
M  V30 859 H 75.5301 3.41308 5.59633 0
M  V30 860 H 75.0501 1.70738 5.74986 0
M  V30 861 H 76.7291 2.19818 6.08514 0
M  V30 862 N 76.8612 -1.46375 0.584142 0
M  V30 863 C 78.1072 -2.02678 0.0703716 0
M  V30 864 C 78.4402 -1.4545 -1.28678 0
M  V30 865 O 77.7152 -0.62014 -1.84349 0
M  V30 866 C 77.9982 -3.60099 0.00614674 0
M  V30 867 C 77.8512 -4.27709 1.3923 0
M  V30 868 C 79.1702 -4.34598 -0.693742 0
M  V30 869 H 76.2892 -0.736504 0.027047 0
M  V30 870 H 78.9312 -1.74501 0.751615 0
M  V30 871 H 77.0812 -3.84236 -0.574009 0
M  V30 872 H 78.7532 -4.14832 2.01773 0
M  V30 873 H 76.9962 -3.87016 1.95962 0
M  V30 874 H 77.6672 -5.36478 1.29982 0
M  V30 875 H 80.1432 -4.15615 -0.200869 0
M  V30 876 H 79.0192 -5.44318 -0.707714 0
M  V30 877 H 79.2802 -4.05759 -1.75533 0
M  V30 878 N 78.3393 -0.321999 -1.54275 0
M  V30 879 C 79.5873 0.280489 -2.00144 0
M  V30 880 C 79.9083 1.52777 -1.21178 0
M  V30 881 O 79.1783 1.9338 -0.313187 0
M  V30 882 H 77.7583 0.106632 -0.73935 0
M  V30 883 H 80.4203 -0.438184 -1.8991 0
M  V30 884 H 79.5163 0.537972 -3.07428 0
M  V30 885 N 79.8174 1.5752 -0.0501392 0
M  V30 886 C 81.0474 1.96678 0.632573 0
M  V30 887 C 81.4554 0.926298 1.64974 0
M  V30 888 O 80.7984 -0.09802 1.83438 0
M  V30 889 C 80.8604 3.32068 1.37735 0
M  V30 890 C 80.5244 4.54076 0.516131 0
M  V30 891 C 81.5214 5.19445 -0.217357 0
M  V30 892 C 79.2064 5.00304 0.44736 0
M  V30 893 C 81.2004 6.29378 -1.00807 0
M  V30 894 C 78.8874 6.10114 -0.347038 0
M  V30 895 C 79.8854 6.74512 -1.07344 0
M  V30 896 O 79.5734 7.82211 -1.85477 0
M  V30 897 H 79.3054 0.652193 0.177821 0
M  V30 898 H 81.8594 2.05091 -0.112543 0
M  V30 899 H 80.0894 3.20206 2.16807 0
M  V30 900 H 81.7784 3.55981 1.95019 0
M  V30 901 H 82.5444 4.84689 -0.173688 0
M  V30 902 H 78.4234 4.49971 1.00235 0
M  V30 903 H 81.9674 6.79575 -1.57556 0
M  V30 904 H 77.8644 6.44307 -0.392349 0
M  V30 905 H 78.6324 7.98982 -1.77678 0
M  V30 906 N 81.2955 -0.223234 1.56011 0
M  V30 907 C 82.2255 -1.27988 1.95298 0
M  V30 908 C 83.2065 -1.48976 0.820979 0
M  V30 909 O 84.3915 -1.61188 1.08315 0
M  V30 910 C 81.5215 -2.63 2.26822 0
M  V30 911 C 80.4755 -2.56671 3.42497 0
M  V30 912 C 79.8015 -3.95697 3.59622 0
M  V30 913 C 81.1015 -2.11601 4.77517 0
M  V30 914 H 82.7955 -0.953525 2.8381 0
M  V30 915 H 80.3415 -0.457244 1.36548 0
M  V30 916 H 82.2945 -3.37077 2.52898 0
M  V30 917 H 81.0185 -2.9732 1.35161 0
M  V30 918 H 79.6775 -1.85051 3.16467 0
M  V30 919 H 79.3255 -4.27322 2.6534 0
M  V30 920 H 79.0255 -3.92345 4.37424 0
M  V30 921 H 80.5495 -4.71438 3.88044 0
M  V30 922 H 81.9635 -2.7542 5.02809 0
M  V30 923 H 80.3605 -2.19311 5.5859 0
M  V30 924 H 81.4305 -1.06824 4.72987 0
M  V30 925 N 82.7736 -1.49793 -0.48987 0
M  V30 926 C 83.7206 -1.67281 -1.59014 0
M  V30 927 C 84.6906 -0.514177 -1.57941 0
M  V30 928 O 85.8756 -0.742533 -1.75759 0
M  V30 929 C 83.0156 -1.75569 -2.97102 0
M  V30 930 C 82.1286 -3.0281 -3.08107 0
M  V30 931 C 81.2636 -3.02008 -4.36995 0
M  V30 932 C 80.3026 -4.23782 -4.41673 0
M  V30 933 N 79.4396 -4.20826 -5.62005 0
M  V30 934 H 84.2796 -2.61224 -1.43409 0
M  V30 935 H 81.8166 -1.29508 -0.697565 0
M  V30 936 H 83.7746 -1.78354 -3.77155 0
M  V30 937 H 82.4046 -0.850827 -3.11385 0
M  V30 938 H 81.4566 -3.09584 -2.21047 0
M  V30 939 H 82.7686 -3.92801 -3.07423 0
M  V30 940 H 81.9226 -3.03418 -5.25378 0
M  V30 941 H 80.6616 -2.09815 -4.4026 0
M  V30 942 H 79.6666 -4.22604 -3.5169 0
M  V30 943 H 80.8916 -5.17181 -4.40115 0
M  V30 944 H 78.8376 -3.31476 -5.66091 0
M  V30 945 H 78.7546 -5.04564 -5.62984 0
M  V30 946 H 80.0226 -4.26355 -6.52565 0
M  V30 947 N 84.2517 0.741722 -1.39055 0
M  V30 948 C 85.1617 1.88621 -1.39496 0
M  V30 949 C 86.1777 1.71557 -0.290578 0
M  V30 950 O 87.3537 1.94275 -0.530954 0
M  V30 951 C 84.4187 3.24134 -1.23037 0
M  V30 952 C 83.4797 3.5364 -2.43387 0
M  V30 953 C 82.7127 4.82687 -2.27703 0
M  V30 954 O 82.9357 5.55922 -1.27696 0
M  V30 955 O 81.8697 5.1194 -3.16545 0
M  V30 956 H 85.6957 1.91203 -2.35956 0
M  V30 957 H 83.2807 0.888625 -1.20099 0
M  V30 958 H 85.1627 4.0513 -1.15964 0
M  V30 959 H 83.8377 3.22337 -0.296691 0
M  V30 960 H 82.7447 2.72758 -2.56035 0
M  V30 961 H 84.0777 3.60209 -3.35425 0
M  V30 962 N 85.7298 1.2412 0.971189 0
M  V30 963 C 86.6618 0.988349 2.06795 0
M  V30 964 C 87.6748 -0.0409541 1.62748 0
M  V30 965 O 88.8638 0.195673 1.77424 0
M  V30 966 C 85.9638 0.469023 3.35639 0
M  V30 967 C 85.1368 1.56065 4.08611 0
M  V30 968 C 84.1958 1.04458 5.15728 0
M  V30 969 O 83.2218 1.73553 5.42096 0
M  V30 970 N 84.4238 -0.122817 5.8037 0
M  V30 971 H 87.1888 1.93265 2.29061 0
M  V30 972 H 84.7498 1.15102 1.13856 0
M  V30 973 H 86.7418 0.108613 4.04554 0
M  V30 974 H 85.3118 -0.380919 3.1027 0
M  V30 975 H 84.5318 2.09341 3.34021 0
M  V30 976 H 85.8198 2.29449 4.54126 0
M  V30 977 H 85.2178 -0.700563 5.61345 0
M  V30 978 H 83.7748 -0.424404 6.50417 0
M  V30 979 N 87.2079 -1.17134 1.05439 0
M  V30 980 C 88.4549 -1.87456 0.765942 0
M  V30 981 C 88.7829 -1.81189 -0.707153 0
M  V30 982 O 88.0379 -1.21633 -1.5331 0
M  V30 983 C 88.3369 -3.36833 1.19491 0
M  V30 984 C 88.0029 -3.63301 2.67063 0
M  V30 985 C 86.6649 -3.70234 3.07376 0
M  V30 986 C 89.0169 -3.74575 3.62413 0
M  V30 987 C 86.3449 -3.85933 4.41896 0
M  V30 988 C 88.6969 -3.91793 4.9667 0
M  V30 989 C 87.3609 -3.96966 5.36633 0
M  V30 990 H 86.6309 -0.685948 0.280278 0
M  V30 991 H 89.2779 -1.38556 1.32192 0
M  V30 992 H 87.5829 -3.87807 0.557969 0
M  V30 993 H 89.2799 -3.89611 0.948893 0
M  V30 994 H 85.8699 -3.58532 2.34846 0
M  V30 995 H 90.0539 -3.68537 3.32406 0
M  V30 996 H 85.3099 -3.88187 4.72357 0
M  V30 997 H 89.4839 -3.99458 5.70444 0
M  V30 998 H 87.1109 -4.08883 6.40874 0
M  V30 999 N 88.686 -0.835752 -1.33615 0
M  V30 1000 C 89.963 -0.352017 -1.92406 0
M  V30 1001 C 90.343 1.16225 -1.76224 0
M  V30 1002 O 89.691 1.97526 -1.14873 0
M  V30 1003 C 89.901 -0.795485 -3.39813 0
M  V30 1004 C 91.249 -0.801703 -4.16963 0
M  V30 1005 O 92.273 -0.738889 -3.48452 0
M  V30 1006 O 91.132 -0.886607 -5.3926 0
M  V30 1007 H 88.226 -0.0989641 -0.821057 0
M  V30 1008 H 90.772 -0.921397 -1.42507 0
M  V30 1009 H 89.544 -1.83795 -3.45449 0
M  V30 1010 H 89.167 -0.202505 -3.97084 0
M  V30 1011 N 90.1641 1.46063 -0.591896 0
M  V30 1012 C 91.3941 2.06418 -0.0867676 0
M  V30 1013 C 91.8021 1.43975 1.22751 0
M  V30 1014 O 91.1451 0.542531 1.75506 0
M  V30 1015 C 91.2071 3.59213 0.143725 0
M  V30 1016 C 90.8711 4.439 -1.08635 0
M  V30 1017 C 91.8681 4.79864 -2.00067 0
M  V30 1018 C 89.5531 4.84896 -1.31077 0
M  V30 1019 C 91.5471 5.55661 -3.12282 0
M  V30 1020 C 89.2341 5.6045 -2.43596 0
M  V30 1021 C 90.2321 5.95747 -3.34027 0
M  V30 1022 O 89.9201 6.69772 -4.4459 0
M  V30 1023 H 89.6521 0.673443 -0.0587447 0
M  V30 1024 H 92.2061 1.88539 -0.814994 0
M  V30 1025 H 90.4361 3.75433 0.926668 0
M  V30 1026 H 92.1251 4.01463 0.5985 0
M  V30 1027 H 92.8911 4.48763 -1.83947 0
M  V30 1028 H 88.7701 4.56867 -0.61594 0
M  V30 1029 H 92.3141 5.8313 -3.82891 0
M  V30 1030 H 88.2111 5.90965 -2.59674 0
M  V30 1031 H 88.9791 6.88207 -4.43073 0
M  V30 1032 N 91.6422 0.330177 1.54103 0
M  V30 1033 C 92.5722 -0.525353 2.27513 0
M  V30 1034 C 93.5532 -1.11383 1.2856 0
M  V30 1035 O 94.7382 -1.13773 1.57383 0
M  V30 1036 C 91.8682 -1.6831 3.03791 0
M  V30 1037 C 90.8222 -1.2236 4.10137 0
M  V30 1038 C 90.1482 -2.46882 4.74293 0
M  V30 1039 C 91.4482 -0.333697 5.21233 0
M  V30 1040 H 93.1422 0.087013 2.99274 0
M  V30 1041 H 90.6882 0.0432893 1.43935 0
M  V30 1042 H 92.6412 -2.28795 3.5388 0
M  V30 1043 H 91.3652 -2.32216 2.29659 0
M  V30 1044 H 90.0242 -0.64165 3.60941 0
M  V30 1045 H 89.6722 -3.09165 3.96769 0
M  V30 1046 H 89.3722 -2.16825 5.46133 0
M  V30 1047 H 90.8962 -3.08117 5.27159 0
M  V30 1048 H 92.3102 -0.845013 5.67038 0
M  V30 1049 H 90.7072 -0.125612 5.99969 0
M  V30 1050 H 91.7772 0.633724 4.80741 0
M  V30 1051 N 93.1203 -1.57491 0.0584922 0
M  V30 1052 C 94.0673 -2.11958 -0.913376 0
M  V30 1053 C 95.0373 -1.02875 -1.30407 0
M  V30 1054 O 96.2223 -1.30464 -1.39226 0
M  V30 1055 C 93.3623 -2.67497 -2.18035 0
M  V30 1056 C 92.4753 -3.90691 -1.84349 0
M  V30 1057 C 91.6103 -4.3452 -3.05559 0
M  V30 1058 C 90.6493 -5.50395 -2.67827 0
M  V30 1059 N 89.7863 -5.89244 -3.81754 0
M  V30 1060 H 94.6263 -2.94704 -0.442017 0
M  V30 1061 H 92.1633 -1.45643 -0.206545 0
M  V30 1062 H 94.1213 -2.978 -2.92183 0
M  V30 1063 H 92.7513 -1.87537 -2.62735 0
M  V30 1064 H 91.8033 -3.66934 -1.00319 0
M  V30 1065 H 93.1153 -4.7489 -1.5258 0
M  V30 1066 H 92.2693 -4.66414 -3.87998 0
M  V30 1067 H 91.0083 -3.49147 -3.40511 0
M  V30 1068 H 90.0133 -5.18165 -1.83806 0
M  V30 1069 H 91.2383 -6.3749 -2.34059 0
M  V30 1070 H 89.1843 -5.06823 -4.16493 0
M  V30 1071 H 89.1013 -6.68151 -3.53708 0
M  V30 1072 H 90.3693 -6.25756 -4.64811 0
M  V30 1073 N 94.5984 0.214957 -1.56127 0
M  V30 1074 C 95.5084 1.28727 -1.96129 0
M  V30 1075 C 96.5244 1.50916 -0.866044 0
M  V30 1076 O 97.7004 1.63918 -1.17016 0
M  V30 1077 C 94.7654 2.61569 -2.27558 0
M  V30 1078 C 93.8264 2.47625 -3.50685 0
M  V30 1079 C 93.0594 3.74132 -3.80606 0
M  V30 1080 O 93.2824 4.77438 -3.12104 0
M  V30 1081 O 92.2164 3.70849 -4.74083 0
M  V30 1082 H 96.0424 0.977855 -2.87527 0
M  V30 1083 H 93.6274 0.418358 -1.43423 0
M  V30 1084 H 95.5094 3.40012 -2.48938 0
M  V30 1085 H 94.1844 2.92178 -1.39332 0
M  V30 1086 H 93.0914 1.67361 -3.34576 0
M  V30 1087 H 94.4244 2.21954 -4.39315 0
M  V30 1088 N 96.0765 1.50051 0.48192 0
M  V30 1089 C 97.0235 1.68122 1.58125 0
M  V30 1090 C 97.9935 0.522545 1.57666 0
M  V30 1091 O 99.1785 0.751844 1.75362 0
M  V30 1092 C 96.3185 1.77142 2.96167 0
M  V30 1093 C 95.4315 3.0444 3.06497 0
M  V30 1094 C 94.5665 3.04321 4.35387 0
M  V30 1095 C 93.6055 4.26118 4.3942 0
M  V30 1096 N 92.7425 4.238 5.59766 0
M  V30 1097 H 97.5825 2.6198 1.42022 0
M  V30 1098 H 95.1195 1.29877 0.690687 0
M  V30 1099 H 97.0775 1.80352 3.76203 0
M  V30 1100 H 95.7075 0.867329 3.1093 0
M  V30 1101 H 94.7595 3.10752 2.19402 0
M  V30 1102 H 96.0715 3.94426 3.05336 0
M  V30 1103 H 95.2255 3.062 5.23762 0
M  V30 1104 H 93.9645 2.12147 4.39141 0
M  V30 1105 H 92.9695 4.24463 3.49444 0
M  V30 1106 H 94.1945 5.19507 4.37366 0
M  V30 1107 H 92.1405 3.34474 5.64326 0
M  V30 1108 H 92.0575 5.07542 5.60301 0
M  V30 1109 H 93.3255 4.2981 6.50295 0
M  V30 1110 N 97.5546 -0.734337 1.39446 0
M  V30 1111 C 98.7846 -1.52137 1.39778 0
M  V30 1112 C 99.1926 -1.89198 -0.00929312 0
M  V30 1113 O 98.5356 -1.54666 -0.991168 0
M  V30 1114 C 98.5976 -2.83762 2.20724 0
M  V30 1115 C 98.2616 -2.69131 3.69347 0
M  V30 1116 C 99.2586 -2.37635 4.62413 0
M  V30 1117 C 96.9436 -2.85982 4.1294 0
M  V30 1118 C 98.9376 -2.23172 5.97054 0
M  V30 1119 C 96.6246 -2.71137 5.47657 0
M  V30 1120 C 97.6226 -2.39777 6.39528 0
M  V30 1121 O 97.3106 -2.25026 7.71763 0
M  V30 1122 H 97.0426 -0.476717 0.479288 0
M  V30 1123 H 99.5966 -0.915012 1.83893 0
M  V30 1124 H 97.8266 -3.4666 1.71359 0
M  V30 1125 H 99.5156 -3.45383 2.13226 0
M  V30 1126 H 100.282 -2.24267 4.30034 0
M  V30 1127 H 96.1606 -3.09383 3.41765 0
M  V30 1128 H 99.7046 -1.98617 6.68728 0
M  V30 1129 H 95.6016 -2.84083 5.79626 0
M  V30 1130 H 96.3696 -2.40091 7.82495 0
M  V30 1131 N 99.0327 -1.24633 -0.964593 0
M  V30 1132 C 100.281 -1.08573 -1.70459 0
M  V30 1133 C 100.602 0.375655 -1.91347 0
M  V30 1134 O 99.8717 1.26779 -1.49345 0
M  V30 1135 H 98.4517 -0.398784 -0.631649 0
M  V30 1136 H 101.114 -1.56601 -1.16026 0
M  V30 1137 H 100.21 -1.58623 -2.68785 0
M  V30 1138 N 100.511 1.16574 -1.06058 0
M  V30 1139 C 101.757 1.87324 -0.777022 0
M  V30 1140 C 102.09 1.81351 0.694645 0
M  V30 1141 O 101.365 1.22753 1.50871 0
M  V30 1142 C 101.648 3.36991 -1.26922 0
M  V30 1143 C 101.501 3.51667 -2.80447 0
M  V30 1144 C 102.82 4.3131 -0.87521 0
M  V30 1145 H 99.9388 0.680191 -0.28374 0
M  V30 1146 H 102.581 1.37036 -1.3161 0
M  V30 1147 H 100.731 3.79949 -0.81063 0
M  V30 1148 H 102.403 3.17664 -3.34495 0
M  V30 1149 H 100.646 2.93656 -3.19294 0
M  V30 1150 H 101.317 4.56766 -3.0995 0
M  V30 1151 H 103.793 3.9624 -1.27014 0
M  V30 1152 H 102.669 5.34545 -1.2471 0
M  V30 1153 H 102.93 4.41552 0.220071 0
M  V30 1154 N 101.989 0.842826 1.3317 0
M  V30 1155 C 103.405 0.531128 1.50503 0
M  V30 1156 C 103.605 -0.940734 1.78192 0
M  V30 1157 O 102.661 -1.72436 1.84451 0
M  V30 1158 C 103.974 1.40789 2.65705 0
M  V30 1159 C 105.522 1.40708 2.79589 0
M  V30 1160 C 105.997 2.26878 3.97857 0
M  V30 1161 N 107.488 2.24609 4.05099 0
M  V30 1162 C 108.223 2.88019 4.95815 0
M  V30 1163 N 107.719 3.60496 5.9162 0
M  V30 1164 N 109.512 2.77469 4.88843 0
M  V30 1165 H 101.663 1.79557 1.1346 0
M  V30 1166 H 103.926 0.766267 0.558156 0
M  V30 1167 H 103.632 2.454 2.51936 0
M  V30 1168 H 103.506 1.08677 3.61205 0
M  V30 1169 H 105.893 0.368668 2.92788 0
M  V30 1170 H 105.974 1.76829 1.84838 0
M  V30 1171 H 105.618 3.3078 3.85418 0
M  V30 1172 H 105.548 1.88096 4.91861 0
M  V30 1173 H 108.039 1.71906 3.36536 0
M  V30 1174 H 108.352 4.06076 6.57512 0
M  V30 1175 H 106.697 3.64604 5.91683 0
M  V30 1176 H 109.888 2.20406 4.12963 0
M  V30 1177 H 110.061 3.2717 5.59342 0
M  V30 1178 N 103.467 -1.45747 0.599634 0
M  V30 1179 C 104.397 -2.33235 -0.111306 0
M  V30 1180 C 105.378 -1.46359 -0.866781 0
M  V30 1181 O 106.563 -1.75146 -0.838904 0
M  V30 1182 C 103.693 -3.28932 -1.11451 0
M  V30 1183 C 102.647 -4.25381 -0.472772 0
M  V30 1184 C 101.973 -5.1071 -1.58365 0
M  V30 1185 C 103.273 -5.18831 0.600948 0
M  V30 1186 H 104.967 -2.92927 0.61919 0
M  V30 1187 H 102.513 -1.40857 0.299215 0
M  V30 1188 H 104.466 -3.89002 -1.62036 0
M  V30 1189 H 103.19 -2.67381 -1.8755 0
M  V30 1190 H 101.849 -3.66598 0.0121472 0
M  V30 1191 H 101.497 -4.45533 -2.33473 0
M  V30 1192 H 101.197 -5.7604 -1.15982 0
M  V30 1193 H 102.721 -5.73647 -2.09194 0
M  V30 1194 H 104.135 -5.73019 0.179491 0
M  V30 1195 H 102.532 -5.92595 0.946076 0
M  V30 1196 H 103.602 -4.6174 1.48068 0
M  V30 1197 N 104.945 -0.338344 -1.53925 0
M  V30 1198 C 106.191 0.260143 -2.01125 0
M  V30 1199 C 106.524 1.50617 -1.22589 0
M  V30 1200 O 105.799 1.91979 -0.312113 0
M  V30 1201 C 106.082 0.579499 -3.55407 0
M  V30 1202 C 105.935 -0.678264 -4.44657 0
M  V30 1203 C 107.254 1.39122 -4.17532 0
M  V30 1204 H 104.373 0.0930772 -0.731099 0
M  V30 1205 H 107.015 -0.457852 -1.84401 0
M  V30 1206 H 105.165 1.19118 -3.69788 0
M  V30 1207 H 106.837 -1.31631 -4.42121 0
M  V30 1208 H 105.08 -1.3042 -4.13731 0
M  V30 1209 H 105.751 -0.410143 -5.50474 0
M  V30 1210 H 108.227 0.874035 -4.06817 0
M  V30 1211 H 107.103 1.58342 -5.25565 0
M  V30 1212 H 107.364 2.39178 -3.71815 0
M  V30 1213 N 106.423 1.57458 -0.0668435 0
M  V30 1214 C 107.67 1.93301 0.603406 0
M  V30 1215 C 107.998 0.946486 1.69917 0
M  V30 1216 O 107.253 -0.0387021 1.95662 0
M  V30 1217 C 107.552 3.35784 1.22409 0
M  V30 1218 C 107.218 4.50179 0.254955 0
M  V30 1219 C 105.88 4.81199 -0.0116746 0
M  V30 1220 C 108.232 5.19598 -0.408338 0
M  V30 1221 C 105.56 5.78978 -0.94877 0
M  V30 1222 C 107.912 6.18381 -1.33372 0
M  V30 1223 C 106.576 6.47821 -1.60887 0
M  V30 1224 H 105.846 0.707338 0.220802 0
M  V30 1225 H 108.493 1.91012 -0.136665 0
M  V30 1226 H 106.798 3.34515 2.03978 0
M  V30 1227 H 108.495 3.60804 1.74989 0
M  V30 1228 H 105.085 4.25983 0.472954 0
M  V30 1229 H 109.269 4.95832 -0.215456 0
M  V30 1230 H 104.525 6.00115 -1.16925 0
M  V30 1231 H 108.699 6.71277 -1.85367 0
M  V30 1232 H 106.326 7.23399 -2.33661 0
M  V30 1233 N 107.901 -0.206675 1.56239 0
M  V30 1234 C 108.849 -1.27571 1.94495 0
M  V30 1235 C 109.843 -1.47737 0.828862 0
M  V30 1236 O 111.049 -1.48735 1.0138 0
M  V30 1237 H 107.424 -0.428029 0.6183 0
M  V30 1238 H 109.395 -0.925961 2.8367 0
M  V30 1239 C 108.144 -2.61568 2.29079 0
M  V30 1240 H 107.467 -2.46863 3.14482 0
M  V30 1241 H 108.907 -3.35144 2.5972 0
M  V30 1242 C 107.366 -3.17695 1.12123 0
M  V30 1243 O 107.896 -3.99801 0.390153 0
M  V30 1244 N 106.102 -2.76276 0.901097 0
M  V30 1245 H 105.649 -2.09613 1.49733 0
M  V30 1246 H 105.607 -3.1417 0.120319 0
M  V30 1247 N 109.379 -1.50304 -0.473955 0
M  V30 1248 C 110.656 -1.51667 -1.23518 0
M  V30 1249 C 111.036 -0.259701 -2.09496 0
M  V30 1250 O 110.384 0.756986 -2.15597 0
M  V30 1251 C 110.594 -2.81082 -2.06868 0
M  V30 1252 C 111.942 -3.31631 -2.65153 0
M  V30 1253 O 112.966 -2.82384 -2.17113 0
M  V30 1254 O 111.825 -4.17471 -3.52675 0
M  V30 1255 H 108.919 -0.60822 -0.560355 0
M  V30 1256 H 111.465 -1.62592 -0.486011 0
M  V30 1257 H 110.237 -3.64041 -1.4349 0
M  V30 1258 H 109.86 -2.73146 -2.88924 0
M  V30 1259 N 110.857 0.726932 -1.39834 0
M  V30 1260 C 111.804 1.841 -1.39197 0
M  V30 1261 C 112.774 1.642 -0.250502 0
M  V30 1262 O 113.959 1.85494 -0.446846 0
M  V30 1263 C 111.099 3.21697 -1.24919 0
M  V30 1264 C 110.212 3.53247 -2.48678 0
M  V30 1265 C 109.347 4.80289 -2.26928 0
M  V30 1266 C 108.386 5.04707 -3.4632 0
M  V30 1267 N 107.523 6.22956 -3.23836 0
M  V30 1268 H 112.363 1.83979 -2.34427 0
M  V30 1269 H 109.9 0.898876 -1.16442 0
M  V30 1270 H 111.858 4.01137 -1.1465 0
M  V30 1271 H 110.488 3.21076 -0.333153 0
M  V30 1272 H 109.54 2.68447 -2.69519 0
M  V30 1273 H 110.852 3.67205 -3.37582 0
M  V30 1274 H 110.006 5.67725 -2.13947 0
M  V30 1275 H 108.745 4.68519 -1.35431 0
M  V30 1276 H 107.75 4.1573 -3.5979 0
M  V30 1277 H 108.975 5.18357 -4.38729 0
M  V30 1278 H 106.921 6.12459 -2.35011 0
M  V30 1279 H 106.838 6.37539 -4.063 0
M  V30 1280 H 108.106 7.1321 -3.14566 0
M  V30 1281 N 112.336 1.25143 0.95797 0
M  V30 1282 C 113.566 1.12261 1.73439 0
M  V30 1283 C 113.974 -0.326715 1.86358 0
M  V30 1284 O 113.317 -1.2367 1.35836 0
M  V30 1285 C 113.379 1.69966 3.16784 0
M  V30 1286 C 113.043 3.18936 3.27305 0
M  V30 1287 C 114.04 4.15968 3.11877 0
M  V30 1288 C 111.725 3.59083 3.51234 0
M  V30 1289 C 113.719 5.51126 3.20217 0
M  V30 1290 C 111.406 4.9438 3.5921 0
M  V30 1291 C 112.404 5.90211 3.43716 0
M  V30 1292 O 112.092 7.23046 3.51368 0
M  V30 1293 H 111.824 0.392476 0.550399 0
M  V30 1294 H 114.378 1.65927 1.21068 0
M  V30 1295 H 112.608 1.10744 3.70503 0
M  V30 1296 H 114.297 1.52232 3.76272 0
M  V30 1297 H 115.063 3.86292 2.93264 0
M  V30 1298 H 110.942 2.84989 3.62356 0
M  V30 1299 H 114.486 6.25905 3.0804 0
M  V30 1300 H 110.383 5.23723 3.77339 0
M  V30 1301 H 111.151 7.31097 3.6802 0
M  V30 1302 N 113.814 -1.1601 1.06675 0
M  V30 1303 C 114.777 -2.18724 0.685001 0
M  V30 1304 C 115.777 -1.58496 -0.271246 0
M  V30 1305 O 116.967 -1.74119 -0.0531156 0
M  V30 1306 C 114.099 -3.40899 0.00853648 0
M  V30 1307 H 115.292 -2.54011 1.59431 0
M  V30 1308 H 112.845 -1.30352 0.862441 0
M  V30 1309 H 113.58 -3.11173 -0.913337 0
M  V30 1310 H 113.365 -3.8587 0.696204 0
M  V30 1311 H 114.855 -4.16886 -0.24414 0
M  V30 1312 N 115.292 -0.849877 -1.32721 0
M  V30 1313 C 116.569 -0.372405 -1.92022 0
M  V30 1314 C 116.949 1.1435 -1.77447 0
M  V30 1315 O 116.297 1.96296 -1.16962 0
M  V30 1316 C 116.507 -0.831482 -3.3895 0
M  V30 1317 C 117.855 -0.845882 -4.16089 0
M  V30 1318 O 118.879 -0.775806 -3.47649 0
M  V30 1319 O 117.738 -0.943753 -5.38289 0
M  V30 1320 H 114.832 -0.107667 -0.819961 0
M  V30 1321 H 117.378 -0.93646 -1.41522 0
M  V30 1322 H 116.15 -1.87448 -3.4348 0
M  V30 1323 H 115.773 -0.24461 -3.96847 0
M  V30 1324 N 116.77 1.45427 -0.607355 0
M  V30 1325 C 118 2.06314 -0.108656 0
M  V30 1326 C 118.408 1.45269 1.21217 0
M  V30 1327 O 117.751 0.561115 1.74921 0
M  V30 1328 C 117.813 3.59345 0.105618 0
M  V30 1329 C 117.477 4.42723 -1.13337 0
M  V30 1330 C 118.474 4.77715 -2.05145 0
M  V30 1331 C 116.159 4.83478 -1.36213 0
M  V30 1332 C 118.153 5.52317 -3.18158 0
M  V30 1333 C 115.84 5.57835 -2.49527 0
M  V30 1334 C 116.838 5.92171 -3.40327 0
M  V30 1335 O 116.526 6.65019 -4.51669 0
M  V30 1336 H 116.258 0.672782 -0.0658842 0
M  V30 1337 H 118.812 1.87664 -0.834945 0
M  V30 1338 H 117.042 3.76394 0.886796 0
M  V30 1339 H 118.731 4.02076 0.555886 0
M  V30 1340 H 119.497 4.46787 -1.88697 0
M  V30 1341 H 115.376 4.56188 -0.664362 0
M  V30 1342 H 118.92 5.79036 -3.89054 0
M  V30 1343 H 114.817 5.88177 -2.65928 0
M  V30 1344 H 115.585 6.83469 -4.50348 0
M  V30 1345 N 118.248 0.346503 1.53744 0
M  V30 1346 C 119.196 -0.52422 2.26616 0
M  V30 1347 C 120.19 -1.09948 1.28871 0
M  V30 1348 O 121.396 -1.04488 1.46568 0
M  V30 1349 H 117.771 -0.187743 0.728187 0
M  V30 1350 H 119.742 0.11239 2.98188 0
M  V30 1351 C 118.491 -1.66186 3.05414 0
M  V30 1352 H 117.814 -1.22848 3.80458 0
M  V30 1353 H 119.254 -2.24622 3.59612 0
M  V30 1354 C 117.713 -2.59302 2.1509 0
M  V30 1355 O 118.243 -3.61628 1.74895 0
M  V30 1356 N 116.449 -2.28055 1.8011 0
M  V30 1357 H 115.996 -1.44883 2.12994 0
M  V30 1358 H 115.954 -2.90615 1.19958 0
M  V30 1359 N 119.726 -1.57421 0.075193 0
M  V30 1360 C 120.674 -2.14124 -0.908508 0
M  V30 1361 C 121.668 -1.07898 -1.30592 0
M  V30 1362 O 122.874 -1.26273 -1.28277 0
M  V30 1363 H 119.249 -0.684707 -0.310935 0
M  V30 1364 H 121.22 -2.95634 -0.405374 0
M  V30 1365 C 119.969 -2.72044 -2.16535 0
M  V30 1366 H 119.292 -3.53456 -1.86839 0
M  V30 1367 H 120.732 -3.15311 -2.83469 0
M  V30 1368 C 119.191 -1.66968 -2.92615 0
M  V30 1369 O 119.721 -1.0967 -3.86439 0
M  V30 1370 N 117.927 -1.37923 -2.55784 0
M  V30 1371 H 117.474 -1.84706 -1.79559 0
M  V30 1372 H 117.432 -0.67852 -3.06991 0
M  V30 1373 N 121.204 0.198386 -1.56346 0
M  V30 1374 C 122.451 0.919286 -1.80431 0
M  V30 1375 C 122.779 1.83393 -0.647866 0
M  V30 1376 O 122.034 1.92236 0.366556 0
M  V30 1377 C 122.333 1.77031 -3.10475 0
M  V30 1378 C 121.999 1.00693 -4.39513 0
M  V30 1379 C 120.661 0.796145 -4.74568 0
M  V30 1380 C 123.013 0.469559 -5.19081 0
M  V30 1381 C 120.341 0.0364588 -5.86689 0
M  V30 1382 C 122.693 -0.2769 -6.31994 0
M  V30 1383 C 121.357 -0.49873 -6.65634 0
M  V30 1384 H 120.627 0.336391 -0.660244 0
M  V30 1385 H 123.274 0.185872 -1.90596 0
M  V30 1386 H 121.579 2.5723 -2.95533 0
M  V30 1387 H 123.276 2.33065 -3.26315 0
M  V30 1388 H 119.866 1.18122 -4.12001 0
M  V30 1389 H 124.05 0.619816 -4.92414 0
M  V30 1390 H 119.306 -0.145412 -6.11227 0
M  V30 1391 H 123.48 -0.700684 -6.92866 0
M  V30 1392 H 121.107 -1.0893 -7.52355 0
M  V30 1393 N 122.682 1.50554 0.465978 0
M  V30 1394 C 123.912 1.65323 1.23903 0
M  V30 1395 C 124.32 0.338051 1.86155 0
M  V30 1396 O 123.663 -0.690518 1.70228 0
M  V30 1397 C 123.725 2.69048 2.3844 0
M  V30 1398 C 123.389 4.12462 1.96784 0
M  V30 1399 C 124.386 4.98168 1.48745 0
M  V30 1400 C 122.071 4.58407 2.05349 0
M  V30 1401 C 124.065 6.27868 1.0982 0
M  V30 1402 C 121.752 5.88112 1.66035 0
M  V30 1403 C 122.75 6.72668 1.18349 0
M  V30 1404 O 122.438 7.99951 0.795825 0
M  V30 1405 H 122.17 0.558629 0.38067 0
M  V30 1406 H 124.724 1.97561 0.562022 0
M  V30 1407 H 122.954 2.32062 3.09328 0
M  V30 1408 H 124.643 2.72985 3.0039 0
M  V30 1409 H 125.409 4.63885 1.41546 0
M  V30 1410 H 121.288 3.92735 2.41414 0
M  V30 1411 H 124.832 6.93819 0.725293 0
M  V30 1412 H 120.729 6.21914 1.72895 0
M  V30 1413 H 121.497 8.13265 0.924222 0
M  V30 1414 N 124.16 -0.719506 1.40217 0
M  V30 1415 C 125.385 -1.51371 1.4178 0
M  V30 1416 C 125.81 -1.88091 0.0182355 0
M  V30 1417 O 125.168 -1.52997 -0.972707 0
M  V30 1418 C 125.216 -2.768 2.31115 0
M  V30 1419 O 124.32 -3.73349 1.7517 0
M  V30 1420 H 123.661 -0.456529 0.482159 0
M  V30 1421 H 126.191 -0.88644 1.844 0
M  V30 1422 H 126.201 -3.25371 2.46167 0
M  V30 1423 H 124.876 -2.49407 3.3282 0
M  V30 1424 H 123.453 -3.32179 1.69444 0
M  V30 1425 N 125.638 -1.25649 -0.95132 0
M  V30 1426 C 126.568 -1.08808 -2.06599 0
M  V30 1427 C 127.549 0.00382547 -1.701 0
M  V30 1428 O 128.734 -0.166325 -1.93486 0
M  V30 1429 C 125.864 -0.709542 -3.39975 0
M  V30 1430 C 124.818 -1.75206 -3.90496 0
M  V30 1431 C 124.144 -1.22811 -5.20405 0
M  V30 1432 C 125.444 -3.15153 -4.16504 0
M  V30 1433 H 127.138 -2.02048 -2.20946 0
M  V30 1434 H 124.684 -0.972835 -1.06169 0
M  V30 1435 H 126.637 -0.578649 -4.17408 0
M  V30 1436 H 125.361 0.258556 -3.25575 0
M  V30 1437 H 124.02 -1.87145 -3.15234 0
M  V30 1438 H 123.668 -0.250145 -5.02378 0
M  V30 1439 H 123.368 -1.92492 -5.55176 0
M  V30 1440 H 124.892 -1.10968 -6.00432 0
M  V30 1441 H 126.306 -3.06349 -4.84586 0
M  V30 1442 H 124.703 -3.82333 -4.62538 0
M  V30 1443 H 125.773 -3.61966 -3.22658 0
M  V30 1444 N 127.117 1.15442 -1.07289 0
M  V30 1445 C 128.347 1.89821 -0.815576 0
M  V30 1446 C 128.755 1.7823 0.634867 0
M  V30 1447 O 128.098 1.13152 1.44715 0
M  V30 1448 C 128.16 3.40817 -1.14385 0
M  V30 1449 C 127.824 3.76193 -2.59476 0
M  V30 1450 C 128.821 3.77269 -3.57721 0
M  V30 1451 C 126.506 4.0652 -2.95037 0
M  V30 1452 C 128.5 4.08176 -4.89562 0
M  V30 1453 C 126.187 4.37092 -4.27076 0
M  V30 1454 C 127.185 4.37902 -5.24148 0
M  V30 1455 O 126.873 4.67741 -6.53815 0
M  V30 1456 H 126.605 0.608465 -0.294528 0
M  V30 1457 H 129.159 1.472 -1.43252 0
M  V30 1458 H 127.389 3.83835 -0.469865 0
M  V30 1459 H 129.078 3.96485 -0.869179 0
M  V30 1460 H 129.844 3.5394 -3.3159 0
M  V30 1461 H 125.723 4.05049 -2.20128 0
M  V30 1462 H 129.267 4.08723 -5.65324 0
M  V30 1463 H 125.164 4.59889 -4.5296 0
M  V30 1464 H 125.932 4.85509 -6.58957 0
M  V30 1465 N 128.595 0.856903 1.32268 0
M  V30 1466 C 129.525 0.31858 2.31316 0
M  V30 1467 C 130.506 -0.583487 1.59779 0
M  V30 1468 O 131.691 -0.503259 1.87566 0
M  V30 1469 C 128.821 -0.491979 3.43798 0
M  V30 1470 C 127.775 0.315849 4.26833 0
M  V30 1471 C 127.101 -0.619586 5.31098 0
M  V30 1472 C 128.401 1.54282 4.98993 0
M  V30 1473 H 130.095 1.14621 2.76591 0
M  V30 1474 H 127.641 0.552613 1.32974 0
M  V30 1475 H 129.594 -0.879012 4.1213 0
M  V30 1476 H 128.318 -1.35299 2.97257 0
M  V30 1477 H 126.977 0.684664 3.6015 0
M  V30 1478 H 126.625 -1.47751 4.8081 0
M  V30 1479 H 126.325 -0.0830621 5.87541 0
M  V30 1480 H 127.849 -1.00375 6.02293 0
M  V30 1481 H 129.263 1.22796 5.59995 0
M  V30 1482 H 127.66 2.01745 5.65172 0
M  V30 1483 H 128.73 2.30285 4.26728 0
M  V30 1484 N 130.073 -1.45103 0.615059 0
M  V30 1485 C 131.319 -2.02483 0.113347 0
M  V30 1486 C 131.652 -1.48146 -1.25564 0
M  V30 1487 O 130.927 -0.659104 -1.82992 0
M  V30 1488 C 131.21 -3.60005 0.0825278 0
M  V30 1489 C 131.063 -4.2466 1.48271 0
M  V30 1490 C 132.382 -4.35972 -0.601401 0
M  V30 1491 H 129.501 -0.735764 0.0426632 0
M  V30 1492 H 132.143 -1.72868 0.788461 0
M  V30 1493 H 130.293 -3.85367 -0.492378 0
M  V30 1494 H 131.965 -4.10458 2.10527 0
M  V30 1495 H 130.208 -3.82772 2.04127 0
M  V30 1496 H 130.879 -5.336 1.41332 0
M  V30 1497 H 133.355 -4.15947 -0.112666 0
M  V30 1498 H 132.231 -5.45697 -0.592097 0
M  V30 1499 H 132.492 -4.09391 -1.66887 0
M  V30 1500 N 131.551 -0.354651 -1.53558 0
M  V30 1501 C 132.498 0.496968 -2.25386 0
M  V30 1502 C 133.468 1.0865 -1.25636 0
M  V30 1503 O 134.653 1.12104 -1.54394 0
M  V30 1504 C 131.793 1.63637 -3.03837 0
M  V30 1505 C 130.906 1.07307 -4.18461 0
M  V30 1506 C 130.041 2.18068 -4.84376 0
M  V30 1507 C 129.08 1.59147 -5.91049 0
M  V30 1508 N 128.217 2.63695 -6.50699 0
M  V30 1509 H 133.057 -0.122075 -2.9775 0
M  V30 1510 H 130.594 -0.0720154 -1.46924 0
M  V30 1511 H 132.552 2.30734 -3.47589 0
M  V30 1512 H 131.182 2.22623 -2.33749 0
M  V30 1513 H 130.234 0.292708 -3.79272 0
M  V30 1514 H 131.546 0.602193 -4.95152 0
M  V30 1515 H 130.7 2.93007 -5.31255 0
M  V30 1516 H 129.439 2.68504 -4.07133 0
M  V30 1517 H 128.444 0.827175 -5.43542 0
M  V30 1518 H 129.669 1.09549 -6.70206 0
M  V30 1519 H 127.615 3.13365 -5.76315 0
M  V30 1520 H 127.532 2.21263 -7.22896 0
M  V30 1521 H 128.8 3.3837 -7.02229 0
M  V30 1522 N 133.029 1.57378 -0.0835403 0
M  V30 1523 C 133.939 2.16897 0.894021 0
M  V30 1524 C 134.955 1.13528 1.31861 0
M  V30 1525 O 136.131 1.45848 1.3889 0
M  V30 1526 C 133.196 2.72831 2.13925 0
M  V30 1527 C 132.257 3.91115 1.76997 0
M  V30 1528 C 131.49 4.44371 2.95584 0
M  V30 1529 O 131.713 3.96596 4.09961 0
M  V30 1530 O 130.647 5.35549 2.74719 0
M  V30 1531 H 134.473 3.00814 0.417679 0
M  V30 1532 H 132.058 1.48741 0.140181 0
M  V30 1533 H 133.94 3.0863 2.86924 0
M  V30 1534 H 132.615 1.91967 2.60635 0
M  V30 1535 H 131.522 3.60148 1.01214 0
M  V30 1536 H 132.855 4.73307 1.3506 0
M  V30 1537 N 134.507 -0.190092 1.56449 0
M  V30 1538 C 135.417 -1.25591 1.98152 0
M  V30 1539 C 136.433 -1.49519 0.889944 0
M  V30 1540 O 137.609 -1.62036 1.19609 0
M  V30 1541 C 134.674 -2.57916 2.3169 0
M  V30 1542 C 133.735 -2.42015 3.5458 0
M  V30 1543 C 132.968 -3.6803 3.8651 0
M  V30 1544 O 133.191 -4.72413 3.1966 0
M  V30 1545 O 132.125 -3.6326 4.79923 0
M  V30 1546 H 135.951 -0.931988 2.89046 0
M  V30 1547 H 133.536 -0.395488 1.4407 0
M  V30 1548 H 135.418 -3.36008 2.54316 0
M  V30 1549 H 134.093 -2.89925 1.43963 0
M  V30 1550 H 133 -1.62017 3.37196 0
M  V30 1551 H 134.333 -2.14937 4.4279 0
M  V30 1552 N 135.985 -1.50799 -0.457987 0
M  V30 1553 C 136.915 -1.73553 -1.5621 0
M  V30 1554 C 137.896 -0.584774 -1.59732 0
M  V30 1555 O 139.081 -0.825314 -1.7579 0
M  V30 1556 C 136.211 -1.84169 -2.94447 0
M  V30 1557 C 135.165 -2.99461 -3.0579 0
M  V30 1558 C 134.491 -2.95235 -4.45803 0
M  V30 1559 C 135.791 -4.39766 -2.81786 0
M  V30 1560 H 137.485 -2.66 -1.37421 0
M  V30 1561 H 135.031 -1.28002 -0.659662 0
M  V30 1562 H 136.984 -1.98672 -3.71628 0
M  V30 1563 H 135.708 -0.883545 -3.14422 0
M  V30 1564 H 134.367 -2.8463 -2.31044 0
M  V30 1565 H 134.015 -1.97239 -4.62715 0
M  V30 1566 H 133.715 -3.72642 -4.54326 0
M  V30 1567 H 135.239 -3.11803 -5.24987 0
M  V30 1568 H 136.653 -4.55054 -3.4871 0
M  V30 1569 H 135.05 -5.18722 -3.0174 0
M  V30 1570 H 136.12 -4.51229 -1.7754 0
M  V30 1571 N 137.463 0.71206 -1.40597 0
M  V30 1572 C 138.426 1.80785 -1.40888 0
M  V30 1573 C 139.426 1.57937 -0.302103 0
M  V30 1574 O 140.616 1.64913 -0.561182 0
M  V30 1575 C 137.748 3.18927 -1.20409 0
M  V30 1576 H 138.941 1.81924 -2.38419 0
M  V30 1577 H 136.494 0.91805 -1.26497 0
M  V30 1578 H 137.229 3.23436 -0.236522 0
M  V30 1579 H 137.014 3.36911 -2.00582 0
M  V30 1580 H 138.504 3.98949 -1.23408 0
M  V30 1581 N 138.941 1.26152 0.944643 0
M  V30 1582 C 139.889 1.07215 2.06417 0
M  V30 1583 C 140.883 9.2007e-05 1.694 0
M  V30 1584 O 142.089 0.1565 1.79318 0
M  V30 1585 H 138.464 0.329837 0.675805 0
M  V30 1586 H 140.435 2.02099 2.19541 0
M  V30 1587 C 139.184 0.718197 3.40202 0
M  V30 1588 H 138.507 1.53497 3.69159 0
M  V30 1589 H 139.947 0.625459 4.19361 0
M  V30 1590 C 138.406 -0.576435 3.31932 0
M  V30 1591 O 138.936 -1.61574 3.67773 0
M  V30 1592 N 137.142 -0.565781 2.85039 0
M  V30 1593 H 136.689 0.280367 2.5607 0
M  V30 1594 H 136.647 -1.43213 2.79888 0
M  V30 1595 N 140.419 -1.14872 1.07899 0
M  V30 1596 C 141.644 -1.90202 0.826926 0
M  V30 1597 C 142.069 -1.77774 -0.614664 0
M  V30 1598 O 141.427 -1.11431 -1.43013 0
M  V30 1599 C 141.475 -3.38352 1.24702 0
M  V30 1600 O 140.579 -4.10497 0.39575 0
M  V30 1601 H 139.92 -0.591968 0.300782 0
M  V30 1602 H 142.45 -1.45437 1.43907 0
M  V30 1603 H 142.46 -3.89156 1.22563 0
M  V30 1604 H 141.135 -3.46715 2.29698 0
M  V30 1605 H 139.712 -3.69796 0.480117 0
M  V30 1606 N 141.898 -0.863906 -1.31812 0
M  V30 1607 C 143.128 -0.485406 -2.00817 0
M  V30 1608 C 143.536 0.925007 -1.65046 0
M  V30 1609 O 142.879 1.61653 -0.872574 0
M  V30 1610 C 142.941 -0.555589 -3.55181 0
M  V30 1611 C 142.605 -1.92654 -4.14407 0
M  V30 1612 C 143.602 -2.89324 -4.31958 0
M  V30 1613 C 141.287 -2.2262 -4.50273 0
M  V30 1614 C 143.281 -4.14108 -4.84555 0
M  V30 1615 C 140.968 -3.47654 -5.02573 0
M  V30 1616 C 141.966 -4.43214 -5.19664 0
M  V30 1617 O 141.654 -5.66033 -5.70843 0
M  V30 1618 H 141.386 -0.188224 -0.649267 0
M  V30 1619 H 143.94 -1.16514 -1.69156 0
M  V30 1620 H 142.17 0.181037 -3.86276 0
M  V30 1621 H 143.859 -0.19138 -4.05449 0
M  V30 1622 H 144.625 -2.6748 -4.04573 0
M  V30 1623 H 140.504 -1.4902 -4.3625 0
M  V30 1624 H 144.048 -4.88703 -4.9781 0
M  V30 1625 H 139.945 -3.69345 -5.29391 0
M  V30 1626 H 140.713 -5.6812 -5.89222 0
M  V30 1627 N 143.376 1.44774 -0.622745 0
M  V30 1628 C 144.622 2.0242 -0.124083 0
M  V30 1629 C 144.955 1.4881 1.24777 0
M  V30 1630 O 144.23 0.668799 1.8264 0
M  V30 1631 C 144.513 3.59957 -0.101619 0
M  V30 1632 C 144.366 4.23867 -1.50521 0
M  V30 1633 C 145.685 4.36284 0.578272 0
M  V30 1634 H 142.804 0.735528 -0.0465645 0
M  V30 1635 H 145.446 1.72447 -0.797617 0
M  V30 1636 H 143.596 3.85623 0.471934 0
M  V30 1637 H 145.268 4.09336 -2.12701 0
M  V30 1638 H 143.511 3.81684 -2.06154 0
M  V30 1639 H 144.182 5.32843 -1.4416 0
M  V30 1640 H 146.658 4.16001 0.0906057 0
M  V30 1641 H 145.534 5.46004 0.563149 0
M  V30 1642 H 145.795 4.10271 1.64713 0
M  V30 1643 N 144.854 0.36279 1.53368 0
M  V30 1644 C 146.103 -0.22888 2.00397 0
M  V30 1645 C 146.416 -1.50096 1.25421 0
M  V30 1646 O 147.622 -2.17106 1.63025 0
M  V30 1647 C 146.078 -0.458417 3.56969 0
M  V30 1648 C 145.686 0.798877 4.4082 0
M  V30 1649 C 147.43 -1.00789 4.12361 0
M  V30 1650 C 145.337 0.539078 5.88938 0
M  V30 1651 H 144.267 -0.089305 0.748693 0
M  V30 1652 H 146.918 0.481099 1.77081 0
M  V30 1653 H 145.3 -1.22959 3.76427 0
M  V30 1654 H 146.474 1.57262 4.33134 0
M  V30 1655 H 144.789 1.27137 3.96516 0
M  V30 1656 H 147.386 -1.21754 5.20653 0
M  V30 1657 H 147.729 -1.9692 3.66781 0
M  V30 1658 H 148.262 -0.296961 3.9669 0
M  V30 1659 H 145.001 1.47064 6.3879 0
M  V30 1660 H 144.521 -0.196222 5.99479 0
M  V30 1661 H 146.2 0.163542 6.46793 0
M  V30 1662 N 146.332 -1.57332 0.0918853 0
M  V30 1663 C 147.609 -1.85691 -0.614668 0
M  V30 1664 C 147.989 -0.988146 -1.86545 0
M  V30 1665 O 147.337 -0.0597055 -2.28422 0
M  V30 1666 C 147.547 -3.36294 -0.933126 0
M  V30 1667 C 148.895 -4.04275 -1.29796 0
M  V30 1668 O 149.919 -3.41157 -1.02424 0
M  V30 1669 O 148.778 -5.1564 -1.81047 0
M  V30 1670 H 145.872 -0.767802 -0.307261 0
M  V30 1671 H 148.418 -1.69244 0.12434 0
M  V30 1672 H 147.19 -3.91273 -0.0456404 0
M  V30 1673 H 146.813 -3.58076 -1.72822 0
M  V30 1674 N 147.81 0.181792 -1.56548 0
M  V30 1675 C 148.773 1.20894 -1.94724 0
M  V30 1676 C 149.773 1.37738 -0.829747 0
M  V30 1677 O 150.963 1.35323 -1.09697 0
M  V30 1678 C 148.095 2.57593 -2.23291 0
M  V30 1679 H 149.288 0.882275 -2.86629 0
M  V30 1680 H 146.841 0.423838 -1.50444 0
M  V30 1681 H 147.576 2.95291 -1.34067 0
M  V30 1682 H 147.361 2.46735 -3.04736 0
M  V30 1683 H 148.851 3.31637 -2.53785 0
M  V30 1684 N 149.288 1.51039 0.449983 0
M  V30 1685 C 150.565 1.53612 1.21089 0
M  V30 1686 C 150.945 0.292997 2.09057 0
M  V30 1687 O 150.293 -0.72259 2.16774 0
M  V30 1688 C 150.503 2.84337 2.0237 0
M  V30 1689 C 151.851 3.35807 2.59843 0
M  V30 1690 O 152.875 2.85802 2.12593 0
M  V30 1691 O 151.734 4.23029 3.45989 0
M  V30 1692 H 148.828 0.617057 0.550608 0
M  V30 1693 H 151.374 1.63344 0.460082 0
M  V30 1694 H 150.146 3.66278 1.37681 0
M  V30 1695 H 149.769 2.77708 2.84542 0
M  V30 1696 N 150.766 -0.704594 1.40972 0
M  V30 1697 C 151.714 -1.83994 1.42299 0
M  V30 1698 C 152.708 -1.66684 0.302111 0
M  V30 1699 O 153.914 -1.73655 0.473697 0
M  V30 1700 H 150.289 -0.606171 0.44504 0
M  V30 1701 H 152.26 -1.79992 2.38003 0
M  V30 1702 C 151.009 -3.21946 1.31323 0
M  V30 1703 H 150.332 -3.35878 2.16855 0
M  V30 1704 H 151.772 -4.01491 1.36311 0
M  V30 1705 C 150.231 -3.36891 0.0245977 0
M  V30 1706 O 150.761 -3.90687 -0.934153 0
M  V30 1707 N 148.967 -2.90559 -0.0485243 0
M  V30 1708 H 148.514 -2.46968 0.732419 0
M  V30 1709 H 148.472 -3.00937 -0.910171 0
M  V30 1710 N 152.244 -1.26651 -0.937939 0
M  V30 1711 C 153.474 -1.15006 -1.71631 0
M  V30 1712 C 153.882 0.297026 -1.86854 0
M  V30 1713 O 153.225 1.21493 -1.37786 0
M  V30 1714 C 153.287 -1.74984 -3.14039 0
M  V30 1715 C 152.951 -3.24103 -3.2219 0
M  V30 1716 C 153.948 -4.20877 -3.05219 0
M  V30 1717 C 151.633 -3.64625 -3.45476 0
M  V30 1718 C 153.627 -5.56151 -3.11408 0
M  V30 1719 C 151.314 -5.00032 -3.513 0
M  V30 1720 C 152.312 -5.95604 -3.34282 0
M  V30 1721 O 152 -7.28545 -3.3982 0
M  V30 1722 H 151.732 -0.401183 -0.544085 0
M  V30 1723 H 154.286 -1.67832 -1.18413 0
M  V30 1724 H 152.516 -1.16624 -3.68695 0
M  V30 1725 H 154.205 -1.58199 -3.73802 0
M  V30 1726 H 154.971 -3.90908 -2.87081 0
M  V30 1727 H 150.85 -2.90718 -3.57777 0
M  V30 1728 H 154.394 -6.30727 -2.98043 0
M  V30 1729 H 150.291 -5.29659 -3.68959 0
M  V30 1730 H 151.059 -7.3686 -3.56343 0
M  V30 1731 N 153.722 1.14298 -1.08507 0
M  V30 1732 C 154.652 2.21542 -0.737646 0
M  V30 1733 C 155.633 1.67773 0.280377 0
M  V30 1734 O 156.818 1.93616 0.150521 0
M  V30 1735 C 153.948 3.46988 -0.147259 0
M  V30 1736 C 152.902 4.13789 -1.09374 0
M  V30 1737 C 152.228 5.33449 -0.365524 0
M  V30 1738 C 153.528 4.62208 -2.4323 0
M  V30 1739 H 155.222 2.5086 -1.6343 0
M  V30 1740 H 152.768 1.20576 -0.787243 0
M  V30 1741 H 154.721 4.21262 0.107808 0
M  V30 1742 H 153.445 3.17037 0.784538 0
M  V30 1743 H 152.104 3.4147 -1.33393 0
M  V30 1744 H 151.752 4.99759 0.57011 0
M  V30 1745 H 151.452 5.79088 -0.996512 0
M  V30 1746 H 152.976 6.10485 -0.118534 0
M  V30 1747 H 154.39 5.27952 -2.23472 0
M  V30 1748 H 152.787 5.18553 -3.02031 0
M  V30 1749 H 153.857 3.77224 -3.04681 0
M  V30 1750 N 155.201 0.870884 1.31352 0
M  V30 1751 C 156.448 0.482273 1.96673 0
M  V30 1752 C 156.776 -0.965638 1.68836 0
M  V30 1753 O 156.031 -1.69514 0.977937 0
M  V30 1754 C 156.33 0.687157 3.50732 0
M  V30 1755 C 155.996 2.108 3.9859 0
M  V30 1756 C 154.658 2.49656 4.1137 0
M  V30 1757 C 157.01 3.03459 4.23748 0
M  V30 1758 C 154.338 3.80412 4.46659 0
M  V30 1759 C 156.69 4.3373 4.60501 0
M  V30 1760 C 155.354 4.725 4.71487 0
M  V30 1761 H 154.624 0.176476 0.719679 0
M  V30 1762 H 157.271 1.10405 1.56471 0
M  V30 1763 H 155.576 -0.0177476 3.91796 0
M  V30 1764 H 157.273 0.366284 3.99324 0
M  V30 1765 H 153.863 1.79633 3.8914 0
M  V30 1766 H 158.047 2.74665 4.13368 0
M  V30 1767 H 153.303 4.1021 4.53362 0
M  V30 1768 H 157.477 5.05578 4.78919 0
M  V30 1769 H 155.104 5.73859 4.98588 0
M  V30 1770 N 156.679 -1.44442 0.630414 0
M  V30 1771 C 157.626 -2.30678 -0.0749355 0
M  V30 1772 C 158.596 -1.4344 -0.837502 0
M  V30 1773 O 159.781 -1.72343 -0.818684 0
M  V30 1774 C 156.921 -3.28706 -1.05103 0
M  V30 1775 C 156.034 -4.31046 -0.286954 0
M  V30 1776 C 155.169 -5.16167 -1.2548 0
M  V30 1777 C 154.208 -6.10216 -0.479843 0
M  V30 1778 N 153.345 -6.88039 -1.39811 0
M  V30 1779 H 158.185 -2.90454 0.666386 0
M  V30 1780 H 155.722 -1.43107 0.340404 0
M  V30 1781 H 157.68 -3.84027 -1.63031 0
M  V30 1782 H 156.31 -2.70632 -1.75949 0
M  V30 1783 H 155.362 -3.78203 0.408243 0
M  V30 1784 H 156.674 -4.97794 0.316657 0
M  V30 1785 H 155.828 -5.76002 -1.90544 0
M  V30 1786 H 154.567 -4.49491 -1.89233 0
M  V30 1787 H 153.572 -5.49491 0.184295 0
M  V30 1788 H 154.797 -6.78928 0.152965 0
M  V30 1789 H 152.743 -6.24032 -2.02287 0
M  V30 1790 H 152.66 -7.51223 -0.848508 0
M  V30 1791 H 153.928 -7.52397 -2.03762 0
M  V30 1792 N 158.157 -0.370918 -1.53173 0
M  V30 1793 C 159.105 0.488101 -2.27421 0
M  V30 1794 C 160.099 1.07884 -1.30604 0
M  V30 1795 O 161.305 1.02143 -1.48212 0
M  V30 1796 H 157.68 0.176134 -0.731082 0
M  V30 1797 H 159.651 -0.159815 -2.97972 0
M  V30 1798 C 158.4 1.61306 -3.08019 0
M  V30 1799 H 157.723 1.1678 -3.82364 0
M  V30 1800 H 159.163 2.18872 -3.63141 0
M  V30 1801 C 157.622 2.55848 -2.19188 0
M  V30 1802 O 158.152 3.58799 -1.80626 0
M  V30 1803 N 156.358 2.2516 -1.83715 0
M  V30 1804 H 155.905 1.41476 -2.15273 0
M  V30 1805 H 155.863 2.8867 -1.24567 0
M  V30 1806 N 159.635 1.57281 -0.100228 0
M  V30 1807 C 160.568 2.09976 0.893612 0
M  V30 1808 C 161.546 1.01155 1.27304 0
M  V30 1809 O 162.73 1.28687 1.37739 0
M  V30 1810 C 159.857 2.58098 2.19324 0
M  V30 1811 C 158.903 3.78626 1.96328 0
M  V30 1812 S 159.736 5.21959 1.19662 0
M  V30 1813 C 160.892 5.73435 2.50844 0
M  V30 1814 H 161.125 2.93946 0.44534 0
M  V30 1815 H 158.658 1.53985 0.113167 0
M  V30 1816 H 160.616 2.8648 2.94005 0
M  V30 1817 H 159.277 1.74344 2.61272 0
M  V30 1818 H 158.47 4.10382 2.92579 0
M  V30 1819 H 158.072 3.50763 1.29775 0
M  V30 1820 H 160.364 5.82015 3.46792 0
M  V30 1821 H 161.307 6.7185 2.23659 0
M  V30 1822 H 161.715 5.01395 2.59352 0
M  V30 1823 N 161.113 -0.173488 1.56642 0
M  V30 1824 C 162.36 -0.890465 1.81871 0
M  V30 1825 C 162.688 -1.82339 0.67696 0
M  V30 1826 O 161.943 -1.92795 -0.335926 0
M  V30 1827 C 162.242 -1.72069 3.13252 0
M  V30 1828 C 161.908 -0.936878 4.41059 0
M  V30 1829 C 160.57 -0.720545 4.75775 0
M  V30 1830 C 162.922 -0.386919 5.19762 0
M  V30 1831 C 160.25 0.0568829 5.86672 0
M  V30 1832 C 162.602 0.37741 6.31473 0
M  V30 1833 C 161.266 0.604563 6.64757 0
M  V30 1834 H 160.536 -0.325844 0.665512 0
M  V30 1835 H 163.183 -0.155527 1.90867 0
M  V30 1836 H 161.488 -2.52496 2.99588 0
M  V30 1837 H 163.185 -2.27844 3.29982 0
M  V30 1838 H 159.775 -1.11553 4.13828 0
M  V30 1839 H 163.959 -0.541398 4.93338 0
M  V30 1840 H 159.215 0.242635 6.10918 0
M  V30 1841 H 163.389 0.810825 6.91664 0
M  V30 1842 H 161.016 1.20885 7.50527 0
M  V30 1843 N 162.591 -1.51276 -0.441967 0
M  V30 1844 C 164.007 -1.39349 -0.778083 0
M  V30 1845 C 164.207 -0.472212 -1.95889 0
M  V30 1846 O 163.263 0.0743551 -2.5239 0
M  V30 1847 C 164.576 -2.81292 -1.0628 0
M  V30 1848 C 166.124 -2.9041 -1.16751 0
M  V30 1849 C 166.599 -4.33251 -1.48519 0
M  V30 1850 N 168.09 -4.36336 -1.55453 0
M  V30 1851 C 168.825 -5.43885 -1.81596 0
M  V30 1852 N 168.321 -6.61601 -2.05562 0
M  V30 1853 N 170.114 -5.3136 -1.8334 0
M  V30 1854 H 162.265 -2.09729 0.335774 0
M  V30 1855 H 164.528 -0.943925 0.0878028 0
M  V30 1856 H 164.234 -3.50678 -0.267905 0
M  V30 1857 H 164.108 -3.20334 -1.99163 0
M  V30 1858 H 166.495 -2.21225 -1.95304 0
M  V30 1859 H 166.576 -2.54871 -0.217801 0
M  V30 1860 H 166.22 -5.02984 -0.704958 0
M  V30 1861 H 166.15 -4.66299 -2.44689 0
M  V30 1862 H 168.641 -3.51466 -1.38853 0
M  V30 1863 H 168.954 -7.39361 -2.24867 0
M  V30 1864 H 167.299 -6.64725 -2.02894 0
M  V30 1865 H 170.49 -4.38382 -1.64132 0
M  V30 1866 H 170.663 -6.15258 -2.03377 0
M  V30 1867 N 164.069 0.697108 -1.41344 0
M  V30 1868 C 165.017 1.83237 -1.43272 0
M  V30 1869 C 166.011 1.66522 -0.310947 0
M  V30 1870 O 167.217 1.73402 -0.482899 0
M  V30 1871 H 163.592 0.603802 -0.448249 0
M  V30 1872 H 165.563 1.78727 -2.38954 0
M  V30 1873 C 164.312 3.21245 -1.33029 0
M  V30 1874 H 163.635 3.34723 -2.18633 0
M  V30 1875 H 165.075 4.00763 -1.38439 0
M  V30 1876 C 163.534 3.36873 -0.0424635 0
M  V30 1877 O 164.064 3.91177 0.913421 0
M  V30 1878 N 162.27 2.90581 0.0331145 0
M  V30 1879 H 161.817 2.46577 -0.745506 0
M  V30 1880 H 161.775 3.01416 0.894199 0
M  V30 1881 N 165.547 1.27147 0.931209 0
M  V30 1882 C 166.824 1.0401 1.65654 0
M  V30 1883 C 167.204 -0.426297 2.06751 0
M  V30 1884 O 166.552 -1.40879 1.79904 0
M  V30 1885 C 166.762 1.99834 2.86125 0
M  V30 1886 C 168.11 2.29007 3.57549 0
M  V30 1887 O 169.134 1.97779 2.96246 0
M  V30 1888 O 167.993 2.82222 4.67989 0
M  V30 1889 H 165.087 0.396239 0.725895 0
M  V30 1890 H 167.633 1.38397 0.982056 0
M  V30 1891 H 166.405 2.98744 2.52721 0
M  V30 1892 H 166.028 1.65987 3.61295 0
M  V30 1893 N 167.025 -1.13721 1.09112 0
M  V30 1894 C 167.955 -2.21148 0.749385 0
M  V30 1895 C 168.936 -1.6792 -0.271475 0
M  V30 1896 O 170.121 -1.93693 -0.140251 0
M  V30 1897 C 167.251 -3.46905 0.165659 0
M  V30 1898 C 166.205 -4.13203 1.11567 0
M  V30 1899 C 165.531 -5.33248 0.393809 0
M  V30 1900 C 166.831 -4.60912 2.45678 0
M  V30 1901 H 168.525 -2.4999 1.64758 0
M  V30 1902 H 166.071 -1.20156 0.793626 0
M  V30 1903 H 168.024 -4.21313 -0.085466 0
M  V30 1904 H 166.748 -3.17449 -0.767714 0
M  V30 1905 H 165.407 -3.40758 1.35202 0
M  V30 1906 H 165.055 -5.00054 -0.543599 0
M  V30 1907 H 164.755 -5.78552 1.02721 0
M  V30 1908 H 166.279 -6.10413 0.150908 0
M  V30 1909 H 167.693 -5.26759 2.26269 0
M  V30 1910 H 166.09 -5.16944 3.04776 0
M  V30 1911 H 167.16 -3.75603 3.06677 0
M  V30 1912 N 168.503 -0.877838 -1.30888 0
M  V30 1913 C 169.731 -0.507414 -2.00581 0
M  V30 1914 C 170.146 0.902216 -1.65848 0
M  V30 1915 O 169.503 1.59225 -0.891831 0
M  V30 1916 C 169.554 -0.664162 -3.55347 0
M  V30 1917 O 169.275 -2.01829 -3.8884 0
M  V30 1918 C 170.776 -0.295787 -4.42312 0
M  V30 1919 H 167.996 -0.196866 -0.641471 0
M  V30 1920 H 170.54 -1.18117 -1.66939 0
M  V30 1921 H 168.695 -0.0378619 -3.87381 0
M  V30 1922 H 169.109 -2.03174 -4.8355 0
M  V30 1923 H 170.583 -0.456388 -5.5011 0
M  V30 1924 H 171.06 0.765663 -4.32475 0
M  V30 1925 H 171.666 -0.898113 -4.15709 0
M  V30 1926 N 169.982 1.44106 -0.638065 0
M  V30 1927 C 171.398 1.56672 -0.304286 0
M  V30 1928 C 171.598 1.6244 1.19228 0
M  V30 1929 O 170.654 1.57121 1.9766 0
M  V30 1930 C 171.967 2.83503 -1.00231 0
M  V30 1931 C 173.515 2.97226 -0.981116 0
M  V30 1932 C 173.99 4.26868 -1.65974 0
M  V30 1933 N 175.481 4.33698 -1.62666 0
M  V30 1934 C 176.216 5.32745 -2.12063 0
M  V30 1935 N 175.712 6.38157 -2.6968 0
M  V30 1936 N 177.505 5.24299 -2.02651 0
M  V30 1937 H 169.656 1.38605 -1.60942 0
M  V30 1938 H 171.919 0.664661 -0.675965 0
M  V30 1939 H 171.625 2.85251 -2.0573 0
M  V30 1940 H 171.499 3.73251 -0.54439 0
M  V30 1941 H 173.886 2.95027 0.0654188 0
M  V30 1942 H 173.967 2.08808 -1.47759 0
M  V30 1943 H 173.611 4.29826 -2.70576 0
M  V30 1944 H 173.541 5.14156 -1.13804 0
M  V30 1945 H 176.032 3.58138 -1.20606 0
M  V30 1946 H 176.345 7.10029 -3.05087 0
M  V30 1947 H 174.69 6.38823 -2.73734 0
M  V30 1948 H 177.881 4.4086 -1.57353 0
M  V30 1949 H 178.054 6.01334 -2.41457 0
M  V30 1950 N 171.46 0.379036 1.52974 0
M  V30 1951 C 172.685 -0.209353 2.06341 0
M  V30 1952 C 173.11 -1.40583 1.24972 0
M  V30 1953 O 172.468 -1.79246 0.272155 0
M  V30 1954 C 172.516 -0.567786 3.56102 0
M  V30 1955 O 171.62 -1.66318 3.77375 0
M  V30 1956 H 170.961 -0.0272919 0.663439 0
M  V30 1957 H 173.491 0.543536 1.97248 0
M  V30 1958 H 173.501 -0.835003 3.99364 0
M  V30 1959 H 172.176 0.307013 4.14765 0
M  V30 1960 H 170.753 -1.39048 3.46006 0
M  V30 1961 N 172.938 -1.57226 0.108567 0
M  V30 1962 C 174.166 -1.99179 -0.559954 0
M  V30 1963 C 174.581 -0.988022 -1.60884 0
M  V30 1964 O 173.938 0.0205512 -1.82488 0
M  V30 1965 C 173.989 -3.41159 -1.19552 0
M  V30 1966 O 173.71 -4.37694 -0.188577 0
M  V30 1967 C 175.211 -3.98188 -1.94837 0
M  V30 1968 H 172.431 -0.654228 -0.149088 0
M  V30 1969 H 174.975 -2.03598 0.19183 0
M  V30 1970 H 173.13 -3.37711 -1.89815 0
M  V30 1971 H 173.544 -5.20469 -0.649014 0
M  V30 1972 H 175.018 -4.99644 -2.34648 0
M  V30 1973 H 175.495 -3.3675 -2.81951 0
M  V30 1974 H 176.101 -4.0515 -1.2936 0
M  V30 1975 N 174.416 0.165178 -1.56732 0
M  V30 1976 C 175.646 0.894919 -1.86212 0
M  V30 1977 C 176.054 1.76066 -0.692627 0
M  V30 1978 O 175.397 1.80387 0.347303 0
M  V30 1979 C 175.459 1.8174 -3.10179 0
M  V30 1980 C 175.123 1.13064 -4.42793 0
M  V30 1981 C 176.12 0.493169 -5.17556 0
M  V30 1982 C 173.805 1.12556 -4.89527 0
M  V30 1983 C 175.799 -0.140209 -6.37246 0
M  V30 1984 C 173.486 0.488366 -6.09145 0
M  V30 1985 C 174.484 -0.143411 -6.82849 0
M  V30 1986 O 174.172 -0.77055 -8.00199 0
M  V30 1987 H 173.904 0.265114 -0.621844 0
M  V30 1988 H 176.458 0.168242 -2.0471 0
M  V30 1989 H 174.688 2.58455 -2.87642 0
M  V30 1990 H 176.377 2.4175 -3.26055 0
M  V30 1991 H 177.143 0.489023 -4.82528 0
M  V30 1992 H 173.022 1.60672 -4.32094 0
M  V30 1993 H 176.566 -0.633932 -6.94714 0
M  V30 1994 H 172.463 0.490116 -6.43637 0
M  V30 1995 H 173.231 -0.670408 -8.1575 0
M  V30 1996 N 175.894 1.51508 0.433938 0
M  V30 1997 C 177.141 1.64345 1.18309 0
M  V30 1998 C 177.469 0.361315 1.91115 0
M  V30 1999 O 176.724 -0.654753 1.84422 0
M  V30 2000 C 177.023 2.79928 2.22205 0
M  V30 2001 C 176.689 4.19078 1.66387 0
M  V30 2002 C 175.351 4.56932 1.50887 0
M  V30 2003 C 177.703 5.05894 1.25381 0
M  V30 2004 C 175.031 5.79305 0.928608 0
M  V30 2005 C 177.383 6.2885 0.687823 0
M  V30 2006 C 176.047 6.65473 0.519755 0
M  V30 2007 H 175.317 0.601381 0.432923 0
M  V30 2008 H 177.964 1.85549 0.473676 0
M  V30 2009 H 176.269 2.52959 2.99197 0
M  V30 2010 H 177.966 2.87059 2.79997 0
M  V30 2011 H 174.556 3.89234 1.79428 0
M  V30 2012 H 178.74 4.77253 1.36175 0
M  V30 2013 H 173.996 6.06324 0.786186 0
M  V30 2014 H 178.17 6.95461 0.361581 0
M  V30 2015 H 175.797 7.6017 0.0679979 0
M  V30 2016 N 177.372 -0.689602 1.41712 0
M  V30 2017 C 178.597 -1.48329 1.44959 0
M  V30 2018 C 179.022 -1.8801 0.0581283 0
M  V30 2019 O 178.38 -1.55026 -0.940035 0
M  V30 2020 C 178.428 -2.71835 2.36935 0
M  V30 2021 O 177.532 -3.69549 1.8305 0
M  V30 2022 H 176.873 -0.446199 0.491734 0
M  V30 2023 H 179.403 -0.847127 1.86239 0
M  V30 2024 H 179.413 -3.20076 2.53013 0
M  V30 2025 H 178.088 -2.42291 3.38035 0
M  V30 2026 H 176.665 -3.2851 1.76452 0
M  V30 2027 N 178.85 -1.27639 -0.924453 0
M  V30 2028 C 180.096 -1.14336 -1.67497 0
M  V30 2029 C 180.429 0.309465 -1.91718 0
M  V30 2030 O 179.704 1.22608 -1.50989 0
M  V30 2031 C 179.987 -1.93096 -3.0395 0
M  V30 2032 C 179.84 -3.46381 -2.8695 0
M  V30 2033 C 181.159 -1.73798 -4.0433 0
M  V30 2034 H 178.278 -0.416728 -0.607871 0
M  V30 2035 H 180.92 -1.56832 -1.07256 0
M  V30 2036 H 179.07 -1.56982 -3.55372 0
M  V30 2037 H 180.742 -3.92343 -2.42621 0
M  V30 2038 H 178.985 -3.72557 -2.22225 0
M  V30 2039 H 179.656 -3.96735 -3.83804 0
M  V30 2040 H 182.132 -2.05293 -3.61931 0
M  V30 2041 H 181.008 -2.31294 -4.97789 0
M  V30 2042 H 181.269 -0.686725 -4.36734 0
M  V30 2043 N 180.328 1.1314 -1.09713 0
M  V30 2044 C 181.558 1.88048 -0.855656 0
M  V30 2045 C 181.966 1.79537 0.596919 0
M  V30 2046 O 181.309 1.16196 1.42282 0
M  V30 2047 C 181.371 3.38314 -1.21589 0
M  V30 2048 C 181.035 3.70605 -2.67397 0
M  V30 2049 C 182.032 3.69596 -3.65643 0
M  V30 2050 C 179.717 4.0017 -3.03593 0
M  V30 2051 C 181.711 3.977 -4.9811 0
M  V30 2052 C 179.398 4.27935 -4.36251 0
M  V30 2053 C 180.396 4.26685 -5.33318 0
M  V30 2054 O 180.084 4.53767 -6.63589 0
M  V30 2055 H 179.816 0.60208 -0.307368 0
M  V30 2056 H 182.37 1.44128 -1.46343 0
M  V30 2057 H 180.6 3.82752 -0.551177 0
M  V30 2058 H 182.289 3.94552 -0.953083 0
M  V30 2059 H 183.055 3.46826 -3.39023 0
M  V30 2060 H 178.934 4.00289 -2.2867 0
M  V30 2061 H 182.478 3.9664 -5.73866 0
M  V30 2062 H 178.375 4.50178 -4.62613 0
M  V30 2063 H 179.143 4.71422 -6.69107 0
M  V30 2064 N 181.806 0.884767 1.30421 0
M  V30 2065 C 183.222 0.57874 1.48737 0
M  V30 2066 C 183.422 -0.883567 1.81095 0
M  V30 2067 O 182.478 -1.6648 1.89844 0
M  V30 2068 C 183.791 1.49171 2.61091 0
M  V30 2069 C 185.339 1.49532 2.74971 0
M  V30 2070 C 185.814 2.39421 3.90438 0
M  V30 2071 N 187.305 2.37383 3.97748 0
M  V30 2072 C 188.04 3.03647 4.86401 0
M  V30 2073 N 187.536 3.79136 5.79852 0
M  V30 2074 N 189.329 2.9288 4.79768 0
M  V30 2075 H 181.48 1.83075 1.0769 0
M  V30 2076 H 183.743 0.783637 0.533495 0
M  V30 2077 H 183.449 2.53291 2.44001 0
M  V30 2078 H 183.323 1.20113 3.57565 0
M  V30 2079 H 185.71 0.46163 2.91467 0
M  V30 2080 H 185.791 1.8262 1.79119 0
M  V30 2081 H 185.435 3.42874 3.74699 0
M  V30 2082 H 185.365 2.03649 4.85628 0
M  V30 2083 H 187.856 1.82525 3.30897 0
M  V30 2084 H 188.169 4.26789 6.4426 0
M  V30 2085 H 186.514 3.83243 5.79784 0
M  V30 2086 H 189.705 2.33433 4.05742 0
M  V30 2087 H 189.878 3.448 5.4865 0
M  V30 2088 N 183.284 -1.43765 0.645699 0
M  V30 2089 C 184.194 -2.34544 -0.0512957 0
M  V30 2090 C 185.21 -1.53455 -0.82022 0
M  V30 2091 O 186.386 -1.86133 -0.769176 0
M  V30 2092 C 183.451 -3.31636 -1.01087 0
M  V30 2093 C 182.512 -4.2863 -0.239712 0
M  V30 2094 C 181.745 -5.21084 -1.15358 0
M  V30 2095 O 181.968 -5.1779 -2.39269 0
M  V30 2096 O 180.902 -5.98593 -0.630038 0
M  V30 2097 H 184.728 -2.95624 0.695718 0
M  V30 2098 H 182.313 -1.43781 0.405882 0
M  V30 2099 H 184.195 -3.9136 -1.56254 0
M  V30 2100 H 182.87 -2.73069 -1.73824 0
M  V30 2101 H 181.777 -3.72408 0.355356 0
M  V30 2102 H 183.11 -4.90157 0.447936 0
M  V30 2103 N 184.763 -0.387143 -1.52771 0
M  V30 2104 C 186.04 0.253197 -1.93954 0
M  V30 2105 C 186.42 1.64545 -1.32243 0
M  V30 2106 O 185.768 2.23191 -0.489699 0
M  V30 2107 C 185.978 0.281722 -3.47861 0
M  V30 2108 C 187.326 0.511715 -4.21505 0
M  V30 2109 O 188.35 0.362023 -3.54356 0
M  V30 2110 O 187.209 0.804847 -5.40541 0
M  V30 2111 H 184.303 0.156845 -0.811991 0
M  V30 2112 H 186.849 -0.441494 -1.63856 0
M  V30 2113 H 185.621 -0.693571 -3.85104 0
M  V30 2114 H 185.244 1.02142 -3.84256 0
M  V30 2115 N 186.241 1.57166 -0.116904 0
M  V30 2116 C 187.481 1.97008 0.544715 0
M  V30 2117 C 187.845 0.998713 1.63981 0
M  V30 2118 O 189.046 1.28644 2.36018 0
M  V30 2119 C 187.317 3.41145 1.06559 0
M  V30 2120 S 188.876 4.02998 1.73603 0
M  V30 2121 H 185.694 0.688587 0.177112 0
M  V30 2122 H 188.296 1.94459 -0.201487 0
M  V30 2123 H 187 4.09592 0.257374 0
M  V30 2124 H 186.531 3.4734 1.84712 0
M  V30 2125 H 188.546 3.93585 3.02168 0
M  V30 2126 N 187.719 -0.156864 1.56817 0
M  V30 2127 C 188.947 -0.886316 1.86955 0
M  V30 2128 C 189.362 -1.75185 0.703975 0
M  V30 2129 O 188.719 -1.79555 -0.326552 0
M  V30 2130 C 188.77 -1.75117 3.16253 0
M  V30 2131 O 188.491 -0.920537 4.2832 0
M  V30 2132 C 189.992 -2.58905 3.59837 0
M  V30 2133 H 187.212 -0.25678 0.619923 0
M  V30 2134 H 189.756 -0.152615 2.0393 0
M  V30 2135 H 187.911 -2.43805 3.01062 0
M  V30 2136 H 188.325 -1.51337 5.02192 0
M  V30 2137 H 189.799 -3.1518 4.53172 0
M  V30 2138 H 190.276 -3.34472 2.84649 0
M  V30 2139 H 190.882 -1.95526 3.7769 0
M  V30 2140 N 189.197 -1.51736 -0.425897 0
M  V30 2141 C 190.145 -1.74464 -1.53834 0
M  V30 2142 C 191.139 -0.611241 -1.57988 0
M  V30 2143 O 192.345 -0.792899 -1.61596 0
M  V30 2144 H 188.72 -0.551437 -0.511293 0
M  V30 2145 H 190.691 -2.67694 -1.31843 0
M  V30 2146 C 189.44 -1.8972 -2.91379 0
M  V30 2147 H 188.763 -2.76344 -2.88919 0
M  V30 2148 H 190.203 -2.09629 -3.68553 0
M  V30 2149 C 188.662 -0.65992 -3.30374 0
M  V30 2150 O 189.192 0.180083 -4.01296 0
M  V30 2151 N 187.398 -0.500677 -2.86254 0
M  V30 2152 H 186.945 -1.18532 -2.28709 0
M  V30 2153 H 186.903 0.325903 -3.12706 0
M  V30 2154 N 190.675 0.682077 -1.42076 0
M  V30 2155 C 191.585 1.82535 -1.47371 0
M  V30 2156 C 192.601 1.7017 -0.363079 0
M  V30 2157 O 193.777 1.91848 -0.612875 0
M  V30 2158 C 190.842 3.18624 -1.36674 0
M  V30 2159 C 189.903 3.42999 -2.58167 0
M  V30 2160 C 189.136 4.72595 -2.4797 0
M  V30 2161 O 189.359 5.50006 -1.5116 0
M  V30 2162 O 188.293 4.98054 -3.37974 0
M  V30 2163 H 192.119 1.81023 -2.43853 0
M  V30 2164 H 189.704 0.836887 -1.2376 0
M  V30 2165 H 191.586 3.99847 -1.33043 0
M  V30 2166 H 190.261 3.20789 -0.433138 0
M  V30 2167 H 189.168 2.61653 -2.67373 0
M  V30 2168 H 190.501 3.45659 -3.50401 0
M  V30 2169 N 192.153 1.28127 0.917671 0
M  V30 2170 C 193.399 1.16232 1.66918 0
M  V30 2171 C 193.754 -0.28701 1.90247 0
M  V30 2172 O 193.047 -1.20586 1.48895 0
M  V30 2173 C 193.241 1.89018 3.03327 0
M  V30 2174 C 193.07 3.4088 2.9331 0
M  V30 2175 C 191.84 4.10214 2.95047 0
M  V30 2176 C 194.038 4.36689 2.71675 0
M  V30 2177 N 192.02 5.48571 2.75577 0
M  V30 2178 C 193.391 5.62382 2.6101 0
M  V30 2179 C 195.446 4.26661 2.56641 0
M  V30 2180 C 194.149 6.79189 2.36843 0
M  V30 2181 C 196.175 5.432 2.33853 0
M  V30 2182 C 195.537 6.67855 2.23939 0
M  V30 2183 H 191.636 0.48024 0.617166 0
M  V30 2184 H 194.22 1.61727 1.08409 0
M  V30 2185 H 192.391 1.45963 3.59929 0
M  V30 2186 H 194.123 1.69541 3.67475 0
M  V30 2187 H 190.878 3.61762 3.05655 0
M  V30 2188 H 191.302 6.21287 2.68945 0
M  V30 2189 H 195.944 3.30998 2.63059 0
M  V30 2190 H 193.662 7.74926 2.29164 0
M  V30 2191 H 197.248 5.37328 2.23091 0
M  V30 2192 H 196.128 7.56511 2.06546 0
M  V30 2193 N 193.631 -1.12557 1.10312 0
M  V30 2194 C 194.878 -1.84038 0.844759 0
M  V30 2195 C 195.206 -1.84026 -0.629668 0
M  V30 2196 O 194.461 -1.28026 -1.48013 0
M  V30 2197 C 194.76 -3.31462 1.33669 0
M  V30 2198 C 194.426 -3.51647 2.82232 0
M  V30 2199 C 193.088 -3.56864 3.22802 0
M  V30 2200 C 195.44 -3.58867 3.77974 0
M  V30 2201 C 192.768 -3.66844 4.57867 0
M  V30 2202 C 195.12 -3.70375 5.1284 0
M  V30 2203 C 193.784 -3.73848 5.52986 0
M  V30 2204 H 193.054 -0.673444 0.309119 0
M  V30 2205 H 195.701 -1.32824 1.37949 0
M  V30 2206 H 194.006 -3.85091 0.721949 0
M  V30 2207 H 195.703 -3.85236 1.11329 0
M  V30 2208 H 192.293 -3.48249 2.49842 0
M  V30 2209 H 196.477 -3.54107 3.47738 0
M  V30 2210 H 191.733 -3.67804 4.88396 0
M  V30 2211 H 195.907 -3.74904 5.86873 0
M  V30 2212 H 193.534 -3.81333 6.57639 0
M  V30 2213 N 195.109 -0.891671 -1.2995 0
M  V30 2214 C 196.039 -0.379797 -2.30391 0
M  V30 2215 C 197.02 0.540919 -1.6127 0
M  V30 2216 O 198.205 0.453352 -1.88834 0
M  V30 2217 C 195.335 0.400654 -3.44981 0
M  V30 2218 C 194.289 -0.428905 -4.25846 0
M  V30 2219 C 193.615 0.478557 -5.32554 0
M  V30 2220 C 194.915 -1.67458 -4.94727 0
M  V30 2221 H 196.609 -1.21914 -2.73454 0
M  V30 2222 H 194.155 -0.587675 -1.31462 0
M  V30 2223 H 196.108 0.769434 -4.14316 0
M  V30 2224 H 194.832 1.27371 -3.0074 0
M  V30 2225 H 193.491 -0.779911 -3.58208 0
M  V30 2226 H 193.139 1.34951 -4.84559 0
M  V30 2227 H 192.839 -0.0727433 -5.87555 0
M  V30 2228 H 194.363 0.843705 -6.04743 0
M  V30 2229 H 195.777 -1.376 -5.56542 0
M  V30 2230 H 194.174 -2.16659 -5.59624 0
M  V30 2231 H 195.244 -2.41518 -4.20473 0
M  V30 2232 N 196.587 1.43421 -0.653314 0
M  V30 2233 C 197.833 2.02111 -0.166992 0
M  V30 2234 C 198.166 1.51423 1.21592 0
M  V30 2235 O 197.441 0.707389 1.8118 0
M  V30 2236 C 197.724 3.5966 -0.177948 0
M  V30 2237 C 197.577 4.20579 -1.59478 0
M  V30 2238 C 198.896 4.37413 0.4856 0
M  V30 2239 H 196.015 0.734374 -0.0621557 0
M  V30 2240 H 198.657 1.70717 -0.834016 0
M  V30 2241 H 196.807 3.86537 0.390032 0
M  V30 2242 H 198.479 4.04732 -2.21336 0
M  V30 2243 H 196.722 3.77226 -2.14204 0
M  V30 2244 H 197.393 5.29665 -1.5543 0
M  V30 2245 H 199.869 4.161 0.00234528 0
M  V30 2246 H 198.745 5.47075 0.447207 0
M  V30 2247 H 199.006 4.13672 1.55974 0
M  V30 2248 N 198.065 0.39524 1.52563 0
M  V30 2249 C 199.295 -0.184675 2.05773 0
M  V30 2250 C 199.703 -1.40571 1.26635 0
M  V30 2251 O 199.046 -1.81105 0.30769 0
M  V30 2252 C 199.108 -0.613551 3.54226 0
M  V30 2253 C 198.772 0.49484 4.54313 0
M  V30 2254 C 199.769 1.3541 5.01956 0
M  V30 2255 C 197.454 0.663565 4.97898 0
M  V30 2256 C 199.448 2.36716 5.91814 0
M  V30 2257 C 197.135 1.67996 5.87555 0
M  V30 2258 C 198.133 2.53017 6.34406 0
M  V30 2259 O 197.821 3.52917 7.22291 0
M  V30 2260 H 197.553 -0.030077 0.675331 0
M  V30 2261 H 200.107 0.560708 1.97599 0
M  V30 2262 H 198.337 -1.411 3.60038 0
M  V30 2263 H 200.026 -1.11981 3.90148 0
M  V30 2264 H 200.792 1.23509 4.6901 0
M  V30 2265 H 196.671 0.0114913 4.60999 0
M  V30 2266 H 200.215 3.03113 6.28306 0
M  V30 2267 H 196.112 1.79933 6.19915 0
M  V30 2268 H 196.88 3.48996 7.40367 0
M  V30 2269 N 199.544 -1.57102 0.125237 0
M  V30 2270 C 200.792 -1.95021 -0.530198 0
M  V30 2271 C 201.113 -1.00982 -1.66816 0
M  V30 2272 O 200.383 -0.0672693 -1.95784 0
M  V30 2273 H 198.963 -0.720046 -0.198853 0
M  V30 2274 H 201.625 -1.93916 0.19564 0
M  V30 2275 H 200.721 -2.98211 -0.920681 0
M  V30 2276 N 201.022 0.148545 -1.56898 0
M  V30 2277 C 202.299 0.890019 -1.74178 0
M  V30 2278 C 202.679 1.99407 -0.692839 0
M  V30 2279 O 202.027 2.26671 0.288505 0
M  V30 2280 C 202.237 1.43389 -3.18183 0
M  V30 2281 C 203.585 1.89791 -3.79822 0
M  V30 2282 O 204.609 1.53134 -3.21603 0
M  V30 2283 O 203.468 2.57387 -4.82093 0
M  V30 2284 H 200.562 0.420496 -0.712118 0
M  V30 2285 H 203.108 0.134591 -1.69165 0
M  V30 2286 H 201.88 0.640383 -3.86024 0
M  V30 2287 H 201.503 2.25287 -3.27615 0
M  V30 2288 N 202.5 1.5196 0.417844 0
M  V30 2289 C 203.777 1.56146 1.17803 0
M  V30 2290 C 204.157 0.337275 2.08388 0
M  V30 2291 O 203.505 -0.676447 2.18258 0
M  V30 2292 C 203.715 2.88566 1.96293 0
M  V30 2293 C 205.063 3.41244 2.52662 0
M  V30 2294 O 206.087 2.90247 2.06483 0
M  V30 2295 O 204.946 4.30273 3.36938 0
M  V30 2296 H 202.04 0.628598 0.537395 0
M  V30 2297 H 204.586 1.64283 0.425331 0
M  V30 2298 H 203.358 3.69116 1.2988 0
M  V30 2299 H 202.981 2.83681 2.78587 0
M  V30 2300 N 203.978 -0.674533 1.42435 0
M  V30 2301 C 205.208 -1.46071 1.46105 0
M  V30 2302 C 205.616 -1.89067 0.0709605 0
M  V30 2303 O 204.959 -1.58731 -0.924677 0
M  V30 2304 C 205.021 -2.74145 2.32561 0
M  V30 2305 C 204.685 -2.53224 3.8043 0
M  V30 2306 C 205.682 -2.17809 4.72075 0
M  V30 2307 C 203.367 -2.6821 4.24698 0
M  V30 2308 C 205.361 -1.97648 6.05982 0
M  V30 2309 C 203.048 -2.47665 5.58664 0
M  V30 2310 C 204.046 -2.12437 6.49122 0
M  V30 2311 O 203.734 -1.9209 7.80613 0
M  V30 2312 H 203.466 -0.455959 0.499076 0
M  V30 2313 H 206.02 -0.836193 1.87609 0
M  V30 2314 H 204.25 -3.3908 1.85908 0
M  V30 2315 H 205.939 -3.36028 2.27683 0
M  V30 2316 H 206.705 -2.05826 4.39159 0
M  V30 2317 H 202.584 -2.94609 3.54579 0
M  V30 2318 H 206.128 -1.70075 6.7655 0
M  V30 2319 H 202.025 -2.59244 5.91154 0
M  V30 2320 H 202.793 -2.06686 7.91974 0
M  V30 2321 N 205.456 -1.28612 -0.910864 0
M  V30 2322 C 206.403 -1.12786 -2.01365 0
M  V30 2323 C 207.373 -0.024201 -1.66082 0
M  V30 2324 O 208.558 -0.189667 -1.89855 0
M  V30 2325 C 205.698 -0.798743 -3.35729 0
M  V30 2326 C 204.811 -1.98173 -3.83864 0
M  V30 2327 C 203.946 -1.59298 -5.06752 0
M  V30 2328 C 202.985 -2.74245 -5.47226 0
M  V30 2329 N 202.122 -2.35842 -6.61304 0
M  V30 2330 H 206.962 -2.07142 -2.14234 0
M  V30 2331 H 204.499 -1.03093 -1.0493 0
M  V30 2332 H 206.457 -0.588662 -4.13026 0
M  V30 2333 H 205.087 0.10789 -3.2262 0
M  V30 2334 H 204.139 -2.30386 -3.02699 0
M  V30 2335 H 205.451 -2.84343 -4.09818 0
M  V30 2336 H 204.605 -1.34513 -5.916 0
M  V30 2337 H 203.344 -0.702618 -4.82612 0
M  V30 2338 H 202.349 -2.99725 -4.60918 0
M  V30 2339 H 203.574 -3.63928 -5.73353 0
M  V30 2340 H 201.52 -1.49279 -6.38789 0
M  V30 2341 H 201.437 -3.15546 -6.86998 0
M  V30 2342 H 202.705 -2.14348 -7.4945 0
M  V30 2343 N 206.934 1.1197 -1.10907 0
M  V30 2344 C 208.18 1.8386 -0.855773 0
M  V30 2345 C 208.513 1.84134 0.617103 0
M  V30 2346 O 207.788 1.29041 1.45529 0
M  V30 2347 C 208.071 3.31305 -1.411 0
M  V30 2348 C 207.924 3.39456 -2.9511 0
M  V30 2349 C 209.243 4.2721 -1.05736 0
M  V30 2350 H 206.362 0.667545 -0.312334 0
M  V30 2351 H 209.004 1.31331 -1.37303 0
M  V30 2352 H 207.154 3.76169 -0.97105 0
M  V30 2353 H 208.826 3.03191 -3.47668 0
M  V30 2354 H 207.069 2.79849 -3.31462 0
M  V30 2355 H 207.74 4.43209 -3.29044 0
M  V30 2356 H 210.216 3.90497 -1.43706 0
M  V30 2357 H 209.092 5.28775 -1.47269 0
M  V30 2358 H 209.353 4.42088 0.0325958 0
M  V30 2359 N 208.412 0.89855 1.29475 0
M  V30 2360 C 209.344 0.332726 2.26772 0
M  V30 2361 C 210.357 -0.520323 1.54261 0
M  V30 2362 O 211.546 -0.337668 1.75277 0
M  V30 2363 C 208.646 -0.544334 3.345 0
M  V30 2364 C 207.819 0.282728 4.36485 0
M  V30 2365 C 206.878 -0.526982 5.23555 0
M  V30 2366 O 205.904 0.0551165 5.69173 0
M  V30 2367 N 207.106 -1.83331 5.5079 0
M  V30 2368 H 209.871 1.16897 2.75962 0
M  V30 2369 H 207.432 0.762919 1.42798 0
M  V30 2370 H 209.424 -1.09239 3.89678 0
M  V30 2371 H 207.994 -1.28127 2.85136 0
M  V30 2372 H 207.214 1.01221 3.80983 0
M  V30 2373 H 208.502 0.84918 5.01664 0
M  V30 2374 H 207.9 -2.32898 5.15534 0
M  V30 2375 H 206.457 -2.32852 6.08788 0
M  V30 2376 N 209.89 -1.43072 0.660911 0
M  V30 2377 C 211.167 -1.95307 0.107017 0
M  V30 2378 C 211.547 -1.60192 -1.37484 0
M  V30 2379 O 210.895 -0.890949 -2.10415 0
M  V30 2380 C 211.105 -3.47124 0.361402 0
M  V30 2381 C 212.453 -4.23738 0.270455 0
M  V30 2382 O 213.477 -3.54981 0.294382 0
M  V30 2383 O 212.336 -5.46131 0.200737 0
M  V30 2384 H 209.43 -0.826984 -0.00517729 0
M  V30 2385 H 211.976 -1.52972 0.734681 0
M  V30 2386 H 210.748 -3.65837 1.38848 0
M  V30 2387 H 210.371 -3.96475 -0.298953 0
M  V30 2388 N 211.368 -0.403325 -1.52352 0
M  V30 2389 C 212.617 0.175668 -2.00934 0
M  V30 2390 C 212.93 1.46718 -1.29356 0
M  V30 2391 O 214.136 2.12708 -1.68724 0
M  V30 2392 C 212.592 0.363612 -3.58058 0
M  V30 2393 C 212.2 -0.915472 -4.38547 0
M  V30 2394 C 213.944 0.89821 -4.14888 0
M  V30 2395 C 211.851 -0.695035 -5.87302 0
M  V30 2396 H 210.781 0.0694234 -0.750797 0
M  V30 2397 H 213.432 -0.527879 -1.75743 0
M  V30 2398 H 211.814 1.12935 -3.79555 0
M  V30 2399 H 212.988 -1.68691 -4.28812 0
M  V30 2400 H 211.303 -1.37606 -3.93006 0
M  V30 2401 H 213.9 1.07907 -5.23699 0
M  V30 2402 H 214.243 1.87126 -3.71873 0
M  V30 2403 H 214.776 0.191681 -3.97338 0
M  V30 2404 H 211.515 -1.63948 -6.34666 0
M  V30 2405 H 211.035 0.0372116 -5.99788 0
M  V30 2406 H 212.714 -0.33497 -6.46132 0
M  V30 2407 N 212.846 1.57033 -0.133567 0
M  V30 2408 C 214.095 1.94861 0.520768 0
M  V30 2409 C 214.408 1.02012 1.66892 0
M  V30 2410 O 215.614 1.29365 2.38699 0
M  V30 2411 C 214.07 3.46362 0.977809 0
M  V30 2412 C 213.678 4.47773 -0.142674 0
M  V30 2413 C 215.422 3.93083 1.60269 0
M  V30 2414 C 213.329 5.90468 0.331883 0
M  V30 2415 H 212.259 0.727453 0.198315 0
M  V30 2416 H 214.91 1.82227 -0.215759 0
M  V30 2417 H 213.292 3.54282 1.7692 0
M  V30 2418 H 214.466 4.51536 -0.919317 0
M  V30 2419 H 212.781 4.10891 -0.675124 0
M  V30 2420 H 215.378 4.97121 1.96914 0
M  V30 2421 H 215.721 3.33876 2.48662 0
M  V30 2422 H 216.254 3.88025 0.876453 0
M  V30 2423 H 212.993 6.53463 -0.516341 0
M  V30 2424 H 212.513 5.90094 1.07469 0
M  V30 2425 H 214.192 6.42179 0.788332 0
M  V30 2426 N 214.325 -0.140222 1.56975 0
M  V30 2427 C 215.571 -0.852949 1.83991 0
M  V30 2428 C 215.904 -1.80512 0.716187 0
M  V30 2429 O 215.179 -1.92479 -0.279681 0
M  V30 2430 C 215.462 -1.6215 3.21527 0
M  V30 2431 C 215.315 -0.690363 4.4447 0
M  V30 2432 C 216.634 -2.58247 3.56366 0
M  V30 2433 H 213.753 -0.308634 0.669264 0
M  V30 2434 H 216.395 -0.117898 1.89634 0
M  V30 2435 H 214.545 -2.24812 3.16847 0
M  V30 2436 H 216.217 -0.0742264 4.6124 0
M  V30 2437 H 214.46 -0.000396433 4.338 0
M  V30 2438 H 215.131 -1.2643 5.37326 0
M  V30 2439 H 217.607 -2.05701 3.61699 0
M  V30 2440 H 216.483 -3.09067 4.53617 0
M  V30 2441 H 216.744 -3.39923 2.82674 0
M  V30 2442 N 215.803 -1.52179 -0.40978 0
M  V30 2443 C 217.08 -1.56769 -1.16974 0
M  V30 2444 C 217.46 -0.348322 -2.08206 0
M  V30 2445 O 216.808 0.664862 -2.18613 0
M  V30 2446 C 217.018 -2.89603 -1.9476 0
M  V30 2447 C 218.366 -3.42579 -2.50849 0
M  V30 2448 O 219.39 -2.91338 -2.04941 0
M  V30 2449 O 218.249 -4.32054 -3.34652 0
M  V30 2450 H 215.343 -0.631439 -0.534054 0
M  V30 2451 H 217.889 -1.64507 -0.416613 0
M  V30 2452 H 216.661 -3.698 -1.27921 0
M  V30 2453 H 216.284 -2.85155 -2.77079 0
M  V30 2454 N 217.281 0.66697 -1.42791 0
M  V30 2455 C 218.506 1.46004 -1.47301 0
M  V30 2456 C 218.931 1.87894 -0.0880317 0
M  V30 2457 O 218.289 1.56502 0.915253 0
M  V30 2458 C 218.337 2.68031 -2.41229 0
M  V30 2459 O 217.441 3.6659 -1.88906 0
M  V30 2460 H 216.782 0.43832 -0.49877 0
M  V30 2461 H 219.312 0.817391 -1.87563 0
M  V30 2462 H 219.322 3.1601 -2.58073 0
M  V30 2463 H 217.997 2.36883 -3.41847 0
M  V30 2464 H 216.574 3.25661 -1.81656 0
M  V30 2465 N 218.759 1.29093 0.90403 0
M  V30 2466 C 219.706 1.13853 2.00764 0
M  V30 2467 C 220.676 0.0330084 1.66067 0
M  V30 2468 O 221.861 0.199733 1.89752 0
M  V30 2469 C 219.001 0.816537 3.35301 0
M  V30 2470 C 218.114 2.00206 3.82807 0
M  V30 2471 C 217.249 1.61983 5.059 0
M  V30 2472 C 216.288 2.77143 5.45764 0
M  V30 2473 N 215.425 2.39346 6.60044 0
M  V30 2474 H 220.265 2.08276 2.13132 0
M  V30 2475 H 217.802 1.03648 1.04381 0
M  V30 2476 H 219.76 0.610557 4.12708 0
M  V30 2477 H 218.39 -0.090779 3.22672 0
M  V30 2478 H 217.442 2.31988 3.01473 0
M  V30 2479 H 218.754 2.86512 4.08304 0
M  V30 2480 H 217.908 1.37649 5.90879 0
M  V30 2481 H 216.647 0.728202 4.82233 0
M  V30 2482 H 215.652 3.02165 4.59322 0
M  V30 2483 H 216.877 3.66964 5.71414 0
M  V30 2484 H 214.823 1.52665 6.37989 0
M  V30 2485 H 214.74 3.19185 6.85315 0
M  V30 2486 H 216.008 2.1832 7.48303 0
M  V30 2487 N 220.237 -1.11381 1.11499 0
M  V30 2488 C 221.2 -2.15622 0.777153 0
M  V30 2489 C 222.2 -1.59504 -0.203779 0
M  V30 2490 O 223.39 -1.74188 0.020782 0
M  V30 2491 C 220.522 -3.40556 0.153116 0
M  V30 2492 H 221.715 -2.47021 1.70061 0
M  V30 2493 H 219.268 -1.26577 0.916952 0
M  V30 2494 H 220.003 -3.14767 -0.780536 0
M  V30 2495 H 219.788 -3.8257 0.859238 0
M  V30 2496 H 221.278 -4.17546 -0.0671044 0
M  V30 2497 N 221.715 -0.905404 -1.28997 0
M  V30 2498 C 222.963 -0.533192 -1.9494 0
M  V30 2499 C 223.284 0.924618 -1.71685 0
M  V30 2500 O 222.554 1.65268 -1.05183 0
M  V30 2501 H 221.134 -0.194194 -0.721317 0
M  V30 2502 H 223.796 -1.15294 -1.57141 0
M  V30 2503 H 222.892 -0.72059 -3.03667 0
M  V30 2504 N 223.193 1.4272 -0.668489 0
M  V30 2505 C 224.609 1.55992 -0.33745 0
M  V30 2506 C 224.809 1.64933 1.15756 0
M  V30 2507 O 223.865 1.61278 1.94282 0
M  V30 2508 C 225.178 2.81314 -1.06222 0
M  V30 2509 C 226.726 2.95078 -1.04394 0
M  V30 2510 C 227.201 4.23252 -1.74991 0
M  V30 2511 N 228.692 4.3015 -1.71829 0
M  V30 2512 C 229.427 5.28127 -2.23315 0
M  V30 2513 N 228.923 6.32293 -2.83156 0
M  V30 2514 N 230.716 5.19882 -2.13726 0
M  V30 2515 H 222.867 1.3516 -1.63846 0
M  V30 2516 H 225.13 0.650174 -0.689912 0
M  V30 2517 H 224.836 2.80823 -2.11734 0
M  V30 2518 H 224.71 3.72012 -0.62344 0
M  V30 2519 H 227.097 2.951 0.0028244 0
M  V30 2520 H 227.178 2.05627 -1.52155 0
M  V30 2521 H 226.822 4.2399 -2.79633 0
M  V30 2522 H 226.752 5.11626 -1.24685 0
M  V30 2523 H 229.243 3.55499 -1.28175 0
M  V30 2524 H 229.556 7.03398 -3.20079 0
M  V30 2525 H 227.901 6.32873 -2.87223 0
M  V30 2526 H 231.092 4.37423 -1.66669 0
M  V30 2527 H 231.265 5.96077 -2.54158 0
M  V30 2528 N 224.671 0.411399 1.52136 0
M  V30 2529 C 225.92 -0.165009 2.01024 0
M  V30 2530 C 226.233 -1.4603 1.30133 0
M  V30 2531 O 227.439 -2.1181 1.69849 0
M  V30 2532 C 225.895 -0.344618 3.58246 0
M  V30 2533 C 225.503 0.938716 4.38055 0
M  V30 2534 C 227.247 -0.876195 4.15359 0
M  V30 2535 C 225.154 0.726172 5.86925 0
M  V30 2536 H 224.084 -0.0654407 0.751155 0
M  V30 2537 H 226.735 0.537192 1.75461 0
M  V30 2538 H 225.117 -1.10921 3.80148 0
M  V30 2539 H 226.291 1.70963 4.27912 0
M  V30 2540 H 224.606 1.39688 3.92271 0
M  V30 2541 H 227.203 -1.05128 5.24263 0
M  V30 2542 H 227.546 -1.85152 3.7286 0
M  V30 2543 H 228.079 -0.170607 3.97434 0
M  V30 2544 H 224.818 1.67312 6.33788 0
M  V30 2545 H 224.338 -0.00540283 5.998 0
M  V30 2546 H 226.017 0.369231 6.45946 0
M  V30 2547 N 226.149 -1.5696 0.141893 0
M  V30 2548 C 227.079 -2.19516 -0.795936 0
M  V30 2549 C 228.06 -1.14187 -1.26077 0
M  V30 2550 O 229.245 -1.42511 -1.31925 0
M  V30 2551 C 226.375 -2.81272 -2.03723 0
M  V30 2552 C 225.329 -3.92384 -1.70936 0
M  V30 2553 C 224.655 -4.41052 -3.02287 0
M  V30 2554 C 225.955 -5.13403 -0.959954 0
M  V30 2555 H 227.649 -2.98138 -0.274596 0
M  V30 2556 H 225.195 -1.43406 -0.130636 0
M  V30 2557 H 227.148 -3.237 -2.69808 0
M  V30 2558 H 225.872 -1.99973 -2.58221 0
M  V30 2559 H 224.531 -3.50566 -1.07232 0
M  V30 2560 H 224.179 -3.56582 -3.54765 0
M  V30 2561 H 223.879 -5.15993 -2.81114 0
M  V30 2562 H 225.403 -4.86146 -3.69451 0
M  V30 2563 H 226.817 -5.52706 -1.52279 0
M  V30 2564 H 225.214 -5.94073 -0.848357 0
M  V30 2565 H 226.284 -4.84875 0.0492434 0
M  V30 2566 N 227.627 0.131896 -1.57047 0
M  V30 2567 C 228.852 0.860418 -1.8871 0
M  V30 2568 C 229.277 1.73251 -0.73251 0
M  V30 2569 O 228.635 1.785 0.317429 0
M  V30 2570 C 228.683 1.68047 -3.19049 0
M  V30 2571 O 227.787 2.7862 -3.04047 0
M  V30 2572 H 227.128 0.238743 -0.619595 0
M  V30 2573 H 229.658 0.118169 -2.04258 0
M  V30 2574 H 229.668 2.07238 -3.51449 0
M  V30 2575 H 228.343 1.04018 -4.02682 0
M  V30 2576 H 226.92 2.42726 -2.83088 0
M  V30 2577 N 229.106 1.52395 0.401703 0
M  V30 2578 C 230.354 1.66488 1.14569 0
M  V30 2579 C 230.675 0.400897 1.90835 0
M  V30 2580 O 229.945 -0.584415 1.8698 0
M  V30 2581 H 228.525 0.613672 0.425929 0
M  V30 2582 H 231.187 1.89464 0.457093 0
M  V30 2583 H 230.283 2.50942 1.85566 0
M  V30 2584 N 230.584 -0.659388 1.43143 0
M  V30 2585 C 231.83 -1.42145 1.44647 0
M  V30 2586 C 232.163 -1.9408 0.0681907 0
M  V30 2587 O 231.438 -1.71899 -0.910007 0
M  V30 2588 C 231.721 -2.60735 2.48373 0
M  V30 2589 C 231.574 -2.14332 3.95451 0
M  V30 2590 C 232.893 -3.62951 2.48906 0
M  V30 2591 H 230.012 -0.51552 0.526696 0
M  V30 2592 H 232.654 -0.748069 1.74654 0
M  V30 2593 H 230.804 -3.18184 2.22916 0
M  V30 2594 H 232.476 -1.61932 4.31944 0
M  V30 2595 H 230.719 -1.4576 4.08578 0
M  V30 2596 H 231.39 -2.99583 4.63631 0
M  V30 2597 H 233.866 -3.1525 2.71582 0
M  V30 2598 H 232.742 -4.43487 3.23435 0
M  V30 2599 H 233.003 -4.15126 1.52061 0
M  V30 2600 N 232.062 -1.29571 -0.897171 0
M  V30 2601 C 233.287 -1.20705 -1.68656 0
M  V30 2602 C 233.712 0.228582 -1.86706 0
M  V30 2603 O 233.07 1.16494 -1.3892 0
M  V30 2604 C 233.118 -1.9282 -3.04717 0
M  V30 2605 O 232.222 -1.24697 -3.93096 0
M  V30 2606 H 231.563 -0.418126 -0.515816 0
M  V30 2607 H 234.093 -1.71183 -1.12061 0
M  V30 2608 H 234.103 -2.01372 -3.54843 0
M  V30 2609 H 232.778 -2.97239 -2.90899 0
M  V30 2610 H 231.355 -1.2442 -3.51531 0
M  V30 2611 N 233.54 1.10788 -1.12088 0
M  V30 2612 C 234.787 1.82671 -0.873931 0
M  V30 2613 C 235.115 1.85004 0.600311 0
M  V30 2614 O 234.37 1.30365 1.45957 0
M  V30 2615 C 234.669 3.29294 -1.38926 0
M  V30 2616 C 234.335 3.47113 -2.87791 0
M  V30 2617 C 232.997 3.51684 -3.28439 0
M  V30 2618 C 235.349 3.52808 -3.83635 0
M  V30 2619 C 232.677 3.59513 -4.63646 0
M  V30 2620 C 235.029 3.62169 -5.18668 0
M  V30 2621 C 233.693 3.65003 -5.58864 0
M  V30 2622 H 232.963 0.668441 -0.319794 0
M  V30 2623 H 235.61 1.30613 -1.40045 0
M  V30 2624 H 233.915 3.83894 -0.783122 0
M  V30 2625 H 235.612 3.83416 -1.17443 0
M  V30 2626 H 232.202 3.4423 -2.5535 0
M  V30 2627 H 236.386 3.4853 -3.53328 0
M  V30 2628 H 231.642 3.59987 -4.94185 0
M  V30 2629 H 235.816 3.6552 -5.92763 0
M  V30 2630 H 233.443 3.70822 -6.63623 0
M  V30 2631 N 235.018 0.912232 1.28515 0
M  V30 2632 C 236.264 0.554851 1.95686 0
M  V30 2633 C 236.619 -0.89138 1.70506 0
M  V30 2634 O 235.912 -1.62529 1.01464 0
M  V30 2635 C 236.106 0.798392 3.48368 0
M  V30 2636 C 235.935 2.26674 3.88393 0
M  V30 2637 C 234.705 2.91657 4.12631 0
M  V30 2638 C 236.903 3.24303 3.99164 0
M  V30 2639 N 234.885 4.28805 4.39317 0
M  V30 2640 C 236.256 4.4661 4.30046 0
M  V30 2641 C 238.311 3.19723 3.81683 0
M  V30 2642 C 237.014 5.64915 4.45268 0
M  V30 2643 C 239.04 4.37325 3.98121 0
M  V30 2644 C 238.402 5.58406 4.29375 0
M  V30 2645 H 234.501 0.252876 0.739985 0
M  V30 2646 H 237.085 1.17565 1.55199 0
M  V30 2647 H 235.256 0.20688 3.87849 0
M  V30 2648 H 236.988 0.405193 4.02666 0
M  V30 2649 H 233.743 2.42393 4.06869 0
M  V30 2650 H 234.167 4.99712 4.56746 0
M  V30 2651 H 238.809 2.27191 3.56573 0
M  V30 2652 H 236.527 6.57927 4.6921 0
M  V30 2653 H 240.113 4.35282 3.86033 0
M  V30 2654 H 238.993 6.47889 4.41825 0
M  V30 2655 N 236.496 -1.42363 0.676048 0
M  V30 2656 C 237.773 -1.95183 0.127726 0
M  V30 2657 C 238.153 -1.61641 -1.35777 0
M  V30 2658 O 237.501 -0.913216 -2.09458 0
M  V30 2659 C 237.711 -3.46721 0.398199 0
M  V30 2660 C 239.059 -4.23427 0.315383 0
M  V30 2661 O 240.083 -3.54649 0.332016 0
M  V30 2662 O 238.942 -5.45888 0.25865 0
M  V30 2663 H 236.036 -0.826992 0.00359427 0
M  V30 2664 H 238.582 -1.52184 0.750864 0
M  V30 2665 H 237.354 -3.64344 1.4272 0
M  V30 2666 H 236.977 -3.96769 -0.256885 0
M  V30 2667 N 237.974 -0.419461 -1.51915 0
M  V30 2668 C 238.937 0.389116 -2.25873 0
M  V30 2669 C 239.937 0.964924 -1.28631 0
M  V30 2670 O 241.127 0.842179 -1.52489 0
M  V30 2671 C 238.259 1.54874 -3.03689 0
M  V30 2672 H 239.452 -0.258799 -2.98781 0
M  V30 2673 H 237.005 -0.172209 -1.55348 0
M  V30 2674 H 237.74 2.23323 -2.35154 0
M  V30 2675 H 237.525 1.14223 -3.75094 0
M  V30 2676 H 239.015 2.12046 -3.59759 0
M  V30 2677 N 239.452 1.56882 -0.150215 0
M  V30 2678 C 240.863 1.82995 0.370076 0
M  V30 2679 C 241.214 1.06907 1.64515 0
M  V30 2680 O 240.339 0.315369 2.1409 0
M  V30 2681 C 240.934 3.31942 0.678208 0
M  V30 2682 C 239.493 3.58625 1.14301 0
M  V30 2683 C 238.64 2.76792 0.167778 0
M  V30 2684 H 241.591 1.54209 -0.374858 0
M  V30 2685 H 241.612 3.48272 1.53254 0
M  V30 2686 H 241.124 3.87294 -0.249991 0
M  V30 2687 H 239.225 3.08664 2.08704 0
M  V30 2688 H 239.338 4.67073 1.06676 0
M  V30 2689 H 237.702 2.45972 0.661037 0
M  V30 2690 H 238.485 3.34916 -0.754069 0
M  V30 2691 N 240.93 -0.123565 1.57115 0
M  V30 2692 C 242.158 -0.846461 1.88793 0
M  V30 2693 C 242.573 -1.73652 0.740976 0
M  V30 2694 O 241.93 -1.80207 -0.288393 0
M  V30 2695 C 241.981 -1.6837 3.19897 0
M  V30 2696 O 241.702 -0.829477 4.30176 0
M  V30 2697 C 243.203 -2.51214 3.65248 0
M  V30 2698 H 240.423 -0.243573 0.625231 0
M  V30 2699 H 242.967 -0.109324 2.04208 0
M  V30 2700 H 241.122 -2.37364 3.06165 0
M  V30 2701 H 241.536 -1.40651 5.0529 0
M  V30 2702 H 243.01 -3.05497 4.59756 0
M  V30 2703 H 243.487 -3.28359 2.9168 0
M  V30 2704 H 244.093 -1.8747 3.81752 0
M  V30 2705 N 242.408 -1.52605 -0.393616 0
M  V30 2706 C 243.371 -1.76415 -1.46323 0
M  V30 2707 C 244.371 -0.634126 -1.47768 0
M  V30 2708 O 245.561 -0.902142 -1.4902 0
M  V30 2709 C 242.693 -1.8607 -2.85641 0
M  V30 2710 H 243.886 -2.71916 -1.26498 0
M  V30 2711 H 241.439 -1.43257 -0.625073 0
M  V30 2712 H 242.174 -0.925378 -3.10817 0
M  V30 2713 H 241.959 -2.68235 -2.85993 0
M  V30 2714 H 243.449 -2.06179 -3.63153 0
M  V30 2715 N 243.887 0.651787 -1.4349 0
M  V30 2716 C 244.797 1.79368 -1.5121 0
M  V30 2717 C 245.813 1.69361 -0.399093 0
M  V30 2718 O 246.989 1.90505 -0.653431 0
M  V30 2719 C 244.054 3.15653 -1.43401 0
M  V30 2720 C 243.115 3.37446 -2.65384 0
M  V30 2721 C 242.348 4.67229 -2.57939 0
M  V30 2722 O 242.571 5.46676 -1.62792 0
M  V30 2723 O 241.505 4.90773 -3.48462 0
M  V30 2724 H 245.331 1.7581 -2.47638 0
M  V30 2725 H 242.916 0.810447 -1.25507 0
M  V30 2726 H 244.798 3.96935 -1.41494 0
M  V30 2727 H 243.473 3.19798 -0.501085 0
M  V30 2728 H 242.38 2.55923 -2.72863 0
M  V30 2729 H 243.713 3.38148 -3.57654 0
M  V30 2730 N 245.365 1.30045 0.890287 0
M  V30 2731 C 246.312 1.15976 1.99545 0
M  V30 2732 C 247.282 0.0506202 1.66023 0
M  V30 2733 O 248.467 0.219847 1.89529 0
M  V30 2734 C 245.607 0.852054 3.34416 0
M  V30 2735 C 244.72 2.04255 3.80662 0
M  V30 2736 C 243.855 1.6734 5.04154 0
M  V30 2737 C 242.894 2.82916 5.42794 0
M  V30 2738 N 242.031 2.46333 6.57468 0
M  V30 2739 H 246.871 2.10524 2.10911 0
M  V30 2740 H 244.408 1.04749 1.03276 0
M  V30 2741 H 246.366 0.654296 4.12037 0
M  V30 2742 H 244.996 -0.0565502 3.2275 0
M  V30 2743 H 244.048 2.35172 2.98995 0
M  V30 2744 H 245.36 2.90826 4.05242 0
M  V30 2745 H 244.514 1.43908 5.89386 0
M  V30 2746 H 243.253 0.779308 4.81433 0
M  V30 2747 H 242.258 3.0702 4.56091 0
M  V30 2748 H 243.483 3.73004 5.6749 0
M  V30 2749 H 241.429 1.59423 6.36334 0
M  V30 2750 H 241.346 3.26436 6.81891 0
M  V30 2751 H 242.614 2.26244 7.45945 0
M  V30 2752 N 246.843 -1.10192 1.12674 0
M  V30 2753 C 248.092 -1.81573 0.8783 0
M  V30 2754 C 248.405 -1.86249 -0.597557 0
M  V30 2755 O 249.611 -2.5386 -0.962681 0
M  V30 2756 C 248.067 -3.26149 1.52167 0
M  V30 2757 C 247.675 -3.29763 3.03249 0
M  V30 2758 C 249.419 -4.0234 1.3536 0
M  V30 2759 C 247.326 -4.68815 3.60508 0
M  V30 2760 H 246.256 -0.680394 0.324931 0
M  V30 2761 H 248.907 -1.23902 1.35353 0
M  V30 2762 H 247.289 -3.83832 0.974104 0
M  V30 2763 H 248.463 -2.8189 3.6452 0
M  V30 2764 H 246.778 -2.67059 3.19481 0
M  V30 2765 H 249.375 -5.05058 1.75559 0
M  V30 2766 H 249.718 -4.15235 0.297554 0
M  V30 2767 H 250.251 -3.51079 1.87052 0
M  V30 2768 H 246.99 -4.61121 4.65884 0
M  V30 2769 H 246.51 -5.17045 3.04014 0
M  V30 2770 H 248.189 -5.37785 3.59717 0
M  V30 2771 N 248.321 -0.919034 -1.28029 0
M  V30 2772 C 249.567 -0.555757 -1.95036 0
M  V30 2773 C 249.9 0.899198 -1.72128 0
M  V30 2774 O 249.175 1.64023 -1.04531 0
M  V30 2775 C 249.458 -0.872024 -3.49382 0
M  V30 2776 C 249.311 -2.3801 -3.81669 0
M  V30 2777 C 250.63 -0.37185 -4.38526 0
M  V30 2778 H 247.749 -0.203386 -0.708381 0
M  V30 2779 H 250.391 -1.14924 -1.51303 0
M  V30 2780 H 248.541 -0.366946 -3.86763 0
M  V30 2781 H 250.213 -2.9562 -3.54128 0
M  V30 2782 H 248.456 -2.83289 -3.28526 0
M  V30 2783 H 249.127 -2.55192 -4.8947 0
M  V30 2784 H 251.603 -0.804602 -4.08247 0
M  V30 2785 H 250.479 -0.622173 -5.45362 0
M  V30 2786 H 250.74 0.727934 -4.36066 0
M  V30 2787 N 249.799 1.42003 -0.683588 0
M  V30 2788 C 251.024 2.06265 -0.216647 0
M  V30 2789 C 251.449 1.51059 1.12083 0
M  V30 2790 O 250.807 0.632638 1.69904 0
M  V30 2791 C 250.855 3.60191 -0.171759 0
M  V30 2792 O 249.959 4.03396 0.857069 0
M  V30 2793 H 249.3 0.65502 -0.108834 0
M  V30 2794 H 251.83 1.81982 -0.935077 0
M  V30 2795 H 251.84 4.08 0.0014303 0
M  V30 2796 H 250.515 3.99743 -1.14796 0
M  V30 2797 H 249.092 3.67117 0.654208 0
M  V30 2798 N 251.277 0.427512 1.51691 0
M  V30 2799 C 252.524 -0.142229 2.02 0
M  V30 2800 C 252.852 -1.43566 1.31221 0
M  V30 2801 O 252.107 -1.91298 0.412744 0
M  V30 2802 C 252.406 -0.418249 3.54944 0
M  V30 2803 C 252.072 0.788187 4.43958 0
M  V30 2804 C 250.734 1.11906 4.68007 0
M  V30 2805 C 253.086 1.59347 4.96244 0
M  V30 2806 C 250.414 2.25608 5.41588 0
M  V30 2807 C 252.766 2.7214 5.71072 0
M  V30 2808 C 251.43 3.05692 5.93387 0
M  V30 2809 H 250.7 -0.0520451 0.73917 0
M  V30 2810 H 253.347 0.572697 1.82736 0
M  V30 2811 H 251.652 -1.21496 3.72486 0
M  V30 2812 H 253.349 -0.872339 3.91397 0
M  V30 2813 H 249.939 0.520344 4.2543 0
M  V30 2814 H 254.123 1.35106 4.77556 0
M  V30 2815 H 249.379 2.51929 5.57083 0
M  V30 2816 H 253.553 3.34914 6.10578 0
M  V30 2817 H 251.18 3.9391 6.50184 0
M  V30 2818 N 252.755 -1.56801 0.158532 0
M  V30 2819 C 254.004 -1.95665 -0.489702 0
M  V30 2820 C 254.317 -1.04654 -1.65248 0
M  V30 2821 O 255.523 -1.33146 -2.3661 0
M  V30 2822 C 253.979 -3.47874 -0.922582 0
M  V30 2823 C 253.587 -4.47489 0.213893 0
M  V30 2824 C 255.331 -3.95583 -1.53996 0
M  V30 2825 C 253.238 -5.90921 -0.237903 0
M  V30 2826 H 252.168 -0.730516 -0.186716 0
M  V30 2827 H 254.819 -1.81861 0.244722 0
M  V30 2828 H 253.201 -3.57051 -1.71261 0
M  V30 2829 H 254.375 -4.50017 0.991036 0
M  V30 2830 H 252.69 -4.09764 0.740407 0
M  V30 2831 H 255.287 -5.0019 -1.8898 0
M  V30 2832 H 255.63 -3.37789 -2.43319 0
M  V30 2833 H 256.163 -3.8937 -0.814611 0
M  V30 2834 H 252.902 -6.52559 0.620236 0
M  V30 2835 H 252.422 -5.91729 -0.980676 0
M  V30 2836 H 254.101 -6.43352 -0.686067 0
M  V30 2837 N 254.233 0.115231 -1.57178 0
M  V30 2838 C 255.51 0.852873 -1.76027 0
M  V30 2839 C 255.89 1.97892 -0.73498 0
M  V30 2840 O 255.238 2.27232 0.24036 0
M  V30 2841 C 255.448 1.36608 -3.21153 0
M  V30 2842 C 256.796 1.81692 -3.83762 0
M  V30 2843 O 257.82 1.46278 -3.24779 0
M  V30 2844 O 256.679 2.47104 -4.87444 0
M  V30 2845 H 253.773 0.405296 -0.720877 0
M  V30 2846 H 256.319 0.0986785 -1.69413 0
M  V30 2847 H 255.091 0.558357 -3.87296 0
M  V30 2848 H 254.714 2.18287 -3.3232 0
M  V30 2849 N 255.711 1.52812 0.385517 0
M  V30 2850 C 256.658 1.77838 1.47113 0
M  V30 2851 C 257.628 0.621757 1.54024 0
M  V30 2852 O 258.813 0.861846 1.70226 0
M  V30 2853 C 255.953 1.95618 2.84302 0
M  V30 2854 C 255.066 3.23316 2.86515 0
M  V30 2855 C 254.201 3.31394 4.15152 0
M  V30 2856 C 253.24 4.53201 4.1143 0
M  V30 2857 N 252.377 4.58542 5.3168 0
M  V30 2858 H 257.217 2.70482 1.25073 0
M  V30 2859 H 254.754 1.34006 0.606692 0
M  V30 2860 H 256.712 2.03912 3.63972 0
M  V30 2861 H 255.342 1.06331 3.04784 0
M  V30 2862 H 254.394 3.24076 1.99195 0
M  V30 2863 H 255.706 4.13045 2.79634 0
M  V30 2864 H 254.86 3.3889 5.03228 0
M  V30 2865 H 253.599 2.39645 4.24761 0
M  V30 2866 H 252.604 4.45827 3.21742 0
M  V30 2867 H 253.829 5.46271 4.03442 0
M  V30 2868 H 251.775 3.69686 5.41912 0
M  V30 2869 H 251.692 5.42148 5.26889 0
M  V30 2870 H 252.96 4.70296 6.21644 0
M  V30 2871 N 257.189 -0.644168 1.43834 0
M  V30 2872 C 258.152 -1.73857 1.49353 0
M  V30 2873 C 259.152 -1.56315 0.377112 0
M  V30 2874 O 260.342 -1.62048 0.639226 0
M  V30 2875 C 257.474 -3.12819 1.35488 0
M  V30 2876 H 258.667 -1.70342 2.46827 0
M  V30 2877 H 256.22 -0.856652 1.30733 0
M  V30 2878 H 256.955 -3.2194 0.390569 0
M  V30 2879 H 256.74 -3.26958 2.16428 0
M  V30 2880 H 258.23 -3.92606 1.42302 0
M  V30 2881 N 258.668 -1.30515 -0.883378 0
M  V30 2882 C 259.898 -1.22182 -1.66599 0
M  V30 2883 C 260.306 0.217507 -1.87946 0
M  V30 2884 O 259.649 1.1554 -1.42815 0
M  V30 2885 C 259.711 -1.88146 -3.06335 0
M  V30 2886 C 259.375 -3.37476 -3.08154 0
M  V30 2887 C 260.372 -4.33443 -2.87094 0
M  V30 2888 C 258.057 -3.7895 -3.29701 0
M  V30 2889 C 260.051 -5.68858 -2.8754 0
M  V30 2890 C 257.738 -5.14482 -3.29776 0
M  V30 2891 C 258.736 -6.09246 -3.0872 0
M  V30 2892 O 258.424 -7.42302 -3.08615 0
M  V30 2893 H 258.156 -0.423898 -0.52658 0
M  V30 2894 H 260.71 -1.72703 -1.11188 0
M  V30 2895 H 258.94 -1.32157 -3.63416 0
M  V30 2896 H 260.629 -1.7391 -3.66756 0
M  V30 2897 H 261.395 -4.02733 -2.70243 0
M  V30 2898 H 257.274 -3.05631 -3.45124 0
M  V30 2899 H 260.818 -6.428 -2.71024 0
M  V30 2900 H 256.715 -5.44832 -3.46163 0
M  V30 2901 H 257.483 -7.5131 -3.24769 0
M  V30 2902 N 260.146 1.09593 -1.13257 0
M  V30 2903 C 261.392 1.82003 -0.89458 0
M  V30 2904 C 261.725 1.85402 0.577906 0
M  V30 2905 O 261 1.32099 1.42759 0
M  V30 2906 C 261.283 3.28237 -1.48096 0
M  V30 2907 C 261.136 3.3312 -3.02244 0
M  V30 2908 C 262.455 4.24871 -1.14774 0
M  V30 2909 H 259.574 0.66077 -0.326424 0
M  V30 2910 H 262.216 1.28389 -1.40058 0
M  V30 2911 H 260.366 3.74024 -1.05062 0
M  V30 2912 H 262.038 2.95748 -3.54021 0
M  V30 2913 H 260.281 2.72756 -3.37323 0
M  V30 2914 H 260.952 4.3613 -3.38371 0
M  V30 2915 H 263.428 3.87361 -1.51957 0
M  V30 2916 H 262.304 5.25532 -1.58452 0
M  V30 2917 H 262.565 4.42058 -0.0611849 0
M  V30 2918 N 261.624 0.925811 1.2754 0
M  V30 2919 C 262.849 0.580924 1.99098 0
M  V30 2920 C 263.274 -0.833555 1.68622 0
M  V30 2921 O 262.632 -1.55903 0.925422 0
M  V30 2922 C 262.68 0.811186 3.51358 0
M  V30 2923 O 261.784 -0.124129 4.12213 0
M  V30 2924 H 261.125 0.223873 0.625122 0
M  V30 2925 H 263.655 1.24455 1.62395 0
M  V30 2926 H 263.665 0.72601 4.01489 0
M  V30 2927 H 262.34 1.84227 3.72872 0
M  V30 2928 H 260.917 0.0108006 3.72898 0
M  V30 2929 N 263.102 -1.41638 0.69111 0
M  V30 2930 C 264.35 -2.00902 0.219758 0
M  V30 2931 C 264.671 -1.54994 -1.18329 0
M  V30 2932 O 263.941 -0.778628 -1.79762 0
M  V30 2933 H 262.521 -0.74289 0.0782558 0
M  V30 2934 H 265.183 -1.73327 0.891271 0
M  V30 2935 H 264.279 -3.11224 0.233708 0
M  V30 2936 N 264.58 -0.43555 -1.51462 0
M  V30 2937 C 265.49 0.383001 -2.31453 0
M  V30 2938 C 266.506 1.02931 -1.4029 0
M  V30 2939 O 267.682 1.02507 -1.73362 0
M  V30 2940 C 264.747 1.47043 -3.13973 0
M  V30 2941 C 263.808 0.844433 -4.20913 0
M  V30 2942 C 263.041 1.88004 -4.9949 0
M  V30 2943 O 263.264 3.10199 -4.78678 0
M  V30 2944 O 262.198 1.47157 -5.83634 0
M  V30 2945 H 266.024 -0.269964 -3.02498 0
M  V30 2946 H 263.609 -0.19813 -1.4808 0
M  V30 2947 H 265.491 2.10113 -3.65281 0
M  V30 2948 H 264.166 2.10751 -2.45695 0
M  V30 2949 H 263.073 0.175729 -3.73687 0
M  V30 2950 H 264.406 0.250869 -4.9156 0
M  V30 2951 N 266.058 1.56714 -0.166846 0
M  V30 2952 C 267.305 1.96747 0.479252 0
M  V30 2953 C 267.633 1.05263 1.63554 0
M  V30 2954 O 266.888 0.0858098 1.95512 0
M  V30 2955 C 267.187 3.42889 1.00806 0
M  V30 2956 C 266.853 4.50889 -0.0318574 0
M  V30 2957 C 265.515 4.8015 -0.317675 0
M  V30 2958 C 267.867 5.15949 -0.737956 0
M  V30 2959 C 265.195 5.71772 -1.31506 0
M  V30 2960 C 267.547 6.08647 -1.72429 0
M  V30 2961 C 266.211 6.36277 -2.0176 0
M  V30 2962 H 265.481 0.719949 0.175371 0
M  V30 2963 H 268.128 1.89756 -0.257864 0
M  V30 2964 H 266.433 3.4681 1.82291 0
M  V30 2965 H 268.13 3.71203 1.51689 0
M  V30 2966 H 264.72 4.28128 0.201088 0
M  V30 2967 H 268.904 4.93458 -0.530351 0
M  V30 2968 H 264.16 5.91465 -1.54853 0
M  V30 2969 H 268.334 6.58129 -2.27682 0
M  V30 2970 H 265.961 7.07075 -2.79194 0
M  V30 2971 N 267.536 -0.106894 1.57237 0
M  V30 2972 C 268.782 -0.81373 1.85759 0
M  V30 2973 C 269.115 -1.78952 0.754315 0
M  V30 2974 O 268.39 -1.93029 -0.23879 0
M  V30 2975 C 268.673 -1.55293 3.24894 0
M  V30 2976 C 268.526 -0.595929 4.45835 0
M  V30 2977 C 269.845 -2.5063 3.61763 0
M  V30 2978 H 266.964 -0.294369 0.67566 0
M  V30 2979 H 269.606 -0.0776472 1.89841 0
M  V30 2980 H 267.756 -2.1804 3.21544 0
M  V30 2981 H 269.428 0.0236262 4.61294 0
M  V30 2982 H 267.671 0.0916191 4.33703 0
M  V30 2983 H 268.342 -1.15004 5.39887 0
M  V30 2984 H 270.818 -1.97982 3.65981 0
M  V30 2985 H 269.694 -2.99376 4.60071 0
M  V30 2986 H 269.955 -3.3385 2.89821 0
M  V30 2987 N 269.014 -1.53014 -0.377408 0
M  V30 2988 C 270.291 -1.59215 -1.13622 0
M  V30 2989 C 270.671 -0.392407 -2.07421 0
M  V30 2990 O 270.019 0.618342 -2.19975 0
M  V30 2991 C 270.229 -2.93669 -1.88573 0
M  V30 2992 C 271.577 -3.47822 -2.43526 0
M  V30 2993 O 272.601 -2.9562 -1.98715 0
M  V30 2994 O 271.46 -4.39055 -3.25412 0
M  V30 2995 H 268.554 -0.642625 -0.52054 0
M  V30 2996 H 271.1 -1.65353 -0.381625 0
M  V30 2997 H 269.872 -3.7243 -1.20048 0
M  V30 2998 H 269.495 -2.90968 -2.70968 0
M  V30 2999 N 270.492 0.636531 -1.44174 0
M  V30 3000 C 271.422 1.76003 -1.53444 0
M  V30 3001 C 272.403 1.65619 -0.387841 0
M  V30 3002 O 273.588 1.84461 -0.607257 0
M  V30 3003 C 270.718 3.14511 -1.4731 0
M  V30 3004 C 269.672 3.39677 -2.60391 0
M  V30 3005 C 268.998 4.78159 -2.39308 0
M  V30 3006 C 270.298 3.32772 -4.02567 0
M  V30 3007 H 271.992 1.68501 -2.47483 0
M  V30 3008 H 269.538 0.809237 -1.19111 0
M  V30 3009 H 271.491 3.92878 -1.52397 0
M  V30 3010 H 270.215 3.22783 -0.49785 0
M  V30 3011 H 268.874 2.63688 -2.54684 0
M  V30 3012 H 268.522 4.83128 -1.39988 0
M  V30 3013 H 268.222 4.95956 -3.15122 0
M  V30 3014 H 269.746 5.58762 -2.46205 0
M  V30 3015 H 271.16 4.01051 -4.09672 0
M  V30 3016 H 269.557 3.62104 -4.7854 0
M  V30 3017 H 270.627 2.30669 -4.2652 0
M  V30 3018 N 271.97 1.30982 0.876444 0
M  V30 3019 C 273.2 1.23063 1.65949 0
M  V30 3020 C 273.608 -0.207537 1.88058 0
M  V30 3021 O 272.951 -1.14781 1.43426 0
M  V30 3022 C 273.013 1.89768 3.05333 0
M  V30 3023 C 272.677 3.39106 3.0636 0
M  V30 3024 C 273.674 4.3496 2.84791 0
M  V30 3025 C 271.359 3.80693 3.27686 0
M  V30 3026 C 273.353 5.70375 2.84519 0
M  V30 3027 C 271.04 5.16223 3.27043 0
M  V30 3028 C 272.038 6.10875 3.05485 0
M  V30 3029 O 271.726 7.43928 3.04674 0
M  V30 3030 H 271.458 0.426685 0.524324 0
M  V30 3031 H 274.012 1.7329 1.10271 0
M  V30 3032 H 272.242 1.34082 3.6271 0
M  V30 3033 H 273.931 1.75853 3.65829 0
M  V30 3034 H 274.697 4.0416 2.68103 0
M  V30 3035 H 270.576 3.07457 3.43499 0
M  V30 3036 H 274.12 6.44228 2.67611 0
M  V30 3037 H 270.017 5.4666 3.43269 0
M  V30 3038 H 270.785 7.53022 3.2078 0
M  V30 3039 N 273.449 -1.08991 1.13837 0
M  V30 3040 C 274.695 -1.81699 0.91417 0
M  V30 3041 C 275.05 -1.84264 -0.553594 0
M  V30 3042 O 274.343 -1.30313 -1.4046 0
M  V30 3043 C 274.537 -3.27042 1.44147 0
M  V30 3044 C 274.366 -3.38637 2.95897 0
M  V30 3045 C 273.136 -3.50177 3.64286 0
M  V30 3046 C 275.334 -3.30791 3.93804 0
M  V30 3047 N 273.316 -3.50501 5.04006 0
M  V30 3048 C 274.687 -3.38037 5.19741 0
M  V30 3049 C 276.742 -3.14488 3.86007 0
M  V30 3050 C 275.445 -3.30659 6.38793 0
M  V30 3051 C 277.471 -3.08438 5.04599 0
M  V30 3052 C 276.833 -3.1628 6.29402 0
M  V30 3053 H 272.932 -0.678967 0.387979 0
M  V30 3054 H 275.516 -1.30224 1.4474 0
M  V30 3055 H 273.687 -3.76976 0.935091 0
M  V30 3056 H 275.419 -3.87785 1.1578 0
M  V30 3057 H 272.174 -3.53815 3.1482 0
M  V30 3058 H 272.598 -3.54236 5.76928 0
M  V30 3059 H 277.24 -3.07291 2.90399 0
M  V30 3060 H 274.958 -3.36618 7.34652 0
M  V30 3061 H 278.544 -2.96952 5.0031 0
M  V30 3062 H 277.424 -3.1162 7.19627 0
M  V30 3063 N 274.927 -0.932562 -1.27047 0
M  V30 3064 C 276.204 -0.49377 -1.89265 0
M  V30 3065 C 276.584 1.02833 -1.8436 0
M  V30 3066 O 275.932 1.88461 -1.29209 0
M  V30 3067 C 276.142 -1.04536 -3.32976 0
M  V30 3068 C 277.49 -1.10879 -4.09867 0
M  V30 3069 O 278.514 -0.995327 -3.42011 0
M  V30 3070 O 277.373 -1.28417 -5.31198 0
M  V30 3071 H 274.467 -0.159596 -0.811454 0
M  V30 3072 H 277.013 -1.02457 -1.3528 0
M  V30 3073 H 275.785 -2.08913 -3.30864 0
M  V30 3074 H 275.408 -0.496494 -3.94488 0
M  V30 3075 N 276.405 1.4127 -0.698611 0
M  V30 3076 C 277.353 2.32588 -0.023855 0
M  V30 3077 C 278.347 1.51128 0.765292 0
M  V30 3078 O 279.553 1.67043 0.670571 0
M  V30 3079 H 275.928 0.751918 0.0110871 0
M  V30 3080 H 277.899 2.87167 -0.811031 0
M  V30 3081 C 276.648 3.35947 0.896369 0
M  V30 3082 H 275.971 3.98684 0.298548 0
M  V30 3083 H 277.411 4.02376 1.33676 0
M  V30 3084 C 275.87 2.70076 2.01396 0
M  V30 3085 O 276.4 2.55093 3.10307 0
M  V30 3086 N 274.606 2.28724 1.79259 0
M  V30 3087 H 274.153 2.4111 0.906841 0
M  V30 3088 H 274.111 1.84986 2.54219 0
M  V30 3089 N 277.883 0.443576 1.51229 0
M  V30 3090 C 278.816 -0.410089 2.24485 0
M  V30 3091 C 279.794 -1.01949 1.26669 0
M  V30 3092 O 280.978 -1.06075 1.55821 0
M  V30 3093 C 278.105 -1.57211 3.00004 0
M  V30 3094 C 277.151 -1.08279 4.12526 0
M  V30 3095 S 277.984 -0.0197476 5.35496 0
M  V30 3096 C 279.14 -1.18629 6.14555 0
M  V30 3097 H 279.373 0.211832 2.96544 0
M  V30 3098 H 276.906 0.228156 1.52705 0
M  V30 3099 H 278.864 -2.23825 3.44111 0
M  V30 3100 H 277.525 -2.16547 2.27522 0
M  V30 3101 H 276.718 -1.95193 4.64667 0
M  V30 3102 H 276.32 -0.494797 3.70713 0
M  V30 3103 H 278.612 -2.10344 6.4402 0
M  V30 3104 H 279.555 -0.70472 7.04584 0
M  V30 3105 H 279.963 -1.42768 5.46148 0
M  V30 3106 N 279.361 -1.56624 0.175154 0
M  V30 3107 C 280.607 -1.9729 -0.469506 0
M  V30 3108 C 280.94 -1.06128 -1.62636 0
M  V30 3109 O 280.215 -0.109183 -1.94193 0
M  V30 3110 C 280.498 -3.47375 -0.948804 0
M  V30 3111 C 280.351 -4.49317 0.208491 0
M  V30 3112 C 281.67 -4.00652 -1.82116 0
M  V30 3113 H 278.789 -0.717317 -0.16919 0
M  V30 3114 H 281.431 -1.88184 0.262062 0
M  V30 3115 H 279.581 -3.55267 -1.57219 0
M  V30 3116 H 281.253 -4.53482 0.845682 0
M  V30 3117 H 279.496 -4.25121 0.863395 0
M  V30 3118 H 280.167 -5.51741 -0.169059 0
M  V30 3119 H 282.643 -3.95416 -1.2956 0
M  V30 3120 H 281.519 -5.06075 -2.12554 0
M  V30 3121 H 281.78 -3.44699 -2.7683 0
M  V30 3122 N 280.839 0.0985539 -1.57292 0
M  V30 3123 C 281.786 1.11981 -2.01814 0
M  V30 3124 C 282.756 1.39999 -0.89384 0
M  V30 3125 O 283.941 1.5152 -1.15958 0
M  V30 3126 C 281.081 2.43577 -2.44467 0
M  V30 3127 C 280.194 2.2232 -3.70402 0
M  V30 3128 C 279.329 3.4729 -4.01949 0
M  V30 3129 C 278.368 3.2128 -5.21005 0
M  V30 3130 N 277.505 4.38507 -5.48321 0
M  V30 3131 H 282.345 0.733149 -2.88841 0
M  V30 3132 H 279.882 0.350482 -1.42864 0
M  V30 3133 H 281.84 3.20373 -2.6724 0
M  V30 3134 H 280.47 2.80097 -1.60455 0
M  V30 3135 H 279.522 1.36343 -3.55126 0
M  V30 3136 H 280.834 1.99089 -4.57345 0
M  V30 3137 H 279.988 4.32495 -4.25479 0
M  V30 3138 H 278.727 3.73572 -3.13521 0
M  V30 3139 H 277.732 2.34468 -4.97298 0
M  V30 3140 H 278.957 2.96348 -6.11028 0
M  V30 3141 H 276.903 4.64871 -4.62851 0
M  V30 3142 H 276.82 4.18455 -6.29628 0
M  V30 3143 H 278.088 5.24787 -5.76385 0
M  V30 3144 N 282.317 1.53212 0.369288 0
M  V30 3145 C 283.594 1.59815 1.12776 0
M  V30 3146 C 283.974 0.403402 2.0721 0
M  V30 3147 O 283.322 -0.606667 2.20299 0
M  V30 3148 C 283.532 2.94664 1.87013 0
M  V30 3149 C 284.88 3.49109 2.41677 0
M  V30 3150 O 285.904 2.96669 1.97144 0
M  V30 3151 O 284.763 4.40775 3.23079 0
M  V30 3152 H 281.857 0.645376 0.517125 0
M  V30 3153 H 284.403 1.65553 0.37285 0
M  V30 3154 H 283.175 3.73061 1.18071 0
M  V30 3155 H 282.798 2.92401 2.69421 0
M  V30 3156 N 283.795 -0.628877 1.44509 0
M  V30 3157 C 284.743 -1.76193 1.51852 0
M  V30 3158 C 285.737 -1.64849 0.390042 0
M  V30 3159 O 286.943 -1.709 0.565082 0
M  V30 3160 H 283.318 -0.581728 0.476547 0
M  V30 3161 H 285.289 -1.67123 2.47209 0
M  V30 3162 C 284.038 -3.14533 1.48204 0
M  V30 3163 H 283.361 -3.23911 2.34354 0
M  V30 3164 H 284.801 -3.93701 1.57402 0
M  V30 3165 C 283.26 -3.36287 0.203142 0
M  V30 3166 O 283.79 -3.9509 -0.725745 0
M  V30 3167 N 281.996 -2.90408 0.105563 0
M  V30 3168 H 281.543 -2.42739 0.862301 0
M  V30 3169 H 281.501 -3.05339 -0.749371 0
M  V30 3170 N 285.273 -1.31445 -0.869486 0
M  V30 3171 C 286.522 -1.20517 -1.61736 0
M  V30 3172 C 286.835 0.235341 -1.94179 0
M  V30 3173 O 288.041 0.466312 -2.67465 0
M  V30 3174 C 286.497 -2.10982 -2.91573 0
M  V30 3175 C 286.105 -3.60032 -2.66611 0
M  V30 3176 C 287.849 -2.08856 -3.69567 0
M  V30 3177 C 285.756 -4.42503 -3.92358 0
M  V30 3178 H 284.686 -0.447493 -0.606849 0
M  V30 3179 H 287.337 -1.56303 -0.96133 0
M  V30 3180 H 285.719 -1.68095 -3.58553 0
M  V30 3181 H 286.893 -4.11167 -2.08035 0
M  V30 3182 H 285.208 -3.64139 -2.0197 0
M  V30 3183 H 287.805 -2.67716 -4.62852 0
M  V30 3184 H 288.148 -1.07582 -4.02159 0
M  V30 3185 H 288.681 -2.49945 -3.09471 0
M  V30 3186 H 285.42 -5.44533 -3.64916 0
M  V30 3187 H 284.94 -3.96125 -4.50383 0
M  V30 3188 H 286.619 -4.54741 -4.60238 0
M  V30 3189 N 286.751 1.08385 -1.14413 0
M  V30 3190 C 287.698 2.15311 -0.831265 0
M  V30 3191 C 288.668 1.64751 0.211292 0
M  V30 3192 O 289.853 1.90627 0.0811674 0
M  V30 3193 C 286.993 3.43658 -0.315143 0
M  V30 3194 C 286.106 4.08064 -1.41802 0
M  V30 3195 C 285.241 5.24207 -0.859126 0
M  V30 3196 C 284.28 5.80554 -1.93967 0
M  V30 3197 N 283.417 6.88042 -1.39793 0
M  V30 3198 H 288.257 2.41415 -1.74708 0
M  V30 3199 H 285.794 1.18474 -0.871909 0
M  V30 3200 H 287.752 4.172 0.00230884 0
M  V30 3201 H 286.382 3.17839 0.56378 0
M  V30 3202 H 285.434 3.3228 -1.85187 0
M  V30 3203 H 286.746 4.45962 -2.23427 0
M  V30 3204 H 285.9 6.04689 -0.49359 0
M  V30 3205 H 284.639 4.87699 -0.011932 0
M  V30 3206 H 283.644 4.98725 -2.31415 0
M  V30 3207 H 284.869 6.19121 -2.79046 0
M  V30 3208 H 282.815 6.53493 -0.572919 0
M  V30 3209 H 282.732 7.24767 -2.15054 0
M  V30 3210 H 284 7.72255 -1.0603 0
M  V30 3211 N 288.23 0.939286 1.26551 0
M  V30 3212 C 289.14 0.453432 2.30176 0
M  V30 3213 C 290.156 -0.471649 1.67486 0
M  V30 3214 O 291.332 -0.35164 1.98306 0
M  V30 3215 C 288.397 -0.275326 3.45605 0
M  V30 3216 C 287.458 0.686084 4.23782 0
M  V30 3217 C 286.691 -0.00798994 5.33699 0
M  V30 3218 O 286.914 -1.22528 5.57085 0
M  V30 3219 O 285.848 0.669746 5.98162 0
M  V30 3220 H 289.674 1.31416 2.73795 0
M  V30 3221 H 287.259 0.705095 1.31715 0
M  V30 3222 H 289.141 -0.685911 4.1578 0
M  V30 3223 H 287.816 -1.11147 3.0402 0
M  V30 3224 H 286.723 1.14658 3.56096 0
M  V30 3225 H 288.056 1.48979 4.69112 0
M  V30 3226 N 289.708 -1.40897 0.706093 0
M  V30 3227 C 290.638 -2.33418 0.0620085 0
M  V30 3228 C 291.619 -1.52385 -0.755827 0
M  V30 3229 O 292.804 -1.80886 -0.706674 0
M  V30 3230 C 289.934 -3.36293 -0.867445 0
M  V30 3231 C 288.888 -4.27716 -0.155932 0
M  V30 3232 C 288.214 -5.2105 -1.20046 0
M  V30 3233 C 289.514 -5.12944 0.984149 0
M  V30 3234 H 291.208 -2.87527 0.83477 0
M  V30 3235 H 288.754 -1.38249 0.402875 0
M  V30 3236 H 290.707 -3.99949 -1.32735 0
M  V30 3237 H 289.431 -2.80556 -1.67199 0
M  V30 3238 H 288.09 -3.65498 0.284047 0
M  V30 3239 H 287.738 -4.61624 -1.99781 0
M  V30 3240 H 287.438 -5.83056 -0.729328 0
M  V30 3241 H 288.962 -5.87584 -1.66066 0
M  V30 3242 H 290.376 -5.70109 0.604048 0
M  V30 3243 H 288.773 -5.83945 1.38304 0
M  V30 3244 H 289.843 -4.49485 1.81911 0
M  V30 3245 N 291.186 -0.45159 -1.50991 0
M  V30 3246 C 292.463 0.170707 -1.94854 0
M  V30 3247 C 292.843 1.58788 -1.39103 0
M  V30 3248 O 292.191 2.20913 -0.583921 0
M  V30 3249 C 292.401 0.133929 -3.48743 0
M  V30 3250 C 293.749 0.33248 -4.23296 0
M  V30 3251 O 294.773 0.211403 -3.55572 0
M  V30 3252 O 293.632 0.57486 -5.43468 0
M  V30 3253 H 290.726 0.122264 -0.817912 0
M  V30 3254 H 293.272 -0.510594 -1.61836 0
M  V30 3255 H 292.044 -0.856283 -3.81816 0
M  V30 3256 H 291.667 0.857529 -3.88242 0
M  V30 3257 N 292.664 1.56529 -0.183458 0
M  V30 3258 C 293.91 1.97537 0.459036 0
M  V30 3259 C 294.243 1.06989 1.62071 0
M  V30 3260 O 293.518 0.11948 1.94133 0
M  V30 3261 C 293.801 3.47874 0.930368 0
M  V30 3262 C 293.654 4.492 -0.232317 0
M  V30 3263 C 294.973 4.01612 1.79989 0
M  V30 3264 H 292.092 0.718204 0.165383 0
M  V30 3265 H 294.734 1.88042 -0.272038 0
M  V30 3266 H 292.884 3.56095 1.55333 0
M  V30 3267 H 294.556 4.53027 -0.86972 0
M  V30 3268 H 292.799 4.24657 -0.885928 0
M  V30 3269 H 293.47 5.51823 0.139796 0
M  V30 3270 H 295.946 3.96097 1.27461 0
M  V30 3271 H 294.822 5.07195 2.09867 0
M  V30 3272 H 295.083 3.46163 2.74998 0
M  V30 3273 N 294.142 -0.090211 1.57342 0
M  V30 3274 C 295.372 -0.805055 1.90269 0
M  V30 3275 C 295.78 -1.72561 0.775842 0
M  V30 3276 O 295.123 -1.81839 -0.260843 0
M  V30 3277 C 295.185 -1.66734 3.18497 0
M  V30 3278 C 294.849 -0.918092 4.47683 0
M  V30 3279 C 295.846 -0.245674 5.19319 0
M  V30 3280 C 293.531 -0.890724 4.94339 0
M  V30 3281 C 295.525 0.444088 6.35851 0
M  V30 3282 C 293.212 -0.197179 6.10782 0
M  V30 3283 C 294.21 0.469044 6.81388 0
M  V30 3284 O 293.898 1.15146 7.95611 0
M  V30 3285 H 293.63 -0.235143 0.633785 0
M  V30 3286 H 296.184 -0.0703805 2.05279 0
M  V30 3287 H 294.414 -2.44437 2.99646 0
M  V30 3288 H 296.103 -2.25919 3.37217 0
M  V30 3289 H 296.869 -0.258246 4.84312 0
M  V30 3290 H 292.748 -1.39873 4.39268 0
M  V30 3291 H 296.292 0.964667 6.90898 0
M  V30 3292 H 292.189 -0.18247 6.45242 0
M  V30 3293 H 292.957 1.05885 8.11622 0
M  V30 3294 N 295.62 -1.53406 -0.361157 0
M  V30 3295 C 296.866 -1.70054 -1.10496 0
M  V30 3296 C 297.199 -0.453278 -1.88836 0
M  V30 3297 O 296.474 0.5495 -1.86576 0
M  V30 3298 C 296.757 -2.95317 -2.06058 0
M  V30 3299 C 296.61 -4.3021 -1.31298 0
M  V30 3300 C 297.929 -3.16193 -3.06121 0
M  V30 3301 H 295.048 -0.618799 -0.400321 0
M  V30 3302 H 297.69 -1.86052 -0.385318 0
M  V30 3303 H 295.84 -2.81809 -2.67425 0
M  V30 3304 H 297.512 -4.55538 -0.726807 0
M  V30 3305 H 295.755 -4.29421 -0.614853 0
M  V30 3306 H 296.426 -5.14 -2.01265 0
M  V30 3307 H 298.902 -3.28916 -2.5486 0
M  V30 3308 H 297.778 -4.05266 -3.70204 0
M  V30 3309 H 298.039 -2.31676 -3.76535 0
M  V30 3310 N 297.098 0.621204 -1.44841 0
M  V30 3311 C 298.008 1.7612 -1.5498 0
M  V30 3312 C 299.024 1.68477 -0.434927 0
M  V30 3313 O 300.2 1.89076 -0.693693 0
M  V30 3314 C 297.265 3.1254 -1.50065 0
M  V30 3315 C 296.326 3.31741 -2.72482 0
M  V30 3316 C 295.559 4.61653 -2.67792 0
M  V30 3317 O 295.782 5.431 -1.74352 0
M  V30 3318 O 294.716 4.83271 -3.58794 0
M  V30 3319 H 298.542 1.70518 -2.51311 0
M  V30 3320 H 296.127 0.783643 -1.27198 0
M  V30 3321 H 298.009 3.93844 -1.49882 0
M  V30 3322 H 296.684 3.18663 -0.568806 0
M  V30 3323 H 295.591 2.50077 -2.7823 0
M  V30 3324 H 296.924 3.30486 -3.64746 0
M  V30 3325 N 298.576 1.31904 0.862503 0
M  V30 3326 C 299.486 1.22161 2.00285 0
M  V30 3327 C 300.502 0.136785 1.73462 0
M  V30 3328 O 301.678 0.355994 1.98229 0
M  V30 3329 C 298.743 0.937093 3.33796 0
M  V30 3330 C 297.804 2.10957 3.73893 0
M  V30 3331 C 297.037 1.83853 5.01033 0
M  V30 3332 O 297.26 0.777274 5.65079 0
M  V30 3333 O 296.194 2.69741 5.38074 0
M  V30 3334 H 300.02 2.18008 2.11439 0
M  V30 3335 H 297.605 1.11716 0.991957 0
M  V30 3336 H 299.487 0.794583 4.13841 0
M  V30 3337 H 298.162 0.00871894 3.23699 0
M  V30 3338 H 297.069 2.30752 2.94456 0
M  V30 3339 H 298.402 3.02046 3.88625 0
M  V30 3340 N 300.054 -1.07777 1.14986 0
M  V30 3341 C 300.984 -2.16865 0.865557 0
M  V30 3342 C 301.965 -1.69123 -0.182083 0
M  V30 3343 O 303.15 -1.94164 -0.0373815 0
M  V30 3344 C 300.28 -3.45539 0.349313 0
M  V30 3345 C 299.234 -4.06708 1.33313 0
M  V30 3346 C 298.56 -5.30411 0.675918 0
M  V30 3347 C 299.86 -4.47241 2.69764 0
M  V30 3348 H 301.554 -2.40905 1.77778 0
M  V30 3349 H 299.1 -1.15781 0.856203 0
M  V30 3350 H 301.053 -4.21174 0.137983 0
M  V30 3351 H 299.777 -3.21072 -0.598362 0
M  V30 3352 H 298.436 -3.33112 1.53075 0
M  V30 3353 H 298.084 -5.02232 -0.277767 0
M  V30 3354 H 297.784 -5.72293 1.33244 0
M  V30 3355 H 299.308 -6.08755 0.474262 0
M  V30 3356 H 300.722 -5.14025 2.53873 0
M  V30 3357 H 299.119 -5.00062 3.3175 0
M  V30 3358 H 300.189 -3.58818 3.26156 0
M  V30 3359 N 301.532 -0.945985 -1.26051 0
M  V30 3360 C 302.442 -0.465633 -2.29933 0
M  V30 3361 C 303.458 0.462761 -1.67733 0
M  V30 3362 O 304.634 0.341118 -1.9849 0
M  V30 3363 C 301.699 0.256994 -3.45746 0
M  V30 3364 C 300.76 -0.708549 -4.23412 0
M  V30 3365 C 299.993 -0.0203135 -5.33696 0
M  V30 3366 O 300.216 1.19571 -5.57726 0
M  V30 3367 O 299.15 -0.701459 -5.97799 0
M  V30 3368 H 302.976 -1.32866 -2.73094 0
M  V30 3369 H 300.561 -0.712071 -1.31339 0
M  V30 3370 H 302.443 0.663852 -4.16138 0
M  V30 3371 H 301.118 1.09533 -3.04605 0
M  V30 3372 H 300.025 -1.16545 -3.55483 0
M  V30 3373 H 301.358 -1.51465 -4.68315 0
M  V30 3374 N 303.011 1.40521 -0.713556 0
M  V30 3375 C 304.259 2.00527 -0.251692 0
M  V30 3376 C 304.58 1.56857 1.15848 0
M  V30 3377 O 303.85 0.807127 1.785 0
M  V30 3378 H 302.43 0.741551 -0.0900646 0
M  V30 3379 H 305.092 1.71887 -0.918733 0
M  V30 3380 H 304.188 3.10813 -0.283192 0
M  V30 3381 N 304.489 0.459591 1.5075 0
M  V30 3382 C 305.437 -0.354678 2.2988 0
M  V30 3383 C 306.431 -1.00086 1.36672 0
M  V30 3384 O 307.637 -0.933277 1.53915 0
M  V30 3385 H 304.012 -0.13321 0.740107 0
M  V30 3386 H 305.983 0.333269 2.96533 0
M  V30 3387 C 304.732 -1.43073 3.169 0
M  V30 3388 H 304.055 -0.942882 3.88523 0
M  V30 3389 H 305.495 -1.97328 3.75284 0
M  V30 3390 C 303.954 -2.42633 2.33732 0
M  V30 3391 O 304.484 -3.47658 2.01238 0
M  V30 3392 N 302.69 -2.14066 1.9653 0
M  V30 3393 H 302.237 -1.28685 2.23155 0
M  V30 3394 H 302.195 -2.80917 1.41185 0
M  V30 3395 N 305.967 -1.56429 0.191757 0
M  V30 3396 C 307.192 -2.02309 -0.456706 0
M  V30 3397 C 307.617 -1.07103 -1.5463 0
M  V30 3398 O 306.975 -0.0539677 -1.8122 0
M  V30 3399 C 307.023 -3.46654 -0.993159 0
M  V30 3400 O 306.127 -3.54559 -2.10622 0
M  V30 3401 H 305.468 -0.655303 -0.107114 0
M  V30 3402 H 307.998 -2.02364 0.301653 0
M  V30 3403 H 308.008 -3.86377 -1.31061 0
M  V30 3404 H 306.683 -4.1544 -0.195504 0
M  V30 3405 H 305.26 -3.26708 -1.79767 0
M  V30 3406 N 307.445 0.0818655 -1.57387 0
M  V30 3407 C 308.694 0.781681 -1.85937 0
M  V30 3408 C 309.007 1.79246 -0.782957 0
M  V30 3409 O 310.213 2.54112 -0.955987 0
M  V30 3410 C 308.669 1.44109 -3.29789 0
M  V30 3411 C 308.277 0.469396 -4.45534 0
M  V30 3412 C 310.021 2.12386 -3.67549 0
M  V30 3413 C 307.928 1.13415 -5.80423 0
M  V30 3414 H 306.858 0.295682 -0.693605 0
M  V30 3415 H 309.509 0.0348051 -1.83467 0
M  V30 3416 H 307.891 2.23588 -3.2684 0
M  V30 3417 H 309.065 -0.294856 -4.59856 0
M  V30 3418 H 307.38 -0.108383 -4.16259 0
M  V30 3419 H 309.977 2.62878 -4.65617 0
M  V30 3420 H 310.32 2.91877 -2.96839 0
M  V30 3421 H 310.853 1.39751 -3.72444 0
M  V30 3422 H 307.592 0.379771 -6.54399 0
M  V30 3423 H 307.112 1.8695 -5.69921 0
M  V30 3424 H 308.791 1.65686 -6.25426 0
M  V30 3425 N 308.923 1.53595 0.353017 0
M  V30 3426 C 310.153 1.74058 1.11299 0
M  V30 3427 C 310.561 0.475205 1.83135 0
M  V30 3428 O 309.904 -0.562344 1.74881 0
M  V30 3429 C 309.966 2.85994 2.17825 0
M  V30 3430 C 309.63 4.25923 1.65647 0
M  V30 3431 C 310.627 5.07829 1.11383 0
M  V30 3432 C 308.312 4.72377 1.7078 0
M  V30 3433 C 310.306 6.34285 0.629439 0
M  V30 3434 C 307.993 5.98808 1.21953 0
M  V30 3435 C 308.991 6.79594 0.681265 0
M  V30 3436 O 308.679 8.03651 0.200248 0
M  V30 3437 H 308.411 0.585327 0.338183 0
M  V30 3438 H 310.965 2.01186 0.413927 0
M  V30 3439 H 309.195 2.54368 2.91262 0
M  V30 3440 H 310.884 2.94515 2.79313 0
M  V30 3441 H 311.65 4.73107 1.06746 0
M  V30 3442 H 307.529 4.0956 2.11617 0
M  V30 3443 H 311.073 6.97288 0.208636 0
M  V30 3444 H 306.97 6.33026 1.26287 0
M  V30 3445 H 307.738 8.1788 0.318416 0
M  V30 3446 N 310.401 -0.613514 1.45168 0
M  V30 3447 C 311.311 -1.75296 1.55912 0
M  V30 3448 C 312.327 -1.68244 0.443856 0
M  V30 3449 O 313.503 -1.88706 0.70371 0
M  V30 3450 C 310.568 -3.1174 1.5172 0
M  V30 3451 C 309.629 -3.30291 2.74238 0
M  V30 3452 C 308.862 -4.60226 2.70236 0
M  V30 3453 O 309.085 -5.42168 1.77229 0
M  V30 3454 O 308.019 -4.81361 3.61352 0
M  V30 3455 H 311.845 -1.69183 2.52212 0
M  V30 3456 H 309.43 -0.776886 1.27612 0
M  V30 3457 H 311.312 -3.93044 1.51968 0
M  V30 3458 H 309.987 -3.18357 0.585697 0
M  V30 3459 H 308.894 -2.48598 2.79553 0
M  V30 3460 H 310.227 -3.28547 3.66494 0
M  V30 3461 N 311.879 -1.3236 -0.855495 0
M  V30 3462 C 313.128 -1.22226 -1.60448 0
M  V30 3463 C 313.441 0.214733 -1.94418 0
M  V30 3464 O 314.647 0.437917 -2.67945 0
M  V30 3465 C 313.103 -2.14063 -2.89318 0
M  V30 3466 C 312.711 -3.62839 -2.62777 0
M  V30 3467 C 314.455 -2.12764 -3.67331 0
M  V30 3468 C 312.362 -4.4664 -3.87643 0
M  V30 3469 H 311.292 -0.453904 -0.602069 0
M  V30 3470 H 313.943 -1.57314 -0.944698 0
M  V30 3471 H 312.325 -1.71889 -3.5675 0
M  V30 3472 H 313.499 -4.1335 -2.03662 0
M  V30 3473 H 311.814 -3.66261 -1.98096 0
M  V30 3474 H 314.411 -2.72611 -4.59987 0
M  V30 3475 H 314.754 -1.11841 -4.00995 0
M  V30 3476 H 315.287 -2.53214 -3.06802 0
M  V30 3477 H 312.026 -5.48373 -3.5912 0
M  V30 3478 H 311.546 -4.0088 -4.46156 0
M  V30 3479 H 313.225 -4.59597 -4.55389 0
M  V30 3480 N 313.357 1.07166 -1.15556 0
M  V30 3481 C 314.634 1.76546 -0.842069 0
M  V30 3482 C 315.014 2.00453 0.661939 0
M  V30 3483 O 314.362 1.62452 1.60691 0
M  V30 3484 C 314.572 3.07266 -1.65495 0
M  V30 3485 C 315.92 3.81578 -1.86234 0
M  V30 3486 O 316.944 3.17083 -1.62287 0
M  V30 3487 O 315.803 4.97419 -2.26355 0
M  V30 3488 H 312.897 0.766756 -0.309862 0
M  V30 3489 H 315.443 1.13514 -1.26145 0
M  V30 3490 H 314.215 2.85494 -2.67598 0
M  V30 3491 H 313.838 3.7803 -1.23203 0
M  V30 3492 N 314.835 0.952656 1.25548 0
M  V30 3493 C 316.06 0.623025 1.97821 0
M  V30 3494 C 316.485 -0.7976 1.70352 0
M  V30 3495 O 315.843 -1.53905 0.958283 0
M  V30 3496 C 315.891 0.885532 3.49558 0
M  V30 3497 O 314.995 -0.0366641 4.12384 0
M  V30 3498 H 314.336 0.237082 0.620232 0
M  V30 3499 H 316.866 1.27871 1.59719 0
M  V30 3500 H 316.876 0.811009 3.99858 0
M  V30 3501 H 315.551 1.92094 3.6888 0
M  V30 3502 H 314.128 0.0898954 3.72792 0
M  V30 3503 N 316.313 -1.40141 0.720998 0
M  V30 3504 C 317.559 -2.01084 0.263231 0
M  V30 3505 C 317.892 -1.57052 -1.14229 0
M  V30 3506 O 317.167 -0.793027 -1.77599 0
M  V30 3507 C 317.45 -3.58401 0.349344 0
M  V30 3508 C 317.303 -4.12491 1.79363 0
M  V30 3509 C 318.622 -4.39231 -0.276351 0
M  V30 3510 H 315.741 -0.730572 0.0971228 0
M  V30 3511 H 318.383 -1.66543 0.914518 0
M  V30 3512 H 316.533 -3.87958 -0.205165 0
M  V30 3513 H 318.205 -3.93711 2.40394 0
M  V30 3514 H 316.448 -3.66576 2.31958 0
M  V30 3515 H 317.119 -5.21646 1.80524 0
M  V30 3516 H 319.595 -4.15637 0.196184 0
M  V30 3517 H 318.471 -5.48586 -0.185681 0
M  V30 3518 H 318.732 -4.20643 -1.36059 0
M  V30 3519 N 317.792 -0.46758 -1.50504 0
M  V30 3520 C 318.724 0.364655 -2.26281 0
M  V30 3521 C 319.737 0.960151 -1.31472 0
M  V30 3522 O 320.926 0.849153 -1.57008 0
M  V30 3523 C 318.026 1.52509 -3.02645 0
M  V30 3524 C 317.199 1.04302 -4.24782 0
M  V30 3525 C 316.258 2.07709 -4.8347 0
M  V30 3526 O 315.284 1.65913 -5.44483 0
M  V30 3527 N 316.486 3.40485 -4.70159 0
M  V30 3528 H 319.251 -0.28495 -2.98342 0
M  V30 3529 H 316.812 -0.298163 -1.59131 0
M  V30 3530 H 318.804 2.21371 -3.38787 0
M  V30 3531 H 317.374 2.07945 -2.33404 0
M  V30 3532 H 316.594 0.180393 -3.93787 0
M  V30 3533 H 317.882 0.698798 -5.03978 0
M  V30 3534 H 317.28 3.77155 -4.21629 0
M  V30 3535 H 315.837 4.05156 -5.1058 0
M  V30 3536 N 319.27 1.56325 -0.20005 0
M  V30 3537 C 320.547 1.89484 0.48529 0
M  V30 3538 C 320.927 1.1143 1.79294 0
M  V30 3539 O 320.275 0.216919 2.27468 0
M  V30 3540 C 320.485 3.41923 0.699243 0
M  V30 3541 C 321.833 4.12256 1.01638 0
M  V30 3542 O 322.857 3.47402 0.786792 0
M  V30 3543 O 321.716 5.26887 1.45095 0
M  V30 3544 H 318.81 0.787144 0.253639 0
M  V30 3545 H 321.356 1.67985 -0.240633 0
M  V30 3546 H 320.128 3.90658 -0.224008 0
M  V30 3547 H 319.751 3.69131 1.47744 0
M  V30 3548 N 320.748 -0.0735177 1.57428 0
M  V30 3549 C 321.978 -0.78483 1.91112 0
M  V30 3550 C 322.386 -1.71729 0.7941 0
M  V30 3551 O 321.729 -1.82105 -0.241542 0
M  V30 3552 C 321.791 -1.63346 3.20247 0
M  V30 3553 C 321.455 -0.870557 4.48632 0
M  V30 3554 C 322.452 -0.19058 5.19551 0
M  V30 3555 C 320.137 -0.838242 4.95256 0
M  V30 3556 C 322.131 0.511503 6.35344 0
M  V30 3557 C 319.818 -0.132386 6.10957 0
M  V30 3558 C 320.816 0.541288 6.80852 0
M  V30 3559 O 320.504 1.23578 7.94345 0
M  V30 3560 H 320.236 -0.228408 0.636244 0
M  V30 3561 H 322.79 -0.0486039 2.05342 0
M  V30 3562 H 321.02 -2.41245 3.02222 0
M  V30 3563 H 322.709 -2.22329 3.39595 0
M  V30 3564 H 323.475 -0.206864 4.84559 0
M  V30 3565 H 319.354 -1.35206 4.40727 0
M  V30 3566 H 322.898 1.03789 6.89836 0
M  V30 3567 H 318.795 -0.114023 6.45399 0
M  V30 3568 H 319.563 1.14487 8.10454 0
M  V30 3569 N 322.226 -1.5378 -0.344866 0
M  V30 3570 C 323.642 -1.44015 -0.687888 0
M  V30 3571 C 323.842 -0.595834 -1.92489 0
M  V30 3572 O 322.898 -0.0863064 -2.52352 0
M  V30 3573 C 324.211 -2.87481 -0.881758 0
M  V30 3574 C 325.759 -2.97247 -0.980459 0
M  V30 3575 C 326.234 -4.41819 -1.20665 0
M  V30 3576 N 327.725 -4.45339 -1.27389 0
M  V30 3577 C 328.46 -5.54333 -1.46639 0
M  V30 3578 N 327.956 -6.73335 -1.63071 0
M  V30 3579 N 329.749 -5.41944 -1.49176 0
M  V30 3580 H 321.9 -2.07169 0.468475 0
M  V30 3581 H 324.163 -0.93643 0.147655 0
M  V30 3582 H 323.869 -3.51672 -0.0443444 0
M  V30 3583 H 323.743 -3.32352 -1.78388 0
M  V30 3584 H 326.13 -2.33197 -1.8084 0
M  V30 3585 H 326.211 -2.5574 -0.0552713 0
M  V30 3586 H 325.855 -5.06449 -0.383652 0
M  V30 3587 H 325.785 -4.80917 -2.14539 0
M  V30 3588 H 328.276 -3.59585 -1.1622 0
M  V30 3589 H 328.589 -7.52165 -1.77391 0
M  V30 3590 H 326.934 -6.76282 -1.60209 0
M  V30 3591 H 330.125 -4.47932 -1.3592 0
M  V30 3592 H 330.298 -6.26946 -1.63837 0
M  V30 3593 N 323.704 0.605807 -1.45491 0
M  V30 3594 C 324.651 1.7164 -1.54299 0
M  V30 3595 C 325.621 1.61486 -0.388761 0
M  V30 3596 O 326.806 1.81039 -0.602445 0
M  V30 3597 C 323.946 3.09953 -1.51734 0
M  V30 3598 C 323.059 3.309 -2.77721 0
M  V30 3599 C 322.194 4.59329 -2.66816 0
M  V30 3600 C 321.233 4.7354 -3.87848 0
M  V30 3601 N 320.37 5.9327 -3.75467 0
M  V30 3602 H 325.21 1.63449 -2.49176 0
M  V30 3603 H 322.747 0.796957 -1.23641 0
M  V30 3604 H 324.705 3.89977 -1.48235 0
M  V30 3605 H 323.335 3.17098 -0.604068 0
M  V30 3606 H 322.387 2.44639 -2.913 0
M  V30 3607 H 323.699 3.37274 -3.67488 0
M  V30 3608 H 322.853 5.4755 -2.61292 0
M  V30 3609 H 321.592 4.55355 -1.74651 0
M  V30 3610 H 320.597 3.83741 -3.93729 0
M  V30 3611 H 321.822 4.79309 -4.81082 0
M  V30 3612 H 319.768 5.90338 -2.86072 0
M  V30 3613 H 319.685 6.00811 -4.5887 0
M  V30 3614 H 320.953 6.83984 -3.73879 0
M  V30 3615 N 325.182 1.32811 0.848464 0
M  V30 3616 C 326.112 1.24882 1.97299 0
M  V30 3617 C 327.093 0.131357 1.69592 0
M  V30 3618 O 328.278 0.319553 1.91553 0
M  V30 3619 C 325.408 0.97746 3.33261 0
M  V30 3620 C 324.362 2.05682 3.75338 0
M  V30 3621 C 323.688 1.63777 5.09 0
M  V30 3622 C 324.988 3.47254 3.90144 0
M  V30 3623 H 326.682 2.18966 2.04191 0
M  V30 3624 H 324.228 1.05413 0.981029 0
M  V30 3625 H 326.181 0.908513 4.1149 0
M  V30 3626 H 324.905 0.000980011 3.266 0
M  V30 3627 H 323.564 2.11603 2.99366 0
M  V30 3628 H 323.212 0.648569 4.98801 0
M  V30 3629 H 322.912 2.36 5.38124 0
M  V30 3630 H 324.436 1.5833 5.89715 0
M  V30 3631 H 325.85 3.43888 4.58709 0
M  V30 3632 H 324.247 4.1788 4.30693 0
M  V30 3633 H 325.317 3.86462 2.92874 0
M  V30 3634 N 326.66 -1.06551 1.16123 0
M  V30 3635 C 327.57 -2.17484 0.879662 0
M  V30 3636 C 328.586 -1.73377 -0.147104 0
M  V30 3637 O 329.762 -2.01379 0.0289128 0
M  V30 3638 C 326.827 -3.44591 0.381829 0
M  V30 3639 C 325.888 -4.0322 1.4735 0
M  V30 3640 C 325.121 -5.24261 0.999324 0
M  V30 3641 O 325.344 -5.70198 -0.151957 0
M  V30 3642 O 324.278 -5.74775 1.78653 0
M  V30 3643 H 328.104 -2.44075 1.80724 0
M  V30 3644 H 325.689 -1.16042 0.940992 0
M  V30 3645 H 327.571 -4.21254 0.111053 0
M  V30 3646 H 326.246 -3.19532 -0.51777 0
M  V30 3647 H 325.153 -3.2806 1.79798 0
M  V30 3648 H 326.486 -4.32568 2.34831 0
M  V30 3649 N 328.138 -0.959301 -1.25041 0
M  V30 3650 C 329.048 -0.489994 -2.29426 0
M  V30 3651 C 330.064 0.444944 -1.68215 0
M  V30 3652 O 331.24 0.320046 -1.98841 0
M  V30 3653 C 328.305 0.220309 -3.45999 0
M  V30 3654 C 327.366 -0.753418 -4.22637 0
M  V30 3655 C 326.599 -0.076918 -5.33645 0
M  V30 3656 O 326.822 1.13649 -5.58963 0
M  V30 3657 O 325.756 -0.764824 -5.97021 0
M  V30 3658 H 329.582 -1.35755 -2.71669 0
M  V30 3659 H 327.167 -0.725961 -1.30576 0
M  V30 3660 H 329.049 0.619677 -4.16819 0
M  V30 3661 H 327.724 1.06296 -3.0575 0
M  V30 3662 H 326.631 -1.20308 -3.54227 0
M  V30 3663 H 327.964 -1.56423 -4.66683 0
M  V30 3664 N 329.616 1.39756 -0.72842 0
M  V30 3665 C 330.865 1.99879 -0.270407 0
M  V30 3666 C 331.178 1.58449 1.14688 0
M  V30 3667 O 332.384 2.11362 1.70407 0
M  V30 3668 C 330.84 3.57292 -0.43252 0
M  V30 3669 C 330.448 4.07688 -1.85727 0
M  V30 3670 C 332.192 4.24485 -0.0359507 0
M  V30 3671 C 330.099 5.5765 -1.96928 0
M  V30 3672 H 329.029 0.747689 -0.0973472 0
M  V30 3673 H 331.68 1.59837 -0.901355 0
M  V30 3674 H 330.062 3.95097 0.267219 0
M  V30 3675 H 331.236 3.81231 -2.58843 0
M  V30 3676 H 329.551 3.53135 -2.20646 0
M  V30 3677 H 332.148 5.34609 -0.0987484 0
M  V30 3678 H 332.491 4.03915 1.00787 0
M  V30 3679 H 333.024 3.9183 -0.686604 0
M  V30 3680 H 329.763 5.8309 -2.99476 0
M  V30 3681 H 329.283 5.8593 -1.28241 0
M  V30 3682 H 330.962 6.22957 -1.74737 0
M  V30 3683 N 331.094 0.475555 1.50254 0
M  V30 3684 C 332.024 -0.30611 2.31485 0
M  V30 3685 C 333.005 -0.986228 1.38591 0
M  V30 3686 O 334.19 -0.982541 1.67511 0
M  V30 3687 C 331.32 -1.38588 3.1845 0
M  V30 3688 C 330.274 -0.827115 4.19932 0
M  V30 3689 C 329.6 -2.00551 4.95665 0
M  V30 3690 C 330.9 0.16463 5.2204 0
M  V30 3691 H 332.594 0.371866 2.97082 0
M  V30 3692 H 330.14 0.180282 1.42867 0
M  V30 3693 H 332.093 -1.94023 3.74076 0
M  V30 3694 H 330.817 -2.09269 2.50747 0
M  V30 3695 H 329.476 -0.294702 3.65414 0
M  V30 3696 H 329.124 -2.6994 4.2443 0
M  V30 3697 H 328.824 -1.63784 5.64313 0
M  V30 3698 H 330.348 -2.56468 5.54127 0
M  V30 3699 H 331.762 -0.300699 5.72511 0
M  V30 3700 H 330.159 0.446813 5.98434 0
M  V30 3701 H 331.229 1.08905 4.72512 0
M  V30 3702 N 332.573 -1.56217 0.208337 0
M  V30 3703 C 333.52 -2.19699 -0.707192 0
M  V30 3704 C 334.49 -1.14836 -1.20008 0
M  V30 3705 O 335.675 -1.4314 -1.26157 0
M  V30 3706 C 332.815 -2.87061 -1.91546 0
M  V30 3707 C 331.928 -4.06483 -1.46271 0
M  V30 3708 C 331.063 -4.61665 -2.62752 0
M  V30 3709 C 330.102 -5.73417 -2.14147 0
M  V30 3710 N 329.239 -6.22948 -3.23853 0
M  V30 3711 H 334.079 -2.97575 -0.159111 0
M  V30 3712 H 331.616 -1.46948 -0.0667874 0
M  V30 3713 H 333.574 -3.24294 -2.62468 0
M  V30 3714 H 332.204 -2.11725 -2.43664 0
M  V30 3715 H 331.256 -3.74825 -0.648886 0
M  V30 3716 H 332.568 -4.87271 -1.06622 0
M  V30 3717 H 331.722 -5.01272 -3.41776 0
M  V30 3718 H 330.461 -3.80013 -3.05682 0
M  V30 3719 H 329.466 -5.33326 -1.33581 0
M  V30 3720 H 330.691 -6.56897 -1.72232 0
M  V30 3721 H 328.637 -5.44213 -3.6629 0
M  V30 3722 H 328.554 -6.98823 -2.88414 0
M  V30 3723 H 329.822 -6.6721 -4.03052 0
M  V30 3724 N 334.051 0.0651679 -1.57465 0
M  V30 3725 C 334.999 1.09542 -2.05191 0
M  V30 3726 C 335.993 1.39675 -0.958509 0
M  V30 3727 O 337.199 1.39003 -1.14359 0
M  V30 3728 H 333.574 0.370623 -0.654326 0
M  V30 3729 H 335.545 0.666802 -2.90854 0
M  V30 3730 C 334.294 2.39881 -2.51699 0
M  V30 3731 H 333.617 2.17547 -3.3543 0
M  V30 3732 H 335.057 3.104 -2.88839 0
M  V30 3733 C 333.516 3.0631 -1.40271 0
M  V30 3734 O 334.046 3.94664 -0.748523 0
M  V30 3735 N 332.252 2.67041 -1.14618 0
M  V30 3736 H 331.799 1.95281 -1.67997 0
M  V30 3737 H 331.757 3.1181 -0.402688 0
M  V30 3738 N 335.529 1.53961 0.336706 0
M  V30 3739 C 336.439 1.85432 1.43708 0
M  V30 3740 C 337.455 0.745053 1.57242 0
M  V30 3741 O 338.631 1.03804 1.72588 0
M  V30 3742 C 335.696 2.06349 2.78605 0
M  V30 3743 C 334.757 3.30191 2.74358 0
M  V30 3744 C 333.99 3.50101 4.02822 0
M  V30 3745 O 334.213 2.7371 5.00439 0
M  V30 3746 O 333.147 4.43547 4.06878 0
M  V30 3747 H 336.973 2.78975 1.20028 0
M  V30 3748 H 334.558 1.39701 0.52952 0
M  V30 3749 H 336.44 2.21513 3.58483 0
M  V30 3750 H 335.115 1.15995 3.02203 0
M  V30 3751 H 334.022 3.20425 1.93078 0
M  V30 3752 H 335.355 4.2056 2.55715 0
M  V30 3753 N 337.007 -0.598083 1.45811 0
M  V30 3754 C 337.955 -1.72932 1.55555 0
M  V30 3755 C 338.949 -1.63984 0.424921 0
M  V30 3756 O 340.155 -1.69663 0.601205 0
M  V30 3757 H 336.53 -0.571489 0.488779 0
M  V30 3758 H 338.501 -1.61842 2.50699 0
M  V30 3759 C 337.25 -3.11318 1.54843 0
M  V30 3760 H 336.573 -3.18867 2.41172 0
M  V30 3761 H 338.013 -3.90274 1.65717 0
M  V30 3762 C 336.472 -3.3578 0.274427 0
M  V30 3763 O 337.002 -3.9654 -0.641778 0
M  V30 3764 N 335.208 -2.90119 0.167139 0
M  V30 3765 H 334.755 -2.40855 0.913596 0
M  V30 3766 H 334.713 -3.0686 -0.684435 0
M  V30 3767 O 338.524 -1.43439 -0.742122 0
M  V30 3768 H 339.215 -1.3475 -1.39148 0
M  V30 END ATOM
M  V30 BEGIN BOND
M  V30 END BOND
M  V30 END CTAB
M  END
$$$$
