drugbank_target|A0A045KKX4 Cytochrome D ubiquinol oxidase subunit I (DB05154)
 OpenBabel12092121203D

  0  0  0     0  0            999 V3000
M  V30 BEGIN CTAB
M  V30 COUNTS 7584 7700 0 0 0
M  V30 BEGIN ATOM
M  V30 1 H -0.908 1.98254 -0.117106 0
M  V30 2 N 0 1.576 0 0
M  V30 3 C 0.933 2.03868 1.02534 0
M  V30 4 C 1.911 0.928543 1.3348 0
M  V30 5 O 3.095 1.19667 1.45644 0
M  V30 6 C 0.222 2.43627 2.35294 0
M  V30 7 C -0.732 3.65373 2.2001 0
M  V30 8 S 0.101 5.13292 1.52614 0
M  V30 9 C 1.257 5.56322 2.86805 0
M  V30 10 H 1.49 2.90518 0.631377 0
M  V30 11 H -0.977 1.52953 0.210867 0
M  V30 12 H 0.981 2.67203 3.11629 0
M  V30 13 H -0.358 1.57376 2.7183 0
M  V30 14 H -1.165 3.90944 3.18086 0
M  V30 15 H -1.563 3.418 1.51819 0
M  V30 16 H 0.729 5.58782 3.83104 0
M  V30 17 H 1.672 6.56266 2.65933 0
M  V30 18 H 2.08 4.83886 2.90714 0
M  V30 19 N 1.4781 -0.272755 1.55222 0
M  V30 20 C 2.4261 -1.35705 1.88909 0
M  V30 21 C 3.4201 -1.5112 0.765456 0
M  V30 22 O 4.6261 -1.52901 0.949802 0
M  V30 23 H 1.0011 -0.453868 0.59959 0
M  V30 24 H 2.9721 -1.04544 2.79487 0
M  V30 25 C 1.7211 -2.71049 2.17779 0
M  V30 26 H 1.0441 -2.59979 3.03728 0
M  V30 27 H 2.4841 -3.45858 2.45272 0
M  V30 28 C 0.9431 -3.22165 0.985473 0
M  V30 29 O 1.4731 -4.01096 0.220233 0
M  V30 30 N -0.3209 -2.7985 0.783108 0
M  V30 31 H -0.7739 -2.15775 1.40708 0
M  V30 32 H -0.8159 -3.14397 -0.0130392 0
M  V30 33 N 2.9562 -1.48159 -0.537278 0
M  V30 34 C 4.2022 -1.56035 -1.29541 0
M  V30 35 C 4.5352 -0.230377 -1.92829 0
M  V30 36 O 3.8102 0.762952 -1.78911 0
M  V30 37 C 4.0932 -2.69323 -2.39034 0
M  V30 38 C 3.9462 -4.12002 -1.80485 0
M  V30 39 C 5.2652 -2.78408 -3.40847 0
M  V30 40 H 2.3842 -0.567992 -0.469632 0
M  V30 41 H 5.0262 -1.80302 -0.599277 0
M  V30 42 H 3.1762 -2.48763 -2.98412 0
M  V30 43 H 4.8482 -4.43981 -1.25215 0
M  V30 44 H 3.0912 -4.19344 -1.11055 0
M  V30 45 H 3.7622 -4.87077 -2.59731 0
M  V30 46 H 6.2382 -2.97012 -2.91416 0
M  V30 47 H 5.1142 -3.59416 -4.14863 0
M  V30 48 H 5.3752 -1.86269 -4.00944 0
M  V30 49 N 4.4343 0.785586 -1.36625 0
M  V30 50 C 5.6803 1.54591 -1.31261 0
M  V30 51 C 6.0133 1.93906 0.106823 0
M  V30 52 O 5.2883 1.63007 1.06108 0
M  V30 53 C 5.5713 2.82038 -2.23889 0
M  V30 54 C 5.4243 2.49066 -3.74548 0
M  V30 55 C 6.7433 3.83887 -2.15217 0
M  V30 56 H 3.8623 0.560846 -0.478143 0
M  V30 57 H 6.5043 0.902278 -1.67209 0
M  V30 58 H 4.6543 3.36961 -1.93363 0
M  V30 59 H 6.3263 2.00164 -4.15611 0
M  V30 60 H 4.5693 1.81954 -3.93796 0
M  V30 61 H 5.2403 3.40109 -4.34776 0
M  V30 62 H 7.7163 3.38421 -2.42096 0
M  V30 63 H 6.5923 4.70806 -2.82193 0
M  V30 64 H 6.8533 4.27131 -1.14068 0
M  V30 65 N 5.9124 1.20967 1.01018 0
M  V30 66 C 7.1894 0.93264 1.71934 0
M  V30 67 C 7.5694 -0.55692 2.03621 0
M  V30 68 O 6.9174 -1.52035 1.7058 0
M  V30 69 C 7.1274 1.81233 2.98254 0
M  V30 70 C 8.4754 2.05804 3.71389 0
M  V30 71 O 9.4994 1.78539 3.08225 0
M  V30 72 O 8.3584 2.51888 4.84989 0
M  V30 73 H 5.4524 0.349272 0.749625 0
M  V30 74 H 7.9984 1.31871 1.06808 0
M  V30 75 H 6.7704 2.82067 2.71208 0
M  V30 76 H 6.3934 1.42674 3.7112 0
M  V30 77 N 7.3905 -1.2043 1.01659 0
M  V30 78 C 8.6395 -1.89118 0.701237 0
M  V30 79 C 8.9525 -1.79705 -0.772358 0
M  V30 80 O 10.1585 -2.43528 -1.20026 0
M  V30 81 C 8.6145 -3.39168 1.20388 0
M  V30 82 C 8.2225 -3.57166 2.70438 0
M  V30 83 C 9.9665 -4.1341 0.963953 0
M  V30 84 C 7.8735 -5.01042 3.14183 0
M  V30 85 H 6.8035 -0.708267 0.2586 0
M  V30 86 H 9.4545 -1.36239 1.22927 0
M  V30 87 H 7.8365 -3.91369 0.603824 0
M  V30 88 H 9.0105 -3.15351 3.35992 0
M  V30 89 H 7.3255 -2.96294 2.92572 0
M  V30 90 H 9.9225 -5.19491 1.26621 0
M  V30 91 H 10.2655 -4.16181 -0.099578 0
M  V30 92 H 10.7985 -3.67309 1.52738 0
M  V30 93 H 7.5375 -5.03426 4.19812 0
M  V30 94 H 7.0575 -5.43668 2.53348 0
M  V30 95 H 8.7365 -5.69623 3.0682 0
M  V30 96 N 8.8686 -0.792821 -1.36206 0
M  V30 97 C 10.0936 -0.377701 -2.03932 0
M  V30 98 C 10.5186 0.998947 -1.59382 0
M  V30 99 O 9.8766 1.64421 -0.763903 0
M  V30 100 C 9.9246 -0.453635 -3.57735 0
M  V30 101 O 9.0286 0.538151 -4.08874 0
M  V30 102 H 8.3696 -0.159855 -0.644471 0
M  V30 103 H 10.8996 -1.07488 -1.7409 0
M  V30 104 H 10.9096 -0.318464 -4.06755 0
M  V30 105 H 9.5846 -1.45784 -3.89512 0
M  V30 106 H 8.1616 0.364359 -3.71116 0
M  V30 107 N 10.3467 1.47872 -0.545128 0
M  V30 108 C 11.7627 1.5829 -0.204032 0
M  V30 109 C 11.9627 1.54529 1.29317 0
M  V30 110 O 11.0187 1.44232 2.07252 0
M  V30 111 C 12.3317 2.89304 -0.819987 0
M  V30 112 C 13.8797 3.02864 -0.790105 0
M  V30 113 C 14.3547 4.3656 -1.38491 0
M  V30 114 N 15.8457 4.43165 -1.34755 0
M  V30 115 C 16.5807 5.45153 -1.77753 0
M  V30 116 N 16.0767 6.54016 -2.2855 0
M  V30 117 N 17.8697 5.36125 -1.68897 0
M  V30 118 H 10.0207 1.4856 -1.51802 0
M  V30 119 H 12.2837 0.706305 -0.632327 0
M  V30 120 H 11.9897 2.97757 -1.87173 0
M  V30 121 H 11.8637 3.75957 -0.305915 0
M  V30 122 H 14.2507 2.94014 0.252913 0
M  V30 123 H 14.3317 2.17782 -1.34181 0
M  V30 124 H 13.9757 4.46164 -2.42693 0
M  V30 125 H 13.9057 5.20353 -0.808754 0
M  V30 126 H 16.3967 3.65083 -0.975855 0
M  V30 127 H 16.7097 7.27994 -2.59314 0
M  V30 128 H 15.0547 6.54938 -2.32553 0
M  V30 129 H 18.2457 4.49975 -1.28998 0
M  V30 130 H 18.4187 6.15472 -2.02726 0
M  V30 131 N 11.8248 0.280983 1.55075 0
M  V30 132 C 13.0708 -0.327573 2.00745 0
M  V30 133 C 13.4258 -1.53045 1.16598 0
M  V30 134 O 12.7188 -1.90221 0.229451 0
M  V30 135 C 12.9128 -0.754656 3.49342 0
M  V30 136 C 12.7418 0.40529 4.4787 0
M  V30 137 C 11.5118 0.890947 4.97383 0
M  V30 138 C 13.7098 1.24371 4.99035 0
M  V30 139 N 11.6918 2.01975 5.79724 0
M  V30 140 C 13.0628 2.22031 5.7888 0
M  V30 141 C 15.1178 1.27638 4.81262 0
M  V30 142 C 13.8208 3.22709 6.42846 0
M  V30 143 C 15.8468 2.27164 5.46031 0
M  V30 144 C 15.2088 3.23556 6.25692 0
M  V30 145 H 11.3078 -0.0848774 0.77738 0
M  V30 146 H 13.8918 0.406342 1.90413 0
M  V30 147 H 12.0628 -1.45778 3.60005 0
M  V30 148 H 13.7948 -1.34105 3.81835 0
M  V30 149 H 10.5498 0.469262 4.71269 0
M  V30 150 H 10.9738 2.58794 6.25584 0
M  V30 151 H 15.6158 0.544936 4.19274 0
M  V30 152 H 13.3338 3.96784 7.0398 0
M  V30 153 H 16.9198 2.30441 5.34217 0
M  V30 154 H 15.7998 3.99309 6.74924 0
M  V30 155 N 13.3029 -1.57598 0.00835791 0
M  V30 156 C 14.2349 -2.05811 -1.00868 0
M  V30 157 C 15.2479 -0.977579 -1.30182 0
M  V30 158 O 16.4369 -1.25421 -1.27011 0
M  V30 159 C 13.5369 -2.45016 -2.34137 0
M  V30 160 C 12.7099 -3.75903 -2.23643 0
M  V30 161 C 11.7689 -4.01884 -3.3967 0
M  V30 162 O 10.7949 -4.72433 -3.17483 0
M  V30 163 N 11.9969 -3.50432 -4.62793 0
M  V30 164 H 14.7619 -2.93684 -0.597458 0
M  V30 165 H 12.3229 -1.60909 -0.178852 0
M  V30 166 H 14.3149 -2.59506 -3.10546 0
M  V30 167 H 12.8849 -1.62618 -2.66972 0
M  V30 168 H 12.1049 -3.7141 -1.32091 0
M  V30 169 H 13.3929 -4.61695 -2.13812 0
M  V30 170 H 12.7909 -2.93317 -4.83716 0
M  V30 171 H 11.3479 -3.70236 -5.3644 0
M  V30 172 N 14.781 0.264519 -1.55364 0
M  V30 173 C 16.028 0.994986 -1.7637 0
M  V30 174 C 16.356 1.85976 -0.5695 0
M  V30 175 O 15.611 1.90509 0.44776 0
M  V30 176 C 15.91 1.9004 -3.02687 0
M  V30 177 C 15.576 1.19243 -4.34847 0
M  V30 178 C 14.238 0.996709 -4.70764 0
M  V30 179 C 16.59 0.689296 -5.16622 0
M  V30 180 C 13.918 0.285261 -5.86006 0
M  V30 181 C 16.27 -0.00860079 -6.32599 0
M  V30 182 C 14.934 -0.215963 -6.67151 0
M  V30 183 H 14.204 0.364091 -0.645383 0
M  V30 184 H 16.851 0.266543 -1.89636 0
M  V30 185 H 15.156 2.69533 -2.84357 0
M  V30 186 H 16.853 2.46695 -3.16137 0
M  V30 187 H 13.443 1.3549 -4.06621 0
M  V30 188 H 17.627 0.828108 -4.89342 0
M  V30 189 H 12.883 0.113961 -6.11294 0
M  V30 190 H 17.057 -0.406186 -6.95214 0
M  V30 191 H 14.684 -0.769217 -7.56298 0
M  V30 192 N 16.2591 1.48442 0.529413 0
M  V30 193 C 17.5071 1.56179 1.28267 0
M  V30 194 C 17.8281 0.237721 1.93546 0
M  V30 195 O 17.0981 -0.740779 1.81354 0
M  V30 196 H 15.6781 0.575367 0.476405 0
M  V30 197 H 18.3401 1.84909 0.61602 0
M  V30 198 H 17.4361 2.34312 2.06165 0
M  V30 199 N 17.7372 -0.778329 1.37039 0
M  V30 200 C 18.9862 -1.53189 1.3121 0
M  V30 201 C 19.2992 -1.95328 -0.103095 0
M  V30 202 O 20.5052 -2.70012 -0.283826 0
M  V30 203 C 18.9612 -2.76591 2.30272 0
M  V30 204 C 18.5692 -2.41577 3.77286 0
M  V30 205 C 20.3132 -3.5455 2.33441 0
M  V30 206 C 18.2202 -3.61441 4.68096 0
M  V30 207 H 17.1502 -0.5751 0.487622 0
M  V30 208 H 19.8012 -0.853101 1.62464 0
M  V30 209 H 18.1832 -3.46326 1.92027 0
M  V30 210 H 19.3572 -1.79668 4.2433 0
M  V30 211 H 17.6722 -1.76806 3.76999 0
M  V30 212 H 20.2692 -4.43628 2.98493 0
M  V30 213 H 20.6122 -3.93936 1.34611 0
M  V30 214 H 21.1452 -2.91805 2.7036 0
M  V30 215 H 17.8842 -3.27142 5.6803 0
M  V30 216 H 17.4042 -4.22478 4.25761 0
M  V30 217 H 19.0832 -4.28335 4.8491 0
M  V30 218 N 19.2153 -1.21501 -1.00376 0
M  V30 219 C 20.4433 -1.059 -1.77744 0
M  V30 220 C 20.8583 0.391125 -1.84704 0
M  V30 221 O 20.2153 1.27133 -1.30933 0
M  V30 222 C 20.2663 -1.65111 -3.21591 0
M  V30 223 O 19.9873 -3.0445 -3.15027 0
M  V30 224 C 21.4883 -1.54637 -4.15454 0
M  V30 225 H 18.7083 -0.371825 -0.558558 0
M  V30 226 H 21.2523 -1.60865 -1.26264 0
M  V30 227 H 19.4073 -1.14235 -3.70175 0
M  V30 228 H 19.8213 -3.3278 -4.0541 0
M  V30 229 H 21.2953 -2.00808 -5.14179 0
M  V30 230 H 21.7723 -0.501022 -4.36333 0
M  V30 231 H 22.3783 -2.04767 -3.72761 0
M  V30 232 N 20.6934 1.19889 -1.02296 0
M  V30 233 C 21.9214 1.9339 -0.735399 0
M  V30 234 C 22.3364 1.75148 0.704887 0
M  V30 235 O 21.6934 1.06954 1.47875 0
M  V30 236 C 21.7444 3.45313 -1.06962 0
M  V30 237 O 21.4654 3.62964 -2.45334 0
M  V30 238 C 22.9664 4.35948 -0.804021 0
M  V30 239 H 20.1864 0.61448 -0.269546 0
M  V30 240 H 22.7304 1.522 -1.36585 0
M  V30 241 H 20.8854 3.84359 -0.484455 0
M  V30 242 H 21.2994 4.56886 -2.57595 0
M  V30 243 H 22.7734 5.41174 -1.0879 0
M  V30 244 H 23.2504 4.3842 0.261691 0
M  V30 245 H 23.8564 4.02574 -1.37164 0
M  V30 246 N 22.1715 0.800033 1.35784 0
M  V30 247 C 23.4175 0.377901 1.99248 0
M  V30 248 C 23.7505 -1.05052 1.63333 0
M  V30 249 O 23.0255 -1.72768 0.893385 0
M  V30 250 C 23.3085 0.553922 3.55814 0
M  V30 251 C 23.1615 2.0268 4.01548 0
M  V30 252 C 24.4805 -0.0244802 4.40093 0
M  V30 253 H 21.5995 0.138782 0.723815 0
M  V30 254 H 24.2415 1.00835 1.61035 0
M  V30 255 H 22.3915 0.0172398 3.88496 0
M  V30 256 H 24.0635 2.62536 3.79305 0
M  V30 257 H 22.3065 2.5256 3.52698 0
M  V30 258 H 22.9775 2.10087 5.10458 0
M  V30 259 H 25.4535 0.433775 4.13833 0
M  V30 260 H 24.3295 0.128637 5.48749 0
M  V30 261 H 24.5905 -1.11758 4.27741 0
M  V30 262 N 23.6496 -1.47581 0.552962 0
M  V30 263 C 24.8796 -2.06575 0.0320091 0
M  V30 264 C 25.2876 -1.4067 -1.26525 0
M  V30 265 O 24.6306 -0.495808 -1.76883 0
M  V30 266 C 24.6926 -3.58705 -0.238913 0
M  V30 267 C 24.3566 -4.46625 0.968272 0
M  V30 268 C 25.3536 -4.85 1.87274 0
M  V30 269 C 23.0386 -4.88201 1.18175 0
M  V30 270 C 25.0326 -5.63745 2.9744 0
M  V30 271 C 22.7196 -5.66712 2.28651 0
M  V30 272 C 23.7176 -6.04394 3.18114 0
M  V30 273 O 23.4056 -6.81324 4.26676 0
M  V30 274 H 23.1376 -0.674763 0.0408689 0
M  V30 275 H 25.6916 -1.90634 0.764719 0
M  V30 276 H 23.9216 -3.72844 -1.02588 0
M  V30 277 H 25.6106 -3.99735 -0.704731 0
M  V30 278 H 26.3766 -4.53482 1.71984 0
M  V30 279 H 22.2556 -4.58339 0.494593 0
M  V30 280 H 25.7996 -5.93077 3.67296 0
M  V30 281 H 21.6966 -5.97642 2.43915 0
M  V30 282 H 22.4646 -6.99712 4.24671 0
M  V30 283 N 25.1277 -0.289203 -1.54924 0
M  V30 284 C 26.0777 0.606939 -2.19773 0
M  V30 285 C 27.0617 1.10783 -1.16687 0
M  V30 286 O 28.2537 1.05057 -1.4245 0
M  V30 287 C 25.3827 1.78398 -2.93307 0
M  V30 288 C 24.4687 1.29961 -4.03697 0
M  V30 289 N 24.8597 0.532377 -5.0299 0
M  V30 290 C 23.1577 1.58136 -4.17024 0
M  V30 291 C 23.8587 0.275912 -5.81045 0
M  V30 292 N 22.8347 0.852365 -5.36876 0
M  V30 293 H 26.6367 0.0130779 -2.93897 0
M  V30 294 H 24.1507 -0.09341 -1.62131 0
M  V30 295 H 26.1477 2.43741 -3.38225 0
M  V30 296 H 24.8077 2.38166 -2.20697 0
M  V30 297 H 25.8187 0.17838 -5.17593 0
M  V30 298 H 22.4957 2.18738 -3.55612 0
M  V30 299 H 23.8857 -0.339502 -6.71042 0
M  V30 300 N 26.6058 1.57591 -0.0167156 0
M  V30 301 C 27.8528 1.91283 0.664597 0
M  V30 302 C 28.1808 0.891949 1.72842 0
M  V30 303 O 27.4358 -0.100931 1.9544 0
M  V30 304 C 27.7348 3.3172 1.33029 0
M  V30 305 C 27.4008 4.4914 0.398047 0
M  V30 306 C 26.0628 4.80992 0.141421 0
M  V30 307 C 28.4148 5.20634 -0.242825 0
M  V30 308 C 25.7428 5.81703 -0.764092 0
M  V30 309 C 28.0948 6.22311 -1.13632 0
M  V30 310 C 26.7588 6.52611 -1.40196 0
M  V30 311 H 26.0288 0.699956 0.243193 0
M  V30 312 H 28.6758 1.9135 -0.0758267 0
M  V30 313 H 26.9808 3.27856 2.14517 0
M  V30 314 H 28.6778 3.55055 1.86379 0
M  V30 315 H 25.2678 4.24262 0.608238 0
M  V30 316 H 29.4518 4.96267 -0.0576019 0
M  V30 317 H 24.7078 6.03532 -0.977732 0
M  V30 318 H 28.8818 6.76834 -1.63917 0
M  V30 319 H 26.5088 7.30467 -2.10529 0
M  V30 320 N 28.0839 -0.256276 1.55502 0
M  V30 321 C 29.3329 -0.983486 1.76098 0
M  V30 322 C 29.6459 -1.86837 0.578896 0
M  V30 323 O 30.8519 -2.63163 0.667648 0
M  V30 324 C 29.3079 -1.79868 3.1173 0
M  V30 325 C 28.9159 -0.961648 4.37557 0
M  V30 326 C 30.6599 -2.51919 3.41668 0
M  V30 327 C 28.5669 -1.77219 5.64223 0
M  V30 328 H 27.4969 -0.370936 0.656447 0
M  V30 329 H 30.1479 -0.238492 1.81944 0
M  V30 330 H 28.5299 -2.58527 2.99966 0
M  V30 331 H 29.7039 -0.218048 4.60284 0
M  V30 332 H 28.0189 -0.354913 4.14885 0
M  V30 333 H 30.6159 -3.12998 4.33516 0
M  V30 334 H 30.9589 -3.23059 2.62562 0
M  V30 335 H 31.4919 -1.80278 3.54605 0
M  V30 336 H 28.2309 -1.10471 6.46124 0
M  V30 337 H 27.7509 -2.49132 5.45613 0
M  V30 338 H 29.4299 -2.34169 6.03137 0
M  V30 339 N 29.562 -1.4872 -0.521534 0
M  V30 340 C 30.809 -1.57168 -1.27689 0
M  V30 341 C 31.137 -0.249275 -1.92896 0
M  V30 342 O 30.392 0.761162 -1.80291 0
M  V30 343 C 30.691 -2.66497 -2.38148 0
M  V30 344 C 30.357 -4.08664 -1.90538 0
M  V30 345 C 29.019 -4.47357 -1.77271 0
M  V30 346 C 31.371 -4.97724 -1.54663 0
M  V30 347 C 28.699 -5.72905 -1.26478 0
M  V30 348 C 31.051 -6.2377 -1.05329 0
M  V30 349 C 29.715 -6.61311 -0.906861 0
M  V30 350 H 28.985 -0.575117 -0.467249 0
M  V30 351 H 31.632 -1.82472 -0.581051 0
M  V30 352 H 29.937 -2.35085 -3.13437 0
M  V30 353 H 31.634 -2.70246 -2.96257 0
M  V30 354 H 28.224 -3.78111 -2.01816 0
M  V30 355 H 32.408 -4.68501 -1.63768 0
M  V30 356 H 27.664 -6.00709 -1.13835 0
M  V30 357 H 31.838 -6.9217 -0.76644 0
M  V30 358 H 29.465 -7.5848 -0.511083 0
M  V30 359 N 31.0401 0.771051 -1.3745 0
M  V30 360 C 32.2861 1.5319 -1.32894 0
M  V30 361 C 32.6191 1.94008 0.0862511 0
M  V30 362 O 31.8941 1.64124 1.04373 0
M  V30 363 C 32.1771 2.79648 -2.26868 0
M  V30 364 C 32.0301 2.45079 -3.77169 0
M  V30 365 C 33.3491 3.81583 -2.19277 0
M  V30 366 H 30.4681 0.555744 -0.484064 0
M  V30 367 H 33.1101 0.884492 -1.68157 0
M  V30 368 H 31.2601 3.34891 -1.96926 0
M  V30 369 H 32.9321 1.95745 -4.1771 0
M  V30 370 H 31.1751 1.77767 -3.95704 0
M  V30 371 H 31.8461 3.35478 -4.38359 0
M  V30 372 H 34.3221 3.35835 -2.45671 0
M  V30 373 H 33.1981 4.67787 -2.87171 0
M  V30 374 H 33.4591 4.25897 -1.18592 0
M  V30 375 N 32.5182 1.22032 0.997298 0
M  V30 376 C 33.9292 1.0397 1.55071 0
M  V30 377 C 34.2802 -0.398192 1.92117 0
M  V30 378 O 33.4052 -1.28254 1.74298 0
M  V30 379 C 34.0002 1.88109 2.81781 0
M  V30 380 C 32.5592 1.74357 3.33581 0
M  V30 381 C 31.7062 1.84846 2.06706 0
M  V30 382 H 34.6572 1.35941 0.818883 0
M  V30 383 H 34.6782 1.39589 3.53971 0
M  V30 384 H 34.1902 2.92754 2.54787 0
M  V30 385 H 32.2912 0.72427 3.65493 0
M  V30 386 H 32.4042 2.56772 4.04481 0
M  V30 387 H 30.7682 1.28238 2.20062 0
M  V30 388 H 31.5512 2.91014 1.82114 0
M  V30 389 N 33.9963 -1.19345 1.0293 0
M  V30 390 C 34.9263 -2.2481 0.631105 0
M  V30 391 C 35.9073 -1.66245 -0.360104 0
M  V30 392 O 37.0923 -1.92677 -0.242726 0
M  V30 393 C 34.2223 -3.47295 -0.0184607 0
M  V30 394 C 33.1763 -4.18536 0.895073 0
M  V30 395 C 32.5023 -5.34586 0.110592 0
M  V30 396 C 33.8023 -4.73287 2.209 0
M  V30 397 H 35.4963 -2.58372 1.51275 0
M  V30 398 H 33.0423 -1.24194 0.728818 0
M  V30 399 H 34.9953 -4.20268 -0.308675 0
M  V30 400 H 33.7193 -3.12933 -0.934907 0
M  V30 401 H 32.3783 -3.47446 1.16949 0
M  V30 402 H 32.0263 -4.96469 -0.807902 0
M  V30 403 H 31.7263 -5.83183 0.719087 0
M  V30 404 H 33.2503 -6.10355 -0.172871 0
M  V30 405 H 34.6643 -5.38013 1.98028 0
M  V30 406 H 33.0613 -5.32373 2.76946 0
M  V30 407 H 34.1313 -3.91331 2.86336 0
M  V30 408 N 35.4744 -0.807222 -1.35358 0
M  V30 409 C 36.7024 -0.400377 -2.02989 0
M  V30 410 C 37.1174 0.988859 -1.60832 0
M  V30 411 O 36.4744 1.63729 -0.806175 0
M  V30 412 C 36.5254 -0.474867 -3.58368 0
M  V30 413 O 36.2464 -1.80933 -3.98992 0
M  V30 414 C 37.7474 -0.0609112 -4.43258 0
M  V30 415 H 34.9674 -0.162587 -0.651004 0
M  V30 416 H 37.5114 -1.09102 -1.72965 0
M  V30 417 H 35.6664 0.167534 -3.87038 0
M  V30 418 H 36.0804 -1.77256 -4.9364 0
M  V30 419 H 37.5544 -0.164145 -5.51756 0
M  V30 420 H 38.0314 0.993831 -4.27808 0
M  V30 421 H 38.6374 -0.676492 -4.19885 0
M  V30 422 N 36.9525 1.47285 -0.560781 0
M  V30 423 C 38.2015 2.01668 -0.035895 0
M  V30 424 C 38.5145 1.44021 1.32353 0
M  V30 425 O 39.7205 1.90088 1.93853 0
M  V30 426 C 38.1765 3.59897 -0.0136659 0
M  V30 427 C 37.7845 4.26536 -1.37006 0
M  V30 428 C 39.5285 4.22017 0.458425 0
M  V30 429 C 37.4355 5.76782 -1.30675 0
M  V30 430 H 36.3655 0.753938 -0.00964879 0
M  V30 431 H 39.0165 1.69243 -0.709166 0
M  V30 432 H 37.3985 3.89301 0.725325 0
M  V30 433 H 38.5725 4.0877 -2.12705 0
M  V30 434 H 36.8875 3.76419 -1.78038 0
M  V30 435 H 39.4845 5.32124 0.524247 0
M  V30 436 H 39.8275 3.89437 1.4712 0
M  V30 437 H 40.3605 3.97159 -0.225818 0
M  V30 438 H 37.0995 6.13988 -2.29564 0
M  V30 439 H 36.6195 5.96875 -0.591622 0
M  V30 440 H 38.2985 6.39063 -1.01033 0
M  V30 441 N 38.4306 0.297415 1.54768 0
M  V30 442 C 39.6786 -0.312295 1.99673 0
M  V30 443 C 39.9996 -1.54686 1.18732 0
M  V30 444 O 39.2696 -1.93854 0.282382 0
M  V30 445 H 37.8496 -0.118381 0.73756 0
M  V30 446 H 40.5116 0.407915 1.90583 0
M  V30 447 H 39.6076 -0.586813 3.06534 0
M  V30 448 N 39.9087 -1.5758 0.0250728 0
M  V30 449 C 40.8387 -2.13007 -0.956575 0
M  V30 450 C 41.8197 -1.0452 -1.342 0
M  V30 451 O 43.0047 -1.32332 -1.42133 0
M  V30 452 C 40.1347 -2.65386 -2.24026 0
M  V30 453 C 39.0887 -3.78623 -1.99571 0
M  V30 454 C 38.4147 -4.17414 -3.3417 0
M  V30 455 C 39.7147 -5.04867 -1.33814 0
M  V30 456 H 41.4087 -2.9528 -0.494991 0
M  V30 457 H 38.9547 -1.42042 -0.236651 0
M  V30 458 H 40.9077 -3.02794 -2.93076 0
M  V30 459 H 39.6317 -1.80268 -2.72343 0
M  V30 460 H 38.2907 -3.41646 -1.32941 0
M  V30 461 H 37.9387 -3.29284 -3.80238 0
M  V30 462 H 37.6387 -4.93719 -3.18615 0
M  V30 463 H 39.1627 -4.57402 -4.04495 0
M  V30 464 H 40.5767 -5.39888 -1.92857 0
M  V30 465 H 38.9737 -5.86144 -1.28669 0
M  V30 466 H 40.0437 -4.83904 -0.310561 0
M  V30 467 N 41.3868 0.248026 -1.55636 0
M  V30 468 C 42.3498 1.29044 -1.89421 0
M  V30 469 C 43.3498 1.41134 -0.770581 0
M  V30 470 O 44.5398 1.39854 -1.03858 0
M  V30 471 C 41.6718 2.66831 -2.12165 0
M  V30 472 H 42.8648 1.00305 -2.82629 0
M  V30 473 H 40.4178 0.487265 -1.48511 0
M  V30 474 H 41.1528 3.00711 -1.21422 0
M  V30 475 H 40.9378 2.59438 -2.93997 0
M  V30 476 H 42.4278 3.42103 -2.3949 0
M  V30 477 N 42.8649 1.48995 0.513639 0
M  V30 478 C 44.2759 1.5119 1.09537 0
M  V30 479 C 44.6269 0.290906 1.94031 0
M  V30 480 O 43.7519 -0.60049 2.07902 0
M  V30 481 C 44.3469 2.73964 1.99322 0
M  V30 482 C 42.9059 2.78978 2.52682 0
M  V30 483 C 42.0529 2.44934 1.30009 0
M  V30 484 H 45.0039 1.55875 0.298125 0
M  V30 485 H 45.0249 2.53409 2.83838 0
M  V30 486 H 44.5369 3.62813 1.37799 0
M  V30 487 H 42.6379 1.94378 3.1788 0
M  V30 488 H 42.7509 3.8083 2.90698 0
M  V30 489 H 41.1149 1.9644 1.62122 0
M  V30 490 H 41.8979 3.36043 0.702131 0
M  V30 491 N 44.343 -0.763751 1.37857 0
M  V30 492 C 45.273 -1.89103 1.36975 0
M  V30 493 C 46.254 -1.68439 0.237152 0
M  V30 494 O 47.439 -1.8918 0.438713 0
M  V30 495 C 44.569 -3.26496 1.18395 0
M  V30 496 C 43.523 -3.61741 2.28751 0
M  V30 497 C 42.849 -4.97762 1.95286 0
M  V30 498 C 44.149 -3.67665 3.70972 0
M  V30 499 H 45.843 -1.90099 2.31307 0
M  V30 500 H 43.389 -0.91319 1.11341 0
M  V30 501 H 45.342 -4.05003 1.16406 0
M  V30 502 H 44.066 -3.25955 0.205215 0
M  V30 503 H 42.725 -2.85547 2.29909 0
M  V30 504 H 42.373 -4.93769 0.959221 0
M  V30 505 H 42.073 -5.22313 2.69189 0
M  V30 506 H 43.597 -5.7866 1.94898 0
M  V30 507 H 45.011 -4.36307 3.719 0
M  V30 508 H 43.408 -4.03718 4.43995 0
M  V30 509 H 44.478 -2.68134 4.0402 0
M  V30 510 N 45.8211 -1.22559 -0.990812 0
M  V30 511 C 47.0701 -1.04553 -1.72486 0
M  V30 512 C 47.3831 0.419349 -1.91052 0
M  V30 513 O 48.5891 0.719121 -2.61803 0
M  V30 514 C 47.0451 -1.82231 -3.10355 0
M  V30 515 C 46.6531 -3.32981 -2.99713 0
M  V30 516 C 48.3971 -1.7268 -3.87791 0
M  V30 517 C 46.3041 -4.03091 -4.32748 0
M  V30 518 H 45.2341 -0.387614 -0.646739 0
M  V30 519 H 47.8851 -1.46429 -1.10593 0
M  V30 520 H 46.2671 -1.33155 -3.72942 0
M  V30 521 H 47.4411 -3.89466 -2.46278 0
M  V30 522 H 45.7561 -3.43231 -2.35758 0
M  V30 523 H 48.3531 -2.22381 -4.86262 0
M  V30 524 H 48.6961 -0.687607 -4.10582 0
M  V30 525 H 49.2291 -2.1931 -3.31885 0
M  V30 526 H 45.9681 -5.07273 -4.15156 0
M  V30 527 H 45.4881 -3.51394 -4.86089 0
M  V30 528 H 47.1671 -4.08804 -5.01486 0
M  V30 529 N 47.2992 1.18797 -1.03562 0
M  V30 530 C 48.2622 2.20464 -0.626769 0
M  V30 531 C 49.2622 1.57721 0.313173 0
M  V30 532 O 50.4522 1.73917 0.0992615 0
M  V30 533 C 47.5842 3.40802 0.0818498 0
M  V30 534 H 48.7772 2.58149 -1.5264 0
M  V30 535 H 46.3302 1.32593 -0.827578 0
M  V30 536 H 47.0652 3.08642 0.995518 0
M  V30 537 H 46.8502 3.8758 -0.593652 0
M  V30 538 H 48.3402 4.16092 0.354584 0
M  V30 539 N 48.7773 0.814389 1.34928 0
M  V30 540 C 50.0233 0.399013 1.98836 0
M  V30 541 C 50.3563 -1.03314 1.64438 0
M  V30 542 O 49.6313 -1.71811 0.911659 0
M  V30 543 C 49.9143 0.591629 3.55207 0
M  V30 544 C 49.7673 2.06928 3.99376 0
M  V30 545 C 51.0863 0.022199 4.40094 0
M  V30 546 H 48.2053 0.146451 0.722303 0
M  V30 547 H 50.8473 1.02537 1.59957 0
M  V30 548 H 48.9973 0.0584441 3.88456 0
M  V30 549 H 50.6693 2.66544 3.76499 0
M  V30 550 H 48.9123 2.56287 3.49999 0
M  V30 551 H 49.5833 2.1549 5.08201 0
M  V30 552 H 52.0593 0.477643 4.13349 0
M  V30 553 H 50.9353 0.186832 5.48582 0
M  V30 554 H 51.1963 -1.07215 4.28902 0
M  V30 555 N 50.2554 -1.46986 0.568584 0
M  V30 556 C 51.1884 -2.27129 -0.220779 0
M  V30 557 C 52.1664 -1.34757 -0.909905 0
M  V30 558 O 53.3504 -1.64152 -0.926622 0
M  V30 559 C 50.4774 -3.12108 -1.31553 0
M  V30 560 C 49.5234 -4.20141 -0.733748 0
M  V30 561 S 50.3564 -5.33783 0.428479 0
M  V30 562 C 51.5124 -6.22327 -0.667811 0
M  V30 563 H 51.7454 -2.93731 0.459267 0
M  V30 564 H 49.2784 -1.5026 0.355154 0
M  V30 565 H 51.2364 -3.61636 -1.94241 0
M  V30 566 H 49.8974 -2.44847 -1.96746 0
M  V30 567 H 49.0904 -4.79373 -1.5562 0
M  V30 568 H 48.6924 -3.73553 -0.182812 0
M  V30 569 H 50.9844 -6.59364 -1.55708 0
M  V30 570 H 51.9274 -7.0801 -0.11258 0
M  V30 571 H 52.3354 -5.5618 -0.965601 0
M  V30 572 N 51.7335 -0.305618 -1.54608 0
M  V30 573 C 52.6655 0.602161 -2.21149 0
M  V30 574 C 53.6785 1.09394 -1.20569 0
M  V30 575 O 54.8675 1.0106 -1.47136 0
M  V30 576 C 51.9675 1.83692 -2.84799 0
M  V30 577 C 51.1405 1.48686 -4.11353 0
M  V30 578 C 50.1995 2.57725 -4.58764 0
M  V30 579 O 49.2255 2.22623 -5.23858 0
M  V30 580 N 50.4275 3.88346 -4.31471 0
M  V30 581 H 53.1925 0.0324966 -2.99682 0
M  V30 582 H 50.7535 -0.128021 -1.61393 0
M  V30 583 H 52.7455 2.55994 -3.13448 0
M  V30 584 H 51.3155 2.31486 -2.10078 0
M  V30 585 H 50.5355 0.596269 -3.89664 0
M  V30 586 H 51.8235 1.22842 -4.93748 0
M  V30 587 H 51.2215 4.19671 -3.79331 0
M  V30 588 H 49.7785 4.56932 -4.64818 0
M  V30 589 N 53.2116 1.57565 -0.0334293 0
M  V30 590 C 54.4396 1.9628 0.654347 0
M  V30 591 C 54.8546 0.910138 1.65414 0
M  V30 592 O 54.2116 -0.107595 1.82183 0
M  V30 593 C 54.2626 3.35067 1.35693 0
M  V30 594 O 53.9836 4.36296 0.397191 0
M  V30 595 C 55.4846 3.88439 2.13613 0
M  V30 596 H 52.7046 0.646369 0.180132 0
M  V30 597 H 55.2486 2.04282 -0.0944721 0
M  V30 598 H 53.4036 3.2827 2.05712 0
M  V30 599 H 53.8176 5.1678 0.896597 0
M  V30 600 H 55.2916 4.8788 2.58219 0
M  V30 601 H 55.7686 3.22914 2.97696 0
M  V30 602 H 56.3746 3.98516 1.48543 0
M  V30 603 N 54.6897 -0.239769 1.55765 0
M  V30 604 C 55.6197 -1.30052 1.9393 0
M  V30 605 C 56.6007 -1.49839 0.805132 0
M  V30 606 O 57.7857 -1.62328 1.06599 0
M  V30 607 C 54.9157 -2.65391 2.2402 0
M  V30 608 C 53.8697 -2.60289 3.39755 0
M  V30 609 C 53.1957 -3.99489 3.55405 0
M  V30 610 C 54.4957 -2.16654 4.75246 0
M  V30 611 H 56.1897 -0.983573 2.82783 0
M  V30 612 H 53.7357 -0.471701 1.36055 0
M  V30 613 H 55.6887 -3.3974 2.49308 0
M  V30 614 H 54.4127 -2.98736 1.32 0
M  V30 615 H 53.0717 -1.88398 3.14487 0
M  V30 616 H 52.7197 -4.30112 2.60793 0
M  V30 617 H 52.4197 -3.96962 4.33238 0
M  V30 618 H 53.9437 -4.75528 3.83022 0
M  V30 619 H 55.3577 -2.80737 4.99859 0
M  V30 620 H 53.7547 -2.25223 5.56232 0
M  V30 621 H 54.8247 -1.11835 4.71827 0
M  V30 622 N 56.1678 -1.49265 -0.50573 0
M  V30 623 C 57.4138 -1.59723 -1.25937 0
M  V30 624 C 57.7688 -0.278236 -1.90378 0
M  V30 625 O 57.0618 0.72113 -1.77511 0
M  V30 626 C 57.2558 -2.69008 -2.35308 0
M  V30 627 C 57.0848 -4.11405 -1.81592 0
M  V30 628 C 55.8548 -4.78252 -1.63105 0
M  V30 629 C 58.0528 -4.96792 -1.33048 0
M  V30 630 N 56.0348 -6.0498 -1.04269 0
M  V30 631 C 57.4058 -6.13962 -0.863168 0
M  V30 632 C 59.4608 -4.82828 -1.21577 0
M  V30 633 C 58.1638 -7.18705 -0.292489 0
M  V30 634 C 60.1898 -5.87716 -0.65907 0
M  V30 635 C 59.5518 -7.0411 -0.201954 0
M  V30 636 H 55.6508 -0.638864 -0.450973 0
M  V30 637 H 58.2348 -1.86251 -0.567326 0
M  V30 638 H 56.4058 -2.4426 -3.01979 0
M  V30 639 H 58.1378 -2.69013 -3.02348 0
M  V30 640 H 54.8928 -4.34974 -1.87336 0
M  V30 641 H 55.3168 -6.72631 -0.767919 0
M  V30 642 H 59.9588 -3.93159 -1.55518 0
M  V30 643 H 57.6768 -8.08078 0.0591987 0
M  V30 644 H 61.2628 -5.7897 -0.573156 0
M  V30 645 H 60.1428 -7.83885 0.222101 0
M  V30 646 N 57.6459 0.756429 -1.3826 0
M  V30 647 C 58.8919 1.51772 -1.34511 0
M  V30 648 C 59.2249 1.94089 0.0656691 0
M  V30 649 O 58.4999 1.65221 1.02626 0
M  V30 650 C 58.7829 2.77226 -2.29821 0
M  V30 651 C 58.6359 2.41065 -3.79747 0
M  V30 652 C 59.9549 3.79236 -2.23312 0
M  V30 653 H 57.0739 0.550578 -0.489931 0
M  V30 654 H 59.7159 0.866607 -1.69086 0
M  V30 655 H 57.8659 3.32784 -2.00467 0
M  V30 656 H 59.5379 1.91303 -4.19763 0
M  V30 657 H 57.7809 1.7356 -3.97567 0
M  V30 658 H 58.4519 3.3081 -4.41892 0
M  V30 659 H 60.9279 3.3321 -2.49219 0
M  V30 660 H 59.8039 4.64714 -2.92116 0
M  V30 661 H 60.0649 4.24615 -1.23102 0
M  V30 662 N 59.124 1.23083 0.984299 0
M  V30 663 C 60.37 1.06214 1.72761 0
M  V30 664 C 60.703 -0.400584 1.90024 0
M  V30 665 O 59.978 -1.29672 1.44967 0
M  V30 666 C 60.261 1.78375 3.12817 0
M  V30 667 C 60.114 3.32296 3.03149 0
M  V30 668 C 61.433 1.54309 4.12161 0
M  V30 669 H 58.552 0.387251 0.627061 0
M  V30 670 H 61.194 1.51536 1.14616 0
M  V30 671 H 59.344 1.39848 3.62457 0
M  V30 672 H 61.016 3.8032 2.61064 0
M  V30 673 H 59.259 3.6153 2.39747 0
M  V30 674 H 59.93 3.77972 4.02295 0
M  V30 675 H 62.406 1.87791 3.71314 0
M  V30 676 H 61.282 2.07281 5.08258 0
M  V30 677 H 61.543 0.477572 4.39513 0
M  V30 678 N 60.6021 -1.18246 1.0419 0
M  V30 679 C 61.8301 -1.92195 0.766072 0
M  V30 680 C 62.2451 -1.76247 -0.676933 0
M  V30 681 O 61.6021 -1.09293 -1.46155 0
M  V30 682 C 61.6531 -3.43568 1.12442 0
M  V30 683 O 61.3741 -3.59015 2.51078 0
M  V30 684 C 62.8751 -4.34613 0.873275 0
M  V30 685 H 60.0951 -0.610114 0.279288 0
M  V30 686 H 62.6391 -1.50007 1.38989 0
M  V30 687 H 60.7941 -3.8354 0.545542 0
M  V30 688 H 61.2081 -4.5273 2.64831 0
M  V30 689 H 62.6821 -5.39374 1.17385 0
M  V30 690 H 63.1591 -4.38781 -0.191909 0
M  V30 691 H 63.7651 -4.00341 1.43551 0
M  V30 692 N 62.0802 -0.821533 -1.34494 0
M  V30 693 C 63.3572 -0.33159 -1.92769 0
M  V30 694 C 63.7372 1.18088 -1.74981 0
M  V30 695 O 63.0852 1.98733 -1.12772 0
M  V30 696 C 63.2952 -0.759398 -3.40638 0
M  V30 697 C 64.6432 -0.757433 -4.1779 0
M  V30 698 O 65.6672 -0.70189 -3.49216 0
M  V30 699 O 64.5262 -0.829361 -5.4017 0
M  V30 700 H 61.6202 -0.0902502 -0.822061 0
M  V30 701 H 64.1662 -0.906231 -1.43477 0
M  V30 702 H 62.9382 -1.8012 -3.47379 0
M  V30 703 H 62.5612 -0.160378 -3.97276 0
M  V30 704 N 63.5583 1.46682 -0.576371 0
M  V30 705 C 64.5063 2.31953 0.17335 0
M  V30 706 C 65.5003 1.44098 0.89062 0
M  V30 707 O 66.7063 1.60759 0.809728 0
M  V30 708 H 63.0813 0.748273 0.0747727 0
M  V30 709 H 65.0523 2.93007 -0.564738 0
M  V30 710 C 63.8013 3.27142 1.17786 0
M  V30 711 H 63.1243 3.94719 0.635361 0
M  V30 712 H 64.5643 3.896 1.67296 0
M  V30 713 C 63.0233 2.52036 2.23561 0
M  V30 714 O 63.5533 2.27877 3.3081 0
M  V30 715 N 61.7593 2.12709 1.97998 0
M  V30 716 H 61.3063 2.32557 1.10792 0
M  V30 717 H 61.2643 1.62776 2.68982 0
M  V30 718 N 65.0364 0.313813 1.54444 0
M  V30 719 C 66.4474 -0.176243 1.85866 0
M  V30 720 C 66.7984 -1.52405 1.23561 0
M  V30 721 O 65.9234 -2.09605 0.538016 0
M  V30 722 C 66.5184 -0.32657 3.37222 0
M  V30 723 C 65.0774 -0.760846 3.6863 0
M  V30 724 C 64.2244 0.123247 2.77026 0
M  V30 725 H 67.1754 0.534418 1.49431 0
M  V30 726 H 67.1964 -1.15908 3.62416 0
M  V30 727 H 66.7084 0.654531 3.82541 0
M  V30 728 H 64.8094 -1.75204 3.28838 0
M  V30 729 H 64.9224 -0.571353 4.75681 0
M  V30 730 H 63.2864 -0.399597 2.51546 0
M  V30 731 H 64.0694 1.10094 3.25168 0
M  V30 732 N 66.5145 -1.57545 0.0417849 0
M  V30 733 C 67.4775 -2.09885 -0.92093 0
M  V30 734 C 68.4775 -1.01648 -1.24596 0
M  V30 735 O 69.6675 -1.27759 -1.1842 0
M  V30 736 C 66.7995 -2.57527 -2.23367 0
M  V30 737 H 67.9925 -2.96236 -0.467382 0
M  V30 738 H 65.5455 -1.5493 -0.206467 0
M  V30 739 H 66.2805 -1.74542 -2.73323 0
M  V30 740 H 66.0655 -3.36613 -2.01083 0
M  V30 741 H 67.5555 -2.98201 -2.92346 0
M  V30 742 N 67.9926 0.231505 -1.5589 0
M  V30 743 C 69.2386 0.954429 -1.79617 0
M  V30 744 C 69.5936 1.82367 -0.613199 0
M  V30 745 O 68.8866 1.87524 0.393094 0
M  V30 746 C 69.0806 1.83577 -3.0665 0
M  V30 747 C 68.9096 1.05334 -4.3719 0
M  V30 748 C 67.6796 0.75225 -4.99669 0
M  V30 749 C 69.8776 0.423444 -5.12554 0
M  V30 750 N 67.8596 -0.052627 -6.13877 0
M  V30 751 C 69.2306 -0.245287 -6.19515 0
M  V30 752 C 71.2856 0.335466 -4.96769 0
M  V30 753 C 69.9886 -0.993566 -7.12405 0
M  V30 754 C 72.0146 -0.399321 -5.9005 0
M  V30 755 C 71.3766 -1.05663 -6.9643 0
M  V30 756 H 67.4756 0.329846 -0.709031 0
M  V30 757 H 70.0596 0.226172 -1.93382 0
M  V30 758 H 68.2306 2.53592 -2.94186 0
M  V30 759 H 69.9626 2.49541 -3.18608 0
M  V30 760 H 66.7176 1.06783 -4.61405 0
M  V30 761 H 67.1416 -0.443609 -6.75545 0
M  V30 762 H 71.7836 0.829311 -4.14587 0
M  V30 763 H 69.5016 -1.49896 -7.94076 0
M  V30 764 H 73.0876 -0.468265 -5.79913 0
M  V30 765 H 71.9676 -1.61612 -7.67366 0
M  V30 766 N 69.4707 1.49531 0.497807 0
M  V30 767 C 70.7007 1.62657 1.27382 0
M  V30 768 C 71.1087 0.298488 1.86831 0
M  V30 769 O 70.4517 -0.72647 1.68725 0
M  V30 770 C 70.5137 2.6393 2.44093 0
M  V30 771 C 70.1777 4.08195 2.05489 0
M  V30 772 C 71.1747 4.949 1.59279 0
M  V30 773 C 68.8597 4.53948 2.15026 0
M  V30 774 C 70.8537 6.25397 1.23113 0
M  V30 775 C 68.5407 5.84458 1.78473 0
M  V30 776 C 69.5387 6.70006 1.32591 0
M  V30 777 O 69.2267 7.98083 0.965327 0
M  V30 778 H 68.9587 0.550429 0.392434 0
M  V30 779 H 71.5127 1.96325 0.603801 0
M  V30 780 H 69.7427 2.25449 3.14181 0
M  V30 781 H 71.4317 2.66552 3.06113 0
M  V30 782 H 72.1977 4.60779 1.51354 0
M  V30 783 H 68.0767 3.87525 2.4969 0
M  V30 784 H 71.6207 6.92125 0.872299 0
M  V30 785 H 67.5177 6.18107 1.86048 0
M  V30 786 H 68.2857 8.11122 1.09652 0
M  V30 787 N 70.9488 -0.749086 1.3866 0
M  V30 788 C 72.3648 -1.05276 1.19955 0
M  V30 789 C 72.5648 -2.01435 0.05134 0
M  V30 790 O 71.6208 -2.45232 -0.60147 0
M  V30 791 C 72.9338 -1.62853 2.52783 0
M  V30 792 C 74.4818 -1.75002 2.59506 0
M  V30 793 C 74.9568 -2.35991 3.92521 0
M  V30 794 N 76.4478 -2.43416 3.94085 0
M  V30 795 C 77.1828 -2.91511 4.9377 0
M  V30 796 N 76.6788 -3.39608 6.03853 0
M  V30 797 N 78.4718 -2.90592 4.81157 0
M  V30 798 H 70.6228 -0.111066 2.12109 0
M  V30 799 H 72.8858 -0.111901 0.941373 0
M  V30 800 H 72.5918 -0.99664 3.37283 0
M  V30 801 H 72.4658 -2.61854 2.715 0
M  V30 802 H 74.8528 -2.37317 1.75398 0
M  V30 803 H 74.9338 -0.74693 2.44652 0
M  V30 804 H 74.5778 -1.74308 4.77053 0
M  V30 805 H 74.5078 -3.3695 4.04688 0
M  V30 806 H 76.9988 -2.09405 3.14576 0
M  V30 807 H 77.3118 -3.74775 6.75843 0
M  V30 808 H 75.6568 -3.37653 6.07466 0
M  V30 809 H 78.8478 -2.52332 3.94267 0
M  V30 810 H 79.0208 -3.27762 5.58996 0
M  V30 811 N 72.4269 -1.23603 -0.977757 0
M  V30 812 C 73.3569 -1.04401 -2.0886 0
M  V30 813 C 74.3379 0.0399052 -1.70053 0
M  V30 814 O 75.5229 -0.125246 -1.93796 0
M  V30 815 C 72.6529 -0.637269 -3.41403 0
M  V30 816 C 71.6069 -1.66883 -3.94124 0
M  V30 817 C 70.9329 -1.11745 -5.22893 0
M  V30 818 C 72.2329 -3.06247 -4.23096 0
M  V30 819 H 73.9269 -1.97316 -2.25182 0
M  V30 820 H 71.4729 -0.950096 -1.08209 0
M  V30 821 H 73.4259 -0.48998 -4.18542 0
M  V30 822 H 72.1499 0.327557 -3.24953 0
M  V30 823 H 70.8089 -1.80416 -3.19133 0
M  V30 824 H 70.4569 -0.143527 -5.02795 0
M  V30 825 H 70.1569 -1.80672 -5.59134 0
M  V30 826 H 71.6809 -0.982067 -6.02651 0
M  V30 827 H 73.0949 -2.96001 -4.90975 0
M  V30 828 H 71.4919 -3.72436 -4.70544 0
M  V30 829 H 72.5619 -3.55041 -3.30263 0
M  V30 830 N 73.905 1.17692 -1.04816 0
M  V30 831 C 75.133 1.91786 -0.776254 0
M  V30 832 C 75.548 1.76604 0.667577 0
M  V30 833 O 74.905 1.10067 1.45573 0
M  V30 834 C 74.956 3.42967 -1.14263 0
M  V30 835 O 74.677 3.57678 -2.52978 0
M  V30 836 C 76.178 4.34144 -0.896311 0
M  V30 837 H 73.398 0.608624 -0.282519 0
M  V30 838 H 75.942 1.49268 -1.39783 0
M  V30 839 H 74.097 3.83245 -0.565874 0
M  V30 840 H 74.511 4.51319 -2.67229 0
M  V30 841 H 75.985 5.38744 -1.20244 0
M  V30 842 H 76.462 4.38876 0.168636 0
M  V30 843 H 77.068 3.99574 -1.45672 0
M  V30 844 N 75.3831 0.828654 1.34056 0
M  V30 845 C 76.3301 0.252567 2.29414 0
M  V30 846 C 77.3001 -0.62588 1.53857 0
M  V30 847 O 78.4851 -0.566312 1.82202 0
M  V30 848 C 75.6251 -0.574831 3.40279 0
M  V30 849 C 74.7381 0.326499 4.30764 0
M  V30 850 C 73.8731 -0.511016 5.28736 0
M  V30 851 C 72.9121 0.389342 6.1086 0
M  V30 852 N 72.0491 -0.409439 7.00905 0
M  V30 853 H 76.8891 1.07108 2.78086 0
M  V30 854 H 74.4261 0.539677 1.36843 0
M  V30 855 H 76.3841 -1.06992 4.03248 0
M  V30 856 H 75.0141 -1.35841 2.92826 0
M  V30 857 H 74.0661 0.939837 3.68607 0
M  V30 858 H 75.3781 1.01857 4.88289 0
M  V30 859 H 74.5321 -1.07035 5.97184 0
M  V30 860 H 73.2711 -1.23657 4.71763 0
M  V30 861 H 72.2761 0.960769 5.4134 0
M  V30 862 H 73.5011 1.1131 6.69916 0
M  V30 863 H 71.4471 -1.11856 6.46393 0
M  V30 864 H 71.3641 0.224126 7.55668 0
M  V30 865 H 72.6321 -0.951336 7.73673 0
M  V30 866 N 76.8612 -1.46375 0.584142 0
M  V30 867 C 78.1082 -2.02378 0.0702675 0
M  V30 868 C 78.4362 -1.45545 -1.29023 0
M  V30 869 O 77.6912 -0.610967 -1.85918 0
M  V30 870 C 77.9902 -3.57373 -0.0439342 0
M  V30 871 C 77.6562 -4.33252 1.24915 0
M  V30 872 C 76.3182 -4.53701 1.60341 0
M  V30 873 C 78.6702 -4.7681 2.1048 0
M  V30 874 C 75.9982 -5.1496 2.81128 0
M  V30 875 C 78.3502 -5.39404 3.30494 0
M  V30 876 C 77.0142 -5.5808 3.66201 0
M  V30 877 H 76.2842 -0.740554 0.0257127 0
M  V30 878 H 78.9312 -1.75727 0.761065 0
M  V30 879 H 77.2362 -3.83169 -0.817869 0
M  V30 880 H 78.9332 -3.98384 -0.457318 0
M  V30 881 H 75.5232 -4.17633 0.963364 0
M  V30 882 H 79.7072 -4.60766 1.84414 0
M  V30 883 H 74.9632 -5.27611 3.08928 0
M  V30 884 H 79.1372 -5.72114 3.97063 0
M  V30 885 H 76.7642 -6.05318 4.59885 0
M  V30 886 N 78.3393 -0.321999 -1.54275 0
M  V30 887 C 79.5863 0.281044 -2.0054 0
M  V30 888 C 79.9143 1.52265 -1.21019 0
M  V30 889 O 79.1693 1.93687 -0.279982 0
M  V30 890 C 79.4683 0.661769 -3.5122 0
M  V30 891 C 79.1343 -0.480482 -4.48333 0
M  V30 892 C 77.7963 -0.794005 -4.74604 0
M  V30 893 C 80.1483 -1.24783 -5.06042 0
M  V30 894 C 77.4763 -1.87763 -5.55844 0
M  V30 895 C 79.8283 -2.32153 -5.88462 0
M  V30 896 C 78.4923 -2.64089 -6.13036 0
M  V30 897 H 77.7623 0.102841 -0.733829 0
M  V30 898 H 80.4093 -0.445453 -1.86247 0
M  V30 899 H 78.7143 1.46867 -3.63232 0
M  V30 900 H 80.4113 1.13989 -3.84457 0
M  V30 901 H 77.0013 -0.226039 -4.28004 0
M  V30 902 H 81.1853 -1.01887 -4.85729 0
M  V30 903 H 76.4413 -2.12954 -5.73115 0
M  V30 904 H 80.6153 -2.92057 -6.32199 0
M  V30 905 H 78.2423 -3.48185 -6.75775 0
M  V30 906 N 79.8174 1.5752 -0.0501392 0
M  V30 907 C 81.0654 1.9227 0.622642 0
M  V30 908 C 81.3864 0.929083 1.71444 0
M  V30 909 O 80.6564 -0.0262186 1.95882 0
M  V30 910 H 79.2364 0.709739 0.232981 0
M  V30 911 H 81.8984 1.94628 -0.102898 0
M  V30 912 H 80.9944 2.93479 1.06191 0
M  V30 913 N 81.2955 -0.223234 1.56011 0
M  V30 914 C 82.2425 -1.27664 1.92277 0
M  V30 915 C 83.2125 -1.46659 0.779763 0
M  V30 916 O 84.3975 -1.60256 1.03551 0
M  V30 917 C 81.5375 -2.62234 2.24338 0
M  V30 918 C 80.6505 -2.51051 3.51564 0
M  V30 919 C 79.7855 -3.78133 3.7308 0
M  V30 920 C 78.8245 -3.61665 4.93827 0
M  V30 921 N 77.9615 -4.80693 5.11741 0
M  V30 922 H 82.8015 -0.960358 2.82101 0
M  V30 923 H 80.3385 -0.462901 1.39627 0
M  V30 924 H 82.2965 -3.40596 2.40936 0
M  V30 925 H 80.9265 -2.91961 1.3769 0
M  V30 926 H 79.9785 -1.64132 3.43169 0
M  V30 927 H 81.2905 -2.34803 4.40079 0
M  V30 928 H 80.4445 -4.64938 3.89766 0
M  V30 929 H 79.1835 -3.97304 2.82844 0
M  V30 930 H 78.1885 -2.73244 4.77093 0
M  V30 931 H 79.4135 -3.43966 5.85546 0
M  V30 932 H 77.3595 -5.00181 4.24446 0
M  V30 933 H 77.2765 -4.67165 5.94384 0
M  V30 934 H 78.5445 -5.6893 5.3286 0
M  V30 935 N 82.7736 -1.49793 -0.48987 0
M  V30 936 C 83.7036 -1.70201 -1.59856 0
M  V30 937 C 84.6846 -0.55076 -1.60937 0
M  V30 938 O 85.8696 -0.787841 -1.77501 0
M  V30 939 C 82.9996 -1.77882 -2.98287 0
M  V30 940 C 81.9536 -2.92907 -3.12073 0
M  V30 941 C 81.2796 -2.85712 -4.51965 0
M  V30 942 C 82.5796 -4.3369 -2.91051 0
M  V30 943 H 84.2736 -2.63025 -1.43032 0
M  V30 944 H 81.8196 -1.26574 -0.686664 0
M  V30 945 H 83.7726 -1.90744 -3.75759 0
M  V30 946 H 82.4966 -0.816653 -3.16225 0
M  V30 947 H 81.1556 -2.79665 -2.37029 0
M  V30 948 H 80.8036 -1.8738 -4.66795 0
M  V30 949 H 80.5036 -3.62921 -4.62128 0
M  V30 950 H 82.0276 -3.00598 -5.31482 0
M  V30 951 H 83.4416 -4.47555 -3.58284 0
M  V30 952 H 81.8386 -5.12205 -3.12675 0
M  V30 953 H 82.9086 -4.47362 -1.87071 0
M  V30 954 N 84.2517 0.741722 -1.39055 0
M  V30 955 C 85.4987 1.50114 -1.35912 0
M  V30 956 C 85.8267 1.94443 0.0470937 0
M  V30 957 O 85.0817 1.66612 1.02659 0
M  V30 958 C 85.3807 2.7592 -2.27163 0
M  V30 959 C 85.0467 2.50493 -3.74919 0
M  V30 960 C 83.7087 2.43267 -4.1518 0
M  V30 961 C 86.0607 2.28585 -4.684 0
M  V30 962 C 83.3887 2.12166 -5.46994 0
M  V30 963 C 85.7407 1.99002 -6.00484 0
M  V30 964 C 84.4047 1.90241 -6.39816 0
M  V30 965 H 83.6747 0.549306 -0.497336 0
M  V30 966 H 86.3217 0.851896 -1.71508 0
M  V30 967 H 84.6267 3.45553 -1.84663 0
M  V30 968 H 86.3237 3.33923 -2.22028 0
M  V30 969 H 82.9137 2.56992 -3.43006 0
M  V30 970 H 87.0977 2.33139 -4.38132 0
M  V30 971 H 82.3537 2.03901 -5.76398 0
M  V30 972 H 86.5277 1.81057 -6.72452 0
M  V30 973 H 84.1547 1.65907 -7.41875 0
M  V30 974 N 85.7298 1.2412 0.971189 0
M  V30 975 C 86.6598 1.05508 2.08304 0
M  V30 976 C 87.6408 -0.0308864 1.70072 0
M  V30 977 O 88.8258 0.135521 1.93727 0
M  V30 978 C 85.9558 0.655365 3.4106 0
M  V30 979 C 84.9098 1.68971 3.93234 0
M  V30 980 C 84.2358 1.14516 5.22293 0
M  V30 981 C 85.5358 3.08487 4.21465 0
M  V30 982 H 87.2298 1.98507 2.24132 0
M  V30 983 H 84.7758 0.955821 1.07704 0
M  V30 984 H 86.7288 0.51217 4.18276 0
M  V30 985 H 85.4528 -0.31032 3.25122 0
M  V30 986 H 84.1118 1.82106 3.18171 0
M  V30 987 H 83.7598 0.170189 5.02712 0
M  V30 988 H 83.4598 1.83635 5.58168 0
M  V30 989 H 84.9838 1.01401 6.02121 0
M  V30 990 H 86.3978 2.98601 4.89398 0
M  V30 991 H 84.7948 3.74926 4.68562 0
M  V30 992 H 85.8648 3.56787 3.28376 0
M  V30 993 N 87.2079 -1.17134 1.05439 0
M  V30 994 C 88.4569 -1.86791 0.761049 0
M  V30 995 C 88.7699 -1.82072 -0.714795 0
M  V30 996 O 89.9759 -2.47223 -1.12218 0
M  V30 997 C 88.4319 -3.35166 1.31117 0
M  V30 998 C 88.0399 -3.48381 2.81664 0
M  V30 999 C 89.7839 -4.10134 1.09499 0
M  V30 1000 C 87.6909 -4.90793 3.29964 0
M  V30 1001 H 86.6209 -0.699681 0.281002 0
M  V30 1002 H 89.2719 -1.3226 1.27199 0
M  V30 1003 H 87.6539 -3.8925 0.72803 0
M  V30 1004 H 88.8279 -3.04502 3.45855 0
M  V30 1005 H 87.1429 -2.86836 3.01851 0
M  V30 1006 H 89.7399 -5.152 1.43084 0
M  V30 1007 H 90.0829 -4.16287 0.0328772 0
M  V30 1008 H 90.6159 -3.62264 1.64346 0
M  V30 1009 H 87.3549 -4.89816 4.35616 0
M  V30 1010 H 86.8749 -5.35333 2.70516 0
M  V30 1011 H 88.5539 -5.59573 3.24787 0
M  V30 1012 N 88.686 -0.835752 -1.33615 0
M  V30 1013 C 89.634 -0.255238 -2.31195 0
M  V30 1014 C 90.628 0.61107 -1.57995 0
M  V30 1015 O 91.834 0.500979 -1.72888 0
M  V30 1016 H 88.209 -0.0638085 -0.749288 0
M  V30 1017 H 90.18 -1.09283 -2.77669 0
M  V30 1018 C 88.929 0.55754 -3.43201 0
M  V30 1019 H 88.252 -0.0997553 -3.99676 0
M  V30 1020 H 89.692 0.929622 -4.13683 0
M  V30 1021 C 88.151 1.73515 -2.88781 0
M  V30 1022 O 88.681 2.83376 -2.84712 0
M  V30 1023 N 86.887 1.55603 -2.4543 0
M  V30 1024 H 86.434 0.662354 -2.48939 0
M  V30 1025 H 86.392 2.34545 -2.09371 0
M  V30 1026 N 90.1641 1.46063 -0.591896 0
M  V30 1027 C 91.4111 2.02338 -0.0809991 0
M  V30 1028 C 91.7391 1.46228 1.28249 0
M  V30 1029 O 90.9941 0.620818 1.85592 0
M  V30 1030 C 91.2931 3.57391 0.0249813 0
M  V30 1031 C 90.9591 4.32583 -1.27211 0
M  V30 1032 C 89.6211 4.52844 -1.62745 0
M  V30 1033 C 91.9731 4.75687 -2.13005 0
M  V30 1034 C 89.3011 5.13462 -2.83855 0
M  V30 1035 C 91.6531 5.37644 -3.3335 0
M  V30 1036 C 90.3171 5.5613 -3.69155 0
M  V30 1037 H 89.5871 0.740407 -0.0296397 0
M  V30 1038 H 92.2341 1.75321 -0.770374 0
M  V30 1039 H 90.5391 3.83597 0.797537 0
M  V30 1040 H 92.2361 3.98621 0.436184 0
M  V30 1041 H 88.8261 4.17116 -0.985499 0
M  V30 1042 H 93.0101 4.59782 -1.86855 0
M  V30 1043 H 88.2661 5.25965 -3.11722 0
M  V30 1044 H 92.4401 5.7 -4.00092 0
M  V30 1045 H 90.0671 6.0287 -4.63089 0
M  V30 1046 N 91.6422 0.330177 1.54103 0
M  V30 1047 C 92.6052 -0.520144 2.2322 0
M  V30 1048 C 93.6052 -1.03828 1.22786 0
M  V30 1049 O 94.7952 -0.929652 1.4732 0
M  V30 1050 C 91.9272 -1.72317 2.94142 0
M  V30 1051 H 93.1202 0.0841605 2.99782 0
M  V30 1052 H 90.6732 0.0813433 1.56088 0
M  V30 1053 H 91.4082 -2.36653 2.21734 0
M  V30 1054 H 91.1932 -1.35898 3.67796 0
M  V30 1055 H 92.6832 -2.3266 3.46784 0
M  V30 1056 N 93.1203 -1.57491 0.0584922 0
M  V30 1057 C 94.3693 -1.92155 -0.613146 0
M  V30 1058 C 94.6823 -0.939334 -1.71569 0
M  V30 1059 O 95.8883 -1.17829 -2.44599 0
M  V30 1060 C 94.3443 -3.41303 -1.14195 0
M  V30 1061 C 93.9523 -4.47944 -0.0711265 0
M  V30 1062 C 95.6963 -3.84988 -1.78841 0
M  V30 1063 C 93.6033 -5.88212 -0.613225 0
M  V30 1064 H 92.5333 -0.717162 -0.232796 0
M  V30 1065 H 95.1843 -1.83049 0.12857 0
M  V30 1066 H 93.5663 -3.45437 -1.93621 0
M  V30 1067 H 94.7403 -4.55408 0.702836 0
M  V30 1068 H 93.0553 -4.13644 0.478313 0
M  V30 1069 H 95.6523 -4.87159 -2.20408 0
M  V30 1070 H 95.9953 -3.21632 -2.64308 0
M  V30 1071 H 96.5283 -3.83401 -1.06059 0
M  V30 1072 H 93.2673 -6.55183 0.203978 0
M  V30 1073 H 92.7873 -5.84294 -1.35501 0
M  V30 1074 H 94.4663 -6.37687 -1.09383 0
M  V30 1075 N 94.5984 0.214957 -1.56127 0
M  V30 1076 C 95.8464 0.936518 -1.79091 0
M  V30 1077 C 96.1674 1.84606 -0.628148 0
M  V30 1078 O 95.4374 1.92664 0.35462 0
M  V30 1079 H 94.0174 0.3488 -0.660566 0
M  V30 1080 H 96.6794 0.22523 -1.93594 0
M  V30 1081 H 95.7754 1.53943 -2.71492 0
M  V30 1082 N 96.0765 1.50051 0.48192 0
M  V30 1083 C 97.3225 1.60736 1.2366 0
M  V30 1084 C 97.6555 0.301786 1.91841 0
M  V30 1085 O 96.9305 -0.696025 1.8162 0
M  V30 1086 C 97.2135 2.78009 2.28874 0
M  V30 1087 C 97.0665 4.18416 1.65069 0
M  V30 1088 C 98.3855 2.90867 3.30279 0
M  V30 1089 H 95.5045 0.585031 0.448228 0
M  V30 1090 H 98.1465 1.82402 0.531946 0
M  V30 1091 H 96.2965 2.59667 2.88973 0
M  V30 1092 H 97.9685 4.48322 1.0865 0
M  V30 1093 H 96.2115 4.23177 0.954148 0
M  V30 1094 H 96.8825 4.96381 2.41474 0
M  V30 1095 H 99.3585 3.07623 2.80191 0
M  V30 1096 H 98.2345 3.74566 4.01238 0
M  V30 1097 H 98.4955 2.01021 3.93755 0
M  V30 1098 N 97.5546 -0.734337 1.39446 0
M  V30 1099 C 98.5176 -1.83004 1.37994 0
M  V30 1100 C 99.5176 -1.58397 0.276938 0
M  V30 1101 O 100.708 -1.65785 0.534875 0
M  V30 1102 C 97.8396 -3.20802 1.1532 0
M  V30 1103 H 99.0326 -1.85694 2.35494 0
M  V30 1104 H 96.5856 -0.938059 1.25021 0
M  V30 1105 H 97.3206 -3.23772 0.185036 0
M  V30 1106 H 97.1056 -3.4006 1.95197 0
M  V30 1107 H 98.5956 -4.00862 1.17046 0
M  V30 1108 N 99.0327 -1.24633 -0.964593 0
M  V30 1109 C 100.261 -1.11501 -1.74285 0
M  V30 1110 C 100.676 0.332165 -1.85855 0
M  V30 1111 O 100.033 1.22903 -1.34911 0
M  V30 1112 C 100.084 -1.75258 -3.16175 0
M  V30 1113 O 99.8047 -3.14318 -3.05182 0
M  V30 1114 C 101.306 -1.67776 -4.10324 0
M  V30 1115 H 98.5257 -0.389407 -0.546446 0
M  V30 1116 H 101.07 -1.64801 -1.21083 0
M  V30 1117 H 99.2247 -1.25954 -3.66353 0
M  V30 1118 H 99.6387 -3.4551 -3.94618 0
M  V30 1119 H 101.113 -2.17064 -5.0753 0
M  V30 1120 H 101.59 -0.639584 -4.34518 0
M  V30 1121 H 102.196 -2.16522 -3.66058 0
M  V30 1122 N 100.511 1.16574 -1.06058 0
M  V30 1123 C 101.759 1.86677 -0.77434 0
M  V30 1124 C 102.08 1.81959 0.701147 0
M  V30 1125 O 101.35 1.2515 1.50713 0
M  V30 1126 H 99.9298 0.691134 -0.283449 0
M  V30 1127 H 102.592 1.41378 -1.34158 0
M  V30 1128 H 101.688 2.92181 -1.09711 0
M  V30 1129 N 101.989 0.842826 1.3317 0
M  V30 1130 C 103.238 0.436738 1.96915 0
M  V30 1131 C 103.551 -1.01025 1.67491 0
M  V30 1132 O 104.757 -1.5212 2.24881 0
M  V30 1133 C 103.213 0.730021 3.52418 0
M  V30 1134 C 102.821 2.19195 3.90714 0
M  V30 1135 C 104.565 0.391076 4.22695 0
M  V30 1136 C 102.472 2.42907 5.39212 0
M  V30 1137 H 101.402 0.15958 0.736919 0
M  V30 1138 H 104.053 1.03196 1.51733 0
M  V30 1139 H 102.435 0.0643755 3.95948 0
M  V30 1140 H 103.609 2.8984 3.58231 0
M  V30 1141 H 101.924 2.49425 3.33431 0
M  V30 1142 H 104.521 0.545817 5.31907 0
M  V30 1143 H 104.864 -0.666294 4.10933 0
M  V30 1144 H 105.397 1.01212 3.84709 0
M  V30 1145 H 102.136 3.47224 5.55982 0
M  V30 1146 H 101.656 1.76827 5.73142 0
M  V30 1147 H 103.335 2.2626 6.06148 0
M  V30 1148 N 103.467 -1.45747 0.599634 0
M  V30 1149 C 104.713 -2.02592 0.0918643 0
M  V30 1150 C 105.046 -1.46806 -1.27128 0
M  V30 1151 O 104.321 -0.639658 -1.83681 0
M  V30 1152 C 104.604 -3.60073 0.0443398 0
M  V30 1153 C 104.457 -4.26208 1.43759 0
M  V30 1154 C 105.776 -4.35309 -0.647608 0
M  V30 1155 H 102.895 -0.736175 0.034857 0
M  V30 1156 H 105.537 -1.73694 0.770081 0
M  V30 1157 H 103.687 -3.84823 -0.533224 0
M  V30 1158 H 105.359 -4.12668 2.06162 0
M  V30 1159 H 103.602 -3.84916 2.00056 0
M  V30 1160 H 104.273 -5.35069 1.35665 0
M  V30 1161 H 106.749 -4.15805 -0.156776 0
M  V30 1162 H 105.625 -5.45038 -0.649942 0
M  V30 1163 H 105.886 -4.07598 -1.71219 0
M  V30 1164 N 104.945 -0.338344 -1.53925 0
M  V30 1165 C 105.877 0.555117 -2.22376 0
M  V30 1166 C 106.89 1.06812 -1.22862 0
M  V30 1167 O 108.079 0.979163 -1.49247 0
M  V30 1168 C 105.179 1.77609 -2.88631 0
M  V30 1169 C 104.352 1.39927 -4.14414 0
M  V30 1170 C 103.411 2.47936 -4.64127 0
M  V30 1171 O 102.437 2.11461 -5.28463 0
M  V30 1172 N 103.639 3.79107 -4.39612 0
M  V30 1173 H 106.404 -0.0310778 -2.99684 0
M  V30 1174 H 103.965 -0.162226 -1.61085 0
M  V30 1175 H 105.957 2.49287 -3.18807 0
M  V30 1176 H 104.527 2.26978 -2.14941 0
M  V30 1177 H 103.747 0.513481 -3.90841 0
M  V30 1178 H 105.035 1.12341 -4.96243 0
M  V30 1179 H 104.433 4.11531 -3.88148 0
M  V30 1180 H 102.99 4.4697 -4.74406 0
M  V30 1181 N 106.423 1.57458 -0.0668435 0
M  V30 1182 C 107.333 2.15937 0.916975 0
M  V30 1183 C 108.349 1.12123 1.33058 0
M  V30 1184 O 109.525 1.44366 1.40429 0
M  V30 1185 C 106.59 2.70547 2.16807 0
M  V30 1186 C 105.651 3.89215 1.81135 0
M  V30 1187 C 104.884 4.41211 3.0028 0
M  V30 1188 O 105.107 3.92225 4.14144 0
M  V30 1189 O 104.041 5.32605 2.80384 0
M  V30 1190 H 107.867 3.00354 0.449561 0
M  V30 1191 H 105.452 1.48584 0.155949 0
M  V30 1192 H 107.334 3.0557 2.90181 0
M  V30 1193 H 106.009 1.89192 2.62656 0
M  V30 1194 H 104.916 3.59054 1.05028 0
M  V30 1195 H 106.249 4.71848 1.40073 0
M  V30 1196 N 107.901 -0.206675 1.56239 0
M  V30 1197 C 109.148 -0.928842 1.79941 0
M  V30 1198 C 109.476 -1.83734 0.638131 0
M  V30 1199 O 108.731 -1.92039 -0.376746 0
M  V30 1200 C 109.03 -1.78675 3.09532 0
M  V30 1201 C 108.696 -1.03022 4.38973 0
M  V30 1202 C 107.358 -0.821302 4.74139 0
M  V30 1203 C 109.71 -0.497081 5.18824 0
M  V30 1204 C 107.038 -0.0675719 5.86661 0
M  V30 1205 C 109.39 0.24338 6.32132 0
M  V30 1206 C 108.054 0.463422 6.65889 0
M  V30 1207 H 107.324 -0.339887 0.658451 0
M  V30 1208 H 109.971 -0.195977 1.90495 0
M  V30 1209 H 108.276 -2.58794 2.94165 0
M  V30 1210 H 109.973 -2.34792 3.25075 0
M  V30 1211 H 106.563 -1.20306 4.11369 0
M  V30 1212 H 110.747 -0.645921 4.92079 0
M  V30 1213 H 106.003 0.112995 6.11296 0
M  V30 1214 H 110.177 0.66393 6.93228 0
M  V30 1215 H 107.804 1.04938 7.52922 0
M  V30 1216 N 109.379 -1.50304 -0.473955 0
M  V30 1217 C 110.311 -1.65109 -1.58971 0
M  V30 1218 C 111.324 -0.532676 -1.53839 0
M  V30 1219 O 112.513 -0.805751 -1.59279 0
M  V30 1220 C 109.613 -1.61684 -2.97845 0
M  V30 1221 C 108.786 -2.8951 -3.27876 0
M  V30 1222 C 107.845 -2.78768 -4.4629 0
M  V30 1223 O 106.871 -3.52722 -4.46739 0
M  V30 1224 N 108.073 -1.9213 -5.47783 0
M  V30 1225 H 110.838 -2.61347 -1.46689 0
M  V30 1226 H 108.399 -1.47732 -0.662324 0
M  V30 1227 H 110.391 -1.52114 -3.75024 0
M  V30 1228 H 108.961 -0.731925 -3.03911 0
M  V30 1229 H 108.181 -3.13228 -2.39336 0
M  V30 1230 H 109.469 -3.74199 -3.4475 0
M  V30 1231 H 108.867 -1.31353 -5.50239 0
M  V30 1232 H 107.424 -1.88466 -6.23958 0
M  V30 1233 N 110.857 0.726932 -1.39834 0
M  V30 1234 C 112.104 1.48664 -1.37496 0
M  V30 1235 C 112.432 1.94482 0.0264678 0
M  V30 1236 O 111.687 1.67692 1.00886 0
M  V30 1237 C 111.986 2.73495 -2.30077 0
M  V30 1238 C 111.652 2.46502 -3.77555 0
M  V30 1239 C 110.314 2.3885 -4.17737 0
M  V30 1240 C 112.666 2.23604 -4.70798 0
M  V30 1241 C 109.994 2.06352 -5.49214 0
M  V30 1242 C 112.346 1.92622 -6.02561 0
M  V30 1243 C 111.01 1.83444 -6.41798 0
M  V30 1244 H 110.28 0.544001 -0.503135 0
M  V30 1245 H 112.927 0.833657 -1.72402 0
M  V30 1246 H 111.232 3.43575 -1.88317 0
M  V30 1247 H 112.929 3.31549 -2.25558 0
M  V30 1248 H 109.519 2.5334 -3.45712 0
M  V30 1249 H 113.703 2.28479 -4.40581 0
M  V30 1250 H 108.959 1.97776 -5.78528 0
M  V30 1251 H 113.133 1.73914 -6.74334 0
M  V30 1252 H 110.76 1.58029 -7.43593 0
M  V30 1253 N 112.336 1.25143 0.95797 0
M  V30 1254 C 113.584 1.09476 1.69881 0
M  V30 1255 C 113.905 -0.365502 1.91544 0
M  V30 1256 O 113.175 -1.25985 1.50015 0
M  V30 1257 H 111.755 0.402128 0.629525 0
M  V30 1258 H 114.417 1.57214 1.15194 0
M  V30 1259 H 113.513 1.60046 2.6794 0
M  V30 1260 N 113.814 -1.1601 1.06675 0
M  V30 1261 C 114.747 -2.1947 0.625168 0
M  V30 1262 C 115.725 -1.58699 -0.354041 0
M  V30 1263 O 116.909 -1.86669 -0.262098 0
M  V30 1264 C 114.036 -3.38598 -0.0829593 0
M  V30 1265 C 113.082 -4.1787 0.853611 0
M  V30 1266 S 113.915 -4.81135 2.35094 0
M  V30 1267 C 115.071 -6.03639 1.65441 0
M  V30 1268 H 115.304 -2.56587 1.50168 0
M  V30 1269 H 112.837 -1.26862 0.880078 0
M  V30 1270 H 114.795 -4.07621 -0.485288 0
M  V30 1271 H 113.456 -2.99839 -0.935716 0
M  V30 1272 H 112.649 -5.03078 0.304755 0
M  V30 1273 H 112.251 -3.54361 1.196 0
M  V30 1274 H 114.543 -6.70632 0.962201 0
M  V30 1275 H 115.486 -6.63081 2.48454 0
M  V30 1276 H 115.894 -5.52965 1.13534 0
M  V30 1277 N 115.292 -0.849877 -1.32721 0
M  V30 1278 C 116.24 -0.279745 -2.30912 0
M  V30 1279 C 117.234 0.594278 -1.58634 0
M  V30 1280 O 118.44 0.482613 -1.73409 0
M  V30 1281 H 114.815 -0.0717521 -0.748569 0
M  V30 1282 H 116.786 -1.12222 -2.76494 0
M  V30 1283 C 115.535 0.521108 -3.43773 0
M  V30 1284 H 114.858 -0.142141 -3.99547 0
M  V30 1285 H 116.298 0.885693 -4.14646 0
M  V30 1286 C 114.757 1.70442 -2.90605 0
M  V30 1287 O 115.287 2.8034 -2.87702 0
M  V30 1288 N 113.493 1.52991 -2.47067 0
M  V30 1289 H 113.04 0.635914 -2.49628 0
M  V30 1290 H 112.998 2.32311 -2.11847 0
M  V30 1291 N 116.77 1.45427 -0.607355 0
M  V30 1292 C 118.016 2.03097 -0.111035 0
M  V30 1293 C 118.371 1.46735 1.24445 0
M  V30 1294 O 117.664 0.632478 1.8086 0
M  V30 1295 C 117.858 3.57398 -0.0129263 0
M  V30 1296 C 117.687 4.28726 -1.35735 0
M  V30 1297 C 116.457 4.66659 -1.93798 0
M  V30 1298 C 118.655 4.60699 -2.28607 0
M  V30 1299 N 116.637 5.22845 -3.21723 0
M  V30 1300 C 118.008 5.17716 -3.41131 0
M  V30 1301 C 120.063 4.42638 -2.27982 0
M  V30 1302 C 118.766 5.58576 -4.53194 0
M  V30 1303 C 120.792 4.84531 -3.39093 0
M  V30 1304 C 120.154 5.4164 -4.50339 0
M  V30 1305 H 116.253 0.777476 -0.083994 0
M  V30 1306 H 118.837 1.77249 -0.805655 0
M  V30 1307 H 117.008 3.82907 0.650914 0
M  V30 1308 H 118.74 4.01722 0.490033 0
M  V30 1309 H 115.495 4.50207 -1.47007 0
M  V30 1310 H 115.919 5.55438 -3.87063 0
M  V30 1311 H 120.561 3.97798 -1.43235 0
M  V30 1312 H 118.279 6.02382 -5.38667 0
M  V30 1313 H 121.865 4.72289 -3.39757 0
M  V30 1314 H 120.745 5.73461 -5.34895 0
M  V30 1315 N 118.248 0.346503 1.53744 0
M  V30 1316 C 119.473 -0.253074 2.0585 0
M  V30 1317 C 119.898 -1.43202 1.21962 0
M  V30 1318 O 119.256 -1.79783 0.234073 0
M  V30 1319 C 119.304 -0.643193 3.54817 0
M  V30 1320 O 118.408 -1.74286 3.73762 0
M  V30 1321 H 117.749 -0.0413583 0.662711 0
M  V30 1322 H 120.279 0.501574 1.98357 0
M  V30 1323 H 120.289 -0.919526 3.97503 0
M  V30 1324 H 118.964 0.218966 4.15323 0
M  V30 1325 H 117.541 -1.46356 3.42979 0
M  V30 1326 N 119.726 -1.57421 0.075193 0
M  V30 1327 C 120.636 -2.1642 -0.905511 0
M  V30 1328 C 121.652 -1.12828 -1.32461 0
M  V30 1329 O 122.828 -1.45109 -1.39661 0
M  V30 1330 C 119.893 -2.71693 -2.15369 0
M  V30 1331 C 118.954 -3.90171 -1.79068 0
M  V30 1332 C 118.187 -4.42798 -2.97936 0
M  V30 1333 O 118.41 -3.94416 -4.12058 0
M  V30 1334 O 117.344 -5.34085 -2.77555 0
M  V30 1335 H 121.17 -3.00588 -0.433626 0
M  V30 1336 H 118.755 -1.48664 -0.148067 0
M  V30 1337 H 120.637 -3.07104 -2.88557 0
M  V30 1338 H 119.312 -1.90582 -2.61649 0
M  V30 1339 H 118.219 -3.59606 -1.03122 0
M  V30 1340 H 119.552 -4.72584 -1.37569 0
M  V30 1341 N 121.204 0.198386 -1.56346 0
M  V30 1342 C 122.434 0.934215 -1.84271 0
M  V30 1343 C 122.842 1.77496 -0.655125 0
M  V30 1344 O 122.185 1.7961 0.385488 0
M  V30 1345 C 122.247 1.88278 -3.06254 0
M  V30 1346 C 121.911 1.22431 -4.40295 0
M  V30 1347 C 122.908 0.602839 -5.16393 0
M  V30 1348 C 120.593 1.22915 -4.87029 0
M  V30 1349 C 122.587 -0.0050083 -6.374 0
M  V30 1350 C 120.274 0.617465 -6.07973 0
M  V30 1351 C 121.272 0.00146341 -6.83 0
M  V30 1352 O 120.96 -0.600642 -8.01653 0
M  V30 1353 H 120.692 0.278245 -0.616081 0
M  V30 1354 H 123.246 0.211626 -2.04307 0
M  V30 1355 H 121.476 2.64498 -2.82095 0
M  V30 1356 H 123.165 2.48612 -3.20853 0
M  V30 1357 H 123.931 0.591265 -4.81382 0
M  V30 1358 H 119.81 1.69801 -4.28589 0
M  V30 1359 H 123.354 -0.48643 -6.95902 0
M  V30 1360 H 119.251 0.62653 -6.42452 0
M  V30 1361 H 120.019 -0.497225 -8.16988 0
M  V30 1362 N 122.682 1.50554 0.465978 0
M  V30 1363 C 123.907 1.65838 1.24549 0
M  V30 1364 C 124.332 0.343486 1.84937 0
M  V30 1365 O 123.69 -0.69324 1.67523 0
M  V30 1366 C 123.738 2.75533 2.32624 0
M  V30 1367 O 122.842 2.37142 3.37398 0
M  V30 1368 H 122.183 0.553893 0.366194 0
M  V30 1369 H 124.713 1.96959 0.553927 0
M  V30 1370 H 124.723 2.98763 2.77857 0
M  V30 1371 H 123.398 3.70962 1.88043 0
M  V30 1372 H 121.975 2.24377 2.97841 0
M  V30 1373 N 124.16 -0.719506 1.40217 0
M  V30 1374 C 125.576 -1.02707 1.22161 0
M  V30 1375 C 125.776 -2.0128 0.0940557 0
M  V30 1376 O 124.832 -2.46452 -0.549318 0
M  V30 1377 C 126.145 -1.57454 2.56181 0
M  V30 1378 C 127.693 -1.69458 2.63159 0
M  V30 1379 C 128.168 -2.27611 3.97438 0
M  V30 1380 N 129.659 -2.35002 3.99159 0
M  V30 1381 C 130.394 -2.80972 4.99842 0
M  V30 1382 N 129.89 -3.26723 6.10921 0
M  V30 1383 N 131.683 -2.80321 4.87213 0
M  V30 1384 H 123.834 -0.0660492 2.12297 0
M  V30 1385 H 126.097 -0.0919077 0.943534 0
M  V30 1386 H 125.803 -0.924873 3.39321 0
M  V30 1387 H 125.677 -2.56036 2.76993 0
M  V30 1388 H 128.064 -2.33543 1.80393 0
M  V30 1389 H 128.145 -0.694867 2.46181 0
M  V30 1390 H 127.789 -1.6415 4.80643 0
M  V30 1391 H 127.719 -3.2829 4.11744 0
M  V30 1392 H 130.21 -2.02685 3.18947 0
M  V30 1393 H 130.523 -3.60355 6.8364 0
M  V30 1394 H 128.868 -3.24692 6.14492 0
M  V30 1395 H 132.059 -2.43912 3.9953 0
M  V30 1396 H 132.232 -3.15831 5.65822 0
M  V30 1397 N 125.638 -1.25649 -0.95132 0
M  V30 1398 C 126.885 -1.10594 -1.69633 0
M  V30 1399 C 127.213 0.352515 -1.91279 0
M  V30 1400 O 126.468 1.27601 -1.4838 0
M  V30 1401 C 126.767 -1.80909 -3.08231 0
M  V30 1402 C 126.433 -3.30825 -3.06375 0
M  V30 1403 C 125.095 -3.71722 -3.05576 0
M  V30 1404 C 127.447 -4.26589 -2.99452 0
M  V30 1405 C 124.775 -5.06788 -2.95606 0
M  V30 1406 C 127.127 -5.61683 -2.91024 0
M  V30 1407 C 125.791 -6.01904 -2.88562 0
M  V30 1408 H 125.061 -0.404691 -0.620731 0
M  V30 1409 H 127.708 -1.55964 -1.11119 0
M  V30 1410 H 126.013 -1.27979 -3.70309 0
M  V30 1411 H 127.71 -1.6671 -3.64704 0
M  V30 1412 H 124.3 -2.98287 -3.07771 0
M  V30 1413 H 128.484 -3.95982 -2.99185 0
M  V30 1414 H 123.74 -5.37126 -2.92071 0
M  V30 1415 H 127.914 -6.35578 -2.84629 0
M  V30 1416 H 125.541 -7.06521 -2.80593 0
M  V30 1417 N 127.117 1.15442 -1.07289 0
M  V30 1418 C 128.363 1.86489 -0.796846 0
M  V30 1419 C 128.696 1.82078 0.675371 0
M  V30 1420 O 127.971 1.24346 1.4956 0
M  V30 1421 C 128.254 3.35626 -1.30489 0
M  V30 1422 C 128.107 3.48673 -2.84161 0
M  V30 1423 C 129.426 4.30357 -0.920907 0
M  V30 1424 H 126.545 0.677144 -0.290939 0
M  V30 1425 H 129.187 1.35633 -1.33056 0
M  V30 1426 H 127.337 3.79068 -0.850883 0
M  V30 1427 H 129.009 3.14099 -3.37846 0
M  V30 1428 H 127.252 2.90253 -3.22391 0
M  V30 1429 H 127.923 4.53453 -3.14777 0
M  V30 1430 H 130.399 3.94871 -1.3121 0
M  V30 1431 H 129.275 5.33193 -1.30372 0
M  V30 1432 H 129.536 4.4176 0.173226 0
M  V30 1433 N 128.595 0.856903 1.32268 0
M  V30 1434 C 129.843 0.460474 1.96784 0
M  V30 1435 C 130.164 -0.987701 1.68135 0
M  V30 1436 O 129.434 -1.69058 0.989765 0
M  V30 1437 H 128.014 0.167289 0.728027 0
M  V30 1438 H 130.676 1.09383 1.61312 0
M  V30 1439 H 129.772 0.60739 3.06133 0
M  V30 1440 N 130.073 -1.45103 0.615059 0
M  V30 1441 C 131.35 -1.95549 0.0448276 0
M  V30 1442 C 131.73 -1.55737 -1.4251 0
M  V30 1443 O 131.078 -0.823556 -2.13143 0
M  V30 1444 C 131.288 -3.48098 0.250785 0
M  V30 1445 C 132.636 -4.24384 0.135509 0
M  V30 1446 O 133.66 -3.55738 0.181299 0
M  V30 1447 O 132.519 -5.46493 0.0268878 0
M  V30 1448 H 129.613 -0.8264 -0.0314845 0
M  V30 1449 H 132.159 -1.55232 0.685642 0
M  V30 1450 H 130.931 -3.7007 1.27139 0
M  V30 1451 H 130.554 -3.95323 -0.424937 0
M  V30 1452 N 131.551 -0.354651 -1.53558 0
M  V30 1453 C 132.797 0.238797 -2.01389 0
M  V30 1454 C 133.13 1.49309 -1.2418 0
M  V30 1455 O 132.405 1.91638 -0.332457 0
M  V30 1456 C 132.688 0.541771 -3.56001 0
M  V30 1457 C 132.541 -0.725388 -4.43912 0
M  V30 1458 C 133.86 1.34685 -4.18984 0
M  V30 1459 H 130.979 0.0853177 -0.732045 0
M  V30 1460 H 133.621 -0.477384 -1.83905 0
M  V30 1461 H 131.771 1.15189 -3.71031 0
M  V30 1462 H 133.443 -1.36313 -4.407 0
M  V30 1463 H 131.686 -1.34801 -4.12324 0
M  V30 1464 H 132.357 -0.468505 -5.50008 0
M  V30 1465 H 134.833 0.830837 -4.07721 0
M  V30 1466 H 133.709 1.52759 -5.27215 0
M  V30 1467 H 133.97 2.35221 -3.74331 0
M  V30 1468 N 133.029 1.57378 -0.0835403 0
M  V30 1469 C 134.276 1.9393 0.58287 0
M  V30 1470 C 134.604 0.964455 1.68904 0
M  V30 1471 O 133.859 -0.0179474 1.95692 0
M  V30 1472 C 134.158 3.37063 1.1884 0
M  V30 1473 C 133.824 4.50424 0.207194 0
M  V30 1474 C 132.486 4.81159 -0.0627115 0
M  V30 1475 C 134.838 5.19136 -0.463426 0
M  V30 1476 C 132.166 5.77939 -1.01012 0
M  V30 1477 C 134.518 6.16931 -1.39924 0
M  V30 1478 C 133.182 6.46078 -1.67749 0
M  V30 1479 H 132.452 0.70964 0.213287 0
M  V30 1480 H 135.099 1.90856 -0.156916 0
M  V30 1481 H 133.404 3.3666 2.00418 0
M  V30 1482 H 135.101 3.6264 1.71153 0
M  V30 1483 H 131.691 4.2646 0.427747 0
M  V30 1484 H 135.875 4.95576 -0.268034 0
M  V30 1485 H 131.131 5.98842 -1.23283 0
M  V30 1486 H 135.305 6.69273 -1.92476 0
M  V30 1487 H 132.932 7.2088 -2.41321 0
M  V30 1488 N 134.507 -0.190092 1.56449 0
M  V30 1489 C 135.755 -0.907908 1.80559 0
M  V30 1490 C 136.076 -1.83583 0.657438 0
M  V30 1491 O 135.346 -1.93203 -0.323924 0
M  V30 1492 H 133.926 -0.338247 0.666032 0
M  V30 1493 H 136.588 -0.194403 1.93928 0
M  V30 1494 H 135.684 -1.49604 2.73907 0
M  V30 1495 N 135.985 -1.50799 -0.457987 0
M  V30 1496 C 136.948 -1.7005 -1.53674 0
M  V30 1497 C 137.948 -0.570881 -1.50325 0
M  V30 1498 O 139.138 -0.838126 -1.52712 0
M  V30 1499 C 136.27 -1.73788 -2.93276 0
M  V30 1500 H 137.463 -2.66306 -1.37917 0
M  V30 1501 H 135.016 -1.40477 -0.685271 0
M  V30 1502 H 135.751 -0.792717 -3.14462 0
M  V30 1503 H 135.536 -2.55864 -2.97113 0
M  V30 1504 H 137.026 -1.90591 -3.71571 0
M  V30 1505 N 137.463 0.71206 -1.40597 0
M  V30 1506 C 138.874 1.29135 -1.34837 0
M  V30 1507 C 139.225 1.96186 -0.0235395 0
M  V30 1508 O 138.35 1.97768 0.878444 0
M  V30 1509 C 138.945 2.34827 -2.44217 0
M  V30 1510 C 137.504 2.88371 -2.41907 0
M  V30 1511 C 136.651 1.62202 -2.24913 0
M  V30 1512 H 139.602 0.507944 -1.50352 0
M  V30 1513 H 139.623 3.15749 -2.12327 0
M  V30 1514 H 139.135 1.85996 -3.40627 0
M  V30 1515 H 137.236 3.41422 -1.49204 0
M  V30 1516 H 137.349 3.39925 -3.37621 0
M  V30 1517 H 135.713 1.874 -1.72492 0
M  V30 1518 H 136.496 1.15391 -3.23326 0
M  V30 1519 N 138.941 1.26152 0.944643 0
M  V30 1520 C 139.871 1.09902 2.06019 0
M  V30 1521 C 140.852 0.00519538 1.70099 0
M  V30 1522 O 142.037 0.176583 1.93396 0
M  V30 1523 C 139.167 0.727562 3.39594 0
M  V30 1524 C 138.121 1.77274 3.89561 0
M  V30 1525 C 137.447 1.25569 5.19747 0
M  V30 1526 C 138.747 3.17357 4.14827 0
M  V30 1527 H 140.441 2.03217 2.19871 0
M  V30 1528 H 137.987 0.978452 1.05652 0
M  V30 1529 H 139.94 0.600777 4.17095 0
M  V30 1530 H 138.664 -0.241287 3.25707 0
M  V30 1531 H 137.323 1.88814 3.14237 0
M  V30 1532 H 136.971 0.276783 5.02238 0
M  V30 1533 H 136.671 1.95433 5.54148 0
M  V30 1534 H 138.195 1.1415 5.99835 0
M  V30 1535 H 139.609 3.08914 4.82954 0
M  V30 1536 H 138.006 3.84781 4.60504 0
M  V30 1537 H 139.076 3.63673 3.20734 0
M  V30 1538 N 140.419 -1.14872 1.07899 0
M  V30 1539 C 141.382 -2.17986 0.708161 0
M  V30 1540 C 142.382 -1.58775 -0.25442 0
M  V30 1541 O 143.572 -1.74166 -0.034645 0
M  V30 1542 C 140.704 -3.40871 0.0446929 0
M  V30 1543 H 141.897 -2.52306 1.62116 0
M  V30 1544 H 139.45 -1.2943 0.876218 0
M  V30 1545 H 140.185 -3.12124 -0.880281 0
M  V30 1546 H 139.97 -3.8511 0.737091 0
M  V30 1547 H 141.46 -4.17121 -0.19991 0
M  V30 1548 N 141.898 -0.863906 -1.31812 0
M  V30 1549 C 142.831 -0.259963 -2.26714 0
M  V30 1550 C 143.809 0.607392 -1.50829 0
M  V30 1551 O 144.993 0.562155 -1.79922 0
M  V30 1552 C 142.12 0.632456 -3.32743 0
M  V30 1553 C 141.166 -0.162743 -4.26189 0
M  V30 1554 S 141.999 -1.53726 -5.12961 0
M  V30 1555 C 143.155 -0.650803 -6.22507 0
M  V30 1556 H 143.388 -1.06445 -2.77591 0
M  V30 1557 H 140.921 -0.662071 -1.39485 0
M  V30 1558 H 142.879 1.14167 -3.94305 0
M  V30 1559 H 141.54 1.41083 -2.80632 0
M  V30 1560 H 140.733 0.517366 -5.01338 0
M  V30 1561 H 140.335 -0.60385 -3.69093 0
M  V30 1562 H 142.627 0.141134 -6.77353 0
M  V30 1563 H 143.57 -1.37322 -6.94657 0
M  V30 1564 H 143.978 -0.221041 -5.64067 0
M  V30 1565 N 143.376 1.44774 -0.622745 0
M  V30 1566 C 144.286 2.34433 0.0886031 0
M  V30 1567 C 145.302 1.52131 0.844529 0
M  V30 1568 O 146.478 1.84886 0.798691 0
M  V30 1569 C 143.543 3.29986 1.0635 0
M  V30 1570 C 142.604 4.28195 0.307873 0
M  V30 1571 C 141.837 5.19183 1.23633 0
M  V30 1572 O 142.06 5.13918 2.47476 0
M  V30 1573 O 140.994 5.97515 0.725189 0
M  V30 1574 H 144.82 2.96693 -0.648599 0
M  V30 1575 H 142.405 1.44408 -0.382957 0
M  V30 1576 H 144.287 3.88825 1.6246 0
M  V30 1577 H 142.962 2.70269 1.78146 0
M  V30 1578 H 141.869 3.72927 -0.296064 0
M  V30 1579 H 143.202 4.90808 -0.3699 0
M  V30 1580 N 144.854 0.36279 1.53368 0
M  V30 1581 C 146.102 -0.227326 2.00817 0
M  V30 1582 C 146.423 -1.49511 1.25186 0
M  V30 1583 O 145.693 -1.92482 0.364348 0
M  V30 1584 H 144.273 -0.0869923 0.741917 0
M  V30 1585 H 146.935 0.488381 1.88682 0
M  V30 1586 H 146.031 -0.456273 3.08747 0
M  V30 1587 N 146.332 -1.57332 0.0918853 0
M  V30 1588 C 147.262 -2.16872 -0.865371 0
M  V30 1589 C 148.243 -1.10118 -1.29646 0
M  V30 1590 O 149.428 -1.38242 -1.36392 0
M  V30 1591 C 146.558 -2.74649 -2.12569 0
M  V30 1592 C 145.512 -3.86747 -1.83333 0
M  V30 1593 C 144.838 -4.31212 -3.16166 0
M  V30 1594 C 146.138 -5.10089 -1.1228 0
M  V30 1595 H 147.832 -2.97114 -0.369307 0
M  V30 1596 H 145.378 -1.42918 -0.176194 0
M  V30 1597 H 147.331 -3.14952 -2.7997 0
M  V30 1598 H 146.055 -1.91657 -2.64452 0
M  V30 1599 H 144.714 -3.46978 -1.18331 0
M  V30 1600 H 144.362 -3.45115 -3.6593 0
M  V30 1601 H 144.062 -5.06788 -2.97388 0
M  V30 1602 H 145.586 -4.74146 -3.84731 0
M  V30 1603 H 147 -5.47582 -1.69785 0
M  V30 1604 H 145.397 -5.91073 -1.03693 0
M  V30 1605 H 146.467 -4.84786 -0.105041 0
M  V30 1606 N 147.81 0.181792 -1.56548 0
M  V30 1607 C 148.773 1.20894 -1.94724 0
M  V30 1608 C 149.773 1.37738 -0.829747 0
M  V30 1609 O 150.963 1.35323 -1.09697 0
M  V30 1610 C 148.095 2.57593 -2.23291 0
M  V30 1611 H 149.288 0.882275 -2.86629 0
M  V30 1612 H 146.841 0.423838 -1.50444 0
M  V30 1613 H 147.576 2.95291 -1.34067 0
M  V30 1614 H 147.361 2.46735 -3.04736 0
M  V30 1615 H 148.851 3.31637 -2.53785 0
M  V30 1616 N 149.288 1.51039 0.449983 0
M  V30 1617 C 150.251 1.70863 1.5277 0
M  V30 1618 C 151.251 0.578846 1.5002 0
M  V30 1619 O 152.441 0.846213 1.52266 0
M  V30 1620 C 149.573 1.75341 2.9235 0
M  V30 1621 H 150.766 2.67034 1.36502 0
M  V30 1622 H 148.319 1.40838 0.677812 0
M  V30 1623 H 149.054 0.809383 3.14037 0
M  V30 1624 H 148.839 2.57436 2.95752 0
M  V30 1625 H 150.329 1.92559 3.70555 0
M  V30 1626 N 150.766 -0.704594 1.40972 0
M  V30 1627 C 152.013 -1.46458 1.39844 0
M  V30 1628 C 152.341 -1.94499 0.00447594 0
M  V30 1629 O 151.596 -1.69275 -0.982057 0
M  V30 1630 C 151.895 -2.698 2.34399 0
M  V30 1631 C 151.561 -2.40464 3.81429 0
M  V30 1632 C 150.223 -2.32174 4.21484 0
M  V30 1633 C 152.575 -2.16086 4.74296 0
M  V30 1634 C 149.903 -1.97589 5.52427 0
M  V30 1635 C 152.255 -1.83011 6.05549 0
M  V30 1636 C 150.919 -1.7321 6.44635 0
M  V30 1637 H 150.189 -0.535927 0.511725 0
M  V30 1638 H 152.836 -0.806124 1.73706 0
M  V30 1639 H 151.141 -3.40536 1.93759 0
M  V30 1640 H 152.838 -3.27919 2.30804 0
M  V30 1641 H 149.428 -2.47808 3.49699 0
M  V30 1642 H 153.612 -2.2144 4.4416 0
M  V30 1643 H 148.868 -1.88547 5.81601 0
M  V30 1644 H 153.042 -1.63164 6.77016 0
M  V30 1645 H 150.669 -1.46179 7.46013 0
M  V30 1646 N 152.244 -1.26651 -0.937939 0
M  V30 1647 C 153.491 -1.12387 -1.6845 0
M  V30 1648 C 153.819 0.332208 -1.91642 0
M  V30 1649 O 153.074 1.2602 -1.49725 0
M  V30 1650 C 153.373 -1.84168 -3.06295 0
M  V30 1651 C 153.039 -3.34056 -3.02849 0
M  V30 1652 C 151.701 -3.74942 -3.01616 0
M  V30 1653 C 154.053 -4.29741 -2.9491 0
M  V30 1654 C 151.381 -5.09894 -2.90215 0
M  V30 1655 C 153.733 -5.64738 -2.8505 0
M  V30 1656 C 152.397 -6.0493 -2.82162 0
M  V30 1657 H 151.667 -0.411252 -0.616403 0
M  V30 1658 H 154.314 -1.57134 -1.09459 0
M  V30 1659 H 152.619 -1.319 -3.6893 0
M  V30 1660 H 154.316 -1.70569 -3.62915 0
M  V30 1661 H 150.906 -3.01534 -3.0459 0
M  V30 1662 H 155.09 -3.99133 -2.94969 0
M  V30 1663 H 150.346 -5.40194 -2.86358 0
M  V30 1664 H 154.52 -6.38561 -2.77872 0
M  V30 1665 H 152.147 -7.09457 -2.73084 0
M  V30 1666 N 153.722 1.14298 -1.08507 0
M  V30 1667 C 154.969 1.85359 -0.815373 0
M  V30 1668 C 155.297 1.83001 0.658865 0
M  V30 1669 O 154.552 1.25655 1.50031 0
M  V30 1670 C 154.851 3.33547 -1.28379 0
M  V30 1671 C 154.517 3.56093 -2.76602 0
M  V30 1672 C 153.179 3.61955 -3.17084 0
M  V30 1673 C 155.531 3.64834 -3.72217 0
M  V30 1674 C 152.859 3.74082 -4.51973 0
M  V30 1675 C 155.211 3.78487 -5.06883 0
M  V30 1676 C 153.875 3.82598 -5.46969 0
M  V30 1677 H 153.145 0.678276 -0.298366 0
M  V30 1678 H 155.792 1.35002 -1.35819 0
M  V30 1679 H 154.097 3.86191 -0.660593 0
M  V30 1680 H 155.794 3.86959 -1.05186 0
M  V30 1681 H 152.384 3.52179 -2.4427 0
M  V30 1682 H 156.568 3.59595 -3.42061 0
M  V30 1683 H 151.824 3.75527 -4.82483 0
M  V30 1684 H 155.998 3.84193 -5.80834 0
M  V30 1685 H 153.625 3.91747 -6.51489 0
M  V30 1686 N 155.201 0.870884 1.31352 0
M  V30 1687 C 156.111 0.330783 2.32256 0
M  V30 1688 C 157.127 -0.559767 1.6475 0
M  V30 1689 O 158.303 -0.456263 1.96164 0
M  V30 1690 C 155.368 -0.458137 3.4366 0
M  V30 1691 C 154.429 0.460482 4.26823 0
M  V30 1692 C 153.662 -0.290881 5.32907 0
M  V30 1693 O 153.885 -1.51885 5.49806 0
M  V30 1694 O 152.819 0.351732 6.00871 0
M  V30 1695 H 156.645 1.16718 2.80376 0
M  V30 1696 H 154.23 0.634285 1.35267 0
M  V30 1697 H 156.112 -0.905343 4.1156 0
M  V30 1698 H 154.787 -1.27106 2.97701 0
M  V30 1699 H 153.694 0.956207 3.61673 0
M  V30 1700 H 155.027 1.23903 4.7635 0
M  V30 1701 N 156.679 -1.44442 0.630414 0
M  V30 1702 C 157.904 -2.06927 0.139944 0
M  V30 1703 C 158.329 -1.46795 -1.17613 0
M  V30 1704 O 157.687 -0.569144 -1.72135 0
M  V30 1705 C 157.735 -3.6058 0.0379581 0
M  V30 1706 O 156.839 -3.99937 -1.0062 0
M  V30 1707 H 156.18 -0.658608 0.0844483 0
M  V30 1708 H 158.71 -1.85327 0.866891 0
M  V30 1709 H 158.72 -4.07714 -0.152856 0
M  V30 1710 H 157.395 -4.03728 0.998809 0
M  V30 1711 H 155.972 -3.64436 -0.79001 0
M  V30 1712 N 158.157 -0.370918 -1.53173 0
M  V30 1713 C 159.385 0.217704 -2.05751 0
M  V30 1714 C 159.8 1.42018 -1.24404 0
M  V30 1715 O 159.157 1.80245 -0.286033 0
M  V30 1716 C 159.208 0.605954 -3.56385 0
M  V30 1717 O 158.929 -0.548734 -4.3465 0
M  V30 1718 C 160.43 1.2524 -4.25241 0
M  V30 1719 H 157.65 0.0371659 -0.66997 0
M  V30 1720 H 160.194 -0.530832 -1.9749 0
M  V30 1721 H 158.349 1.3044 -3.6478 0
M  V30 1722 H 158.763 -0.23376 -5.23979 0
M  V30 1723 H 160.237 1.47458 -5.3194 0
M  V30 1724 H 160.714 2.2143 -3.79296 0
M  V30 1725 H 161.32 0.595233 -4.21114 0
M  V30 1726 N 159.635 1.57281 -0.100228 0
M  V30 1727 C 160.882 1.94537 0.562268 0
M  V30 1728 C 161.21 0.982315 1.67871 0
M  V30 1729 O 160.465 0.00280936 1.957 0
M  V30 1730 C 160.764 3.38305 1.15259 0
M  V30 1731 C 160.43 4.50618 0.159409 0
M  V30 1732 C 159.092 4.81066 -0.113741 0
M  V30 1733 C 161.444 5.18615 -0.518461 0
M  V30 1734 C 158.772 5.76835 -1.07137 0
M  V30 1735 C 161.124 6.15412 -1.46459 0
M  V30 1736 C 159.788 6.44262 -1.74592 0
M  V30 1737 H 159.058 0.711863 0.205748 0
M  V30 1738 H 161.705 1.90679 -0.17715 0
M  V30 1739 H 160.01 3.38766 1.96836 0
M  V30 1740 H 161.707 3.64435 1.67297 0
M  V30 1741 H 158.297 4.2689 0.382491 0
M  V30 1742 H 162.481 4.95264 -0.320581 0
M  V30 1743 H 157.737 5.975 -1.29628 0
M  V30 1744 H 161.911 6.67194 -1.99564 0
M  V30 1745 H 159.538 7.1828 -2.48953 0
M  V30 1746 N 161.113 -0.173488 1.56642 0
M  V30 1747 C 162.362 -0.888758 1.81063 0
M  V30 1748 C 162.675 -1.83506 0.67712 0
M  V30 1749 O 163.881 -2.59254 0.806206 0
M  V30 1750 C 162.337 -1.63091 3.20826 0
M  V30 1751 C 161.945 -0.728357 4.4204 0
M  V30 1752 C 163.689 -2.33454 3.54541 0
M  V30 1753 C 161.596 -1.47062 5.72823 0
M  V30 1754 H 160.526 -0.335618 0.675186 0
M  V30 1755 H 163.177 -0.141712 1.82952 0
M  V30 1756 H 161.559 -2.42263 3.13248 0
M  V30 1757 H 162.733 0.0262449 4.60793 0
M  V30 1758 H 161.048 -0.134492 4.16183 0
M  V30 1759 H 163.645 -2.89578 4.49498 0
M  V30 1760 H 163.988 -3.08687 2.79317 0
M  V30 1761 H 164.521 -1.61227 3.63663 0
M  V30 1762 H 161.26 -0.760658 6.51072 0
M  V30 1763 H 160.78 -2.1986 5.58052 0
M  V30 1764 H 162.459 -2.01868 6.14702 0
M  V30 1765 N 162.591 -1.51276 -0.441967 0
M  V30 1766 C 163.839 -1.63392 -1.18943 0
M  V30 1767 C 164.16 -0.350159 -1.9183 0
M  V30 1768 O 163.43 0.633784 -1.85364 0
M  V30 1769 H 162.01 -0.602164 -0.442049 0
M  V30 1770 H 164.672 -1.88186 -0.507165 0
M  V30 1771 H 163.768 -2.45934 -1.92154 0
M  V30 1772 N 164.069 0.697108 -1.41344 0
M  V30 1773 C 164.999 1.82353 -1.45841 0
M  V30 1774 C 165.98 1.67115 -0.317247 0
M  V30 1775 O 167.165 1.86871 -0.528474 0
M  V30 1776 C 164.295 3.20476 -1.33838 0
M  V30 1777 C 163.249 3.50415 -2.4575 0
M  V30 1778 C 162.575 4.87878 -2.18813 0
M  V30 1779 C 163.875 3.49546 -3.88091 0
M  V30 1780 H 165.569 1.78846 -2.40113 0
M  V30 1781 H 163.115 0.859028 -1.15571 0
M  V30 1782 H 165.068 3.98988 -1.35596 0
M  V30 1783 H 163.792 3.24604 -0.360498 0
M  V30 1784 H 162.451 2.74253 -2.43271 0
M  V30 1785 H 162.099 4.8863 -1.19371 0
M  V30 1786 H 161.799 5.08875 -2.93803 0
M  V30 1787 H 163.323 5.68702 -2.22284 0
M  V30 1788 H 164.737 4.18066 -3.92293 0
M  V30 1789 H 163.134 3.82075 -4.62751 0
M  V30 1790 H 164.204 2.48552 -4.16353 0
M  V30 1791 N 165.547 1.27147 0.931209 0
M  V30 1792 C 166.793 1.14455 1.68141 0
M  V30 1793 C 167.148 -0.307172 1.89932 0
M  V30 1794 O 166.441 -1.22158 1.47607 0
M  V30 1795 C 166.635 1.8579 3.05314 0
M  V30 1796 C 166.464 3.3775 2.96909 0
M  V30 1797 C 165.234 4.07062 2.99381 0
M  V30 1798 C 167.432 4.33783 2.76291 0
M  V30 1799 N 165.414 5.45618 2.8138 0
M  V30 1800 C 166.785 5.59582 2.6696 0
M  V30 1801 C 168.84 4.23915 2.61152 0
M  V30 1802 C 167.543 6.76639 2.44033 0
M  V30 1803 C 169.569 5.40689 2.39602 0
M  V30 1804 C 168.931 6.65443 2.3101 0
M  V30 1805 H 165.03 0.473667 0.622225 0
M  V30 1806 H 167.614 1.60568 1.10118 0
M  V30 1807 H 165.785 1.42138 3.61457 0
M  V30 1808 H 167.517 1.65634 3.69253 0
M  V30 1809 H 164.272 3.585 3.09475 0
M  V30 1810 H 164.696 6.184 2.75519 0
M  V30 1811 H 169.338 3.28189 2.66555 0
M  V30 1812 H 167.056 7.72451 2.3737 0
M  V30 1813 H 170.642 5.34932 2.28778 0
M  V30 1814 H 169.522 7.54277 2.14558 0
M  V30 1815 N 167.025 -1.13721 1.09112 0
M  V30 1816 C 168.274 -1.84275 0.82009 0
M  V30 1817 C 168.587 -1.84253 -0.656509 0
M  V30 1818 O 169.793 -2.50668 -1.04296 0
M  V30 1819 C 168.249 -3.30825 1.41714 0
M  V30 1820 C 167.857 -3.39244 2.92605 0
M  V30 1821 C 169.601 -4.06443 1.22492 0
M  V30 1822 C 167.508 -4.80047 3.45411 0
M  V30 1823 H 166.438 -0.690387 0.30312 0
M  V30 1824 H 169.089 -1.28146 1.31343 0
M  V30 1825 H 167.471 -3.86737 0.851498 0
M  V30 1826 H 168.645 -2.93344 3.55367 0
M  V30 1827 H 166.96 -2.77088 3.10823 0
M  V30 1828 H 169.557 -5.10387 1.59402 0
M  V30 1829 H 169.9 -4.15972 0.165299 0
M  V30 1830 H 170.433 -3.56852 1.75788 0
M  V30 1831 H 167.172 -4.75709 4.50978 0
M  V30 1832 H 166.692 -5.26455 2.87411 0
M  V30 1833 H 168.371 -5.48957 3.42425 0
M  V30 1834 N 168.503 -0.877838 -1.30888 0
M  V30 1835 C 169.75 -0.492696 -1.96415 0
M  V30 1836 C 170.078 0.956671 -1.69346 0
M  V30 1837 O 169.333 1.68993 -0.986913 0
M  V30 1838 C 169.632 -0.705748 -3.50363 0
M  V30 1839 C 169.298 -2.1291 -3.97467 0
M  V30 1840 C 167.96 -2.51834 -4.1004 0
M  V30 1841 C 170.312 -3.05702 -4.22132 0
M  V30 1842 C 167.64 -3.82775 -4.44635 0
M  V30 1843 C 169.992 -4.36166 -4.58194 0
M  V30 1844 C 168.656 -4.74993 -4.68975 0
M  V30 1845 H 167.926 -0.18029 -0.718733 0
M  V30 1846 H 170.573 -1.11233 -1.55883 0
M  V30 1847 H 168.878 -0.00303058 -3.918 0
M  V30 1848 H 170.575 -0.387456 -3.99124 0
M  V30 1849 H 167.165 -1.81694 -3.88182 0
M  V30 1850 H 171.349 -2.76853 -4.11906 0
M  V30 1851 H 166.605 -4.12609 -4.51181 0
M  V30 1852 H 170.779 -5.08111 -4.76231 0
M  V30 1853 H 168.406 -5.76495 -4.95537 0
M  V30 1854 N 169.982 1.44106 -0.638065 0
M  V30 1855 C 171.23 2.01579 -0.145043 0
M  V30 1856 C 171.551 1.50496 1.24 0
M  V30 1857 O 170.821 0.711374 1.82527 0
M  V30 1858 H 169.401 0.745282 -0.05063 0
M  V30 1859 H 172.063 1.76516 -0.826327 0
M  V30 1860 H 171.159 3.11877 -0.118039 0
M  V30 1861 N 171.46 0.379036 1.52974 0
M  V30 1862 C 172.706 -0.199244 2.02422 0
M  V30 1863 C 173.061 -1.4532 1.26095 0
M  V30 1864 O 172.354 -1.88377 0.34996 0
M  V30 1865 C 172.548 -0.53096 3.53434 0
M  V30 1866 C 172.377 0.689298 4.44386 0
M  V30 1867 C 171.147 1.20546 4.9071 0
M  V30 1868 C 173.345 1.55856 4.90116 0
M  V30 1869 N 171.327 2.38434 5.65705 0
M  V30 1870 C 172.698 2.58396 5.63588 0
M  V30 1871 C 174.753 1.57986 4.7217 0
M  V30 1872 C 173.456 3.62939 6.21022 0
M  V30 1873 C 175.482 2.6143 5.30479 0
M  V30 1874 C 174.844 3.62693 6.03849 0
M  V30 1875 H 170.943 -0.0352671 0.781204 0
M  V30 1876 H 173.527 0.526614 1.87443 0
M  V30 1877 H 171.698 -1.22588 3.68547 0
M  V30 1878 H 173.43 -1.0955 3.89591 0
M  V30 1879 H 170.185 0.768022 4.67331 0
M  V30 1880 H 170.609 2.98055 6.07859 0
M  V30 1881 H 175.251 0.810475 4.14959 0
M  V30 1882 H 172.969 4.40751 6.77321 0
M  V30 1883 H 176.555 2.63949 5.18481 0
M  V30 1884 H 175.435 4.41424 6.48163 0
M  V30 1885 N 172.938 -1.57226 0.108567 0
M  V30 1886 C 173.886 -2.16002 -0.862885 0
M  V30 1887 C 174.88 -1.10644 -1.28274 0
M  V30 1888 O 176.086 -1.28966 -1.2557 0
M  V30 1889 H 172.461 -0.691148 -0.296342 0
M  V30 1890 H 174.432 -2.96427 -0.342575 0
M  V30 1891 C 173.181 -2.76576 -2.10716 0
M  V30 1892 H 172.504 -3.5734 -1.793 0
M  V30 1893 H 173.944 -3.21253 -2.76717 0
M  V30 1894 C 172.403 -1.73137 -2.89007 0
M  V30 1895 O 172.933 -1.17842 -3.84026 0
M  V30 1896 N 171.139 -1.43317 -2.52801 0
M  V30 1897 H 170.686 -1.88473 -1.75601 0
M  V30 1898 H 170.644 -0.743485 -3.05483 0
M  V30 1899 N 174.416 0.165178 -1.56732 0
M  V30 1900 C 175.832 0.517174 -1.50988 0
M  V30 1901 C 176.032 1.84331 -0.813894 0
M  V30 1902 O 175.088 2.49672 -0.37682 0
M  V30 1903 C 176.401 0.544261 -2.95733 0
M  V30 1904 C 177.949 0.631039 -3.06573 0
M  V30 1905 C 178.424 0.68896 -4.52788 0
M  V30 1906 N 179.915 0.751683 -4.5706 0
M  V30 1907 C 180.65 0.817177 -5.67547 0
M  V30 1908 N 180.146 0.843129 -6.8765 0
M  V30 1909 N 181.939 0.856668 -5.55534 0
M  V30 1910 H 174.09 -0.704318 -2.00382 0
M  V30 1911 H 176.353 -0.254687 -0.913148 0
M  V30 1912 H 176.059 -0.361607 -3.49836 0
M  V30 1913 H 175.933 1.3886 -3.5071 0
M  V30 1914 H 178.32 1.52733 -2.52501 0
M  V30 1915 H 178.401 -0.240095 -2.54671 0
M  V30 1916 H 178.045 -0.2031 -5.07494 0
M  V30 1917 H 177.975 1.57633 -5.02454 0
M  V30 1918 H 180.466 0.739661 -3.70591 0
M  V30 1919 H 180.779 0.894448 -7.67606 0
M  V30 1920 H 179.124 0.811304 -6.90248 0
M  V30 1921 H 182.315 0.833437 -4.60621 0
M  V30 1922 H 182.488 0.904247 -6.4166 0
M  V30 1923 N 175.894 1.51508 0.433938 0
M  V30 1924 C 176.824 1.76016 1.53429 0
M  V30 1925 C 177.805 0.610112 1.58782 0
M  V30 1926 O 178.99 0.853177 1.74455 0
M  V30 1927 C 176.12 1.88831 2.9148 0
M  V30 1928 C 175.074 3.04288 3.00987 0
M  V30 1929 C 174.4 3.0229 4.4105 0
M  V30 1930 C 175.7 4.44193 2.74754 0
M  V30 1931 H 177.394 2.68152 1.33171 0
M  V30 1932 H 174.94 1.29035 0.639214 0
M  V30 1933 H 176.893 2.04559 3.6842 0
M  V30 1934 H 175.617 0.933455 3.12976 0
M  V30 1935 H 174.276 2.8827 2.26486 0
M  V30 1936 H 173.924 2.04576 4.59519 0
M  V30 1937 H 173.624 3.79822 4.4834 0
M  V30 1938 H 175.148 3.20116 5.1996 0
M  V30 1939 H 176.562 4.60544 3.41426 0
M  V30 1940 H 174.959 5.23457 2.9345 0
M  V30 1941 H 176.029 4.53996 1.70339 0
M  V30 1942 N 177.372 -0.689602 1.41712 0
M  V30 1943 C 178.783 -1.26973 1.36875 0
M  V30 1944 C 179.134 -1.96124 0.054748 0
M  V30 1945 O 178.259 -1.99141 -0.84687 0
M  V30 1946 C 178.854 -2.30912 2.47922 0
M  V30 1947 C 177.413 -2.84486 2.46464 0
M  V30 1948 C 176.56 -1.58603 2.27465 0
M  V30 1949 H 179.511 -0.48396 1.51141 0
M  V30 1950 H 179.532 -3.12331 2.17323 0
M  V30 1951 H 179.044 -1.80554 3.43543 0
M  V30 1952 H 177.145 -3.39005 1.54617 0
M  V30 1953 H 177.258 -3.34511 3.42986 0
M  V30 1954 H 175.622 -1.84632 1.75451 0
M  V30 1955 H 176.405 -1.10233 3.25121 0
M  V30 1956 N 178.85 -1.27639 -0.924453 0
M  V30 1957 C 180.266 -1.05113 -1.20097 0
M  V30 1958 C 180.466 0.213262 -2.00368 0
M  V30 1959 O 179.522 0.91787 -2.35226 0
M  V30 1960 C 180.835 -2.29244 -1.94596 0
M  V30 1961 C 182.383 -2.34315 -2.07522 0
M  V30 1962 C 182.858 -3.58183 -2.85427 0
M  V30 1963 N 184.349 -3.5876 -2.92994 0
M  V30 1964 C 185.084 -4.51277 -3.53746 0
M  V30 1965 N 184.58 -5.54102 -4.15863 0
M  V30 1966 N 186.373 -4.38894 -3.51181 0
M  V30 1967 H 178.524 -2.08821 -0.388264 0
M  V30 1968 H 180.787 -0.918568 -0.234385 0
M  V30 1969 H 180.493 -3.21301 -1.43034 0
M  V30 1970 H 180.367 -2.34816 -2.95197 0
M  V30 1971 H 182.754 -1.42762 -2.58269 0
M  V30 1972 H 182.835 -2.32744 -1.06131 0
M  V30 1973 H 182.479 -4.50074 -2.35363 0
M  V30 1974 H 182.409 -3.57006 -3.8711 0
M  V30 1975 H 184.9 -2.84398 -2.4885 0
M  V30 1976 H 185.213 -6.20859 -4.60168 0
M  V30 1977 H 183.558 -5.57941 -4.144 0
M  V30 1978 H 186.749 -3.57772 -3.01856 0
M  V30 1979 H 186.922 -5.11186 -3.98237 0
M  V30 1980 N 180.328 1.1314 -1.09713 0
M  V30 1981 C 181.258 2.20748 -0.761102 0
M  V30 1982 C 182.239 1.68061 0.262566 0
M  V30 1983 O 183.424 1.93765 0.129977 0
M  V30 1984 C 180.554 3.46812 -0.184054 0
M  V30 1985 C 179.508 4.12606 -1.13757 0
M  V30 1986 C 178.834 5.33031 -0.422083 0
M  V30 1987 C 180.134 4.59603 -2.48118 0
M  V30 1988 H 181.828 2.49113 -1.66082 0
M  V30 1989 H 179.374 1.19734 -0.799987 0
M  V30 1990 H 181.327 4.21353 0.0631215 0
M  V30 1991 H 180.051 3.17851 0.750868 0
M  V30 1992 H 178.71 3.40036 -1.37007 0
M  V30 1993 H 178.358 5.00335 0.517072 0
M  V30 1994 H 178.058 5.77999 -1.05788 0
M  V30 1995 H 179.582 6.10325 -0.183277 0
M  V30 1996 H 180.996 5.25552 -2.29059 0
M  V30 1997 H 179.393 5.15321 -3.07514 0
M  V30 1998 H 180.463 3.73971 -3.08665 0
M  V30 1999 N 181.806 0.884767 1.30421 0
M  V30 2000 C 183.052 0.503851 1.96441 0
M  V30 2001 C 183.385 -0.944518 1.69684 0
M  V30 2002 O 182.66 -1.66737 1.00145 0
M  V30 2003 C 182.943 0.779085 3.51571 0
M  V30 2004 C 182.796 2.27807 3.87846 0
M  V30 2005 C 184.115 0.255452 4.39358 0
M  V30 2006 H 181.234 0.184533 0.713524 0
M  V30 2007 H 183.876 1.10872 1.54297 0
M  V30 2008 H 182.026 0.264274 3.876 0
M  V30 2009 H 183.698 2.86127 3.61841 0
M  V30 2010 H 181.941 2.74479 3.35922 0
M  V30 2011 H 182.612 2.42125 4.96064 0
M  V30 2012 H 185.088 0.696079 4.10236 0
M  V30 2013 H 183.964 0.477361 5.4682 0
M  V30 2014 H 184.225 -0.843293 4.33983 0
M  V30 2015 N 183.284 -1.43765 0.645699 0
M  V30 2016 C 184.234 -2.27884 -0.0726442 0
M  V30 2017 C 185.218 -1.39483 -0.802086 0
M  V30 2018 O 186.41 -1.63174 -0.685791 0
M  V30 2019 C 183.539 -3.27055 -1.04356 0
M  V30 2020 C 182.625 -4.22944 -0.312985 0
M  V30 2021 N 183.016 -5.01391 0.666386 0
M  V30 2022 C 181.314 -4.42528 -0.55546 0
M  V30 2023 C 182.015 -5.71217 1.09935 0
M  V30 2024 N 180.991 -5.41856 0.435137 0
M  V30 2025 H 184.793 -2.85949 0.678988 0
M  V30 2026 H 182.307 -1.55378 0.472368 0
M  V30 2027 H 184.304 -3.86089 -1.57292 0
M  V30 2028 H 182.964 -2.70551 -1.79534 0
M  V30 2029 H 183.975 -5.07252 1.04481 0
M  V30 2030 H 180.652 -3.97104 -1.28899 0
M  V30 2031 H 182.042 -6.44202 1.90929 0
M  V30 2032 N 184.763 -0.387143 -1.52771 0
M  V30 2033 C 185.693 0.440551 -2.29306 0
M  V30 2034 C 186.674 1.06535 -1.32606 0
M  V30 2035 O 187.859 1.07853 -1.61497 0
M  V30 2036 C 184.989 1.56919 -3.09829 0
M  V30 2037 C 183.943 1.07054 -4.14395 0
M  V30 2038 C 183.269 2.29109 -4.83129 0
M  V30 2039 C 184.569 0.140015 -5.22112 0
M  V30 2040 H 186.263 -0.198026 -2.98744 0
M  V30 2041 H 183.809 -0.09668 -1.43675 0
M  V30 2042 H 185.762 2.15503 -3.62128 0
M  V30 2043 H 184.486 2.23532 -2.3812 0
M  V30 2044 H 183.145 0.507247 -3.63074 0
M  V30 2045 H 182.793 2.94227 -4.0797 0
M  V30 2046 H 182.493 1.96406 -5.53804 0
M  V30 2047 H 184.017 2.88339 -5.38231 0
M  V30 2048 H 185.431 0.633978 -5.69784 0
M  V30 2049 H 183.828 -0.0971485 -6.00021 0
M  V30 2050 H 184.898 -0.811711 -4.78058 0
M  V30 2051 N 186.241 1.57166 -0.116904 0
M  V30 2052 C 187.204 2.14039 0.819742 0
M  V30 2053 C 188.204 1.07477 1.19605 0
M  V30 2054 O 189.394 1.33263 1.1219 0
M  V30 2055 C 186.526 2.67891 2.10826 0
M  V30 2056 H 187.719 2.98128 0.325511 0
M  V30 2057 H 185.272 1.55739 0.132312 0
M  V30 2058 H 186.007 1.87384 2.64685 0
M  V30 2059 H 185.792 3.45823 1.84793 0
M  V30 2060 H 187.282 3.11809 2.77785 0
M  V30 2061 N 187.719 -0.156864 1.56817 0
M  V30 2062 C 188.959 -0.877453 1.84608 0
M  V30 2063 C 189.323 -1.78791 0.699845 0
M  V30 2064 O 190.524 -2.5472 0.858553 0
M  V30 2065 C 188.795 -1.63992 3.17555 0
M  V30 2066 S 190.354 -2.40729 3.66872 0
M  V30 2067 H 187.172 -0.293612 0.647544 0
M  V30 2068 H 189.774 -0.138099 1.95012 0
M  V30 2069 H 188.478 -0.962363 3.98957 0
M  V30 2070 H 188.009 -2.42038 3.10131 0
M  V30 2071 H 190.024 -3.65725 3.3535 0
M  V30 2072 N 189.197 -1.51736 -0.425897 0
M  V30 2073 C 190.446 -1.64201 -1.17136 0
M  V30 2074 C 190.759 -0.369705 -1.92074 0
M  V30 2075 O 191.965 -0.373898 -2.68913 0
M  V30 2076 C 190.421 -2.90035 -2.13091 0
M  V30 2077 C 190.029 -4.24312 -1.43747 0
M  V30 2078 C 191.773 -3.1186 -2.87999 0
M  V30 2079 C 189.68 -5.41285 -2.38253 0
M  V30 2080 H 188.61 -0.611624 -0.440944 0
M  V30 2081 H 191.261 -1.78212 -0.437328 0
M  V30 2082 H 189.643 -2.69684 -2.89977 0
M  V30 2083 H 190.817 -4.55086 -0.723408 0
M  V30 2084 H 189.132 -4.08456 -0.809465 0
M  V30 2085 H 191.729 -3.96427 -3.58817 0
M  V30 2086 H 192.072 -2.25403 -3.49999 0
M  V30 2087 H 192.605 -3.32605 -2.18217 0
M  V30 2088 H 189.344 -6.30037 -1.80925 0
M  V30 2089 H 188.864 -5.14872 -3.0768 0
M  V30 2090 H 190.543 -5.73694 -2.99139 0
M  V30 2091 N 190.675 0.682077 -1.42076 0
M  V30 2092 C 191.921 1.44283 -1.43366 0
M  V30 2093 C 192.276 1.92344 -0.0465775 0
M  V30 2094 O 191.569 1.67517 0.929973 0
M  V30 2095 C 191.763 2.66036 -2.38662 0
M  V30 2096 C 191.592 2.29889 -3.86499 0
M  V30 2097 C 190.362 2.19599 -4.55087 0
M  V30 2098 C 192.56 1.91999 -4.77117 0
M  V30 2099 N 190.542 1.76478 -5.87987 0
M  V30 2100 C 191.913 1.59741 -5.99068 0
M  V30 2101 C 193.968 1.78927 -4.64639 0
M  V30 2102 C 192.671 1.15723 -7.0993 0
M  V30 2103 C 194.697 1.36314 -5.75476 0
M  V30 2104 C 194.059 1.04975 -6.96534 0
M  V30 2105 H 190.158 0.524739 -0.579805 0
M  V30 2106 H 192.742 0.787834 -1.78048 0
M  V30 2107 H 190.913 3.29237 -2.06053 0
M  V30 2108 H 192.645 3.32588 -2.30581 0
M  V30 2109 H 189.4 2.38433 -4.09202 0
M  V30 2110 H 189.824 1.57362 -6.58458 0
M  V30 2111 H 194.466 2.01805 -3.7153 0
M  V30 2112 H 192.184 0.91591 -8.02893 0
M  V30 2113 H 195.77 1.26731 -5.6783 0
M  V30 2114 H 194.65 0.725017 -7.80841 0
M  V30 2115 N 192.153 1.28127 0.917671 0
M  V30 2116 C 193.402 1.14432 1.66097 0
M  V30 2117 C 193.715 -0.307247 1.93172 0
M  V30 2118 O 194.921 -0.565259 2.65551 0
M  V30 2119 C 193.377 2.00015 2.99202 0
M  V30 2120 C 192.985 3.49889 2.79789 0
M  V30 2121 C 194.729 1.94996 3.77064 0
M  V30 2122 C 192.636 4.27636 4.08511 0
M  V30 2123 H 191.566 0.424662 0.62304 0
M  V30 2124 H 194.217 1.52628 1.01868 0
M  V30 2125 H 192.599 1.54672 3.64544 0
M  V30 2126 H 193.773 4.03162 2.23152 0
M  V30 2127 H 192.088 3.56392 2.15345 0
M  V30 2128 H 194.685 2.50354 4.72469 0
M  V30 2129 H 195.028 0.925819 4.05875 0
M  V30 2130 H 195.561 2.38287 3.18534 0
M  V30 2131 H 192.3 5.30615 3.84874 0
M  V30 2132 H 191.82 3.79137 4.64774 0
M  V30 2133 H 193.499 4.37346 4.76799 0
M  V30 2134 N 193.631 -1.12557 1.10312 0
M  V30 2135 C 194.877 -1.84311 0.846011 0
M  V30 2136 C 195.21 -1.83805 -0.626859 0
M  V30 2137 O 194.485 -1.28268 -1.46211 0
M  V30 2138 C 194.768 -3.32048 1.39341 0
M  V30 2139 C 194.621 -3.41016 2.93305 0
M  V30 2140 C 195.94 -4.27764 1.03468 0
M  V30 2141 H 193.059 -0.669192 0.30879 0
M  V30 2142 H 195.701 -1.32057 1.36605 0
M  V30 2143 H 193.851 -3.76678 0.951087 0
M  V30 2144 H 195.523 -3.05031 3.46055 0
M  V30 2145 H 193.766 -2.81603 3.29973 0
M  V30 2146 H 194.437 -4.44948 3.26689 0
M  V30 2147 H 196.913 -3.91253 1.41633 0
M  V30 2148 H 195.789 -5.29549 1.44463 0
M  V30 2149 H 196.05 -4.42064 -0.0560404 0
M  V30 2150 N 195.109 -0.891671 -1.2995 0
M  V30 2151 C 196.072 -0.36828 -2.26222 0
M  V30 2152 C 197.072 0.493014 -1.53056 0
M  V30 2153 O 198.262 0.299213 -1.71611 0
M  V30 2154 C 195.394 0.47442 -3.37583 0
M  V30 2155 H 196.587 -1.21844 -2.74033 0
M  V30 2156 H 194.14 -0.669107 -1.41254 0
M  V30 2157 H 194.875 1.34489 -2.95099 0
M  V30 2158 H 194.66 -0.142615 -3.91841 0
M  V30 2159 H 196.15 0.83218 -4.09224 0
M  V30 2160 N 196.587 1.43421 -0.653314 0
M  V30 2161 C 197.836 2.01032 -0.164076 0
M  V30 2162 C 198.149 1.52147 1.22926 0
M  V30 2163 O 199.355 2.02031 1.81371 0
M  V30 2164 C 197.811 3.59082 -0.24252 0
M  V30 2165 C 197.419 4.1696 -1.63855 0
M  V30 2166 C 199.163 4.24079 0.18911 0
M  V30 2167 C 197.07 5.67304 -1.67092 0
M  V30 2168 H 196 0.751798 -0.0575769 0
M  V30 2169 H 198.651 1.6439 -0.815362 0
M  V30 2170 H 197.033 3.93125 0.476276 0
M  V30 2171 H 198.207 3.94416 -2.38271 0
M  V30 2172 H 196.522 3.64335 -2.01616 0
M  V30 2173 H 199.119 5.34381 0.184775 0
M  V30 2174 H 199.462 3.98005 1.22056 0
M  V30 2175 H 199.995 3.94918 -0.477938 0
M  V30 2176 H 196.734 5.98145 -2.68146 0
M  V30 2177 H 196.254 5.91904 -0.970014 0
M  V30 2178 H 197.933 6.31344 -1.4147 0
M  V30 2179 N 198.065 0.39524 1.52563 0
M  V30 2180 C 199.028 -0.425001 2.25225 0
M  V30 2181 C 200.028 -0.985266 1.27079 0
M  V30 2182 O 201.218 -0.866332 1.5113 0
M  V30 2183 C 198.35 -1.59686 3.01186 0
M  V30 2184 H 199.543 0.211233 2.99155 0
M  V30 2185 H 197.096 0.147472 1.55603 0
M  V30 2186 H 197.831 -2.27035 2.31572 0
M  V30 2187 H 197.616 -1.20176 3.73229 0
M  V30 2188 H 199.106 -2.17743 3.5634 0
M  V30 2189 N 199.544 -1.57102 0.125237 0
M  V30 2190 C 200.79 -1.95697 -0.532035 0
M  V30 2191 C 201.123 -1.009 -1.6593 0
M  V30 2192 O 200.398 -0.047347 -1.94442 0
M  V30 2193 C 200.681 -3.44181 -1.05884 0
M  V30 2194 C 200.534 -4.49752 0.0654392 0
M  V30 2195 C 201.853 -3.94655 -1.9477 0
M  V30 2196 H 198.972 -0.711571 -0.191925 0
M  V30 2197 H 201.614 -1.88923 0.20206 0
M  V30 2198 H 199.764 -3.50085 -1.68442 0
M  V30 2199 H 201.436 -4.55943 0.700982 0
M  V30 2200 H 199.679 -4.27653 0.727709 0
M  V30 2201 H 200.35 -5.50924 -0.344505 0
M  V30 2202 H 202.826 -3.91094 -1.42074 0
M  V30 2203 H 201.702 -4.99057 -2.28546 0
M  V30 2204 H 201.963 -3.35718 -2.87656 0
M  V30 2205 N 201.022 0.148545 -1.56898 0
M  V30 2206 C 201.97 1.20265 -1.99096 0
M  V30 2207 C 202.964 1.44559 -0.883123 0
M  V30 2208 O 204.17 1.4487 -1.0683 0
M  V30 2209 H 200.545 0.404786 -0.63376 0
M  V30 2210 H 202.516 0.82004 -2.86911 0
M  V30 2211 C 201.265 2.52886 -2.3863 0
M  V30 2212 H 200.588 2.35021 -3.23427 0
M  V30 2213 H 202.028 3.25274 -2.7198 0
M  V30 2214 C 200.487 3.13315 -1.23837 0
M  V30 2215 O 201.017 3.98077 -0.538268 0
M  V30 2216 N 199.223 2.72742 -1.00301 0
M  V30 2217 H 198.77 2.03912 -1.5741 0
M  V30 2218 H 198.728 3.13507 -0.236838 0
M  V30 2219 N 202.5 1.5196 0.417844 0
M  V30 2220 C 203.746 1.65836 1.16732 0
M  V30 2221 C 204.079 0.382881 1.90388 0
M  V30 2222 O 203.354 -0.618368 1.84408 0
M  V30 2223 C 203.637 2.87466 2.16876 0
M  V30 2224 C 203.49 4.25041 1.47174 0
M  V30 2225 C 204.809 3.04613 3.17646 0
M  V30 2226 H 201.928 0.603515 0.423011 0
M  V30 2227 H 204.57 1.84494 0.454105 0
M  V30 2228 H 202.72 2.71689 2.777 0
M  V30 2229 H 204.392 4.52527 0.895376 0
M  V30 2230 H 202.635 4.26843 0.773806 0
M  V30 2231 H 203.306 5.06176 2.20204 0
M  V30 2232 H 205.782 3.1923 2.66892 0
M  V30 2233 H 204.658 3.91247 3.8499 0
M  V30 2234 H 204.919 2.17541 3.84874 0
M  V30 2235 N 203.978 -0.674533 1.42435 0
M  V30 2236 C 205.203 -1.46784 1.46524 0
M  V30 2237 C 205.628 -1.87938 0.078066 0
M  V30 2238 O 204.986 -1.56014 -0.92354 0
M  V30 2239 C 205.034 -2.69307 2.39805 0
M  V30 2240 O 204.138 -3.67587 1.86959 0
M  V30 2241 H 203.479 -0.440959 0.496439 0
M  V30 2242 H 206.009 -0.827326 1.87127 0
M  V30 2243 H 206.019 -3.17374 2.56393 0
M  V30 2244 H 204.694 -2.38692 3.40586 0
M  V30 2245 H 203.271 -3.2662 1.79927 0
M  V30 2246 N 205.456 -1.28612 -0.910864 0
M  V30 2247 C 206.419 -1.12803 -1.9952 0
M  V30 2248 C 207.419 -0.0668264 -1.60661 0
M  V30 2249 O 208.609 -0.312847 -1.71368 0
M  V30 2250 C 205.741 -0.72254 -3.33155 0
M  V30 2251 H 206.934 -2.09109 -2.14973 0
M  V30 2252 H 204.487 -1.11639 -1.09391 0
M  V30 2253 H 205.222 0.241152 -3.23402 0
M  V30 2254 H 205.007 -1.48916 -3.62721 0
M  V30 2255 H 206.497 -0.634666 -4.12749 0
M  V30 2256 N 206.934 1.1197 -1.10907 0
M  V30 2257 C 208.181 1.83588 -0.854507 0
M  V30 2258 C 208.509 1.84357 0.6199 0
M  V30 2259 O 207.764 1.28809 1.47332 0
M  V30 2260 C 208.063 3.30749 -1.35425 0
M  V30 2261 C 207.729 3.50146 -2.84093 0
M  V30 2262 C 206.391 3.55148 -3.2469 0
M  V30 2263 C 208.743 3.56857 -3.79872 0
M  V30 2264 C 206.071 3.6441 -4.59806 0
M  V30 2265 C 208.423 3.6765 -5.14797 0
M  V30 2266 C 207.087 3.7091 -5.54961 0
M  V30 2267 H 206.357 0.671795 -0.312686 0
M  V30 2268 H 209.004 1.32091 -1.38652 0
M  V30 2269 H 207.309 3.84703 -0.742361 0
M  V30 2270 H 209.006 3.8464 -1.1337 0
M  V30 2271 H 205.596 3.46919 -2.51685 0
M  V30 2272 H 209.78 3.52258 -3.49611 0
M  V30 2273 H 205.036 3.65208 -4.9034 0
M  V30 2274 H 209.21 3.71786 -5.88853 0
M  V30 2275 H 206.837 3.7784 -6.59652 0
M  V30 2276 N 208.412 0.89855 1.29475 0
M  V30 2277 C 209.659 0.523882 1.95606 0
M  V30 2278 C 209.987 -0.929608 1.70847 0
M  V30 2279 O 209.242 -1.67401 1.01367 0
M  V30 2280 C 209.541 0.761398 3.49195 0
M  V30 2281 C 209.207 2.19207 3.94029 0
M  V30 2282 C 207.869 2.58326 4.05982 0
M  V30 2283 C 210.221 3.12379 4.17216 0
M  V30 2284 C 207.549 3.898 4.38489 0
M  V30 2285 C 209.901 4.43401 4.51197 0
M  V30 2286 C 208.565 4.82394 4.61359 0
M  V30 2287 H 207.835 0.191702 0.715773 0
M  V30 2288 H 210.482 1.13699 1.54094 0
M  V30 2289 H 208.787 0.0653622 3.91745 0
M  V30 2290 H 210.484 0.450904 3.98457 0
M  V30 2291 H 207.074 1.87846 3.85242 0
M  V30 2292 H 211.258 2.83371 4.07449 0
M  V30 2293 H 206.514 4.19734 4.44559 0
M  V30 2294 H 210.688 5.15623 4.68087 0
M  V30 2295 H 208.315 5.84306 4.86303 0
M  V30 2296 N 209.89 -1.43072 0.660911 0
M  V30 2297 C 211.139 -2.00942 0.174735 0
M  V30 2298 C 211.452 -1.52797 -1.22117 0
M  V30 2299 O 212.658 -2.02991 -1.80297 0
M  V30 2300 C 211.114 -3.58948 0.261559 0
M  V30 2301 C 210.722 -4.16085 1.66064 0
M  V30 2302 C 212.466 -4.24173 -0.166617 0
M  V30 2303 C 210.373 -5.6641 1.70098 0
M  V30 2304 H 209.303 -0.751483 0.0615631 0
M  V30 2305 H 211.954 -1.63955 0.824069 0
M  V30 2306 H 210.336 -3.93372 -0.455421 0
M  V30 2307 H 211.51 -3.93147 2.40359 0
M  V30 2308 H 209.825 -3.6326 2.03546 0
M  V30 2309 H 212.422 -5.34471 -0.156433 0
M  V30 2310 H 212.765 -3.98647 -1.19943 0
M  V30 2311 H 213.298 -3.94659 0.498875 0
M  V30 2312 H 210.037 -5.96715 2.71315 0
M  V30 2313 H 209.557 -5.91382 1.00139 0
M  V30 2314 H 211.236 -6.30585 1.44816 0
M  V30 2315 N 211.368 -0.403325 -1.52352 0
M  V30 2316 C 212.617 0.175668 -2.00934 0
M  V30 2317 C 212.93 1.46718 -1.29356 0
M  V30 2318 O 214.136 2.12708 -1.68724 0
M  V30 2319 C 212.592 0.363612 -3.58058 0
M  V30 2320 C 212.2 -0.915472 -4.38547 0
M  V30 2321 C 213.944 0.89821 -4.14888 0
M  V30 2322 C 211.851 -0.695035 -5.87302 0
M  V30 2323 H 210.781 0.0694234 -0.750797 0
M  V30 2324 H 213.432 -0.527879 -1.75743 0
M  V30 2325 H 211.814 1.12935 -3.79555 0
M  V30 2326 H 212.988 -1.68691 -4.28812 0
M  V30 2327 H 211.303 -1.37606 -3.93006 0
M  V30 2328 H 213.9 1.07907 -5.23699 0
M  V30 2329 H 214.243 1.87126 -3.71873 0
M  V30 2330 H 214.776 0.191681 -3.97338 0
M  V30 2331 H 211.515 -1.63948 -6.34666 0
M  V30 2332 H 211.035 0.0372116 -5.99788 0
M  V30 2333 H 212.714 -0.33497 -6.46132 0
M  V30 2334 N 212.846 1.57033 -0.133567 0
M  V30 2335 C 213.809 2.14897 0.796995 0
M  V30 2336 C 214.809 1.0874 1.18458 0
M  V30 2337 O 215.999 1.34446 1.1077 0
M  V30 2338 C 213.131 2.70112 2.07973 0
M  V30 2339 H 214.324 2.98457 0.293873 0
M  V30 2340 H 211.877 1.55871 0.115787 0
M  V30 2341 H 212.612 1.9018 2.62682 0
M  V30 2342 H 212.397 3.47764 1.81115 0
M  V30 2343 H 213.887 3.14738 2.74462 0
M  V30 2344 N 214.325 -0.140222 1.56975 0
M  V30 2345 C 215.288 -1.15689 1.97861 0
M  V30 2346 C 216.288 -1.3549 0.865974 0
M  V30 2347 O 217.478 -1.32367 1.13246 0
M  V30 2348 C 214.61 -2.51582 2.30042 0
M  V30 2349 H 215.803 -0.805971 2.88867 0
M  V30 2350 H 213.356 -0.383801 1.51515 0
M  V30 2351 H 214.091 -2.91632 1.41849 0
M  V30 2352 H 213.876 -2.38569 3.11171 0
M  V30 2353 H 215.366 -3.24792 2.62488 0
M  V30 2354 N 215.803 -1.52179 -0.40978 0
M  V30 2355 C 216.751 -1.76086 -1.51975 0
M  V30 2356 C 217.745 -0.627964 -1.57331 0
M  V30 2357 O 218.951 -0.809993 -1.60745 0
M  V30 2358 H 215.326 -0.556829 -0.505416 0
M  V30 2359 H 217.297 -2.69077 -1.28996 0
M  V30 2360 C 216.046 -1.92799 -2.8935 0
M  V30 2361 H 215.369 -2.79392 -2.85972 0
M  V30 2362 H 216.809 -2.13527 -3.66309 0
M  V30 2363 C 215.268 -0.694923 -3.29655 0
M  V30 2364 O 215.798 0.13751 -4.01465 0
M  V30 2365 N 214.004 -0.53101 -2.85707 0
M  V30 2366 H 213.551 -1.20952 -2.27439 0
M  V30 2367 H 213.509 0.292718 -3.13034 0
M  V30 2368 N 217.281 0.66697 -1.42791 0
M  V30 2369 C 218.506 1.46004 -1.47301 0
M  V30 2370 C 218.931 1.87894 -0.0880317 0
M  V30 2371 O 218.289 1.56502 0.915253 0
M  V30 2372 C 218.337 2.68031 -2.41229 0
M  V30 2373 O 217.441 3.6659 -1.88906 0
M  V30 2374 H 216.782 0.43832 -0.49877 0
M  V30 2375 H 219.312 0.817391 -1.87563 0
M  V30 2376 H 219.322 3.1601 -2.58073 0
M  V30 2377 H 217.997 2.36883 -3.41847 0
M  V30 2378 H 216.574 3.25661 -1.81656 0
M  V30 2379 N 218.759 1.29093 0.90403 0
M  V30 2380 C 220.006 1.16813 1.65411 0
M  V30 2381 C 220.334 -0.28128 1.92455 0
M  V30 2382 O 219.589 -1.22006 1.53013 0
M  V30 2383 C 219.888 1.92224 3.01305 0
M  V30 2384 C 219.554 3.41968 2.93885 0
M  V30 2385 C 218.216 3.82807 2.91569 0
M  V30 2386 C 220.568 4.37409 2.83413 0
M  V30 2387 C 217.896 5.1741 2.76594 0
M  V30 2388 C 220.248 5.72097 2.69977 0
M  V30 2389 C 218.912 6.12199 2.66024 0
M  V30 2390 H 218.182 0.42745 0.605283 0
M  V30 2391 H 220.829 1.59981 1.05254 0
M  V30 2392 H 219.134 1.41635 3.65304 0
M  V30 2393 H 220.831 1.80131 3.58265 0
M  V30 2394 H 217.421 3.09504 2.96488 0
M  V30 2395 H 221.605 4.06813 2.84283 0
M  V30 2396 H 216.861 5.47596 2.71935 0
M  V30 2397 H 221.035 6.45704 2.60844 0
M  V30 2398 H 218.662 7.16448 2.54178 0
M  V30 2399 N 220.237 -1.11381 1.11499 0
M  V30 2400 C 221.17 -2.16621 0.71769 0
M  V30 2401 C 222.148 -1.60058 -0.286413 0
M  V30 2402 O 223.332 -1.87613 -0.182689 0
M  V30 2403 C 220.459 -3.38646 0.0607265 0
M  V30 2404 C 219.505 -4.13874 1.03008 0
M  V30 2405 S 220.338 -4.70731 2.55289 0
M  V30 2406 C 221.494 -5.96079 1.90895 0
M  V30 2407 H 221.727 -2.49987 1.60915 0
M  V30 2408 H 219.26 -1.23015 0.933092 0
M  V30 2409 H 221.218 -4.09313 -0.311965 0
M  V30 2410 H 219.879 -3.03537 -0.807702 0
M  V30 2411 H 219.072 -5.01333 0.517853 0
M  V30 2412 H 218.674 -3.4897 1.34522 0
M  V30 2413 H 220.966 -6.65948 1.24577 0
M  V30 2414 H 221.909 -6.51946 2.76354 0
M  V30 2415 H 222.317 -5.47652 1.36885 0
M  V30 2416 N 221.715 -0.905404 -1.28997 0
M  V30 2417 C 222.647 -0.344748 -2.26592 0
M  V30 2418 C 223.66 0.512135 -1.54535 0
M  V30 2419 O 224.849 0.328368 -1.75454 0
M  V30 2420 C 221.949 0.526587 -3.34784 0
M  V30 2421 C 221.122 -0.305871 -4.36329 0
M  V30 2422 C 220.181 0.499209 -5.23827 0
M  V30 2423 O 219.207 -0.0853004 -5.69136 0
M  V30 2424 N 220.409 1.80408 -5.51755 0
M  V30 2425 H 223.174 -1.18359 -2.75338 0
M  V30 2426 H 220.735 -0.770481 -1.42391 0
M  V30 2427 H 222.727 1.07171 -3.90252 0
M  V30 2428 H 221.297 1.26613 -2.85811 0
M  V30 2429 H 220.517 -1.0324 -3.80441 0
M  V30 2430 H 221.805 -0.875773 -5.01206 0
M  V30 2431 H 221.203 2.3016 -5.16762 0
M  V30 2432 H 219.76 2.29621 -6.10014 0
M  V30 2433 N 223.193 1.4272 -0.668489 0
M  V30 2434 C 224.143 2.27971 0.0363806 0
M  V30 2435 C 225.127 1.40741 0.779794 0
M  V30 2436 O 226.319 1.64245 0.659745 0
M  V30 2437 C 223.448 3.28673 0.991398 0
M  V30 2438 C 222.534 4.23388 0.245658 0
M  V30 2439 N 222.925 5.00267 -0.746069 0
M  V30 2440 C 221.223 4.43355 0.484988 0
M  V30 2441 C 221.924 5.69396 -1.19009 0
M  V30 2442 N 220.9 5.41095 -0.521287 0
M  V30 2443 H 224.702 2.84833 -0.724394 0
M  V30 2444 H 222.216 1.54607 -0.497028 0
M  V30 2445 H 224.213 3.88543 1.51129 0
M  V30 2446 H 222.873 2.73373 1.75207 0
M  V30 2447 H 223.884 5.05525 -1.12537 0
M  V30 2448 H 220.561 3.99104 1.22565 0
M  V30 2449 H 221.951 6.41083 -2.01153 0
M  V30 2450 N 224.671 0.411399 1.52136 0
M  V30 2451 C 226.082 -0.0576826 1.86611 0
M  V30 2452 C 226.433 -1.44238 1.33003 0
M  V30 2453 O 225.558 -2.05759 0.670228 0
M  V30 2454 C 226.153 -0.111448 3.38617 0
M  V30 2455 C 224.712 -0.52487 3.72723 0
M  V30 2456 C 223.859 0.299176 2.75681 0
M  V30 2457 H 226.81 0.628368 1.4573 0
M  V30 2458 H 226.831 -0.926252 3.69054 0
M  V30 2459 H 226.343 0.896488 3.77604 0
M  V30 2460 H 224.444 -1.53936 3.39315 0
M  V30 2461 H 224.557 -0.267681 4.78352 0
M  V30 2462 H 222.921 -0.238814 2.53578 0
M  V30 2463 H 223.704 1.3055 3.17508 0
M  V30 2464 N 226.149 -1.5696 0.141893 0
M  V30 2465 C 227.395 -1.9625 -0.511248 0
M  V30 2466 C 227.728 -1.02654 -1.64851 0
M  V30 2467 O 227.003 -0.0679676 -1.94381 0
M  V30 2468 C 227.286 -3.45285 -1.02227 0
M  V30 2469 C 227.139 -4.49658 0.113138 0
M  V30 2470 C 228.458 -3.96698 -1.90574 0
M  V30 2471 H 225.577 -0.713567 -0.184367 0
M  V30 2472 H 228.219 -1.88698 0.222087 0
M  V30 2473 H 226.369 -3.51852 -1.64719 0
M  V30 2474 H 228.041 -4.55174 0.749302 0
M  V30 2475 H 226.284 -4.26857 0.773026 0
M  V30 2476 H 226.955 -5.51258 -0.286053 0
M  V30 2477 H 229.431 -3.92578 -1.37918 0
M  V30 2478 H 228.307 -5.01453 -2.2324 0
M  V30 2479 H 228.568 -3.3875 -2.84079 0
M  V30 2480 N 227.627 0.131896 -1.57047 0
M  V30 2481 C 228.875 0.840269 -1.83804 0
M  V30 2482 C 229.196 1.81017 -0.72512 0
M  V30 2483 O 228.466 1.94272 0.251995 0
M  V30 2484 H 227.046 0.313294 -0.678127 0
M  V30 2485 H 229.708 0.122294 -1.94516 0
M  V30 2486 H 228.804 1.39335 -2.79271 0
M  V30 2487 N 229.106 1.52395 0.401703 0
M  V30 2488 C 230.069 1.75636 1.47257 0
M  V30 2489 C 231.069 0.62628 1.48103 0
M  V30 2490 O 232.259 0.894227 1.49497 0
M  V30 2491 C 229.391 1.84553 2.86624 0
M  V30 2492 H 230.584 2.71241 1.27938 0
M  V30 2493 H 228.137 1.42923 0.632662 0
M  V30 2494 H 228.872 0.908882 3.11303 0
M  V30 2495 H 228.657 2.66715 2.87412 0
M  V30 2496 H 230.147 2.04251 3.64241 0
M  V30 2497 N 230.584 -0.659388 1.43143 0
M  V30 2498 C 231.534 -1.7655 1.44271 0
M  V30 2499 C 232.518 -1.57847 0.311961 0
M  V30 2500 O 233.71 -1.68064 0.555306 0
M  V30 2501 C 230.839 -3.15104 1.36251 0
M  V30 2502 C 229.925 -3.39377 2.54331 0
M  V30 2503 N 230.316 -3.34153 3.79704 0
M  V30 2504 C 228.614 -3.70072 2.48922 0
M  V30 2505 C 229.315 -3.58337 4.58225 0
M  V30 2506 N 228.291 -3.79851 3.88863 0
M  V30 2507 H 232.093 -1.70928 2.39083 0
M  V30 2508 H 229.607 -0.860823 1.37708 0
M  V30 2509 H 231.604 -3.94389 1.35141 0
M  V30 2510 H 230.264 -3.21913 0.424531 0
M  V30 2511 H 231.275 -3.13704 4.1208 0
M  V30 2512 H 227.952 -3.84034 1.63781 0
M  V30 2513 H 229.342 -3.60129 5.67236 0
M  V30 2514 N 232.062 -1.29571 -0.897171 0
M  V30 2515 C 233.292 -1.20408 -1.67886 0
M  V30 2516 C 233.7 0.237429 -1.87704 0
M  V30 2517 O 233.043 1.17048 -1.41582 0
M  V30 2518 C 233.105 -1.84887 -3.08314 0
M  V30 2519 C 232.769 -3.34189 -3.11716 0
M  V30 2520 C 233.766 -4.30374 -2.91675 0
M  V30 2521 C 231.451 -3.75431 -3.33701 0
M  V30 2522 C 233.445 -5.65776 -2.93557 0
M  V30 2523 C 231.132 -5.10955 -3.35214 0
M  V30 2524 C 232.13 -6.05938 -3.15164 0
M  V30 2525 O 231.818 -7.38987 -3.1647 0
M  V30 2526 H 231.55 -0.418289 -0.531046 0
M  V30 2527 H 234.104 -1.71514 -1.13014 0
M  V30 2528 H 232.334 -1.28295 -3.64798 0
M  V30 2529 H 234.023 -1.70011 -3.6858 0
M  V30 2530 H 234.789 -3.99844 -2.74499 0
M  V30 2531 H 230.668 -3.01953 -3.48347 0
M  V30 2532 H 234.212 -6.39889 -2.77826 0
M  V30 2533 H 230.109 -5.4113 -3.51922 0
M  V30 2534 H 230.877 -7.47823 -3.3272 0
M  V30 2535 N 233.54 1.10788 -1.12088 0
M  V30 2536 C 234.488 2.19111 -0.780587 0
M  V30 2537 C 235.482 1.67818 0.230961 0
M  V30 2538 O 236.688 1.79777 0.0895427 0
M  V30 2539 H 233.063 0.714477 -0.234578 0
M  V30 2540 H 235.034 2.45055 -1.70266 0
M  V30 2541 C 233.783 3.46818 -0.24747 0
M  V30 2542 H 233.106 3.86646 -1.01712 0
M  V30 2543 H 234.546 4.23973 -0.0476291 0
M  V30 2544 C 233.005 3.20968 1.02378 0
M  V30 2545 O 233.535 3.42298 2.10226 0
M  V30 2546 N 231.741 2.74658 0.949271 0
M  V30 2547 H 231.288 2.57501 0.0715173 0
M  V30 2548 H 231.246 2.57739 1.80049 0
M  V30 2549 N 235.018 0.912232 1.28515 0
M  V30 2550 C 236.429 0.591352 1.77087 0
M  V30 2551 C 236.78 -0.8933 1.74684 0
M  V30 2552 O 235.905 -1.69876 1.34056 0
M  V30 2553 C 236.5 1.06668 3.2157 0
M  V30 2554 C 235.059 0.79675 3.67871 0
M  V30 2555 C 234.206 1.23427 2.48316 0
M  V30 2556 H 237.157 1.09365 1.15 0
M  V30 2557 H 237.178 0.407455 3.78312 0
M  V30 2558 H 236.69 2.14726 3.23287 0
M  V30 2559 H 234.791 -0.270679 3.71616 0
M  V30 2560 H 234.904 1.40343 4.58084 0
M  V30 2561 H 233.268 0.653036 2.46186 0
M  V30 2562 H 234.051 2.32316 2.52753 0
M  V30 2563 N 236.496 -1.42363 0.676048 0
M  V30 2564 C 237.724 -2.05859 0.207268 0
M  V30 2565 C 238.139 -1.50796 -1.13605 0
M  V30 2566 O 237.496 -0.648265 -1.70598 0
M  V30 2567 C 237.547 -3.61248 0.134975 0
M  V30 2568 O 237.268 -4.1427 1.42521 0
M  V30 2569 C 238.769 -4.41859 -0.357151 0
M  V30 2570 H 235.989 -0.663431 0.100503 0
M  V30 2571 H 238.533 -1.82479 0.923136 0
M  V30 2572 H 236.688 -3.83735 -0.531588 0
M  V30 2573 H 237.102 -5.0815 1.29939 0
M  V30 2574 H 238.576 -5.50847 -0.356641 0
M  V30 2575 H 239.053 -4.16536 -1.39264 0
M  V30 2576 H 239.659 -4.24392 0.27772 0
M  V30 2577 N 237.974 -0.419461 -1.51915 0
M  V30 2578 C 239.202 0.152136 -2.0634 0
M  V30 2579 C 239.617 1.37988 -1.28859 0
M  V30 2580 O 238.974 1.79243 -0.343232 0
M  V30 2581 C 239.025 0.492266 -3.58133 0
M  V30 2582 O 238.746 -0.686736 -4.32684 0
M  V30 2583 C 240.247 1.11648 -4.2901 0
M  V30 2584 H 237.467 0.0158325 -0.670813 0
M  V30 2585 H 240.011 -0.593394 -1.95702 0
M  V30 2586 H 238.166 1.18769 -3.68745 0
M  V30 2587 H 238.58 -0.400341 -5.2297 0
M  V30 2588 H 240.054 1.3046 -5.36362 0
M  V30 2589 H 240.531 2.09251 -3.86148 0
M  V30 2590 H 241.137 0.460958 -4.22795 0
M  V30 2591 N 239.452 1.56882 -0.150215 0
M  V30 2592 C 240.7 1.9584 0.499105 0
M  V30 2593 C 241.021 1.03623 1.65188 0
M  V30 2594 O 240.291 0.0984084 1.95653 0
M  V30 2595 H 238.871 0.723119 0.187373 0
M  V30 2596 H 241.533 1.9358 -0.226466 0
M  V30 2597 H 240.629 2.99638 0.873122 0
M  V30 2598 N 240.93 -0.123565 1.57115 0
M  V30 2599 C 242.346 -0.476961 1.52306 0
M  V30 2600 C 242.546 -1.82109 0.86248 0
M  V30 2601 O 241.602 -2.48586 0.442884 0
M  V30 2602 C 242.915 -0.465661 2.97073 0
M  V30 2603 C 244.463 -0.549534 3.08138 0
M  V30 2604 C 244.938 -0.568669 4.54456 0
M  V30 2605 N 246.429 -0.630237 4.58892 0
M  V30 2606 C 247.164 -0.666415 5.69514 0
M  V30 2607 N 246.66 -0.660514 6.89644 0
M  V30 2608 N 248.453 -0.709077 5.5761 0
M  V30 2609 H 240.604 0.757198 1.98445 0
M  V30 2610 H 242.867 0.278808 0.906074 0
M  V30 2611 H 242.573 0.454232 3.48754 0
M  V30 2612 H 242.447 -1.29513 3.54269 0
M  V30 2613 H 244.834 -1.45985 2.56461 0
M  V30 2614 H 244.915 0.307532 2.53945 0
M  V30 2615 H 244.559 0.337581 5.06777 0
M  V30 2616 H 244.489 -1.44256 5.06456 0
M  V30 2617 H 246.98 -0.641146 3.72421 0
M  V30 2618 H 247.293 -0.690616 7.69708 0
M  V30 2619 H 245.638 -0.628012 6.92157 0
M  V30 2620 H 248.829 -0.711019 4.62668 0
M  V30 2621 H 249.002 -0.733804 6.43832 0
M  V30 2622 N 242.408 -1.52605 -0.393616 0
M  V30 2623 C 243.371 -1.76415 -1.46323 0
M  V30 2624 C 244.371 -0.634126 -1.47768 0
M  V30 2625 O 245.561 -0.902142 -1.4902 0
M  V30 2626 C 242.693 -1.8607 -2.85641 0
M  V30 2627 H 243.886 -2.71916 -1.26498 0
M  V30 2628 H 241.439 -1.43257 -0.625073 0
M  V30 2629 H 242.174 -0.925378 -3.10817 0
M  V30 2630 H 241.959 -2.68235 -2.85993 0
M  V30 2631 H 243.449 -2.06179 -3.63153 0
M  V30 2632 N 243.887 0.651787 -1.4349 0
M  V30 2633 C 244.797 1.79368 -1.5121 0
M  V30 2634 C 245.813 1.69361 -0.399093 0
M  V30 2635 O 246.989 1.90505 -0.653431 0
M  V30 2636 C 244.054 3.15653 -1.43401 0
M  V30 2637 C 243.115 3.37446 -2.65384 0
M  V30 2638 C 242.348 4.67229 -2.57939 0
M  V30 2639 O 242.571 5.46676 -1.62792 0
M  V30 2640 O 241.505 4.90773 -3.48462 0
M  V30 2641 H 245.331 1.7581 -2.47638 0
M  V30 2642 H 242.916 0.810447 -1.25507 0
M  V30 2643 H 244.798 3.96935 -1.41494 0
M  V30 2644 H 243.473 3.19798 -0.501085 0
M  V30 2645 H 242.38 2.55923 -2.72863 0
M  V30 2646 H 243.713 3.38148 -3.57654 0
M  V30 2647 N 245.365 1.30045 0.890287 0
M  V30 2648 C 246.295 1.18541 2.01172 0
M  V30 2649 C 247.276 0.0773356 1.69924 0
M  V30 2650 O 248.461 0.25845 1.92473 0
M  V30 2651 C 245.591 0.870941 3.36202 0
M  V30 2652 C 244.545 1.93637 3.81692 0
M  V30 2653 C 243.871 1.475 5.13953 0
M  V30 2654 C 245.171 3.34666 4.00994 0
M  V30 2655 H 246.865 2.12359 2.11054 0
M  V30 2656 H 244.411 1.02238 1.01407 0
M  V30 2657 H 246.364 0.777141 4.14172 0
M  V30 2658 H 245.088 -0.102926 3.26438 0
M  V30 2659 H 243.747 2.01972 3.05946 0
M  V30 2660 H 243.395 0.489551 5.00612 0
M  V30 2661 H 243.095 2.1876 5.4536 0
M  V30 2662 H 244.619 1.39489 5.94454 0
M  V30 2663 H 246.033 3.2912 4.69417 0
M  V30 2664 H 244.43 4.03966 4.43769 0
M  V30 2665 H 245.5 3.76949 3.05021 0
M  V30 2666 N 246.843 -1.10192 1.12674 0
M  V30 2667 C 248.068 -1.86523 0.906853 0
M  V30 2668 C 248.493 -1.80221 -0.538711 0
M  V30 2669 O 247.851 -1.17396 -1.38158 0
M  V30 2670 C 247.899 -3.32758 1.3894 0
M  V30 2671 O 247.003 -4.08449 0.5695 0
M  V30 2672 H 246.344 -0.578678 0.325619 0
M  V30 2673 H 248.874 -1.39203 1.49946 0
M  V30 2674 H 248.884 -3.83608 1.38958 0
M  V30 2675 H 247.559 -3.36661 2.44197 0
M  V30 2676 H 246.136 -3.67427 0.636528 0
M  V30 2677 N 248.321 -0.919034 -1.28029 0
M  V30 2678 C 249.546 -0.570357 -1.99403 0
M  V30 2679 C 249.971 0.842486 -1.68178 0
M  V30 2680 O 249.329 1.56391 -0.917141 0
M  V30 2681 C 249.377 -0.792541 -3.51783 0
M  V30 2682 O 248.481 0.145988 -4.12142 0
M  V30 2683 H 247.822 -0.220555 -0.6263 0
M  V30 2684 H 250.352 -1.23592 -1.63053 0
M  V30 2685 H 250.362 -0.704708 -4.01868 0
M  V30 2686 H 249.037 -1.82247 -3.73844 0
M  V30 2687 H 247.614 0.00897528 -3.72899 0
M  V30 2688 N 249.799 1.42003 -0.683588 0
M  V30 2689 C 251.048 2.00638 -0.206681 0
M  V30 2690 C 251.361 1.5472 1.19671 0
M  V30 2691 O 252.567 2.05833 1.77045 0
M  V30 2692 C 251.023 3.58487 -0.318632 0
M  V30 2693 C 250.631 4.1339 -1.72663 0
M  V30 2694 C 252.375 4.24384 0.0991141 0
M  V30 2695 C 250.282 5.63633 -1.79087 0
M  V30 2696 H 249.212 0.750408 -0.0735107 0
M  V30 2697 H 251.863 1.62624 -0.850048 0
M  V30 2698 H 250.245 3.94047 0.392781 0
M  V30 2699 H 251.419 3.89273 -2.46583 0
M  V30 2700 H 249.734 3.59976 -2.09299 0
M  V30 2701 H 252.331 5.34652 0.0713833 0
M  V30 2702 H 252.674 4.00505 1.13586 0
M  V30 2703 H 253.207 3.93816 -0.561599 0
M  V30 2704 H 249.946 5.92323 -2.80774 0
M  V30 2705 H 249.466 5.89714 -1.09535 0
M  V30 2706 H 251.145 6.28201 -1.5483 0
M  V30 2707 N 251.277 0.427512 1.51691 0
M  V30 2708 C 252.523 -0.142439 2.02299 0
M  V30 2709 C 252.856 -1.43214 1.31162 0
M  V30 2710 O 252.131 -1.89833 0.423511 0
M  V30 2711 C 252.414 -0.371301 3.58181 0
M  V30 2712 C 252.267 0.936358 4.39946 0
M  V30 2713 C 253.586 -1.14542 4.24933 0
M  V30 2714 H 250.705 -0.0502937 0.735282 0
M  V30 2715 H 253.347 0.564584 1.81418 0
M  V30 2716 H 251.497 -0.973559 3.76104 0
M  V30 2717 H 253.169 1.57184 4.33694 0
M  V30 2718 H 251.412 1.5432 4.05423 0
M  V30 2719 H 252.083 0.730388 5.47147 0
M  V30 2720 H 254.559 -0.635362 4.11221 0
M  V30 2721 H 253.435 -1.27431 5.33903 0
M  V30 2722 H 253.696 -2.17093 3.85127 0
M  V30 2723 N 252.755 -1.56801 0.158532 0
M  V30 2724 C 254.001 -1.96781 -0.490405 0
M  V30 2725 C 254.334 -1.04397 -1.63753 0
M  V30 2726 O 253.609 -0.0885805 -1.94298 0
M  V30 2727 C 253.892 -3.4635 -0.985594 0
M  V30 2728 C 253.745 -4.49512 0.160824 0
M  V30 2729 C 255.064 -3.98697 -1.86355 0
M  V30 2730 H 252.183 -0.715482 -0.176788 0
M  V30 2731 H 254.825 -1.88451 0.242088 0
M  V30 2732 H 252.975 -3.53579 -1.60978 0
M  V30 2733 H 254.647 -4.54353 0.797537 0
M  V30 2734 H 252.89 -4.26013 0.818256 0
M  V30 2735 H 253.561 -5.51531 -0.227569 0
M  V30 2736 H 256.037 -3.94019 -1.33746 0
M  V30 2737 H 254.913 -5.03792 -2.17909 0
M  V30 2738 H 255.174 -3.41744 -2.8047 0
M  V30 2739 N 254.233 0.115231 -1.57178 0
M  V30 2740 C 255.163 1.1423 -2.03651 0
M  V30 2741 C 256.144 1.42967 -0.921655 0
M  V30 2742 O 257.329 1.53343 -1.19162 0
M  V30 2743 C 254.459 2.4675 -2.44401 0
M  V30 2744 C 253.413 2.32467 -3.59365 0
M  V30 2745 C 252.739 3.69984 -3.86026 0
M  V30 2746 C 254.039 1.78203 -4.90959 0
M  V30 2747 H 255.733 0.755749 -2.89705 0
M  V30 2748 H 253.279 0.362093 -1.39373 0
M  V30 2749 H 255.232 3.18854 -2.75517 0
M  V30 2750 H 253.956 2.87302 -1.55322 0
M  V30 2751 H 252.615 1.62811 -3.28463 0
M  V30 2752 H 252.263 4.08028 -2.94147 0
M  V30 2753 H 251.963 3.61279 -4.63412 0
M  V30 2754 H 253.487 4.43587 -4.19599 0
M  V30 2755 H 254.901 2.40128 -5.20587 0
M  V30 2756 H 253.298 1.8031 -5.72371 0
M  V30 2757 H 254.368 0.739876 -4.79222 0
M  V30 2758 N 255.711 1.52812 0.385517 0
M  V30 2759 C 256.641 1.80808 1.47752 0
M  V30 2760 C 257.622 0.660318 1.5676 0
M  V30 2761 O 258.807 0.908246 1.71652 0
M  V30 2762 C 255.937 1.98008 2.85324 0
M  V30 2763 C 254.891 3.13709 2.91154 0
M  V30 2764 C 254.217 3.16169 4.31209 0
M  V30 2765 C 255.517 4.52709 2.60483 0
M  V30 2766 H 257.211 2.72253 1.24573 0
M  V30 2767 H 254.757 1.31003 0.597839 0
M  V30 2768 H 256.71 2.16176 3.61726 0
M  V30 2769 H 255.434 1.03255 3.09848 0
M  V30 2770 H 254.093 2.95329 2.17201 0
M  V30 2771 H 253.741 2.19092 4.52778 0
M  V30 2772 H 253.441 3.93894 4.36029 0
M  V30 2773 H 254.965 3.36496 5.09512 0
M  V30 2774 H 256.379 4.71173 3.26602 0
M  V30 2775 H 254.776 5.32528 2.76648 0
M  V30 2776 H 255.846 4.59186 1.55809 0
M  V30 2777 N 257.189 -0.644168 1.43834 0
M  V30 2778 C 258.417 -1.43147 1.49387 0
M  V30 2779 C 258.832 -1.88452 0.114583 0
M  V30 2780 O 258.189 -1.60047 -0.876989 0
M  V30 2781 C 258.24 -2.66046 2.44748 0
M  V30 2782 O 257.961 -2.22633 3.77314 0
M  V30 2783 C 259.462 -3.59311 2.59635 0
M  V30 2784 H 256.682 -0.439447 0.507077 0
M  V30 2785 H 259.226 -0.78895 1.88669 0
M  V30 2786 H 257.381 -3.26418 2.08638 0
M  V30 2787 H 257.795 -3.02216 4.28679 0
M  V30 2788 H 259.269 -4.42187 3.30416 0
M  V30 2789 H 259.746 -4.07259 1.64427 0
M  V30 2790 H 260.352 -3.04816 2.96593 0
M  V30 2791 N 258.668 -1.30515 -0.883378 0
M  V30 2792 C 259.616 -1.16941 -2.01066 0
M  V30 2793 C 260.61 -0.0809148 -1.69207 0
M  V30 2794 O 261.816 -0.241877 -1.78367 0
M  V30 2795 H 258.191 -0.361705 -0.659298 0
M  V30 2796 H 260.162 -2.12344 -2.09649 0
M  V30 2797 C 258.911 -0.879694 -3.36388 0
M  V30 2798 H 258.234 -1.70936 -3.61415 0
M  V30 2799 H 259.674 -0.82483 -4.159 0
M  V30 2800 C 258.133 0.417409 -3.34304 0
M  V30 2801 O 258.663 1.43843 -3.75063 0
M  V30 2802 N 256.869 0.429141 -2.87414 0
M  V30 2803 H 256.416 -0.402222 -2.5444 0
M  V30 2804 H 256.374 1.29696 -2.86403 0
M  V30 2805 N 260.146 1.09593 -1.13257 0
M  V30 2806 C 261.094 2.18271 -0.803783 0
M  V30 2807 C 262.088 1.68054 0.213148 0
M  V30 2808 O 263.294 1.79862 0.0704699 0
M  V30 2809 H 259.669 0.711949 -0.242143 0
M  V30 2810 H 261.64 2.43235 -1.72856 0
M  V30 2811 C 260.389 3.46536 -0.28424 0
M  V30 2812 H 259.712 3.85545 -1.05807 0
M  V30 2813 H 261.152 4.23899 -0.0925945 0
M  V30 2814 C 259.611 3.22036 0.989684 0
M  V30 2815 O 260.141 3.44509 2.06584 0
M  V30 2816 N 258.347 2.7565 0.920086 0
M  V30 2817 H 257.894 2.57562 0.0442019 0
M  V30 2818 H 257.852 2.59635 1.77306 0
M  V30 2819 N 261.624 0.925811 1.2754 0
M  V30 2820 C 262.852 0.581509 1.9856 0
M  V30 2821 C 263.267 -0.840041 1.69082 0
M  V30 2822 O 262.624 -1.55805 0.950312 0
M  V30 2823 C 262.675 0.795589 3.52637 0
M  V30 2824 O 262.396 2.16121 3.81082 0
M  V30 2825 C 263.897 0.459744 4.4091 0
M  V30 2826 H 261.117 0.220538 0.633722 0
M  V30 2827 H 263.661 1.24232 1.6244 0
M  V30 2828 H 261.816 0.18161 3.86974 0
M  V30 2829 H 262.23 2.2098 4.75676 0
M  V30 2830 H 263.704 0.660244 5.48037 0
M  V30 2831 H 264.181 -0.604625 4.35018 0
M  V30 2832 H 264.787 1.05178 4.12089 0
M  V30 2833 N 263.102 -1.41638 0.69111 0
M  V30 2834 C 264.065 -2.29178 0.0319786 0
M  V30 2835 C 265.065 -1.44153 -0.712496 0
M  V30 2836 O 266.255 -1.65354 -0.548053 0
M  V30 2837 C 263.387 -3.26952 -0.965161 0
M  V30 2838 H 264.58 -2.88959 0.802681 0
M  V30 2839 H 262.133 -1.4955 0.454356 0
M  V30 2840 H 262.868 -2.72142 -1.76378 0
M  V30 2841 H 262.653 -3.89685 -0.434522 0
M  V30 2842 H 264.143 -3.92561 -1.42428 0
M  V30 2843 N 264.58 -0.43555 -1.51462 0
M  V30 2844 C 265.512 0.41257 -2.25456 0
M  V30 2845 C 266.525 0.987822 -1.29406 0
M  V30 2846 O 267.714 0.882266 -1.55172 0
M  V30 2847 C 264.814 1.58894 -2.99342 0
M  V30 2848 C 263.987 1.13288 -4.22474 0
M  V30 2849 C 263.046 2.17917 -4.78956 0
M  V30 2850 O 262.072 1.77425 -5.40841 0
M  V30 2851 N 263.274 3.50382 -4.62832 0
M  V30 2852 H 266.039 -0.221603 -2.9888 0
M  V30 2853 H 263.6 -0.264342 -1.59727 0
M  V30 2854 H 265.592 2.28508 -3.34015 0
M  V30 2855 H 264.162 2.12849 -2.28941 0
M  V30 2856 H 263.382 0.263881 -3.93316 0
M  V30 2857 H 264.67 0.805542 -5.02383 0
M  V30 2858 H 264.068 3.86013 -4.13534 0
M  V30 2859 H 262.625 4.15895 -5.01871 0
M  V30 2860 N 266.058 1.56714 -0.166846 0
M  V30 2861 C 267.021 2.16539 0.751232 0
M  V30 2862 C 268.021 1.11228 1.16125 0
M  V30 2863 O 269.211 1.36765 1.07894 0
M  V30 2864 C 266.343 2.74462 2.02196 0
M  V30 2865 H 267.536 2.99013 0.230499 0
M  V30 2866 H 265.089 1.56081 0.0826982 0
M  V30 2867 H 265.824 1.95709 2.58589 0
M  V30 2868 H 265.609 3.51527 1.73698 0
M  V30 2869 H 267.099 3.20489 2.67725 0
M  V30 2870 N 267.536 -0.106894 1.57237 0
M  V30 2871 C 268.499 -1.11466 2.0027 0
M  V30 2872 C 269.499 -1.33623 0.894519 0
M  V30 2873 O 270.689 -1.29935 1.16028 0
M  V30 2874 C 267.821 -2.46646 2.35327 0
M  V30 2875 H 269.014 -0.744516 2.90512 0
M  V30 2876 H 266.567 -0.351576 1.52295 0
M  V30 2877 H 267.302 -2.88558 1.48003 0
M  V30 2878 H 267.087 -2.31915 3.16161 0
M  V30 2879 H 268.577 -3.19151 2.69318 0
M  V30 2880 N 269.014 -1.53014 -0.377408 0
M  V30 2881 C 270.261 -1.68623 -1.12128 0
M  V30 2882 C 270.589 -0.431997 -1.89642 0
M  V30 2883 O 269.844 0.585855 -1.86725 0
M  V30 2884 C 270.143 -2.87982 -2.11663 0
M  V30 2885 C 269.809 -4.24964 -1.50719 0
M  V30 2886 C 268.471 -4.62217 -1.33825 0
M  V30 2887 C 270.823 -5.10199 -1.06519 0
M  V30 2888 C 268.151 -5.82352 -0.712963 0
M  V30 2889 C 270.503 -6.30969 -0.453955 0
M  V30 2890 C 269.167 -6.66944 -0.272411 0
M  V30 2891 H 268.437 -0.617034 -0.410305 0
M  V30 2892 H 271.084 -1.8718 -0.404484 0
M  V30 2893 H 269.389 -2.63889 -2.89603 0
M  V30 2894 H 271.086 -2.97253 -2.6915 0
M  V30 2895 H 267.676 -3.95626 -1.64858 0
M  V30 2896 H 271.86 -4.81978 -1.18368 0
M  V30 2897 H 267.116 -6.08824 -0.560611 0
M  V30 2898 H 271.29 -6.96324 -0.103217 0
M  V30 2899 H 268.917 -7.59898 0.214181 0
M  V30 2900 N 270.492 0.636531 -1.44174 0
M  V30 2901 C 271.72 1.42353 -1.50144 0
M  V30 2902 C 272.135 1.88389 -0.124575 0
M  V30 2903 O 271.492 1.6051 0.868489 0
M  V30 2904 C 271.543 2.64744 -2.46156 0
M  V30 2905 O 271.264 2.20629 -3.7849 0
M  V30 2906 C 272.765 3.57929 -2.61537 0
M  V30 2907 H 269.985 0.436752 -0.5094 0
M  V30 2908 H 272.529 0.778933 -1.89084 0
M  V30 2909 H 270.684 3.25307 -2.10366 0
M  V30 2910 H 271.098 2.99938 -4.30276 0
M  V30 2911 H 272.572 4.40428 -3.32757 0
M  V30 2912 H 273.049 4.06382 -1.66585 0
M  V30 2913 H 273.655 3.03238 -2.98206 0
M  V30 2914 N 271.97 1.30982 0.876444 0
M  V30 2915 C 272.92 1.14688 1.97055 0
M  V30 2916 C 273.904 0.0596593 1.60789 0
M  V30 2917 O 275.096 0.283892 1.74708 0
M  V30 2918 C 272.225 0.849627 3.3262 0
M  V30 2919 C 271.311 1.97752 3.75173 0
M  V30 2920 N 271.702 3.22384 3.89746 0
M  V30 2921 C 270 1.8758 4.04635 0
M  V30 2922 C 270.701 3.96121 4.25985 0
M  V30 2923 N 269.677 3.24237 4.36315 0
M  V30 2924 H 273.479 2.09204 2.06424 0
M  V30 2925 H 270.993 1.22445 1.06682 0
M  V30 2926 H 272.99 0.713895 4.10742 0
M  V30 2927 H 271.65 -0.087376 3.24582 0
M  V30 2928 H 272.661 3.57575 3.74647 0
M  V30 2929 H 269.338 1.01303 4.05024 0
M  V30 2930 H 270.728 5.03491 4.44911 0
M  V30 2931 N 273.449 -1.08991 1.13837 0
M  V30 2932 C 274.677 -1.85011 0.926202 0
M  V30 2933 C 275.092 -1.8135 -0.525127 0
M  V30 2934 O 274.449 -1.21287 -1.36366 0
M  V30 2935 C 274.5 -3.32802 1.41155 0
M  V30 2936 O 274.221 -3.36444 2.80601 0
M  V30 2937 C 275.722 -4.25649 1.23847 0
M  V30 2938 H 272.942 -0.584249 0.32999 0
M  V30 2939 H 275.486 -1.37688 1.51202 0
M  V30 2940 H 273.641 -3.77536 0.868631 0
M  V30 2941 H 274.055 -4.28657 3.02248 0
M  V30 2942 H 275.529 -5.27485 1.62675 0
M  V30 2943 H 276.006 -4.38828 0.18065 0
M  V30 2944 H 276.612 -3.86735 1.76964 0
M  V30 2945 N 274.927 -0.932562 -1.27047 0
M  V30 2946 C 276.173 -0.576412 -1.94436 0
M  V30 2947 C 276.506 0.880891 -1.73072 0
M  V30 2948 O 275.781 1.62905 -1.06264 0
M  V30 2949 C 276.064 -0.909031 -3.48437 0
M  V30 2950 C 275.917 -2.42044 -3.79123 0
M  V30 2951 C 277.236 -0.418341 -4.38107 0
M  V30 2952 H 274.355 -0.210888 -0.706184 0
M  V30 2953 H 276.997 -1.16522 -1.50075 0
M  V30 2954 H 275.147 -0.407947 -3.86352 0
M  V30 2955 H 276.819 -2.99359 -3.50973 0
M  V30 2956 H 275.062 -2.86758 -3.25503 0
M  V30 2957 H 275.733 -2.6037 -4.86736 0
M  V30 2958 H 278.209 -0.847856 -4.0737 0
M  V30 2959 H 277.085 -0.679981 -5.44672 0
M  V30 2960 H 277.346 0.681642 -4.36814 0
M  V30 2961 N 276.405 1.4127 -0.698611 0
M  V30 2962 C 277.63 2.06024 -0.238512 0
M  V30 2963 C 278.055 1.5224 1.10475 0
M  V30 2964 O 277.413 0.650623 1.69223 0
M  V30 2965 C 277.461 3.59988 -0.209952 0
M  V30 2966 O 276.565 4.04282 0.814235 0
M  V30 2967 H 275.906 0.653829 -0.115775 0
M  V30 2968 H 278.436 1.8098 -0.954326 0
M  V30 2969 H 278.446 4.07979 -0.0418436 0
M  V30 2970 H 277.121 3.98503 -1.1903 0
M  V30 2971 H 275.698 3.6779 0.615234 0
M  V30 2972 N 277.883 0.443576 1.51229 0
M  V30 2973 C 279.131 -0.120557 2.0174 0
M  V30 2974 C 279.452 -1.42665 1.32935 0
M  V30 2975 O 278.722 -1.9028 0.465866 0
M  V30 2976 H 277.302 -0.0475426 0.745486 0
M  V30 2977 H 279.964 0.587711 1.85828 0
M  V30 2978 H 279.06 -0.291972 3.10731 0
M  V30 2979 N 279.361 -1.56624 0.175154 0
M  V30 2980 C 280.324 -2.16934 -0.739738 0
M  V30 2981 C 281.324 -1.11842 -1.15533 0
M  V30 2982 O 282.514 -1.37335 -1.07167 0
M  V30 2983 C 279.646 -2.75531 -2.00738 0
M  V30 2984 H 280.839 -2.99131 -0.214639 0
M  V30 2985 H 278.392 -1.56123 -0.0744197 0
M  V30 2986 H 279.127 -1.97078 -2.57548 0
M  V30 2987 H 278.912 -3.52444 -1.71831 0
M  V30 2988 H 280.402 -3.21904 -2.66021 0
M  V30 2989 N 280.839 0.0985539 -1.57292 0
M  V30 2990 C 281.769 1.12064 -2.04851 0
M  V30 2991 C 282.75 1.41981 -0.936767 0
M  V30 2992 O 283.935 1.52071 -1.20781 0
M  V30 2993 C 281.065 2.44144 -2.47004 0
M  V30 2994 C 280.019 2.28643 -3.6181 0
M  V30 2995 C 279.345 3.65869 -3.89929 0
M  V30 2996 C 280.645 1.72986 -4.92822 0
M  V30 2997 H 282.339 0.724979 -2.9049 0
M  V30 2998 H 279.885 0.34729 -1.39749 0
M  V30 2999 H 281.838 3.15914 -2.78884 0
M  V30 3000 H 280.562 2.85639 -1.5836 0
M  V30 3001 H 279.221 1.59318 -3.30172 0
M  V30 3002 H 278.869 4.04885 -2.98458 0
M  V30 3003 H 278.569 3.56344 -4.67218 0
M  V30 3004 H 280.093 4.39112 -4.2428 0
M  V30 3005 H 281.507 2.34593 -5.23105 0
M  V30 3006 H 279.904 1.74229 -5.74251 0
M  V30 3007 H 280.974 0.689007 -4.7998 0
M  V30 3008 N 282.317 1.53212 0.369288 0
M  V30 3009 C 283.247 1.82365 1.45826 0
M  V30 3010 C 284.228 0.676907 1.56051 0
M  V30 3011 O 285.413 0.926401 1.70679 0
M  V30 3012 C 282.543 2.01023 2.83208 0
M  V30 3013 C 281.497 3.1678 2.8781 0
M  V30 3014 C 280.823 3.20724 4.27832 0
M  V30 3015 C 282.123 4.55447 2.55667 0
M  V30 3016 H 283.817 2.73559 1.21678 0
M  V30 3017 H 281.363 1.3163 0.583911 0
M  V30 3018 H 283.316 2.20001 3.59413 0
M  V30 3019 H 282.04 1.06536 3.08736 0
M  V30 3020 H 280.699 2.97616 2.14056 0
M  V30 3021 H 280.347 2.23882 4.50429 0
M  V30 3022 H 280.047 3.98496 4.31827 0
M  V30 3023 H 281.571 3.41881 5.05915 0
M  V30 3024 H 282.985 4.74611 3.21586 0
M  V30 3025 H 281.382 5.35432 2.70984 0
M  V30 3026 H 282.452 4.60812 1.5093 0
M  V30 3027 N 283.795 -0.628877 1.44509 0
M  V30 3028 C 285.023 -1.41554 1.50897 0
M  V30 3029 C 285.438 -1.8832 0.134564 0
M  V30 3030 O 284.795 -1.60969 -0.859965 0
M  V30 3031 C 284.846 -2.63435 2.47556 0
M  V30 3032 O 284.567 -2.18619 3.79654 0
M  V30 3033 C 286.068 -3.56537 2.63431 0
M  V30 3034 H 283.288 -0.434044 0.511709 0
M  V30 3035 H 285.832 -0.768895 1.89495 0
M  V30 3036 H 283.987 -3.24187 2.12089 0
M  V30 3037 H 284.401 -2.97652 4.31861 0
M  V30 3038 H 285.875 -4.38657 3.35088 0
M  V30 3039 H 286.352 -4.05493 1.68738 0
M  V30 3040 H 286.958 -3.01653 2.9981 0
M  V30 3041 N 285.273 -1.31445 -0.869486 0
M  V30 3042 C 286.236 -1.19094 -1.9583 0
M  V30 3043 C 287.236 -0.117906 -1.60367 0
M  V30 3044 O 288.426 -0.367208 -1.70286 0
M  V30 3045 C 285.558 -0.828165 -3.30688 0
M  V30 3046 H 286.751 -2.15842 -2.08212 0
M  V30 3047 H 284.304 -1.15063 -1.05784 0
M  V30 3048 H 285.039 0.138142 -3.24006 0
M  V30 3049 H 284.824 -1.6038 -3.578 0
M  V30 3050 H 286.314 -0.765658 -4.10521 0
M  V30 3051 N 286.751 1.08385 -1.14413 0
M  V30 3052 C 287.999 1.80419 -0.910679 0
M  V30 3053 C 288.32 1.86658 0.564243 0
M  V30 3054 O 287.59 1.35985 1.41014 0
M  V30 3055 H 286.17 0.668204 -0.333934 0
M  V30 3056 H 288.832 1.31037 -1.44275 0
M  V30 3057 H 287.928 2.83238 -1.31082 0
M  V30 3058 N 288.23 0.939286 1.26551 0
M  V30 3059 C 289.458 0.602536 1.97932 0
M  V30 3060 C 289.873 -0.82206 1.69964 0
M  V30 3061 O 289.23 -1.54789 0.966784 0
M  V30 3062 C 289.281 0.832946 3.51773 0
M  V30 3063 O 289.002 2.20151 3.78768 0
M  V30 3064 C 290.503 0.506483 4.40397 0
M  V30 3065 H 287.723 0.227248 0.631347 0
M  V30 3066 H 290.267 1.25948 1.61113 0
M  V30 3067 H 288.422 0.222644 3.8676 0
M  V30 3068 H 288.836 2.26013 4.73306 0
M  V30 3069 H 290.31 0.718333 5.47306 0
M  V30 3070 H 290.787 -0.558451 4.35635 0
M  V30 3071 H 291.393 1.09543 4.10951 0
M  V30 3072 N 289.708 -1.40897 0.706093 0
M  V30 3073 C 290.955 -2.01054 0.241531 0
M  V30 3074 C 291.283 -1.55956 -1.16223 0
M  V30 3075 O 290.538 -0.766336 -1.80072 0
M  V30 3076 C 290.837 -3.5646 0.259099 0
M  V30 3077 C 290.503 -4.21106 1.61184 0
M  V30 3078 C 289.165 -4.38479 1.98216 0
M  V30 3079 C 291.517 -4.57256 2.50132 0
M  V30 3080 C 288.845 -4.89282 3.2376 0
M  V30 3081 C 291.197 -5.09454 3.7502 0
M  V30 3082 C 289.861 -5.25037 4.12181 0
M  V30 3083 H 289.131 -0.73571 0.0883825 0
M  V30 3084 H 291.778 -1.68645 0.907257 0
M  V30 3085 H 290.083 -3.88721 -0.490189 0
M  V30 3086 H 291.78 -4.00826 -0.11804 0
M  V30 3087 H 288.37 -4.07966 1.31384 0
M  V30 3088 H 292.554 -4.43479 2.228 0
M  V30 3089 H 287.81 -4.99531 3.52532 0
M  V30 3090 H 291.984 -5.36404 4.44121 0
M  V30 3091 H 289.611 -5.64164 5.09532 0
M  V30 3092 N 291.186 -0.45159 -1.50991 0
M  V30 3093 C 292.432 0.110237 -2.025 0
M  V30 3094 C 292.765 1.41109 -1.33424 0
M  V30 3095 O 292.04 1.89135 -0.453659 0
M  V30 3096 C 292.323 0.314271 -3.58726 0
M  V30 3097 C 292.176 -1.00623 -4.38401 0
M  V30 3098 C 293.495 1.07767 -4.26702 0
M  V30 3099 H 290.614 0.0385897 -0.735989 0
M  V30 3100 H 293.256 -0.593374 -1.80497 0
M  V30 3101 H 291.406 0.913601 -3.77605 0
M  V30 3102 H 293.078 -1.64064 -4.31139 0
M  V30 3103 H 291.321 -1.6075 -4.02917 0
M  V30 3104 H 291.992 -0.817341 -5.45915 0
M  V30 3105 H 294.468 0.56986 -4.12179 0
M  V30 3106 H 293.344 1.18921 -5.35863 0
M  V30 3107 H 293.605 2.10939 -3.88532 0
M  V30 3108 N 292.664 1.56529 -0.183458 0
M  V30 3109 C 293.627 2.17324 0.728223 0
M  V30 3110 C 294.627 1.12453 1.14939 0
M  V30 3111 O 295.817 1.37902 1.06437 0
M  V30 3112 C 292.949 2.76591 1.99274 0
M  V30 3113 H 294.142 2.99241 0.198772 0
M  V30 3114 H 291.695 1.5616 0.0661391 0
M  V30 3115 H 292.43 1.98441 2.56499 0
M  V30 3116 H 292.215 3.5335 1.69959 0
M  V30 3117 H 293.705 3.23311 2.6431 0
M  V30 3118 N 294.142 -0.090211 1.57342 0
M  V30 3119 C 295.105 -1.09335 2.01441 0
M  V30 3120 C 296.105 -1.32666 0.908641 0
M  V30 3121 O 297.295 -1.28697 1.174 0
M  V30 3122 C 294.427 -2.44136 2.3793 0
M  V30 3123 H 295.62 -0.713662 2.91285 0
M  V30 3124 H 293.173 -0.335404 1.52659 0
M  V30 3125 H 293.908 -2.86972 1.51055 0
M  V30 3126 H 293.693 -2.28548 3.18603 0
M  V30 3127 H 295.183 -3.16277 2.72688 0
M  V30 3128 N 295.62 -1.53406 -0.361157 0
M  V30 3129 C 296.866 -1.70054 -1.10496 0
M  V30 3130 C 297.199 -0.453278 -1.88836 0
M  V30 3131 O 296.474 0.5495 -1.86576 0
M  V30 3132 C 296.757 -2.95317 -2.06058 0
M  V30 3133 C 296.61 -4.3021 -1.31298 0
M  V30 3134 C 297.929 -3.16193 -3.06121 0
M  V30 3135 H 295.048 -0.618799 -0.400321 0
M  V30 3136 H 297.69 -1.86052 -0.385318 0
M  V30 3137 H 295.84 -2.81809 -2.67425 0
M  V30 3138 H 297.512 -4.55538 -0.726807 0
M  V30 3139 H 295.755 -4.29421 -0.614853 0
M  V30 3140 H 296.426 -5.14 -2.01265 0
M  V30 3141 H 298.902 -3.28916 -2.5486 0
M  V30 3142 H 297.778 -4.05266 -3.70204 0
M  V30 3143 H 298.039 -2.31676 -3.76535 0
M  V30 3144 N 297.098 0.621204 -1.44841 0
M  V30 3145 C 298.323 1.41244 -1.51871 0
M  V30 3146 C 298.748 1.87519 -0.147764 0
M  V30 3147 O 298.106 1.59334 0.865 0
M  V30 3148 C 298.154 2.60221 -2.49634 0
M  V30 3149 O 297.258 3.60395 -2.00473 0
M  V30 3150 H 296.599 0.42223 -0.512463 0
M  V30 3151 H 299.129 0.757305 -1.90069 0
M  V30 3152 H 299.139 3.0764 -2.67996 0
M  V30 3153 H 297.814 2.25887 -3.4921 0
M  V30 3154 H 296.391 3.19717 -1.91925 0
M  V30 3155 N 298.576 1.31904 0.862503 0
M  V30 3156 C 299.539 1.20131 1.95195 0
M  V30 3157 C 300.539 0.126409 1.60302 0
M  V30 3158 O 301.729 0.376234 1.70089 0
M  V30 3159 C 298.861 0.845691 3.30244 0
M  V30 3160 H 300.054 2.16943 2.07064 0
M  V30 3161 H 297.607 1.15622 1.05172 0
M  V30 3162 H 298.342 -0.120957 3.24074 0
M  V30 3163 H 298.127 1.62276 3.56944 0
M  V30 3164 H 299.617 0.787418 4.10109 0
M  V30 3165 N 300.054 -1.07777 1.14986 0
M  V30 3166 C 301.3 -1.80719 0.93339 0
M  V30 3167 C 301.655 -1.8484 -0.534019 0
M  V30 3168 O 300.948 -1.31795 -1.3907 0
M  V30 3169 C 301.142 -3.25495 1.47608 0
M  V30 3170 C 300.971 -3.3548 2.99472 0
M  V30 3171 C 299.741 -3.46293 3.6798 0
M  V30 3172 C 301.939 -3.26596 3.97291 0
M  V30 3173 N 299.921 -3.45136 5.07695 0
M  V30 3174 C 301.292 -3.32506 5.23297 0
M  V30 3175 C 303.347 -3.10376 3.89321 0
M  V30 3176 C 302.05 -3.23866 6.42264 0
M  V30 3177 C 304.076 -3.03069 5.07842 0
M  V30 3178 C 303.438 -3.09587 6.32721 0
M  V30 3179 H 299.537 -0.674814 0.395158 0
M  V30 3180 H 302.121 -1.28681 1.46114 0
M  V30 3181 H 300.292 -3.75963 0.975022 0
M  V30 3182 H 302.024 -3.86535 1.19887 0
M  V30 3183 H 298.779 -3.50456 3.18555 0
M  V30 3184 H 299.203 -3.48097 5.80653 0
M  V30 3185 H 303.845 -3.04194 2.93642 0
M  V30 3186 H 301.563 -3.28807 7.38181 0
M  V30 3187 H 305.149 -2.91629 5.03432 0
M  V30 3188 H 304.029 -3.0397 7.22891 0
M  V30 3189 N 301.532 -0.945985 -1.26051 0
M  V30 3190 C 302.778 -0.606539 -1.94146 0
M  V30 3191 C 303.133 0.84586 -1.72809 0
M  V30 3192 O 302.426 1.59781 -1.05738 0
M  V30 3193 C 302.62 -0.890475 -3.46129 0
M  V30 3194 C 302.449 -2.36892 -3.82246 0
M  V30 3195 C 301.219 -3.02494 -4.04753 0
M  V30 3196 C 303.417 -3.34772 -3.90425 0
M  V30 3197 N 301.399 -4.40302 -4.27794 0
M  V30 3198 C 302.77 -4.57855 -4.18054 0
M  V30 3199 C 304.825 -3.2973 -3.73072 0
M  V30 3200 C 303.528 -5.76522 -4.30134 0
M  V30 3201 C 305.554 -4.47727 -3.86386 0
M  V30 3202 C 304.916 -5.69593 -4.14419 0
M  V30 3203 H 301.015 -0.272407 -0.73302 0
M  V30 3204 H 303.599 -1.21638 -1.52027 0
M  V30 3205 H 301.77 -0.309638 -3.87164 0
M  V30 3206 H 303.502 -0.51181 -4.01451 0
M  V30 3207 H 300.257 -2.53095 -4.003 0
M  V30 3208 H 300.681 -5.11646 -4.43337 0
M  V30 3209 H 305.323 -2.36565 -3.50424 0
M  V30 3210 H 303.041 -6.70136 -4.51601 0
M  V30 3211 H 306.627 -4.45363 -3.74356 0
M  V30 3212 H 305.507 -6.59375 -4.24493 0
M  V30 3213 N 303.011 1.40521 -0.713556 0
M  V30 3214 C 303.941 2.33381 -0.0743864 0
M  V30 3215 C 304.922 1.52784 0.747735 0
M  V30 3216 O 306.107 1.81258 0.697071 0
M  V30 3217 C 303.237 3.36748 0.849598 0
M  V30 3218 C 302.191 4.27793 0.133247 0
M  V30 3219 C 301.517 5.21679 1.17281 0
M  V30 3220 C 302.817 5.12415 -1.01134 0
M  V30 3221 H 304.511 2.87081 -0.850007 0
M  V30 3222 H 302.057 1.38034 -0.410201 0
M  V30 3223 H 304.01 4.00648 1.30612 0
M  V30 3224 H 302.734 2.81439 1.65709 0
M  V30 3225 H 301.393 3.65342 -0.303426 0
M  V30 3226 H 301.041 4.62677 1.9733 0
M  V30 3227 H 300.741 5.83435 0.698397 0
M  V30 3228 H 302.265 5.88456 1.62947 0
M  V30 3229 H 303.679 5.69781 -0.634274 0
M  V30 3230 H 302.076 5.83203 -1.41399 0
M  V30 3231 H 303.146 4.48514 -1.84292 0
M  V30 3232 N 304.489 0.459591 1.5075 0
M  V30 3233 C 305.735 -0.0994966 2.02556 0
M  V30 3234 C 306.068 -1.40399 1.3417 0
M  V30 3235 O 305.343 -1.88892 0.463683 0
M  V30 3236 C 305.626 -0.295242 3.58888 0
M  V30 3237 C 305.479 1.02947 4.37861 0
M  V30 3238 C 306.798 -1.05502 4.27267 0
M  V30 3239 H 303.917 -0.034686 0.736183 0
M  V30 3240 H 306.559 0.602938 1.8018 0
M  V30 3241 H 304.709 -0.893563 3.78084 0
M  V30 3242 H 306.381 1.66348 4.30263 0
M  V30 3243 H 304.624 1.62885 4.02058 0
M  V30 3244 H 305.295 0.846281 5.45474 0
M  V30 3245 H 307.771 -0.547993 4.12476 0
M  V30 3246 H 306.647 -1.16077 5.36486 0
M  V30 3247 H 306.908 -2.08875 3.89645 0
M  V30 3248 N 305.967 -1.56429 0.191757 0
M  V30 3249 C 307.383 -1.58754 -0.164137 0
M  V30 3250 C 307.583 -1.20782 -1.61288 0
M  V30 3251 O 306.639 -0.928999 -2.34789 0
M  V30 3252 C 307.952 -3.00396 0.135195 0
M  V30 3253 C 309.5 -3.1291 0.0750351 0
M  V30 3254 C 309.975 -4.56679 0.347632 0
M  V30 3255 N 311.466 -4.62252 0.296131 0
M  V30 3256 C 312.201 -5.71379 0.480948 0
M  V30 3257 N 311.697 -6.88986 0.725933 0
M  V30 3258 N 313.49 -5.60563 0.415435 0
M  V30 3259 H 305.641 -1.79393 1.13718 0
M  V30 3260 H 307.904 -0.832414 0.453643 0
M  V30 3261 H 307.61 -3.32726 1.13958 0
M  V30 3262 H 307.484 -3.72963 -0.563773 0
M  V30 3263 H 309.871 -2.80394 -0.919948 0
M  V30 3264 H 309.952 -2.42736 0.807029 0
M  V30 3265 H 309.596 -4.89907 1.33992 0
M  V30 3266 H 309.526 -5.25039 -0.405212 0
M  V30 3267 H 312.017 -3.7773 0.113259 0
M  V30 3268 H 312.33 -7.68046 0.855857 0
M  V30 3269 H 310.675 -6.90801 0.762788 0
M  V30 3270 H 313.866 -4.67561 0.224486 0
M  V30 3271 H 314.039 -6.45551 0.562889 0
M  V30 3272 N 307.445 0.0818655 -1.57387 0
M  V30 3273 C 308.67 0.799946 -1.91352 0
M  V30 3274 C 309.095 1.70833 -0.787258 0
M  V30 3275 O 308.453 1.79419 0.26048 0
M  V30 3276 C 308.501 1.57812 -3.24234 0
M  V30 3277 O 307.605 2.68806 -3.12757 0
M  V30 3278 H 306.946 0.21891 -0.626877 0
M  V30 3279 H 309.476 0.0531256 -2.04531 0
M  V30 3280 H 309.486 1.95952 -3.57864 0
M  V30 3281 H 308.161 0.911548 -4.05788 0
M  V30 3282 H 306.738 2.33597 -2.90666 0
M  V30 3283 N 308.923 1.53595 0.353017 0
M  V30 3284 C 310.148 1.7462 1.11904 0
M  V30 3285 C 310.573 0.479721 1.8188 0
M  V30 3286 O 309.931 -0.567066 1.72204 0
M  V30 3287 C 309.979 2.92029 2.11545 0
M  V30 3288 O 309.083 2.61516 3.18878 0
M  V30 3289 H 308.424 0.579531 0.324099 0
M  V30 3290 H 310.954 2.00525 0.406301 0
M  V30 3291 H 310.964 3.18551 2.5493 0
M  V30 3292 H 309.639 3.83888 1.60008 0
M  V30 3293 H 308.216 2.45852 2.80377 0
M  V30 3294 N 310.401 -0.613514 1.45168 0
M  V30 3295 C 311.629 -1.39946 1.5239 0
M  V30 3296 C 312.044 -1.88167 0.154531 0
M  V30 3297 O 311.401 -1.61872 -0.842843 0
M  V30 3298 C 311.452 -2.60795 2.50337 0
M  V30 3299 O 311.173 -2.1458 3.81952 0
M  V30 3300 C 312.674 -3.53723 2.67198 0
M  V30 3301 H 309.894 -0.428593 0.516284 0
M  V30 3302 H 312.438 -0.748753 1.903 0
M  V30 3303 H 310.593 -3.21919 2.15515 0
M  V30 3304 H 311.007 -2.93055 4.34993 0
M  V30 3305 H 312.481 -4.35079 3.39721 0
M  V30 3306 H 312.958 -4.0368 1.73029 0
M  V30 3307 H 313.564 -2.98456 3.02992 0
M  V30 3308 N 311.879 -1.3236 -0.855495 0
M  V30 3309 C 313.107 -1.2587 -1.64208 0
M  V30 3310 C 313.522 0.173457 -1.88002 0
M  V30 3311 O 312.879 1.11027 -1.44842 0
M  V30 3312 C 312.93 -2.01424 -3.00184 0
M  V30 3313 O 312.651 -3.39051 -2.77445 0
M  V30 3314 C 314.152 -2.01948 -3.94629 0
M  V30 3315 H 311.372 -0.434318 -0.511477 0
M  V30 3316 H 313.916 -1.74469 -1.0668 0
M  V30 3317 H 312.071 -1.56549 -3.5436 0
M  V30 3318 H 312.485 -3.77711 -3.63916 0
M  V30 3319 H 313.959 -2.59297 -4.87308 0
M  V30 3320 H 314.436 -1.00554 -4.27534 0
M  V30 3321 H 315.042 -2.46767 -3.4639 0
M  V30 3322 N 313.357 1.07166 -1.15556 0
M  V30 3323 C 314.307 2.12649 -0.82247 0
M  V30 3324 C 315.291 1.59725 0.194129 0
M  V30 3325 O 316.483 1.76999 -0.00540402 0
M  V30 3326 C 313.612 3.41847 -0.315572 0
M  V30 3327 C 312.698 4.0162 -1.36244 0
M  V30 3328 N 313.089 4.35625 -2.5703 0
M  V30 3329 C 311.387 4.29114 -1.21562 0
M  V30 3330 C 312.088 4.83017 -3.24144 0
M  V30 3331 N 311.064 4.81906 -2.51531 0
M  V30 3332 H 314.866 2.36776 -1.74111 0
M  V30 3333 H 312.38 1.24622 -1.0413 0
M  V30 3334 H 314.377 4.16859 -0.0585855 0
M  V30 3335 H 313.037 3.19163 0.597105 0
M  V30 3336 H 314.048 4.26253 -2.94158 0
M  V30 3337 H 310.725 4.15919 -0.362988 0
M  V30 3338 H 312.115 5.18605 -4.27198 0
M  V30 3339 N 314.835 0.952656 1.25548 0
M  V30 3340 C 315.798 0.475794 2.24207 0
M  V30 3341 C 316.798 -0.419428 1.55234 0
M  V30 3342 O 317.988 -0.216994 1.72843 0
M  V30 3343 C 315.12 -0.312814 3.39462 0
M  V30 3344 H 316.313 1.34779 2.67908 0
M  V30 3345 H 313.866 0.735739 1.37901 0
M  V30 3346 H 314.601 -1.20257 3.01179 0
M  V30 3347 H 314.386 0.329404 3.90714 0
M  V30 3348 H 315.876 -0.635986 4.12729 0
M  V30 3349 N 316.313 -1.40141 0.720998 0
M  V30 3350 C 317.59 -1.94677 0.189757 0
M  V30 3351 C 317.97 -1.65879 -1.30566 0
M  V30 3352 O 317.318 -0.979391 -2.06447 0
M  V30 3353 C 317.528 -3.45279 0.508304 0
M  V30 3354 C 318.876 -4.22209 0.449934 0
M  V30 3355 O 319.9 -3.53413 0.444677 0
M  V30 3356 O 318.759 -5.44788 0.432189 0
M  V30 3357 H 315.853 -0.826459 0.0299026 0
M  V30 3358 H 318.399 -1.49719 0.7989 0
M  V30 3359 H 317.171 -3.59619 1.54239 0
M  V30 3360 H 316.794 -3.97386 -0.130525 0
M  V30 3361 N 317.792 -0.46758 -1.50504 0
M  V30 3362 C 319.017 0.0886943 -2.0721 0
M  V30 3363 C 319.442 1.33057 -1.32956 0
M  V30 3364 O 318.8 1.77354 -0.376197 0
M  V30 3365 C 318.848 0.359202 -3.58806 0
M  V30 3366 O 317.952 1.44034 -3.8643 0
M  V30 3367 H 317.293 -0.0114349 -0.663902 0
M  V30 3368 H 319.823 -0.657613 -1.93744 0
M  V30 3369 H 319.833 0.600742 -4.03553 0
M  V30 3370 H 318.508 -0.548311 -4.1227 0
M  V30 3371 H 317.085 1.18638 -3.53524 0
M  V30 3372 N 319.27 1.56325 -0.20005 0
M  V30 3373 C 320.547 1.89484 0.48529 0
M  V30 3374 C 320.927 1.1143 1.79294 0
M  V30 3375 O 320.275 0.216919 2.27468 0
M  V30 3376 C 320.485 3.41923 0.699243 0
M  V30 3377 C 321.833 4.12256 1.01638 0
M  V30 3378 O 322.857 3.47402 0.786792 0
M  V30 3379 O 321.716 5.26887 1.45095 0
M  V30 3380 H 318.81 0.787144 0.253639 0
M  V30 3381 H 321.356 1.67985 -0.240633 0
M  V30 3382 H 320.128 3.90658 -0.224008 0
M  V30 3383 H 319.751 3.69131 1.47744 0
M  V30 3384 N 320.748 -0.0735177 1.57428 0
M  V30 3385 C 321.976 -0.785969 1.9139 0
M  V30 3386 C 322.391 -1.71207 0.795847 0
M  V30 3387 O 321.748 -1.81033 -0.230915 0
M  V30 3388 C 321.799 -1.58107 3.25091 0
M  V30 3389 O 321.52 -0.6922 4.32597 0
M  V30 3390 C 323.021 -2.39467 3.73055 0
M  V30 3391 H 320.241 -0.223558 0.632663 0
M  V30 3392 H 322.785 -0.044302 2.04452 0
M  V30 3393 H 320.94 -2.27503 3.13562 0
M  V30 3394 H 321.354 -1.24504 5.09508 0
M  V30 3395 H 322.828 -2.90716 4.69242 0
M  V30 3396 H 323.305 -3.18913 3.01979 0
M  V30 3397 H 323.911 -1.7523 3.87523 0
M  V30 3398 N 322.226 -1.5378 -0.344866 0
M  V30 3399 C 323.158 -1.77988 -1.44406 0
M  V30 3400 C 324.171 -0.661138 -1.48771 0
M  V30 3401 O 325.36 -0.937842 -1.51877 0
M  V30 3402 C 322.46 -1.86345 -2.8307 0
M  V30 3403 C 321.633 -3.16256 -3.0216 0
M  V30 3404 C 320.692 -3.15588 -4.21059 0
M  V30 3405 O 319.718 -3.89314 -4.15239 0
M  V30 3406 N 320.92 -2.37864 -5.29529 0
M  V30 3407 H 323.685 -2.72839 -1.24012 0
M  V30 3408 H 321.246 -1.52814 -0.534737 0
M  V30 3409 H 323.238 -1.83351 -3.60783 0
M  V30 3410 H 321.808 -0.986858 -2.96614 0
M  V30 3411 H 321.028 -3.32385 -2.11929 0
M  V30 3412 H 322.316 -4.0207 -3.11797 0
M  V30 3413 H 321.714 -1.77514 -5.37127 0
M  V30 3414 H 320.271 -2.40668 -6.05741 0
M  V30 3415 N 323.704 0.605807 -1.45491 0
M  V30 3416 C 324.667 1.69836 -1.5391 0
M  V30 3417 C 325.667 1.55261 -0.418424 0
M  V30 3418 O 326.857 1.60296 -0.681965 0
M  V30 3419 C 323.989 3.09117 -1.43734 0
M  V30 3420 H 325.182 1.63738 -2.51257 0
M  V30 3421 H 322.735 0.821689 -1.32959 0
M  V30 3422 H 323.47 3.20791 -0.475788 0
M  V30 3423 H 323.255 3.21104 -2.25021 0
M  V30 3424 H 324.745 3.88696 -1.52661 0
M  V30 3425 N 325.182 1.32811 0.848464 0
M  V30 3426 C 326.115 1.16601 1.96162 0
M  V30 3427 C 327.093 0.0638855 1.62474 0
M  V30 3428 O 328.277 0.224348 1.8716 0
M  V30 3429 C 325.404 0.786333 3.29446 0
M  V30 3430 C 324.45 1.89459 3.8211 0
M  V30 3431 S 325.283 3.50395 4.04949 0
M  V30 3432 C 326.439 3.14413 5.41198 0
M  V30 3433 H 326.672 2.10832 2.09612 0
M  V30 3434 H 324.205 1.17543 1.00115 0
M  V30 3435 H 326.163 0.574044 4.06466 0
M  V30 3436 H 324.824 -0.137218 3.138 0
M  V30 3437 H 324.017 1.58207 4.78526 0
M  V30 3438 H 323.619 2.06304 3.11953 0
M  V30 3439 H 325.911 2.64642 6.23675 0
M  V30 3440 H 326.854 4.09874 5.77416 0
M  V30 3441 H 327.262 2.51266 5.05495 0
M  V30 3442 N 326.66 -1.06551 1.16123 0
M  V30 3443 C 327.89 -1.8274 0.963838 0
M  V30 3444 C 328.298 -1.82712 -0.491228 0
M  V30 3445 O 327.641 -1.24294 -1.35265 0
M  V30 3446 C 327.703 -3.3065 1.41106 0
M  V30 3447 C 327.367 -3.54384 2.88549 0
M  V30 3448 C 328.364 -3.4765 3.86569 0
M  V30 3449 C 326.049 -3.81789 3.26408 0
M  V30 3450 C 328.043 -3.67982 5.2045 0
M  V30 3451 C 325.73 -4.01772 4.60459 0
M  V30 3452 C 326.728 -3.94866 5.57288 0
M  V30 3453 O 326.416 -4.14306 6.88916 0
M  V30 3454 H 326.148 -0.583136 0.341948 0
M  V30 3455 H 328.702 -1.35351 1.54497 0
M  V30 3456 H 326.932 -3.78887 0.773394 0
M  V30 3457 H 328.621 -3.88324 1.1815 0
M  V30 3458 H 329.387 -3.2647 3.58667 0
M  V30 3459 H 325.266 -3.86276 2.51619 0
M  V30 3460 H 328.81 -3.62507 5.96015 0
M  V30 3461 H 324.707 -4.2244 4.88072 0
M  V30 3462 H 325.475 -4.31609 6.95454 0
M  V30 3463 N 328.138 -0.959301 -1.25041 0
M  V30 3464 C 329.554 -0.664474 -1.4511 0
M  V30 3465 C 329.754 0.776481 -1.85938 0
M  V30 3466 O 328.81 1.55128 -1.99227 0
M  V30 3467 C 330.123 -1.64139 -2.5195 0
M  V30 3468 C 331.671 -1.65309 -2.65786 0
M  V30 3469 C 332.146 -2.61777 -3.75815 0
M  V30 3470 N 333.637 -2.60169 -3.83231 0
M  V30 3471 C 334.372 -3.31489 -4.6787 0
M  V30 3472 N 333.868 -4.12298 -5.56761 0
M  V30 3473 N 335.661 -3.20354 -4.61876 0
M  V30 3474 H 327.812 -1.89043 -0.968332 0
M  V30 3475 H 330.075 -0.813408 -0.4869 0
M  V30 3476 H 329.781 -2.67086 -2.28819 0
M  V30 3477 H 329.655 -1.40756 -3.49954 0
M  V30 3478 H 332.042 -0.630778 -2.8828 0
M  V30 3479 H 332.123 -1.92753 -1.68167 0
M  V30 3480 H 331.767 -3.64137 -3.54071 0
M  V30 3481 H 331.697 -2.31616 -4.72929 0
M  V30 3482 H 334.188 -2.01507 -3.19692 0
M  V30 3483 H 334.501 -4.63625 -6.18281 0
M  V30 3484 H 332.846 -4.16395 -5.56454 0
M  V30 3485 H 336.037 -2.56692 -3.91442 0
M  V30 3486 H 336.21 -3.76201 -5.27614 0
M  V30 3487 N 329.616 1.39756 -0.72842 0
M  V30 3488 C 331.027 1.83498 -0.344289 0
M  V30 3489 C 331.378 1.60868 1.12321 0
M  V30 3490 O 330.503 1.09634 1.86573 0
M  V30 3491 C 331.098 3.33114 -0.618112 0
M  V30 3492 C 329.657 3.753 -0.287549 0
M  V30 3493 C 328.804 2.62831 -0.884048 0
M  V30 3494 H 331.755 1.28842 -0.926578 0
M  V30 3495 H 331.776 3.80334 0.112349 0
M  V30 3496 H 331.288 3.49553 -1.68625 0
M  V30 3497 H 329.389 3.64451 0.775012 0
M  V30 3498 H 329.502 4.72945 -0.765512 0
M  V30 3499 H 327.866 2.52792 -0.311149 0
M  V30 3500 H 328.649 2.82078 -1.95671 0
M  V30 3501 N 331.094 0.475555 1.50254 0
M  V30 3502 C 332.057 -0.305016 2.27161 0
M  V30 3503 C 333.057 -0.916519 1.32123 0
M  V30 3504 O 334.247 -0.785003 1.5551 0
M  V30 3505 C 331.379 -1.43496 3.09227 0
M  V30 3506 H 332.572 0.369511 2.97615 0
M  V30 3507 H 330.125 0.229747 1.54602 0
M  V30 3508 H 330.86 -2.14441 2.43281 0
M  V30 3509 H 330.645 -1.00223 3.79075 0
M  V30 3510 H 332.135 -1.98548 3.67381 0
M  V30 3511 N 332.573 -1.56217 0.208337 0
M  V30 3512 C 333.801 -2.02337 -0.43215 0
M  V30 3513 C 334.216 -1.08834 -1.54275 0
M  V30 3514 O 333.573 -0.0955462 -1.8225 0
M  V30 3515 C 333.624 -3.48072 -0.976138 0
M  V30 3516 O 333.345 -4.38007 0.0901621 0
M  V30 3517 C 334.846 -4.09773 -1.69119 0
M  V30 3518 H 332.066 -0.662385 -0.10718 0
M  V30 3519 H 334.61 -2.01966 0.320923 0
M  V30 3520 H 332.765 -3.49099 -1.67954 0
M  V30 3521 H 333.179 -5.23543 -0.316701 0
M  V30 3522 H 334.653 -5.13556 -2.02397 0
M  V30 3523 H 335.13 -3.53999 -2.59964 0
M  V30 3524 H 335.736 -4.12556 -1.03332 0
M  V30 3525 N 334.051 0.0651679 -1.57465 0
M  V30 3526 C 335.3 0.761916 -1.86756 0
M  V30 3527 C 335.613 1.78406 -0.801925 0
M  V30 3528 O 336.819 2.53084 -0.982885 0
M  V30 3529 C 335.275 1.40603 -3.31299 0
M  V30 3530 C 334.883 0.422115 -4.46007 0
M  V30 3531 C 336.627 2.08476 -3.69781 0
M  V30 3532 C 334.534 1.07252 -5.81593 0
M  V30 3533 H 333.464 0.288308 -0.696702 0
M  V30 3534 H 336.115 0.015344 -1.83494 0
M  V30 3535 H 334.497 2.20109 -3.29193 0
M  V30 3536 H 335.671 -0.343613 -4.59517 0
M  V30 3537 H 333.986 -0.152527 -4.16121 0
M  V30 3538 H 336.583 2.57925 -4.68379 0
M  V30 3539 H 336.926 2.88712 -2.99919 0
M  V30 3540 H 337.459 1.35792 -3.73905 0
M  V30 3541 H 334.198 0.310342 -6.54765 0
M  V30 3542 H 333.718 1.80895 -5.71872 0
M  V30 3543 H 335.397 1.59043 -6.27148 0
M  V30 3544 N 335.529 1.53961 0.336706 0
M  V30 3545 C 336.459 1.85417 1.41925 0
M  V30 3546 C 337.44 0.709856 1.5458 0
M  V30 3547 O 338.625 0.962396 1.68676 0
M  V30 3548 C 335.755 2.06985 2.78881 0
M  V30 3549 C 334.709 3.22813 2.81026 0
M  V30 3550 C 334.035 3.29727 4.20932 0
M  V30 3551 C 335.335 4.60767 2.45949 0
M  V30 3552 H 337.029 2.76079 1.15848 0
M  V30 3553 H 334.575 1.32839 0.555859 0
M  V30 3554 H 336.528 2.27575 3.54665 0
M  V30 3555 H 335.252 1.13061 3.06406 0
M  V30 3556 H 333.911 3.0209 2.07695 0
M  V30 3557 H 333.559 2.33385 4.45579 0
M  V30 3558 H 333.259 4.07566 4.23277 0
M  V30 3559 H 334.783 3.52536 4.98549 0
M  V30 3560 H 336.197 4.81325 3.11446 0
M  V30 3561 H 334.594 5.4106 2.59566 0
M  V30 3562 H 335.664 4.6391 1.41122 0
M  V30 3563 N 337.007 -0.598083 1.45811 0
M  V30 3564 C 338.255 -1.35413 1.50026 0
M  V30 3565 C 338.576 -1.94444 0.147177 0
M  V30 3566 O 337.846 -1.77701 -0.824571 0
M  V30 3567 H 336.426 -0.502727 0.552517 0
M  V30 3568 H 339.088 -0.701606 1.81834 0
M  V30 3569 H 338.184 -2.16871 2.2444 0
M  V30 3570 N 338.485 -1.33259 -0.841409 0
M  V30 3571 C 339.725 -1.25902 -1.61022 0
M  V30 3572 C 340.089 0.173325 -1.91216 0
M  V30 3573 O 341.29 0.370824 -2.6623 0
M  V30 3574 C 339.561 -2.10735 -2.88662 0
M  V30 3575 S 341.12 -2.20541 -3.79351 0
M  V30 3576 H 337.938 -0.447958 -0.552137 0
M  V30 3577 H 340.54 -1.68263 -0.995382 0
M  V30 3578 H 339.244 -3.1384 -2.64448 0
M  V30 3579 H 338.775 -1.69201 -3.55154 0
M  V30 3580 H 340.79 -1.36462 -4.77067 0
M  V30 3581 N 339.963 1.05934 -1.16686 0
M  V30 3582 C 341.209 1.79211 -0.962023 0
M  V30 3583 C 341.564 1.85667 0.504545 0
M  V30 3584 O 340.857 1.33991 1.36956 0
M  V30 3585 C 341.051 3.23105 -1.52767 0
M  V30 3586 C 340.88 3.30673 -3.04771 0
M  V30 3587 C 339.65 3.40395 -3.73442 0
M  V30 3588 C 341.848 3.20234 -4.02436 0
M  V30 3589 N 339.83 3.37015 -5.13122 0
M  V30 3590 C 341.201 3.24138 -5.28521 0
M  V30 3591 C 343.256 3.04143 -3.9421 0
M  V30 3592 C 341.959 3.13607 -6.47336 0
M  V30 3593 C 343.985 2.94951 -5.12599 0
M  V30 3594 C 343.347 2.99481 -6.37566 0
M  V30 3595 H 339.446 0.668442 -0.405844 0
M  V30 3596 H 342.03 1.26341 -1.48142 0
M  V30 3597 H 340.201 3.74364 -1.03471 0
M  V30 3598 H 341.933 3.84579 -1.26021 0
M  V30 3599 H 338.688 3.45344 -3.2409 0
M  V30 3600 H 339.112 3.38815 -5.86117 0
M  V30 3601 H 343.754 2.99484 -2.98445 0
M  V30 3602 H 341.472 3.17022 -7.43319 0
M  V30 3603 H 345.058 2.83583 -5.08008 0
M  V30 3604 H 343.938 2.92431 -7.27636 0
M  V30 3605 N 341.441 0.965919 1.2453 0
M  V30 3606 C 342.687 0.62776 1.92839 0
M  V30 3607 C 343.02 -0.834694 1.75347 0
M  V30 3608 O 342.295 -1.60031 1.10546 0
M  V30 3609 C 342.578 1.00109 3.45905 0
M  V30 3610 C 342.431 2.52011 3.72573 0
M  V30 3611 C 343.75 0.53435 4.36844 0
M  V30 3612 H 340.869 0.229537 0.700344 0
M  V30 3613 H 343.511 1.2046 1.46933 0
M  V30 3614 H 341.661 0.510238 3.85135 0
M  V30 3615 H 343.333 3.08559 3.42912 0
M  V30 3616 H 341.576 2.95287 3.17786 0
M  V30 3617 H 342.247 2.73183 4.79661 0
M  V30 3618 H 344.723 0.955565 4.04979 0
M  V30 3619 H 343.599 0.824152 5.42678 0
M  V30 3620 H 343.86 -0.565589 4.38467 0
M  V30 3621 N 342.919 -1.39368 0.735821 0
M  V30 3622 C 343.882 -2.2896 0.104874 0
M  V30 3623 C 344.882 -1.46347 -0.666274 0
M  V30 3624 O 346.072 -1.67014 -0.49517 0
M  V30 3625 C 343.204 -3.29857 -0.860656 0
M  V30 3626 H 344.397 -2.86259 0.894205 0
M  V30 3627 H 341.95 -1.48029 0.501704 0
M  V30 3628 H 342.685 -2.77615 -1.67631 0
M  V30 3629 H 342.47 -3.9087 -0.310327 0
M  V30 3630 H 343.96 -3.96893 -1.29867 0
M  V30 3631 N 344.397 -0.483516 -1.5 0
M  V30 3632 C 345.327 0.293829 -2.31644 0
M  V30 3633 C 346.308 0.978864 -1.39112 0
M  V30 3634 O 347.493 0.973644 -1.68029 0
M  V30 3635 C 344.623 1.36897 -3.19181 0
M  V30 3636 C 343.577 0.804833 -4.20365 0
M  V30 3637 C 342.903 1.9792 -4.96721 0
M  V30 3638 C 344.203 -0.192313 -5.21946 0
M  V30 3639 H 345.897 -0.387616 -2.9688 0
M  V30 3640 H 343.443 -0.187856 -1.42769 0
M  V30 3641 H 345.396 1.92037 -3.751 0
M  V30 3642 H 344.12 2.07936 -2.51853 0
M  V30 3643 H 342.779 0.275319 -3.65565 0
M  V30 3644 H 342.427 2.67686 -4.25856 0
M  V30 3645 H 342.127 1.60789 -5.65173 0
M  V30 3646 H 343.651 2.53526 -5.55479 0
M  V30 3647 H 345.065 0.270333 -5.72662 0
M  V30 3648 H 343.462 -0.478543 -5.98189 0
M  V30 3649 H 344.532 -1.11409 -4.71928 0
M  V30 3650 N 345.875 1.56104 -0.216619 0
M  V30 3651 C 346.838 2.18819 0.681962 0
M  V30 3652 C 347.838 1.14866 1.12528 0
M  V30 3653 O 349.028 1.40128 1.03488 0
M  V30 3654 C 346.16 2.80756 1.93362 0
M  V30 3655 H 347.353 2.99595 0.135254 0
M  V30 3656 H 344.906 1.56265 0.0330003 0
M  V30 3657 H 345.641 2.03837 2.52232 0
M  V30 3658 H 345.426 3.56876 1.62426 0
M  V30 3659 H 346.916 3.28844 2.57393 0
M  V30 3660 N 347.353 -0.0568162 1.57498 0
M  V30 3661 C 348.316 -1.05038 2.03715 0
M  V30 3662 C 349.316 -1.30709 0.936577 0
M  V30 3663 O 350.506 -1.26178 1.20103 0
M  V30 3664 C 347.638 -2.39034 2.43055 0
M  V30 3665 H 348.831 -0.651715 2.92733 0
M  V30 3666 H 346.384 -0.302947 1.53336 0
M  V30 3667 H 347.119 -2.83703 1.57108 0
M  V30 3668 H 346.904 -2.21739 3.2338 0
M  V30 3669 H 348.394 -3.10421 2.79336 0
M  V30 3670 N 348.832 -1.54138 -0.328536 0
M  V30 3671 C 350.06 -1.76062 -1.08673 0
M  V30 3672 C 350.475 -0.506852 -1.81869 0
M  V30 3673 O 349.832 0.522223 -1.74869 0
M  V30 3674 C 349.883 -2.95054 -2.08866 0
M  V30 3675 O 349.604 -4.15583 -1.38644 0
M  V30 3676 C 351.105 -3.2915 -2.96943 0
M  V30 3677 H 348.325 -0.587889 -0.323461 0
M  V30 3678 H 350.869 -2.0101 -0.376175 0
M  V30 3679 H 349.024 -2.72394 -2.75464 0
M  V30 3680 H 349.438 -4.82481 -2.05699 0
M  V30 3681 H 350.912 -4.15723 -3.63151 0
M  V30 3682 H 351.389 -2.461 -3.63774 0
M  V30 3683 H 351.995 -3.53871 -2.35914 0
M  V30 3684 N 350.31 0.590341 -1.46126 0
M  V30 3685 C 351.273 1.68194 -1.55703 0
M  V30 3686 C 352.273 1.54808 -0.434868 0
M  V30 3687 O 353.463 1.59564 -0.698928 0
M  V30 3688 C 350.595 3.07575 -1.47005 0
M  V30 3689 H 351.788 1.61064 -2.52979 0
M  V30 3690 H 349.341 0.807541 -1.33823 0
M  V30 3691 H 350.076 3.20268 -0.509785 0
M  V30 3692 H 349.861 3.187 -2.28414 0
M  V30 3693 H 351.351 3.87055 -1.56776 0
M  V30 3694 N 351.788 1.33704 0.83433 0
M  V30 3695 C 353.036 1.25169 1.58673 0
M  V30 3696 C 353.357 -0.18127 1.94156 0
M  V30 3697 O 352.627 -1.11113 1.6134 0
M  V30 3698 H 351.207 0.4603 0.58833 0
M  V30 3699 H 353.869 1.67478 0.996847 0
M  V30 3700 H 352.965 1.84856 2.51465 0
M  V30 3701 N 353.266 -1.05314 1.17247 0
M  V30 3702 C 354.196 -2.1498 0.911362 0
M  V30 3703 C 355.177 -1.69471 -0.146169 0
M  V30 3704 O 356.362 -1.942 0.003812 0
M  V30 3705 C 353.492 -3.4472 0.422528 0
M  V30 3706 C 352.446 -4.03789 1.4191 0
M  V30 3707 C 351.772 -5.28858 0.788274 0
M  V30 3708 C 353.072 -4.41418 2.7919 0
M  V30 3709 H 354.766 -2.3708 1.82848 0
M  V30 3710 H 352.312 -1.13938 0.880569 0
M  V30 3711 H 354.265 -4.20787 0.227289 0
M  V30 3712 H 352.989 -3.22269 -0.530123 0
M  V30 3713 H 351.648 -3.2979 1.60106 0
M  V30 3714 H 351.296 -5.02709 -0.171173 0
M  V30 3715 H 350.996 -5.69338 1.45353 0
M  V30 3716 H 352.52 -6.07612 0.603282 0
M  V30 3717 H 353.934 -5.08524 2.64719 0
M  V30 3718 H 352.331 -4.92913 3.42282 0
M  V30 3719 H 353.401 -3.51819 3.33693 0
M  V30 3720 N 354.744 -0.972509 -1.24016 0
M  V30 3721 C 355.674 -0.525548 -2.27509 0
M  V30 3722 C 356.655 0.437262 -1.64384 0
M  V30 3723 O 357.84 0.332343 -1.91335 0
M  V30 3724 C 354.97 0.180448 -3.46831 0
M  V30 3725 C 353.924 -0.698859 -4.22256 0
M  V30 3726 C 353.25 0.138903 -5.3452 0
M  V30 3727 C 354.55 -1.98582 -4.83076 0
M  V30 3728 H 356.244 -1.39058 -2.65148 0
M  V30 3729 H 353.79 -0.67009 -1.27459 0
M  V30 3730 H 355.743 0.504387 -4.18371 0
M  V30 3731 H 354.467 1.07987 -3.08231 0
M  V30 3732 H 353.126 -1.00614 -3.52523 0
M  V30 3733 H 352.774 1.03862 -4.9216 0
M  V30 3734 H 352.474 -0.446259 -5.85903 0
M  V30 3735 H 353.998 0.457404 -6.08884 0
M  V30 3736 H 355.412 -1.72715 -5.46665 0
M  V30 3737 H 353.809 -2.5181 -5.44713 0
M  V30 3738 H 354.879 -2.67769 -4.04262 0
M  V30 3739 N 356.222 1.38976 -0.743202 0
M  V30 3740 C 357.469 2.00343 -0.294752 0
M  V30 3741 C 357.797 1.58983 1.12047 0
M  V30 3742 O 357.052 0.813809 1.77977 0
M  V30 3743 C 357.351 3.55647 -0.353517 0
M  V30 3744 C 357.017 4.16685 -1.72292 0
M  V30 3745 C 355.679 4.3307 -2.09771 0
M  V30 3746 C 358.031 4.50464 -2.62168 0
M  V30 3747 C 355.359 4.80526 -3.36618 0
M  V30 3748 C 357.711 4.99332 -3.88395 0
M  V30 3749 C 356.375 5.13924 -4.25956 0
M  V30 3750 H 355.645 0.733108 -0.107857 0
M  V30 3751 H 358.292 1.6618 -0.951651 0
M  V30 3752 H 356.597 3.89884 0.386954 0
M  V30 3753 H 358.294 4.00998 0.0117269 0
M  V30 3754 H 354.884 4.04339 -1.42155 0
M  V30 3755 H 359.068 4.37416 -2.3448 0
M  V30 3756 H 354.324 4.90008 -3.65653 0
M  V30 3757 H 358.498 5.2444 -4.58187 0
M  V30 3758 H 356.125 5.50457 -5.2431 0
M  V30 3759 N 357.7 0.491464 1.49741 0
M  V30 3760 C 358.928 -0.0535151 2.06831 0
M  V30 3761 C 359.343 -1.31683 1.35296 0
M  V30 3762 O 358.7 -1.77402 0.42836 0
M  V30 3763 C 358.751 -0.320835 3.60073 0
M  V30 3764 O 358.472 0.892394 4.28915 0
M  V30 3765 C 359.973 -0.910519 4.33848 0
M  V30 3766 H 357.193 0.0161909 0.670805 0
M  V30 3767 H 359.737 0.68609 1.92647 0
M  V30 3768 H 357.892 -1.0104 3.73991 0
M  V30 3769 H 358.306 0.649401 5.20464 0
M  V30 3770 H 359.78 -1.04721 5.41976 0
M  V30 3771 H 360.257 -1.90589 3.95692 0
M  V30 3772 H 360.863 -0.258712 4.24512 0
M  V30 3773 N 359.178 -1.55987 0.224894 0
M  V30 3774 C 360.426 -1.97998 -0.405099 0
M  V30 3775 C 360.747 -1.11387 -1.60056 0
M  V30 3776 O 360.017 -0.191645 -1.9496 0
M  V30 3777 H 358.597 -0.731235 -0.152658 0
M  V30 3778 H 361.259 -1.92279 0.318567 0
M  V30 3779 H 360.355 -3.03463 -0.729167 0
M  V30 3780 N 360.656 0.0484629 -1.57525 0
M  V30 3781 C 361.933 0.777447 -1.79486 0
M  V30 3782 C 362.313 1.94597 -0.818251 0
M  V30 3783 O 361.661 2.28047 0.143767 0
M  V30 3784 C 361.871 1.22864 -3.26658 0
M  V30 3785 C 363.219 1.65251 -3.91123 0
M  V30 3786 O 364.243 1.32372 -3.3069 0
M  V30 3787 O 363.102 2.26207 -4.97486 0
M  V30 3788 H 360.196 0.374357 -0.737419 0
M  V30 3789 H 362.742 0.0267359 -1.69679 0
M  V30 3790 H 361.514 0.393589 -3.89316 0
M  V30 3791 H 361.137 2.03996 -3.41279 0
M  V30 3792 N 362.134 1.5431 0.320358 0
M  V30 3793 C 363.084 1.803 1.39556 0
M  V30 3794 C 364.068 0.659166 1.46778 0
M  V30 3795 O 365.26 0.91926 1.51257 0
M  V30 3796 C 362.389 2.03665 2.76361 0
M  V30 3797 C 361.475 3.24178 2.73439 0
M  V30 3798 N 361.866 4.4516 2.40137 0
M  V30 3799 C 360.164 3.25816 3.04565 0
M  V30 3800 C 360.865 5.27109 2.4603 0
M  V30 3801 N 359.841 4.64368 2.82601 0
M  V30 3802 H 363.643 2.71416 1.12742 0
M  V30 3803 H 361.157 1.53548 0.528856 0
M  V30 3804 H 363.154 2.20425 3.53862 0
M  V30 3805 H 361.814 1.13805 3.04103 0
M  V30 3806 H 362.825 4.72104 2.12927 0
M  V30 3807 H 359.502 2.46001 3.37328 0
M  V30 3808 H 360.892 6.33728 2.23246 0
M  V30 3809 N 363.613 -0.582584 1.46437 0
M  V30 3810 C 364.545 -1.70618 1.53043 0
M  V30 3811 C 365.558 -1.57322 0.418769 0
M  V30 3812 O 366.747 -1.64744 0.687136 0
M  V30 3813 C 363.847 -3.08869 1.39474 0
M  V30 3814 C 363.02 -3.48166 2.64762 0
M  V30 3815 C 362.079 -4.65478 2.4539 0
M  V30 3816 O 361.105 -4.71333 3.19114 0
M  V30 3817 N 362.307 -5.60365 1.51564 0
M  V30 3818 H 365.072 -1.65405 2.49923 0
M  V30 3819 H 362.633 -0.768567 1.42494 0
M  V30 3820 H 364.625 -3.85143 1.24287 0
M  V30 3821 H 363.195 -3.08449 0.507758 0
M  V30 3822 H 362.415 -2.61598 2.9489 0
M  V30 3823 H 363.703 -3.71188 3.4799 0
M  V30 3824 H 363.101 -5.5837 0.907705 0
M  V30 3825 H 361.658 -6.36068 1.4234 0
M  V30 3826 N 365.091 -1.34144 -0.827227 0
M  V30 3827 C 366.339 -1.26009 -1.58007 0
M  V30 3828 C 366.66 0.170971 -1.94249 0
M  V30 3829 O 365.93 1.10256 -1.61927 0
M  V30 3830 H 364.51 -0.463414 -0.585881 0
M  V30 3831 H 367.172 -1.68005 -0.987951 0
M  V30 3832 H 366.268 -1.86187 -2.50481 0
M  V30 3833 N 366.569 1.04691 -1.17803 0
M  V30 3834 C 367.516 2.12557 -0.899343 0
M  V30 3835 C 368.486 1.65339 0.158771 0
M  V30 3836 O 369.671 1.90789 0.0204797 0
M  V30 3837 C 366.811 3.42481 -0.424315 0
M  V30 3838 C 365.924 4.03346 -1.54713 0
M  V30 3839 C 365.059 5.21208 -1.02546 0
M  V30 3840 C 364.098 5.74089 -2.12339 0
M  V30 3841 N 363.235 6.83247 -1.61612 0
M  V30 3842 H 368.075 2.35734 -1.823 0
M  V30 3843 H 365.612 1.1564 -0.909159 0
M  V30 3844 H 367.57 4.16996 -0.130421 0
M  V30 3845 H 366.2 3.19471 0.462377 0
M  V30 3846 H 365.252 3.2622 -1.95664 0
M  V30 3847 H 366.564 4.38628 -2.37501 0
M  V30 3848 H 365.718 6.02812 -0.685718 0
M  V30 3849 H 364.457 4.87414 -0.167084 0
M  V30 3850 H 363.462 4.91111 -2.47165 0
M  V30 3851 H 364.687 6.0993 -2.98601 0
M  V30 3852 H 362.633 6.5134 -0.780533 0
M  V30 3853 H 362.55 7.17559 -2.38003 0
M  V30 3854 H 363.818 7.68491 -1.30545 0
M  V30 3855 N 368.047 0.979072 1.23499 0
M  V30 3856 C 368.977 0.537606 2.27227 0
M  V30 3857 C 369.958 -0.428539 1.64613 0
M  V30 3858 O 371.143 -0.322191 1.91509 0
M  V30 3859 C 368.273 -0.162052 3.46922 0
M  V30 3860 C 367.227 0.721242 4.21879 0
M  V30 3861 C 366.553 -0.110555 5.34586 0
M  V30 3862 C 367.853 2.01141 4.82016 0
M  V30 3863 H 369.547 1.40462 2.64406 0
M  V30 3864 H 367.093 0.67684 1.27102 0
M  V30 3865 H 369.046 -0.482192 4.18632 0
M  V30 3866 H 367.77 -1.06351 3.08799 0
M  V30 3867 H 366.429 1.02482 3.51984 0
M  V30 3868 H 366.077 -1.0125 4.92704 0
M  V30 3869 H 365.777 0.477325 5.85658 0
M  V30 3870 H 367.301 -0.425107 6.09118 0
M  V30 3871 H 368.715 1.75612 5.45741 0
M  V30 3872 H 367.112 2.54695 5.43369 0
M  V30 3873 H 368.182 2.69909 4.02836 0
M  V30 3874 N 369.525 -1.3858 0.750561 0
M  V30 3875 C 370.458 -2.28095 0.0693139 0
M  V30 3876 C 371.436 -1.45217 -0.731491 0
M  V30 3877 O 372.62 -1.74587 -0.71076 0
M  V30 3878 C 369.747 -3.26282 -0.90871 0
M  V30 3879 C 368.793 -4.26056 -0.194507 0
M  V30 3880 S 369.626 -5.24026 1.10257 0
M  V30 3881 C 370.782 -6.2577 0.127542 0
M  V30 3882 H 371.015 -2.85526 0.8284 0
M  V30 3883 H 368.548 -1.44536 0.543014 0
M  V30 3884 H 370.506 -3.83367 -1.46766 0
M  V30 3885 H 369.167 -2.6784 -1.64075 0
M  V30 3886 H 368.36 -4.95249 -0.93512 0
M  V30 3887 H 367.962 -3.72852 0.292837 0
M  V30 3888 H 370.254 -6.73796 -0.707516 0
M  V30 3889 H 371.197 -7.03712 0.787044 0
M  V30 3890 H 371.605 -5.63938 -0.251803 0
M  V30 3891 N 371.003 -0.499398 -1.49478 0
M  V30 3892 C 372.25 0.0456899 -2.02448 0
M  V30 3893 C 372.578 1.37142 -1.37921 0
M  V30 3894 O 371.833 1.89111 -0.503544 0
M  V30 3895 C 372.132 0.248424 -3.56536 0
M  V30 3896 C 371.798 -0.999107 -4.39692 0
M  V30 3897 C 370.46 -1.34108 -4.62135 0
M  V30 3898 C 372.812 -1.82842 -4.88076 0
M  V30 3899 C 370.14 -2.51191 -5.30208 0
M  V30 3900 C 372.492 -2.99076 -5.57437 0
M  V30 3901 C 371.156 -3.33655 -5.78127 0
M  V30 3902 H 370.426 0.0167191 -0.740811 0
M  V30 3903 H 373.073 -0.65923 -1.79795 0
M  V30 3904 H 371.378 1.03586 -3.77859 0
M  V30 3905 H 373.075 0.684605 -3.95113 0
M  V30 3906 H 369.665 -0.722729 -4.22463 0
M  V30 3907 H 373.849 -1.57737 -4.70566 0
M  V30 3908 H 369.105 -2.78221 -5.44429 0
M  V30 3909 H 373.279 -3.63664 -5.93904 0
M  V30 3910 H 370.906 -4.24483 -6.30649 0
M  V30 3911 N 372.481 1.55866 -0.233164 0
M  V30 3912 C 373.413 2.18099 0.704668 0
M  V30 3913 C 374.426 1.15334 1.14899 0
M  V30 3914 O 375.615 1.42262 1.07814 0
M  V30 3915 C 372.715 2.7592 1.96777 0
M  V30 3916 C 371.888 4.03969 1.67713 0
M  V30 3917 C 370.947 4.46242 2.78845 0
M  V30 3918 O 369.973 5.12903 2.46818 0
M  V30 3919 N 371.175 4.12886 4.08051 0
M  V30 3920 H 373.94 2.99205 0.172258 0
M  V30 3921 H 371.501 1.61815 -0.0525945 0
M  V30 3922 H 373.493 3.01165 2.70337 0
M  V30 3923 H 372.063 1.99051 2.41034 0
M  V30 3924 H 371.283 3.86459 0.777391 0
M  V30 3925 H 372.571 4.8748 1.4574 0
M  V30 3926 H 371.969 3.59342 4.3691 0
M  V30 3927 H 370.526 4.42997 4.78118 0
M  V30 3928 N 373.959 -0.0401083 1.57549 0
M  V30 3929 C 374.891 -1.07149 2.02612 0
M  V30 3930 C 375.904 -1.33126 0.937085 0
M  V30 3931 O 377.093 -1.30808 1.21456 0
M  V30 3932 C 374.193 -2.41561 2.37701 0
M  V30 3933 C 373.366 -2.35096 3.68848 0
M  V30 3934 C 372.425 -3.51867 3.91249 0
M  V30 3935 O 371.451 -3.3186 4.62447 0
M  V30 3936 N 372.653 -4.73351 3.36035 0
M  V30 3937 H 375.418 -0.687485 2.91708 0
M  V30 3938 H 372.979 -0.228248 1.60283 0
M  V30 3939 H 374.971 -3.18379 2.49833 0
M  V30 3940 H 373.541 -2.71846 1.54332 0
M  V30 3941 H 372.761 -1.4345 3.67173 0
M  V30 3942 H 374.049 -2.27908 4.54901 0
M  V30 3943 H 373.447 -4.92507 2.78304 0
M  V30 3944 H 372.004 -5.47572 3.53565 0
M  V30 3945 N 375.437 -1.54477 -0.31217 0
M  V30 3946 C 376.369 -1.81011 -1.40598 0
M  V30 3947 C 377.382 -0.692546 -1.47335 0
M  V30 3948 O 378.571 -0.969847 -1.49854 0
M  V30 3949 C 375.671 -1.92307 -2.79054 0
M  V30 3950 C 374.844 -3.22594 -2.95384 0
M  V30 3951 C 373.903 -3.24448 -4.1427 0
M  V30 3952 O 372.929 -3.98035 -4.06887 0
M  V30 3953 N 374.131 -2.49042 -5.24365 0
M  V30 3954 H 376.896 -2.75408 -1.18196 0
M  V30 3955 H 374.457 -1.53914 -0.502202 0
M  V30 3956 H 376.449 -1.90962 -3.56813 0
M  V30 3957 H 375.019 -1.04955 -2.94454 0
M  V30 3958 H 374.239 -3.36806 -2.04831 0
M  V30 3959 H 375.527 -4.08593 -3.03198 0
M  V30 3960 H 374.925 -1.88867 -5.33241 0
M  V30 3961 H 373.482 -2.53463 -6.005 0
M  V30 3962 N 376.915 0.57481 -1.46744 0
M  V30 3963 C 378.326 1.15695 -1.46532 0
M  V30 3964 C 378.677 1.95068 -0.210425 0
M  V30 3965 O 377.802 2.05241 0.685944 0
M  V30 3966 C 378.397 2.1048 -2.65487 0
M  V30 3967 C 376.956 2.64002 -2.68291 0
M  V30 3968 C 376.103 1.40026 -2.39349 0
M  V30 3969 H 379.054 0.362325 -1.54509 0
M  V30 3970 H 379.075 2.94074 -2.41455 0
M  V30 3971 H 378.587 1.52683 -3.56805 0
M  V30 3972 H 376.688 3.25646 -1.81067 0
M  V30 3973 H 376.801 3.06197 -3.68483 0
M  V30 3974 H 375.165 1.70106 -1.89568 0
M  V30 3975 H 375.948 0.840485 -3.32852 0
M  V30 3976 N 378.394 1.34581 0.820102 0
M  V30 3977 C 379.327 1.20735 1.93644 0
M  V30 3978 C 380.305 0.0983343 1.62302 0
M  V30 3979 O 381.489 0.263997 1.86642 0
M  V30 3980 C 378.616 0.856037 3.27704 0
M  V30 3981 C 377.662 1.97521 3.78005 0
M  V30 3982 S 378.495 3.58906 3.97425 0
M  V30 3983 C 379.651 3.25822 5.34407 0
M  V30 3984 H 379.884 2.15231 2.05093 0
M  V30 3985 H 377.417 1.1964 0.97599 0
M  V30 3986 H 379.375 0.660133 4.05157 0
M  V30 3987 H 378.036 -0.0706253 3.14021 0
M  V30 3988 H 377.229 1.68321 4.75062 0
M  V30 3989 H 376.831 2.12875 3.07507 0
M  V30 3990 H 379.123 2.77812 6.17922 0
M  V30 3991 H 380.066 4.22029 5.68592 0
M  V30 3992 H 380.474 2.61932 5.00052 0
M  V30 3993 N 379.872 -1.04064 1.18357 0
M  V30 3994 C 380.819 -2.12077 0.910603 0
M  V30 3995 C 381.789 -1.65421 -0.15 0
M  V30 3996 O 382.974 -1.90797 -0.0103614 0
M  V30 3997 C 380.114 -3.42252 0.442472 0
M  V30 3998 C 379.227 -4.0252 1.5685 0
M  V30 3999 C 378.362 -5.20657 1.05309 0
M  V30 4000 C 377.401 -5.72955 2.1538 0
M  V30 4001 N 376.538 -6.8238 1.65233 0
M  V30 4002 H 381.378 -2.34764 1.83548 0
M  V30 4003 H 378.915 -1.15157 0.915279 0
M  V30 4004 H 380.873 -4.16921 0.152534 0
M  V30 4005 H 379.503 -3.19712 -0.445428 0
M  V30 4006 H 378.555 -3.25178 1.97391 0
M  V30 4007 H 379.867 -4.37362 2.39824 0
M  V30 4008 H 379.021 -6.0244 0.717677 0
M  V30 4009 H 377.76 -4.87318 0.19293 0
M  V30 4010 H 376.765 -4.89793 2.49766 0
M  V30 4011 H 377.99 -6.08337 3.01832 0
M  V30 4012 H 375.936 -6.50917 0.815064 0
M  V30 4013 H 375.853 -7.16286 2.41805 0
M  V30 4014 H 377.121 -7.67788 1.34619 0
M  V30 4015 N 381.35 -0.985608 -1.22978 0
M  V30 4016 C 382.283 -0.47487 -2.23204 0
M  V30 4017 C 383.261 0.460865 -1.55932 0
M  V30 4018 O 384.445 0.388105 -1.84461 0
M  V30 4019 C 381.572 0.312427 -3.37256 0
M  V30 4020 C 380.618 -0.568219 -4.22698 0
M  V30 4021 S 381.451 -2.01919 -4.95973 0
M  V30 4022 C 382.607 -1.24118 -6.1347 0
M  V30 4023 H 382.84 -1.32419 -2.66181 0
M  V30 4024 H 380.373 -0.792005 -1.32539 0
M  V30 4025 H 382.331 0.760645 -4.03391 0
M  V30 4026 H 380.992 1.13693 -2.92801 0
M  V30 4027 H 380.185 0.0371657 -5.03986 0
M  V30 4028 H 379.787 -0.952897 -3.61657 0
M  V30 4029 H 382.079 -0.505121 -6.75614 0
M  V30 4030 H 383.022 -2.02907 -6.78406 0
M  V30 4031 H 383.43 -0.757669 -5.59392 0
M  V30 4032 N 382.828 1.3818 -0.7579 0
M  V30 4033 C 383.791 2.28764 -0.141286 0
M  V30 4034 C 384.791 1.47388 0.642907 0
M  V30 4035 O 385.981 1.67781 0.468536 0
M  V30 4036 C 383.113 3.31184 0.808069 0
M  V30 4037 H 384.306 2.848 -0.939633 0
M  V30 4038 H 381.859 1.47212 -0.525191 0
M  V30 4039 H 382.594 2.80247 1.63193 0
M  V30 4040 H 382.379 3.91314 0.248104 0
M  V30 4041 H 383.869 3.98909 1.23536 0
M  V30 4042 N 384.306 0.507319 1.49211 0
M  V30 4043 C 385.531 -0.033725 2.07373 0
M  V30 4044 C 385.956 -1.29485 1.36437 0
M  V30 4045 O 385.314 -1.76294 0.423087 0
M  V30 4046 C 385.362 -0.263945 3.59633 0
M  V30 4047 O 384.466 -1.33737 3.90113 0
M  V30 4048 H 383.807 0.0290331 0.663365 0
M  V30 4049 H 386.337 0.708749 1.91932 0
M  V30 4050 H 386.347 -0.493536 4.05004 0
M  V30 4051 H 385.022 0.657424 4.10671 0
M  V30 4052 H 383.599 -1.09224 3.56545 0
M  V30 4053 N 385.784 -1.5574 0.241426 0
M  V30 4054 C 386.747 -2.19877 -0.647063 0
M  V30 4055 C 387.747 -1.16642 -1.10686 0
M  V30 4056 O 388.937 -1.41757 -1.01245 0
M  V30 4057 C 386.069 -2.83797 -1.88871 0
M  V30 4058 H 387.262 -2.99772 -0.087574 0
M  V30 4059 H 384.815 -1.56298 -0.00813574 0
M  V30 4060 H 385.55 -2.07824 -2.48957 0
M  V30 4061 H 385.335 -3.59414 -1.56728 0
M  V30 4062 H 386.825 -3.32898 -2.52129 0
M  V30 4063 N 387.262 0.0317525 -1.57568 0
M  V30 4064 C 388.172 1.05021 -2.0978 0
M  V30 4065 C 389.188 1.39809 -1.03583 0
M  V30 4066 O 390.364 1.49182 -1.35302 0
M  V30 4067 C 387.429 2.33301 -2.56459 0
M  V30 4068 C 386.49 2.0512 -3.77127 0
M  V30 4069 C 385.723 3.27283 -4.2157 0
M  V30 4070 O 385.946 4.37861 -3.65559 0
M  V30 4071 O 384.88 3.13141 -5.14029 0
M  V30 4072 H 388.706 0.636505 -2.96955 0
M  V30 4073 H 386.291 0.248559 -1.47318 0
M  V30 4074 H 388.173 3.08722 -2.86825 0
M  V30 4075 H 386.848 2.73973 -1.72397 0
M  V30 4076 H 385.755 1.27276 -3.51784 0
M  V30 4077 H 387.088 1.69305 -4.62165 0
M  V30 4078 N 388.74 1.54641 0.303973 0
M  V30 4079 C 389.965 1.78092 1.06292 0
M  V30 4080 C 390.39 0.537342 1.80262 0
M  V30 4081 O 389.748 -0.511993 1.7392 0
M  V30 4082 C 389.796 2.98612 2.02147 0
M  V30 4083 O 388.9 2.71528 3.10397 0
M  V30 4084 H 388.241 0.589548 0.305497 0
M  V30 4085 H 390.771 2.01716 0.3423 0
M  V30 4086 H 390.781 3.265 2.44667 0
M  V30 4087 H 389.456 3.88785 1.47714 0
M  V30 4088 H 388.033 2.54648 2.72413 0
M  V30 4089 N 390.218 -0.567019 1.47046 0
M  V30 4090 C 391.148 -1.68482 1.61667 0
M  V30 4091 C 392.129 -1.6358 0.466418 0
M  V30 4092 O 393.314 -1.81354 0.694574 0
M  V30 4093 C 390.444 -3.07124 1.62148 0
M  V30 4094 C 389.398 -3.26867 2.76301 0
M  V30 4095 C 388.724 -4.66196 2.61849 0
M  V30 4096 C 390.024 -3.13186 4.17986 0
M  V30 4097 H 391.718 -1.56502 2.5524 0
M  V30 4098 H 389.264 -0.751486 1.22836 0
M  V30 4099 H 391.217 -3.8516 1.70968 0
M  V30 4100 H 389.941 -3.2004 0.651287 0
M  V30 4101 H 388.6 -2.51237 2.66975 0
M  V30 4102 H 388.248 -4.75898 1.62879 0
M  V30 4103 H 387.948 -4.80356 3.38425 0
M  V30 4104 H 389.472 -5.46379 2.72584 0
M  V30 4105 H 390.886 -3.81049 4.2834 0
M  V30 4106 H 389.283 -3.3886 4.95272 0
M  V30 4107 H 390.353 -2.10057 4.3704 0
M  V30 4108 N 391.696 -1.35014 -0.812953 0
M  V30 4109 C 392.936 -1.29289 -1.58315 0
M  V30 4110 C 393.3 0.132727 -1.91541 0
M  V30 4111 O 394.501 0.314269 -2.66957 0
M  V30 4112 C 392.772 -2.1681 -2.84127 0
M  V30 4113 S 394.331 -2.28538 -3.74588 0
M  V30 4114 H 391.149 -0.459569 -0.542511 0
M  V30 4115 H 393.751 -1.70336 -0.959467 0
M  V30 4116 H 392.455 -3.19379 -2.57731 0
M  V30 4117 H 391.986 -1.76697 -3.51485 0
M  V30 4118 H 394.001 -1.4655 -4.74065 0
M  V30 4119 N 393.175 1.03435 -1.18907 0
M  V30 4120 C 394.452 1.73778 -0.89781 0
M  V30 4121 C 394.832 2.02458 0.597832 0
M  V30 4122 O 394.18 1.67482 1.55441 0
M  V30 4123 C 394.39 3.01845 -1.75187 0
M  V30 4124 C 395.738 3.7546 -1.9828 0
M  V30 4125 O 396.762 3.11759 -1.72293 0
M  V30 4126 O 395.621 4.89966 -2.42065 0
M  V30 4127 H 392.715 0.75651 -0.334098 0
M  V30 4128 H 395.261 1.09444 -1.29693 0
M  V30 4129 H 394.033 2.76836 -2.76545 0
M  V30 4130 H 393.656 3.73919 -1.35167 0
M  V30 4131 N 394.653 0.992116 1.22453 0
M  V30 4132 C 395.881 0.685944 1.95198 0
M  V30 4133 C 396.296 -0.749233 1.73297 0
M  V30 4134 O 395.653 -1.50549 1.03156 0
M  V30 4135 C 395.704 0.981395 3.47924 0
M  V30 4136 O 395.425 2.36018 3.6909 0
M  V30 4137 C 396.926 0.692815 4.37853 0
M  V30 4138 H 394.146 0.253821 0.621141 0
M  V30 4139 H 396.69 1.32668 1.55626 0
M  V30 4140 H 394.845 0.386481 3.85467 0
M  V30 4141 H 395.259 2.45884 4.63294 0
M  V30 4142 H 396.733 0.949818 5.43767 0
M  V30 4143 H 397.21 -0.373181 4.37612 0
M  V30 4144 H 397.816 1.26874 4.05935 0
M  V30 4145 N 396.131 -1.37776 0.765217 0
M  V30 4146 C 397.063 -2.28958 0.105361 0
M  V30 4147 C 398.076 -1.48316 -0.67128 0
M  V30 4148 O 399.265 -1.71046 -0.51045 0
M  V30 4149 C 396.365 -3.27421 -0.874569 0
M  V30 4150 C 395.538 -4.37132 -0.153123 0
M  V30 4151 C 394.597 -5.1571 -1.04547 0
M  V30 4152 O 393.623 -5.66896 -0.511672 0
M  V30 4153 N 394.825 -5.29808 -2.37243 0
M  V30 4154 H 397.59 -2.86227 0.888495 0
M  V30 4155 H 395.151 -1.49682 0.617 0
M  V30 4156 H 397.143 -3.7687 -1.47483 0
M  V30 4157 H 395.713 -2.70967 -1.55871 0
M  V30 4158 H 394.933 -3.89166 0.627975 0
M  V30 4159 H 396.221 -5.07625 0.345643 0
M  V30 4160 H 395.619 -4.89793 -2.83054 0
M  V30 4161 H 394.176 -5.82589 -2.9229 0
M  V30 4162 N 397.609 -0.515225 -1.4894 0
M  V30 4163 C 398.837 0.0206034 -2.0689 0
M  V30 4164 C 399.252 1.29514 -1.37374 0
M  V30 4165 O 398.609 1.76698 -0.456529 0
M  V30 4166 C 398.66 0.26351 -3.60538 0
M  V30 4167 O 398.381 -0.960517 -4.27441 0
M  V30 4168 C 399.882 0.841383 -4.35242 0
M  V30 4169 H 397.102 -0.0268608 -0.670462 0
M  V30 4170 H 399.646 -0.716651 -1.91532 0
M  V30 4171 H 397.801 0.950777 -3.75552 0
M  V30 4172 H 398.215 -0.73212 -5.19365 0
M  V30 4173 H 399.689 0.96085 -5.43573 0
M  V30 4174 H 400.166 1.8427 -3.98674 0
M  V30 4175 H 400.772 0.191143 -4.2487 0
M  V30 4176 N 399.087 1.5561 -0.249682 0
M  V30 4177 C 400.364 1.90932 0.424761 0
M  V30 4178 C 400.744 1.17078 1.75658 0
M  V30 4179 O 400.092 0.289176 2.26663 0
M  V30 4180 C 400.302 3.43975 0.590109 0
M  V30 4181 C 401.65 4.15281 0.884714 0
M  V30 4182 O 402.674 3.49729 0.67587 0
M  V30 4183 O 401.533 5.31236 1.28259 0
M  V30 4184 H 398.627 0.794815 0.228468 0
M  V30 4185 H 401.173 1.67135 -0.293954 0
M  V30 4186 H 399.945 3.89748 -0.34818 0
M  V30 4187 H 399.568 3.73644 1.35926 0
M  V30 4188 N 400.565 -0.0233959 1.57583 0
M  V30 4189 C 401.976 -0.56927 1.77809 0
M  V30 4190 C 402.327 -1.75284 0.881472 0
M  V30 4191 O 401.452 -2.1626 0.0777805 0
M  V30 4192 C 402.047 -1.03949 3.22459 0
M  V30 4193 C 400.606 -1.53084 3.43864 0
M  V30 4194 C 399.753 -0.471454 2.73263 0
M  V30 4195 H 402.704 0.202825 1.57399 0
M  V30 4196 H 402.725 -1.90661 3.29285 0
M  V30 4197 H 402.237 -0.177865 3.87692 0
M  V30 4198 H 400.338 -2.41414 2.83814 0
M  V30 4199 H 400.451 -1.57443 4.52491 0
M  V30 4200 H 398.815 -0.927788 2.37201 0
M  V30 4201 H 399.598 0.380808 3.41181 0
M  V30 4202 N 402.043 -1.548 -0.295768 0
M  V30 4203 C 402.991 -1.86874 -1.38495 0
M  V30 4204 C 403.985 -0.742938 -1.52239 0
M  V30 4205 O 405.191 -0.926999 -1.54294 0
M  V30 4206 H 401.566 -0.592786 -0.462719 0
M  V30 4207 H 403.537 -2.77904 -1.08682 0
M  V30 4208 C 402.286 -2.13732 -2.74252 0
M  V30 4209 H 401.609 -2.99835 -2.64459 0
M  V30 4210 H 403.049 -2.4011 -3.49461 0
M  V30 4211 C 401.508 -0.937539 -3.23592 0
M  V30 4212 O 402.038 -0.160665 -4.01379 0
M  V30 4213 N 400.244 -0.741478 -2.80981 0
M  V30 4214 H 399.791 -1.37489 -2.1784 0
M  V30 4215 H 399.749 0.0597103 -3.14343 0
M  V30 4216 N 403.521 0.559213 -1.47345 0
M  V30 4217 C 404.768 1.31648 -1.53867 0
M  V30 4218 C 405.096 1.93468 -0.200104 0
M  V30 4219 O 404.351 1.78295 0.806799 0
M  V30 4220 C 404.65 2.44853 -2.6035 0
M  V30 4221 C 404.316 2.00876 -4.03683 0
M  V30 4222 C 402.978 1.88599 -4.42701 0
M  V30 4223 C 405.33 1.67279 -4.93626 0
M  V30 4224 C 402.658 1.41017 -5.69501 0
M  V30 4225 C 405.01 1.21169 -6.20887 0
M  V30 4226 C 403.674 1.07487 -6.58789 0
M  V30 4227 H 402.944 0.481734 -0.56304 0
M  V30 4228 H 405.591 0.627301 -1.80934 0
M  V30 4229 H 403.896 3.19318 -2.27032 0
M  V30 4230 H 405.593 3.03039 -2.62619 0
M  V30 4231 H 402.183 2.11374 -3.72853 0
M  V30 4232 H 406.367 1.75638 -4.64182 0
M  V30 4233 H 401.623 1.29086 -5.97618 0
M  V30 4234 H 405.797 0.942345 -6.89995 0
M  V30 4235 H 403.424 0.703946 -7.56934 0
M  V30 4236 N 404.999 1.35443 0.805782 0
M  V30 4237 C 406.224 1.32037 1.59941 0
M  V30 4238 C 406.649 -0.0994215 1.87837 0
M  V30 4239 O 406.007 -1.06648 1.46615 0
M  V30 4240 C 406.055 2.13354 2.90711 0
M  V30 4241 O 405.159 1.5148 3.83572 0
M  V30 4242 H 404.5 0.452666 0.485787 0
M  V30 4243 H 407.03 1.78496 1.00002 0
M  V30 4244 H 407.04 2.25338 3.40128 0
M  V30 4245 H 405.715 3.16572 2.69732 0
M  V30 4246 H 404.292 1.4834 3.42125 0
M  V30 4247 N 406.477 -1.02803 1.19454 0
M  V30 4248 C 407.723 -1.76478 0.999171 0
M  V30 4249 C 408.056 -1.88456 -0.468828 0
M  V30 4250 O 407.331 -1.40198 -1.34814 0
M  V30 4251 C 407.614 -3.19044 1.66981 0
M  V30 4252 C 407.467 -3.14932 3.21151 0
M  V30 4253 C 408.786 -4.17456 1.39349 0
M  V30 4254 H 405.905 -0.640614 0.364393 0
M  V30 4255 H 408.547 -1.20005 1.47305 0
M  V30 4256 H 406.697 -3.67263 1.2669 0
M  V30 4257 H 408.369 -2.74605 3.70661 0
M  V30 4258 H 406.612 -2.52625 3.52652 0
M  V30 4259 H 407.283 -4.1566 3.63223 0
M  V30 4260 H 409.759 -3.77842 1.74283 0
M  V30 4261 H 408.635 -5.154 1.88823 0
M  V30 4262 H 408.896 -4.40949 0.318813 0
M  V30 4263 N 407.956 -0.998596 -1.21925 0
M  V30 4264 C 408.886 -0.573688 -2.26343 0
M  V30 4265 C 409.867 0.402296 -1.65274 0
M  V30 4266 O 411.052 0.291683 -1.91997 0
M  V30 4267 C 408.182 0.106839 -3.47136 0
M  V30 4268 C 407.136 -0.788269 -4.20678 0
M  V30 4269 C 406.462 0.0254927 -5.34694 0
M  V30 4270 C 407.762 -2.08784 -4.78755 0
M  V30 4271 H 409.456 -1.44651 -2.62138 0
M  V30 4272 H 407.002 -0.696975 -1.26009 0
M  V30 4273 H 408.955 0.415531 -4.19346 0
M  V30 4274 H 407.679 1.01424 -3.10452 0
M  V30 4275 H 406.338 -1.08069 -3.50309 0
M  V30 4276 H 405.986 0.933989 -4.94253 0
M  V30 4277 H 405.686 -0.570437 -5.84825 0
M  V30 4278 H 407.21 0.328147 -6.09718 0
M  V30 4279 H 408.624 -1.84272 -5.42878 0
M  V30 4280 H 407.021 -2.63307 -5.39249 0
M  V30 4281 H 408.091 -2.76284 -3.98491 0
M  V30 4282 N 409.434 1.37368 -0.772513 0
M  V30 4283 C 410.662 2.03942 -0.348588 0
M  V30 4284 C 411.077 1.58264 1.02947 0
M  V30 4285 O 410.434 0.764246 1.65727 0
M  V30 4286 C 410.485 3.5946 -0.38351 0
M  V30 4287 O 410.206 4.03468 -1.70721 0
M  V30 4288 C 411.707 4.4327 0.0519152 0
M  V30 4289 H 408.927 0.654931 -0.145966 0
M  V30 4290 H 411.471 1.75686 -1.04665 0
M  V30 4291 H 409.626 3.86486 0.265978 0
M  V30 4292 H 410.04 4.97991 -1.64636 0
M  V30 4293 H 411.514 5.51995 -0.0236733 0
M  V30 4294 H 411.991 4.2514 1.10238 0
M  V30 4295 H 412.597 4.21471 -0.569415 0
M  V30 4296 N 410.912 0.523116 1.48665 0
M  V30 4297 C 412.158 -0.0134963 2.02796 0
M  V30 4298 C 412.491 -1.34582 1.40004 0
M  V30 4299 O 411.766 -1.86756 0.543381 0
M  V30 4300 C 412.049 -0.14276 3.59817 0
M  V30 4301 C 411.902 1.21425 4.331 0
M  V30 4302 C 413.221 -0.872856 4.31357 0
M  V30 4303 H 410.34 -0.00343074 0.736992 0
M  V30 4304 H 412.982 0.678816 1.7746 0
M  V30 4305 H 411.132 -0.732401 3.81534 0
M  V30 4306 H 412.804 1.84447 4.2282 0
M  V30 4307 H 411.047 1.79791 3.94788 0
M  V30 4308 H 411.718 1.07687 5.41394 0
M  V30 4309 H 414.194 -0.372555 4.14429 0
M  V30 4310 H 413.07 -0.932185 5.40927 0
M  V30 4311 H 413.331 -1.92161 3.98154 0
M  V30 4312 N 412.39 -1.55475 0.257931 0
M  V30 4313 C 413.638 -1.98813 -0.363009 0
M  V30 4314 C 413.959 -1.14757 -1.57657 0
M  V30 4315 O 413.229 -0.232956 -1.9451 0
M  V30 4316 H 411.809 -0.734308 -0.137113 0
M  V30 4317 H 414.471 -1.9156 0.359281 0
M  V30 4318 H 413.567 -3.04941 -0.664634 0
M  V30 4319 N 413.868 0.0150385 -1.57593 0
M  V30 4320 C 415.284 0.370907 -1.5523 0
M  V30 4321 C 415.484 1.75735 -0.985882 0
M  V30 4322 O 414.54 2.44944 -0.613077 0
M  V30 4323 C 415.853 0.259908 -2.99575 0
M  V30 4324 C 417.401 0.335959 -3.11192 0
M  V30 4325 C 417.876 0.254253 -4.57294 0
M  V30 4326 N 419.367 0.312618 -4.62144 0
M  V30 4327 C 420.102 0.272505 -5.72752 0
M  V30 4328 N 419.598 0.183864 -6.92556 0
M  V30 4329 N 421.391 0.323267 -5.6117 0
M  V30 4330 H 413.542 -0.892104 -1.92757 0
M  V30 4331 H 415.805 -0.340563 -0.884715 0
M  V30 4332 H 415.511 -0.693403 -3.44797 0
M  V30 4333 H 415.385 1.048 -3.62349 0
M  V30 4334 H 417.772 1.27971 -2.65909 0
M  V30 4335 H 417.853 -0.481739 -2.51223 0
M  V30 4336 H 417.497 -0.685887 -5.03247 0
M  V30 4337 H 417.427 1.09024 -5.15191 0
M  V30 4338 H 419.918 0.38307 -3.75953 0
M  V30 4339 H 420.231 0.15874 -7.72637 0
M  V30 4340 H 418.576 0.149708 -6.94839 0
M  V30 4341 H 421.767 0.390607 -4.66467 0
M  V30 4342 H 421.94 0.288539 -6.47357 0
M  V30 4343 N 415.346 1.54954 0.287554 0
M  V30 4344 C 416.278 1.83224 1.37701 0
M  V30 4345 C 417.291 0.715898 1.46215 0
M  V30 4346 O 418.48 0.993565 1.48292 0
M  V30 4347 C 415.58 1.96723 2.75959 0
M  V30 4348 C 414.753 3.27253 2.90215 0
M  V30 4349 C 413.812 3.30998 4.09056 0
M  V30 4350 O 412.838 4.04457 4.00503 0
M  V30 4351 N 414.04 2.57353 5.20336 0
M  V30 4352 H 416.805 2.77254 1.138 0
M  V30 4353 H 414.366 1.54694 0.477652 0
M  V30 4354 H 416.358 1.96615 3.5373 0
M  V30 4355 H 414.928 1.09626 2.92747 0
M  V30 4356 H 414.148 3.40022 1.99447 0
M  V30 4357 H 415.436 4.13365 2.96659 0
M  V30 4358 H 414.834 1.97327 5.30169 0
M  V30 4359 H 413.391 2.62984 5.96391 0
M  V30 4360 N 416.824 -0.551391 1.4764 0
M  V30 4361 C 417.772 -1.67896 1.60978 0
M  V30 4362 C 418.766 -1.62549 0.476877 0
M  V30 4363 O 419.972 -1.67664 0.654878 0
M  V30 4364 H 416.347 -0.555649 0.506713 0
M  V30 4365 H 418.318 -1.53784 2.55721 0
M  V30 4366 C 417.067 -3.06234 1.64669 0
M  V30 4367 H 416.39 -3.11033 2.51194 0
M  V30 4368 H 417.83 -3.84804 1.7805 0
M  V30 4369 C 416.289 -3.34737 0.381115 0
M  V30 4370 O 416.819 -3.98381 -0.515297 0
M  V30 4371 N 415.025 -2.8944 0.259354 0
M  V30 4372 H 414.572 -2.37827 0.98976 0
M  V30 4373 H 414.53 -3.08882 -0.586464 0
M  V30 4374 N 418.302 -1.35869 -0.798587 0
M  V30 4375 C 419.25 -1.29491 -1.93222 0
M  V30 4376 C 420.244 -0.18836 -1.6835 0
M  V30 4377 O 421.45 -0.354822 -1.76468 0
M  V30 4378 H 417.825 -0.402901 -0.63496 0
M  V30 4379 H 419.796 -2.25247 -1.9572 0
M  V30 4380 C 418.545 -1.09184 -3.30112 0
M  V30 4381 H 417.868 -1.93574 -3.49813 0
M  V30 4382 H 419.308 -1.08766 -4.09812 0
M  V30 4383 C 417.767 0.203959 -3.36282 0
M  V30 4384 O 418.297 1.19699 -3.83451 0
M  V30 4385 N 416.503 0.245488 -2.89561 0
M  V30 4386 H 416.05 -0.563223 -2.51367 0
M  V30 4387 H 416.008 1.11219 -2.94071 0
M  V30 4388 N 419.78 1.02168 -1.19998 0
M  V30 4389 C 421.02 1.77232 -1.01825 0
M  V30 4390 C 421.384 1.86833 0.442428 0
M  V30 4391 O 422.585 2.58293 0.744189 0
M  V30 4392 C 420.856 3.15601 -1.67722 0
M  V30 4393 S 422.415 4.06765 -1.64584 0
M  V30 4394 H 419.233 0.610021 -0.365233 0
M  V30 4395 H 421.835 1.22368 -1.52467 0
M  V30 4396 H 420.539 3.06235 -2.73218 0
M  V30 4397 H 420.07 3.7554 -1.17189 0
M  V30 4398 H 422.085 4.91586 -0.67511 0
M  V30 4399 N 421.258 1.00505 1.21394 0
M  V30 4400 C 422.535 0.603277 1.86064 0
M  V30 4401 C 422.915 -0.919095 1.90042 0
M  V30 4402 O 422.263 -1.80607 1.39977 0
M  V30 4403 C 422.473 1.23772 3.26315 0
M  V30 4404 C 423.821 1.34586 4.02705 0
M  V30 4405 O 424.845 1.19304 3.35626 0
M  V30 4406 O 423.704 1.59169 5.22807 0
M  V30 4407 H 420.798 0.206634 0.800769 0
M  V30 4408 H 423.344 1.1017 1.29076 0
M  V30 4409 H 422.116 2.27848 3.18121 0
M  V30 4410 H 421.739 0.725648 3.90922 0
M  V30 4411 N 422.737 -1.36956 0.779787 0
M  V30 4412 C 423.962 -2.04283 0.358224 0
M  V30 4413 C 424.387 -1.58422 -1.01411 0
M  V30 4414 O 423.745 -0.748179 -1.65142 0
M  V30 4415 C 423.793 -3.58152 0.419479 0
M  V30 4416 O 422.897 -4.08342 -0.577142 0
M  V30 4417 H 422.238 -0.645967 0.153698 0
M  V30 4418 H 424.768 -1.75108 1.05822 0
M  V30 4419 H 424.778 -4.07041 0.279636 0
M  V30 4420 H 423.453 -3.90886 1.42061 0
M  V30 4421 H 422.03 -3.70751 -0.399755 0
M  V30 4422 N 424.215 -0.530993 -1.48385 0
M  V30 4423 C 425.145 0.219985 -2.32461 0
M  V30 4424 C 426.126 0.934111 -1.42156 0
M  V30 4425 O 427.311 0.919694 -1.71042 0
M  V30 4426 C 424.441 1.26674 -3.23375 0
M  V30 4427 C 423.395 0.67069 -4.22712 0
M  V30 4428 C 422.721 1.82017 -5.02766 0
M  V30 4429 C 424.021 -0.358268 -5.2107 0
M  V30 4430 H 425.715 -0.48187 -2.95497 0
M  V30 4431 H 423.261 -0.233182 -1.42099 0
M  V30 4432 H 425.214 1.80006 -3.81019 0
M  V30 4433 H 423.938 1.99818 -2.58341 0
M  V30 4434 H 422.597 0.158878 -3.66256 0
M  V30 4435 H 422.245 2.54002 -4.34157 0
M  V30 4436 H 421.945 1.42727 -5.70003 0
M  V30 4437 H 423.469 2.35725 -5.63264 0
M  V30 4438 H 424.883 0.0880081 -5.73232 0
M  V30 4439 H 423.28 -0.66861 -5.96364 0
M  V30 4440 H 424.35 -1.26367 -4.68145 0
M  V30 4441 N 425.693 1.55336 -0.266172 0
M  V30 4442 C 426.921 2.03801 0.356756 0
M  V30 4443 C 427.336 1.14485 1.50129 0
M  V30 4444 O 426.693 0.163121 1.8177 0
M  V30 4445 C 426.744 3.51455 0.846281 0
M  V30 4446 O 426.465 4.37371 -0.252663 0
M  V30 4447 C 427.966 4.15767 1.53794 0
M  V30 4448 H 425.186 0.665906 0.0825218 0
M  V30 4449 H 427.73 2.00636 -0.39566 0
M  V30 4450 H 425.885 3.55092 1.54881 0
M  V30 4451 H 426.299 5.24358 0.122173 0
M  V30 4452 H 427.773 5.20714 1.83198 0
M  V30 4453 H 428.25 3.63404 2.46646 0
M  V30 4454 H 428.856 4.16107 0.879488 0
M  V30 4455 N 427.171 -0.0066808 1.57599 0
M  V30 4456 C 428.587 -0.36267 1.55425 0
M  V30 4457 C 428.787 -1.75209 0.995187 0
M  V30 4458 O 427.843 -2.44616 0.626058 0
M  V30 4459 C 429.156 -0.244017 2.99708 0
M  V30 4460 C 430.704 -0.319451 3.11366 0
M  V30 4461 C 431.179 -0.229998 4.57422 0
M  V30 4462 N 432.67 -0.288105 4.62303 0
M  V30 4463 C 433.405 -0.242127 5.72889 0
M  V30 4464 N 432.901 -0.147133 6.92644 0
M  V30 4465 N 434.694 -0.293502 5.61333 0
M  V30 4466 H 426.845 0.902314 1.92281 0
M  V30 4467 H 429.108 0.34525 0.882896 0
M  V30 4468 H 428.814 0.711678 3.44424 0
M  V30 4469 H 428.688 -1.02877 3.629 0
M  V30 4470 H 431.075 -1.26559 2.66584 0
M  V30 4471 H 431.156 0.495055 2.50964 0
M  V30 4472 H 430.8 0.712566 5.02877 0
M  V30 4473 H 430.73 -1.0629 5.15761 0
M  V30 4474 H 433.221 -0.363126 3.76151 0
M  V30 4475 H 433.534 -0.117763 7.7271 0
M  V30 4476 H 431.879 -0.112857 6.94908 0
M  V30 4477 H 435.07 -0.365864 4.66668 0
M  V30 4478 H 435.243 -0.254204 6.47501 0
M  V30 4479 N 428.649 -1.55105 -0.279332 0
M  V30 4480 C 429.895 -1.75672 -1.01327 0
M  V30 4481 C 430.228 -0.552739 -1.86168 0
M  V30 4482 O 429.503 0.449827 -1.89227 0
M  V30 4483 C 429.786 -3.05825 -1.90114 0
M  V30 4484 C 429.639 -4.36565 -1.08309 0
M  V30 4485 C 430.958 -3.31975 -2.8893 0
M  V30 4486 H 428.077 -0.639149 -0.366957 0
M  V30 4487 H 430.719 -1.87833 -0.286154 0
M  V30 4488 H 428.869 -2.95588 -2.52111 0
M  V30 4489 H 430.541 -4.58751 -0.484314 0
M  V30 4490 H 428.784 -4.32076 -0.386362 0
M  V30 4491 H 429.455 -5.23946 -1.73737 0
M  V30 4492 H 431.931 -3.41963 -2.37067 0
M  V30 4493 H 430.807 -4.2432 -3.48201 0
M  V30 4494 H 431.068 -2.51309 -3.63725 0
M  V30 4495 N 430.127 0.543554 -1.4793 0
M  V30 4496 C 431.376 1.29649 -1.54512 0
M  V30 4497 C 431.689 1.94382 -0.217973 0
M  V30 4498 O 432.895 2.71017 -0.161908 0
M  V30 4499 C 431.351 2.35175 -2.72435 0
M  V30 4500 C 430.959 1.76572 -4.11736 0
M  V30 4501 C 432.703 3.11564 -2.8832 0
M  V30 4502 C 430.61 2.79958 -5.20939 0
M  V30 4503 H 429.54 0.487541 -0.57517 0
M  V30 4504 H 432.191 0.575708 -1.74235 0
M  V30 4505 H 430.573 3.10229 -2.46118 0
M  V30 4506 H 431.747 1.07799 -4.48013 0
M  V30 4507 H 430.062 1.12722 -4.00852 0
M  V30 4508 H 432.659 3.88794 -3.67074 0
M  V30 4509 H 433.002 3.66594 -1.97268 0
M  V30 4510 H 433.535 2.43623 -3.14472 0
M  V30 4511 H 430.274 2.29766 -6.13912 0
M  V30 4512 H 429.794 3.47101 -4.89164 0
M  V30 4513 H 431.473 3.43198 -5.48474 0
M  V30 4514 N 431.605 1.3629 0.791371 0
M  V30 4515 C 432.515 1.32606 1.93527 0
M  V30 4516 C 433.531 0.228541 1.72493 0
M  V30 4517 O 434.707 0.460571 1.96063 0
M  V30 4518 C 431.772 1.11271 3.28359 0
M  V30 4519 C 430.833 2.3048 3.62185 0
M  V30 4520 C 430.066 2.10154 4.90583 0
M  V30 4521 O 430.289 1.07572 5.60165 0
M  V30 4522 O 429.223 2.97884 5.23019 0
M  V30 4523 H 433.049 2.28909 1.99585 0
M  V30 4524 H 430.634 1.16818 0.931344 0
M  V30 4525 H 432.516 1.01283 4.09047 0
M  V30 4526 H 431.191 0.180292 3.23198 0
M  V30 4527 H 430.098 2.46036 2.81811 0
M  V30 4528 H 431.431 3.22221 3.72068 0
M  V30 4529 N 433.083 -1.0153 1.20538 0
M  V30 4530 C 434.329 -1.75408 1.01783 0
M  V30 4531 C 434.662 -1.88943 -0.448814 0
M  V30 4532 O 433.937 -1.4162 -1.33319 0
M  V30 4533 C 434.22 -3.17255 1.70356 0
M  V30 4534 C 434.073 -3.11508 3.24473 0
M  V30 4535 C 435.392 -4.15955 1.43769 0
M  V30 4536 H 432.511 -0.636713 0.371167 0
M  V30 4537 H 435.153 -1.18436 1.4857 0
M  V30 4538 H 433.303 -3.65898 1.30578 0
M  V30 4539 H 434.975 -2.70658 3.73553 0
M  V30 4540 H 433.218 -2.4887 3.55311 0
M  V30 4541 H 433.889 -4.11784 3.67611 0
M  V30 4542 H 436.365 -3.75973 1.7828 0
M  V30 4543 H 435.241 -5.13368 1.94279 0
M  V30 4544 H 435.502 -4.40586 0.365564 0
M  V30 4545 N 434.561 -1.01147 -1.20859 0
M  V30 4546 C 435.972 -0.730205 -1.71828 0
M  V30 4547 C 436.323 0.751662 -1.8123 0
M  V30 4548 O 435.448 1.58686 -1.47132 0
M  V30 4549 C 436.043 -1.31885 -3.12077 0
M  V30 4550 C 434.602 -1.08656 -3.60376 0
M  V30 4551 C 433.749 -1.42769 -2.37723 0
M  V30 4552 H 436.7 -1.18158 -1.05945 0
M  V30 4553 H 436.721 -0.706793 -3.73878 0
M  V30 4554 H 436.233 -2.39737 -3.05201 0
M  V30 4555 H 434.334 -0.0254814 -3.72591 0
M  V30 4556 H 434.447 -1.76301 -4.45483 0
M  V30 4557 H 432.811 -0.846603 -2.40218 0
M  V30 4558 H 433.594 -2.51666 -2.33493 0
M  V30 4559 N 436.039 1.36541 -0.78704 0
M  V30 4560 C 437.269 2.03266 -0.369662 0
M  V30 4561 C 437.677 1.59481 1.01796 0
M  V30 4562 O 437.02 0.778612 1.66383 0
M  V30 4563 C 437.082 3.57779 -0.351371 0
M  V30 4564 C 436.746 4.24756 -1.68617 0
M  V30 4565 C 437.743 4.47811 -2.64124 0
M  V30 4566 C 435.428 4.62277 -1.96481 0
M  V30 4567 C 437.422 5.07464 -3.85693 0
M  V30 4568 C 435.109 5.21649 -3.18317 0
M  V30 4569 C 436.107 5.44182 -4.12741 0
M  V30 4570 O 435.795 6.02307 -5.32429 0
M  V30 4571 H 435.527 0.658977 -0.150751 0
M  V30 4572 H 438.081 1.75548 -1.0664 0
M  V30 4573 H 436.311 3.84606 0.401847 0
M  V30 4574 H 438 4.05879 0.0410147 0
M  V30 4575 H 438.766 4.19221 -2.43883 0
M  V30 4576 H 434.645 4.44065 -1.23805 0
M  V30 4577 H 438.189 5.24968 -4.59407 0
M  V30 4578 H 434.086 5.49664 -3.38437 0
M  V30 4579 H 434.854 6.20775 -5.33461 0
M  V30 4580 N 437.518 0.538854 1.48102 0
M  V30 4581 C 438.764 0.00801365 2.02798 0
M  V30 4582 C 439.097 -1.3309 1.41424 0
M  V30 4583 O 438.372 -1.86169 0.563158 0
M  V30 4584 C 438.655 -0.104589 3.59948 0
M  V30 4585 C 438.508 1.26012 4.31788 0
M  V30 4586 C 439.827 -0.827055 4.32259 0
M  V30 4587 H 436.946 0.00438624 0.736987 0
M  V30 4588 H 439.588 0.6976 1.7673 0
M  V30 4589 H 437.738 -0.691893 3.82289 0
M  V30 4590 H 439.41 1.88922 4.2084 0
M  V30 4591 H 437.653 1.83968 3.92859 0
M  V30 4592 H 438.324 1.13424 5.40221 0
M  V30 4593 H 440.8 -0.328578 4.14801 0
M  V30 4594 H 439.676 -0.87476 5.41885 0
M  V30 4595 H 439.937 -1.87927 4.0017 0
M  V30 4596 N 438.996 -1.55193 0.274407 0
M  V30 4597 C 439.926 -2.25471 -0.607032 0
M  V30 4598 C 440.907 -1.24461 -1.15946 0
M  V30 4599 O 442.092 -1.53179 -1.19373 0
M  V30 4600 C 439.222 -2.97526 -1.79153 0
M  V30 4601 C 438.176 -4.05459 -1.37067 0
M  V30 4602 C 437.502 -4.65084 -2.6382 0
M  V30 4603 C 438.802 -5.19691 -0.521389 0
M  V30 4604 H 440.496 -2.99393 -0.0209343 0
M  V30 4605 H 438.042 -1.43997 -0.00862866 0
M  V30 4606 H 439.995 -3.45402 -2.41404 0
M  V30 4607 H 438.719 -2.21138 -2.40344 0
M  V30 4608 H 437.378 -3.58393 -0.771355 0
M  V30 4609 H 437.026 -3.85365 -3.23268 0
M  V30 4610 H 436.726 -5.37961 -2.36372 0
M  V30 4611 H 438.25 -5.15708 -3.26921 0
M  V30 4612 H 439.664 -5.63623 -1.04889 0
M  V30 4613 H 438.061 -5.99126 -0.341825 0
M  V30 4614 H 439.131 -4.82713 0.46 0
M  V30 4615 N 440.474 -0.00167713 -1.576 0
M  V30 4616 C 441.885 0.54091 -1.78693 0
M  V30 4617 C 442.236 1.7386 -0.909247 0
M  V30 4618 O 441.361 2.16109 -0.112176 0
M  V30 4619 C 441.956 0.98806 -3.24072 0
M  V30 4620 C 440.515 1.47594 -3.46256 0
M  V30 4621 C 439.662 0.42792 -2.73978 0
M  V30 4622 H 442.613 -0.22784 -1.57056 0
M  V30 4623 H 442.634 1.85398 -3.32277 0
M  V30 4624 H 442.146 0.116164 -3.87926 0
M  V30 4625 H 440.247 2.36868 -2.87618 0
M  V30 4626 H 440.36 1.50225 -4.54939 0
M  V30 4627 H 438.724 0.889934 -2.38647 0
M  V30 4628 H 439.507 -0.435038 -3.40532 0
M  V30 4629 N 441.952 1.55251 0.271103 0
M  V30 4630 C 443.199 1.75946 1.00245 0
M  V30 4631 C 443.527 0.561611 1.86215 0
M  V30 4632 O 442.782 -0.455832 1.90317 0
M  V30 4633 C 443.081 3.01879 1.91321 0
M  V30 4634 C 442.747 4.34337 1.21086 0
M  V30 4635 C 441.409 4.70338 1.01666 0
M  V30 4636 C 443.761 5.16325 0.71119 0
M  V30 4637 C 441.089 5.8588 0.310099 0
M  V30 4638 C 443.441 6.32597 0.0182157 0
M  V30 4639 C 442.105 6.67236 -0.18768 0
M  V30 4640 H 441.375 0.643833 0.366824 0
M  V30 4641 H 444.022 1.89521 0.27458 0
M  V30 4642 H 442.327 2.83212 2.70736 0
M  V30 4643 H 444.024 3.15088 2.48033 0
M  V30 4644 H 440.614 4.06043 1.37213 0
M  V30 4645 H 444.798 4.88987 0.848844 0
M  V30 4646 H 440.054 6.1124 0.139873 0
M  V30 4647 H 444.228 6.9538 -0.376711 0
M  V30 4648 H 441.855 7.56618 -0.73715 0
M  V30 4649 N 443.43 -0.535701 1.48216 0
M  V30 4650 C 444.36 -1.65014 1.65204 0
M  V30 4651 C 445.341 -1.62554 0.501011 0
M  V30 4652 O 446.526 -1.7984 0.732886 0
M  V30 4653 C 443.656 -3.03616 1.68626 0
M  V30 4654 C 442.61 -3.20932 2.83172 0
M  V30 4655 C 441.936 -4.60537 2.71679 0
M  V30 4656 C 443.236 -3.04249 4.24535 0
M  V30 4657 H 444.93 -1.51053 2.58502 0
M  V30 4658 H 442.476 -0.725262 1.24402 0
M  V30 4659 H 444.429 -3.81446 1.79099 0
M  V30 4660 H 443.153 -3.18587 0.719026 0
M  V30 4661 H 441.812 -2.45517 2.72244 0
M  V30 4662 H 441.46 -4.72336 1.72937 0
M  V30 4663 H 441.16 -4.73069 3.48538 0
M  V30 4664 H 442.684 -5.40475 2.84112 0
M  V30 4665 H 444.098 -3.71877 4.36326 0
M  V30 4666 H 442.495 -3.28278 5.02348 0
M  V30 4667 H 443.565 -2.00739 4.41397 0
M  V30 4668 N 444.908 -1.36708 -0.784132 0
M  V30 4669 C 445.871 -1.31307 -1.87859 0
M  V30 4670 C 446.871 -0.219654 -1.59293 0
M  V30 4671 O 448.061 -0.47476 -1.67606 0
M  V30 4672 C 445.193 -1.03679 -3.24751 0
M  V30 4673 H 446.386 -2.28647 -1.94064 0
M  V30 4674 H 443.939 -1.21558 -0.98252 0
M  V30 4675 H 444.674 -0.0681936 -3.24228 0
M  V30 4676 H 444.459 -1.82811 -3.46876 0
M  V30 4677 H 445.949 -1.02518 -4.04821 0
M  V30 4678 N 446.386 1.0089 -1.21074 0
M  V30 4679 C 447.296 2.13039 -0.982425 0
M  V30 4680 C 448.312 1.73881 0.0642161 0
M  V30 4681 O 449.488 2.01012 -0.12496 0
M  V30 4682 C 446.553 3.42377 -0.545803 0
M  V30 4683 C 445.614 3.95731 -1.6642 0
M  V30 4684 C 444.847 5.18896 -1.24832 0
M  V30 4685 O 445.07 5.70273 -0.120265 0
M  V30 4686 O 444.004 5.65597 -2.05873 0
M  V30 4687 H 447.83 2.35175 -1.92163 0
M  V30 4688 H 445.415 1.1142 -0.995285 0
M  V30 4689 H 447.297 4.20244 -0.311912 0
M  V30 4690 H 445.972 3.21639 0.364727 0
M  V30 4691 H 444.879 3.19108 -1.95246 0
M  V30 4692 H 446.212 4.20872 -2.55201 0
M  V30 4693 N 447.864 1.01787 1.20321 0
M  V30 4694 C 449.112 0.706538 1.89347 0
M  V30 4695 C 449.433 -0.766289 1.79313 0
M  V30 4696 O 448.703 -1.55126 1.19635 0
M  V30 4697 H 447.283 0.258348 0.700903 0
M  V30 4698 H 449.945 1.28974 1.46122 0
M  V30 4699 H 449.041 0.991066 2.95946 0
M  V30 4700 N 449.342 -1.36122 0.79427 0
M  V30 4701 C 450.758 -1.5232 0.476525 0
M  V30 4702 C 450.958 -1.74685 -1.00436 0
M  V30 4703 O 450.014 -1.78115 -1.78973 0
M  V30 4704 C 451.327 -2.70607 1.31119 0
M  V30 4705 C 452.875 -2.8448 1.30537 0
M  V30 4706 C 453.35 -4.05778 2.12387 0
M  V30 4707 N 454.841 -4.12933 2.09859 0
M  V30 4708 C 455.576 -5.05876 2.69957 0
M  V30 4709 N 455.072 -6.04232 3.38934 0
M  V30 4710 N 456.865 -4.98528 2.59665 0
M  V30 4711 H 449.016 -1.1986 1.75349 0
M  V30 4712 H 451.279 -0.585418 0.745647 0
M  V30 4713 H 450.985 -2.60619 2.36158 0
M  V30 4714 H 450.859 -3.64888 0.955843 0
M  V30 4715 H 453.246 -2.93927 0.262876 0
M  V30 4716 H 453.327 -1.91093 1.70051 0
M  V30 4717 H 452.971 -3.97092 3.1667 0
M  V30 4718 H 452.901 -4.98323 1.70242 0
M  V30 4719 H 455.392 -3.42515 1.59662 0
M  V30 4720 H 455.705 -6.71724 3.82109 0
M  V30 4721 H 454.05 -6.04443 3.43036 0
M  V30 4722 H 457.241 -4.20641 2.05375 0
M  V30 4723 H 457.414 -5.70773 3.06793 0
M  V30 4724 N 450.82 -0.546701 -1.47814 0
M  V30 4725 C 452.069 -0.0166497 -2.01693 0
M  V30 4726 C 452.382 1.33721 -1.42752 0
M  V30 4727 O 453.588 1.95658 -1.8823 0
M  V30 4728 C 452.044 0.0206769 -3.59894 0
M  V30 4729 C 451.652 -1.3293 -4.27824 0
M  V30 4730 C 453.396 0.498674 -4.21561 0
M  V30 4731 C 451.303 -1.25165 -5.78003 0
M  V30 4732 H 450.233 -0.0024541 -0.753996 0
M  V30 4733 H 452.884 -0.692984 -1.69912 0
M  V30 4734 H 451.266 0.76244 -3.88591 0
M  V30 4735 H 452.44 -2.08795 -4.10781 0
M  V30 4736 H 450.755 -1.74438 -3.78101 0
M  V30 4737 H 453.352 0.575 -5.31599 0
M  V30 4738 H 453.695 1.5083 -3.88016 0
M  V30 4739 H 454.228 -0.18791 -3.97356 0
M  V30 4740 H 450.967 -2.23695 -6.1615 0
M  V30 4741 H 450.487 -0.53464 -5.97412 0
M  V30 4742 H 452.166 -0.949299 -6.39998 0
M  V30 4743 N 452.299 1.55045 -0.282633 0
M  V30 4744 C 453.524 2.04628 0.337977 0
M  V30 4745 C 453.949 1.15937 1.48123 0
M  V30 4746 O 453.307 0.159532 1.80597 0
M  V30 4747 C 453.355 3.51854 0.78936 0
M  V30 4748 O 452.459 3.66236 1.89592 0
M  V30 4749 H 451.8 0.660434 0.0687261 0
M  V30 4750 H 454.33 2.00261 -0.419124 0
M  V30 4751 H 454.34 3.93361 1.08311 0
M  V30 4752 H 453.015 4.15873 -0.0470419 0
M  V30 4753 H 451.592 3.36633 1.60413 0
M  V30 4754 N 453.777 0.010035 1.57597 0
M  V30 4755 C 455.025 -0.671371 1.90623 0
M  V30 4756 C 455.346 -1.73753 0.885151 0
M  V30 4757 O 454.616 -1.95752 -0.0760611 0
M  V30 4758 H 453.196 -0.250968 0.703579 0
M  V30 4759 H 455.858 0.0533325 1.94827 0
M  V30 4760 H 454.954 -1.13626 2.90681 0
M  V30 4761 N 455.255 -1.55392 -0.262866 0
M  V30 4762 C 456.501 -1.76737 -0.99458 0
M  V30 4763 C 456.834 -0.572453 -1.85571 0
M  V30 4764 O 456.109 0.429732 -1.89693 0
M  V30 4765 C 456.392 -3.07824 -1.8686 0
M  V30 4766 C 456.245 -4.3769 -1.03672 0
M  V30 4767 C 457.564 -3.35021 -2.85393 0
M  V30 4768 H 454.683 -0.643005 -0.360157 0
M  V30 4769 H 457.325 -1.88126 -0.266216 0
M  V30 4770 H 455.475 -2.98245 -2.48962 0
M  V30 4771 H 457.147 -4.59238 -0.43563 0
M  V30 4772 H 455.39 -4.32461 -0.340513 0
M  V30 4773 H 456.061 -5.25759 -1.6817 0
M  V30 4774 H 458.537 -3.44458 -2.33426 0
M  V30 4775 H 457.413 -4.27989 -3.43681 0
M  V30 4776 H 457.674 -2.55153 -3.61039 0
M  V30 4777 N 456.733 0.527833 -1.48498 0
M  V30 4778 C 457.961 1.30823 -1.6029 0
M  V30 4779 C 458.376 1.86945 -0.263974 0
M  V30 4780 O 457.733 1.6651 0.747034 0
M  V30 4781 C 457.784 2.45756 -2.65116 0
M  V30 4782 O 457.505 1.91946 -3.93813 0
M  V30 4783 C 459.006 3.37543 -2.87367 0
M  V30 4784 H 456.226 0.397763 -0.540394 0
M  V30 4785 H 458.77 0.636529 -1.94341 0
M  V30 4786 H 456.925 3.08806 -2.33917 0
M  V30 4787 H 457.339 2.67195 -4.51339 0
M  V30 4788 H 458.813 4.14532 -3.6451 0
M  V30 4789 H 459.29 3.92905 -1.9627 0
M  V30 4790 H 459.896 2.80283 -3.19878 0
M  V30 4791 N 458.211 1.37122 0.776871 0
M  V30 4792 C 459.141 1.35164 1.90402 0
M  V30 4793 C 460.122 0.221069 1.68657 0
M  V30 4794 O 461.307 0.420642 1.8959 0
M  V30 4795 C 458.437 1.15274 3.27611 0
M  V30 4796 C 457.391 2.25289 3.63908 0
M  V30 4797 C 456.717 1.90527 4.99603 0
M  V30 4798 C 458.017 3.67446 3.71188 0
M  V30 4799 H 459.711 2.29482 1.92297 0
M  V30 4800 H 457.257 1.10465 0.923773 0
M  V30 4801 H 459.21 1.12536 4.06096 0
M  V30 4802 H 457.934 0.174102 3.26136 0
M  V30 4803 H 456.593 2.27174 2.87728 0
M  V30 4804 H 456.241 0.91206 4.94662 0
M  V30 4805 H 455.941 2.64193 5.24858 0
M  V30 4806 H 457.465 1.89367 5.80493 0
M  V30 4807 H 458.879 3.67719 4.39836 0
M  V30 4808 H 457.276 4.40123 4.07936 0
M  V30 4809 H 458.346 4.01443 2.71977 0
M  V30 4810 N 459.689 -1.00246 1.21608 0
M  V30 4811 C 460.621 -2.09244 0.935401 0
M  V30 4812 C 461.634 -1.62592 -0.0823594 0
M  V30 4813 O 462.823 -1.77865 0.150456 0
M  V30 4814 C 459.923 -3.36724 0.383453 0
M  V30 4815 C 459.096 -4.1245 1.45615 0
M  V30 4816 C 458.155 -5.18219 0.912991 0
M  V30 4817 O 457.181 -5.46337 1.59701 0
M  V30 4818 N 458.383 -5.7987 -0.270478 0
M  V30 4819 H 461.148 -2.33905 1.87373 0
M  V30 4820 H 458.709 -1.16748 1.12167 0
M  V30 4821 H 460.701 -4.047 0.00562157 0
M  V30 4822 H 459.271 -3.09201 -0.459758 0
M  V30 4823 H 458.491 -3.39241 2.00772 0
M  V30 4824 H 459.779 -4.59819 2.17817 0
M  V30 4825 H 459.177 -5.59381 -0.843195 0
M  V30 4826 H 457.734 -6.49126 -0.589794 0
M  V30 4827 N 461.167 -1.02423 -1.1978 0
M  V30 4828 C 462.415 -0.716569 -1.8897 0
M  V30 4829 C 462.736 0.756769 -1.79716 0
M  V30 4830 O 462.006 1.5449 -1.20456 0
M  V30 4831 H 460.586 -0.262062 -0.699523 0
M  V30 4832 H 463.248 -1.29747 -1.45436 0
M  V30 4833 H 462.344 -1.00675 -2.95417 0
M  V30 4834 N 462.645 1.35699 -0.801477 0
M  V30 4835 C 463.894 1.98165 -0.375979 0
M  V30 4836 C 464.207 1.64306 1.06127 0
M  V30 4837 O 465.413 2.20097 1.58964 0
M  V30 4838 C 463.869 3.54497 -0.621305 0
M  V30 4839 C 463.477 3.9727 -2.07076 0
M  V30 4840 C 465.221 4.23697 -0.26091 0
M  V30 4841 C 463.128 5.46427 -2.26211 0
M  V30 4842 H 462.058 0.741478 -0.136844 0
M  V30 4843 H 464.709 1.54834 -0.984814 0
M  V30 4844 H 463.091 3.95958 0.0574112 0
M  V30 4845 H 464.265 3.66974 -2.78687 0
M  V30 4846 H 462.58 3.40943 -2.39054 0
M  V30 4847 H 465.177 5.33334 -0.381994 0
M  V30 4848 H 465.52 4.0869 0.792344 0
M  V30 4849 H 466.053 3.87639 -0.893339 0
M  V30 4850 H 462.792 5.66396 -3.29963 0
M  V30 4851 H 462.312 5.78309 -1.59119 0
M  V30 4852 H 463.991 6.12819 -2.07513 0
M  V30 4853 N 464.123 0.554532 1.47522 0
M  V30 4854 C 465.539 0.214107 1.58157 0
M  V30 4855 C 465.739 -1.28331 1.55349 0
M  V30 4856 O 464.795 -2.06329 1.45549 0
M  V30 4857 C 466.108 0.838391 2.88776 0
M  V30 4858 C 467.656 0.809374 3.02354 0
M  V30 4859 C 468.131 1.41268 4.35669 0
M  V30 4860 N 469.622 1.37574 4.42298 0
M  V30 4861 C 470.357 1.8122 5.4401 0
M  V30 4862 N 469.853 2.3271 6.52547 0
M  V30 4863 N 471.646 1.72307 5.35039 0
M  V30 4864 H 463.797 1.52744 1.4759 0
M  V30 4865 H 466.06 0.636812 0.702264 0
M  V30 4866 H 465.766 1.89065 2.96559 0
M  V30 4867 H 465.64 0.329847 3.75755 0
M  V30 4868 H 468.027 -0.234187 2.94169 0
M  V30 4869 H 468.108 1.35565 2.16924 0
M  V30 4870 H 467.752 2.45529 4.4461 0
M  V30 4871 H 467.682 0.841871 5.19827 0
M  V30 4872 H 470.173 0.999081 3.64454 0
M  V30 4873 H 470.486 2.63944 7.26329 0
M  V30 4874 H 468.831 2.36719 6.53444 0
M  V30 4875 H 472.022 1.3186 4.49144 0
M  V30 4876 H 472.195 2.06641 6.14169 0
M  V30 4877 N 465.601 -1.54893 0.290851 0
M  V30 4878 C 466.878 -1.91991 -0.373989 0
M  V30 4879 C 467.258 -1.21694 -1.72493 0
M  V30 4880 O 466.606 -0.34917 -2.25816 0
M  V30 4881 C 466.816 -3.45419 -0.498703 0
M  V30 4882 C 468.164 -4.1748 -0.774298 0
M  V30 4883 O 469.188 -3.51398 -0.582908 0
M  V30 4884 O 468.047 -5.3445 -1.14129 0
M  V30 4885 H 465.141 -0.800593 -0.207315 0
M  V30 4886 H 467.687 -1.66297 0.338164 0
M  V30 4887 H 466.459 -3.88688 0.451392 0
M  V30 4888 H 466.082 -3.77117 -1.25972 0
M  V30 4889 N 467.08 -0.0183926 -1.57589 0
M  V30 4890 C 468.01 0.965596 -2.12599 0
M  V30 4891 C 468.991 1.34641 -1.0395 0
M  V30 4892 O 470.176 1.42693 -1.31729 0
M  V30 4893 C 467.306 2.25149 -2.64434 0
M  V30 4894 C 466.26 2.01175 -3.77773 0
M  V30 4895 C 465.586 3.35937 -4.15994 0
M  V30 4896 C 466.886 1.35953 -5.04296 0
M  V30 4897 H 468.58 0.507504 -2.95067 0
M  V30 4898 H 466.126 0.242671 -1.41941 0
M  V30 4899 H 468.079 2.94357 -3.01549 0
M  V30 4900 H 466.803 2.73105 -1.79112 0
M  V30 4901 H 465.462 1.34388 -3.4108 0
M  V30 4902 H 465.11 3.81631 -3.27669 0
M  V30 4903 H 464.81 3.20705 -4.92364 0
M  V30 4904 H 466.334 4.0643 -4.55683 0
M  V30 4905 H 467.748 1.95144 -5.39065 0
M  V30 4906 H 466.145 1.31152 -5.85593 0
M  V30 4907 H 467.215 0.331071 -4.83768 0
M  V30 4908 N 468.558 1.5553 0.254621 0
M  V30 4909 C 469.49 1.86104 1.33783 0
M  V30 4910 C 470.503 0.746752 1.44663 0
M  V30 4911 O 471.692 1.0248 1.46151 0
M  V30 4912 C 468.792 2.02532 2.71724 0
M  V30 4913 C 467.965 3.33335 2.83208 0
M  V30 4914 C 467.024 3.396 4.01943 0
M  V30 4915 O 466.05 4.12862 3.91834 0
M  V30 4916 N 467.252 2.68332 5.1476 0
M  V30 4917 H 470.017 2.79605 1.07893 0
M  V30 4918 H 467.578 1.55672 0.444732 0
M  V30 4919 H 469.57 2.04074 3.4948 0
M  V30 4920 H 468.14 1.15811 2.90356 0
M  V30 4921 H 467.36 3.44176 1.92189 0
M  V30 4922 H 468.648 4.19565 2.87824 0
M  V30 4923 H 468.046 2.08528 5.25864 0
M  V30 4924 H 466.603 2.75575 5.90679 0
M  V30 4925 N 470.036 -0.519951 1.48776 0
M  V30 4926 C 470.968 -1.63973 1.60142 0
M  V30 4927 C 471.981 -1.55404 0.485117 0
M  V30 4928 O 473.17 -1.61682 0.756391 0
M  V30 4929 C 470.27 -3.02676 1.52449 0
M  V30 4930 C 469.443 -3.36624 2.79291 0
M  V30 4931 C 468.502 -4.54652 2.64912 0
M  V30 4932 O 467.528 -4.57374 3.38818 0
M  V30 4933 N 468.73 -5.53432 1.75195 0
M  V30 4934 H 471.495 -1.54656 2.56713 0
M  V30 4935 H 469.056 -0.707439 1.45626 0
M  V30 4936 H 471.048 -3.79525 1.4051 0
M  V30 4937 H 469.618 -3.06018 0.638125 0
M  V30 4938 H 468.838 -2.48855 3.0572 0
M  V30 4939 H 470.126 -3.56094 3.6342 0
M  V30 4940 H 469.524 -5.54018 1.14371 0
M  V30 4941 H 468.081 -6.29459 1.69189 0
M  V30 4942 N 471.514 -1.37532 -0.769588 0
M  V30 4943 C 472.424 -1.35668 -1.91393 0
M  V30 4944 C 473.44 -0.255954 -1.72107 0
M  V30 4945 O 474.616 -0.491704 -1.95305 0
M  V30 4946 C 471.681 -1.16481 -3.26547 0
M  V30 4947 C 470.742 -2.36212 -3.58472 0
M  V30 4948 C 469.975 -2.17932 -4.87177 0
M  V30 4949 O 470.198 -1.1647 -5.58382 0
M  V30 4950 O 469.132 -3.06167 -5.18214 0
M  V30 4951 H 472.958 -2.32055 -1.95918 0
M  V30 4952 H 470.543 -1.18284 -0.912641 0
M  V30 4953 H 472.425 -1.07778 -4.07384 0
M  V30 4954 H 471.1 -0.231687 -3.2287 0
M  V30 4955 H 470.007 -2.50488 -2.77861 0
M  V30 4956 H 471.34 -3.281 -3.66894 0
M  V30 4957 N 472.992 0.995999 -1.22138 0
M  V30 4958 C 474.222 1.76809 -1.06874 0
M  V30 4959 C 474.63 1.85265 0.383866 0
M  V30 4960 O 473.973 1.31969 1.27789 0
M  V30 4961 C 474.035 3.2186 -1.60144 0
M  V30 4962 C 473.699 3.36958 -3.0872 0
M  V30 4963 C 474.696 3.2452 -4.0618 0
M  V30 4964 C 472.381 3.62109 -3.48112 0
M  V30 4965 C 474.375 3.37013 -5.41019 0
M  V30 4966 C 472.062 3.74243 -4.831 0
M  V30 4967 C 473.06 3.61702 -5.79362 0
M  V30 4968 O 472.748 3.73436 -7.119 0
M  V30 4969 H 472.48 0.562207 -0.375365 0
M  V30 4970 H 475.034 1.26113 -1.62125 0
M  V30 4971 H 473.264 3.73734 -0.992981 0
M  V30 4972 H 474.953 3.80775 -1.40589 0
M  V30 4973 H 475.719 3.05004 -3.77091 0
M  V30 4974 H 471.598 3.70949 -2.73712 0
M  V30 4975 H 475.142 3.27141 -6.16137 0
M  V30 4976 H 471.039 3.93266 -5.11872 0
M  V30 4977 H 471.807 3.90328 -7.19435 0
M  V30 4978 N 474.47 1.03057 1.19235 0
M  V30 4979 C 475.402 0.570932 2.21975 0
M  V30 4980 C 476.415 -0.354088 1.58903 0
M  V30 4981 O 477.604 -0.150211 1.77867 0
M  V30 4982 C 474.704 -0.187152 3.38383 0
M  V30 4983 C 473.877 0.743231 4.31039 0
M  V30 4984 C 472.936 0.0302493 5.26191 0
M  V30 4985 O 471.962 0.657371 5.65391 0
M  V30 4986 N 473.164 -1.23991 5.67104 0
M  V30 4987 H 475.929 1.45456 2.62036 0
M  V30 4988 H 473.49 0.909807 1.33918 0
M  V30 4989 H 475.482 -0.673715 3.99053 0
M  V30 4990 H 474.052 -0.972205 2.97098 0
M  V30 4991 H 473.272 1.40985 3.68126 0
M  V30 4992 H 474.56 1.3755 4.89854 0
M  V30 4993 H 473.958 -1.77011 5.37293 0
M  V30 4994 H 472.515 -1.67093 6.30018 0
M  V30 4995 N 475.948 -1.35272 0.808662 0
M  V30 4996 C 476.88 -2.28507 0.178149 0
M  V30 4997 C 477.893 -1.50377 -0.623754 0
M  V30 4998 O 479.082 -1.72583 -0.455774 0
M  V30 4999 C 476.182 -3.30038 -0.769959 0
M  V30 5000 C 475.355 -4.37398 -0.0139749 0
M  V30 5001 C 474.414 -5.18775 -0.880875 0
M  V30 5002 O 473.44 -5.68236 -0.331059 0
M  V30 5003 N 474.642 -5.37087 -2.20267 0
M  V30 5004 H 477.407 -2.83255 0.979106 0
M  V30 5005 H 474.968 -1.47643 0.664308 0
M  V30 5006 H 476.96 -3.81371 -1.35418 0
M  V30 5007 H 475.53 -2.75789 -1.47171 0
M  V30 5008 H 474.75 -3.86971 0.751468 0
M  V30 5009 H 476.038 -5.06268 0.506965 0
M  V30 5010 H 475.436 -4.9855 -2.67328 0
M  V30 5011 H 473.993 -5.91593 -2.73608 0
M  V30 5012 N 477.426 -0.562348 -1.47226 0
M  V30 5013 C 478.842 -0.222492 -1.58042 0
M  V30 5014 C 479.042 1.27505 -1.56028 0
M  V30 5015 O 478.098 2.05555 -1.46641 0
M  V30 5016 C 479.411 -0.853694 -2.88327 0
M  V30 5017 C 480.959 -0.825397 -3.01921 0
M  V30 5018 C 481.434 -1.43576 -4.34914 0
M  V30 5019 N 482.925 -1.39918 -4.41562 0
M  V30 5020 C 483.66 -1.84103 -5.43041 0
M  V30 5021 N 483.156 -2.36167 -6.51304 0
M  V30 5022 N 484.949 -1.75142 -5.34118 0
M  V30 5023 H 477.1 -1.53525 -1.46778 0
M  V30 5024 H 479.363 -0.640527 -0.698877 0
M  V30 5025 H 479.069 -1.90635 -2.95552 0
M  V30 5026 H 478.943 -0.34977 -3.75575 0
M  V30 5027 H 481.33 0.218583 -2.94289 0
M  V30 5028 H 481.411 -1.36713 -2.16202 0
M  V30 5029 H 481.055 -2.47884 -4.43301 0
M  V30 5030 H 480.985 -0.869427 -5.19373 0
M  V30 5031 H 483.476 -1.0184 -3.63919 0
M  V30 5032 H 483.789 -2.67793 -7.24919 0
M  V30 5033 H 482.134 -2.40181 -6.52179 0
M  V30 5034 H 485.325 -1.34241 -4.48439 0
M  V30 5035 H 485.498 -2.09895 -6.13065 0
M  V30 5036 N 478.904 1.54736 -0.299062 0
M  V30 5037 C 480.151 2.00101 0.310784 0
M  V30 5038 C 480.479 1.18746 1.54045 0
M  V30 5039 O 479.734 0.251198 1.94081 0
M  V30 5040 C 480.033 3.50199 0.713835 0
M  V30 5041 C 479.699 4.48997 -0.413873 0
M  V30 5042 C 478.361 4.7573 -0.723462 0
M  V30 5043 C 480.713 5.07839 -1.17257 0
M  V30 5044 C 478.041 5.5857 -1.79491 0
M  V30 5045 C 480.393 5.91844 -2.23392 0
M  V30 5046 C 479.057 6.16889 -2.54959 0
M  V30 5047 H 478.327 0.732221 0.113724 0
M  V30 5048 H 480.974 1.86888 -0.417756 0
M  V30 5049 H 479.279 3.61012 1.52243 0
M  V30 5050 H 480.976 3.82723 1.19684 0
M  V30 5051 H 477.566 4.28292 -0.162476 0
M  V30 5052 H 481.75 4.87188 -0.946651 0
M  V30 5053 H 477.006 5.76213 -2.04423 0
M  V30 5054 H 481.18 6.36465 -2.8264 0
M  V30 5055 H 478.807 6.80869 -3.38114 0
M  V30 5056 N 480.382 0.0267497 1.57577 0
M  V30 5057 C 481.63 -0.651116 1.91324 0
M  V30 5058 C 481.951 -1.72804 0.90353 0
M  V30 5059 O 481.221 -1.95822 -0.0552946 0
M  V30 5060 H 479.801 -0.243491 0.706202 0
M  V30 5061 H 482.463 0.0739935 1.94759 0
M  V30 5062 H 481.559 -1.10536 2.9187 0
M  V30 5063 N 481.861 -1.55662 -0.24637 0
M  V30 5064 C 483.272 -1.67953 -0.81539 0
M  V30 5065 C 483.623 -0.624302 -1.86002 0
M  V30 5066 O 482.748 0.229328 -2.15181 0
M  V30 5067 C 483.343 -3.04484 -1.48576 0
M  V30 5068 C 481.902 -3.18713 -2.00248 0
M  V30 5069 C 481.049 -2.6383 -0.853766 0
M  V30 5070 H 484 -1.58685 -0.0221692 0
M  V30 5071 H 484.021 -2.98959 -2.3538 0
M  V30 5072 H 483.533 -3.81264 -0.725222 0
M  V30 5073 H 481.634 -2.46757 -2.79181 0
M  V30 5074 H 481.747 -4.25628 -2.1995 0
M  V30 5075 H 480.111 -2.21667 -1.25442 0
M  V30 5076 H 480.894 -3.43135 -0.106302 0
M  V30 5077 N 483.339 0.512053 -1.4905 0
M  V30 5078 C 484.287 1.63568 -1.65373 0
M  V30 5079 C 485.281 1.61228 -0.519806 0
M  V30 5080 O 486.487 1.65869 -0.699101 0
M  V30 5081 H 482.862 0.542019 -0.521267 0
M  V30 5082 H 484.833 1.4695 -2.59708 0
M  V30 5083 C 483.582 3.01761 -1.7273 0
M  V30 5084 H 482.905 3.04263 -2.59353 0
M  V30 5085 H 484.345 3.79948 -1.8819 0
M  V30 5086 C 482.804 3.33609 -0.46973 0
M  V30 5087 O 483.334 3.99607 0.409492 0
M  V30 5088 N 481.54 2.88651 -0.336003 0
M  V30 5089 H 481.087 2.35119 -1.05247 0
M  V30 5090 H 481.045 3.10328 0.504363 0
M  V30 5091 N 484.817 1.37938 0.762283 0
M  V30 5092 C 486.094 1.24196 1.51112 0
M  V30 5093 C 486.474 -0.160409 2.1049 0
M  V30 5094 O 485.822 -1.16904 1.96331 0
M  V30 5095 C 486.032 2.34537 2.58445 0
M  V30 5096 C 487.38 2.7254 3.25588 0
M  V30 5097 O 488.404 2.33783 2.68745 0
M  V30 5098 O 487.263 3.39343 4.28379 0
M  V30 5099 H 484.357 0.485175 0.669727 0
M  V30 5100 H 486.903 1.49743 0.798438 0
M  V30 5101 H 485.675 3.28406 2.12756 0
M  V30 5102 H 485.298 2.10505 3.37303 0
M  V30 5103 N 486.295 -0.989507 1.22664 0
M  V30 5104 C 487.525 -1.7624 1.0781 0
M  V30 5105 C 487.933 -1.85466 -0.374036 0
M  V30 5106 O 487.276 -1.32645 -1.27087 0
M  V30 5107 C 487.338 -3.21007 1.61849 0
M  V30 5108 C 487.002 -3.35316 3.10503 0
M  V30 5109 C 487.999 -3.22362 4.07896 0
M  V30 5110 C 485.684 -3.60258 3.50028 0
M  V30 5111 C 487.678 -3.34139 5.42798 0
M  V30 5112 C 485.365 -3.71676 4.85078 0
M  V30 5113 C 486.363 -3.58625 5.81272 0
M  V30 5114 O 486.051 -3.69655 7.1387 0
M  V30 5115 H 485.783 -0.560209 0.378341 0
M  V30 5116 H 488.337 -1.25252 1.62792 0
M  V30 5117 H 486.567 -3.73202 1.01279 0
M  V30 5118 H 488.256 -3.80024 1.42606 0
M  V30 5119 H 489.022 -3.03 3.78703 0
M  V30 5120 H 484.901 -3.69492 2.75675 0
M  V30 5121 H 488.445 -3.23869 6.17863 0
M  V30 5122 H 484.342 -3.90545 5.1395 0
M  V30 5123 H 485.11 -3.86507 7.21495 0
M  V30 5124 N 487.773 -1.03688 -1.18687 0
M  V30 5125 C 489.189 -0.755413 -1.4059 0
M  V30 5126 C 489.389 0.656659 -1.905 0
M  V30 5127 O 488.445 1.42144 -2.08689 0
M  V30 5128 C 489.758 -1.7983 -2.41001 0
M  V30 5129 C 491.306 -1.81877 -2.54735 0
M  V30 5130 C 491.781 -2.85148 -3.58406 0
M  V30 5131 N 493.272 -2.84015 -3.6591 0
M  V30 5132 C 494.007 -3.60573 -4.45841 0
M  V30 5133 N 493.503 -4.46871 -5.29413 0
M  V30 5134 N 495.296 -3.49079 -4.40568 0
M  V30 5135 H 487.447 -1.94818 -0.846148 0
M  V30 5136 H 489.71 -0.842727 -0.434184 0
M  V30 5137 H 489.416 -2.81097 -2.1137 0
M  V30 5138 H 489.29 -1.62727 -3.40294 0
M  V30 5139 H 491.677 -0.812836 -2.83685 0
M  V30 5140 H 491.758 -2.03057 -1.55568 0
M  V30 5141 H 491.402 -3.85918 -3.30197 0
M  V30 5142 H 491.332 -2.61224 -4.57241 0
M  V30 5143 H 493.823 -2.21431 -3.0623 0
M  V30 5144 H 494.136 -5.02007 -5.87545 0
M  V30 5145 H 492.481 -4.5094 -5.28846 0
M  V30 5146 H 495.672 -2.81066 -3.74325 0
M  V30 5147 H 495.845 -4.08994 -5.02621 0
M  V30 5148 N 489.251 1.34841 -0.815825 0
M  V30 5149 C 490.662 1.80937 -0.46029 0
M  V30 5150 C 491.013 1.67685 1.01863 0
M  V30 5151 O 490.138 1.21277 1.79223 0
M  V30 5152 C 490.733 3.28509 -0.828708 0
M  V30 5153 C 489.292 3.72712 -0.525644 0
M  V30 5154 C 488.439 2.56676 -1.04941 0
M  V30 5155 H 491.39 1.22688 -1.00664 0
M  V30 5156 H 491.411 3.80279 -0.129757 0
M  V30 5157 H 490.923 3.38122 -1.90513 0
M  V30 5158 H 489.024 3.68642 0.541666 0
M  V30 5159 H 489.137 4.67119 -1.06474 0
M  V30 5160 H 487.501 2.50302 -0.471286 0
M  V30 5161 H 488.284 2.69063 -2.13214 0
M  V30 5162 N 490.729 0.570148 1.46925 0
M  V30 5163 C 491.677 -0.183181 2.31878 0
M  V30 5164 C 492.671 -0.896721 1.43719 0
M  V30 5165 O 493.877 -0.816536 1.60414 0
M  V30 5166 H 490.252 -0.077944 0.74795 0
M  V30 5167 H 492.223 0.552312 2.93244 0
M  V30 5168 C 490.972 -1.19172 3.2664 0
M  V30 5169 H 490.295 -0.652088 3.94446 0
M  V30 5170 H 491.735 -1.68946 3.88887 0
M  V30 5171 C 490.194 -2.24627 2.51086 0
M  V30 5172 O 490.724 -3.31773 2.26472 0
M  V30 5173 N 488.93 -1.98898 2.11867 0
M  V30 5174 H 488.477 -1.11777 2.32086 0
M  V30 5175 H 488.435 -2.6967 1.61634 0
M  V30 5176 N 492.207 -1.54576 0.307264 0
M  V30 5177 C 493.137 -2.26708 -0.55907 0
M  V30 5178 C 494.118 -1.26893 -1.1328 0
M  V30 5179 O 495.303 -1.55677 -1.16097 0
M  V30 5180 C 492.433 -3.01259 -1.72801 0
M  V30 5181 C 491.387 -4.08275 -1.28435 0
M  V30 5182 C 490.713 -4.70575 -2.53895 0
M  V30 5183 C 492.013 -5.2068 -0.411038 0
M  V30 5184 H 493.707 -2.9937 0.042576 0
M  V30 5185 H 491.253 -1.43983 0.0219173 0
M  V30 5186 H 493.206 -3.50444 -2.34023 0
M  V30 5187 H 491.93 -2.26187 -2.356 0
M  V30 5188 H 490.589 -3.59949 -0.695161 0
M  V30 5189 H 490.237 -3.92136 -3.15021 0
M  V30 5190 H 489.937 -5.42854 -2.24908 0
M  V30 5191 H 491.461 -5.22527 -3.15908 0
M  V30 5192 H 492.875 -5.65721 -0.929097 0
M  V30 5193 H 491.272 -5.99716 -0.214664 0
M  V30 5194 H 492.342 -4.81629 0.562287 0
M  V30 5195 N 493.685 -0.035106 -1.57561 0
M  V30 5196 C 494.932 0.642229 -1.92046 0
M  V30 5197 C 495.26 1.7179 -0.91206 0
M  V30 5198 O 494.515 1.95544 0.0781153 0
M  V30 5199 C 494.814 1.29149 -3.3325 0
M  V30 5200 C 494.48 0.345604 -4.49574 0
M  V30 5201 C 493.142 0.0852775 -4.81124 0
M  V30 5202 C 495.494 -0.303569 -5.20315 0
M  V30 5203 C 492.822 -0.831927 -5.80772 0
M  V30 5204 C 495.174 -1.20886 -6.20942 0
M  V30 5205 C 493.838 -1.47802 -6.50931 0
M  V30 5206 H 493.108 0.235008 -0.702746 0
M  V30 5207 H 495.755 -0.0981529 -1.91248 0
M  V30 5208 H 494.06 2.10676 -3.30337 0
M  V30 5209 H 495.757 1.82223 -3.57205 0
M  V30 5210 H 492.347 0.558683 -4.24943 0
M  V30 5211 H 496.531 -0.115515 -4.96166 0
M  V30 5212 H 491.787 -1.0481 -6.02349 0
M  V30 5213 H 495.961 -1.71804 -6.74875 0
M  V30 5214 H 493.588 -2.19039 -7.2796 0
M  V30 5215 N 495.163 1.55791 0.238111 0
M  V30 5216 C 496.409 1.78297 0.966337 0
M  V30 5217 C 496.742 0.601903 1.84637 0
M  V30 5218 O 496.017 -0.399499 1.90353 0
M  V30 5219 C 496.3 3.10758 1.81939 0
M  V30 5220 C 496.153 4.39283 0.966958 0
M  V30 5221 C 497.472 3.39519 2.80027 0
M  V30 5222 H 494.591 0.648654 0.349882 0
M  V30 5223 H 497.233 1.88525 0.236253 0
M  V30 5224 H 495.383 3.02168 2.44185 0
M  V30 5225 H 497.055 4.59873 0.362514 0
M  V30 5226 H 495.298 4.32948 0.271669 0
M  V30 5227 H 495.969 5.28368 1.59784 0
M  V30 5228 H 498.445 3.48128 2.27917 0
M  V30 5229 H 497.321 4.33402 3.36829 0
M  V30 5230 H 497.582 2.60864 3.56934 0
M  V30 5231 N 496.642 -0.504142 1.49319 0
M  V30 5232 C 497.87 -1.28256 1.62351 0
M  V30 5233 C 498.285 -1.86502 0.293682 0
M  V30 5234 O 497.642 -1.67678 -0.720449 0
M  V30 5235 C 497.693 -2.41507 2.68992 0
M  V30 5236 O 497.414 -1.85656 3.96817 0
M  V30 5237 C 498.915 -3.32929 2.927 0
M  V30 5238 H 496.135 -0.389115 0.546654 0
M  V30 5239 H 498.679 -0.605531 1.95329 0
M  V30 5240 H 496.834 -3.05046 2.38801 0
M  V30 5241 H 497.248 -2.59981 4.55533 0
M  V30 5242 H 498.722 -4.0868 3.71058 0
M  V30 5243 H 499.199 -3.89733 2.02496 0
M  V30 5244 H 499.805 -2.75158 3.24296 0
M  V30 5245 N 498.12 -1.38341 -0.754957 0
M  V30 5246 C 499.35 -1.37504 -1.54195 0
M  V30 5247 C 499.758 0.0373787 -1.89163 0
M  V30 5248 O 499.101 1.01402 -1.53178 0
M  V30 5249 C 499.163 -2.16488 -2.87008 0
M  V30 5250 C 498.827 -3.65311 -2.74585 0
M  V30 5251 C 499.824 -4.58834 -2.44474 0
M  V30 5252 C 497.509 -4.08649 -2.9208 0
M  V30 5253 C 499.503 -5.93675 -2.32011 0
M  V30 5254 C 497.19 -5.43571 -2.79237 0
M  V30 5255 C 498.188 -6.35898 -2.49245 0
M  V30 5256 O 497.876 -7.68338 -2.36458 0
M  V30 5257 H 497.608 -0.472159 -0.483779 0
M  V30 5258 H 500.162 -1.82515 -0.94221 0
M  V30 5259 H 498.392 -1.66194 -3.49166 0
M  V30 5260 H 500.081 -2.08076 -3.4851 0
M  V30 5261 H 500.847 -4.26657 -2.30627 0
M  V30 5262 H 496.726 -3.37134 -3.14422 0
M  V30 5263 H 500.27 -6.65706 -2.08522 0
M  V30 5264 H 496.167 -5.75345 -2.92657 0
M  V30 5265 H 496.935 -7.78845 -2.5168 0
M  V30 5266 N 499.598 0.982988 -1.23187 0
M  V30 5267 C 500.844 1.7273 -1.07405 0
M  V30 5268 C 501.199 1.885 0.385447 0
M  V30 5269 O 500.492 1.4243 1.28157 0
M  V30 5270 C 500.686 3.12736 -1.73006 0
M  V30 5271 C 500.515 3.10621 -3.25184 0
M  V30 5272 C 499.285 3.15957 -3.94334 0
M  V30 5273 C 501.483 2.93992 -4.21987 0
M  V30 5274 N 499.465 3.03701 -5.33516 0
M  V30 5275 C 500.836 2.8987 -5.48065 0
M  V30 5276 C 502.891 2.78457 -4.12754 0
M  V30 5277 C 501.594 2.71804 -6.65969 0
M  V30 5278 C 503.62 2.61754 -5.30319 0
M  V30 5279 C 502.982 2.58328 -6.55321 0
M  V30 5280 H 499.081 0.641279 -0.447533 0
M  V30 5281 H 501.665 1.16664 -1.55877 0
M  V30 5282 H 499.836 3.67026 -1.2707 0
M  V30 5283 H 501.568 3.75786 -1.50224 0
M  V30 5284 H 498.323 3.24034 -3.45397 0
M  V30 5285 H 498.747 3.00855 -6.06478 0
M  V30 5286 H 503.389 2.79898 -3.16886 0
M  V30 5287 H 501.107 2.69108 -7.61975 0
M  V30 5288 H 504.693 2.50702 -5.25014 0
M  V30 5289 H 503.573 2.45564 -7.4476 0
M  V30 5290 N 501.076 1.04316 1.18135 0
M  V30 5291 C 502.301 0.768047 1.92655 0
M  V30 5292 C 502.726 -0.66904 1.758 0
M  V30 5293 O 502.084 -1.46372 1.06981 0
M  V30 5294 C 502.132 1.14239 3.42026 0
M  V30 5295 O 501.236 0.269333 4.1152 0
M  V30 5296 H 500.577 0.282436 0.600937 0
M  V30 5297 H 503.107 1.39367 1.49793 0
M  V30 5298 H 503.117 1.10538 3.92741 0
M  V30 5299 H 501.792 2.18928 3.53615 0
M  V30 5300 H 500.369 0.366175 3.71098 0
M  V30 5301 N 502.554 -1.34406 0.822964 0
M  V30 5302 C 503.801 -1.98284 0.411057 0
M  V30 5303 C 504.129 -1.65245 -1.02588 0
M  V30 5304 O 503.384 -0.91619 -1.72929 0
M  V30 5305 C 503.683 -3.52981 0.560268 0
M  V30 5306 C 503.349 -4.05931 1.96293 0
M  V30 5307 C 502.011 -4.20103 2.34664 0
M  V30 5308 C 504.363 -4.34412 2.87985 0
M  V30 5309 C 501.691 -4.60082 3.64062 0
M  V30 5310 C 504.043 -4.75838 4.16847 0
M  V30 5311 C 502.707 -4.88215 4.55195 0
M  V30 5312 H 501.977 -0.725573 0.150416 0
M  V30 5313 H 504.624 -1.60349 1.04692 0
M  V30 5314 H 502.929 -3.91477 -0.158982 0
M  V30 5315 H 504.626 -4.00385 0.222087 0
M  V30 5316 H 501.216 -3.95363 1.65487 0
M  V30 5317 H 505.4 -4.23001 2.59584 0
M  V30 5318 H 500.656 -4.67856 3.93599 0
M  V30 5319 H 504.83 -4.96834 4.87984 0
M  V30 5320 H 502.457 -5.18952 5.55512 0
M  V30 5321 N 504.032 -0.577932 -1.46621 0
M  V30 5322 C 505.448 -0.239242 -1.57797 0
M  V30 5323 C 505.648 1.25843 -1.57371 0
M  V30 5324 O 504.704 2.03988 -1.48813 0
M  V30 5325 C 506.017 -0.884227 -2.87405 0
M  V30 5326 C 507.565 -0.857373 -3.01028 0
M  V30 5327 C 508.04 -1.48181 -4.33366 0
M  V30 5328 N 509.531 -1.44593 -4.40053 0
M  V30 5329 C 510.266 -1.89852 -5.41058 0
M  V30 5330 N 509.762 -2.43062 -6.48762 0
M  V30 5331 N 511.555 -1.80797 -5.3223 0
M  V30 5332 H 503.706 -1.55073 -1.45142 0
M  V30 5333 H 505.969 -0.647903 -0.692044 0
M  V30 5334 H 505.675 -1.93759 -2.93514 0
M  V30 5335 H 505.549 -0.389585 -3.75183 0
M  V30 5336 H 507.936 0.187357 -2.94505 0
M  V30 5337 H 508.017 -1.38999 -2.14739 0
M  V30 5338 H 507.661 -2.52572 -4.40647 0
M  V30 5339 H 507.591 -0.924464 -5.18422 0
M  V30 5340 H 510.082 -1.05694 -3.62819 0
M  V30 5341 H 510.395 -2.75466 -7.22038 0
M  V30 5342 H 508.74 -2.47085 -6.49595 0
M  V30 5343 H 511.931 -1.38989 -4.46989 0
M  V30 5344 H 512.104 -2.16385 -6.10804 0
M  V30 5345 N 505.51 1.54411 -0.315457 0
M  V30 5346 C 506.443 2.20265 0.596522 0
M  V30 5347 C 507.421 1.17693 1.12192 0
M  V30 5348 O 508.605 1.46397 1.18744 0
M  V30 5349 C 505.732 2.85794 1.81767 0
M  V30 5350 C 504.778 4.02017 1.42424 0
M  V30 5351 S 505.611 5.33452 0.467836 0
M  V30 5352 C 506.767 6.02471 1.69645 0
M  V30 5353 H 507 2.97277 0.0370896 0
M  V30 5354 H 504.533 1.54079 -0.0995562 0
M  V30 5355 H 506.491 3.24172 2.51839 0
M  V30 5356 H 505.152 2.08601 2.34828 0
M  V30 5357 H 504.345 4.46701 2.33396 0
M  V30 5358 H 503.947 3.65271 0.803311 0
M  V30 5359 H 506.239 6.24157 2.63504 0
M  V30 5360 H 507.182 6.96215 1.29192 0
M  V30 5361 H 507.59 5.32284 1.87974 0
M  V30 5362 N 506.988 0.0434614 1.5754 0
M  V30 5363 C 507.921 -0.968729 2.06618 0
M  V30 5364 C 508.899 -1.30868 0.965 0
M  V30 5365 O 510.083 -1.42288 1.23638 0
M  V30 5366 C 507.21 -2.28486 2.50023 0
M  V30 5367 C 506.256 -2.09851 3.71302 0
M  V30 5368 S 507.089 -1.38401 5.17306 0
M  V30 5369 C 508.245 -2.71354 5.64019 0
M  V30 5370 H 508.478 -0.551021 2.92149 0
M  V30 5371 H 506.011 -0.168607 1.53477 0
M  V30 5372 H 507.969 -3.04142 2.75695 0
M  V30 5373 H 506.63 -2.67387 1.64812 0
M  V30 5374 H 505.823 -3.07184 3.99567 0
M  V30 5375 H 505.425 -1.42336 3.45856 0
M  V30 5376 H 507.717 -3.67549 5.69134 0
M  V30 5377 H 508.66 -2.47734 6.6335 0
M  V30 5378 H 509.068 -2.77259 4.91719 0
M  V30 5379 N 508.466 -1.55915 -0.229846 0
M  V30 5380 C 509.715 -1.77742 -0.953455 0
M  V30 5381 C 510.028 -0.610524 -1.85828 0
M  V30 5382 O 511.234 -0.712219 -2.61992 0
M  V30 5383 C 509.69 -3.14738 -1.74551 0
M  V30 5384 C 509.298 -4.39126 -0.887242 0
M  V30 5385 C 511.042 -3.45895 -2.46084 0
M  V30 5386 C 508.949 -5.67149 -1.67617 0
M  V30 5387 H 507.879 -0.662648 -0.359741 0
M  V30 5388 H 510.53 -1.82322 -0.207576 0
M  V30 5389 H 508.912 -3.04311 -2.53399 0
M  V30 5390 H 510.086 -4.60588 -0.139892 0
M  V30 5391 H 508.401 -4.15427 -0.284443 0
M  V30 5392 H 510.998 -4.38767 -3.05594 0
M  V30 5393 H 511.341 -2.68007 -3.18556 0
M  V30 5394 H 511.874 -3.57614 -1.74233 0
M  V30 5395 H 508.613 -6.47906 -0.994881 0
M  V30 5396 H 508.133 -5.49763 -2.39836 0
M  V30 5397 H 509.812 -6.07025 -2.23898 0
M  V30 5398 N 509.944 0.496216 -1.49584 0
M  V30 5399 C 511.192 1.24756 -1.58998 0
M  V30 5400 C 511.513 1.92968 -0.280775 0
M  V30 5401 O 510.783 1.82959 0.700198 0
M  V30 5402 H 509.363 0.463471 -0.585836 0
M  V30 5403 H 512.025 0.574678 -1.86235 0
M  V30 5404 H 511.121 2.00895 -2.38847 0
M  V30 5405 N 511.423 1.38739 0.74761 0
M  V30 5406 C 512.353 1.39173 1.87492 0
M  V30 5407 C 513.334 0.256794 1.6815 0
M  V30 5408 O 514.519 0.460762 1.88655 0
M  V30 5409 C 511.649 1.22197 3.25093 0
M  V30 5410 C 510.603 2.32957 3.59047 0
M  V30 5411 C 509.929 2.01082 4.95449 0
M  V30 5412 C 511.229 3.75237 3.6331 0
M  V30 5413 H 512.923 2.3351 1.87386 0
M  V30 5414 H 510.469 1.12399 0.900134 0
M  V30 5415 H 512.422 1.21124 4.03617 0
M  V30 5416 H 511.146 0.243241 3.25693 0
M  V30 5417 H 509.805 2.33226 2.82845 0
M  V30 5418 H 509.453 1.01678 4.92616 0
M  V30 5419 H 509.153 2.75267 5.19136 0
M  V30 5420 H 510.677 2.01638 5.76346 0
M  V30 5421 H 512.091 3.76966 4.31937 0
M  V30 5422 H 510.488 4.48677 3.98509 0
M  V30 5423 H 511.558 4.07122 2.634 0
M  V30 5424 N 512.901 -0.976442 1.23707 0
M  V30 5425 C 513.834 -2.06793 0.964973 0
M  V30 5426 C 514.812 -1.62304 -0.0981472 0
M  V30 5427 O 515.996 -1.88464 0.0369477 0
M  V30 5428 C 513.123 -3.35636 0.454522 0
M  V30 5429 C 512.169 -3.99069 1.50485 0
M  V30 5430 S 513.002 -4.37814 3.0835 0
M  V30 5431 C 514.158 -5.69805 2.58985 0
M  V30 5432 H 514.391 -2.29556 1.88922 0
M  V30 5433 H 511.924 -1.11317 1.06995 0
M  V30 5434 H 513.882 -4.10162 0.166626 0
M  V30 5435 H 512.543 -3.10876 -0.448871 0
M  V30 5436 H 511.736 -4.91896 1.09792 0
M  V30 5437 H 511.338 -3.30938 1.7423 0
M  V30 5438 H 513.63 -6.46919 2.01252 0
M  V30 5439 H 514.573 -6.15345 3.50366 0
M  V30 5440 H 514.981 -5.27994 1.99705 0
M  V30 5441 N 514.379 -1.04941 -1.1758 0
M  V30 5442 C 515.342 -0.652456 -2.19717 0
M  V30 5443 C 516.342 0.294745 -1.58076 0
M  V30 5444 O 517.532 0.0789579 -1.74021 0
M  V30 5445 C 514.664 0.0420712 -3.40874 0
M  V30 5446 H 515.857 -1.55642 -2.5635 0
M  V30 5447 H 513.41 -0.842995 -1.31618 0
M  V30 5448 H 514.145 0.95943 -3.09783 0
M  V30 5449 H 513.93 -0.638844 -3.86861 0
M  V30 5450 H 515.42 0.306 -4.16477 0
M  V30 5451 N 515.857 1.33968 -0.830081 0
M  V30 5452 C 517.106 1.97323 -0.417928 0
M  V30 5453 C 517.419 1.6652 1.02618 0
M  V30 5454 O 518.625 2.2342 1.54259 0
M  V30 5455 C 517.081 3.53099 -0.696359 0
M  V30 5456 C 516.689 3.92788 -2.15457 0
M  V30 5457 C 518.433 4.23049 -0.350724 0
M  V30 5458 C 516.34 5.41506 -2.37751 0
M  V30 5459 H 515.27 0.738409 -0.152541 0
M  V30 5460 H 517.921 1.52711 -1.01744 0
M  V30 5461 H 516.303 3.95991 -0.0265904 0
M  V30 5462 H 517.477 3.6098 -2.86408 0
M  V30 5463 H 515.792 3.35795 -2.46232 0
M  V30 5464 H 518.389 5.32403 -0.495036 0
M  V30 5465 H 518.732 4.10279 0.705476 0
M  V30 5466 H 519.265 3.85657 -0.975362 0
M  V30 5467 H 516.004 5.5927 -3.41903 0
M  V30 5468 H 515.524 5.74804 -1.7135 0
M  V30 5469 H 517.203 6.0828 -2.20465 0
M  V30 5470 N 517.335 0.585699 1.46312 0
M  V30 5471 C 518.746 0.159938 1.86014 0
M  V30 5472 C 519.097 -1.27775 1.48889 0
M  V30 5473 O 518.222 -1.96559 0.90519 0
M  V30 5474 C 518.817 0.283485 3.37612 0
M  V30 5475 C 517.376 -0.0874256 3.76298 0
M  V30 5476 C 516.523 0.618055 2.70325 0
M  V30 5477 H 519.474 0.793737 1.37425 0
M  V30 5478 H 519.495 -0.490348 3.77327 0
M  V30 5479 H 519.007 1.32995 3.64601 0
M  V30 5480 H 517.108 -1.13391 3.54927 0
M  V30 5481 H 517.221 0.290975 4.78216 0
M  V30 5482 H 515.585 0.057993 2.54634 0
M  V30 5483 H 516.368 1.66623 3.00153 0
M  V30 5484 N 518.813 -1.54241 0.323641 0
M  V30 5485 C 520.059 -2.00867 -0.279323 0
M  V30 5486 C 520.392 -1.21146 -1.5178 0
M  V30 5487 O 519.667 -0.29378 -1.92269 0
M  V30 5488 C 519.95 -3.54837 -0.613387 0
M  V30 5489 C 519.803 -4.45284 0.635803 0
M  V30 5490 C 521.122 -4.16186 -1.43099 0
M  V30 5491 H 518.241 -0.730177 -0.100049 0
M  V30 5492 H 520.883 -1.84829 0.440235 0
M  V30 5493 H 519.033 -3.68634 -1.22641 0
M  V30 5494 H 520.705 -4.43357 1.27406 0
M  V30 5495 H 518.948 -4.14956 1.26466 0
M  V30 5496 H 519.619 -5.5084 0.357597 0
M  V30 5497 H 522.095 -4.05964 -0.912814 0
M  V30 5498 H 520.971 -5.24031 -1.6335 0
M  V30 5499 H 521.232 -3.69516 -2.42715 0
M  V30 5500 N 520.291 -0.0518155 -1.57515 0
M  V30 5501 C 521.221 0.920283 -2.146 0
M  V30 5502 C 522.202 1.32406 -1.06783 0
M  V30 5503 O 523.387 1.39866 -1.34726 0
M  V30 5504 C 520.517 2.1949 -2.6915 0
M  V30 5505 C 519.471 1.93116 -3.81956 0
M  V30 5506 C 518.797 3.27037 -4.23026 0
M  V30 5507 C 520.097 1.25225 -5.07066 0
M  V30 5508 H 521.791 0.444801 -2.96077 0
M  V30 5509 H 519.337 0.212508 -1.42423 0
M  V30 5510 H 521.29 2.87894 -3.07725 0
M  V30 5511 H 520.014 2.69244 -1.84865 0
M  V30 5512 H 518.673 1.27123 -3.43854 0
M  V30 5513 H 518.321 3.74595 -3.3569 0
M  V30 5514 H 518.021 3.10189 -4.99056 0
M  V30 5515 H 519.545 3.96673 -4.64202 0
M  V30 5516 H 520.959 1.83666 -5.43083 0
M  V30 5517 H 519.356 1.18702 -5.88243 0
M  V30 5518 H 520.426 0.228382 -4.84362 0
M  V30 5519 N 521.769 1.56035 0.221574 0
M  V30 5520 C 523.016 1.79047 0.94597 0
M  V30 5521 C 523.344 0.62057 1.84334 0
M  V30 5522 O 522.599 -0.395053 1.91671 0
M  V30 5523 C 522.898 3.07813 1.8162 0
M  V30 5524 C 522.564 4.3797 1.07206 0
M  V30 5525 C 521.226 4.73334 0.866508 0
M  V30 5526 C 523.578 5.18326 0.546565 0
M  V30 5527 C 520.906 5.8657 0.123549 0
M  V30 5528 C 523.258 6.32335 -0.18305 0
M  V30 5529 C 521.922 6.66301 -0.399861 0
M  V30 5530 H 521.192 0.655178 0.346155 0
M  V30 5531 H 523.839 1.90299 0.214146 0
M  V30 5532 H 522.144 2.91682 2.61589 0
M  V30 5533 H 523.841 3.2282 2.37884 0
M  V30 5534 H 520.431 4.10202 1.24226 0
M  V30 5535 H 524.615 4.9144 0.692847 0
M  V30 5536 H 519.871 6.11376 -0.0546591 0
M  V30 5537 H 524.045 6.9383 -0.59775 0
M  V30 5538 H 521.672 7.53889 -0.977489 0
M  V30 5539 N 523.247 -0.488276 1.49845 0
M  V30 5540 C 524.21 -1.57069 1.66919 0
M  V30 5541 C 525.21 -1.51445 0.540479 0
M  V30 5542 O 526.4 -1.5437 0.807188 0
M  V30 5543 C 523.532 -2.96718 1.67844 0
M  V30 5544 H 524.725 -1.43254 2.63474 0
M  V30 5545 H 522.278 -0.713435 1.39068 0
M  V30 5546 H 523.013 -3.15996 0.7292 0
M  V30 5547 H 522.798 -3.02208 2.49826 0
M  V30 5548 H 524.288 -3.75335 1.83066 0
M  V30 5549 N 524.725 -1.39134 -0.740242 0
M  V30 5550 C 525.655 -1.40165 -1.86751 0
M  V30 5551 C 526.636 -0.265708 -1.68012 0
M  V30 5552 O 527.821 -0.47076 -1.88408 0
M  V30 5553 C 524.951 -1.2392 -3.2444 0
M  V30 5554 C 523.905 -2.34858 -3.57807 0
M  V30 5555 C 523.231 -2.03707 -4.94376 0
M  V30 5556 C 524.531 -3.77159 -3.61315 0
M  V30 5557 H 526.225 -2.345 -1.86145 0
M  V30 5558 H 523.771 -1.12875 -0.89416 0
M  V30 5559 H 525.724 -1.23263 -4.02969 0
M  V30 5560 H 524.448 -0.26051 -3.25559 0
M  V30 5561 H 523.107 -2.34723 -2.81604 0
M  V30 5562 H 522.755 -1.04289 -4.9207 0
M  V30 5563 H 522.455 -2.78016 -5.17669 0
M  V30 5564 H 523.979 -2.04691 -5.75268 0
M  V30 5565 H 525.393 -3.79252 -4.29931 0
M  V30 5566 H 523.79 -4.50784 -3.96124 0
M  V30 5567 H 524.86 -4.08513 -2.61238 0
M  V30 5568 N 526.204 0.969867 -1.24223 0
M  V30 5569 C 527.453 1.70687 -1.07466 0
M  V30 5570 C 527.766 1.91736 0.386861 0
M  V30 5571 O 528.972 2.62986 0.674581 0
M  V30 5572 C 527.428 3.07217 -1.87472 0
M  V30 5573 C 527.036 2.94018 -3.3802 0
M  V30 5574 C 528.78 3.84804 -1.79237 0
M  V30 5575 C 526.687 4.25844 -4.10379 0
M  V30 5576 H 525.617 0.640067 -0.398536 0
M  V30 5577 H 528.268 1.08092 -1.48285 0
M  V30 5578 H 526.65 3.70628 -1.39466 0
M  V30 5579 H 527.824 2.39632 -3.9359 0
M  V30 5580 H 526.139 2.29898 -3.47183 0
M  V30 5581 H 528.736 4.82417 -2.30603 0
M  V30 5582 H 529.079 4.09356 -0.757197 0
M  V30 5583 H 529.612 3.28115 -2.24912 0
M  V30 5584 H 526.351 4.06486 -5.14246 0
M  V30 5585 H 525.871 4.80054 -3.59594 0
M  V30 5586 H 527.55 4.94475 -4.17257 0
M  V30 5587 N 527.682 1.05563 1.17022 0
M  V30 5588 C 528.645 0.664098 2.19368 0
M  V30 5589 C 529.645 -0.286358 1.5823 0
M  V30 5590 O 530.835 -0.069728 1.7406 0
M  V30 5591 C 527.967 -0.0239932 3.40892 0
M  V30 5592 H 529.16 1.57 2.55521 0
M  V30 5593 H 526.713 0.849964 1.31169 0
M  V30 5594 H 527.448 -0.942988 3.10287 0
M  V30 5595 H 527.233 0.659351 3.86516 0
M  V30 5596 H 528.723 -0.283909 4.16634 0
M  V30 5597 N 529.16 -1.33526 0.837174 0
M  V30 5598 C 530.09 -2.31764 0.284206 0
M  V30 5599 C 531.071 -1.58896 -0.607142 0
M  V30 5600 O 532.256 -1.86798 -0.531047 0
M  V30 5601 C 529.386 -3.43029 -0.542962 0
M  V30 5602 C 528.34 -4.27255 0.252451 0
M  V30 5603 C 527.666 -5.3012 -0.69836 0
M  V30 5604 C 528.966 -5.01229 1.46858 0
M  V30 5605 H 530.66 -2.78262 1.10502 0
M  V30 5606 H 528.206 -1.3378 0.532812 0
M  V30 5607 H 530.159 -4.1078 -0.940096 0
M  V30 5608 H 528.883 -2.95216 -1.39697 0
M  V30 5609 H 527.542 -3.61127 0.631124 0
M  V30 5610 H 527.19 -4.78564 -1.54872 0
M  V30 5611 H 526.89 -5.87353 -0.170274 0
M  V30 5612 H 528.414 -6.00737 -1.09305 0
M  V30 5613 H 529.828 -5.61756 1.14469 0
M  V30 5614 H 528.225 -5.68104 1.93333 0
M  V30 5615 H 529.295 -4.301 2.23924 0
M  V30 5616 N 530.638 -0.59345 -1.46 0
M  V30 5617 C 531.884 -0.0916503 -2.03193 0
M  V30 5618 C 532.239 1.25839 -1.45541 0
M  V30 5619 O 531.532 1.81455 -0.615191 0
M  V30 5620 C 531.726 0.021178 -3.57394 0
M  V30 5621 C 531.555 -1.31638 -4.30002 0
M  V30 5622 C 530.325 -1.89336 -4.68487 0
M  V30 5623 C 532.523 -2.242 -4.62859 0
M  V30 5624 N 530.505 -3.1672 -5.25891 0
M  V30 5625 C 531.876 -3.36175 -5.20948 0
M  V30 5626 C 533.931 -2.23748 -4.44794 0
M  V30 5627 C 532.634 -4.47844 -5.62875 0
M  V30 5628 C 534.66 -3.34454 -4.87744 0
M  V30 5629 C 534.022 -4.4515 -5.45913 0
M  V30 5630 H 530.121 -0.0765713 -0.778242 0
M  V30 5631 H 532.705 -0.788705 -1.7801 0
M  V30 5632 H 530.876 0.687423 -3.82268 0
M  V30 5633 H 532.608 0.528343 -4.01236 0
M  V30 5634 H 529.363 -1.42704 -4.51589 0
M  V30 5635 H 529.787 -3.81746 -5.59106 0
M  V30 5636 H 534.429 -1.39433 -3.99147 0
M  V30 5637 H 532.147 -5.32894 -6.07495 0
M  V30 5638 H 535.733 -3.35234 -4.75509 0
M  V30 5639 H 534.613 -5.29398 -5.78539 0
M  V30 5640 N 532.116 1.54067 -0.331816 0
M  V30 5641 C 533.046 2.27569 0.522932 0
M  V30 5642 C 534.027 1.28679 1.11247 0
M  V30 5643 O 535.212 1.57504 1.13605 0
M  V30 5644 C 532.342 3.0397 1.67987 0
M  V30 5645 C 531.296 4.10267 1.21924 0
M  V30 5646 C 530.622 4.74555 2.46377 0
M  V30 5647 C 531.922 5.21268 0.32815 0
M  V30 5648 H 533.616 2.99264 -0.0901977 0
M  V30 5649 H 531.162 1.4393 -0.044821 0
M  V30 5650 H 533.115 3.54123 2.28418 0
M  V30 5651 H 531.839 2.29906 2.31971 0
M  V30 5652 H 530.498 3.61009 0.637809 0
M  V30 5653 H 530.146 3.97098 3.08743 0
M  V30 5654 H 529.846 5.46363 2.16243 0
M  V30 5655 H 531.37 5.27487 3.07555 0
M  V30 5656 H 532.784 5.67128 0.838978 0
M  V30 5657 H 531.181 5.99982 0.119228 0
M  V30 5658 H 532.251 4.80673 -0.638839 0
M  V30 5659 N 533.594 0.0601682 1.57485 0
M  V30 5660 C 534.822 -0.620937 1.97363 0
M  V30 5661 C 535.237 -1.63846 0.938082 0
M  V30 5662 O 534.594 -1.82339 -0.0766578 0
M  V30 5663 C 534.645 -1.29987 3.37321 0
M  V30 5664 O 534.366 -0.323081 4.36907 0
M  V30 5665 C 535.867 -2.06989 3.92008 0
M  V30 5666 H 533.087 -0.169135 0.649334 0
M  V30 5667 H 535.631 0.129132 2.04092 0
M  V30 5668 H 533.786 -2.0011 3.31715 0
M  V30 5669 H 534.2 -0.808754 5.18227 0
M  V30 5670 H 535.674 -2.49901 4.92192 0
M  V30 5671 H 536.151 -2.92173 3.2792 0
M  V30 5672 H 536.757 -1.41757 4.0098 0
M  V30 5673 N 535.072 -1.5615 -0.213296 0
M  V30 5674 C 536.488 -1.49327 -0.56336 0
M  V30 5675 C 536.688 -0.756826 -1.86747 0
M  V30 5676 O 535.744 -0.299866 -2.50713 0
M  V30 5677 C 537.057 -2.9392 -0.634944 0
M  V30 5678 C 538.605 -3.04487 -0.725013 0
M  V30 5679 C 539.08 -4.50456 -0.82787 0
M  V30 5680 N 540.571 -4.54533 -0.891876 0
M  V30 5681 C 541.306 -5.64766 -0.991315 0
M  V30 5682 N 540.802 -6.84733 -1.05419 0
M  V30 5683 N 542.595 -5.52637 -1.02709 0
M  V30 5684 H 534.746 -2.02453 0.642366 0
M  V30 5685 H 537.009 -0.920548 0.226487 0
M  V30 5686 H 536.715 -3.50783 0.253859 0
M  V30 5687 H 536.589 -3.46274 -1.49579 0
M  V30 5688 H 538.976 -2.47685 -1.60425 0
M  V30 5689 H 539.057 -2.55289 0.161669 0
M  V30 5690 H 538.701 -5.07878 0.0469464 0
M  V30 5691 H 538.631 -4.97369 -1.73009 0
M  V30 5692 H 541.122 -3.68141 -0.85327 0
M  V30 5693 H 541.435 -7.64493 -1.13007 0
M  V30 5694 H 539.78 -6.87427 -1.02318 0
M  V30 5695 H 542.971 -4.5784 -0.974687 0
M  V30 5696 H 543.144 -6.38576 -1.10113 0
M  V30 5697 N 536.55 0.480323 -1.50102 0
M  V30 5698 C 537.798 1.23063 -1.60312 0
M  V30 5699 C 538.119 1.92659 -0.301226 0
M  V30 5700 O 537.389 1.83691 0.680753 0
M  V30 5701 H 535.969 0.457231 -0.590719 0
M  V30 5702 H 538.631 0.554893 -1.86834 0
M  V30 5703 H 537.727 1.9835 -2.40964 0
M  V30 5704 N 538.028 1.39524 0.732853 0
M  V30 5705 C 539.276 1.36594 1.48951 0
M  V30 5706 C 539.597 -0.0367507 1.94965 0
M  V30 5707 O 538.867 -0.988391 1.69138 0
M  V30 5708 H 537.447 0.502673 0.552566 0
M  V30 5709 H 540.109 1.74411 0.869869 0
M  V30 5710 H 539.205 2.03 2.3706 0
M  V30 5711 N 539.506 -0.963266 1.24736 0
M  V30 5712 C 540.438 -2.06162 1.0015 0
M  V30 5713 C 541.451 -1.62771 -0.0305905 0
M  V30 5714 O 542.64 -1.77296 0.206966 0
M  V30 5715 C 539.74 -3.35333 0.490385 0
M  V30 5716 C 538.913 -4.07609 1.58663 0
M  V30 5717 C 537.972 -5.15052 1.0774 0
M  V30 5718 O 536.998 -5.4098 1.77002 0
M  V30 5719 N 538.2 -5.80436 -0.0858605 0
M  V30 5720 H 540.965 -2.27825 1.94719 0
M  V30 5721 H 538.526 -1.13121 1.15825 0
M  V30 5722 H 540.518 -4.04477 0.134371 0
M  V30 5723 H 539.088 -3.10507 -0.361155 0
M  V30 5724 H 538.308 -3.32681 2.11463 0
M  V30 5725 H 539.596 -4.52656 2.32336 0
M  V30 5726 H 538.994 -5.6178 -0.664806 0
M  V30 5727 H 537.551 -6.50674 -0.382981 0
M  V30 5728 N 540.985 -1.06182 -1.16461 0
M  V30 5729 C 542.234 -0.772927 -1.86303 0
M  V30 5730 C 542.547 0.703187 -1.82523 0
M  V30 5731 O 543.753 1.10641 -2.47933 0
M  V30 5732 C 542.209 -1.33249 -3.34324 0
M  V30 5733 C 541.817 -2.83876 -3.46581 0
M  V30 5734 C 543.561 -1.12108 -4.09429 0
M  V30 5735 C 541.468 -3.33082 -4.88682 0
M  V30 5736 H 540.398 -0.285452 -0.697878 0
M  V30 5737 H 543.049 -1.28039 -1.31447 0
M  V30 5738 H 541.431 -0.7528 -3.88779 0
M  V30 5739 H 542.605 -3.47786 -3.02293 0
M  V30 5740 H 540.92 -3.03671 -2.84909 0
M  V30 5741 H 543.517 -1.46361 -5.14279 0
M  V30 5742 H 543.86 -0.0593832 -4.16258 0
M  V30 5743 H 544.393 -1.6665 -3.6121 0
M  V30 5744 H 541.132 -4.38726 -4.87032 0
M  V30 5745 H 540.652 -2.73919 -5.33599 0
M  V30 5746 H 542.331 -3.28344 -5.57494 0
M  V30 5747 N 542.463 1.3308 -0.844243 0
M  V30 5748 C 543.874 1.7992 -0.498566 0
M  V30 5749 C 544.225 1.69808 0.982834 0
M  V30 5750 O 543.35 1.25051 1.7661 0
M  V30 5751 C 543.945 3.26677 -0.898204 0
M  V30 5752 C 542.504 3.71513 -0.604583 0
M  V30 5753 C 541.651 2.54393 -1.10362 0
M  V30 5754 H 544.602 1.20526 -1.03244 0
M  V30 5755 H 544.623 3.79918 -0.21039 0
M  V30 5756 H 544.135 3.34004 -1.97643 0
M  V30 5757 H 542.236 3.69708 0.46335 0
M  V30 5758 H 542.349 4.64755 -1.16358 0
M  V30 5759 H 540.713 2.49246 -0.524273 0
M  V30 5760 H 541.496 2.6448 -2.18873 0
M  V30 5761 N 543.941 0.601185 1.45683 0
M  V30 5762 C 544.889 -0.133955 2.32214 0
M  V30 5763 C 545.883 -0.866034 1.45589 0
M  V30 5764 O 547.089 -0.782326 1.6211 0
M  V30 5765 H 543.464 -0.0620613 0.749435 0
M  V30 5766 H 545.435 0.614389 2.92007 0
M  V30 5767 C 544.184 -1.12216 3.29094 0
M  V30 5768 H 543.507 -0.568273 3.95741 0
M  V30 5769 H 544.947 -1.60659 3.92383 0
M  V30 5770 C 543.406 -2.19251 2.55794 0
M  V30 5771 O 543.936 -3.26894 2.33459 0
M  V30 5772 N 542.142 -1.9436 2.16039 0
M  V30 5773 H 541.689 -1.06829 2.34404 0
M  V30 5774 H 541.647 -2.66181 1.67318 0
M  V30 5775 N 545.419 -1.53889 0.339982 0
M  V30 5776 C 546.351 -2.22435 -0.55275 0
M  V30 5777 C 547.364 -1.22975 -1.06681 0
M  V30 5778 O 548.553 -1.49351 -0.977575 0
M  V30 5779 C 545.653 -2.8882 -1.77302 0
M  V30 5780 C 544.826 -4.14563 -1.39486 0
M  V30 5781 C 543.885 -4.64391 -2.47442 0
M  V30 5782 O 542.911 -5.28687 -2.10899 0
M  V30 5783 N 544.113 -4.40015 -3.78639 0
M  V30 5784 H 546.878 -2.9968 0.0342669 0
M  V30 5785 H 544.439 -1.61068 0.16394 0
M  V30 5786 H 546.431 -3.19072 -2.48948 0
M  V30 5787 H 545.001 -2.15182 -2.26749 0
M  V30 5788 H 544.221 -3.90896 -0.509321 0
M  V30 5789 H 545.509 -4.96362 -1.11813 0
M  V30 5790 H 544.907 -3.88586 -4.11118 0
M  V30 5791 H 543.464 -4.74881 -4.46465 0
M  V30 5792 N 546.897 -0.0685191 -1.57451 0
M  V30 5793 C 548.313 0.288101 -1.56978 0
M  V30 5794 C 548.513 1.70262 -1.07765 0
M  V30 5795 O 547.569 2.4135 -0.742054 0
M  V30 5796 C 548.882 0.100745 -3.00531 0
M  V30 5797 C 550.43 0.170531 -3.12535 0
M  V30 5798 C 550.905 0.0114944 -4.57999 0
M  V30 5799 N 552.396 0.0672065 -4.63151 0
M  V30 5800 C 553.131 -0.0314813 -5.73391 0
M  V30 5801 N 552.627 -0.183503 -6.92557 0
M  V30 5802 N 554.42 0.0253489 -5.62094 0
M  V30 5803 H 546.571 -0.993026 -1.87757 0
M  V30 5804 H 548.834 -0.386981 -0.865419 0
M  V30 5805 H 548.54 -0.875197 -3.40636 0
M  V30 5806 H 548.414 0.854457 -3.67395 0
M  V30 5807 H 550.801 1.13696 -2.72318 0
M  V30 5808 H 550.882 -0.614229 -2.48316 0
M  V30 5809 H 550.526 -0.951684 -4.98904 0
M  V30 5810 H 550.456 0.815617 -5.20245 0
M  V30 5811 H 552.947 0.183246 -3.77455 0
M  V30 5812 H 553.26 -0.251041 -7.72392 0
M  V30 5813 H 551.605 -0.218822 -6.94655 0
M  V30 5814 H 554.796 0.142794 -4.67882 0
M  V30 5815 H 554.969 -0.0550166 -6.47977 0
M  V30 5816 N 548.375 1.56261 0.205012 0
M  V30 5817 C 549.621 1.81211 0.923805 0
M  V30 5818 C 549.976 0.644065 1.813 0
M  V30 5819 O 549.269 -0.361208 1.88164 0
M  V30 5820 C 549.463 3.09722 1.78345 0
M  V30 5821 C 549.292 4.38915 0.978979 0
M  V30 5822 C 548.062 5.00874 0.667332 0
M  V30 5823 C 550.26 5.13199 0.336386 0
M  V30 5824 N 548.242 6.137 -0.156814 0
M  V30 5825 C 549.613 6.19009 -0.350402 0
M  V30 5826 C 551.668 4.97266 0.251101 0
M  V30 5827 C 550.371 7.10616 -1.11434 0
M  V30 5828 C 552.397 5.89288 -0.499413 0
M  V30 5829 C 551.759 6.94536 -1.17468 0
M  V30 5830 H 547.858 0.714528 0.317764 0
M  V30 5831 H 550.442 1.93738 0.193317 0
M  V30 5832 H 548.613 2.98448 2.48563 0
M  V30 5833 H 550.345 3.22798 2.44098 0
M  V30 5834 H 547.1 4.63151 0.989366 0
M  V30 5835 H 547.524 6.74695 -0.558206 0
M  V30 5836 H 552.166 4.15935 0.758823 0
M  V30 5837 H 549.884 7.91417 -1.63353 0
M  V30 5838 H 553.47 5.79034 -0.566627 0
M  V30 5839 H 552.35 7.64513 -1.74613 0
M  V30 5840 N 549.853 -0.472356 1.50355 0
M  V30 5841 C 551.1 -1.22453 1.61281 0
M  V30 5842 C 551.428 -1.91972 0.31256 0
M  V30 5843 O 550.683 -1.82696 -0.701475 0
M  V30 5844 C 550.982 -2.29257 2.74182 0
M  V30 5845 C 550.648 -1.76999 4.14708 0
M  V30 5846 C 549.31 -1.62467 4.52944 0
M  V30 5847 C 551.662 -1.38215 5.0254 0
M  V30 5848 C 548.99 -1.07574 5.76754 0
M  V30 5849 C 551.342 -0.847638 6.26895 0
M  V30 5850 C 550.006 -0.688946 6.63935 0
M  V30 5851 H 549.276 -0.448087 0.590168 0
M  V30 5852 H 551.923 -0.520744 1.84284 0
M  V30 5853 H 550.228 -3.05538 2.45263 0
M  V30 5854 H 551.925 -2.87212 2.7984 0
M  V30 5855 H 548.515 -1.89276 3.84542 0
M  V30 5856 H 552.699 -1.48276 4.73633 0
M  V30 5857 H 547.955 -0.940237 6.04127 0
M  V30 5858 H 552.129 -0.538455 6.94315 0
M  V30 5859 H 549.756 -0.261435 7.5975 0
M  V30 5860 N 551.331 -1.39911 -0.725443 0
M  V30 5861 C 552.556 -1.41137 -1.5197 0
M  V30 5862 C 552.981 -0.010262 -1.88097 0
M  V30 5863 O 552.339 0.979184 -1.52583 0
M  V30 5864 C 552.387 -2.2994 -2.77777 0
M  V30 5865 O 551.491 -1.73586 -3.74088 0
M  V30 5866 H 550.832 -0.480219 -0.458569 0
M  V30 5867 H 553.362 -1.84023 -0.894249 0
M  V30 5868 H 553.372 -2.44785 -3.26411 0
M  V30 5869 H 552.047 -3.31759 -2.50816 0
M  V30 5870 H 550.624 -1.68035 -3.32894 0
M  V30 5871 N 552.809 0.956637 -1.25245 0
M  V30 5872 C 554.055 1.70413 -1.11044 0
M  V30 5873 C 554.41 1.89275 0.345377 0
M  V30 5874 O 553.703 1.45116 1.25107 0
M  V30 5875 C 553.897 3.08996 -1.79601 0
M  V30 5876 C 553.726 3.03654 -3.317 0
M  V30 5877 C 552.496 3.07521 -4.00947 0
M  V30 5878 C 554.694 2.84975 -4.28128 0
M  V30 5879 N 552.676 2.92316 -5.39838 0
M  V30 5880 C 554.047 2.7818 -5.5409 0
M  V30 5881 C 556.102 2.6964 -4.18568 0
M  V30 5882 C 554.805 2.57616 -6.71585 0
M  V30 5883 C 556.831 2.50447 -5.35752 0
M  V30 5884 C 556.193 2.4437 -6.60653 0
M  V30 5885 H 552.292 0.631642 -0.461035 0
M  V30 5886 H 554.876 1.13331 -1.58317 0
M  V30 5887 H 553.047 3.64248 -1.34826 0
M  V30 5888 H 554.779 3.72515 -1.58161 0
M  V30 5889 H 551.534 3.16635 -3.52192 0
M  V30 5890 H 551.958 2.87923 -6.12723 0
M  V30 5891 H 556.6 2.73113 -3.22752 0
M  V30 5892 H 554.318 2.52885 -7.67512 0
M  V30 5893 H 557.904 2.39509 -5.30214 0
M  V30 5894 H 556.784 2.29712 -7.49801 0
M  V30 5895 N 554.287 1.06798 1.15896 0
M  V30 5896 C 555.217 0.704677 2.22613 0
M  V30 5897 C 556.198 -0.305252 1.67339 0
M  V30 5898 O 557.383 -0.179247 1.93371 0
M  V30 5899 C 554.513 0.0957325 3.47168 0
M  V30 5900 C 553.467 1.0322 4.15367 0
M  V30 5901 C 552.793 0.286293 5.33933 0
M  V30 5902 C 554.093 2.36341 4.65768 0
M  V30 5903 H 555.787 1.59688 2.53259 0
M  V30 5904 H 553.333 0.769257 1.21731 0
M  V30 5905 H 555.286 -0.170333 4.21056 0
M  V30 5906 H 554.01 -0.831516 3.15838 0
M  V30 5907 H 552.669 1.28309 3.43413 0
M  V30 5908 H 552.317 -0.644237 4.98857 0
M  V30 5909 H 552.017 0.910436 5.80504 0
M  V30 5910 H 553.541 0.0278938 6.10594 0
M  V30 5911 H 554.955 2.1561 5.31211 0
M  V30 5912 H 553.352 2.94299 5.2298 0
M  V30 5913 H 554.422 2.99047 3.81705 0
M  V30 5914 N 555.766 -1.3263 0.851289 0
M  V30 5915 C 556.729 -2.27247 0.298541 0
M  V30 5916 C 557.729 -1.51467 -0.539847 0
M  V30 5917 O 558.919 -1.7061 -0.351843 0
M  V30 5918 C 556.051 -3.35964 -0.578004 0
M  V30 5919 H 557.244 -2.7765 1.13359 0
M  V30 5920 H 554.797 -1.43245 0.625354 0
M  V30 5921 H 555.532 -2.90823 -1.435 0
M  V30 5922 H 555.317 -3.92094 0.0220539 0
M  V30 5923 H 556.807 -4.06472 -0.957626 0
M  V30 5924 N 557.244 -0.608902 -1.45362 0
M  V30 5925 C 558.174 0.0964526 -2.33301 0
M  V30 5926 C 559.155 0.857444 -1.46908 0
M  V30 5927 O 560.34 0.827735 -1.75676 0
M  V30 5928 C 557.47 1.09354 -3.29635 0
M  V30 5929 C 556.424 0.445676 -4.25673 0
M  V30 5930 C 555.75 1.5511 -5.11708 0
M  V30 5931 C 557.05 -0.633972 -5.18438 0
M  V30 5932 H 558.744 -0.637829 -2.92527 0
M  V30 5933 H 556.29 -0.308178 -1.40664 0
M  V30 5934 H 558.243 1.59556 -3.90025 0
M  V30 5935 H 556.967 1.85843 -2.6857 0
M  V30 5936 H 555.626 -0.0354897 -3.66583 0
M  V30 5937 H 555.274 2.30631 -4.4701 0
M  V30 5938 H 554.974 1.12311 -5.76767 0
M  V30 5939 H 556.498 2.05537 -5.74967 0
M  V30 5940 H 557.912 -0.215974 -5.72893 0
M  V30 5941 H 556.309 -0.983789 -5.91981 0
M  V30 5942 H 557.379 -1.51005 -4.60788 0
M  V30 5943 N 558.722 1.53707 -0.348139 0
M  V30 5944 C 559.652 2.28111 0.498766 0
M  V30 5945 C 560.633 1.29851 1.09876 0
M  V30 5946 O 561.818 1.587 1.11928 0
M  V30 5947 C 558.948 3.05735 1.64753 0
M  V30 5948 C 557.902 4.11537 1.17565 0
M  V30 5949 C 557.228 4.77142 2.4133 0
M  V30 5950 C 558.528 5.21587 0.272844 0
M  V30 5951 H 560.222 2.99152 -0.121934 0
M  V30 5952 H 557.768 1.43875 -0.0600842 0
M  V30 5953 H 559.721 3.56526 2.24649 0
M  V30 5954 H 558.445 2.32354 2.2952 0
M  V30 5955 H 557.104 3.61665 0.599483 0
M  V30 5956 H 556.752 4.0035 3.04514 0
M  V30 5957 H 556.452 5.48626 2.10436 0
M  V30 5958 H 557.976 5.30719 3.01943 0
M  V30 5959 H 559.39 5.67986 0.778779 0
M  V30 5960 H 557.787 6.00074 0.0555849 0
M  V30 5961 H 558.857 4.79969 -0.689785 0
M  V30 5962 N 560.2 0.0768682 1.57412 0
M  V30 5963 C 561.428 -0.59997 1.9801 0
M  V30 5964 C 561.843 -1.62842 0.955408 0
M  V30 5965 O 561.2 -1.8241 -0.057314 0
M  V30 5966 C 561.251 -1.26401 3.38681 0
M  V30 5967 O 560.972 -0.276723 4.37225 0
M  V30 5968 C 562.473 -2.0282 3.94182 0
M  V30 5969 H 559.693 -0.162239 0.651091 0
M  V30 5970 H 562.237 0.150771 2.03943 0
M  V30 5971 H 560.392 -1.96581 3.33819 0
M  V30 5972 H 560.806 -0.753744 5.19056 0
M  V30 5973 H 562.28 -2.44667 4.94815 0
M  V30 5974 H 562.757 -2.88678 3.31001 0
M  V30 5975 H 563.363 -1.37496 4.02461 0
M  V30 5976 N 561.678 -1.56367 -0.196722 0
M  V30 5977 C 562.611 -1.89475 -1.2718 0
M  V30 5978 C 563.589 -0.754667 -1.44026 0
M  V30 5979 O 564.773 -1.00551 -1.59442 0
M  V30 5980 C 561.9 -2.12352 -2.63864 0
M  V30 5981 C 560.946 -3.35053 -2.63897 0
M  V30 5982 S 561.779 -4.90228 -2.15492 0
M  V30 5983 C 562.935 -5.16171 -3.54004 0
M  V30 5984 H 563.168 -2.80365 -0.989075 0
M  V30 5985 H 560.701 -1.49125 -0.40014 0
M  V30 5986 H 562.659 -2.26214 -3.42545 0
M  V30 5987 H 561.32 -1.22214 -2.89349 0
M  V30 5988 H 560.513 -3.48182 -3.64397 0
M  V30 5989 H 560.115 -3.20176 -1.93296 0
M  V30 5990 H 562.407 -5.06591 -4.49857 0
M  V30 5991 H 563.35 -6.17938 -3.45771 0
M  V30 5992 H 563.758 -4.43814 -3.48841 0
M  V30 5993 N 563.156 0.464375 -1.50603 0
M  V30 5994 C 564.567 1.04507 -1.5471 0
M  V30 5995 C 564.918 1.9297 -0.354542 0
M  V30 5996 O 564.043 2.09763 0.531812 0
M  V30 5997 C 564.638 1.90207 -2.80369 0
M  V30 5998 C 563.197 2.43373 -2.87135 0
M  V30 5999 C 562.344 1.21886 -2.49076 0
M  V30 6000 H 565.295 0.246716 -1.56771 0
M  V30 6001 H 565.316 2.75353 -2.62604 0
M  V30 6002 H 564.828 1.25796 -3.67147 0
M  V30 6003 H 562.929 3.11318 -2.04724 0
M  V30 6004 H 563.042 2.7802 -3.90181 0
M  V30 6005 H 561.406 1.55575 -2.01664 0
M  V30 6006 H 562.189 0.591268 -3.3817 0
M  V30 6007 N 564.634 1.40294 0.718013 0
M  V30 6008 C 565.597 1.4012 1.81381 0
M  V30 6009 C 566.597 0.295405 1.58063 0
M  V30 6010 O 567.787 0.554187 1.6515 0
M  V30 6011 C 564.919 1.19056 3.19435 0
M  V30 6012 H 566.112 2.37645 1.82933 0
M  V30 6013 H 563.665 1.26107 0.923405 0
M  V30 6014 H 564.4 0.222809 3.23534 0
M  V30 6015 H 564.185 1.99152 3.37758 0
M  V30 6016 H 565.675 1.21716 3.99468 0
M  V30 6017 N 566.112 -0.949982 1.2575 0
M  V30 6018 C 567.523 -1.50989 1.09815 0
M  V30 6019 C 567.874 -1.93497 -0.324556 0
M  V30 6020 O 566.999 -1.79068 -1.21506 0
M  V30 6021 C 567.594 -2.74394 1.98729 0
M  V30 6022 C 566.153 -3.26682 1.86965 0
M  V30 6023 C 565.3 -1.99498 1.92603 0
M  V30 6024 H 568.251 -0.766387 1.38968 0
M  V30 6025 H 568.272 -3.48383 1.53001 0
M  V30 6026 H 567.784 -2.43425 3.02268 0
M  V30 6027 H 565.885 -3.62461 0.863279 0
M  V30 6028 H 565.998 -3.94383 2.72027 0
M  V30 6029 H 564.362 -2.15005 1.36546 0
M  V30 6030 H 565.145 -1.70871 2.97755 0
M  V30 6031 N 567.59 -1.07411 -1.15328 0
M  V30 6032 C 568.837 -0.797649 -1.86128 0
M  V30 6033 C 569.165 0.676298 -1.82364 0
M  V30 6034 O 568.42 1.51223 -1.24218 0
M  V30 6035 C 568.719 -1.25191 -3.34757 0
M  V30 6036 C 568.385 -2.73191 -3.58716 0
M  V30 6037 C 567.047 -3.13616 -3.64964 0
M  V30 6038 C 569.399 -3.68718 -3.6837 0
M  V30 6039 C 566.727 -4.48383 -3.78377 0
M  V30 6040 C 569.079 -5.03248 -3.83306 0
M  V30 6041 C 567.743 -5.43293 -3.878 0
M  V30 6042 H 567.013 -0.29188 -0.681092 0
M  V30 6043 H 569.66 -1.34524 -1.36292 0
M  V30 6044 H 567.965 -0.623712 -3.86804 0
M  V30 6045 H 569.662 -1.01489 -3.87945 0
M  V30 6046 H 566.252 -2.40898 -3.54494 0
M  V30 6047 H 570.436 -3.38614 -3.62842 0
M  V30 6048 H 565.692 -4.78877 -3.80114 0
M  V30 6049 H 569.866 -5.77142 -3.89718 0
M  V30 6050 H 567.493 -6.47721 -3.97946 0
M  V30 6051 N 569.068 1.32177 -0.85831 0
M  V30 6052 C 569.998 2.31282 -0.321041 0
M  V30 6053 C 570.979 1.59841 0.581786 0
M  V30 6054 O 572.164 1.87619 0.501262 0
M  V30 6055 C 569.294 3.4385 0.48832 0
M  V30 6056 C 568.248 4.26799 -0.320391 0
M  V30 6057 C 567.574 5.31164 0.613934 0
M  V30 6058 C 568.874 4.98829 -1.54813 0
M  V30 6059 H 570.568 2.76469 -1.14915 0
M  V30 6060 H 568.114 1.32916 -0.554028 0
M  V30 6061 H 570.067 4.12224 0.874626 0
M  V30 6062 H 568.791 2.97401 1.34983 0
M  V30 6063 H 567.45 3.60077 -0.688497 0
M  V30 6064 H 567.098 4.80967 1.47239 0
M  V30 6065 H 566.798 5.8755 0.0768097 0
M  V30 6066 H 568.322 6.024 0.997336 0
M  V30 6067 H 569.736 5.59864 -1.23392 0
M  V30 6068 H 568.133 5.64957 -2.02346 0
M  V30 6069 H 569.203 4.26483 -2.30739 0
M  V30 6070 N 570.547 0.616602 1.45037 0
M  V30 6071 C 571.51 -0.0871112 2.29034 0
M  V30 6072 C 572.51 -0.786414 1.40258 0
M  V30 6073 O 573.7 -0.633207 1.62284 0
M  V30 6074 C 570.832 -1.13369 3.21497 0
M  V30 6075 H 572.025 0.651497 2.92738 0
M  V30 6076 H 569.578 0.376058 1.51709 0
M  V30 6077 H 570.313 -1.90277 2.62612 0
M  V30 6078 H 570.098 -0.636358 3.86902 0
M  V30 6079 H 571.588 -1.62627 3.84633 0
M  V30 6080 N 572.025 -1.5352 0.356285 0
M  V30 6081 C 572.973 -2.26945 -0.50978 0
M  V30 6082 C 573.967 -1.29569 -1.09125 0
M  V30 6083 O 575.173 -1.47231 -1.03552 0
M  V30 6084 H 571.548 -0.729368 -0.183102 0
M  V30 6085 H 573.519 -2.98111 0.131374 0
M  V30 6086 C 572.268 -3.06466 -1.64237 0
M  V30 6087 H 571.591 -3.81233 -1.20423 0
M  V30 6088 H 573.031 -3.61035 -2.22327 0
M  V30 6089 C 571.49 -2.16737 -2.57928 0
M  V30 6090 O 572.02 -1.77195 -3.60507 0
M  V30 6091 N 570.226 -1.81558 -2.26903 0
M  V30 6092 H 569.773 -2.13913 -1.43524 0
M  V30 6093 H 569.731 -1.21806 -2.89846 0
M  V30 6094 N 573.503 -0.0852151 -1.57369 0
M  V30 6095 C 574.728 0.592872 -1.98746 0
M  V30 6096 C 575.153 1.61538 -0.963689 0
M  V30 6097 O 574.511 1.81168 0.069071 0
M  V30 6098 C 574.559 1.22599 -3.39119 0
M  V30 6099 O 573.663 2.34185 -3.39457 0
M  V30 6100 H 573.004 0.151314 -0.646529 0
M  V30 6101 H 575.534 -0.163703 -2.03944 0
M  V30 6102 H 575.544 1.56965 -3.76598 0
M  V30 6103 H 574.219 0.476831 -4.13158 0
M  V30 6104 H 572.796 2.01512 -3.13763 0
M  V30 6105 N 574.981 1.5647 0.188427 0
M  V30 6106 C 575.944 1.9421 1.21718 0
M  V30 6107 C 576.944 0.823901 1.38089 0
M  V30 6108 O 578.134 1.09122 1.35787 0
M  V30 6109 C 575.266 2.22197 2.58537 0
M  V30 6110 H 576.459 2.86252 0.894418 0
M  V30 6111 H 574.012 1.50263 0.430211 0
M  V30 6112 H 574.747 1.32814 2.95856 0
M  V30 6113 H 574.532 3.03688 2.48025 0
M  V30 6114 H 576.022 2.52376 3.3271 0
M  V30 6115 N 576.459 -0.456382 1.50847 0
M  V30 6116 C 577.707 -1.20497 1.62249 0
M  V30 6117 C 578.028 -1.92156 0.331839 0
M  V30 6118 O 577.298 -1.84751 -0.651443 0
M  V30 6119 H 575.878 -0.447775 0.597918 0
M  V30 6120 H 578.54 -0.525099 1.87693 0
M  V30 6121 H 577.636 -1.94492 2.44089 0
M  V30 6122 N 577.937 -1.40673 -0.710563 0
M  V30 6123 C 579.183 -1.4043 -1.47142 0
M  V30 6124 C 579.538 -0.00781557 -1.92398 0
M  V30 6125 O 578.831 0.963535 -1.6561 0
M  V30 6126 C 579.025 -2.33253 -2.70791 0
M  V30 6127 C 578.854 -3.81789 -2.37629 0
M  V30 6128 C 577.624 -4.5057 -2.28724 0
M  V30 6129 C 579.822 -4.73152 -2.01572 0
M  V30 6130 N 577.804 -5.84312 -1.88289 0
M  V30 6131 C 579.175 -5.95728 -1.71778 0
M  V30 6132 C 581.23 -4.6094 -1.88252 0
M  V30 6133 C 579.933 -7.07454 -1.30003 0
M  V30 6134 C 581.959 -5.72613 -1.47881 0
M  V30 6135 C 581.321 -6.94278 -1.18987 0
M  V30 6136 H 577.42 -0.569115 -0.536314 0
M  V30 6137 H 580.004 -1.76425 -0.823547 0
M  V30 6138 H 578.175 -1.99378 -3.33321 0
M  V30 6139 H 579.907 -2.23833 -3.37166 0
M  V30 6140 H 576.662 -4.04315 -2.46629 0
M  V30 6141 H 577.086 -6.55153 -1.70596 0
M  V30 6142 H 581.728 -3.67389 -2.09249 0
M  V30 6143 H 579.446 -8.00884 -1.07749 0
M  V30 6144 H 583.032 -5.65161 -1.38145 0
M  V30 6145 H 581.912 -7.79222 -0.88219 0
M  V30 6146 N 579.415 0.9433 -1.26252 0
M  V30 6147 C 580.661 1.69175 -1.11837 0
M  V30 6148 C 580.994 1.91238 0.337891 0
M  V30 6149 O 580.269 1.49152 1.24836 0
M  V30 6150 C 580.552 3.06783 -1.88563 0
M  V30 6151 C 580.405 2.9206 -3.42083 0
M  V30 6152 C 581.724 4.06865 -1.67776 0
M  V30 6153 H 578.843 0.61399 -0.407658 0
M  V30 6154 H 581.485 1.09572 -1.55222 0
M  V30 6155 H 579.635 3.57663 -1.51689 0
M  V30 6156 H 581.307 2.48419 -3.88698 0
M  V30 6157 H 579.55 2.27731 -3.69217 0
M  V30 6158 H 580.221 3.89651 -3.90994 0
M  V30 6159 H 582.697 3.64939 -1.99897 0
M  V30 6160 H 581.573 5.01168 -2.23879 0
M  V30 6161 H 581.834 4.37705 -0.621816 0
M  V30 6162 N 580.893 1.08022 1.14757 0
M  V30 6163 C 582.14 0.807509 1.85703 0
M  V30 6164 C 582.468 -0.666617 1.8272 0
M  V30 6165 O 581.723 -1.50562 1.25018 0
M  V30 6166 C 582.022 1.26964 3.34088 0
M  V30 6167 C 581.688 2.7509 3.57262 0
M  V30 6168 C 580.35 3.15547 3.63296 0
M  V30 6169 C 582.702 3.70667 3.66409 0
M  V30 6170 C 580.03 4.50384 3.75994 0
M  V30 6171 C 582.382 5.05274 3.80632 0
M  V30 6172 C 581.046 5.45342 3.84913 0
M  V30 6173 H 580.316 0.295488 0.679535 0
M  V30 6174 H 582.963 1.35245 1.35577 0
M  V30 6175 H 581.268 0.644216 3.86467 0
M  V30 6176 H 582.965 1.03544 3.87401 0
M  V30 6177 H 579.555 2.42775 3.53212 0
M  V30 6178 H 583.739 3.40533 3.61041 0
M  V30 6179 H 578.995 4.80886 3.77569 0
M  V30 6180 H 583.169 5.79201 3.86652 0
M  V30 6181 H 580.796 6.49823 3.94505 0
M  V30 6182 N 582.371 -1.3172 0.865308 0
M  V30 6183 C 583.599 -2.01057 0.488251 0
M  V30 6184 C 584.014 -1.64979 -0.918 0
M  V30 6185 O 583.371 -0.876597 -1.60069 0
M  V30 6186 C 583.422 -3.55964 0.630224 0
M  V30 6187 O 583.143 -3.90749 1.98109 0
M  V30 6188 C 584.644 -4.42574 0.253567 0
M  V30 6189 H 581.864 -0.64332 0.190736 0
M  V30 6190 H 584.408 -1.68058 1.16519 0
M  V30 6191 H 582.563 -3.874 0.000895422 0
M  V30 6192 H 582.977 -4.85467 1.9855 0
M  V30 6193 H 584.451 -5.50521 0.403875 0
M  V30 6194 H 584.928 -4.31724 -0.806895 0
M  V30 6195 H 585.534 -4.16547 0.858404 0
M  V30 6196 N 583.85 -0.624285 -1.44708 0
M  V30 6197 C 584.76 0.0861083 -2.34442 0
M  V30 6198 C 585.776 0.84291 -1.5222 0
M  V30 6199 O 586.952 0.796723 -1.84971 0
M  V30 6200 C 584.017 1.05999 -3.30099 0
M  V30 6201 C 583.077 0.303316 -4.28227 0
M  V30 6202 C 582.311 1.23081 -5.19314 0
M  V30 6203 O 582.534 2.46929 -5.14181 0
M  V30 6204 O 581.468 0.71883 -5.97592 0
M  V30 6205 H 585.293 -0.651756 -2.96624 0
M  V30 6206 H 582.879 -0.384493 -1.44368 0
M  V30 6207 H 584.76 1.62046 -3.88997 0
M  V30 6208 H 583.436 1.77859 -2.70459 0
M  V30 6209 H 582.343 -0.300033 -3.72895 0
M  V30 6210 H 583.676 -0.375123 -4.90768 0
M  V30 6211 N 585.328 1.53329 -0.364422 0
M  V30 6212 C 586.261 2.22052 0.526145 0
M  V30 6213 C 587.239 1.21203 1.08391 0
M  V30 6214 O 588.423 1.50101 1.14026 0
M  V30 6215 C 585.55 2.91432 1.72583 0
M  V30 6216 C 584.596 4.06345 1.29562 0
M  V30 6217 S 585.429 5.34671 0.297885 0
M  V30 6218 C 586.585 6.07563 1.50392 0
M  V30 6219 H 586.818 2.97244 -0.0575055 0
M  V30 6220 H 584.351 1.53684 -0.148525 0
M  V30 6221 H 586.309 3.3202 2.41398 0
M  V30 6222 H 584.97 2.15966 2.28073 0
M  V30 6223 H 584.163 4.53901 2.19067 0
M  V30 6224 H 583.765 3.67642 0.686696 0
M  V30 6225 H 586.057 6.32224 2.43513 0
M  V30 6226 H 587 6.99973 1.06977 0
M  V30 6227 H 587.408 5.37994 1.70945 0
M  V30 6228 N 586.806 0.0935595 1.57322 0
M  V30 6229 C 588.054 -0.569383 1.93913 0
M  V30 6230 C 588.375 -1.68817 0.976009 0
M  V30 6231 O 587.645 -1.9588 0.0278099 0
M  V30 6232 H 586.225 -0.21332 0.715894 0
M  V30 6233 H 588.887 0.156531 1.9427 0
M  V30 6234 H 587.983 -0.980577 2.96296 0
M  V30 6235 N 588.284 -1.56567 -0.180126 0
M  V30 6236 C 589.7 -1.50488 -0.531559 0
M  V30 6237 C 589.9 -0.796267 -1.851 0
M  V30 6238 O 588.956 -0.352978 -2.50021 0
M  V30 6239 C 590.269 -2.95201 -0.572456 0
M  V30 6240 C 591.817 -3.05957 -0.660264 0
M  V30 6241 C 592.292 -4.5211 -0.732135 0
M  V30 6242 N 593.783 -4.56322 -0.795262 0
M  V30 6243 C 594.518 -5.66742 -0.871296 0
M  V30 6244 N 594.014 -6.86815 -0.908708 0
M  V30 6245 N 595.807 -5.54691 -0.909639 0
M  V30 6246 H 587.958 -2.01045 0.685165 0
M  V30 6247 H 590.221 -0.915536 0.245962 0
M  V30 6248 H 589.927 -3.50165 0.328208 0
M  V30 6249 H 589.801 -3.49369 -1.422 0
M  V30 6250 H 592.188 -2.51032 -1.55136 0
M  V30 6251 H 592.269 -2.54888 0.215783 0
M  V30 6252 H 591.913 -5.07664 0.154664 0
M  V30 6253 H 591.843 -5.00926 -1.6242 0
M  V30 6254 H 594.334 -3.69868 -0.77499 0
M  V30 6255 H 594.647 -7.66718 -0.967654 0
M  V30 6256 H 592.992 -6.89443 -0.877132 0
M  V30 6257 H 596.183 -4.59804 -0.877353 0
M  V30 6258 H 596.356 -6.40768 -0.965434 0
M  V30 6259 N 589.762 0.448376 -1.51087 0
M  V30 6260 C 590.694 1.56146 -1.67783 0
M  V30 6261 C 591.707 1.52913 -0.55871 0
M  V30 6262 O 592.896 1.57889 -0.83267 0
M  V30 6263 C 589.996 2.95057 -1.66716 0
M  V30 6264 C 589.169 3.22915 -2.95033 0
M  V30 6265 C 588.228 4.41495 -2.86302 0
M  V30 6266 O 587.254 4.40688 -3.60254 0
M  V30 6267 N 588.456 5.44443 -2.014 0
M  V30 6268 H 591.221 1.42232 -2.638 0
M  V30 6269 H 588.782 0.637153 -1.48835 0
M  V30 6270 H 590.774 3.72388 -1.58458 0
M  V30 6271 H 589.344 3.02624 -0.783403 0
M  V30 6272 H 588.564 2.33985 -3.17245 0
M  V30 6273 H 589.852 3.38349 -3.79996 0
M  V30 6274 H 589.25 5.4793 -1.40674 0
M  V30 6275 H 587.807 6.2067 -1.99029 0
M  V30 6276 N 591.24 1.41047 0.703093 0
M  V30 6277 C 592.651 1.35657 1.28274 0
M  V30 6278 C 593.002 0.0360309 1.96167 0
M  V30 6279 O 592.127 -0.865833 1.98324 0
M  V30 6280 C 592.722 2.45707 2.33267 0
M  V30 6281 C 591.281 2.43738 2.86825 0
M  V30 6282 C 590.428 2.25941 1.60767 0
M  V30 6283 H 593.379 1.50672 0.49836 0
M  V30 6284 H 593.4 2.14333 3.14391 0
M  V30 6285 H 592.912 3.41805 1.83824 0
M  V30 6286 H 591.013 1.51375 3.40465 0
M  V30 6287 H 591.126 3.39779 3.37768 0
M  V30 6288 H 589.49 1.73681 1.86298 0
M  V30 6289 H 590.273 3.24054 1.1333 0
M  V30 6290 N 592.718 -0.936591 1.26751 0
M  V30 6291 C 593.964 -1.68625 1.13741 0
M  V30 6292 C 594.319 -1.898 -0.315221 0
M  V30 6293 O 593.612 -1.47088 -1.22783 0
M  V30 6294 C 593.806 -3.06099 1.84494 0
M  V30 6295 C 593.635 -2.98338 3.36488 0
M  V30 6296 C 592.405 -3.01104 4.05789 0
M  V30 6297 C 594.603 -2.78128 4.32608 0
M  V30 6298 N 592.585 -2.8369 5.4442 0
M  V30 6299 C 593.956 -2.69329 5.58446 0
M  V30 6300 C 596.011 -2.62946 4.22804 0
M  V30 6301 C 594.714 -2.46899 6.75598 0
M  V30 6302 C 596.74 -2.41892 5.39669 0
M  V30 6303 C 596.102 -2.33829 6.64457 0
M  V30 6304 H 592.201 -0.624227 0.471025 0
M  V30 6305 H 594.785 -1.10798 1.601 0
M  V30 6306 H 592.956 -3.62057 1.40604 0
M  V30 6307 H 594.688 -3.69951 1.64067 0
M  V30 6308 H 591.443 -3.10992 3.57185 0
M  V30 6309 H 591.867 -2.78138 6.17226 0
M  V30 6310 H 596.509 -2.67944 3.27056 0
M  V30 6311 H 594.227 -2.40642 7.71438 0
M  V30 6312 H 597.813 -2.31043 5.33957 0
M  V30 6313 H 596.693 -2.17754 7.53361 0
M  V30 6314 N 594.196 -1.08629 -1.14182 0
M  V30 6315 C 595.442 -0.818556 -1.85546 0
M  V30 6316 C 595.775 0.654076 -1.82854 0
M  V30 6317 O 595.05 1.48099 -1.26083 0
M  V30 6318 C 595.333 -1.34397 -3.3408 0
M  V30 6319 C 595.186 -2.8821 -3.45333 0
M  V30 6320 C 596.505 -0.971069 -4.29253 0
M  V30 6321 H 593.624 -0.298821 -0.673702 0
M  V30 6322 H 596.266 -1.34629 -1.34071 0
M  V30 6323 H 594.416 -0.895064 -3.78049 0
M  V30 6324 H 596.088 -3.41488 -3.10134 0
M  V30 6325 H 594.331 -3.25756 -2.86471 0
M  V30 6326 H 595.002 -3.20047 -4.49749 0
M  V30 6327 H 597.478 -1.35809 -3.93313 0
M  V30 6328 H 596.354 -1.36586 -5.31635 0
M  V30 6329 H 596.615 0.121659 -4.41933 0
M  V30 6330 N 595.674 1.31259 -0.872281 0
M  V30 6331 C 596.92 1.96913 -0.485083 0
M  V30 6332 C 597.253 1.68774 0.960667 0
M  V30 6333 O 596.528 0.985495 1.67685 0
M  V30 6334 C 596.811 3.52299 -0.745502 0
M  V30 6335 C 596.664 3.90002 -2.24095 0
M  V30 6336 C 597.983 4.39582 -0.213516 0
M  V30 6337 H 595.102 0.715252 -0.177716 0
M  V30 6338 H 597.744 1.55347 -1.09395 0
M  V30 6339 H 595.894 3.87835 -0.227276 0
M  V30 6340 H 597.566 3.64555 -2.82661 0
M  V30 6341 H 595.809 3.38526 -2.71261 0
M  V30 6342 H 596.48 4.98352 -2.37381 0
M  V30 6343 H 598.956 4.10882 -0.656902 0
M  V30 6344 H 597.832 5.47251 -0.42516 0
M  V30 6345 H 598.093 4.33158 0.884666 0
M  V30 6346 N 597.152 0.631951 1.44375 0
M  V30 6347 C 598.398 0.13697 2.02337 0
M  V30 6348 C 598.731 -1.23826 1.49602 0
M  V30 6349 O 598.006 -1.8221 0.680415 0
M  V30 6350 C 598.289 0.124536 3.59885 0
M  V30 6351 C 598.142 1.53217 4.229 0
M  V30 6352 C 599.461 -0.550481 4.36644 0
M  V30 6353 H 596.58 0.051247 0.735216 0
M  V30 6354 H 599.222 0.808581 1.71936 0
M  V30 6355 H 597.372 -0.44737 3.85916 0
M  V30 6356 H 599.044 2.15303 4.07973 0
M  V30 6357 H 597.287 2.0858 3.80364 0
M  V30 6358 H 597.958 1.4755 5.31914 0
M  V30 6359 H 600.434 -0.0641154 4.16051 0
M  V30 6360 H 599.31 -0.528371 5.46351 0
M  V30 6361 H 599.571 -1.62097 4.11311 0
M  V30 6362 N 598.631 -1.53133 0.372548 0
M  V30 6363 C 600.042 -1.86404 -0.105155 0
M  V30 6364 C 600.393 -1.29289 -1.47576 0
M  V30 6365 O 599.518 -0.617646 -2.07398 0
M  V30 6366 C 600.113 -3.38223 -0.197588 0
M  V30 6367 C 598.672 -3.71266 -0.619556 0
M  V30 6368 C 597.819 -2.76353 0.228919 0
M  V30 6369 H 600.77 -1.47282 0.591077 0
M  V30 6370 H 600.791 -3.66577 -1.01987 0
M  V30 6371 H 600.303 -3.79763 0.800099 0
M  V30 6372 H 598.404 -3.35287 -1.62522 0
M  V30 6373 H 598.517 -4.77515 -0.389332 0
M  V30 6374 H 596.881 -2.52888 -0.303271 0
M  V30 6375 H 597.664 -3.20728 1.22428 0
M  V30 6376 N 600.109 -0.101901 -1.5727 0
M  V30 6377 C 601.057 0.872034 -2.15635 0
M  V30 6378 C 602.051 1.28742 -1.10099 0
M  V30 6379 O 603.257 1.26116 -1.28432 0
M  V30 6380 H 599.632 0.299269 -0.689886 0
M  V30 6381 H 601.603 0.355137 -2.96279 0
M  V30 6382 C 600.352 2.11886 -2.7568 0
M  V30 6383 H 599.675 1.80813 -3.56576 0
M  V30 6384 H 601.115 2.78077 -3.20077 0
M  V30 6385 C 599.574 2.89739 -1.7191 0
M  V30 6386 O 600.104 3.84522 -1.16213 0
M  V30 6387 N 598.31 2.53407 -1.42245 0
M  V30 6388 H 597.857 1.76398 -1.87727 0
M  V30 6389 H 597.815 3.05795 -0.730529 0
M  V30 6390 N 601.587 1.56661 0.17182 0
M  V30 6391 C 602.998 1.71652 0.734329 0
M  V30 6392 C 603.349 0.712335 1.82812 0
M  V30 6393 O 602.474 -0.126401 2.16031 0
M  V30 6394 C 603.069 3.11226 1.3388 0
M  V30 6395 C 601.628 3.27904 1.84813 0
M  V30 6396 C 600.775 2.67603 0.726917 0
M  V30 6397 H 603.726 1.5861 -0.0535665 0
M  V30 6398 H 603.747 3.09849 2.20849 0
M  V30 6399 H 603.259 3.8429 0.54249 0
M  V30 6400 H 601.36 2.59796 2.6709 0
M  V30 6401 H 601.473 4.35637 1.99392 0
M  V30 6402 H 599.837 2.274 1.14723 0
M  V30 6403 H 600.62 3.43252 -0.0575334 0
M  V30 6404 N 603.065 -0.440357 1.51323 0
M  V30 6405 C 604.293 -1.21255 1.67645 0
M  V30 6406 C 604.708 -1.85088 0.37252 0
M  V30 6407 O 604.065 -1.70582 -0.648683 0
M  V30 6408 C 604.116 -2.29881 2.78993 0
M  V30 6409 O 603.837 -1.68659 4.04334 0
M  V30 6410 C 605.338 -3.20214 3.06558 0
M  V30 6411 H 602.558 -0.36558 0.562666 0
M  V30 6412 H 605.102 -0.52214 1.97722 0
M  V30 6413 H 603.257 -2.94643 2.51524 0
M  V30 6414 H 603.671 -2.40426 4.6615 0
M  V30 6415 H 605.145 -3.92575 3.88058 0
M  V30 6416 H 605.622 -3.80794 2.18844 0
M  V30 6417 H 606.228 -2.61156 3.35675 0
M  V30 6418 N 604.543 -1.41418 -0.695603 0
M  V30 6419 C 605.791 -1.40496 -1.45277 0
M  V30 6420 C 606.112 -0.0149538 -1.94994 0
M  V30 6421 O 605.382 0.9432 -1.71699 0
M  V30 6422 H 603.962 -0.517147 -0.539044 0
M  V30 6423 H 606.624 -1.76656 -0.823321 0
M  V30 6424 H 605.72 -2.09214 -2.31595 0
M  V30 6425 N 606.021 0.929856 -1.27246 0
M  V30 6426 C 607.298 1.65544 -1.04186 0
M  V30 6427 C 607.678 2.06796 0.424097 0
M  V30 6428 O 607.026 1.80053 1.40688 0
M  V30 6429 C 607.236 2.85912 -2.00138 0
M  V30 6430 C 608.584 3.57305 -2.29387 0
M  V30 6431 O 609.608 2.96036 -1.98094 0
M  V30 6432 O 608.467 4.67688 -2.82719 0
M  V30 6433 H 605.561 0.725473 -0.397011 0
M  V30 6434 H 608.107 0.980583 -1.38501 0
M  V30 6435 H 606.879 2.52403 -2.99013 0
M  V30 6436 H 606.502 3.61118 -1.66371 0
M  V30 6437 N 607.499 1.09233 1.13605 0
M  V30 6438 C 608.431 0.687794 2.18637 0
M  V30 6439 C 609.444 -0.26936 1.60556 0
M  V30 6440 O 610.633 -0.0557162 1.78413 0
M  V30 6441 C 607.733 -0.00751901 3.38899 0
M  V30 6442 C 606.906 0.97067 4.26494 0
M  V30 6443 C 605.965 0.309129 5.25291 0
M  V30 6444 O 604.991 0.956149 5.61112 0
M  V30 6445 N 606.193 -0.937555 5.72879 0
M  V30 6446 H 608.958 1.59141 2.53957 0
M  V30 6447 H 606.519 0.979515 1.28907 0
M  V30 6448 H 608.511 -0.461238 4.02063 0
M  V30 6449 H 607.081 -0.813353 3.01833 0
M  V30 6450 H 606.301 1.603 3.60135 0
M  V30 6451 H 607.589 1.63323 4.81875 0
M  V30 6452 H 606.987 -1.48281 5.4592 0
M  V30 6453 H 605.544 -1.33463 6.3799 0
M  V30 6454 N 608.977 -1.30795 0.87923 0
M  V30 6455 C 609.907 -2.30742 0.357796 0
M  V30 6456 C 610.888 -1.60747 -0.556283 0
M  V30 6457 O 612.073 -1.88393 -0.47135 0
M  V30 6458 C 609.203 -3.44583 -0.433555 0
M  V30 6459 C 608.157 -4.26235 0.388251 0
M  V30 6460 C 607.483 -5.32073 -0.529352 0
M  V30 6461 C 608.783 -4.96303 1.62729 0
M  V30 6462 H 610.477 -2.74605 1.19299 0
M  V30 6463 H 608.023 -1.32017 0.575104 0
M  V30 6464 H 609.976 -4.13563 -0.808934 0
M  V30 6465 H 608.7 -2.99511 -1.30234 0
M  V30 6466 H 607.359 -3.58936 0.745695 0
M  V30 6467 H 607.007 -4.83249 -1.39569 0
M  V30 6468 H 606.707 -5.87598 0.0166741 0
M  V30 6469 H 608.231 -6.0391 -0.901373 0
M  V30 6470 H 609.645 -5.5783 1.32283 0
M  V30 6471 H 608.042 -5.61666 2.11309 0
M  V30 6472 H 609.112 -4.22758 2.37494 0
M  V30 6473 N 610.455 -0.639598 -1.44038 0
M  V30 6474 C 611.701 -0.147698 -2.02261 0
M  V30 6475 C 612.034 1.23031 -1.50256 0
M  V30 6476 O 611.309 1.81847 -0.690068 0
M  V30 6477 C 611.592 -0.14362 -3.59813 0
M  V30 6478 C 611.445 -1.55458 -4.22082 0
M  V30 6479 C 612.764 0.527317 -4.36929 0
M  V30 6480 H 609.883 -0.0551453 -0.734934 0
M  V30 6481 H 612.525 -0.817688 -1.71505 0
M  V30 6482 H 610.675 0.426898 -3.86147 0
M  V30 6483 H 612.347 -2.17464 -4.06826 0
M  V30 6484 H 610.59 -2.10594 -3.79253 0
M  V30 6485 H 611.261 -1.50369 -5.31124 0
M  V30 6486 H 613.737 0.0420504 -4.16079 0
M  V30 6487 H 612.613 0.499389 -5.46624 0
M  V30 6488 H 612.874 1.59914 -4.12165 0
M  V30 6489 N 611.933 1.52934 -0.380664 0
M  V30 6490 C 613.349 1.59571 -0.0302429 0
M  V30 6491 C 613.549 1.39509 1.45394 0
M  V30 6492 O 612.605 1.20777 2.21741 0
M  V30 6493 C 613.918 2.96519 -0.499691 0
M  V30 6494 C 615.466 3.09672 -0.455204 0
M  V30 6495 C 615.941 4.49056 -0.900703 0
M  V30 6496 N 617.432 4.55215 -0.856367 0
M  V30 6497 C 618.167 5.61282 -1.17259 0
M  V30 6498 N 617.663 6.75035 -1.55885 0
M  V30 6499 N 619.456 5.51343 -1.0944 0
M  V30 6500 H 611.607 1.64224 -1.347 0
M  V30 6501 H 613.87 0.771033 -0.551554 0
M  V30 6502 H 613.576 3.16388 -1.53595 0
M  V30 6503 H 613.45 3.77052 0.105789 0
M  V30 6504 H 615.837 2.89504 0.571949 0
M  V30 6505 H 615.918 2.31113 -1.09638 0
M  V30 6506 H 615.562 4.69964 -1.92604 0
M  V30 6507 H 615.492 5.26068 -0.236629 0
M  V30 6508 H 617.983 3.73546 -0.572013 0
M  V30 6509 H 618.296 7.51926 -1.784 0
M  V30 6510 H 616.641 6.76388 -1.59764 0
M  V30 6511 H 619.832 4.61356 -0.791713 0
M  V30 6512 H 620.005 6.33905 -1.34417 0
M  V30 6513 N 613.412 0.11024 1.57214 0
M  V30 6514 C 614.342 -0.840002 2.17867 0
M  V30 6515 C 615.323 -1.28352 1.11624 0
M  V30 6516 O 616.508 -1.3477 1.39824 0
M  V30 6517 C 613.638 -2.09349 2.77111 0
M  V30 6518 C 612.592 -1.78807 3.8886 0
M  V30 6519 C 611.918 -3.11112 4.34872 0
M  V30 6520 C 613.218 -1.0632 5.11364 0
M  V30 6521 H 614.912 -0.334608 2.97524 0
M  V30 6522 H 612.458 -0.159502 1.43114 0
M  V30 6523 H 614.411 -2.76275 3.18198 0
M  V30 6524 H 613.135 -2.62198 1.9473 0
M  V30 6525 H 611.794 -1.14273 3.48335 0
M  V30 6526 H 611.442 -3.61877 3.49362 0
M  V30 6527 H 611.142 -2.91453 5.10224 0
M  V30 6528 H 612.666 -3.79171 4.78604 0
M  V30 6529 H 614.08 -1.63383 5.49526 0
M  V30 6530 H 612.477 -0.967876 5.92243 0
M  V30 6531 H 613.547 -0.0484569 4.84876 0
M  V30 6532 N 614.89 -1.56749 -0.16351 0
M  V30 6533 C 616.118 -1.86577 -0.894233 0
M  V30 6534 C 616.533 -0.696543 -1.75481 0
M  V30 6535 O 615.89 0.334161 -1.79415 0
M  V30 6536 C 615.941 -3.15508 -1.76456 0
M  V30 6537 O 615.662 -4.27926 -0.938685 0
M  V30 6538 C 617.163 -3.58737 -2.60428 0
M  V30 6539 H 614.383 -0.618829 -0.259405 0
M  V30 6540 H 616.927 -2.03863 -0.161259 0
M  V30 6541 H 615.082 -3.00025 -2.45079 0
M  V30 6542 H 615.496 -5.01546 -1.53465 0
M  V30 6543 H 616.97 -4.51832 -3.17099 0
M  V30 6544 H 617.447 -2.83229 -3.35675 0
M  V30 6545 H 618.053 -3.76858 -1.97125 0
M  V30 6546 N 616.368 0.432326 -1.51554 0
M  V30 6547 C 617.614 1.18309 -1.64714 0
M  V30 6548 C 617.947 1.90745 -0.364696 0
M  V30 6549 O 617.222 1.8381 0.635936 0
M  V30 6550 C 617.505 2.1961 -2.85383 0
M  V30 6551 C 617.358 1.51223 -4.23617 0
M  V30 6552 C 618.677 3.20538 -3.01569 0
M  V30 6553 H 615.796 0.428751 -0.599451 0
M  V30 6554 H 618.438 0.471689 -1.84052 0
M  V30 6555 H 616.588 2.8028 -2.69027 0
M  V30 6556 H 618.26 0.938516 -4.51652 0
M  V30 6557 H 616.503 0.814501 -4.26085 0
M  V30 6558 H 617.174 2.25024 -5.04052 0
M  V30 6559 H 619.65 2.69926 -3.16669 0
M  V30 6560 H 618.526 3.88706 -3.87555 0
M  V30 6561 H 618.787 3.86933 -2.13859 0
M  V30 6562 N 617.846 1.41785 0.688094 0
M  V30 6563 C 618.793 1.44221 1.80191 0
M  V30 6564 C 619.763 0.295688 1.63447 0
M  V30 6565 O 620.948 0.49783 1.84191 0
M  V30 6566 C 618.088 1.33743 3.1813 0
M  V30 6567 C 617.201 2.58325 3.46254 0
M  V30 6568 C 616.336 2.40086 4.73848 0
M  V30 6569 C 615.375 3.60107 4.94964 0
M  V30 6570 N 614.512 3.40892 6.13789 0
M  V30 6571 H 619.352 2.39411 1.77444 0
M  V30 6572 H 616.889 1.18876 0.866423 0
M  V30 6573 H 618.847 1.25669 3.97823 0
M  V30 6574 H 617.477 0.42157 3.20035 0
M  V30 6575 H 616.529 2.7682 2.60912 0
M  V30 6576 H 617.841 3.4758 3.57756 0
M  V30 6577 H 616.995 2.29522 5.61609 0
M  V30 6578 H 615.734 1.483 4.64606 0
M  V30 6579 H 614.739 3.71118 4.05649 0
M  V30 6580 H 615.964 4.52857 5.06061 0
M  V30 6581 H 613.91 2.51812 6.05745 0
M  V30 6582 H 613.827 4.23727 6.26092 0
M  V30 6583 H 615.095 3.34114 7.04264 0
M  V30 6584 N 619.324 -0.923095 1.27737 0
M  V30 6585 C 620.287 -2.00587 1.10894 0
M  V30 6586 C 621.287 -1.60718 0.0514927 0
M  V30 6587 O 622.477 -1.71658 0.296481 0
M  V30 6588 C 619.609 -3.33829 0.690717 0
M  V30 6589 H 620.802 -2.16959 2.07048 0
M  V30 6590 H 618.355 -1.10451 1.1059 0
M  V30 6591 H 619.09 -3.23157 -0.272 0
M  V30 6592 H 618.875 -3.64125 1.45448 0
M  V30 6593 H 620.365 -4.13336 0.595252 0
M  V30 6594 N 620.802 -1.09834 -1.13024 0
M  V30 6595 C 622.05 -0.835297 -1.8403 0
M  V30 6596 C 622.371 0.640944 -1.84165 0
M  V30 6597 O 621.641 1.46517 -1.30037 0
M  V30 6598 H 620.221 -0.306018 -0.681441 0
M  V30 6599 H 622.883 -1.38734 -1.36891 0
M  V30 6600 H 621.979 -1.19258 -2.88416 0
M  V30 6601 N 622.28 1.30327 -0.886154 0
M  V30 6602 C 623.526 1.96388 -0.505941 0
M  V30 6603 C 623.859 1.69784 0.942712 0
M  V30 6604 O 623.134 1.00322 1.6663 0
M  V30 6605 C 623.417 3.51488 -0.782826 0
M  V30 6606 C 623.27 3.87603 -2.28219 0
M  V30 6607 C 624.589 4.39331 -0.260128 0
M  V30 6608 H 621.708 0.713327 -0.185292 0
M  V30 6609 H 624.35 1.54178 -1.11036 0
M  V30 6610 H 622.5 3.87572 -0.268399 0
M  V30 6611 H 624.172 3.61537 -2.86512 0
M  V30 6612 H 622.415 3.3563 -2.74837 0
M  V30 6613 H 623.086 4.95806 -2.42653 0
M  V30 6614 H 625.562 4.10162 -0.700444 0
M  V30 6615 H 624.438 5.46769 -0.483179 0
M  V30 6616 H 624.699 4.34072 0.838674 0
M  V30 6617 N 623.758 0.647228 1.43697 0
M  V30 6618 C 624.983 0.164083 2.0675 0
M  V30 6619 C 625.408 -1.15892 1.48158 0
M  V30 6620 O 624.766 -1.71459 0.589194 0
M  V30 6621 C 624.814 0.0800368 3.60511 0
M  V30 6622 O 623.918 -0.959453 4.01084 0
M  V30 6623 H 623.259 0.0921288 0.657578 0
M  V30 6624 H 625.789 0.88846 1.84303 0
M  V30 6625 H 625.799 -0.105263 4.07864 0
M  V30 6626 H 624.474 1.04586 4.02535 0
M  V30 6627 H 623.051 -0.747425 3.65333 0
M  V30 6628 N 625.236 -1.5273 0.388769 0
M  V30 6629 C 626.513 -1.93981 -0.251133 0
M  V30 6630 C 626.893 -1.32418 -1.64404 0
M  V30 6631 O 626.241 -0.492074 -2.23139 0
M  V30 6632 C 626.451 -3.47891 -0.27802 0
M  V30 6633 C 627.799 -4.21559 -0.507229 0
M  V30 6634 O 628.823 -3.54394 -0.358252 0
M  V30 6635 O 627.682 -5.40626 -0.799094 0
M  V30 6636 H 624.776 -0.812157 -0.15598 0
M  V30 6637 H 627.322 -1.63809 0.443237 0
M  V30 6638 H 626.094 -3.8503 0.697669 0
M  V30 6639 H 625.717 -3.84364 -1.01733 0
M  V30 6640 N 626.714 -0.118576 -1.57153 0
M  V30 6641 C 627.664 0.842924 -2.11846 0
M  V30 6642 C 628.648 1.22845 -1.03914 0
M  V30 6643 O 629.84 1.19961 -1.30148 0
M  V30 6644 C 626.969 2.09312 -2.72109 0
M  V30 6645 C 626.055 1.73198 -3.87122 0
M  V30 6646 N 626.446 1.07758 -4.94188 0
M  V30 6647 C 624.744 2.02659 -3.97298 0
M  V30 6648 C 625.445 0.907741 -5.74574 0
M  V30 6649 N 624.421 1.4326 -5.24383 0
M  V30 6650 H 628.223 0.333416 -2.92003 0
M  V30 6651 H 625.737 0.0839073 -1.62183 0
M  V30 6652 H 627.734 2.79162 -3.09635 0
M  V30 6653 H 626.394 2.60807 -1.93416 0
M  V30 6654 H 627.405 0.741613 -5.12563 0
M  V30 6655 H 624.082 2.56204 -3.29645 0
M  V30 6656 H 625.472 0.394112 -6.70743 0
M  V30 6657 N 628.193 1.56834 0.155195 0
M  V30 6658 C 629.418 1.87412 0.888337 0
M  V30 6659 C 629.843 0.70671 1.74319 0
M  V30 6660 O 629.201 -0.343892 1.78009 0
M  V30 6661 C 629.249 3.1652 1.72765 0
M  V30 6662 O 628.353 2.99877 2.83103 0
M  V30 6663 H 627.694 0.615983 0.247914 0
M  V30 6664 H 630.224 2.04061 0.148478 0
M  V30 6665 H 630.234 3.48334 2.12433 0
M  V30 6666 H 628.909 4.01094 1.09985 0
M  V30 6667 H 627.486 2.79453 2.46902 0
M  V30 6668 N 629.671 -0.424282 1.51781 0
M  V30 6669 C 630.634 -1.49848 1.73431 0
M  V30 6670 C 631.634 -1.49016 0.604225 0
M  V30 6671 O 632.824 -1.50808 0.871935 0
M  V30 6672 C 629.956 -2.89332 1.80277 0
M  V30 6673 H 631.149 -1.3195 2.69312 0
M  V30 6674 H 628.702 -0.653809 1.41968 0
M  V30 6675 H 629.437 -3.12618 0.862568 0
M  V30 6676 H 629.222 -2.9134 2.62419 0
M  V30 6677 H 630.712 -3.67233 1.98821 0
M  V30 6678 N 631.149 -1.42148 -0.680565 0
M  V30 6679 C 632.377 -1.45696 -1.46902 0
M  V30 6680 C 632.792 -0.0665858 -1.88683 0
M  V30 6681 O 632.149 0.917436 -1.57764 0
M  V30 6682 C 632.2 -2.37898 -2.72188 0
M  V30 6683 O 631.921 -3.71526 -2.32163 0
M  V30 6684 C 633.422 -2.50407 -3.65802 0
M  V30 6685 H 630.642 -0.495729 -0.45221 0
M  V30 6686 H 633.186 -1.866 -0.836709 0
M  V30 6687 H 631.341 -2.00263 -3.31622 0
M  V30 6688 H 631.755 -4.20849 -3.13027 0
M  V30 6689 H 633.229 -3.19056 -4.50452 0
M  V30 6690 H 633.706 -1.5401 -4.11312 0
M  V30 6691 H 634.312 -2.8874 -3.12265 0
M  V30 6692 N 632.627 0.916307 -1.28225 0
M  V30 6693 C 633.873 1.66765 -1.154 0
M  V30 6694 C 634.206 1.91912 0.297251 0
M  V30 6695 O 633.481 1.51766 1.21644 0
M  V30 6696 C 633.764 3.02715 -1.95028 0
M  V30 6697 C 633.617 2.84738 -3.48201 0
M  V30 6698 C 634.936 4.03215 -1.76369 0
M  V30 6699 H 632.055 0.605205 -0.42059 0
M  V30 6700 H 634.697 1.06255 -1.57512 0
M  V30 6701 H 632.847 3.54365 -1.59242 0
M  V30 6702 H 634.519 2.40118 -3.9388 0
M  V30 6703 H 632.762 2.19848 -3.73964 0
M  V30 6704 H 633.433 3.8127 -3.99171 0
M  V30 6705 H 635.909 3.60617 -2.07593 0
M  V30 6706 H 634.785 4.96306 -2.34459 0
M  V30 6707 H 635.046 4.36288 -0.71452 0
M  V30 6708 N 634.105 1.10431 1.1244 0
M  V30 6709 C 635.351 0.847972 1.84221 0
M  V30 6710 C 635.684 -0.624903 1.83871 0
M  V30 6711 O 634.959 -1.46074 1.28423 0
M  V30 6712 C 635.242 1.39695 3.319 0
M  V30 6713 C 635.095 2.93668 3.40704 0
M  V30 6714 C 636.414 1.03924 4.27654 0
M  V30 6715 H 633.533 0.309502 0.668863 0
M  V30 6716 H 636.175 1.36745 1.31912 0
M  V30 6717 H 634.325 0.955095 3.76577 0
M  V30 6718 H 635.997 3.46379 3.04662 0
M  V30 6719 H 634.24 3.30272 2.81252 0
M  V30 6720 H 634.911 3.27162 4.446 0
M  V30 6721 H 637.387 1.42049 3.91102 0
M  V30 6722 H 636.263 1.45027 5.29394 0
M  V30 6723 H 636.524 -0.051336 4.4207 0
M  V30 6724 N 635.583 -1.29855 0.893053 0
M  V30 6725 C 636.546 -2.26183 0.370687 0
M  V30 6726 C 637.546 -1.53108 -0.491385 0
M  V30 6727 O 638.736 -1.71643 -0.297386 0
M  V30 6728 C 635.868 -3.37633 -0.470827 0
M  V30 6729 H 637.061 -2.73903 1.22135 0
M  V30 6730 H 634.614 -1.41183 0.67061 0
M  V30 6731 H 635.349 -2.95241 -1.34175 0
M  V30 6732 H 635.134 -3.91825 0.146784 0
M  V30 6733 H 636.624 -4.09313 -0.827825 0
M  V30 6734 N 637.061 -0.65484 -1.43351 0
M  V30 6735 C 638.289 -0.176685 -2.06144 0
M  V30 6736 C 638.704 1.15831 -1.49093 0
M  V30 6737 O 638.061 1.71542 -0.622868 0
M  V30 6738 C 638.112 -0.0813326 -3.61408 0
M  V30 6739 O 637.833 -1.36355 -4.1634 0
M  V30 6740 C 639.334 0.422706 -4.4128 0
M  V30 6741 H 636.554 -0.0906429 -0.66485 0
M  V30 6742 H 639.098 -0.895945 -1.83829 0
M  V30 6743 H 637.253 0.588496 -3.82904 0
M  V30 6744 H 637.667 -1.22381 -5.10023 0
M  V30 6745 H 639.141 0.438375 -5.50257 0
M  V30 6746 H 639.618 1.45432 -4.14423 0
M  V30 6747 H 640.224 -0.214687 -4.24758 0
M  V30 6748 N 638.539 1.52521 -0.396863 0
M  V30 6749 C 639.764 2.06571 0.185258 0
M  V30 6750 C 640.189 1.26605 1.39115 0
M  V30 6751 O 639.547 0.293055 1.78916 0
M  V30 6752 C 639.595 3.5674 0.526189 0
M  V30 6753 O 638.699 3.7929 1.61903 0
M  V30 6754 H 638.04 0.663712 0.0195474 0
M  V30 6755 H 640.57 1.966 -0.566519 0
M  V30 6756 H 640.58 4.00311 0.788338 0
M  V30 6757 H 639.255 4.14379 -0.355397 0
M  V30 6758 H 637.832 3.47605 1.35 0
M  V30 6759 N 640.017 0.126909 1.57088 0
M  V30 6760 C 640.947 -0.816847 2.18746 0
M  V30 6761 C 641.928 -1.27161 1.12979 0
M  V30 6762 O 643.113 -1.33279 1.41246 0
M  V30 6763 C 640.243 -2.06398 2.79315 0
M  V30 6764 C 639.197 -1.74673 3.90735 0
M  V30 6765 C 638.523 -3.06482 4.38147 0
M  V30 6766 C 639.823 -1.0089 5.12463 0
M  V30 6767 H 641.517 -0.303032 2.97863 0
M  V30 6768 H 639.063 -0.144314 1.43275 0
M  V30 6769 H 641.016 -2.72885 3.2111 0
M  V30 6770 H 639.74 -2.60118 1.975 0
M  V30 6771 H 638.399 -1.10572 3.49527 0
M  V30 6772 H 638.047 -3.58152 3.5318 0
M  V30 6773 H 637.747 -2.86025 5.13287 0
M  V30 6774 H 639.271 -3.74073 4.82599 0
M  V30 6775 H 640.685 -1.57546 5.51228 0
M  V30 6776 H 639.082 -0.905006 5.93237 0
M  V30 6777 H 640.152 0.00297335 4.849 0
M  V30 6778 N 641.495 -1.56914 -0.146875 0
M  V30 6779 C 642.425 -2.01308 -1.1831 0
M  V30 6780 C 643.406 -0.892664 -1.44795 0
M  V30 6781 O 644.591 -1.16048 -1.55713 0
M  V30 6782 C 641.721 -2.3938 -2.51624 0
M  V30 6783 C 640.675 -3.54608 -2.3966 0
M  V30 6784 C 640.001 -3.78493 -3.77686 0
M  V30 6785 C 641.301 -4.87269 -1.88058 0
M  V30 6786 H 642.995 -2.88123 -0.813964 0
M  V30 6787 H 640.541 -1.38615 -0.3901 0
M  V30 6788 H 642.494 -2.69037 -3.24341 0
M  V30 6789 H 641.218 -1.49502 -2.90373 0
M  V30 6790 H 639.877 -3.25116 -1.69396 0
M  V30 6791 H 639.525 -2.85866 -4.13871 0
M  V30 6792 H 639.225 -4.56039 -3.70543 0
M  V30 6793 H 640.749 -4.10576 -4.51951 0
M  V30 6794 H 642.163 -5.15644 -2.50568 0
M  V30 6795 H 640.56 -5.68622 -1.91805 0
M  V30 6796 H 641.63 -4.77634 -0.836277 0
M  V30 6797 N 642.974 0.416227 -1.52004 0
M  V30 6798 C 643.907 1.52736 -1.6955 0
M  V30 6799 C 644.885 1.53264 -0.54305 0
M  V30 6800 O 646.069 1.72077 -0.769527 0
M  V30 6801 C 643.196 2.91283 -1.72835 0
M  V30 6802 C 642.242 3.08695 -2.94295 0
M  V30 6803 S 643.075 2.82758 -4.54762 0
M  V30 6804 C 644.231 4.23548 -4.60823 0
M  V30 6805 H 644.464 1.37623 -2.63528 0
M  V30 6806 H 641.997 0.607335 -1.41954 0
M  V30 6807 H 643.955 3.71134 -1.75413 0
M  V30 6808 H 642.616 3.03742 -0.799966 0
M  V30 6809 H 641.809 4.10042 -2.93056 0
M  V30 6810 H 641.411 2.36699 -2.89568 0
M  V30 6811 H 643.703 5.17078 -4.37763 0
M  V30 6812 H 644.646 4.29813 -5.62731 0
M  V30 6813 H 645.054 4.08188 -3.89927 0
M  V30 6814 N 644.452 1.42507 0.673017 0
M  V30 6815 C 645.699 1.43072 1.43306 0
M  V30 6816 C 646.027 0.0478004 1.94441 0
M  V30 6817 O 645.282 -0.944106 1.71421 0
M  V30 6818 C 645.581 2.40351 2.64511 0
M  V30 6819 C 645.247 3.8669 2.31908 0
M  V30 6820 C 643.909 4.26551 2.22728 0
M  V30 6821 C 646.261 4.78991 2.05467 0
M  V30 6822 C 643.589 5.56691 1.85234 0
M  V30 6823 C 645.941 6.09476 1.69477 0
M  V30 6824 C 644.605 6.48334 1.58808 0
M  V30 6825 H 643.875 0.523536 0.524395 0
M  V30 6826 H 646.522 1.75459 0.76723 0
M  V30 6827 H 644.827 2.01297 3.36135 0
M  V30 6828 H 646.524 2.38051 3.22696 0
M  V30 6829 H 643.114 3.55132 2.39956 0
M  V30 6830 H 647.298 4.48982 2.11492 0
M  V30 6831 H 642.554 5.85657 1.75545 0
M  V30 6832 H 646.728 6.80482 1.48043 0
M  V30 6833 H 644.355 7.49084 1.29525 0
M  V30 6834 N 645.93 -0.909495 1.28709 0
M  V30 6835 C 647.158 -1.69272 1.18973 0
M  V30 6836 C 647.573 -1.87123 -0.251048 0
M  V30 6837 O 646.93 -1.40127 -1.16922 0
M  V30 6838 C 646.981 -3.08257 1.88839 0
M  V30 6839 O 646.702 -2.91228 3.27289 0
M  V30 6840 C 648.203 -4.02642 1.85457 0
M  V30 6841 H 645.423 -0.528999 0.412797 0
M  V30 6842 H 647.967 -1.13803 1.69909 0
M  V30 6843 H 646.122 -3.6053 1.41762 0
M  V30 6844 H 646.536 -3.79223 3.6234 0
M  V30 6845 H 648.01 -4.97613 2.38925 0
M  V30 6846 H 648.487 -4.31327 0.827893 0
M  V30 6847 H 649.093 -3.56298 2.32233 0
M  V30 6848 N 647.408 -1.11026 -1.11852 0
M  V30 6849 C 648.338 -0.786812 -2.19844 0
M  V30 6850 C 649.319 0.242935 -1.68356 0
M  V30 6851 O 650.504 0.107355 -1.93903 0
M  V30 6852 C 647.634 -0.224516 -3.46574 0
M  V30 6853 C 646.588 -1.18564 -4.1125 0
M  V30 6854 C 645.914 -0.484261 -5.32503 0
M  V30 6855 C 647.214 -2.53465 -4.56676 0
M  V30 6856 H 648.908 -1.68978 -2.47158 0
M  V30 6857 H 646.454 -0.813906 -1.18792 0
M  V30 6858 H 648.407 0.0139435 -4.21398 0
M  V30 6859 H 647.131 0.713722 -3.18706 0
M  V30 6860 H 645.79 -1.40966 -3.38414 0
M  V30 6861 H 645.438 0.458646 -5.00905 0
M  V30 6862 H 645.138 -1.12526 -5.76725 0
M  V30 6863 H 646.662 -0.254492 -6.10069 0
M  V30 6864 H 648.076 -2.35177 -5.22843 0
M  V30 6865 H 646.473 -3.13507 -5.11697 0
M  V30 6866 H 647.543 -3.13008 -3.70343 0
M  V30 6867 N 648.886 1.2938 -0.899927 0
M  V30 6868 C 650.132 1.9584 -0.526742 0
M  V30 6869 C 650.465 1.70774 0.924651 0
M  V30 6870 O 649.74 1.02084 1.65557 0
M  V30 6871 C 650.023 3.50638 -0.820062 0
M  V30 6872 C 649.876 3.85161 -2.32317 0
M  V30 6873 C 651.195 4.3903 -0.30671 0
M  V30 6874 H 648.314 0.711322 -0.192848 0
M  V30 6875 H 650.956 1.52992 -1.12665 0
M  V30 6876 H 649.106 3.87265 -0.309491 0
M  V30 6877 H 650.778 3.58477 -2.9033 0
M  V30 6878 H 649.021 3.32696 -2.78381 0
M  V30 6879 H 649.692 4.93204 -2.47898 0
M  V30 6880 H 652.168 4.09396 -0.743908 0
M  V30 6881 H 651.044 5.46226 -0.541144 0
M  V30 6882 H 651.305 4.34937 0.792588 0
M  V30 6883 N 650.364 0.662433 1.43002 0
M  V30 6884 C 651.594 0.187343 2.05749 0
M  V30 6885 C 652.002 -1.15582 1.49791 0
M  V30 6886 O 651.345 -1.72651 0.627487 0
M  V30 6887 C 651.407 0.0316493 3.59486 0
M  V30 6888 C 651.071 1.30156 4.38073 0
M  V30 6889 C 652.068 2.23234 4.69535 0
M  V30 6890 C 649.753 1.54572 4.77926 0
M  V30 6891 C 651.747 3.39012 5.39768 0
M  V30 6892 C 649.434 2.70641 5.47902 0
M  V30 6893 C 650.432 3.62687 5.78746 0
M  V30 6894 O 650.12 4.76728 6.47291 0
M  V30 6895 H 649.852 0.0915214 0.669776 0
M  V30 6896 H 652.406 0.905982 1.8434 0
M  V30 6897 H 650.636 -0.742451 3.79506 0
M  V30 6898 H 652.325 -0.401977 4.03905 0
M  V30 6899 H 653.091 2.05616 4.39257 0
M  V30 6900 H 648.97 0.83804 4.53319 0
M  V30 6901 H 652.514 4.10877 5.63761 0
M  V30 6902 H 648.411 2.88189 5.77596 0
M  V30 6903 H 649.179 4.76113 6.65777 0
M  V30 6904 N 651.842 -1.52309 0.404946 0
M  V30 6905 C 652.805 -2.25491 -0.410651 0
M  V30 6906 C 653.805 -1.27704 -0.977154 0
M  V30 6907 O 654.995 -1.51679 -0.856691 0
M  V30 6908 C 652.127 -3.02197 -1.57765 0
M  V30 6909 H 653.32 -2.99015 0.230277 0
M  V30 6910 H 650.873 -1.55506 0.157377 0
M  V30 6911 H 651.608 -2.33013 -2.25556 0
M  V30 6912 H 651.393 -3.73987 -1.17797 0
M  V30 6913 H 652.883 -3.57719 -2.15469 0
M  V30 6914 N 653.32 -0.135238 -1.57019 0
M  V30 6915 C 654.566 0.519563 -1.96032 0
M  V30 6916 C 654.899 1.65284 -1.01955 0
M  V30 6917 O 654.174 1.94408 -0.059727 0
M  V30 6918 C 654.457 1.0369 -3.44848 0
M  V30 6919 C 654.31 -0.0940754 -4.49702 0
M  V30 6920 C 655.629 1.92254 -3.95887 0
M  V30 6921 H 652.748 0.18739 -0.712779 0
M  V30 6922 H 655.39 -0.214086 -1.8879 0
M  V30 6923 H 653.54 1.66209 -3.5115 0
M  V30 6924 H 655.212 -0.73 -4.55487 0
M  V30 6925 H 653.455 -0.754924 -4.27181 0
M  V30 6926 H 654.126 0.309419 -5.51132 0
M  V30 6927 H 656.602 1.39581 -3.9199 0
M  V30 6928 H 655.478 2.25364 -5.00502 0
M  V30 6929 H 655.739 2.85513 -3.37543 0
M  V30 6930 N 654.798 1.5699 0.138552 0
M  V30 6931 C 655.728 2.01933 1.17241 0
M  V30 6932 C 656.709 0.90033 1.44319 0
M  V30 6933 O 657.894 1.16872 1.55095 0
M  V30 6934 C 655.024 2.40711 2.50351 0
M  V30 6935 C 653.978 3.55874 2.37776 0
M  V30 6936 C 653.304 3.80491 3.75674 0
M  V30 6937 C 654.604 4.8826 1.85472 0
M  V30 6938 H 656.298 2.88551 0.798672 0
M  V30 6939 H 653.844 1.3882 0.382743 0
M  V30 6940 H 655.797 2.70754 3.22909 0
M  V30 6941 H 654.521 1.5104 2.89576 0
M  V30 6942 H 653.18 3.2601 1.67669 0
M  V30 6943 H 652.828 2.88057 4.12349 0
M  V30 6944 H 652.528 4.57998 3.68119 0
M  V30 6945 H 654.052 4.12967 4.49767 0
M  V30 6946 H 655.466 5.16965 2.4783 0
M  V30 6947 H 653.863 5.69631 1.88787 0
M  V30 6948 H 654.933 4.78071 0.810935 0
M  V30 6949 N 656.276 -0.40816 1.52223 0
M  V30 6950 C 657.239 -1.48 1.7501 0
M  V30 6951 C 658.239 -1.48367 0.619996 0
M  V30 6952 O 659.429 -1.49874 0.887881 0
M  V30 6953 C 656.561 -2.87403 1.83336 0
M  V30 6954 H 657.754 -1.29086 2.70697 0
M  V30 6955 H 655.307 -0.638715 1.42654 0
M  V30 6956 H 656.042 -3.11686 0.895677 0
M  V30 6957 H 655.827 -2.8854 2.65494 0
M  V30 6958 H 657.317 -3.65103 2.02705 0
M  V30 6959 N 657.755 -1.42862 -0.66545 0
M  V30 6960 C 659.001 -1.44043 -1.42757 0
M  V30 6961 C 659.334 -0.0599629 -1.94107 0
M  V30 6962 O 658.609 0.917286 -1.71511 0
M  V30 6963 C 658.892 -2.47266 -2.61786 0
M  V30 6964 C 658.745 -3.94539 -2.16007 0
M  V30 6965 C 660.064 -2.47365 -3.64003 0
M  V30 6966 H 657.183 -0.524506 -0.517748 0
M  V30 6967 H 659.825 -1.74335 -0.755466 0
M  V30 6968 H 657.975 -2.21565 -3.19126 0
M  V30 6969 H 659.647 -4.31254 -1.63762 0
M  V30 6970 H 657.89 -4.07957 -1.47491 0
M  V30 6971 H 658.561 -4.62357 -3.01546 0
M  V30 6972 H 661.037 -2.70243 -3.16399 0
M  V30 6973 H 659.913 -3.21552 -4.44854 0
M  V30 6974 H 660.174 -1.50299 -4.15767 0
M  V30 6975 N 659.233 0.902656 -1.29189 0
M  V30 6976 C 660.482 1.6475 -1.16362 0
M  V30 6977 C 660.795 1.93517 0.284682 0
M  V30 6978 O 662.001 2.66192 0.534229 0
M  V30 6979 C 660.457 2.96848 -2.03493 0
M  V30 6980 C 660.065 2.75687 -3.5313 0
M  V30 6981 C 661.809 3.74762 -1.99383 0
M  V30 6982 C 659.716 4.03492 -4.32375 0
M  V30 6983 H 658.646 0.618041 -0.431904 0
M  V30 6984 H 661.297 1.0008 -1.53806 0
M  V30 6985 H 659.679 3.62715 -1.58916 0
M  V30 6986 H 660.853 2.18431 -4.05739 0
M  V30 6987 H 659.168 2.11171 -3.58881 0
M  V30 6988 H 661.765 4.69515 -2.5585 0
M  V30 6989 H 662.108 4.04767 -0.973123 0
M  V30 6990 H 662.641 3.15732 -2.41988 0
M  V30 6991 H 659.38 3.78656 -5.3507 0
M  V30 6992 H 658.9 4.60318 -3.84535 0
M  V30 6993 H 660.579 4.71662 -4.42881 0
M  V30 6994 N 660.711 1.11618 1.11262 0
M  V30 6995 C 661.957 0.877377 1.83504 0
M  V30 6996 C 662.312 -0.590606 1.83111 0
M  V30 6997 O 661.605 -1.43057 1.27456 0
M  V30 6998 C 661.799 1.37529 3.2988 0
M  V30 6999 C 661.628 2.89014 3.4453 0
M  V30 7000 C 660.398 3.57157 3.57445 0
M  V30 7001 C 662.596 3.8706 3.38658 0
M  V30 7002 N 660.578 4.96842 3.60585 0
M  V30 7003 C 661.949 5.12825 3.4844 0
M  V30 7004 C 664.004 3.79593 3.22201 0
M  V30 7005 C 662.707 6.32002 3.43462 0
M  V30 7006 C 664.733 4.98282 3.18542 0
M  V30 7007 C 664.095 6.22901 3.28897 0
M  V30 7008 H 660.194 0.37422 0.686646 0
M  V30 7009 H 662.778 1.42087 1.33114 0
M  V30 7010 H 660.949 0.85895 3.78783 0
M  V30 7011 H 662.681 1.07944 3.90039 0
M  V30 7012 H 659.436 3.07628 3.60086 0
M  V30 7013 H 659.86 5.69674 3.65788 0
M  V30 7014 H 664.502 2.84149 3.1308 0
M  V30 7015 H 662.22 7.27721 3.51352 0
M  V30 7016 H 665.806 4.94226 3.06972 0
M  V30 7017 H 664.686 7.13202 3.26056 0
M  V30 7018 N 662.189 -1.289 0.906776 0
M  V30 7019 C 663.429 -1.97046 0.543329 0
M  V30 7020 C 663.793 -1.69862 -0.895034 0
M  V30 7021 O 664.994 -2.31521 -1.36571 0
M  V30 7022 C 663.265 -3.47489 0.835833 0
M  V30 7023 S 664.824 -4.3498 0.577756 0
M  V30 7024 H 661.642 -0.681908 0.201302 0
M  V30 7025 H 664.244 -1.5657 1.17073 0
M  V30 7026 H 662.948 -3.64768 1.88075 0
M  V30 7027 H 662.479 -3.92907 0.196817 0
M  V30 7028 H 664.494 -4.92868 -0.574052 0
M  V30 7029 N 663.667 -0.670007 -1.42649 0
M  V30 7030 C 664.913 -0.19923 -2.02422 0
M  V30 7031 C 665.268 1.17947 -1.52007 0
M  V30 7032 O 664.561 1.77939 -0.710512 0
M  V30 7033 C 664.755 -0.168298 -3.57004 0
M  V30 7034 C 664.584 -1.54246 -4.22419 0
M  V30 7035 C 663.354 -2.13904 -4.57792 0
M  V30 7036 C 665.552 -2.4842 -4.50324 0
M  V30 7037 N 663.534 -3.44151 -5.08364 0
M  V30 7038 C 664.905 -3.63317 -5.02395 0
M  V30 7039 C 666.96 -2.47011 -4.32308 0
M  V30 7040 C 665.663 -4.77051 -5.38345 0
M  V30 7041 C 667.689 -3.59838 -4.6933 0
M  V30 7042 C 667.051 -4.73462 -5.21549 0
M  V30 7043 H 663.15 -0.117717 -0.773089 0
M  V30 7044 H 665.734 -0.881955 -1.73579 0
M  V30 7045 H 663.905 0.483824 -3.85375 0
M  V30 7046 H 665.637 0.314914 -4.03473 0
M  V30 7047 H 662.392 -1.66441 -4.4339 0
M  V30 7048 H 662.816 -4.10846 -5.38084 0
M  V30 7049 H 667.458 -1.60394 -3.91195 0
M  V30 7050 H 665.176 -5.64347 -5.78393 0
M  V30 7051 H 668.762 -3.59969 -4.57071 0
M  V30 7052 H 667.642 -5.59321 -5.49663 0
M  V30 7053 N 665.145 1.52092 -0.413018 0
M  V30 7054 C 666.075 2.30021 0.401567 0
M  V30 7055 C 667.056 1.34395 1.04269 0
M  V30 7056 O 668.241 1.63304 1.05097 0
M  V30 7057 C 665.371 3.12447 1.51638 0
M  V30 7058 C 664.325 4.16153 1.00005 0
M  V30 7059 C 663.651 4.86948 2.20875 0
M  V30 7060 C 664.951 5.22275 0.0513757 0
M  V30 7061 H 666.645 2.98365 -0.248704 0
M  V30 7062 H 664.191 1.4349 -0.121052 0
M  V30 7063 H 666.144 3.65733 2.09326 0
M  V30 7064 H 664.868 2.41879 2.19458 0
M  V30 7065 H 663.527 3.63882 0.445549 0
M  V30 7066 H 663.175 4.12905 2.8726 0
M  V30 7067 H 662.875 5.57057 1.86978 0
M  V30 7068 H 664.399 5.43048 2.79162 0
M  V30 7069 H 665.813 5.70778 0.537176 0
M  V30 7070 H 664.21 5.9977 -0.198977 0
M  V30 7071 H 665.28 4.76611 -0.892736 0
M  V30 7072 N 666.623 0.143563 1.56945 0
M  V30 7073 C 667.553 -0.7936 2.196 0
M  V30 7074 C 668.534 -1.25955 1.14321 0
M  V30 7075 O 669.719 -1.31773 1.42651 0
M  V30 7076 C 666.849 -2.03424 2.81489 0
M  V30 7077 C 665.803 -1.70519 3.92565 0
M  V30 7078 C 665.129 -3.01817 4.41373 0
M  V30 7079 C 666.429 -0.95449 5.13504 0
M  V30 7080 H 668.123 -0.271423 2.98167 0
M  V30 7081 H 665.669 -0.12911 1.4342 0
M  V30 7082 H 667.622 -2.69463 3.23987 0
M  V30 7083 H 666.346 -2.58008 2.00248 0
M  V30 7084 H 665.005 -1.06859 3.5068 0
M  V30 7085 H 664.653 -3.54386 3.56959 0
M  V30 7086 H 664.353 -2.80565 5.16292 0
M  V30 7087 H 665.877 -3.68934 4.86539 0
M  V30 7088 H 667.291 -1.5169 5.52868 0
M  V30 7089 H 665.688 -0.842035 5.94163 0
M  V30 7090 H 666.758 0.0544033 4.84869 0
M  V30 7091 N 668.101 -1.57061 -0.130224 0
M  V30 7092 C 669.048 -1.99517 -1.16024 0
M  V30 7093 C 670.018 -0.865452 -1.41771 0
M  V30 7094 O 671.203 -1.12882 -1.53826 0
M  V30 7095 C 668.343 -2.3951 -2.48453 0
M  V30 7096 C 667.456 -3.65848 -2.29737 0
M  V30 7097 C 666.591 -3.9487 -3.55318 0
M  V30 7098 C 665.63 -5.14426 -3.31711 0
M  V30 7099 N 664.767 -5.39375 -4.49466 0
M  V30 7100 H 669.607 -2.87305 -0.791194 0
M  V30 7101 H 667.144 -1.42129 -0.379195 0
M  V30 7102 H 669.102 -2.60731 -3.25692 0
M  V30 7103 H 667.732 -1.54779 -2.83272 0
M  V30 7104 H 666.784 -3.52307 -1.4347 0
M  V30 7105 H 668.096 -4.53241 -2.08263 0
M  V30 7106 H 667.25 -4.16679 -4.4098 0
M  V30 7107 H 665.989 -3.05931 -3.79813 0
M  V30 7108 H 664.994 -4.92473 -2.44439 0
M  V30 7109 H 666.219 -6.04933 -3.08598 0
M  V30 7110 H 664.165 -4.53391 -4.74102 0
M  V30 7111 H 664.082 -6.21069 -4.31055 0
M  V30 7112 H 665.35 -5.65694 -5.36293 0
M  V30 7113 N 669.579 0.400081 -1.52437 0
M  V30 7114 C 670.995 0.739359 -1.41441 0
M  V30 7115 C 671.195 1.94512 -0.526053 0
M  V30 7116 O 670.251 2.525 0.00472502 0
M  V30 7117 C 671.564 0.984824 -2.84116 0
M  V30 7118 C 673.112 1.08698 -2.93519 0
M  V30 7119 C 673.587 1.36515 -4.37181 0
M  V30 7120 N 675.078 1.43361 -4.40457 0
M  V30 7121 C 675.813 1.66528 -5.48686 0
M  V30 7122 N 675.309 1.87239 -6.67018 0
M  V30 7123 N 677.102 1.68617 -5.36213 0
M  V30 7124 H 669.253 -0.393484 -2.08723 0
M  V30 7125 H 671.516 -0.1138 -0.941145 0
M  V30 7126 H 671.222 0.171096 -3.51284 0
M  V30 7127 H 671.096 1.90253 -3.25705 0
M  V30 7128 H 673.483 1.89129 -2.26526 0
M  V30 7129 H 673.564 0.147432 -2.55375 0
M  V30 7130 H 673.208 0.565982 -5.04737 0
M  V30 7131 H 673.138 2.31737 -4.7287 0
M  V30 7132 H 675.629 1.29108 -3.55161 0
M  V30 7133 H 675.942 2.04392 -7.45281 0
M  V30 7134 H 674.287 1.84486 -6.70067 0
M  V30 7135 H 677.478 1.5198 -4.42741 0
M  V30 7136 H 677.651 1.86332 -6.20632 0
M  V30 7137 N 671.057 1.43213 0.657864 0
M  V30 7138 C 672.287 1.478 1.44356 0
M  V30 7139 C 672.695 0.0930206 1.88971 0
M  V30 7140 O 672.038 -0.906089 1.59799 0
M  V30 7141 C 672.1 2.35745 2.71412 0
M  V30 7142 C 671.764 3.83359 2.48767 0
M  V30 7143 C 672.761 4.74585 2.12285 0
M  V30 7144 C 670.446 4.27799 2.63235 0
M  V30 7145 C 672.44 6.08247 1.90562 0
M  V30 7146 C 670.127 5.61516 2.41128 0
M  V30 7147 C 671.125 6.51557 2.04847 0
M  V30 7148 O 670.813 7.82802 1.82967 0
M  V30 7149 H 670.545 0.504363 0.450104 0
M  V30 7150 H 673.099 1.88572 0.814241 0
M  V30 7151 H 671.329 1.89852 3.36887 0
M  V30 7152 H 673.018 2.31589 3.33348 0
M  V30 7153 H 673.784 4.41531 2.00687 0
M  V30 7154 H 669.663 3.57993 2.90451 0
M  V30 7155 H 673.207 6.78489 1.62168 0
M  V30 7156 H 669.104 5.94139 2.52327 0
M  V30 7157 H 669.872 7.94332 1.97429 0
M  V30 7158 N 672.536 -0.895792 1.29666 0
M  V30 7159 C 673.785 -1.64131 1.17234 0
M  V30 7160 C 674.098 -1.93665 -0.274416 0
M  V30 7161 O 675.304 -2.66472 -0.520105 0
M  V30 7162 C 673.76 -2.95764 2.05065 0
M  V30 7163 C 673.368 -2.7381 3.54587 0
M  V30 7164 C 675.112 -3.737 2.01367 0
M  V30 7165 C 673.019 -4.01194 4.34508 0
M  V30 7166 H 671.949 -0.615742 0.435175 0
M  V30 7167 H 674.6 -0.992626 1.54335 0
M  V30 7168 H 672.982 -3.61867 1.60837 0
M  V30 7169 H 674.156 -2.16277 4.06892 0
M  V30 7170 H 672.471 -2.09265 3.59996 0
M  V30 7171 H 675.068 -4.68152 2.58337 0
M  V30 7172 H 675.411 -4.04245 0.994575 0
M  V30 7173 H 675.944 -3.14444 2.43659 0
M  V30 7174 H 672.683 -3.75813 5.37071 0
M  V30 7175 H 672.203 -4.58272 3.86971 0
M  V30 7176 H 673.882 -4.69307 4.45376 0
M  V30 7177 N 674.014 -1.12206 -1.10668 0
M  V30 7178 C 675.26 -0.877172 -1.82848 0
M  V30 7179 C 675.593 0.595571 -1.84842 0
M  V30 7180 O 674.868 1.44013 -1.30731 0
M  V30 7181 C 675.151 -1.44957 -3.29635 0
M  V30 7182 C 675.004 -2.99051 -3.35989 0
M  V30 7183 C 676.323 -1.10714 -4.25946 0
M  V30 7184 H 673.442 -0.320103 -0.663854 0
M  V30 7185 H 676.084 -1.38827 -1.2972 0
M  V30 7186 H 674.234 -1.01488 -3.7501 0
M  V30 7187 H 675.906 -3.51182 -2.99113 0
M  V30 7188 H 674.149 -3.34705 -2.75962 0
M  V30 7189 H 674.82 -3.34194 -4.39339 0
M  V30 7190 H 677.296 -1.48254 -3.88793 0
M  V30 7191 H 676.172 -1.5343 -5.2702 0
M  V30 7192 H 676.433 -0.019 -4.42096 0
M  V30 7193 N 675.492 1.28418 -0.913599 0
M  V30 7194 C 676.402 2.31043 -0.406965 0
M  V30 7195 C 677.418 1.66501 0.505298 0
M  V30 7196 O 678.594 1.97558 0.391522 0
M  V30 7197 C 675.659 3.4498 0.344901 0
M  V30 7198 C 674.72 4.25078 -0.600563 0
M  V30 7199 C 673.953 5.33575 0.115516 0
M  V30 7200 O 674.176 5.54503 1.33727 0
M  V30 7201 O 673.11 5.9939 -0.549095 0
M  V30 7202 H 676.936 2.76387 -1.25873 0
M  V30 7203 H 674.521 1.33109 -0.678415 0
M  V30 7204 H 676.403 4.14314 0.769542 0
M  V30 7205 H 675.078 3.01719 1.1725 0
M  V30 7206 H 673.985 3.58334 -1.0746 0
M  V30 7207 H 675.318 4.72018 -1.39497 0
M  V30 7208 N 676.97 0.677563 1.42291 0
M  V30 7209 C 678.218 0.200578 2.01102 0
M  V30 7210 C 678.539 -1.19803 1.53858 0
M  V30 7211 O 677.809 -1.80496 0.761439 0
M  V30 7212 H 676.389 0.0711634 0.743603 0
M  V30 7213 H 679.051 0.874691 1.7417 0
M  V30 7214 H 678.147 0.204 3.11433 0
M  V30 7215 N 678.448 -1.51871 0.421078 0
M  V30 7216 C 679.859 -1.86644 -0.0457991 0
M  V30 7217 C 680.21 -1.33919 -1.43388 0
M  V30 7218 O 679.335 -0.683316 -2.05328 0
M  V30 7219 C 679.93 -3.38681 -0.0898844 0
M  V30 7220 C 678.489 -3.73049 -0.501127 0
M  V30 7221 C 677.636 -2.75485 0.316723 0
M  V30 7222 H 680.587 -1.45327 0.637635 0
M  V30 7223 H 680.608 -3.69636 -0.902734 0
M  V30 7224 H 680.12 -3.77025 0.920513 0
M  V30 7225 H 678.221 -3.40288 -1.51773 0
M  V30 7226 H 678.334 -4.78512 -0.237217 0
M  V30 7227 H 676.698 -2.53725 -0.222663 0
M  V30 7228 H 677.481 -3.16671 1.32569 0
M  V30 7229 N 679.926 -0.151884 -1.56866 0
M  V30 7230 C 680.856 0.781943 -2.20018 0
M  V30 7231 C 681.837 1.25347 -1.14987 0
M  V30 7232 O 683.022 1.31015 -1.43348 0
M  V30 7233 C 680.152 2.01928 -2.82564 0
M  V30 7234 C 679.106 1.68434 -3.93464 0
M  V30 7235 C 678.432 2.99472 -4.42968 0
M  V30 7236 C 679.732 0.927244 -5.14003 0
M  V30 7237 H 681.426 0.255607 -2.98307 0
M  V30 7238 H 678.972 0.121502 -1.43486 0
M  V30 7239 H 680.925 2.67741 -3.25411 0
M  V30 7240 H 679.649 2.56943 -2.01614 0
M  V30 7241 H 678.308 1.04998 -3.51242 0
M  V30 7242 H 677.956 3.52488 -3.58834 0
M  V30 7243 H 677.656 2.77823 -5.17772 0
M  V30 7244 H 679.18 3.66348 -4.88489 0
M  V30 7245 H 680.594 1.48756 -5.53665 0
M  V30 7246 H 678.991 0.810513 -5.94601 0
M  V30 7247 H 680.061 -0.0801163 -4.84834 0
M  V30 7248 N 681.404 1.57128 0.121893 0
M  V30 7249 C 682.314 2.03425 1.16857 0
M  V30 7250 C 683.33 0.954108 1.45509 0
M  V30 7251 O 684.506 1.26541 1.56682 0
M  V30 7252 C 681.571 2.42685 2.47599 0
M  V30 7253 C 680.632 3.64767 2.2637 0
M  V30 7254 C 679.865 4.02145 3.50878 0
M  V30 7255 O 680.088 3.39897 4.58068 0
M  V30 7256 O 679.022 4.95262 3.42051 0
M  V30 7257 H 682.848 2.92825 0.80544 0
M  V30 7258 H 680.433 1.45654 0.332477 0
M  V30 7259 H 682.315 2.68684 3.24634 0
M  V30 7260 H 680.99 1.56432 2.83392 0
M  V30 7261 H 679.897 3.43922 1.47203 0
M  V30 7262 H 681.23 4.51716 1.95482 0
M  V30 7263 N 682.882 -0.391992 1.52647 0
M  V30 7264 C 683.832 -1.47815 1.73594 0
M  V30 7265 C 684.816 -1.49693 0.589979 0
M  V30 7266 O 686.008 -1.5538 0.847701 0
M  V30 7267 C 683.137 -2.85561 1.90551 0
M  V30 7268 C 682.223 -2.88264 3.1107 0
M  V30 7269 N 682.614 -2.60642 4.33474 0
M  V30 7270 C 680.912 -3.19432 3.11254 0
M  V30 7271 C 681.613 -2.70351 5.15058 0
M  V30 7272 N 680.589 -3.03956 4.50679 0
M  V30 7273 H 684.391 -1.2528 2.65861 0
M  V30 7274 H 681.905 -0.599907 1.50913 0
M  V30 7275 H 683.902 -3.63759 2.03678 0
M  V30 7276 H 682.562 -3.09081 0.994952 0
M  V30 7277 H 683.573 -2.34718 4.61658 0
M  V30 7278 H 680.25 -3.48436 2.29997 0
M  V30 7279 H 681.64 -2.52565 6.22624 0
M  V30 7280 N 684.36 -1.4356 -0.65026 0
M  V30 7281 C 685.637 -1.35811 -1.40765 0
M  V30 7282 C 686.017 -0.00736379 -2.11099 0
M  V30 7283 O 685.365 1.00932 -2.05 0
M  V30 7284 C 685.575 -2.54332 -2.3899 0
M  V30 7285 C 686.923 -2.97551 -3.02901 0
M  V30 7286 O 687.947 -2.544 -2.49317 0
M  V30 7287 O 686.806 -3.72311 -4.00059 0
M  V30 7288 H 683.9 -0.536861 -0.629054 0
M  V30 7289 H 686.446 -1.55615 -0.676919 0
M  V30 7290 H 685.218 -3.44274 -1.85986 0
M  V30 7291 H 684.841 -2.36643 -3.19509 0
M  V30 7292 N 685.838 0.888903 -1.30139 0
M  V30 7293 C 686.801 1.97576 -1.16174 0
M  V30 7294 C 687.801 1.60525 -0.094086 0
M  V30 7295 O 688.991 1.70812 -0.341889 0
M  V30 7296 C 686.123 3.3188 -0.778983 0
M  V30 7297 H 687.316 2.11393 -2.12728 0
M  V30 7298 H 684.869 1.0748 -1.1348 0
M  V30 7299 H 685.604 3.23765 0.186225 0
M  V30 7300 H 685.389 3.60141 -1.55051 0
M  V30 7301 H 686.879 4.11612 -0.704631 0
M  V30 7302 N 687.317 1.12792 1.10072 0
M  V30 7303 C 688.227 0.812369 2.20086 0
M  V30 7304 C 689.243 -0.200349 1.72843 0
M  V30 7305 O 690.419 -0.0330262 2.01373 0
M  V30 7306 C 687.484 0.275685 3.45602 0
M  V30 7307 C 686.545 1.34881 4.07561 0
M  V30 7308 C 685.778 0.837639 5.27086 0
M  V30 7309 O 686.001 -0.327224 5.69461 0
M  V30 7310 O 684.935 1.60894 5.79997 0
M  V30 7311 H 688.761 1.73133 2.49517 0
M  V30 7312 H 686.346 0.904863 1.18881 0
M  V30 7313 H 688.228 -0.0185375 4.21396 0
M  V30 7314 H 686.903 -0.615783 3.17789 0
M  V30 7315 H 685.81 1.69625 3.33434 0
M  V30 7316 H 687.143 2.21418 4.39585 0
M  V30 7317 N 688.795 -1.27931 0.920396 0
M  V30 7318 C 690.206 -1.76707 0.602616 0
M  V30 7319 C 690.557 -1.75249 -0.882159 0
M  V30 7320 O 689.682 -1.35135 -1.69019 0
M  V30 7321 C 690.277 -3.20884 1.08714 0
M  V30 7322 C 688.836 -3.67356 0.820157 0
M  V30 7323 C 687.983 -2.47525 1.25006 0
M  V30 7324 H 690.934 -1.14301 1.10095 0
M  V30 7325 H 690.955 -3.78045 0.431535 0
M  V30 7326 H 690.467 -3.21913 2.1678 0
M  V30 7327 H 688.568 -3.7178 -0.247012 0
M  V30 7328 H 688.681 -4.57181 1.43257 0
M  V30 7329 H 687.045 -2.45765 0.668698 0
M  V30 7330 H 687.828 -2.51269 2.3392 0
M  V30 7331 N 690.273 -0.685099 -1.4193 0
M  V30 7332 C 691.236 -0.0222632 -2.29189 0
M  V30 7333 C 692.236 0.7186 -1.4385 0
M  V30 7334 O 693.426 0.555058 -1.6512 0
M  V30 7335 C 690.558 0.979013 -3.2654 0
M  V30 7336 H 691.751 -0.790424 -2.89296 0
M  V30 7337 H 689.304 -0.448012 -1.49742 0
M  V30 7338 H 690.039 1.77531 -2.71392 0
M  V30 7339 H 689.824 0.451037 -3.89497 0
M  V30 7340 H 691.314 1.44091 -3.91954 0
M  V30 7341 N 691.751 1.51645 -0.429126 0
M  V30 7342 C 692.714 2.26116 0.374726 0
M  V30 7343 C 693.714 1.29242 0.956714 0
M  V30 7344 O 694.904 1.53022 0.832452 0
M  V30 7345 C 692.036 3.04669 1.52937 0
M  V30 7346 H 693.229 2.9861 -0.277818 0
M  V30 7347 H 690.782 1.55236 -0.182097 0
M  V30 7348 H 691.517 2.36571 2.21821 0
M  V30 7349 H 691.302 3.75814 1.11833 0
M  V30 7350 H 692.792 3.61102 2.09751 0
M  V30 7351 N 693.229 0.160201 1.56784 0
M  V30 7352 C 694.179 -0.786461 2.14007 0
M  V30 7353 C 695.163 -1.20046 1.07134 0
M  V30 7354 O 696.355 -1.16468 1.33283 0
M  V30 7355 C 693.484 -2.02024 2.77563 0
M  V30 7356 C 692.57 -1.62874 3.91578 0
M  V30 7357 N 692.961 -0.946176 4.96871 0
M  V30 7358 C 691.259 -1.92054 4.02531 0
M  V30 7359 C 691.96 -0.755084 5.76778 0
M  V30 7360 N 690.936 -1.29307 5.27997 0
M  V30 7361 H 694.738 -0.255879 2.92784 0
M  V30 7362 H 692.252 -0.0408778 1.62349 0
M  V30 7363 H 694.249 -2.70855 3.16928 0
M  V30 7364 H 692.909 -2.55587 2.00263 0
M  V30 7365 H 693.92 -0.605455 5.14349 0
M  V30 7366 H 690.597 -2.47374 3.36322 0
M  V30 7367 H 691.987 -0.216138 6.71552 0
M  V30 7368 N 694.707 -1.5719 -0.113559 0
M  V30 7369 C 695.955 -1.84772 -0.818761 0
M  V30 7370 C 696.276 -0.746196 -1.80158 0
M  V30 7371 O 695.546 0.229305 -1.94553 0
M  V30 7372 H 694.126 -0.681737 -0.305359 0
M  V30 7373 H 696.788 -1.94645 -0.0995845 0
M  V30 7374 H 695.884 -2.80878 -1.36067 0
M  V30 7375 N 696.185 0.383891 -1.52853 0
M  V30 7376 C 697.148 1.45197 -1.77343 0
M  V30 7377 C 698.148 1.47362 -0.643522 0
M  V30 7378 O 699.338 1.48443 -0.911613 0
M  V30 7379 C 696.47 2.8445 -1.87885 0
M  V30 7380 H 697.663 1.24764 -2.72716 0
M  V30 7381 H 695.216 0.615939 -1.43652 0
M  V30 7382 H 695.951 3.10222 -0.94515 0
M  V30 7383 H 695.736 2.8428 -2.70051 0
M  V30 7384 H 697.226 3.61832 -2.08488 0
M  V30 7385 N 697.663 1.43903 0.642637 0
M  V30 7386 C 699.074 1.40975 1.22404 0
M  V30 7387 C 699.425 0.1192 1.95838 0
M  V30 7388 O 698.55 -0.780939 2.01818 0
M  V30 7389 C 699.145 2.5538 2.22636 0
M  V30 7390 C 697.704 2.55684 2.76229 0
M  V30 7391 C 696.851 2.32556 1.51039 0
M  V30 7392 H 699.802 1.5265 0.434006 0
M  V30 7393 H 699.823 2.27474 3.05017 0
M  V30 7394 H 699.335 3.49294 1.69161 0
M  V30 7395 H 697.436 1.65679 3.33738 0
M  V30 7396 H 697.549 3.53799 3.23053 0
M  V30 7397 H 695.913 1.81427 1.78764 0
M  V30 7398 H 696.696 3.28569 0.99484 0
M  V30 7399 N 699.141 -0.881989 1.30609 0
M  V30 7400 C 700.557 -1.16576 1.09005 0
M  V30 7401 C 700.757 -2.00961 -0.14727 0
M  V30 7402 O 699.813 -2.38117 -0.840036 0
M  V30 7403 C 701.126 -1.86954 2.35518 0
M  V30 7404 C 702.674 -1.99706 2.41011 0
M  V30 7405 C 703.149 -2.73497 3.67374 0
M  V30 7406 N 704.64 -2.8104 3.68199 0
M  V30 7407 C 705.375 -3.38718 4.62664 0
M  V30 7408 N 704.871 -3.97421 5.67475 0
M  V30 7409 N 706.664 -3.36561 4.50203 0
M  V30 7410 H 698.815 -0.319398 2.09985 0
M  V30 7411 H 701.078 -0.204058 0.925778 0
M  V30 7412 H 700.784 -1.32393 3.2583 0
M  V30 7413 H 700.658 -2.87317 2.44395 0
M  V30 7414 H 703.045 -2.53436 1.51176 0
M  V30 7415 H 703.126 -0.984218 2.36108 0
M  V30 7416 H 702.77 -2.20438 4.57569 0
M  V30 7417 H 702.7 -3.75163 3.6954 0
M  V30 7418 H 705.191 -2.39365 2.92426 0
M  V30 7419 H 705.504 -4.39507 6.35652 0
M  V30 7420 H 703.849 -3.95832 5.71264 0
M  V30 7421 H 707.04 -2.8993 3.67503 0
M  V30 7422 H 707.213 -3.81215 5.24003 0
M  V30 7423 N 700.619 -1.13374 -1.09472 0
M  V30 7424 C 701.896 -0.806329 -1.78207 0
M  V30 7425 C 702.276 0.702191 -1.99079 0
M  V30 7426 O 701.624 1.63931 -1.59182 0
M  V30 7427 C 701.834 -1.59271 -3.10538 0
M  V30 7428 C 703.182 -1.78509 -3.85253 0
M  V30 7429 O 704.206 -1.55866 -3.20288 0
M  V30 7430 O 703.065 -2.16287 -5.01879 0
M  V30 7431 H 700.159 -0.29435 -0.772843 0
M  V30 7432 H 702.705 -1.23833 -1.16033 0
M  V30 7433 H 701.477 -2.61792 -2.90828 0
M  V30 7434 H 701.1 -1.15562 -3.80436 0
M  V30 7435 N 702.098 1.27442 -0.927168 0
M  V30 7436 C 703.375 1.89473 -0.485742 0
M  V30 7437 C 703.755 1.83922 1.03614 0
M  V30 7438 O 703.103 1.28409 1.89007 0
M  V30 7439 C 703.313 3.33417 -1.03123 0
M  V30 7440 C 704.661 4.10333 -1.0914 0
M  V30 7441 O 705.685 3.4243 -0.98082 0
M  V30 7442 O 704.544 5.31737 -1.26165 0
M  V30 7443 H 701.638 0.812124 -0.156154 0
M  V30 7444 H 704.184 1.35713 -1.01882 0
M  V30 7445 H 702.956 3.31747 -2.07508 0
M  V30 7446 H 702.579 3.94695 -0.479767 0
M  V30 7447 N 703.576 0.692616 1.41565 0
M  V30 7448 C 704.486 0.0258451 2.34586 0
M  V30 7449 C 705.502 -0.769324 1.56069 0
M  V30 7450 O 706.678 -0.707563 1.88562 0
M  V30 7451 C 703.743 -0.901289 3.3478 0
M  V30 7452 C 702.804 -0.0986579 4.29187 0
M  V30 7453 C 702.037 -0.981634 5.24595 0
M  V30 7454 O 702.26 -2.22115 5.25377 0
M  V30 7455 O 701.194 -0.432892 6.00341 0
M  V30 7456 H 705.02 0.792537 2.93177 0
M  V30 7457 H 702.605 0.452935 1.42369 0
M  V30 7458 H 704.487 -1.43302 3.96286 0
M  V30 7459 H 703.162 -1.64752 2.78637 0
M  V30 7460 H 702.069 0.477604 3.71039 0
M  V30 7461 H 703.402 0.608848 4.8842 0
M  V30 7462 N 705.054 -1.51416 0.437162 0
M  V30 7463 C 706.3 -2.02386 -0.129555 0
M  V30 7464 C 706.633 -1.32071 -1.42376 0
M  V30 7465 O 705.908 -0.43559 -1.8956 0
M  V30 7466 C 706.191 -3.5841 -0.348487 0
M  V30 7467 C 706.044 -4.39341 0.964352 0
M  V30 7468 C 707.363 -4.25654 -1.11834 0
M  V30 7469 H 704.482 -0.735587 -0.0456109 0
M  V30 7470 H 707.124 -1.81055 0.576124 0
M  V30 7471 H 705.274 -3.76716 -0.949592 0
M  V30 7472 H 706.946 -4.32685 1.59942 0
M  V30 7473 H 705.189 -4.04432 1.56898 0
M  V30 7474 H 705.86 -5.4667 0.765212 0
M  V30 7475 H 708.336 -4.11617 -0.609165 0
M  V30 7476 H 707.212 -5.34704 -1.24029 0
M  V30 7477 H 707.473 -3.86502 -2.14636 0
M  V30 7478 N 706.532 -0.168513 -1.56696 0
M  V30 7479 C 707.495 0.748928 -2.16619 0
M  V30 7480 C 708.495 1.16007 -1.11351 0
M  V30 7481 O 709.685 1.07748 -1.3688 0
M  V30 7482 C 706.817 2.01904 -2.74677 0
M  V30 7483 H 708.01 0.227317 -2.99037 0
M  V30 7484 H 705.563 0.0810372 -1.5609 0
M  V30 7485 H 706.298 2.58381 -1.95985 0
M  V30 7486 H 706.083 1.73323 -3.51712 0
M  V30 7487 H 707.573 2.67383 -3.20774 0
M  V30 7488 N 708.01 1.57248 0.105221 0
M  V30 7489 C 709.421 1.74612 0.660865 0
M  V30 7490 C 709.772 0.789231 1.79626 0
M  V30 7491 O 708.897 -0.0346611 2.16372 0
M  V30 7492 C 709.492 3.16624 1.20559 0
M  V30 7493 C 708.051 3.35447 1.7074 0
M  V30 7494 C 707.198 2.70445 0.612764 0
M  V30 7495 H 710.149 1.5824 -0.12079 0
M  V30 7496 H 710.17 3.18937 2.07508 0
M  V30 7497 H 709.682 3.86245 0.379012 0
M  V30 7498 H 707.783 2.7089 2.5583 0
M  V30 7499 H 707.896 4.43702 1.80736 0
M  V30 7500 H 706.26 2.32061 1.04975 0
M  V30 7501 H 707.043 3.42699 -0.203066 0
M  V30 7502 N 709.488 -0.375779 1.53054 0
M  V30 7503 C 710.418 -1.46598 1.81745 0
M  V30 7504 C 711.399 -1.56337 0.670286 0
M  V30 7505 O 712.584 -1.71071 0.919158 0
M  V30 7506 C 709.714 -2.84058 1.99821 0
M  V30 7507 C 708.668 -2.8915 3.15557 0
M  V30 7508 C 707.994 -4.29187 3.18908 0
M  V30 7509 C 709.294 -2.57595 4.54359 0
M  V30 7510 H 710.988 -1.22837 2.73041 0
M  V30 7511 H 708.534 -0.589485 1.31381 0
M  V30 7512 H 710.487 -3.60342 2.18475 0
M  V30 7513 H 709.211 -3.09184 1.05226 0
M  V30 7514 H 707.87 -2.15316 2.96706 0
M  V30 7515 H 707.518 -4.51374 2.2197 0
M  V30 7516 H 707.218 -4.33512 3.96662 0
M  V30 7517 H 708.742 -5.07359 3.39734 0
M  V30 7518 H 710.156 -3.23595 4.73243 0
M  V30 7519 H 708.553 -2.73252 5.34279 0
M  V30 7520 H 709.623 -1.52882 4.60169 0
M  V30 7521 N 710.966 -1.44241 -0.634997 0
M  V30 7522 C 712.191 -1.50516 -1.42687 0
M  V30 7523 C 712.616 -0.129864 -1.87651 0
M  V30 7524 O 711.974 0.880164 -1.58502 0
M  V30 7525 C 712.022 -2.4714 -2.62591 0
M  V30 7526 O 711.126 -1.97025 -3.62291 0
M  V30 7527 H 710.467 -0.50841 -0.427101 0
M  V30 7528 H 712.997 -1.89337 -0.775408 0
M  V30 7529 H 713.007 -2.65048 -3.10183 0
M  V30 7530 H 711.682 -3.47039 -2.29209 0
M  V30 7531 H 710.259 -1.88866 -3.21534 0
M  V30 7532 N 712.444 0.87505 -1.31075 0
M  V30 7533 C 713.691 1.62768 -1.20469 0
M  V30 7534 C 714.019 1.93034 0.23834 0
M  V30 7535 O 713.274 1.55693 1.18567 0
M  V30 7536 C 713.573 2.96948 -1.98888 0
M  V30 7537 C 713.239 2.86195 -3.4843 0
M  V30 7538 C 711.901 2.82969 -3.89207 0
M  V30 7539 C 714.253 2.73599 -4.43614 0
M  V30 7540 C 711.581 2.64999 -5.23443 0
M  V30 7541 C 713.933 2.57166 -5.77969 0
M  V30 7542 C 712.597 2.52321 -6.17973 0
M  V30 7543 H 711.867 0.595611 -0.440827 0
M  V30 7544 H 714.514 1.01665 -1.62285 0
M  V30 7545 H 712.819 3.62058 -1.49737 0
M  V30 7546 H 714.516 3.54164 -1.88067 0
M  V30 7547 H 711.106 2.8952 -3.16032 0
M  V30 7548 H 715.29 2.7515 -4.13045 0
M  V30 7549 H 710.546 2.5967 -5.53517 0
M  V30 7550 H 714.72 2.46396 -6.51354 0
M  V30 7551 H 712.347 2.38156 -7.21932 0
M  V30 7552 N 713.922 1.13953 1.08869 0
M  V30 7553 C 714.885 0.824991 2.13838 0
M  V30 7554 C 715.885 -0.168198 1.59918 0
M  V30 7555 O 717.075 0.0595778 1.74098 0
M  V30 7556 C 714.207 0.228938 3.4013 0
M  V30 7557 H 715.4 1.75521 2.43171 0
M  V30 7558 H 712.953 0.94492 1.24503 0
M  V30 7559 H 713.688 -0.710227 3.16427 0
M  V30 7560 H 713.473 0.944243 3.80561 0
M  V30 7561 H 714.963 0.0259223 4.17592 0
M  V30 7562 N 715.4 -1.26948 0.933913 0
M  V30 7563 C 716.63 -1.97898 0.593279 0
M  V30 7564 C 717.038 -1.69806 -0.834412 0
M  V30 7565 O 716.381 -0.958704 -1.56699 0
M  V30 7566 C 716.443 -3.51657 0.746825 0
M  V30 7567 C 716.107 -4.03384 2.14779 0
M  V30 7568 C 717.104 -4.15682 3.12257 0
M  V30 7569 C 714.789 -4.37577 2.46641 0
M  V30 7570 C 716.783 -4.61455 4.39702 0
M  V30 7571 C 714.47 -4.8304 3.7432 0
M  V30 7572 C 715.468 -4.94939 4.70664 0
M  V30 7573 O 715.156 -5.39403 5.96071 0
M  V30 7574 H 714.888 -0.63814 0.223055 0
M  V30 7575 H 717.442 -1.62608 1.2549 0
M  V30 7576 H 715.672 -3.8669 0.0280889 0
M  V30 7577 H 717.361 -4.03821 0.410328 0
M  V30 7578 H 718.127 -3.89519 2.88964 0
M  V30 7579 H 714.006 -4.27554 1.72391 0
M  V30 7580 H 717.55 -4.70658 5.14905 0
M  V30 7581 H 713.447 -5.08646 3.97429 0
M  V30 7582 H 714.215 -5.57641 5.99148 0
M  V30 7583 O 716.917 -0.838709 -1.38014 0
M  V30 7584 H 717.608 -0.426604 -1.88944 0
M  V30 END ATOM
M  V30 BEGIN BOND
M  V30 END BOND
M  V30 END CTAB
M  END
$$$$
