drugbank_target|A0A0H3JRU9 Pyruvate carboxylase (DB07497)
 OpenBabel12092120443D

  0  0  0     0  0            999 V3000
M  V30 BEGIN CTAB
M  V30 COUNTS 18041 18212 0 0 0
M  V30 BEGIN ATOM
M  V30 1 H -0.908 1.98254 -0.117106 0
M  V30 2 N 0 1.576 0 0
M  V30 3 C 0.933 2.03868 1.02534 0
M  V30 4 C 1.911 0.928543 1.3348 0
M  V30 5 O 3.095 1.19667 1.45644 0
M  V30 6 C 0.222 2.43627 2.35294 0
M  V30 7 C -0.732 3.65373 2.2001 0
M  V30 8 S 0.101 5.13292 1.52614 0
M  V30 9 C 1.257 5.56322 2.86805 0
M  V30 10 H 1.49 2.90518 0.631377 0
M  V30 11 H -0.977 1.52953 0.210867 0
M  V30 12 H 0.981 2.67203 3.11629 0
M  V30 13 H -0.358 1.57376 2.7183 0
M  V30 14 H -1.165 3.90944 3.18086 0
M  V30 15 H -1.563 3.418 1.51819 0
M  V30 16 H 0.729 5.58782 3.83104 0
M  V30 17 H 1.672 6.56266 2.65933 0
M  V30 18 H 2.08 4.83886 2.90714 0
M  V30 19 N 1.4781 -0.272755 1.55222 0
M  V30 20 C 2.4251 -1.33716 1.88119 0
M  V30 21 C 3.3951 -1.49066 0.73271 0
M  V30 22 O 4.5801 -1.63469 0.984002 0
M  V30 23 C 1.7201 -2.69238 2.15882 0
M  V30 24 C 0.8331 -2.62108 3.43399 0
M  V30 25 C -0.0319 -3.89811 3.60861 0
M  V30 26 C -0.9929 -3.77193 4.8207 0
M  V30 27 N -1.8559 -4.9673 4.96189 0
M  V30 28 H 2.9841 -1.04962 2.78903 0
M  V30 29 H 0.5211 -0.507088 1.38083 0
M  V30 30 H 2.4791 -3.48089 2.29978 0
M  V30 31 H 1.1091 -2.96194 1.28331 0
M  V30 32 H 0.1611 -1.74967 3.37773 0
M  V30 33 H 1.4731 -2.48685 4.32386 0
M  V30 34 H 0.6271 -4.77103 3.74777 0
M  V30 35 H -0.6339 -4.06102 2.7006 0
M  V30 36 H -1.6289 -2.88284 4.68159 0
M  V30 37 H -0.4039 -3.62421 5.74307 0
M  V30 38 H -2.4579 -5.13431 4.08319 0
M  V30 39 H -2.5409 -4.85839 5.79221 0
M  V30 40 H -1.2729 -5.85594 5.1449 0
M  V30 41 N 2.9562 -1.48159 -0.537278 0
M  V30 42 C 3.8882 -1.58218 -1.65831 0
M  V30 43 C 4.9012 -0.466948 -1.5596 0
M  V30 44 O 6.0902 -0.73747 -1.62553 0
M  V30 45 C 3.1902 -1.48906 -3.04434 0
M  V30 46 C 2.3632 -2.75343 -3.3986 0
M  V30 47 C 1.4222 -2.59588 -4.57712 0
M  V30 48 O 0.4482 -3.33457 -4.61297 0
M  V30 49 N 1.6502 -1.68724 -5.55439 0
M  V30 50 H 4.4152 -2.54891 -1.57641 0
M  V30 51 H 1.9762 -1.4479 -0.724386 0
M  V30 52 H 3.9682 -1.36072 -3.81139 0
M  V30 53 H 2.5382 -0.602368 -3.06741 0
M  V30 54 H 1.7582 -3.02795 -2.52406 0
M  V30 55 H 3.0462 -3.5924 -3.60311 0
M  V30 56 H 2.4442 -1.07898 -5.55315 0
M  V30 57 H 1.0012 -1.61832 -6.3139 0
M  V30 58 N 4.4343 0.785586 -1.36625 0
M  V30 59 C 5.6833 1.53883 -1.30396 0
M  V30 60 C 5.9963 1.95271 0.113452 0
M  V30 61 O 7.2023 2.69858 0.298142 0
M  V30 62 C 5.6583 2.77808 -2.28802 0
M  V30 63 C 5.2663 2.43574 -3.75999 0
M  V30 64 C 7.0103 3.55783 -2.31558 0
M  V30 65 C 4.9173 3.63919 -4.66173 0
M  V30 66 H 3.8473 0.577678 -0.484566 0
M  V30 67 H 6.4983 0.861705 -1.62009 0
M  V30 68 H 4.8803 3.47339 -1.90188 0
M  V30 69 H 6.0543 1.81916 -4.23371 0
M  V30 70 H 4.3693 1.78803 -3.76056 0
M  V30 71 H 6.9663 4.45205 -2.96137 0
M  V30 72 H 7.3093 3.94644 -1.3252 0
M  V30 73 H 7.8423 2.93235 -2.68809 0
M  V30 74 H 4.5813 3.3015 -5.66287 0
M  V30 75 H 4.1013 4.2473 -4.23515 0
M  V30 76 H 5.7803 4.30901 -4.82632 0
M  V30 77 N 5.9124 1.20967 1.01018 0
M  V30 78 C 6.8594 0.964281 2.09691 0
M  V30 79 C 7.8294 -0.107853 1.65749 0
M  V30 80 O 9.0144 0.0381987 1.90762 0
M  V30 81 C 6.1544 0.52943 3.41015 0
M  V30 82 C 5.2674 1.67043 3.98398 0
M  V30 83 C 4.4024 1.18525 5.17808 0
M  V30 84 C 3.4414 2.29892 5.67288 0
M  V30 85 N 2.5784 1.82546 6.77954 0
M  V30 86 H 7.4184 1.89463 2.30017 0
M  V30 87 H 4.9554 0.944289 1.1279 0
M  V30 88 H 6.9134 0.258588 4.16398 0
M  V30 89 H 5.5434 -0.363919 3.20742 0
M  V30 90 H 4.5954 2.05603 3.20049 0
M  V30 91 H 5.9074 2.50877 4.31117 0
M  V30 92 H 5.0614 0.870762 6.00419 0
M  V30 93 H 3.8004 0.316887 4.86669 0
M  V30 94 H 2.8054 2.6215 4.83278 0
M  V30 95 H 4.0304 3.17216 6.00459 0
M  V30 96 H 1.9764 0.980454 6.48632 0
M  V30 97 H 1.8934 2.59956 7.09901 0
M  V30 98 H 3.1614 1.54115 7.64113 0
M  V30 99 N 7.3905 -1.2043 1.01659 0
M  V30 100 C 8.3375 -2.23215 0.586822 0
M  V30 101 C 9.3075 -1.61382 -0.393085 0
M  V30 102 O 10.4925 -1.88544 -0.292525 0
M  V30 103 C 7.6325 -3.45032 -0.0687464 0
M  V30 104 C 6.7455 -4.21296 0.955724 0
M  V30 105 C 5.8805 -5.30507 0.271208 0
M  V30 106 C 4.9195 -5.98515 1.28244 0
M  V30 107 N 4.0565 -6.99316 0.62459 0
M  V30 108 H 8.8965 -2.59336 1.46796 0
M  V30 109 H 6.4335 -1.27431 0.734836 0
M  V30 110 H 8.3915 -4.1459 -0.465965 0
M  V30 111 H 7.0215 -3.09604 -0.913529 0
M  V30 112 H 6.0735 -3.50803 1.4711 0
M  V30 113 H 7.3855 -4.6803 1.72479 0
M  V30 114 H 6.5395 -6.06428 -0.18151 0
M  V30 115 H 5.2785 -4.8481 -0.530163 0
M  V30 116 H 4.2835 -5.21355 1.74554 0
M  V30 117 H 5.5085 -6.46298 2.08509 0
M  V30 118 H 3.4545 -6.55812 -0.156914 0
M  V30 119 H 3.3715 -7.44178 1.33172 0
M  V30 120 H 4.6395 -7.79255 0.195462 0
M  V30 121 N 8.8686 -0.792821 -1.36206 0
M  V30 122 C 9.7986 -0.207853 -2.32573 0
M  V30 123 C 10.7796 0.659055 -1.56813 0
M  V30 124 O 11.9646 0.592176 -1.84951 0
M  V30 125 C 9.0946 0.655449 -3.41059 0
M  V30 126 C 8.0486 -0.111842 -4.27854 0
M  V30 127 C 7.3746 0.872274 -5.27537 0
M  V30 128 C 8.6746 -1.30299 -5.05786 0
M  V30 129 H 10.3686 -1.01294 -2.81744 0
M  V30 130 H 7.9146 -0.48854 -1.3546 0
M  V30 131 H 9.8676 1.07464 -4.07467 0
M  V30 132 H 8.5916 1.49328 -2.90463 0
M  V30 133 H 7.2506 -0.512053 -3.63006 0
M  V30 134 H 6.8986 1.70523 -4.73214 0
M  V30 135 H 6.5986 0.363291 -5.86476 0
M  V30 136 H 8.1226 1.28996 -5.96818 0
M  V30 137 H 9.5366 -0.959379 -5.65216 0
M  V30 138 H 7.9336 -1.7455 -5.74154 0
M  V30 139 H 9.0036 -2.09663 -4.37229 0
M  V30 140 N 10.3467 1.47872 -0.545128 0
M  V30 141 C 11.2767 2.32661 0.197793 0
M  V30 142 C 12.2577 1.43041 0.920504 0
M  V30 143 O 13.4427 1.71912 0.90333 0
M  V30 144 C 10.5727 3.24569 1.23582 0
M  V30 145 C 9.5267 4.23333 0.630323 0
M  V30 146 C 8.8527 5.0448 1.77211 0
M  V30 147 C 10.1527 5.20704 -0.407974 0
M  V30 148 H 11.8467 2.95024 -0.510045 0
M  V30 149 H 9.3927 1.4187 -0.246731 0
M  V30 150 H 11.3457 3.8272 1.76362 0
M  V30 151 H 10.0697 2.60236 1.97344 0
M  V30 152 H 8.7287 3.6639 0.123922 0
M  V30 153 H 8.3767 4.36561 2.49847 0
M  V30 154 H 8.0767 5.71339 1.37281 0
M  V30 155 H 9.6007 5.65487 2.3034 0
M  V30 156 H 11.0147 5.7329 0.033305 0
M  V30 157 H 9.4117 5.95699 -0.725486 0
M  V30 158 H 10.4817 4.66917 -1.30828 0
M  V30 159 N 11.8248 0.280983 1.55075 0
M  V30 160 C 13.0708 -0.33461 2.00021 0
M  V30 161 C 13.4038 -1.55063 1.16915 0
M  V30 162 O 12.6788 -1.93006 0.240646 0
M  V30 163 C 12.9618 -0.711007 3.53011 0
M  V30 164 C 12.8148 0.512766 4.46868 0
M  V30 165 C 14.1338 -1.54522 4.12081 0
M  V30 166 H 11.2528 -0.120147 0.727141 0
M  V30 167 H 13.8948 0.389097 1.85973 0
M  V30 168 H 12.0448 -1.32761 3.65112 0
M  V30 169 H 13.7168 1.15131 4.46702 0
M  V30 170 H 11.9598 1.14975 4.18286 0
M  V30 171 H 12.6308 0.205556 5.51617 0
M  V30 172 H 15.1068 -1.02442 4.03293 0
M  V30 173 H 13.9828 -1.77739 5.19327 0
M  V30 174 H 14.2438 -2.52813 3.62682 0
M  V30 175 N 13.3029 -1.57598 0.00835791 0
M  V30 176 C 14.2659 -2.07884 -0.965242 0
M  V30 177 C 15.2659 -0.989825 -1.26725 0
M  V30 178 O 16.4559 -1.25218 -1.21104 0
M  V30 179 C 13.5879 -2.52731 -2.28779 0
M  V30 180 H 14.7809 -2.95178 -0.530112 0
M  V30 181 H 12.3339 -1.54458 -0.239283 0
M  V30 182 H 13.0689 -1.68705 -2.76964 0
M  V30 183 H 12.8539 -3.32272 -2.08177 0
M  V30 184 H 14.3439 -2.91933 -2.98605 0
M  V30 185 N 14.781 0.264519 -1.55364 0
M  V30 186 C 15.729 1.34702 -1.89626 0
M  V30 187 C 16.723 1.50712 -0.773459 0
M  V30 188 O 17.929 1.52395 -0.957897 0
M  V30 189 H 14.304 0.450682 -0.601988 0
M  V30 190 H 16.275 1.0306 -2.80038 0
M  V30 191 C 15.024 2.6989 -2.19214 0
M  V30 192 H 14.347 2.58365 -3.05103 0
M  V30 193 H 15.787 3.44553 -2.47102 0
M  V30 194 C 14.246 3.21637 -1.00254 0
M  V30 195 O 14.776 4.00973 -0.241501 0
M  V30 196 N 12.982 2.7943 -0.797938 0
M  V30 197 H 12.529 2.15026 -1.4185 0
M  V30 198 H 12.487 3.144 -0.00363422 0
M  V30 199 N 16.2591 1.48442 0.529413 0
M  V30 200 C 17.6751 1.34575 0.858004 0
M  V30 201 C 17.8751 0.3572 1.98309 0
M  V30 202 O 16.9311 -0.221379 2.51528 0
M  V30 203 C 18.2441 2.74617 1.22499 0
M  V30 204 C 19.7921 2.83109 1.33484 0
M  V30 205 C 20.2671 4.23854 1.73526 0
M  V30 206 N 21.7581 4.2653 1.80628 0
M  V30 207 C 22.4931 5.32372 2.12997 0
M  V30 208 N 21.9891 6.48491 2.43786 0
M  V30 209 N 23.7821 5.19766 2.14008 0
M  V30 210 H 15.9331 2.1133 -0.212925 0
M  V30 211 H 18.1961 0.947439 -0.0326199 0
M  V30 212 H 17.9021 3.4852 0.471905 0
M  V30 213 H 17.7761 3.08177 2.17501 0
M  V30 214 H 20.1631 2.09462 2.0787 0
M  V30 215 H 20.2441 2.53168 0.366027 0
M  V30 216 H 19.8881 4.98018 0.997013 0
M  V30 217 H 19.8181 4.5124 2.71459 0
M  V30 218 H 22.3091 3.42772 1.59108 0
M  V30 219 H 22.6221 7.24993 2.67592 0
M  V30 220 H 20.9671 6.51765 2.41304 0
M  V30 221 H 24.1581 4.28066 1.89412 0
M  V30 222 H 24.3311 6.02354 2.38902 0
M  V30 223 N 17.7372 -0.778329 1.37039 0
M  V30 224 C 18.9852 -1.53361 1.31623 0
M  V30 225 C 19.3062 -1.94739 -0.100831 0
M  V30 226 O 18.5762 -1.65797 -1.04347 0
M  V30 227 H 17.1562 -0.568794 0.484234 0
M  V30 228 H 19.8182 -0.926742 1.71457 0
M  V30 229 H 18.9142 -2.43606 1.95096 0
M  V30 230 N 19.2153 -1.21501 -1.00376 0
M  V30 231 C 20.1253 -0.991447 -2.12621 0
M  V30 232 C 21.1413 0.0568446 -1.73907 0
M  V30 233 O 22.3173 -0.13348 -2.00957 0
M  V30 234 C 19.3823 -0.560312 -3.42142 0
M  V30 235 C 18.4433 -1.68096 -3.95022 0
M  V30 236 C 17.6763 -1.2703 -5.18362 0
M  V30 237 O 17.8993 -0.144438 -5.70217 0
M  V30 238 O 16.8333 -2.08269 -5.64719 0
M  V30 239 H 20.6593 -1.93158 -2.34358 0
M  V30 240 H 18.2443 -0.999999 -1.10997 0
M  V30 241 H 20.1263 -0.329724 -4.20108 0
M  V30 242 H 18.8013 0.351089 -3.2179 0
M  V30 243 H 17.7083 -1.96597 -3.18278 0
M  V30 244 H 19.0413 -2.56983 -4.19786 0
M  V30 245 N 20.6934 1.19889 -1.02296 0
M  V30 246 C 21.9424 1.88743 -0.711257 0
M  V30 247 C 22.2554 1.80112 0.762817 0
M  V30 248 O 23.4614 2.44161 1.18733 0
M  V30 249 C 21.9174 3.38525 -1.22185 0
M  V30 250 C 21.5254 3.55727 -2.72328 0
M  V30 251 C 23.2694 4.12893 -0.985864 0
M  V30 252 C 21.1764 4.99369 -3.16835 0
M  V30 253 H 20.1064 0.706885 -0.262353 0
M  V30 254 H 22.7574 1.35586 -1.23648 0
M  V30 255 H 21.1394 3.91044 -0.624571 0
M  V30 256 H 22.3134 3.13564 -3.3766 0
M  V30 257 H 20.6284 2.94739 -2.9414 0
M  V30 258 H 23.2254 5.18813 -1.29374 0
M  V30 259 H 23.5684 4.16228 0.0775055 0
M  V30 260 H 24.1014 3.66494 -1.54684 0
M  V30 261 H 20.8404 5.01193 -4.22476 0
M  V30 262 H 20.3604 5.42317 -2.56228 0
M  V30 263 H 22.0394 5.67988 -3.09837 0
M  V30 264 N 22.1715 0.800033 1.35784 0
M  V30 265 C 23.1345 0.211565 2.28221 0
M  V30 266 C 24.1345 -0.59728 1.49296 0
M  V30 267 O 25.3245 -0.416721 1.69142 0
M  V30 268 C 22.4565 -0.705846 3.33513 0
M  V30 269 H 23.6495 1.02677 2.81776 0
M  V30 270 H 21.2025 0.570211 1.45528 0
M  V30 271 H 21.9375 -1.54498 2.85133 0
M  V30 272 H 21.7225 -0.127655 3.91892 0
M  V30 273 H 23.2125 -1.11211 4.02519 0
M  V30 274 N 23.6496 -1.47581 0.552962 0
M  V30 275 C 24.8986 -2.01684 0.0251995 0
M  V30 276 C 25.2116 -1.43317 -1.33115 0
M  V30 277 O 26.4176 -1.89057 -1.94858 0
M  V30 278 C 24.8736 -3.599 -0.00542052 0
M  V30 279 C 24.4816 -4.27257 1.34742 0
M  V30 280 C 26.2256 -4.21768 -0.4808 0
M  V30 281 C 24.1326 -5.77467 1.27614 0
M  V30 282 H 23.0626 -0.753979 0.00565033 0
M  V30 283 H 25.7136 -1.69616 0.70018 0
M  V30 284 H 24.0956 -3.88911 -0.745961 0
M  V30 285 H 25.2696 -4.09893 2.10534 0
M  V30 286 H 23.5846 -3.77358 1.76039 0
M  V30 287 H 26.1816 -5.31838 -0.55246 0
M  V30 288 H 26.5246 -3.88651 -1.49184 0
M  V30 289 H 27.0576 -3.97273 0.204752 0
M  V30 290 H 23.7966 -6.15196 2.26304 0
M  V30 291 H 23.3166 -5.9718 0.55996 0
M  V30 292 H 24.9956 -6.3959 0.976421 0
M  V30 293 N 25.1277 -0.289203 -1.54924 0
M  V30 294 C 26.5437 0.0645403 -1.59469 0
M  V30 295 C 26.7437 1.53419 -1.30632 0
M  V30 296 O 25.7997 2.2852 -1.074 0
M  V30 297 C 27.1127 -0.32278 -2.98963 0
M  V30 298 C 28.6607 -0.270564 -3.11828 0
M  V30 299 C 29.1357 -0.632532 -4.53611 0
M  V30 300 N 30.6267 -0.584617 -4.59496 0
M  V30 301 C 31.3617 -0.837314 -5.67254 0
M  V30 302 N 30.8577 -1.15536 -6.83098 0
M  V30 303 N 32.6507 -0.765166 -5.56868 0
M  V30 304 H 24.8017 -1.24714 -1.71931 0
M  V30 305 H 27.0647 -0.504809 -0.802416 0
M  V30 306 H 26.7707 -1.34541 -3.24948 0
M  V30 307 H 26.6447 0.32944 -3.75759 0
M  V30 308 H 29.0317 0.742805 -2.85598 0
M  V30 309 H 29.1127 -0.957242 -2.37214 0
M  V30 310 H 28.7567 -1.64365 -4.80569 0
M  V30 311 H 28.6867 0.07609 -5.26545 0
M  V30 312 H 31.1777 -0.349248 -3.76283 0
M  V30 313 H 31.4907 -1.33447 -7.61191 0
M  V30 314 H 29.8357 -1.19328 -6.84679 0
M  V30 315 H 33.0267 -0.516432 -4.65243 0
M  V30 316 H 33.1997 -0.965477 -6.40767 0
M  V30 317 N 26.6058 1.57591 -0.0167156 0
M  V30 318 C 27.8548 1.90461 0.663877 0
M  V30 319 C 28.1678 0.893515 1.73999 0
M  V30 320 O 29.3738 1.11302 2.47637 0
M  V30 321 C 27.8298 3.38155 1.23204 0
M  V30 322 C 27.4378 4.47597 0.189866 0
M  V30 323 C 29.1818 3.80111 1.88986 0
M  V30 324 C 27.0888 5.86379 0.768964 0
M  V30 325 H 26.0188 0.710738 0.251729 0
M  V30 326 H 28.6698 1.83326 -0.0799926 0
M  V30 327 H 27.0518 3.40182 2.02712 0
M  V30 328 H 28.2258 4.57112 -0.581846 0
M  V30 329 H 26.5408 4.14766 -0.368475 0
M  V30 330 H 29.1378 4.81145 2.33247 0
M  V30 331 H 29.4808 3.14511 2.72743 0
M  V30 332 H 30.0138 3.80454 1.16187 0
M  V30 333 H 26.7528 6.55493 -0.0301957 0
M  V30 334 H 26.2728 5.80496 1.50945 0
M  V30 335 H 27.9518 6.34563 1.26251 0
M  V30 336 N 28.0839 -0.256276 1.55502 0
M  V30 337 C 29.3309 -0.985619 1.76895 0
M  V30 338 C 29.6589 -1.85671 0.579355 0
M  V30 339 O 28.9139 -1.90744 -0.437651 0
M  V30 340 C 29.2129 -1.88432 3.03691 0
M  V30 341 C 28.8789 -1.16936 4.35473 0
M  V30 342 C 27.5409 -0.97173 4.71286 0
M  V30 343 C 29.8929 -0.661889 5.1698 0
M  V30 344 C 27.2209 -0.254179 5.86149 0
M  V30 345 C 29.5729 0.042149 6.32586 0
M  V30 346 C 28.2369 0.25134 6.67027 0
M  V30 347 H 27.5069 -0.360663 0.647304 0
M  V30 348 H 30.1539 -0.256483 1.89775 0
M  V30 349 H 28.4589 -2.68021 2.85783 0
M  V30 350 H 30.1559 -2.45015 3.1744 0
M  V30 351 H 26.7459 -1.33332 4.07333 0
M  V30 352 H 30.9299 -0.802145 4.89775 0
M  V30 353 H 26.1859 -0.0815408 6.11346 0
M  V30 354 H 30.3599 0.443049 6.94989 0
M  V30 355 H 27.9869 0.809314 7.5588 0
M  V30 356 N 29.562 -1.4872 -0.521534 0
M  V30 357 C 30.978 -1.35028 -0.850855 0
M  V30 358 C 31.178 -0.367712 -1.98116 0
M  V30 359 O 30.234 0.208037 -2.51642 0
M  V30 360 C 31.547 -2.75263 -1.21041 0
M  V30 361 C 33.095 -2.83813 -1.31981 0
M  V30 362 C 33.57 -4.24769 -1.71276 0
M  V30 363 N 35.061 -4.27482 -1.78363 0
M  V30 364 C 35.796 -5.33494 -2.1017 0
M  V30 365 N 35.292 -6.49775 -2.40343 0
M  V30 366 N 37.085 -5.20894 -2.11248 0
M  V30 367 H 29.236 -2.11214 0.22413 0
M  V30 368 H 31.499 -0.947252 0.0376439 0
M  V30 369 H 31.205 -3.48765 -0.453415 0
M  V30 370 H 31.079 -3.09327 -2.15863 0
M  V30 371 H 33.466 -2.10561 -2.06756 0
M  V30 372 H 33.547 -2.53358 -0.352596 0
M  V30 373 H 33.191 -4.9854 -0.970588 0
M  V30 374 H 33.121 -4.52673 -2.69062 0
M  V30 375 H 35.612 -3.43611 -1.57288 0
M  V30 376 H 35.925 -7.26402 -2.63743 0
M  V30 377 H 34.27 -6.53035 -2.37844 0
M  V30 378 H 37.461 -4.29065 -1.87139 0
M  V30 379 H 37.634 -6.03612 -2.35704 0
M  V30 380 N 31.0401 0.771051 -1.3745 0
M  V30 381 C 32.0031 1.86598 -1.33093 0
M  V30 382 C 33.0031 1.59076 -0.234845 0
M  V30 383 O 34.1931 1.67145 -0.490732 0
M  V30 384 C 31.3251 3.23747 -1.06773 0
M  V30 385 H 32.5181 1.91873 -2.30488 0
M  V30 386 H 30.0711 0.970876 -1.2249 0
M  V30 387 H 30.8061 3.24148 -0.099129 0
M  V30 388 H 30.5911 3.45115 -1.86112 0
M  V30 389 H 32.0811 4.03824 -1.06377 0
M  V30 390 N 32.5182 1.22032 0.997298 0
M  V30 391 C 33.4812 0.987909 2.06816 0
M  V30 392 C 34.4812 -0.0440084 1.6074 0
M  V30 393 O 35.6712 0.194053 1.73116 0
M  V30 394 C 32.8032 0.49132 3.37341 0
M  V30 395 H 33.9962 1.93803 2.28868 0
M  V30 396 H 31.5492 1.03838 1.16822 0
M  V30 397 H 32.2842 -0.463364 3.20973 0
M  V30 398 H 32.0692 1.23575 3.72118 0
M  V30 399 H 33.5592 0.348824 4.16141 0
M  V30 400 N 33.9963 -1.19345 1.0293 0
M  V30 401 C 34.9593 -2.20793 0.615069 0
M  V30 402 C 35.9593 -1.57553 -0.321533 0
M  V30 403 O 37.1493 -1.73862 -0.108483 0
M  V30 404 C 34.2813 -3.40754 -0.0999222 0
M  V30 405 H 35.4743 -2.58955 1.51269 0
M  V30 406 H 33.0273 -1.3303 0.820534 0
M  V30 407 H 33.7623 -3.0811 -1.01187 0
M  V30 408 H 33.5473 -3.87889 0.57309 0
M  V30 409 H 35.0373 -4.15898 -0.376645 0
M  V30 410 N 35.4744 -0.807222 -1.35358 0
M  V30 411 C 36.3844 -0.219594 -2.3357 0
M  V30 412 C 37.4004 0.637734 -1.61892 0
M  V30 413 O 38.5764 0.549336 -1.93763 0
M  V30 414 C 35.6414 0.62158 -3.41083 0
M  V30 415 C 34.7024 -0.256315 -4.28534 0
M  V30 416 C 33.9354 0.544807 -5.30912 0
M  V30 417 O 34.1584 1.77944 -5.41934 0
M  V30 418 O 33.0924 -0.0646478 -6.01865 0
M  V30 419 H 36.9184 -1.03208 -2.85625 0
M  V30 420 H 34.5034 -0.569025 -1.38139 0
M  V30 421 H 36.3854 1.10067 -4.06772 0
M  V30 422 H 35.0604 1.41165 -2.91297 0
M  V30 423 H 33.9674 -0.782559 -3.65823 0
M  V30 424 H 35.3004 -1.01034 -4.81719 0
M  V30 425 N 36.9525 1.47285 -0.560781 0
M  V30 426 C 37.8825 2.32857 0.173105 0
M  V30 427 C 38.8635 1.44009 0.905281 0
M  V30 428 O 40.0485 1.7286 0.885046 0
M  V30 429 C 37.1785 3.25861 1.20133 0
M  V30 430 C 36.1325 4.23978 0.585388 0
M  V30 431 C 35.4585 5.06332 1.7185 0
M  V30 432 C 36.7585 5.20242 -0.463178 0
M  V30 433 H 38.4525 2.94466 -0.541307 0
M  V30 434 H 35.9985 1.41601 -0.261764 0
M  V30 435 H 37.9515 3.84569 1.72293 0
M  V30 436 H 36.6755 2.62315 1.94573 0
M  V30 437 H 35.3345 3.66501 0.085054 0
M  V30 438 H 34.9825 4.39186 2.45203 0
M  V30 439 H 34.6825 5.72762 1.31213 0
M  V30 440 H 36.2065 5.67899 2.24329 0
M  V30 441 H 37.6205 5.73293 -0.027502 0
M  V30 442 H 36.0175 5.94896 -0.788627 0
M  V30 443 H 37.0875 4.65504 -1.35773 0
M  V30 444 N 38.4306 0.297415 1.54768 0
M  V30 445 C 39.7076 -0.365847 1.92148 0
M  V30 446 C 40.0876 -1.71975 1.22424 0
M  V30 447 O 39.4356 -2.25666 0.358739 0
M  V30 448 C 39.6456 -0.484056 3.45627 0
M  V30 449 C 40.9936 -0.756594 4.17805 0
M  V30 450 O 42.0176 -0.568007 3.51642 0
M  V30 451 O 40.8766 -1.11863 5.34929 0
M  V30 452 H 37.9706 -0.203919 0.801465 0
M  V30 453 H 40.5166 0.34521 1.66152 0
M  V30 454 H 39.2886 0.467865 3.88493 0
M  V30 455 H 38.9116 -1.24372 3.77647 0
M  V30 456 N 39.9087 -1.5758 0.0250728 0
M  V30 457 C 41.1577 -1.90811 -0.653767 0
M  V30 458 C 41.4707 -0.90273 -1.73523 0
M  V30 459 O 42.6767 -1.12614 -2.47043 0
M  V30 460 C 41.1327 -3.38804 -1.21409 0
M  V30 461 C 40.7407 -4.47692 -0.166126 0
M  V30 462 C 42.4847 -3.81108 -1.86967 0
M  V30 463 C 40.3917 -5.86779 -0.737856 0
M  V30 464 H 39.3217 -0.712063 -0.247956 0
M  V30 465 H 41.9727 -1.83281 0.0897137 0
M  V30 466 H 40.3547 -3.41252 -2.00905 0
M  V30 467 H 41.5287 -4.56797 0.606079 0
M  V30 468 H 39.8437 -4.14565 0.390466 0
M  V30 469 H 42.4407 -4.82375 -2.30692 0
M  V30 470 H 42.7837 -3.15953 -2.71071 0
M  V30 471 H 43.3167 -3.81065 -1.14167 0
M  V30 472 H 40.0557 -6.55468 0.0649577 0
M  V30 473 H 39.5757 -5.81288 -1.47864 0
M  V30 474 H 41.2547 -6.35223 -1.22884 0
M  V30 475 N 41.3868 0.248026 -1.55636 0
M  V30 476 C 42.6118 0.998028 -1.81808 0
M  V30 477 C 43.0368 1.78207 -0.601979 0
M  V30 478 O 42.3948 1.75653 0.448961 0
M  V30 479 C 42.4428 1.9125 -3.05705 0
M  V30 480 O 41.5468 3.00406 -2.82542 0
M  V30 481 H 40.8878 0.284045 -0.600179 0
M  V30 482 H 43.4178 0.269357 -2.02819 0
M  V30 483 H 43.4278 2.32737 -3.35108 0
M  V30 484 H 42.1028 1.33602 -3.93857 0
M  V30 485 H 40.6798 2.63056 -2.64303 0
M  V30 486 N 42.8649 1.48995 0.513639 0
M  V30 487 C 44.0929 1.61531 1.29288 0
M  V30 488 C 44.5079 0.281801 1.86685 0
M  V30 489 O 43.8649 -0.731111 1.67215 0
M  V30 490 C 43.9159 2.67449 2.43215 0
M  V30 491 O 43.6369 3.95626 1.88179 0
M  V30 492 C 45.1379 2.90575 3.34785 0
M  V30 493 H 42.3579 0.544165 0.392588 0
M  V30 494 H 44.9019 1.9494 0.617956 0
M  V30 495 H 43.0569 2.36853 3.0656 0
M  V30 496 H 43.4709 4.53868 2.62876 0
M  V30 497 H 44.9449 3.68449 4.11035 0
M  V30 498 H 45.4219 2.00011 3.91015 0
M  V30 499 H 46.0279 3.22538 2.77218 0
M  V30 500 N 44.343 -0.763751 1.37857 0
M  V30 501 C 45.589 -1.52483 1.33704 0
M  V30 502 C 45.922 -1.94051 -0.0759612 0
M  V30 503 O 45.197 -1.64675 -1.03501 0
M  V30 504 C 45.48 -2.78441 2.28348 0
M  V30 505 C 45.333 -2.43075 3.78463 0
M  V30 506 C 46.652 -3.80415 2.21298 0
M  V30 507 H 43.771 -0.553169 0.487005 0
M  V30 508 H 46.413 -0.875562 1.68624 0
M  V30 509 H 44.563 -3.33842 1.987 0
M  V30 510 H 46.235 -1.93527 4.18742 0
M  V30 511 H 44.478 -1.75666 3.96641 0
M  V30 512 H 45.149 -3.33149 4.40132 0
M  V30 513 H 47.625 -3.34527 2.47449 0
M  V30 514 H 46.501 -4.66257 2.89647 0
M  V30 515 H 46.762 -4.25262 1.20849 0
M  V30 516 N 45.8211 -1.22559 -0.990812 0
M  V30 517 C 46.7841 -0.998863 -2.0629 0
M  V30 518 C 47.7841 0.0354834 -1.60761 0
M  V30 519 O 48.9741 -0.203231 -1.7301 0
M  V30 520 C 46.1061 -0.509203 -3.37076 0
M  V30 521 H 47.2991 -1.95014 -2.27837 0
M  V30 522 H 44.8521 -1.04456 -1.16269 0
M  V30 523 H 45.5871 0.446335 -3.21214 0
M  V30 524 H 45.3721 -1.25547 -3.71457 0
M  V30 525 H 46.8621 -0.370888 -4.1595 0
M  V30 526 N 47.2992 1.18797 -1.03562 0
M  V30 527 C 48.5482 1.87978 -0.731235 0
M  V30 528 C 48.8612 1.80911 0.743671 0
M  V30 529 O 50.0672 2.45407 1.16137 0
M  V30 530 C 48.5232 3.3721 -1.25768 0
M  V30 531 C 48.1312 3.52818 -2.76085 0
M  V30 532 C 49.8752 4.11825 -1.0296 0
M  V30 533 C 47.7822 4.9598 -3.22114 0
M  V30 534 H 46.7122 0.704063 -0.269835 0
M  V30 535 H 49.3632 1.34266 -1.25079 0
M  V30 536 H 47.7452 3.90359 -0.666011 0
M  V30 537 H 48.9192 3.09965 -3.40966 0
M  V30 538 H 47.2342 2.91602 -2.97249 0
M  V30 539 H 49.8312 5.17411 -1.34869 0
M  V30 540 H 50.1742 4.16287 0.0333546 0
M  V30 541 H 50.7072 3.64833 -1.58562 0
M  V30 542 H 47.4462 4.96684 -4.27768 0
M  V30 543 H 46.9662 5.39569 -2.61965 0
M  V30 544 H 48.6452 5.6467 -3.15844 0
M  V30 545 N 48.7773 0.814389 1.34928 0
M  V30 546 C 50.0073 0.41054 2.0248 0
M  V30 547 C 50.4153 -0.985625 1.61499 0
M  V30 548 O 49.7583 -1.64781 0.811976 0
M  V30 549 C 49.8203 0.423384 3.56998 0
M  V30 550 C 49.4843 1.77141 4.21272 0
M  V30 551 C 50.4813 2.73093 4.42398 0
M  V30 552 C 48.1663 2.05755 4.58225 0
M  V30 553 C 50.1603 3.95838 4.9959 0
M  V30 554 C 47.8473 3.28762 5.1513 0
M  V30 555 C 48.8453 4.23621 5.35755 0
M  V30 556 O 48.5333 5.44456 5.91458 0
M  V30 557 H 48.2653 0.163997 0.655806 0
M  V30 558 H 50.8193 1.10155 1.73364 0
M  V30 559 H 49.0493 -0.324276 3.85338 0
M  V30 560 H 50.7383 0.0407683 4.0588 0
M  V30 561 H 51.5043 2.5228 4.14222 0
M  V30 562 H 47.3833 1.32727 4.4148 0
M  V30 563 H 50.9273 4.69891 5.15605 0
M  V30 564 H 46.8243 3.49443 5.42734 0
M  V30 565 H 47.5923 5.4586 6.09901 0
M  V30 566 N 50.2554 -1.46986 0.568584 0
M  V30 567 C 51.4804 -2.07335 0.0520528 0
M  V30 568 C 51.9054 -1.41675 -1.23733 0
M  V30 569 O 51.2634 -0.495623 -1.74394 0
M  V30 570 C 51.3114 -3.60417 -0.11501 0
M  V30 571 O 50.4154 -3.95309 -1.17492 0
M  V30 572 H 49.7564 -0.661597 0.0564385 0
M  V30 573 H 52.2864 -1.88837 0.787507 0
M  V30 574 H 52.2964 -4.06698 -0.325644 0
M  V30 575 H 50.9714 -4.07601 0.826675 0
M  V30 576 H 49.5484 -3.60757 -0.943869 0
M  V30 577 N 51.7335 -0.305618 -1.54608 0
M  V30 578 C 52.6815 0.584119 -2.25146 0
M  V30 579 C 53.6755 1.13326 -1.25911 0
M  V30 580 O 54.8815 1.08337 -1.43747 0
M  V30 581 H 51.2565 0.206983 -0.722954 0
M  V30 582 H 53.2275 -0.033291 -2.98381 0
M  V30 583 C 51.9765 1.74225 -3.009 0
M  V30 584 H 51.2995 1.32892 -3.77067 0
M  V30 585 H 52.7395 2.34077 -3.53531 0
M  V30 586 C 51.1985 2.64914 -2.0814 0
M  V30 587 O 51.7285 3.66137 -1.65246 0
M  V30 588 N 49.9345 2.3275 -1.74 0
M  V30 589 H 49.4815 1.50479 -2.09078 0
M  V30 590 H 49.4395 2.93694 -1.12211 0
M  V30 591 N 53.2116 1.57565 -0.0334293 0
M  V30 592 C 54.1216 2.13943 0.962572 0
M  V30 593 C 55.1376 1.09276 1.35406 0
M  V30 594 O 56.3136 1.41355 1.4346 0
M  V30 595 C 53.3786 2.65887 2.22497 0
M  V30 596 C 52.4396 3.85286 1.8935 0
M  V30 597 C 51.6726 4.34743 3.09571 0
M  V30 598 O 51.8956 3.83352 4.22371 0
M  V30 599 O 50.8296 5.26538 2.91618 0
M  V30 600 H 54.6556 2.99333 0.513169 0
M  V30 601 H 52.2406 1.4822 0.18743 0
M  V30 602 H 54.1226 2.99346 2.96598 0
M  V30 603 H 52.7976 1.83578 2.6661 0
M  V30 604 H 51.7046 3.56746 1.1262 0
M  V30 605 H 53.0376 4.68771 1.5005 0
M  V30 606 N 54.6897 -0.239769 1.55765 0
M  V30 607 C 55.9667 -0.990056 1.68693 0
M  V30 608 C 56.3467 -2.03107 0.5754 0
M  V30 609 O 55.6947 -2.24604 -0.42017 0
M  V30 610 C 55.9047 -1.61696 3.09282 0
M  V30 611 C 57.2527 -2.11613 3.6811 0
M  V30 612 O 58.2767 -1.71624 3.12127 0
M  V30 613 O 57.1357 -2.85057 4.66267 0
M  V30 614 H 54.2297 -0.461299 0.686391 0
M  V30 615 H 56.7757 -0.232991 1.68093 0
M  V30 616 H 55.5477 -0.864357 3.81634 0
M  V30 617 H 55.1707 -2.44005 3.13923 0
M  V30 618 N 56.1678 -1.49265 -0.50573 0
M  V30 619 C 57.1148 -1.65585 -1.6078 0
M  V30 620 C 58.0848 -0.497396 -1.58478 0
M  V30 621 O 59.2698 -0.72385 -1.76536 0
M  V30 622 C 56.4098 -1.72408 -2.98948 0
M  V30 623 C 55.5228 -2.99525 -3.11301 0
M  V30 624 C 54.6578 -2.97356 -4.40174 0
M  V30 625 C 53.6968 -4.19074 -4.46143 0
M  V30 626 N 52.8338 -4.14841 -5.66437 0
M  V30 627 H 57.6738 -2.59688 -1.46172 0
M  V30 628 H 55.2108 -1.28761 -0.711261 0
M  V30 629 H 57.1688 -1.74344 -3.79025 0
M  V30 630 H 55.7988 -0.817753 -3.1227 0
M  V30 631 H 54.8508 -3.07222 -2.24318 0
M  V30 632 H 56.1628 -3.89518 -3.11572 0
M  V30 633 H 55.3168 -2.97829 -5.28567 0
M  V30 634 H 54.0558 -2.05133 -4.42461 0
M  V30 635 H 53.0608 -4.1885 -3.56153 0
M  V30 636 H 54.2858 -5.12483 -4.45575 0
M  V30 637 H 52.2318 -3.25453 -5.69575 0
M  V30 638 H 52.1488 -4.98564 -5.68304 0
M  V30 639 H 53.4168 -4.1941 -6.57051 0
M  V30 640 N 57.6459 0.756429 -1.3826 0
M  V30 641 C 58.8709 1.55077 -1.37717 0
M  V30 642 C 59.2959 1.88073 0.03164 0
M  V30 643 O 58.6539 1.50364 1.01293 0
M  V30 644 C 58.7019 2.8283 -2.23695 0
M  V30 645 O 57.8059 3.77862 -1.6521 0
M  V30 646 H 57.1469 0.469152 -0.469885 0
M  V30 647 H 59.6769 0.935019 -1.81985 0
M  V30 648 H 59.6869 3.31783 -2.37453 0
M  V30 649 H 58.3619 2.58144 -3.2609 0
M  V30 650 H 56.9389 3.36555 -1.60578 0
M  V30 651 N 59.124 1.23083 0.984299 0
M  V30 652 C 60.349 1.088 1.76571 0
M  V30 653 C 60.774 -0.356657 1.84688 0
M  V30 654 O 60.132 -1.25788 1.30565 0
M  V30 655 C 60.18 1.71371 3.17277 0
M  V30 656 O 59.284 0.973213 4.00752 0
M  V30 657 H 58.625 0.381599 0.543395 0
M  V30 658 H 61.155 1.63057 1.23587 0
M  V30 659 H 61.165 1.76449 3.67872 0
M  V30 660 H 59.84 2.76493 3.10684 0
M  V30 661 H 58.417 0.999078 3.59267 0
M  V30 662 N 60.6021 -1.18246 1.0419 0
M  V30 663 C 61.5321 -2.24127 0.654914 0
M  V30 664 C 62.5131 -1.66617 -0.342451 0
M  V30 665 O 63.6981 -1.92924 -0.222277 0
M  V30 666 C 60.8281 -3.47295 0.0183757 0
M  V30 667 C 59.7821 -4.17563 0.939414 0
M  V30 668 C 59.1081 -5.34438 0.167286 0
M  V30 669 C 60.4081 -4.70917 2.25908 0
M  V30 670 H 62.1021 -2.56753 1.54007 0
M  V30 671 H 59.6481 -1.23414 0.74195 0
M  V30 672 H 61.6011 -4.20572 -0.264082 0
M  V30 673 H 60.3251 -3.13907 -0.901664 0
M  V30 674 H 58.9841 -3.46186 1.20628 0
M  V30 675 H 58.6321 -4.97298 -0.7552 0
M  V30 676 H 58.3321 -5.82388 0.780901 0
M  V30 677 H 59.8561 -6.10504 -0.108125 0
M  V30 678 H 61.2701 -5.35882 2.03724 0
M  V30 679 H 59.6671 -5.29406 2.82577 0
M  V30 680 H 60.7371 -3.88272 2.9047 0
M  V30 681 N 62.0802 -0.821533 -1.34494 0
M  V30 682 C 63.0302 -0.214793 -2.26986 0
M  V30 683 C 64.0142 0.620125 -1.4847 0
M  V30 684 O 65.2062 0.474933 -1.70509 0
M  V30 685 C 62.3352 0.623566 -3.37589 0
M  V30 686 C 61.4212 -0.221904 -4.23519 0
M  V30 687 N 61.8122 -1.29223 -4.89014 0
M  V30 688 C 60.1102 -0.00600922 -4.46 0
M  V30 689 C 60.8112 -1.80965 -5.52835 0
M  V30 690 N 59.7872 -1.11376 -5.32068 0
M  V30 691 H 63.5892 -1.03354 -2.75128 0
M  V30 692 H 61.1032 -0.6642 -1.48196 0
M  V30 693 H 63.1002 1.0744 -4.02818 0
M  V30 694 H 61.7602 1.44049 -2.90998 0
M  V30 695 H 62.7712 -1.67502 -4.90065 0
M  V30 696 H 59.4482 0.77886 -4.10171 0
M  V30 697 H 60.8382 -2.70502 -6.15043 0
M  V30 698 N 63.5583 1.46682 -0.576371 0
M  V30 699 C 64.9743 1.57822 -0.237562 0
M  V30 700 C 65.1743 1.57237 1.26011 0
M  V30 701 O 64.2303 1.48596 2.04146 0
M  V30 702 C 65.5433 2.87499 -0.881168 0
M  V30 703 C 67.0913 3.01119 -0.85417 0
M  V30 704 C 67.5663 4.33524 -1.4772 0
M  V30 705 N 69.0573 4.40207 -1.44125 0
M  V30 706 C 69.7923 5.4126 -1.89276 0
M  V30 707 N 69.2883 6.49021 -2.42371 0
M  V30 708 N 71.0813 5.32422 -1.80231 0
M  V30 709 H 63.2323 1.45306 -1.54919 0
M  V30 710 H 65.4953 0.692733 -0.647167 0
M  V30 711 H 65.2013 2.9372 -1.93447 0
M  V30 712 H 65.0753 3.75224 -0.385592 0
M  V30 713 H 67.4623 2.94485 0.190491 0
M  V30 714 H 67.5433 2.14887 -1.3877 0
M  V30 715 H 67.1873 4.40916 -2.52103 0
M  V30 716 H 67.1173 5.1852 -0.918947 0
M  V30 717 H 69.6083 3.62931 -1.05307 0
M  V30 718 H 69.9213 7.2233 -2.74698 0
M  V30 719 H 68.2663 6.49858 -2.46393 0
M  V30 720 H 71.4573 4.47137 -1.38514 0
M  V30 721 H 71.6303 6.11034 -2.15735 0
M  V30 722 N 65.0364 0.313813 1.54444 0
M  V30 723 C 66.2664 -0.293491 2.04505 0
M  V30 724 C 66.6744 -1.47086 1.19005 0
M  V30 725 O 66.0174 -1.82481 0.211257 0
M  V30 726 C 66.0794 -0.800455 3.50475 0
M  V30 727 C 65.7434 0.253322 4.56297 0
M  V30 728 C 66.7404 1.08612 5.08428 0
M  V30 729 C 64.4254 0.398708 5.00715 0
M  V30 730 C 66.4194 2.05013 6.0353 0
M  V30 731 C 64.1064 1.36614 5.95634 0
M  V30 732 C 65.1044 2.19033 6.46926 0
M  V30 733 O 64.7924 3.14134 7.39983 0
M  V30 734 H 64.5244 -0.0658325 0.672787 0
M  V30 735 H 67.0784 0.455177 2.00293 0
M  V30 736 H 65.3084 -1.59987 3.52053 0
M  V30 737 H 66.9974 -1.32504 3.83663 0
M  V30 738 H 67.7634 0.984736 4.74898 0
M  V30 739 H 63.6424 -0.23289 4.60411 0
M  V30 740 H 67.1864 2.69382 6.4349 0
M  V30 741 H 63.0834 1.4682 6.28581 0
M  V30 742 H 63.8514 3.0926 7.57826 0
M  V30 743 N 66.5145 -1.57545 0.0417849 0
M  V30 744 C 67.4615 -2.10977 -0.935805 0
M  V30 745 C 68.4315 -1.01486 -1.31491 0
M  V30 746 O 69.6165 -1.2898 -1.40602 0
M  V30 747 C 66.7565 -2.65169 -2.2086 0
M  V30 748 C 65.8695 -3.88714 -1.88482 0
M  V30 749 C 65.0045 -4.31254 -3.1015 0
M  V30 750 C 64.0435 -5.47524 -2.7365 0
M  V30 751 N 63.1805 -5.85162 -3.87982 0
M  V30 752 H 68.0205 -2.94218 -0.473249 0
M  V30 753 H 65.5575 -1.45415 -0.221981 0
M  V30 754 H 67.5155 -2.94685 -2.95325 0
M  V30 755 H 66.1455 -1.8474 -2.64709 0
M  V30 756 H 65.1975 -3.65849 -1.04205 0
M  V30 757 H 66.5095 -4.73245 -1.57608 0
M  V30 758 H 65.6635 -4.62273 -3.92923 0
M  V30 759 H 64.4025 -3.45516 -3.44195 0
M  V30 760 H 63.4075 -5.16187 -1.89291 0
M  V30 761 H 64.6325 -6.34971 -2.40807 0
M  V30 762 H 62.5785 -5.02377 -4.21846 0
M  V30 763 H 62.4955 -6.64362 -3.60775 0
M  V30 764 H 63.7635 -6.20791 -4.71422 0
M  V30 765 N 67.9926 0.231505 -1.5589 0
M  V30 766 C 68.9556 1.27028 -1.90779 0
M  V30 767 C 69.9556 1.40308 -0.785507 0
M  V30 768 O 71.1456 1.38744 -1.05336 0
M  V30 769 C 68.2776 2.64566 -2.14983 0
M  V30 770 H 69.4706 0.973017 -2.83677 0
M  V30 771 H 67.0236 0.471486 -1.49019 0
M  V30 772 H 67.7586 2.99406 -1.24604 0
M  V30 773 H 67.5436 2.56305 -2.96732 0
M  V30 774 H 69.0336 3.39543 -2.43105 0
M  V30 775 N 69.4707 1.49531 0.497807 0
M  V30 776 C 70.7477 1.49682 1.25915 0
M  V30 777 C 71.1277 0.226339 2.09883 0
M  V30 778 O 70.4757 -0.791189 2.14365 0
M  V30 779 C 70.6857 2.77755 2.11313 0
M  V30 780 C 72.0337 3.27371 2.70395 0
M  V30 781 O 73.0577 2.78894 2.21578 0
M  V30 782 O 71.9167 4.11808 3.59272 0
M  V30 783 H 69.0107 0.599228 0.56996 0
M  V30 784 H 71.5567 1.61798 0.511816 0
M  V30 785 H 70.3287 3.61713 1.49264 0
M  V30 786 H 69.9517 2.68515 2.93233 0
M  V30 787 N 70.9488 -0.749086 1.3866 0
M  V30 788 C 71.8588 -1.89358 1.38494 0
M  V30 789 C 72.8748 -1.71708 0.281476 0
M  V30 790 O 74.0508 -1.94554 0.520643 0
M  V30 791 C 71.1158 -3.24782 1.21316 0
M  V30 792 C 70.1768 -3.54926 2.41508 0
M  V30 793 C 69.4098 -4.83888 2.2514 0
M  V30 794 O 69.6328 -5.56592 1.24746 0
M  V30 795 O 68.5668 -5.13612 3.13826 0
M  V30 796 H 72.3928 -1.92452 2.34938 0
M  V30 797 H 69.9778 -0.894981 1.19626 0
M  V30 798 H 71.8598 -4.05739 1.13814 0
M  V30 799 H 70.5348 -3.2249 0.279592 0
M  V30 800 H 69.4418 -2.74112 2.54585 0
M  V30 801 H 70.7748 -3.61983 3.3351 0
M  V30 802 N 72.4269 -1.23603 -0.977757 0
M  V30 803 C 73.6519 -1.09735 -1.75991 0
M  V30 804 C 74.0769 0.346858 -1.84874 0
M  V30 805 O 73.4349 1.25093 -1.3123 0
M  V30 806 C 73.4829 -1.73051 -3.16363 0
M  V30 807 O 72.5869 -0.994452 -4.0023 0
M  V30 808 H 71.9279 -0.384476 -0.541364 0
M  V30 809 H 74.4579 -1.6371 -1.2272 0
M  V30 810 H 74.4679 -1.78398 -3.66931 0
M  V30 811 H 73.1429 -2.78137 -3.09213 0
M  V30 812 H 71.7199 -1.01812 -3.58732 0
M  V30 813 N 73.905 1.17692 -1.04816 0
M  V30 814 C 75.135 1.91508 -0.775128 0
M  V30 815 C 75.543 1.76844 0.67253 0
M  V30 816 O 74.886 1.10057 1.47082 0
M  V30 817 C 74.948 3.43167 -1.0713 0
M  V30 818 C 74.612 3.81612 -2.51438 0
M  V30 819 C 75.609 3.84772 -3.49638 0
M  V30 820 C 73.294 4.12687 -2.86348 0
M  V30 821 C 75.288 4.18469 -4.80794 0
M  V30 822 C 72.975 4.46053 -4.17708 0
M  V30 823 C 73.973 4.48921 -5.14741 0
M  V30 824 O 73.661 4.81504 -6.43746 0
M  V30 825 H 73.393 0.614575 -0.281555 0
M  V30 826 H 75.947 1.50206 -1.40098 0
M  V30 827 H 74.177 3.84745 -0.388342 0
M  V30 828 H 75.866 3.98239 -0.784883 0
M  V30 829 H 76.632 3.60893 -3.24008 0
M  V30 830 H 72.511 4.09627 -2.11486 0
M  V30 831 H 76.055 4.20623 -5.56527 0
M  V30 832 H 71.952 4.69393 -4.43103 0
M  V30 833 H 72.72 4.99377 -6.4851 0
M  V30 834 N 75.3831 0.828654 1.34056 0
M  V30 835 C 76.3131 0.269443 2.3194 0
M  V30 836 C 77.2941 -0.617247 1.58506 0
M  V30 837 O 78.4791 -0.542931 1.86456 0
M  V30 838 C 75.6091 -0.564793 3.42677 0
M  V30 839 C 74.5631 0.225241 4.27407 0
M  V30 840 C 73.8891 -0.7321 5.29664 0
M  V30 841 C 75.1891 1.43663 5.02154 0
M  V30 842 H 76.8831 1.08728 2.7896 0
M  V30 843 H 74.4291 0.524283 1.34117 0
M  V30 844 H 76.3821 -0.966233 4.10173 0
M  V30 845 H 75.1061 -1.41574 2.9432 0
M  V30 846 H 73.7651 0.608117 3.61521 0
M  V30 847 H 73.4131 -1.57916 4.77568 0
M  V30 848 H 73.1131 -0.20767 5.87233 0
M  V30 849 H 74.6371 -1.13128 6.00029 0
M  V30 850 H 76.0511 1.1089 5.62473 0
M  V30 851 H 74.4481 1.89711 5.69324 0
M  V30 852 H 75.5181 2.21181 4.31517 0
M  V30 853 N 76.8612 -1.46375 0.584142 0
M  V30 854 C 78.1072 -2.02678 0.0703716 0
M  V30 855 C 78.4402 -1.4545 -1.28678 0
M  V30 856 O 77.7152 -0.62014 -1.84349 0
M  V30 857 C 77.9982 -3.60099 0.00614674 0
M  V30 858 C 77.8512 -4.27709 1.3923 0
M  V30 859 C 79.1702 -4.34598 -0.693742 0
M  V30 860 H 76.2892 -0.736504 0.027047 0
M  V30 861 H 78.9312 -1.74501 0.751615 0
M  V30 862 H 77.0812 -3.84236 -0.574009 0
M  V30 863 H 78.7532 -4.14832 2.01773 0
M  V30 864 H 76.9962 -3.87016 1.95962 0
M  V30 865 H 77.6672 -5.36478 1.29982 0
M  V30 866 H 80.1432 -4.15615 -0.200869 0
M  V30 867 H 79.0192 -5.44318 -0.707714 0
M  V30 868 H 79.2802 -4.05759 -1.75533 0
M  V30 869 N 78.3393 -0.321999 -1.54275 0
M  V30 870 C 79.5873 0.280489 -2.00144 0
M  V30 871 C 79.9083 1.52777 -1.21178 0
M  V30 872 O 79.1783 1.9338 -0.313187 0
M  V30 873 H 77.7583 0.106632 -0.73935 0
M  V30 874 H 80.4203 -0.438184 -1.8991 0
M  V30 875 H 79.5163 0.537972 -3.07428 0
M  V30 876 N 79.8174 1.5752 -0.0501392 0
M  V30 877 C 81.0424 1.97376 0.636997 0
M  V30 878 C 81.4674 0.927466 1.63645 0
M  V30 879 O 80.8254 -0.10941 1.8097 0
M  V30 880 C 80.8734 3.36304 1.30123 0
M  V30 881 O 79.9774 3.34156 2.41689 0
M  V30 882 H 79.3184 0.642998 0.165679 0
M  V30 883 H 81.8484 2.04258 -0.118233 0
M  V30 884 H 81.8584 3.73008 1.65315 0
M  V30 885 H 80.5334 4.11993 0.568746 0
M  V30 886 H 79.1104 3.09196 2.08451 0
M  V30 887 N 81.2955 -0.223234 1.56011 0
M  V30 888 C 82.5725 -0.972108 1.69733 0
M  V30 889 C 82.9525 -2.02485 0.59691 0
M  V30 890 O 82.3005 -2.25037 -0.396324 0
M  V30 891 C 82.5105 -1.58407 3.10979 0
M  V30 892 C 83.8585 -2.07696 3.70334 0
M  V30 893 O 84.8825 -1.68304 3.1393 0
M  V30 894 O 83.7415 -2.80096 4.69264 0
M  V30 895 H 80.8355 -0.453993 0.691245 0
M  V30 896 H 83.3815 -0.215149 1.68331 0
M  V30 897 H 82.1535 -0.823831 3.82529 0
M  V30 898 H 81.7765 -2.40661 3.16493 0
M  V30 899 N 82.7736 -1.49793 -0.48987 0
M  V30 900 C 83.7036 -1.70201 -1.59856 0
M  V30 901 C 84.6846 -0.55076 -1.60937 0
M  V30 902 O 85.8696 -0.787841 -1.77501 0
M  V30 903 C 82.9996 -1.77882 -2.98287 0
M  V30 904 C 81.9536 -2.92907 -3.12073 0
M  V30 905 C 81.2796 -2.85712 -4.51965 0
M  V30 906 C 82.5796 -4.3369 -2.91051 0
M  V30 907 H 84.2736 -2.63025 -1.43032 0
M  V30 908 H 81.8196 -1.26574 -0.686664 0
M  V30 909 H 83.7726 -1.90744 -3.75759 0
M  V30 910 H 82.4966 -0.816653 -3.16225 0
M  V30 911 H 81.1556 -2.79665 -2.37029 0
M  V30 912 H 80.8036 -1.8738 -4.66795 0
M  V30 913 H 80.5036 -3.62921 -4.62128 0
M  V30 914 H 82.0276 -3.00598 -5.31482 0
M  V30 915 H 83.4416 -4.47555 -3.58284 0
M  V30 916 H 81.8386 -5.12205 -3.12675 0
M  V30 917 H 82.9086 -4.47362 -1.87071 0
M  V30 918 N 84.2517 0.741722 -1.39055 0
M  V30 919 C 85.4997 1.49818 -1.35643 0
M  V30 920 C 85.8207 1.94938 0.0491642 0
M  V30 921 O 85.0907 1.68505 0.999141 0
M  V30 922 H 83.6707 0.555755 -0.499144 0
M  V30 923 H 86.3327 0.880957 -1.73854 0
M  V30 924 H 85.4287 2.38348 -2.01486 0
M  V30 925 N 85.7298 1.2412 0.971189 0
M  V30 926 C 87.1408 1.07236 1.52831 0
M  V30 927 C 87.4918 -0.357352 1.92918 0
M  V30 928 O 86.6168 -1.24528 1.76979 0
M  V30 929 C 87.2118 1.94043 2.77728 0
M  V30 930 C 85.7708 1.81394 3.29808 0
M  V30 931 C 84.9178 1.89189 2.02738 0
M  V30 932 H 87.8688 1.37648 0.789864 0
M  V30 933 H 87.8898 1.47066 3.5093 0
M  V30 934 H 87.4018 2.98093 2.4852 0
M  V30 935 H 85.5028 0.801634 3.63874 0
M  V30 936 H 85.6158 2.65294 3.98944 0
M  V30 937 H 83.9798 1.32877 2.17292 0
M  V30 938 H 84.7628 2.94812 1.759 0
M  V30 939 N 87.2079 -1.17134 1.05439 0
M  V30 940 C 88.1709 -2.19439 0.661764 0
M  V30 941 C 89.1709 -1.58199 -0.288042 0
M  V30 942 O 90.3609 -1.74053 -0.0715803 0
M  V30 943 C 87.4929 -3.40889 -0.0276209 0
M  V30 944 H 88.6859 -2.55688 1.56728 0
M  V30 945 H 86.2389 -1.31259 0.848567 0
M  V30 946 H 86.9739 -3.10187 -0.94629 0
M  V30 947 H 86.7589 -3.86586 0.655238 0
M  V30 948 H 88.2489 -4.16603 -0.288342 0
M  V30 949 N 88.686 -0.835752 -1.33615 0
M  V30 950 C 89.596 -0.269088 -2.33052 0
M  V30 951 C 90.612 0.603251 -1.63208 0
M  V30 952 O 91.788 0.508112 -1.94885 0
M  V30 953 C 88.853 0.549091 -3.42324 0
M  V30 954 C 87.914 -0.347156 -4.27894 0
M  V30 955 C 87.147 0.43207 -5.31948 0
M  V30 956 O 87.37 1.66409 -5.45586 0
M  V30 957 O 86.304 -0.192298 -6.01593 0
M  V30 958 H 90.13 -1.09243 -2.83372 0
M  V30 959 H 87.715 -0.598198 -1.36901 0
M  V30 960 H 89.597 1.01414 -4.09015 0
M  V30 961 H 88.272 1.34955 -2.94226 0
M  V30 962 H 87.179 -0.859979 -3.64081 0
M  V30 963 H 88.512 -1.1123 -4.79467 0
M  V30 964 N 90.1641 1.46063 -0.591896 0
M  V30 965 C 91.3891 2.07226 -0.0850314 0
M  V30 966 C 91.8141 1.43625 1.21463 0
M  V30 967 O 91.1721 0.523305 1.73583 0
M  V30 968 C 91.2201 3.60554 0.0576567 0
M  V30 969 O 90.3241 3.97128 1.11188 0
M  V30 970 H 89.6651 0.660615 -0.0669568 0
M  V30 971 H 92.1951 1.8756 -0.81745 0
M  V30 972 H 92.2051 4.07165 0.2609 0
M  V30 973 H 90.8801 4.06235 -0.891416 0
M  V30 974 H 89.4571 3.62213 0.886356 0
M  V30 975 N 91.6422 0.330177 1.54103 0
M  V30 976 C 92.8722 -0.271784 2.04805 0
M  V30 977 C 93.2802 -1.45816 1.20559 0
M  V30 978 O 92.6232 -1.82247 0.2306 0
M  V30 979 C 92.6852 -0.763238 3.51305 0
M  V30 980 C 92.3492 0.301705 4.56003 0
M  V30 981 C 93.3462 1.13999 5.07248 0
M  V30 982 C 91.0312 0.451793 5.00264 0
M  V30 983 C 93.0252 2.11402 6.01322 0
M  V30 984 C 90.7122 1.42924 5.94151 0
M  V30 985 C 91.7102 2.25882 6.44567 0
M  V30 986 O 91.3982 3.21965 7.3661 0
M  V30 987 H 91.1302 -0.058693 0.673447 0
M  V30 988 H 93.6842 0.476395 1.99799 0
M  V30 989 H 91.9142 -1.56244 3.5373 0
M  V30 990 H 93.6032 -1.28427 3.85047 0
M  V30 991 H 94.3692 1.03505 4.73827 0
M  V30 992 H 90.2482 -0.184044 4.60632 0
M  V30 993 H 93.7922 2.76192 6.40596 0
M  V30 994 H 89.6892 1.53479 6.26988 0
M  V30 995 H 90.4572 3.17281 7.54503 0
M  V30 996 N 93.1203 -1.57491 0.0584922 0
M  V30 997 C 94.0503 -2.14988 -0.911178 0
M  V30 998 C 95.0313 -1.07343 -1.31952 0
M  V30 999 O 96.2163 -1.35318 -1.39294 0
M  V30 1000 C 93.3463 -2.70078 -2.18347 0
M  V30 1001 C 92.3003 -3.82771 -1.91495 0
M  V30 1002 C 91.6263 -4.24408 -3.25241 0
M  V30 1003 C 92.9263 -5.07592 -1.23075 0
M  V30 1004 H 94.6203 -2.96263 -0.432246 0
M  V30 1005 H 92.1663 -1.42512 -0.206469 0
M  V30 1006 H 94.1193 -3.08943 -2.86587 0
M  V30 1007 H 92.8433 -1.86005 -2.68458 0
M  V30 1008 H 91.5023 -3.44389 -1.25664 0
M  V30 1009 H 91.1503 -3.37275 -3.73168 0
M  V30 1010 H 90.8503 -5.00366 -3.08071 0
M  V30 1011 H 92.3743 -4.65879 -3.94701 0
M  V30 1012 H 93.7883 -5.43857 -1.81362 0
M  V30 1013 H 92.1853 -5.88741 -1.16207 0
M  V30 1014 H 93.2553 -4.84454 -0.207847 0
M  V30 1015 N 94.5984 0.214957 -1.56127 0
M  V30 1016 C 95.5464 1.28601 -1.93816 0
M  V30 1017 C 96.5404 1.48175 -0.821016 0
M  V30 1018 O 97.7464 1.49271 -1.0059 0
M  V30 1019 H 94.1214 0.431302 -0.616022 0
M  V30 1020 H 96.0924 0.940991 -2.83175 0
M  V30 1021 C 94.8414 2.62779 -2.27689 0
M  V30 1022 H 94.1644 2.48527 -3.13168 0
M  V30 1023 H 95.6044 3.36517 -2.57939 0
M  V30 1024 C 94.0634 3.18285 -1.10436 0
M  V30 1025 O 94.5934 4.00002 -0.368945 0
M  V30 1026 N 92.7994 2.7675 -0.886433 0
M  V30 1027 H 92.3464 2.10404 -1.48619 0
M  V30 1028 H 92.3044 3.14229 -0.103656 0
M  V30 1029 N 96.0765 1.50051 0.48192 0
M  V30 1030 C 97.3255 1.59741 1.23149 0
M  V30 1031 C 97.6385 0.298163 1.93314 0
M  V30 1032 O 98.8445 0.273835 2.70116 0
M  V30 1033 C 97.3005 2.81926 2.23708 0
M  V30 1034 C 96.9085 4.18685 1.59396 0
M  V30 1035 C 98.6525 3.00956 2.99375 0
M  V30 1036 C 96.5595 5.3207 2.58178 0
M  V30 1037 H 95.4895 0.594838 0.46334 0
M  V30 1038 H 98.1405 1.76467 0.503169 0
M  V30 1039 H 96.5225 2.58736 2.99786 0
M  V30 1040 H 97.6965 4.52088 0.891811 0
M  V30 1041 H 96.0115 4.05171 0.960503 0
M  V30 1042 H 98.6085 3.82836 3.73283 0
M  V30 1043 H 98.9515 2.12258 3.58123 0
M  V30 1044 H 99.4845 3.24277 2.30411 0
M  V30 1045 H 96.2235 6.22888 2.04184 0
M  V30 1046 H 95.7435 5.03098 3.26577 0
M  V30 1047 H 97.4225 5.62196 3.20225 0
M  V30 1048 N 97.5546 -0.734337 1.39446 0
M  V30 1049 C 98.4646 -1.87879 1.40495 0
M  V30 1050 C 99.4806 -1.714 0.299672 0
M  V30 1051 O 100.657 -1.93991 0.541249 0
M  V30 1052 C 97.7216 -3.23477 1.24754 0
M  V30 1053 C 96.7826 -3.52344 2.45259 0
M  V30 1054 C 96.0156 -4.81473 2.30259 0
M  V30 1055 O 96.2386 -5.55237 1.30643 0
M  V30 1056 O 95.1726 -5.10254 3.19256 0
M  V30 1057 H 98.9986 -1.89949 2.36966 0
M  V30 1058 H 96.5836 -0.882243 1.20569 0
M  V30 1059 H 98.4656 -4.04509 1.18111 0
M  V30 1060 H 97.1406 -3.22176 0.313781 0
M  V30 1061 H 96.0476 -2.71396 2.57478 0
M  V30 1062 H 97.3806 -3.58426 3.37331 0
M  V30 1063 N 99.0327 -1.24633 -0.964593 0
M  V30 1064 C 100.449 -1.01239 -1.2338 0
M  V30 1065 C 100.649 0.2769 -1.99588 0
M  V30 1066 O 99.7047 0.992241 -2.32187 0
M  V30 1067 C 101.018 -2.22937 -2.01791 0
M  V30 1068 C 102.566 -2.27594 -2.14872 0
M  V30 1069 C 103.041 -3.48921 -2.96678 0
M  V30 1070 N 104.532 -3.49257 -3.04259 0
M  V30 1071 C 105.267 -4.39795 -3.67924 0
M  V30 1072 N 104.763 -5.40591 -4.33281 0
M  V30 1073 N 106.556 -4.275 -3.64966 0
M  V30 1074 H 98.7067 -2.0748 -0.454502 0
M  V30 1075 H 100.97 -0.910647 -0.26349 0
M  V30 1076 H 100.676 -3.16587 -1.53184 0
M  V30 1077 H 100.55 -2.25306 -3.02518 0
M  V30 1078 H 102.937 -1.34473 -2.6268 0
M  V30 1079 H 103.018 -2.2925 -1.13482 0
M  V30 1080 H 102.662 -4.42359 -2.49562 0
M  V30 1081 H 102.592 -3.4451 -3.98272 0
M  V30 1082 H 105.083 -2.76337 -2.57771 0
M  V30 1083 H 105.396 -6.05904 -4.79687 0
M  V30 1084 H 103.741 -5.44475 -4.3194 0
M  V30 1085 H 106.932 -3.47987 -3.13086 0
M  V30 1086 H 107.105 -4.98258 -4.14298 0
M  V30 1087 N 100.511 1.16574 -1.06058 0
M  V30 1088 C 101.76 1.86385 -0.770944 0
M  V30 1089 C 102.073 1.82448 0.705129 0
M  V30 1090 O 103.279 2.47815 1.10905 0
M  V30 1091 C 101.735 3.34466 -1.32893 0
M  V30 1092 C 101.343 3.46883 -2.83507 0
M  V30 1093 C 103.087 4.09548 -1.11672 0
M  V30 1094 C 100.994 4.89036 -3.32562 0
M  V30 1095 H 99.9238 0.698181 -0.284709 0
M  V30 1096 H 102.575 1.31583 -1.27899 0
M  V30 1097 H 100.957 3.88859 -0.748662 0
M  V30 1098 H 102.131 3.02663 -3.47465 0
M  V30 1099 H 100.446 2.85232 -3.03368 0
M  V30 1100 H 103.043 5.14434 -1.45814 0
M  V30 1101 H 103.386 4.16264 -0.0549535 0
M  V30 1102 H 103.919 3.61387 -1.66265 0
M  V30 1103 H 100.658 4.87499 -4.38207 0
M  V30 1104 H 100.178 5.3389 -2.73351 0
M  V30 1105 H 101.857 5.57843 -3.2775 0
M  V30 1106 N 101.989 0.842826 1.3317 0
M  V30 1107 C 103.238 0.436738 1.96915 0
M  V30 1108 C 103.551 -1.01025 1.67491 0
M  V30 1109 O 104.757 -1.5212 2.24881 0
M  V30 1110 C 103.213 0.730021 3.52418 0
M  V30 1111 C 102.821 2.19195 3.90714 0
M  V30 1112 C 104.565 0.391076 4.22695 0
M  V30 1113 C 102.472 2.42907 5.39212 0
M  V30 1114 H 101.402 0.15958 0.736919 0
M  V30 1115 H 104.053 1.03196 1.51733 0
M  V30 1116 H 102.435 0.0643755 3.95948 0
M  V30 1117 H 103.609 2.8984 3.58231 0
M  V30 1118 H 101.924 2.49425 3.33431 0
M  V30 1119 H 104.521 0.545817 5.31907 0
M  V30 1120 H 104.864 -0.666294 4.10933 0
M  V30 1121 H 105.397 1.01212 3.84709 0
M  V30 1122 H 102.136 3.47224 5.55982 0
M  V30 1123 H 101.656 1.76827 5.73142 0
M  V30 1124 H 103.335 2.2626 6.06148 0
M  V30 1125 N 103.467 -1.45747 0.599634 0
M  V30 1126 C 104.744 -1.95585 0.0240846 0
M  V30 1127 C 105.124 -1.54217 -1.44154 0
M  V30 1128 O 104.472 -0.800903 -2.14004 0
M  V30 1129 C 104.682 -3.48344 0.21385 0
M  V30 1130 C 106.03 -4.24504 0.0904902 0
M  V30 1131 O 107.054 -3.55911 0.143558 0
M  V30 1132 O 105.913 -5.46491 -0.0310766 0
M  V30 1133 H 103.007 -0.82602 -0.0402478 0
M  V30 1134 H 105.553 -1.55951 0.669139 0
M  V30 1135 H 104.325 -3.71397 1.23206 0
M  V30 1136 H 103.948 -3.9485 -0.466842 0
M  V30 1137 N 104.945 -0.338344 -1.53925 0
M  V30 1138 C 106.191 0.260143 -2.01125 0
M  V30 1139 C 106.524 1.50617 -1.22589 0
M  V30 1140 O 105.799 1.91979 -0.312113 0
M  V30 1141 C 106.082 0.579499 -3.55407 0
M  V30 1142 C 105.935 -0.678264 -4.44657 0
M  V30 1143 C 107.254 1.39122 -4.17532 0
M  V30 1144 H 104.373 0.0930772 -0.731099 0
M  V30 1145 H 107.015 -0.457852 -1.84401 0
M  V30 1146 H 105.165 1.19118 -3.69788 0
M  V30 1147 H 106.837 -1.31631 -4.42121 0
M  V30 1148 H 105.08 -1.3042 -4.13731 0
M  V30 1149 H 105.751 -0.410143 -5.50474 0
M  V30 1150 H 108.227 0.874035 -4.06817 0
M  V30 1151 H 107.103 1.58342 -5.25565 0
M  V30 1152 H 107.364 2.39178 -3.71815 0
M  V30 1153 N 106.423 1.57458 -0.0668435 0
M  V30 1154 C 107.386 2.11323 0.887422 0
M  V30 1155 C 108.386 1.03618 1.22964 0
M  V30 1156 O 109.576 1.29626 1.16373 0
M  V30 1157 C 106.708 2.61048 2.19242 0
M  V30 1158 H 107.901 2.96942 0.420194 0
M  V30 1159 H 105.454 1.55239 0.181793 0
M  V30 1160 H 106.189 1.78868 2.70512 0
M  V30 1161 H 105.974 3.39769 1.95702 0
M  V30 1162 H 107.464 3.02814 2.87565 0
M  V30 1163 N 107.901 -0.206675 1.56239 0
M  V30 1164 C 108.848 -1.25617 1.93621 0
M  V30 1165 C 109.818 -1.45824 0.795274 0
M  V30 1166 O 111.003 -1.59148 1.05245 0
M  V30 1167 C 108.143 -2.59839 2.27107 0
M  V30 1168 C 107.256 -2.47308 3.54207 0
M  V30 1169 C 106.391 -3.74155 3.7707 0
M  V30 1170 C 105.43 -3.56407 4.97635 0
M  V30 1171 N 104.567 -4.75238 5.1681 0
M  V30 1172 H 109.407 -0.930383 2.83104 0
M  V30 1173 H 106.944 -0.448065 1.4011 0
M  V30 1174 H 108.902 -3.38021 2.44535 0
M  V30 1175 H 107.532 -2.90485 1.40778 0
M  V30 1176 H 106.584 -1.60483 3.4489 0
M  V30 1177 H 107.896 -2.30122 4.42544 0
M  V30 1178 H 107.05 -4.60778 3.94675 0
M  V30 1179 H 105.789 -3.94282 2.87042 0
M  V30 1180 H 104.794 -2.68168 4.79964 0
M  V30 1181 H 106.019 -3.37736 5.89161 0
M  V30 1182 H 103.965 -4.95651 4.29728 0
M  V30 1183 H 103.882 -4.60835 5.99306 0
M  V30 1184 H 105.15 -5.63246 5.38864 0
M  V30 1185 N 109.379 -1.50304 -0.473955 0
M  V30 1186 C 110.311 -1.65109 -1.58971 0
M  V30 1187 C 111.324 -0.532676 -1.53839 0
M  V30 1188 O 112.513 -0.805751 -1.59279 0
M  V30 1189 C 109.613 -1.61684 -2.97845 0
M  V30 1190 C 108.786 -2.8951 -3.27876 0
M  V30 1191 C 107.845 -2.78768 -4.4629 0
M  V30 1192 O 106.871 -3.52722 -4.46739 0
M  V30 1193 N 108.073 -1.9213 -5.47783 0
M  V30 1194 H 110.838 -2.61347 -1.46689 0
M  V30 1195 H 108.399 -1.47732 -0.662324 0
M  V30 1196 H 110.391 -1.52114 -3.75024 0
M  V30 1197 H 108.961 -0.731925 -3.03911 0
M  V30 1198 H 108.181 -3.13228 -2.39336 0
M  V30 1199 H 109.469 -3.74199 -3.4475 0
M  V30 1200 H 108.867 -1.31353 -5.50239 0
M  V30 1201 H 107.424 -1.88466 -6.23958 0
M  V30 1202 N 110.857 0.726932 -1.39834 0
M  V30 1203 C 111.82 1.82269 -1.38962 0
M  V30 1204 C 112.82 1.58248 -0.285334 0
M  V30 1205 O 114.01 1.65499 -0.54366 0
M  V30 1206 C 111.142 3.20186 -1.17019 0
M  V30 1207 H 112.335 1.84443 -2.36476 0
M  V30 1208 H 109.888 0.931416 -1.25516 0
M  V30 1209 H 110.623 3.23669 -0.202204 0
M  V30 1210 H 110.408 3.3902 -1.96998 0
M  V30 1211 H 111.898 4.00235 -1.1917 0
M  V30 1212 N 112.336 1.25143 0.95797 0
M  V30 1213 C 113.284 1.05019 2.07542 0
M  V30 1214 C 114.278 -0.0178751 1.69391 0
M  V30 1215 O 115.484 0.137472 1.79474 0
M  V30 1216 H 111.859 0.32265 0.679265 0
M  V30 1217 H 113.83 1.99759 2.21673 0
M  V30 1218 C 112.579 0.682074 3.40944 0
M  V30 1219 H 111.902 1.49573 3.70767 0
M  V30 1220 H 113.342 0.580945 4.20001 0
M  V30 1221 C 111.801 -0.611608 3.31302 0
M  V30 1222 O 112.331 -1.65465 3.66038 0
M  V30 1223 N 110.537 -0.595982 2.84423 0
M  V30 1224 H 110.084 0.253192 2.56353 0
M  V30 1225 H 110.042 -1.46173 2.78354 0
M  V30 1226 N 113.814 -1.1601 1.06675 0
M  V30 1227 C 115.06 -1.86909 0.786945 0
M  V30 1228 C 115.393 -1.81717 -0.685018 0
M  V30 1229 O 114.668 -1.23551 -1.50218 0
M  V30 1230 C 114.951 -3.36313 1.28707 0
M  V30 1231 C 114.804 -3.50175 2.82308 0
M  V30 1232 C 116.123 -4.3084 0.898071 0
M  V30 1233 H 113.242 -0.678677 0.287343 0
M  V30 1234 H 115.884 -1.36336 1.32334 0
M  V30 1235 H 114.034 -3.79513 0.830768 0
M  V30 1236 H 115.706 -3.15886 3.36175 0
M  V30 1237 H 113.949 -2.91959 3.20847 0
M  V30 1238 H 114.62 -4.55116 3.12368 0
M  V30 1239 H 117.096 -3.95561 1.29114 0
M  V30 1240 H 115.972 -5.33876 1.27543 0
M  V30 1241 H 116.233 -4.41662 -0.196651 0
M  V30 1242 N 115.292 -0.849877 -1.32721 0
M  V30 1243 C 116.569 -0.372405 -1.92022 0
M  V30 1244 C 116.949 1.1435 -1.77447 0
M  V30 1245 O 116.297 1.96296 -1.16962 0
M  V30 1246 C 116.507 -0.831482 -3.3895 0
M  V30 1247 C 117.855 -0.845882 -4.16089 0
M  V30 1248 O 118.879 -0.775806 -3.47649 0
M  V30 1249 O 117.738 -0.943753 -5.38289 0
M  V30 1250 H 114.832 -0.107667 -0.819961 0
M  V30 1251 H 117.378 -0.93646 -1.41522 0
M  V30 1252 H 116.15 -1.87448 -3.4348 0
M  V30 1253 H 115.773 -0.24461 -3.96847 0
M  V30 1254 N 116.77 1.45427 -0.607355 0
M  V30 1255 C 117.733 2.28974 0.101693 0
M  V30 1256 C 118.733 1.39754 0.795329 0
M  V30 1257 O 119.923 1.61878 0.643527 0
M  V30 1258 C 117.055 3.20768 1.15414 0
M  V30 1259 H 118.248 2.93147 -0.632844 0
M  V30 1260 H 115.801 1.51945 -0.366391 0
M  V30 1261 H 116.536 2.61395 1.91945 0
M  V30 1262 H 116.321 3.86489 0.66098 0
M  V30 1263 H 117.811 3.83589 1.65073 0
M  V30 1264 N 118.248 0.346503 1.53744 0
M  V30 1265 C 119.497 -0.250122 2.00143 0
M  V30 1266 C 119.81 -1.51418 1.23822 0
M  V30 1267 O 121.016 -2.18823 1.60713 0
M  V30 1268 C 119.472 -0.496252 3.56462 0
M  V30 1269 C 119.08 0.752077 4.41642 0
M  V30 1270 C 120.824 -1.05157 4.11269 0
M  V30 1271 C 118.731 0.476583 5.89477 0
M  V30 1272 H 117.661 -0.0972409 0.747703 0
M  V30 1273 H 120.312 0.46229 1.77581 0
M  V30 1274 H 118.694 -1.26944 3.75102 0
M  V30 1275 H 119.868 1.5266 4.34778 0
M  V30 1276 H 118.183 1.22925 3.97842 0
M  V30 1277 H 120.78 -1.27269 5.19333 0
M  V30 1278 H 121.123 -2.00799 3.64672 0
M  V30 1279 H 121.656 -0.339019 3.96353 0
M  V30 1280 H 118.395 1.4028 6.40314 0
M  V30 1281 H 117.915 -0.259794 5.99237 0
M  V30 1282 H 119.594 0.0949315 6.4693 0
M  V30 1283 N 119.726 -1.57421 0.075193 0
M  V30 1284 C 120.676 -2.09441 -0.901025 0
M  V30 1285 C 121.66 -1.00486 -1.25663 0
M  V30 1286 O 122.852 -1.2679 -1.23504 0
M  V30 1287 C 119.981 -2.66233 -2.16737 0
M  V30 1288 C 119.067 -3.82198 -1.83808 0
M  V30 1289 N 119.458 -4.91028 -1.21345 0
M  V30 1290 C 117.756 -3.91558 -2.13538 0
M  V30 1291 C 118.457 -5.71852 -1.06585 0
M  V30 1292 N 117.433 -5.20233 -1.57667 0
M  V30 1293 H 121.235 -2.90972 -0.413815 0
M  V30 1294 H 118.749 -1.6189 -0.128601 0
M  V30 1295 H 120.746 -3.01819 -2.87595 0
M  V30 1296 H 119.406 -1.8615 -2.66042 0
M  V30 1297 H 120.417 -5.10323 -0.88268 0
M  V30 1298 H 117.094 -3.22454 -2.65197 0
M  V30 1299 H 118.484 -6.69401 -0.578933 0
M  V30 1300 N 121.204 0.198386 -1.56346 0
M  V30 1301 C 122.615 0.763358 -1.70381 0
M  V30 1302 C 122.966 1.83995 -0.681203 0
M  V30 1303 O 122.091 2.15785 0.16305 0
M  V30 1304 C 122.686 1.39143 -3.08909 0
M  V30 1305 C 121.245 1.90352 -3.2472 0
M  V30 1306 C 120.392 0.772233 -2.6633 0
M  V30 1307 H 123.343 -0.0266377 -1.58678 0
M  V30 1308 H 123.364 2.26076 -3.06055 0
M  V30 1309 H 122.876 0.607638 -3.83314 0
M  V30 1310 H 120.977 2.71461 -2.55225 0
M  V30 1311 H 121.09 2.06757 -4.3219 0
M  V30 1312 H 119.454 1.18566 -2.2542 0
M  V30 1313 H 120.237 0.00073556 -3.433 0
M  V30 1314 N 122.682 1.50554 0.465978 0
M  V30 1315 C 123.93 1.61479 1.21528 0
M  V30 1316 C 124.251 0.319596 1.92363 0
M  V30 1317 O 123.521 -0.663194 1.84333 0
M  V30 1318 H 122.101 0.595055 0.451573 0
M  V30 1319 H 124.763 1.87355 0.53704 0
M  V30 1320 H 123.859 2.42846 1.96042 0
M  V30 1321 N 124.16 -0.719506 1.40217 0
M  V30 1322 C 125.39 -1.50646 1.41384 0
M  V30 1323 C 125.798 -1.89197 0.0107743 0
M  V30 1324 O 125.141 -1.55709 -0.974708 0
M  V30 1325 C 125.203 -2.81405 2.23722 0
M  V30 1326 C 124.867 -2.65199 3.72181 0
M  V30 1327 C 125.864 -2.32717 4.64907 0
M  V30 1328 C 123.549 -2.81586 4.1595 0
M  V30 1329 C 125.543 -2.16827 5.99387 0
M  V30 1330 C 123.23 -2.65313 5.50502 0
M  V30 1331 C 124.228 -2.32981 6.42035 0
M  V30 1332 O 123.916 -2.16827 7.74107 0
M  V30 1333 H 123.648 -0.471606 0.484318 0
M  V30 1334 H 126.202 -0.895456 1.84853 0
M  V30 1335 H 124.432 -3.44823 1.75026 0
M  V30 1336 H 126.121 -3.43102 2.16878 0
M  V30 1337 H 126.887 -2.19694 4.32388 0
M  V30 1338 H 122.766 -3.0574 3.45027 0
M  V30 1339 H 126.31 -1.91513 6.70797 0
M  V30 1340 H 122.207 -2.7792 5.82607 0
M  V30 1341 H 122.975 -2.31778 7.84998 0
M  V30 1342 N 125.638 -1.25649 -0.95132 0
M  V30 1343 C 126.886 -1.10375 -1.69298 0
M  V30 1344 C 127.207 0.355339 -1.91735 0
M  V30 1345 O 126.477 1.25188 -1.50681 0
M  V30 1346 H 125.057 -0.405461 -0.627384 0
M  V30 1347 H 127.719 -1.57823 -1.14358 0
M  V30 1348 H 126.815 -1.61465 -2.67087 0
M  V30 1349 N 127.117 1.15442 -1.07289 0
M  V30 1350 C 128.364 1.86213 -0.795668 0
M  V30 1351 C 128.692 1.82291 0.678238 0
M  V30 1352 O 127.947 1.24057 1.51355 0
M  V30 1353 C 128.246 3.3489 -1.24834 0
M  V30 1354 C 127.912 3.59007 -2.72809 0
M  V30 1355 C 126.574 3.65298 -3.13227 0
M  V30 1356 C 128.926 3.68762 -3.68326 0
M  V30 1357 C 126.254 3.78854 -4.4798 0
M  V30 1358 C 128.606 3.83842 -5.0284 0
M  V30 1359 C 127.27 3.88378 -5.4288 0
M  V30 1360 H 126.54 0.681403 -0.291155 0
M  V30 1361 H 129.187 1.36435 -1.34379 0
M  V30 1362 H 127.492 3.8687 -0.619595 0
M  V30 1363 H 129.189 3.88052 -1.01076 0
M  V30 1364 H 125.779 3.5475 -2.40521 0
M  V30 1365 H 129.963 3.63202 -3.38227 0
M  V30 1366 H 125.219 3.80623 -4.78472 0
M  V30 1367 H 129.393 3.90332 -5.76727 0
M  V30 1368 H 127.02 3.98635 -6.47298 0
M  V30 1369 N 128.595 0.856903 1.32268 0
M  V30 1370 C 129.525 0.31858 2.31316 0
M  V30 1371 C 130.506 -0.583487 1.59779 0
M  V30 1372 O 131.691 -0.503259 1.87566 0
M  V30 1373 C 128.821 -0.491979 3.43798 0
M  V30 1374 C 127.775 0.315849 4.26833 0
M  V30 1375 C 127.101 -0.619586 5.31098 0
M  V30 1376 C 128.401 1.54282 4.98993 0
M  V30 1377 H 130.095 1.14621 2.76591 0
M  V30 1378 H 127.641 0.552613 1.32974 0
M  V30 1379 H 129.594 -0.879012 4.1213 0
M  V30 1380 H 128.318 -1.35299 2.97257 0
M  V30 1381 H 126.977 0.684664 3.6015 0
M  V30 1382 H 126.625 -1.47751 4.8081 0
M  V30 1383 H 126.325 -0.0830621 5.87541 0
M  V30 1384 H 127.849 -1.00375 6.02293 0
M  V30 1385 H 129.263 1.22796 5.59995 0
M  V30 1386 H 127.66 2.01745 5.65172 0
M  V30 1387 H 128.73 2.30285 4.26728 0
M  V30 1388 N 130.073 -1.45103 0.615059 0
M  V30 1389 C 131.298 -2.07064 0.117988 0
M  V30 1390 C 131.723 -1.4554 -1.19163 0
M  V30 1391 O 131.081 -0.550855 -1.72729 0
M  V30 1392 C 131.129 -3.606 -0.000288387 0
M  V30 1393 O 130.233 -3.98847 -1.04856 0
M  V30 1394 H 129.574 -0.659467 0.0774581 0
M  V30 1395 H 132.104 -1.86236 0.847186 0
M  V30 1396 H 132.114 -4.07529 -0.196091 0
M  V30 1397 H 130.789 -4.04765 0.955932 0
M  V30 1398 H 129.366 -3.63577 -0.828619 0
M  V30 1399 N 131.551 -0.354651 -1.53558 0
M  V30 1400 C 132.461 0.50515 -2.29097 0
M  V30 1401 C 133.477 1.10223 -1.34636 0
M  V30 1402 O 134.653 1.11553 -1.67684 0
M  V30 1403 C 131.718 1.63479 -3.05738 0
M  V30 1404 C 130.779 1.06636 -4.15845 0
M  V30 1405 C 130.012 2.14217 -4.88822 0
M  V30 1406 O 130.235 3.35137 -4.61562 0
M  V30 1407 O 129.169 1.77887 -5.75013 0
M  V30 1408 H 132.995 -0.109237 -3.03503 0
M  V30 1409 H 130.58 -0.119357 -1.48922 0
M  V30 1410 H 132.462 2.2918 -3.5363 0
M  V30 1411 H 131.137 2.23478 -2.34178 0
M  V30 1412 H 130.044 0.373565 -3.7223 0
M  V30 1413 H 131.377 0.511081 -4.89539 0
M  V30 1414 N 133.029 1.57378 -0.0835403 0
M  V30 1415 C 133.977 2.14602 0.89714 0
M  V30 1416 C 134.971 1.08589 1.30018 0
M  V30 1417 O 136.177 1.26952 1.27606 0
M  V30 1418 H 132.552 0.686346 0.3073 0
M  V30 1419 H 134.523 2.95845 0.38969 0
M  V30 1420 C 133.272 2.73188 2.15089 0
M  V30 1421 H 132.595 3.54442 1.84962 0
M  V30 1422 H 134.035 3.1681 2.81793 0
M  V30 1423 C 132.494 1.68517 2.91725 0
M  V30 1424 O 133.024 1.11718 3.85852 0
M  V30 1425 N 131.23 1.39277 2.55049 0
M  V30 1426 H 130.777 1.85655 1.78577 0
M  V30 1427 H 130.735 0.694791 3.06627 0
M  V30 1428 N 134.507 -0.190092 1.56449 0
M  V30 1429 C 135.417 -1.25591 1.98152 0
M  V30 1430 C 136.433 -1.49519 0.889944 0
M  V30 1431 O 137.609 -1.62036 1.19609 0
M  V30 1432 C 134.674 -2.57916 2.3169 0
M  V30 1433 C 133.735 -2.42015 3.5458 0
M  V30 1434 C 132.968 -3.6803 3.8651 0
M  V30 1435 O 133.191 -4.72413 3.1966 0
M  V30 1436 O 132.125 -3.6326 4.79923 0
M  V30 1437 H 135.951 -0.931988 2.89046 0
M  V30 1438 H 133.536 -0.395488 1.4407 0
M  V30 1439 H 135.418 -3.36008 2.54316 0
M  V30 1440 H 134.093 -2.89925 1.43963 0
M  V30 1441 H 133 -1.62017 3.37196 0
M  V30 1442 H 134.333 -2.14937 4.4279 0
M  V30 1443 N 135.985 -1.50799 -0.457987 0
M  V30 1444 C 136.917 -1.66786 -1.57211 0
M  V30 1445 C 137.93 -0.548962 -1.53265 0
M  V30 1446 O 139.119 -0.8226 -1.58416 0
M  V30 1447 C 136.219 -1.64834 -2.96113 0
M  V30 1448 C 135.392 -2.92971 -3.24787 0
M  V30 1449 C 134.451 -2.83485 -4.43309 0
M  V30 1450 O 133.477 -3.5744 -4.42973 0
M  V30 1451 N 134.679 -1.97929 -5.45714 0
M  V30 1452 H 137.444 -2.62889 -1.43909 0
M  V30 1453 H 135.005 -1.48427 -0.646617 0
M  V30 1454 H 136.997 -1.56084 -3.7339 0
M  V30 1455 H 135.567 -0.764118 -3.03117 0
M  V30 1456 H 134.787 -3.15749 -2.36 0
M  V30 1457 H 136.075 -3.77834 -3.40762 0
M  V30 1458 H 135.473 -1.37182 -5.48815 0
M  V30 1459 H 134.03 -1.95073 -6.21924 0
M  V30 1460 N 137.463 0.71206 -1.40597 0
M  V30 1461 C 138.71 1.47197 -1.39065 0
M  V30 1462 C 139.038 1.94499 0.00583891 0
M  V30 1463 O 138.293 1.68752 0.99102 0
M  V30 1464 C 138.592 2.71039 -2.32965 0
M  V30 1465 C 138.258 2.42484 -3.80148 0
M  V30 1466 C 136.92 2.34406 -4.20247 0
M  V30 1467 C 139.272 2.18598 -4.73143 0
M  V30 1468 C 136.6 2.00516 -5.51371 0
M  V30 1469 C 138.952 1.8622 -6.0457 0
M  V30 1470 C 137.616 1.76626 -6.43708 0
M  V30 1471 H 136.886 0.538634 -0.508876 0
M  V30 1472 H 139.533 0.815325 -1.73276 0
M  V30 1473 H 137.838 3.41558 -1.91951 0
M  V30 1474 H 139.535 3.29138 -2.29061 0
M  V30 1475 H 136.125 2.49659 -3.4838 0
M  V30 1476 H 140.309 2.23793 -4.42979 0
M  V30 1477 H 135.565 1.91628 -5.80593 0
M  V30 1478 H 139.739 1.66752 -6.76141 0
M  V30 1479 H 137.366 1.50133 -7.45228 0
M  V30 1480 N 138.941 1.26152 0.944643 0
M  V30 1481 C 139.904 1.07474 2.0244 0
M  V30 1482 C 140.904 0.0242064 1.60782 0
M  V30 1483 O 142.094 0.267302 1.72137 0
M  V30 1484 C 139.226 0.633956 3.34953 0
M  V30 1485 H 140.419 2.03336 2.20442 0
M  V30 1486 H 137.972 1.087 1.12312 0
M  V30 1487 H 138.707 -0.326811 3.22649 0
M  V30 1488 H 138.492 1.39247 3.66542 0
M  V30 1489 H 139.982 0.52501 4.14287 0
M  V30 1490 N 140.419 -1.14872 1.07899 0
M  V30 1491 C 141.835 -1.37776 0.805606 0
M  V30 1492 C 142.035 -1.92743 -0.587555 0
M  V30 1493 O 141.091 -2.13678 -1.34528 0
M  V30 1494 C 142.404 -2.34361 1.88402 0
M  V30 1495 C 143.952 -2.48012 1.90942 0
M  V30 1496 C 144.427 -3.47893 2.97883 0
M  V30 1497 N 145.918 -3.55433 2.97021 0
M  V30 1498 C 146.653 -4.32553 3.76412 0
M  V30 1499 N 146.149 -5.12959 4.65666 0
M  V30 1500 N 147.942 -4.27697 3.64735 0
M  V30 1501 H 140.093 -0.775365 1.97742 0
M  V30 1502 H 142.356 -0.403521 0.857831 0
M  V30 1503 H 142.062 -2.01098 2.88535 0
M  V30 1504 H 141.936 -3.34206 1.74889 0
M  V30 1505 H 144.323 -2.8057 0.914579 0
M  V30 1506 H 144.404 -1.48147 2.08534 0
M  V30 1507 H 144.048 -3.16069 3.97571 0
M  V30 1508 H 143.978 -4.47527 2.77538 0
M  V30 1509 H 146.469 -2.98048 2.32326 0
M  V30 1510 H 146.782 -5.69065 5.22862 0
M  V30 1511 H 145.127 -5.12245 4.69712 0
M  V30 1512 H 148.318 -3.63949 2.94378 0
M  V30 1513 H 148.491 -4.8755 4.26848 0
M  V30 1514 N 141.898 -0.863906 -1.31812 0
M  V30 1515 C 143.314 -0.555004 -1.49639 0
M  V30 1516 C 143.514 0.912266 -1.79666 0
M  V30 1517 O 142.57 1.69479 -1.87171 0
M  V30 1518 C 143.883 -1.44998 -2.63431 0
M  V30 1519 C 145.431 -1.45138 -2.77316 0
M  V30 1520 C 145.906 -2.33179 -3.94197 0
M  V30 1521 N 147.397 -2.31025 -4.01474 0
M  V30 1522 C 148.132 -2.95871 -4.9117 0
M  V30 1523 N 147.628 -3.69863 -5.8581 0
M  V30 1524 N 149.421 -2.85211 -4.84367 0
M  V30 1525 H 141.572 -1.81339 -1.10589 0
M  V30 1526 H 143.835 -0.77505 -0.545895 0
M  V30 1527 H 143.541 -2.49377 -2.48 0
M  V30 1528 H 143.415 -1.14409 -3.59431 0
M  V30 1529 H 145.802 -0.415201 -2.92164 0
M  V30 1530 H 145.883 -1.79747 -1.82001 0
M  V30 1531 H 145.527 -3.3687 -3.80107 0
M  V30 1532 H 145.457 -1.95897 -4.88807 0
M  V30 1533 H 147.948 -1.77238 -3.33759 0
M  V30 1534 H 148.261 -4.16486 -6.50968 0
M  V30 1535 H 146.606 -3.73971 -5.85808 0
M  V30 1536 H 149.797 -2.26948 -4.09405 0
M  V30 1537 H 149.97 -3.36027 -5.54066 0
M  V30 1538 N 143.376 1.44774 -0.622745 0
M  V30 1539 C 144.616 2.04004 -0.127102 0
M  V30 1540 C 144.98 1.47862 1.22478 0
M  V30 1541 O 146.181 1.98541 1.81204 0
M  V30 1542 C 144.452 3.57247 -0.104429 0
M  V30 1543 S 146.011 4.37574 0.327814 0
M  V30 1544 H 142.829 0.708713 -0.0569776 0
M  V30 1545 H 145.431 1.77275 -0.824253 0
M  V30 1546 H 144.135 3.95616 -1.09159 0
M  V30 1547 H 143.666 3.88575 0.614236 0
M  V30 1548 H 145.681 4.70575 1.57395 0
M  V30 1549 N 144.854 0.36279 1.53368 0
M  V30 1550 C 145.817 -0.472679 2.24273 0
M  V30 1551 C 146.817 -1.012 1.24961 0
M  V30 1552 O 148.007 -0.898194 1.49259 0
M  V30 1553 C 145.139 -1.66039 2.97731 0
M  V30 1554 H 146.332 0.14773 2.99536 0
M  V30 1555 H 143.885 0.114434 1.55881 0
M  V30 1556 H 144.62 -2.31896 2.26704 0
M  V30 1557 H 144.405 -1.28066 3.70596 0
M  V30 1558 H 145.895 -2.25252 3.51641 0
M  V30 1559 N 146.332 -1.57332 0.0918853 0
M  V30 1560 C 147.242 -2.17368 -0.882505 0
M  V30 1561 C 148.258 -1.14226 -1.31257 0
M  V30 1562 O 149.434 -1.46582 -1.38115 0
M  V30 1563 C 146.499 -2.73962 -2.12476 0
M  V30 1564 C 145.56 -3.92048 -1.7492 0
M  V30 1565 C 144.793 -4.45933 -2.93223 0
M  V30 1566 O 145.016 -3.98764 -4.07852 0
M  V30 1567 O 143.95 -5.36999 -2.71875 0
M  V30 1568 H 147.776 -3.01031 -0.40172 0
M  V30 1569 H 145.361 -1.48813 -0.132291 0
M  V30 1570 H 147.243 -3.10147 -2.85283 0
M  V30 1571 H 145.918 -1.93347 -2.59613 0
M  V30 1572 H 144.825 -3.6068 -0.993025 0
M  V30 1573 H 146.158 -4.74017 -1.32548 0
M  V30 1574 N 147.81 0.181792 -1.56548 0
M  V30 1575 C 148.72 1.24538 -1.98815 0
M  V30 1576 C 149.736 1.49045 -0.897861 0
M  V30 1577 O 150.912 1.61399 -1.20467 0
M  V30 1578 C 147.977 2.56683 -2.33055 0
M  V30 1579 C 147.038 2.40131 -3.55859 0
M  V30 1580 C 146.271 3.65975 -3.88456 0
M  V30 1581 O 146.494 4.70711 -3.22161 0
M  V30 1582 O 145.428 3.6071 -4.81842 0
M  V30 1583 H 149.254 0.916647 -2.89536 0
M  V30 1584 H 146.839 0.387842 -1.44278 0
M  V30 1585 H 148.721 3.34655 -2.56094 0
M  V30 1586 H 147.396 2.89157 -1.45498 0
M  V30 1587 H 146.303 1.60226 -3.38051 0
M  V30 1588 H 147.636 2.12585 -4.43924 0
M  V30 1589 N 149.288 1.51039 0.449983 0
M  V30 1590 C 150.536 1.62759 1.19808 0
M  V30 1591 C 150.857 0.339981 1.92013 0
M  V30 1592 O 150.127 -0.643606 1.85026 0
M  V30 1593 H 148.707 0.599811 0.445237 0
M  V30 1594 H 151.369 1.87914 0.517138 0
M  V30 1595 H 150.465 2.44911 1.93455 0
M  V30 1596 N 150.766 -0.704594 1.40972 0
M  V30 1597 C 152.015 -1.46018 1.39146 0
M  V30 1598 C 152.328 -1.956 0.000589254 0
M  V30 1599 O 153.534 -2.71137 -0.1403 0
M  V30 1600 C 151.99 -2.63996 2.4461 0
M  V30 1601 C 151.598 -2.21238 3.89561 0
M  V30 1602 C 153.342 -3.41677 2.51907 0
M  V30 1603 C 151.249 -3.3612 4.86598 0
M  V30 1604 H 150.179 -0.548444 0.517422 0
M  V30 1605 H 152.83 -0.765784 1.66757 0
M  V30 1606 H 151.212 -3.3566 2.10115 0
M  V30 1607 H 152.386 -1.56923 4.33257 0
M  V30 1608 H 150.701 -1.56574 3.85841 0
M  V30 1609 H 153.298 -4.27182 3.2159 0
M  V30 1610 H 153.641 -3.86247 1.55303 0
M  V30 1611 H 154.174 -2.77064 2.85448 0
M  V30 1612 H 150.913 -2.96572 5.84573 0
M  V30 1613 H 150.433 -3.99315 4.47557 0
M  V30 1614 H 152.112 -4.02029 5.06934 0
M  V30 1615 N 152.244 -1.26651 -0.937939 0
M  V30 1616 C 153.191 -1.0849 -2.03712 0
M  V30 1617 C 154.161 0.011033 -1.66096 0
M  V30 1618 O 155.346 -0.149353 -1.90215 0
M  V30 1619 C 152.486 -0.72735 -3.37348 0
M  V30 1620 C 151.599 -1.89986 -3.87981 0
M  V30 1621 C 150.734 -1.48513 -5.10017 0
M  V30 1622 C 149.773 -2.62575 -5.5292 0
M  V30 1623 N 148.91 -2.21762 -6.66158 0
M  V30 1624 H 153.75 -2.02551 -2.18579 0
M  V30 1625 H 151.287 -1.00844 -1.07093 0
M  V30 1626 H 153.245 -0.50092 -4.14182 0
M  V30 1627 H 151.875 0.176298 -3.22318 0
M  V30 1628 H 150.927 -2.23913 -3.07518 0
M  V30 1629 H 152.239 -2.75586 -4.15757 0
M  V30 1630 H 151.393 -1.21934 -5.94321 0
M  V30 1631 H 150.132 -0.60009 -4.83994 0
M  V30 1632 H 149.137 -2.8988 -4.67172 0
M  V30 1633 H 150.362 -3.51685 -5.80943 0
M  V30 1634 H 148.308 -1.35696 -6.41812 0
M  V30 1635 H 148.225 -3.00903 -6.93537 0
M  V30 1636 H 149.493 -1.98403 -7.53828 0
M  V30 1637 N 153.722 1.14298 -1.08507 0
M  V30 1638 C 154.969 1.85359 -0.815373 0
M  V30 1639 C 155.297 1.83001 0.658865 0
M  V30 1640 O 154.552 1.25655 1.50031 0
M  V30 1641 C 154.851 3.33547 -1.28379 0
M  V30 1642 C 154.517 3.56093 -2.76602 0
M  V30 1643 C 153.179 3.61955 -3.17084 0
M  V30 1644 C 155.531 3.64834 -3.72217 0
M  V30 1645 C 152.859 3.74082 -4.51973 0
M  V30 1646 C 155.211 3.78487 -5.06883 0
M  V30 1647 C 153.875 3.82598 -5.46969 0
M  V30 1648 H 153.145 0.678276 -0.298366 0
M  V30 1649 H 155.792 1.35002 -1.35819 0
M  V30 1650 H 154.097 3.86191 -0.660593 0
M  V30 1651 H 155.794 3.86959 -1.05186 0
M  V30 1652 H 152.384 3.52179 -2.4427 0
M  V30 1653 H 156.568 3.59595 -3.42061 0
M  V30 1654 H 151.824 3.75527 -4.82483 0
M  V30 1655 H 155.998 3.84193 -5.80834 0
M  V30 1656 H 153.625 3.91747 -6.51489 0
M  V30 1657 N 155.201 0.870884 1.31352 0
M  V30 1658 C 156.45 0.478408 1.95944 0
M  V30 1659 C 156.763 -0.974493 1.69597 0
M  V30 1660 O 157.969 -1.47316 2.28058 0
M  V30 1661 C 156.425 0.804609 3.50791 0
M  V30 1662 C 156.033 2.27433 3.85977 0
M  V30 1663 C 157.777 0.480648 4.2177 0
M  V30 1664 C 155.684 2.5429 5.33939 0
M  V30 1665 H 154.614 0.175175 0.733369 0
M  V30 1666 H 157.265 1.06391 1.4951 0
M  V30 1667 H 155.647 0.148347 3.95722 0
M  V30 1668 H 156.821 2.97373 3.52002 0
M  V30 1669 H 155.136 2.56442 3.28065 0
M  V30 1670 H 157.733 0.658519 5.30629 0
M  V30 1671 H 158.076 -0.578979 4.12254 0
M  V30 1672 H 158.609 1.09349 3.82476 0
M  V30 1673 H 155.348 3.58939 5.48491 0
M  V30 1674 H 154.868 1.88945 5.69263 0
M  V30 1675 H 156.547 2.39066 6.01212 0
M  V30 1676 N 156.679 -1.44442 0.630414 0
M  V30 1677 C 157.927 -2.01653 0.134351 0
M  V30 1678 C 158.248 -1.49836 -1.24796 0
M  V30 1679 O 157.518 -0.701684 -1.82902 0
M  V30 1680 H 156.098 -0.74554 0.0466769 0
M  V30 1681 H 158.76 -1.76952 0.816955 0
M  V30 1682 H 157.856 -3.11935 0.101498 0
M  V30 1683 N 158.157 -0.370918 -1.53173 0
M  V30 1684 C 159.568 0.107139 -1.86392 0
M  V30 1685 C 159.919 1.47714 -1.29132 0
M  V30 1686 O 159.044 2.07464 -0.615439 0
M  V30 1687 C 159.639 0.201187 -3.38202 0
M  V30 1688 C 158.198 0.623507 -3.712 0
M  V30 1689 C 157.345 -0.225978 -2.76378 0
M  V30 1690 H 160.296 -0.58951 -1.47345 0
M  V30 1691 H 160.317 1.02377 -3.66468 0
M  V30 1692 H 159.829 -0.796058 -3.79848 0
M  V30 1693 H 157.93 1.62879 -3.35114 0
M  V30 1694 H 158.043 0.394414 -4.77474 0
M  V30 1695 H 156.407 0.305962 -2.52856 0
M  V30 1696 H 157.19 -1.22086 -3.20858 0
M  V30 1697 N 159.635 1.57281 -0.100228 0
M  V30 1698 C 160.585 2.10848 0.86759 0
M  V30 1699 C 161.569 1.02473 1.24049 0
M  V30 1700 O 162.761 1.28739 1.21471 0
M  V30 1701 C 159.89 2.69648 2.12474 0
M  V30 1702 C 158.976 3.85074 1.77704 0
M  V30 1703 N 159.367 4.92897 1.13518 0
M  V30 1704 C 157.665 3.94905 2.07282 0
M  V30 1705 C 158.366 5.73475 0.974735 0
M  V30 1706 N 157.342 5.22675 1.4937 0
M  V30 1707 H 161.144 2.91594 0.367471 0
M  V30 1708 H 158.658 1.62074 0.102829 0
M  V30 1709 H 160.655 3.06356 2.82757 0
M  V30 1710 H 159.315 1.90359 2.63047 0
M  V30 1711 H 160.326 5.11662 0.801381 0
M  V30 1712 H 157.003 3.26633 2.60033 0
M  V30 1713 H 158.393 6.70238 0.472364 0
M  V30 1714 N 161.113 -0.173488 1.56642 0
M  V30 1715 C 162.043 -1.2171 1.99271 0
M  V30 1716 C 163.024 -1.46289 0.867959 0
M  V30 1717 O 164.209 -1.5766 1.13388 0
M  V30 1718 C 161.339 -2.55651 2.35074 0
M  V30 1719 C 160.293 -2.45645 3.50489 0
M  V30 1720 C 159.619 -3.84056 3.72028 0
M  V30 1721 C 160.919 -1.96302 4.84007 0
M  V30 1722 H 162.613 -0.86275 2.867 0
M  V30 1723 H 160.159 -0.413571 1.37933 0
M  V30 1724 H 162.112 -3.2886 2.63494 0
M  V30 1725 H 160.836 -2.92869 1.44552 0
M  V30 1726 H 159.495 -1.7489 3.22194 0
M  V30 1727 H 159.143 -4.18664 2.788 0
M  V30 1728 H 158.843 -3.7823 4.49684 0
M  V30 1729 H 160.367 -4.58854 4.02846 0
M  V30 1730 H 161.781 -2.59284 5.11317 0
M  V30 1731 H 160.178 -2.01429 5.65284 0
M  V30 1732 H 161.248 -0.917226 4.76146 0
M  V30 1733 N 162.591 -1.51276 -0.441967 0
M  V30 1734 C 163.501 -1.75092 -1.56141 0
M  V30 1735 C 164.517 -0.634963 -1.62001 0
M  V30 1736 O 165.693 -0.916686 -1.79329 0
M  V30 1737 C 162.758 -1.86666 -2.92158 0
M  V30 1738 C 161.819 -3.10506 -2.96453 0
M  V30 1739 C 161.052 -3.21519 -4.25982 0
M  V30 1740 O 161.275 -2.38586 -5.18105 0
M  V30 1741 O 160.209 -4.14465 -4.36466 0
M  V30 1742 H 164.035 -2.70044 -1.38961 0
M  V30 1743 H 161.62 -1.35722 -0.624499 0
M  V30 1744 H 163.502 -1.96292 -3.72891 0
M  V30 1745 H 162.177 -0.949014 -3.09476 0
M  V30 1746 H 161.084 -3.06363 -2.14692 0
M  V30 1747 H 162.417 -4.01945 -2.84079 0
M  V30 1748 N 164.069 0.697108 -1.41344 0
M  V30 1749 C 165.019 1.80313 -1.39539 0
M  V30 1750 C 166.003 1.58618 -0.270001 0
M  V30 1751 O 167.195 1.69477 -0.510551 0
M  V30 1752 C 164.324 3.18606 -1.27848 0
M  V30 1753 C 163.41 3.46001 -2.45244 0
M  V30 1754 N 163.801 3.44103 -3.70711 0
M  V30 1755 C 162.099 3.76542 -2.39023 0
M  V30 1756 C 162.8 3.7036 -4.48563 0
M  V30 1757 N 161.776 3.90027 -3.78655 0
M  V30 1758 H 165.578 1.77207 -2.34468 0
M  V30 1759 H 163.092 0.897031 -1.35378 0
M  V30 1760 H 165.089 3.97833 -1.24637 0
M  V30 1761 H 163.749 3.22925 -0.339032 0
M  V30 1762 H 164.76 3.2452 -4.03618 0
M  V30 1763 H 161.437 3.88241 -1.53542 0
M  V30 1764 H 162.827 3.75042 -5.57488 0
M  V30 1765 N 165.547 1.27147 0.931209 0
M  V30 1766 C 166.477 1.12081 2.04842 0
M  V30 1767 C 167.458 0.0232364 1.70084 0
M  V30 1768 O 168.643 0.197085 1.93197 0
M  V30 1769 C 165.773 0.76354 3.38803 0
M  V30 1770 C 164.727 1.81396 3.87659 0
M  V30 1771 C 164.053 1.31075 5.18385 0
M  V30 1772 C 165.353 3.21739 4.11438 0
M  V30 1773 H 167.047 2.05537 2.17703 0
M  V30 1774 H 164.593 0.989603 1.04608 0
M  V30 1775 H 166.546 0.644982 4.16435 0
M  V30 1776 H 165.27 -0.206727 3.25945 0
M  V30 1777 H 163.929 1.92136 3.12217 0
M  V30 1778 H 163.577 0.330037 5.01916 0
M  V30 1779 H 163.277 2.013 5.52044 0
M  V30 1780 H 164.801 1.20506 5.98591 0
M  V30 1781 H 166.215 3.14019 4.79651 0
M  V30 1782 H 164.612 3.89644 4.56397 0
M  V30 1783 H 165.682 3.67054 3.16859 0
M  V30 1784 N 167.025 -1.13721 1.09112 0
M  V30 1785 C 168.302 -1.81155 0.737706 0
M  V30 1786 C 168.682 -1.96253 -0.777683 0
M  V30 1787 O 168.03 -1.52807 -1.69889 0
M  V30 1788 C 168.24 -3.16392 1.47299 0
M  V30 1789 C 169.588 -3.91787 1.63671 0
M  V30 1790 O 170.612 -3.26005 1.43524 0
M  V30 1791 O 169.471 -5.0977 1.96969 0
M  V30 1792 H 166.565 -0.783518 0.26463 0
M  V30 1793 H 169.111 -1.20676 1.19312 0
M  V30 1794 H 167.883 -3.0061 2.50498 0
M  V30 1795 H 167.506 -3.8457 1.00953 0
M  V30 1796 N 168.503 -0.877838 -1.30888 0
M  V30 1797 C 169.436 -0.283995 -2.26426 0
M  V30 1798 C 170.414 0.591361 -1.51465 0
M  V30 1799 O 171.598 0.54304 -1.80509 0
M  V30 1800 C 168.725 0.597129 -3.33395 0
M  V30 1801 C 167.771 -0.207937 -4.25993 0
M  V30 1802 S 168.604 -1.59158 -5.11301 0
M  V30 1803 C 169.76 -0.716791 -6.21782 0
M  V30 1804 H 169.993 -1.09383 -2.76446 0
M  V30 1805 H 167.526 -0.676828 -1.38775 0
M  V30 1806 H 169.484 1.09978 -3.95493 0
M  V30 1807 H 168.145 1.38099 -2.82113 0
M  V30 1808 H 167.338 0.464163 -5.01858 0
M  V30 1809 H 166.94 -0.642963 -3.68432 0
M  V30 1810 H 169.232 0.0692833 -6.77465 0
M  V30 1811 H 170.175 -1.44682 -6.93161 0
M  V30 1812 H 170.583 -0.280855 -5.63801 0
M  V30 1813 N 169.982 1.44106 -0.638065 0
M  V30 1814 C 171.229 2.01978 -0.14533 0
M  V30 1815 C 171.557 1.50234 1.23532 0
M  V30 1816 O 170.812 0.679548 1.83523 0
M  V30 1817 C 171.111 3.5729 -0.0887327 0
M  V30 1818 C 170.777 4.28317 -1.40909 0
M  V30 1819 C 169.439 4.47437 -1.77069 0
M  V30 1820 C 171.791 4.6867 -2.28031 0
M  V30 1821 C 169.119 5.04171 -3.00047 0
M  V30 1822 C 171.471 5.26766 -3.50286 0
M  V30 1823 C 170.135 5.44104 -3.86661 0
M  V30 1824 H 169.405 0.739089 -0.0531801 0
M  V30 1825 H 172.052 1.72781 -0.825761 0
M  V30 1826 H 170.357 3.8594 0.675095 0
M  V30 1827 H 172.054 3.99807 0.309145 0
M  V30 1828 H 168.644 4.1377 -1.1177 0
M  V30 1829 H 172.828 4.53604 -2.01388 0
M  V30 1830 H 168.084 5.15782 -3.28298 0
M  V30 1831 H 172.258 5.56983 -4.18023 0
M  V30 1832 H 169.885 5.87832 -4.82034 0
M  V30 1833 N 171.46 0.379036 1.52974 0
M  V30 1834 C 172.708 -0.206014 2.01047 0
M  V30 1835 C 173.029 -1.48175 1.26765 0
M  V30 1836 O 172.299 -1.92085 0.384743 0
M  V30 1837 H 170.879 -0.0791184 0.742798 0
M  V30 1838 H 173.541 0.508366 1.88153 0
M  V30 1839 H 172.637 -0.423501 3.09213 0
M  V30 1840 N 172.938 -1.57226 0.108567 0
M  V30 1841 C 174.215 -1.86333 -0.594939 0
M  V30 1842 C 174.595 -1.00788 -1.85486 0
M  V30 1843 O 173.943 -0.0839293 -2.28346 0
M  V30 1844 C 174.153 -3.37265 -0.897405 0
M  V30 1845 C 175.501 -4.05629 -1.25501 0
M  V30 1846 O 176.525 -3.42224 -0.987998 0
M  V30 1847 O 175.384 -5.17531 -1.75567 0
M  V30 1848 H 172.478 -0.771018 -0.2991 0
M  V30 1849 H 175.024 -1.69102 0.142283 0
M  V30 1850 H 173.796 -3.913 -0.00413806 0
M  V30 1851 H 173.419 -3.59889 -1.69014 0
M  V30 1852 N 174.416 0.165178 -1.56732 0
M  V30 1853 C 175.363 1.2044 -1.96883 0
M  V30 1854 C 176.333 1.43664 -0.833657 0
M  V30 1855 O 177.518 1.56302 -1.09427 0
M  V30 1856 C 174.658 2.53727 -2.33916 0
M  V30 1857 C 173.771 2.3783 -3.6064 0
M  V30 1858 C 172.906 3.64026 -3.86857 0
M  V30 1859 C 171.945 3.43088 -5.06909 0
M  V30 1860 N 171.082 4.61369 -5.29229 0
M  V30 1861 H 175.922 0.854996 -2.85471 0
M  V30 1862 H 173.459 0.41076 -1.41249 0
M  V30 1863 H 175.417 3.31419 -2.53411 0
M  V30 1864 H 174.047 2.8665 -1.48431 0
M  V30 1865 H 173.099 1.51282 -3.49024 0
M  V30 1866 H 174.411 2.18308 -4.4849 0
M  V30 1867 H 173.565 4.50152 -4.06753 0
M  V30 1868 H 172.304 3.86533 -2.97394 0
M  V30 1869 H 171.309 2.55349 -4.86906 0
M  V30 1870 H 172.534 3.21997 -5.97909 0
M  V30 1871 H 170.48 4.84084 -4.42718 0
M  V30 1872 H 170.397 4.44783 -6.11313 0
M  V30 1873 H 171.665 5.48761 -5.53608 0
M  V30 1874 N 175.894 1.51508 0.433938 0
M  V30 1875 C 177.14 1.64588 1.18484 0
M  V30 1876 C 177.473 0.362666 1.90784 0
M  V30 1877 O 176.748 -0.637892 1.83742 0
M  V30 1878 C 177.031 2.85149 2.19913 0
M  V30 1879 C 176.884 4.23456 1.51674 0
M  V30 1880 C 178.203 3.01227 3.20858 0
M  V30 1881 H 175.322 0.598994 0.429389 0
M  V30 1882 H 177.964 1.84002 0.473647 0
M  V30 1883 H 176.114 2.68729 2.80566 0
M  V30 1884 H 177.786 4.51552 0.943322 0
M  V30 1885 H 176.029 4.25998 0.819035 0
M  V30 1886 H 176.7 5.03812 2.2556 0
M  V30 1887 H 179.176 3.16382 2.70263 0
M  V30 1888 H 178.052 3.87141 3.89118 0
M  V30 1889 H 178.313 2.13447 3.8716 0
M  V30 1890 N 177.372 -0.689602 1.41712 0
M  V30 1891 C 178.319 -1.80345 1.44029 0
M  V30 1892 C 179.289 -1.63478 0.293948 0
M  V30 1893 O 180.474 -1.84244 0.495869 0
M  V30 1894 C 177.614 -3.18272 1.33405 0
M  V30 1895 C 176.727 -3.46529 2.57956 0
M  V30 1896 C 175.862 -4.74103 2.39582 0
M  V30 1897 C 174.901 -4.95347 3.5958 0
M  V30 1898 N 174.038 -6.14151 3.40239 0
M  V30 1899 H 178.878 -1.77698 2.39222 0
M  V30 1900 H 176.415 -0.867688 1.18784 0
M  V30 1901 H 178.373 -3.97956 1.25246 0
M  V30 1902 H 177.003 -3.2008 0.418164 0
M  V30 1903 H 176.055 -2.61207 2.76542 0
M  V30 1904 H 177.367 -3.58126 3.47199 0
M  V30 1905 H 176.521 -5.61853 2.28924 0
M  V30 1906 H 175.26 -4.64763 1.47805 0
M  V30 1907 H 174.265 -4.06044 3.70686 0
M  V30 1908 H 175.49 -5.06542 4.52318 0
M  V30 1909 H 173.436 -6.06013 2.51167 0
M  V30 1910 H 173.353 -6.26543 4.23061 0
M  V30 1911 H 174.621 -7.04619 3.33365 0
M  V30 1912 N 178.85 -1.27639 -0.924453 0
M  V30 1913 C 179.813 -1.10681 -2.00705 0
M  V30 1914 C 180.813 -0.0497823 -1.60723 0
M  V30 1915 O 182.003 -0.294654 -1.7169 0
M  V30 1916 C 179.135 -0.687164 -3.33902 0
M  V30 1917 H 180.328 -2.06817 -2.17179 0
M  V30 1918 H 177.881 -1.10473 -1.10569 0
M  V30 1919 H 178.616 0.275439 -3.23128 0
M  V30 1920 H 178.401 -1.45061 -3.6428 0
M  V30 1921 H 179.891 -0.590853 -4.13399 0
M  V30 1922 N 180.328 1.1314 -1.09713 0
M  V30 1923 C 181.744 1.36477 -0.827423 0
M  V30 1924 C 181.944 1.93654 0.556817 0
M  V30 1925 O 181 2.15791 1.31112 0
M  V30 1926 C 182.313 2.31334 -1.92106 0
M  V30 1927 C 183.861 2.44943 -1.94864 0
M  V30 1928 C 184.336 3.4311 -3.0338 0
M  V30 1929 N 185.827 3.50662 -3.02639 0
M  V30 1930 C 186.562 4.2651 -3.83246 0
M  V30 1931 N 186.058 5.05485 -4.73768 0
M  V30 1932 N 187.851 4.2184 -3.71493 0
M  V30 1933 H 180.002 0.743807 -1.9895 0
M  V30 1934 H 182.265 0.389823 -0.864143 0
M  V30 1935 H 181.971 1.96483 -2.91698 0
M  V30 1936 H 181.845 3.31381 -1.80184 0
M  V30 1937 H 184.232 2.79079 -0.959099 0
M  V30 1938 H 184.313 1.4481 -2.10864 0
M  V30 1939 H 183.957 3.09704 -4.02549 0
M  V30 1940 H 183.887 4.43055 -2.84622 0
M  V30 1941 H 186.378 2.94315 -2.37039 0
M  V30 1942 H 186.691 5.60675 -5.3185 0
M  V30 1943 H 185.036 5.04708 -4.77802 0
M  V30 1944 H 188.227 3.5922 -3.00131 0
M  V30 1945 H 188.4 4.80697 -4.3455 0
M  V30 1946 N 181.806 0.884767 1.30421 0
M  V30 1947 C 183.034 0.518044 2.0031 0
M  V30 1948 C 183.449 -0.893408 1.66324 0
M  V30 1949 O 182.806 -1.5875 0.900262 0
M  V30 1950 C 182.857 0.682997 3.54989 0
M  V30 1951 O 182.578 2.03888 3.87764 0
M  V30 1952 C 184.079 0.31924 4.42149 0
M  V30 1953 H 181.299 0.200265 0.640418 0
M  V30 1954 H 183.843 1.19001 1.6631 0
M  V30 1955 H 181.998 0.0584052 3.87356 0
M  V30 1956 H 182.412 2.05735 4.82466 0
M  V30 1957 H 183.886 0.485555 5.4986 0
M  V30 1958 H 184.363 -0.742717 4.32875 0
M  V30 1959 H 184.969 0.920147 4.15227 0
M  V30 1960 N 183.284 -1.43765 0.645699 0
M  V30 1961 C 184.512 -2.06253 0.163556 0
M  V30 1962 C 184.927 -1.48352 -1.16778 0
M  V30 1963 O 184.284 -0.611932 -1.71935 0
M  V30 1964 C 184.335 -3.61453 0.0583186 0
M  V30 1965 O 184.056 -4.172 1.33702 0
M  V30 1966 C 185.557 -4.41002 -0.450795 0
M  V30 1967 H 182.777 -0.665413 0.0864077 0
M  V30 1968 H 185.321 -1.84396 0.884222 0
M  V30 1969 H 183.476 -3.82522 -0.612865 0
M  V30 1970 H 183.89 -5.10791 1.19131 0
M  V30 1971 H 185.364 -5.49966 -0.473403 0
M  V30 1972 H 185.841 -4.13488 -1.48068 0
M  V30 1973 H 186.447 -4.24886 0.187637 0
M  V30 1974 N 184.763 -0.387143 -1.52771 0
M  V30 1975 C 185.726 0.436939 -2.24997 0
M  V30 1976 C 186.726 0.991991 -1.26555 0
M  V30 1977 O 187.916 0.874335 -1.50669 0
M  V30 1978 C 185.048 1.61281 -3.00335 0
M  V30 1979 H 186.241 -0.195365 -2.99263 0
M  V30 1980 H 183.794 -0.139218 -1.55679 0
M  V30 1981 H 184.529 2.2826 -2.30364 0
M  V30 1982 H 184.314 1.22154 -3.72587 0
M  V30 1983 H 185.804 2.19629 -3.5518 0
M  V30 1984 N 186.241 1.57166 -0.116904 0
M  V30 1985 C 187.49 1.94298 0.541407 0
M  V30 1986 C 187.803 1.00236 1.67964 0
M  V30 1987 O 189.009 1.26826 2.40057 0
M  V30 1988 C 187.465 3.45306 1.01449 0
M  V30 1989 C 187.073 4.47899 -0.0951738 0
M  V30 1990 C 188.817 3.91361 1.6443 0
M  V30 1991 C 186.724 5.90083 0.394491 0
M  V30 1992 H 185.654 0.725308 0.206019 0
M  V30 1993 H 188.305 1.82446 -0.196419 0
M  V30 1994 H 186.687 3.52385 1.80667 0
M  V30 1995 H 187.861 4.52486 -0.871374 0
M  V30 1996 H 186.176 4.11583 -0.631505 0
M  V30 1997 H 188.773 4.95004 2.02176 0
M  V30 1998 H 189.116 3.3122 2.52189 0
M  V30 1999 H 189.649 3.87073 0.917559 0
M  V30 2000 H 186.388 6.53974 -0.447004 0
M  V30 2001 H 185.908 5.88921 1.13722 0
M  V30 2002 H 187.587 6.41307 0.856399 0
M  V30 2003 N 187.719 -0.156864 1.56817 0
M  V30 2004 C 188.666 -1.19394 1.97519 0
M  V30 2005 C 189.636 -1.4322 0.841265 0
M  V30 2006 O 190.821 -1.55719 1.10255 0
M  V30 2007 C 187.961 -2.52483 2.35258 0
M  V30 2008 C 187.074 -2.35914 3.61896 0
M  V30 2009 C 186.209 -3.61969 3.88782 0
M  V30 2010 C 185.248 -3.40395 5.08722 0
M  V30 2011 N 184.385 -4.58556 5.31668 0
M  V30 2012 H 189.225 -0.839845 2.85921 0
M  V30 2013 H 186.762 -0.403264 1.41464 0
M  V30 2014 H 188.72 -3.30071 2.55165 0
M  V30 2015 H 187.35 -2.85859 1.49949 0
M  V30 2016 H 186.402 -1.49429 3.49821 0
M  V30 2017 H 187.714 -2.15926 4.49641 0
M  V30 2018 H 186.868 -4.47989 4.09135 0
M  V30 2019 H 185.607 -3.84951 2.9944 0
M  V30 2020 H 184.612 -2.52763 4.88253 0
M  V30 2021 H 185.837 -3.18822 5.99608 0
M  V30 2022 H 183.783 -4.81729 4.45279 0
M  V30 2023 H 183.7 -4.41535 6.13664 0
M  V30 2024 H 184.968 -5.45817 5.5651 0
M  V30 2025 N 189.197 -1.51736 -0.425897 0
M  V30 2026 C 190.16 -1.73271 -1.50032 0
M  V30 2027 C 191.16 -0.602639 -1.4908 0
M  V30 2028 O 192.35 -0.87033 -1.509 0
M  V30 2029 C 189.482 -1.79969 -2.89523 0
M  V30 2030 H 190.675 -2.69172 -1.32237 0
M  V30 2031 H 188.228 -1.41899 -0.65532 0
M  V30 2032 H 188.963 -0.859241 -3.1271 0
M  V30 2033 H 188.748 -2.62109 -2.91619 0
M  V30 2034 H 190.238 -1.9843 -3.67444 0
M  V30 2035 N 190.675 0.682077 -1.42076 0
M  V30 2036 C 191.952 1.43755 -1.32642 0
M  V30 2037 C 192.332 2.11063 0.0396611 0
M  V30 2038 O 191.68 2.02701 1.05474 0
M  V30 2039 C 191.89 2.44596 -2.48946 0
M  V30 2040 C 193.238 3.09454 -2.9073 0
M  V30 2041 O 194.262 2.54922 -2.48783 0
M  V30 2042 O 193.121 4.08253 -3.63307 0
M  V30 2043 H 190.215 0.640857 -0.522715 0
M  V30 2044 H 192.761 0.711415 -1.54068 0
M  V30 2045 H 191.533 1.93609 -3.40046 0
M  V30 2046 H 191.156 3.24701 -2.29467 0
M  V30 2047 N 192.153 1.28127 0.917671 0
M  V30 2048 C 193.083 1.14248 2.03641 0
M  V30 2049 C 194.064 0.0412748 1.7005 0
M  V30 2050 O 195.249 0.217566 1.92977 0
M  V30 2051 C 192.379 0.799431 3.37974 0
M  V30 2052 C 191.333 1.85497 3.85713 0
M  V30 2053 C 190.659 1.36565 5.16966 0
M  V30 2054 C 191.959 3.26085 4.08002 0
M  V30 2055 H 193.653 2.07835 2.15511 0
M  V30 2056 H 191.199 1.00064 1.03553 0
M  V30 2057 H 193.152 0.689114 4.15727 0
M  V30 2058 H 191.876 -0.172145 3.26146 0
M  V30 2059 H 190.535 1.95437 3.10161 0
M  V30 2060 H 190.183 0.383253 5.01538 0
M  V30 2061 H 189.883 2.07143 5.49878 0
M  V30 2062 H 191.407 1.26848 5.97279 0
M  V30 2063 H 192.821 3.19089 4.76293 0
M  V30 2064 H 191.218 3.94462 4.52238 0
M  V30 2065 H 192.288 3.70394 3.12948 0
M  V30 2066 N 193.631 -1.12557 1.10312 0
M  V30 2067 C 195.042 -1.65574 0.862678 0
M  V30 2068 C 195.393 -1.86566 -0.607256 0
M  V30 2069 O 194.518 -1.59121 -1.46662 0
M  V30 2070 C 195.113 -3.00776 1.55947 0
M  V30 2071 C 193.672 -3.50748 1.36576 0
M  V30 2072 C 192.819 -2.25797 1.60968 0
M  V30 2073 H 195.77 -0.963552 1.26101 0
M  V30 2074 H 195.791 -3.67185 0.997753 0
M  V30 2075 H 195.303 -2.85465 2.62928 0
M  V30 2076 H 193.404 -3.71245 0.317531 0
M  V30 2077 H 193.517 -4.30289 2.10686 0
M  V30 2078 H 191.881 -2.32841 1.03234 0
M  V30 2079 H 192.664 -2.13043 2.69198 0
M  V30 2080 N 195.109 -0.891671 -1.2995 0
M  V30 2081 C 196.355 -0.514261 -1.96171 0
M  V30 2082 C 196.688 0.935506 -1.70182 0
M  V30 2083 O 195.963 1.66204 -1.01028 0
M  V30 2084 C 196.246 -0.797719 -3.51153 0
M  V30 2085 C 196.099 -2.2986 -3.86632 0
M  V30 2086 C 197.418 -0.278749 -4.39216 0
M  V30 2087 H 194.537 -0.188314 -0.712535 0
M  V30 2088 H 197.179 -1.11689 -1.53706 0
M  V30 2089 H 195.329 -0.284826 -3.87455 0
M  V30 2090 H 197.001 -2.88042 -3.60319 0
M  V30 2091 H 195.244 -2.76257 -3.34462 0
M  V30 2092 H 195.915 -2.44753 -4.94773 0
M  V30 2093 H 198.391 -0.717825 -4.09862 0
M  V30 2094 H 197.267 -0.506353 -5.46559 0
M  V30 2095 H 197.528 0.820266 -4.34424 0
M  V30 2096 N 196.587 1.43421 -0.653314 0
M  V30 2097 C 197.836 2.01032 -0.164076 0
M  V30 2098 C 198.149 1.52147 1.22926 0
M  V30 2099 O 199.355 2.02031 1.81371 0
M  V30 2100 C 197.811 3.59082 -0.24252 0
M  V30 2101 C 197.419 4.1696 -1.63855 0
M  V30 2102 C 199.163 4.24079 0.18911 0
M  V30 2103 C 197.07 5.67304 -1.67092 0
M  V30 2104 H 196 0.751798 -0.0575769 0
M  V30 2105 H 198.651 1.6439 -0.815362 0
M  V30 2106 H 197.033 3.93125 0.476276 0
M  V30 2107 H 198.207 3.94416 -2.38271 0
M  V30 2108 H 196.522 3.64335 -2.01616 0
M  V30 2109 H 199.119 5.34381 0.184775 0
M  V30 2110 H 199.462 3.98005 1.22056 0
M  V30 2111 H 199.995 3.94918 -0.477938 0
M  V30 2112 H 196.734 5.98145 -2.68146 0
M  V30 2113 H 196.254 5.91904 -0.970014 0
M  V30 2114 H 197.933 6.31344 -1.4147 0
M  V30 2115 N 198.065 0.39524 1.52563 0
M  V30 2116 C 199.476 -0.0774719 1.86539 0
M  V30 2117 C 199.827 -1.45641 1.31466 0
M  V30 2118 O 198.952 -2.06459 0.648367 0
M  V30 2119 C 199.547 -0.147356 3.38479 0
M  V30 2120 C 198.106 -0.564373 3.72145 0
M  V30 2121 C 197.253 0.269919 2.75983 0
M  V30 2122 H 200.204 0.612876 1.46388 0
M  V30 2123 H 200.225 -0.965343 3.68051 0
M  V30 2124 H 199.737 0.856387 3.78534 0
M  V30 2125 H 197.838 -1.57527 3.37663 0
M  V30 2126 H 197.951 -0.318402 4.78041 0
M  V30 2127 H 196.315 -0.265696 2.5331 0
M  V30 2128 H 197.098 1.27175 3.18875 0
M  V30 2129 N 199.544 -1.57102 0.125237 0
M  V30 2130 C 200.792 -1.95021 -0.530198 0
M  V30 2131 C 201.113 -1.00982 -1.66816 0
M  V30 2132 O 200.383 -0.0672693 -1.95784 0
M  V30 2133 H 198.963 -0.720046 -0.198853 0
M  V30 2134 H 201.625 -1.93916 0.19564 0
M  V30 2135 H 200.721 -2.98211 -0.920681 0
M  V30 2136 N 201.022 0.148545 -1.56898 0
M  V30 2137 C 202.25 0.876389 -1.87422 0
M  V30 2138 C 202.665 1.74809 -0.713256 0
M  V30 2139 O 202.022 1.79725 0.317025 0
M  V30 2140 C 202.073 1.73438 -3.17178 0
M  V30 2141 O 201.794 0.897809 -4.28802 0
M  V30 2142 C 203.295 2.56993 -3.61205 0
M  V30 2143 H 200.515 0.253489 -0.621277 0
M  V30 2144 H 203.059 0.141798 -2.04008 0
M  V30 2145 H 201.214 2.42205 -3.0235 0
M  V30 2146 H 201.628 1.48672 -5.02988 0
M  V30 2147 H 203.102 3.12773 -4.54838 0
M  V30 2148 H 203.579 3.32958 -2.86419 0
M  V30 2149 H 204.185 1.9352 -3.78722 0
M  V30 2150 N 202.5 1.5196 0.417844 0
M  V30 2151 C 203.777 1.56146 1.17803 0
M  V30 2152 C 204.157 0.337275 2.08388 0
M  V30 2153 O 203.505 -0.676447 2.18258 0
M  V30 2154 C 203.715 2.88566 1.96293 0
M  V30 2155 C 205.063 3.41244 2.52662 0
M  V30 2156 O 206.087 2.90247 2.06483 0
M  V30 2157 O 204.946 4.30273 3.36938 0
M  V30 2158 H 202.04 0.628598 0.537395 0
M  V30 2159 H 204.586 1.64283 0.425331 0
M  V30 2160 H 203.358 3.69116 1.2988 0
M  V30 2161 H 202.981 2.83681 2.78587 0
M  V30 2162 N 203.978 -0.674533 1.42435 0
M  V30 2163 C 205.226 -1.43175 1.42637 0
M  V30 2164 C 205.547 -1.94951 0.0438992 0
M  V30 2165 O 204.817 -1.7308 -0.917607 0
M  V30 2166 H 203.397 -0.531307 0.525092 0
M  V30 2167 H 206.059 -0.797006 1.77859 0
M  V30 2168 H 205.155 -2.28463 2.12629 0
M  V30 2169 N 205.456 -1.28612 -0.910864 0
M  V30 2170 C 206.867 -1.14406 -1.47541 0
M  V30 2171 C 207.218 0.264901 -1.94403 0
M  V30 2172 O 206.343 1.15942 -1.82719 0
M  V30 2173 C 206.938 -2.07073 -2.68153 0
M  V30 2174 C 205.497 -1.96923 -3.20778 0
M  V30 2175 C 204.644 -1.98646 -1.93481 0
M  V30 2176 H 207.595 -1.41259 -0.723291 0
M  V30 2177 H 207.616 -1.63642 -3.43514 0
M  V30 2178 H 207.128 -3.09611 -2.34015 0
M  V30 2179 H 205.229 -0.97433 -3.59635 0
M  V30 2180 H 205.342 -2.84026 -3.85832 0
M  V30 2181 H 203.706 -1.43093 -2.10705 0
M  V30 2182 H 204.489 -3.02868 -1.61634 0
M  V30 2183 N 206.934 1.1197 -1.10907 0
M  V30 2184 C 208.183 1.82947 -0.849302 0
M  V30 2185 C 208.496 1.85275 0.627112 0
M  V30 2186 O 209.702 2.52296 1.00295 0
M  V30 2187 C 208.158 3.28529 -1.46959 0
M  V30 2188 C 207.766 3.34546 -2.97965 0
M  V30 2189 C 209.51 4.04443 -1.28942 0
M  V30 2190 C 207.417 4.74491 -3.53004 0
M  V30 2191 H 206.347 0.685477 -0.314065 0
M  V30 2192 H 208.998 1.2604 -1.33365 0
M  V30 2193 H 207.38 3.85333 -0.912917 0
M  V30 2194 H 208.554 2.87654 -3.59989 0
M  V30 2195 H 206.869 2.72108 -3.15192 0
M  V30 2196 H 209.466 5.07787 -1.67502 0
M  V30 2197 H 209.809 4.15656 -0.231456 0
M  V30 2198 H 210.342 3.5401 -1.81443 0
M  V30 2199 H 207.081 4.68474 -4.58489 0
M  V30 2200 H 206.601 5.21816 -2.9575 0
M  V30 2201 H 208.28 5.4344 -3.51115 0
M  V30 2202 N 208.412 0.89855 1.29475 0
M  V30 2203 C 209.359 0.373819 2.27753 0
M  V30 2204 C 210.329 -0.543444 1.56958 0
M  V30 2205 O 211.514 -0.468934 1.84948 0
M  V30 2206 C 208.654 -0.393648 3.42848 0
M  V30 2207 C 207.767 0.554379 4.28428 0
M  V30 2208 C 206.902 -0.230026 5.30702 0
M  V30 2209 C 205.941 0.712599 6.07938 0
M  V30 2210 N 205.078 -0.0373283 7.0209 0
M  V30 2211 H 209.918 1.21699 2.72017 0
M  V30 2212 H 207.455 0.611456 1.33789 0
M  V30 2213 H 209.413 -0.85466 4.08352 0
M  V30 2214 H 208.043 -1.20128 2.99615 0
M  V30 2215 H 207.095 1.13391 3.63107 0
M  V30 2216 H 208.407 1.27597 4.82204 0
M  V30 2217 H 207.561 -0.752288 6.02018 0
M  V30 2218 H 206.3 -0.984758 4.77654 0
M  V30 2219 H 205.305 1.24637 5.35486 0
M  V30 2220 H 206.53 1.46664 6.63074 0
M  V30 2221 H 204.476 -0.774348 6.51414 0
M  V30 2222 H 204.393 0.624374 7.53417 0
M  V30 2223 H 205.661 -0.539891 7.77628 0
M  V30 2224 N 209.89 -1.43072 0.660911 0
M  V30 2225 C 211.115 -2.06584 0.183805 0
M  V30 2226 C 211.54 -1.49257 -1.14472 0
M  V30 2227 O 210.898 -0.605528 -1.70889 0
M  V30 2228 C 210.946 -3.60418 0.114434 0
M  V30 2229 O 210.05 -4.01981 -0.921137 0
M  V30 2230 H 209.391 -0.656669 0.0983994 0
M  V30 2231 H 211.921 -1.83447 0.906006 0
M  V30 2232 H 211.931 -4.07946 -0.0663394 0
M  V30 2233 H 210.606 -4.01519 1.08422 0
M  V30 2234 H 209.183 -3.66029 -0.71253 0
M  V30 2235 N 211.368 -0.403325 -1.52352 0
M  V30 2236 C 212.598 0.17376 -2.05868 0
M  V30 2237 C 213.006 1.39898 -1.27378 0
M  V30 2238 O 212.349 1.80939 -0.31729 0
M  V30 2239 C 212.411 0.594756 -3.54546 0
M  V30 2240 C 212.075 -0.518926 -4.54044 0
M  V30 2241 C 213.072 -1.3807 -5.01231 0
M  V30 2242 C 210.757 -0.689961 -4.97539 0
M  V30 2243 C 212.751 -2.39852 -5.90551 0
M  V30 2244 C 210.438 -1.71109 -5.86656 0
M  V30 2245 C 211.436 -2.56378 -6.33056 0
M  V30 2246 O 211.124 -3.56743 -7.20409 0
M  V30 2247 H 210.856 0.0264951 -0.675481 0
M  V30 2248 H 213.41 -0.571179 -1.97299 0
M  V30 2249 H 211.64 1.39189 -3.60782 0
M  V30 2250 H 213.329 1.0991 -3.90736 0
M  V30 2251 H 214.095 -1.25994 -4.68349 0
M  V30 2252 H 209.974 -0.035939 -4.60986 0
M  V30 2253 H 213.518 -3.06441 -6.26689 0
M  V30 2254 H 209.415 -1.83218 -6.18952 0
M  V30 2255 H 210.183 -3.52918 -7.38506 0
M  V30 2256 N 212.846 1.57033 -0.133567 0
M  V30 2257 C 213.756 2.19632 0.824564 0
M  V30 2258 C 214.772 1.17666 1.28182 0
M  V30 2259 O 215.948 1.50193 1.3418 0
M  V30 2260 C 213.013 2.79499 2.05137 0
M  V30 2261 C 212.074 3.96548 1.64464 0
M  V30 2262 C 211.307 4.5355 2.81297 0
M  V30 2263 O 211.53 4.09438 3.97136 0
M  V30 2264 O 210.464 5.44018 2.57542 0
M  V30 2265 H 214.29 3.01991 0.321766 0
M  V30 2266 H 211.875 1.49112 0.0927889 0
M  V30 2267 H 213.757 3.17602 2.7696 0
M  V30 2268 H 212.432 2.00162 2.54395 0
M  V30 2269 H 211.339 3.63186 0.897048 0
M  V30 2270 H 212.672 4.77364 1.19934 0
M  V30 2271 N 214.325 -0.140222 1.56975 0
M  V30 2272 C 215.255 -1.17456 2.01808 0
M  V30 2273 C 216.236 -1.44415 0.898794 0
M  V30 2274 O 217.421 -1.5522 1.16707 0
M  V30 2275 C 214.551 -2.50607 2.40444 0
M  V30 2276 C 213.505 -2.38155 3.55621 0
M  V30 2277 C 212.831 -3.76078 3.80091 0
M  V30 2278 C 214.131 -1.85991 4.88062 0
M  V30 2279 H 215.825 -0.801743 2.88466 0
M  V30 2280 H 213.371 -0.38422 1.38779 0
M  V30 2281 H 215.324 -3.23197 2.7041 0
M  V30 2282 H 214.048 -2.89737 1.50732 0
M  V30 2283 H 212.707 -1.68016 3.25832 0
M  V30 2284 H 212.355 -4.12656 2.87618 0
M  V30 2285 H 212.055 -3.68606 4.57606 0
M  V30 2286 H 213.579 -4.50206 4.12488 0
M  V30 2287 H 214.993 -2.4838 5.16701 0
M  V30 2288 H 213.39 -1.89393 5.6943 0
M  V30 2289 H 214.46 -0.816023 4.77984 0
M  V30 2290 N 215.803 -1.52179 -0.40978 0
M  V30 2291 C 216.766 -1.74853 -1.48186 0
M  V30 2292 C 217.766 -0.618417 -1.48433 0
M  V30 2293 O 218.956 -0.886286 -1.49969 0
M  V30 2294 C 216.088 -1.8303 -2.87598 0
M  V30 2295 H 217.281 -2.70559 -1.29374 0
M  V30 2296 H 214.834 -1.42586 -0.640233 0
M  V30 2297 H 215.569 -0.89236 -3.11781 0
M  V30 2298 H 215.354 -2.65187 -2.88822 0
M  V30 2299 H 216.844 -2.02316 -3.65319 0
M  V30 2300 N 217.281 0.66697 -1.42791 0
M  V30 2301 C 218.228 1.7803 -1.4688 0
M  V30 2302 C 219.198 1.6299 -0.319919 0
M  V30 2303 O 220.383 1.83432 -0.525118 0
M  V30 2304 C 217.523 3.1611 -1.38451 0
M  V30 2305 C 216.636 3.42381 -2.63437 0
M  V30 2306 C 215.771 4.70232 -2.47094 0
M  V30 2307 C 214.81 4.89564 -3.67415 0
M  V30 2308 N 213.947 6.08661 -3.49966 0
M  V30 2309 H 218.787 1.7387 -2.42019 0
M  V30 2310 H 216.324 0.84868 -1.20149 0
M  V30 2311 H 218.282 3.95914 -1.31561 0
M  V30 2312 H 216.912 3.19374 -0.469033 0
M  V30 2313 H 215.964 2.56774 -2.80662 0
M  V30 2314 H 217.276 3.52557 -3.52853 0
M  V30 2315 H 216.43 5.5814 -2.37834 0
M  V30 2316 H 215.169 4.62353 -1.5518 0
M  V30 2317 H 214.174 4.00096 -3.77099 0
M  V30 2318 H 215.399 4.99282 -4.6032 0
M  V30 2319 H 213.345 6.0194 -2.60776 0
M  V30 2320 H 213.262 6.19733 -4.32975 0
M  V30 2321 H 214.53 6.99226 -3.44532 0
M  V30 2322 N 218.759 1.29093 0.90403 0
M  V30 2323 C 219.669 1.15727 2.0407 0
M  V30 2324 C 220.685 0.0815308 1.73809 0
M  V30 2325 O 221.861 0.292749 1.99261 0
M  V30 2326 C 218.926 0.830424 3.36608 0
M  V30 2327 C 217.987 1.98955 3.80415 0
M  V30 2328 C 217.22 1.6782 5.06628 0
M  V30 2329 O 217.443 0.597105 5.67266 0
M  V30 2330 O 216.377 2.52486 5.46383 0
M  V30 2331 H 220.203 2.11171 2.18267 0
M  V30 2332 H 217.788 1.08504 1.027 0
M  V30 2333 H 219.67 0.662521 4.16159 0
M  V30 2334 H 218.345 -0.0942678 3.23563 0
M  V30 2335 H 217.252 2.21267 3.01648 0
M  V30 2336 H 218.585 2.89529 3.98037 0
M  V30 2337 N 220.237 -1.11381 1.11499 0
M  V30 2338 C 221.484 -1.83132 0.864231 0
M  V30 2339 C 221.812 -1.84683 -0.610114 0
M  V30 2340 O 221.067 -1.29589 -1.46646 0
M  V30 2341 C 221.366 -3.30026 1.37177 0
M  V30 2342 C 221.032 -3.48634 2.85946 0
M  V30 2343 C 219.694 -3.53421 3.26569 0
M  V30 2344 C 222.046 -3.54837 3.81759 0
M  V30 2345 C 219.374 -3.61967 4.61733 0
M  V30 2346 C 221.726 -3.64915 5.1674 0
M  V30 2347 C 220.39 -3.67962 5.5692 0
M  V30 2348 H 219.66 -0.670127 0.316245 0
M  V30 2349 H 222.307 -1.31354 1.3935 0
M  V30 2350 H 220.612 -3.84304 0.762753 0
M  V30 2351 H 222.309 -3.84034 1.15408 0
M  V30 2352 H 218.899 -3.45579 2.53521 0
M  V30 2353 H 223.083 -3.50399 3.51474 0
M  V30 2354 H 218.339 -3.62603 4.92269 0
M  V30 2355 H 222.513 -3.68658 5.90816 0
M  V30 2356 H 220.14 -3.74336 6.61647 0
M  V30 2357 N 221.715 -0.905404 -1.28997 0
M  V30 2358 C 222.678 -0.392253 -2.25819 0
M  V30 2359 C 223.678 0.476753 -1.5357 0
M  V30 2360 O 224.868 0.280994 -1.71919 0
M  V30 2361 C 222 0.438588 -3.38067 0
M  V30 2362 H 223.193 -1.24743 -2.72725 0
M  V30 2363 H 220.746 -0.684051 -1.40536 0
M  V30 2364 H 221.481 1.31352 -2.96508 0
M  V30 2365 H 221.266 -0.184167 -3.91667 0
M  V30 2366 H 222.756 0.78873 -4.10084 0
M  V30 2367 N 223.193 1.4272 -0.668489 0
M  V30 2368 C 224.103 2.34596 0.0139753 0
M  V30 2369 C 225.119 1.5474 0.795703 0
M  V30 2370 O 226.295 1.87334 0.739466 0
M  V30 2371 C 223.36 3.33202 0.957982 0
M  V30 2372 C 222.421 4.28957 0.17149 0
M  V30 2373 C 221.654 5.22853 1.07053 0
M  V30 2374 O 221.877 5.21531 2.31001 0
M  V30 2375 O 220.811 5.9952 0.534727 0
M  V30 2376 H 224.637 2.9448 -0.742661 0
M  V30 2377 H 222.222 1.43117 -0.428705 0
M  V30 2378 H 224.104 3.93796 1.50008 0
M  V30 2379 H 222.779 2.758 1.69458 0
M  V30 2380 H 221.686 3.71796 -0.414558 0
M  V30 2381 H 223.019 4.89383 -0.52586 0
M  V30 2382 N 224.671 0.411399 1.52136 0
M  V30 2383 C 225.581 -0.419774 2.30814 0
M  V30 2384 C 226.597 -1.0515 1.38634 0
M  V30 2385 O 227.773 -1.05252 1.71709 0
M  V30 2386 C 224.838 -1.52019 3.11594 0
M  V30 2387 C 223.899 -0.91129 4.19516 0
M  V30 2388 C 223.132 -1.95927 4.96436 0
M  V30 2389 O 223.355 -3.17775 4.73683 0
M  V30 2390 O 222.289 -1.56423 5.81219 0
M  V30 2391 H 226.115 0.221805 3.02889 0
M  V30 2392 H 223.7 0.174547 1.48377 0
M  V30 2393 H 225.582 -2.15898 3.61892 0
M  V30 2394 H 224.257 -2.14633 2.42311 0
M  V30 2395 H 223.164 -0.235157 3.7336 0
M  V30 2396 H 224.497 -0.32904 4.91099 0
M  V30 2397 N 226.149 -1.5696 0.141893 0
M  V30 2398 C 227.112 -2.15316 -0.785587 0
M  V30 2399 C 228.112 -1.09366 -1.1788 0
M  V30 2400 O 229.302 -1.35031 -1.10056 0
M  V30 2401 C 226.434 -2.71211 -2.06537 0
M  V30 2402 H 227.627 -2.98608 -0.278041 0
M  V30 2403 H 225.18 -1.5593 -0.107519 0
M  V30 2404 H 225.915 -1.91571 -2.6167 0
M  V30 2405 H 225.7 -3.4872 -1.79268 0
M  V30 2406 H 227.19 -3.16189 -2.72789 0
M  V30 2407 N 227.627 0.131896 -1.57047 0
M  V30 2408 C 228.875 0.840269 -1.83804 0
M  V30 2409 C 229.196 1.81017 -0.72512 0
M  V30 2410 O 228.466 1.94272 0.251995 0
M  V30 2411 H 227.046 0.313294 -0.678127 0
M  V30 2412 H 229.708 0.122294 -1.94516 0
M  V30 2413 H 228.804 1.39335 -2.79271 0
M  V30 2414 N 229.106 1.52395 0.401703 0
M  V30 2415 C 230.353 1.66817 1.14796 0
M  V30 2416 C 230.681 0.401772 1.90305 0
M  V30 2417 O 229.936 -0.615487 1.85769 0
M  V30 2418 C 230.235 2.84578 2.16217 0
M  V30 2419 C 229.901 4.22513 1.5746 0
M  V30 2420 C 228.563 4.60029 1.41161 0
M  V30 2421 C 230.915 5.0844 1.14622 0
M  V30 2422 C 228.243 5.81144 0.80552 0
M  V30 2423 C 230.595 6.30167 0.55428 0
M  V30 2424 C 229.259 6.66426 0.378482 0
M  V30 2425 H 228.529 0.610428 0.420069 0
M  V30 2426 H 231.176 1.86512 0.434212 0
M  V30 2427 H 229.481 2.59248 2.93764 0
M  V30 2428 H 231.178 2.92933 2.73845 0
M  V30 2429 H 227.768 3.92953 1.71132 0
M  V30 2430 H 231.952 4.80034 1.26021 0
M  V30 2431 H 227.208 6.07855 0.657399 0
M  V30 2432 H 231.382 6.96071 0.213983 0
M  V30 2433 H 229.009 7.60143 -0.0932606 0
M  V30 2434 N 230.584 -0.659388 1.43143 0
M  V30 2435 C 231.995 -1.24041 1.39537 0
M  V30 2436 C 232.346 -1.95963 0.0963364 0
M  V30 2437 O 231.471 -2.00892 -0.804438 0
M  V30 2438 C 232.066 -2.25601 2.52764 0
M  V30 2439 C 230.625 -2.79195 2.52443 0
M  V30 2440 C 229.772 -1.53743 2.30778 0
M  V30 2441 H 232.723 -0.451792 1.52133 0
M  V30 2442 H 232.744 -3.07651 2.23899 0
M  V30 2443 H 232.256 -1.73226 3.47296 0
M  V30 2444 H 230.357 -3.35649 1.61773 0
M  V30 2445 H 230.47 -3.2716 3.50004 0
M  V30 2446 H 228.834 -1.80869 1.79328 0
M  V30 2447 H 229.617 -1.03312 3.27386 0
M  V30 2448 N 232.062 -1.29571 -0.897171 0
M  V30 2449 C 232.992 -1.17473 -2.01798 0
M  V30 2450 C 233.973 -0.068323 -1.69963 0
M  V30 2451 O 235.158 -0.248239 -1.92607 0
M  V30 2452 C 232.288 -0.853099 -3.36659 0
M  V30 2453 C 231.242 -1.9161 -3.82713 0
M  V30 2454 C 230.568 -1.44773 -5.14728 0
M  V30 2455 C 231.868 -3.32535 -4.02763 0
M  V30 2456 H 233.562 -2.11237 -2.12177 0
M  V30 2457 H 231.108 -1.01699 -1.01948 0
M  V30 2458 H 233.061 -0.755165 -4.14578 0
M  V30 2459 H 231.785 0.120236 -3.26379 0
M  V30 2460 H 230.444 -2.00346 -3.07013 0
M  V30 2461 H 230.092 -0.462995 -5.00865 0
M  V30 2462 H 229.792 -2.15865 -5.46513 0
M  V30 2463 H 231.316 -1.36334 -5.95185 0
M  V30 2464 H 232.73 -3.26626 -4.71156 0
M  V30 2465 H 231.127 -4.01607 -4.45905 0
M  V30 2466 H 232.197 -3.75326 -3.07016 0
M  V30 2467 N 233.54 1.10788 -1.12088 0
M  V30 2468 C 234.473 2.16237 -0.729168 0
M  V30 2469 C 235.451 1.60207 0.277921 0
M  V30 2470 O 236.635 1.87707 0.172737 0
M  V30 2471 C 233.762 3.38609 -0.0786848 0
M  V30 2472 C 232.808 4.13322 -1.05201 0
M  V30 2473 S 233.641 4.69371 -2.57781 0
M  V30 2474 C 234.797 5.95058 -1.94053 0
M  V30 2475 H 235.03 2.4913 -1.62239 0
M  V30 2476 H 232.563 1.22519 -0.939603 0
M  V30 2477 H 234.521 4.09473 0.290254 0
M  V30 2478 H 233.182 3.03962 0.791593 0
M  V30 2479 H 232.375 5.01051 -0.544433 0
M  V30 2480 H 231.977 3.48251 -1.36371 0
M  V30 2481 H 234.269 6.65278 -1.28107 0
M  V30 2482 H 235.212 6.50472 -2.79807 0
M  V30 2483 H 235.62 5.46918 -1.39787 0
M  V30 2484 N 235.018 0.912232 1.28515 0
M  V30 2485 C 236.267 0.540504 1.94323 0
M  V30 2486 C 236.58 -0.920044 1.72611 0
M  V30 2487 O 237.786 -1.39986 2.32629 0
M  V30 2488 C 236.242 0.915803 3.48053 0
M  V30 2489 C 235.85 2.39598 3.78546 0
M  V30 2490 C 237.594 0.614588 4.20027 0
M  V30 2491 C 235.501 2.71148 5.25578 0
M  V30 2492 H 234.431 0.198418 0.727424 0
M  V30 2493 H 237.082 1.11094 1.46049 0
M  V30 2494 H 235.464 0.274168 3.9505 0
M  V30 2495 H 236.638 3.08422 3.42364 0
M  V30 2496 H 234.953 2.66749 3.1974 0
M  V30 2497 H 237.55 0.827002 5.28266 0
M  V30 2498 H 237.893 -0.447531 4.13887 0
M  V30 2499 H 238.426 1.21462 3.78803 0
M  V30 2500 H 235.165 3.76207 5.36794 0
M  V30 2501 H 234.685 2.0696 5.62963 0
M  V30 2502 H 236.364 2.58072 5.93302 0
M  V30 2503 N 236.496 -1.42363 0.676048 0
M  V30 2504 C 237.443 -2.308 -0.00150904 0
M  V30 2505 C 238.413 -1.46032 -0.791444 0
M  V30 2506 O 239.598 -1.74861 -0.76344 0
M  V30 2507 C 236.738 -3.31883 -0.945919 0
M  V30 2508 C 235.851 -4.31741 -0.149675 0
M  V30 2509 C 234.986 -5.19898 -1.08995 0
M  V30 2510 C 234.025 -6.11434 -0.285465 0
M  V30 2511 N 233.162 -6.92138 -1.17851 0
M  V30 2512 H 238.002 -2.88187 0.758455 0
M  V30 2513 H 235.539 -1.41952 0.38576 0
M  V30 2514 H 237.497 -3.89019 -1.50731 0
M  V30 2515 H 236.127 -2.76093 -1.6725 0
M  V30 2516 H 235.179 -3.76713 0.528359 0
M  V30 2517 H 236.491 -4.96534 0.474866 0
M  V30 2518 H 235.645 -5.81772 -1.72123 0
M  V30 2519 H 234.384 -4.55284 -1.74837 0
M  V30 2520 H 233.389 -5.48627 0.359018 0
M  V30 2521 H 234.614 -6.78097 0.368883 0
M  V30 2522 H 232.56 -6.30152 -1.82332 0
M  V30 2523 H 232.477 -7.53542 -0.609082 0
M  V30 2524 H 233.745 -7.58499 -1.79722 0
M  V30 2525 N 237.974 -0.419461 -1.51915 0
M  V30 2526 C 238.937 0.389116 -2.25873 0
M  V30 2527 C 239.937 0.964924 -1.28631 0
M  V30 2528 O 241.127 0.842179 -1.52489 0
M  V30 2529 C 238.259 1.54874 -3.03689 0
M  V30 2530 H 239.452 -0.258799 -2.98781 0
M  V30 2531 H 237.005 -0.172209 -1.55348 0
M  V30 2532 H 237.74 2.23323 -2.35154 0
M  V30 2533 H 237.525 1.14223 -3.75094 0
M  V30 2534 H 239.015 2.12046 -3.59759 0
M  V30 2535 N 239.452 1.56882 -0.150215 0
M  V30 2536 C 240.68 2.00593 0.506948 0
M  V30 2537 C 241.095 1.03033 1.58208 0
M  V30 2538 O 240.452 0.0278396 1.82479 0
M  V30 2539 C 240.503 3.44209 1.10465 0
M  V30 2540 O 240.224 4.3804 0.0724636 0
M  V30 2541 C 241.725 4.03214 1.84211 0
M  V30 2542 H 238.945 0.65795 0.13169 0
M  V30 2543 H 241.489 2.03018 -0.245743 0
M  V30 2544 H 239.644 3.42625 1.80795 0
M  V30 2545 H 240.058 5.22007 0.510793 0
M  V30 2546 H 241.532 5.0569 2.21318 0
M  V30 2547 H 242.009 3.44107 2.72923 0
M  V30 2548 H 242.615 4.08437 1.18572 0
M  V30 2549 N 240.93 -0.123565 1.57115 0
M  V30 2550 C 242.155 -0.850398 1.89164 0
M  V30 2551 C 242.58 -1.7286 0.741688 0
M  V30 2552 O 241.938 -1.78665 -0.307958 0
M  V30 2553 C 241.986 -1.66353 3.19936 0
M  V30 2554 O 241.09 -2.77004 3.0552 0
M  V30 2555 H 240.431 -0.235454 0.620852 0
M  V30 2556 H 242.961 -0.107335 2.04318 0
M  V30 2557 H 242.971 -2.05372 3.52543 0
M  V30 2558 H 241.646 -1.01881 4.03228 0
M  V30 2559 H 240.223 -2.41221 2.84371 0
M  V30 2560 N 242.408 -1.52605 -0.393616 0
M  V30 2561 C 243.656 -1.67093 -1.13685 0
M  V30 2562 C 243.977 -0.411011 -1.90619 0
M  V30 2563 O 243.247 0.574491 -1.87287 0
M  V30 2564 H 241.827 -0.615923 -0.422668 0
M  V30 2565 H 244.489 -1.89704 -0.447039 0
M  V30 2566 H 243.585 -2.51922 -1.84232 0
M  V30 2567 N 243.887 0.651787 -1.4349 0
M  V30 2568 C 245.135 1.40888 -1.44897 0
M  V30 2569 C 245.456 1.94856 -0.0749086 0
M  V30 2570 O 244.726 1.74518 0.889956 0
M  V30 2571 H 243.306 0.522887 -0.533478 0
M  V30 2572 H 245.968 0.768609 -1.79104 0
M  V30 2573 H 245.064 2.25052 -2.16236 0
M  V30 2574 N 245.365 1.30045 0.890287 0
M  V30 2575 C 246.613 1.18327 1.63839 0
M  V30 2576 C 246.934 -0.263455 1.93212 0
M  V30 2577 O 246.204 -1.17856 1.56482 0
M  V30 2578 H 244.784 0.434933 0.607324 0
M  V30 2579 H 247.446 1.631 1.06698 0
M  V30 2580 H 246.542 1.74024 2.59079 0
M  V30 2581 N 246.843 -1.10192 1.12674 0
M  V30 2582 C 248.091 -1.81845 0.881861 0
M  V30 2583 C 248.412 -1.85737 -0.593867 0
M  V30 2584 O 247.682 -1.33724 -1.4316 0
M  V30 2585 H 246.262 -0.673432 0.323261 0
M  V30 2586 H 248.924 -1.33316 1.42172 0
M  V30 2587 H 248.02 -2.85288 1.2656 0
M  V30 2588 N 248.321 -0.919034 -1.28029 0
M  V30 2589 C 249.268 -0.410005 -2.27129 0
M  V30 2590 C 250.238 0.518405 -1.57803 0
M  V30 2591 O 251.423 0.439451 -1.8567 0
M  V30 2592 C 248.563 0.339054 -3.4343 0
M  V30 2593 C 247.676 -0.622468 -4.27492 0
M  V30 2594 C 246.811 0.145567 -5.31001 0
M  V30 2595 C 245.85 -0.809226 -6.06727 0
M  V30 2596 N 244.987 -0.0743728 -7.02061 0
M  V30 2597 H 249.827 -1.26011 -2.70047 0
M  V30 2598 H 247.364 -0.632663 -1.328 0
M  V30 2599 H 249.322 0.789586 -4.0966 0
M  V30 2600 H 247.952 1.15346 -3.01488 0
M  V30 2601 H 247.004 -1.19153 -3.61257 0
M  V30 2602 H 248.316 -1.35252 -4.80113 0
M  V30 2603 H 247.47 0.656417 -6.03139 0
M  V30 2604 H 246.209 0.908643 -4.79161 0
M  V30 2605 H 245.214 -1.3314 -5.33436 0
M  V30 2606 H 246.439 -1.57194 -6.60656 0
M  V30 2607 H 244.385 0.670616 -6.52563 0
M  V30 2608 H 244.302 -0.744157 -7.52329 0
M  V30 2609 H 245.57 0.416109 -7.78389 0
M  V30 2610 N 249.799 1.42003 -0.683588 0
M  V30 2611 C 251.047 2.01015 -0.209101 0
M  V30 2612 C 251.368 1.54365 1.19149 0
M  V30 2613 O 250.638 0.769083 1.80172 0
M  V30 2614 H 249.218 0.743294 -0.074315 0
M  V30 2615 H 251.88 1.73798 -0.882066 0
M  V30 2616 H 250.976 3.11343 -0.2172 0
M  V30 2617 N 251.277 0.427512 1.51691 0
M  V30 2618 C 252.21 -0.433876 2.24037 0
M  V30 2619 C 253.188 -1.03287 1.25581 0
M  V30 2620 O 254.372 -1.07722 1.54688 0
M  V30 2621 C 251.499 -1.60385 2.98319 0
M  V30 2622 C 250.545 -1.12648 4.11355 0
M  V30 2623 S 251.378 -0.076543 5.35445 0
M  V30 2624 C 252.534 -1.25141 6.13262 0
M  V30 2625 H 252.767 0.180367 2.96752 0
M  V30 2626 H 250.3 0.211946 1.52938 0
M  V30 2627 H 252.258 -2.27462 3.41718 0
M  V30 2628 H 250.919 -2.18948 2.25213 0
M  V30 2629 H 250.112 -2.0011 4.62571 0
M  V30 2630 H 249.714 -0.534088 3.70167 0
M  V30 2631 H 252.006 -2.17162 6.41753 0
M  V30 2632 H 252.949 -0.779411 7.03797 0
M  V30 2633 H 253.357 -1.48553 5.44603 0
M  V30 2634 N 252.755 -1.56801 0.158532 0
M  V30 2635 C 254.171 -1.5837 -0.197774 0
M  V30 2636 C 254.371 -1.17334 -1.63814 0
M  V30 2637 O 253.427 -0.878988 -2.36707 0
M  V30 2638 C 254.74 -3.00615 0.0714459 0
M  V30 2639 C 256.288 -3.12999 0.00864533 0
M  V30 2640 C 256.763 -4.57313 0.250685 0
M  V30 2641 N 258.254 -4.62777 0.198014 0
M  V30 2642 C 258.989 -5.72271 0.359642 0
M  V30 2643 N 258.485 -6.90371 0.579625 0
M  V30 2644 N 260.278 -5.61318 0.296438 0
M  V30 2645 H 252.429 -1.81765 1.09887 0
M  V30 2646 H 254.692 -0.841849 0.435884 0
M  V30 2647 H 254.398 -3.35068 1.06874 0
M  V30 2648 H 254.272 -3.71683 -0.642757 0
M  V30 2649 H 256.659 -2.7838 -0.979217 0
M  V30 2650 H 256.74 -2.44393 0.755359 0
M  V30 2651 H 256.384 -4.92639 1.2357 0
M  V30 2652 H 256.314 -5.24061 -0.516489 0
M  V30 2653 H 258.805 -3.77885 0.0331115 0
M  V30 2654 H 259.118 -7.69689 0.69275 0
M  V30 2655 H 257.463 -6.92264 0.616087 0
M  V30 2656 H 260.654 -4.67932 0.125258 0
M  V30 2657 H 260.827 -6.46599 0.425831 0
M  V30 2658 N 254.233 0.115231 -1.57178 0
M  V30 2659 C 255.482 0.820945 -1.84237 0
M  V30 2660 C 255.795 1.80866 -0.744761 0
M  V30 2661 O 257.001 2.56083 -0.901871 0
M  V30 2662 C 255.457 1.51072 -3.26658 0
M  V30 2663 C 255.065 0.563795 -4.44438 0
M  V30 2664 C 256.809 2.20134 -3.62962 0
M  V30 2665 C 254.716 1.25701 -5.77887 0
M  V30 2666 H 253.646 0.310328 -0.687177 0
M  V30 2667 H 256.297 0.0737134 -1.83352 0
M  V30 2668 H 254.679 2.30471 -3.22024 0
M  V30 2669 H 255.853 -0.197247 -4.60378 0
M  V30 2670 H 254.168 -0.0200638 -4.16395 0
M  V30 2671 H 256.765 2.72696 -4.59936 0
M  V30 2672 H 257.108 2.98107 -2.90582 0
M  V30 2673 H 257.641 1.47619 -3.69396 0
M  V30 2674 H 254.38 0.518493 -6.53446 0
M  V30 2675 H 253.9 1.98997 -5.65827 0
M  V30 2676 H 255.579 1.78915 -6.2177 0
M  V30 2677 N 255.711 1.52812 0.385517 0
M  V30 2678 C 256.957 1.68275 1.13188 0
M  V30 2679 C 257.29 0.423179 1.89533 0
M  V30 2680 O 256.565 -0.579113 1.85679 0
M  V30 2681 C 256.848 2.92001 2.1073 0
M  V30 2682 C 256.701 4.28067 1.38125 0
M  V30 2683 C 258.02 3.11283 3.11113 0
M  V30 2684 H 255.139 0.612352 0.410115 0
M  V30 2685 H 257.781 1.85415 0.414869 0
M  V30 2686 H 255.931 2.77519 2.71874 0
M  V30 2687 H 257.603 4.54324 0.799187 0
M  V30 2688 H 255.846 4.28388 0.683092 0
M  V30 2689 H 256.517 5.10733 2.09417 0
M  V30 2690 H 258.993 3.2482 2.6006 0
M  V30 2691 H 257.869 3.99325 3.76605 0
M  V30 2692 H 258.13 2.25656 3.80173 0
M  V30 2693 N 257.189 -0.644168 1.43834 0
M  V30 2694 C 258.605 -0.960875 1.27434 0
M  V30 2695 C 258.805 -2.00499 0.200618 0
M  V30 2696 O 257.861 -2.49018 -0.417906 0
M  V30 2697 C 259.174 -1.43653 2.64167 0
M  V30 2698 C 260.722 -1.55271 2.71772 0
M  V30 2699 C 261.197 -2.06224 4.08944 0
M  V30 2700 N 262.688 -2.13513 4.11055 0
M  V30 2701 C 263.423 -2.54081 5.14033 0
M  V30 2702 N 262.919 -2.9388 6.27381 0
M  V30 2703 N 264.712 -2.54101 5.01387 0
M  V30 2704 H 256.863 0.0465779 2.12349 0
M  V30 2705 H 259.126 -0.0417638 0.94708 0
M  V30 2706 H 258.832 -0.743706 3.43747 0
M  V30 2707 H 258.706 -2.40993 2.90176 0
M  V30 2708 H 261.093 -2.23653 1.92519 0
M  V30 2709 H 261.174 -0.563395 2.49519 0
M  V30 2710 H 260.818 -1.38441 4.88668 0
M  V30 2711 H 260.748 -3.06003 4.28567 0
M  V30 2712 H 263.239 -1.85493 3.29242 0
M  V30 2713 H 263.552 -3.2361 7.01781 0
M  V30 2714 H 261.897 -2.91663 6.30839 0
M  V30 2715 H 265.088 -2.22391 4.11898 0
M  V30 2716 H 265.261 -2.85394 5.81768 0
M  V30 2717 N 258.668 -1.30515 -0.883378 0
M  V30 2718 C 259.578 -1.18959 -2.02203 0
M  V30 2719 C 260.594 -0.109172 -1.73657 0
M  V30 2720 O 261.77 -0.324413 -1.9877 0
M  V30 2721 C 258.835 -0.883871 -3.35244 0
M  V30 2722 C 257.896 -2.04982 -3.77201 0
M  V30 2723 C 257.129 -1.75859 -5.03894 0
M  V30 2724 O 257.352 -0.687276 -5.66244 0
M  V30 2725 O 256.286 -2.61146 -5.42297 0
M  V30 2726 H 260.112 -2.14616 -2.1488 0
M  V30 2727 H 257.697 -1.10124 -1.0096 0
M  V30 2728 H 259.579 -0.728644 -4.15053 0
M  V30 2729 H 258.254 0.0427798 -3.23672 0
M  V30 2730 H 257.161 -2.26038 -2.9809 0
M  V30 2731 H 258.494 -2.95825 -3.93381 0
M  V30 2732 N 260.146 1.09593 -1.13257 0
M  V30 2733 C 261.056 2.19739 -0.821691 0
M  V30 2734 C 262.072 1.72926 0.19302 0
M  V30 2735 O 263.248 2.01385 0.0244895 0
M  V30 2736 C 260.313 3.45482 -0.290333 0
M  V30 2737 C 259.374 4.06985 -1.36607 0
M  V30 2738 C 258.607 5.26726 -0.859975 0
M  V30 2739 O 258.83 5.69594 0.303082 0
M  V30 2740 O 257.764 5.7931 -1.63351 0
M  V30 2741 H 261.59 2.48781 -1.74189 0
M  V30 2742 H 259.175 1.18496 -0.909894 0
M  V30 2743 H 261.057 4.214 0.000674022 0
M  V30 2744 H 259.732 3.18047 0.602306 0
M  V30 2745 H 258.639 3.32712 -1.71037 0
M  V30 2746 H 259.972 4.38643 -2.23279 0
M  V30 2747 N 261.624 0.925811 1.2754 0
M  V30 2748 C 262.849 0.580924 1.99098 0
M  V30 2749 C 263.274 -0.833555 1.68622 0
M  V30 2750 O 262.632 -1.55903 0.925422 0
M  V30 2751 C 262.68 0.811186 3.51358 0
M  V30 2752 O 261.784 -0.124129 4.12213 0
M  V30 2753 H 261.125 0.223873 0.625122 0
M  V30 2754 H 263.655 1.24455 1.62395 0
M  V30 2755 H 263.665 0.72601 4.01489 0
M  V30 2756 H 262.34 1.84227 3.72872 0
M  V30 2757 H 260.917 0.0108006 3.72898 0
M  V30 2758 N 263.102 -1.41638 0.69111 0
M  V30 2759 C 264.012 -2.34588 0.0233487 0
M  V30 2760 C 265.028 -1.55987 -0.770984 0
M  V30 2761 O 266.204 -1.88486 -0.709569 0
M  V30 2762 C 263.269 -3.34684 -0.904851 0
M  V30 2763 C 262.33 -4.29176 -0.103225 0
M  V30 2764 C 261.563 -5.2449 -0.987216 0
M  V30 2765 O 261.786 -5.2514 -2.22674 0
M  V30 2766 O 260.72 -6.00295 -0.439281 0
M  V30 2767 H 264.546 -2.93261 0.789416 0
M  V30 2768 H 262.131 -1.42417 0.45142 0
M  V30 2769 H 264.013 -3.96133 -1.43724 0
M  V30 2770 H 262.688 -2.78461 -1.65049 0
M  V30 2771 H 261.595 -3.71089 0.473655 0
M  V30 2772 H 262.928 -4.88484 0.60365 0
M  V30 2773 N 264.58 -0.43555 -1.51462 0
M  V30 2774 C 265.51 0.367376 -2.30592 0
M  V30 2775 C 266.491 1.02263 -1.35928 0
M  V30 2776 O 267.676 1.02661 -1.64847 0
M  V30 2777 C 264.806 1.46983 -3.14664 0
M  V30 2778 C 263.76 0.938161 -4.17591 0
M  V30 2779 C 263.086 2.13622 -4.90173 0
M  V30 2780 C 264.386 -0.0261621 -5.22293 0
M  V30 2781 H 266.08 -0.292969 -2.97963 0
M  V30 2782 H 263.626 -0.14234 -1.43295 0
M  V30 2783 H 265.579 2.03873 -3.688 0
M  V30 2784 H 264.303 2.15843 -2.4511 0
M  V30 2785 H 262.962 0.391481 -3.64504 0
M  V30 2786 H 262.61 2.81098 -4.17124 0
M  V30 2787 H 262.31 1.78688 -5.59772 0
M  V30 2788 H 263.834 2.7107 -5.47132 0
M  V30 2789 H 265.248 0.452384 -5.71512 0
M  V30 2790 H 263.645 -0.287992 -5.99409 0
M  V30 2791 H 264.715 -0.963391 -4.75233 0
M  V30 2792 N 266.058 1.56714 -0.166846 0
M  V30 2793 C 266.968 2.21331 0.777791 0
M  V30 2794 C 267.984 1.20358 1.25658 0
M  V30 2795 O 269.16 1.53005 1.30964 0
M  V30 2796 C 266.225 2.83787 1.99163 0
M  V30 2797 C 265.286 3.99947 1.56016 0
M  V30 2798 C 264.519 4.59415 2.71613 0
M  V30 2799 O 264.742 4.17769 3.88362 0
M  V30 2800 O 263.676 5.49359 2.45945 0
M  V30 2801 H 267.502 3.02605 0.257636 0
M  V30 2802 H 265.087 1.49275 0.0611393 0
M  V30 2803 H 266.969 3.23405 2.70161 0
M  V30 2804 H 265.644 2.05513 2.50092 0
M  V30 2805 H 264.551 3.65007 0.819809 0
M  V30 2806 H 265.884 4.79801 1.09782 0
M  V30 2807 N 267.536 -0.106894 1.57237 0
M  V30 2808 C 268.813 -0.843526 1.76477 0
M  V30 2809 C 269.193 -1.97499 0.745464 0
M  V30 2810 O 268.541 -2.27357 -0.228306 0
M  V30 2811 C 268.751 -1.34903 3.21873 0
M  V30 2812 C 270.099 -1.79654 3.8472 0
M  V30 2813 O 271.123 -1.44554 3.2555 0
M  V30 2814 O 269.982 -2.44515 4.88748 0
M  V30 2815 H 267.076 -0.401468 0.723016 0
M  V30 2816 H 269.622 -0.0896927 1.69463 0
M  V30 2817 H 268.394 -0.53781 3.87586 0
M  V30 2818 H 268.017 -2.16522 3.33473 0
M  V30 2819 N 269.014 -1.53014 -0.377408 0
M  V30 2820 C 269.977 -1.77957 -1.44444 0
M  V30 2821 C 270.977 -0.649763 -1.47087 0
M  V30 2822 O 272.167 -0.917897 -1.48055 0
M  V30 2823 C 269.299 -1.89089 -2.83651 0
M  V30 2824 H 270.492 -2.73243 -1.23606 0
M  V30 2825 H 268.045 -1.43912 -0.609844 0
M  V30 2826 H 268.78 -0.958293 -3.09818 0
M  V30 2827 H 268.565 -2.71254 -2.83132 0
M  V30 2828 H 270.055 -2.1002 -3.60945 0
M  V30 2829 N 270.492 0.636531 -1.44174 0
M  V30 2830 C 271.739 1.39619 -1.46672 0
M  V30 2831 C 272.067 1.94257 -0.0972691 0
M  V30 2832 O 271.322 1.73768 0.900175 0
M  V30 2833 C 271.621 2.58309 -2.47005 0
M  V30 2834 C 271.287 2.21992 -3.92467 0
M  V30 2835 C 269.949 2.118 -4.32081 0
M  V30 2836 C 272.301 1.9321 -4.84065 0
M  V30 2837 C 269.629 1.71007 -5.61225 0
M  V30 2838 C 271.981 1.53911 -6.13591 0
M  V30 2839 C 270.645 1.42257 -6.52165 0
M  V30 2840 H 269.915 0.510902 -0.536712 0
M  V30 2841 H 272.562 0.722328 -1.77355 0
M  V30 2842 H 270.867 3.30903 -2.09786 0
M  V30 2843 H 272.564 3.16533 -2.46186 0
M  V30 2844 H 269.154 2.30841 -3.61124 0
M  V30 2845 H 273.338 1.99997 -4.54219 0
M  V30 2846 H 268.594 1.60583 -5.89935 0
M  V30 2847 H 272.768 1.30677 -6.8403 0
M  V30 2848 H 270.395 1.10419 -7.52138 0
M  V30 2849 N 271.97 1.30982 0.876444 0
M  V30 2850 C 272.92 1.14688 1.97055 0
M  V30 2851 C 273.904 0.0596593 1.60789 0
M  V30 2852 O 275.096 0.283892 1.74708 0
M  V30 2853 C 272.225 0.849627 3.3262 0
M  V30 2854 C 271.311 1.97752 3.75173 0
M  V30 2855 N 271.702 3.22384 3.89746 0
M  V30 2856 C 270 1.8758 4.04635 0
M  V30 2857 C 270.701 3.96121 4.25985 0
M  V30 2858 N 269.677 3.24237 4.36315 0
M  V30 2859 H 273.479 2.09204 2.06424 0
M  V30 2860 H 270.993 1.22445 1.06682 0
M  V30 2861 H 272.99 0.713895 4.10742 0
M  V30 2862 H 271.65 -0.087376 3.24582 0
M  V30 2863 H 272.661 3.57575 3.74647 0
M  V30 2864 H 269.338 1.01303 4.05024 0
M  V30 2865 H 270.728 5.03491 4.44911 0
M  V30 2866 N 273.449 -1.08991 1.13837 0
M  V30 2867 C 274.865 -1.33312 0.877506 0
M  V30 2868 C 275.065 -1.95587 -0.48456 0
M  V30 2869 O 274.121 -2.20509 -1.23013 0
M  V30 2870 C 275.434 -2.24045 2.0056 0
M  V30 2871 C 276.982 -2.37542 2.03821 0
M  V30 2872 C 277.457 -3.31614 3.15905 0
M  V30 2873 N 278.948 -3.39189 3.15445 0
M  V30 2874 C 279.683 -4.11992 3.98811 0
M  V30 2875 N 279.179 -4.87553 4.92203 0
M  V30 2876 N 280.972 -4.07762 3.86894 0
M  V30 2877 H 273.123 -0.669456 2.01574 0
M  V30 2878 H 275.386 -0.357482 0.878015 0
M  V30 2879 H 275.092 -1.85521 2.98789 0
M  V30 2880 H 274.966 -3.24466 1.92359 0
M  V30 2881 H 277.353 -2.75327 1.06202 0
M  V30 2882 H 277.434 -1.36884 2.16093 0
M  V30 2883 H 277.078 -2.94551 4.13766 0
M  V30 2884 H 277.008 -4.32186 3.0087 0
M  V30 2885 H 279.499 -2.85314 2.47799 0
M  V30 2886 H 279.812 -5.40549 5.52292 0
M  V30 2887 H 278.157 -4.86627 4.96205 0
M  V30 2888 H 281.348 -3.47833 3.13257 0
M  V30 2889 H 281.521 -4.64238 4.52092 0
M  V30 2890 N 274.927 -0.932562 -1.27047 0
M  V30 2891 C 275.89 -0.440064 -2.24936 0
M  V30 2892 C 276.89 0.444071 -1.54547 0
M  V30 2893 O 278.08 0.244465 -1.72476 0
M  V30 2894 C 275.212 0.36678 -3.38921 0
M  V30 2895 H 276.405 -1.305 -2.70018 0
M  V30 2896 H 273.958 -0.713707 -1.39054 0
M  V30 2897 H 274.693 1.25033 -2.99228 0
M  V30 2898 H 274.478 -0.267204 -3.91188 0
M  V30 2899 H 275.968 0.701567 -4.11665 0
M  V30 2900 N 276.405 1.4127 -0.698611 0
M  V30 2901 C 277.352 2.30773 -0.0352094 0
M  V30 2902 C 278.322 1.47273 0.768111 0
M  V30 2903 O 279.507 1.76053 0.735524 0
M  V30 2904 C 276.647 3.33346 0.893 0
M  V30 2905 C 275.76 4.31924 0.0809695 0
M  V30 2906 C 274.895 5.21566 1.0071 0
M  V30 2907 C 273.934 6.11811 0.188155 0
M  V30 2908 N 273.071 6.93926 1.06825 0
M  V30 2909 H 277.911 2.86943 -0.804207 0
M  V30 2910 H 275.448 1.4132 -0.408294 0
M  V30 2911 H 277.406 3.91368 1.44523 0
M  V30 2912 H 276.036 2.78719 1.62836 0
M  V30 2913 H 275.088 3.75825 -0.588224 0
M  V30 2914 H 276.4 4.95716 -0.553801 0
M  V30 2915 H 275.554 5.84437 1.62845 0
M  V30 2916 H 274.293 4.58008 1.67572 0
M  V30 2917 H 273.298 5.47986 -0.446254 0
M  V30 2918 H 274.523 6.77425 -0.476716 0
M  V30 2919 H 272.469 6.32973 1.72283 0
M  V30 2920 H 272.386 7.54416 0.489123 0
M  V30 2921 H 273.654 7.61262 1.67632 0
M  V30 2922 N 277.883 0.443576 1.51229 0
M  V30 2923 C 279.108 -0.121648 2.07043 0
M  V30 2924 C 279.533 -1.35156 1.30823 0
M  V30 2925 O 278.891 -1.7793 0.347934 0
M  V30 2926 C 278.939 -0.41624 3.5819 0
M  V30 2927 O 278.043 -1.50163 3.8409 0
M  V30 2928 H 277.384 0.000871367 0.663999 0
M  V30 2929 H 279.914 0.626706 1.94765 0
M  V30 2930 H 279.924 -0.664867 4.02546 0
M  V30 2931 H 278.599 0.482653 4.1309 0
M  V30 2932 H 277.176 -1.24248 3.51592 0
M  V30 2933 N 279.361 -1.56624 0.175154 0
M  V30 2934 C 280.271 -2.21741 -0.766042 0
M  V30 2935 C 281.287 -1.21023 -1.25018 0
M  V30 2936 O 282.463 -1.53697 -1.3015 0
M  V30 2937 C 279.528 -2.84839 -1.97655 0
M  V30 2938 C 278.589 -4.00769 -1.53892 0
M  V30 2939 C 277.822 -4.60849 -2.69173 0
M  V30 2940 O 278.045 -4.19823 -3.86141 0
M  V30 2941 O 276.979 -5.50655 -2.43028 0
M  V30 2942 H 280.805 -3.02738 -0.241585 0
M  V30 2943 H 278.39 -1.49305 -0.053222 0
M  V30 2944 H 280.272 -3.24834 -2.68442 0
M  V30 2945 H 278.947 -2.06836 -2.48999 0
M  V30 2946 H 277.854 -3.65436 -0.80044 0
M  V30 2947 H 279.187 -4.80376 -1.07236 0
M  V30 2948 N 280.839 0.0985539 -1.57292 0
M  V30 2949 C 281.802 1.10402 -2.00858 0
M  V30 2950 C 282.802 1.33146 -0.901593 0
M  V30 2951 O 283.992 1.29318 -1.16716 0
M  V30 2952 C 281.124 2.45394 -2.36632 0
M  V30 2953 H 282.317 0.729099 -2.90902 0
M  V30 2954 H 279.87 0.343495 -1.52479 0
M  V30 2955 H 280.605 2.87769 -1.49531 0
M  V30 2956 H 280.39 2.30235 -3.17387 0
M  V30 2957 H 281.88 3.17718 -2.71007 0
M  V30 2958 N 282.317 1.53212 0.369288 0
M  V30 2959 C 283.227 1.82342 1.47609 0
M  V30 2960 C 284.243 0.711532 1.58787 0
M  V30 2961 O 285.419 1.0012 1.74751 0
M  V30 2962 C 282.484 2.00393 2.8292 0
M  V30 2963 C 281.545 3.24297 2.81301 0
M  V30 2964 C 280.778 3.41478 4.10157 0
M  V30 2965 O 281.001 2.63033 5.06132 0
M  V30 2966 O 279.935 4.34817 4.16194 0
M  V30 2967 H 283.761 2.76366 1.25918 0
M  V30 2968 H 281.346 1.38547 0.559034 0
M  V30 2969 H 283.228 2.13859 3.63101 0
M  V30 2970 H 281.903 1.09559 3.04596 0
M  V30 2971 H 280.81 3.16257 1.99831 0
M  V30 2972 H 282.143 4.15041 2.64578 0
M  V30 2973 N 283.795 -0.628877 1.44509 0
M  V30 2974 C 284.742 -1.74074 1.51549 0
M  V30 2975 C 285.712 -1.62084 0.363021 0
M  V30 2976 O 286.897 -1.81975 0.573567 0
M  V30 2977 C 284.037 -3.12328 1.46784 0
M  V30 2978 C 283.15 -3.35277 2.72422 0
M  V30 2979 C 282.285 -4.63515 2.59475 0
M  V30 2980 C 281.324 -4.7965 3.80266 0
M  V30 2981 N 280.461 -5.99168 3.65981 0
M  V30 2982 H 285.301 -1.67392 2.46544 0
M  V30 2983 H 282.838 -0.816527 1.22357 0
M  V30 2984 H 284.796 -3.92286 1.42012 0
M  V30 2985 H 283.426 -3.18018 0.553544 0
M  V30 2986 H 282.478 -2.49242 2.87372 0
M  V30 2987 H 283.79 -3.43078 3.62076 0
M  V30 2988 H 282.944 -5.51638 2.52548 0
M  V30 2989 H 281.683 -4.58076 1.67384 0
M  V30 2990 H 280.688 -3.89957 3.87574 0
M  V30 2991 H 281.913 -4.86902 4.73395 0
M  V30 2992 H 279.859 -5.94814 2.76644 0
M  V30 2993 H 279.776 -6.08035 4.49254 0
M  V30 2994 H 281.044 -6.89846 3.6295 0
M  V30 2995 N 285.273 -1.31445 -0.869486 0
M  V30 2996 C 286.498 -1.24256 -1.66058 0
M  V30 2997 C 286.923 0.188928 -1.87149 0
M  V30 2998 O 286.281 1.13522 -1.4136 0
M  V30 2999 C 286.329 -1.9924 -3.00559 0
M  V30 3000 O 285.433 -1.33007 -3.90362 0
M  V30 3001 H 284.774 -0.428973 -0.506831 0
M  V30 3002 H 287.304 -1.73521 -1.08404 0
M  V30 3003 H 287.314 -2.08854 -3.50491 0
M  V30 3004 H 285.989 -3.03342 -2.84528 0
M  V30 3005 H 284.566 -1.31848 -3.48813 0
M  V30 3006 N 286.751 1.08385 -1.14413 0
M  V30 3007 C 287.998 1.80776 -0.912482 0
M  V30 3008 C 288.326 1.86236 0.560934 0
M  V30 3009 O 287.581 1.33431 1.43159 0
M  V30 3010 C 287.88 3.26273 -1.45879 0
M  V30 3011 C 287.546 3.4093 -2.95089 0
M  V30 3012 C 286.208 3.44638 -3.35824 0
M  V30 3013 C 288.56 3.44591 -3.91033 0
M  V30 3014 C 285.888 3.49597 -4.71167 0
M  V30 3015 C 288.24 3.51086 -5.26233 0
M  V30 3016 C 286.904 3.53067 -5.6648 0
M  V30 3017 H 286.174 0.661507 -0.333901 0
M  V30 3018 H 288.821 1.27613 -1.42784 0
M  V30 3019 H 287.126 3.82146 -0.864376 0
M  V30 3020 H 288.823 3.80839 -1.2555 0
M  V30 3021 H 285.413 3.38736 -2.62594 0
M  V30 3022 H 289.597 3.40957 -3.60641 0
M  V30 3023 H 284.853 3.49424 -5.0171 0
M  V30 3024 H 289.027 3.52864 -6.00383 0
M  V30 3025 H 286.654 3.56662 -6.71339 0
M  V30 3026 N 288.23 0.939286 1.26551 0
M  V30 3027 C 289.478 0.58469 1.93457 0
M  V30 3028 C 289.799 -0.878774 1.74076 0
M  V30 3029 O 289.069 -1.62421 1.09528 0
M  V30 3030 H 287.649 0.21325 0.715914 0
M  V30 3031 H 290.311 1.1942 1.54029 0
M  V30 3032 H 289.407 0.800849 3.0165 0
M  V30 3033 N 289.708 -1.40897 0.706093 0
M  V30 3034 C 290.656 -2.32572 0.0361893 0
M  V30 3035 C 291.65 -1.51532 -0.757266 0
M  V30 3036 O 292.856 -1.67396 -0.661703 0
M  V30 3037 H 289.231 -0.751966 -0.00709935 0
M  V30 3038 H 291.202 -2.86733 0.826249 0
M  V30 3039 C 289.951 -3.36418 -0.87854 0
M  V30 3040 H 289.274 -3.98836 -0.277401 0
M  V30 3041 H 290.714 -4.0308 -1.3154 0
M  V30 3042 C 289.173 -2.71141 -1.99961 0
M  V30 3043 O 289.703 -2.56735 -3.0895 0
M  V30 3044 N 287.909 -2.29671 -1.78043 0
M  V30 3045 H 287.456 -2.41588 -0.894042 0
M  V30 3046 H 287.414 -1.86332 -2.53235 0
M  V30 3047 N 291.186 -0.45159 -1.50991 0
M  V30 3048 C 292.411 0.110667 -2.07105 0
M  V30 3049 C 292.836 1.3446 -1.31538 0
M  V30 3050 O 292.194 1.77743 -0.357365 0
M  V30 3051 C 292.242 0.397238 -3.58405 0
M  V30 3052 O 291.346 1.48124 -3.84881 0
M  V30 3053 H 290.687 -0.00439271 -0.663985 0
M  V30 3054 H 293.217 -0.637026 -1.9443 0
M  V30 3055 H 293.227 0.64351 -4.02893 0
M  V30 3056 H 291.902 -0.504553 -4.12828 0
M  V30 3057 H 290.479 1.22381 -3.52246 0
M  V30 3058 N 292.664 1.56529 -0.183458 0
M  V30 3059 C 293.574 2.22144 0.754272 0
M  V30 3060 C 294.59 1.21684 1.24374 0
M  V30 3061 O 295.766 1.54385 1.29333 0
M  V30 3062 C 292.831 2.85884 1.96141 0
M  V30 3063 C 291.892 4.01579 1.51765 0
M  V30 3064 C 291.125 4.6227 2.66725 0
M  V30 3065 O 291.348 4.21865 3.83909 0
M  V30 3066 O 290.282 5.51936 2.40104 0
M  V30 3067 H 294.108 3.02861 0.225527 0
M  V30 3068 H 291.693 1.49331 0.0453032 0
M  V30 3069 H 293.575 3.26253 2.66715 0
M  V30 3070 H 292.25 2.08154 2.47899 0
M  V30 3071 H 291.157 3.65856 0.781049 0
M  V30 3072 H 292.49 4.80938 1.04686 0
M  V30 3073 N 294.142 -0.090211 1.57342 0
M  V30 3074 C 295.388 -0.793982 1.86611 0
M  V30 3075 C 295.721 -1.78142 0.773252 0
M  V30 3076 O 294.996 -1.93271 -0.218304 0
M  V30 3077 C 295.279 -1.51839 3.26523 0
M  V30 3078 C 295.132 -0.548609 4.46442 0
M  V30 3079 C 296.451 -2.46779 3.64401 0
M  V30 3080 H 293.57 -0.287186 0.678744 0
M  V30 3081 H 296.212 -0.0575076 1.89913 0
M  V30 3082 H 294.362 -2.14617 3.23839 0
M  V30 3083 H 296.034 0.0725513 4.61243 0
M  V30 3084 H 294.277 0.137614 4.33582 0
M  V30 3085 H 294.948 -1.09271 5.41076 0
M  V30 3086 H 297.424 -1.94089 3.68061 0
M  V30 3087 H 296.3 -2.94479 4.63221 0
M  V30 3088 H 296.561 -3.30758 2.93346 0
M  V30 3089 N 295.62 -1.53406 -0.361157 0
M  V30 3090 C 296.85 -1.73465 -1.1222 0
M  V30 3091 C 297.258 -0.465486 -1.83384 0
M  V30 3092 O 296.601 0.571611 -1.7458 0
M  V30 3093 C 296.663 -2.84834 -2.19339 0
M  V30 3094 C 296.327 -4.25038 -1.67903 0
M  V30 3095 C 297.324 -5.07231 -1.14074 0
M  V30 3096 C 295.009 -4.71464 -1.73282 0
M  V30 3097 C 297.003 -6.33942 -0.663068 0
M  V30 3098 C 294.69 -5.98153 -1.25127 0
M  V30 3099 C 295.688 -6.79223 -0.717296 0
M  V30 3100 O 295.376 -8.03533 -0.242865 0
M  V30 3101 H 295.108 -0.583526 -0.341283 0
M  V30 3102 H 297.662 -2.00964 -0.424591 0
M  V30 3103 H 295.892 -2.5282 -2.92607 0
M  V30 3104 H 297.581 -2.9303 -2.80871 0
M  V30 3105 H 298.347 -4.72534 -1.09254 0
M  V30 3106 H 294.226 -4.08432 -2.13786 0
M  V30 3107 H 297.77 -6.97167 -0.245612 0
M  V30 3108 H 293.667 -6.32347 -1.29642 0
M  V30 3109 H 294.435 -8.177 -0.361786 0
M  V30 3110 N 297.098 0.621204 -1.44841 0
M  V30 3111 C 298.347 1.37658 -1.47422 0
M  V30 3112 C 298.66 1.95264 -0.114629 0
M  V30 3113 O 299.866 2.71494 -0.0180199 0
M  V30 3114 C 298.322 2.49285 -2.59586 0
M  V30 3115 C 297.93 1.98149 -4.01797 0
M  V30 3116 C 299.674 3.26409 -2.71399 0
M  V30 3117 C 297.581 3.07178 -5.05367 0
M  V30 3118 H 296.511 0.517344 -0.548517 0
M  V30 3119 H 299.162 0.667257 -1.70938 0
M  V30 3120 H 297.544 3.22839 -2.29328 0
M  V30 3121 H 298.718 1.31395 -4.41669 0
M  V30 3122 H 297.033 1.33812 -3.94314 0
M  V30 3123 H 299.63 4.07706 -3.45948 0
M  V30 3124 H 299.973 3.76535 -1.77559 0
M  V30 3125 H 300.506 2.5995 -3.01116 0
M  V30 3126 H 297.245 2.61985 -6.00869 0
M  V30 3127 H 296.765 3.72542 -4.70077 0
M  V30 3128 H 298.444 3.71789 -5.29511 0
M  V30 3129 N 298.576 1.31904 0.862503 0
M  V30 3130 C 299.486 1.22161 2.00285 0
M  V30 3131 C 300.502 0.136785 1.73462 0
M  V30 3132 O 301.678 0.355994 1.98229 0
M  V30 3133 C 298.743 0.937093 3.33796 0
M  V30 3134 C 297.804 2.10957 3.73893 0
M  V30 3135 C 297.037 1.83853 5.01033 0
M  V30 3136 O 297.26 0.777274 5.65079 0
M  V30 3137 O 296.194 2.69741 5.38074 0
M  V30 3138 H 300.02 2.18008 2.11439 0
M  V30 3139 H 297.605 1.11716 0.991957 0
M  V30 3140 H 299.487 0.794583 4.13841 0
M  V30 3141 H 298.162 0.00871894 3.23699 0
M  V30 3142 H 297.069 2.30752 2.94456 0
M  V30 3143 H 298.402 3.02046 3.88625 0
M  V30 3144 N 300.054 -1.07777 1.14986 0
M  V30 3145 C 301.47 -1.32373 0.891596 0
M  V30 3146 C 301.67 -1.9609 -0.463788 0
M  V30 3147 O 300.726 -2.21801 -1.20667 0
M  V30 3148 C 302.039 -2.21905 2.02925 0
M  V30 3149 C 303.587 -2.35367 2.06329 0
M  V30 3150 C 304.062 -3.28245 3.19405 0
M  V30 3151 N 305.553 -3.35824 3.19024 0
M  V30 3152 C 306.288 -4.07739 4.03158 0
M  V30 3153 N 305.784 -4.82306 4.97346 0
M  V30 3154 N 307.577 -4.03635 3.91197 0
M  V30 3155 H 299.728 -0.648039 2.02273 0
M  V30 3156 H 301.991 -0.348149 0.881757 0
M  V30 3157 H 301.697 -1.82342 3.0074 0
M  V30 3158 H 301.571 -3.22407 1.95789 0
M  V30 3159 H 303.958 -2.74186 1.09116 0
M  V30 3160 H 304.039 -1.34585 2.17533 0
M  V30 3161 H 303.683 -2.90146 4.16867 0
M  V30 3162 H 303.613 -4.28971 3.05437 0
M  V30 3163 H 306.104 -2.8267 2.50811 0
M  V30 3164 H 306.417 -5.34661 5.57994 0
M  V30 3165 H 304.762 -4.81337 5.01338 0
M  V30 3166 H 307.953 -3.44491 3.16928 0
M  V30 3167 H 308.126 -4.59417 4.5699 0
M  V30 3168 N 301.532 -0.945985 -1.26051 0
M  V30 3169 C 302.762 -0.612136 -1.97323 0
M  V30 3170 C 303.17 0.818171 -1.70595 0
M  V30 3171 O 302.513 1.55777 -0.973613 0
M  V30 3172 C 302.575 -0.780347 -3.50929 0
M  V30 3173 C 302.239 -2.18619 -4.01317 0
M  V30 3174 C 303.236 -3.16209 -4.12683 0
M  V30 3175 C 300.921 -2.50805 -4.35203 0
M  V30 3176 C 302.915 -4.44085 -4.57238 0
M  V30 3177 C 300.602 -3.78912 -4.79446 0
M  V30 3178 C 301.6 -4.75365 -4.90425 0
M  V30 3179 O 301.288 -6.01191 -5.3369 0
M  V30 3180 H 301.02 -0.229134 -0.635982 0
M  V30 3181 H 303.574 -1.27036 -1.61404 0
M  V30 3182 H 301.804 -0.0649864 -3.86645 0
M  V30 3183 H 303.493 -0.448842 -4.03411 0
M  V30 3184 H 304.259 -2.92668 -3.86744 0
M  V30 3185 H 300.138 -1.76463 -4.2589 0
M  V30 3186 H 303.682 -5.19373 -4.65723 0
M  V30 3187 H 299.579 -4.02265 -5.0483 0
M  V30 3188 H 300.347 -6.04442 -5.51899 0
M  V30 3189 N 303.011 1.40521 -0.713556 0
M  V30 3190 C 304.26 2.00155 -0.249192 0
M  V30 3191 C 304.573 1.57224 1.16362 0
M  V30 3192 O 305.779 2.09542 1.72639 0
M  V30 3193 C 304.235 3.5773 -0.3946 0
M  V30 3194 C 303.843 4.09635 -1.81392 0
M  V30 3195 C 305.587 4.24499 0.00907364 0
M  V30 3196 C 303.494 5.59707 -1.91003 0
M  V30 3197 H 302.424 0.74868 -0.0894114 0
M  V30 3198 H 305.075 1.60784 -0.884352 0
M  V30 3199 H 303.457 3.94792 0.30911 0
M  V30 3200 H 304.631 3.83955 -2.54785 0
M  V30 3201 H 302.946 3.55456 -2.16888 0
M  V30 3202 H 305.543 5.34683 -0.0420404 0
M  V30 3203 H 305.886 4.02824 1.05065 0
M  V30 3204 H 306.419 3.92536 -0.645007 0
M  V30 3205 H 303.158 5.86234 -2.93275 0
M  V30 3206 H 302.678 5.87258 -1.22019 0
M  V30 3207 H 304.357 6.24776 -1.6812 0
M  V30 3208 N 304.489 0.459591 1.5075 0
M  V30 3209 C 305.766 -0.160371 1.94941 0
M  V30 3210 C 306.146 -1.58048 1.39943 0
M  V30 3211 O 305.494 -2.206 0.595629 0
M  V30 3212 C 305.704 -0.115432 3.48809 0
M  V30 3213 C 307.052 -0.310026 4.23467 0
M  V30 3214 O 308.076 -0.192543 3.55679 0
M  V30 3215 O 306.935 -0.546031 5.43765 0
M  V30 3216 H 304.029 -0.117925 0.818549 0
M  V30 3217 H 306.575 0.519169 1.61563 0
M  V30 3218 H 305.347 0.87652 3.81357 0
M  V30 3219 H 304.97 -0.836928 3.88692 0
M  V30 3220 N 305.967 -1.56429 0.191757 0
M  V30 3221 C 306.915 -2.20273 -0.747174 0
M  V30 3222 C 307.909 -1.17288 -1.22229 0
M  V30 3223 O 309.115 -1.35441 -1.18557 0
M  V30 3224 H 305.49 -0.705885 -0.259289 0
M  V30 3225 H 307.461 -2.97826 -0.184963 0
M  V30 3226 C 306.21 -2.87356 -1.95759 0
M  V30 3227 H 305.533 -3.66341 -1.60106 0
M  V30 3228 H 306.973 -3.3547 -2.59299 0
M  V30 3229 C 305.432 -1.88213 -2.79423 0
M  V30 3230 O 305.962 -1.38033 -3.7724 0
M  V30 3231 N 304.168 -1.56516 -2.44849 0
M  V30 3232 H 303.715 -1.97516 -1.65364 0
M  V30 3233 H 303.673 -0.904369 -3.01112 0
M  V30 3234 N 307.445 0.0818655 -1.57387 0
M  V30 3235 C 308.856 0.634871 -1.75574 0
M  V30 3236 C 309.207 1.78435 -0.815809 0
M  V30 3237 O 308.332 2.164 0.0025366 0
M  V30 3238 C 308.927 1.15845 -3.18379 0
M  V30 3239 C 307.486 1.65741 -3.37945 0
M  V30 3240 C 306.633 0.572549 -2.71325 0
M  V30 3241 H 309.584 -0.144268 -1.58043 0
M  V30 3242 H 309.605 2.02751 -3.21982 0
M  V30 3243 H 309.117 0.321631 -3.86765 0
M  V30 3244 H 307.218 2.51781 -2.74658 0
M  V30 3245 H 307.331 1.74129 -4.46336 0
M  V30 3246 H 305.695 1.01518 -2.33594 0
M  V30 3247 H 306.478 -0.253918 -3.4236 0
M  V30 3248 N 308.923 1.53595 0.353017 0
M  V30 3249 C 309.87 1.80919 1.43308 0
M  V30 3250 C 310.84 0.654288 1.5267 0
M  V30 3251 O 312.025 0.897759 1.6836 0
M  V30 3252 C 309.165 2.01605 2.80089 0
M  V30 3253 C 308.278 3.29321 2.79593 0
M  V30 3254 C 307.413 3.40125 4.0803 0
M  V30 3255 C 306.452 4.61826 4.01725 0
M  V30 3256 N 305.589 4.69716 5.21834 0
M  V30 3257 H 310.429 2.73074 1.19308 0
M  V30 3258 H 307.966 1.35263 0.578131 0
M  V30 3259 H 309.924 2.11586 3.59565 0
M  V30 3260 H 308.554 1.12772 3.0246 0
M  V30 3261 H 307.606 3.28229 1.92276 0
M  V30 3262 H 308.918 4.18884 2.70809 0
M  V30 3263 H 308.072 3.49488 4.95927 0
M  V30 3264 H 306.811 2.48601 4.19582 0
M  V30 3265 H 305.816 4.52552 3.12213 0
M  V30 3266 H 307.041 5.54705 3.91764 0
M  V30 3267 H 304.987 3.81097 5.33948 0
M  V30 3268 H 304.904 5.53202 5.1527 0
M  V30 3269 H 306.172 4.83376 6.11529 0
M  V30 3270 N 310.401 -0.613514 1.45168 0
M  V30 3271 C 311.351 -1.71871 1.49815 0
M  V30 3272 C 312.335 -1.56774 0.362021 0
M  V30 3273 O 313.527 -1.66212 0.608493 0
M  V30 3274 C 310.656 -3.1061 1.46207 0
M  V30 3275 C 309.742 -3.31114 2.64999 0
M  V30 3276 N 310.133 -3.21904 3.90143 0
M  V30 3277 C 308.431 -3.61966 2.6057 0
M  V30 3278 C 309.132 -3.43577 4.69393 0
M  V30 3279 N 308.108 -3.67287 4.00751 0
M  V30 3280 H 311.91 -1.63235 2.444 0
M  V30 3281 H 309.424 -0.816577 1.40377 0
M  V30 3282 H 311.421 -3.8989 1.4762 0
M  V30 3283 H 310.081 -3.20399 0.52673 0
M  V30 3284 H 311.092 -3.00436 4.21852 0
M  V30 3285 H 307.769 -3.78629 1.75916 0
M  V30 3286 H 309.159 -3.41901 5.78406 0
M  V30 3287 N 311.879 -1.3236 -0.855495 0
M  V30 3288 C 313.128 -1.22226 -1.60448 0
M  V30 3289 C 313.441 0.214733 -1.94418 0
M  V30 3290 O 314.647 0.437917 -2.67945 0
M  V30 3291 C 313.103 -2.14063 -2.89318 0
M  V30 3292 C 312.711 -3.62839 -2.62777 0
M  V30 3293 C 314.455 -2.12764 -3.67331 0
M  V30 3294 C 312.362 -4.4664 -3.87643 0
M  V30 3295 H 311.292 -0.453904 -0.602069 0
M  V30 3296 H 313.943 -1.57314 -0.944698 0
M  V30 3297 H 312.325 -1.71889 -3.5675 0
M  V30 3298 H 313.499 -4.1335 -2.03662 0
M  V30 3299 H 311.814 -3.66261 -1.98096 0
M  V30 3300 H 314.411 -2.72611 -4.59987 0
M  V30 3301 H 314.754 -1.11841 -4.00995 0
M  V30 3302 H 315.287 -2.53214 -3.06802 0
M  V30 3303 H 312.026 -5.48373 -3.5912 0
M  V30 3304 H 311.546 -4.0088 -4.46156 0
M  V30 3305 H 313.225 -4.59597 -4.55389 0
M  V30 3306 N 313.357 1.07166 -1.15556 0
M  V30 3307 C 314.267 2.17947 -0.868116 0
M  V30 3308 C 315.283 1.73297 0.156297 0
M  V30 3309 O 316.459 2.01392 -0.0182327 0
M  V30 3310 C 313.524 3.44789 -0.36355 0
M  V30 3311 C 312.585 4.03996 -1.45209 0
M  V30 3312 C 311.818 5.24783 -0.971508 0
M  V30 3313 O 312.041 5.70109 0.182194 0
M  V30 3314 O 310.975 5.75715 -1.75603 0
M  V30 3315 H 314.801 2.4503 -1.79427 0
M  V30 3316 H 312.386 1.16539 -0.934824 0
M  V30 3317 H 314.268 4.21307 -0.0887113 0
M  V30 3318 H 312.943 3.19253 0.534708 0
M  V30 3319 H 311.85 3.29009 -1.78056 0
M  V30 3320 H 313.183 4.33808 -2.32533 0
M  V30 3321 N 314.835 0.952656 1.25548 0
M  V30 3322 C 316.081 0.607272 1.93494 0
M  V30 3323 C 316.414 -0.853245 1.74452 0
M  V30 3324 O 315.689 -1.61194 1.08843 0
M  V30 3325 C 315.972 0.96435 3.46947 0
M  V30 3326 C 315.825 2.48045 3.75225 0
M  V30 3327 C 317.144 0.487987 4.37386 0
M  V30 3328 H 314.263 0.222096 0.702739 0
M  V30 3329 H 316.905 1.18895 1.48203 0
M  V30 3330 H 315.055 0.469361 3.85654 0
M  V30 3331 H 316.727 3.04905 3.46166 0
M  V30 3332 H 314.97 2.919 3.209 0
M  V30 3333 H 315.641 2.6808 4.82532 0
M  V30 3334 H 318.117 0.912558 4.0597 0
M  V30 3335 H 316.993 0.766547 5.43521 0
M  V30 3336 H 317.254 -0.612063 4.37843 0
M  V30 3337 N 316.313 -1.40141 0.720998 0
M  V30 3338 C 317.245 -2.29177 0.0324669 0
M  V30 3339 C 318.258 -1.46105 -0.718126 0
M  V30 3340 O 319.447 -1.69335 -0.564608 0
M  V30 3341 C 316.547 -3.24473 -0.978292 0
M  V30 3342 C 315.72 -4.36423 -0.292115 0
M  V30 3343 C 314.779 -5.12122 -1.20901 0
M  V30 3344 O 313.805 -5.64981 -0.691766 0
M  V30 3345 N 315.007 -5.21992 -2.53978 0
M  V30 3346 H 317.772 -2.88909 0.796984 0
M  V30 3347 H 315.333 -1.51569 0.569068 0
M  V30 3348 H 317.325 -3.71987 -1.59398 0
M  V30 3349 H 315.895 -2.65871 -1.64413 0
M  V30 3350 H 315.115 -3.90967 0.503847 0
M  V30 3351 H 316.403 -5.08467 0.183971 0
M  V30 3352 H 315.801 -4.8054 -2.98493 0
M  V30 3353 H 314.358 -5.72995 -3.10677 0
M  V30 3354 N 317.792 -0.46758 -1.50504 0
M  V30 3355 C 319.038 0.0887532 -2.02606 0
M  V30 3356 C 319.371 1.39686 -1.34913 0
M  V30 3357 O 318.646 1.88644 -0.473694 0
M  V30 3358 C 318.929 0.276206 -3.59039 0
M  V30 3359 C 318.782 -1.05267 -4.37309 0
M  V30 3360 C 320.101 1.03235 -4.27821 0
M  V30 3361 H 317.22 0.0307814 -0.736357 0
M  V30 3362 H 319.862 -0.612485 -1.79857 0
M  V30 3363 H 318.012 0.8735 -3.78553 0
M  V30 3364 H 319.684 -1.68628 -4.29374 0
M  V30 3365 H 317.927 -1.65015 -4.01189 0
M  V30 3366 H 318.598 -0.875197 -5.45018 0
M  V30 3367 H 321.074 0.526111 -4.12761 0
M  V30 3368 H 319.95 1.1323 -5.37094 0
M  V30 3369 H 320.211 2.06806 -3.90748 0
M  V30 3370 N 319.27 1.56325 -0.20005 0
M  V30 3371 C 320.519 1.96895 0.437652 0
M  V30 3372 C 320.832 1.08999 1.62415 0
M  V30 3373 O 322.038 1.39372 2.32997 0
M  V30 3374 C 320.494 3.50198 0.830025 0
M  V30 3375 C 320.102 4.46765 -0.332461 0
M  V30 3376 C 321.846 3.99526 1.43453 0
M  V30 3377 C 319.753 5.91344 0.0811468 0
M  V30 3378 H 318.683 0.735209 0.167282 0
M  V30 3379 H 321.334 1.81148 -0.292853 0
M  V30 3380 H 319.716 3.61467 1.61734 0
M  V30 3381 H 320.89 4.47231 -1.11 0
M  V30 3382 H 319.205 4.07657 -0.848789 0
M  V30 3383 H 321.802 5.05025 1.75652 0
M  V30 3384 H 322.145 3.44122 2.34277 0
M  V30 3385 H 322.678 3.91393 0.71109 0
M  V30 3386 H 319.417 6.50685 -0.793033 0
M  V30 3387 H 318.937 5.94121 0.823445 0
M  V30 3388 H 320.616 6.44945 0.515252 0
M  V30 3389 N 320.748 -0.0735177 1.57428 0
M  V30 3390 C 321.996 -0.771472 1.86796 0
M  V30 3391 C 322.317 -1.78201 0.791804 0
M  V30 3392 O 321.587 -1.95074 -0.179718 0
M  V30 3393 H 320.167 -0.28791 0.689287 0
M  V30 3394 H 322.829 -0.0500161 1.94836 0
M  V30 3395 H 321.925 -1.28874 2.8425 0
M  V30 3396 N 322.226 -1.5378 -0.344866 0
M  V30 3397 C 323.503 -1.61589 -1.10219 0
M  V30 3398 C 323.883 -0.436316 -2.06542 0
M  V30 3399 O 323.231 0.571543 -2.21237 0
M  V30 3400 C 323.441 -2.97602 -1.82301 0
M  V30 3401 C 324.789 -3.5291 -2.36093 0
M  V30 3402 O 325.813 -2.99768 -1.924 0
M  V30 3403 O 324.672 -4.45859 -3.16026 0
M  V30 3404 H 321.766 -0.653522 -0.506792 0
M  V30 3405 H 324.312 -1.66126 -0.346465 0
M  V30 3406 H 323.084 -3.74893 -1.12121 0
M  V30 3407 H 322.707 -2.9665 -2.64735 0
M  V30 3408 N 323.704 0.605807 -1.45491 0
M  V30 3409 C 324.614 1.74466 -1.56839 0
M  V30 3410 C 325.63 1.68006 -0.452772 0
M  V30 3411 O 326.806 1.8833 -0.713708 0
M  V30 3412 C 323.871 3.10931 -1.53371 0
M  V30 3413 C 322.932 3.28832 -2.75986 0
M  V30 3414 C 322.165 4.58787 -2.72673 0
M  V30 3415 O 322.388 5.4122 -1.80102 0
M  V30 3416 O 321.322 4.79438 -3.63899 0
M  V30 3417 H 325.148 1.67843 -2.53106 0
M  V30 3418 H 322.733 0.770108 -1.28022 0
M  V30 3419 H 324.615 3.92233 -1.54051 0
M  V30 3420 H 323.29 3.18042 -0.602572 0
M  V30 3421 H 322.197 2.47112 -2.80867 0
M  V30 3422 H 323.53 3.26599 -3.68231 0
M  V30 3423 N 325.182 1.32811 0.848464 0
M  V30 3424 C 326.132 1.18842 1.94578 0
M  V30 3425 C 327.116 0.0937517 1.60627 0
M  V30 3426 O 328.308 0.320887 1.74067 0
M  V30 3427 C 325.437 0.91999 3.30743 0
M  V30 3428 C 324.523 2.05665 3.70894 0
M  V30 3429 N 324.914 3.30579 3.8282 0
M  V30 3430 C 323.212 1.9612 4.00566 0
M  V30 3431 C 323.913 4.05067 4.17487 0
M  V30 3432 N 322.889 3.33419 4.2934 0
M  V30 3433 H 326.691 2.13536 2.0194 0
M  V30 3434 H 324.205 1.2468 1.0406 0
M  V30 3435 H 326.202 0.800859 4.09136 0
M  V30 3436 H 324.862 -0.0185076 3.24695 0
M  V30 3437 H 325.873 3.65441 3.66978 0
M  V30 3438 H 322.55 1.09871 4.02784 0
M  V30 3439 H 323.94 5.12815 4.34131 0
M  V30 3440 N 326.66 -1.06551 1.16123 0
M  V30 3441 C 327.908 -1.78947 0.939267 0
M  V30 3442 C 328.229 -1.87532 -0.534476 0
M  V30 3443 O 327.499 -1.38211 -1.38833 0
M  V30 3444 H 326.079 -0.662807 0.344523 0
M  V30 3445 H 328.741 -1.28725 1.46342 0
M  V30 3446 H 327.837 -2.81117 1.35572 0
M  V30 3447 N 328.138 -0.959301 -1.25041 0
M  V30 3448 C 329.086 -0.474437 -2.2771 0
M  V30 3449 C 330.08 0.457697 -1.631 0
M  V30 3450 O 331.286 0.333912 -1.76876 0
M  V30 3451 H 327.661 -0.134936 -0.739795 0
M  V30 3452 H 329.632 -1.35251 -2.65988 0
M  V30 3453 C 328.381 0.227884 -3.46952 0
M  V30 3454 H 327.704 -0.480248 -3.96905 0
M  V30 3455 H 329.144 0.531091 -4.20661 0
M  V30 3456 C 327.603 1.452 -3.04004 0
M  V30 3457 O 328.133 2.54949 -3.10426 0
M  V30 3458 N 326.339 1.31502 -2.59144 0
M  V30 3459 H 325.886 0.422065 -2.54119 0
M  V30 3460 H 325.844 2.13521 -2.30773 0
M  V30 3461 N 329.616 1.39756 -0.72842 0
M  V30 3462 C 330.865 1.99879 -0.270407 0
M  V30 3463 C 331.178 1.58449 1.14688 0
M  V30 3464 O 332.384 2.11362 1.70407 0
M  V30 3465 C 330.84 3.57292 -0.43252 0
M  V30 3466 C 330.448 4.07688 -1.85727 0
M  V30 3467 C 332.192 4.24485 -0.0359507 0
M  V30 3468 C 330.099 5.5765 -1.96928 0
M  V30 3469 H 329.029 0.747689 -0.0973472 0
M  V30 3470 H 331.68 1.59837 -0.901355 0
M  V30 3471 H 330.062 3.95097 0.267219 0
M  V30 3472 H 331.236 3.81231 -2.58843 0
M  V30 3473 H 329.551 3.53135 -2.20646 0
M  V30 3474 H 332.148 5.34609 -0.0987484 0
M  V30 3475 H 332.491 4.03915 1.00787 0
M  V30 3476 H 333.024 3.9183 -0.686604 0
M  V30 3477 H 329.763 5.8309 -2.99476 0
M  V30 3478 H 329.283 5.8593 -1.28241 0
M  V30 3479 H 330.962 6.22957 -1.74737 0
M  V30 3480 N 331.094 0.475555 1.50254 0
M  V30 3481 C 332.34 -0.0780073 2.0265 0
M  V30 3482 C 332.673 -1.38968 1.35652 0
M  V30 3483 O 331.948 -1.8839 0.483691 0
M  V30 3484 C 332.231 -0.257161 3.59181 0
M  V30 3485 C 332.084 1.07585 4.36744 0
M  V30 3486 C 333.403 -1.00965 4.28362 0
M  V30 3487 H 330.522 -0.0268758 0.73651 0
M  V30 3488 H 333.164 0.622015 1.7953 0
M  V30 3489 H 331.314 -0.853412 3.79011 0
M  V30 3490 H 332.986 1.70902 4.28474 0
M  V30 3491 H 331.229 1.6714 4.00308 0
M  V30 3492 H 331.9 0.904088 5.44546 0
M  V30 3493 H 334.376 -0.504214 4.13034 0
M  V30 3494 H 333.252 -1.10381 5.37687 0
M  V30 3495 H 333.513 -2.04731 3.91839 0
M  V30 3496 N 332.573 -1.56217 0.208337 0
M  V30 3497 C 333.523 -2.16324 -0.720281 0
M  V30 3498 C 334.507 -1.10775 -1.16695 0
M  V30 3499 O 335.699 -1.36801 -1.12314 0
M  V30 3500 C 332.828 -2.83644 -1.93393 0
M  V30 3501 C 331.914 -3.96401 -1.50755 0
M  V30 3502 N 332.305 -4.99546 -0.792937 0
M  V30 3503 C 330.603 -4.08246 -1.79585 0
M  V30 3504 C 331.304 -5.78828 -0.577364 0
M  V30 3505 N 330.28 -5.31723 -1.1301 0
M  V30 3506 H 334.082 -2.93432 -0.165725 0
M  V30 3507 H 331.596 -1.62397 0.00906463 0
M  V30 3508 H 333.593 -3.25107 -2.60981 0
M  V30 3509 H 332.253 -2.08027 -2.49308 0
M  V30 3510 H 333.264 -5.15967 -0.447004 0
M  V30 3511 H 329.941 -3.4377 -2.36915 0
M  V30 3512 H 331.331 -6.71899 -0.00952956 0
M  V30 3513 N 334.051 0.0651679 -1.57465 0
M  V30 3514 C 334.981 1.07693 -2.07182 0
M  V30 3515 C 335.962 1.39962 -0.966673 0
M  V30 3516 O 337.147 1.49475 -1.2398 0
M  V30 3517 C 334.277 2.3885 -2.52127 0
M  V30 3518 C 333.231 2.20917 -3.66579 0
M  V30 3519 C 332.557 3.57515 -3.97601 0
M  V30 3520 C 333.857 1.62493 -4.9638 0
M  V30 3521 H 335.551 0.663199 -2.91962 0
M  V30 3522 H 333.097 0.317569 -1.40455 0
M  V30 3523 H 335.05 3.09928 -2.85522 0
M  V30 3524 H 333.774 2.82215 -1.64384 0
M  V30 3525 H 332.433 1.52279 -3.33477 0
M  V30 3526 H 332.081 3.98463 -3.06979 0
M  V30 3527 H 331.781 3.46353 -4.74672 0
M  V30 3528 H 333.305 4.30013 -4.33499 0
M  V30 3529 H 334.719 2.23445 -5.27963 0
M  V30 3530 H 333.116 1.62009 -5.77818 0
M  V30 3531 H 334.186 0.587041 -4.81333 0
M  V30 3532 N 335.529 1.53961 0.336706 0
M  V30 3533 C 336.776 1.71536 1.07618 0
M  V30 3534 C 337.104 0.482125 1.8843 0
M  V30 3535 O 336.359 -0.536142 1.88213 0
M  V30 3536 C 336.658 2.93493 2.03953 0
M  V30 3537 C 336.324 4.28811 1.39399 0
M  V30 3538 C 334.986 4.65602 1.21523 0
M  V30 3539 C 337.338 5.12844 0.929541 0
M  V30 3540 C 334.666 5.84037 0.558312 0
M  V30 3541 C 337.018 6.31951 0.286505 0
M  V30 3542 C 335.682 6.67432 0.0954869 0
M  V30 3543 H 334.952 0.627696 0.393801 0
M  V30 3544 H 337.599 1.88186 0.354715 0
M  V30 3545 H 335.904 2.71475 2.82504 0
M  V30 3546 H 337.601 3.04285 2.61174 0
M  V30 3547 H 334.191 3.99858 1.54311 0
M  V30 3548 H 338.375 4.84947 1.05548 0
M  V30 3549 H 333.631 6.10097 0.398995 0
M  V30 3550 H 337.805 6.96352 -0.0814376 0
M  V30 3551 H 335.432 7.59063 -0.415579 0
M  V30 3552 N 337.007 -0.598083 1.45811 0
M  V30 3553 C 337.917 -1.73632 1.57763 0
M  V30 3554 C 338.933 -1.67763 0.461676 0
M  V30 3555 O 340.109 -1.87949 0.723685 0
M  V30 3556 C 337.174 -3.10114 1.55018 0
M  V30 3557 C 336.235 -3.27364 2.77726 0
M  V30 3558 C 335.468 -4.57334 2.75102 0
M  V30 3559 O 335.691 -5.40258 1.8297 0
M  V30 3560 O 334.625 -4.77502 3.66437 0
M  V30 3561 H 338.451 -1.66498 2.53992 0
M  V30 3562 H 336.036 -0.763308 1.28429 0
M  V30 3563 H 337.918 -3.9141 1.56129 0
M  V30 3564 H 336.593 -3.17718 0.619431 0
M  V30 3565 H 335.5 -2.45619 2.82174 0
M  V30 3566 H 336.833 -3.24641 3.69958 0
M  V30 3567 N 338.485 -1.33259 -0.841409 0
M  V30 3568 C 339.901 -1.12538 -1.13169 0
M  V30 3569 C 340.101 0.0854037 -2.01319 0
M  V30 3570 O 339.157 0.766417 -2.40587 0
M  V30 3571 C 340.47 -2.41156 -1.79623 0
M  V30 3572 C 342.018 -2.47038 -1.922 0
M  V30 3573 C 342.493 -3.7561 -2.6207 0
M  V30 3574 N 343.984 -3.76667 -2.69585 0
M  V30 3575 C 344.719 -4.72861 -3.2433 0
M  V30 3576 N 344.215 -5.79428 -3.79783 0
M  V30 3577 N 346.008 -4.6034 -3.22558 0
M  V30 3578 H 338.159 -2.10868 -0.254676 0
M  V30 3579 H 340.422 -0.931615 -0.175493 0
M  V30 3580 H 340.128 -3.29747 -1.22311 0
M  V30 3581 H 340.002 -2.53114 -2.79666 0
M  V30 3582 H 342.389 -1.58898 -2.48667 0
M  V30 3583 H 342.47 -2.39022 -0.911148 0
M  V30 3584 H 342.114 -4.64131 -2.06263 0
M  V30 3585 H 342.044 -3.80902 -3.63622 0
M  V30 3586 H 344.535 -2.99648 -2.30259 0
M  V30 3587 H 344.848 -6.48867 -4.19752 0
M  V30 3588 H 343.193 -5.83166 -3.78078 0
M  V30 3589 H 346.384 -3.76244 -2.78492 0
M  V30 3590 H 346.557 -5.35478 -3.64921 0
M  V30 3591 N 339.963 1.05934 -1.16686 0
M  V30 3592 C 341.24 1.75643 -0.860747 0
M  V30 3593 C 341.62 2.01144 0.640641 0
M  V30 3594 O 340.968 1.64147 1.58959 0
M  V30 3595 C 341.178 3.05493 -1.68745 0
M  V30 3596 C 342.526 3.79581 -1.90271 0
M  V30 3597 O 343.55 3.15344 -1.65641 0
M  V30 3598 O 342.409 4.9499 -2.31618 0
M  V30 3599 H 339.503 0.763426 -0.317977 0
M  V30 3600 H 342.049 1.1217 -1.27342 0
M  V30 3601 H 340.821 2.8264 -2.70611 0
M  V30 3602 H 340.444 3.76702 -1.27206 0
M  V30 3603 N 341.441 0.965919 1.2453 0
M  V30 3604 C 342.681 0.634656 1.94297 0
M  V30 3605 C 343.045 -0.814822 1.73852 0
M  V30 3606 O 344.246 -1.25622 2.3764 0
M  V30 3607 C 342.517 0.99702 3.43212 0
M  V30 3608 S 344.076 0.780038 4.31811 0
M  V30 3609 H 340.894 0.232893 0.671775 0
M  V30 3610 H 343.496 1.24249 1.50938 0
M  V30 3611 H 342.2 2.04886 3.55598 0
M  V30 3612 H 341.731 0.379888 3.91562 0
M  V30 3613 H 343.746 -0.343512 4.9501 0
M  V30 3614 N 342.919 -1.39368 0.735821 0
M  V30 3615 C 344.144 -2.05319 0.293052 0
M  V30 3616 C 344.569 -1.55115 -1.064 0
M  V30 3617 O 343.927 -0.695261 -1.67439 0
M  V30 3618 C 343.975 -3.59305 0.305323 0
M  V30 3619 O 343.079 -4.06299 -0.706761 0
M  V30 3620 H 342.42 -0.650529 0.13307 0
M  V30 3621 H 344.95 -1.78386 1.00197 0
M  V30 3622 H 344.96 -4.07724 0.149997 0
M  V30 3623 H 343.635 -3.95207 1.29553 0
M  V30 3624 H 342.212 -3.69292 -0.517504 0
M  V30 3625 N 344.397 -0.483516 -1.5 0
M  V30 3626 C 345.643 0.0672592 -2.02688 0
M  V30 3627 C 345.976 1.38247 -1.36387 0
M  V30 3628 O 345.251 1.88131 -0.493675 0
M  V30 3629 C 345.534 0.238109 -3.59312 0
M  V30 3630 C 345.387 -1.099 -4.36168 0
M  V30 3631 C 346.706 0.986916 -4.28892 0
M  V30 3632 H 343.825 0.0229696 -0.736642 0
M  V30 3633 H 346.467 -0.631527 -1.79197 0
M  V30 3634 H 344.617 0.8333 -3.79458 0
M  V30 3635 H 346.289 -1.73172 -4.27562 0
M  V30 3636 H 344.532 -1.69261 -3.99416 0
M  V30 3637 H 345.203 -0.932954 -5.44059 0
M  V30 3638 H 347.679 0.482302 -4.13295 0
M  V30 3639 H 346.555 1.07527 -5.38265 0
M  V30 3640 H 346.816 2.0265 -3.92919 0
M  V30 3641 N 345.875 1.56104 -0.216619 0
M  V30 3642 C 346.807 2.17339 0.72776 0
M  V30 3643 C 347.82 1.14109 1.16116 0
M  V30 3644 O 349.009 1.4111 1.09317 0
M  V30 3645 C 346.109 2.73818 1.99693 0
M  V30 3646 C 345.282 4.02168 1.71988 0
M  V30 3647 C 344.341 4.43259 2.83562 0
M  V30 3648 O 343.367 5.10257 2.52244 0
M  V30 3649 N 344.569 4.08535 4.12407 0
M  V30 3650 H 347.334 2.99005 0.203983 0
M  V30 3651 H 344.895 1.61861 -0.0354289 0
M  V30 3652 H 346.887 2.9828 2.73516 0
M  V30 3653 H 345.457 1.96483 2.43132 0
M  V30 3654 H 344.677 3.85612 0.818337 0
M  V30 3655 H 345.965 4.85907 1.50903 0
M  V30 3656 H 345.363 3.54687 4.40696 0
M  V30 3657 H 343.92 4.37901 4.8279 0
M  V30 3658 N 347.353 -0.0568162 1.57498 0
M  V30 3659 C 348.769 -0.411933 1.54192 0
M  V30 3660 C 348.969 -1.78287 0.938942 0
M  V30 3661 O 348.025 -2.46483 0.547919 0
M  V30 3662 C 349.338 -0.339244 2.9878 0
M  V30 3663 C 350.886 -0.418348 3.10192 0
M  V30 3664 C 351.361 -0.375407 4.56459 0
M  V30 3665 N 352.852 -0.435038 4.61153 0
M  V30 3666 C 353.587 -0.424265 5.71828 0
M  V30 3667 N 353.083 -0.367418 6.91825 0
M  V30 3668 N 354.876 -0.471938 5.60115 0
M  V30 3669 H 347.027 0.840684 1.95055 0
M  V30 3670 H 349.29 0.316987 0.893433 0
M  V30 3671 H 348.996 0.601742 3.46514 0
M  V30 3672 H 348.87 -1.14371 3.59443 0
M  V30 3673 H 351.257 -1.34976 2.62422 0
M  V30 3674 H 351.338 0.414962 2.52412 0
M  V30 3675 H 350.982 0.552219 5.04889 0
M  V30 3676 H 350.912 -1.22645 5.12119 0
M  V30 3677 H 353.403 -0.482612 3.74806 0
M  V30 3678 H 353.716 -0.363535 7.71944 0
M  V30 3679 H 352.061 -0.333879 6.94198 0
M  V30 3680 H 355.252 -0.514145 4.65268 0
M  V30 3681 H 355.425 -0.460073 6.46365 0
M  V30 3682 N 348.832 -1.54138 -0.328536 0
M  V30 3683 C 350.248 -1.44736 -0.672574 0
M  V30 3684 C 350.448 -0.616217 -1.91846 0
M  V30 3685 O 349.504 -0.113067 -2.52247 0
M  V30 3686 C 350.817 -2.884 -0.851217 0
M  V30 3687 C 352.365 -2.98271 -0.948877 0
M  V30 3688 C 352.84 -4.43074 -1.15973 0
M  V30 3689 N 354.331 -4.46665 -1.22658 0
M  V30 3690 C 355.066 -5.55857 -1.40751 0
M  V30 3691 N 354.562 -6.75026 -1.5592 0
M  V30 3692 N 356.355 -5.43495 -1.4342 0
M  V30 3693 H 348.506 -2.06661 0.490421 0
M  V30 3694 H 350.769 -0.934812 0.157579 0
M  V30 3695 H 350.475 -3.51699 -0.00704236 0
M  V30 3696 H 350.349 -3.34225 -1.74853 0
M  V30 3697 H 352.736 -2.35102 -1.78356 0
M  V30 3698 H 352.817 -2.55785 -0.0281435 0
M  V30 3699 H 352.461 -5.06827 -0.329915 0
M  V30 3700 H 352.391 -4.83165 -2.09426 0
M  V30 3701 H 354.882 -3.60797 -1.124 0
M  V30 3702 H 355.195 -7.54004 -1.69404 0
M  V30 3703 H 353.54 -6.77944 -1.53027 0
M  V30 3704 H 356.731 -4.49349 -1.31162 0
M  V30 3705 H 356.904 -6.28649 -1.57178 0
M  V30 3706 N 350.31 0.590341 -1.46126 0
M  V30 3707 C 351.26 1.69466 -1.5253 0
M  V30 3708 C 352.244 1.56179 -0.386917 0
M  V30 3709 O 353.436 1.65223 -0.634858 0
M  V30 3710 C 350.565 3.08245 -1.5113 0
M  V30 3711 C 349.651 3.26856 -2.70233 0
M  V30 3712 N 350.042 3.15657 -3.95214 0
M  V30 3713 C 348.34 3.57775 -2.66296 0
M  V30 3714 C 349.041 3.36066 -4.74799 0
M  V30 3715 N 348.017 3.60865 -4.06543 0
M  V30 3716 H 351.819 1.59326 -2.46966 0
M  V30 3717 H 349.333 0.79414 -1.41659 0
M  V30 3718 H 351.33 3.87492 -1.53804 0
M  V30 3719 H 349.99 3.19521 -0.577636 0
M  V30 3720 H 351.001 2.93686 -4.26578 0
M  V30 3721 H 347.678 3.75782 -1.81918 0
M  V30 3722 H 349.068 3.32655 -5.83772 0
M  V30 3723 N 351.788 1.33704 0.83433 0
M  V30 3724 C 352.72 1.20172 1.9517 0
M  V30 3725 C 353.733 0.131572 1.62267 0
M  V30 3726 O 354.922 0.382406 1.74356 0
M  V30 3727 C 352.022 0.821716 3.28787 0
M  V30 3728 C 351.195 1.98446 3.89792 0
M  V30 3729 C 350.254 1.58469 5.01771 0
M  V30 3730 O 349.28 2.29968 5.20676 0
M  V30 3731 N 350.482 0.492291 5.78409 0
M  V30 3732 H 353.247 2.16429 2.07313 0
M  V30 3733 H 350.808 1.26509 1.0103 0
M  V30 3734 H 352.8 0.536291 4.01131 0
M  V30 3735 H 351.37 -0.0503058 3.1256 0
M  V30 3736 H 350.59 2.43526 3.09982 0
M  V30 3737 H 351.878 2.76236 4.27283 0
M  V30 3738 H 351.276 -0.102349 5.65607 0
M  V30 3739 H 349.833 0.266555 6.51255 0
M  V30 3740 N 353.266 -1.05314 1.17247 0
M  V30 3741 C 354.213 -2.13031 0.888058 0
M  V30 3742 C 355.183 -1.65253 -0.167537 0
M  V30 3743 O 356.368 -1.90775 -0.0305974 0
M  V30 3744 C 353.508 -3.42702 0.406147 0
M  V30 3745 C 352.621 -4.04161 1.52572 0
M  V30 3746 C 351.756 -5.21744 0.997808 0
M  V30 3747 C 350.795 -5.75207 2.09291 0
M  V30 3748 N 349.932 -6.84094 1.57986 0
M  V30 3749 H 354.772 -2.36698 1.81048 0
M  V30 3750 H 352.309 -1.16121 0.903013 0
M  V30 3751 H 354.267 -4.17059 0.108305 0
M  V30 3752 H 352.897 -3.19222 -0.479313 0
M  V30 3753 H 351.949 -3.27253 1.93931 0
M  V30 3754 H 353.261 -4.39881 2.35172 0
M  V30 3755 H 352.415 -6.03168 0.653739 0
M  V30 3756 H 351.154 -4.87495 0.141232 0
M  V30 3757 H 350.159 -4.92414 2.44557 0
M  V30 3758 H 351.384 -6.11505 2.95362 0
M  V30 3759 H 349.33 -6.51745 0.74598 0
M  V30 3760 H 349.247 -7.18811 2.34195 0
M  V30 3761 H 350.515 -7.69172 1.26468 0
M  V30 3762 N 354.744 -0.972509 -1.24016 0
M  V30 3763 C 355.99 -0.637978 -1.92504 0
M  V30 3764 C 356.323 0.825383 -1.75787 0
M  V30 3765 O 355.598 1.59442 -1.11393 0
M  V30 3766 C 355.881 -1.01942 -3.45369 0
M  V30 3767 C 355.734 -2.53983 -3.71231 0
M  V30 3768 C 357.053 -0.55751 -4.36555 0
M  V30 3769 H 354.172 -0.233248 -0.699117 0
M  V30 3770 H 356.814 -1.21238 -1.46292 0
M  V30 3771 H 354.964 -0.530656 -3.84859 0
M  V30 3772 H 356.636 -3.10374 -3.41271 0
M  V30 3773 H 354.879 -2.96968 -3.16216 0
M  V30 3774 H 355.55 -2.75723 -4.78206 0
M  V30 3775 H 358.026 -0.977029 -4.04467 0
M  V30 3776 H 356.902 -0.85292 -5.42233 0
M  V30 3777 H 357.163 0.542328 -4.38761 0
M  V30 3778 N 356.222 1.38976 -0.743202 0
M  V30 3779 C 357.468 2.0064 -0.295189 0
M  V30 3780 C 357.801 1.5885 1.11716 0
M  V30 3781 O 357.076 0.821181 1.76315 0
M  V30 3782 C 357.359 3.578 -0.406318 0
M  V30 3783 C 357.212 4.09586 -1.85903 0
M  V30 3784 C 358.531 4.39616 0.206439 0
M  V30 3785 H 355.65 0.728935 -0.108733 0
M  V30 3786 H 358.292 1.65067 -0.940897 0
M  V30 3787 H 356.442 3.88235 0.143419 0
M  V30 3788 H 358.114 3.89837 -2.46627 0
M  V30 3789 H 356.357 3.6284 -2.3776 0
M  V30 3790 H 357.028 5.18708 -1.888 0
M  V30 3791 H 359.504 4.15273 -0.262283 0
M  V30 3792 H 358.38 5.48812 0.0983819 0
M  V30 3793 H 358.641 4.22754 1.2935 0
M  V30 3794 N 357.7 0.491464 1.49741 0
M  V30 3795 C 358.61 -0.296835 2.32715 0
M  V30 3796 C 359.626 -0.976536 1.44013 0
M  V30 3797 O 360.802 -0.960023 1.77047 0
M  V30 3798 C 357.867 -1.35288 3.19215 0
M  V30 3799 C 356.928 -0.687632 4.23757 0
M  V30 3800 C 356.161 -1.69336 5.06123 0
M  V30 3801 O 356.384 -2.92219 4.89861 0
M  V30 3802 O 355.318 -1.25394 5.88693 0
M  V30 3803 H 359.144 0.382048 3.01287 0
M  V30 3804 H 356.729 0.252953 1.47243 0
M  V30 3805 H 358.611 -1.96411 3.72828 0
M  V30 3806 H 357.286 -2.01487 2.53347 0
M  V30 3807 H 356.193 -0.0369159 3.74082 0
M  V30 3808 H 357.526 -0.0682566 4.92153 0
M  V30 3809 N 359.178 -1.55987 0.224894 0
M  V30 3810 C 360.424 -1.98684 -0.406502 0
M  V30 3811 C 360.757 -1.11248 -1.59177 0
M  V30 3812 O 360.032 -0.170909 -1.93748 0
M  V30 3813 C 360.315 -3.50218 -0.837808 0
M  V30 3814 C 360.168 -4.48426 0.351332 0
M  V30 3815 C 361.487 -4.06243 -1.69278 0
M  V30 3816 H 358.606 -0.722337 -0.146283 0
M  V30 3817 H 361.248 -1.87255 0.321799 0
M  V30 3818 H 359.398 -3.60089 -1.45837 0
M  V30 3819 H 361.07 -4.50562 0.989526 0
M  V30 3820 H 359.313 -4.22159 0.998207 0
M  V30 3821 H 359.984 -5.52 0.00655905 0
M  V30 3822 H 362.46 -3.99337 -1.16914 0
M  V30 3823 H 361.336 -5.12581 -1.96346 0
M  V30 3824 H 361.597 -3.53332 -2.65723 0
M  V30 3825 N 360.656 0.0484629 -1.57525 0
M  V30 3826 C 361.619 1.03956 -2.04269 0
M  V30 3827 C 362.619 1.30211 -0.943496 0
M  V30 3828 O 363.809 1.25539 -1.20771 0
M  V30 3829 C 360.941 2.37742 -2.44319 0
M  V30 3830 H 362.134 0.636182 -2.93075 0
M  V30 3831 H 359.687 0.294811 -1.53494 0
M  V30 3832 H 360.422 2.82866 -1.5861 0
M  V30 3833 H 360.207 2.20021 -3.24551 0
M  V30 3834 H 361.697 3.08936 -2.80978 0
M  V30 3835 N 362.134 1.5431 0.320358 0
M  V30 3836 C 363.545 1.63872 0.894594 0
M  V30 3837 C 363.896 0.534847 1.88769 0
M  V30 3838 O 363.021 -0.331732 2.13842 0
M  V30 3839 C 363.616 2.97049 1.62934 0
M  V30 3840 C 362.175 3.08796 2.15226 0
M  V30 3841 C 361.322 2.59456 0.978671 0
M  V30 3842 H 364.273 1.58398 0.0978544 0
M  V30 3843 H 364.294 2.87388 2.49376 0
M  V30 3844 H 363.806 3.7737 0.906302 0
M  V30 3845 H 361.907 2.33156 2.90636 0
M  V30 3846 H 362.02 4.14649 2.40006 0
M  V30 3847 H 360.384 2.1543 1.35875 0
M  V30 3848 H 361.167 3.42237 0.269895 0
M  V30 3849 N 363.613 -0.582584 1.46437 0
M  V30 3850 C 364.838 -1.37168 1.55563 0
M  V30 3851 C 365.263 -1.87061 0.19743 0
M  V30 3852 O 364.621 -1.61572 -0.822451 0
M  V30 3853 C 364.669 -2.53511 2.56446 0
M  V30 3854 O 363.773 -3.54953 2.09958 0
M  V30 3855 H 363.114 -0.408494 0.523477 0
M  V30 3856 H 365.644 -0.706646 1.9201 0
M  V30 3857 H 365.654 -3.00426 2.76058 0
M  V30 3858 H 364.329 -2.16549 3.55076 0
M  V30 3859 H 362.906 -3.14516 2.00334 0
M  V30 3860 N 365.091 -1.34144 -0.827227 0
M  V30 3861 C 366.337 -1.26446 -1.58554 0
M  V30 3862 C 366.67 0.1664 -1.93486 0
M  V30 3863 O 365.945 1.1107 -1.59667 0
M  V30 3864 C 366.228 -2.15111 -2.8879 0
M  V30 3865 C 366.081 -3.66712 -2.60465 0
M  V30 3866 C 367.4 -2.03311 -3.90324 0
M  V30 3867 H 364.519 -0.46067 -0.575284 0
M  V30 3868 H 367.161 -1.64356 -0.953269 0
M  V30 3869 H 365.311 -1.8291 -3.42748 0
M  V30 3870 H 366.983 -4.09259 -2.1285 0
M  V30 3871 H 365.226 -3.88014 -1.93978 0
M  V30 3872 H 365.897 -4.24112 -3.53317 0
M  V30 3873 H 368.373 -2.31574 -3.45706 0
M  V30 3874 H 367.249 -2.67582 -4.79261 0
M  V30 3875 H 367.51 -1.00879 -4.30437 0
M  V30 3876 N 366.569 1.04691 -1.17803 0
M  V30 3877 C 367.817 1.7743 -0.967617 0
M  V30 3878 C 368.138 1.88359 0.504574 0
M  V30 3879 O 367.408 1.40402 1.36617 0
M  V30 3880 H 365.988 0.657242 -0.355024 0
M  V30 3881 H 368.65 1.2638 -1.48371 0
M  V30 3882 H 367.746 2.78924 -1.40027 0
M  V30 3883 N 368.047 0.979072 1.23499 0
M  V30 3884 C 368.977 0.537606 2.27227 0
M  V30 3885 C 369.958 -0.428539 1.64613 0
M  V30 3886 O 371.143 -0.322191 1.91509 0
M  V30 3887 C 368.273 -0.162052 3.46922 0
M  V30 3888 C 367.227 0.721242 4.21879 0
M  V30 3889 C 366.553 -0.110555 5.34586 0
M  V30 3890 C 367.853 2.01141 4.82016 0
M  V30 3891 H 369.547 1.40462 2.64406 0
M  V30 3892 H 367.093 0.67684 1.27102 0
M  V30 3893 H 369.046 -0.482192 4.18632 0
M  V30 3894 H 367.77 -1.06351 3.08799 0
M  V30 3895 H 366.429 1.02482 3.51984 0
M  V30 3896 H 366.077 -1.0125 4.92704 0
M  V30 3897 H 365.777 0.477325 5.85658 0
M  V30 3898 H 367.301 -0.425107 6.09118 0
M  V30 3899 H 368.715 1.75612 5.45741 0
M  V30 3900 H 367.112 2.54695 5.43369 0
M  V30 3901 H 368.182 2.69909 4.02836 0
M  V30 3902 N 369.525 -1.3858 0.750561 0
M  V30 3903 C 370.75 -2.04997 0.314812 0
M  V30 3904 C 371.175 -1.56235 -1.04749 0
M  V30 3905 O 370.533 -0.712981 -1.66692 0
M  V30 3906 C 370.581 -3.58961 0.343415 0
M  V30 3907 O 369.685 -4.07025 -0.663628 0
M  V30 3908 H 369.026 -0.649081 0.139962 0
M  V30 3909 H 371.556 -1.77313 1.02084 0
M  V30 3910 H 371.566 -4.07542 0.193233 0
M  V30 3911 H 370.241 -3.93811 1.33738 0
M  V30 3912 H 368.818 -3.6982 -0.478307 0
M  V30 3913 N 371.003 -0.499398 -1.49478 0
M  V30 3914 C 372.414 -0.051215 -1.8663 0
M  V30 3915 C 372.765 1.36238 -1.41186 0
M  V30 3916 O 371.89 2.01502 -0.789051 0
M  V30 3917 C 372.485 -0.0861651 -3.3869 0
M  V30 3918 C 371.044 0.30667 -3.75149 0
M  V30 3919 C 370.191 -0.459397 -2.73468 0
M  V30 3920 H 373.142 -0.712264 -1.41818 0
M  V30 3921 H 373.163 0.709507 -3.73826 0
M  V30 3922 H 372.675 -1.11512 -3.71735 0
M  V30 3923 H 370.776 1.33892 -3.47712 0
M  V30 3924 H 370.889 -0.0116669 -4.79099 0
M  V30 3925 H 369.253 0.0905645 -2.54539 0
M  V30 3926 H 370.036 -1.4884 -3.09357 0
M  V30 3927 N 372.481 1.55866 -0.233164 0
M  V30 3928 C 373.709 2.02998 0.399905 0
M  V30 3929 C 374.124 1.11274 1.52524 0
M  V30 3930 O 373.481 0.124528 1.82075 0
M  V30 3931 C 373.532 3.4958 0.920639 0
M  V30 3932 O 373.253 4.37808 -0.159834 0
M  V30 3933 C 374.754 4.12411 1.62578 0
M  V30 3934 H 371.974 0.664006 0.0966281 0
M  V30 3935 H 374.518 2.0143 -0.353013 0
M  V30 3936 H 372.673 3.51727 1.62379 0
M  V30 3937 H 373.087 5.23981 0.23337 0
M  V30 3938 H 374.561 5.16711 1.94201 0
M  V30 3939 H 375.038 3.5809 2.54299 0
M  V30 3940 H 375.644 4.14148 0.967553 0
M  V30 3941 N 373.959 -0.0401083 1.57549 0
M  V30 3942 C 374.889 -1.04384 2.08869 0
M  V30 3943 C 375.87 -1.38407 0.988817 0
M  V30 3944 O 377.055 -1.47483 1.26342 0
M  V30 3945 C 374.185 -2.34808 2.55895 0
M  V30 3946 C 373.139 -2.15057 3.70047 0
M  V30 3947 C 372.465 -3.51145 4.03239 0
M  V30 3948 C 373.765 -1.54576 4.98902 0
M  V30 3949 H 375.459 -0.616666 2.92981 0
M  V30 3950 H 373.005 -0.295184 1.40942 0
M  V30 3951 H 374.958 -3.05346 2.90417 0
M  V30 3952 H 373.682 -2.79565 1.68853 0
M  V30 3953 H 372.341 -1.46954 3.35857 0
M  V30 3954 H 371.989 -3.93529 3.13279 0
M  V30 3955 H 371.689 -3.38758 4.80122 0
M  V30 3956 H 373.213 -4.23062 4.40285 0
M  V30 3957 H 374.627 -2.15017 5.31451 0
M  V30 3958 H 373.024 -1.52796 5.80322 0
M  V30 3959 H 374.094 -0.51039 4.82206 0
M  V30 3960 N 375.437 -1.54477 -0.31217 0
M  V30 3961 C 376.853 -1.45442 -0.657185 0
M  V30 3962 C 377.053 -0.63653 -1.91182 0
M  V30 3963 O 376.109 -0.139815 -2.52113 0
M  V30 3964 C 377.422 -2.89287 -0.82058 0
M  V30 3965 C 378.97 -2.9926 -0.917188 0
M  V30 3966 C 379.445 -4.44279 -1.11267 0
M  V30 3967 N 380.936 -4.4794 -1.17914 0
M  V30 3968 C 381.671 -5.57318 -1.34848 0
M  V30 3969 N 381.167 -6.76642 -1.48752 0
M  V30 3970 N 382.96 -5.44986 -1.37647 0
M  V30 3971 H 375.111 -2.06129 0.512313 0
M  V30 3972 H 377.374 -0.933088 0.167485 0
M  V30 3973 H 377.08 -3.51687 0.0302604 0
M  V30 3974 H 376.954 -3.36061 -1.71298 0
M  V30 3975 H 379.341 -2.36981 -1.75852 0
M  V30 3976 H 379.422 -2.558 -0.00101257 0
M  V30 3977 H 379.066 -5.07149 -0.27614 0
M  V30 3978 H 378.996 -4.85359 -2.04289 0
M  V30 3979 H 381.487 -3.61969 -1.08567 0
M  V30 3980 H 381.8 -7.55758 -1.61397 0
M  V30 3981 H 380.145 -6.79529 -1.45828 0
M  V30 3982 H 383.336 -4.50715 -1.26388 0
M  V30 3983 H 383.509 -6.3028 -1.50501 0
M  V30 3984 N 376.915 0.57481 -1.46744 0
M  V30 3985 C 377.847 1.69804 -1.53946 0
M  V30 3986 C 378.86 1.57098 -0.427106 0
M  V30 3987 O 380.049 1.64378 -0.695863 0
M  V30 3988 C 377.149 3.08125 -1.4111 0
M  V30 3989 C 376.322 3.46757 -2.66605 0
M  V30 3990 C 375.381 4.6417 -2.47855 0
M  V30 3991 O 374.407 4.69634 -3.21609 0
M  V30 3992 N 375.609 5.59553 -1.54534 0
M  V30 3993 H 378.374 1.64077 -2.50796 0
M  V30 3994 H 375.935 0.761 -1.429 0
M  V30 3995 H 377.927 3.84478 -1.26328 0
M  V30 3996 H 376.497 3.08175 -0.524109 0
M  V30 3997 H 375.717 2.6003 -2.96274 0
M  V30 3998 H 377.005 3.69337 -3.49954 0
M  V30 3999 H 376.403 5.57881 -0.937304 0
M  V30 4000 H 374.96 6.35304 -1.45711 0
M  V30 4001 N 378.394 1.34581 0.820102 0
M  V30 4002 C 379.81 1.14325 1.11364 0
M  V30 4003 C 380.01 -0.0533648 2.01429 0
M  V30 4004 O 379.066 -0.728044 2.41776 0
M  V30 4005 C 380.379 2.43983 1.75764 0
M  V30 4006 C 381.927 2.50065 1.88246 0
M  V30 4007 C 382.402 3.79732 2.56061 0
M  V30 4008 N 383.893 3.80908 2.63558 0
M  V30 4009 C 384.628 4.77961 3.16766 0
M  V30 4010 N 384.124 5.85397 3.70517 0
M  V30 4011 N 385.917 4.65413 3.15194 0
M  V30 4012 H 378.068 2.11246 0.221096 0
M  V30 4013 H 380.331 0.934289 0.160649 0
M  V30 4014 H 380.037 3.31651 1.1705 0
M  V30 4015 H 379.911 2.57531 2.75604 0
M  V30 4016 H 382.298 1.62834 2.46108 0
M  V30 4017 H 382.379 2.40442 0.873006 0
M  V30 4018 H 382.023 4.67354 1.98853 0
M  V30 4019 H 381.953 3.86639 3.57516 0
M  V30 4020 H 384.444 3.03274 2.25463 0
M  V30 4021 H 384.757 6.55463 4.09376 0
M  V30 4022 H 383.102 5.89107 3.68752 0
M  V30 4023 H 386.293 3.80627 2.72471 0
M  V30 4024 H 386.466 5.41216 3.56356 0
M  V30 4025 N 379.872 -1.04064 1.18357 0
M  V30 4026 C 381.121 -1.76662 0.973313 0
M  V30 4027 C 381.434 -1.89154 -0.497991 0
M  V30 4028 O 382.64 -2.58606 -0.826762 0
M  V30 4029 C 381.096 -3.17624 1.69242 0
M  V30 4030 C 380.704 -3.13225 3.20303 0
M  V30 4031 C 382.448 -3.946 1.56497 0
M  V30 4032 C 380.355 -4.49046 3.84853 0
M  V30 4033 H 379.285 -0.662214 0.36054 0
M  V30 4034 H 381.936 -1.16553 1.41731 0
M  V30 4035 H 380.318 -3.78129 1.1762 0
M  V30 4036 H 381.492 -2.62172 3.78949 0
M  V30 4037 H 379.807 -2.49749 3.33189 0
M  V30 4038 H 382.404 -4.95042 2.02084 0
M  V30 4039 H 382.747 -4.13074 0.517243 0
M  V30 4040 H 383.28 -3.4067 2.05399 0
M  V30 4041 H 380.019 -4.35777 4.89672 0
M  V30 4042 H 379.539 -5.00203 3.30994 0
M  V30 4043 H 381.218 -5.17961 3.87718 0
M  V30 4044 N 381.35 -0.985608 -1.22978 0
M  V30 4045 C 382.59 -0.665487 -1.93263 0
M  V30 4046 C 382.954 0.78706 -1.75127 0
M  V30 4047 O 384.155 1.21826 -2.39608 0
M  V30 4048 C 382.426 -1.0515 -3.41582 0
M  V30 4049 S 383.985 -0.848637 -4.30516 0
M  V30 4050 H 380.803 -0.24355 -0.667985 0
M  V30 4051 H 383.405 -1.26635 -1.48942 0
M  V30 4052 H 382.109 -2.10517 -3.52293 0
M  V30 4053 H 381.64 -0.442134 -3.90908 0
M  V30 4054 H 383.655 0.264717 -4.95493 0
M  V30 4055 N 382.828 1.3818 -0.7579 0
M  V30 4056 C 384.105 1.94106 -0.241306 0
M  V30 4057 C 384.485 1.69282 1.26122 0
M  V30 4058 O 383.833 1.03378 2.03777 0
M  V30 4059 C 384.043 3.43809 -0.59967 0
M  V30 4060 C 385.391 4.20868 -0.561717 0
M  V30 4061 O 386.415 3.5211 -0.538222 0
M  V30 4062 O 385.274 5.43451 -0.576478 0
M  V30 4063 H 382.368 0.825376 -0.0518042 0
M  V30 4064 H 384.914 1.47548 -0.838315 0
M  V30 4065 H 383.686 3.55403 -1.6372 0
M  V30 4066 H 383.309 3.97592 0.0251197 0
M  V30 4067 N 384.306 0.507319 1.49211 0
M  V30 4068 C 385.269 -0.256763 2.27757 0
M  V30 4069 C 386.269 -0.888287 1.34038 0
M  V30 4070 O 387.459 -0.751841 1.5714 0
M  V30 4071 C 384.591 -1.36905 3.12202 0
M  V30 4072 H 385.784 0.432557 2.96764 0
M  V30 4073 H 383.337 0.262488 1.5408 0
M  V30 4074 H 384.072 -2.09233 2.47775 0
M  V30 4075 H 383.857 -0.921599 3.81115 0
M  V30 4076 H 385.347 -1.9071 3.7151 0
M  V30 4077 N 385.784 -1.5574 0.241426 0
M  V30 4078 C 386.747 -2.19877 -0.647063 0
M  V30 4079 C 387.747 -1.16642 -1.10686 0
M  V30 4080 O 388.937 -1.41757 -1.01245 0
M  V30 4081 C 386.069 -2.83797 -1.88871 0
M  V30 4082 H 387.262 -2.99772 -0.087574 0
M  V30 4083 H 384.815 -1.56298 -0.00813574 0
M  V30 4084 H 385.55 -2.07824 -2.48957 0
M  V30 4085 H 385.335 -3.59414 -1.56728 0
M  V30 4086 H 386.825 -3.32898 -2.52129 0
M  V30 4087 N 387.262 0.0317525 -1.57568 0
M  V30 4088 C 388.511 0.722131 -1.8833 0
M  V30 4089 C 388.824 1.76664 -0.839587 0
M  V30 4090 O 390.03 2.50942 -1.03635 0
M  V30 4091 C 388.486 1.33544 -3.34207 0
M  V30 4092 C 388.094 0.327415 -4.46802 0
M  V30 4093 C 389.838 2.00585 -3.7412 0
M  V30 4094 C 387.745 0.948915 -5.83738 0
M  V30 4095 H 386.675 0.273466 -0.702661 0
M  V30 4096 H 389.326 -0.0235811 -1.83485 0
M  V30 4097 H 387.708 2.13077 -3.33788 0
M  V30 4098 H 388.882 -0.441006 -4.58685 0
M  V30 4099 H 387.197 -0.240758 -4.15703 0
M  V30 4100 H 389.794 2.47932 -4.73744 0
M  V30 4101 H 390.137 2.82285 -3.05975 0
M  V30 4102 H 390.67 1.27831 -3.76702 0
M  V30 4103 H 387.409 0.171387 -6.55276 0
M  V30 4104 H 386.929 1.68724 -5.7558 0
M  V30 4105 H 388.608 1.45705 -6.3038 0
M  V30 4106 N 388.74 1.54641 0.303973 0
M  V30 4107 C 389.672 1.81754 1.39636 0
M  V30 4108 C 390.685 0.70035 1.46966 0
M  V30 4109 O 391.874 0.97778 1.49338 0
M  V30 4110 C 388.974 1.93785 2.7803 0
M  V30 4111 C 388.147 3.24156 2.93669 0
M  V30 4112 C 387.206 3.26641 4.12544 0
M  V30 4113 O 386.232 4.00187 4.04771 0
M  V30 4114 N 387.434 2.5182 5.23036 0
M  V30 4115 H 390.199 2.76031 1.16734 0
M  V30 4116 H 387.76 1.54178 0.494033 0
M  V30 4117 H 389.752 1.92852 3.55795 0
M  V30 4118 H 388.322 1.06515 2.93893 0
M  V30 4119 H 387.542 3.37887 2.03042 0
M  V30 4120 H 388.83 4.10195 3.01027 0
M  V30 4121 H 388.228 1.91692 5.32232 0
M  V30 4122 H 386.785 2.56644 5.99147 0
M  V30 4123 N 390.218 -0.567019 1.47046 0
M  V30 4124 C 391.148 -1.68482 1.61667 0
M  V30 4125 C 392.129 -1.6358 0.466418 0
M  V30 4126 O 393.314 -1.81354 0.694574 0
M  V30 4127 C 390.444 -3.07124 1.62148 0
M  V30 4128 C 389.398 -3.26867 2.76301 0
M  V30 4129 C 388.724 -4.66196 2.61849 0
M  V30 4130 C 390.024 -3.13186 4.17986 0
M  V30 4131 H 391.718 -1.56502 2.5524 0
M  V30 4132 H 389.264 -0.751486 1.22836 0
M  V30 4133 H 391.217 -3.8516 1.70968 0
M  V30 4134 H 389.941 -3.2004 0.651287 0
M  V30 4135 H 388.6 -2.51237 2.66975 0
M  V30 4136 H 388.248 -4.75898 1.62879 0
M  V30 4137 H 387.948 -4.80356 3.38425 0
M  V30 4138 H 389.472 -5.46379 2.72584 0
M  V30 4139 H 390.886 -3.81049 4.2834 0
M  V30 4140 H 389.283 -3.3886 4.95272 0
M  V30 4141 H 390.353 -2.10057 4.3704 0
M  V30 4142 N 391.696 -1.35014 -0.812953 0
M  V30 4143 C 392.629 -1.21761 -1.93001 0
M  V30 4144 C 393.607 -0.10694 -1.62248 0
M  V30 4145 O 394.791 -0.273891 -1.865 0
M  V30 4146 C 391.918 -0.873404 -3.27245 0
M  V30 4147 C 390.964 -1.99523 -3.76952 0
M  V30 4148 S 391.797 -3.61009 -3.95516 0
M  V30 4149 C 392.953 -3.28651 -5.32672 0
M  V30 4150 H 393.186 -2.16315 -2.03948 0
M  V30 4151 H 390.719 -1.20156 -0.969631 0
M  V30 4152 H 392.677 -0.68161 -4.04802 0
M  V30 4153 H 391.338 0.053971 -3.14054 0
M  V30 4154 H 390.531 -1.70838 -4.74163 0
M  V30 4155 H 390.133 -2.14503 -3.06373 0
M  V30 4156 H 392.425 -2.81085 -6.1644 0
M  V30 4157 H 393.368 -4.25039 -5.66346 0
M  V30 4158 H 393.776 -2.6458 -4.98656 0
M  V30 4159 N 393.175 1.03435 -1.18907 0
M  V30 4160 C 394.085 2.15075 -0.937015 0
M  V30 4161 C 395.101 1.73706 0.101085 0
M  V30 4162 O 396.277 2.01232 -0.0822948 0
M  V30 4163 C 393.342 3.43458 -0.473057 0
M  V30 4164 C 392.403 3.99172 -1.57989 0
M  V30 4165 C 391.636 5.21427 -1.13797 0
M  V30 4166 O 391.859 5.704 0.000725941 0
M  V30 4167 O 390.793 5.69837 -1.9383 0
M  V30 4168 H 394.619 2.39198 -1.87131 0
M  V30 4169 H 392.204 1.13506 -0.971427 0
M  V30 4170 H 394.086 4.20811 -0.222702 0
M  V30 4171 H 392.761 3.20793 0.432869 0
M  V30 4172 H 391.668 3.23178 -1.88433 0
M  V30 4173 H 393.001 4.2619 -2.46217 0
M  V30 4174 N 394.653 0.992116 1.22453 0
M  V30 4175 C 395.601 0.534644 2.26372 0
M  V30 4176 C 396.595 -0.414293 1.64256 0
M  V30 4177 O 397.801 -0.286899 1.77699 0
M  V30 4178 H 394.176 0.154502 0.735957 0
M  V30 4179 H 396.147 1.42256 2.62309 0
M  V30 4180 C 394.896 -0.135815 3.47435 0
M  V30 4181 H 394.219 0.585311 3.95492 0
M  V30 4182 H 395.659 -0.419374 4.21921 0
M  V30 4183 C 394.118 -1.37089 3.07747 0
M  V30 4184 O 394.648 -2.46629 3.17076 0
M  V30 4185 N 392.854 -1.24585 2.62539 0
M  V30 4186 H 392.401 -0.354542 2.55149 0
M  V30 4187 H 392.359 -2.07327 2.36353 0
M  V30 4188 N 396.131 -1.37776 0.765217 0
M  V30 4189 C 397.38 -1.99092 0.323307 0
M  V30 4190 C 397.693 -1.61434 -1.10446 0
M  V30 4191 O 398.899 -2.15805 -1.64743 0
M  V30 4192 C 397.355 -3.56019 0.527098 0
M  V30 4193 C 396.963 -4.0262 1.96471 0
M  V30 4194 C 398.707 -4.2424 0.148483 0
M  V30 4195 C 396.614 -5.52233 2.11644 0
M  V30 4196 H 395.544 -0.744846 0.117137 0
M  V30 4197 H 398.195 -1.57391 0.943417 0
M  V30 4198 H 396.577 -3.95667 -0.162372 0
M  V30 4199 H 397.751 -3.74234 2.68859 0
M  V30 4200 H 396.066 -3.47161 2.29931 0
M  V30 4201 H 398.663 -5.34159 0.240456 0
M  V30 4202 H 399.006 -4.06446 -0.900422 0
M  V30 4203 H 399.539 -3.89872 0.79025 0
M  V30 4204 H 396.278 -5.74945 3.1483 0
M  V30 4205 H 395.798 -5.82324 1.4373 0
M  V30 4206 H 397.477 -6.18106 1.91193 0
M  V30 4207 N 397.609 -0.515225 -1.4894 0
M  V30 4208 C 398.556 0.255567 -2.29381 0
M  V30 4209 C 399.526 0.947387 -1.36432 0
M  V30 4210 O 400.711 0.951288 -1.65394 0
M  V30 4211 C 397.851 1.30551 -3.19453 0
M  V30 4212 C 396.964 0.624029 -4.27469 0
M  V30 4213 C 396.099 1.65563 -5.0474 0
M  V30 4214 C 395.138 0.956802 -6.04576 0
M  V30 4215 N 394.275 1.93326 -6.74959 0
M  V30 4216 H 399.115 -0.436607 -2.94784 0
M  V30 4217 H 396.652 -0.227154 -1.45336 0
M  V30 4218 H 398.61 1.92639 -3.70062 0
M  V30 4219 H 397.24 1.96626 -2.56004 0
M  V30 4220 H 396.292 -0.110459 -3.8024 0
M  V30 4221 H 397.604 0.0746092 -4.98744 0
M  V30 4222 H 396.758 2.35119 -5.59289 0
M  V30 4223 H 395.497 2.23893 -4.3327 0
M  V30 4224 H 394.502 0.247097 -5.49244 0
M  V30 4225 H 395.727 0.379814 -6.78037 0
M  V30 4226 H 393.673 2.50591 -6.06251 0
M  V30 4227 H 393.59 1.43489 -7.42258 0
M  V30 4228 H 394.858 2.62126 -7.34105 0
M  V30 4229 N 399.087 1.5561 -0.249682 0
M  V30 4230 C 400.317 2.03116 0.377803 0
M  V30 4231 C 400.725 1.12822 1.51881 0
M  V30 4232 O 400.068 0.13562 1.83199 0
M  V30 4233 C 400.13 3.46866 0.944693 0
M  V30 4234 C 399.794 4.56955 -0.0644259 0
M  V30 4235 C 400.791 5.12485 -0.874957 0
M  V30 4236 C 398.476 5.01936 -0.19132 0
M  V30 4237 C 400.47 6.11491 -1.79881 0
M  V30 4238 C 398.157 6.00773 -1.11868 0
M  V30 4239 C 399.155 6.5543 -1.92095 0
M  V30 4240 O 398.843 7.5234 -2.83267 0
M  V30 4241 H 398.575 0.669489 0.0935961 0
M  V30 4242 H 401.129 2.02004 -0.371966 0
M  V30 4243 H 399.359 3.45136 1.74407 0
M  V30 4244 H 401.048 3.77856 1.48255 0
M  V30 4245 H 401.814 4.78564 -0.787523 0
M  V30 4246 H 397.693 4.59055 0.423072 0
M  V30 4247 H 401.237 6.54078 -2.42543 0
M  V30 4248 H 397.134 6.34114 -1.20703 0
M  V30 4249 H 397.902 7.69966 -2.7766 0
M  V30 4250 N 400.565 -0.0233959 1.57583 0
M  V30 4251 C 401.811 -0.714119 1.89811 0
M  V30 4252 C 402.144 -1.74702 0.848113 0
M  V30 4253 O 401.419 -1.94023 -0.136135 0
M  V30 4254 C 401.702 -1.37853 3.32669 0
M  V30 4255 C 401.555 -0.358764 4.48367 0
M  V30 4256 C 402.874 -2.31101 3.7454 0
M  V30 4257 H 399.993 -0.25814 0.690314 0
M  V30 4258 H 402.635 0.0230927 1.89986 0
M  V30 4259 H 400.785 -2.00689 3.3265 0
M  V30 4260 H 402.457 0.268115 4.6052 0
M  V30 4261 H 400.7 0.321387 4.32608 0
M  V30 4262 H 401.371 -0.862242 5.45224 0
M  V30 4263 H 403.847 -1.78304 3.75961 0
M  V30 4264 H 402.723 -2.74567 4.75294 0
M  V30 4265 H 402.984 -3.18018 3.0711 0
M  V30 4266 N 402.043 -1.548 -0.295768 0
M  V30 4267 C 402.991 -1.86874 -1.38495 0
M  V30 4268 C 403.985 -0.742938 -1.52239 0
M  V30 4269 O 405.191 -0.926999 -1.54294 0
M  V30 4270 H 401.566 -0.592786 -0.462719 0
M  V30 4271 H 403.537 -2.77904 -1.08682 0
M  V30 4272 C 402.286 -2.13732 -2.74252 0
M  V30 4273 H 401.609 -2.99835 -2.64459 0
M  V30 4274 H 403.049 -2.4011 -3.49461 0
M  V30 4275 C 401.508 -0.937539 -3.23592 0
M  V30 4276 O 402.038 -0.160665 -4.01379 0
M  V30 4277 N 400.244 -0.741478 -2.80981 0
M  V30 4278 H 399.791 -1.37489 -2.1784 0
M  V30 4279 H 399.749 0.0597103 -3.14343 0
M  V30 4280 N 403.521 0.559213 -1.47345 0
M  V30 4281 C 404.484 1.64854 -1.59235 0
M  V30 4282 C 405.484 1.53851 -0.467607 0
M  V30 4283 O 406.674 1.58045 -0.732617 0
M  V30 4284 C 403.806 3.04388 -1.53496 0
M  V30 4285 H 404.999 1.55662 -2.56339 0
M  V30 4286 H 402.552 0.778973 -1.35505 0
M  V30 4287 H 403.287 3.19115 -0.577604 0
M  V30 4288 H 403.072 3.13783 -2.35123 0
M  V30 4289 H 404.562 3.83642 -1.6495 0
M  V30 4290 N 404.999 1.35443 0.805782 0
M  V30 4291 C 406.247 1.28507 1.55982 0
M  V30 4292 C 406.568 -0.140046 1.94496 0
M  V30 4293 O 405.838 -1.07666 1.63661 0
M  V30 4294 H 404.418 0.472676 0.578434 0
M  V30 4295 H 407.08 1.69555 0.961098 0
M  V30 4296 H 406.176 1.90148 2.47488 0
M  V30 4297 N 406.477 -1.02803 1.19454 0
M  V30 4298 C 407.705 -1.79841 1.02297 0
M  V30 4299 C 408.12 -1.83879 -0.428259 0
M  V30 4300 O 407.477 -1.28345 -1.29745 0
M  V30 4301 C 407.528 -3.24852 1.58598 0
M  V30 4302 O 407.249 -3.21097 2.98041 0
M  V30 4303 C 408.75 -4.18485 1.46236 0
M  V30 4304 H 405.97 -0.565936 0.360496 0
M  V30 4305 H 408.514 -1.2948 1.58288 0
M  V30 4306 H 406.669 -3.72401 1.06753 0
M  V30 4307 H 407.083 -4.12033 3.24545 0
M  V30 4308 H 408.557 -5.18121 1.90407 0
M  V30 4309 H 409.034 -4.37254 0.41301 0
M  V30 4310 H 409.64 -3.76811 1.97215 0
M  V30 4311 N 407.956 -0.998596 -1.21925 0
M  V30 4312 C 409.202 -0.678667 -1.91107 0
M  V30 4313 C 409.535 0.78791 -1.77498 0
M  V30 4314 O 408.81 1.57043 -1.1475 0
M  V30 4315 C 409.093 -1.09245 -3.43129 0
M  V30 4316 C 408.946 -2.61801 -3.6576 0
M  V30 4317 C 410.265 -0.649984 -4.35274 0
M  V30 4318 H 407.384 -0.248025 -0.694012 0
M  V30 4319 H 410.026 -1.24314 -1.43688 0
M  V30 4320 H 408.176 -0.612171 -3.83647 0
M  V30 4321 H 409.848 -3.17543 -3.34611 0
M  V30 4322 H 408.091 -3.03609 -3.09845 0
M  V30 4323 H 408.762 -2.85804 -4.7225 0
M  V30 4324 H 411.238 -1.0626 -4.02303 0
M  V30 4325 H 410.114 -0.967743 -5.40302 0
M  V30 4326 H 410.375 0.449139 -4.39813 0
M  V30 4327 N 409.434 1.37368 -0.772513 0
M  V30 4328 C 410.344 2.34053 -0.160081 0
M  V30 4329 C 411.36 1.60216 0.678728 0
M  V30 4330 O 412.536 1.92303 0.59847 0
M  V30 4331 C 409.601 3.3939 0.708182 0
M  V30 4332 C 408.662 4.29048 -0.147172 0
M  V30 4333 C 407.895 5.29354 0.679744 0
M  V30 4334 O 408.118 5.3723 1.91678 0
M  V30 4335 O 407.052 6.01835 0.0885444 0
M  V30 4336 H 410.878 2.88159 -0.959053 0
M  V30 4337 H 408.463 1.39543 -0.533685 0
M  V30 4338 H 410.345 4.03839 1.20384 0
M  V30 4339 H 409.02 2.8761 1.48533 0
M  V30 4340 H 407.927 3.67697 -0.689205 0
M  V30 4341 H 409.26 4.84134 -0.887423 0
M  V30 4342 N 410.912 0.523116 1.48665 0
M  V30 4343 C 412.159 -0.0134763 2.02496 0
M  V30 4344 C 412.487 -1.3493 1.40086 0
M  V30 4345 O 411.742 -1.88286 0.533567 0
M  V30 4346 C 412.041 -0.191671 3.56886 0
M  V30 4347 C 411.707 1.06893 4.38046 0
M  V30 4348 C 410.369 1.41443 4.59943 0
M  V30 4349 C 412.721 1.90584 4.85106 0
M  V30 4350 C 410.049 2.59594 5.26144 0
M  V30 4351 C 412.401 3.07907 5.52609 0
M  V30 4352 C 411.065 3.42811 5.72745 0
M  V30 4353 H 410.335 -0.00493133 0.740984 0
M  V30 4354 H 412.982 0.687751 1.78724 0
M  V30 4355 H 411.287 -0.97561 3.79459 0
M  V30 4356 H 412.984 -0.621659 3.96152 0
M  V30 4357 H 409.574 0.789848 4.21259 0
M  V30 4358 H 413.758 1.65203 4.67997 0
M  V30 4359 H 409.014 2.86847 5.39934 0
M  V30 4360 H 413.188 3.73066 5.88043 0
M  V30 4361 H 410.815 4.34462 6.23816 0
M  V30 4362 N 412.39 -1.55475 0.257931 0
M  V30 4363 C 413.32 -2.24815 -0.630912 0
M  V30 4364 C 414.301 -1.23224 -1.17259 0
M  V30 4365 O 415.486 -1.51904 -1.20991 0
M  V30 4366 C 412.616 -2.95609 -1.82298 0
M  V30 4367 C 411.57 -4.03982 -1.41359 0
M  V30 4368 C 410.896 -4.6226 -2.68738 0
M  V30 4369 C 412.196 -5.19109 -0.57648 0
M  V30 4370 H 413.89 -2.99354 -0.0526878 0
M  V30 4371 H 411.436 -1.4398 -0.023901 0
M  V30 4372 H 413.389 -3.42822 -2.45054 0
M  V30 4373 H 412.113 -2.18577 -2.42676 0
M  V30 4374 H 410.772 -3.57555 -0.809324 0
M  V30 4375 H 410.42 -3.81915 -3.27338 0
M  V30 4376 H 410.12 -5.35424 -2.42065 0
M  V30 4377 H 411.644 -5.12212 -3.32372 0
M  V30 4378 H 413.058 -5.62479 -1.10861 0
M  V30 4379 H 411.455 -5.98729 -0.405351 0
M  V30 4380 H 412.525 -4.83174 0.408776 0
M  V30 4381 N 413.868 0.0150385 -1.57593 0
M  V30 4382 C 415.114 0.704043 -1.90187 0
M  V30 4383 C 415.447 1.74249 -0.857366 0
M  V30 4384 O 414.722 1.94092 0.125843 0
M  V30 4385 C 415.005 1.36087 -3.33395 0
M  V30 4386 C 414.858 0.334981 -4.48551 0
M  V30 4387 C 416.177 2.29112 -3.7576 0
M  V30 4388 H 413.296 0.254475 -0.691673 0
M  V30 4389 H 415.938 -0.0331678 -1.89971 0
M  V30 4390 H 414.088 1.98922 -3.3371 0
M  V30 4391 H 415.76 -0.292534 -4.60372 0
M  V30 4392 H 414.003 -0.344325 -4.32431 0
M  V30 4393 H 414.674 0.833316 -5.45674 0
M  V30 4394 H 417.15 1.76308 -3.76902 0
M  V30 4395 H 416.026 2.72043 -4.76743 0
M  V30 4396 H 416.287 3.16385 -3.08793 0
M  V30 4397 N 415.346 1.54954 0.287554 0
M  V30 4398 C 416.571 1.79209 1.04397 0
M  V30 4399 C 416.996 0.556431 1.79682 0
M  V30 4400 O 416.354 -0.493518 1.74454 0
M  V30 4401 C 416.402 3.00739 1.98969 0
M  V30 4402 O 415.506 2.74805 3.075 0
M  V30 4403 H 414.847 0.592755 0.299227 0
M  V30 4404 H 417.377 2.02068 0.320886 0
M  V30 4405 H 417.387 3.29077 2.4119 0
M  V30 4406 H 416.062 3.90329 1.43582 0
M  V30 4407 H 414.639 2.57523 2.69697 0
M  V30 4408 N 416.824 -0.551391 1.4764 0
M  V30 4409 C 418.072 -1.30572 1.54258 0
M  V30 4410 C 418.393 -1.93877 0.208963 0
M  V30 4411 O 417.663 -1.80234 -0.767619 0
M  V30 4412 H 416.243 -0.484894 0.568231 0
M  V30 4413 H 418.905 -0.643402 1.83974 0
M  V30 4414 H 418.001 -2.09621 2.31226 0
M  V30 4415 N 418.302 -1.35869 -0.798587 0
M  V30 4416 C 419.579 -1.20145 -1.54352 0
M  V30 4417 C 419.959 0.216161 -2.0999 0
M  V30 4418 O 419.307 1.22068 -1.93162 0
M  V30 4419 C 419.517 -2.27602 -2.64572 0
M  V30 4420 C 420.865 -2.63811 -3.32699 0
M  V30 4421 O 421.889 -2.26576 -2.74849 0
M  V30 4422 O 420.748 -3.27866 -4.37226 0
M  V30 4423 H 417.842 -0.467248 -0.682355 0
M  V30 4424 H 420.388 -1.47574 -0.837859 0
M  V30 4425 H 419.16 -3.2265 -2.21388 0
M  V30 4426 H 418.783 -2.01488 -3.42766 0
M  V30 4427 N 419.78 1.02168 -1.19998 0
M  V30 4428 C 420.69 2.14069 -0.959774 0
M  V30 4429 C 421.706 1.73804 0.082655 0
M  V30 4430 O 422.882 2.01133 -0.103633 0
M  V30 4431 C 419.947 3.42936 -0.509459 0
M  V30 4432 C 419.008 3.97474 -1.62213 0
M  V30 4433 C 418.241 5.2019 -1.19321 0
M  V30 4434 O 418.464 5.70369 -0.0597726 0
M  V30 4435 O 417.398 5.67749 -1.99863 0
M  V30 4436 H 421.224 2.37199 -1.89658 0
M  V30 4437 H 418.809 1.12469 -0.983411 0
M  V30 4438 H 420.691 4.20551 -0.267322 0
M  V30 4439 H 419.366 3.21234 0.398821 0
M  V30 4440 H 418.273 3.21161 -1.9185 0
M  V30 4441 H 419.606 4.23555 -2.50723 0
M  V30 4442 N 421.258 1.00505 1.21394 0
M  V30 4443 C 422.505 0.687774 1.90462 0
M  V30 4444 C 422.833 -0.78147 1.7811 0
M  V30 4445 O 422.088 -1.58208 1.1519 0
M  V30 4446 C 422.387 1.0546 3.41486 0
M  V30 4447 C 422.053 2.51812 3.74034 0
M  V30 4448 C 420.715 2.91804 3.82628 0
M  V30 4449 C 423.067 3.46614 3.8924 0
M  V30 4450 C 420.395 4.2556 4.03876 0
M  V30 4451 C 422.747 4.80044 4.11995 0
M  V30 4452 C 421.411 5.19759 4.18816 0
M  V30 4453 H 420.681 0.251674 0.696951 0
M  V30 4454 H 423.328 1.26349 1.43903 0
M  V30 4455 H 421.633 0.397133 3.89782 0
M  V30 4456 H 423.33 0.786976 3.93202 0
M  V30 4457 H 419.92 2.1982 3.67936 0
M  V30 4458 H 424.104 3.16883 3.81967 0
M  V30 4459 H 419.36 4.55901 4.07387 0
M  V30 4460 H 423.534 5.53439 4.22704 0
M  V30 4461 H 421.161 6.23418 4.35033 0
M  V30 4462 N 422.737 -1.36956 0.779787 0
M  V30 4463 C 423.984 -1.99491 0.347766 0
M  V30 4464 C 424.312 -1.61898 -1.07793 0
M  V30 4465 O 423.567 -0.86071 -1.75756 0
M  V30 4466 C 423.866 -3.54585 0.447686 0
M  V30 4467 C 423.532 -4.1197 1.83279 0
M  V30 4468 C 422.194 -4.27356 2.2118 0
M  V30 4469 C 424.546 -4.43354 2.74019 0
M  V30 4470 C 421.874 -4.71432 3.4924 0
M  V30 4471 C 424.226 -4.88858 4.01497 0
M  V30 4472 C 422.89 -5.0245 4.39432 0
M  V30 4473 H 422.16 -0.729991 0.127257 0
M  V30 4474 H 424.807 -1.63599 0.995376 0
M  V30 4475 H 423.112 -3.90773 -0.283447 0
M  V30 4476 H 424.809 -4.00888 0.0945948 0
M  V30 4477 H 421.399 -4.00428 1.52825 0
M  V30 4478 H 425.583 -4.31045 2.45995 0
M  V30 4479 H 420.839 -4.80141 3.78516 0
M  V30 4480 H 425.013 -5.12108 4.71931 0
M  V30 4481 H 422.64 -5.36362 5.38721 0
M  V30 4482 N 424.215 -0.530993 -1.48385 0
M  V30 4483 C 425.462 0.0027373 -2.025 0
M  V30 4484 C 425.79 1.34186 -1.40799 0
M  V30 4485 O 425.045 1.88 -0.543544 0
M  V30 4486 C 425.344 0.172742 -3.56982 0
M  V30 4487 C 425.01 -1.09215 -4.37473 0
M  V30 4488 C 423.672 -1.43881 -4.59186 0
M  V30 4489 C 426.024 -1.93153 -4.84088 0
M  V30 4490 C 423.352 -2.62381 -5.2476 0
M  V30 4491 C 425.704 -3.10833 -5.50968 0
M  V30 4492 C 424.368 -3.45843 -5.70919 0
M  V30 4493 H 423.638 0.00100165 -0.740999 0
M  V30 4494 H 426.285 -0.697219 -1.78357 0
M  V30 4495 H 424.59 0.955473 -3.79971 0
M  V30 4496 H 426.287 0.600642 -3.96476 0
M  V30 4497 H 422.877 -0.812177 -4.20834 0
M  V30 4498 H 427.061 -1.67683 -4.67115 0
M  V30 4499 H 422.317 -2.89707 -5.38405 0
M  V30 4500 H 426.491 -3.7618 -5.86056 0
M  V30 4501 H 424.118 -4.37764 -6.21503 0
M  V30 4502 N 425.693 1.55336 -0.266172 0
M  V30 4503 C 426.942 1.98574 0.353749 0
M  V30 4504 C 427.255 1.15789 1.57646 0
M  V30 4505 O 428.461 1.49129 2.26876 0
M  V30 4506 C 426.917 3.53403 0.680747 0
M  V30 4507 C 426.525 4.44953 -0.52165 0
M  V30 4508 C 428.269 4.05251 1.26379 0
M  V30 4509 C 426.176 5.91156 -0.169736 0
M  V30 4510 H 425.106 0.741643 0.135949 0
M  V30 4511 H 427.757 1.79743 -0.369421 0
M  V30 4512 H 426.139 3.68001 1.46257 0
M  V30 4513 H 427.313 4.42121 -1.29869 0
M  V30 4514 H 425.628 4.03691 -1.02093 0
M  V30 4515 H 428.225 5.12021 1.54074 0
M  V30 4516 H 428.568 3.53749 2.19471 0
M  V30 4517 H 429.101 3.94057 0.544447 0
M  V30 4518 H 425.84 6.46736 -1.0683 0
M  V30 4519 H 425.36 5.97079 0.570717 0
M  V30 4520 H 427.039 6.4655 0.241245 0
M  V30 4521 N 427.171 -0.0066808 1.57599 0
M  V30 4522 C 428.081 -1.01671 2.11424 0
M  V30 4523 C 429.097 -1.38143 1.05795 0
M  V30 4524 O 430.273 -1.47011 1.37658 0
M  V30 4525 C 427.338 -2.29192 2.60139 0
M  V30 4526 C 426.399 -1.99094 3.80342 0
M  V30 4527 C 425.632 -3.20535 4.26724 0
M  V30 4528 O 425.855 -4.3199 3.72479 0
M  V30 4529 O 424.789 -3.04924 5.18946 0
M  V30 4530 H 428.615 -0.589181 2.9793 0
M  V30 4531 H 426.2 -0.225091 1.47695 0
M  V30 4532 H 428.082 -3.0412 2.917 0
M  V30 4533 H 426.757 -2.71195 1.76733 0
M  V30 4534 H 425.664 -1.21663 3.53764 0
M  V30 4535 H 426.997 -1.61931 4.648 0
M  V30 4536 N 428.649 -1.55105 -0.279332 0
M  V30 4537 C 429.895 -1.75672 -1.01327 0
M  V30 4538 C 430.228 -0.552739 -1.86168 0
M  V30 4539 O 429.503 0.449827 -1.89227 0
M  V30 4540 C 429.786 -3.05825 -1.90114 0
M  V30 4541 C 429.639 -4.36565 -1.08309 0
M  V30 4542 C 430.958 -3.31975 -2.8893 0
M  V30 4543 H 428.077 -0.639149 -0.366957 0
M  V30 4544 H 430.719 -1.87833 -0.286154 0
M  V30 4545 H 428.869 -2.95588 -2.52111 0
M  V30 4546 H 430.541 -4.58751 -0.484314 0
M  V30 4547 H 428.784 -4.32076 -0.386362 0
M  V30 4548 H 429.455 -5.23946 -1.73737 0
M  V30 4549 H 431.931 -3.41963 -2.37067 0
M  V30 4550 H 430.807 -4.2432 -3.48201 0
M  V30 4551 H 431.068 -2.51309 -3.63725 0
M  V30 4552 N 430.127 0.543554 -1.4793 0
M  V30 4553 C 431.075 1.67039 -1.61866 0
M  V30 4554 C 432.069 1.62294 -0.48549 0
M  V30 4555 O 433.275 1.67315 -0.66376 0
M  V30 4556 H 429.65 0.552954 -0.509652 0
M  V30 4557 H 431.621 1.52426 -2.56533 0
M  V30 4558 C 430.37 3.05357 -1.6629 0
M  V30 4559 H 429.693 3.09696 -2.5284 0
M  V30 4560 H 431.133 3.83855 -1.80088 0
M  V30 4561 C 429.592 3.34531 -0.398861 0
M  V30 4562 O 430.122 3.98649 0.494162 0
M  V30 4563 N 428.328 2.89299 -0.2747 0
M  V30 4564 H 427.875 2.37298 -1.00236 0
M  V30 4565 H 427.833 3.09188 0.570075 0
M  V30 4566 N 431.605 1.3629 0.791371 0
M  V30 4567 C 433.016 1.27225 1.36641 0
M  V30 4568 C 433.367 -0.0887968 1.95999 0
M  V30 4569 O 432.492 -0.990207 1.92416 0
M  V30 4570 C 433.087 2.30375 2.48421 0
M  V30 4571 C 431.646 2.25004 3.01746 0
M  V30 4572 C 430.793 2.15259 1.7481 0
M  V30 4573 H 433.744 1.47198 0.593173 0
M  V30 4574 H 433.765 1.93905 3.27385 0
M  V30 4575 H 433.277 3.29422 2.05189 0
M  V30 4576 H 431.378 1.29417 3.49403 0
M  V30 4577 H 431.491 3.1761 3.58693 0
M  V30 4578 H 429.855 1.61482 1.96966 0
M  V30 4579 H 430.638 3.16191 1.33709 0
M  V30 4580 N 433.083 -1.0153 1.20538 0
M  V30 4581 C 434.499 -1.27461 0.96051 0
M  V30 4582 C 434.699 -1.98273 -0.359193 0
M  V30 4583 O 433.755 -2.27886 -1.0874 0
M  V30 4584 C 435.068 -2.10837 2.14402 0
M  V30 4585 C 436.616 -2.24099 2.18515 0
M  V30 4586 C 437.091 -3.10852 3.36355 0
M  V30 4587 N 438.582 -3.18441 3.36377 0
M  V30 4588 C 439.317 -3.85795 4.24205 0
M  V30 4589 N 438.813 -4.55264 5.22213 0
M  V30 4590 N 440.606 -3.82331 4.12043 0
M  V30 4591 H 432.757 -0.539907 2.05423 0
M  V30 4592 H 435.02 -0.30092 0.898972 0
M  V30 4593 H 434.726 -1.66144 3.09983 0
M  V30 4594 H 434.6 -3.11576 2.12604 0
M  V30 4595 H 436.987 -2.68016 1.23497 0
M  V30 4596 H 437.068 -1.22865 2.24361 0
M  V30 4597 H 436.712 -2.6764 4.31661 0
M  V30 4598 H 436.642 -4.12177 3.27746 0
M  V30 4599 H 439.133 -2.68978 2.65442 0
M  V30 4600 H 439.446 -5.04331 5.85551 0
M  V30 4601 H 437.791 -4.54085 5.26148 0
M  V30 4602 H 440.982 -3.27207 3.34743 0
M  V30 4603 H 441.155 -4.34547 4.807 0
M  V30 4604 N 434.561 -1.01147 -1.20859 0
M  V30 4605 C 435.807 -0.698899 -1.90377 0
M  V30 4606 C 436.14 0.76904 -1.78324 0
M  V30 4607 O 435.415 1.55817 -1.16409 0
M  V30 4608 C 435.698 -1.12878 -3.41951 0
M  V30 4609 C 435.551 -2.65665 -3.62963 0
M  V30 4610 C 436.87 -0.696114 -4.3456 0
M  V30 4611 H 433.989 -0.255372 -0.691342 0
M  V30 4612 H 436.631 -1.25831 -1.42361 0
M  V30 4613 H 434.781 -0.652827 -3.82976 0
M  V30 4614 H 436.453 -3.21074 -3.31224 0
M  V30 4615 H 434.696 -3.06878 -3.06608 0
M  V30 4616 H 435.367 -2.90797 -4.69192 0
M  V30 4617 H 437.843 -1.10521 -4.01154 0
M  V30 4618 H 436.719 -1.025 -5.39245 0
M  V30 4619 H 436.98 0.402465 -4.40264 0
M  V30 4620 N 436.039 1.36541 -0.78704 0
M  V30 4621 C 436.971 2.28761 -0.141773 0
M  V30 4622 C 437.984 1.49365 0.647599 0
M  V30 4623 O 439.173 1.71836 0.483173 0
M  V30 4624 C 436.273 3.28771 0.822368 0
M  V30 4625 C 435.446 4.3732 0.0835594 0
M  V30 4626 C 434.505 5.17307 0.963296 0
M  V30 4627 O 433.531 5.67638 0.421419 0
M  V30 4628 N 434.733 5.33515 2.28784 0
M  V30 4629 H 437.498 2.84777 -0.933919 0
M  V30 4630 H 435.059 1.48682 -0.640735 0
M  V30 4631 H 437.051 3.79169 1.41468 0
M  V30 4632 H 435.621 2.73412 1.5154 0
M  V30 4633 H 434.841 3.88118 -0.689809 0
M  V30 4634 H 436.129 5.0701 -0.426358 0
M  V30 4635 H 435.527 4.94234 2.75226 0
M  V30 4636 H 434.084 5.87165 2.82985 0
M  V30 4637 N 437.518 0.538854 1.48102 0
M  V30 4638 C 438.764 0.00801365 2.02798 0
M  V30 4639 C 439.097 -1.3309 1.41424 0
M  V30 4640 O 438.372 -1.86169 0.563158 0
M  V30 4641 C 438.655 -0.104589 3.59948 0
M  V30 4642 C 438.508 1.26012 4.31788 0
M  V30 4643 C 439.827 -0.827055 4.32259 0
M  V30 4644 H 436.946 0.00438624 0.736987 0
M  V30 4645 H 439.588 0.6976 1.7673 0
M  V30 4646 H 437.738 -0.691893 3.82289 0
M  V30 4647 H 439.41 1.88922 4.2084 0
M  V30 4648 H 437.653 1.83968 3.92859 0
M  V30 4649 H 438.324 1.13424 5.40221 0
M  V30 4650 H 440.8 -0.328578 4.14801 0
M  V30 4651 H 439.676 -0.87476 5.41885 0
M  V30 4652 H 439.937 -1.87927 4.0017 0
M  V30 4653 N 438.996 -1.55193 0.274407 0
M  V30 4654 C 439.906 -2.26164 -0.623473 0
M  V30 4655 C 440.922 -1.28729 -1.17068 0
M  V30 4656 O 442.098 -1.61663 -1.20112 0
M  V30 4657 C 439.163 -2.96833 -1.7914 0
M  V30 4658 C 438.224 -4.09745 -1.28093 0
M  V30 4659 C 437.457 -4.77034 -2.3932 0
M  V30 4660 O 437.68 -4.4353 -3.5866 0
M  V30 4661 O 436.614 -5.64996 -2.07516 0
M  V30 4662 H 440.44 -3.03661 -0.0485661 0
M  V30 4663 H 438.025 -1.49341 0.0418382 0
M  V30 4664 H 439.907 -3.41248 -2.4724 0
M  V30 4665 H 438.582 -2.22253 -2.35341 0
M  V30 4666 H 437.489 -3.69787 -0.566416 0
M  V30 4667 H 438.822 -4.86224 -0.764683 0
M  V30 4668 N 440.474 -0.00167713 -1.576 0
M  V30 4669 C 441.424 0.997744 -2.0501 0
M  V30 4670 C 442.408 1.30214 -0.94515 0
M  V30 4671 O 443.6 1.29284 -1.20891 0
M  V30 4672 C 440.729 2.2892 -2.55833 0
M  V30 4673 C 439.815 2.01437 -3.73208 0
M  V30 4674 N 440.206 1.44119 -4.84833 0
M  V30 4675 C 438.504 2.31571 -3.8117 0
M  V30 4676 C 439.205 1.33145 -5.66257 0
M  V30 4677 N 438.181 1.81763 -5.12312 0
M  V30 4678 H 441.983 0.549098 -2.88725 0
M  V30 4679 H 439.497 0.20398 -1.61114 0
M  V30 4680 H 441.494 3.01361 -2.88075 0
M  V30 4681 H 440.154 2.74436 -1.73537 0
M  V30 4682 H 441.165 1.11978 -5.0565 0
M  V30 4683 H 437.842 2.7995 -3.09732 0
M  V30 4684 H 439.232 0.890567 -6.65972 0
M  V30 4685 N 441.952 1.55251 0.271103 0
M  V30 4686 C 443.18 1.79974 1.02064 0
M  V30 4687 C 443.595 0.574003 1.79863 0
M  V30 4688 O 442.952 -0.456962 1.76686 0
M  V30 4689 C 443.003 3.02603 1.97772 0
M  V30 4690 O 442.724 4.20443 1.23124 0
M  V30 4691 C 444.225 3.39944 2.84522 0
M  V30 4692 H 441.445 0.599489 0.301419 0
M  V30 4693 H 443.989 2.02268 0.301313 0
M  V30 4694 H 442.144 2.8243 2.65165 0
M  V30 4695 H 442.558 4.89783 1.87651 0
M  V30 4696 H 444.032 4.28915 3.47471 0
M  V30 4697 H 444.509 2.59432 3.54389 0
M  V30 4698 H 445.115 3.62383 2.22618 0
M  V30 4699 N 443.43 -0.535701 1.48216 0
M  V30 4700 C 444.679 -1.28828 1.55197 0
M  V30 4701 C 444.992 -1.94263 0.228278 0
M  V30 4702 O 446.198 -2.70927 0.176278 0
M  V30 4703 C 444.654 -2.33727 2.73678 0
M  V30 4704 C 444.262 -1.74386 4.12666 0
M  V30 4705 C 446.006 -3.1003 2.89968 0
M  V30 4706 C 443.913 -2.77192 5.22416 0
M  V30 4707 H 442.843 -0.484484 0.577747 0
M  V30 4708 H 445.494 -0.56646 1.74538 0
M  V30 4709 H 443.876 -3.08919 2.4776 0
M  V30 4710 H 445.05 -1.05421 4.48579 0
M  V30 4711 H 443.365 -1.10595 4.01445 0
M  V30 4712 H 445.962 -3.86842 3.6913 0
M  V30 4713 H 446.305 -3.65542 1.9921 0
M  V30 4714 H 446.838 -2.41952 3.15759 0
M  V30 4715 H 443.577 -2.26507 6.15122 0
M  V30 4716 H 443.097 -3.44502 4.90998 0
M  V30 4717 H 444.776 -3.40285 5.50286 0
M  V30 4718 N 444.908 -1.36708 -0.784132 0
M  V30 4719 C 446.136 -1.34398 -1.57305 0
M  V30 4720 C 446.551 0.0735577 -1.88657 0
M  V30 4721 O 445.908 1.03193 -1.50524 0
M  V30 4722 C 445.959 -2.17053 -2.89085 0
M  V30 4723 O 445.68 -3.53281 -2.59083 0
M  V30 4724 C 447.181 -2.22583 -3.83369 0
M  V30 4725 H 444.401 -0.460819 -0.487736 0
M  V30 4726 H 446.945 -1.79879 -0.972819 0
M  V30 4727 H 445.1 -1.75113 -3.45564 0
M  V30 4728 H 445.514 -3.9647 -3.43383 0
M  V30 4729 H 446.988 -2.84763 -4.72878 0
M  V30 4730 H 447.465 -1.23075 -4.21603 0
M  V30 4731 H 448.071 -2.64781 -3.32823 0
M  V30 4732 N 446.386 1.0089 -1.21074 0
M  V30 4733 C 447.296 2.13039 -0.982425 0
M  V30 4734 C 448.312 1.73881 0.0642161 0
M  V30 4735 O 449.488 2.01012 -0.12496 0
M  V30 4736 C 446.553 3.42377 -0.545803 0
M  V30 4737 C 445.614 3.95731 -1.6642 0
M  V30 4738 C 444.847 5.18896 -1.24832 0
M  V30 4739 O 445.07 5.70273 -0.120265 0
M  V30 4740 O 444.004 5.65597 -2.05873 0
M  V30 4741 H 447.83 2.35175 -1.92163 0
M  V30 4742 H 445.415 1.1142 -0.995285 0
M  V30 4743 H 447.297 4.20244 -0.311912 0
M  V30 4744 H 445.972 3.21639 0.364727 0
M  V30 4745 H 444.879 3.19108 -1.95246 0
M  V30 4746 H 446.212 4.20872 -2.55201 0
M  V30 4747 N 447.864 1.01787 1.20321 0
M  V30 4748 C 448.797 0.533882 2.21867 0
M  V30 4749 C 449.775 -0.419361 1.57099 0
M  V30 4750 O 450.959 -0.339062 1.85426 0
M  V30 4751 C 448.086 -0.222899 3.37966 0
M  V30 4752 C 447.132 0.680091 4.21043 0
M  V30 4753 S 447.965 2.14997 4.90445 0
M  V30 4754 C 449.121 1.40339 6.09964 0
M  V30 4755 H 449.354 1.39429 2.62577 0
M  V30 4756 H 446.887 0.826867 1.30393 0
M  V30 4757 H 448.845 -0.653425 4.05266 0
M  V30 4758 H 447.506 -1.0589 2.95713 0
M  V30 4759 H 446.699 0.0964704 5.03908 0
M  V30 4760 H 446.301 1.04845 3.59004 0
M  V30 4761 H 448.593 0.68407 6.74038 0
M  V30 4762 H 449.536 2.20823 6.72787 0
M  V30 4763 H 449.944 0.905716 5.57187 0
M  V30 4764 N 449.342 -1.36122 0.79427 0
M  V30 4765 C 450.588 -1.99406 0.369452 0
M  V30 4766 C 450.921 -1.62886 -1.05743 0
M  V30 4767 O 450.196 -0.886053 -1.73145 0
M  V30 4768 C 450.479 -3.56046 0.538833 0
M  V30 4769 C 450.332 -4.02404 2.00976 0
M  V30 4770 C 451.651 -4.40079 -0.0431359 0
M  V30 4771 H 448.77 -0.724397 0.135712 0
M  V30 4772 H 451.412 -1.61461 1.00151 0
M  V30 4773 H 449.562 -3.885 0.000771004 0
M  V30 4774 H 451.234 -3.80415 2.60926 0
M  V30 4775 H 449.477 -3.53765 2.51063 0
M  V30 4776 H 450.148 -5.11344 2.07922 0
M  V30 4777 H 452.624 -4.14013 0.416228 0
M  V30 4778 H 451.5 -5.48799 0.105374 0
M  V30 4779 H 451.761 -4.27264 -1.13571 0
M  V30 4780 N 450.82 -0.546701 -1.47814 0
M  V30 4781 C 452.048 -0.0232857 -2.06887 0
M  V30 4782 C 452.463 1.26571 -1.4009 0
M  V30 4783 O 451.82 1.7569 -0.493906 0
M  V30 4784 C 451.871 0.186975 -3.61016 0
M  V30 4785 O 451.592 -1.05097 -4.25307 0
M  V30 4786 C 453.093 0.748872 -4.36929 0
M  V30 4787 H 450.313 -0.0410763 -0.669742 0
M  V30 4788 H 452.857 -0.757117 -1.89968 0
M  V30 4789 H 451.012 0.870903 -3.77484 0
M  V30 4790 H 451.426 -0.842121 -5.17695 0
M  V30 4791 H 452.9 0.845334 -5.45489 0
M  V30 4792 H 453.377 1.75772 -4.02493 0
M  V30 4793 H 453.983 0.100979 -4.2518 0
M  V30 4794 N 452.299 1.55045 -0.282633 0
M  V30 4795 C 453.547 1.99365 0.331334 0
M  V30 4796 C 453.868 1.1725 1.55812 0
M  V30 4797 O 453.138 0.263871 1.94115 0
M  V30 4798 H 451.718 0.736397 0.125414 0
M  V30 4799 H 454.38 1.90964 -0.389711 0
M  V30 4800 H 453.476 3.0596 0.616036 0
M  V30 4801 N 453.777 0.010035 1.57597 0
M  V30 4802 C 455.026 -0.671945 1.90178 0
M  V30 4803 C 455.339 -1.74376 0.886131 0
M  V30 4804 O 456.545 -2.48107 1.10252 0
M  V30 4805 C 455.001 -1.24636 3.3763 0
M  V30 4806 C 454.609 -0.208838 4.47513 0
M  V30 4807 C 456.353 -1.90595 3.79307 0
M  V30 4808 C 454.26 -0.793814 5.86048 0
M  V30 4809 H 453.19 -0.25474 0.709665 0
M  V30 4810 H 455.841 0.0722206 1.83358 0
M  V30 4811 H 454.223 -2.04152 3.3932 0
M  V30 4812 H 455.397 0.562463 4.57354 0
M  V30 4813 H 453.712 0.350889 4.14919 0
M  V30 4814 H 456.309 -2.35284 4.80151 0
M  V30 4815 H 456.652 -2.74074 3.13352 0
M  V30 4816 H 457.185 -1.17798 3.79958 0
M  V30 4817 H 453.924 0.00240855 6.555 0
M  V30 4818 H 453.444 -1.53404 5.79851 0
M  V30 4819 H 455.123 -1.2894 6.34022 0
M  V30 4820 N 455.255 -1.55392 -0.262866 0
M  V30 4821 C 456.532 -1.67204 -1.01499 0
M  V30 4822 C 456.912 -0.545186 -2.03939 0
M  V30 4823 O 456.26 0.453467 -2.23955 0
M  V30 4824 C 456.47 -3.06847 -1.6627 0
M  V30 4825 C 457.818 -3.64928 -2.17054 0
M  V30 4826 O 458.842 -3.09545 -1.76239 0
M  V30 4827 O 457.701 -4.61984 -2.91947 0
M  V30 4828 H 454.795 -0.679467 -0.471438 0
M  V30 4829 H 457.341 -1.67729 -0.257918 0
M  V30 4830 H 456.113 -3.80309 -0.920915 0
M  V30 4831 H 455.736 -3.10266 -2.48638 0
M  V30 4832 N 456.733 0.527833 -1.48498 0
M  V30 4833 C 457.982 1.28003 -1.55878 0
M  V30 4834 C 458.295 1.9414 -0.238577 0
M  V30 4835 O 459.501 2.7083 -0.190643 0
M  V30 4836 C 457.957 2.32272 -2.74914 0
M  V30 4837 C 457.565 1.72196 -4.13585 0
M  V30 4838 C 459.309 3.08488 -2.91608 0
M  V30 4839 C 457.216 2.74417 -5.23879 0
M  V30 4840 H 456.146 0.481413 -0.580308 0
M  V30 4841 H 458.797 0.557195 -1.74836 0
M  V30 4842 H 457.179 3.07601 -2.49395 0
M  V30 4843 H 458.353 1.03041 -4.49132 0
M  V30 4844 H 456.668 1.08464 -4.02025 0
M  V30 4845 H 459.265 3.84879 -3.71177 0
M  V30 4846 H 459.608 3.64481 -2.01145 0
M  V30 4847 H 460.141 2.40274 -3.17038 0
M  V30 4848 H 456.88 2.23242 -6.16314 0
M  V30 4849 H 456.4 3.41893 -4.92818 0
M  V30 4850 H 458.079 3.37362 -5.52083 0
M  V30 4851 N 458.211 1.37122 0.776871 0
M  V30 4852 C 459.457 1.32243 1.53752 0
M  V30 4853 C 459.79 -0.0944745 1.9397 0
M  V30 4854 O 459.065 -1.05068 1.6368 0
M  V30 4855 C 459.348 2.25681 2.80607 0
M  V30 4856 C 459.201 3.76127 2.46676 0
M  V30 4857 C 460.52 2.17657 3.82509 0
M  V30 4858 H 457.639 0.481704 0.557791 0
M  V30 4859 H 460.281 1.6778 0.891612 0
M  V30 4860 H 458.431 1.95505 3.35723 0
M  V30 4861 H 460.103 4.16877 1.97513 0
M  V30 4862 H 458.346 3.94946 1.79443 0
M  V30 4863 H 459.017 4.36933 3.37333 0
M  V30 4864 H 461.493 2.44245 3.36873 0
M  V30 4865 H 460.369 2.85185 4.69 0
M  V30 4866 H 460.63 1.16785 4.26396 0
M  V30 4867 N 459.689 -1.00246 1.21608 0
M  V30 4868 C 460.636 -2.09073 0.977613 0
M  V30 4869 C 461.606 -1.65815 -0.097297 0
M  V30 4870 O 462.791 -1.90734 0.0503445 0
M  V30 4871 C 459.931 -3.40671 0.551133 0
M  V30 4872 C 459.044 -3.97326 1.69576 0
M  V30 4873 C 458.179 -5.17043 1.2182 0
M  V30 4874 C 457.218 -5.65813 2.335 0
M  V30 4875 N 456.355 -6.76778 1.86859 0
M  V30 4876 H 461.195 -2.28806 1.90924 0
M  V30 4877 H 458.732 -1.12186 0.951452 0
M  V30 4878 H 460.69 -4.16225 0.285097 0
M  V30 4879 H 459.32 -3.20967 -0.343489 0
M  V30 4880 H 458.372 -3.18734 2.07637 0
M  V30 4881 H 459.684 -4.29511 2.53617 0
M  V30 4882 H 458.838 -5.99852 0.908975 0
M  V30 4883 H 457.577 -4.86458 0.347869 0
M  V30 4884 H 456.582 -4.81599 2.65222 0
M  V30 4885 H 457.807 -5.98427 3.21033 0
M  V30 4886 H 455.753 -6.47994 1.02174 0
M  V30 4887 H 455.67 -7.08231 2.64471 0
M  V30 4888 H 456.938 -7.63116 1.58978 0
M  V30 4889 N 461.167 -1.02423 -1.1978 0
M  V30 4890 C 462.395 -0.737456 -1.93311 0
M  V30 4891 C 462.81 0.703023 -1.75223 0
M  V30 4892 O 462.167 1.47761 -1.07112 0
M  V30 4893 C 462.218 -1.0733 -3.45199 0
M  V30 4894 O 461.939 -2.4572 -3.62702 0
M  V30 4895 C 463.44 -0.80866 -4.35862 0
M  V30 4896 H 460.66 -0.2702 -0.614193 0
M  V30 4897 H 463.204 -1.36747 -1.52054 0
M  V30 4898 H 461.359 -0.488545 -3.84307 0
M  V30 4899 H 461.773 -2.58081 -4.56612 0
M  V30 4900 H 463.247 -1.09365 -5.41057 0
M  V30 4901 H 463.724 0.257025 -4.38447 0
M  V30 4902 H 464.33 -1.37592 -4.02428 0
M  V30 4903 N 462.645 1.35699 -0.801477 0
M  V30 4904 C 463.577 2.28598 -0.166028 0
M  V30 4905 C 464.59 1.50044 0.631721 0
M  V30 4906 O 465.779 1.72339 0.464921 0
M  V30 4907 C 462.879 3.29625 0.787451 0
M  V30 4908 C 462.052 4.37384 0.037171 0
M  V30 4909 C 461.111 5.183 0.908375 0
M  V30 4910 O 460.137 5.68053 0.361189 0
M  V30 4911 N 461.339 5.35912 2.23112 0
M  V30 4912 H 464.104 2.83771 -0.964071 0
M  V30 4913 H 461.665 1.47994 -0.656469 0
M  V30 4914 H 463.657 3.80648 1.37439 0
M  V30 4915 H 462.227 2.75004 1.48632 0
M  V30 4916 H 461.447 3.87364 -0.730935 0
M  V30 4917 H 462.735 5.0653 -0.480109 0
M  V30 4918 H 462.133 4.97125 2.69968 0
M  V30 4919 H 460.69 5.90133 2.76741 0
M  V30 4920 N 464.123 0.554532 1.47522 0
M  V30 4921 C 465.372 0.0273458 2.01681 0
M  V30 4922 C 465.685 -1.32962 1.43459 0
M  V30 4923 O 466.891 -1.94657 1.89265 0
M  V30 4924 C 465.347 -0.00159057 3.599 0
M  V30 4925 C 464.955 1.35197 4.27113 0
M  V30 4926 C 466.699 -0.476311 4.21819 0
M  V30 4927 C 464.606 1.28229 5.77331 0
M  V30 4928 H 463.536 0.00645269 0.753972 0
M  V30 4929 H 466.187 0.701985 1.69542 0
M  V30 4930 H 464.569 -0.741821 3.8899 0
M  V30 4931 H 465.743 2.1097 4.09668 0
M  V30 4932 H 464.058 1.76441 3.77171 0
M  V30 4933 H 466.655 -0.5468 5.31897 0
M  V30 4934 H 466.998 -1.4877 3.8881 0
M  V30 4935 H 467.531 0.20898 3.97251 0
M  V30 4936 H 464.27 2.26959 6.14955 0
M  V30 4937 H 463.79 0.566314 5.97121 0
M  V30 4938 H 465.469 0.983226 6.39485 0
M  V30 4939 N 465.601 -1.54893 0.290851 0
M  V30 4940 C 466.531 -2.26103 -0.583084 0
M  V30 4941 C 467.512 -1.25684 -1.14619 0
M  V30 4942 O 468.697 -1.54436 -1.17741 0
M  V30 4943 C 465.827 -2.99409 -1.75987 0
M  V30 4944 C 464.781 -4.0689 -1.32758 0
M  V30 4945 C 464.107 -4.67856 -2.58872 0
M  V30 4946 C 465.407 -5.20215 -0.46624 0
M  V30 4947 H 467.101 -2.99398 0.0108214 0
M  V30 4948 H 464.647 -1.43998 0.00664468 0
M  V30 4949 H 466.6 -3.47943 -2.37727 0
M  V30 4950 H 465.324 -2.23675 -2.37985 0
M  V30 4951 H 463.983 -3.59191 -0.733299 0
M  V30 4952 H 463.631 -3.88772 -3.19163 0
M  V30 4953 H 463.331 -5.40438 -2.30653 0
M  V30 4954 H 464.855 -5.19147 -3.21433 0
M  V30 4955 H 466.269 -5.64704 -0.989047 0
M  V30 4956 H 464.666 -5.99455 -0.27826 0
M  V30 4957 H 465.736 -4.82198 0.511173 0
M  V30 4958 N 467.08 -0.0183926 -1.57589 0
M  V30 4959 C 468.326 0.663543 -1.91638 0
M  V30 4960 C 468.659 1.72392 -0.894134 0
M  V30 4961 O 467.934 1.94316 0.0846449 0
M  V30 4962 C 468.217 1.28984 -3.36207 0
M  V30 4963 C 468.07 0.239761 -4.49161 0
M  V30 4964 C 469.389 2.2109 -3.80536 0
M  V30 4965 H 466.508 0.239746 -0.696915 0
M  V30 4966 H 469.15 -0.073456 -1.89858 0
M  V30 4967 H 467.3 1.91799 -3.37854 0
M  V30 4968 H 468.972 -0.390119 -4.59647 0
M  V30 4969 H 467.215 -0.435972 -4.31604 0
M  V30 4970 H 467.886 0.717383 -5.47319 0
M  V30 4971 H 470.362 1.68273 -3.80557 0
M  V30 4972 H 469.238 2.61869 -4.82406 0
M  V30 4973 H 469.499 3.09764 -3.15434 0
M  V30 4974 N 468.558 1.5553 0.254621 0
M  V30 4975 C 469.521 1.88872 1.29846 0
M  V30 4976 C 470.521 0.764591 1.41459 0
M  V30 4977 O 471.711 1.03265 1.40293 0
M  V30 4978 C 468.843 2.11032 2.67728 0
M  V30 4979 H 470.036 2.82201 1.01502 0
M  V30 4980 H 467.589 1.48303 0.493556 0
M  V30 4981 H 468.324 1.20146 3.01223 0
M  V30 4982 H 468.109 2.92895 2.60682 0
M  V30 4983 H 469.599 2.38038 3.43115 0
M  V30 4984 N 470.036 -0.519951 1.48776 0
M  V30 4985 C 470.999 -1.60574 1.6355 0
M  V30 4986 C 471.999 -1.52557 0.508234 0
M  V30 4987 O 473.189 -1.56047 0.774262 0
M  V30 4988 C 470.321 -3.00211 1.61512 0
M  V30 4989 H 471.514 -1.4881 2.60376 0
M  V30 4990 H 469.067 -0.742772 1.37523 0
M  V30 4991 H 469.802 -3.17471 0.662009 0
M  V30 4992 H 469.587 -3.07439 2.43359 0
M  V30 4993 H 471.077 -3.79134 1.75064 0
M  V30 4994 N 471.514 -1.37532 -0.769588 0
M  V30 4995 C 472.762 -1.32597 -1.5252 0
M  V30 4996 C 473.083 0.0884294 -1.94799 0
M  V30 4997 O 472.353 1.03289 -1.66458 0
M  V30 4998 H 470.933 -0.487846 -0.565699 0
M  V30 4999 H 473.595 -1.72044 -0.915806 0
M  V30 5000 H 472.691 -1.96643 -2.42359 0
M  V30 5001 N 472.992 0.995999 -1.22138 0
M  V30 5002 C 473.955 2.06711 -0.990109 0
M  V30 5003 C 474.955 1.60744 0.0422978 0
M  V30 5004 O 476.145 1.73095 -0.195895 0
M  V30 5005 C 473.277 3.37288 -0.49491 0
M  V30 5006 H 474.47 2.28661 -1.94047 0
M  V30 5007 H 472.023 1.16711 -1.03963 0
M  V30 5008 H 472.758 3.21022 0.459948 0
M  V30 5009 H 472.543 3.71986 -1.23971 0
M  V30 5010 H 474.033 4.16103 -0.353253 0
M  V30 5011 N 474.47 1.03057 1.19235 0
M  V30 5012 C 475.747 0.642608 1.84743 0
M  V30 5013 C 476.127 -0.878577 1.91948 0
M  V30 5014 O 475.475 -1.77597 1.43776 0
M  V30 5015 C 475.685 1.30665 3.23616 0
M  V30 5016 C 477.033 1.43098 3.9976 0
M  V30 5017 O 478.057 1.26396 3.3302 0
M  V30 5018 O 476.916 1.70223 5.19313 0
M  V30 5019 H 474.01 0.223573 0.796206 0
M  V30 5020 H 476.556 1.12883 1.26711 0
M  V30 5021 H 475.328 2.34544 3.13217 0
M  V30 5022 H 474.951 0.808405 3.89295 0
M  V30 5023 N 475.948 -1.35272 0.808662 0
M  V30 5024 C 476.878 -2.32315 0.234981 0
M  V30 5025 C 477.859 -1.57572 -0.64071 0
M  V30 5026 O 479.044 -1.8563 -0.570551 0
M  V30 5027 C 476.174 -3.41801 -0.615601 0
M  V30 5028 C 475.128 -4.27694 0.161767 0
M  V30 5029 C 474.454 -5.28519 -0.810649 0
M  V30 5030 C 475.754 -5.04231 1.36193 0
M  V30 5031 H 477.448 -2.80543 1.04575 0
M  V30 5032 H 474.994 -1.3488 0.504315 0
M  V30 5033 H 476.947 -4.08693 -1.02702 0
M  V30 5034 H 475.671 -2.92186 -1.45928 0
M  V30 5035 H 474.33 -3.62384 0.554382 0
M  V30 5036 H 473.978 -4.75171 -1.64988 0
M  V30 5037 H 473.678 -5.8686 -0.294822 0
M  V30 5038 H 475.202 -5.98283 -1.22023 0
M  V30 5039 H 476.616 -5.64058 1.02528 0
M  V30 5040 H 475.013 -5.72077 1.81239 0
M  V30 5041 H 476.083 -4.34753 2.14751 0
M  V30 5042 N 477.426 -0.562348 -1.47226 0
M  V30 5043 C 478.673 -0.0402165 -2.0246 0
M  V30 5044 C 479.001 1.31169 -1.43614 0
M  V30 5045 O 478.256 1.86805 -0.5833 0
M  V30 5046 C 478.555 0.0969817 -3.57268 0
M  V30 5047 C 478.221 -1.1847 -4.35058 0
M  V30 5048 C 476.883 -1.53588 -4.56031 0
M  V30 5049 C 479.235 -2.03378 -4.79882 0
M  V30 5050 C 476.563 -2.73452 -5.19077 0
M  V30 5051 C 478.915 -3.2245 -5.44251 0
M  V30 5052 C 477.579 -3.57876 -5.63455 0
M  V30 5053 H 476.849 -0.0147163 -0.740854 0
M  V30 5054 H 479.496 -0.734895 -1.76838 0
M  V30 5055 H 477.801 0.87466 -3.81912 0
M  V30 5056 H 479.498 0.516408 -3.97661 0
M  V30 5057 H 476.088 -0.90126 -4.19017 0
M  V30 5058 H 480.272 -1.77553 -4.63453 0
M  V30 5059 H 475.528 -3.01062 -5.32139 0
M  V30 5060 H 479.702 -3.88526 -5.77945 0
M  V30 5061 H 477.329 -4.50849 -6.12078 0
M  V30 5062 N 478.904 1.54736 -0.299062 0
M  V30 5063 C 480.152 1.99706 0.31017 0
M  V30 5064 C 480.473 1.18896 1.54559 0
M  V30 5065 O 479.743 0.284445 1.93824 0
M  V30 5066 H 478.323 0.737686 0.117596 0
M  V30 5067 H 480.985 1.9054 -0.409943 0
M  V30 5068 H 480.081 3.06596 0.58355 0
M  V30 5069 N 480.382 0.0267497 1.57577 0
M  V30 5070 C 481.292 -0.971633 2.13533 0
M  V30 5071 C 482.308 -1.35868 1.08701 0
M  V30 5072 O 483.484 -1.44058 1.40746 0
M  V30 5073 C 480.549 -2.23622 2.64941 0
M  V30 5074 C 479.61 -1.90982 3.8448 0
M  V30 5075 C 478.843 -3.11411 4.33427 0
M  V30 5076 O 479.066 -4.23992 3.81558 0
M  V30 5077 O 478 -2.93848 5.25297 0
M  V30 5078 H 481.826 -0.525853 2.99113 0
M  V30 5079 H 479.411 -0.193712 1.48139 0
M  V30 5080 H 481.293 -2.97864 2.98086 0
M  V30 5081 H 479.968 -2.67386 1.82446 0
M  V30 5082 H 478.875 -1.14132 3.56265 0
M  V30 5083 H 480.208 -1.52036 4.6813 0
M  V30 5084 N 481.861 -1.55662 -0.24637 0
M  V30 5085 C 482.771 -1.93495 -1.32653 0
M  V30 5086 C 483.787 -0.835462 -1.5263 0
M  V30 5087 O 484.963 -1.1369 -1.66242 0
M  V30 5088 C 482.028 -2.22242 -2.66101 0
M  V30 5089 C 481.089 -3.45625 -2.54641 0
M  V30 5090 C 480.322 -3.72991 -3.81724 0
M  V30 5091 O 480.545 -3.02421 -4.8363 0
M  V30 5092 O 479.479 -4.66515 -3.80325 0
M  V30 5093 H 483.305 -2.85498 -1.03559 0
M  V30 5094 H 480.89 -1.42551 -0.44717 0
M  V30 5095 H 482.772 -2.42037 -3.44958 0
M  V30 5096 H 481.447 -1.33417 -2.94926 0
M  V30 5097 H 480.354 -3.31136 -1.74067 0
M  V30 5098 H 481.687 -4.34754 -2.3076 0
M  V30 5099 N 483.339 0.512053 -1.4905 0
M  V30 5100 C 484.588 1.26343 -1.57227 0
M  V30 5101 C 484.901 1.93876 -0.259155 0
M  V30 5102 O 486.107 2.70612 -0.219358 0
M  V30 5103 C 484.563 2.29343 -2.77362 0
M  V30 5104 C 484.171 1.67799 -4.15388 0
M  V30 5105 C 485.915 3.05378 -2.94864 0
M  V30 5106 C 483.822 2.68845 -5.2676 0
M  V30 5107 H 482.752 0.475231 -0.585382 0
M  V30 5108 H 485.403 0.53862 -1.75417 0
M  V30 5109 H 483.785 3.04938 -2.52643 0
M  V30 5110 H 484.959 0.982715 -4.50199 0
M  V30 5111 H 483.274 1.04194 -4.03153 0
M  V30 5112 H 485.871 3.80921 -3.75238 0
M  V30 5113 H 486.214 3.62327 -2.05 0
M  V30 5114 H 486.747 2.36898 -3.19569 0
M  V30 5115 H 483.486 2.16692 -6.18647 0
M  V30 5116 H 483.006 3.36647 -4.96416 0
M  V30 5117 H 484.685 3.31487 -5.5563 0
M  V30 5118 N 484.817 1.37938 0.762283 0
M  V30 5119 C 485.765 1.34569 1.89721 0
M  V30 5120 C 486.759 0.232929 1.67791 0
M  V30 5121 O 487.965 0.401485 1.75465 0
M  V30 5122 H 484.34 0.419594 0.624055 0
M  V30 5123 H 486.311 2.30357 1.8968 0
M  V30 5124 C 485.06 1.17898 3.27101 0
M  V30 5125 H 484.383 2.02781 3.44558 0
M  V30 5126 H 485.823 1.19593 4.06784 0
M  V30 5127 C 484.282 -0.114728 3.36705 0
M  V30 5128 O 484.812 -1.0949 3.8649 0
M  V30 5129 N 483.018 -0.16863 2.9011 0
M  V30 5130 H 482.565 0.62967 2.49786 0
M  V30 5131 H 482.523 -1.03383 2.96916 0
M  V30 5132 N 486.295 -0.989507 1.22664 0
M  V30 5133 C 487.228 -2.07805 0.942985 0
M  V30 5134 C 488.206 -1.6219 -0.115356 0
M  V30 5135 O 489.39 -1.88492 0.0169565 0
M  V30 5136 C 486.517 -3.361 0.418898 0
M  V30 5137 C 485.563 -4.00643 1.46244 0
M  V30 5138 S 486.396 -4.41059 3.03689 0
M  V30 5139 C 487.552 -5.7252 2.52927 0
M  V30 5140 H 487.785 -2.31547 1.86476 0
M  V30 5141 H 485.318 -1.12446 1.05808 0
M  V30 5142 H 487.276 -4.10315 0.123114 0
M  V30 5143 H 485.937 -3.10383 -0.481818 0
M  V30 5144 H 485.13 -4.93033 1.04569 0
M  V30 5145 H 484.732 -3.32767 1.7071 0
M  V30 5146 H 487.024 -6.49017 1.94379 0
M  V30 5147 H 487.967 -6.19026 3.4382 0
M  V30 5148 H 488.375 -5.30083 1.94094 0
M  V30 5149 N 487.773 -1.03688 -1.18687 0
M  V30 5150 C 489.184 -0.766488 -1.70241 0
M  V30 5151 C 489.535 0.713052 -1.82784 0
M  V30 5152 O 488.66 1.55529 -1.50465 0
M  V30 5153 C 489.255 -1.38475 -3.09209 0
M  V30 5154 C 487.814 -1.16276 -3.5799 0
M  V30 5155 C 486.961 -1.4778 -2.34641 0
M  V30 5156 H 489.912 -1.20378 -1.03415 0
M  V30 5157 H 489.933 -0.785939 -3.72295 0
M  V30 5158 H 489.445 -2.46157 -3.00048 0
M  V30 5159 H 487.546 -0.104508 -3.72453 0
M  V30 5160 H 487.659 -1.8571 -4.41643 0
M  V30 5161 H 486.023 -0.897366 -2.38368 0
M  V30 5162 H 486.806 -2.56562 -2.28102 0
M  V30 5163 N 489.251 1.34841 -0.815825 0
M  V30 5164 C 490.183 2.28409 -0.190265 0
M  V30 5165 C 491.196 1.50705 0.615771 0
M  V30 5166 O 492.385 1.72822 0.446616 0
M  V30 5167 C 489.485 3.30441 0.752446 0
M  V30 5168 C 488.658 4.37399 -0.00922152 0
M  V30 5169 C 487.717 5.19234 0.853351 0
M  V30 5170 O 486.743 5.68404 0.300919 0
M  V30 5171 N 487.945 5.38248 2.17416 0
M  V30 5172 H 490.71 2.82732 -0.994114 0
M  V30 5173 H 488.271 1.47289 -0.672129 0
M  V30 5174 H 490.263 3.82084 1.33394 0
M  V30 5175 H 488.833 2.76565 1.45707 0
M  V30 5176 H 488.053 3.86567 -0.771979 0
M  V30 5177 H 489.341 5.05992 -0.533807 0
M  V30 5178 H 488.739 4.99961 2.6468 0
M  V30 5179 H 487.296 5.93035 2.70467 0
M  V30 5180 N 490.729 0.570148 1.46925 0
M  V30 5181 C 491.661 -0.207909 2.28255 0
M  V30 5182 C 492.674 -0.867301 1.37774 0
M  V30 5183 O 493.863 -0.738976 1.62485 0
M  V30 5184 C 490.963 -1.31298 3.12433 0
M  V30 5185 C 490.136 -0.747915 4.30958 0
M  V30 5186 C 489.195 -1.7391 4.9663 0
M  V30 5187 O 488.221 -1.2801 5.54619 0
M  V30 5188 N 489.423 -3.07288 4.92498 0
M  V30 5189 H 492.188 0.489794 2.95671 0
M  V30 5190 H 489.749 0.407076 1.56699 0
M  V30 5191 H 491.741 -1.97507 3.53232 0
M  V30 5192 H 490.311 -1.91373 2.47175 0
M  V30 5193 H 489.531 0.0913066 3.94094 0
M  V30 5194 H 490.819 -0.349958 5.07595 0
M  V30 5195 H 490.217 -3.47213 4.46609 0
M  V30 5196 H 488.774 -3.69021 5.37277 0
M  V30 5197 N 492.207 -1.54576 0.307264 0
M  V30 5198 C 493.154 -2.23751 -0.56604 0
M  V30 5199 C 494.124 -1.22235 -1.12462 0
M  V30 5200 O 495.309 -1.50873 -1.16799 0
M  V30 5201 C 492.449 -2.98661 -1.72903 0
M  V30 5202 C 491.562 -4.14963 -1.20124 0
M  V30 5203 C 490.697 -4.77441 -2.3286 0
M  V30 5204 C 489.736 -5.85875 -1.77247 0
M  V30 5205 N 488.873 -6.42282 -2.8358 0
M  V30 5206 H 493.713 -2.97984 0.0304578 0
M  V30 5207 H 491.25 -1.47076 0.0268015 0
M  V30 5208 H 493.208 -3.40329 -2.41313 0
M  V30 5209 H 491.838 -2.26793 -2.29706 0
M  V30 5210 H 490.89 -3.78193 -0.409198 0
M  V30 5211 H 492.202 -4.93066 -0.754171 0
M  V30 5212 H 491.356 -5.21993 -3.09205 0
M  V30 5213 H 490.095 -3.98684 -2.80896 0
M  V30 5214 H 489.1 -5.40741 -0.993926 0
M  V30 5215 H 490.325 -6.6652 -1.30107 0
M  V30 5216 H 488.271 -5.66406 -3.30939 0
M  V30 5217 H 488.188 -7.1575 -2.43388 0
M  V30 5218 H 489.456 -6.91492 -3.59804 0
M  V30 5219 N 493.685 -0.035106 -1.57561 0
M  V30 5220 C 494.962 0.681212 -1.83354 0
M  V30 5221 C 495.342 1.89986 -0.920252 0
M  V30 5222 O 494.69 2.28489 0.0226815 0
M  V30 5223 C 494.9 1.05376 -3.32712 0
M  V30 5224 C 496.248 1.44286 -3.99333 0
M  V30 5225 O 497.272 1.14656 -3.37242 0
M  V30 5226 O 496.131 1.99518 -5.08778 0
M  V30 5227 H 493.225 0.334741 -0.756226 0
M  V30 5228 H 495.771 -0.0632448 -1.69582 0
M  V30 5229 H 494.543 0.186668 -3.90854 0
M  V30 5230 H 494.166 1.85619 -3.51613 0
M  V30 5231 N 495.163 1.55791 0.238111 0
M  V30 5232 C 496.412 1.77234 0.962868 0
M  V30 5233 C 496.725 0.600661 1.86149 0
M  V30 5234 O 497.931 0.698315 2.62366 0
M  V30 5235 C 496.387 3.13808 1.76218 0
M  V30 5236 C 495.995 4.3865 0.910518 0
M  V30 5237 C 497.739 3.44585 2.47914 0
M  V30 5238 C 495.646 5.66252 1.70623 0
M  V30 5239 H 494.576 0.660731 0.36325 0
M  V30 5240 H 497.227 1.8221 0.217242 0
M  V30 5241 H 495.609 3.02963 2.55009 0
M  V30 5242 H 496.783 4.60507 0.164316 0
M  V30 5243 H 495.098 4.15271 0.30647 0
M  V30 5244 H 497.695 4.3714 3.07917 0
M  V30 5245 H 498.038 2.66314 3.19973 0
M  V30 5246 H 498.571 3.56685 1.76127 0
M  V30 5247 H 495.31 6.47369 1.02923 0
M  V30 5248 H 494.83 5.48483 2.42748 0
M  V30 5249 H 496.509 6.05829 2.27114 0
M  V30 5250 N 496.642 -0.504142 1.49319 0
M  V30 5251 C 497.87 -1.28256 1.62351 0
M  V30 5252 C 498.285 -1.86502 0.293682 0
M  V30 5253 O 497.642 -1.67678 -0.720449 0
M  V30 5254 C 497.693 -2.41507 2.68992 0
M  V30 5255 O 497.414 -1.85656 3.96817 0
M  V30 5256 C 498.915 -3.32929 2.927 0
M  V30 5257 H 496.135 -0.389115 0.546654 0
M  V30 5258 H 498.679 -0.605531 1.95329 0
M  V30 5259 H 496.834 -3.05046 2.38801 0
M  V30 5260 H 497.248 -2.59981 4.55533 0
M  V30 5261 H 498.722 -4.0868 3.71058 0
M  V30 5262 H 499.199 -3.89733 2.02496 0
M  V30 5263 H 499.805 -2.75158 3.24296 0
M  V30 5264 N 498.12 -1.38341 -0.754957 0
M  V30 5265 C 499.348 -1.37704 -1.54419 0
M  V30 5266 C 499.763 0.0335243 -1.8877 0
M  V30 5267 O 499.12 0.999773 -1.52679 0
M  V30 5268 C 499.171 -2.23136 -2.84416 0
M  V30 5269 O 498.892 -3.58697 -2.51531 0
M  V30 5270 C 500.393 -2.30664 -3.78562 0
M  V30 5271 H 497.613 -0.471061 -0.477852 0
M  V30 5272 H 500.157 -1.81902 -0.934446 0
M  V30 5273 H 498.312 -1.82403 -3.41772 0
M  V30 5274 H 498.726 -4.03665 -3.34896 0
M  V30 5275 H 500.2 -2.9473 -4.66732 0
M  V30 5276 H 500.677 -1.3199 -4.18898 0
M  V30 5277 H 501.283 -2.71781 -3.27131 0
M  V30 5278 N 499.598 0.982988 -1.23187 0
M  V30 5279 C 500.528 2.09301 -1.03515 0
M  V30 5280 C 501.509 1.70035 0.0471136 0
M  V30 5281 O 502.694 1.93847 -0.117029 0
M  V30 5282 C 499.824 3.4167 -0.622791 0
M  V30 5283 C 498.778 3.94828 -1.65211 0
M  V30 5284 C 498.104 5.23362 -1.09527 0
M  V30 5285 C 499.404 4.2439 -3.04451 0
M  V30 5286 H 501.098 2.26016 -1.96359 0
M  V30 5287 H 498.644 1.08611 -0.945501 0
M  V30 5288 H 500.597 4.18746 -0.472233 0
M  V30 5289 H 499.321 3.24811 0.341329 0
M  V30 5290 H 497.98 3.19895 -1.79061 0
M  V30 5291 H 497.628 5.02852 -0.122211 0
M  V30 5292 H 497.328 5.59895 -1.783 0
M  V30 5293 H 498.852 6.03062 -0.956511 0
M  V30 5294 H 500.266 4.92225 -2.93917 0
M  V30 5295 H 498.663 4.72118 -3.70438 0
M  V30 5296 H 499.733 3.31765 -3.53638 0
M  V30 5297 N 501.076 1.04316 1.18135 0
M  V30 5298 C 502.324 0.746542 1.87806 0
M  V30 5299 C 502.645 -0.728082 1.80898 0
M  V30 5300 O 501.915 -1.52554 1.22899 0
M  V30 5301 H 500.495 0.273157 0.695265 0
M  V30 5302 H 503.157 1.32044 1.43354 0
M  V30 5303 H 502.253 1.05362 2.93778 0
M  V30 5304 N 502.554 -1.34406 0.822964 0
M  V30 5305 C 503.784 -2.02214 0.423424 0
M  V30 5306 C 504.192 -1.62124 -0.975322 0
M  V30 5307 O 503.535 -0.822452 -1.6426 0
M  V30 5308 C 503.597 -3.56721 0.446107 0
M  V30 5309 C 503.261 -4.20136 1.79819 0
M  V30 5310 C 504.258 -4.4065 2.75904 0
M  V30 5311 C 501.943 -4.56906 2.08669 0
M  V30 5312 C 503.937 -4.9706 3.99012 0
M  V30 5313 C 501.624 -5.13026 3.32036 0
M  V30 5314 C 502.622 -5.33047 4.27024 0
M  V30 5315 O 502.31 -5.87979 5.48211 0
M  V30 5316 H 502.042 -0.654748 0.168169 0
M  V30 5317 H 504.596 -1.72659 1.11257 0
M  V30 5318 H 502.826 -3.85537 -0.299734 0
M  V30 5319 H 504.515 -4.05845 0.0666114 0
M  V30 5320 H 505.281 -4.12607 2.54912 0
M  V30 5321 H 501.16 -4.40626 1.35535 0
M  V30 5322 H 504.704 -5.12603 4.73164 0
M  V30 5323 H 500.601 -5.40498 3.52891 0
M  V30 5324 H 501.369 -6.06413 5.49732 0
M  V30 5325 N 504.032 -0.577932 -1.46621 0
M  V30 5326 C 504.995 0.147805 -2.28723 0
M  V30 5327 C 505.995 0.823325 -1.38123 0
M  V30 5328 O 507.185 0.676011 -1.60548 0
M  V30 5329 C 504.317 1.21853 -3.18378 0
M  V30 5330 H 505.51 -0.573654 -2.94362 0
M  V30 5331 H 503.063 -0.335703 -1.52652 0
M  V30 5332 H 503.798 1.97173 -2.57475 0
M  V30 5333 H 503.583 0.738714 -3.85078 0
M  V30 5334 H 505.073 1.72768 -3.80186 0
M  V30 5335 N 505.51 1.54411 -0.315457 0
M  V30 5336 C 506.759 1.99599 0.290395 0
M  V30 5337 C 507.072 1.20746 1.53882 0
M  V30 5338 O 508.278 1.56272 2.22017 0
M  V30 5339 C 506.734 3.5539 0.56797 0
M  V30 5340 C 506.342 4.43068 -0.662945 0
M  V30 5341 C 508.086 4.09067 1.13422 0
M  V30 5342 C 505.993 5.90317 -0.357722 0
M  V30 5343 H 504.923 0.745592 0.112286 0
M  V30 5344 H 507.574 1.78477 -0.426418 0
M  V30 5345 H 505.956 3.72468 1.34476 0
M  V30 5346 H 507.13 4.37765 -1.43869 0
M  V30 5347 H 505.445 4.00238 -1.14884 0
M  V30 5348 H 508.042 5.16663 1.37707 0
M  V30 5349 H 508.385 3.60552 2.08106 0
M  V30 5350 H 508.918 3.95589 0.418805 0
M  V30 5351 H 505.657 6.4301 -1.27351 0
M  V30 5352 H 505.177 5.98592 0.380472 0
M  V30 5353 H 506.856 6.4699 0.0354284 0
M  V30 5354 N 506.988 0.0434614 1.5754 0
M  V30 5355 C 507.92 -0.962586 2.08007 0
M  V30 5356 C 508.933 -1.27972 1.00634 0
M  V30 5357 O 510.122 -1.24186 1.28219 0
M  V30 5358 C 507.222 -2.28621 2.50171 0
M  V30 5359 C 506.395 -2.15214 3.80791 0
M  V30 5360 C 505.454 -3.30633 4.09351 0
M  V30 5361 O 504.48 -3.0688 4.79388 0
M  V30 5362 N 505.682 -4.54873 3.60654 0
M  V30 5363 H 508.447 -0.531891 2.94942 0
M  V30 5364 H 506.008 -0.142965 1.61268 0
M  V30 5365 H 508 -3.04689 2.66359 0
M  V30 5366 H 506.57 -2.63283 1.68525 0
M  V30 5367 H 505.79 -1.23785 3.74261 0
M  V30 5368 H 507.078 -2.03475 4.66343 0
M  V30 5369 H 506.476 -4.77063 3.04019 0
M  V30 5370 H 505.033 -5.2806 3.82094 0
M  V30 5371 N 508.466 -1.55915 -0.229846 0
M  V30 5372 C 509.706 -1.80314 -0.962614 0
M  V30 5373 C 510.07 -0.61568 -1.81861 0
M  V30 5374 O 511.271 -0.738795 -2.58448 0
M  V30 5375 C 509.542 -3.0956 -1.78627 0
M  V30 5376 S 511.101 -3.55243 -2.57581 0
M  V30 5377 H 507.919 -0.633142 -0.323499 0
M  V30 5378 H 510.521 -1.94155 -0.228919 0
M  V30 5379 H 509.225 -3.94033 -1.14742 0
M  V30 5380 H 508.756 -2.98503 -2.56241 0
M  V30 5381 H 510.771 -3.17924 -3.80971 0
M  V30 5382 N 509.944 0.496216 -1.49584 0
M  V30 5383 C 511.36 0.827814 -1.36453 0
M  V30 5384 C 511.56 1.97464 -0.401285 0
M  V30 5385 O 510.616 2.51958 0.165296 0
M  V30 5386 C 511.929 1.16352 -2.77277 0
M  V30 5387 C 513.477 1.27145 -2.86013 0
M  V30 5388 C 513.952 1.64042 -4.27615 0
M  V30 5389 N 515.443 1.71082 -4.30448 0
M  V30 5390 C 516.178 2.01085 -5.36984 0
M  V30 5391 N 515.674 2.2928 -6.5376 0
M  V30 5392 N 517.467 2.02376 -5.24405 0
M  V30 5393 H 509.618 -0.259947 -2.10803 0
M  V30 5394 H 511.881 -0.0537163 -0.946477 0
M  V30 5395 H 511.587 0.394153 -3.49484 0
M  V30 5396 H 511.461 2.10582 -3.12946 0
M  V30 5397 H 513.848 2.03152 -2.1404 0
M  V30 5398 H 513.929 0.309542 -2.5392 0
M  V30 5399 H 513.573 0.88583 -5.00115 0
M  V30 5400 H 513.503 2.6134 -4.57175 0
M  V30 5401 H 515.994 1.51434 -3.46232 0
M  V30 5402 H 516.307 2.51376 -7.30774 0
M  V30 5403 H 514.652 2.26726 -6.56978 0
M  V30 5404 H 517.843 1.79829 -4.32179 0
M  V30 5405 H 518.016 2.25425 -6.07526 0
M  V30 5406 N 511.423 1.38739 0.74761 0
M  V30 5407 C 512.672 1.3459 1.50228 0
M  V30 5408 C 512.985 -0.0595592 1.95509 0
M  V30 5409 O 514.191 -0.22361 2.70578 0
M  V30 5410 C 512.647 2.36377 2.71393 0
M  V30 5411 C 512.255 3.82573 2.33113 0
M  V30 5412 C 513.999 2.41281 3.49262 0
M  V30 5413 C 511.906 4.76032 3.50924 0
M  V30 5414 H 510.836 0.500312 0.564096 0
M  V30 5415 H 513.487 1.64324 0.8167 0
M  V30 5416 H 511.869 1.99694 3.41962 0
M  V30 5417 H 513.043 4.28227 1.70171 0
M  V30 5418 H 511.358 3.80844 1.68365 0
M  V30 5419 H 513.955 3.08301 4.36869 0
M  V30 5420 H 514.298 1.43353 3.9084 0
M  V30 5421 H 514.831 2.76793 2.85711 0
M  V30 5422 H 511.57 5.75177 3.14408 0
M  V30 5423 H 511.09 4.35066 4.12889 0
M  V30 5424 H 512.769 4.94331 4.17427 0
M  V30 5425 N 512.901 -0.976442 1.23707 0
M  V30 5426 C 514.129 -1.75341 1.09833 0
M  V30 5427 C 514.544 -1.8553 -0.349885 0
M  V30 5428 O 513.901 -1.33732 -1.24185 0
M  V30 5429 C 513.952 -3.17833 1.72233 0
M  V30 5430 O 513.673 -3.08167 3.11391 0
M  V30 5431 C 515.174 -4.11906 1.63853 0
M  V30 5432 H 512.394 -0.550137 0.384175 0
M  V30 5433 H 514.938 -1.2265 1.63638 0
M  V30 5434 H 513.093 -3.67538 1.22452 0
M  V30 5435 H 513.507 -3.97897 3.41729 0
M  V30 5436 H 514.981 -5.09579 2.12211 0
M  V30 5437 H 515.458 -4.35109 0.598092 0
M  V30 5438 H 516.064 -3.68107 2.13019 0
M  V30 5439 N 514.379 -1.04941 -1.1758 0
M  V30 5440 C 515.607 -0.778294 -1.91703 0
M  V30 5441 C 516.022 0.665697 -1.76675 0
M  V30 5442 O 515.379 1.45456 -1.10222 0
M  V30 5443 C 515.43 -1.14628 -3.42845 0
M  V30 5444 O 515.151 -2.53359 -3.57409 0
M  V30 5445 C 516.652 -0.900931 -4.34049 0
M  V30 5446 H 513.872 -0.283167 -0.608323 0
M  V30 5447 H 516.416 -1.39942 -1.49119 0
M  V30 5448 H 514.571 -0.569953 -3.83184 0
M  V30 5449 H 514.985 -2.67709 -4.51035 0
M  V30 5450 H 516.459 -1.20817 -5.38616 0
M  V30 5451 H 516.936 0.163966 -4.38894 0
M  V30 5452 H 517.542 -1.46097 -3.99419 0
M  V30 5453 N 515.857 1.33968 -0.830081 0
M  V30 5454 C 516.767 2.33164 -0.259207 0
M  V30 5455 C 517.783 1.62951 0.610164 0
M  V30 5456 O 518.959 1.94668 0.516369 0
M  V30 5457 C 516.024 3.42088 0.563598 0
M  V30 5458 C 515.085 4.28037 -0.329014 0
M  V30 5459 C 514.318 5.3176 0.454616 0
M  V30 5460 O 514.541 5.44876 1.6872 0
M  V30 5461 O 513.475 6.01669 -0.166794 0
M  V30 5462 H 517.301 2.83832 -1.08041 0
M  V30 5463 H 514.886 1.37154 -0.59239 0
M  V30 5464 H 516.768 4.08581 1.03147 0
M  V30 5465 H 515.443 2.93651 1.36201 0
M  V30 5466 H 514.35 3.64443 -0.844538 0
M  V30 5467 H 515.683 4.79934 -1.09196 0
M  V30 5468 N 517.335 0.585699 1.46312 0
M  V30 5469 C 518.612 0.00542031 1.95599 0
M  V30 5470 C 518.992 -1.45619 1.52834 0
M  V30 5471 O 518.34 -2.14759 0.780446 0
M  V30 5472 C 518.55 0.180601 3.48532 0
M  V30 5473 C 519.898 0.049979 4.24571 0
M  V30 5474 O 520.922 0.109589 3.56031 0
M  V30 5475 O 519.781 -0.0832226 5.46437 0
M  V30 5476 H 516.875 -0.0481281 0.825598 0
M  V30 5477 H 519.421 0.654227 1.56582 0
M  V30 5478 H 518.193 1.19657 3.72556 0
M  V30 5479 H 517.816 -0.504498 3.94386 0
M  V30 5480 N 518.813 -1.54241 0.323641 0
M  V30 5481 C 520.224 -1.85975 -0.164405 0
M  V30 5482 C 520.575 -1.24529 -1.51615 0
M  V30 5483 O 519.7 -0.551351 -2.09258 0
M  V30 5484 C 520.295 -3.37424 -0.305091 0
M  V30 5485 C 518.854 -3.69107 -0.737358 0
M  V30 5486 C 518.001 -2.76942 0.140884 0
M  V30 5487 H 520.952 -1.49088 0.543922 0
M  V30 5488 H 520.973 -3.63147 -1.13598 0
M  V30 5489 H 520.485 -3.82116 0.678876 0
M  V30 5490 H 518.586 -3.29947 -1.73107 0
M  V30 5491 H 518.699 -4.76035 -0.541053 0
M  V30 5492 H 517.063 -2.51795 -0.383572 0
M  V30 5493 H 517.846 -3.24461 1.12162 0
M  V30 5494 N 520.291 -0.0518155 -1.57515 0
M  V30 5495 C 521.221 0.920283 -2.146 0
M  V30 5496 C 522.202 1.32406 -1.06783 0
M  V30 5497 O 523.387 1.39866 -1.34726 0
M  V30 5498 C 520.517 2.1949 -2.6915 0
M  V30 5499 C 519.471 1.93116 -3.81956 0
M  V30 5500 C 518.797 3.27037 -4.23026 0
M  V30 5501 C 520.097 1.25225 -5.07066 0
M  V30 5502 H 521.791 0.444801 -2.96077 0
M  V30 5503 H 519.337 0.212508 -1.42423 0
M  V30 5504 H 521.29 2.87894 -3.07725 0
M  V30 5505 H 520.014 2.69244 -1.84865 0
M  V30 5506 H 518.673 1.27123 -3.43854 0
M  V30 5507 H 518.321 3.74595 -3.3569 0
M  V30 5508 H 518.021 3.10189 -4.99056 0
M  V30 5509 H 519.545 3.96673 -4.64202 0
M  V30 5510 H 520.959 1.83666 -5.43083 0
M  V30 5511 H 519.356 1.18702 -5.88243 0
M  V30 5512 H 520.426 0.228382 -4.84362 0
M  V30 5513 N 521.769 1.56035 0.221574 0
M  V30 5514 C 522.717 1.93269 1.29421 0
M  V30 5515 C 523.711 0.814727 1.48521 0
M  V30 5516 O 524.917 0.999559 1.49696 0
M  V30 5517 H 521.292 0.614188 0.43391 0
M  V30 5518 H 523.263 2.82773 0.952987 0
M  V30 5519 C 522.012 2.26573 2.63742 0
M  V30 5520 H 521.335 3.12112 2.49853 0
M  V30 5521 H 522.775 2.5651 3.37607 0
M  V30 5522 C 521.234 1.09086 3.1875 0
M  V30 5523 O 521.764 0.351985 4.00155 0
M  V30 5524 N 519.97 0.874693 2.77124 0
M  V30 5525 H 519.517 1.47726 2.11033 0
M  V30 5526 H 519.475 0.0903349 3.1427 0
M  V30 5527 N 523.247 -0.488276 1.49845 0
M  V30 5528 C 524.524 -1.24959 1.50481 0
M  V30 5529 C 524.904 -2.09735 0.239698 0
M  V30 5530 O 524.252 -2.14865 -0.777524 0
M  V30 5531 C 524.462 -2.0954 2.79095 0
M  V30 5532 C 525.81 -2.68305 3.29086 0
M  V30 5533 O 526.834 -2.19797 2.80299 0
M  V30 5534 O 525.693 -3.56643 4.14087 0
M  V30 5535 H 522.787 -0.566133 0.602845 0
M  V30 5536 H 525.333 -0.501504 1.6212 0
M  V30 5537 H 524.105 -1.46958 3.62656 0
M  V30 5538 H 523.728 -2.91517 2.70377 0
M  V30 5539 N 524.725 -1.39134 -0.740242 0
M  V30 5540 C 525.972 -1.36071 -1.49969 0
M  V30 5541 C 526.3 0.0450245 -1.94448 0
M  V30 5542 O 525.555 1.02482 -1.66721 0
M  V30 5543 C 525.854 -2.27457 -2.75678 0
M  V30 5544 C 525.52 -3.75185 -2.50094 0
M  V30 5545 C 524.182 -4.15439 -2.42825 0
M  V30 5546 C 526.534 -4.68643 -2.28086 0
M  V30 5547 C 523.862 -5.4722 -2.11584 0
M  V30 5548 C 526.214 -6.00695 -1.98363 0
M  V30 5549 C 524.878 -6.40018 -1.8956 0
M  V30 5550 H 524.148 -0.497921 -0.548777 0
M  V30 5551 H 526.795 -1.71599 -0.85007 0
M  V30 5552 H 525.1 -1.8503 -3.45356 0
M  V30 5553 H 526.797 -2.22384 -3.33686 0
M  V30 5554 H 523.387 -3.43279 -2.56627 0
M  V30 5555 H 527.571 -4.3838 -2.32672 0
M  V30 5556 H 522.827 -5.76615 -2.03287 0
M  V30 5557 H 527.001 -6.72644 -1.80341 0
M  V30 5558 H 524.628 -7.42051 -1.65117 0
M  V30 5559 N 526.204 0.969867 -1.24223 0
M  V30 5560 C 527.137 2.06279 -0.975926 0
M  V30 5561 C 528.115 1.62353 0.0895385 0
M  V30 5562 O 529.299 1.88442 -0.0469418 0
M  V30 5563 C 526.426 3.35391 -0.472315 0
M  V30 5564 C 525.472 3.98266 -1.526 0
M  V30 5565 S 526.305 4.36172 -3.10667 0
M  V30 5566 C 527.461 5.68423 -2.62003 0
M  V30 5567 H 527.694 2.28551 -1.90137 0
M  V30 5568 H 525.227 1.10748 -1.07584 0
M  V30 5569 H 527.185 4.10068 -0.188376 0
M  V30 5570 H 525.846 3.1111 0.432378 0
M  V30 5571 H 525.039 4.91307 -1.12399 0
M  V30 5572 H 524.641 3.30009 -1.75983 0
M  V30 5573 H 526.933 6.45842 -2.0468 0
M  V30 5574 H 527.876 6.13478 -3.53625 0
M  V30 5575 H 528.284 5.26928 -2.02502 0
M  V30 5576 N 527.682 1.05563 1.17022 0
M  V30 5577 C 529.093 0.793475 1.69 0
M  V30 5578 C 529.444 -0.683882 1.83895 0
M  V30 5579 O 528.569 -1.53116 1.5292 0
M  V30 5580 C 529.164 1.43376 3.06967 0
M  V30 5581 C 527.723 1.21956 3.56095 0
M  V30 5582 C 526.87 1.51494 2.3226 0
M  V30 5583 H 529.821 1.22008 1.01487 0
M  V30 5584 H 529.842 0.845068 3.70997 0
M  V30 5585 H 529.354 2.50899 2.96093 0
M  V30 5586 H 527.455 0.163749 3.7224 0
M  V30 5587 H 527.568 1.92713 4.38633 0
M  V30 5588 H 525.932 0.935175 2.3691 0
M  V30 5589 H 526.715 2.60159 2.23992 0
M  V30 5590 N 529.16 -1.33526 0.837174 0
M  V30 5591 C 530.437 -1.92369 0.354065 0
M  V30 5592 C 530.817 -1.76348 -1.16038 0
M  V30 5593 O 530.165 -1.15083 -1.97403 0
M  V30 5594 C 530.375 -3.39728 0.799101 0
M  V30 5595 C 531.723 -4.16877 0.806139 0
M  V30 5596 O 532.747 -3.48373 0.742597 0
M  V30 5597 O 531.606 -5.39166 0.892345 0
M  V30 5598 H 528.7 -0.820952 0.0998378 0
M  V30 5599 H 531.246 -1.42409 0.922913 0
M  V30 5600 H 530.018 -3.45254 1.84162 0
M  V30 5601 H 529.641 -3.97062 0.206731 0
M  V30 5602 N 530.638 -0.59345 -1.46 0
M  V30 5603 C 531.866 -0.0890934 -2.06708 0
M  V30 5604 C 532.281 1.2205 -1.44046 0
M  V30 5605 O 531.638 1.74029 -0.549551 0
M  V30 5606 C 531.689 0.0720263 -3.61428 0
M  V30 5607 O 531.41 -1.18574 -4.21748 0
M  V30 5608 C 532.911 0.609487 -4.3909 0
M  V30 5609 H 530.131 -0.0623628 -0.668096 0
M  V30 5610 H 532.675 -0.817171 -1.87464 0
M  V30 5611 H 530.83 0.750369 -3.80063 0
M  V30 5612 H 531.244 -1.0064 -5.14754 0
M  V30 5613 H 532.718 0.671363 -5.47902 0
M  V30 5614 H 533.195 1.62878 -4.07882 0
M  V30 5615 H 533.801 -0.03434 -4.25286 0
M  V30 5616 N 532.116 1.54067 -0.331816 0
M  V30 5617 C 533.364 2.00319 0.267739 0
M  V30 5618 C 533.685 1.22148 1.52003 0
M  V30 5619 O 532.955 0.325494 1.93177 0
M  V30 5620 H 531.535 0.740014 0.101922 0
M  V30 5621 H 534.197 1.89628 -0.450267 0
M  V30 5622 H 533.293 3.07765 0.518385 0
M  V30 5623 N 533.594 0.0601682 1.57485 0
M  V30 5624 C 534.822 -0.620937 1.97363 0
M  V30 5625 C 535.237 -1.63846 0.938082 0
M  V30 5626 O 534.594 -1.82339 -0.0766578 0
M  V30 5627 C 534.645 -1.29987 3.37321 0
M  V30 5628 O 534.366 -0.323081 4.36907 0
M  V30 5629 C 535.867 -2.06989 3.92008 0
M  V30 5630 H 533.087 -0.169135 0.649334 0
M  V30 5631 H 535.631 0.129132 2.04092 0
M  V30 5632 H 533.786 -2.0011 3.31715 0
M  V30 5633 H 534.2 -0.808754 5.18227 0
M  V30 5634 H 535.674 -2.49901 4.92192 0
M  V30 5635 H 536.151 -2.92173 3.2792 0
M  V30 5636 H 536.757 -1.41757 4.0098 0
M  V30 5637 N 535.072 -1.5615 -0.213296 0
M  V30 5638 C 536.321 -1.78743 -0.93455 0
M  V30 5639 C 536.634 -0.630199 -1.8517 0
M  V30 5640 O 537.84 -0.739966 -2.61222 0
M  V30 5641 C 536.296 -3.16571 -1.71203 0
M  V30 5642 C 535.904 -4.40043 -0.840617 0
M  V30 5643 C 537.648 -3.48485 -2.42401 0
M  V30 5644 C 535.555 -5.68895 -1.61592 0
M  V30 5645 H 534.485 -0.666426 -0.352692 0
M  V30 5646 H 537.136 -1.82532 -0.188227 0
M  V30 5647 H 535.518 -3.06981 -2.50157 0
M  V30 5648 H 536.692 -4.6071 -0.0910326 0
M  V30 5649 H 535.007 -4.15706 -0.240365 0
M  V30 5650 H 537.604 -4.41983 -3.00924 0
M  V30 5651 H 537.947 -2.71371 -3.15695 0
M  V30 5652 H 538.48 -3.59442 -1.7043 0
M  V30 5653 H 535.219 -6.48925 -0.926106 0
M  V30 5654 H 534.739 -5.52275 -2.33991 0
M  V30 5655 H 536.418 -6.09365 -2.17447 0
M  V30 5656 N 536.55 0.480323 -1.50102 0
M  V30 5657 C 537.799 1.22979 -1.59872 0
M  V30 5658 C 538.112 1.93282 -0.30022 0
M  V30 5659 O 539.318 2.70086 -0.276709 0
M  V30 5660 C 537.774 2.23408 -2.82164 0
M  V30 5661 C 537.382 1.5895 -4.18854 0
M  V30 5662 C 539.126 2.99055 -3.01275 0
M  V30 5663 C 537.033 2.57611 -5.32344 0
M  V30 5664 H 535.963 0.462707 -0.59533 0
M  V30 5665 H 538.614 0.501291 -1.7652 0
M  V30 5666 H 536.996 2.99511 -2.59055 0
M  V30 5667 H 538.17 0.887 -4.52182 0
M  V30 5668 H 536.485 0.956191 -4.05273 0
M  V30 5669 H 539.082 3.72876 -3.83233 0
M  V30 5670 H 539.425 3.57897 -2.12639 0
M  V30 5671 H 539.958 2.30066 -3.24522 0
M  V30 5672 H 536.697 2.03521 -6.23105 0
M  V30 5673 H 536.217 3.26041 -5.03445 0
M  V30 5674 H 537.896 3.19627 -5.62537 0
M  V30 5675 N 538.028 1.39524 0.732853 0
M  V30 5676 C 538.991 1.38189 1.82857 0
M  V30 5677 C 539.991 0.278624 1.58368 0
M  V30 5678 O 541.181 0.536639 1.65728 0
M  V30 5679 C 538.313 1.15661 3.2068 0
M  V30 5680 H 539.506 2.35692 1.85444 0
M  V30 5681 H 537.059 1.2512 0.936728 0
M  V30 5682 H 537.794 0.188482 3.23752 0
M  V30 5683 H 537.579 1.95559 3.39852 0
M  V30 5684 H 539.069 1.17472 4.00737 0
M  V30 5685 N 539.506 -0.963266 1.24736 0
M  V30 5686 C 540.736 -1.73913 1.11524 0
M  V30 5687 C 541.144 -1.86218 -0.334612 0
M  V30 5688 O 540.487 -1.3531 -1.24245 0
M  V30 5689 C 540.549 -3.17501 1.68622 0
M  V30 5690 C 540.213 -3.28655 3.17546 0
M  V30 5691 C 541.21 -3.13637 4.14642 0
M  V30 5692 C 538.895 -3.52753 3.5759 0
M  V30 5693 C 540.889 -3.2255 5.49764 0
M  V30 5694 C 538.576 -3.61303 4.92852 0
M  V30 5695 C 539.574 -3.46214 5.88748 0
M  V30 5696 O 539.262 -3.5443 7.2155 0
M  V30 5697 H 538.994 -0.552057 0.390139 0
M  V30 5698 H 541.548 -1.2177 1.65412 0
M  V30 5699 H 539.778 -3.70969 1.09172 0
M  V30 5700 H 541.467 -3.76914 1.50635 0
M  V30 5701 H 542.233 -2.94899 3.85045 0
M  V30 5702 H 538.112 -3.63561 2.83451 0
M  V30 5703 H 541.656 -3.1069 6.24594 0
M  V30 5704 H 537.553 -3.79556 5.22118 0
M  V30 5705 H 538.321 -3.71116 7.29531 0
M  V30 5706 N 540.985 -1.06182 -1.16461 0
M  V30 5707 C 542.401 -0.785065 -1.38956 0
M  V30 5708 C 542.601 0.616103 -1.9185 0
M  V30 5709 O 541.657 1.37686 -2.11657 0
M  V30 5710 C 542.97 -1.84902 -2.37132 0
M  V30 5711 C 544.518 -1.8724 -2.50819 0
M  V30 5712 C 544.993 -2.92686 -3.52277 0
M  V30 5713 N 546.484 -2.91712 -3.59803 0
M  V30 5714 C 547.219 -3.69949 -4.38093 0
M  V30 5715 N 546.715 -4.58 -5.19815 0
M  V30 5716 N 548.508 -3.58346 -4.33064 0
M  V30 5717 H 540.659 -1.96569 -0.804634 0
M  V30 5718 H 542.922 -0.851747 -0.416211 0
M  V30 5719 H 542.628 -2.85518 -2.0536 0
M  V30 5720 H 542.502 -1.69908 -3.36766 0
M  V30 5721 H 544.889 -0.872827 -2.81897 0
M  V30 5722 H 544.97 -2.06311 -1.51226 0
M  V30 5723 H 544.614 -3.92835 -3.21937 0
M  V30 5724 H 544.544 -2.70864 -4.51598 0
M  V30 5725 H 547.035 -2.27876 -3.01464 0
M  V30 5726 H 547.348 -5.14357 -5.76764 0
M  V30 5727 H 545.693 -4.62056 -5.19162 0
M  V30 5728 H 548.884 -2.88943 -3.68279 0
M  V30 5729 H 549.057 -4.19563 -4.93833 0
M  V30 5730 N 542.463 1.3308 -0.844243 0
M  V30 5731 C 543.688 2.02341 -0.455282 0
M  V30 5732 C 544.113 1.6308 0.93737 0
M  V30 5733 O 543.471 0.826118 1.61385 0
M  V30 5734 C 543.519 3.55743 -0.58988 0
M  V30 5735 O 542.623 4.1063 0.38166 0
M  V30 5736 H 541.964 0.637898 -0.184343 0
M  V30 5737 H 544.494 1.6986 -1.14056 0
M  V30 5738 H 544.504 4.05243 -0.473522 0
M  V30 5739 H 543.179 3.83662 -1.60549 0
M  V30 5740 H 541.756 3.72236 0.22241 0
M  V30 5741 N 543.941 0.601185 1.45683 0
M  V30 5742 C 545.166 0.0982245 2.07167 0
M  V30 5743 C 545.591 -1.20546 1.44396 0
M  V30 5744 O 544.949 -1.73247 0.534347 0
M  V30 5745 C 544.997 -0.0346976 3.60583 0
M  V30 5746 O 544.101 -1.08657 3.97828 0
M  V30 5747 H 543.442 0.0711618 0.660176 0
M  V30 5748 H 545.972 0.829376 1.87036 0
M  V30 5749 H 545.982 -0.234969 4.07323 0
M  V30 5750 H 544.657 0.917265 4.05659 0
M  V30 5751 H 543.234 -0.863275 3.6277 0
M  V30 5752 N 545.419 -1.53889 0.339982 0
M  V30 5753 C 546.667 -2.00458 -0.257112 0
M  V30 5754 C 546.988 -1.22953 -1.51353 0
M  V30 5755 O 546.258 -0.335734 -1.93002 0
M  V30 5756 H 544.838 -0.740544 -0.0979965 0
M  V30 5757 H 547.5 -1.89386 0.460317 0
M  V30 5758 H 546.596 -3.08035 -0.502057 0
M  V30 5759 N 546.897 -0.0685191 -1.57451 0
M  V30 5760 C 548.145 0.60016 -1.92983 0
M  V30 5761 C 548.466 1.70348 -0.949028 0
M  V30 5762 O 547.736 1.959 0.00335647 0
M  V30 5763 H 546.316 0.224682 -0.712409 0
M  V30 5764 H 548.978 -0.125605 -1.94495 0
M  V30 5765 H 548.074 1.02759 -2.94698 0
M  V30 5766 N 548.375 1.56261 0.205012 0
M  V30 5767 C 549.622 1.8004 0.926927 0
M  V30 5768 C 549.95 0.640086 1.83666 0
M  V30 5769 O 549.205 -0.374702 1.92079 0
M  V30 5770 C 549.504 3.09722 1.78345 0
M  V30 5771 C 549.17 4.39082 1.02555 0
M  V30 5772 C 547.832 4.74226 0.816256 0
M  V30 5773 C 550.184 5.18877 0.491559 0
M  V30 5774 C 547.512 5.86668 0.0613287 0
M  V30 5775 C 549.864 6.32105 -0.250107 0
M  V30 5776 C 548.528 6.6584 -0.470508 0
M  V30 5777 H 547.798 0.658812 0.339187 0
M  V30 5778 H 550.445 1.90515 0.19395 0
M  V30 5779 H 548.75 2.9444 2.5848 0
M  V30 5780 H 550.447 3.25324 2.34446 0
M  V30 5781 H 547.037 4.11497 1.19868 0
M  V30 5782 H 551.221 4.92147 0.640684 0
M  V30 5783 H 546.477 6.11283 -0.119501 0
M  V30 5784 H 550.651 6.93157 -0.671307 0
M  V30 5785 H 548.278 7.5281 -1.05739 0
M  V30 5786 N 549.853 -0.472356 1.50355 0
M  V30 5787 C 551.101 -1.22211 1.60962 0
M  V30 5788 C 551.422 -1.92497 0.311439 0
M  V30 5789 O 550.692 -1.8405 -0.671002 0
M  V30 5790 H 549.272 -0.454092 0.593135 0
M  V30 5791 H 551.934 -0.544977 1.87126 0
M  V30 5792 H 551.03 -1.9707 2.42012 0
M  V30 5793 N 551.331 -1.39911 -0.725443 0
M  V30 5794 C 552.577 -1.37858 -1.48738 0
M  V30 5795 C 552.91 0.0224187 -1.94187 0
M  V30 5796 O 552.185 0.989204 -1.67466 0
M  V30 5797 C 552.468 -2.3594 -2.72038 0
M  V30 5798 C 552.321 -3.85023 -2.32546 0
M  V30 5799 C 553.64 -2.31704 -3.74167 0
M  V30 5800 H 550.759 -0.502074 -0.539528 0
M  V30 5801 H 553.401 -1.70974 -0.828728 0
M  V30 5802 H 551.551 -2.0783 -3.28236 0
M  V30 5803 H 553.223 -4.2392 -1.81905 0
M  V30 5804 H 551.466 -4.01334 -1.64661 0
M  V30 5805 H 552.137 -4.49152 -3.20884 0
M  V30 5806 H 554.613 -2.5658 -3.27576 0
M  V30 5807 H 553.489 -3.02395 -4.58092 0
M  V30 5808 H 553.75 -1.3253 -4.21768 0
M  V30 5809 N 552.809 0.956637 -1.25245 0
M  V30 5810 C 554.225 1.22733 -1.02023 0
M  V30 5811 C 554.425 1.99761 0.264186 0
M  V30 5812 O 553.481 2.32814 0.977436 0
M  V30 5813 C 554.794 2.00367 -2.24217 0
M  V30 5814 C 556.342 2.13418 -2.28958 0
M  V30 5815 C 556.817 2.9445 -3.50803 0
M  V30 5816 N 558.308 3.02029 -3.51187 0
M  V30 5817 C 559.043 3.65116 -4.42129 0
M  V30 5818 N 558.539 4.2983 -5.43339 0
M  V30 5819 N 560.332 3.62237 -4.29815 0
M  V30 5820 H 552.483 0.441282 -2.07765 0
M  V30 5821 H 554.746 0.257686 -0.912306 0
M  V30 5822 H 554.452 1.51165 -3.17556 0
M  V30 5823 H 554.326 3.01077 -2.27228 0
M  V30 5824 H 556.713 2.61819 -1.36143 0
M  V30 5825 H 556.794 1.1202 -2.29968 0
M  V30 5826 H 556.438 2.46741 -4.43939 0
M  V30 5827 H 556.368 3.9607 -3.47039 0
M  V30 5828 H 558.859 2.56007 -2.77973 0
M  V30 5829 H 559.172 4.75819 -6.08947 0
M  V30 5830 H 557.517 4.28465 -5.47214 0
M  V30 5831 H 560.708 3.10863 -3.49974 0
M  V30 5832 H 560.881 4.11117 -5.00886 0
M  V30 5833 N 554.287 1.06798 1.15896 0
M  V30 5834 C 555.217 0.704677 2.22613 0
M  V30 5835 C 556.198 -0.305252 1.67339 0
M  V30 5836 O 557.383 -0.179247 1.93371 0
M  V30 5837 C 554.513 0.0957325 3.47168 0
M  V30 5838 C 553.467 1.0322 4.15367 0
M  V30 5839 C 552.793 0.286293 5.33933 0
M  V30 5840 C 554.093 2.36341 4.65768 0
M  V30 5841 H 555.787 1.59688 2.53259 0
M  V30 5842 H 553.333 0.769257 1.21731 0
M  V30 5843 H 555.286 -0.170333 4.21056 0
M  V30 5844 H 554.01 -0.831516 3.15838 0
M  V30 5845 H 552.669 1.28309 3.43413 0
M  V30 5846 H 552.317 -0.644237 4.98857 0
M  V30 5847 H 552.017 0.910436 5.80504 0
M  V30 5848 H 553.541 0.0278938 6.10594 0
M  V30 5849 H 554.955 2.1561 5.31211 0
M  V30 5850 H 553.352 2.94299 5.2298 0
M  V30 5851 H 554.422 2.99047 3.81705 0
M  V30 5852 N 555.766 -1.3263 0.851289 0
M  V30 5853 C 557.043 -1.91982 0.374448 0
M  V30 5854 C 557.423 -1.77568 -1.14161 0
M  V30 5855 O 556.771 -1.1717 -1.96172 0
M  V30 5856 C 556.981 -3.38862 0.835088 0
M  V30 5857 C 558.329 -4.15999 0.850309 0
M  V30 5858 O 559.353 -3.47566 0.779505 0
M  V30 5859 O 558.212 -5.38189 0.949481 0
M  V30 5860 H 555.306 -0.819846 0.10854 0
M  V30 5861 H 557.852 -1.41422 0.937966 0
M  V30 5862 H 556.624 -3.43281 1.87814 0
M  V30 5863 H 556.247 -3.96821 0.248833 0
M  V30 5864 N 557.244 -0.608902 -1.45362 0
M  V30 5865 C 558.207 0.0992563 -2.28985 0
M  V30 5866 C 559.207 0.793841 -1.39838 0
M  V30 5867 O 560.397 0.641804 -1.61946 0
M  V30 5868 C 557.529 1.15073 -3.20891 0
M  V30 5869 H 558.722 -0.635964 -2.93079 0
M  V30 5870 H 556.275 -0.368007 -1.51906 0
M  V30 5871 H 557.01 1.91667 -2.616 0
M  V30 5872 H 556.795 0.656867 -3.86559 0
M  V30 5873 H 558.285 1.64665 -3.83765 0
M  V30 5874 N 558.722 1.53707 -0.348139 0
M  V30 5875 C 559.97 2.00591 0.246478 0
M  V30 5876 C 560.291 1.23753 1.50699 0
M  V30 5877 O 559.561 0.345964 1.92821 0
M  V30 5878 H 558.141 0.741053 0.0940679 0
M  V30 5879 H 560.803 1.89139 -0.470354 0
M  V30 5880 H 559.899 3.08297 0.485714 0
M  V30 5881 N 560.2 0.0768682 1.57412 0
M  V30 5882 C 561.477 -0.632359 1.85096 0
M  V30 5883 C 561.857 -1.87479 0.9703 0
M  V30 5884 O 561.205 -2.28469 0.0379062 0
M  V30 5885 C 561.415 -0.965174 3.35388 0
M  V30 5886 C 562.763 -1.33648 4.03018 0
M  V30 5887 O 563.787 -1.05675 3.40164 0
M  V30 5888 O 562.646 -1.85959 5.13889 0
M  V30 5889 H 559.74 -0.314574 0.764835 0
M  V30 5890 H 562.286 0.108184 1.69355 0
M  V30 5891 H 561.058 -0.0829745 3.91212 0
M  V30 5892 H 560.681 -1.76231 3.5641 0
M  V30 5893 N 561.678 -1.56367 -0.196722 0
M  V30 5894 C 562.926 -1.80172 -0.915554 0
M  V30 5895 C 563.247 -0.649649 -1.8386 0
M  V30 5896 O 562.517 0.332111 -1.93064 0
M  V30 5897 H 561.097 -0.664592 -0.341067 0
M  V30 5898 H 563.759 -1.93844 -0.202622 0
M  V30 5899 H 562.855 -2.7327 -1.50764 0
M  V30 5900 N 563.156 0.464375 -1.50603 0
M  V30 5901 C 564.403 1.21596 -1.61928 0
M  V30 5902 C 564.731 1.91804 -0.322737 0
M  V30 5903 O 563.986 1.83065 0.691776 0
M  V30 5904 C 564.285 2.278 -2.75394 0
M  V30 5905 C 563.951 1.74797 -4.1564 0
M  V30 5906 C 562.613 1.60063 -4.53799 0
M  V30 5907 C 564.965 1.35548 -5.03266 0
M  V30 5908 C 562.293 1.04514 -5.77316 0
M  V30 5909 C 564.645 0.814381 -6.27336 0
M  V30 5910 C 563.309 0.653726 -6.64291 0
M  V30 5911 H 562.579 0.444951 -0.592536 0
M  V30 5912 H 565.226 0.510964 -1.84557 0
M  V30 5913 H 563.531 3.04233 -2.46879 0
M  V30 5914 H 565.228 2.85723 -2.81359 0
M  V30 5915 H 561.818 1.87234 -3.8554 0
M  V30 5916 H 566.002 1.45763 -4.74412 0
M  V30 5917 H 561.258 0.908186 -6.04617 0
M  V30 5918 H 565.432 0.501626 -6.94591 0
M  V30 5919 H 563.059 0.22114 -7.59878 0
M  V30 5920 N 564.634 1.40294 0.718013 0
M  V30 5921 C 565.566 1.36281 1.84283 0
M  V30 5922 C 566.579 0.268621 1.60569 0
M  V30 5923 O 567.768 0.528798 1.70487 0
M  V30 5924 C 564.868 1.09741 3.2064 0
M  V30 5925 C 564.041 2.30767 3.71571 0
M  V30 5926 C 563.1 2.00424 4.86535 0
M  V30 5927 O 562.126 2.73268 4.99313 0
M  V30 5928 N 563.328 0.980724 5.72156 0
M  V30 5929 H 566.093 2.3322 1.88225 0
M  V30 5930 H 563.654 1.34616 0.899453 0
M  V30 5931 H 565.646 0.874322 3.95143 0
M  V30 5932 H 564.216 0.214771 3.11861 0
M  V30 5933 H 563.436 2.68921 2.88228 0
M  V30 5934 H 564.724 3.11455 4.02335 0
M  V30 5935 H 564.122 0.377375 5.6444 0
M  V30 5936 H 562.679 0.817538 6.46653 0
M  V30 5937 N 566.112 -0.949982 1.2575 0
M  V30 5938 C 567.36 -1.6918 1.10555 0
M  V30 5939 C 567.681 -1.91773 -0.353298 0
M  V30 5940 O 566.951 -1.50814 -1.25027 0
M  V30 5941 H 565.531 -0.626952 0.406129 0
M  V30 5942 H 568.193 -1.1419 1.57945 0
M  V30 5943 H 567.289 -2.66915 1.61749 0
M  V30 5944 N 567.59 -1.07411 -1.15328 0
M  V30 5945 C 568.553 -0.698914 -2.18284 0
M  V30 5946 C 569.553 0.261149 -1.58665 0
M  V30 5947 O 570.743 0.0420277 -1.74149 0
M  V30 5948 C 567.875 -0.0302427 -3.40887 0
M  V30 5949 H 569.068 -1.61045 -2.52991 0
M  V30 5950 H 566.621 -0.870724 -1.298 0
M  V30 5951 H 567.356 0.893505 -3.11748 0
M  V30 5952 H 567.141 -0.720759 -3.85419 0
M  V30 5953 H 568.631 0.21759 -4.17033 0
M  V30 5954 N 569.068 1.32177 -0.85831 0
M  V30 5955 C 569.978 2.32561 -0.308606 0
M  V30 5956 C 570.994 1.64209 0.575462 0
M  V30 5957 O 572.17 1.95719 0.474961 0
M  V30 5958 C 569.235 3.43207 0.490909 0
M  V30 5959 C 568.296 4.27243 -0.419733 0
M  V30 5960 C 567.529 5.32605 0.341719 0
M  V30 5961 O 567.752 5.48332 1.57125 0
M  V30 5962 O 566.686 6.0118 -0.294379 0
M  V30 5963 H 570.512 2.81477 -1.14037 0
M  V30 5964 H 568.097 1.35866 -0.621349 0
M  V30 5965 H 569.979 4.10677 0.944574 0
M  V30 5966 H 568.654 2.96474 1.29941 0
M  V30 5967 H 567.561 3.62569 -0.921652 0
M  V30 5968 H 568.894 4.7751 -1.19352 0
M  V30 5969 N 570.547 0.616602 1.45037 0
M  V30 5970 C 571.796 0.112861 2.01384 0
M  V30 5971 C 572.109 -1.26758 1.48969 0
M  V30 5972 O 573.315 -1.86454 1.9735 0
M  V30 5973 C 571.771 0.151057 3.59583 0
M  V30 5974 C 571.379 1.53191 4.20995 0
M  V30 5975 C 573.123 -0.296974 4.2346 0
M  V30 5976 C 571.03 1.526 5.71373 0
M  V30 5977 H 569.96 0.0384254 0.75302 0
M  V30 5978 H 572.611 0.773262 1.66412 0
M  V30 5979 H 570.993 -0.57617 3.91786 0
M  V30 5980 H 572.167 2.28156 4.00352 0
M  V30 5981 H 570.482 1.92279 3.69348 0
M  V30 5982 H 573.079 -0.320712 5.33737 0
M  V30 5983 H 573.422 -1.32145 3.9477 0
M  V30 5984 H 573.955 0.377279 3.96007 0
M  V30 5985 H 570.694 2.52837 6.04776 0
M  V30 5986 H 570.214 0.819064 5.94181 0
M  V30 5987 H 571.893 1.25357 6.3474 0
M  V30 5988 N 572.025 -1.5352 0.356285 0
M  V30 5989 C 573.25 -2.06007 -0.239961 0
M  V30 5990 C 573.675 -1.22872 -1.42422 0
M  V30 5991 O 573.033 -0.245516 -1.7963 0
M  V30 5992 C 573.081 -3.5522 -0.620587 0
M  V30 5993 O 572.185 -3.74864 -1.71902 0
M  V30 5994 H 571.526 -0.662961 -0.0371377 0
M  V30 5995 H 574.056 -1.98033 0.514194 0
M  V30 5996 H 574.066 -3.98081 -0.894197 0
M  V30 5997 H 572.741 -4.15175 0.245407 0
M  V30 5998 H 571.318 -3.43904 -1.44169 0
M  V30 5999 N 573.503 -0.0852151 -1.57369 0
M  V30 6000 C 574.914 0.445428 -1.81309 0
M  V30 6001 C 575.265 1.68795 -1.00013 0
M  V30 6002 O 574.39 2.15211 -0.226573 0
M  V30 6003 C 574.985 0.814887 -3.28854 0
M  V30 6004 C 573.544 1.29032 -3.53592 0
M  V30 6005 C 572.691 0.282089 -2.75861 0
M  V30 6006 H 575.642 -0.310771 -1.55627 0
M  V30 6007 H 575.663 1.67524 -3.41637 0
M  V30 6008 H 575.175 -0.0896309 -3.87996 0
M  V30 6009 H 573.276 2.21289 -2.9977 0
M  V30 6010 H 573.389 1.25898 -4.62262 0
M  V30 6011 H 571.753 0.762182 -2.43029 0
M  V30 6012 H 572.536 -0.614936 -3.37748 0
M  V30 6013 N 574.981 1.5647 0.188427 0
M  V30 6014 C 576.211 1.84863 0.922463 0
M  V30 6015 C 576.619 0.666413 1.77075 0
M  V30 6016 O 575.962 -0.374044 1.79852 0
M  V30 6017 C 576.024 3.07447 1.86324 0
M  V30 6018 C 575.688 4.41066 1.19625 0
M  V30 6019 C 576.685 5.16767 0.569946 0
M  V30 6020 C 574.37 4.87802 1.19811 0
M  V30 6021 C 576.364 6.37384 -0.045594 0
M  V30 6022 C 574.051 6.08353 0.57874 0
M  V30 6023 C 575.049 6.82987 -0.0420259 0
M  V30 6024 O 574.737 8.01254 -0.651675 0
M  V30 6025 H 574.469 0.61784 0.274316 0
M  V30 6026 H 577.023 2.04437 0.198613 0
M  V30 6027 H 575.253 2.83774 2.62696 0
M  V30 6028 H 576.942 3.2243 2.46564 0
M  V30 6029 H 577.708 4.81749 0.560601 0
M  V30 6030 H 573.587 4.29662 1.67069 0
M  V30 6031 H 577.131 6.95578 -0.530731 0
M  V30 6032 H 573.028 6.42838 0.58561 0
M  V30 6033 H 573.796 8.16655 -0.549236 0
M  V30 6034 N 576.459 -0.456382 1.50847 0
M  V30 6035 C 577.689 -1.22848 1.66108 0
M  V30 6036 C 578.097 -1.85936 0.349897 0
M  V30 6037 O 577.44 -1.70664 -0.679665 0
M  V30 6038 C 577.502 -2.36722 2.70561 0
M  V30 6039 C 577.166 -1.94154 4.13707 0
M  V30 6040 C 578.163 -1.4557 4.99105 0
M  V30 6041 C 575.848 -2.02426 4.59705 0
M  V30 6042 C 577.842 -1.0582 6.28555 0
M  V30 6043 C 575.529 -1.62287 5.89157 0
M  V30 6044 C 576.527 -1.14064 6.73408 0
M  V30 6045 O 576.215 -0.744873 8.00442 0
M  V30 6046 H 575.947 -0.377105 0.561042 0
M  V30 6047 H 578.501 -0.549431 1.97915 0
M  V30 6048 H 576.731 -3.07844 2.34027 0
M  V30 6049 H 578.42 -2.98646 2.74892 0
M  V30 6050 H 579.186 -1.38589 4.64777 0
M  V30 6051 H 575.065 -2.38908 3.94264 0
M  V30 6052 H 578.609 -0.6811 6.94267 0
M  V30 6053 H 574.506 -1.68932 6.23003 0
M  V30 6054 H 575.274 -0.87242 8.13837 0
M  V30 6055 N 577.937 -1.40673 -0.710563 0
M  V30 6056 C 579.214 -1.29718 -1.46398 0
M  V30 6057 C 579.594 0.082177 -2.1094 0
M  V30 6058 O 578.942 1.09536 -2.00534 0
M  V30 6059 C 579.152 -2.43967 -2.49562 0
M  V30 6060 C 580.5 -2.84436 -3.15248 0
M  V30 6061 O 581.524 -2.43597 -2.59883 0
M  V30 6062 O 580.383 -3.55008 -4.1549 0
M  V30 6063 H 577.477 -0.509697 -0.651258 0
M  V30 6064 H 580.023 -1.52603 -0.742312 0
M  V30 6065 H 578.795 -3.36076 -2.0042 0
M  V30 6066 H 578.418 -2.22879 -3.29258 0
M  V30 6067 N 579.415 0.9433 -1.26252 0
M  V30 6068 C 580.64 1.72898 -1.14547 0
M  V30 6069 C 581.065 1.85761 0.295743 0
M  V30 6070 O 580.423 1.3463 1.21427 0
M  V30 6071 C 580.471 3.11471 -1.8171 0
M  V30 6072 O 579.575 3.97336 -1.10445 0
M  V30 6073 H 578.916 0.530555 -0.399259 0
M  V30 6074 H 581.446 1.18159 -1.67032 0
M  V30 6075 H 581.456 3.61872 -1.88449 0
M  V30 6076 H 580.131 3.01425 -2.86558 0
M  V30 6077 H 578.708 3.55788 -1.11666 0
M  V30 6078 N 580.893 1.08022 1.14757 0
M  V30 6079 C 581.823 0.728248 2.21853 0
M  V30 6080 C 582.804 -0.287486 1.67653 0
M  V30 6081 O 583.989 -0.158727 1.9355 0
M  V30 6082 C 581.119 0.132549 3.47047 0
M  V30 6083 C 580.073 1.07619 4.14249 0
M  V30 6084 C 579.399 0.342907 5.33599 0
M  V30 6085 C 580.699 2.41268 4.63235 0
M  V30 6086 H 582.393 1.62365 2.51551 0
M  V30 6087 H 579.939 0.782125 1.20908 0
M  V30 6088 H 581.892 -0.125665 4.21213 0
M  V30 6089 H 580.616 -0.797971 3.16702 0
M  V30 6090 H 579.275 1.31944 3.42033 0
M  V30 6091 H 578.923 -0.59129 4.99513 0
M  V30 6092 H 578.623 0.971955 5.79506 0
M  V30 6093 H 580.147 0.0926538 6.1053 0
M  V30 6094 H 581.561 2.21232 5.28894 0
M  V30 6095 H 579.958 2.9983 5.19829 0
M  V30 6096 H 581.028 3.03079 3.78512 0
M  V30 6097 N 582.371 -1.3172 0.865308 0
M  V30 6098 C 583.301 -2.31109 0.333302 0
M  V30 6099 C 584.282 -1.60148 -0.573301 0
M  V30 6100 O 585.467 -1.87882 -0.491305 0
M  V30 6101 C 582.597 -3.44104 -0.470078 0
M  V30 6102 C 581.551 -4.26623 0.343021 0
M  V30 6103 C 580.877 -5.31482 -0.585756 0
M  V30 6104 C 582.177 -4.98001 1.57456 0
M  V30 6105 H 583.871 -2.75855 1.1638 0
M  V30 6106 H 581.417 -1.3262 0.561069 0
M  V30 6107 H 583.37 -4.12682 -0.852752 0
M  V30 6108 H 582.094 -2.98112 -1.33404 0
M  V30 6109 H 580.753 -3.59707 0.707583 0
M  V30 6110 H 580.401 -4.81741 -1.44686 0
M  V30 6111 H 580.101 -5.87582 -0.0456494 0
M  V30 6112 H 581.625 -6.0292 -0.965375 0
M  V30 6113 H 583.039 -5.59201 1.26359 0
M  V30 6114 H 581.436 -5.63876 2.05339 0
M  V30 6115 H 582.506 -4.25253 2.32997 0
M  V30 6116 N 583.85 -0.624285 -1.44708 0
M  V30 6117 C 585.096 -0.126237 -2.02407 0
M  V30 6118 C 585.428 1.24618 -1.48943 0
M  V30 6119 O 584.704 1.82569 -0.670742 0
M  V30 6120 C 584.986 -0.105449 -3.59946 0
M  V30 6121 C 584.84 -1.50972 -4.23707 0
M  V30 6122 C 586.159 0.573629 -4.36346 0
M  V30 6123 H 583.278 -0.0473472 -0.735478 0
M  V30 6124 H 585.92 -0.799452 -1.72362 0
M  V30 6125 H 584.07 0.46783 -3.85673 0
M  V30 6126 H 585.742 -2.13136 -4.0911 0
M  V30 6127 H 583.985 -2.0656 -3.81465 0
M  V30 6128 H 584.656 -1.44727 -5.32689 0
M  V30 6129 H 587.132 0.0861787 -4.16011 0
M  V30 6130 H 586.008 0.557338 -5.46063 0
M  V30 6131 H 586.269 1.64276 -4.10446 0
M  V30 6132 N 585.328 1.53329 -0.364422 0
M  V30 6133 C 586.275 2.25698 0.482607 0
M  V30 6134 C 587.245 1.26325 1.07848 0
M  V30 6135 O 588.43 1.55104 1.11119 0
M  V30 6136 C 585.57 3.04873 1.61699 0
M  V30 6137 C 584.683 4.19135 1.0464 0
M  V30 6138 C 583.818 4.85754 2.14979 0
M  V30 6139 C 582.857 5.9205 1.5538 0
M  V30 6140 N 581.994 6.52365 2.59547 0
M  V30 6141 H 586.834 2.97666 -0.141032 0
M  V30 6142 H 584.371 1.46875 -0.0813692 0
M  V30 6143 H 586.329 3.49051 2.28516 0
M  V30 6144 H 584.959 2.35162 2.2113 0
M  V30 6145 H 584.011 3.79451 0.268553 0
M  V30 6146 H 585.323 4.95525 0.570653 0
M  V30 6147 H 584.477 5.3311 2.89619 0
M  V30 6148 H 583.216 4.08834 2.65906 0
M  V30 6149 H 582.221 5.44058 0.792549 0
M  V30 6150 H 583.446 6.7089 1.0528 0
M  V30 6151 H 581.392 5.78298 3.09689 0
M  V30 6152 H 581.309 7.2429 2.16655 0
M  V30 6153 H 582.577 7.0437 3.33892 0
M  V30 6154 N 586.806 0.0935595 1.57322 0
M  V30 6155 C 587.736 -0.863062 2.16964 0
M  V30 6156 C 588.717 -1.29528 1.10256 0
M  V30 6157 O 589.902 -1.36245 1.38387 0
M  V30 6158 C 587.032 -2.12276 2.74875 0
M  V30 6159 C 585.986 -1.82921 3.86942 0
M  V30 6160 C 585.312 -3.15707 4.31548 0
M  V30 6161 C 586.612 -1.11737 5.10208 0
M  V30 6162 H 588.306 -0.366145 2.97153 0
M  V30 6163 H 585.852 -0.174673 1.42937 0
M  V30 6164 H 587.805 -2.79634 3.1525 0
M  V30 6165 H 586.529 -2.64248 1.91938 0
M  V30 6166 H 585.188 -1.17961 3.47103 0
M  V30 6167 H 584.836 -3.65563 3.45504 0
M  V30 6168 H 584.536 -2.96849 5.07104 0
M  V30 6169 H 586.06 -3.84226 4.74555 0
M  V30 6170 H 587.474 -1.69203 5.47762 0
M  V30 6171 H 585.871 -1.03064 5.91183 0
M  V30 6172 H 586.941 -0.0998818 4.84797 0
M  V30 6173 N 588.284 -1.56567 -0.180126 0
M  V30 6174 C 589.509 -1.85975 -0.918041 0
M  V30 6175 C 589.934 -0.678888 -1.75422 0
M  V30 6176 O 589.292 0.372168 -1.77439 0
M  V30 6177 C 589.34 -3.13731 -1.77779 0
M  V30 6178 O 588.444 -2.95335 -2.87838 0
M  V30 6179 H 587.785 -0.61196 -0.257683 0
M  V30 6180 H 590.315 -2.03798 -0.180923 0
M  V30 6181 H 590.325 -3.4491 -2.17948 0
M  V30 6182 H 589 -3.99293 -1.16352 0
M  V30 6183 H 587.577 -2.7549 -2.51316 0
M  V30 6184 N 589.762 0.448376 -1.51087 0
M  V30 6185 C 590.99 1.22143 -1.66999 0
M  V30 6186 C 591.405 1.85283 -0.362699 0
M  V30 6187 O 590.762 1.70236 0.65772 0
M  V30 6188 C 590.813 2.31357 -2.7777 0
M  V30 6189 O 590.534 1.70801 -4.03434 0
M  V30 6190 C 592.035 3.21836 -3.04855 0
M  V30 6191 H 589.255 0.368558 -0.560719 0
M  V30 6192 H 591.799 0.532618 -1.97442 0
M  V30 6193 H 589.954 2.95973 -2.49958 0
M  V30 6194 H 590.368 2.42895 -4.64868 0
M  V30 6195 H 591.842 3.94627 -3.85971 0
M  V30 6196 H 592.319 3.81949 -2.16821 0
M  V30 6197 H 592.925 2.62933 -3.34285 0
M  V30 6198 N 591.24 1.41047 0.703093 0
M  V30 6199 C 592.19 1.38774 1.80903 0
M  V30 6200 C 593.174 0.263275 1.58731 0
M  V30 6201 O 594.366 0.503362 1.69692 0
M  V30 6202 C 591.495 1.26497 3.19145 0
M  V30 6203 C 590.581 2.43775 3.47037 0
M  V30 6204 N 590.972 3.69249 3.45672 0
M  V30 6205 C 589.27 2.37425 3.77552 0
M  V30 6206 C 589.971 4.46989 3.72258 0
M  V30 6207 N 588.947 3.76998 3.91629 0
M  V30 6208 H 592.749 2.33714 1.78199 0
M  V30 6209 H 590.263 1.34996 0.902762 0
M  V30 6210 H 592.26 1.2295 3.98358 0
M  V30 6211 H 590.92 0.32534 3.23066 0
M  V30 6212 H 591.931 4.02239 3.26228 0
M  V30 6213 H 588.608 1.51895 3.88888 0
M  V30 6214 H 589.998 5.55894 3.77402 0
M  V30 6215 N 592.718 -0.936591 1.26751 0
M  V30 6216 C 593.681 -2.01752 1.08761 0
M  V30 6217 C 594.681 -1.60763 0.0344435 0
M  V30 6218 O 595.871 -1.71963 0.278258 0
M  V30 6219 C 593.003 -3.34543 0.655271 0
M  V30 6220 H 594.196 -2.19143 2.04735 0
M  V30 6221 H 591.749 -1.11618 1.09413 0
M  V30 6222 H 592.484 -3.22851 -0.30626 0
M  V30 6223 H 592.269 -3.65647 1.41578 0
M  V30 6224 H 593.759 -4.13944 0.551378 0
M  V30 6225 N 594.196 -1.08629 -1.14182 0
M  V30 6226 C 595.445 -0.812271 -1.84621 0
M  V30 6227 C 595.758 0.664313 -1.83973 0
M  V30 6228 O 596.964 1.05357 -2.50224 0
M  V30 6229 C 595.42 -1.4031 -3.31423 0
M  V30 6230 C 595.028 -2.91164 -3.40481 0
M  V30 6231 C 596.772 -1.20767 -4.06959 0
M  V30 6232 C 594.679 -3.43373 -4.81507 0
M  V30 6233 H 593.609 -0.30019 -0.691666 0
M  V30 6234 H 596.26 -1.30798 -1.28701 0
M  V30 6235 H 594.642 -0.835096 -3.87094 0
M  V30 6236 H 595.816 -3.5412 -2.94848 0
M  V30 6237 H 594.131 -3.09646 -2.78403 0
M  V30 6238 H 596.728 -1.57237 -5.11058 0
M  V30 6239 H 597.071 -0.147664 -4.16038 0
M  V30 6240 H 597.604 -1.74274 -3.57594 0
M  V30 6241 H 594.343 -4.48958 -4.77616 0
M  V30 6242 H 593.863 -2.85176 -5.27669 0
M  V30 6243 H 595.542 -3.40095 -5.50404 0
M  V30 6244 N 595.674 1.31259 -0.872281 0
M  V30 6245 C 596.899 2.0133 -0.498099 0
M  V30 6246 C 597.324 1.65031 0.902568 0
M  V30 6247 O 596.682 0.860164 1.59596 0
M  V30 6248 C 596.73 3.54411 -0.665205 0
M  V30 6249 O 595.834 4.11347 0.294473 0
M  V30 6250 H 595.175 0.633844 -0.197832 0
M  V30 6251 H 597.705 1.67402 -1.17633 0
M  V30 6252 H 597.715 4.04147 -0.559373 0
M  V30 6253 H 596.39 3.80171 -1.68651 0
M  V30 6254 H 594.967 3.72624 0.143403 0
M  V30 6255 N 597.152 0.631951 1.44375 0
M  V30 6256 C 598.399 0.136767 2.02038 0
M  V30 6257 C 598.727 -1.24168 1.49709 0
M  V30 6258 O 597.982 -1.83809 0.671763 0
M  V30 6259 C 598.281 0.0735861 3.57324 0
M  V30 6260 C 597.947 1.39092 4.28911 0
M  V30 6261 C 596.609 1.75171 4.48184 0
M  V30 6262 C 598.961 2.26042 4.69632 0
M  V30 6263 C 596.289 2.97907 5.05439 0
M  V30 6264 C 598.641 3.4805 5.28246 0
M  V30 6265 C 597.305 3.84351 5.45738 0
M  V30 6266 H 596.575 0.0500466 0.739308 0
M  V30 6267 H 599.222 0.818429 1.7313 0
M  V30 6268 H 597.527 -0.691449 3.8565 0
M  V30 6269 H 599.224 -0.326091 3.99672 0
M  V30 6270 H 595.814 1.10015 4.1424 0
M  V30 6271 H 599.998 1.99463 4.54454 0
M  V30 6272 H 595.254 3.26108 5.17169 0
M  V30 6273 H 599.428 4.15658 5.5875 0
M  V30 6274 H 597.055 4.79538 5.8987 0
M  V30 6275 N 598.631 -1.53133 0.372548 0
M  V30 6276 C 599.578 -2.25951 -0.470631 0
M  V30 6277 C 600.548 -1.26895 -1.07176 0
M  V30 6278 O 601.733 -1.55691 -1.10294 0
M  V30 6279 C 598.873 -3.05726 -1.6008 0
M  V30 6280 C 597.986 -4.19684 -1.02416 0
M  V30 6281 C 597.121 -4.86888 -2.124 0
M  V30 6282 C 596.16 -5.92866 -1.52238 0
M  V30 6283 N 595.297 -6.53732 -2.56084 0
M  V30 6284 H 600.137 -2.97587 0.156816 0
M  V30 6285 H 597.674 -1.4683 0.0891571 0
M  V30 6286 H 599.632 -3.50258 -2.26661 0
M  V30 6287 H 598.262 -2.36331 -2.1988 0
M  V30 6288 H 597.314 -3.79588 -0.248426 0
M  V30 6289 H 598.626 -4.95821 -0.544366 0
M  V30 6290 H 597.78 -5.34638 -2.86787 0
M  V30 6291 H 596.519 -4.10239 -2.63734 0
M  V30 6292 H 595.524 -5.4447 -0.763685 0
M  V30 6293 H 596.749 -6.71439 -1.0172 0
M  V30 6294 H 594.695 -5.79932 -3.06618 0
M  V30 6295 H 594.612 -7.25429 -2.12811 0
M  V30 6296 H 595.88 -7.0613 -3.30152 0
M  V30 6297 N 600.109 -0.101901 -1.5727 0
M  V30 6298 C 601.041 0.884723 -2.11436 0
M  V30 6299 C 602.054 1.24149 -1.05314 0
M  V30 6300 O 603.243 1.19341 -1.3274 0
M  V30 6301 C 600.343 2.19179 -2.58484 0
M  V30 6302 C 599.516 2.00933 -3.88516 0
M  V30 6303 C 598.575 3.15213 -4.2134 0
M  V30 6304 O 597.601 2.88877 -4.90448 0
M  V30 6305 N 598.803 4.41174 -3.77288 0
M  V30 6306 H 601.568 0.422058 -2.96713 0
M  V30 6307 H 599.129 0.0830128 -1.61687 0
M  V30 6308 H 601.121 2.94593 -2.77484 0
M  V30 6309 H 599.691 2.56847 -1.7818 0
M  V30 6310 H 598.911 1.09809 -3.78597 0
M  V30 6311 H 600.199 1.86026 -4.73573 0
M  V30 6312 H 599.597 4.6545 -3.21516 0
M  V30 6313 H 598.154 5.13515 -4.01429 0
M  V30 6314 N 601.587 1.56661 0.17182 0
M  V30 6315 C 602.55 1.9549 1.19651 0
M  V30 6316 C 603.55 0.838501 1.37207 0
M  V30 6317 O 604.74 1.10556 1.34622 0
M  V30 6318 C 601.872 2.24927 2.56166 0
M  V30 6319 H 603.065 2.87184 0.864007 0
M  V30 6320 H 600.618 1.50711 0.41425 0
M  V30 6321 H 601.353 1.35944 2.94431 0
M  V30 6322 H 601.138 3.06301 2.4479 0
M  V30 6323 H 602.628 2.55891 3.30014 0
M  V30 6324 N 603.065 -0.440357 1.51323 0
M  V30 6325 C 603.975 -1.55955 1.75258 0
M  V30 6326 C 604.991 -1.61933 0.636687 0
M  V30 6327 O 606.167 -1.79231 0.918593 0
M  V30 6328 C 603.232 -2.9196 1.86977 0
M  V30 6329 C 602.293 -2.96122 3.10822 0
M  V30 6330 C 601.526 -4.2564 3.21973 0
M  V30 6331 O 601.749 -5.17851 2.39137 0
M  V30 6332 O 600.683 -4.36025 4.14929 0
M  V30 6333 H 604.509 -1.38673 2.70191 0
M  V30 6334 H 602.094 -0.623055 1.35788 0
M  V30 6335 H 603.976 -3.72682 1.96688 0
M  V30 6336 H 602.651 -3.09375 0.952307 0
M  V30 6337 H 601.558 -2.14366 3.06591 0
M  V30 6338 H 602.891 -2.83651 4.02247 0
M  V30 6339 N 604.543 -1.41418 -0.695603 0
M  V30 6340 C 605.453 -1.45622 -1.83933 0
M  V30 6341 C 606.469 -0.346825 -1.70508 0
M  V30 6342 O 607.645 -0.59454 -1.92424 0
M  V30 6343 C 604.71 -1.33627 -3.19914 0
M  V30 6344 C 603.771 -2.54882 -3.45447 0
M  V30 6345 C 603.004 -2.43449 -4.7494 0
M  V30 6346 O 603.227 -1.45905 -5.51424 0
M  V30 6347 O 602.161 -3.33206 -5.01256 0
M  V30 6348 H 605.987 -2.42114 -1.83342 0
M  V30 6349 H 603.572 -1.22956 -0.848658 0
M  V30 6350 H 605.454 -1.29221 -4.01098 0
M  V30 6351 H 604.129 -0.402508 -3.21188 0
M  V30 6352 H 603.036 -2.64865 -2.64192 0
M  V30 6353 H 604.369 -3.47087 -3.48987 0
M  V30 6354 N 606.021 0.929856 -1.27246 0
M  V30 6355 C 606.968 2.03017 -1.09785 0
M  V30 6356 C 607.938 1.661 0.000456744 0
M  V30 6357 O 609.123 1.90116 -0.161462 0
M  V30 6358 C 606.263 3.36878 -0.748816 0
M  V30 6359 C 605.376 3.86763 -1.92453 0
M  V30 6360 C 604.511 5.09061 -1.51758 0
M  V30 6361 C 603.55 5.51237 -2.66091 0
M  V30 6362 N 602.687 6.64732 -2.25999 0
M  V30 6363 H 607.527 2.17285 -2.03939 0
M  V30 6364 H 605.064 1.06448 -1.01524 0
M  V30 6365 H 607.022 4.13855 -0.527283 0
M  V30 6366 H 605.652 3.22424 0.155771 0
M  V30 6367 H 604.704 3.06086 -2.25867 0
M  V30 6368 H 606.016 4.13994 -2.78227 0
M  V30 6369 H 605.17 5.93532 -1.25716 0
M  V30 6370 H 603.909 4.83602 -0.630896 0
M  V30 6371 H 602.914 4.65316 -2.92849 0
M  V30 6372 H 604.139 5.78692 -3.55377 0
M  V30 6373 H 602.085 6.40935 -1.3978 0
M  V30 6374 H 602.002 6.91607 -3.05313 0
M  V30 6375 H 603.27 7.52549 -2.03199 0
M  V30 6376 N 607.499 1.09233 1.13605 0
M  V30 6377 C 608.432 0.6739 2.18023 0
M  V30 6378 C 609.41 -0.318603 1.59448 0
M  V30 6379 O 610.594 -0.220452 1.87206 0
M  V30 6380 C 607.721 -0.00751458 3.38699 0
M  V30 6381 C 606.767 0.946481 4.15865 0
M  V30 6382 S 607.6 2.45753 4.75779 0
M  V30 6383 C 608.756 1.78846 5.99804 0
M  V30 6384 H 608.989 1.55846 2.53178 0
M  V30 6385 H 606.522 0.908118 1.2487 0
M  V30 6386 H 608.48 -0.394368 4.08601 0
M  V30 6387 H 607.141 -0.868693 3.01849 0
M  V30 6388 H 606.334 0.416742 5.02274 0
M  V30 6389 H 605.936 1.27464 3.51609 0
M  V30 6390 H 608.228 1.11135 6.68323 0
M  V30 6391 H 609.171 2.63163 6.57382 0
M  V30 6392 H 609.579 1.25823 5.50299 0
M  V30 6393 N 608.977 -1.30795 0.87923 0
M  V30 6394 C 610.223 -1.96653 0.495519 0
M  V30 6395 C 610.556 -1.69282 -0.951703 0
M  V30 6396 O 609.831 -0.994374 -1.6716 0
M  V30 6397 C 610.114 -3.51898 0.764174 0
M  V30 6398 C 609.967 -3.88808 2.2616 0
M  V30 6399 C 611.286 -4.39462 0.236825 0
M  V30 6400 H 608.405 -0.7143 0.181507 0
M  V30 6401 H 611.047 -1.54765 1.10217 0
M  V30 6402 H 609.197 -3.87709 0.247841 0
M  V30 6403 H 610.869 -3.63051 2.8459 0
M  V30 6404 H 609.112 -3.37082 2.73053 0
M  V30 6405 H 609.783 -4.97086 2.4002 0
M  V30 6406 H 612.259 -4.10528 0.678683 0
M  V30 6407 H 611.135 -5.47018 0.454176 0
M  V30 6408 H 611.396 -4.33621 -0.861683 0
M  V30 6409 N 610.455 -0.639598 -1.44038 0
M  V30 6410 C 611.871 -0.305953 -1.5664 0
M  V30 6411 C 612.071 1.19055 -1.62567 0
M  V30 6412 O 611.127 1.97492 -1.57331 0
M  V30 6413 C 612.44 -1.00533 -2.83397 0
M  V30 6414 C 613.988 -0.984278 -2.97121 0
M  V30 6415 C 614.463 -1.66428 -4.26691 0
M  V30 6416 N 615.954 -1.63127 -4.33525 0
M  V30 6417 C 616.689 -2.12629 -5.32519 0
M  V30 6418 N 616.185 -2.70359 -6.3787 0
M  V30 6419 N 617.978 -2.03208 -5.24083 0
M  V30 6420 H 610.129 -1.6109 -1.38434 0
M  V30 6421 H 612.392 -0.676672 -0.663942 0
M  V30 6422 H 612.098 -2.06034 -2.85032 0
M  V30 6423 H 611.972 -0.548362 -3.73193 0
M  V30 6424 H 614.359 0.0622792 -2.95034 0
M  V30 6425 H 614.44 -1.47981 -2.08651 0
M  V30 6426 H 614.084 -2.71034 -4.29538 0
M  V30 6427 H 614.014 -1.14351 -5.14034 0
M  V30 6428 H 616.505 -1.20987 -3.58009 0
M  V30 6429 H 616.818 -3.05842 -7.09704 0
M  V30 6430 H 615.163 -2.74414 -6.38531 0
M  V30 6431 H 618.354 -1.57823 -4.40692 0
M  V30 6432 H 618.527 -2.42097 -6.01077 0
M  V30 6433 N 611.933 1.52934 -0.380664 0
M  V30 6434 C 613.158 2.06363 0.207157 0
M  V30 6435 C 613.583 1.25122 1.4045 0
M  V30 6436 O 612.941 0.274062 1.79217 0
M  V30 6437 C 612.989 3.56162 0.563996 0
M  V30 6438 O 612.093 3.77552 1.65917 0
M  V30 6439 H 611.434 0.663468 0.0265859 0
M  V30 6440 H 613.964 1.9719 -0.545635 0
M  V30 6441 H 613.974 3.99453 0.830752 0
M  V30 6442 H 612.649 4.14732 -0.311427 0
M  V30 6443 H 611.226 3.46154 1.3868 0
M  V30 6444 N 613.412 0.11024 1.57214 0
M  V30 6445 C 614.342 -0.840002 2.17867 0
M  V30 6446 C 615.323 -1.28352 1.11624 0
M  V30 6447 O 616.508 -1.3477 1.39824 0
M  V30 6448 C 613.638 -2.09349 2.77111 0
M  V30 6449 C 612.592 -1.78807 3.8886 0
M  V30 6450 C 611.918 -3.11112 4.34872 0
M  V30 6451 C 613.218 -1.0632 5.11364 0
M  V30 6452 H 614.912 -0.334608 2.97524 0
M  V30 6453 H 612.458 -0.159502 1.43114 0
M  V30 6454 H 614.411 -2.76275 3.18198 0
M  V30 6455 H 613.135 -2.62198 1.9473 0
M  V30 6456 H 611.794 -1.14273 3.48335 0
M  V30 6457 H 611.442 -3.61877 3.49362 0
M  V30 6458 H 611.142 -2.91453 5.10224 0
M  V30 6459 H 612.666 -3.79171 4.78604 0
M  V30 6460 H 614.08 -1.63383 5.49526 0
M  V30 6461 H 612.477 -0.967876 5.92243 0
M  V30 6462 H 613.547 -0.0484569 4.84876 0
M  V30 6463 N 614.89 -1.56749 -0.16351 0
M  V30 6464 C 616.306 -1.51043 -0.515567 0
M  V30 6465 C 616.506 -0.815855 -1.84245 0
M  V30 6466 O 615.562 -0.379477 -2.49632 0
M  V30 6467 C 616.875 -2.95791 -0.541114 0
M  V30 6468 C 618.423 -3.0664 -0.627776 0
M  V30 6469 C 618.898 -4.52861 -0.684141 0
M  V30 6470 N 620.389 -4.5714 -0.746818 0
M  V30 6471 C 621.124 -5.67634 -0.811137 0
M  V30 6472 N 620.62 -6.8774 -0.835811 0
M  V30 6473 N 622.413 -5.55624 -0.850756 0
M  V30 6474 H 614.564 -2.00307 0.70645 0
M  V30 6475 H 616.827 -0.912876 0.255659 0
M  V30 6476 H 616.533 -3.49797 0.365329 0
M  V30 6477 H 616.407 -3.50858 -1.38487 0
M  V30 6478 H 618.794 -2.52663 -1.52464 0
M  V30 6479 H 618.875 -2.54645 0.242805 0
M  V30 6480 H 618.519 -5.07472 0.2085 0
M  V30 6481 H 618.449 -5.02621 -1.57098 0
M  V30 6482 H 620.94 -3.70669 -0.735717 0
M  V30 6483 H 621.253 -7.67701 -0.886279 0
M  V30 6484 H 619.598 -6.90334 -0.803958 0
M  V30 6485 H 622.789 -4.60709 -0.828535 0
M  V30 6486 H 622.962 -6.41756 -0.897418 0
M  V30 6487 N 616.368 0.432326 -1.51554 0
M  V30 6488 C 617.278 1.55023 -1.76082 0
M  V30 6489 C 618.294 1.61593 -0.645265 0
M  V30 6490 O 619.47 1.78742 -0.928086 0
M  V30 6491 C 616.535 2.90964 -1.88523 0
M  V30 6492 C 615.596 2.9447 -3.12388 0
M  V30 6493 C 614.829 4.23926 -3.24225 0
M  V30 6494 O 615.052 5.16576 -2.4188 0
M  V30 6495 O 613.986 4.33818 -4.17235 0
M  V30 6496 H 617.812 1.37238 -2.70923 0
M  V30 6497 H 615.397 0.615845 -1.36117 0
M  V30 6498 H 617.279 3.71633 -1.98662 0
M  V30 6499 H 615.954 3.08865 -0.9687 0
M  V30 6500 H 614.861 2.12737 -3.07723 0
M  V30 6501 H 616.194 2.81514 -4.03746 0
M  V30 6502 N 617.846 1.41785 0.688094 0
M  V30 6503 C 618.779 1.38643 1.81255 0
M  V30 6504 C 619.757 0.252583 1.60626 0
M  V30 6505 O 620.941 0.440691 1.83276 0
M  V30 6506 C 618.068 1.16449 3.18053 0
M  V30 6507 C 617.114 2.32651 3.57457 0
M  V30 6508 S 617.947 3.95152 3.61407 0
M  V30 6509 C 619.103 3.75275 5.00919 0
M  V30 6510 H 619.336 2.33799 1.83644 0
M  V30 6511 H 616.869 1.28398 0.857513 0
M  V30 6512 H 618.827 1.0433 3.97021 0
M  V30 6513 H 617.488 0.229002 3.13264 0
M  V30 6514 H 616.681 2.12835 4.56856 0
M  V30 6515 H 616.283 2.41215 2.85817 0
M  V30 6516 H 618.575 3.35443 5.88629 0
M  V30 6517 H 619.518 4.74302 5.25778 0
M  V30 6518 H 619.926 3.08401 4.7281 0
M  V30 6519 N 619.324 -0.923095 1.27737 0
M  V30 6520 C 620.74 -1.19985 1.05241 0
M  V30 6521 C 620.94 -2.00391 -0.21113 0
M  V30 6522 O 619.996 -2.35324 -0.915366 0
M  V30 6523 C 621.309 -1.94352 2.29451 0
M  V30 6524 C 622.857 -2.07273 2.34536 0
M  V30 6525 C 623.332 -2.85046 3.58487 0
M  V30 6526 N 624.823 -2.92612 3.59072 0
M  V30 6527 C 625.558 -3.53266 4.51654 0
M  V30 6528 N 625.054 -4.15274 5.54545 0
M  V30 6529 N 626.847 -3.50714 4.39268 0
M  V30 6530 H 618.998 -0.386042 2.08862 0
M  V30 6531 H 621.261 -0.233407 0.918817 0
M  V30 6532 H 620.967 -1.42692 3.21453 0
M  V30 6533 H 620.841 -2.94947 2.3513 0
M  V30 6534 H 623.228 -2.58117 1.43037 0
M  V30 6535 H 623.309 -1.05884 2.32857 0
M  V30 6536 H 622.953 -2.34884 4.50324 0
M  V30 6537 H 622.883 -3.8673 3.57418 0
M  V30 6538 H 625.374 -2.48547 2.84663 0
M  V30 6539 H 625.687 -4.59507 6.21348 0
M  V30 6540 H 624.032 -4.13806 5.58382 0
M  V30 6541 H 627.223 -3.01475 3.58093 0
M  V30 6542 H 627.396 -3.97693 5.1161 0
M  V30 6543 N 620.802 -1.09834 -1.13024 0
M  V30 6544 C 622.051 -0.831806 -1.83749 0
M  V30 6545 C 622.364 0.644763 -1.84668 0
M  V30 6546 O 623.57 1.02697 -2.51327 0
M  V30 6547 C 622.026 -1.43817 -3.29916 0
M  V30 6548 C 621.634 -2.94759 -3.37374 0
M  V30 6549 C 623.378 -1.25077 -4.05655 0
M  V30 6550 C 621.285 -3.48461 -4.77838 0
M  V30 6551 H 620.215 -0.30751 -0.688443 0
M  V30 6552 H 622.866 -1.32156 -1.27307 0
M  V30 6553 H 621.248 -0.876106 -3.86187 0
M  V30 6554 H 622.422 -3.57228 -2.91076 0
M  V30 6555 H 620.737 -3.12581 -2.75103 0
M  V30 6556 H 623.334 -1.62649 -5.09362 0
M  V30 6557 H 623.677 -0.191782 -4.15858 0
M  V30 6558 H 624.21 -1.78057 -3.55725 0
M  V30 6559 H 620.949 -4.53998 -4.72828 0
M  V30 6560 H 620.469 -2.90757 -5.24615 0
M  V30 6561 H 622.148 -3.45914 -5.46766 0
M  V30 6562 N 622.28 1.30327 -0.886154 0
M  V30 6563 C 623.696 1.48676 -0.580323 0
M  V30 6564 C 623.896 1.81189 0.881639 0
M  V30 6565 O 622.952 1.90021 1.66278 0
M  V30 6566 C 624.265 2.60932 -1.49449 0
M  V30 6567 C 625.813 2.74812 -1.49824 0
M  V30 6568 C 626.288 3.90183 -2.39836 0
M  V30 6569 N 627.779 3.97495 -2.37806 0
M  V30 6570 C 628.514 4.86078 -3.04165 0
M  V30 6571 N 628.01 5.79448 -3.79753 0
M  V30 6572 N 629.803 4.79456 -2.93391 0
M  V30 6573 H 621.954 1.07495 -1.8319 0
M  V30 6574 H 624.217 0.532661 -0.784204 0
M  V30 6575 H 623.923 2.43731 -2.5355 0
M  V30 6576 H 623.797 3.57437 -1.20494 0
M  V30 6577 H 626.184 2.91418 -0.464731 0
M  V30 6578 H 626.265 1.78924 -1.82811 0
M  V30 6579 H 625.909 3.74334 -3.43273 0
M  V30 6580 H 625.839 4.85411 -2.04166 0
M  V30 6581 H 628.33 3.30703 -1.82877 0
M  V30 6582 H 628.643 6.43805 -4.27475 0
M  V30 6583 H 626.988 5.79376 -3.8386 0
M  V30 6584 H 630.179 4.05494 -2.33864 0
M  V30 6585 H 630.352 5.48283 -3.45383 0
M  V30 6586 N 623.758 0.647228 1.43697 0
M  V30 6587 C 625.006 0.157876 2.01482 0
M  V30 6588 C 625.327 -1.23039 1.51282 0
M  V30 6589 O 624.597 -1.82071 0.722982 0
M  V30 6590 H 623.177 0.0553745 0.744945 0
M  V30 6591 H 625.839 0.83755 1.75986 0
M  V30 6592 H 624.935 0.137895 3.11795 0
M  V30 6593 N 625.236 -1.5273 0.388769 0
M  V30 6594 C 626.482 -2.01871 -0.193877 0
M  V30 6595 C 626.815 -1.27475 -1.46505 0
M  V30 6596 O 626.09 -0.375063 -1.90849 0
M  V30 6597 C 626.373 -3.5712 -0.462336 0
M  V30 6598 C 626.226 -4.42186 0.824091 0
M  V30 6599 C 627.545 -4.21881 -1.25319 0
M  V30 6600 H 624.664 -0.733764 -0.0689899 0
M  V30 6601 H 627.306 -1.82796 0.518231 0
M  V30 6602 H 625.456 -3.73504 -1.06896 0
M  V30 6603 H 627.128 -4.37554 1.46096 0
M  V30 6604 H 625.371 -4.09219 1.43952 0
M  V30 6605 H 626.042 -5.48828 0.590905 0
M  V30 6606 H 628.518 -4.0947 -0.73981 0
M  V30 6607 H 627.394 -5.30487 -1.40977 0
M  V30 6608 H 627.655 -3.79478 -2.26824 0
M  V30 6609 N 626.714 -0.118576 -1.57153 0
M  V30 6610 C 627.661 0.831789 -2.1529 0
M  V30 6611 C 628.631 1.26385 -1.07778 0
M  V30 6612 O 629.816 1.34144 -1.35684 0
M  V30 6613 C 626.956 2.07664 -2.75626 0
M  V30 6614 C 626.069 1.69298 -3.97444 0
M  V30 6615 C 625.204 2.88747 -4.45868 0
M  V30 6616 C 624.243 2.46619 -5.60219 0
M  V30 6617 N 623.38 3.5898 -6.03389 0
M  V30 6618 H 628.22 0.329183 -2.96176 0
M  V30 6619 H 625.757 0.150792 -1.46325 0
M  V30 6620 H 627.715 2.80601 -3.08738 0
M  V30 6621 H 626.345 2.55384 -1.97431 0
M  V30 6622 H 625.397 0.862374 -3.70496 0
M  V30 6623 H 626.709 1.34338 -4.80369 0
M  V30 6624 H 625.863 3.69909 -4.80887 0
M  V30 6625 H 624.602 3.26933 -3.61892 0
M  V30 6626 H 623.607 1.63889 -5.24805 0
M  V30 6627 H 624.832 2.0955 -6.45961 0
M  V30 6628 H 622.778 3.9684 -5.22354 0
M  V30 6629 H 622.695 3.27942 -6.81168 0
M  V30 6630 H 623.963 4.40583 -6.43045 0
M  V30 6631 N 628.193 1.56834 0.155195 0
M  V30 6632 C 629.421 1.87049 0.884326 0
M  V30 6633 C 629.836 0.705839 1.7511 0
M  V30 6634 O 629.193 -0.324641 1.79589 0
M  V30 6635 C 629.244 3.1644 1.74781 0
M  V30 6636 O 628.965 4.28417 0.915978 0
M  V30 6637 C 630.466 3.60113 2.58522 0
M  V30 6638 H 627.686 0.620196 0.25612 0
M  V30 6639 H 630.23 2.03946 0.150445 0
M  V30 6640 H 628.385 3.01321 2.43484 0
M  V30 6641 H 628.799 5.02353 1.50803 0
M  V30 6642 H 630.273 4.53508 3.14698 0
M  V30 6643 H 630.75 2.85005 3.34169 0
M  V30 6644 H 631.356 3.77898 1.95124 0
M  V30 6645 N 629.671 -0.424282 1.51781 0
M  V30 6646 C 630.619 -1.53649 1.74628 0
M  V30 6647 C 631.613 -1.57923 0.612922 0
M  V30 6648 O 632.819 -1.61511 0.794618 0
M  V30 6649 H 629.194 -0.510706 0.551981 0
M  V30 6650 H 631.165 -1.31558 2.67834 0
M  V30 6651 C 629.914 -2.91177 1.9003 0
M  V30 6652 H 629.237 -2.88625 2.76651 0
M  V30 6653 H 630.677 -3.6833 2.10021 0
M  V30 6654 C 629.136 -3.30303 0.663435 0
M  V30 6655 O 629.666 -4.01315 -0.175812 0
M  V30 6656 N 627.872 -2.86201 0.503723 0
M  V30 6657 H 627.419 -2.28583 1.18776 0
M  V30 6658 H 627.377 -3.12741 -0.322575 0
M  V30 6659 N 631.149 -1.42148 -0.680565 0
M  V30 6660 C 632.398 -1.41604 -1.43636 0
M  V30 6661 C 632.711 -0.0337887 -1.95571 0
M  V30 6662 O 633.917 0.0942588 -2.71336 0
M  V30 6663 C 632.373 -2.49056 -2.59806 0
M  V30 6664 C 631.981 -3.9326 -2.14594 0
M  V30 6665 C 633.725 -2.5767 -3.37352 0
M  V30 6666 C 631.632 -4.92232 -3.27813 0
M  V30 6667 H 630.562 -0.526656 -0.539583 0
M  V30 6668 H 633.213 -1.68033 -0.737369 0
M  V30 6669 H 631.595 -2.15782 -3.32045 0
M  V30 6670 H 632.769 -4.35858 -1.49546 0
M  V30 6671 H 631.084 -3.88443 -1.50002 0
M  V30 6672 H 633.681 -3.28794 -4.21662 0
M  V30 6673 H 634.024 -1.61837 -3.83555 0
M  V30 6674 H 634.557 -2.90109 -2.72179 0
M  V30 6675 H 631.296 -5.89522 -2.86607 0
M  V30 6676 H 630.816 -4.5427 -3.91661 0
M  V30 6677 H 632.495 -5.13684 -3.93367 0
M  V30 6678 N 632.627 0.916307 -1.28225 0
M  V30 6679 C 634.038 1.48024 -1.13779 0
M  V30 6680 C 634.389 1.94289 0.273139 0
M  V30 6681 O 633.514 1.82226 1.16716 0
M  V30 6682 C 634.109 2.69029 -2.05935 0
M  V30 6683 C 632.668 3.2161 -1.95561 0
M  V30 6684 C 631.815 1.94321 -1.97825 0
M  V30 6685 H 634.766 0.729272 -1.40951 0
M  V30 6686 H 634.787 3.44204 -1.62184 0
M  V30 6687 H 634.299 2.35325 -3.08616 0
M  V30 6688 H 632.4 3.60045 -0.959076 0
M  V30 6689 H 632.513 3.87032 -2.82388 0
M  V30 6690 H 630.877 2.1131 -1.42198 0
M  V30 6691 H 631.66 1.62917 -3.0218 0
M  V30 6692 N 634.105 1.10431 1.1244 0
M  V30 6693 C 635.352 0.846717 1.83948 0
M  V30 6694 C 635.68 -0.627709 1.84093 0
M  V30 6695 O 634.935 -1.47876 1.28184 0
M  V30 6696 C 635.234 1.34022 3.3132 0
M  V30 6697 C 634.9 2.82606 3.51347 0
M  V30 6698 C 633.562 3.23182 3.56521 0
M  V30 6699 C 635.914 3.78356 3.58464 0
M  V30 6700 C 633.242 4.58258 3.66356 0
M  V30 6701 C 635.594 5.13234 3.69829 0
M  V30 6702 C 634.258 5.53384 3.73259 0
M  V30 6703 H 633.528 0.309836 0.673114 0
M  V30 6704 H 636.175 1.38091 1.32677 0
M  V30 6705 H 634.48 0.726047 3.85014 0
M  V30 6706 H 636.177 1.11739 3.85118 0
M  V30 6707 H 632.767 2.50212 3.47983 0
M  V30 6708 H 636.951 3.48115 3.53737 0
M  V30 6709 H 632.207 4.88787 3.67284 0
M  V30 6710 H 636.381 5.87272 3.74279 0
M  V30 6711 H 634.008 6.58045 3.80633 0
M  V30 6712 N 635.583 -1.29855 0.893053 0
M  V30 6713 C 636.513 -2.3035 0.382249 0
M  V30 6714 C 637.494 -1.61328 -0.539203 0
M  V30 6715 O 638.679 -1.88882 -0.451342 0
M  V30 6716 C 635.809 -3.45024 -0.396983 0
M  V30 6717 C 634.763 -4.258 0.433437 0
M  V30 6718 C 634.089 -5.32605 -0.472889 0
M  V30 6719 C 635.389 -4.94549 1.67984 0
M  V30 6720 H 637.083 -2.73325 1.22205 0
M  V30 6721 H 634.629 -1.314 0.589073 0
M  V30 6722 H 636.582 -4.14398 -0.765024 0
M  V30 6723 H 635.306 -3.00875 -1.2705 0
M  V30 6724 H 633.965 -3.58125 0.783723 0
M  V30 6725 H 633.613 -4.84702 -1.34435 0
M  V30 6726 H 633.313 -5.87547 0.0789958 0
M  V30 6727 H 634.837 -6.04832 -0.837269 0
M  V30 6728 H 636.251 -5.56395 1.38192 0
M  V30 6729 H 634.648 -5.59393 2.17254 0
M  V30 6730 H 635.718 -4.20215 2.41965 0
M  V30 6731 N 637.061 -0.65484 -1.43351 0
M  V30 6732 C 638.31 -0.166215 -2.01014 0
M  V30 6733 C 638.623 1.22764 -1.52278 0
M  V30 6734 O 639.829 1.81156 -2.02224 0
M  V30 6735 C 638.285 -0.246341 -3.59056 0
M  V30 6736 C 637.893 -1.64299 -4.16785 0
M  V30 6737 C 639.637 0.184597 -4.24098 0
M  V30 6738 C 637.544 -1.67695 -5.67126 0
M  V30 6739 H 636.474 -0.0583769 -0.751737 0
M  V30 6740 H 639.125 -0.817111 -1.64303 0
M  V30 6741 H 637.507 0.472092 -3.93176 0
M  V30 6742 H 638.681 -2.3869 -3.94162 0
M  V30 6743 H 636.996 -2.02004 -3.6412 0
M  V30 6744 H 639.593 0.179088 -5.344 0
M  V30 6745 H 639.936 1.21632 -3.98135 0
M  V30 6746 H 640.469 -0.482141 -3.94867 0
M  V30 6747 H 637.208 -2.68783 -5.9786 0
M  V30 6748 H 636.728 -0.976313 -5.91801 0
M  V30 6749 H 638.407 -1.42142 -6.31193 0
M  V30 6750 N 638.539 1.52521 -0.396863 0
M  V30 6751 C 639.487 2.28217 0.44943 0
M  V30 6752 C 640.481 1.32416 1.05652 0
M  V30 6753 O 641.687 1.49925 0.996124 0
M  V30 6754 H 638.062 0.733966 0.1637 0
M  V30 6755 H 640.033 2.97658 -0.210367 0
M  V30 6756 C 638.782 3.10713 1.56054 0
M  V30 6757 H 638.105 3.84291 1.10273 0
M  V30 6758 H 639.545 3.66803 2.12677 0
M  V30 6759 C 638.004 2.23499 2.52091 0
M  V30 6760 O 638.534 1.8669 3.55682 0
M  V30 6761 N 636.74 1.8751 2.2201 0
M  V30 6762 H 636.287 2.17643 1.37802 0
M  V30 6763 H 636.245 1.29448 2.86514 0
M  V30 6764 N 640.017 0.126909 1.57088 0
M  V30 6765 C 641.263 -0.529952 1.95753 0
M  V30 6766 C 641.596 -1.65823 1.01077 0
M  V30 6767 O 640.871 -1.94437 0.0494162 0
M  V30 6768 C 641.154 -1.05517 3.44294 0
M  V30 6769 C 641.007 0.0702253 4.49745 0
M  V30 6770 C 642.326 -1.9435 3.94862 0
M  V30 6771 H 639.445 -0.191168 0.711775 0
M  V30 6772 H 642.087 0.204071 1.88901 0
M  V30 6773 H 640.237 -1.68069 3.50264 0
M  V30 6774 H 641.909 0.705834 4.55868 0
M  V30 6775 H 640.152 0.732259 4.27575 0
M  V30 6776 H 640.823 -0.338642 5.5096 0
M  V30 6777 H 643.299 -1.41658 3.91244 0
M  V30 6778 H 642.175 -2.28015 4.993 0
M  V30 6779 H 642.436 -2.87299 3.36024 0
M  V30 6780 N 641.495 -1.56914 -0.146875 0
M  V30 6781 C 642.428 -1.93425 -1.21087 0
M  V30 6782 C 643.406 -0.800106 -1.41552 0
M  V30 6783 O 644.59 -1.05572 -1.56162 0
M  V30 6784 C 641.717 -2.20639 -2.56975 0
M  V30 6785 C 640.763 -3.43279 -2.53104 0
M  V30 6786 S 641.596 -4.96836 -1.99786 0
M  V30 6787 C 642.752 -5.27172 -3.37403 0
M  V30 6788 H 642.985 -2.8337 -0.899378 0
M  V30 6789 H 640.518 -1.50322 -0.352494 0
M  V30 6790 H 642.476 -2.36998 -3.35175 0
M  V30 6791 H 641.137 -1.31357 -2.85314 0
M  V30 6792 H 640.33 -3.59599 -3.53136 0
M  V30 6793 H 639.932 -3.26163 -1.83012 0
M  V30 6794 H 642.224 -5.20647 -4.33513 0
M  V30 6795 H 643.167 -6.28626 -3.25937 0
M  V30 6796 H 643.575 -4.54687 -3.34544 0
M  V30 6797 N 642.974 0.416227 -1.52004 0
M  V30 6798 C 643.921 1.50666 -1.74838 0
M  V30 6799 C 644.891 1.55245 -0.590599 0
M  V30 6800 O 646.076 1.71928 -0.827374 0
M  V30 6801 C 643.216 2.88185 -1.89851 0
M  V30 6802 C 642.329 2.92971 -3.17478 0
M  V30 6803 C 641.464 4.21745 -3.22962 0
M  V30 6804 C 640.503 4.20478 -4.4482 0
M  V30 6805 N 639.64 5.40811 -4.47736 0
M  V30 6806 H 644.48 1.30498 -2.67907 0
M  V30 6807 H 642.017 0.633568 -1.32757 0
M  V30 6808 H 643.975 3.68007 -1.96537 0
M  V30 6809 H 642.605 3.06865 -1.00169 0
M  V30 6810 H 641.657 2.05684 -3.19997 0
M  V30 6811 H 642.969 2.87899 -4.07328 0
M  V30 6812 H 642.123 5.09954 -3.28682 0
M  V30 6813 H 640.862 4.29503 -2.31038 0
M  V30 6814 H 639.867 3.30659 -4.39254 0
M  V30 6815 H 641.092 4.14366 -5.38031 0
M  V30 6816 H 639.038 5.4925 -3.58692 0
M  V30 6817 H 638.955 5.37705 -5.31422 0
M  V30 6818 H 640.223 6.30993 -4.57676 0
M  V30 6819 N 644.452 1.42507 0.673017 0
M  V30 6820 C 645.4 1.46362 1.80779 0
M  V30 6821 C 646.394 0.339166 1.6597 0
M  V30 6822 O 647.6 0.512262 1.72557 0
M  V30 6823 H 643.975 0.458433 0.596107 0
M  V30 6824 H 645.946 2.41953 1.74646 0
M  V30 6825 C 644.695 1.38462 3.18941 0
M  V30 6826 H 644.018 2.24283 3.30964 0
M  V30 6827 H 645.458 1.45221 3.98355 0
M  V30 6828 C 643.917 0.0996354 3.36753 0
M  V30 6829 O 644.447 -0.846894 3.92671 0
M  V30 6830 N 642.653 0.016211 2.90595 0
M  V30 6831 H 642.2 0.78725 2.45276 0
M  V30 6832 H 642.158 -0.84291 3.0289 0
M  V30 6833 N 645.93 -0.909495 1.28709 0
M  V30 6834 C 646.877 -2.01245 1.13 0
M  V30 6835 C 647.847 -1.6608 0.0259684 0
M  V30 6836 O 649.032 -1.89835 0.191687 0
M  V30 6837 C 646.172 -3.35644 0.802315 0
M  V30 6838 C 645.285 -3.83653 1.98582 0
M  V30 6839 C 644.42 -5.06582 1.59837 0
M  V30 6840 C 643.459 -5.46934 2.74827 0
M  V30 6841 N 642.596 -6.61053 2.36546 0
M  V30 6842 H 647.436 -2.14013 2.0737 0
M  V30 6843 H 644.973 -1.0482 1.03205 0
M  V30 6844 H 646.931 -4.12963 0.593057 0
M  V30 6845 H 645.561 -3.22631 -0.104457 0
M  V30 6846 H 644.613 -3.02454 2.30708 0
M  V30 6847 H 645.925 -4.09515 2.84779 0
M  V30 6848 H 645.079 -5.91457 1.35143 0
M  V30 6849 H 643.818 -4.82537 0.707753 0
M  V30 6850 H 642.823 -4.60599 3.00215 0
M  V30 6851 H 644.048 -5.72965 3.64538 0
M  V30 6852 H 641.994 -6.3863 1.49959 0
M  V30 6853 H 641.911 -6.86662 3.16277 0
M  V30 6854 H 643.179 -7.49221 2.15146 0
M  V30 6855 N 647.408 -1.11026 -1.11852 0
M  V30 6856 C 648.355 -0.764662 -2.17765 0
M  V30 6857 C 649.325 0.261854 -1.64023 0
M  V30 6858 O 650.51 0.139748 -1.90288 0
M  V30 6859 C 647.65 -0.209317 -3.44465 0
M  V30 6860 C 646.763 -1.29187 -4.12231 0
M  V30 6861 C 645.898 -0.697523 -5.266 0
M  V30 6862 C 644.937 -1.76023 -5.86244 0
M  V30 6863 N 644.074 -1.18569 -6.92016 0
M  V30 6864 H 648.914 -1.67202 -2.46673 0
M  V30 6865 H 646.451 -0.835065 -1.21099 0
M  V30 6866 H 648.409 0.130599 -4.16996 0
M  V30 6867 H 647.039 0.661251 -3.15955 0
M  V30 6868 H 646.091 -1.74881 -3.37818 0
M  V30 6869 H 647.403 -2.09607 -4.52622 0
M  V30 6870 H 646.557 -0.307412 -6.05921 0
M  V30 6871 H 645.296 0.138044 -4.87505 0
M  V30 6872 H 644.301 -2.1597 -5.05606 0
M  V30 6873 H 645.526 -2.59875 -6.27409 0
M  V30 6874 H 643.472 -0.371695 -6.54946 0
M  V30 6875 H 643.389 -1.92666 -7.31038 0
M  V30 6876 H 644.657 -0.82233 -7.7515 0
M  V30 6877 N 648.886 1.2938 -0.899927 0
M  V30 6878 C 650.133 1.9555 -0.525963 0
M  V30 6879 C 650.461 1.70945 0.927789 0
M  V30 6880 O 649.716 1.01545 1.67293 0
M  V30 6881 C 650.015 3.49114 -0.765113 0
M  V30 6882 C 649.681 3.93796 -2.19626 0
M  V30 6883 C 648.343 4.05707 -2.58758 0
M  V30 6884 C 650.695 4.16883 -3.12823 0
M  V30 6885 C 648.023 4.38074 -3.90267 0
M  V30 6886 C 650.375 4.50725 -4.4388 0
M  V30 6887 C 649.039 4.60845 -4.82885 0
M  V30 6888 H 648.309 0.715569 -0.192463 0
M  V30 6889 H 650.956 1.53972 -1.13863 0
M  V30 6890 H 649.261 3.91738 -0.069531 0
M  V30 6891 H 650.958 3.98409 -0.455144 0
M  V30 6892 H 647.548 3.85042 -1.88256 0
M  V30 6893 H 651.732 4.07147 -2.83804 0
M  V30 6894 H 646.988 4.44112 -4.20207 0
M  V30 6895 H 651.162 4.67538 -5.16121 0
M  V30 6896 H 648.789 4.85681 -5.84823 0
M  V30 6897 N 650.364 0.662433 1.43002 0
M  V30 6898 C 651.592 0.187615 2.06048 0
M  V30 6899 C 652.007 -1.15039 1.49705 0
M  V30 6900 O 651.364 -1.71209 0.631956 0
M  V30 6901 C 651.415 0.100498 3.6136 0
M  V30 6902 O 651.136 1.38562 4.15611 0
M  V30 6903 C 652.637 -0.399298 4.41498 0
M  V30 6904 H 649.857 0.0941675 0.664359 0
M  V30 6905 H 652.401 0.905681 1.83351 0
M  V30 6906 H 650.556 -0.568181 3.83211 0
M  V30 6907 H 650.97 1.25084 5.09366 0
M  V30 6908 H 652.444 -0.409187 5.50481 0
M  V30 6909 H 652.921 -1.43232 4.15188 0
M  V30 6910 H 653.527 0.23721 4.24638 0
M  V30 6911 N 651.842 -1.52309 0.404946 0
M  V30 6912 C 653.067 -2.06666 -0.1743 0
M  V30 6913 C 653.492 -1.27341 -1.38441 0
M  V30 6914 O 652.85 -0.302539 -1.78758 0
M  V30 6915 C 652.898 -3.57014 -0.507262 0
M  V30 6916 O 652.002 -3.80144 -1.59889 0
M  V30 6917 H 651.343 -0.663807 -0.0160273 0
M  V30 6918 H 653.873 -1.96297 0.576937 0
M  V30 6919 H 653.883 -4.00724 -0.767098 0
M  V30 6920 H 652.558 -4.14184 0.377368 0
M  V30 6921 H 651.135 -3.48316 -1.33155 0
M  V30 6922 N 653.32 -0.135238 -1.57019 0
M  V30 6923 C 654.568 0.51777 -1.95355 0
M  V30 6924 C 654.889 1.6617 -1.02042 0
M  V30 6925 O 654.159 1.95738 -0.0797343 0
M  V30 6926 H 652.739 0.194264 -0.721298 0
M  V30 6927 H 655.401 -0.207983 -1.93787 0
M  V30 6928 H 654.497 0.901675 -2.98791 0
M  V30 6929 N 654.798 1.5699 0.138552 0
M  V30 6930 C 656.075 1.74741 0.87891 0
M  V30 6931 C 656.455 0.705522 1.98961 0
M  V30 6932 O 655.803 -0.274066 2.2685 0
M  V30 6933 C 656.013 3.1909 1.4136 0
M  V30 6934 C 657.361 3.81023 1.87368 0
M  V30 6935 O 658.385 3.22571 1.51084 0
M  V30 6936 O 657.244 4.83722 2.54312 0
M  V30 6937 H 654.338 0.714781 0.415953 0
M  V30 6938 H 656.884 1.69248 0.123817 0
M  V30 6939 H 655.656 3.86424 0.61579 0
M  V30 6940 H 655.279 3.29043 2.23196 0
M  V30 6941 N 656.276 -0.40816 1.52223 0
M  V30 6942 C 657.506 -1.17501 1.69932 0
M  V30 6943 C 657.914 -1.84729 0.408874 0
M  V30 6944 O 657.257 -1.7274 -0.625025 0
M  V30 6945 C 657.319 -2.27994 2.77955 0
M  V30 6946 C 656.983 -1.80894 4.19674 0
M  V30 6947 C 657.98 -1.29618 5.03483 0
M  V30 6948 C 655.665 -1.87698 4.65913 0
M  V30 6949 C 657.659 -0.857695 6.31603 0
M  V30 6950 C 655.346 -1.43461 5.94022 0
M  V30 6951 C 656.344 -0.925822 6.76696 0
M  V30 6952 O 656.032 -0.489841 8.02406 0
M  V30 6953 H 655.764 -0.359065 0.572755 0
M  V30 6954 H 658.318 -0.486188 1.99563 0
M  V30 6955 H 656.548 -3.00243 2.43703 0
M  V30 6956 H 658.237 -2.89749 2.84254 0
M  V30 6957 H 659.003 -1.23733 4.68951 0
M  V30 6958 H 654.882 -2.26244 4.01665 0
M  V30 6959 H 658.426 -0.459879 6.96083 0
M  V30 6960 H 654.323 -1.49026 6.28062 0
M  V30 6961 H 655.091 -0.613062 8.16201 0
M  V30 6962 N 657.755 -1.42862 -0.66545 0
M  V30 6963 C 658.983 -1.47246 -1.45349 0
M  V30 6964 C 659.398 -0.0865944 -1.88601 0
M  V30 6965 O 658.755 0.900652 -1.58728 0
M  V30 6966 C 658.806 -2.40772 -2.6965 0
M  V30 6967 O 658.527 -3.73968 -2.2821 0
M  V30 6968 C 660.028 -2.54272 -3.63126 0
M  V30 6969 H 657.248 -0.500497 -0.446927 0
M  V30 6970 H 659.792 -1.87477 -0.816871 0
M  V30 6971 H 657.947 -2.0377 -3.29479 0
M  V30 6972 H 658.361 -4.24146 -3.08546 0
M  V30 6973 H 659.835 -3.23815 -4.47043 0
M  V30 6974 H 660.312 -1.58364 -4.09656 0
M  V30 6975 H 660.918 -2.92036 -3.09185 0
M  V30 6976 N 659.233 0.902656 -1.29189 0
M  V30 6977 C 660.461 1.68639 -1.19869 0
M  V30 6978 C 660.876 1.87254 0.241121 0
M  V30 6979 O 660.233 1.40745 1.16177 0
M  V30 6980 C 660.284 3.07251 -1.90471 0
M  V30 6981 O 660.005 2.89488 -3.28829 0
M  V30 6982 C 661.506 4.01653 -1.8759 0
M  V30 6983 H 658.726 0.526802 -0.415596 0
M  V30 6984 H 661.27 1.12901 -1.7051 0
M  V30 6985 H 659.425 3.59774 -1.43672 0
M  V30 6986 H 659.839 3.77296 -3.64346 0
M  V30 6987 H 661.313 4.96339 -2.4156 0
M  V30 6988 H 661.79 4.30881 -0.850756 0
M  V30 6989 H 662.396 3.55061 -2.34119 0
M  V30 6990 N 660.711 1.11618 1.11262 0
M  V30 6991 C 661.658 0.7762 2.17356 0
M  V30 6992 C 662.628 -0.253152 1.6416 0
M  V30 6993 O 663.813 -0.129655 1.90359 0
M  V30 6994 C 660.953 0.227581 3.44349 0
M  V30 6995 C 660.066 1.31372 4.1154 0
M  V30 6996 C 659.201 0.72544 5.26223 0
M  V30 6997 C 658.24 1.7913 5.85302 0
M  V30 6998 N 657.377 1.22237 6.91377 0
M  V30 6999 H 662.217 1.68508 2.45783 0
M  V30 7000 H 659.754 0.841475 1.20655 0
M  V30 7001 H 661.712 -0.108483 4.17059 0
M  V30 7002 H 660.342 -0.644486 3.16301 0
M  V30 7003 H 659.394 1.7667 3.36885 0
M  V30 7004 H 660.706 2.12005 4.51504 0
M  V30 7005 H 659.86 0.339541 6.05749 0
M  V30 7006 H 658.599 -0.112188 4.87571 0
M  V30 7007 H 657.604 2.18648 5.04453 0
M  V30 7008 H 658.829 2.63199 6.26022 0
M  V30 7009 H 656.775 0.406423 6.5474 0
M  V30 7010 H 656.692 1.9654 7.30006 0
M  V30 7011 H 657.96 0.863426 7.74703 0
M  V30 7012 N 662.189 -1.289 0.906776 0
M  V30 7013 C 663.436 -1.95269 0.536326 0
M  V30 7014 C 663.764 -1.71435 -0.918711 0
M  V30 7015 O 663.019 -1.02431 -1.66752 0
M  V30 7016 C 663.318 -3.48704 0.783617 0
M  V30 7017 C 662.984 -3.92626 2.21711 0
M  V30 7018 C 661.646 -4.04329 2.60906 0
M  V30 7019 C 663.998 -4.15218 3.15029 0
M  V30 7020 C 661.326 -4.35998 3.92584 0
M  V30 7021 C 663.678 -4.48365 4.46264 0
M  V30 7022 C 662.342 -4.58278 4.85322 0
M  V30 7023 H 661.612 -0.714538 0.196256 0
M  V30 7024 H 664.259 -1.53366 1.14678 0
M  V30 7025 H 662.564 -3.91696 0.0903048 0
M  V30 7026 H 664.261 -3.98162 0.476267 0
M  V30 7027 H 660.851 -3.84038 1.90296 0
M  V30 7028 H 665.035 -4.05636 2.8596 0
M  V30 7029 H 660.291 -4.41878 4.22557 0
M  V30 7030 H 664.465 -4.64795 5.18593 0
M  V30 7031 H 662.092 -4.82573 5.87391 0
M  V30 7032 N 663.667 -0.670007 -1.42649 0
M  V30 7033 C 664.916 -0.187526 -2.00826 0
M  V30 7034 C 665.229 1.21142 -1.53571 0
M  V30 7035 O 666.435 1.79001 -2.04134 0
M  V30 7036 C 664.891 -0.284409 -3.58774 0
M  V30 7037 C 664.499 -1.6871 -4.15019 0
M  V30 7038 C 666.243 0.139605 -4.2427 0
M  V30 7039 C 664.15 -1.73701 -5.65316 0
M  V30 7040 H 663.08 -0.0663468 -0.751075 0
M  V30 7041 H 665.731 -0.834492 -1.63427 0
M  V30 7042 H 664.113 0.430364 -3.93655 0
M  V30 7043 H 665.287 -2.42857 -3.91608 0
M  V30 7044 H 663.602 -2.05855 -3.61957 0
M  V30 7045 H 666.199 0.122398 -5.3456 0
M  V30 7046 H 666.542 1.17403 -3.99402 0
M  V30 7047 H 667.075 -0.523995 -3.94334 0
M  V30 7048 H 663.814 -2.75109 -5.94975 0
M  V30 7049 H 663.334 -1.03903 -5.90732 0
M  V30 7050 H 665.013 -1.48829 -6.2965 0
M  V30 7051 N 665.145 1.52092 -0.413018 0
M  V30 7052 C 666.055 2.30858 0.417318 0
M  V30 7053 C 667.071 1.38746 1.05003 0
M  V30 7054 O 668.247 1.71821 1.05069 0
M  V30 7055 C 665.312 3.11756 1.51687 0
M  V30 7056 C 664.373 4.19613 0.906825 0
M  V30 7057 C 663.606 4.96644 1.95399 0
M  V30 7058 O 663.829 4.7402 3.17271 0
M  V30 7059 O 662.763 5.81385 1.55805 0
M  V30 7060 H 666.589 3.02865 -0.225028 0
M  V30 7061 H 664.174 1.48358 -0.176126 0
M  V30 7062 H 666.056 3.62122 2.15512 0
M  V30 7063 H 664.731 2.42539 2.14375 0
M  V30 7064 H 663.638 3.73385 0.231183 0
M  V30 7065 H 664.971 4.91134 0.323814 0
M  V30 7066 N 666.623 0.143563 1.56945 0
M  V30 7067 C 667.533 -0.810562 2.20152 0
M  V30 7068 C 668.549 -1.27431 1.1848 0
M  V30 7069 O 669.725 -1.33221 1.51044 0
M  V30 7070 C 666.79 -2.03353 2.80799 0
M  V30 7071 C 665.851 -1.61936 3.97587 0
M  V30 7072 C 665.084 -2.78403 4.55332 0
M  V30 7073 O 665.307 -3.94521 4.11958 0
M  V30 7074 O 664.241 -2.54073 5.45647 0
M  V30 7075 H 668.067 -0.30253 3.02189 0
M  V30 7076 H 665.652 -0.0832925 1.49168 0
M  V30 7077 H 667.534 -2.74932 3.19359 0
M  V30 7078 H 666.209 -2.53116 2.01777 0
M  V30 7079 H 665.116 -0.873904 3.6375 0
M  V30 7080 H 666.449 -1.16892 4.78118 0
M  V30 7081 N 668.101 -1.57061 -0.130224 0
M  V30 7082 C 669.329 -1.88432 -0.854456 0
M  V30 7083 C 669.744 -0.733608 -1.73964 0
M  V30 7084 O 669.101 0.296029 -1.80083 0
M  V30 7085 C 669.152 -3.1918 -1.69724 0
M  V30 7086 O 668.873 -4.2982 -0.847705 0
M  V30 7087 C 670.374 -3.6418 -2.5276 0
M  V30 7088 H 667.594 -0.624193 -0.246221 0
M  V30 7089 H 670.138 -2.04159 -0.11798 0
M  V30 7090 H 668.293 -3.05156 -2.3866 0
M  V30 7091 H 668.707 -5.04689 -1.42792 0
M  V30 7092 H 670.181 -4.58457 -3.07443 0
M  V30 7093 H 670.658 -2.90285 -3.29592 0
M  V30 7094 H 671.264 -3.80954 -1.89087 0
M  V30 7095 N 669.579 0.400081 -1.52437 0
M  V30 7096 C 670.99 0.97851 -1.59003 0
M  V30 7097 C 671.341 1.91293 -0.436068 0
M  V30 7098 O 670.466 2.1183 0.442365 0
M  V30 7099 C 671.061 1.78145 -2.88184 0
M  V30 7100 C 669.62 2.30976 -2.97199 0
M  V30 7101 C 668.767 1.11212 -2.54022 0
M  V30 7102 H 671.718 0.180002 -1.57676 0
M  V30 7103 H 671.739 2.63968 -2.74046 0
M  V30 7104 H 671.251 1.1011 -3.72152 0
M  V30 7105 H 669.352 3.02355 -2.17744 0
M  V30 7106 H 669.465 2.61221 -4.01622 0
M  V30 7107 H 667.829 1.46882 -2.08081 0
M  V30 7108 H 668.612 0.447307 -3.40373 0
M  V30 7109 N 671.057 1.43213 0.657864 0
M  V30 7110 C 671.967 1.50448 1.80007 0
M  V30 7111 C 672.983 0.39191 1.69529 0
M  V30 7112 O 674.159 0.645349 1.90781 0
M  V30 7113 C 671.224 1.42062 3.16258 0
M  V30 7114 C 670.285 2.63951 3.38568 0
M  V30 7115 C 669.518 2.55956 4.68318 0
M  V30 7116 O 669.741 1.60473 5.47361 0
M  V30 7117 O 668.675 3.46378 4.92245 0
M  V30 7118 H 672.501 2.4689 1.76858 0
M  V30 7119 H 670.086 1.25163 0.81576 0
M  V30 7120 H 671.968 1.3981 3.97531 0
M  V30 7121 H 670.643 0.487524 3.20008 0
M  V30 7122 H 669.55 2.71776 2.57077 0
M  V30 7123 H 670.883 3.56217 3.39662 0
M  V30 7124 N 672.536 -0.895792 1.29666 0
M  V30 7125 C 673.466 -2.01673 1.17688 0
M  V30 7126 C 674.447 -1.69955 0.0701317 0
M  V30 7127 O 675.632 -1.9258 0.250289 0
M  V30 7128 C 672.762 -3.36568 0.856681 0
M  V30 7129 C 671.716 -3.82509 1.92017 0
M  V30 7130 C 671.042 -5.14574 1.4532 0
M  V30 7131 C 672.342 -4.02409 3.32963 0
M  V30 7132 H 674.036 -2.11953 2.11463 0
M  V30 7133 H 671.582 -1.01839 1.01807 0
M  V30 7134 H 673.535 -4.14498 0.759577 0
M  V30 7135 H 672.259 -3.26391 -0.116763 0
M  V30 7136 H 670.918 -3.068 2.00673 0
M  V30 7137 H 670.566 -5.00815 0.468325 0
M  V30 7138 H 670.266 -5.46283 2.16447 0
M  V30 7139 H 671.79 -5.9504 1.36968 0
M  V30 7140 H 673.204 -4.70808 3.27127 0
M  V30 7141 H 671.601 -4.45478 4.02082 0
M  V30 7142 H 672.671 -3.06616 3.75652 0
M  V30 7143 N 674.014 -1.12206 -1.10668 0
M  V30 7144 C 675.261 -0.875875 -1.82578 0
M  V30 7145 C 675.589 0.598342 -1.85068 0
M  V30 7146 O 674.844 1.45818 -1.3052 0
M  V30 7147 C 675.143 -1.39276 -3.29146 0
M  V30 7148 C 674.809 -2.8816 -3.46806 0
M  V30 7149 C 673.471 -3.28813 -3.51334 0
M  V30 7150 C 675.823 -3.8401 -3.52399 0
M  V30 7151 C 673.151 -4.64028 -3.59019 0
M  V30 7152 C 675.503 -5.19053 -3.61617 0
M  V30 7153 C 674.167 -5.59252 -3.64408 0
M  V30 7154 H 673.437 -0.320505 -0.6681 0
M  V30 7155 H 676.084 -1.40184 -1.30464 0
M  V30 7156 H 674.389 -0.787207 -3.8381 0
M  V30 7157 H 676.086 -1.17851 -3.83291 0
M  V30 7158 H 672.676 -2.55716 -3.43958 0
M  V30 7159 H 676.86 -3.53698 -3.48154 0
M  V30 7160 H 672.116 -4.94568 -3.59461 0
M  V30 7161 H 676.29 -5.93152 -3.64889 0
M  V30 7162 H 673.917 -6.64017 -3.70116 0
M  V30 7163 N 675.492 1.28418 -0.913599 0
M  V30 7164 C 676.769 1.89977 -0.465619 0
M  V30 7165 C 677.149 1.82813 1.05559 0
M  V30 7166 O 676.497 1.26397 1.90358 0
M  V30 7167 C 676.707 3.34492 -0.995813 0
M  V30 7168 C 678.055 4.11468 -1.04782 0
M  V30 7169 O 679.079 3.43451 -0.944445 0
M  V30 7170 O 677.938 5.33046 -1.20518 0
M  V30 7171 H 675.032 0.813734 -0.147532 0
M  V30 7172 H 677.578 1.36786 -1.00437 0
M  V30 7173 H 676.35 3.33929 -2.03978 0
M  V30 7174 H 675.973 3.95181 -0.437878 0
M  V30 7175 N 676.97 0.677563 1.42291 0
M  V30 7176 C 678.219 0.198173 2.00724 0
M  V30 7177 C 678.532 -1.20325 1.54211 0
M  V30 7178 O 679.738 -1.77916 2.05081 0
M  V30 7179 C 678.194 0.303432 3.58619 0
M  V30 7180 C 677.802 1.70909 4.14119 0
M  V30 7181 C 679.546 -0.117103 4.24338 0
M  V30 7182 C 677.453 1.76696 5.64387 0
M  V30 7183 H 676.383 0.070329 0.750713 0
M  V30 7184 H 679.034 0.843147 1.62982 0
M  V30 7185 H 677.416 -0.409482 3.93877 0
M  V30 7186 H 678.59 2.44931 3.90315 0
M  V30 7187 H 676.905 2.07771 3.6086 0
M  V30 7188 H 679.502 -0.0940471 5.34617 0
M  V30 7189 H 679.845 -1.15283 4.00019 0
M  V30 7190 H 680.378 0.5449 3.9405 0
M  V30 7191 H 677.117 2.7826 5.93508 0
M  V30 7192 H 676.637 1.07034 5.90173 0
M  V30 7193 H 678.316 1.52166 6.28852 0
M  V30 7194 N 678.448 -1.51871 0.421078 0
M  V30 7195 C 679.38 -2.25052 -0.434065 0
M  V30 7196 C 680.393 -1.28458 -1.00013 0
M  V30 7197 O 681.582 -1.54323 -0.897033 0
M  V30 7198 C 678.682 -2.97813 -1.61743 0
M  V30 7199 C 677.855 -4.21374 -1.17315 0
M  V30 7200 C 676.914 -4.76854 -2.22478 0
M  V30 7201 O 675.94 -5.39123 -1.82577 0
M  V30 7202 N 677.142 -4.59467 -3.54782 0
M  V30 7203 H 679.907 -2.99077 0.193073 0
M  V30 7204 H 677.468 -1.59972 0.249088 0
M  V30 7205 H 679.46 -3.3182 -2.31685 0
M  V30 7206 H 678.03 -2.26899 -2.15024 0
M  V30 7207 H 677.25 -3.93046 -0.3014 0
M  V30 7208 H 678.538 -5.01591 -0.853444 0
M  V30 7209 H 677.936 -4.09832 -3.89941 0
M  V30 7210 H 676.493 -4.9788 -4.20665 0
M  V30 7211 N 679.926 -0.151884 -1.56866 0
M  V30 7212 C 681.337 0.368128 -1.83035 0
M  V30 7213 C 681.688 1.64402 -1.07082 0
M  V30 7214 O 680.813 2.14056 -0.317647 0
M  V30 7215 C 681.408 0.674676 -3.32014 0
M  V30 7216 C 679.967 1.13919 -3.58747 0
M  V30 7217 C 679.114 0.164833 -2.7681 0
M  V30 7218 H 682.065 -0.376499 -1.54169 0
M  V30 7219 H 682.086 1.52883 -3.48435 0
M  V30 7220 H 681.598 -0.254113 -3.87267 0
M  V30 7221 H 679.699 2.08375 -3.08886 0
M  V30 7222 H 679.812 1.06179 -4.67186 0
M  V30 7223 H 678.176 0.658419 -2.46043 0
M  V30 7224 H 678.959 -0.757633 -3.34836 0
M  V30 7225 N 681.404 1.57128 0.121893 0
M  V30 7226 C 682.629 1.89254 0.848385 0
M  V30 7227 C 683.054 0.743527 1.72781 0
M  V30 7228 O 682.412 -0.306056 1.78698 0
M  V30 7229 C 682.46 3.20113 1.66012 0
M  V30 7230 O 681.564 3.05815 2.76679 0
M  V30 7231 H 680.905 0.621103 0.234793 0
M  V30 7232 H 683.435 2.0433 0.10516 0
M  V30 7233 H 683.445 3.52761 2.04996 0
M  V30 7234 H 682.12 4.03336 1.01452 0
M  V30 7235 H 680.697 2.84627 2.40918 0
M  V30 7236 N 682.882 -0.391992 1.52647 0
M  V30 7237 C 683.812 -1.48517 1.8018 0
M  V30 7238 C 684.793 -1.57039 0.653667 0
M  V30 7239 O 685.978 -1.72036 0.900962 0
M  V30 7240 C 683.108 -2.86161 1.96797 0
M  V30 7241 C 682.062 -2.92481 3.12472 0
M  V30 7242 C 681.388 -4.32546 3.14338 0
M  V30 7243 C 682.688 -2.624 4.51601 0
M  V30 7244 H 684.382 -1.25726 2.71723 0
M  V30 7245 H 681.928 -0.603387 1.30749 0
M  V30 7246 H 683.881 -3.62639 2.14641 0
M  V30 7247 H 682.605 -3.10283 1.01941 0
M  V30 7248 H 681.264 -2.18451 2.94406 0
M  V30 7249 H 680.912 -4.53703 2.1717 0
M  V30 7250 H 680.612 -4.37695 3.92042 0
M  V30 7251 H 682.136 -5.10934 3.34333 0
M  V30 7252 H 683.55 -3.28596 4.69785 0
M  V30 7253 H 681.947 -2.78903 5.3135 0
M  V30 7254 H 683.017 -1.57754 4.58521 0
M  V30 7255 N 684.36 -1.4356 -0.65026 0
M  V30 7256 C 685.637 -1.35811 -1.40765 0
M  V30 7257 C 686.017 -0.00736379 -2.11099 0
M  V30 7258 O 685.365 1.00932 -2.05 0
M  V30 7259 C 685.575 -2.54332 -2.3899 0
M  V30 7260 C 686.923 -2.97551 -3.02901 0
M  V30 7261 O 687.947 -2.544 -2.49317 0
M  V30 7262 O 686.806 -3.72311 -4.00059 0
M  V30 7263 H 683.9 -0.536861 -0.629054 0
M  V30 7264 H 686.446 -1.55615 -0.676919 0
M  V30 7265 H 685.218 -3.44274 -1.85986 0
M  V30 7266 H 684.841 -2.36643 -3.19509 0
M  V30 7267 N 685.838 0.888903 -1.30139 0
M  V30 7268 C 687.254 1.17153 -1.08385 0
M  V30 7269 C 687.454 2.0088 0.157925 0
M  V30 7270 O 686.51 2.37668 0.852652 0
M  V30 7271 C 687.823 1.882 -2.34523 0
M  V30 7272 C 689.371 2.00981 -2.39949 0
M  V30 7273 C 689.846 2.75441 -3.65918 0
M  V30 7274 N 691.337 2.82989 -3.66704 0
M  V30 7275 C 692.072 3.41167 -4.60861 0
M  V30 7276 N 691.568 4.00425 -5.6536 0
M  V30 7277 N 693.361 3.38944 -4.48412 0
M  V30 7278 H 685.512 0.33053 -2.09812 0
M  V30 7279 H 687.775 0.208964 -0.924683 0
M  V30 7280 H 687.481 1.34119 -3.25123 0
M  V30 7281 H 687.355 2.88609 -2.42868 0
M  V30 7282 H 689.742 2.54234 -1.4983 0
M  V30 7283 H 689.823 0.996725 -2.35582 0
M  V30 7284 H 689.467 2.22861 -4.56394 0
M  V30 7285 H 689.397 3.77118 -3.67546 0
M  V30 7286 H 691.888 2.40912 -2.91153 0
M  V30 7287 H 692.201 4.42871 -6.33313 0
M  V30 7288 H 690.546 3.98856 -5.69157 0
M  V30 7289 H 693.737 2.91875 -3.6596 0
M  V30 7290 H 693.91 3.83989 -5.21974 0
M  V30 7291 N 687.317 1.12792 1.10072 0
M  V30 7292 C 688.565 0.883796 1.81751 0
M  V30 7293 C 688.886 -0.591891 1.858 0
M  V30 7294 O 688.156 -1.43017 1.33876 0
M  V30 7295 H 686.736 0.323978 0.673088 0
M  V30 7296 H 689.398 1.42314 1.33164 0
M  V30 7297 H 688.494 1.26863 2.85153 0
M  V30 7298 N 688.795 -1.27931 0.920396 0
M  V30 7299 C 690.023 -1.98805 0.573087 0
M  V30 7300 C 690.438 -1.68724 -0.847201 0
M  V30 7301 O 689.795 -0.943699 -1.56207 0
M  V30 7302 C 689.846 -3.52971 0.780633 0
M  V30 7303 O 689.567 -3.81994 2.14504 0
M  V30 7304 C 691.068 -4.411 0.44105 0
M  V30 7305 H 688.288 -0.634651 0.21785 0
M  V30 7306 H 690.832 -1.62965 1.23542 0
M  V30 7307 H 688.987 -3.87048 0.165204 0
M  V30 7308 H 689.401 -4.76609 2.18962 0
M  V30 7309 H 690.875 -5.48312 0.637006 0
M  V30 7310 H 691.352 -4.34758 -0.62306 0
M  V30 7311 H 691.958 -4.12532 1.0343 0
M  V30 7312 N 690.273 -0.685099 -1.4193 0
M  V30 7313 C 691.22 -0.0131869 -2.30796 0
M  V30 7314 C 692.19 0.782129 -1.46533 0
M  V30 7315 O 693.375 0.75229 -1.75343 0
M  V30 7316 C 690.515 0.924768 -3.32479 0
M  V30 7317 C 689.628 0.122181 -4.31827 0
M  V30 7318 C 688.763 1.05682 -5.20581 0
M  V30 7319 C 687.802 0.246526 -6.11603 0
M  V30 7320 N 686.939 1.13442 -6.92875 0
M  V30 7321 H 691.779 -0.776789 -2.87698 0
M  V30 7322 H 689.316 -0.394791 -1.41703 0
M  V30 7323 H 691.274 1.48251 -3.89971 0
M  V30 7324 H 689.904 1.65488 -2.77152 0
M  V30 7325 H 688.956 -0.552335 -3.76369 0
M  V30 7326 H 690.268 -0.506473 -4.96222 0
M  V30 7327 H 689.422 1.68415 -5.82856 0
M  V30 7328 H 688.161 1.71935 -4.56388 0
M  V30 7329 H 687.166 -0.393944 -5.48387 0
M  V30 7330 H 688.391 -0.412053 -6.77849 0
M  V30 7331 H 686.337 1.78316 -6.313 0
M  V30 7332 H 686.254 0.561089 -7.53915 0
M  V30 7333 H 687.522 1.74889 -7.59628 0
M  V30 7334 N 691.751 1.51645 -0.429126 0
M  V30 7335 C 692.979 2.06433 0.138994 0
M  V30 7336 C 693.394 1.29735 1.37165 0
M  V30 7337 O 692.751 0.354638 1.79021 0
M  V30 7338 C 692.802 3.58439 0.469452 0
M  V30 7339 O 692.523 4.32238 -0.714273 0
M  V30 7340 C 694.024 4.29712 1.08914 0
M  V30 7341 H 691.244 0.6709 0.0115608 0
M  V30 7342 H 693.788 1.9532 -0.605843 0
M  V30 7343 H 691.943 3.69494 1.16419 0
M  V30 7344 H 692.357 5.22704 -0.433633 0
M  V30 7345 H 693.831 5.37182 1.27042 0
M  V30 7346 H 694.308 3.87473 2.06788 0
M  V30 7347 H 694.914 4.2308 0.434028 0
M  V30 7348 N 693.229 0.160201 1.56784 0
M  V30 7349 C 694.159 -0.770264 2.2043 0
M  V30 7350 C 695.14 -1.24736 1.15651 0
M  V30 7351 O 696.325 -1.30253 1.44041 0
M  V30 7352 C 693.455 -2.00427 2.83631 0
M  V30 7353 C 692.409 -1.66345 3.94352 0
M  V30 7354 C 691.735 -2.97119 4.4455 0
M  V30 7355 C 693.035 -0.899972 5.14488 0
M  V30 7356 H 694.729 -0.239783 2.98438 0
M  V30 7357 H 692.275 -0.113891 1.43549 0
M  V30 7358 H 694.228 -2.66012 3.26827 0
M  V30 7359 H 692.952 -2.5587 2.02973 0
M  V30 7360 H 691.611 -1.03133 3.51794 0
M  V30 7361 H 691.259 -3.5058 3.60698 0
M  V30 7362 H 690.959 -2.75073 5.19238 0
M  V30 7363 H 692.483 -3.63753 4.90425 0
M  V30 7364 H 693.897 -1.45818 5.54446 0
M  V30 7365 H 692.294 -0.778968 5.95023 0
M  V30 7366 H 693.364 0.105827 4.84785 0
M  V30 7367 N 694.707 -1.5719 -0.113559 0
M  V30 7368 C 695.617 -2.04041 -1.15777 0
M  V30 7369 C 696.633 -0.961812 -1.45001 0
M  V30 7370 O 697.809 -1.2737 -1.56009 0
M  V30 7371 C 694.874 -2.43994 -2.46308 0
M  V30 7372 C 693.935 -3.65962 -2.24433 0
M  V30 7373 C 693.168 -4.04 -3.4874 0
M  V30 7374 O 693.391 -3.42321 -4.56259 0
M  V30 7375 O 692.325 -4.97069 -3.3942 0
M  V30 7376 H 696.151 -2.93248 -0.789899 0
M  V30 7377 H 693.736 -1.45828 -0.324748 0
M  V30 7378 H 695.618 -2.70401 -3.23204 0
M  V30 7379 H 694.293 -1.57932 -2.82558 0
M  V30 7380 H 693.2 -3.44697 -1.45377 0
M  V30 7381 H 694.533 -4.52746 -1.93084 0
M  V30 7382 N 696.185 0.383891 -1.52853 0
M  V30 7383 C 697.415 1.14783 -1.7178 0
M  V30 7384 C 697.823 1.84055 -0.438211 0
M  V30 7385 O 697.166 1.73713 0.597465 0
M  V30 7386 C 697.228 2.23543 -2.81547 0
M  V30 7387 C 696.892 1.74195 -4.22499 0
M  V30 7388 C 697.889 1.21591 -5.05481 0
M  V30 7389 C 695.574 1.80262 -4.6884 0
M  V30 7390 C 697.568 0.757104 -6.32888 0
M  V30 7391 C 695.255 1.33993 -5.96229 0
M  V30 7392 C 696.253 0.818049 -6.78083 0
M  V30 7393 O 695.941 0.362123 -8.03084 0
M  V30 7394 H 695.673 0.349908 -0.578395 0
M  V30 7395 H 698.227 0.454377 -2.00311 0
M  V30 7396 H 696.457 2.96328 -2.48449 0
M  V30 7397 H 698.146 2.8519 -2.88828 0
M  V30 7398 H 698.912 1.16257 -4.7086 0
M  V30 7399 H 694.791 2.19825 -4.05213 0
M  V30 7400 H 698.335 0.34908 -6.96726 0
M  V30 7401 H 694.232 1.39015 -6.30353 0
M  V30 7402 H 695 0.483134 -8.17073 0
M  V30 7403 N 697.663 1.43903 0.642637 0
M  V30 7404 C 698.912 1.45362 1.39831 0
M  V30 7405 C 699.225 0.0856289 1.95412 0
M  V30 7406 O 700.431 -0.0222856 2.71491 0
M  V30 7407 C 698.887 2.55857 2.53111 0
M  V30 7408 C 698.495 3.98811 2.04092 0
M  V30 7409 C 700.239 2.66524 3.30402 0
M  V30 7410 C 698.146 5.00751 3.14647 0
M  V30 7411 H 697.076 0.540777 0.52543 0
M  V30 7412 H 699.727 1.69929 0.692559 0
M  V30 7413 H 698.109 2.2451 3.26207 0
M  V30 7414 H 699.283 4.3967 1.37938 0
M  V30 7415 H 697.598 3.92284 1.39651 0
M  V30 7416 H 700.195 3.39858 4.12796 0
M  V30 7417 H 700.538 1.71949 3.79129 0
M  V30 7418 H 701.071 2.97224 2.64392 0
M  V30 7419 H 697.81 5.96914 2.70876 0
M  V30 7420 H 697.33 4.64495 3.79479 0
M  V30 7421 H 699.009 5.23933 3.79609 0
M  V30 7422 N 699.141 -0.881989 1.30609 0
M  V30 7423 C 700.389 -1.63082 1.19368 0
M  V30 7424 C 700.71 -1.93376 -0.251147 0
M  V30 7425 O 699.98 -1.5723 -1.16857 0
M  V30 7426 H 698.56 -0.604542 0.438791 0
M  V30 7427 H 701.222 -1.05658 1.63776 0
M  V30 7428 H 700.318 -2.57966 1.7567 0
M  V30 7429 N 700.619 -1.13374 -1.09472 0
M  V30 7430 C 701.567 -0.806105 -2.18185 0
M  V30 7431 C 702.561 0.21136 -1.68076 0
M  V30 7432 O 703.767 0.0685558 -1.79869 0
M  V30 7433 H 700.142 -0.242901 -0.71169 0
M  V30 7434 H 702.113 -1.73115 -2.43051 0
M  V30 7435 C 700.862 -0.287928 -3.46506 0
M  V30 7436 H 700.185 -1.06217 -3.85432 0
M  V30 7437 H 701.625 -0.0971054 -4.23889 0
M  V30 7438 C 700.084 0.986256 -3.22141 0
M  V30 7439 O 700.614 2.06217 -3.44728 0
M  V30 7440 N 698.82 0.917153 -2.75747 0
M  V30 7441 H 698.367 0.0414609 -2.57567 0
M  V30 7442 H 698.325 1.77029 -2.59823 0
M  V30 7443 N 702.098 1.27442 -0.927168 0
M  V30 7444 C 703.344 1.94679 -0.568164 0
M  V30 7445 C 703.677 1.72697 0.888219 0
M  V30 7446 O 702.952 1.05573 1.63354 0
M  V30 7447 C 703.235 3.4882 -0.894253 0
M  V30 7448 C 703.088 3.80146 -2.40435 0
M  V30 7449 C 704.407 4.38281 -0.399766 0
M  V30 7450 H 701.526 0.707071 -0.207892 0
M  V30 7451 H 704.168 1.50568 -1.15885 0
M  V30 7452 H 702.318 3.86522 -0.391566 0
M  V30 7453 H 703.99 3.52238 -2.97869 0
M  V30 7454 H 702.233 3.26716 -2.85375 0
M  V30 7455 H 702.904 4.87835 -2.58304 0
M  V30 7456 H 705.38 4.07726 -0.83058 0
M  V30 7457 H 704.256 5.44955 -0.656885 0
M  V30 7458 H 704.517 4.36521 0.700153 0
M  V30 7459 N 703.576 0.692616 1.41565 0
M  V30 7460 C 704.804 0.231279 2.05603 0
M  V30 7461 C 705.219 -1.11837 1.52111 0
M  V30 7462 O 704.576 -1.6983 0.66813 0
M  V30 7463 C 704.627 0.177125 3.61066 0
M  V30 7464 O 704.348 1.47346 4.12578 0
M  V30 7465 C 705.849 -0.30556 4.42246 0
M  V30 7466 H 703.069 0.108238 0.662213 0
M  V30 7467 H 705.613 0.944369 1.81389 0
M  V30 7468 H 703.768 -0.486769 3.8433 0
M  V30 7469 H 704.182 1.35861 5.06599 0
M  V30 7470 H 705.656 -0.29233 5.51225 0
M  V30 7471 H 706.133 -1.34393 4.18133 0
M  V30 7472 H 706.739 0.327229 4.24039 0
M  V30 7473 N 705.054 -1.51416 0.437162 0
M  V30 7474 C 706.303 -2.01275 -0.130865 0
M  V30 7475 C 706.616 -1.32593 -1.438 0
M  V30 7476 O 707.822 -1.7342 -2.08897 0
M  V30 7477 C 706.278 -3.5878 -0.283763 0
M  V30 7478 C 705.886 -4.36399 1.01293 0
M  V30 7479 C 707.63 -4.16786 -0.805569 0
M  V30 7480 C 705.537 -5.85608 0.825687 0
M  V30 7481 H 704.467 -0.752157 -0.0526818 0
M  V30 7482 H 707.118 -1.74524 0.566896 0
M  V30 7483 H 705.5 -3.81976 -1.04452 0
M  V30 7484 H 706.674 -4.24948 1.78201 0
M  V30 7485 H 704.989 -3.89843 1.46326 0
M  V30 7486 H 707.586 -5.25972 -0.962146 0
M  V30 7487 H 707.929 -3.75949 -1.78796 0
M  V30 7488 H 708.462 -3.97666 -0.103125 0
M  V30 7489 H 705.201 -6.30857 1.78045 0
M  V30 7490 H 704.721 -5.99723 0.0964029 0
M  V30 7491 H 706.4 -6.45226 0.478815 0
M  V30 7492 N 706.532 -0.168513 -1.56696 0
M  V30 7493 C 707.48 0.779791 -2.19139 0
M  V30 7494 C 708.474 1.23957 -1.1546 0
M  V30 7495 O 709.68 1.20555 -1.33666 0
M  V30 7496 H 706.055 0.269739 -0.701958 0
M  V30 7497 H 708.026 0.229156 -2.97519 0
M  V30 7498 C 706.775 2.00003 -2.84419 0
M  V30 7499 H 706.098 1.65527 -3.63924 0
M  V30 7500 H 707.538 2.64251 -3.31583 0
M  V30 7501 C 705.997 2.82187 -1.84044 0
M  V30 7502 O 706.527 3.79247 -1.32418 0
M  V30 7503 N 704.733 2.47145 -1.52864 0
M  V30 7504 H 704.28 1.68277 -1.9504 0
M  V30 7505 H 704.238 3.02422 -0.859569 0
M  V30 7506 N 708.01 1.57248 0.105221 0
M  V30 7507 C 709.258 1.85204 0.808951 0
M  V30 7508 C 709.579 0.75574 1.7976 0
M  V30 7509 O 708.849 -0.218984 1.94672 0
M  V30 7510 H 707.429 0.683346 0.301739 0
M  V30 7511 H 710.091 1.94695 0.0892605 0
M  V30 7512 H 709.187 2.81595 1.34575 0
M  V30 7513 N 709.488 -0.375779 1.53054 0
M  V30 7514 C 710.735 -1.11948 1.68742 0
M  V30 7515 C 711.063 -1.89596 0.434015 0
M  V30 7516 O 710.318 -1.86787 -0.583867 0
M  V30 7517 C 710.617 -2.11356 2.88207 0
M  V30 7518 C 710.283 -1.50266 4.25124 0
M  V30 7519 C 708.945 -1.33333 4.62359 0
M  V30 7520 C 711.297 -1.05976 5.10312 0
M  V30 7521 C 708.625 -0.706765 5.82427 0
M  V30 7522 C 710.977 -0.447241 6.31017 0
M  V30 7523 C 709.641 -0.265314 6.66973 0
M  V30 7524 H 708.911 -0.409648 0.61747 0
M  V30 7525 H 711.558 -0.402492 1.87222 0
M  V30 7526 H 709.863 -2.89322 2.64197 0
M  V30 7527 H 711.56 -2.68833 2.97539 0
M  V30 7528 H 708.15 -1.64437 3.95801 0
M  V30 7529 H 712.334 -1.17855 4.82104 0
M  V30 7530 H 707.59 -0.554132 6.08884 0
M  V30 7531 H 711.764 -0.0958064 6.96334 0
M  V30 7532 H 709.391 0.222267 7.59875 0
M  V30 7533 N 710.966 -1.44241 -0.634997 0
M  V30 7534 C 712.377 -1.41622 -1.21655 0
M  V30 7535 C 712.728 -0.129584 -1.95772 0
M  V30 7536 O 711.853 0.770225 -2.02229 0
M  V30 7537 C 712.448 -2.56557 -2.21278 0
M  V30 7538 C 711.007 -2.57145 -2.7487 0
M  V30 7539 C 710.154 -2.33354 -1.49804 0
M  V30 7540 H 713.105 -1.52878 -0.425905 0
M  V30 7541 H 713.126 -2.29089 -3.03807 0
M  V30 7542 H 712.638 -3.50186 -1.67306 0
M  V30 7543 H 710.739 -1.67447 -3.32855 0
M  V30 7544 H 710.852 -3.55507 -3.21172 0
M  V30 7545 H 709.216 -1.82372 -1.77799 0
M  V30 7546 H 709.999 -3.29092 -0.977402 0
M  V30 7547 N 712.444 0.87505 -1.31075 0
M  V30 7548 C 713.392 2.00317 -1.18219 0
M  V30 7549 C 714.386 1.69152 -0.0916872 0
M  V30 7550 O 715.592 1.7821 -0.253229 0
M  V30 7551 H 711.967 0.656981 -0.365895 0
M  V30 7552 H 713.938 2.08293 -2.13674 0
M  V30 7553 C 712.687 3.35821 -0.901095 0
M  V30 7554 H 712.01 3.6032 -1.73233 0
M  V30 7555 H 713.45 4.15366 -0.851295 0
M  V30 7556 C 711.909 3.34563 0.396114 0
M  V30 7557 O 712.439 3.75971 1.41452 0
M  V30 7558 N 710.645 2.87681 0.410832 0
M  V30 7559 H 710.192 2.54179 -0.418415 0
M  V30 7560 H 710.15 2.87223 1.27869 0
M  V30 7561 N 713.922 1.13953 1.08869 0
M  V30 7562 C 715.168 0.906151 1.8143 0
M  V30 7563 C 715.501 -0.566089 1.85766 0
M  V30 7564 O 714.776 -1.41915 1.33006 0
M  V30 7565 C 715.059 1.50183 3.27287 0
M  V30 7566 C 714.912 3.04359 3.31189 0
M  V30 7567 C 716.231 1.17477 4.24131 0
M  V30 7568 H 713.35 0.330624 0.658678 0
M  V30 7569 H 715.992 1.40873 1.27495 0
M  V30 7570 H 714.142 1.07442 3.73348 0
M  V30 7571 H 715.814 3.55896 2.93488 0
M  V30 7572 H 714.057 3.39053 2.70602 0
M  V30 7573 H 714.728 3.41141 4.33966 0
M  V30 7574 H 717.204 1.5442 3.86385 0
M  V30 7575 H 716.08 1.61795 5.24513 0
M  V30 7576 H 716.341 0.0893312 4.4201 0
M  V30 7577 N 715.4 -1.26948 0.933913 0
M  V30 7578 C 716.31 -2.30366 0.443671 0
M  V30 7579 C 717.326 -1.67284 -0.478745 0
M  V30 7580 O 718.502 -1.98156 -0.360043 0
M  V30 7581 C 715.567 -3.45485 -0.289974 0
M  V30 7582 C 714.628 -4.24069 0.668114 0
M  V30 7583 C 713.861 -5.33691 -0.0306138 0
M  V30 7584 O 714.084 -5.5656 -1.24888 0
M  V30 7585 O 713.018 -5.98441 0.644384 0
M  V30 7586 H 716.844 -2.74349 1.30254 0
M  V30 7587 H 714.429 -1.32012 0.699506 0
M  V30 7588 H 716.311 -4.15486 -0.70353 0
M  V30 7589 H 714.986 -3.03546 -1.12435 0
M  V30 7590 H 713.893 -3.56579 1.13147 0
M  V30 7591 H 715.226 -4.69739 1.46989 0
M  V30 7592 N 716.879 -0.700114 -1.41195 0
M  V30 7593 C 717.826 -0.0376652 -2.30769 0
M  V30 7594 C 718.796 0.766544 -1.47354 0
M  V30 7595 O 719.981 0.73365 -1.76131 0
M  V30 7596 C 717.121 0.889452 -3.33441 0
M  V30 7597 C 716.234 0.076373 -4.31932 0
M  V30 7598 C 715.369 1.00155 -5.21673 0
M  V30 7599 C 714.408 0.181644 -6.1183 0
M  V30 7600 N 713.545 1.06087 -6.94039 0
M  V30 7601 H 718.385 -0.80726 -2.86858 0
M  V30 7602 H 715.922 -0.409798 -1.41277 0
M  V30 7603 H 717.88 1.44107 -3.91522 0
M  V30 7604 H 716.51 1.6254 -2.78892 0
M  V30 7605 H 715.562 -0.592223 -3.75762 0
M  V30 7606 H 716.874 -0.559076 -4.95657 0
M  V30 7607 H 716.028 1.62223 -5.8461 0
M  V30 7608 H 714.767 1.67085 -4.58186 0
M  V30 7609 H 713.772 -0.452085 -5.47938 0
M  V30 7610 H 714.997 -0.483925 -6.77374 0
M  V30 7611 H 712.943 1.7161 -6.33156 0
M  V30 7612 H 712.86 0.481094 -7.54468 0
M  V30 7613 H 714.128 1.66822 -7.6144 0
M  V30 7614 N 718.357 1.51182 -0.445186 0
M  V30 7615 C 719.773 1.59299 -0.0978954 0
M  V30 7616 C 719.973 1.4555 1.39346 0
M  V30 7617 O 719.029 1.30073 2.16419 0
M  V30 7618 C 720.342 2.94133 -0.625005 0
M  V30 7619 C 721.89 3.07463 -0.586137 0
M  V30 7620 C 722.365 4.44832 -1.09035 0
M  V30 7621 N 723.856 4.51173 -1.04867 0
M  V30 7622 C 724.591 5.55804 -1.40959 0
M  V30 7623 N 724.087 6.67816 -1.84375 0
M  V30 7624 N 725.88 5.46205 -1.32726 0
M  V30 7625 H 718.031 1.58363 -1.41544 0
M  V30 7626 H 720.294 0.746946 -0.58376 0
M  V30 7627 H 720 3.09589 -1.66876 0
M  V30 7628 H 719.874 3.77161 -0.0542262 0
M  V30 7629 H 722.261 2.9167 0.448646 0
M  V30 7630 H 722.342 2.26255 -1.19341 0
M  V30 7631 H 721.986 4.61372 -2.12364 0
M  V30 7632 H 721.916 5.24591 -0.459539 0
M  V30 7633 H 724.407 3.70783 -0.729932 0
M  V30 7634 H 724.72 7.43683 -2.10131 0
M  V30 7635 H 723.065 6.69003 -1.88308 0
M  V30 7636 H 726.256 4.57583 -0.986678 0
M  V30 7637 H 726.429 6.27634 -1.61182 0
M  V30 7638 N 719.835 0.176821 1.56605 0
M  V30 7639 C 721.246 -0.338963 1.83597 0
M  V30 7640 C 721.597 -1.62677 1.09684 0
M  V30 7641 O 720.722 -2.13524 0.351661 0
M  V30 7642 C 721.317 -0.62177 3.33046 0
M  V30 7643 C 719.876 -1.08198 3.60514 0
M  V30 7644 C 719.023 -0.120774 2.77037 0
M  V30 7645 H 721.974 0.400978 1.53551 0
M  V30 7646 H 721.995 -1.47321 3.50823 0
M  V30 7647 H 721.507 0.315692 3.86814 0
M  V30 7648 H 719.608 -2.03435 3.12162 0
M  V30 7649 H 719.721 -0.987329 4.68816 0
M  V30 7650 H 718.085 -0.619192 2.47059 0
M  V30 7651 H 718.868 0.810806 3.33588 0
M  V30 7652 N 721.313 -1.57302 -0.09688 0
M  V30 7653 C 722.26 -2.01933 -1.11766 0
M  V30 7654 C 723.23 -0.895329 -1.39904 0
M  V30 7655 O 724.415 -1.16119 -1.51397 0
M  V30 7656 C 721.555 -2.44726 -2.43317 0
M  V30 7657 C 720.668 -3.70639 -2.21925 0
M  V30 7658 C 719.803 -4.02318 -3.46862 0
M  V30 7659 C 718.842 -5.21346 -3.20725 0
M  V30 7660 N 717.979 -5.48787 -4.37924 0
M  V30 7661 H 722.819 -2.88919 -0.730075 0
M  V30 7662 H 720.356 -1.42901 -0.348962 0
M  V30 7663 H 722.314 -2.6758 -3.20088 0
M  V30 7664 H 720.944 -1.60753 -2.79926 0
M  V30 7665 H 719.996 -3.55271 -1.35965 0
M  V30 7666 H 721.308 -4.57557 -1.98603 0
M  V30 7667 H 720.462 -4.25939 -4.32042 0
M  V30 7668 H 719.201 -3.13918 -3.73238 0
M  V30 7669 H 718.206 -4.97547 -2.33938 0
M  V30 7670 H 719.431 -6.11343 -2.95697 0
M  V30 7671 H 717.377 -4.63346 -4.64378 0
M  V30 7672 H 717.294 -6.30073 -4.17785 0
M  V30 7673 H 718.562 -5.76943 -5.24173 0
M  V30 7674 N 722.791 0.367657 -1.53252 0
M  V30 7675 C 724.202 0.944563 -1.61043 0
M  V30 7676 C 724.553 1.90325 -0.476546 0
M  V30 7677 O 723.678 2.12721 0.397333 0
M  V30 7678 C 724.273 1.71992 -2.91898 0
M  V30 7679 C 722.832 2.2462 -3.02031 0
M  V30 7680 C 721.979 1.05799 -2.56324 0
M  V30 7681 H 724.93 0.146516 -1.58022 0
M  V30 7682 H 724.951 2.58095 -2.79584 0
M  V30 7683 H 724.463 1.02192 -3.74404 0
M  V30 7684 H 722.564 2.97668 -2.24108 0
M  V30 7685 H 722.677 2.52644 -4.07073 0
M  V30 7686 H 721.041 1.42435 -2.1115 0
M  V30 7687 H 721.824 0.375008 -3.41246 0
M  V30 7688 N 724.269 1.44576 0.627338 0
M  V30 7689 C 725.546 1.38033 1.38586 0
M  V30 7690 C 725.926 0.0409468 2.1106 0
M  V30 7691 O 725.274 -0.976582 2.0658 0
M  V30 7692 C 725.484 2.58102 2.34913 0
M  V30 7693 C 726.832 3.02332 2.98129 0
M  V30 7694 O 727.856 2.58334 2.45238 0
M  V30 7695 O 726.715 3.78628 3.94085 0
M  V30 7696 H 723.809 0.546801 0.620434 0
M  V30 7697 H 726.355 1.56672 0.652077 0
M  V30 7698 H 725.127 3.4719 1.80485 0
M  V30 7699 H 724.75 2.41696 3.15703 0
M  V30 7700 N 725.747 -0.868086 1.31537 0
M  V30 7701 C 726.977 -1.65162 1.24118 0
M  V30 7702 C 727.385 -1.88187 -0.195558 0
M  V30 7703 O 726.728 -1.44154 -1.13866 0
M  V30 7704 C 726.79 -3.04119 1.91708 0
M  V30 7705 C 726.454 -3.04194 3.4105 0
M  V30 7706 C 727.451 -2.82016 4.36764 0
M  V30 7707 C 725.136 -3.25256 3.82772 0
M  V30 7708 C 727.13 -2.80881 5.72175 0
M  V30 7709 C 724.817 -3.23749 5.18295 0
M  V30 7710 C 725.815 -3.01589 6.12808 0
M  V30 7711 O 725.503 -2.9993 7.45853 0
M  V30 7712 H 725.235 -0.521597 0.430015 0
M  V30 7713 H 727.789 -1.09165 1.73989 0
M  V30 7714 H 726.019 -3.61849 1.36389 0
M  V30 7715 H 727.708 -3.64701 1.78179 0
M  V30 7716 H 728.474 -2.65525 4.05859 0
M  V30 7717 H 724.353 -3.41534 3.09638 0
M  V30 7718 H 727.897 -2.63503 6.45919 0
M  V30 7719 H 723.794 -3.39781 5.48834 0
M  V30 7720 H 724.562 -3.15979 7.55049 0
M  V30 7721 N 727.225 -1.14528 -1.08264 0
M  V30 7722 C 728.135 -0.84728 -2.18765 0
M  V30 7723 C 729.151 0.172826 -1.7314 0
M  V30 7724 O 730.327 0.000985336 -2.014 0
M  V30 7725 C 727.392 -0.330633 -3.4512 0
M  V30 7726 C 726.453 -1.41348 -4.05363 0
M  V30 7727 C 725.686 -0.921387 -5.25686 0
M  V30 7728 O 725.909 0.236587 -5.69909 0
M  V30 7729 O 724.843 -1.70101 -5.77364 0
M  V30 7730 H 728.669 -1.7708 -2.46731 0
M  V30 7731 H 726.254 -0.923661 -1.17426 0
M  V30 7732 H 728.136 -0.0485053 -4.21372 0
M  V30 7733 H 726.811 0.565147 -3.18728 0
M  V30 7734 H 725.718 -1.74908 -3.30693 0
M  V30 7735 H 727.051 -2.28383 -4.36007 0
M  V30 7736 N 728.703 1.26451 -0.940633 0
M  V30 7737 C 729.633 2.28773 -0.467479 0
M  V30 7738 C 730.614 1.63218 0.478955 0
M  V30 7739 O 731.799 1.90427 0.380929 0
M  V30 7740 C 728.929 3.46259 0.268656 0
M  V30 7741 C 727.883 4.23898 -0.591171 0
M  V30 7742 C 727.209 5.33993 0.274891 0
M  V30 7743 C 728.509 4.87974 -1.86223 0
M  V30 7744 H 730.203 2.68601 -1.32265 0
M  V30 7745 H 727.749 1.29123 -0.637436 0
M  V30 7746 H 729.702 4.16951 0.610696 0
M  V30 7747 H 728.426 3.05383 1.15796 0
M  V30 7748 H 727.085 3.54969 -0.916098 0
M  V30 7749 H 726.733 4.89358 1.16353 0
M  V30 7750 H 726.433 5.86849 -0.297006 0
M  V30 7751 H 727.957 6.07523 0.612213 0
M  V30 7752 H 729.371 5.50883 -1.58747 0
M  V30 7753 H 727.768 5.50945 -2.37866 0
M  V30 7754 H 728.838 4.10945 -2.57394 0
M  V30 7755 N 730.181 0.707592 1.40822 0
M  V30 7756 C 731.144 0.0587224 2.29125 0
M  V30 7757 C 732.144 -0.695624 1.44975 0
M  V30 7758 O 733.334 -0.528718 1.65983 0
M  V30 7759 C 730.466 -0.926939 3.28056 0
M  V30 7760 H 731.659 0.836349 2.88002 0
M  V30 7761 H 729.212 0.471778 1.4901 0
M  V30 7762 H 729.947 -1.7319 2.74182 0
M  V30 7763 H 729.732 -0.389015 3.90165 0
M  V30 7764 H 731.222 -1.37837 3.94196 0
M  V30 7765 N 731.66 -1.50943 0.453197 0
M  V30 7766 C 732.885 -2.07116 -0.108463 0
M  V30 7767 C 733.31 -1.31681 -1.3432 0
M  V30 7768 O 732.668 -0.359256 -1.77705 0
M  V30 7769 C 732.716 -3.58447 -0.393424 0
M  V30 7770 O 731.82 -3.85038 -1.47714 0
M  V30 7771 H 731.161 -0.66398 0.0050993 0
M  V30 7772 H 733.691 -1.94362 0.639095 0
M  V30 7773 H 733.701 -4.02961 -0.639222 0
M  V30 7774 H 732.376 -4.12774 0.508946 0
M  V30 7775 H 730.953 -3.52376 -1.22006 0
M  V30 7776 N 733.138 -0.185124 -1.56509 0
M  V30 7777 C 734.387 0.456421 -1.96468 0
M  V30 7778 C 734.7 1.63448 -1.07444 0
M  V30 7779 O 735.906 2.34316 -1.37143 0
M  V30 7780 C 734.362 0.863404 -3.4939 0
M  V30 7781 C 733.97 -0.289815 -4.47062 0
M  V30 7782 C 735.714 1.47259 -3.98139 0
M  V30 7783 C 733.621 0.137571 -5.9124 0
M  V30 7784 H 732.551 0.17429 -0.733579 0
M  V30 7785 H 735.202 -0.275554 -1.81419 0
M  V30 7786 H 733.584 1.65176 -3.59907 0
M  V30 7787 H 734.758 -1.06728 -4.4827 0
M  V30 7788 H 733.073 -0.809851 -4.08449 0
M  V30 7789 H 735.67 1.80463 -5.03326 0
M  V30 7790 H 736.013 2.3755 -3.41871 0
M  V30 7791 H 736.546 0.748405 -3.90696 0
M  V30 7792 H 733.285 -0.730907 -6.51412 0
M  V30 7793 H 732.805 0.8801 -5.93308 0
M  V30 7794 H 734.484 0.576771 -6.44424 0
M  V30 7795 N 734.616 1.57351 0.0885366 0
M  V30 7796 C 736.027 1.75303 0.642308 0
M  V30 7797 C 736.378 0.808238 1.78779 0
M  V30 7798 O 735.503 -0.01171 2.16397 0
M  V30 7799 C 736.098 3.17885 1.17194 0
M  V30 7800 C 734.657 3.37239 1.67172 0
M  V30 7801 C 733.804 2.7108 0.584045 0
M  V30 7802 H 736.755 1.58103 -0.137567 0
M  V30 7803 H 736.776 3.2112 2.04114 0
M  V30 7804 H 736.288 3.86625 0.338024 0
M  V30 7805 H 734.389 2.73588 2.52943 0
M  V30 7806 H 734.502 4.45594 1.76019 0
M  V30 7807 H 732.866 2.33161 1.02508 0
M  V30 7808 H 733.649 3.42464 -0.239403 0
M  V30 7809 N 736.094 -0.359525 1.53444 0
M  V30 7810 C 737.322 -1.12198 1.73837 0
M  V30 7811 C 737.737 -1.82854 0.470107 0
M  V30 7812 O 737.094 -1.73781 -0.557349 0
M  V30 7813 C 737.145 -2.14769 2.90786 0
M  V30 7814 O 736.866 -1.46989 4.12706 0
M  V30 7815 C 738.367 -3.03514 3.231 0
M  V30 7816 H 735.587 -0.33524 0.581253 0
M  V30 7817 H 738.131 -0.416598 2.00212 0
M  V30 7818 H 736.286 -2.80896 2.66788 0
M  V30 7819 H 736.7 -2.15378 4.78239 0
M  V30 7820 H 738.174 -3.71453 4.08322 0
M  V30 7821 H 738.651 -3.68658 2.38721 0
M  V30 7822 H 739.257 -2.42996 3.49046 0
M  V30 7823 N 737.572 -1.44907 -0.619662 0
M  V30 7824 C 738.818 -1.48512 -1.38102 0
M  V30 7825 C 739.151 -0.121686 -1.93818 0
M  V30 7826 O 738.426 0.862256 -1.74343 0
M  V30 7827 C 738.709 -2.55469 -2.53787 0
M  V30 7828 C 738.562 -4.01212 -2.03345 0
M  V30 7829 C 739.881 -2.58821 -3.55949 0
M  V30 7830 H 737 -0.540712 -0.500799 0
M  V30 7831 H 739.642 -1.7665 -0.69962 0
M  V30 7832 H 737.792 -2.31606 -3.11915 0
M  V30 7833 H 739.464 -4.36245 -1.49959 0
M  V30 7834 H 737.707 -4.12443 -1.34438 0
M  V30 7835 H 738.378 -4.71717 -2.86683 0
M  V30 7836 H 740.854 -2.80172 -3.07641 0
M  V30 7837 H 739.73 -3.35542 -4.34399 0
M  V30 7838 H 739.991 -1.63451 -4.10775 0
M  V30 7839 N 739.05 0.861098 -1.31996 0
M  V30 7840 C 740.275 1.65264 -1.2531 0
M  V30 7841 C 740.7 1.87265 0.177007 0
M  V30 7842 O 740.058 1.4208 1.12619 0
M  V30 7843 C 740.106 2.99284 -2.0115 0
M  V30 7844 O 739.21 3.89508 -1.3549 0
M  V30 7845 H 738.551 0.50409 -0.432192 0
M  V30 7846 H 741.081 1.07297 -1.74208 0
M  V30 7847 H 741.091 3.49154 -2.11081 0
M  V30 7848 H 739.766 2.82591 -3.05148 0
M  V30 7849 H 738.343 3.47966 -1.34066 0
M  V30 7850 N 740.528 1.15101 1.07655 0
M  V30 7851 C 741.753 0.948177 1.84457 0
M  V30 7852 C 742.178 -0.498432 1.81376 0
M  V30 7853 O 741.536 -1.35509 1.20445 0
M  V30 7854 C 741.584 1.46318 3.29581 0
M  V30 7855 O 740.688 0.660342 4.07079 0
M  V30 7856 H 740.029 0.338428 0.571281 0
M  V30 7857 H 742.559 1.5301 1.35828 0
M  V30 7858 H 742.569 1.47468 3.80417 0
M  V30 7859 H 741.244 2.51635 3.31138 0
M  V30 7860 H 739.821 0.718216 3.65918 0
M  V30 7861 N 742.006 -1.2595 0.947325 0
M  V30 7862 C 743.231 -1.98083 0.614633 0
M  V30 7863 C 743.656 -1.70013 -0.804815 0
M  V30 7864 O 743.014 -0.95175 -1.54309 0
M  V30 7865 C 743.062 -3.4993 0.870706 0
M  V30 7866 O 742.166 -4.12364 -0.0541451 0
M  V30 7867 H 741.507 -0.621232 0.234451 0
M  V30 7868 H 744.037 -1.60259 1.27193 0
M  V30 7869 H 744.047 -4.00198 0.794051 0
M  V30 7870 H 742.722 -3.69691 1.90529 0
M  V30 7871 H 741.299 -3.72826 0.0740917 0
M  V30 7872 N 743.484 -0.715051 -1.40445 0
M  V30 7873 C 744.431 -0.0621393 -2.30716 0
M  V30 7874 C 745.401 0.750871 -1.48159 0
M  V30 7875 O 746.586 0.714928 -1.76899 0
M  V30 7876 C 743.726 0.854036 -3.34365 0
M  V30 7877 C 742.839 0.0305565 -4.31989 0
M  V30 7878 C 741.974 0.946162 -5.22706 0
M  V30 7879 C 741.013 0.116741 -6.11989 0
M  V30 7880 N 740.15 0.987194 -6.95125 0
M  V30 7881 H 744.99 -0.83764 -2.85985 0
M  V30 7882 H 742.527 -0.424759 -1.40834 0
M  V30 7883 H 744.485 1.39946 -3.93028 0
M  V30 7884 H 743.115 1.59572 -2.806 0
M  V30 7885 H 742.167 -0.632044 -3.75112 0
M  V30 7886 H 743.479 -0.611615 -4.95036 0
M  V30 7887 H 742.633 1.56014 -5.86297 0
M  V30 7888 H 741.372 1.62216 -4.59932 0
M  V30 7889 H 740.377 -0.510176 -5.47428 0
M  V30 7890 H 741.602 -0.555742 -6.76822 0
M  V30 7891 H 739.548 1.64885 -6.3494 0
M  V30 7892 H 739.465 0.401046 -7.54936 0
M  V30 7893 H 740.733 1.58737 -7.63166 0
M  V30 7894 N 744.962 1.50701 -0.461195 0
M  V30 7895 C 746.211 2.01458 0.0988277 0
M  V30 7896 C 746.524 1.34863 1.41673 0
M  V30 7897 O 747.73 1.76721 2.06111 0
M  V30 7898 C 746.186 3.59186 0.226648 0
M  V30 7899 C 745.794 4.34732 -1.08223 0
M  V30 7900 C 747.538 4.18015 0.73916 0
M  V30 7901 C 745.445 5.8422 -0.918747 0
M  V30 7902 H 744.375 0.7529 0.040709 0
M  V30 7903 H 747.026 1.736 -0.594589 0
M  V30 7904 H 745.408 3.83589 0.983621 0
M  V30 7905 H 746.582 4.22059 -1.84939 0
M  V30 7906 H 744.897 3.87466 -1.52509 0
M  V30 7907 H 747.494 5.27436 0.878347 0
M  V30 7908 H 747.837 3.78746 1.72793 0
M  V30 7909 H 748.37 3.9778 0.0398469 0
M  V30 7910 H 745.109 6.27944 -1.88059 0
M  V30 7911 H 744.629 5.99493 -0.191801 0
M  V30 7912 H 746.308 6.44382 -0.581405 0
M  V30 7913 N 746.441 0.193421 1.56409 0
M  V30 7914 C 747.404 -0.714371 2.17783 0
M  V30 7915 C 748.404 -1.1422 1.13183 0
M  V30 7916 O 749.594 -1.05557 1.38576 0
M  V30 7917 C 746.726 -1.97509 2.77855 0
M  V30 7918 H 747.919 -0.179714 2.99361 0
M  V30 7919 H 745.472 -0.0561944 1.56199 0
M  V30 7920 H 746.207 -2.5523 2.0007 0
M  V30 7921 H 745.992 -1.67706 3.54425 0
M  V30 7922 H 747.482 -2.62246 3.24987 0
M  V30 7923 N 747.919 -1.57396 -0.0801906 0
M  V30 7924 C 749.144 -1.91437 -0.797909 0
M  V30 7925 C 749.569 -0.789075 -1.70749 0
M  V30 7926 O 748.927 0.25857 -1.79447 0
M  V30 7927 C 748.975 -3.24402 -1.57467 0
M  V30 7928 O 748.079 -3.13043 -2.68473 0
M  V30 7929 H 747.42 -0.627109 -0.218243 0
M  V30 7930 H 749.95 -2.04537 -0.050949 0
M  V30 7931 H 749.96 -3.58072 -1.95571 0
M  V30 7932 H 748.635 -4.05884 -0.907229 0
M  V30 7933 H 747.212 -2.90915 -2.33287 0
M  V30 7934 N 749.397 0.351382 -1.53633 0
M  V30 7935 C 750.644 1.0925 -1.70502 0
M  V30 7936 C 750.972 1.88881 -0.464123 0
M  V30 7937 O 750.227 1.87693 0.554077 0
M  V30 7938 C 750.526 2.06744 -2.91533 0
M  V30 7939 C 750.192 1.43484 -4.27461 0
M  V30 7940 C 748.854 1.2596 -4.64422 0
M  V30 7941 C 751.206 0.978436 -5.11934 0
M  V30 7942 C 748.534 0.614017 -5.83478 0
M  V30 7943 C 750.886 0.346795 -6.31649 0
M  V30 7944 C 749.55 0.15917 -6.6731 0
M  V30 7945 H 748.82 0.399773 -0.623909 0
M  V30 7946 H 751.467 0.372656 -1.87839 0
M  V30 7947 H 749.772 2.85082 -2.68767 0
M  V30 7948 H 751.469 2.64066 -3.01778 0
M  V30 7949 H 748.059 1.5812 -3.98367 0
M  V30 7950 H 752.243 1.1017 -4.83918 0
M  V30 7951 H 747.499 0.457194 -6.09688 0
M  V30 7952 H 751.673 -0.0149864 -6.96398 0
M  V30 7953 H 749.3 -0.343129 -7.59425 0
M  V30 7954 N 750.875 1.45233 0.611969 0
M  V30 7955 C 752.1 1.52767 1.40274 0
M  V30 7956 C 752.525 0.159701 1.87421 0
M  V30 7957 O 751.883 -0.854837 1.59882 0
M  V30 7958 C 751.931 2.51286 2.58626 0
M  V30 7959 O 751.035 2.02764 3.59111 0
M  V30 7960 H 750.376 0.515141 0.418958 0
M  V30 7961 H 752.906 1.90547 0.745188 0
M  V30 7962 H 752.916 2.69949 3.05927 0
M  V30 7963 H 751.591 3.50641 2.23659 0
M  V30 7964 H 750.168 1.93957 3.18489 0
M  V30 7965 N 752.353 -0.854086 1.3245 0
M  V30 7966 C 753.601 -1.60513 1.228 0
M  V30 7967 C 753.922 -1.93865 -0.210073 0
M  V30 7968 O 753.192 -1.59673 -1.13496 0
M  V30 7969 H 751.772 -0.595099 0.451516 0
M  V30 7970 H 754.434 -1.0216 1.6598 0
M  V30 7971 H 753.53 -2.54182 1.81102 0
M  V30 7972 N 753.831 -1.1567 -1.07043 0
M  V30 7973 C 755.059 -0.957471 -1.83412 0
M  V30 7974 C 755.474 0.494271 -1.82215 0
M  V30 7975 O 754.831 1.34288 -1.23584 0
M  V30 7976 C 754.882 -1.46784 -3.30359 0
M  V30 7977 O 754.603 -2.86271 -3.31633 0
M  V30 7978 C 756.104 -1.31054 -4.23485 0
M  V30 7979 H 753.324 -0.33986 -0.578564 0
M  V30 7980 H 755.868 -1.53518 -1.35102 0
M  V30 7981 H 754.023 -0.932586 -3.76007 0
M  V30 7982 H 754.437 -3.0948 -4.23465 0
M  V30 7983 H 755.911 -1.71605 -5.24648 0
M  V30 7984 H 756.388 -0.255107 -4.38458 0
M  V30 7985 H 756.994 -1.83503 -3.83676 0
M  V30 7986 N 755.309 1.25446 -0.953992 0
M  V30 7987 C 756.256 2.25912 -0.472485 0
M  V30 7988 C 757.226 1.59173 0.47469 0
M  V30 7989 O 758.411 1.86812 0.388082 0
M  V30 7990 C 755.551 3.44235 0.244218 0
M  V30 7991 C 754.664 4.25613 -0.740121 0
M  V30 7992 C 753.799 5.312 -0.000922267 0
M  V30 7993 C 752.838 6.04265 -0.976236 0
M  V30 7994 N 751.975 7.01589 -0.267952 0
M  V30 7995 H 756.815 2.66469 -1.3341 0
M  V30 7996 H 754.352 1.31005 -0.669045 0
M  V30 7997 H 756.31 4.11682 0.676314 0
M  V30 7998 H 754.94 3.04554 1.06988 0
M  V30 7999 H 753.992 3.57834 -1.2907 0
M  V30 8000 H 755.304 4.762 -1.48441 0
M  V30 8001 H 754.458 6.04719 0.48984 0
M  V30 8002 H 753.197 4.81484 0.776159 0
M  V30 8003 H 752.202 5.29561 -1.478 0
M  V30 8004 H 753.427 6.5607 -1.75354 0
M  V30 8005 H 751.373 6.54164 0.490403 0
M  V30 8006 H 751.29 7.4999 -0.951344 0
M  V30 8007 H 752.558 7.7924 0.201294 0
M  V30 8008 N 756.787 0.722489 1.40064 0
M  V30 8009 C 757.719 0.0349057 2.29173 0
M  V30 8010 C 758.732 -0.716571 1.46182 0
M  V30 8011 O 759.921 -0.562806 1.69395 0
M  V30 8012 C 757.021 -0.974839 3.24577 0
M  V30 8013 C 756.194 -0.287471 4.36454 0
M  V30 8014 C 755.253 -1.20356 5.12251 0
M  V30 8015 O 754.279 -0.685753 5.65054 0
M  V30 8016 N 755.481 -2.53422 5.22262 0
M  V30 8017 H 758.246 0.800058 2.88824 0
M  V30 8018 H 755.807 0.57068 1.51509 0
M  V30 8019 H 757.799 -1.59002 3.72157 0
M  V30 8020 H 756.369 -1.6413 2.66046 0
M  V30 8021 H 755.589 0.508008 3.90913 0
M  V30 8022 H 756.877 0.189382 5.08447 0
M  V30 8023 H 756.275 -2.97981 4.80857 0
M  V30 8024 H 754.832 -3.10067 5.73325 0
M  V30 8025 N 758.265 -1.50454 0.469181 0
M  V30 8026 C 759.195 -2.31353 -0.31592 0
M  V30 8027 C 760.176 -1.38172 -0.992094 0
M  V30 8028 O 761.361 -1.67093 -0.989633 0
M  V30 8029 C 758.491 -3.1786 -1.39937 0
M  V30 8030 C 757.445 -4.19578 -0.844909 0
M  V30 8031 C 756.771 -4.9481 -2.0265 0
M  V30 8032 C 758.071 -5.22106 0.142499 0
M  V30 8033 H 759.765 -2.97237 0.359269 0
M  V30 8034 H 757.311 -1.42942 0.174224 0
M  V30 8035 H 759.264 -3.7325 -1.95607 0
M  V30 8036 H 757.988 -2.49858 -2.1033 0
M  V30 8037 H 756.647 -3.65285 -0.310189 0
M  V30 8038 H 756.295 -4.23282 -2.71737 0
M  V30 8039 H 755.995 -5.63613 -1.66174 0
M  V30 8040 H 757.519 -5.53035 -2.58815 0
M  V30 8041 H 758.933 -5.72378 -0.324966 0
M  V30 8042 H 757.33 -5.98618 0.421441 0
M  V30 8043 H 758.4 -4.7297 1.06901 0
M  V30 8044 N 759.743 -0.201713 -1.56304 0
M  V30 8045 C 760.673 0.71155 -2.22394 0
M  V30 8046 C 761.654 1.21625 -1.18917 0
M  V30 8047 O 762.839 1.26388 -1.47444 0
M  V30 8048 C 759.969 1.92837 -2.88845 0
M  V30 8049 C 758.923 1.55831 -3.98623 0
M  V30 8050 C 758.249 2.85228 -4.52271 0
M  V30 8051 C 759.549 0.763249 -5.16693 0
M  V30 8052 H 761.243 0.160573 -2.98969 0
M  V30 8053 H 758.789 0.0757916 -1.438 0
M  V30 8054 H 760.742 2.57253 -3.33764 0
M  V30 8055 H 759.466 2.50398 -2.09686 0
M  V30 8056 H 758.125 0.9377 -3.54405 0
M  V30 8057 H 757.773 3.40893 -3.69866 0
M  V30 8058 H 757.473 2.6121 -5.26349 0
M  V30 8059 H 758.997 3.50622 -4.99897 0
M  V30 8060 H 760.411 1.31066 -5.58117 0
M  V30 8061 H 758.808 0.620935 -5.96879 0
M  V30 8062 H 759.878 -0.234322 -4.84334 0
M  V30 8063 N 761.222 1.57436 0.0718424 0
M  V30 8064 C 762.499 1.78312 0.804006 0
M  V30 8065 C 762.879 0.789273 1.9579 0
M  V30 8066 O 762.227 -0.177605 2.27809 0
M  V30 8067 C 762.437 3.24798 1.277 0
M  V30 8068 C 763.785 3.88627 1.71039 0
M  V30 8069 O 764.809 3.28689 1.37266 0
M  V30 8070 O 763.668 4.94073 2.33567 0
M  V30 8071 H 760.762 0.73178 0.385262 0
M  V30 8072 H 763.308 1.69621 0.0519219 0
M  V30 8073 H 762.08 3.88688 0.45134 0
M  V30 8074 H 761.703 3.38213 2.0904 0
M  V30 8075 N 762.7 -0.34323 1.53817 0
M  V30 8076 C 763.61 -1.44493 1.84821 0
M  V30 8077 C 764.626 -1.57556 0.738381 0
M  V30 8078 O 765.802 -1.73026 1.03072 0
M  V30 8079 C 762.867 -2.79478 2.05166 0
M  V30 8080 C 761.928 -2.75756 3.29025 0
M  V30 8081 C 761.161 -4.04302 3.4839 0
M  V30 8082 O 761.384 -5.01595 2.71586 0
M  V30 8083 O 760.318 -4.08754 4.41819 0
M  V30 8084 H 764.144 -1.21209 2.78464 0
M  V30 8085 H 761.729 -0.535437 1.39476 0
M  V30 8086 H 763.611 -3.59419 2.19991 0
M  V30 8087 H 762.286 -3.02692 1.14713 0
M  V30 8088 H 761.193 -1.94434 3.19603 0
M  V30 8089 H 762.526 -2.57495 4.19472 0
M  V30 8090 N 764.178 -1.45556 -0.604258 0
M  V30 8091 C 765.424 -1.49968 -1.36519 0
M  V30 8092 C 765.757 -0.142236 -1.93678 0
M  V30 8093 O 765.032 0.843717 -1.75247 0
M  V30 8094 C 765.315 -2.58146 -2.51063 0
M  V30 8095 C 765.168 -4.03346 -1.99078 0
M  V30 8096 C 766.487 -2.62581 -3.53184 0
M  V30 8097 H 763.606 -0.545993 -0.495036 0
M  V30 8098 H 766.248 -1.77382 -0.680845 0
M  V30 8099 H 764.398 -2.34901 -3.09441 0
M  V30 8100 H 766.07 -4.37811 -1.45323 0
M  V30 8101 H 764.313 -4.13845 -1.30055 0
M  V30 8102 H 764.984 -4.74731 -2.81664 0
M  V30 8103 H 767.46 -2.83419 -3.04652 0
M  V30 8104 H 766.336 -3.40131 -4.30816 0
M  V30 8105 H 766.597 -1.67798 -4.09019 0
M  V30 8106 N 765.656 0.84705 -1.32902 0
M  V30 8107 C 766.904 1.5986 -1.2365 0
M  V30 8108 C 767.225 1.93974 0.199789 0
M  V30 8109 O 766.495 1.60273 1.12648 0
M  V30 8110 H 765.075 0.592696 -0.454665 0
M  V30 8111 H 767.737 1.01278 -1.66519 0
M  V30 8112 H 766.833 2.53218 -1.82448 0
M  V30 8113 N 767.134 1.16236 1.06428 0
M  V30 8114 C 768.545 0.950942 1.60667 0
M  V30 8115 C 768.896 -0.505491 1.89576 0
M  V30 8116 O 768.021 -1.37843 1.66818 0
M  V30 8117 C 768.616 1.71982 2.91904 0
M  V30 8118 C 767.175 1.55342 3.4285 0
M  V30 8119 C 766.322 1.72942 2.16763 0
M  V30 8120 H 769.273 1.31126 0.893959 0
M  V30 8121 H 769.294 1.19483 3.61253 0
M  V30 8122 H 768.806 2.77978 2.70831 0
M  V30 8123 H 766.907 0.5178 3.68985 0
M  V30 8124 H 767.02 2.33643 4.18267 0
M  V30 8125 H 765.384 1.15673 2.26918 0
M  V30 8126 H 766.167 2.80324 1.98175 0
M  V30 8127 N 768.612 -1.24939 0.960631 0
M  V30 8128 C 769.559 -2.25658 0.484459 0
M  V30 8129 C 770.529 -1.59422 -0.466242 0
M  V30 8130 O 771.714 -1.87015 -0.378169 0
M  V30 8131 C 768.854 -3.44359 -0.225958 0
M  V30 8132 C 767.967 -4.25214 0.762682 0
M  V30 8133 C 767.102 -5.31192 0.0290931 0
M  V30 8134 C 766.141 -6.03739 1.00827 0
M  V30 8135 N 765.278 -7.01437 0.305155 0
M  V30 8136 H 770.118 -2.65758 1.34821 0
M  V30 8137 H 767.655 -1.30648 0.675983 0
M  V30 8138 H 769.613 -4.12035 -0.654472 0
M  V30 8139 H 768.243 -3.05118 -1.05371 0
M  V30 8140 H 767.295 -3.57144 1.30966 0
M  V30 8141 H 768.607 -4.75406 1.50964 0
M  V30 8142 H 767.761 -6.04971 -0.457763 0
M  V30 8143 H 766.5 -4.81889 -0.750614 0
M  V30 8144 H 765.505 -5.2877 1.50607 0
M  V30 8145 H 766.73 -6.55131 1.7883 0
M  V30 8146 H 764.676 -6.54415 -0.455704 0
M  V30 8147 H 764.593 -7.49475 0.991104 0
M  V30 8148 H 765.861 -7.79336 -0.159966 0
M  V30 8149 N 770.09 -0.729906 -1.39679 0
M  V30 8150 C 771.338 -0.275077 -2.00219 0
M  V30 8151 C 771.659 1.1401 -1.58199 0
M  V30 8152 O 770.929 1.77546 -0.827904 0
M  V30 8153 H 769.509 -0.0987127 -0.740449 0
M  V30 8154 H 772.171 -0.93873 -1.70804 0
M  V30 8155 H 771.267 -0.319446 -3.10461 0
M  V30 8156 N 771.568 1.50203 -0.477153 0
M  V30 8157 C 772.814 2.02658 0.0758507 0
M  V30 8158 C 773.147 1.358 1.38824 0
M  V30 8159 O 772.422 0.485696 1.88338 0
M  V30 8160 C 772.705 3.59208 0.253339 0
M  V30 8161 C 772.558 4.36629 -1.0805 0
M  V30 8162 C 773.877 4.28469 1.00509 0
M  V30 8163 H 770.996 0.736538 0.0260921 0
M  V30 8164 H 773.638 1.79464 -0.623925 0
M  V30 8165 H 771.788 3.79101 0.849378 0
M  V30 8166 H 773.46 4.28292 -1.71358 0
M  V30 8167 H 771.703 4.0013 -1.67566 0
M  V30 8168 H 772.374 5.44449 -0.909883 0
M  V30 8169 H 774.85 4.13087 0.499818 0
M  V30 8170 H 773.726 5.37804 1.09808 0
M  V30 8171 H 773.987 3.92057 2.04314 0
M  V30 8172 N 773.046 0.209999 1.56195 0
M  V30 8173 C 774.009 -0.691232 2.18528 0
M  V30 8174 C 775.009 -1.13013 1.14388 0
M  V30 8175 O 776.199 -1.04081 1.39688 0
M  V30 8176 C 773.331 -1.94551 2.79934 0
M  V30 8177 H 774.524 -0.147953 2.99535 0
M  V30 8178 H 772.077 -0.0396243 1.5625 0
M  V30 8179 H 772.812 -2.53094 2.02766 0
M  V30 8180 H 772.597 -1.63938 3.56184 0
M  V30 8181 H 774.087 -2.58785 3.2775 0
M  V30 8182 N 774.524 -1.57472 -0.0634922 0
M  V30 8183 C 775.434 -2.07621 -1.09227 0
M  V30 8184 C 776.45 -1.00746 -1.41867 0
M  V30 8185 O 777.626 -1.32269 -1.51878 0
M  V30 8186 C 774.691 -2.51707 -2.38421 0
M  V30 8187 C 773.752 -3.72917 -2.12676 0
M  V30 8188 C 772.985 -4.14891 -3.3571 0
M  V30 8189 O 773.208 -3.56663 -4.45137 0
M  V30 8190 O 772.142 -5.07616 -3.23434 0
M  V30 8191 H 775.968 -2.95612 -0.696205 0
M  V30 8192 H 773.553 -1.46787 -0.27819 0
M  V30 8193 H 775.435 -2.80547 -3.14438 0
M  V30 8194 H 774.11 -1.66842 -2.77391 0
M  V30 8195 H 773.017 -3.49148 -1.34337 0
M  V30 8196 H 774.35 -4.5866 -1.78583 0
M  V30 8197 N 776.003 0.335068 -1.53997 0
M  V30 8198 C 777.249 1.07222 -1.72844 0
M  V30 8199 C 777.604 1.86054 -0.490075 0
M  V30 8200 O 776.897 1.84481 0.517416 0
M  V30 8201 C 777.091 2.0364 -2.9371 0
M  V30 8202 C 776.92 1.34287 -4.29182 0
M  V30 8203 C 775.69 1.08417 -4.93532 0
M  V30 8204 C 777.888 0.764703 -5.08583 0
M  V30 8205 N 775.87 0.357342 -6.12859 0
M  V30 8206 C 777.241 0.168876 -6.1977 0
M  V30 8207 C 779.296 0.666383 -4.9342 0
M  V30 8208 C 777.999 -0.515716 -7.17449 0
M  V30 8209 C 780.025 -0.0044859 -5.914 0
M  V30 8210 C 779.387 -0.589305 -7.01931 0
M  V30 8211 H 775.486 0.376448 -0.685427 0
M  V30 8212 H 778.07 0.354778 -1.9144 0
M  V30 8213 H 776.241 2.72668 -2.76599 0
M  V30 8214 H 777.973 2.70256 -3.01237 0
M  V30 8215 H 774.728 1.37351 -4.53246 0
M  V30 8216 H 775.152 0.00840481 -6.76999 0
M  V30 8217 H 779.794 1.10426 -4.08125 0
M  V30 8218 H 777.512 -0.965457 -8.02312 0
M  V30 8219 H 781.098 -0.0800446 -5.81745 0
M  V30 8220 H 779.978 -1.10019 -7.76444 0
M  V30 8221 N 777.481 1.45874 0.596531 0
M  V30 8222 C 778.727 1.5069 1.35722 0
M  V30 8223 C 779.06 0.152506 1.936 0
M  V30 8224 O 778.335 -0.834411 1.75692 0
M  V30 8225 C 778.618 2.59474 2.4969 0
M  V30 8226 C 778.471 4.04396 1.96937 0
M  V30 8227 C 779.79 2.64451 3.51787 0
M  V30 8228 H 776.909 0.548611 0.492133 0
M  V30 8229 H 779.551 1.77741 0.671428 0
M  V30 8230 H 777.701 2.36539 3.08191 0
M  V30 8231 H 779.373 4.38576 1.43 0
M  V30 8232 H 777.616 4.14529 1.27859 0
M  V30 8233 H 778.287 4.76218 2.79143 0
M  V30 8234 H 780.763 2.85031 3.03145 0
M  V30 8235 H 779.639 3.42411 4.29006 0
M  V30 8236 H 779.9 1.69965 4.08123 0
M  V30 8237 N 778.959 -0.83999 1.33349 0
M  V30 8238 C 779.906 -1.94972 1.23509 0
M  V30 8239 C 780.876 -1.65709 0.113967 0
M  V30 8240 O 782.061 -1.88552 0.292045 0
M  V30 8241 C 779.201 -3.30919 0.979105 0
M  V30 8242 C 778.314 -3.72587 2.18639 0
M  V30 8243 C 777.449 -4.97397 1.86465 0
M  V30 8244 C 776.488 -5.31597 3.03432 0
M  V30 8245 N 775.625 -6.47584 2.71254 0
M  V30 8246 H 780.465 -2.0272 2.18423 0
M  V30 8247 H 778.002 -0.992017 1.08616 0
M  V30 8248 H 779.96 -4.09239 0.811126 0
M  V30 8249 H 778.59 -3.22731 0.0667099 0
M  V30 8250 H 777.642 -2.89799 2.46416 0
M  V30 8251 H 778.954 -3.93844 3.06086 0
M  V30 8252 H 778.108 -5.83462 1.66305 0
M  V30 8253 H 776.847 -4.78107 0.96254 0
M  V30 8254 H 775.852 -4.44037 3.24208 0
M  V30 8255 H 777.077 -5.52836 3.94397 0
M  V30 8256 H 775.023 -6.29783 1.836 0
M  V30 8257 H 774.94 -6.68931 3.52231 0
M  V30 8258 H 776.208 -7.36764 2.54558 0
M  V30 8259 N 780.437 -1.16799 -1.0581 0
M  V30 8260 C 781.384 -0.87902 -2.13405 0
M  V30 8261 C 782.354 0.174541 -1.6518 0
M  V30 8262 O 783.539 0.0386843 -1.90761 0
M  V30 8263 C 780.679 -0.391616 -3.42871 0
M  V30 8264 C 779.792 -1.50857 -4.04804 0
M  V30 8265 C 778.927 -0.975682 -5.22163 0
M  V30 8266 C 777.966 -2.06851 -5.76089 0
M  V30 8267 N 777.103 -1.55085 -6.84758 0
M  V30 8268 H 781.943 -1.80043 -2.37463 0
M  V30 8269 H 779.48 -0.898083 -1.16503 0
M  V30 8270 H 781.438 -0.0906247 -4.17102 0
M  V30 8271 H 780.068 0.49284 -3.19016 0
M  V30 8272 H 779.12 -1.92542 -3.28073 0
M  V30 8273 H 780.432 -2.33305 -4.40874 0
M  V30 8274 H 779.586 -0.628165 -6.03439 0
M  V30 8275 H 778.325 -0.120566 -4.87551 0
M  V30 8276 H 777.33 -2.42467 -4.93447 0
M  V30 8277 H 778.555 -2.92768 -6.12751 0
M  V30 8278 H 776.501 -0.718345 -6.52055 0
M  V30 8279 H 776.418 -2.31145 -7.19797 0
M  V30 8280 H 777.686 -1.23206 -7.69702 0
M  V30 8281 N 781.915 1.24427 -0.967243 0
M  V30 8282 C 782.847 2.24641 -0.454856 0
M  V30 8283 C 783.86 1.56849 0.436152 0
M  V30 8284 O 785.049 1.76846 0.242401 0
M  V30 8285 C 782.149 3.36954 0.362672 0
M  V30 8286 C 781.322 4.34318 -0.518324 0
M  V30 8287 C 780.381 5.25638 0.243122 0
M  V30 8288 O 779.407 5.68043 -0.362791 0
M  V30 8289 N 780.609 5.59897 1.53282 0
M  V30 8290 H 783.374 2.69238 -1.31648 0
M  V30 8291 H 780.935 1.38464 -0.839015 0
M  V30 8292 H 782.927 3.95014 0.880094 0
M  V30 8293 H 781.497 2.91646 1.12522 0
M  V30 8294 H 780.717 3.74953 -1.21672 0
M  V30 8295 H 782.005 4.96338 -1.11919 0
M  V30 8296 H 781.403 5.27373 2.04682 0
M  V30 8297 H 779.96 6.20488 1.99594 0
M  V30 8298 N 783.393 0.737304 1.3929 0
M  V30 8299 C 784.67 0.212464 1.94443 0
M  V30 8300 C 785.05 -1.28621 1.67391 0
M  V30 8301 O 784.398 -2.0529 1.00342 0
M  V30 8302 C 784.608 0.548565 3.44662 0
M  V30 8303 C 785.956 0.499177 4.21656 0
M  V30 8304 O 786.98 0.485892 3.5287 0
M  V30 8305 O 785.839 0.495739 5.44247 0
M  V30 8306 H 782.933 0.0395457 0.826054 0
M  V30 8307 H 785.479 0.816319 1.48776 0
M  V30 8308 H 784.251 1.58426 3.57795 0
M  V30 8309 H 783.874 -0.0841399 3.97511 0
M  V30 8310 N 784.871 -1.49948 0.485112 0
M  V30 8311 C 786.148 -1.95186 -0.12726 0
M  V30 8312 C 786.528 -1.42605 -1.5565 0
M  V30 8313 O 785.876 -0.632986 -2.19558 0
M  V30 8314 C 786.086 -3.48955 -0.0562117 0
M  V30 8315 C 787.434 -4.23932 -0.238106 0
M  V30 8316 O 788.458 -3.55955 -0.132145 0
M  V30 8317 O 787.317 -5.44614 -0.453658 0
M  V30 8318 H 784.411 -0.820433 -0.104014 0
M  V30 8319 H 786.957 -1.60659 0.546517 0
M  V30 8320 H 785.729 -3.79814 0.941122 0
M  V30 8321 H 785.352 -3.90056 -0.770834 0
M  V30 8322 N 786.349 -0.21828 -1.56081 0
M  V30 8323 C 787.595 0.414921 -1.9851 0
M  V30 8324 C 787.928 1.59648 -1.10573 0
M  V30 8325 O 787.203 1.93818 -0.162695 0
M  V30 8326 C 787.486 0.852647 -3.4986 0
M  V30 8327 C 787.339 -0.33232 -4.48571 0
M  V30 8328 C 788.658 1.70998 -4.05521 0
M  V30 8329 H 785.777 0.149344 -0.72171 0
M  V30 8330 H 788.419 -0.313858 -1.8739 0
M  V30 8331 H 786.569 1.47362 -3.59467 0
M  V30 8332 H 788.241 -0.970418 -4.50977 0
M  V30 8333 H 786.484 -0.980302 -4.22578 0
M  V30 8334 H 787.155 0.0168407 -5.51997 0
M  V30 8335 H 789.631 1.18606 -3.98838 0
M  V30 8336 H 788.507 1.98517 -5.11744 0
M  V30 8337 H 788.768 2.67219 -3.52202 0
M  V30 8338 N 787.827 1.57504 0.0551401 0
M  V30 8339 C 788.757 2.07864 1.06372 0
M  V30 8340 C 789.738 0.975565 1.39344 0
M  V30 8341 O 790.923 1.24929 1.48682 0
M  V30 8342 C 788.053 2.53643 2.3724 0
M  V30 8343 C 787.007 3.67978 2.18578 0
M  V30 8344 C 786.333 3.9987 3.54976 0
M  V30 8345 C 787.633 4.97405 1.59329 0
M  V30 8346 H 789.327 2.92379 0.644595 0
M  V30 8347 H 786.873 1.40654 0.308619 0
M  V30 8348 H 788.826 2.8749 3.08103 0
M  V30 8349 H 787.55 1.66177 2.81163 0
M  V30 8350 H 786.209 3.3444 1.50152 0
M  V30 8351 H 785.857 3.0951 3.965 0
M  V30 8352 H 785.557 4.76867 3.43324 0
M  V30 8353 H 787.081 4.36228 4.27244 0
M  V30 8354 H 788.495 5.29375 2.20078 0
M  V30 8355 H 786.892 5.78837 1.58327 0
M  V30 8356 H 787.962 4.81697 0.55638 0
M  V30 8357 N 789.305 -0.326896 1.54172 0
M  V30 8358 C 790.235 -1.40741 1.86317 0
M  V30 8359 C 791.216 -1.54125 0.719684 0
M  V30 8360 O 792.401 -1.6806 0.973117 0
M  V30 8361 C 789.531 -2.77557 2.08757 0
M  V30 8362 C 788.485 -2.78965 3.24596 0
M  V30 8363 C 787.811 -4.18824 3.32401 0
M  V30 8364 C 789.111 -2.4301 4.62324 0
M  V30 8365 H 790.805 -1.14088 2.76811 0
M  V30 8366 H 788.351 -0.547389 1.3319 0
M  V30 8367 H 790.304 -3.53209 2.29829 0
M  V30 8368 H 789.028 -3.0568 1.15009 0
M  V30 8369 H 787.687 -2.05767 3.03406 0
M  V30 8370 H 787.335 -4.44083 2.36218 0
M  V30 8371 H 787.035 -4.20673 4.10253 0
M  V30 8372 H 788.559 -4.96294 3.55703 0
M  V30 8373 H 789.973 -3.08375 4.83299 0
M  V30 8374 H 788.37 -2.56116 5.42701 0
M  V30 8375 H 789.44 -1.38165 4.64799 0
M  V30 8376 N 790.784 -1.46188 -0.588786 0
M  V30 8377 C 792.012 -1.54743 -1.37339 0
M  V30 8378 C 792.427 -0.186446 -1.87877 0
M  V30 8379 O 791.784 0.815247 -1.63279 0
M  V30 8380 C 791.835 -2.54727 -2.56508 0
M  V30 8381 O 791.556 -3.85539 -2.08066 0
M  V30 8382 C 793.057 -2.73163 -3.49137 0
M  V30 8383 H 790.277 -0.523484 -0.419768 0
M  V30 8384 H 792.821 -1.91543 -0.716345 0
M  V30 8385 H 790.976 -2.20948 -3.18215 0
M  V30 8386 H 791.39 -4.39905 -2.85629 0
M  V30 8387 H 792.864 -3.47057 -4.2925 0
M  V30 8388 H 793.341 -1.79856 -4.00685 0
M  V30 8389 H 793.947 -3.08014 -2.9327 0
M  V30 8390 N 792.262 0.832906 -1.33792 0
M  V30 8391 C 793.539 1.57359 -1.16178 0
M  V30 8392 C 793.919 2.09372 0.269532 0
M  V30 8393 O 793.267 1.89993 1.26944 0
M  V30 8394 C 793.477 2.70279 -2.20795 0
M  V30 8395 C 794.825 3.39305 -2.55259 0
M  V30 8396 O 795.849 2.80526 -2.19508 0
M  V30 8397 O 794.708 4.45428 -3.16632 0
M  V30 8398 H 791.802 0.694025 -0.449731 0
M  V30 8399 H 794.348 0.875144 -1.45394 0
M  V30 8400 H 793.12 2.29527 -3.16911 0
M  V30 8401 H 792.743 3.47782 -1.927 0
M  V30 8402 N 793.74 1.17359 1.05189 0
M  V30 8403 C 794.968 0.986529 1.81866 0
M  V30 8404 C 795.383 -0.46522 1.82979 0
M  V30 8405 O 794.74 -1.32305 1.25705 0
M  V30 8406 C 794.791 1.52021 3.27982 0
M  V30 8407 O 794.512 2.91511 3.27037 0
M  V30 8408 C 796.013 1.37774 4.21347 0
M  V30 8409 H 793.233 0.349021 0.573084 0
M  V30 8410 H 795.777 1.55648 1.32643 0
M  V30 8411 H 793.932 0.992287 3.74476 0
M  V30 8412 H 794.346 3.16178 4.18488 0
M  V30 8413 H 795.82 1.7993 5.21852 0
M  V30 8414 H 796.297 0.32483 4.37997 0
M  V30 8415 H 796.903 1.89583 3.80708 0
M  V30 8416 N 795.218 -1.23913 0.973828 0
M  V30 8417 C 796.446 -1.96195 0.656891 0
M  V30 8418 C 796.861 -1.72166 -0.774876 0
M  V30 8419 O 796.218 -1.0091 -1.52064 0
M  V30 8420 C 796.269 -3.49342 0.929638 0
M  V30 8421 O 795.99 -3.72553 2.30512 0
M  V30 8422 C 797.491 -4.38833 0.627739 0
M  V30 8423 H 794.711 -0.624841 0.244572 0
M  V30 8424 H 797.255 -1.57579 1.30343 0
M  V30 8425 H 795.41 -3.85999 0.329216 0
M  V30 8426 H 795.824 -4.66893 2.3898 0
M  V30 8427 H 797.298 -5.45117 0.868991 0
M  V30 8428 H 797.775 -4.37009 -0.438104 0
M  V30 8429 H 798.381 -4.07773 1.20834 0
M  V30 8430 N 796.696 -0.74468 -1.38897 0
M  V30 8431 C 797.943 -0.296884 -2.00312 0
M  V30 8432 C 798.271 1.11878 -1.59102 0
M  V30 8433 O 797.526 1.7789 -0.815702 0
M  V30 8434 C 797.825 -0.357302 -3.55609 0
M  V30 8435 C 797.491 -1.72736 -4.16501 0
M  V30 8436 C 796.153 -2.10232 -4.32846 0
M  V30 8437 C 798.505 -2.62647 -4.50184 0
M  V30 8438 C 795.833 -3.3713 -4.80167 0
M  V30 8439 C 798.185 -3.88926 -4.98918 0
M  V30 8440 C 796.849 -4.26503 -5.1347 0
M  V30 8441 H 796.119 -0.108638 -0.732993 0
M  V30 8442 H 798.766 -0.953419 -1.66079 0
M  V30 8443 H 797.071 0.382805 -3.89925 0
M  V30 8444 H 798.768 0.0074596 -4.00999 0
M  V30 8445 H 795.358 -1.42585 -4.04187 0
M  V30 8446 H 799.542 -2.34945 -4.37166 0
M  V30 8447 H 794.798 -3.66174 -4.89619 0
M  V30 8448 H 798.972 -4.58745 -5.23952 0
M  V30 8449 H 796.599 -5.24896 -5.49898 0
M  V30 8450 N 798.174 1.49689 -0.493057 0
M  V30 8451 C 799.59 1.58907 -0.148526 0
M  V30 8452 C 799.79 1.4991 1.34645 0
M  V30 8453 O 798.846 1.36893 2.12171 0
M  V30 8454 C 800.159 2.91996 -0.718265 0
M  V30 8455 C 801.707 3.05443 -0.683658 0
M  V30 8456 C 802.182 4.41138 -1.23132 0
M  V30 8457 N 803.673 4.47608 -1.19167 0
M  V30 8458 C 804.408 5.51038 -1.5857 0
M  V30 8459 N 803.904 6.61612 -2.05528 0
M  V30 8460 N 805.697 5.41706 -1.50036 0
M  V30 8461 H 797.848 1.5378 -1.46511 0
M  V30 8462 H 800.111 0.727996 -0.607228 0
M  V30 8463 H 799.817 3.04123 -1.7664 0
M  V30 8464 H 799.691 3.76798 -0.17419 0
M  V30 8465 H 802.078 2.92949 0.355626 0
M  V30 8466 H 802.159 2.22344 -1.26479 0
M  V30 8467 H 801.803 4.54382 -2.26935 0
M  V30 8468 H 801.733 5.22864 -0.626201 0
M  V30 8469 H 804.224 3.68274 -0.847524 0
M  V30 8470 H 804.537 7.36622 -2.33685 0
M  V30 8471 H 802.882 6.62674 -2.09497 0
M  V30 8472 H 806.073 4.54212 -1.13176 0
M  V30 8473 H 806.246 6.22188 -1.81068 0
M  V30 8474 N 799.652 0.226554 1.55963 0
M  V30 8475 C 800.929 -0.453058 1.90281 0
M  V30 8476 C 801.309 -1.77377 1.14458 0
M  V30 8477 O 800.657 -2.27067 0.255496 0
M  V30 8478 C 800.867 -0.641108 3.43061 0
M  V30 8479 C 802.215 -0.946265 4.13921 0
M  V30 8480 O 803.239 -0.727713 3.48687 0
M  V30 8481 O 802.098 -1.36131 5.29274 0
M  V30 8482 H 799.192 -0.240242 0.791336 0
M  V30 8483 H 801.738 0.26911 1.67553 0
M  V30 8484 H 800.51 0.290283 3.90222 0
M  V30 8485 H 800.133 -1.41458 3.71585 0
M  V30 8486 N 801.13 -1.57531 -0.0467866 0
M  V30 8487 C 802.093 -2.04379 -1.03738 0
M  V30 8488 C 803.093 -0.944881 -1.3011 0
M  V30 8489 O 804.283 -1.20904 -1.25411 0
M  V30 8490 C 801.415 -2.44572 -2.37482 0
M  V30 8491 H 802.608 -2.93142 -0.633063 0
M  V30 8492 H 800.161 -1.53526 -0.293177 0
M  V30 8493 H 800.896 -1.58911 -2.82697 0
M  V30 8494 H 800.681 -3.24785 -2.19675 0
M  V30 8495 H 802.171 -2.81307 -3.08636 0
M  V30 8496 N 802.608 0.318715 -1.54344 0
M  V30 8497 C 803.558 1.39364 -1.80448 0
M  V30 8498 C 804.542 1.46708 -0.660728 0
M  V30 8499 O 805.734 1.51159 -0.920869 0
M  V30 8500 C 802.863 2.76144 -2.03959 0
M  V30 8501 C 801.949 2.73094 -3.24469 0
M  V30 8502 N 802.34 2.39663 -4.45416 0
M  V30 8503 C 800.638 3.04218 -3.2614 0
M  V30 8504 C 801.339 2.45469 -5.27371 0
M  V30 8505 N 800.315 2.82107 -4.64668 0
M  V30 8506 H 804.117 1.12453 -2.71535 0
M  V30 8507 H 801.631 0.527221 -1.53604 0
M  V30 8508 H 803.628 3.53627 -2.20802 0
M  V30 8509 H 802.288 3.03982 -1.14129 0
M  V30 8510 H 803.299 2.12424 -4.72331 0
M  V30 8511 H 799.976 3.37066 -2.4636 0
M  V30 8512 H 801.366 2.22571 -6.33965 0
M  V30 8513 N 804.086 1.46499 0.581025 0
M  V30 8514 C 805.018 1.53225 1.70455 0
M  V30 8515 C 806.031 0.420443 1.57277 0
M  V30 8516 O 807.22 0.688888 1.64671 0
M  V30 8517 C 804.32 1.39803 3.08721 0
M  V30 8518 C 803.493 2.65132 3.47884 0
M  V30 8519 C 802.552 2.45886 4.65217 0
M  V30 8520 O 801.578 3.19615 4.70993 0
M  V30 8521 N 802.78 1.5216 5.60203 0
M  V30 8522 H 805.545 2.50098 1.65139 0
M  V30 8523 H 803.106 1.42576 0.76705 0
M  V30 8524 H 805.098 1.24697 3.8501 0
M  V30 8525 H 803.668 0.51104 3.08394 0
M  V30 8526 H 802.888 2.95169 2.61284 0
M  V30 8527 H 804.176 3.48385 3.70817 0
M  V30 8528 H 803.574 0.913646 5.58273 0
M  V30 8529 H 802.131 1.43017 6.35916 0
M  V30 8530 N 805.565 -0.825799 1.34232 0
M  V30 8531 C 806.79 -1.61883 1.29648 0
M  V30 8532 C 807.215 -1.87669 -0.127295 0
M  V30 8533 O 806.573 -1.45016 -1.08813 0
M  V30 8534 C 806.621 -2.93846 2.09014 0
M  V30 8535 O 805.725 -3.85778 1.4577 0
M  V30 8536 H 805.066 -0.492454 0.445405 0
M  V30 8537 H 807.596 -1.02641 1.76992 0
M  V30 8538 H 807.606 -3.43435 2.20264 0
M  V30 8539 H 806.281 -2.74401 3.12533 0
M  V30 8540 H 804.858 -3.4429 1.43245 0
M  V30 8541 N 807.043 -1.17915 -1.04565 0
M  V30 8542 C 807.973 -0.925033 -2.14395 0
M  V30 8543 C 808.954 0.135375 -1.6956 0
M  V30 8544 O 810.139 -0.0161774 -1.94193 0
M  V30 8545 C 807.269 -0.444469 -3.44444 0
M  V30 8546 C 806.223 -1.44478 -4.02877 0
M  V30 8547 C 805.549 -0.821933 -5.28345 0
M  V30 8548 C 806.849 -2.81995 -4.39632 0
M  V30 8549 H 808.543 -1.84354 -2.35911 0
M  V30 8550 H 806.089 -0.887806 -1.13375 0
M  V30 8551 H 808.042 -0.254078 -4.20633 0
M  V30 8552 H 806.766 0.509592 -3.226 0
M  V30 8553 H 805.425 -1.62203 -3.28764 0
M  V30 8554 H 805.073 0.139161 -5.02807 0
M  V30 8555 H 804.773 -1.48976 -5.68401 0
M  V30 8556 H 806.297 -0.641959 -6.07216 0
M  V30 8557 H 807.711 -2.67952 -5.06828 0
M  V30 8558 H 806.108 -3.45414 -4.90723 0
M  V30 8559 H 807.178 -3.35927 -3.49687 0
M  V30 8560 N 808.521 1.23394 -0.980386 0
M  V30 8561 C 809.451 2.2717 -0.540024 0
M  V30 8562 C 810.432 1.64659 0.426787 0
M  V30 8563 O 811.617 1.91543 0.320153 0
M  V30 8564 C 808.747 3.46939 0.15836 0
M  V30 8565 C 807.701 4.21802 -0.725732 0
M  V30 8566 C 807.027 5.34597 0.104866 0
M  V30 8567 C 808.327 4.81802 -2.01654 0
M  V30 8568 H 810.021 2.64257 -1.40743 0
M  V30 8569 H 807.567 1.2703 -0.678193 0
M  V30 8570 H 809.52 4.18683 0.477737 0
M  V30 8571 H 808.244 3.08912 1.06022 0
M  V30 8572 H 806.903 3.51875 -1.02857 0
M  V30 8573 H 806.551 4.92812 1.00726 0
M  V30 8574 H 806.251 5.85607 -0.483557 0
M  V30 8575 H 807.775 6.09163 0.418624 0
M  V30 8576 H 809.189 5.45554 -1.76193 0
M  V30 8577 H 807.586 5.43098 -2.55273 0
M  V30 8578 H 808.656 4.02549 -2.70338 0
M  V30 8579 N 809.999 0.752036 1.385 0
M  V30 8580 C 810.962 0.131587 2.28822 0
M  V30 8581 C 811.962 -0.649149 1.47115 0
M  V30 8582 O 813.152 -0.475645 1.67581 0
M  V30 8583 C 810.284 -0.822101 3.30839 0
M  V30 8584 H 811.477 0.927551 2.85196 0
M  V30 8585 H 809.03 0.518945 1.47434 0
M  V30 8586 H 809.765 -1.6438 2.79553 0
M  V30 8587 H 809.55 -0.264689 3.91206 0
M  V30 8588 H 811.04 -1.25226 3.98382 0
M  V30 8589 N 811.477 -1.49425 0.500989 0
M  V30 8590 C 812.705 -2.06861 -0.0403443 0
M  V30 8591 C 813.12 -1.36132 -1.30819 0
M  V30 8592 O 812.477 -0.439647 -1.77125 0
M  V30 8593 C 812.528 -3.6027 -0.297902 0
M  V30 8594 O 812.249 -4.28338 0.919686 0
M  V30 8595 C 813.75 -4.34419 -0.882876 0
M  V30 8596 H 810.97 -0.670688 0.0204619 0
M  V30 8597 H 813.514 -1.92207 0.698342 0
M  V30 8598 H 811.669 -3.74627 -0.98657 0
M  V30 8599 H 812.083 -5.2004 0.682528 0
M  V30 8600 H 813.557 -5.42631 -1.01268 0
M  V30 8601 H 814.034 -3.96898 -1.88066 0
M  V30 8602 H 814.64 -4.24669 -0.231677 0
M  V30 8603 N 812.955 -0.234822 -1.55841 0
M  V30 8604 C 814.371 0.120295 -1.59146 0
M  V30 8605 C 814.571 1.57896 -1.25184 0
M  V30 8606 O 813.627 2.32138 -0.993393 0
M  V30 8607 C 814.94 -0.217984 -2.99909 0
M  V30 8608 C 816.488 -0.161298 -3.12584 0
M  V30 8609 C 816.963 -0.473438 -4.55546 0
M  V30 8610 N 818.454 -0.423494 -4.6126 0
M  V30 8611 C 819.189 -0.638334 -5.69836 0
M  V30 8612 N 818.685 -0.915659 -6.86722 0
M  V30 8613 N 820.478 -0.569864 -5.59204 0
M  V30 8614 H 812.629 -1.18622 -1.76189 0
M  V30 8615 H 814.892 -0.476426 -0.819587 0
M  V30 8616 H 814.598 -1.2309 -3.29457 0
M  V30 8617 H 814.472 0.460707 -3.74376 0
M  V30 8618 H 816.859 0.842274 -2.82825 0
M  V30 8619 H 816.94 -0.873661 -2.40418 0
M  V30 8620 H 816.584 -1.47451 -4.86025 0
M  V30 8621 H 816.514 0.260268 -5.25956 0
M  V30 8622 H 819.005 -0.217383 -3.77274 0
M  V30 8623 H 819.318 -1.06734 -7.65394 0
M  V30 8624 H 817.663 -0.953 -6.88435 0
M  V30 8625 H 820.854 -0.35334 -4.66765 0
M  V30 8626 H 821.027 -0.740698 -6.43753 0
M  V30 8627 N 814.433 1.57553 0.0384317 0
M  V30 8628 C 815.679 1.89121 0.732199 0
M  V30 8629 C 816.012 0.831404 1.75503 0
M  V30 8630 O 815.287 -0.154642 1.93884 0
M  V30 8631 C 815.57 3.31338 1.41021 0
M  V30 8632 C 815.423 4.48004 0.401532 0
M  V30 8633 C 816.742 3.72318 2.34665 0
M  V30 8634 H 813.861 0.687819 0.264715 0
M  V30 8635 H 816.503 1.89999 -0.00496279 0
M  V30 8636 H 814.653 3.3072 2.03854 0
M  V30 8637 H 816.325 4.60755 -0.224159 0
M  V30 8638 H 814.568 4.32895 -0.280092 0
M  V30 8639 H 815.239 5.44377 0.91423 0
M  V30 8640 H 817.715 3.74243 1.81883 0
M  V30 8641 H 816.591 4.72652 2.7909 0
M  V30 8642 H 816.852 3.04062 3.20934 0
M  V30 8643 N 815.911 -0.310526 1.54511 0
M  V30 8644 C 817.327 -0.655637 1.45511 0
M  V30 8645 C 817.527 -1.91114 0.638564 0
M  V30 8646 O 816.583 -2.52098 0.142497 0
M  V30 8647 C 817.896 -0.817501 2.89374 0
M  V30 8648 C 819.444 -0.914003 2.99358 0
M  V30 8649 C 819.919 -1.10794 4.44397 0
M  V30 8650 N 821.41 -1.17437 4.48066 0
M  V30 8651 C 822.145 -1.34255 5.57461 0
M  V30 8652 N 821.641 -1.48032 6.768 0
M  V30 8653 N 823.434 -1.37067 5.45132 0
M  V30 8654 H 815.585 0.514506 2.06074 0
M  V30 8655 H 817.848 0.168478 0.932909 0
M  V30 8656 H 817.554 0.034003 3.51684 0
M  V30 8657 H 817.428 -1.7094 3.36243 0
M  V30 8658 H 819.815 -1.756 2.37168 0
M  V30 8659 H 819.896 0.00170958 2.558 0
M  V30 8660 H 819.54 -0.270743 5.07178 0
M  V30 8661 H 819.47 -2.03773 4.85576 0
M  V30 8662 H 821.961 -1.08181 3.62084 0
M  V30 8663 H 822.274 -1.60593 7.5593 0
M  V30 8664 H 820.619 -1.45105 6.79683 0
M  V30 8665 H 823.81 -1.25909 4.50849 0
M  V30 8666 H 823.983 -1.49831 6.3044 0
M  V30 8667 N 817.389 -1.46805 -0.573248 0
M  V30 8668 C 818.617 -1.56191 -1.3569 0
M  V30 8669 C 819.032 -0.206362 -1.87669 0
M  V30 8670 O 818.389 0.797883 -1.64134 0
M  V30 8671 C 818.44 -2.57433 -2.53792 0
M  V30 8672 O 818.161 -3.87724 -2.03965 0
M  V30 8673 C 819.662 -2.76851 -3.4622 0
M  V30 8674 H 816.882 -0.527907 -0.414192 0
M  V30 8675 H 819.426 -1.92292 -0.695989 0
M  V30 8676 H 817.581 -2.24311 -3.15854 0
M  V30 8677 H 817.995 -4.42909 -2.80948 0
M  V30 8678 H 819.469 -3.5159 -4.25545 0
M  V30 8679 H 819.946 -1.84095 -3.98755 0
M  V30 8680 H 820.552 -3.11107 -2.89987 0
M  V30 8681 N 818.867 0.818669 -1.34668 0
M  V30 8682 C 819.814 1.92983 -1.26595 0
M  V30 8683 C 820.784 1.65506 -0.140315 0
M  V30 8684 O 821.969 1.88063 -0.322005 0
M  V30 8685 C 819.109 3.2932 -1.03163 0
M  V30 8686 C 818.222 3.69061 -2.24539 0
M  V30 8687 C 817.357 4.94368 -1.94355 0
M  V30 8688 C 816.396 5.26702 -3.11851 0
M  V30 8689 N 815.533 6.43187 -2.81522 0
M  V30 8690 H 820.373 1.99219 -2.2162 0
M  V30 8691 H 817.91 0.974612 -1.1018 0
M  V30 8692 H 819.868 4.07897 -0.87613 0
M  V30 8693 H 818.498 3.22584 -0.118045 0
M  V30 8694 H 817.55 2.85842 -2.50995 0
M  V30 8695 H 818.862 3.88924 -3.12313 0
M  V30 8696 H 818.016 5.80742 -1.75566 0
M  V30 8697 H 816.755 4.76515 -1.03848 0
M  V30 8698 H 815.76 4.38823 -3.31231 0
M  V30 8699 H 816.985 5.46492 -4.03142 0
M  V30 8700 H 814.931 6.26783 -1.93596 0
M  V30 8701 H 814.848 6.63243 -3.62829 0
M  V30 8702 H 816.116 7.32621 -2.66247 0
M  V30 8703 N 820.346 1.18468 1.03938 0
M  V30 8704 C 821.623 0.890435 1.74157 0
M  V30 8705 C 822.003 -0.606409 2.02203 0
M  V30 8706 O 821.351 -1.5615 1.66822 0
M  V30 8707 C 821.561 1.73906 3.02585 0
M  V30 8708 C 822.909 1.96686 3.76297 0
M  V30 8709 O 823.933 1.70969 3.12487 0
M  V30 8710 O 822.792 2.39986 4.90988 0
M  V30 8711 H 819.886 0.330889 0.757919 0
M  V30 8712 H 822.432 1.29228 1.09992 0
M  V30 8713 H 821.204 2.75369 2.78006 0
M  V30 8714 H 820.827 1.33581 3.74489 0
M  V30 8715 N 821.824 -1.22873 0.986916 0
M  V30 8716 C 822.757 -2.23154 0.477245 0
M  V30 8717 C 823.735 -1.55981 -0.459206 0
M  V30 8718 O 824.919 -1.84503 -0.386141 0
M  V30 8719 C 822.046 -3.37289 -0.308838 0
M  V30 8720 C 821.092 -4.22637 0.572717 0
M  V30 8721 S 821.925 -4.95758 2.02446 0
M  V30 8722 C 823.081 -6.13338 1.2477 0
M  V30 8723 H 823.314 -2.6604 1.32702 0
M  V30 8724 H 820.847 -1.32455 0.793415 0
M  V30 8725 H 822.805 -4.03472 -0.756351 0
M  V30 8726 H 821.466 -2.92922 -1.13381 0
M  V30 8727 H 820.659 -5.0399 -0.0318024 0
M  V30 8728 H 820.261 -3.61555 0.956746 0
M  V30 8729 H 822.553 -6.7556 0.51231 0
M  V30 8730 H 823.496 -6.78189 2.03629 0
M  V30 8731 H 823.904 -5.59311 0.763622 0
M  V30 8732 N 823.302 -0.75937 -1.38099 0
M  V30 8733 C 824.551 -0.314864 -1.99227 0
M  V30 8734 C 824.864 1.1113 -1.60964 0
M  V30 8735 O 826.07 1.65657 -2.15105 0
M  V30 8736 C 824.526 -0.512001 -3.56239 0
M  V30 8737 C 824.134 -1.94762 -4.0345 0
M  V30 8738 C 825.878 -0.130497 -4.24299 0
M  V30 8739 C 823.785 -2.09301 -5.53125 0
M  V30 8740 H 822.715 -0.113978 -0.745335 0
M  V30 8741 H 825.366 -0.936736 -1.57789 0
M  V30 8742 H 823.748 0.179144 -3.95595 0
M  V30 8743 H 824.922 -2.67271 -3.75371 0
M  V30 8744 H 823.237 -2.28457 -3.48133 0
M  V30 8745 H 825.834 -0.21781 -5.34256 0
M  V30 8746 H 826.177 0.917644 -4.0606 0
M  V30 8747 H 826.71 -0.773716 -3.90203 0
M  V30 8748 H 823.449 -3.1239 -5.76275 0
M  V30 8749 H 822.969 -1.41261 -5.82928 0
M  V30 8750 H 824.648 -1.88571 -6.1891 0
M  V30 8751 N 824.78 1.49157 -0.508906 0
M  V30 8752 C 825.728 2.30922 0.278906 0
M  V30 8753 C 826.722 1.39889 0.955382 0
M  V30 8754 O 827.928 1.56901 0.882169 0
M  V30 8755 H 824.303 0.744087 0.108805 0
M  V30 8756 H 826.274 2.95277 -0.430583 0
M  V30 8757 C 825.023 3.21432 1.32576 0
M  V30 8758 H 824.346 3.91413 0.814634 0
M  V30 8759 H 825.786 3.81568 1.84882 0
M  V30 8760 C 824.245 2.41583 2.34817 0
M  V30 8761 O 824.775 2.1256 3.40854 0
M  V30 8762 N 822.981 2.03462 2.07489 0
M  V30 8763 H 822.528 2.27265 1.21278 0
M  V30 8764 H 822.486 1.50345 2.76123 0
M  V30 8765 N 826.258 0.243083 1.55714 0
M  V30 8766 C 827.507 -0.383188 1.98027 0
M  V30 8767 C 827.82 -1.59347 1.13436 0
M  V30 8768 O 829.026 -2.29065 1.45745 0
M  V30 8769 C 827.482 -0.733135 3.52354 0
M  V30 8770 C 827.09 0.455539 4.45678 0
M  V30 8771 C 828.834 -1.32381 4.03331 0
M  V30 8772 C 826.741 0.0819591 5.91343 0
M  V30 8773 H 825.671 -0.146944 0.739543 0
M  V30 8774 H 828.322 0.342697 1.80272 0
M  V30 8775 H 826.704 -1.51704 3.65789 0
M  V30 8776 H 827.878 1.23291 4.44 0
M  V30 8777 H 826.193 0.960886 4.05162 0
M  V30 8778 H 828.79 -1.61658 5.09677 0
M  V30 8779 H 829.133 -2.24698 3.50452 0
M  V30 8780 H 829.666 -0.602885 3.93205 0
M  V30 8781 H 826.405 0.972171 6.48251 0
M  V30 8782 H 825.925 -0.659291 5.96166 0
M  V30 8783 H 827.604 -0.3372 6.46121 0
M  V30 8784 N 827.736 -1.57571 -0.0300757 0
M  V30 8785 C 828.699 -2.05468 -1.01565 0
M  V30 8786 C 829.699 -0.958628 -1.29101 0
M  V30 8787 O 830.889 -1.22228 -1.24121 0
M  V30 8788 C 828.021 -2.47077 -2.34874 0
M  V30 8789 H 829.214 -2.93797 -0.601936 0
M  V30 8790 H 826.767 -1.53828 -0.276878 0
M  V30 8791 H 827.502 -1.61901 -2.80996 0
M  V30 8792 H 827.287 -3.27097 -2.16218 0
M  V30 8793 H 828.777 -2.84564 -3.05635 0
M  V30 8794 N 829.214 0.302327 -1.54673 0
M  V30 8795 C 830.439 1.06103 -1.78205 0
M  V30 8796 C 830.864 1.80204 -0.53926 0
M  V30 8797 O 830.222 1.73975 0.510142 0
M  V30 8798 C 830.27 2.01829 -2.98827 0
M  V30 8799 O 829.374 3.10108 -2.71858 0
M  V30 8800 H 828.715 0.30487 -0.589873 0
M  V30 8801 H 831.245 0.340153 -2.01753 0
M  V30 8802 H 831.255 2.44319 -3.2676 0
M  V30 8803 H 829.93 1.473 -3.88942 0
M  V30 8804 H 828.507 2.72142 -2.54937 0
M  V30 8805 N 830.692 1.47107 0.565454 0
M  V30 8806 C 831.639 1.58974 1.6732 0
M  V30 8807 C 832.609 0.433146 1.60353 0
M  V30 8808 O 833.794 0.652141 1.79309 0
M  V30 8809 C 830.934 1.60224 3.05651 0
M  V30 8810 C 830.047 2.86741 3.23116 0
M  V30 8811 C 829.182 2.79381 4.51796 0
M  V30 8812 C 828.221 4.0076 4.62664 0
M  V30 8813 N 827.358 3.91685 5.8269 0
M  V30 8814 H 832.198 2.53588 1.56515 0
M  V30 8815 H 829.735 1.25791 0.762558 0
M  V30 8816 H 831.693 1.58933 3.85741 0
M  V30 8817 H 830.323 0.691285 3.15311 0
M  V30 8818 H 829.375 2.97936 2.36513 0
M  V30 8819 H 830.687 3.7665 3.27011 0
M  V30 8820 H 829.841 2.76293 5.40136 0
M  V30 8821 H 828.58 1.87142 4.50366 0
M  V30 8822 H 827.585 4.04162 3.72738 0
M  V30 8823 H 828.81 4.94117 4.6586 0
M  V30 8824 H 826.756 3.02243 5.82224 0
M  V30 8825 H 826.673 4.75264 5.87929 0
M  V30 8826 H 827.941 3.92599 6.73414 0
M  V30 8827 N 832.17 -0.811516 1.35101 0
M  V30 8828 C 833.398 -1.59981 1.31201 0
M  V30 8829 C 833.813 -1.8847 -0.111552 0
M  V30 8830 O 833.17 -1.48414 -1.06205 0
M  V30 8831 C 833.221 -2.934 2.11184 0
M  V30 8832 O 832.942 -2.66148 3.4799 0
M  V30 8833 C 834.443 -3.87776 2.14813 0
M  V30 8834 H 831.663 -0.496921 0.450899 0
M  V30 8835 H 834.207 -1.00886 1.77883 0
M  V30 8836 H 832.362 -3.49022 1.68115 0
M  V30 8837 H 832.776 -3.51301 3.89471 0
M  V30 8838 H 834.25 -4.7852 2.75178 0
M  V30 8839 H 834.727 -4.23997 1.14556 0
M  V30 8840 H 835.333 -3.3809 2.58022 0
M  V30 8841 N 833.648 -1.19017 -1.03309 0
M  V30 8842 C 834.611 -0.926076 -2.09658 0
M  V30 8843 C 835.611 0.0917077 -1.60538 0
M  V30 8844 O 836.801 -0.142574 -1.73616 0
M  V30 8845 C 833.933 -0.390958 -3.38651 0
M  V30 8846 H 835.126 -1.86923 -2.3452 0
M  V30 8847 H 832.679 -1.00325 -1.19853 0
M  V30 8848 H 833.414 0.558446 -3.19456 0
M  V30 8849 H 833.199 -1.12474 -3.75622 0
M  V30 8850 H 834.689 -0.225131 -4.16993 0
M  V30 8851 N 835.127 1.22348 -0.993418 0
M  V30 8852 C 836.404 1.86632 -0.585495 0
M  V30 8853 C 836.784 1.89156 0.937187 0
M  V30 8854 O 836.132 1.38247 1.81934 0
M  V30 8855 C 836.342 3.27481 -1.20652 0
M  V30 8856 C 837.69 4.03971 -1.30738 0
M  V30 8857 O 838.714 3.3675 -1.16096 0
M  V30 8858 O 837.573 5.24302 -1.54173 0
M  V30 8859 H 834.667 0.802704 -0.198984 0
M  V30 8860 H 837.213 1.30122 -1.08933 0
M  V30 8861 H 835.985 3.20281 -2.24802 0
M  V30 8862 H 835.608 3.91597 -0.688312 0
M  V30 8863 N 836.605 0.766683 1.37694 0
M  V30 8864 C 837.851 0.329201 2.0011 0
M  V30 8865 C 838.184 -1.09004 1.60723 0
M  V30 8866 O 837.459 -1.74895 0.850989 0
M  V30 8867 C 837.742 0.466989 3.57059 0
M  V30 8868 C 837.595 1.92828 4.06371 0
M  V30 8869 C 838.914 -0.131792 4.39903 0
M  V30 8870 H 836.033 0.12109 0.726984 0
M  V30 8871 H 838.675 0.968779 1.63446 0
M  V30 8872 H 836.825 -0.0775023 3.88423 0
M  V30 8873 H 838.497 2.53208 3.85595 0
M  V30 8874 H 836.74 2.43884 3.58752 0
M  V30 8875 H 837.411 1.97577 5.15429 0
M  V30 8876 H 839.887 0.332731 4.14768 0
M  V30 8877 H 838.763 -0.005217 5.489 0
M  V30 8878 H 839.024 -1.22156 4.24889 0
M  V30 8879 N 838.083 -1.48885 0.516809 0
M  V30 8880 C 839.33 -2.02488 -0.0220602 0
M  V30 8881 C 839.658 -1.39513 -1.35523 0
M  V30 8882 O 838.913 -0.52558 -1.8851 0
M  V30 8883 C 839.212 -3.56801 -0.206798 0
M  V30 8884 C 838.878 -4.38496 1.05035 0
M  V30 8885 C 837.54 -4.60538 1.39492 0
M  V30 8886 C 839.892 -4.85909 1.88525 0
M  V30 8887 C 837.22 -5.2724 2.57361 0
M  V30 8888 C 839.572 -5.53909 3.05561 0
M  V30 8889 C 838.236 -5.74193 3.4038 0
M  V30 8890 H 837.506 -0.740956 -0.00807238 0
M  V30 8891 H 840.153 -1.79014 0.680168 0
M  V30 8892 H 838.458 -3.79042 -0.991687 0
M  V30 8893 H 840.155 -3.95885 -0.638447 0
M  V30 8894 H 836.745 -4.2159 0.771984 0
M  V30 8895 H 840.929 -4.68694 1.63218 0
M  V30 8896 H 836.185 -5.41145 2.84556 0
M  V30 8897 H 840.359 -5.89619 3.7057 0
M  V30 8898 H 837.986 -6.25652 4.31814 0
M  V30 8899 N 839.561 -0.251338 -1.55583 0
M  V30 8900 C 840.508 0.646337 -2.21565 0
M  V30 8901 C 841.478 1.16796 -1.18102 0
M  V30 8902 O 842.663 1.22162 -1.46564 0
M  V30 8903 C 839.803 1.83557 -2.92234 0
M  V30 8904 C 838.916 1.35006 -4.10363 0
M  V30 8905 C 838.051 2.4992 -4.68736 0
M  V30 8906 C 837.09 1.98253 -5.79105 0
M  V30 8907 N 836.227 3.06551 -6.31642 0
M  V30 8908 H 841.067 0.0769881 -2.97901 0
M  V30 8909 H 838.604 0.026238 -1.47077 0
M  V30 8910 H 840.562 2.53425 -3.31408 0
M  V30 8911 H 839.192 2.37733 -2.18364 0
M  V30 8912 H 838.244 0.545274 -3.76472 0
M  V30 8913 H 839.556 0.931435 -4.90026 0
M  V30 8914 H 838.71 3.27823 -5.10507 0
M  V30 8915 H 837.449 2.95086 -3.88298 0
M  V30 8916 H 836.454 1.18822 -5.36807 0
M  V30 8917 H 837.679 1.54051 -6.61396 0
M  V30 8918 H 835.625 3.51143 -5.54107 0
M  V30 8919 H 835.542 2.69033 -7.06511 0
M  V30 8920 H 836.81 3.84499 -6.78071 0
M  V30 8921 N 841.039 1.57585 0.0217189 0
M  V30 8922 C 842.316 1.80779 0.74687 0
M  V30 8923 C 842.696 0.851163 1.9318 0
M  V30 8924 O 842.044 -0.105039 2.28258 0
M  V30 8925 C 842.254 3.28696 1.17302 0
M  V30 8926 C 843.602 3.93871 1.58589 0
M  V30 8927 O 844.626 3.3289 1.2674 0
M  V30 8928 O 843.485 5.01254 2.1773 0
M  V30 8929 H 840.579 0.743666 0.361786 0
M  V30 8930 H 843.125 1.697 -0.00206785 0
M  V30 8931 H 841.897 3.89927 0.327453 0
M  V30 8932 H 841.52 3.44692 1.98174 0
M  V30 8933 N 842.517 -0.29412 1.54831 0
M  V30 8934 C 843.765 -1.02643 1.74094 0
M  V30 8935 C 844.086 -1.87563 0.533402 0
M  V30 8936 O 843.356 -1.9061 -0.452192 0
M  V30 8937 H 841.936 -0.381959 0.641963 0
M  V30 8938 H 844.598 -0.323444 1.92197 0
M  V30 8939 H 843.694 -1.67558 2.63307 0
M  V30 8940 N 843.995 -1.47404 -0.557645 0
M  V30 8941 C 845.242 -1.54007 -1.31484 0
M  V30 8942 C 845.57 -0.202162 -1.93447 0
M  V30 8943 O 844.825 0.804901 -1.78381 0
M  V30 8944 C 845.124 -2.6061 -2.44575 0
M  V30 8945 C 844.79 -4.03896 -2.00446 0
M  V30 8946 C 843.452 -4.42901 -1.88127 0
M  V30 8947 C 845.804 -4.93804 -1.66754 0
M  V30 8948 C 843.132 -5.6965 -1.40411 0
M  V30 8949 C 845.484 -6.21016 -1.20509 0
M  V30 8950 C 844.148 -6.58903 -1.06786 0
M  V30 8951 H 843.418 -0.563552 -0.481134 0
M  V30 8952 H 846.065 -1.81001 -0.625375 0
M  V30 8953 H 844.37 -2.27371 -3.19076 0
M  V30 8954 H 846.067 -2.62941 -3.02759 0
M  V30 8955 H 842.657 -3.73077 -2.10977 0
M  V30 8956 H 846.841 -4.64369 -1.75144 0
M  V30 8957 H 842.097 -5.97755 -1.2845 0
M  V30 8958 H 846.271 -6.90095 -0.935001 0
M  V30 8959 H 843.898 -7.57008 -0.695891 0
M  V30 8960 N 845.473 0.80434 -1.35529 0
M  V30 8961 C 846.698 1.598 -1.32207 0
M  V30 8962 C 847.123 1.87848 0.0974226 0
M  V30 8963 O 846.481 1.46728 1.06492 0
M  V30 8964 C 846.529 2.90483 -2.13663 0
M  V30 8965 O 845.633 3.83411 -1.51888 0
M  V30 8966 H 844.974 0.485305 -0.453183 0
M  V30 8967 H 847.504 0.998119 -1.78602 0
M  V30 8968 H 847.514 3.39888 -2.257 0
M  V30 8969 H 846.189 2.69395 -3.16859 0
M  V30 8970 H 844.766 3.41967 -1.48704 0
M  V30 8971 N 846.951 1.19563 1.02676 0
M  V30 8972 C 847.881 0.959024 2.12897 0
M  V30 8973 C 848.862 -0.108382 1.69754 0
M  V30 8974 O 850.047 0.0470698 1.94143 0
M  V30 8975 C 847.177 0.499211 3.43693 0
M  V30 8976 C 846.131 1.5087 4.00528 0
M  V30 8977 C 845.457 0.905884 5.2697 0
M  V30 8978 C 846.757 2.88954 4.3509 0
M  V30 8979 H 848.451 1.88084 2.32948 0
M  V30 8980 H 845.997 0.905731 1.11949 0
M  V30 8981 H 847.95 0.320965 4.20176 0
M  V30 8982 H 846.674 -0.458205 3.2337 0
M  V30 8983 H 845.333 1.67413 3.26142 0
M  V30 8984 H 844.981 -0.0591506 5.02965 0
M  V30 8985 H 844.681 1.58 5.65959 0
M  V30 8986 H 846.205 0.73848 6.06118 0
M  V30 8987 H 847.619 2.75981 5.02501 0
M  V30 8988 H 846.016 3.53177 4.85166 0
M  V30 8989 H 847.086 3.41447 3.44299 0
M  V30 8990 N 848.429 -1.21819 0.999893 0
M  V30 8991 C 849.339 -2.27691 0.565159 0
M  V30 8992 C 850.355 -1.69587 -0.389398 0
M  V30 8993 O 851.531 -1.99786 -0.254499 0
M  V30 8994 C 848.596 -3.46537 -0.106432 0
M  V30 8995 C 847.657 -4.19932 0.891964 0
M  V30 8996 C 846.89 -5.33103 0.252327 0
M  V30 8997 O 847.113 -5.62398 -0.952103 0
M  V30 8998 O 846.047 -5.94184 0.960698 0
M  V30 8999 H 849.873 -2.67059 1.44613 0
M  V30 9000 H 847.458 -1.28119 0.768499 0
M  V30 9001 H 849.34 -4.18631 -0.482301 0
M  V30 9002 H 848.015 -3.09079 -0.961865 0
M  V30 9003 H 846.922 -3.5008 1.3189 0
M  V30 9004 H 848.255 -4.61287 1.71682 0
M  V30 9005 N 849.908 -0.773975 -1.37286 0
M  V30 9006 C 850.841 -0.108019 -2.27944 0
M  V30 9007 C 851.819 0.706737 -1.46438 0
M  V30 9008 O 853.003 0.681025 -1.75768 0
M  V30 9009 C 850.13 0.853199 -3.27778 0
M  V30 9010 C 849.176 0.122164 -4.26325 0
M  V30 9011 S 850.009 -1.19136 -5.22079 0
M  V30 9012 C 851.165 -0.233737 -6.25463 0
M  V30 9013 H 851.398 -0.876743 -2.84078 0
M  V30 9014 H 848.931 -0.567468 -1.43594 0
M  V30 9015 H 850.889 1.40238 -3.85803 0
M  V30 9016 H 849.55 1.59505 -2.70586 0
M  V30 9017 H 848.743 0.850926 -4.96765 0
M  V30 9018 H 848.345 -0.356079 -3.72301 0
M  V30 9019 H 850.637 0.59305 -6.74899 0
M  V30 9020 H 851.58 -0.906373 -7.02275 0
M  V30 9021 H 851.988 0.156048 -5.64284 0
M  V30 9022 N 851.386 1.48609 -0.524698 0
M  V30 9023 C 852.632 2.034 0.00323579 0
M  V30 9024 C 852.987 1.39513 1.32491 0
M  V30 9025 O 852.28 0.529876 1.84127 0
M  V30 9026 C 852.474 3.56906 0.187873 0
M  V30 9027 C 852.303 4.35674 -1.11436 0
M  V30 9028 C 851.073 4.76809 -1.67276 0
M  V30 9029 C 853.271 4.72814 -2.02365 0
M  V30 9030 N 851.253 5.40093 -2.91843 0
M  V30 9031 C 852.624 5.36062 -3.11508 0
M  V30 9032 C 854.679 4.54747 -2.02755 0
M  V30 9033 C 853.382 5.83154 -4.21099 0
M  V30 9034 C 855.408 5.02815 -3.11337 0
M  V30 9035 C 854.77 5.66084 -4.19199 0
M  V30 9036 H 850.869 0.780967 -0.0401842 0
M  V30 9037 H 853.453 1.81495 -0.704808 0
M  V30 9038 H 851.624 3.78645 0.864996 0
M  V30 9039 H 853.356 3.98335 0.714938 0
M  V30 9040 H 850.111 4.57754 -1.21483 0
M  V30 9041 H 850.535 5.76305 -3.55249 0
M  V30 9042 H 855.177 4.05217 -1.20661 0
M  V30 9043 H 852.895 6.31692 -5.03975 0
M  V30 9044 H 856.481 4.9063 -3.12688 0
M  V30 9045 H 855.361 6.02604 -5.01834 0
M  V30 9046 N 852.864 0.259585 1.55447 0
M  V30 9047 C 854.112 -0.360893 1.98852 0
M  V30 9048 C 854.433 -1.57535 1.14924 0
M  V30 9049 O 853.703 -1.94485 0.235025 0
M  V30 9050 H 852.283 -0.136332 0.734454 0
M  V30 9051 H 854.945 0.361319 1.91522 0
M  V30 9052 H 854.041 -0.661388 3.05012 0
M  V30 9053 N 854.342 -1.57594 -0.0133615 0
M  V30 9054 C 855.59 -1.89605 -0.699596 0
M  V30 9055 C 855.911 -0.85926 -1.75048 0
M  V30 9056 O 855.181 0.105112 -1.95618 0
M  V30 9057 H 853.761 -0.699776 -0.261385 0
M  V30 9058 H 856.423 -1.94885 0.0244044 0
M  V30 9059 H 855.519 -2.88962 -1.17928 0
M  V30 9060 N 855.82 0.285905 -1.54985 0
M  V30 9061 C 856.783 1.33625 -1.86218 0
M  V30 9062 C 857.783 1.42971 -0.735936 0
M  V30 9063 O 858.973 1.42345 -1.00417 0
M  V30 9064 C 856.105 2.71926 -2.05595 0
M  V30 9065 H 857.298 1.07167 -2.80099 0
M  V30 9066 H 854.851 0.523335 -1.47278 0
M  V30 9067 H 855.586 3.03583 -1.14053 0
M  V30 9068 H 855.371 2.6653 -2.87583 0
M  V30 9069 H 856.861 3.47841 -2.31077 0
M  V30 9070 N 857.298 1.47698 0.54982 0
M  V30 9071 C 858.526 1.5833 1.33188 0
M  V30 9072 C 858.941 0.236193 1.87317 0
M  V30 9073 O 858.298 -0.77167 1.65383 0
M  V30 9074 C 858.349 2.61438 2.49664 0
M  V30 9075 O 858.07 3.9092 1.97771 0
M  V30 9076 C 859.571 2.82324 3.41772 0
M  V30 9077 H 856.791 0.53443 0.405741 0
M  V30 9078 H 859.335 1.93375 0.665309 0
M  V30 9079 H 857.49 2.29307 3.12245 0
M  V30 9080 H 857.904 4.47323 2.73866 0
M  V30 9081 H 859.378 3.58316 4.19897 0
M  V30 9082 H 859.855 1.90416 3.95776 0
M  V30 9083 H 860.461 3.15682 2.85 0
M  V30 9084 N 858.776 -0.797141 1.35954 0
M  V30 9085 C 860.023 -1.55468 1.29754 0
M  V30 9086 C 860.351 -1.94095 -0.125391 0
M  V30 9087 O 859.606 -1.62341 -1.09288 0
M  V30 9088 C 859.905 -2.84847 2.15863 0
M  V30 9089 C 859.571 -2.65394 3.64523 0
M  V30 9090 C 858.233 -2.59796 4.05042 0
M  V30 9091 C 860.585 -2.4727 4.58811 0
M  V30 9092 C 857.913 -2.3403 5.38002 0
M  V30 9093 C 860.265 -2.23032 5.91979 0
M  V30 9094 C 858.929 -2.15862 6.31633 0
M  V30 9095 H 858.199 -0.568897 0.474803 0
M  V30 9096 H 860.846 -0.920299 1.67937 0
M  V30 9097 H 859.151 -3.52712 1.70591 0
M  V30 9098 H 860.848 -3.42597 2.08395 0
M  V30 9099 H 857.438 -2.70602 3.32374 0
M  V30 9100 H 861.622 -2.506 4.28384 0
M  V30 9101 H 856.878 -2.26956 5.67715 0
M  V30 9102 H 861.052 -2.08001 6.64612 0
M  V30 9103 H 858.679 -1.9566 7.34589 0
M  V30 9104 N 860.254 -1.20106 -1.0204 0
M  V30 9105 C 861.531 -0.918029 -1.72718 0
M  V30 9106 C 861.911 0.574163 -2.03142 0
M  V30 9107 O 861.259 1.53476 -1.69285 0
M  V30 9108 C 861.469 -1.78698 -2.9978 0
M  V30 9109 C 862.817 -2.02648 -3.7312 0
M  V30 9110 O 863.841 -1.75919 -3.09727 0
M  V30 9111 O 862.7 -2.47767 -4.87107 0
M  V30 9112 H 859.794 -0.342904 -0.752559 0
M  V30 9113 H 862.34 -1.30961 -1.07923 0
M  V30 9114 H 861.112 -2.79757 -2.7359 0
M  V30 9115 H 860.735 -1.39522 -3.72316 0
M  V30 9116 N 861.732 1.21287 -1.00634 0
M  V30 9117 C 862.978 1.90671 -0.690822 0
M  V30 9118 C 863.311 1.77996 0.776592 0
M  V30 9119 O 862.586 1.15748 1.5631 0
M  V30 9120 C 862.869 3.42426 -1.11428 0
M  V30 9121 C 862.722 3.64086 -2.64124 0
M  V30 9122 C 864.041 4.34851 -0.677686 0
M  V30 9123 H 861.16 0.692419 -0.252439 0
M  V30 9124 H 863.802 1.42893 -1.25226 0
M  V30 9125 H 861.952 3.83249 -0.636586 0
M  V30 9126 H 863.624 3.32582 -3.19667 0
M  V30 9127 H 861.867 3.07906 -3.05576 0
M  V30 9128 H 862.538 4.7042 -2.88806 0
M  V30 9129 H 865.014 4.01619 -1.0882 0
M  V30 9130 H 863.89 5.39675 -1.00213 0
M  V30 9131 H 864.151 4.4009 0.421125 0
M  V30 9132 N 863.21 0.781244 1.36873 0
M  V30 9133 C 864.173 0.180094 2.28491 0
M  V30 9134 C 865.173 -0.617798 1.48458 0
M  V30 9135 O 866.363 -0.439991 1.68552 0
M  V30 9136 C 863.495 -0.751741 3.32508 0
M  V30 9137 H 864.688 0.987837 2.83164 0
M  V30 9138 H 862.241 0.550102 1.463 0
M  V30 9139 H 862.976 -1.58413 2.82977 0
M  V30 9140 H 862.761 -0.181649 3.91679 0
M  V30 9141 H 864.251 -1.16748 4.00949 0
M  V30 9142 N 864.689 -1.48329 0.532571 0
M  V30 9143 C 865.919 -2.066 0.00353785 0
M  V30 9144 C 866.327 -1.38913 -1.28451 0
M  V30 9145 O 865.67 -0.471385 -1.77549 0
M  V30 9146 C 865.732 -3.58342 -0.288324 0
M  V30 9147 C 865.396 -4.47917 0.906631 0
M  V30 9148 C 866.393 -4.87534 1.80572 0
M  V30 9149 C 864.078 -4.89783 1.11436 0
M  V30 9150 C 866.072 -5.6779 2.89642 0
M  V30 9151 C 863.759 -5.69809 2.20819 0
M  V30 9152 C 864.757 -6.08721 3.09755 0
M  V30 9153 O 864.445 -6.8714 4.17246 0
M  V30 9154 H 864.177 -0.675263 0.0315661 0
M  V30 9155 H 866.731 -1.91669 0.738375 0
M  V30 9156 H 864.961 -3.71395 -1.07717 0
M  V30 9157 H 866.65 -3.98726 -0.759752 0
M  V30 9158 H 867.416 -4.5581 1.65719 0
M  V30 9159 H 863.295 -4.58977 0.431382 0
M  V30 9160 H 866.839 -5.98082 3.59087 0
M  V30 9161 H 862.736 -6.00947 2.35655 0
M  V30 9162 H 863.504 -7.05498 4.14988 0
M  V30 9163 N 866.167 -0.267825 -1.55308 0
M  V30 9164 C 867.115 0.638848 -2.23655 0
M  V30 9165 C 868.109 1.16363 -1.2311 0
M  V30 9166 O 869.315 1.1181 -1.41062 0
M  V30 9167 H 865.69 0.224551 -0.717691 0
M  V30 9168 H 867.661 0.0394809 -2.98374 0
M  V30 9169 C 866.41 1.8151 -2.96562 0
M  V30 9170 H 865.733 1.42048 -3.73715 0
M  V30 9171 H 867.173 2.42629 -3.47717 0
M  V30 9172 C 865.632 2.69911 -2.01618 0
M  V30 9173 O 866.162 3.70058 -1.56268 0
M  V30 9174 N 864.368 2.36924 -1.68272 0
M  V30 9175 H 863.915 1.55533 -2.05347 0
M  V30 9176 H 863.873 2.96343 -1.05016 0
M  V30 9177 N 867.645 1.57599 0.00500368 0
M  V30 9178 C 868.892 1.90349 0.690895 0
M  V30 9179 C 869.22 0.868045 1.74055 0
M  V30 9180 O 868.475 -0.127855 1.95282 0
M  V30 9181 C 868.774 3.29855 1.37588 0
M  V30 9182 C 868.44 4.48548 0.459906 0
M  V30 9183 C 867.102 4.80752 0.207693 0
M  V30 9184 C 869.454 5.20919 -0.171054 0
M  V30 9185 C 866.782 5.82701 -0.683855 0
M  V30 9186 C 869.134 6.23818 -1.05045 0
M  V30 9187 C 867.798 6.54481 -1.31189 0
M  V30 9188 H 867.068 0.696538 0.252816 0
M  V30 9189 H 869.715 1.91436 -0.0494495 0
M  V30 9190 H 868.02 3.24869 2.19015 0
M  V30 9191 H 869.717 3.52452 1.91255 0
M  V30 9192 H 866.307 4.23384 0.666648 0
M  V30 9193 H 870.491 4.96299 0.0107942 0
M  V30 9194 H 865.747 6.04822 -0.894467 0
M  V30 9195 H 869.921 6.79029 -1.54574 0
M  V30 9196 H 867.548 7.33299 -2.00442 0
M  V30 9197 N 869.123 -0.277682 1.55134 0
M  V30 9198 C 870.053 -1.34742 1.90701 0
M  V30 9199 C 871.034 -1.51757 0.768354 0
M  V30 9200 O 872.219 -1.64879 1.02609 0
M  V30 9201 C 869.349 -2.70775 2.17481 0
M  V30 9202 C 868.303 -2.68497 3.33307 0
M  V30 9203 C 867.629 -4.08037 3.45557 0
M  V30 9204 C 868.929 -2.28178 4.69821 0
M  V30 9205 H 870.623 -1.05224 2.803 0
M  V30 9206 H 868.169 -0.504738 1.34864 0
M  V30 9207 H 870.122 -3.45719 2.40949 0
M  V30 9208 H 868.846 -3.01867 1.24676 0
M  V30 9209 H 867.505 -1.9601 3.09799 0
M  V30 9210 H 867.153 -4.36344 2.50226 0
M  V30 9211 H 866.853 -4.07409 4.23429 0
M  V30 9212 H 868.377 -4.84726 3.71312 0
M  V30 9213 H 869.791 -2.92843 4.92865 0
M  V30 9214 H 868.188 -2.3872 5.50575 0
M  V30 9215 H 869.258 -1.23308 4.6896 0
M  V30 9216 N 870.601 -1.47988 -0.541979 0
M  V30 9217 C 871.548 -1.61615 -1.6477 0
M  V30 9218 C 872.518 -0.458602 -1.59644 0
M  V30 9219 O 873.703 -0.680585 -1.78249 0
M  V30 9220 C 870.843 -1.65066 -3.03063 0
M  V30 9221 C 869.956 -2.91845 -3.18513 0
M  V30 9222 C 869.091 -2.86534 -4.47294 0
M  V30 9223 C 868.13 -4.0807 -4.5623 0
M  V30 9224 N 867.267 -4.00905 -5.76385 0
M  V30 9225 H 872.107 -2.56046 -1.52461 0
M  V30 9226 H 869.644 -1.26989 -0.742449 0
M  V30 9227 H 871.602 -1.65049 -3.83164 0
M  V30 9228 H 870.232 -0.74136 -3.14171 0
M  V30 9229 H 869.284 -3.01661 -2.31743 0
M  V30 9230 H 870.596 -3.81804 -3.20978 0
M  V30 9231 H 869.75 -2.84851 -5.35672 0
M  V30 9232 H 868.489 -1.94283 -4.47332 0
M  V30 9233 H 867.494 -4.10041 -3.66261 0
M  V30 9234 H 868.719 -5.01465 -4.5794 0
M  V30 9235 H 866.665 -3.11467 -5.77342 0
M  V30 9236 H 866.582 -4.84557 -5.80293 0
M  V30 9237 H 867.85 -4.03263 -6.67083 0
M  V30 9238 N 872.079 0.78992 -1.36375 0
M  V30 9239 C 872.989 1.93386 -1.32812 0
M  V30 9240 C 874.005 1.72468 -0.230377 0
M  V30 9241 O 875.181 1.96014 -0.462657 0
M  V30 9242 C 872.246 3.2824 -1.11621 0
M  V30 9243 C 871.307 3.61939 -2.30865 0
M  V30 9244 C 870.54 4.90359 -2.10675 0
M  V30 9245 O 870.763 5.6005 -1.08168 0
M  V30 9246 O 869.697 5.22702 -2.9844 0
M  V30 9247 H 873.523 1.99342 -2.29121 0
M  V30 9248 H 871.108 0.9301 -1.16917 0
M  V30 9249 H 872.99 4.08939 -1.01719 0
M  V30 9250 H 871.665 3.23178 -0.183732 0
M  V30 9251 H 870.572 2.81549 -2.46335 0
M  V30 9252 H 871.905 3.71725 -3.22617 0
M  V30 9253 N 873.557 1.20646 1.01402 0
M  V30 9254 C 874.505 0.954493 2.12114 0
M  V30 9255 C 875.499 -0.0950737 1.69133 0
M  V30 9256 O 876.705 0.0555153 1.79914 0
M  V30 9257 H 873.08 0.29135 0.693267 0
M  V30 9258 H 875.051 1.89447 2.30548 0
M  V30 9259 C 873.8 0.525944 3.43699 0
M  V30 9260 H 873.123 1.32516 3.772 0
M  V30 9261 H 874.563 0.388883 4.22213 0
M  V30 9262 C 873.022 -0.761997 3.28169 0
M  V30 9263 O 873.552 -1.81979 3.58115 0
M  V30 9264 N 871.758 -0.725017 2.8141 0
M  V30 9265 H 871.305 0.13607 2.5724 0
M  V30 9266 H 871.263 -1.5871 2.71401 0
M  V30 9267 N 875.035 -1.20752 1.01276 0
M  V30 9268 C 876.446 -1.7175 0.732033 0
M  V30 9269 C 876.797 -1.8131 -0.749733 0
M  V30 9270 O 875.922 -1.47301 -1.58529 0
M  V30 9271 C 876.517 -3.11936 1.32217 0
M  V30 9272 C 875.076 -3.6026 1.09039 0
M  V30 9273 C 874.223 -2.37571 1.43022 0
M  V30 9274 H 877.174 -1.0582 1.1827 0
M  V30 9275 H 877.195 -3.73802 0.710771 0
M  V30 9276 H 876.707 -3.04946 2.40061 0
M  V30 9277 H 874.808 -3.72588 0.0294464 0
M  V30 9278 H 874.921 -4.45295 1.76775 0
M  V30 9279 H 873.285 -2.40128 0.849159 0
M  V30 9280 H 874.068 -2.33225 2.51915 0
M  V30 9281 N 876.513 -0.788492 -1.36457 0
M  V30 9282 C 877.759 -0.370067 -2.00005 0
M  V30 9283 C 878.114 1.0464 -1.61456 0
M  V30 9284 O 877.407 1.71277 -0.85876 0
M  V30 9285 C 877.601 -0.470255 -3.54293 0
M  V30 9286 C 877.43 -1.89492 -4.07827 0
M  V30 9287 C 876.2 -2.51932 -4.38016 0
M  V30 9288 C 878.398 -2.85692 -4.2765 0
M  V30 9289 N 876.38 -3.85997 -4.77368 0
M  V30 9290 C 877.751 -4.04588 -4.69796 0
M  V30 9291 C 879.806 -2.8276 -4.09818 0
M  V30 9292 C 878.509 -5.2096 -4.95977 0
M  V30 9293 C 880.535 -3.98319 -4.37145 0
M  V30 9294 C 879.897 -5.1596 -4.79547 0
M  V30 9295 H 875.996 -0.182813 -0.760331 0
M  V30 9296 H 878.58 -1.02589 -1.6548 0
M  V30 9297 H 876.751 0.155476 -3.88089 0
M  V30 9298 H 878.483 -0.0281643 -4.0469 0
M  V30 9299 H 875.238 -2.0342 -4.27688 0
M  V30 9300 H 875.662 -4.54971 -5.01329 0
M  V30 9301 H 880.304 -1.92971 -3.76194 0
M  V30 9302 H 878.022 -6.11335 -5.28483 0
M  V30 9303 H 881.608 -3.97411 -4.24919 0
M  V30 9304 H 880.488 -6.03893 -5.00283 0
M  V30 9305 N 877.991 1.48044 -0.54043 0
M  V30 9306 C 878.901 2.33565 0.220163 0
M  V30 9307 C 879.917 1.47146 0.928659 0
M  V30 9308 O 881.093 1.80107 0.901295 0
M  V30 9309 C 878.158 3.2349 1.2472 0
M  V30 9310 C 877.219 4.25789 0.547938 0
M  V30 9311 C 876.452 5.11417 1.52605 0
M  V30 9312 O 876.675 4.99204 2.75956 0
M  V30 9313 O 875.609 5.92498 1.05972 0
M  V30 9314 H 879.435 2.99868 -0.480898 0
M  V30 9315 H 877.02 1.46332 -0.301226 0
M  V30 9316 H 878.902 3.79084 1.84047 0
M  V30 9317 H 877.577 2.59835 1.93048 0
M  V30 9318 H 876.484 3.74001 -0.0860941 0
M  V30 9319 H 877.817 4.92111 -0.0935896 0
M  V30 9320 N 879.47 0.276058 1.55163 0
M  V30 9321 C 880.886 -0.0780579 1.59409 0
M  V30 9322 C 881.086 -1.54521 1.29327 0
M  V30 9323 O 880.142 -2.29422 1.05459 0
M  V30 9324 C 881.455 0.297422 2.99225 0
M  V30 9325 C 883.003 0.244117 3.12047 0
M  V30 9326 C 883.478 0.594051 4.54131 0
M  V30 9327 N 884.969 0.54564 4.59975 0
M  V30 9328 C 885.704 0.789192 5.67943 0
M  V30 9329 N 885.2 1.09741 6.84053 0
M  V30 9330 N 886.993 0.717926 5.57496 0
M  V30 9331 H 879.144 1.23251 1.72982 0
M  V30 9332 H 881.407 0.497988 0.806667 0
M  V30 9333 H 881.113 1.31782 3.26077 0
M  V30 9334 H 880.987 -0.361286 3.75466 0
M  V30 9335 H 883.374 -0.766992 2.84958 0
M  V30 9336 H 883.455 0.937097 2.38017 0
M  V30 9337 H 883.099 1.60285 4.81945 0
M  V30 9338 H 883.029 -0.120728 5.26462 0
M  V30 9339 H 885.52 0.317334 3.76565 0
M  V30 9340 H 885.833 1.26989 7.62295 0
M  V30 9341 H 884.178 1.13519 6.85666 0
M  V30 9342 H 887.369 0.47697 4.65664 0
M  V30 9343 H 887.542 0.911118 6.41563 0
M  V30 9344 N 880.948 -1.576 0.00335426 0
M  V30 9345 C 881.878 -2.11668 -0.985839 0
M  V30 9346 C 882.859 -1.02661 -1.35627 0
M  V30 9347 O 884.044 -1.30361 -1.43943 0
M  V30 9348 C 881.174 -2.62273 -2.27662 0
M  V30 9349 C 880.128 -3.75837 -2.0477 0
M  V30 9350 C 879.454 -4.12769 -3.39891 0
M  V30 9351 C 880.754 -5.02975 -1.40759 0
M  V30 9352 H 882.448 -2.9457 -0.535637 0
M  V30 9353 H 879.994 -1.41702 -0.256204 0
M  V30 9354 H 881.947 -2.98727 -2.97221 0
M  V30 9355 H 880.671 -1.76498 -2.74802 0
M  V30 9356 H 879.33 -3.39782 -1.37636 0
M  V30 9357 H 878.978 -3.24013 -3.8474 0
M  V30 9358 H 878.678 -4.89281 -3.25389 0
M  V30 9359 H 880.202 -4.51784 -4.1076 0
M  V30 9360 H 881.616 -5.37179 -2.00279 0
M  V30 9361 H 880.013 -5.84315 -1.36734 0
M  V30 9362 H 881.083 -4.83431 -0.377218 0
M  V30 9363 N 882.426 0.269451 -1.5528 0
M  V30 9364 C 883.336 1.35511 -1.91505 0
M  V30 9365 C 884.352 1.53854 -0.812712 0
M  V30 9366 O 885.528 1.67912 -1.1121 0
M  V30 9367 C 882.593 2.6937 -2.18267 0
M  V30 9368 C 881.654 2.59743 -3.41807 0
M  V30 9369 C 880.887 3.87219 -3.67283 0
M  V30 9370 O 881.11 4.88066 -2.95208 0
M  V30 9371 O 880.044 3.87209 -4.60818 0
M  V30 9372 H 883.87 1.07785 -2.8393 0
M  V30 9373 H 881.455 0.468282 -1.41871 0
M  V30 9374 H 883.337 3.48513 -2.36889 0
M  V30 9375 H 882.012 2.96874 -1.29024 0
M  V30 9376 H 880.919 1.78964 -3.28516 0
M  V30 9377 H 882.252 2.37188 -4.3128 0
M  V30 9378 N 883.904 1.48273 0.534124 0
M  V30 9379 C 885.32 1.34302 0.862272 0
M  V30 9380 C 885.52 0.350902 1.98421 0
M  V30 9381 O 884.576 -0.229364 2.51456 0
M  V30 9382 C 885.889 2.74227 1.23371 0
M  V30 9383 C 887.437 2.82684 1.34383 0
M  V30 9384 C 887.912 4.23301 1.74871 0
M  V30 9385 N 889.403 4.25954 1.81981 0
M  V30 9386 C 890.138 5.31693 2.14686 0
M  V30 9387 N 889.634 6.47714 2.45844 0
M  V30 9388 N 891.427 5.19084 2.15657 0
M  V30 9389 H 883.578 2.11397 -0.206215 0
M  V30 9390 H 885.841 0.947537 -0.0296116 0
M  V30 9391 H 885.547 3.48368 0.482967 0
M  V30 9392 H 885.421 3.07485 2.18478 0
M  V30 9393 H 887.808 2.08801 2.08534 0
M  V30 9394 H 887.889 2.5305 0.374063 0
M  V30 9395 H 887.533 4.97699 1.01282 0
M  V30 9396 H 887.463 4.50376 2.7289 0
M  V30 9397 H 889.954 3.42266 1.60196 0
M  V30 9398 H 890.267 7.2414 2.69892 0
M  V30 9399 H 888.612 6.50995 2.43372 0
M  V30 9400 H 891.803 4.27463 1.9077 0
M  V30 9401 H 891.976 6.01592 2.40813 0
M  V30 9402 N 885.382 -0.782676 1.36792 0
M  V30 9403 C 886.312 -1.90973 1.34356 0
M  V30 9404 C 887.293 -1.6875 0.213917 0
M  V30 9405 O 888.478 -1.89766 0.412601 0
M  V30 9406 C 885.608 -3.28097 1.13884 0
M  V30 9407 C 884.562 -3.6486 2.23744 0
M  V30 9408 C 883.888 -5.00406 1.88408 0
M  V30 9409 C 885.188 -3.72742 3.6587 0
M  V30 9410 H 886.882 -1.93268 2.28665 0
M  V30 9411 H 884.428 -0.928447 1.10072 0
M  V30 9412 H 886.381 -4.06569 1.10813 0
M  V30 9413 H 885.105 -3.26206 0.160275 0
M  V30 9414 H 883.764 -2.88689 2.25952 0
M  V30 9415 H 883.412 -4.95044 0.891083 0
M  V30 9416 H 883.112 -5.25973 2.61966 0
M  V30 9417 H 884.636 -5.81291 1.86905 0
M  V30 9418 H 886.05 -4.4139 3.65852 0
M  V30 9419 H 884.447 -4.09798 4.38389 0
M  V30 9420 H 885.517 -2.73676 4.00287 0
M  V30 9421 N 886.86 -1.21182 -1.00761 0
M  V30 9422 C 888.276 -0.968607 -1.26847 0
M  V30 9423 C 888.476 0.346561 -1.98497 0
M  V30 9424 O 887.532 1.07287 -2.28573 0
M  V30 9425 C 888.845 -2.1574 -2.09467 0
M  V30 9426 C 890.393 -2.19937 -2.22703 0
M  V30 9427 C 890.868 -3.38328 -3.08704 0
M  V30 9428 N 892.359 -3.38398 -3.16293 0
M  V30 9429 C 893.094 -4.26653 -3.83086 0
M  V30 9430 N 892.59 -5.25101 -4.5193 0
M  V30 9431 N 894.383 -4.14469 -3.797 0
M  V30 9432 H 886.534 -2.05763 -0.526816 0
M  V30 9433 H 888.797 -0.90087 -0.29519 0
M  V30 9434 H 888.503 -3.11034 -1.64167 0
M  V30 9435 H 888.377 -2.14584 -3.10216 0
M  V30 9436 H 890.764 -1.25201 -2.67224 0
M  V30 9437 H 890.845 -2.25139 -1.21433 0
M  V30 9438 H 890.489 -4.33356 -2.64886 0
M  V30 9439 H 890.419 -3.30364 -4.10082 0
M  V30 9440 H 892.91 -2.67149 -2.67282 0
M  V30 9441 H 893.223 -5.8875 -5.00592 0
M  V30 9442 H 891.568 -5.29029 -4.50726 0
M  V30 9443 H 894.759 -3.3682 -3.25069 0
M  V30 9444 H 894.932 -4.83458 -4.31477 0
M  V30 9445 N 888.338 1.20213 -1.01915 0
M  V30 9446 C 889.285 2.2309 -0.591571 0
M  V30 9447 C 890.255 1.61465 0.389649 0
M  V30 9448 O 891.44 1.88606 0.288511 0
M  V30 9449 C 888.58 3.45045 0.0614028 0
M  V30 9450 C 887.693 4.21091 -0.964688 0
M  V30 9451 C 886.828 5.30448 -0.282499 0
M  V30 9452 C 885.867 5.98241 -1.29517 0
M  V30 9453 N 885.004 6.99182 -0.639472 0
M  V30 9454 H 889.844 2.59023 -1.47347 0
M  V30 9455 H 887.381 1.27274 -0.737547 0
M  V30 9456 H 889.339 4.14688 0.45714 0
M  V30 9457 H 887.969 3.09797 0.906937 0
M  V30 9458 H 887.021 3.50489 -1.47857 0
M  V30 9459 H 888.333 4.67662 -1.73475 0
M  V30 9460 H 887.487 6.06466 0.168603 0
M  V30 9461 H 886.226 4.84922 0.519843 0
M  V30 9462 H 885.231 5.20982 -1.75663 0
M  V30 9463 H 886.456 6.45853 -2.09884 0
M  V30 9464 H 884.402 6.55844 0.142955 0
M  V30 9465 H 884.319 7.43893 -1.34756 0
M  V30 9466 H 885.587 7.79212 -0.212047 0
M  V30 9467 N 889.816 0.795718 1.36037 0
M  V30 9468 C 890.779 0.204318 2.28287 0
M  V30 9469 C 891.779 -0.602017 1.49105 0
M  V30 9470 O 892.969 -0.422089 1.69009 0
M  V30 9471 C 890.101 -0.716431 3.33287 0
M  V30 9472 H 891.294 1.01781 2.821 0
M  V30 9473 H 888.847 0.565588 1.45708 0
M  V30 9474 H 889.582 -1.55403 2.84641 0
M  V30 9475 H 889.367 -0.140096 3.9185 0
M  V30 9476 H 890.857 -1.12488 4.02164 0
M  V30 9477 N 891.294 -1.47756 0.548274 0
M  V30 9478 C 892.543 -2.01691 0.0187961 0
M  V30 9479 C 892.856 -1.42894 -1.33569 0
M  V30 9480 O 894.062 -1.88438 -1.95457 0
M  V30 9481 C 892.518 -3.59896 -0.016847 0
M  V30 9482 C 892.126 -4.27683 1.33385 0
M  V30 9483 C 893.87 -4.21614 -0.494188 0
M  V30 9484 C 891.777 -5.7787 1.2578 0
M  V30 9485 H 890.707 -0.753993 0.00325648 0
M  V30 9486 H 893.358 -1.69838 0.694792 0
M  V30 9487 H 891.74 -3.88672 -0.758304 0
M  V30 9488 H 892.914 -4.10559 2.09232 0
M  V30 9489 H 891.229 -3.77915 1.7484 0
M  V30 9490 H 893.826 -5.3166 -0.569342 0
M  V30 9491 H 894.169 -3.88176 -1.50417 0
M  V30 9492 H 894.702 -3.97336 0.192138 0
M  V30 9493 H 891.441 -6.15912 2.2435 0
M  V30 9494 H 890.961 -5.97355 0.540997 0
M  V30 9495 H 892.64 -6.39897 0.956109 0
M  V30 9496 N 892.772 -0.284283 -1.55015 0
M  V30 9497 C 894.183 0.211681 -1.85496 0
M  V30 9498 C 894.534 1.54735 -1.2063 0
M  V30 9499 O 893.659 2.10594 -0.497918 0
M  V30 9500 C 894.254 0.390864 -3.36538 0
M  V30 9501 C 892.813 0.831055 -3.67111 0
M  V30 9502 C 891.96 -0.0703581 -2.77211 0
M  V30 9503 H 894.911 -0.505803 -1.50424 0
M  V30 9504 H 894.932 1.22803 -3.60138 0
M  V30 9505 H 894.444 -0.581409 -3.8372 0
M  V30 9506 H 892.545 1.81447 -3.25434 0
M  V30 9507 H 892.658 0.662026 -4.74504 0
M  V30 9508 H 891.022 0.447528 -2.50737 0
M  V30 9509 H 891.805 -1.03868 -3.2721 0
M  V30 9510 N 894.251 1.57596 -0.0117121 0
M  V30 9511 C 895.199 2.1029 0.994035 0
M  V30 9512 C 896.193 1.02549 1.34833 0
M  V30 9513 O 897.399 1.21003 1.3326 0
M  V30 9514 H 893.774 0.671624 0.338268 0
M  V30 9515 H 895.745 2.93761 0.524147 0
M  V30 9516 C 894.494 2.63099 2.27319 0
M  V30 9517 H 893.817 3.45642 2.00927 0
M  V30 9518 H 895.257 3.03635 2.95942 0
M  V30 9519 C 893.716 1.55044 2.99104 0
M  V30 9520 O 894.246 0.940127 3.90544 0
M  V30 9521 N 892.452 1.27506 2.61133 0
M  V30 9522 H 891.999 1.77322 1.86855 0
M  V30 9523 H 891.957 0.554292 3.09475 0
M  V30 9524 N 895.729 -0.261212 1.5542 0
M  V30 9525 C 896.975 -0.992699 1.76843 0
M  V30 9526 C 897.308 -1.8551 0.574428 0
M  V30 9527 O 896.583 -1.89739 -0.427713 0
M  V30 9528 C 896.866 -1.86532 3.08022 0
M  V30 9529 C 896.719 -1.03206 4.378 0
M  V30 9530 C 898.038 -2.85036 3.35324 0
M  V30 9531 H 895.157 -0.359473 0.643388 0
M  V30 9532 H 897.799 -0.264214 1.88154 0
M  V30 9533 H 895.949 -2.48644 2.9851 0
M  V30 9534 H 897.621 -0.430743 4.59285 0
M  V30 9535 H 895.864 -0.335911 4.32497 0
M  V30 9536 H 896.535 -1.6761 5.25938 0
M  V30 9537 H 899.011 -2.3306 3.44706 0
M  V30 9538 H 897.887 -3.43226 4.28354 0
M  V30 9539 H 898.148 -3.60768 2.55537 0
M  V30 9540 N 897.207 -1.48554 -0.526253 0
M  V30 9541 C 898.137 -1.66252 -1.63959 0
M  V30 9542 C 899.118 -0.511351 -1.62232 0
M  V30 9543 O 900.303 -0.744322 -1.7937 0
M  V30 9544 C 897.433 -1.70556 -3.02536 0
M  V30 9545 C 896.387 -2.8521 -3.19123 0
M  V30 9546 C 895.713 -2.74606 -4.58798 0
M  V30 9547 C 897.013 -4.26463 -3.0154 0
M  V30 9548 H 898.707 -2.59459 -1.49404 0
M  V30 9549 H 896.253 -1.24862 -0.717326 0
M  V30 9550 H 898.206 -1.81524 -3.80298 0
M  V30 9551 H 896.93 -0.739297 -3.18123 0
M  V30 9552 H 895.589 -2.73802 -2.43779 0
M  V30 9553 H 895.237 -1.75941 -4.71226 0
M  V30 9554 H 894.937 -3.51544 -4.70841 0
M  V30 9555 H 896.461 -2.87548 -5.38655 0
M  V30 9556 H 897.875 -4.38685 -3.69091 0
M  V30 9557 H 896.272 -5.04428 -3.25073 0
M  V30 9558 H 897.342 -4.42667 -1.97925 0
M  V30 9559 N 898.685 0.775411 -1.37205 0
M  V30 9560 C 899.932 1.53384 -1.32211 0
M  V30 9561 C 900.26 1.9427 0.0944958 0
M  V30 9562 O 899.515 1.64059 1.06692 0
M  V30 9563 C 899.814 2.81377 -2.20367 0
M  V30 9564 C 899.48 2.59561 -3.68699 0
M  V30 9565 C 898.142 2.53319 -4.09124 0
M  V30 9566 C 900.494 2.39939 -4.62686 0
M  V30 9567 C 897.822 2.25442 -5.41658 0
M  V30 9568 C 900.174 2.13586 -5.95453 0
M  V30 9569 C 898.838 2.05786 -6.34987 0
M  V30 9570 H 898.108 0.561271 -0.483793 0
M  V30 9571 H 900.755 0.893466 -1.6938 0
M  V30 9572 H 899.06 3.49954 -1.76181 0
M  V30 9573 H 900.757 3.39238 -2.13819 0
M  V30 9574 H 897.347 2.6528 -3.36637 0
M  V30 9575 H 901.531 2.43753 -4.32317 0
M  V30 9576 H 896.787 2.17896 -5.71254 0
M  V30 9577 H 900.961 1.97401 -6.67837 0
M  V30 9578 H 898.588 1.83948 -7.37609 0
M  V30 9579 N 900.163 1.21714 1.00117 0
M  V30 9580 C 901.095 0.937627 2.09144 0
M  V30 9581 C 902.108 -0.0806291 1.626 0
M  V30 9582 O 903.297 0.152348 1.77849 0
M  V30 9583 C 900.397 0.387036 3.36683 0
M  V30 9584 C 899.57 1.46054 4.12295 0
M  V30 9585 C 898.629 0.918505 5.18122 0
M  V30 9586 O 897.655 1.60282 5.46167 0
M  V30 9587 N 898.857 -0.264308 5.79898 0
M  V30 9588 H 901.622 1.87622 2.33705 0
M  V30 9589 H 899.183 1.12291 1.16629 0
M  V30 9590 H 901.175 0.00992825 4.04699 0
M  V30 9591 H 899.745 -0.456467 3.09249 0
M  V30 9592 H 898.965 2.01133 3.39027 0
M  V30 9593 H 900.253 2.18306 4.59587 0
M  V30 9594 H 899.651 -0.837242 5.5947 0
M  V30 9595 H 898.208 -0.582886 6.49188 0
M  V30 9596 N 901.641 -1.19671 1.02551 0
M  V30 9597 C 902.574 -2.21522 0.547998 0
M  V30 9598 C 903.552 -1.57363 -0.409349 0
M  V30 9599 O 904.736 -1.85638 -0.327248 0
M  V30 9600 C 901.863 -3.38101 -0.201375 0
M  V30 9601 C 900.909 -4.20601 0.706886 0
M  V30 9602 S 901.742 -4.89066 2.18116 0
M  V30 9603 C 902.898 -6.09058 1.4422 0
M  V30 9604 H 903.131 -2.61684 1.41099 0
M  V30 9605 H 900.664 -1.29864 0.835153 0
M  V30 9606 H 902.622 -4.05674 -0.627607 0
M  V30 9607 H 901.283 -2.96381 -1.04005 0
M  V30 9608 H 900.476 -5.03836 0.128554 0
M  V30 9609 H 900.078 -3.58329 1.07129 0
M  V30 9610 H 902.37 -6.73588 0.726975 0
M  V30 9611 H 903.313 -6.71368 2.25102 0
M  V30 9612 H 903.721 -5.56599 0.941176 0
M  V30 9613 N 903.119 -0.802921 -1.35613 0
M  V30 9614 C 904.049 -0.225131 -2.32412 0
M  V30 9615 C 905.03 0.647383 -1.57299 0
M  V30 9616 O 906.215 0.578414 -1.85386 0
M  V30 9617 C 903.345 0.630085 -3.41537 0
M  V30 9618 C 902.299 -0.143635 -4.27759 0
M  V30 9619 C 901.625 0.833046 -5.28171 0
M  V30 9620 C 902.925 -1.34054 -5.04804 0
M  V30 9621 H 904.619 -1.03385 -2.80984 0
M  V30 9622 H 902.165 -0.498593 -1.35093 0
M  V30 9623 H 904.118 1.04433 -4.08254 0
M  V30 9624 H 902.842 1.47165 -2.91565 0
M  V30 9625 H 901.501 -0.539015 -3.62616 0
M  V30 9626 H 901.149 1.67001 -4.74468 0
M  V30 9627 H 900.849 0.319697 -5.8673 0
M  V30 9628 H 902.373 1.24558 -5.97761 0
M  V30 9629 H 903.787 -1.00136 -5.64487 0
M  V30 9630 H 902.184 -1.78812 -5.72841 0
M  V30 9631 H 903.254 -2.12906 -4.35659 0
M  V30 9632 N 904.597 1.47463 -0.556102 0
M  V30 9633 C 905.527 2.32801 0.180497 0
M  V30 9634 C 906.508 1.43721 0.909848 0
M  V30 9635 O 907.693 1.72578 0.89053 0
M  V30 9636 C 904.823 3.25478 1.21167 0
M  V30 9637 C 903.777 4.2379 0.598846 0
M  V30 9638 C 903.103 5.05783 1.73457 0
M  V30 9639 C 904.403 5.20387 -0.446659 0
M  V30 9640 H 906.097 2.94636 -0.531956 0
M  V30 9641 H 903.643 1.41683 -0.257267 0
M  V30 9642 H 905.596 3.8402 1.73513 0
M  V30 9643 H 904.32 2.61695 1.95405 0
M  V30 9644 H 902.979 3.66472 0.0966897 0
M  V30 9645 H 902.627 4.38405 2.46596 0
M  V30 9646 H 902.327 5.72343 1.33031 0
M  V30 9647 H 903.851 5.67183 2.26131 0
M  V30 9648 H 905.265 5.73299 -0.00930019 0
M  V30 9649 H 903.662 5.95143 -0.769735 0
M  V30 9650 H 904.732 4.65932 -1.34295 0
M  V30 9651 N 906.075 0.2925 1.54862 0
M  V30 9652 C 907.491 -0.0611461 1.59483 0
M  V30 9653 C 907.691 -1.53141 1.30958 0
M  V30 9654 O 906.747 -2.28291 1.07887 0
M  V30 9655 C 908.06 0.329143 2.98893 0
M  V30 9656 C 909.608 0.2772 3.1177 0
M  V30 9657 C 910.083 0.642185 4.53475 0
M  V30 9658 N 911.574 0.594396 4.5937 0
M  V30 9659 C 912.309 0.849385 5.67074 0
M  V30 9660 N 911.805 1.1699 6.82851 0
M  V30 9661 N 913.598 0.777016 5.56704 0
M  V30 9662 H 905.749 1.25079 1.71665 0
M  V30 9663 H 908.012 0.506516 0.80134 0
M  V30 9664 H 907.718 1.35233 3.24661 0
M  V30 9665 H 907.592 -0.321442 3.75828 0
M  V30 9666 H 909.979 -0.736725 2.85756 0
M  V30 9667 H 910.06 0.962289 2.3701 0
M  V30 9668 H 909.704 1.65388 4.80218 0
M  V30 9669 H 909.634 -0.0648831 5.2656 0
M  V30 9670 H 912.125 0.357256 3.76208 0
M  V30 9671 H 912.438 1.35067 7.60905 0
M  V30 9672 H 910.783 1.20785 6.84424 0
M  V30 9673 H 913.974 0.526333 4.65132 0
M  V30 9674 H 914.147 0.979113 6.4056 0
M  V30 9675 N 907.553 -1.57587 0.0200696 0
M  V30 9676 C 908.516 -2.08595 -0.949767 0
M  V30 9677 C 909.516 -0.999215 -1.25985 0
M  V30 9678 O 910.706 -1.26115 -1.2017 0
M  V30 9679 C 907.838 -2.54424 -2.26895 0
M  V30 9680 H 909.031 -2.95563 -0.508161 0
M  V30 9681 H 906.584 -1.54631 -0.227798 0
M  V30 9682 H 907.319 -1.70758 -2.75703 0
M  V30 9683 H 907.104 -3.3381 -2.05702 0
M  V30 9684 H 908.594 -2.94144 -2.96427 0
M  V30 9685 N 909.032 0.252966 -1.55557 0
M  V30 9686 C 910.257 1.0038 -1.8149 0
M  V30 9687 C 910.682 1.78397 -0.596318 0
M  V30 9688 O 910.04 1.7551 0.454535 0
M  V30 9689 C 910.088 1.9222 -3.05096 0
M  V30 9690 O 909.192 3.01302 -2.81587 0
M  V30 9691 H 908.533 0.285949 -0.599274 0
M  V30 9692 H 911.063 0.275795 -2.02733 0
M  V30 9693 H 911.073 2.338 -3.34368 0
M  V30 9694 H 909.748 1.34852 -3.93431 0
M  V30 9695 H 908.325 2.63894 -2.63466 0
M  V30 9696 N 910.51 1.48831 0.518367 0
M  V30 9697 C 911.458 1.64678 1.64268 0
M  V30 9698 C 912.452 0.512967 1.61447 0
M  V30 9699 O 913.658 0.692063 1.66164 0
M  V30 9700 H 910.033 0.518964 0.544224 0
M  V30 9701 H 912.004 2.59083 1.4805 0
M  V30 9702 C 910.753 1.71449 3.0249 0
M  V30 9703 H 910.076 2.58061 3.0536 0
M  V30 9704 H 911.516 1.86577 3.80743 0
M  V30 9705 C 909.975 0.455584 3.33805 0
M  V30 9706 O 910.505 -0.426428 3.9943 0
M  V30 9707 N 908.711 0.323763 2.88791 0
M  V30 9708 H 908.258 1.04249 2.35563 0
M  V30 9709 H 908.216 -0.517514 3.10112 0
M  V30 9710 N 911.988 -0.768124 1.37614 0
M  V30 9711 C 912.951 -1.86314 1.3349 0
M  V30 9712 C 913.951 -1.59025 0.23823 0
M  V30 9713 O 915.141 -1.6704 0.494288 0
M  V30 9714 C 912.273 -3.23519 1.07462 0
M  V30 9715 H 913.466 -1.91382 2.30896 0
M  V30 9716 H 911.019 -0.968267 1.22696 0
M  V30 9717 H 911.754 -3.24127 0.106028 0
M  V30 9718 H 911.539 -3.44719 1.86846 0
M  V30 9719 H 913.029 -4.03597 1.07236 0
M  V30 9720 N 913.466 -1.22244 -0.994698 0
M  V30 9721 C 914.712 -1.04746 -1.73655 0
M  V30 9722 C 915.045 0.41668 -1.89677 0
M  V30 9723 O 914.32 1.30897 -1.43862 0
M  V30 9724 C 914.603 -1.75716 -3.14318 0
M  V30 9725 C 914.456 -3.29714 -3.05955 0
M  V30 9726 C 915.775 -1.50809 -4.13455 0
M  V30 9727 H 912.894 -0.381921 -0.630322 0
M  V30 9728 H 915.536 -1.50559 -1.15897 0
M  V30 9729 H 913.686 -1.3677 -3.63629 0
M  V30 9730 H 915.358 -3.78093 -2.64279 0
M  V30 9731 H 913.601 -3.59484 -2.42804 0
M  V30 9732 H 914.272 -3.74547 -4.05485 0
M  V30 9733 H 916.748 -1.84636 -3.72892 0
M  V30 9734 H 915.624 -2.02964 -5.09997 0
M  V30 9735 H 915.885 -0.440292 -4.39902 0
M  V30 9736 N 914.944 1.19125 -1.03184 0
M  V30 9737 C 916.192 1.8851 -0.728587 0
M  V30 9738 C 916.513 1.80195 0.74531 0
M  V30 9739 O 915.783 1.21437 1.5372 0
M  V30 9740 H 914.363 0.69784 -0.266511 0
M  V30 9741 H 917.025 1.44607 -1.3067 0
M  V30 9742 H 916.121 2.9477 -1.02554 0
M  V30 9743 N 916.422 0.810101 1.35185 0
M  V30 9744 C 917.652 0.404109 2.02609 0
M  V30 9745 C 918.06 -0.990748 1.61186 0
M  V30 9746 O 917.403 -1.65038 0.80674 0
M  V30 9747 C 917.465 0.412047 3.57131 0
M  V30 9748 C 917.129 1.75802 4.21832 0
M  V30 9749 C 918.126 2.71687 4.43263 0
M  V30 9750 C 915.811 2.04299 4.58876 0
M  V30 9751 C 917.805 3.9425 5.00845 0
M  V30 9752 C 915.492 3.27125 5.16171 0
M  V30 9753 C 916.49 4.21918 5.37098 0
M  V30 9754 O 916.178 5.42576 5.93184 0
M  V30 9755 H 915.91 0.161914 0.656323 0
M  V30 9756 H 918.464 1.09605 1.73712 0
M  V30 9757 H 916.694 -0.336509 3.85233 0
M  V30 9758 H 918.383 0.0278817 4.0589 0
M  V30 9759 H 919.149 2.50964 4.15021 0
M  V30 9760 H 915.028 1.31324 4.41899 0
M  V30 9761 H 918.572 4.68251 5.17094 0
M  V30 9762 H 914.469 3.47718 5.43841 0
M  V30 9763 H 915.237 5.43921 6.11631 0
M  V30 9764 N 917.9 -1.47166 0.563914 0
M  V30 9765 C 918.847 -2.30097 -0.180013 0
M  V30 9766 C 919.817 -1.39473 -0.902019 0
M  V30 9767 O 921.002 -1.68432 -0.896396 0
M  V30 9768 C 918.142 -3.23573 -1.19978 0
M  V30 9769 C 917.255 -4.2929 -0.483149 0
M  V30 9770 C 916.39 -5.0991 -1.48879 0
M  V30 9771 C 915.429 -6.07395 -0.757513 0
M  V30 9772 N 914.566 -6.8095 -1.71031 0
M  V30 9773 H 919.406 -2.93189 0.53329 0
M  V30 9774 H 916.943 -1.4451 0.274814 0
M  V30 9775 H 918.901 -3.76196 -1.80368 0
M  V30 9776 H 917.531 -2.6233 -1.88103 0
M  V30 9777 H 916.583 -3.79671 0.235414 0
M  V30 9778 H 917.895 -4.9872 0.0894075 0
M  V30 9779 H 917.049 -5.66717 -2.16603 0
M  V30 9780 H 915.788 -4.40397 -2.09527 0
M  V30 9781 H 914.793 -5.4976 -0.0663841 0
M  V30 9782 H 916.018 -6.78919 -0.156685 0
M  V30 9783 H 913.964 -6.14162 -2.30524 0
M  V30 9784 H 913.881 -7.46574 -1.19007 0
M  V30 9785 H 915.149 -7.42326 -2.37849 0
M  V30 9786 N 919.378 -0.300708 -1.54705 0
M  V30 9787 C 920.326 0.591264 -2.2496 0
M  V30 9788 C 921.32 1.13725 -1.2555 0
M  V30 9789 O 922.526 1.08793 -1.43402 0
M  V30 9790 H 918.901 0.209278 -0.722293 0
M  V30 9791 H 920.872 -0.0238175 -2.9839 0
M  V30 9792 C 919.621 1.75179 -3.00346 0
M  V30 9793 H 918.944 1.34089 -3.76643 0
M  V30 9794 H 920.384 2.35198 -3.52786 0
M  V30 9795 C 918.843 2.65574 -2.07298 0
M  V30 9796 O 919.373 3.6666 -1.64083 0
M  V30 9797 N 917.579 2.33301 -1.7326 0
M  V30 9798 H 917.126 1.51142 -2.08599 0
M  V30 9799 H 917.084 2.94049 -1.11278 0
M  V30 9800 N 920.856 1.57574 -0.0284266 0
M  V30 9801 C 922.086 1.95787 0.659617 0
M  V30 9802 C 922.494 0.903475 1.66235 0
M  V30 9803 O 921.837 -0.12329 1.83286 0
M  V30 9804 C 921.899 3.30139 1.42298 0
M  V30 9805 C 921.563 4.53322 0.578658 0
M  V30 9806 C 922.56 5.19696 -0.145751 0
M  V30 9807 C 920.245 4.9964 0.516264 0
M  V30 9808 C 922.239 6.30708 -0.921235 0
M  V30 9809 C 919.926 6.10534 -0.262925 0
M  V30 9810 C 920.924 6.75927 -0.980382 0
M  V30 9811 O 920.612 7.84692 -1.7468 0
M  V30 9812 H 920.344 0.649681 0.186792 0
M  V30 9813 H 922.898 2.05227 -0.0842687 0
M  V30 9814 H 921.128 3.17188 2.21199 0
M  V30 9815 H 922.817 3.53259 1.99906 0
M  V30 9816 H 923.583 4.84882 -0.106876 0
M  V30 9817 H 919.462 4.48547 1.06427 0
M  V30 9818 H 923.006 6.81682 -1.48176 0
M  V30 9819 H 918.903 6.44786 -0.303519 0
M  V30 9820 H 919.671 8.01355 -1.6665 0
M  V30 9821 N 922.334 -0.244713 1.55689 0
M  V30 9822 C 923.745 -0.813603 1.6804 0
M  V30 9823 C 924.096 -1.85936 0.626281 0
M  V30 9824 O 923.221 -2.15206 -0.227038 0
M  V30 9825 C 923.816 -1.48252 3.04642 0
M  V30 9826 C 922.375 -1.99908 3.18926 0
M  V30 9827 C 921.522 -0.850958 2.6392 0
M  V30 9828 H 924.473 -0.0204805 1.58687 0
M  V30 9829 H 924.494 -2.35062 2.99209 0
M  V30 9830 H 924.006 -0.721164 3.81341 0
M  V30 9831 H 922.107 -2.78918 2.47054 0
M  V30 9832 H 922.22 -2.19497 4.25862 0
M  V30 9833 H 920.584 -1.25206 2.21801 0
M  V30 9834 H 921.367 -0.10265 3.43146 0
M  V30 9835 N 923.813 -1.49104 -0.510467 0
M  V30 9836 C 925.09 -1.48609 -1.27179 0
M  V30 9837 C 925.47 -0.208537 -2.10067 0
M  V30 9838 O 924.818 0.809335 -2.13687 0
M  V30 9839 C 925.028 -2.75953 -2.1366 0
M  V30 9840 C 926.376 -3.25067 -2.73161 0
M  V30 9841 O 927.4 -2.77005 -2.23934 0
M  V30 9842 O 926.259 -4.08747 -3.62751 0
M  V30 9843 H 923.353 -0.594374 -0.57502 0
M  V30 9844 H 925.899 -1.61358 -0.525515 0
M  V30 9845 H 924.671 -3.60434 -1.52325 0
M  V30 9846 H 924.294 -2.66019 -2.95499 0
M  V30 9847 N 925.291 0.760815 -1.38019 0
M  V30 9848 C 926.239 1.89578 -1.34771 0
M  V30 9849 C 927.233 1.67766 -0.234714 0
M  V30 9850 O 928.439 1.75423 -0.403352 0
M  V30 9851 H 924.814 0.623608 -0.420258 0
M  V30 9852 H 926.785 1.89434 -2.30558 0
M  V30 9853 C 925.534 3.26976 -1.18246 0
M  V30 9854 H 924.857 3.44342 -2.03147 0
M  V30 9855 H 926.297 4.06657 -1.20026 0
M  V30 9856 C 924.756 3.36717 0.111145 0
M  V30 9857 O 925.286 3.86607 1.09079 0
M  V30 9858 N 923.492 2.90128 0.165542 0
M  V30 9859 H 923.039 2.49719 -0.632328 0
M  V30 9860 H 922.997 2.97026 1.03067 0
M  V30 9861 N 926.769 1.22769 0.988202 0
M  V30 9862 C 928.015 1.05665 1.73097 0
M  V30 9863 C 928.348 -0.406615 1.89895 0
M  V30 9864 O 927.623 -1.30132 1.44554 0
M  V30 9865 C 927.906 1.77381 3.13382 0
M  V30 9866 C 927.759 3.31332 3.04203 0
M  V30 9867 C 929.078 1.52999 4.12649 0
M  V30 9868 H 926.197 0.385258 0.628288 0
M  V30 9869 H 928.839 1.51171 1.15097 0
M  V30 9870 H 926.989 1.38696 3.62899 0
M  V30 9871 H 928.661 3.79489 2.6227 0
M  V30 9872 H 926.904 3.60767 2.40894 0
M  V30 9873 H 927.575 3.76692 4.03493 0
M  V30 9874 H 930.051 1.86611 3.71908 0
M  V30 9875 H 928.927 2.05666 5.08913 0
M  V30 9876 H 929.188 0.463615 4.39662 0
M  V30 9877 N 928.247 -1.18576 1.03814 0
M  V30 9878 C 929.496 -1.87822 0.735235 0
M  V30 9879 C 929.809 -1.81069 -0.739819 0
M  V30 9880 O 931.015 -2.45654 -1.15614 0
M  V30 9881 C 929.471 -3.36941 1.26486 0
M  V30 9882 C 929.079 -3.5223 2.76836 0
M  V30 9883 C 930.823 -4.11604 1.03836 0
M  V30 9884 C 928.73 -4.95294 3.23169 0
M  V30 9885 H 927.66 -0.703487 0.271333 0
M  V30 9886 H 930.311 -1.34 1.25365 0
M  V30 9887 H 928.693 -3.90217 0.674318 0
M  V30 9888 H 929.867 -3.09239 3.41625 0
M  V30 9889 H 928.182 -2.90969 2.97869 0
M  V30 9890 H 930.779 -5.17123 1.3597 0
M  V30 9891 H 931.122 -4.16293 -0.0244945 0
M  V30 9892 H 931.655 -3.64494 1.59338 0
M  V30 9893 H 928.394 -4.95772 4.28824 0
M  V30 9894 H 927.914 -5.3901 2.63113 0
M  V30 9895 H 929.593 -5.63996 3.17045 0
M  V30 9896 N 929.725 -0.817259 -1.34754 0
M  V30 9897 C 930.675 -0.207585 -2.27053 0
M  V30 9898 C 931.659 0.624836 -1.48272 0
M  V30 9899 O 932.851 0.480344 -1.70358 0
M  V30 9900 C 929.98 0.634281 -3.3739 0
M  V30 9901 C 929.066 -0.208456 -4.23587 0
M  V30 9902 N 929.457 -1.2767 -4.89422 0
M  V30 9903 C 927.755 0.00815096 -4.45999 0
M  V30 9904 C 928.456 -1.79209 -5.53407 0
M  V30 9905 N 927.432 -1.09686 -5.32419 0
M  V30 9906 H 931.234 -1.0248 -2.75454 0
M  V30 9907 H 928.748 -0.659492 -1.48406 0
M  V30 9908 H 930.745 1.08718 -4.02475 0
M  V30 9909 H 929.405 1.44972 -2.90539 0
M  V30 9910 H 930.416 -1.65945 -4.90594 0
M  V30 9911 H 927.093 0.791879 -4.09921 0
M  V30 9912 H 928.483 -2.68548 -6.15899 0
M  V30 9913 N 931.203 1.46865 -0.571711 0
M  V30 9914 C 932.15 2.30189 0.167808 0
M  V30 9915 C 933.12 1.3995 0.89461 0
M  V30 9916 O 934.305 1.68905 0.887451 0
M  V30 9917 C 931.445 3.24205 1.1826 0
M  V30 9918 C 930.558 4.2954 0.460376 0
M  V30 9919 C 929.693 5.10693 1.46173 0
M  V30 9920 C 928.732 6.07788 0.725291 0
M  V30 9921 N 927.869 6.81847 1.67417 0
M  V30 9922 H 932.709 2.92902 -0.548831 0
M  V30 9923 H 930.246 1.44362 -0.282474 0
M  V30 9924 H 932.204 3.77147 1.7837 0
M  V30 9925 H 930.834 2.63324 1.86709 0
M  V30 9926 H 929.886 3.79541 -0.255546 0
M  V30 9927 H 931.198 4.98665 -0.115855 0
M  V30 9928 H 930.352 5.67857 2.13595 0
M  V30 9929 H 929.091 4.41502 2.07188 0
M  V30 9930 H 928.096 5.49787 0.037228 0
M  V30 9931 H 929.321 6.78993 0.120678 0
M  V30 9932 H 927.267 6.15376 2.27263 0
M  V30 9933 H 927.184 7.47195 1.15046 0
M  V30 9934 H 928.452 7.43577 2.33908 0
M  V30 9935 N 932.681 0.308908 1.54543 0
M  V30 9936 C 933.928 -0.298036 2.00295 0
M  V30 9937 C 934.256 -1.53285 1.19724 0
M  V30 9938 O 933.511 -1.93917 0.263551 0
M  V30 9939 C 933.81 -0.691522 3.50646 0
M  V30 9940 C 933.476 0.442454 4.48724 0
M  V30 9941 C 932.138 0.753739 4.7526 0
M  V30 9942 C 934.49 1.20488 5.07082 0
M  V30 9943 C 931.818 1.83044 5.57415 0
M  V30 9944 C 934.17 2.27156 5.90409 0
M  V30 9945 C 932.834 2.58882 6.15253 0
M  V30 9946 H 932.104 -0.109059 0.73293 0
M  V30 9947 H 934.751 0.429647 1.86618 0
M  V30 9948 H 933.056 -1.49941 3.61974 0
M  V30 9949 H 934.753 -1.17244 3.83477 0
M  V30 9950 H 931.343 0.189744 4.2818 0
M  V30 9951 H 935.527 0.977653 4.86575 0
M  V30 9952 H 930.783 2.08088 5.749 0
M  V30 9953 H 934.957 2.86687 6.34652 0
M  V30 9954 H 932.584 3.42443 6.78702 0
M  V30 9955 N 934.159 -1.57557 0.0367827 0
M  V30 9956 C 935.405 -1.92399 -0.641133 0
M  V30 9957 C 935.738 -0.914191 -1.71336 0
M  V30 9958 O 935.013 0.0619616 -1.94401 0
M  V30 9959 C 935.296 -3.37689 -1.25052 0
M  V30 9960 C 935.149 -4.4941 -0.187326 0
M  V30 9961 C 936.468 -3.8309 -2.16634 0
M  V30 9962 H 933.587 -0.699666 -0.231597 0
M  V30 9963 H 936.229 -1.89759 0.0956083 0
M  V30 9964 H 934.379 -3.40069 -1.87843 0
M  V30 9965 H 936.051 -4.59161 0.443736 0
M  V30 9966 H 934.294 -4.31065 0.486313 0
M  V30 9967 H 934.965 -5.48119 -0.653459 0
M  V30 9968 H 937.441 -3.82494 -1.63821 0
M  V30 9969 H 936.317 -4.85429 -2.56222 0
M  V30 9970 H 936.578 -3.19028 -3.06062 0
M  V30 9971 N 935.637 0.236453 -1.55816 0
M  V30 9972 C 936.569 1.31602 -1.87653 0
M  V30 9973 C 937.582 1.43782 -0.763584 0
M  V30 9974 O 938.771 1.44945 -1.04178 0
M  V30 9975 C 935.871 2.69342 -2.05689 0
M  V30 9976 C 935.044 2.79298 -3.36617 0
M  V30 9977 C 934.103 3.97952 -3.44268 0
M  V30 9978 O 933.129 3.86989 -4.17406 0
M  V30 9979 N 934.331 5.11594 -2.74321 0
M  V30 9980 H 937.096 1.04623 -2.80845 0
M  V30 9981 H 934.657 0.426534 -1.5618 0
M  V30 9982 H 936.649 3.47074 -2.08138 0
M  V30 9983 H 935.219 2.88984 -1.19192 0
M  V30 9984 H 934.439 1.8816 -3.46395 0
M  V30 9985 H 935.727 2.82908 -4.22895 0
M  V30 9986 H 935.125 5.23394 -2.14651 0
M  V30 9987 H 933.682 5.87422 -2.8245 0
M  V30 9988 N 937.115 1.49373 0.502552 0
M  V30 9989 C 938.025 1.68659 1.63068 0
M  V30 9990 C 939.041 0.569182 1.64427 0
M  V30 9991 O 940.217 0.843695 1.82876 0
M  V30 9992 C 937.282 1.74745 2.99441 0
M  V30 9993 C 936.343 2.98311 3.08721 0
M  V30 9994 C 935.576 3.04097 4.38589 0
M  V30 9995 O 935.799 2.17519 5.27297 0
M  V30 9996 O 934.733 3.96544 4.52809 0
M  V30 9997 H 938.559 2.64226 1.49727 0
M  V30 9998 H 936.144 1.33096 0.67867 0
M  V30 9999 H 938.026 1.8111 3.80496 0
M  V30 10000 H 936.701 0.823565 3.13048 0
M  V30 10001 H 935.608 2.97465 2.2686 0
M  V30 10002 H 936.941 3.90174 3.00041 0
M  V30 10003 N 938.594 -0.753485 1.38421 0
M  V30 10004 C 939.819 -1.54783 1.38047 0
M  V30 10005 C 940.244 -1.8808 -0.0276371 0
M  V30 10006 O 939.602 -1.5058 -1.00973 0
M  V30 10007 C 939.65 -2.82353 2.24297 0
M  V30 10008 O 938.754 -3.77509 1.66014 0
M  V30 10009 H 938.095 -0.468151 0.470883 0
M  V30 10010 H 940.625 -0.931144 1.82184 0
M  V30 10011 H 940.635 -3.31277 2.38159 0
M  V30 10012 H 939.31 -2.57449 3.26639 0
M  V30 10013 H 937.887 -3.36212 1.61294 0
M  V30 10014 N 940.072 -1.23292 -0.981677 0
M  V30 10015 C 941.035 -1.01417 -2.05542 0
M  V30 10016 C 942.035 0.0235354 -1.60783 0
M  V30 10017 O 943.225 -0.216082 -1.72855 0
M  V30 10018 C 940.357 -0.534239 -3.36688 0
M  V30 10019 H 941.55 -1.96702 -2.26381 0
M  V30 10020 H 939.103 -1.05318 -1.1549 0
M  V30 10021 H 939.838 0.422452 -3.21537 0
M  V30 10022 H 939.623 -1.28304 -3.70514 0
M  V30 10023 H 941.113 -0.40179 -4.15663 0
M  V30 10024 N 941.55 1.18024 -1.04442 0
M  V30 10025 C 942.497 2.21785 -0.638759 0
M  V30 10026 C 943.467 1.62255 0.355312 0
M  V30 10027 O 944.652 1.89176 0.24844 0
M  V30 10028 C 941.792 3.45098 -0.0118002 0
M  V30 10029 C 940.905 4.1895 -1.05379 0
M  V30 10030 C 940.04 5.2973 -0.394951 0
M  V30 10031 C 939.079 5.95359 -1.42178 0
M  V30 10032 N 938.216 6.97668 -0.787635 0
M  V30 10033 H 943.056 2.55839 -1.52808 0
M  V30 10034 H 940.593 1.25681 -0.764378 0
M  V30 10035 H 942.551 4.15564 0.369075 0
M  V30 10036 H 941.181 3.11652 0.84102 0
M  V30 10037 H 940.233 3.47274 -1.55258 0
M  V30 10038 H 941.545 4.63877 -1.83355 0
M  V30 10039 H 940.699 6.06687 0.0399244 0
M  V30 10040 H 939.438 4.85915 0.416867 0
M  V30 10041 H 938.443 5.17139 -1.86675 0
M  V30 10042 H 939.668 6.41255 -2.23536 0
M  V30 10043 H 937.614 6.56 0.00380893 0
M  V30 10044 H 937.531 7.40867 -1.50505 0
M  V30 10045 H 938.799 7.78586 -0.377282 0
M  V30 10046 N 943.028 0.824394 1.34319 0
M  V30 10047 C 943.991 0.252696 2.27803 0
M  V30 10048 C 944.991 -0.570254 1.50349 0
M  V30 10049 O 946.181 -0.386145 1.69866 0
M  V30 10050 C 943.313 -0.645575 3.34731 0
M  V30 10051 H 944.506 1.07742 2.79878 0
M  V30 10052 H 942.059 0.596367 1.44475 0
M  V30 10053 H 942.794 -1.4933 2.87873 0
M  V30 10054 H 942.579 -0.0569478 3.92059 0
M  V30 10055 H 944.069 -1.03933 4.0446 0
M  V30 10056 N 944.506 -1.46559 0.579492 0
M  V30 10057 C 945.754 -2.02 0.0637157 0
M  V30 10058 C 946.075 -1.45378 -1.29962 0
M  V30 10059 O 945.345 -0.637262 -1.85245 0
M  V30 10060 H 943.925 -0.746717 0.0205638 0
M  V30 10061 H 946.587 -1.79702 0.754544 0
M  V30 10062 H 945.683 -3.12099 -0.00770254 0
M  V30 10063 N 945.984 -0.3171 -1.54377 0
M  V30 10064 C 947.233 0.288271 -1.99629 0
M  V30 10065 C 947.546 1.53754 -1.2091 0
M  V30 10066 O 948.752 2.2185 -1.56508 0
M  V30 10067 C 947.208 0.564188 -3.5545 0
M  V30 10068 C 946.816 -0.667659 -4.42997 0
M  V30 10069 C 948.56 1.12987 -4.09187 0
M  V30 10070 C 946.467 -0.364003 -5.90279 0
M  V30 10071 H 945.397 0.111492 -0.745711 0
M  V30 10072 H 948.048 -0.428317 -1.78431 0
M  V30 10073 H 946.43 1.34079 -3.72611 0
M  V30 10074 H 947.604 -1.44335 -4.37612 0
M  V30 10075 H 945.919 -1.1531 -4.00116 0
M  V30 10076 H 948.516 1.37157 -5.1681 0
M  V30 10077 H 948.859 2.07722 -3.60773 0
M  V30 10078 H 949.392 0.414595 -3.95634 0
M  V30 10079 H 946.131 -1.28035 -6.42874 0
M  V30 10080 H 945.651 0.374102 -5.98632 0
M  V30 10081 H 947.33 0.0285433 -6.46994 0
M  V30 10082 N 947.462 1.57535 -0.0451378 0
M  V30 10083 C 948.739 1.83785 0.669523 0
M  V30 10084 C 949.119 0.932331 1.89396 0
M  V30 10085 O 948.467 -0.00813229 2.28499 0
M  V30 10086 C 948.677 3.33376 1.03255 0
M  V30 10087 C 950.025 4.00243 1.41741 0
M  V30 10088 O 951.049 3.37965 1.12507 0
M  V30 10089 O 949.908 5.10038 1.96275 0
M  V30 10090 H 947.002 0.758342 0.329919 0
M  V30 10091 H 949.548 1.69538 -0.0740415 0
M  V30 10092 H 948.32 3.90965 0.161777 0
M  V30 10093 H 947.943 3.52787 1.83376 0
M  V30 10094 N 948.94 -0.228186 1.55939 0
M  V30 10095 C 950.186 -0.954964 1.78909 0
M  V30 10096 C 950.519 -1.8425 0.613648 0
M  V30 10097 O 949.794 -1.90604 -0.38737 0
M  V30 10098 C 950.077 -1.79957 3.1191 0
M  V30 10099 C 949.93 -0.938968 4.3989 0
M  V30 10100 C 951.249 -2.77859 3.41295 0
M  V30 10101 H 948.368 -0.345745 0.650868 0
M  V30 10102 H 951.01 -0.224244 1.88672 0
M  V30 10103 H 949.16 -2.42256 3.03717 0
M  V30 10104 H 950.832 -0.333225 4.60095 0
M  V30 10105 H 949.075 -0.244096 4.33113 0
M  V30 10106 H 949.746 -1.56416 5.29375 0
M  V30 10107 H 952.222 -2.25695 3.49572 0
M  V30 10108 H 951.098 -3.34062 4.35538 0
M  V30 10109 H 951.359 -3.55266 2.63132 0
M  V30 10110 N 950.418 -1.49637 -0.494624 0
M  V30 10111 C 951.665 -1.59445 -1.24834 0
M  V30 10112 C 951.993 -0.284028 -1.92415 0
M  V30 10113 O 951.248 0.728519 -1.81634 0
M  V30 10114 C 951.547 -2.70749 -2.33302 0
M  V30 10115 C 951.213 -4.12034 -1.83135 0
M  V30 10116 C 949.875 -4.50482 -1.69173 0
M  V30 10117 C 952.227 -5.00432 -1.4566 0
M  V30 10118 C 949.555 -5.75093 -1.16124 0
M  V30 10119 C 951.907 -6.25568 -0.940608 0
M  V30 10120 C 950.571 -6.62839 -0.787432 0
M  V30 10121 H 949.841 -0.583451 -0.456799 0
M  V30 10122 H 952.488 -1.8349 -0.548044 0
M  V30 10123 H 950.793 -2.407 -3.09145 0
M  V30 10124 H 952.49 -2.75546 -2.91334 0
M  V30 10125 H 949.08 -3.8169 -1.94964 0
M  V30 10126 H 953.264 -4.71379 -1.55291 0
M  V30 10127 H 948.52 -6.02665 -1.02982 0
M  V30 10128 H 952.694 -6.93439 -0.641467 0
M  V30 10129 H 950.321 -7.59279 -0.374191 0
M  V30 10130 N 951.896 0.746133 -1.38819 0
M  V30 10131 C 953.312 1.0502 -1.20179 0
M  V30 10132 C 953.512 2.01423 -0.0556271 0
M  V30 10133 O 952.568 2.45359 0.59625 0
M  V30 10134 C 953.881 1.62315 -2.53129 0
M  V30 10135 C 955.429 1.74449 -2.59878 0
M  V30 10136 C 955.904 2.35155 -3.93022 0
M  V30 10137 N 957.395 2.42577 -3.94602 0
M  V30 10138 C 958.13 2.9046 -4.94389 0
M  V30 10139 N 957.626 3.38322 -6.04574 0
M  V30 10140 N 959.419 2.89568 -4.81775 0
M  V30 10141 H 951.57 0.106551 -2.12133 0
M  V30 10142 H 953.833 0.109897 -0.941609 0
M  V30 10143 H 953.539 0.98946 -3.37495 0
M  V30 10144 H 953.413 2.61276 -2.72057 0
M  V30 10145 H 955.8 2.36943 -1.75903 0
M  V30 10146 H 955.881 0.741721 -2.4481 0
M  V30 10147 H 955.525 1.73292 -4.77422 0
M  V30 10148 H 955.455 3.36088 -4.05404 0
M  V30 10149 H 957.946 2.08735 -3.15021 0
M  V30 10150 H 958.259 3.73336 -6.76639 0
M  V30 10151 H 956.604 3.3636 -6.08184 0
M  V30 10152 H 959.795 2.51492 -3.94803 0
M  V30 10153 H 959.968 3.26571 -5.59692 0
M  V30 10154 N 953.375 1.23811 0.975125 0
M  V30 10155 C 954.624 1.06741 1.71141 0
M  V30 10156 C 954.937 -0.394986 1.9157 0
M  V30 10157 O 956.143 -0.685723 2.62698 0
M  V30 10158 C 954.599 1.86168 3.08009 0
M  V30 10159 C 954.207 3.36771 2.95448 0
M  V30 10160 C 955.951 1.77604 3.85561 0
M  V30 10161 C 953.858 4.0857 4.2758 0
M  V30 10162 H 952.788 0.395819 0.64175 0
M  V30 10163 H 955.439 1.47825 1.0872 0
M  V30 10164 H 953.821 1.37893 3.71216 0
M  V30 10165 H 954.995 3.92571 2.41298 0
M  V30 10166 H 953.31 3.46205 2.31368 0
M  V30 10167 H 955.907 2.28556 4.83391 0
M  V30 10168 H 956.25 0.739837 4.09673 0
M  V30 10169 H 956.783 2.23519 3.29065 0
M  V30 10170 H 953.522 5.12518 4.08663 0
M  V30 10171 H 953.042 3.57556 4.81574 0
M  V30 10172 H 954.721 4.15157 4.9624 0
M  V30 10173 N 954.853 -1.17469 1.05066 0
M  V30 10174 C 956.1 -1.87698 0.759987 0
M  V30 10175 C 956.428 -1.80964 -0.712902 0
M  V30 10176 O 955.683 -1.21146 -1.53695 0
M  V30 10177 C 955.982 -3.37211 1.18421 0
M  V30 10178 C 955.648 -3.64148 2.65909 0
M  V30 10179 C 954.31 -3.71209 3.06199 0
M  V30 10180 C 956.662 -3.75724 3.61222 0
M  V30 10181 C 953.99 -3.87334 4.40669 0
M  V30 10182 C 956.342 -3.93368 4.95424 0
M  V30 10183 C 955.006 -3.98667 5.3537 0
M  V30 10184 H 954.276 -0.686835 0.278099 0
M  V30 10185 H 956.923 -1.38975 1.31751 0
M  V30 10186 H 955.228 -3.87982 0.545654 0
M  V30 10187 H 956.925 -3.89911 0.936518 0
M  V30 10188 H 953.515 -3.59276 2.33707 0
M  V30 10189 H 957.699 -3.69591 3.31235 0
M  V30 10190 H 952.955 -3.89685 4.71122 0
M  V30 10191 H 957.129 -4.01267 5.69173 0
M  V30 10192 H 954.756 -4.10915 6.39572 0
M  V30 10193 N 956.331 -0.831506 -1.3388 0
M  V30 10194 C 957.608 -0.345907 -1.92517 0
M  V30 10195 C 957.988 1.16784 -1.75854 0
M  V30 10196 O 957.336 1.97889 -1.14245 0
M  V30 10197 C 957.546 -0.784692 -3.40064 0
M  V30 10198 C 958.894 -0.78846 -4.17215 0
M  V30 10199 O 959.918 -0.727823 -3.48685 0
M  V30 10200 O 958.777 -0.869481 -5.39539 0
M  V30 10201 H 955.871 -0.0963568 -0.821367 0
M  V30 10202 H 958.417 -0.916868 -1.42799 0
M  V30 10203 H 957.189 -1.82697 -3.46031 0
M  V30 10204 H 956.812 -0.189897 -3.97146 0
M  V30 10205 N 957.809 1.4625 -0.587256 0
M  V30 10206 C 959.034 2.07252 -0.0784517 0
M  V30 10207 C 959.459 1.43239 1.21919 0
M  V30 10208 O 958.817 0.517791 1.73749 0
M  V30 10209 C 958.865 3.60534 0.0691037 0
M  V30 10210 O 957.969 3.96773 1.12448 0
M  V30 10211 H 957.31 0.660825 -0.064859 0
M  V30 10212 H 959.84 1.87819 -0.811491 0
M  V30 10213 H 959.85 4.0708 0.273826 0
M  V30 10214 H 958.525 4.06516 -0.878514 0
M  V30 10215 H 957.102 3.6193 0.897852 0
M  V30 10216 N 959.287 0.325282 1.54207 0
M  V30 10217 C 960.217 -0.532574 2.27345 0
M  V30 10218 C 961.198 -1.11791 1.28206 0
M  V30 10219 O 962.383 -1.14272 1.57021 0
M  V30 10220 C 959.513 -1.69274 3.03255 0
M  V30 10221 C 958.467 -1.23662 4.09746 0
M  V30 10222 C 957.793 -2.48386 4.73506 0
M  V30 10223 C 959.093 -0.350244 5.21124 0
M  V30 10224 H 960.787 0.0775108 2.993 0
M  V30 10225 H 958.333 0.0387193 1.43948 0
M  V30 10226 H 960.286 -2.29917 3.53152 0
M  V30 10227 H 959.01 -2.32944 2.28921 0
M  V30 10228 H 957.669 -0.653106 3.60735 0
M  V30 10229 H 957.317 -3.10424 3.95786 0
M  V30 10230 H 957.017 -2.18558 5.45441 0
M  V30 10231 H 958.541 -3.09789 5.26178 0
M  V30 10232 H 959.955 -0.863011 5.66767 0
M  V30 10233 H 958.352 -0.14466 5.99926 0
M  V30 10234 H 959.422 0.618457 4.8094 0
M  V30 10235 N 960.765 -1.57509 0.0534917 0
M  V30 10236 C 961.713 -2.12851 -0.937931 0
M  V30 10237 C 962.707 -1.06088 -1.32067 0
M  V30 10238 O 963.913 -1.24494 -1.30005 0
M  V30 10239 H 960.288 -0.680357 -0.320342 0
M  V30 10240 H 962.259 -2.95047 -0.446077 0
M  V30 10241 C 961.008 -2.69034 -2.20264 0
M  V30 10242 H 960.331 -3.50848 -1.91693 0
M  V30 10243 H 961.771 -3.11375 -2.87788 0
M  V30 10244 C 960.23 -1.62919 -2.94888 0
M  V30 10245 O 960.76 -1.04334 -3.87914 0
M  V30 10246 N 958.966 -1.34385 -2.57661 0
M  V30 10247 H 958.513 -1.82214 -1.82088 0
M  V30 10248 H 958.471 -0.636149 -3.07897 0
M  V30 10249 N 962.243 0.219913 -1.56058 0
M  V30 10250 C 963.489 0.941055 -1.80321 0
M  V30 10251 C 963.844 1.81906 -0.626735 0
M  V30 10252 O 963.137 1.87811 0.379147 0
M  V30 10253 C 963.331 1.81293 -3.08006 0
M  V30 10254 C 963.16 1.02082 -4.37961 0
M  V30 10255 C 961.93 0.715096 -5.00214 0
M  V30 10256 C 964.128 0.385342 -5.12854 0
M  V30 10257 N 962.11 -0.098246 -6.13821 0
M  V30 10258 C 963.481 -0.291319 -6.19315 0
M  V30 10259 C 965.536 0.29854 -4.97004 0
M  V30 10260 C 964.239 -1.04648 -7.11647 0
M  V30 10261 C 966.265 -0.443159 -5.89737 0
M  V30 10262 C 965.627 -1.10836 -6.95625 0
M  V30 10263 H 961.726 0.324568 -0.711463 0
M  V30 10264 H 964.31 0.211795 -1.93545 0
M  V30 10265 H 962.481 2.51399 -2.96063 0
M  V30 10266 H 964.213 2.47167 -3.20454 0
M  V30 10267 H 960.968 1.03352 -4.62185 0
M  V30 10268 H 961.392 -0.4938 -6.75197 0
M  V30 10269 H 966.034 0.798478 -4.15192 0
M  V30 10270 H 963.752 -1.55793 -7.9294 0
M  V30 10271 H 967.338 -0.511348 -5.79549 0
M  V30 10272 H 966.218 -1.6731 -7.66144 0
M  V30 10273 N 963.721 1.49897 0.486681 0
M  V30 10274 C 964.967 1.60342 1.2417 0
M  V30 10275 C 965.3 0.295694 1.91936 0
M  V30 10276 O 964.575 -0.701788 1.81398 0
M  V30 10277 C 964.858 2.77281 2.29755 0
M  V30 10278 C 964.711 4.1789 1.66397 0
M  V30 10279 C 966.03 2.89817 3.31201 0
M  V30 10280 H 963.149 0.583605 0.450083 0
M  V30 10281 H 965.791 1.82232 0.537734 0
M  V30 10282 H 963.941 2.58748 2.89796 0
M  V30 10283 H 965.613 4.47975 1.10073 0
M  V30 10284 H 963.856 4.22872 0.967579 0
M  V30 10285 H 964.527 4.95612 2.43049 0
M  V30 10286 H 967.003 3.06732 2.81167 0
M  V30 10287 H 965.879 3.7329 4.02425 0
M  V30 10288 H 966.14 1.9977 3.94391 0
M  V30 10289 N 965.199 -0.738761 1.39212 0
M  V30 10290 C 966.476 -1.48982 1.26742 0
M  V30 10291 C 966.856 -2.10732 -0.12466 0
M  V30 10292 O 966.204 -1.98287 -1.13554 0
M  V30 10293 C 966.414 -2.54427 2.38889 0
M  V30 10294 C 967.762 -3.20915 2.78027 0
M  V30 10295 O 968.786 -2.64738 2.38311 0
M  V30 10296 O 967.645 -4.22558 3.46565 0
M  V30 10297 H 964.739 -0.661395 0.496473 0
M  V30 10298 H 967.285 -0.772907 1.51077 0
M  V30 10299 H 966.057 -2.07151 3.3197 0
M  V30 10300 H 965.68 -3.33682 2.162 0
M  V30 10301 N 966.677 -1.24326 -0.968545 0
M  V30 10302 C 967.609 -0.992749 -2.06584 0
M  V30 10303 C 968.622 0.0374902 -1.62757 0
M  V30 10304 O 969.811 -0.199448 -1.77382 0
M  V30 10305 C 966.911 -0.476165 -3.35538 0
M  V30 10306 C 966.084 -1.56934 -4.08277 0
M  V30 10307 C 965.143 -1.05555 -5.15504 0
M  V30 10308 O 964.169 -1.74707 -5.41725 0
M  V30 10309 N 965.371 0.110465 -5.80395 0
M  V30 10310 H 968.136 -1.93752 -2.28649 0
M  V30 10311 H 965.697 -1.15344 -1.13611 0
M  V30 10312 H 967.689 -0.117223 -4.0453 0
M  V30 10313 H 966.259 0.374315 -3.10351 0
M  V30 10314 H 965.479 -2.10051 -3.33575 0
M  V30 10315 H 966.767 -2.30415 -4.53637 0
M  V30 10316 H 966.165 0.688614 -5.61493 0
M  V30 10317 H 964.722 0.41056 -6.50506 0
M  V30 10318 N 968.156 1.1691 -1.05688 0
M  V30 10319 C 969.089 2.19992 -0.606539 0
M  V30 10320 C 970.067 1.58393 0.367483 0
M  V30 10321 O 971.251 1.8644 0.277914 0
M  V30 10322 C 968.378 3.38516 0.111663 0
M  V30 10323 C 967.424 4.18579 -0.818153 0
M  V30 10324 S 968.257 4.83111 -2.31006 0
M  V30 10325 C 969.413 6.0502 -1.60317 0
M  V30 10326 H 969.646 2.57851 -1.47987 0
M  V30 10327 H 967.179 1.27604 -0.869291 0
M  V30 10328 H 969.137 4.07195 0.519829 0
M  V30 10329 H 967.798 2.99034 0.961103 0
M  V30 10330 H 966.991 5.03318 -0.262092 0
M  V30 10331 H 966.593 3.55362 -1.16592 0
M  V30 10332 H 968.885 6.71424 -0.905309 0
M  V30 10333 H 969.828 6.65164 -2.42823 0
M  V30 10334 H 970.236 5.53908 -1.08842 0
M  V30 10335 N 969.634 0.838594 1.33437 0
M  V30 10336 C 970.581 0.269609 2.2922 0
M  V30 10337 C 971.551 -0.614429 1.54318 0
M  V30 10338 O 972.736 -0.552756 1.82618 0
M  V30 10339 C 969.876 -0.549527 3.40697 0
M  V30 10340 C 968.989 0.358502 4.3051 0
M  V30 10341 C 968.124 -0.471709 5.29101 0
M  V30 10342 C 967.163 0.434728 6.10554 0
M  V30 10343 N 966.3 -0.357339 7.0119 0
M  V30 10344 H 971.14 1.09172 2.77282 0
M  V30 10345 H 968.677 0.549832 1.36438 0
M  V30 10346 H 970.635 -1.03992 4.04032 0
M  V30 10347 H 969.265 -1.33661 2.93828 0
M  V30 10348 H 968.317 0.967204 3.67899 0
M  V30 10349 H 969.629 1.05483 4.87519 0
M  V30 10350 H 968.783 -1.02594 5.97963 0
M  V30 10351 H 967.522 -1.20147 4.72669 0
M  V30 10352 H 966.527 1.00097 5.40611 0
M  V30 10353 H 967.752 1.16285 6.6907 0
M  V30 10354 H 965.698 -1.07049 6.47207 0
M  V30 10355 H 965.615 0.280277 7.5548 0
M  V30 10356 H 966.883 -0.893814 7.74359 0
M  V30 10357 N 971.112 -1.45937 0.595003 0
M  V30 10358 C 972.358 -2.0262 0.0854317 0
M  V30 10359 C 972.691 -1.46402 -1.27594 0
M  V30 10360 O 971.966 -0.633823 -1.83883 0
M  V30 10361 C 972.249 -3.60085 0.0329075 0
M  V30 10362 C 972.102 -4.26663 1.42405 0
M  V30 10363 C 973.421 -4.35101 -0.661426 0
M  V30 10364 H 970.54 -0.736282 0.0325196 0
M  V30 10365 H 973.182 -1.73938 0.764563 0
M  V30 10366 H 971.332 -3.84652 -0.545439 0
M  V30 10367 H 973.004 -4.13321 2.04851 0
M  V30 10368 H 971.247 -3.85549 1.98833 0
M  V30 10369 H 971.918 -5.35497 1.33965 0
M  V30 10370 H 974.394 -4.15753 -0.169977 0
M  V30 10371 H 973.27 -5.44829 -0.667243 0
M  V30 10372 H 973.531 -4.07053 -1.72513 0
M  V30 10373 N 972.59 -0.333456 -1.54032 0
M  V30 10374 C 973.553 0.515392 -2.2333 0
M  V30 10375 C 974.553 1.03566 -1.23007 0
M  V30 10376 O 975.743 0.926514 -1.47517 0
M  V30 10377 C 972.875 1.7169 -2.94508 0
M  V30 10378 H 974.068 -0.0905407 -2.99763 0
M  V30 10379 H 971.621 -0.0846651 -1.56071 0
M  V30 10380 H 972.356 2.3618 -2.22237 0
M  V30 10381 H 972.141 1.35115 -3.68085 0
M  V30 10382 H 973.631 2.31922 -3.47278 0
M  V30 10383 N 974.068 1.57479 -0.061844 0
M  V30 10384 C 975.016 2.13346 0.926629 0
M  V30 10385 C 976.01 1.06787 1.31502 0
M  V30 10386 O 977.216 1.25181 1.29343 0
M  V30 10387 H 973.591 0.682046 0.316729 0
M  V30 10388 H 975.562 2.95279 0.430424 0
M  V30 10389 C 974.311 2.70198 2.18834 0
M  V30 10390 H 973.634 3.51859 1.89829 0
M  V30 10391 H 975.074 3.12897 2.86132 0
M  V30 10392 C 973.533 1.64481 2.9402 0
M  V30 10393 O 974.063 1.0639 3.87355 0
M  V30 10394 N 972.269 1.35749 2.56944 0
M  V30 10395 H 971.816 1.83177 1.81119 0
M  V30 10396 H 971.774 0.652469 3.07555 0
M  V30 10397 N 975.546 -0.211634 1.56173 0
M  V30 10398 C 976.456 -1.2831 1.96402 0
M  V30 10399 C 977.472 -1.50731 0.869254 0
M  V30 10400 O 978.648 -1.63669 1.17365 0
M  V30 10401 C 975.713 -2.61084 2.28114 0
M  V30 10402 C 974.774 -2.46879 3.51211 0
M  V30 10403 C 974.007 -3.73321 3.81401 0
M  V30 10404 O 974.23 -4.76773 3.13119 0
M  V30 10405 O 973.164 -3.69839 4.74871 0
M  V30 10406 H 976.99 -0.971733 2.87734 0
M  V30 10407 H 974.575 -0.415305 1.43512 0
M  V30 10408 H 976.457 -3.39481 2.49661 0
M  V30 10409 H 975.132 -2.91881 1.39954 0
M  V30 10410 H 974.039 -1.66648 3.34932 0
M  V30 10411 H 975.372 -2.21018 4.39786 0
M  V30 10412 N 977.024 -1.50153 -0.478725 0
M  V30 10413 C 977.987 -1.67916 -1.56003 0
M  V30 10414 C 978.987 -0.550111 -1.51097 0
M  V30 10415 O 980.177 -0.817001 -1.53853 0
M  V30 10416 C 977.309 -1.6973 -2.95643 0
M  V30 10417 H 978.502 -2.6438 -1.41573 0
M  V30 10418 H 976.055 -1.39519 -0.704565 0
M  V30 10419 H 976.79 -0.749306 -3.15525 0
M  V30 10420 H 976.575 -2.51745 -3.00611 0
M  V30 10421 H 978.065 -1.85453 -3.74162 0
M  V30 10422 N 978.502 0.731368 -1.39602 0
M  V30 10423 C 979.748 1.49321 -1.37227 0
M  V30 10424 C 980.081 1.94176 0.0306502 0
M  V30 10425 O 979.356 1.67046 0.996294 0
M  V30 10426 C 979.639 2.73035 -2.34784 0
M  V30 10427 C 979.492 2.34176 -3.84033 0
M  V30 10428 C 980.811 3.75146 -2.30116 0
M  V30 10429 H 977.93 0.541652 -0.499783 0
M  V30 10430 H 980.572 0.835968 -1.70621 0
M  V30 10431 H 978.722 3.29114 -2.06437 0
M  V30 10432 H 980.394 1.83701 -4.23145 0
M  V30 10433 H 978.637 1.66361 -4.00633 0
M  V30 10434 H 979.308 3.22786 -4.47787 0
M  V30 10435 H 981.784 3.28661 -2.55189 0
M  V30 10436 H 980.66 4.5937 -3.00451 0
M  V30 10437 H 980.921 4.22326 -1.30741 0
M  V30 10438 N 979.98 1.24838 0.961938 0
M  V30 10439 C 980.912 1.00369 2.06055 0
M  V30 10440 C 981.925 -0.0288583 1.62774 0
M  V30 10441 O 983.114 0.208853 1.77274 0
M  V30 10442 C 980.214 0.493953 3.35281 0
M  V30 10443 C 979.387 1.59097 4.07439 0
M  V30 10444 C 978.446 1.08288 5.14937 0
M  V30 10445 O 977.472 1.77577 5.40791 0
M  V30 10446 N 978.674 -0.0796836 5.80445 0
M  V30 10447 H 981.439 1.94962 2.27618 0
M  V30 10448 H 979 1.15945 1.12997 0
M  V30 10449 H 980.992 0.138675 4.04462 0
M  V30 10450 H 979.562 -0.357851 3.10545 0
M  V30 10451 H 978.782 2.11817 3.32456 0
M  V30 10452 H 980.07 2.32817 4.52409 0
M  V30 10453 H 979.468 -0.658827 5.6185 0
M  V30 10454 H 978.025 -0.376057 6.50714 0
M  V30 10455 N 981.458 -1.16348 1.06306 0
M  V30 10456 C 982.368 -2.24375 0.685059 0
M  V30 10457 C 983.384 -1.71413 -0.298956 0
M  V30 10458 O 984.56 -2.00854 -0.148239 0
M  V30 10459 C 981.625 -3.46614 0.0774088 0
M  V30 10460 C 980.686 -4.14613 1.11331 0
M  V30 10461 C 979.919 -5.31016 0.534559 0
M  V30 10462 O 980.142 -5.66654 -0.65265 0
M  V30 10463 O 979.076 -5.88256 1.27431 0
M  V30 10464 H 982.902 -2.59018 1.58566 0
M  V30 10465 H 980.487 -1.23865 0.835332 0
M  V30 10466 H 982.369 -4.20599 -0.259716 0
M  V30 10467 H 981.044 -3.13743 -0.796677 0
M  V30 10468 H 979.951 -3.42597 1.50261 0
M  V30 10469 H 981.284 -4.51538 1.95893 0
M  V30 10470 N 982.937 -0.845659 -1.3299 0
M  V30 10471 C 983.9 -0.288905 -2.27372 0
M  V30 10472 C 984.9 0.546263 -1.51237 0
M  V30 10473 O 986.09 0.359072 -1.70459 0
M  V30 10474 C 983.222 0.59224 -3.35716 0
M  V30 10475 H 984.415 -1.12181 -2.78128 0
M  V30 10476 H 981.968 -0.619276 -1.43508 0
M  V30 10477 H 982.703 1.44732 -2.90212 0
M  V30 10478 H 982.488 -0.00543255 -3.921 0
M  V30 10479 H 983.978 0.974848 -4.06062 0
M  V30 10480 N 984.415 1.45619 -0.602734 0
M  V30 10481 C 985.663 2.01873 -0.095844 0
M  V30 10482 C 985.984 1.47427 1.27633 0
M  V30 10483 O 985.254 0.666652 1.84208 0
M  V30 10484 H 983.834 0.746295 -0.0324408 0
M  V30 10485 H 986.496 1.78478 -0.783037 0
M  V30 10486 H 985.592 3.12072 -0.0419507 0
M  V30 10487 N 985.893 0.34162 1.53853 0
M  V30 10488 C 986.84 -0.516058 2.24957 0
M  V30 10489 C 987.81 -1.09711 1.2471 0
M  V30 10490 O 988.995 -1.13409 1.53438 0
M  V30 10491 C 986.135 -1.66207 3.02439 0
M  V30 10492 C 985.248 -1.10851 4.17536 0
M  V30 10493 C 984.383 -2.22167 4.82509 0
M  V30 10494 C 983.422 -1.64152 5.89678 0
M  V30 10495 N 982.559 -2.69203 6.4844 0
M  V30 10496 H 987.399 0.0968275 2.97843 0
M  V30 10497 H 984.936 0.0595565 1.46979 0
M  V30 10498 H 986.894 -2.33672 3.4562 0
M  V30 10499 H 985.524 -2.24597 2.31853 0
M  V30 10500 H 984.576 -0.324853 3.7901 0
M  V30 10501 H 985.888 -0.644151 4.94623 0
M  V30 10502 H 985.042 -2.97501 5.28751 0
M  V30 10503 H 983.781 -2.71946 4.04842 0
M  V30 10504 H 982.786 -0.873228 5.42821 0
M  V30 10505 H 984.011 -1.15228 6.69253 0
M  V30 10506 H 981.957 -3.1824 5.73637 0
M  V30 10507 H 981.874 -2.27383 7.20994 0
M  V30 10508 H 983.142 -3.44312 6.99335 0
M  V30 10509 N 987.371 -1.57444 0.0701946 0
M  V30 10510 C 988.62 -1.92605 -0.598849 0
M  V30 10511 C 988.933 -0.952058 -1.70866 0
M  V30 10512 O 990.139 -1.19643 -2.43716 0
M  V30 10513 C 988.595 -3.42142 -1.11655 0
M  V30 10514 C 988.203 -4.47984 -0.0378355 0
M  V30 10515 C 989.947 -3.86307 -1.75975 0
M  V30 10516 C 987.854 -5.88652 -0.569495 0
M  V30 10517 H 986.784 -0.718873 -0.22746 0
M  V30 10518 H 989.435 -1.82948 0.14217 0
M  V30 10519 H 987.817 -3.46866 -1.91049 0
M  V30 10520 H 988.991 -4.54874 0.736661 0
M  V30 10521 H 987.306 -4.13277 0.50904 0
M  V30 10522 H 989.903 -4.88784 -2.16782 0
M  V30 10523 H 990.246 -3.23587 -2.61911 0
M  V30 10524 H 990.779 -3.84179 -1.03206 0
M  V30 10525 H 987.518 -6.55013 0.252662 0
M  V30 10526 H 987.038 -5.85285 -1.31155 0
M  V30 10527 H 988.717 -6.38482 -1.04641 0
M  V30 10528 N 988.849 0.203349 -1.56283 0
M  V30 10529 C 990.074 0.945548 -1.84592 0
M  V30 10530 C 990.499 1.7641 -0.652772 0
M  V30 10531 O 989.857 1.76867 0.398468 0
M  V30 10532 C 989.905 1.82416 -3.11057 0
M  V30 10533 O 989.009 2.92191 -2.9103 0
M  V30 10534 H 988.35 0.266739 -0.608068 0
M  V30 10535 H 990.88 0.211158 -2.03507 0
M  V30 10536 H 990.89 2.23044 -3.41636 0
M  V30 10537 H 989.565 1.22267 -3.97522 0
M  V30 10538 H 988.142 2.55378 -2.71728 0
M  V30 10539 N 990.327 1.50405 0.470755 0
M  V30 10540 C 991.237 1.7208 1.59454 0
M  V30 10541 C 992.253 0.603932 1.63183 0
M  V30 10542 O 993.429 0.882296 1.81046 0
M  V30 10543 C 990.494 1.81057 2.95667 0
M  V30 10544 C 989.555 3.04792 3.02324 0
M  V30 10545 C 988.788 3.13332 4.3204 0
M  V30 10546 O 989.011 2.28655 5.22564 0
M  V30 10547 O 987.945 4.0606 4.44296 0
M  V30 10548 H 991.771 2.67343 1.44089 0
M  V30 10549 H 989.356 1.34505 0.650286 0
M  V30 10550 H 991.238 1.8914 3.76569 0
M  V30 10551 H 989.913 0.889782 3.11231 0
M  V30 10552 H 988.82 3.0221 2.205 0
M  V30 10553 H 990.153 3.96451 2.91698 0
M  V30 10554 N 991.805 -0.723954 1.39988 0
M  V30 10555 C 993.053 -1.48078 1.3754 0
M  V30 10556 C 993.374 -1.94985 -0.0243358 0
M  V30 10557 O 992.644 -1.69764 -0.977602 0
M  V30 10558 H 991.224 -0.549354 0.506181 0
M  V30 10559 H 993.886 -0.858746 1.74962 0
M  V30 10560 H 992.982 -2.35763 2.04505 0
M  V30 10561 N 993.283 -1.25346 -0.955304 0
M  V30 10562 C 994.511 -1.12793 -1.73451 0
M  V30 10563 C 994.926 0.318344 -1.86097 0
M  V30 10564 O 994.283 1.21897 -1.35821 0
M  V30 10565 C 994.334 -1.77603 -3.14864 0
M  V30 10566 O 994.055 -3.16577 -3.02837 0
M  V30 10567 C 995.556 -1.70821 -4.09066 0
M  V30 10568 H 992.776 -0.393457 -0.543537 0
M  V30 10569 H 995.32 -1.65696 -1.19855 0
M  V30 10570 H 993.475 -1.28673 -3.65407 0
M  V30 10571 H 993.889 -3.48433 -3.92039 0
M  V30 10572 H 995.363 -2.2083 -5.05903 0
M  V30 10573 H 995.84 -0.671858 -4.34031 0
M  V30 10574 H 996.446 -2.19237 -3.64438 0
M  V30 10575 N 994.761 1.15782 -1.06922 0
M  V30 10576 C 996.01 1.85807 -0.784774 0
M  V30 10577 C 996.323 1.82967 0.691551 0
M  V30 10578 O 997.529 2.48632 1.0906 0
M  V30 10579 C 995.985 3.33469 -1.35375 0
M  V30 10580 C 995.593 3.44766 -2.86077 0
M  V30 10581 C 997.337 4.08707 -1.14713 0
M  V30 10582 C 995.244 4.86551 -3.36187 0
M  V30 10583 H 994.174 0.696046 -0.28989 0
M  V30 10584 H 996.825 1.30629 -1.28873 0
M  V30 10585 H 995.207 3.88292 -0.77754 0
M  V30 10586 H 996.381 3.00073 -3.49704 0
M  V30 10587 H 994.696 2.82969 -3.05479 0
M  V30 10588 H 997.293 5.13336 -1.49633 0
M  V30 10589 H 997.636 4.16211 -0.0858868 0
M  V30 10590 H 998.169 3.60142 -1.68946 0
M  V30 10591 H 994.908 4.84229 -4.41818 0
M  V30 10592 H 994.428 5.31844 -2.77312 0
M  V30 10593 H 996.107 5.55392 -3.31887 0
M  V30 10594 N 996.239 0.8527 1.3254 0
M  V30 10595 C 997.479 0.461385 1.99125 0
M  V30 10596 C 997.843 -0.964507 1.66016 0
M  V30 10597 O 999.044 -1.46027 2.25676 0
M  V30 10598 C 997.315 0.69143 3.50648 0
M  V30 10599 S 998.874 0.397397 4.36997 0
M  V30 10600 H 995.692 0.172933 0.689649 0
M  V30 10601 H 998.294 1.10499 1.61277 0
M  V30 10602 H 996.998 1.72831 3.72233 0
M  V30 10603 H 996.529 0.0341812 3.93385 0
M  V30 10604 H 998.544 -0.777363 4.90073 0
M  V30 10605 N 997.718 -1.45297 0.610449 0
M  V30 10606 C 998.948 -2.0629 0.113047 0
M  V30 10607 C 999.356 -1.45527 -1.20907 0
M  V30 10608 O 998.699 -0.564837 -1.74801 0
M  V30 10609 C 998.761 -3.59366 -0.0979692 0
M  V30 10610 C 998.425 -4.42481 1.14279 0
M  V30 10611 C 999.422 -4.77277 2.06161 0
M  V30 10612 C 997.107 -4.83187 1.37241 0
M  V30 10613 C 999.101 -5.51639 3.19333 0
M  V30 10614 C 996.788 -5.57303 2.50713 0
M  V30 10615 C 997.786 -5.91445 3.41587 0
M  V30 10616 O 997.474 -6.64056 4.53083 0
M  V30 10617 H 997.206 -0.67264 0.0673159 0
M  V30 10618 H 999.76 -1.87486 0.838937 0
M  V30 10619 H 997.99 -3.76582 -0.878783 0
M  V30 10620 H 999.679 -4.02193 -0.547327 0
M  V30 10621 H 1000.44 -4.46384 1.89647 0
M  V30 10622 H 996.324 -4.56045 0.67407 0
M  V30 10623 H 999.868 -5.78207 3.90286 0
M  V30 10624 H 995.765 -5.8761 2.67179 0
M  V30 10625 H 996.533 -6.82509 4.51801 0
M  V30 10626 N 999.196 -0.349774 -1.5367 0
M  V30 10627 C 1000.42 0.246038 -2.05432 0
M  V30 10628 C 1000.84 1.43719 -1.22435 0
M  V30 10629 O 1000.2 1.80622 -0.261166 0
M  V30 10630 C 1000.25 0.65501 -3.55516 0
M  V30 10631 O 999.968 -0.488782 -4.35365 0
M  V30 10632 C 1001.47 1.31088 -4.23475 0
M  V30 10633 H 998.689 0.0463952 -0.669394 0
M  V30 10634 H 1001.23 -0.503566 -1.98203 0
M  V30 10635 H 999.388 1.35455 -3.62947 0
M  V30 10636 H 999.802 -0.161528 -5.24251 0
M  V30 10637 H 1001.28 1.54774 -5.29857 0
M  V30 10638 H 1001.75 2.26636 -3.76208 0
M  V30 10639 H 1002.36 0.653211 -4.20254 0
M  V30 10640 N 1000.67 1.57404 -0.0785433 0
M  V30 10641 C 1001.92 1.93361 0.58786 0
M  V30 10642 C 1002.24 0.959856 1.6974 0
M  V30 10643 O 1001.51 0.0091173 1.95898 0
M  V30 10644 H 1000.09 0.713825 0.220141 0
M  V30 10645 H 1002.75 1.94411 -0.137986 0
M  V30 10646 H 1001.85 2.95346 1.00881 0
M  V30 10647 N 1002.15 -0.195058 1.56388 0
M  V30 10648 C 1003.43 -0.941335 1.71459 0
M  V30 10649 C 1003.81 -2.01375 0.633336 0
M  V30 10650 O 1003.16 -2.25715 -0.35567 0
M  V30 10651 C 1003.37 -1.52772 3.13786 0
M  V30 10652 C 1004.71 -2.00983 3.7402 0
M  V30 10653 O 1005.74 -1.62614 3.16915 0
M  V30 10654 O 1004.6 -2.71586 4.7424 0
M  V30 10655 H 1001.69 -0.441451 0.699321 0
M  V30 10656 H 1004.24 -0.184752 1.68691 0
M  V30 10657 H 1003.01 -0.754699 3.83953 0
M  V30 10658 H 1002.63 -2.34914 3.20782 0
M  V30 10659 N 1003.63 -1.50653 -0.462772 0
M  V30 10660 C 1004.88 -1.61296 -1.21105 0
M  V30 10661 C 1005.19 -0.322757 -1.92919 0
M  V30 10662 O 1006.4 -0.308211 -2.69745 0
M  V30 10663 C 1004.85 -2.84752 -2.201 0
M  V30 10664 C 1004.46 -4.20681 -1.54051 0
M  V30 10665 C 1006.21 -3.04744 -2.95518 0
M  V30 10666 C 1004.11 -5.35314 -2.51381 0
M  V30 10667 H 1003.04 -0.60069 -0.455728 0
M  V30 10668 H 1005.69 -1.77093 -0.480656 0
M  V30 10669 H 1004.08 -2.62532 -2.96467 0
M  V30 10670 H 1005.25 -4.53187 -0.834168 0
M  V30 10671 H 1003.56 -4.06361 -0.908828 0
M  V30 10672 H 1006.16 -3.87559 -3.68378 0
M  V30 10673 H 1006.5 -2.16802 -3.55391 0
M  V30 10674 H 1007.04 -3.27185 -2.26263 0
M  V30 10675 H 1003.78 -6.25437 -1.96235 0
M  V30 10676 H 1003.3 -5.07216 -3.20144 0
M  V30 10677 H 1004.98 -5.66229 -3.1304 0
M  V30 10678 N 1005.11 0.71652 -1.4037 0
M  V30 10679 C 1006.04 1.84345 -1.43315 0
M  V30 10680 C 1007.02 1.67537 -0.294186 0
M  V30 10681 O 1008.2 1.87582 -0.502671 0
M  V30 10682 C 1005.33 3.2229 -1.29408 0
M  V30 10683 C 1004.29 3.53769 -2.40897 0
M  V30 10684 C 1003.61 4.90847 -2.12068 0
M  V30 10685 C 1004.91 3.54862 -3.83237 0
M  V30 10686 H 1006.61 1.82138 -2.37626 0
M  V30 10687 H 1004.15 0.874873 -1.14376 0
M  V30 10688 H 1006.11 4.00819 -1.30085 0
M  V30 10689 H 1004.83 3.2507 -0.31573 0
M  V30 10690 H 1003.49 2.77579 -2.39469 0
M  V30 10691 H 1003.14 4.90229 -1.12626 0
M  V30 10692 H 1002.84 5.12875 -2.86762 0
M  V30 10693 H 1004.36 5.71711 -2.14426 0
M  V30 10694 H 1005.78 4.23432 -3.86494 0
M  V30 10695 H 1004.17 3.88416 -4.57442 0
M  V30 10696 H 1005.24 2.54266 -4.12888 0
M  V30 10697 N 1006.59 1.25851 0.948643 0
M  V30 10698 C 1007.53 1.06559 2.06756 0
M  V30 10699 C 1008.53 -0.00528632 1.69399 0
M  V30 10700 O 1009.73 0.150806 1.79367 0
M  V30 10701 H 1006.11 0.327689 0.676848 0
M  V30 10702 H 1008.08 2.01401 2.20182 0
M  V30 10703 C 1006.83 0.707392 3.40428 0
M  V30 10704 H 1006.15 1.52324 3.69645 0
M  V30 10705 H 1007.59 0.612142 4.19558 0
M  V30 10706 C 1006.05 -0.58697 3.31747 0
M  V30 10707 O 1006.58 -1.62741 3.67258 0
M  V30 10708 N 1004.79 -0.574828 2.84858 0
M  V30 10709 H 1004.33 0.272236 2.56157 0
M  V30 10710 H 1004.29 -1.441 2.79432 0
M  V30 10711 N 1008.06 -1.15214 1.07534 0
M  V30 10712 C 1009.48 -1.67628 0.822045 0
M  V30 10713 C 1009.83 -1.8503 -0.652571 0
M  V30 10714 O 1008.95 -1.55497 -1.50498 0
M  V30 10715 C 1009.55 -3.04489 1.48566 0
M  V30 10716 C 1008.11 -3.53974 1.27983 0
M  V30 10717 C 1007.25 -2.29656 1.55414 0
M  V30 10718 H 1010.2 -0.994016 1.23713 0
M  V30 10719 H 1010.22 -3.69509 0.907916 0
M  V30 10720 H 1009.74 -2.91792 2.55888 0
M  V30 10721 H 1007.84 -3.71908 0.226906 0
M  V30 10722 H 1007.95 -4.35298 2.0013 0
M  V30 10723 H 1006.31 -2.35289 0.975251 0
M  V30 10724 H 1007.1 -2.19544 2.63923 0
M  V30 10725 N 1009.54 -0.859717 -1.32086 0
M  V30 10726 C 1010.45 -0.31108 -2.32528 0
M  V30 10727 C 1011.47 0.573714 -1.6427 0
M  V30 10728 O 1012.64 0.472878 -1.9577 0
M  V30 10729 C 1009.71 0.487256 -3.43259 0
M  V30 10730 C 1008.77 -0.424279 -4.27198 0
M  V30 10731 C 1008 0.336051 -5.32641 0
M  V30 10732 O 1008.23 1.56541 -5.48499 0
M  V30 10733 O 1007.16 -0.300777 -6.01148 0
M  V30 10734 H 1010.99 -1.14336 -2.81355 0
M  V30 10735 H 1008.57 -0.622794 -1.358 0
M  V30 10736 H 1010.45 0.940203 -4.10777 0
M  V30 10737 H 1009.13 1.29626 -2.96612 0
M  V30 10738 H 1008.04 -0.925509 -3.62471 0
M  V30 10739 H 1009.37 -1.1986 -4.77383 0
M  V30 10740 N 1011.02 1.44971 -0.618145 0
M  V30 10741 C 1012.44 1.57077 -0.282666 0
M  V30 10742 C 1012.64 1.60782 1.21456 0
M  V30 10743 O 1011.69 1.54382 1.99806 0
M  V30 10744 C 1013.01 2.84858 -0.963148 0
M  V30 10745 C 1014.55 2.9855 -0.940062 0
M  V30 10746 C 1015.03 4.29115 -1.60076 0
M  V30 10747 N 1016.52 4.35899 -1.56674 0
M  V30 10748 C 1017.25 5.35617 -2.04701 0
M  V30 10749 N 1016.75 6.41813 -2.6086 0
M  V30 10750 N 1018.54 5.27042 -1.95406 0
M  V30 10751 H 1010.69 1.4081 -1.59017 0
M  V30 10752 H 1012.96 0.673914 -0.666741 0
M  V30 10753 H 1012.66 2.88059 -2.0178 0
M  V30 10754 H 1012.54 3.73966 -0.492901 0
M  V30 10755 H 1014.92 2.94909 0.10607 0
M  V30 10756 H 1015.01 2.10825 -1.44868 0
M  V30 10757 H 1014.65 4.33514 -2.64627 0
M  V30 10758 H 1014.58 5.15675 -1.06708 0
M  V30 10759 H 1017.07 3.59766 -1.15659 0
M  V30 10760 H 1017.38 7.14166 -2.95273 0
M  V30 10761 H 1015.73 6.42534 -2.64905 0
M  V30 10762 H 1018.92 4.42987 -1.51263 0
M  V30 10763 H 1019.09 6.04604 -2.33147 0
M  V30 10764 N 1012.5 0.357919 1.53482 0
M  V30 10765 C 1013.72 -0.237769 2.06033 0
M  V30 10766 C 1014.15 -1.42292 1.23023 0
M  V30 10767 O 1013.51 -1.79604 0.247427 0
M  V30 10768 C 1013.55 -0.616806 3.55286 0
M  V30 10769 O 1012.66 -1.71503 3.75047 0
M  V30 10770 H 1012 -0.0364322 0.663 0
M  V30 10771 H 1014.53 0.516301 1.97979 0
M  V30 10772 H 1014.54 -0.88996 3.98175 0
M  V30 10773 H 1013.21 0.249825 4.15149 0
M  V30 10774 H 1011.79 -1.43803 3.44057 0
M  V30 10775 N 1013.98 -1.5736 0.0868897 0
M  V30 10776 C 1014.92 -2.14793 -0.892571 0
M  V30 10777 C 1015.92 -1.08866 -1.29787 0
M  V30 10778 O 1017.12 -1.27223 -1.27335 0
M  V30 10779 H 1013.5 -0.686998 -0.305838 0
M  V30 10780 H 1015.47 -2.95927 -0.383393 0
M  V30 10781 C 1014.22 -2.73646 -2.14507 0
M  V30 10782 H 1013.54 -3.54835 -1.84207 0
M  V30 10783 H 1014.98 -3.17409 -2.81118 0
M  V30 10784 C 1013.44 -1.69138 -2.91366 0
M  V30 10785 O 1013.97 -1.12539 -3.85614 0
M  V30 10786 N 1012.18 -1.3982 -2.54752 0
M  V30 10787 H 1011.72 -1.86035 -1.78182 0
M  V30 10788 H 1011.68 -0.701316 -3.06478 0
M  V30 10789 N 1015.45 0.186762 -1.56489 0
M  V30 10790 C 1016.7 0.904077 -1.80303 0
M  V30 10791 C 1017.02 1.84073 -0.661538 0
M  V30 10792 O 1018.22 2.59928 -0.784197 0
M  V30 10793 C 1016.68 1.65806 -3.19432 0
M  V30 10794 C 1016.29 0.765807 -4.41406 0
M  V30 10795 C 1018.03 2.36451 -3.52549 0
M  V30 10796 C 1015.94 1.51913 -5.71556 0
M  V30 10797 H 1014.87 0.34133 -0.672317 0
M  V30 10798 H 1017.52 0.157218 -1.82825 0
M  V30 10799 H 1015.9 2.44911 -3.11183 0
M  V30 10800 H 1017.07 0.0128225 -4.60798 0
M  V30 10801 H 1015.39 0.169772 -4.16054 0
M  V30 10802 H 1017.99 2.93378 -4.47027 0
M  V30 10803 H 1018.33 3.11044 -2.7669 0
M  V30 10804 H 1018.86 1.64305 -3.62283 0
M  V30 10805 H 1015.6 0.815829 -6.50403 0
M  V30 10806 H 1015.12 2.24583 -5.56168 0
M  V30 10807 H 1016.8 2.07073 -6.12968 0
M  V30 10808 N 1016.93 1.50896 0.454776 0
M  V30 10809 C 1018.16 1.66239 1.22671 0
M  V30 10810 C 1018.57 0.351876 1.85899 0
M  V30 10811 O 1017.91 -0.677848 1.70736 0
M  V30 10812 C 1017.98 2.70812 2.36434 0
M  V30 10813 C 1017.64 4.13913 1.93714 0
M  V30 10814 C 1018.64 4.99259 1.45039 0
M  V30 10815 C 1016.32 4.59921 2.01937 0
M  V30 10816 C 1018.32 6.28667 1.05151 0
M  V30 10817 C 1016 5.89329 1.6166 0
M  V30 10818 C 1017 6.73529 1.13347 0
M  V30 10819 O 1016.69 8.0052 0.736354 0
M  V30 10820 H 1016.42 0.561443 0.376508 0
M  V30 10821 H 1018.97 1.97974 0.547325 0
M  V30 10822 H 1017.2 2.34355 3.07595 0
M  V30 10823 H 1018.89 2.7521 2.98353 0
M  V30 10824 H 1019.66 4.64925 1.38095 0
M  V30 10825 H 1015.54 3.94518 2.38488 0
M  V30 10826 H 1019.08 6.94339 0.673711 0
M  V30 10827 H 1014.98 6.23182 1.68269 0
M  V30 10828 H 1015.75 8.1393 0.863759 0
M  V30 10829 N 1018.41 -0.709066 1.40748 0
M  V30 10830 C 1019.64 -1.49808 1.42707 0
M  V30 10831 C 1020.05 -1.88778 0.0285574 0
M  V30 10832 O 1019.41 -1.55883 -0.949035 0
M  V30 10833 C 1019.46 -2.76926 2.32366 0
M  V30 10834 O 1019.18 -2.39602 3.66773 0
M  V30 10835 C 1020.68 -3.70773 2.42986 0
M  V30 10836 H 1017.9 -0.462106 0.486517 0
M  V30 10837 H 1020.45 -0.874135 1.84876 0
M  V30 10838 H 1018.6 -3.3559 1.93541 0
M  V30 10839 H 1019.02 -3.21443 4.14457 0
M  V30 10840 H 1020.49 -4.56789 3.09916 0
M  V30 10841 H 1020.97 -4.14332 1.45691 0
M  V30 10842 H 1021.57 -3.18019 2.8239 0
M  V30 10843 N 1019.89 -1.26353 -0.941956 0
M  V30 10844 C 1020.82 -1.10341 -2.05784 0
M  V30 10845 C 1021.8 -0.00881565 -1.70098 0
M  V30 10846 O 1022.99 -0.180699 -1.93357 0
M  V30 10847 C 1020.12 -0.734788 -3.39438 0
M  V30 10848 C 1019.07 -1.78103 -3.89183 0
M  V30 10849 C 1018.4 -1.26675 -5.19478 0
M  V30 10850 C 1019.7 -3.1824 -4.14151 0
M  V30 10851 H 1021.39 -2.03684 -2.19438 0
M  V30 10852 H 1018.94 -0.980698 -1.05443 0
M  V30 10853 H 1020.89 -0.609653 -4.16967 0
M  V30 10854 H 1019.61 0.234354 -3.25758 0
M  V30 10855 H 1018.27 -1.89482 -3.13835 0
M  V30 10856 H 1017.92 -0.287472 -5.02178 0
M  V30 10857 H 1017.62 -1.96612 -5.53731 0
M  V30 10858 H 1019.14 -1.15427 -5.99591 0
M  V30 10859 H 1020.56 -3.09942 -4.82296 0
M  V30 10860 H 1018.95 -3.8576 -4.59684 0
M  V30 10861 H 1020.02 -3.64354 -3.19959 0
M  V30 10862 N 1021.37 1.14642 -1.08144 0
M  V30 10863 C 1022.28 2.23257 -0.720668 0
M  V30 10864 C 1023.29 1.71866 0.271648 0
M  V30 10865 O 1024.47 2.01064 0.116266 0
M  V30 10866 C 1021.53 3.46447 -0.132542 0
M  V30 10867 C 1020.6 4.12789 -1.17913 0
M  V30 10868 C 1019.83 5.30099 -0.618971 0
M  V30 10869 O 1020.05 5.6762 0.562418 0
M  V30 10870 O 1018.99 5.86154 -1.36774 0
M  V30 10871 H 1022.81 2.56463 -1.62667 0
M  V30 10872 H 1020.4 1.22521 -0.854932 0
M  V30 10873 H 1022.28 4.20959 0.19277 0
M  V30 10874 H 1020.95 3.14971 0.746662 0
M  V30 10875 H 1019.86 3.40163 -1.55693 0
M  V30 10876 H 1021.19 4.48365 -2.03051 0
M  V30 10877 N 1022.85 0.866709 1.31628 0
M  V30 10878 C 1024.08 0.489679 2.00713 0
M  V30 10879 C 1024.48 -0.921492 1.65243 0
M  V30 10880 O 1023.83 -1.61467 0.876012 0
M  V30 10881 C 1023.89 0.563148 3.55062 0
M  V30 10882 C 1023.55 1.93535 4.13996 0
M  V30 10883 C 1024.55 2.90243 4.31341 0
M  V30 10884 C 1022.23 2.23578 4.49798 0
M  V30 10885 C 1024.23 4.15138 4.83673 0
M  V30 10886 C 1021.92 3.48723 5.01832 0
M  V30 10887 C 1022.91 4.44319 5.18719 0
M  V30 10888 O 1022.6 5.67247 5.69637 0
M  V30 10889 H 1022.33 0.189605 0.648865 0
M  V30 10890 H 1024.89 1.16874 1.68907 0
M  V30 10891 H 1023.12 -0.172815 3.86314 0
M  V30 10892 H 1024.81 0.200009 4.05407 0
M  V30 10893 H 1025.57 2.6834 4.04003 0
M  V30 10894 H 1021.45 1.49949 4.35932 0
M  V30 10895 H 1025 4.89762 4.96769 0
M  V30 10896 H 1020.89 3.70471 5.28603 0
M  V30 10897 H 1021.66 5.69372 5.88011 0
M  V30 10898 N 1024.32 -1.44642 0.625825 0
M  V30 10899 C 1025.55 -2.06159 0.13492 0
M  V30 10900 C 1025.96 -1.46801 -1.19357 0
M  V30 10901 O 1025.3 -0.583345 -1.74192 0
M  V30 10902 C 1025.37 -3.5945 -0.0598481 0
M  V30 10903 C 1025.03 -4.41244 1.18965 0
M  V30 10904 C 1026.03 -4.75064 2.11212 0
M  V30 10905 C 1023.71 -4.81705 1.42359 0
M  V30 10906 C 1025.71 -5.48221 3.25165 0
M  V30 10907 C 1023.39 -5.54612 2.5661 0
M  V30 10908 C 1024.39 -5.87789 3.4784 0
M  V30 10909 O 1024.08 -6.59213 4.60101 0
M  V30 10910 H 1023.81 -0.671888 0.0744464 0
M  V30 10911 H 1026.37 -1.86586 0.858775 0
M  V30 10912 H 1024.6 -3.77493 -0.838792 0
M  V30 10913 H 1026.28 -4.02751 -0.504639 0
M  V30 10914 H 1027.05 -4.44348 1.94371 0
M  V30 10915 H 1022.93 -4.55305 0.722401 0
M  V30 10916 H 1026.47 -5.74035 3.96396 0
M  V30 10917 H 1022.37 -5.84743 2.73396 0
M  V30 10918 H 1023.14 -6.77678 4.59015 0
M  V30 10919 N 1025.8 -0.366053 -1.5329 0
M  V30 10920 C 1027.05 0.223824 -2.01561 0
M  V30 10921 C 1027.38 1.48382 -1.25286 0
M  V30 10922 O 1026.66 1.91385 -0.34669 0
M  V30 10923 C 1026.94 0.5153 -3.56394 0
M  V30 10924 C 1026.79 -0.758357 -4.43361 0
M  V30 10925 C 1028.11 1.31568 -4.19974 0
M  V30 10926 H 1025.23 0.0798751 -0.732659 0
M  V30 10927 H 1027.87 -0.491038 -1.83545 0
M  V30 10928 H 1026.02 1.12429 -3.71876 0
M  V30 10929 H 1027.69 -1.39584 -4.39675 0
M  V30 10930 H 1025.94 -1.37862 -4.11311 0
M  V30 10931 H 1026.61 -0.509366 -5.49645 0
M  V30 10932 H 1029.08 0.800514 -4.08327 0
M  V30 10933 H 1027.96 1.48837 -5.28336 0
M  V30 10934 H 1028.22 2.32432 -3.76069 0
M  V30 10935 N 1027.28 1.57312 -0.0952337 0
M  V30 10936 C 1028.23 2.14032 0.863657 0
M  V30 10937 C 1029.2 1.0589 1.27971 0
M  V30 10938 O 1030.38 1.33678 1.36143 0
M  V30 10939 C 1027.52 2.72513 2.11733 0
M  V30 10940 C 1026.63 3.94887 1.7518 0
M  V30 10941 C 1025.77 4.41533 2.95334 0
M  V30 10942 C 1024.81 5.56496 2.54908 0
M  V30 10943 N 1023.95 5.97993 3.67897 0
M  V30 10944 H 1028.79 2.95655 0.373115 0
M  V30 10945 H 1026.32 1.46085 0.172497 0
M  V30 10946 H 1028.28 3.04539 2.85153 0
M  V30 10947 H 1026.91 1.93618 2.58287 0
M  V30 10948 H 1025.96 3.69175 0.917279 0
M  V30 10949 H 1027.27 4.78322 1.41455 0
M  V30 10950 H 1026.43 4.75343 3.77007 0
M  V30 10951 H 1025.17 3.56999 3.3227 0
M  V30 10952 H 1024.17 5.22314 1.71662 0
M  V30 10953 H 1025.4 6.42779 2.19117 0
M  V30 10954 H 1023.34 5.16405 4.04551 0
M  V30 10955 H 1023.26 6.76225 3.38018 0
M  V30 10956 H 1024.53 6.36434 4.5008 0
M  V30 10957 N 1028.76 -0.17846 1.56586 0
M  V30 10958 C 1029.69 -1.22342 1.98884 0
M  V30 10959 C 1030.67 -1.46564 0.86331 0
M  V30 10960 O 1031.85 -1.58019 1.12887 0
M  V30 10961 C 1028.98 -2.56396 2.34261 0
M  V30 10962 C 1027.94 -2.46756 3.49708 0
M  V30 10963 C 1027.26 -3.85235 3.70807 0
M  V30 10964 C 1028.56 -1.97838 4.83381 0
M  V30 10965 H 1030.26 -0.871848 2.86425 0
M  V30 10966 H 1027.8 -0.417948 1.37801 0
M  V30 10967 H 1029.76 -3.29695 2.62448 0
M  V30 10968 H 1028.48 -2.93327 1.43621 0
M  V30 10969 H 1027.14 -1.75912 3.21637 0
M  V30 10970 H 1026.79 -4.19547 2.7747 0
M  V30 10971 H 1026.49 -3.79655 4.48481 0
M  V30 10972 H 1028.01 -4.60131 4.01387 0
M  V30 10973 H 1029.43 -2.60906 5.10491 0
M  V30 10974 H 1027.82 -2.03223 5.64642 0
M  V30 10975 H 1028.89 -0.932339 4.75852 0
M  V30 10976 N 1030.24 -1.51135 -0.446768 0
M  V30 10977 C 1031.2 -1.71187 -1.52406 0
M  V30 10978 C 1032.2 -0.582037 -1.49897 0
M  V30 10979 O 1033.39 -0.849452 -1.52085 0
M  V30 10980 C 1030.52 -1.75962 -2.91976 0
M  V30 10981 H 1031.71 -2.67324 -1.35934 0
M  V30 10982 H 1029.27 -1.40982 -0.674813 0
M  V30 10983 H 1030 -0.816065 -3.13864 0
M  V30 10984 H 1029.79 -2.58065 -2.95203 0
M  V30 10985 H 1031.28 -1.93347 -3.70144 0
M  V30 10986 N 1031.71 0.701592 -1.41122 0
M  V30 10987 C 1032.66 1.81559 -1.42495 0
M  V30 10988 C 1033.63 1.63722 -0.280078 0
M  V30 10989 O 1034.82 1.84658 -0.480231 0
M  V30 10990 C 1031.96 3.19392 -1.30702 0
M  V30 10991 C 1031.07 3.48704 -2.55009 0
M  V30 10992 C 1030.2 4.76118 -2.35554 0
M  V30 10993 C 1029.24 4.98378 -3.55367 0
M  V30 10994 N 1028.38 6.17014 -3.3502 0
M  V30 10995 H 1033.22 1.7972 -2.37707 0
M  V30 10996 H 1030.76 0.877727 -1.18044 0
M  V30 10997 H 1032.71 3.99004 -1.21867 0
M  V30 10998 H 1031.34 3.20423 -0.391012 0
M  V30 10999 H 1030.4 2.63542 -2.74317 0
M  V30 11000 H 1031.71 3.61057 -3.44151 0
M  V30 11001 H 1030.86 5.63774 -2.24152 0
M  V30 11002 H 1029.6 4.66 -1.43859 0
M  V30 11003 H 1028.61 4.09172 -3.6723 0
M  V30 11004 H 1029.83 5.10359 -4.48007 0
M  V30 11005 H 1027.78 6.0812 -2.4602 0
M  V30 11006 H 1027.69 6.30107 -4.17733 0
M  V30 11007 H 1028.96 7.0742 -3.27379 0
M  V30 11008 N 1033.19 1.2685 0.935242 0
M  V30 11009 C 1034.1 1.10716 2.06831 0
M  V30 11010 C 1035.12 0.0391222 1.73956 0
M  V30 11011 O 1036.29 0.244071 1.99916 0
M  V30 11012 C 1033.36 0.748093 3.38533 0
M  V30 11013 C 1032.42 1.89619 3.85153 0
M  V30 11014 C 1031.65 1.55416 5.1057 0
M  V30 11015 O 1031.88 0.458596 5.68553 0
M  V30 11016 O 1030.81 2.39087 5.52378 0
M  V30 11017 H 1034.64 2.05785 2.23352 0
M  V30 11018 H 1032.22 1.05967 1.05315 0
M  V30 11019 H 1034.1 0.560841 4.17651 0
M  V30 11020 H 1032.78 -0.173142 3.23237 0
M  V30 11021 H 1031.68 2.13845 3.06954 0
M  V30 11022 H 1033.02 2.79737 4.04979 0
M  V30 11023 N 1034.67 -1.14067 1.0875 0
M  V30 11024 C 1035.6 -2.21385 0.74236 0
M  V30 11025 C 1036.58 -1.67833 -0.276805 0
M  V30 11026 O 1037.77 -1.93647 -0.1464 0
M  V30 11027 C 1034.9 -3.46956 0.154644 0
M  V30 11028 C 1033.85 -4.13555 1.10255 0
M  V30 11029 C 1033.18 -5.3337 0.376877 0
M  V30 11030 C 1034.48 -4.6169 2.44213 0
M  V30 11031 H 1036.17 -2.50512 1.63964 0
M  V30 11032 H 1033.72 -1.20408 0.789807 0
M  V30 11033 H 1035.67 -4.21284 -0.0988419 0
M  V30 11034 H 1034.39 -3.17203 -0.777789 0
M  V30 11035 H 1033.05 -3.41186 1.34119 0
M  V30 11036 H 1032.7 -4.99879 -0.559472 0
M  V30 11037 H 1032.4 -5.78875 1.00884 0
M  V30 11038 H 1033.92 -6.10458 0.131527 0
M  V30 11039 H 1035.34 -5.27475 2.24595 0
M  V30 11040 H 1033.74 -5.17909 3.03134 0
M  V30 11041 H 1034.81 -3.76574 3.05483 0
M  V30 11042 N 1036.15 -0.873678 -1.31166 0
M  V30 11043 C 1037.06 -0.335726 -2.32185 0
M  V30 11044 C 1038.07 0.556259 -1.64869 0
M  V30 11045 O 1039.25 0.452087 -1.9626 0
M  V30 11046 C 1036.32 0.450822 -3.43756 0
M  V30 11047 C 1035.38 -0.469565 -4.26724 0
M  V30 11048 C 1034.61 0.279538 -5.32967 0
M  V30 11049 O 1034.83 1.50715 -5.50128 0
M  V30 11050 O 1033.77 -0.36452 -6.00795 0
M  V30 11051 H 1037.59 -1.17314 -2.80127 0
M  V30 11052 H 1035.18 -0.637163 -1.35132 0
M  V30 11053 H 1037.06 0.896582 -4.11752 0
M  V30 11054 H 1035.73 1.26472 -2.9797 0
M  V30 11055 H 1034.64 -0.963902 -3.61469 0
M  V30 11056 H 1035.97 -1.24916 -4.76085 0
M  V30 11057 N 1037.63 1.44308 -0.633487 0
M  V30 11058 C 1039.04 1.56768 -0.29931 0
M  V30 11059 C 1039.24 1.62061 1.19743 0
M  V30 11060 O 1038.3 1.56492 1.98158 0
M  V30 11061 C 1039.61 2.8382 -0.993307 0
M  V30 11062 C 1041.16 2.97536 -0.971674 0
M  V30 11063 C 1041.63 4.27393 -1.64618 0
M  V30 11064 N 1043.13 4.34212 -1.61288 0
M  V30 11065 C 1043.86 5.33415 -2.1037 0
M  V30 11066 N 1043.36 6.3901 -2.67653 0
M  V30 11067 N 1045.15 5.24939 -2.00985 0
M  V30 11068 H 1037.3 1.39115 -1.60501 0
M  V30 11069 H 1039.56 0.666804 -0.673852 0
M  V30 11070 H 1039.27 2.85902 -2.04823 0
M  V30 11071 H 1039.14 3.73422 -0.532537 0
M  V30 11072 H 1041.53 2.95005 0.0747854 0
M  V30 11073 H 1041.61 2.09276 -1.47096 0
M  V30 11074 H 1041.26 4.30683 -2.6921 0
M  V30 11075 H 1041.19 5.14515 -1.12171 0
M  V30 11076 H 1043.68 3.58519 -1.19468 0
M  V30 11077 H 1043.99 7.10994 -3.02831 0
M  V30 11078 H 1042.33 6.39689 -2.71705 0
M  V30 11079 H 1045.53 4.41357 -1.55953 0
M  V30 11080 H 1045.7 6.02097 -2.39547 0
M  V30 11081 N 1039.1 0.374177 1.53094 0
M  V30 11082 C 1040.01 -0.475935 2.29722 0
M  V30 11083 C 1041.03 -1.085 1.36029 0
M  V30 11084 O 1042.21 -1.09408 1.69091 0
M  V30 11085 C 1039.27 -1.59572 3.07795 0
M  V30 11086 C 1038.33 -1.01332 4.17169 0
M  V30 11087 C 1037.57 -2.07975 4.9151 0
M  V30 11088 O 1037.79 -3.29232 4.65793 0
M  V30 11089 O 1036.72 -1.7055 5.77232 0
M  V30 11090 H 1040.55 0.147877 3.0334 0
M  V30 11091 H 1038.13 0.138312 1.48758 0
M  V30 11092 H 1040.02 -2.24658 3.5652 0
M  V30 11093 H 1038.69 -2.20478 2.37005 0
M  V30 11094 H 1037.6 -0.326133 3.72676 0
M  V30 11095 H 1038.93 -0.4487 4.90151 0
M  V30 11096 N 1040.58 -1.57259 0.103575 0
M  V30 11097 C 1041.83 -1.94272 -0.557024 0
M  V30 11098 C 1042.15 -0.986739 -1.68192 0
M  V30 11099 O 1041.42 -0.0402818 -1.95859 0
M  V30 11100 H 1040 -0.717237 -0.208757 0
M  V30 11101 H 1042.66 -1.94167 0.168898 0
M  V30 11102 H 1041.76 -2.96914 -0.961691 0
M  V30 11103 N 1042.06 0.170153 -1.56679 0
M  V30 11104 C 1043.31 0.886592 -1.8206 0
M  V30 11105 C 1043.64 1.82194 -0.680839 0
M  V30 11106 O 1042.89 1.92866 0.331822 0
M  V30 11107 C 1043.19 1.71402 -3.13618 0
M  V30 11108 C 1042.86 0.927489 -4.41258 0
M  V30 11109 C 1041.52 0.710417 -4.75927 0
M  V30 11110 C 1043.87 0.375855 -5.19843 0
M  V30 11111 C 1041.2 -0.0693691 -5.86659 0
M  V30 11112 C 1043.55 -0.390849 -6.31391 0
M  V30 11113 C 1042.21 -0.61871 -6.64626 0
M  V30 11114 H 1041.48 0.324427 -0.666204 0
M  V30 11115 H 1044.13 0.151464 -1.909 0
M  V30 11116 H 1042.44 2.51858 -3.00125 0
M  V30 11117 H 1044.13 2.27141 -3.30466 0
M  V30 11118 H 1040.72 1.10672 -4.14065 0
M  V30 11119 H 1044.91 0.530897 -4.93452 0
M  V30 11120 H 1040.16 -0.255637 -6.10865 0
M  V30 11121 H 1044.34 -0.825544 -6.9149 0
M  V30 11122 H 1041.96 -1.22482 -7.50268 0
M  V30 11123 N 1043.54 1.5137 0.438746 0
M  V30 11124 C 1044.49 1.68966 1.53083 0
M  V30 11125 C 1045.47 0.543669 1.51437 0
M  V30 11126 O 1046.66 0.799519 1.57914 0
M  V30 11127 C 1043.79 1.8168 2.91286 0
M  V30 11128 C 1042.88 3.02059 2.97693 0
M  V30 11129 N 1043.27 4.25254 2.73848 0
M  V30 11130 C 1041.57 3.01284 3.28852 0
M  V30 11131 C 1042.27 5.06501 2.86062 0
M  V30 11132 N 1041.25 4.41119 3.17671 0
M  V30 11133 H 1045.05 2.61883 1.33397 0
M  V30 11134 H 1042.56 1.48997 0.64603 0
M  V30 11135 H 1044.56 1.92396 3.6985 0
M  V30 11136 H 1043.22 0.899438 3.11994 0
M  V30 11137 H 1044.23 4.54222 2.48803 0
M  V30 11138 H 1040.91 2.19174 3.55344 0
M  V30 11139 H 1042.3 6.14563 2.71592 0
M  V30 11140 N 1045.02 -0.694098 1.41492 0
M  V30 11141 C 1046.27 -1.4498 1.40227 0
M  V30 11142 C 1046.58 -1.95594 0.0151253 0
M  V30 11143 O 1047.78 -2.71234 -0.120146 0
M  V30 11144 C 1046.24 -2.62171 2.46565 0
M  V30 11145 C 1045.85 -2.18337 3.91194 0
M  V30 11146 C 1047.59 -3.39796 2.54439 0
M  V30 11147 C 1045.5 -3.32495 4.89082 0
M  V30 11148 H 1044.43 -0.544584 0.521483 0
M  V30 11149 H 1047.08 -0.75337 1.67322 0
M  V30 11150 H 1045.46 -3.34089 2.12604 0
M  V30 11151 H 1046.64 -1.53698 4.34412 0
M  V30 11152 H 1044.95 -1.53702 3.86994 0
M  V30 11153 H 1047.55 -4.2478 3.24755 0
M  V30 11154 H 1047.89 -3.85082 1.5817 0
M  V30 11155 H 1048.42 -2.74935 2.87499 0
M  V30 11156 H 1045.16 -2.92219 5.86761 0
M  V30 11157 H 1044.68 -3.95978 4.50512 0
M  V30 11158 H 1046.36 -3.98251 5.09907 0
M  V30 11159 N 1046.49 -1.27344 -0.928501 0
M  V30 11160 C 1047.42 -1.12517 -2.04602 0
M  V30 11161 C 1048.41 -0.0268563 -1.70079 0
M  V30 11162 O 1049.59 -0.201197 -1.93155 0
M  V30 11163 C 1046.72 -0.770749 -3.3864 0
M  V30 11164 C 1045.67 -1.8222 -3.87272 0
M  V30 11165 C 1045 -1.32178 -5.18105 0
M  V30 11166 C 1046.3 -3.22614 -4.10752 0
M  V30 11167 H 1047.99 -2.06 -2.17265 0
M  V30 11168 H 1045.54 -0.991827 -1.04397 0
M  V30 11169 H 1047.49 -0.653843 -4.16297 0
M  V30 11170 H 1046.22 0.19979 -3.25988 0
M  V30 11171 H 1044.88 -1.928 -3.11807 0
M  V30 11172 H 1044.52 -0.340719 -5.01845 0
M  V30 11173 H 1044.22 -2.02474 -5.51614 0
M  V30 11174 H 1045.75 -1.2178 -5.98333 0
M  V30 11175 H 1047.16 -3.1504 -4.78981 0
M  V30 11176 H 1045.56 -3.90614 -4.55566 0
M  V30 11177 H 1046.63 -3.67727 -3.16077 0
M  V30 11178 N 1047.97 1.13488 -1.09353 0
M  V30 11179 C 1048.94 2.17066 -0.735863 0
M  V30 11180 C 1049.94 1.59086 0.234181 0
M  V30 11181 O 1051.13 1.74196 0.012463 0
M  V30 11182 C 1048.26 3.40786 -0.0880975 0
M  V30 11183 H 1049.45 2.50221 -1.65316 0
M  V30 11184 H 1047 1.28304 -0.89263 0
M  V30 11185 H 1047.74 3.1322 0.840462 0
M  V30 11186 H 1047.52 3.8414 -0.786073 0
M  V30 11187 H 1049.01 4.17342 0.146775 0
M  V30 11188 N 1049.45 0.880621 1.30701 0
M  V30 11189 C 1050.7 0.492957 1.95583 0
M  V30 11190 C 1051.01 -0.961863 1.70316 0
M  V30 11191 O 1052.22 -1.45617 2.29146 0
M  V30 11192 C 1050.68 0.830656 3.50183 0
M  V30 11193 C 1050.28 2.30295 3.84276 0
M  V30 11194 C 1052.03 0.511979 4.21401 0
M  V30 11195 C 1049.93 2.58251 5.32034 0
M  V30 11196 H 1048.86 0.18062 0.732047 0
M  V30 11197 H 1051.52 1.075 1.48715 0
M  V30 11198 H 1049.9 0.177752 3.95601 0
M  V30 11199 H 1051.07 2.99981 3.49783 0
M  V30 11200 H 1049.39 2.58873 3.2615 0
M  V30 11201 H 1051.98 0.697935 5.30125 0
M  V30 11202 H 1052.33 -0.548327 4.12673 0
M  V30 11203 H 1052.86 1.12189 3.81652 0
M  V30 11204 H 1049.6 3.63005 5.45809 0
M  V30 11205 H 1049.12 1.9317 5.67843 0
M  V30 11206 H 1050.8 2.43527 5.99419 0
M  V30 11207 N 1050.93 -1.4397 0.641131 0
M  V30 11208 C 1051.88 -2.30728 -0.0577905 0
M  V30 11209 C 1052.85 -1.44059 -0.826819 0
M  V30 11210 O 1054.03 -1.72947 -0.805853 0
M  V30 11211 C 1051.17 -3.29478 -1.02657 0
M  V30 11212 C 1050.28 -4.31247 -0.254913 0
M  V30 11213 C 1049.42 -5.17085 -1.2164 0
M  V30 11214 C 1048.46 -6.10556 -0.434481 0
M  V30 11215 N 1047.6 -6.89059 -1.34694 0
M  V30 11216 H 1052.44 -2.8995 0.687953 0
M  V30 11217 H 1049.97 -1.4285 0.351029 0
M  V30 11218 H 1051.93 -3.85228 -1.60173 0
M  V30 11219 H 1050.56 -2.71932 -1.73933 0
M  V30 11220 H 1049.61 -3.77889 0.436338 0
M  V30 11221 H 1050.92 -4.97545 0.353642 0
M  V30 11222 H 1050.08 -5.77402 -1.86258 0
M  V30 11223 H 1048.82 -4.50885 -1.85888 0
M  V30 11224 H 1047.82 -5.49339 0.225125 0
M  V30 11225 H 1049.05 -6.78795 0.203415 0
M  V30 11226 H 1046.99 -6.25518 -1.97644 0
M  V30 11227 H 1046.91 -7.51833 -0.792657 0
M  V30 11228 H 1048.18 -7.5389 -1.98165 0
M  V30 11229 N 1052.41 -0.382291 -1.52893 0
M  V30 11230 C 1053.68 0.259354 -1.93873 0
M  V30 11231 C 1054.06 1.64964 -1.3172 0
M  V30 11232 O 1053.41 2.23345 -0.482611 0
M  V30 11233 C 1053.62 0.292765 -3.4777 0
M  V30 11234 C 1054.97 0.525095 -4.21341 0
M  V30 11235 O 1055.99 0.373272 -3.54239 0
M  V30 11236 O 1054.85 0.822004 -5.40283 0
M  V30 11237 H 1051.95 0.159422 -0.811489 0
M  V30 11238 H 1054.49 -0.436289 -1.63996 0
M  V30 11239 H 1053.27 -0.681341 -3.85323 0
M  V30 11240 H 1052.89 1.03362 -3.8393 0
M  V30 11241 N 1053.89 1.57202 -0.111913 0
M  V30 11242 C 1054.82 2.10634 0.877983 0
M  V30 11243 C 1055.8 1.02098 1.26549 0
M  V30 11244 O 1056.98 1.29707 1.36779 0
M  V30 11245 C 1054.11 2.59721 2.174 0
M  V30 11246 C 1053.15 3.80074 1.93509 0
M  V30 11247 S 1053.99 5.22834 1.1578 0
M  V30 11248 C 1055.14 5.75284 2.46576 0
M  V30 11249 H 1055.38 2.94268 0.423483 0
M  V30 11250 H 1052.91 1.54065 0.101721 0
M  V30 11251 H 1054.87 2.88657 2.91868 0
M  V30 11252 H 1053.53 1.76281 2.59969 0
M  V30 11253 H 1052.72 4.12545 2.89522 0
M  V30 11254 H 1052.32 3.51718 1.27164 0
M  V30 11255 H 1054.61 5.84576 3.42457 0
M  V30 11256 H 1055.56 6.73493 2.1866 0
M  V30 11257 H 1055.97 5.03308 2.55619 0
M  V30 11258 N 1055.36 -0.161842 1.56767 0
M  V30 11259 C 1056.33 -1.18404 1.96247 0
M  V30 11260 C 1057.33 -1.3667 0.84722 0
M  V30 11261 O 1058.52 -1.33915 1.11411 0
M  V30 11262 C 1055.65 -2.54728 2.26553 0
M  V30 11263 H 1056.84 -0.845703 2.87729 0
M  V30 11264 H 1054.39 -0.404645 1.50971 0
M  V30 11265 H 1055.13 -2.93559 1.37816 0
M  V30 11266 H 1054.91 -2.42834 3.07854 0
M  V30 11267 H 1056.4 -3.28378 2.57987 0
M  V30 11268 N 1056.84 -1.516 -0.430713 0
M  V30 11269 C 1058.09 -1.64271 -1.17726 0
M  V30 11270 C 1058.41 -0.364406 -1.91565 0
M  V30 11271 O 1057.68 0.619991 -1.8583 0
M  V30 11272 H 1056.26 -0.605432 -0.437562 0
M  V30 11273 H 1058.92 -1.88557 -0.493166 0
M  V30 11274 H 1058.02 -2.47355 -1.90321 0
M  V30 11275 N 1058.32 0.686584 -1.41858 0
M  V30 11276 C 1059.25 1.81264 -1.47193 0
M  V30 11277 C 1060.23 1.66875 -0.329657 0
M  V30 11278 O 1061.42 1.86473 -0.542347 0
M  V30 11279 C 1058.55 3.19472 -1.36216 0
M  V30 11280 C 1057.5 3.4858 -2.48347 0
M  V30 11281 C 1056.83 4.86239 -2.22432 0
M  V30 11282 C 1058.13 3.46653 -3.90678 0
M  V30 11283 H 1059.82 1.77057 -2.41436 0
M  V30 11284 H 1057.37 0.850415 -1.16206 0
M  V30 11285 H 1059.32 3.97969 -1.38558 0
M  V30 11286 H 1058.04 3.24327 -0.384611 0
M  V30 11287 H 1056.7 2.72437 -2.45303 0
M  V30 11288 H 1056.35 4.8773 -1.22999 0
M  V30 11289 H 1056.05 5.06677 -2.97577 0
M  V30 11290 H 1057.57 5.67034 -2.26505 0
M  V30 11291 H 1058.99 4.15139 -3.95389 0
M  V30 11292 H 1057.38 3.78625 -4.65578 0
M  V30 11293 H 1058.45 2.45451 -4.18189 0
M  V30 11294 N 1059.8 1.27835 0.921735 0
M  V30 11295 C 1060.73 1.136 2.04003 0
M  V30 11296 C 1061.71 0.0358756 1.70062 0
M  V30 11297 O 1062.89 0.211438 1.93046 0
M  V30 11298 C 1060.02 0.788697 3.38226 0
M  V30 11299 C 1058.98 1.84272 3.863 0
M  V30 11300 C 1058.3 1.34923 5.17397 0
M  V30 11301 C 1059.6 3.24788 4.09035 0
M  V30 11302 H 1061.3 2.07149 2.1617 0
M  V30 11303 H 1058.84 0.997349 1.0387 0
M  V30 11304 H 1060.8 0.675911 4.15944 0
M  V30 11305 H 1059.52 -0.182499 3.2609 0
M  V30 11306 H 1058.18 1.94451 3.1078 0
M  V30 11307 H 1057.83 0.367328 5.01657 0
M  V30 11308 H 1057.53 2.05397 5.50532 0
M  V30 11309 H 1059.05 1.24951 5.97678 0
M  V30 11310 H 1060.47 3.17575 4.77304 0
M  V30 11311 H 1058.86 3.93025 4.53488 0
M  V30 11312 H 1059.93 3.69398 3.14122 0
M  V30 11313 N 1061.28 -1.12907 1.09954 0
M  V30 11314 C 1062.22 -2.18485 0.743848 0
M  V30 11315 C 1063.19 -1.63766 -0.277494 0
M  V30 11316 O 1064.38 -1.90146 -0.157899 0
M  V30 11317 C 1061.52 -3.44649 0.176437 0
M  V30 11318 C 1060.63 -4.13445 1.25248 0
M  V30 11319 C 1059.77 -5.27242 0.647242 0
M  V30 11320 C 1058.8 -5.87897 1.70421 0
M  V30 11321 N 1057.94 -6.93116 1.1196 0
M  V30 11322 H 1062.78 -2.48257 1.64841 0
M  V30 11323 H 1060.32 -1.21891 0.823471 0
M  V30 11324 H 1062.28 -4.16852 -0.170384 0
M  V30 11325 H 1060.91 -3.15309 -0.69137 0
M  V30 11326 H 1059.96 -3.39471 1.7165 0
M  V30 11327 H 1061.27 -4.54601 2.05279 0
M  V30 11328 H 1060.42 -6.06186 0.249579 0
M  V30 11329 H 1059.16 -4.87351 -0.184556 0
M  V30 11330 H 1058.17 -5.07643 2.11136 0
M  V30 11331 H 1059.39 -6.2986 2.53877 0
M  V30 11332 H 1057.34 -6.55271 0.309181 0
M  V30 11333 H 1057.26 -7.32843 1.85681 0
M  V30 11334 H 1058.52 -7.759 0.748326 0
M  V30 11335 N 1062.75 -0.88754 -1.30232 0
M  V30 11336 C 1064.16 -0.55745 -1.78184 0
M  V30 11337 C 1064.52 0.926474 -1.72948 0
M  V30 11338 O 1063.64 1.72403 -1.3079 0
M  V30 11339 C 1064.24 -1.00512 -3.23547 0
M  V30 11340 C 1062.79 -0.726402 -3.69324 0
M  V30 11341 C 1061.94 -1.18666 -2.50627 0
M  V30 11342 H 1064.89 -1.07151 -1.17066 0
M  V30 11343 H 1064.91 -0.335185 -3.79021 0
M  V30 11344 H 1064.43 -2.08517 -3.27326 0
M  V30 11345 H 1062.53 0.341548 -3.71031 0
M  V30 11346 H 1062.64 -1.31575 -4.60679 0
M  V30 11347 H 1061 -0.605936 -2.47387 0
M  V30 11348 H 1061.79 -2.2745 -2.57141 0
M  V30 11349 N 1064.23 1.43628 -0.648757 0
M  V30 11350 C 1065.18 2.30755 0.0455536 0
M  V30 11351 C 1066.15 1.44495 0.819168 0
M  V30 11352 O 1067.33 1.73372 0.79667 0
M  V30 11353 C 1064.47 3.30017 1.00908 0
M  V30 11354 C 1063.59 4.31376 0.232039 0
M  V30 11355 C 1062.72 5.17723 1.18897 0
M  V30 11356 C 1061.76 6.10778 0.402096 0
M  V30 11357 N 1060.9 6.89763 1.31038 0
M  V30 11358 H 1065.74 2.89581 -0.70332 0
M  V30 11359 H 1063.28 1.42662 -0.3586 0
M  V30 11360 H 1065.23 3.86072 1.58128 0
M  V30 11361 H 1063.86 2.72851 1.72488 0
M  V30 11362 H 1062.92 3.77652 -0.456373 0
M  V30 11363 H 1064.23 4.9735 -0.380023 0
M  V30 11364 H 1063.38 5.78381 1.83194 0
M  V30 11365 H 1062.12 4.51864 1.83494 0
M  V30 11366 H 1061.13 5.49212 -0.254255 0
M  V30 11367 H 1062.35 6.78678 -0.239411 0
M  V30 11368 H 1060.3 6.26557 1.94324 0
M  V30 11369 H 1060.21 7.52243 0.752774 0
M  V30 11370 H 1061.48 7.54931 1.94164 0
M  V30 11371 N 1065.71 0.390394 1.52688 0
M  V30 11372 C 1066.67 -0.432149 2.25089 0
M  V30 11373 C 1067.67 -0.989296 1.26766 0
M  V30 11374 O 1068.86 -0.871126 1.50854 0
M  V30 11375 C 1066 -1.60642 3.00678 0
M  V30 11376 H 1067.19 0.201734 2.99221 0
M  V30 11377 H 1064.74 0.142531 1.55649 0
M  V30 11378 H 1065.48 -2.2777 2.3085 0
M  V30 11379 H 1065.26 -1.21361 3.72846 0
M  V30 11380 H 1066.75 -2.18873 3.55647 0
M  V30 11381 N 1067.19 -1.57141 0.120249 0
M  V30 11382 C 1068.15 -2.14213 -0.815185 0
M  V30 11383 C 1069.15 -1.07731 -1.19376 0
M  V30 11384 O 1070.34 -1.33502 -1.11906 0
M  V30 11385 C 1067.47 -2.68339 -2.10255 0
M  V30 11386 H 1068.67 -2.98197 -0.319166 0
M  V30 11387 H 1066.22 -1.55767 -0.128997 0
M  V30 11388 H 1066.95 -1.87946 -2.64285 0
M  V30 11389 H 1066.74 -3.46216 -1.84057 0
M  V30 11390 H 1068.23 -3.124 -2.77121 0
M  V30 11391 N 1068.67 0.153526 -1.5685 0
M  V30 11392 C 1069.9 0.881055 -1.86872 0
M  V30 11393 C 1070.3 1.75547 -0.705692 0
M  V30 11394 O 1069.65 1.8064 0.333888 0
M  V30 11395 C 1069.71 1.79429 -3.11521 0
M  V30 11396 C 1069.37 1.0977 -4.43621 0
M  V30 11397 C 1070.37 0.454693 -5.17908 0
M  V30 11398 C 1068.06 1.08915 -4.9035 0
M  V30 11399 C 1070.05 -0.187562 -6.37124 0
M  V30 11400 C 1067.74 0.443084 -6.09492 0
M  V30 11401 C 1068.73 -0.194154 -6.82724 0
M  V30 11402 O 1068.42 -0.829995 -7.99604 0
M  V30 11403 H 1068.15 0.260486 -0.623797 0
M  V30 11404 H 1070.71 0.153024 -2.04829 0
M  V30 11405 H 1068.94 2.5631 -2.89555 0
M  V30 11406 H 1070.63 2.39321 -3.27842 0
M  V30 11407 H 1071.39 0.453151 -4.82878 0
M  V30 11408 H 1067.27 1.57456 -4.33276 0
M  V30 11409 H 1070.82 -0.685542 -6.94223 0
M  V30 11410 H 1066.71 0.44227 -6.43983 0
M  V30 11411 H 1067.48 -0.731013 -8.15229 0
M  V30 11412 N 1070.14 1.51827 0.422667 0
M  V30 11413 C 1071.05 1.77066 1.53899 0
M  V30 11414 C 1072.07 0.655541 1.61179 0
M  V30 11415 O 1073.25 0.939448 1.78147 0
M  V30 11416 C 1070.31 1.90372 2.89758 0
M  V30 11417 C 1069.37 3.14256 2.92475 0
M  V30 11418 C 1068.61 3.26918 4.21853 0
M  V30 11419 O 1068.83 2.45164 5.15025 0
M  V30 11420 O 1067.76 4.19989 4.31153 0
M  V30 11421 H 1071.59 2.71791 1.35511 0
M  V30 11422 H 1069.17 1.36506 0.607165 0
M  V30 11423 H 1071.06 2.01024 3.70361 0
M  V30 11424 H 1069.73 0.988347 3.08242 0
M  V30 11425 H 1068.64 3.09072 2.10773 0
M  V30 11426 H 1069.97 4.0553 2.78937 0
M  V30 11427 N 1071.62 -0.679052 1.4222 0
M  V30 11428 C 1072.55 -1.80481 1.48152 0
M  V30 11429 C 1073.53 -1.66698 0.338502 0
M  V30 11430 O 1074.72 -1.86183 0.552228 0
M  V30 11431 C 1071.85 -3.18746 1.37908 0
M  V30 11432 C 1070.8 -3.47258 2.50192 0
M  V30 11433 C 1070.13 -4.85052 2.25008 0
M  V30 11434 C 1071.43 -3.44576 3.92511 0
M  V30 11435 H 1073.12 -1.75774 2.42371 0
M  V30 11436 H 1070.67 -0.844241 1.16656 0
M  V30 11437 H 1072.62 -3.97229 1.40666 0
M  V30 11438 H 1071.35 -3.24119 0.401806 0
M  V30 11439 H 1070 -2.71133 2.46744 0
M  V30 11440 H 1069.65 -4.8707 1.25584 0
M  V30 11441 H 1069.35 -5.05092 3.00259 0
M  V30 11442 H 1070.88 -5.65825 2.29508 0
M  V30 11443 H 1072.29 -4.13036 3.97585 0
M  V30 11444 H 1070.69 -3.76151 4.67579 0
M  V30 11445 H 1071.76 -2.4323 4.19484 0
M  V30 11446 N 1073.1 -1.28322 -0.914942 0
M  V30 11447 C 1074.35 -1.14785 -1.65853 0
M  V30 11448 C 1074.66 0.303135 -1.93237 0
M  V30 11449 O 1075.87 0.559606 -2.6567 0
M  V30 11450 C 1074.32 -2.00652 -2.98776 0
M  V30 11451 C 1073.93 -3.50483 -2.79044 0
M  V30 11452 C 1075.68 -1.95798 -3.76648 0
M  V30 11453 C 1073.58 -4.28505 -4.076 0
M  V30 11454 H 1072.51 -0.425987 -0.622135 0
M  V30 11455 H 1075.16 -1.52844 -1.01543 0
M  V30 11456 H 1073.55 -1.55447 -3.64214 0
M  V30 11457 H 1074.72 -4.03636 -2.22293 0
M  V30 11458 H 1073.04 -3.5685 -2.14586 0
M  V30 11459 H 1075.63 -2.51359 -4.71935 0
M  V30 11460 H 1075.98 -0.934455 -4.05677 0
M  V30 11461 H 1076.51 -2.38965 -3.18026 0
M  V30 11462 H 1073.25 -5.31433 -3.83744 0
M  V30 11463 H 1072.77 -3.80125 -4.63966 0
M  V30 11464 H 1074.45 -4.3836 -4.75867 0
M  V30 11465 N 1074.58 1.12322 -1.10551 0
M  V30 11466 C 1075.83 1.83495 -0.846998 0
M  V30 11467 C 1076.15 1.8457 0.629205 0
M  V30 11468 O 1075.42 1.30968 1.45686 0
M  V30 11469 H 1074 0.679479 -0.310351 0
M  V30 11470 H 1076.66 1.36004 -1.39602 0
M  V30 11471 H 1075.76 2.87651 -1.21092 0
M  V30 11472 N 1076.06 0.894434 1.2976 0
M  V30 11473 C 1076.97 0.372622 2.31622 0
M  V30 11474 C 1077.98 -0.52996 1.65733 0
M  V30 11475 O 1079.16 -0.420807 1.96955 0
M  V30 11476 C 1076.22 -0.396076 3.4443 0
M  V30 11477 C 1075.28 0.537394 4.25923 0
M  V30 11478 C 1074.52 -0.194713 5.33345 0
M  V30 11479 O 1074.74 -1.41943 5.52457 0
M  V30 11480 O 1073.67 0.460055 6.00139 0
M  V30 11481 H 1077.5 1.21756 2.78225 0
M  V30 11482 H 1075.09 0.65858 1.34101 0
M  V30 11483 H 1076.97 -0.830962 4.13126 0
M  V30 11484 H 1075.64 -1.21716 2.99945 0
M  V30 11485 H 1074.55 1.02129 3.5989 0
M  V30 11486 H 1075.88 1.32475 4.74037 0
M  V30 11487 N 1077.53 -1.43282 0.656365 0
M  V30 11488 C 1078.46 -2.33492 -0.0196962 0
M  V30 11489 C 1079.45 -1.49647 -0.80868 0
M  V30 11490 O 1080.63 -1.78303 -0.769529 0
M  V30 11491 C 1077.76 -3.33052 -0.984574 0
M  V30 11492 C 1076.71 -4.26908 -0.305483 0
M  V30 11493 C 1076.04 -5.16531 -1.38202 0
M  V30 11494 C 1077.34 -5.16073 0.804081 0
M  V30 11495 H 1079.03 -2.90272 0.733661 0
M  V30 11496 H 1076.58 -1.39574 0.354259 0
M  V30 11497 H 1078.53 -3.9506 -1.46647 0
M  V30 11498 H 1077.26 -2.74535 -1.76913 0
M  V30 11499 H 1075.92 -3.66268 0.155995 0
M  V30 11500 H 1075.56 -4.54351 -2.1581 0
M  V30 11501 H 1075.26 -5.80148 -0.932878 0
M  V30 11502 H 1076.79 -5.81414 -1.86522 0
M  V30 11503 H 1078.2 -5.71873 0.404212 0
M  V30 11504 H 1076.6 -5.88427 1.17789 0
M  V30 11505 H 1077.67 -4.55574 1.66073 0
M  V30 11506 N 1079.01 -0.398486 -1.52479 0
M  V30 11507 C 1079.96 0.432212 -2.26717 0
M  V30 11508 C 1080.93 1.05007 -1.28696 0
M  V30 11509 O 1082.12 1.07636 -1.57541 0
M  V30 11510 C 1079.26 1.54868 -3.08399 0
M  V30 11511 C 1078.37 0.952779 -4.21362 0
M  V30 11512 C 1077.5 2.04106 -4.90423 0
M  V30 11513 C 1076.54 1.42153 -5.95364 0
M  V30 11514 N 1075.68 2.44951 -6.57984 0
M  V30 11515 H 1080.52 -0.207303 -2.97278 0
M  V30 11516 H 1078.06 -0.114066 -1.46657 0
M  V30 11517 H 1080.01 2.20684 -3.54054 0
M  V30 11518 H 1078.64 2.15837 -2.4003 0
M  V30 11519 H 1077.7 0.183962 -3.79955 0
M  V30 11520 H 1079.01 0.460131 -4.96673 0
M  V30 11521 H 1078.16 2.77672 -5.39429 0
M  V30 11522 H 1076.9 2.56733 -4.14656 0
M  V30 11523 H 1075.91 0.671161 -5.45688 0
M  V30 11524 H 1077.13 0.903093 -6.73068 0
M  V30 11525 H 1075.08 2.9673 -5.85053 0
M  V30 11526 H 1074.99 2.00468 -7.28937 0
M  V30 11527 H 1076.26 3.18119 -7.11632 0
M  V30 11528 N 1080.49 1.57075 -0.12858 0
M  V30 11529 C 1081.72 2.00305 0.537839 0
M  V30 11530 C 1082.14 1.00787 1.58819 0
M  V30 11531 O 1081.5 -0.0190839 1.8129 0
M  V30 11532 C 1081.55 3.42371 1.13201 0
M  V30 11533 O 1080.65 3.45786 2.24735 0
M  V30 11534 H 1079.99 0.650456 0.133428 0
M  V30 11535 H 1082.52 2.03415 -0.219882 0
M  V30 11536 H 1082.53 3.80783 1.4652 0
M  V30 11537 H 1081.21 4.14315 0.362713 0
M  V30 11538 H 1079.78 3.19201 1.92783 0
M  V30 11539 N 1081.97 -0.145205 1.5693 0
M  V30 11540 C 1082.93 -1.16316 1.97492 0
M  V30 11541 C 1083.93 -1.35764 0.861668 0
M  V30 11542 O 1085.12 -1.32726 1.12825 0
M  V30 11543 C 1082.25 -2.52311 2.29242 0
M  V30 11544 H 1083.45 -0.815138 2.8861 0
M  V30 11545 H 1081 -0.38861 1.51392 0
M  V30 11546 H 1081.74 -2.92081 1.40922 0
M  V30 11547 H 1081.52 -2.39555 3.10412 0
M  V30 11548 H 1083.01 -3.25624 2.61456 0
M  V30 11549 N 1083.45 -1.52049 -0.414609 0
M  V30 11550 C 1084.69 -1.66084 -1.16379 0
M  V30 11551 C 1085.03 -0.386932 -1.90306 0
M  V30 11552 O 1084.3 0.614441 -1.8454 0
M  V30 11553 C 1084.58 -2.87927 -2.16264 0
M  V30 11554 C 1084.44 -4.25353 -1.46269 0
M  V30 11555 C 1085.76 -3.05289 -3.16996 0
M  V30 11556 H 1082.88 -0.604414 -0.421726 0
M  V30 11557 H 1085.52 -1.8459 -0.450177 0
M  V30 11558 H 1083.67 -2.7228 -2.77121 0
M  V30 11559 H 1085.34 -4.52717 -0.885743 0
M  V30 11560 H 1083.58 -4.27006 -0.76472 0
M  V30 11561 H 1084.25 -5.06644 -2.19126 0
M  V30 11562 H 1086.73 -3.19798 -2.66212 0
M  V30 11563 H 1085.61 -3.92065 -3.84156 0
M  V30 11564 H 1085.87 -2.1836 -3.84411 0
M  V30 11565 N 1084.93 0.6715 -1.42579 0
M  V30 11566 C 1086.2 1.42766 -1.33706 0
M  V30 11567 C 1086.58 2.11086 0.0239748 0
M  V30 11568 O 1085.93 2.03479 1.03964 0
M  V30 11569 C 1086.14 2.42739 -2.50756 0
M  V30 11570 C 1087.49 3.07284 -2.93021 0
M  V30 11571 O 1088.51 2.53066 -2.50671 0
M  V30 11572 O 1087.37 4.05541 -3.66331 0
M  V30 11573 H 1084.47 0.636955 -0.527463 0
M  V30 11574 H 1087.01 0.699946 -1.54593 0
M  V30 11575 H 1085.78 1.91076 -3.41476 0
M  V30 11576 H 1085.41 3.22986 -2.31874 0
M  V30 11577 N 1086.4 1.28806 0.908124 0
M  V30 11578 C 1087.33 1.15758 2.02787 0
M  V30 11579 C 1088.31 0.053911 1.70015 0
M  V30 11580 O 1089.5 0.231901 1.9281 0
M  V30 11581 C 1086.63 0.824526 3.37371 0
M  V30 11582 C 1085.58 1.88359 3.84324 0
M  V30 11583 C 1084.91 1.40404 5.15937 0
M  V30 11584 C 1086.21 3.29108 4.05568 0
M  V30 11585 H 1087.9 2.09431 2.13961 0
M  V30 11586 H 1085.45 1.00831 1.02806 0
M  V30 11587 H 1087.4 0.71999 4.15204 0
M  V30 11588 H 1086.13 -0.147902 3.26265 0
M  V30 11589 H 1084.79 1.97736 3.087 0
M  V30 11590 H 1084.43 0.420515 5.01239 0
M  V30 11591 H 1084.13 2.11224 5.48323 0
M  V30 11592 H 1085.66 1.31283 5.9632 0
M  V30 11593 H 1087.07 3.2262 4.73909 0
M  V30 11594 H 1085.47 3.97812 4.49294 0
M  V30 11595 H 1086.54 3.72709 3.10187 0
M  V30 11596 N 1087.88 -1.11734 1.11145 0
M  V30 11597 C 1089.29 -1.64928 0.874959 0
M  V30 11598 C 1089.64 -1.87012 -0.593375 0
M  V30 11599 O 1088.77 -1.60206 -1.45475 0
M  V30 11600 C 1089.36 -2.99608 1.58178 0
M  V30 11601 C 1087.92 -3.49723 1.39179 0
M  V30 11602 C 1087.07 -2.24595 1.62642 0
M  V30 11603 H 1090.02 -0.954154 1.26813 0
M  V30 11604 H 1090.04 -3.66434 1.02501 0
M  V30 11605 H 1089.55 -2.83504 2.65042 0
M  V30 11606 H 1087.65 -3.70998 0.345111 0
M  V30 11607 H 1087.77 -4.28711 2.13878 0
M  V30 11608 H 1086.13 -2.32067 1.04961 0
M  V30 11609 H 1086.91 -2.11036 2.70774 0
M  V30 11610 N 1089.36 -0.901303 -1.29284 0
M  V30 11611 C 1090.61 -0.52401 -1.94774 0
M  V30 11612 C 1090.92 0.934645 -1.71825 0
M  V30 11613 O 1092.13 1.41953 -2.31434 0
M  V30 11614 C 1090.58 -0.886262 -3.48817 0
M  V30 11615 C 1090.19 -2.3638 -3.80564 0
M  V30 11616 C 1091.94 -0.578955 -4.20533 0
M  V30 11617 C 1089.84 -2.66682 -5.27858 0
M  V30 11618 H 1088.77 -0.192244 -0.72908 0
M  V30 11619 H 1091.42 -1.09852 -1.46986 0
M  V30 11620 H 1089.81 -0.240666 -3.95268 0
M  V30 11621 H 1090.98 -3.05508 -3.44966 0
M  V30 11622 H 1089.29 -2.64029 -3.2199 0
M  V30 11623 H 1091.89 -0.782185 -5.28948 0
M  V30 11624 H 1092.23 0.482605 -4.13493 0
M  V30 11625 H 1092.77 -1.18246 -3.79819 0
M  V30 11626 H 1089.51 -3.71643 -5.39965 0
M  V30 11627 H 1089.03 -2.02179 -5.64698 0
M  V30 11628 H 1090.71 -2.53033 -5.95469 0
M  V30 11629 N 1090.84 1.42931 -0.663954 0
M  V30 11630 C 1091.79 2.27958 0.0436184 0
M  V30 11631 C 1092.77 1.40493 0.784258 0
M  V30 11632 O 1093.96 1.64035 0.664956 0
M  V30 11633 C 1091.09 3.28357 1.00183 0
M  V30 11634 C 1090.18 4.23308 0.259099 0
M  V30 11635 N 1090.57 5.00502 -0.730182 0
M  V30 11636 C 1088.87 4.43199 0.499061 0
M  V30 11637 C 1089.57 5.69771 -1.17201 0
M  V30 11638 N 1088.54 5.41258 -0.504105 0
M  V30 11639 H 1092.35 2.85061 -0.715348 0
M  V30 11640 H 1089.86 1.54764 -0.492117 0
M  V30 11641 H 1091.86 3.88061 1.52362 0
M  V30 11642 H 1090.52 2.72815 1.76074 0
M  V30 11643 H 1091.53 5.0588 -1.10932 0
M  V30 11644 H 1088.21 3.98713 1.23831 0
M  V30 11645 H 1089.6 6.41718 -1.99117 0
M  V30 11646 N 1092.32 0.406567 1.52266 0
M  V30 11647 C 1093.25 -0.411314 2.29849 0
M  V30 11648 C 1094.23 -1.04838 1.33952 0
M  V30 11649 O 1095.41 -1.05788 1.62857 0
M  V30 11650 C 1092.54 -1.52961 3.11802 0
M  V30 11651 C 1091.5 -1.01768 4.15725 0
M  V30 11652 C 1090.82 -2.22938 4.86007 0
M  V30 11653 C 1092.12 -0.073515 5.22248 0
M  V30 11654 H 1093.82 0.236054 2.98468 0
M  V30 11655 H 1091.36 0.114968 1.4354 0
M  V30 11656 H 1093.31 -2.10874 3.64843 0
M  V30 11657 H 1092.04 -2.20482 2.40947 0
M  V30 11658 H 1090.7 -0.46097 3.6369 0
M  V30 11659 H 1090.35 -2.89007 4.11684 0
M  V30 11660 H 1090.05 -1.89338 5.5626 0
M  V30 11661 H 1091.57 -2.81462 5.41859 0
M  V30 11662 H 1092.98 -0.561367 5.70545 0
M  V30 11663 H 1091.38 0.173551 5.99849 0
M  V30 11664 H 1092.45 0.872524 4.76985 0
M  V30 11665 N 1093.79 -1.57004 0.136909 0
M  V30 11666 C 1094.74 -2.12815 -0.818144 0
M  V30 11667 C 1095.73 -1.0534 -1.21623 0
M  V30 11668 O 1096.92 -1.31539 -1.18434 0
M  V30 11669 C 1094.05 -2.74533 -2.06122 0
M  V30 11670 C 1093.14 -3.89117 -1.68669 0
M  V30 11671 N 1093.53 -4.95412 -1.01983 0
M  V30 11672 C 1091.82 -3.99636 -1.98009 0
M  V30 11673 C 1092.53 -5.75594 -0.840624 0
M  V30 11674 N 1091.5 -5.26019 -1.37131 0
M  V30 11675 H 1095.3 -2.92372 -0.299315 0
M  V30 11676 H 1092.82 -1.6227 -0.0649741 0
M  V30 11677 H 1094.81 -3.12872 -2.7553 0
M  V30 11678 H 1093.47 -1.96446 -2.58532 0
M  V30 11679 H 1094.49 -5.13393 -0.681744 0
M  V30 11680 H 1091.16 -3.32613 -2.52339 0
M  V30 11681 H 1092.55 -6.71157 -0.315807 0
M  V30 11682 N 1095.27 0.136881 -1.57004 0
M  V30 11683 C 1096.5 0.862436 -1.88068 0
M  V30 11684 C 1096.92 1.74274 -0.726227 0
M  V30 11685 O 1096.27 1.79956 0.30366 0
M  V30 11686 C 1096.32 1.71076 -3.18458 0
M  V30 11687 O 1096.04 0.865918 -4.29457 0
M  V30 11688 C 1097.55 2.54302 -3.63105 0
M  V30 11689 H 1094.77 0.248865 -0.623143 0
M  V30 11690 H 1097.31 0.126633 -2.04108 0
M  V30 11691 H 1095.46 2.39951 -3.04142 0
M  V30 11692 H 1095.88 1.4493 -5.04079 0
M  V30 11693 H 1097.35 3.09384 -4.57149 0
M  V30 11694 H 1097.83 3.3082 -2.88886 0
M  V30 11695 H 1098.44 1.907 -3.80149 0
M  V30 11696 N 1096.75 1.52266 0.40654 0
M  V30 11697 C 1097.7 1.72175 1.49465 0
M  V30 11698 C 1098.68 0.575668 1.50249 0
M  V30 11699 O 1099.88 0.832835 1.56182 0
M  V30 11700 C 1097.01 1.87818 2.87366 0
M  V30 11701 C 1096.09 3.08305 2.91219 0
M  V30 11702 N 1096.48 4.30967 2.64766 0
M  V30 11703 C 1094.78 3.08192 3.22388 0
M  V30 11704 C 1095.48 5.12455 2.75254 0
M  V30 11705 N 1094.46 4.47758 3.08242 0
M  V30 11706 H 1098.26 2.64653 1.27812 0
M  V30 11707 H 1095.77 1.50334 0.61428 0
M  V30 11708 H 1097.77 2.00198 3.65686 0
M  V30 11709 H 1096.43 0.965414 3.10016 0
M  V30 11710 H 1097.44 4.59397 2.39113 0
M  V30 11711 H 1094.12 2.26662 3.50615 0
M  V30 11712 H 1095.51 6.20186 2.58495 0
M  V30 11713 N 1098.23 -0.663929 1.42933 0
M  V30 11714 C 1099.51 -1.42054 1.34462 0
M  V30 11715 C 1099.89 -2.11096 -0.0127801 0
M  V30 11716 O 1099.23 -2.04027 -1.02884 0
M  V30 11717 C 1099.44 -2.41406 2.5204 0
M  V30 11718 C 1100.79 -3.05726 2.94647 0
M  V30 11719 O 1101.82 -2.51733 2.52009 0
M  V30 11720 O 1100.67 -4.03593 3.68477 0
M  V30 11721 H 1097.77 -0.634149 0.530834 0
M  V30 11722 H 1100.31 -0.691738 1.54962 0
M  V30 11723 H 1099.09 -1.89263 3.42484 0
M  V30 11724 H 1098.71 -3.21752 2.33584 0
M  V30 11725 N 1099.71 -1.29285 -0.901281 0
M  V30 11726 C 1100.93 -1.20048 -1.68511 0
M  V30 11727 C 1101.35 0.239128 -1.8728 0
M  V30 11728 O 1100.71 1.16027 -1.40869 0
M  V30 11729 C 1100.76 -1.90798 -3.07048 0
M  V30 11730 O 1100.48 -3.29137 -2.89138 0
M  V30 11731 C 1101.98 -1.88017 -4.01453 0
M  V30 11732 H 1099.2 -0.416157 -0.52636 0
M  V30 11733 H 1101.74 -1.7063 -1.12719 0
M  V30 11734 H 1099.9 -1.44055 -3.5962 0
M  V30 11735 H 1100.31 -3.64747 -3.76908 0
M  V30 11736 H 1101.79 -2.42088 -4.96082 0
M  V30 11737 H 1102.26 -0.855341 -4.30791 0
M  V30 11738 H 1102.87 -2.34497 -3.54812 0
M  V30 11739 N 1101.18 1.11143 -1.11736 0
M  V30 11740 C 1102.41 1.87285 -0.891007 0
M  V30 11741 C 1102.83 1.79758 0.553971 0
M  V30 11742 O 1102.19 1.16221 1.39149 0
M  V30 11743 C 1102.24 3.33924 -1.36114 0
M  V30 11744 O 1101.34 4.08917 -0.534851 0
M  V30 11745 H 1100.69 0.581418 -0.320701 0
M  V30 11746 H 1103.22 1.40469 -1.4876 0
M  V30 11747 H 1103.23 3.84772 -1.35701 0
M  V30 11748 H 1101.9 3.38719 -2.41334 0
M  V30 11749 H 1100.48 3.67954 -0.605355 0
M  V30 11750 N 1102.66 0.908147 1.28804 0
M  V30 11751 C 1103.91 0.53734 1.94826 0
M  V30 11752 C 1104.23 -0.920962 1.71882 0
M  V30 11753 O 1103.5 -1.65043 1.05534 0
M  V30 11754 H 1102.08 0.195729 0.720902 0
M  V30 11755 H 1104.74 1.15628 1.56895 0
M  V30 11756 H 1103.84 0.727052 3.03513 0
M  V30 11757 N 1104.14 -1.42577 0.671525 0
M  V30 11758 C 1105.09 -2.32591 -0.0205354 0
M  V30 11759 C 1106.08 -1.4964 -0.793993 0
M  V30 11760 O 1107.29 -1.65733 -0.702327 0
M  V30 11761 H 1103.66 -0.75157 -0.0254344 0
M  V30 11762 H 1105.63 -2.88662 0.756082 0
M  V30 11763 C 1104.38 -3.34175 -0.960316 0
M  V30 11764 H 1103.71 -3.98041 -0.374577 0
M  V30 11765 H 1105.15 -3.99752 -1.4133 0
M  V30 11766 C 1103.61 -2.66184 -2.06513 0
M  V30 11767 O 1104.14 -2.49125 -3.15119 0
M  V30 11768 N 1102.34 -2.25261 -1.83591 0
M  V30 11769 H 1101.89 -2.39336 -0.952689 0
M  V30 11770 H 1101.85 -1.80101 -2.57703 0
M  V30 11771 N 1105.62 -0.414636 -1.52048 0
M  V30 11772 C 1106.87 0.159034 -2.01473 0
M  V30 11773 C 1107.19 1.45176 -1.30188 0
M  V30 11774 O 1106.46 1.91134 -0.429469 0
M  V30 11775 H 1105.04 0.0617604 -0.744443 0
M  V30 11776 H 1107.7 -0.552141 -1.86916 0
M  V30 11777 H 1106.8 0.351217 -3.10118 0
M  V30 11778 N 1107.1 1.56929 -0.145233 0
M  V30 11779 C 1108.03 2.19685 0.791263 0
M  V30 11780 C 1109.01 1.14455 1.25833 0
M  V30 11781 O 1110.19 1.42791 1.31622 0
M  V30 11782 C 1107.32 2.81705 2.03124 0
M  V30 11783 C 1106.28 3.92746 1.70101 0
M  V30 11784 C 1105.6 4.41694 3.01347 0
M  V30 11785 C 1106.9 5.13606 0.949025 0
M  V30 11786 H 1108.6 2.98196 0.26825 0
M  V30 11787 H 1106.14 1.43434 0.127584 0
M  V30 11788 H 1108.1 3.24273 2.69119 0
M  V30 11789 H 1106.82 2.00523 2.57795 0
M  V30 11790 H 1105.48 3.50794 1.06486 0
M  V30 11791 H 1105.13 3.57336 3.54006 0
M  V30 11792 H 1104.83 5.1659 2.80016 0
M  V30 11793 H 1106.35 4.86931 3.68416 0
M  V30 11794 H 1107.76 5.53029 1.51102 0
M  V30 11795 H 1106.16 5.94252 0.835711 0
M  V30 11796 H 1107.23 4.84863 -0.0595631 0
M  V30 11797 N 1108.58 -0.128553 1.57075 0
M  V30 11798 C 1109.51 -1.15953 2.02675 0
M  V30 11799 C 1110.49 -1.43743 0.909501 0
M  V30 11800 O 1111.67 -1.54348 1.17857 0
M  V30 11801 C 1108.8 -2.48813 2.423 0
M  V30 11802 C 1107.76 -2.35506 3.57381 0
M  V30 11803 C 1107.08 -3.73243 3.82875 0
M  V30 11804 C 1108.38 -1.82359 4.89431 0
M  V30 11805 H 1110.08 -0.780283 2.89054 0
M  V30 11806 H 1107.62 -0.373896 1.39061 0
M  V30 11807 H 1109.57 -3.21179 2.72804 0
M  V30 11808 H 1108.3 -2.88609 1.52881 0
M  V30 11809 H 1106.96 -1.6559 3.27071 0
M  V30 11810 H 1106.61 -4.10507 2.90677 0
M  V30 11811 H 1106.31 -3.65195 4.60333 0
M  V30 11812 H 1107.83 -4.47128 4.15823 0
M  V30 11813 H 1109.24 -2.44533 5.18533 0
M  V30 11814 H 1107.64 -1.85156 5.70822 0
M  V30 11815 H 1108.71 -0.780478 4.78578 0
M  V30 11816 N 1110.05 -1.5248 -0.398459 0
M  V30 11817 C 1111.28 -1.70925 -1.16586 0
M  V30 11818 C 1111.7 -0.42342 -1.83991 0
M  V30 11819 O 1111.05 0.601395 -1.72306 0
M  V30 11820 C 1111.1 -2.85226 -2.22099 0
M  V30 11821 O 1110.83 -4.08831 -1.57444 0
M  V30 11822 C 1112.33 -3.15272 -3.11639 0
M  V30 11823 H 1109.55 -0.572533 -0.349924 0
M  V30 11824 H 1112.09 -1.99087 -0.467416 0
M  V30 11825 H 1110.25 -2.59553 -2.87595 0
M  V30 11826 H 1110.66 -4.72603 -2.2748 0
M  V30 11827 H 1112.13 -3.98737 -3.81724 0
M  V30 11828 H 1112.61 -2.29262 -3.74614 0
M  V30 11829 H 1113.22 -3.42749 -2.518 0
M  V30 11830 N 1111.53 0.65634 -1.43283 0
M  V30 11831 C 1112.76 1.44199 -1.47954 0
M  V30 11832 C 1113.17 1.88961 -0.0950315 0
M  V30 11833 O 1112.51 1.59895 0.904388 0
M  V30 11834 C 1112.57 2.71161 -2.36033 0
M  V30 11835 C 1112.24 2.48359 -3.83623 0
M  V30 11836 C 1113.24 2.1178 -4.74811 0
M  V30 11837 C 1110.92 2.6278 -4.28079 0
M  V30 11838 C 1112.91 1.89915 -6.0845 0
M  V30 11839 C 1110.6 2.4053 -5.61772 0
M  V30 11840 C 1111.6 2.04154 -6.51775 0
M  V30 11841 O 1111.29 1.82134 -7.82996 0
M  V30 11842 H 1111.02 0.449567 -0.504842 0
M  V30 11843 H 1113.57 0.812234 -1.88658 0
M  V30 11844 H 1111.8 3.36685 -1.9021 0
M  V30 11845 H 1113.49 3.33102 -2.31944 0
M  V30 11846 H 1114.26 2.00217 -4.41744 0
M  V30 11847 H 1110.14 2.9007 -3.58302 0
M  V30 11848 H 1113.68 1.61445 -6.78661 0
M  V30 11849 H 1109.58 2.51695 -5.94407 0
M  V30 11850 H 1110.35 1.96584 -7.94542 0
M  V30 11851 N 1113.01 1.29761 0.894412 0
M  V30 11852 C 1113.96 1.15341 1.99912 0
M  V30 11853 C 1114.93 0.0453488 1.66038 0
M  V30 11854 O 1116.11 0.213829 1.89598 0
M  V30 11855 C 1113.25 0.841432 3.34685 0
M  V30 11856 C 1112.36 2.03046 3.81309 0
M  V30 11857 C 1111.5 1.65739 5.04682 0
M  V30 11858 C 1110.54 2.81191 5.43689 0
M  V30 11859 N 1109.68 2.44244 6.58247 0
M  V30 11860 H 1114.52 2.09854 2.11578 0
M  V30 11861 H 1112.05 1.04421 1.03608 0
M  V30 11862 H 1114.01 0.641211 4.12243 0
M  V30 11863 H 1112.64 -0.066797 3.22731 0
M  V30 11864 H 1111.69 2.34222 2.9974 0
M  V30 11865 H 1113 2.89538 4.06164 0
M  V30 11866 H 1112.16 1.42036 5.8984 0
M  V30 11867 H 1110.9 0.764019 4.81678 0
M  V30 11868 H 1109.9 3.0557 4.57064 0
M  V30 11869 H 1111.13 3.712 5.68672 0
M  V30 11870 H 1109.07 1.57402 6.36837 0
M  V30 11871 H 1108.99 3.24269 6.82924 0
M  V30 11872 H 1110.26 2.23875 7.46659 0
M  V30 11873 N 1114.49 -1.10549 1.12324 0
M  V30 11874 C 1115.42 -2.16657 0.747826 0
M  V30 11875 C 1116.43 -1.61238 -0.224981 0
M  V30 11876 O 1117.62 -1.78499 -0.00649408 0
M  V30 11877 C 1114.72 -3.38791 0.0859421 0
M  V30 11878 C 1113.89 -4.23655 1.08792 0
M  V30 11879 C 1112.95 -5.24239 0.453871 0
M  V30 11880 O 1111.98 -5.58262 1.11052 0
M  V30 11881 N 1113.18 -5.75246 -0.779215 0
M  V30 11882 H 1115.95 -2.49472 1.66084 0
M  V30 11883 H 1113.51 -1.26157 1.01469 0
M  V30 11884 H 1115.5 -4.03182 -0.350186 0
M  V30 11885 H 1114.07 -3.03961 -0.729807 0
M  V30 11886 H 1113.29 -3.55578 1.70171 0
M  V30 11887 H 1114.58 -4.77187 1.76549 0
M  V30 11888 H 1113.98 -5.49802 -1.3317 0
M  V30 11889 H 1112.53 -6.41428 -1.15818 0
M  V30 11890 N 1115.97 -0.914965 -1.28321 0
M  V30 11891 C 1116.93 -0.409024 -2.25521 0
M  V30 11892 C 1117.93 0.465327 -1.5392 0
M  V30 11893 O 1119.12 0.26821 -1.72123 0
M  V30 11894 C 1116.25 0.413452 -3.38383 0
M  V30 11895 H 1117.44 -1.26767 -2.71791 0
M  V30 11896 H 1115 -0.694477 -1.40024 0
M  V30 11897 H 1115.73 1.29145 -2.97476 0
M  V30 11898 H 1115.52 -0.213268 -3.9152 0
M  V30 11899 H 1117.01 0.758232 -4.10659 0
M  V30 11900 N 1117.44 1.42219 -0.679077 0
M  V30 11901 C 1118.69 2.00703 -0.200309 0
M  V30 11902 C 1119.01 1.54339 1.20161 0
M  V30 11903 O 1120.21 2.0527 1.77698 0
M  V30 11904 C 1118.67 3.58586 -0.307248 0
M  V30 11905 C 1118.28 4.13937 -1.71349 0
M  V30 11906 C 1120.02 4.24351 0.112588 0
M  V30 11907 C 1117.93 5.64198 -1.77297 0
M  V30 11908 H 1116.86 0.750638 -0.0711279 0
M  V30 11909 H 1119.51 1.62893 -0.844881 0
M  V30 11910 H 1117.89 3.93921 0.40529 0
M  V30 11911 H 1119.06 3.90054 -2.45346 0
M  V30 11912 H 1117.38 3.60639 -2.08155 0
M  V30 11913 H 1119.98 5.34627 0.0883578 0
M  V30 11914 H 1120.32 4.00142 1.14857 0
M  V30 11915 H 1120.85 3.93992 -0.549093 0
M  V30 11916 H 1117.59 5.93211 -2.78892 0
M  V30 11917 H 1117.11 5.90058 -1.07662 0
M  V30 11918 H 1118.79 6.2869 -1.52835 0
M  V30 11919 N 1118.92 0.422693 1.51826 0
M  V30 11920 C 1120.2 -0.20786 1.94492 0
M  V30 11921 C 1120.58 -1.61414 1.36047 0
M  V30 11922 O 1119.93 -2.21987 0.541657 0
M  V30 11923 C 1120.14 -0.200457 3.48424 0
M  V30 11924 C 1121.48 -0.413199 4.22585 0
M  V30 11925 O 1122.51 -0.27922 3.55104 0
M  V30 11926 O 1121.37 -0.678469 5.42272 0
M  V30 11927 H 1118.46 -0.137851 0.81543 0
M  V30 11928 H 1121.01 0.479617 1.62781 0
M  V30 11929 H 1119.78 0.783263 3.83381 0
M  V30 11930 H 1119.4 -0.931464 3.86535 0
M  V30 11931 N 1120.4 -1.5685 0.153553 0
M  V30 11932 C 1121.36 -2.15894 -0.769564 0
M  V30 11933 C 1122.36 -1.10239 -1.17064 0
M  V30 11934 O 1123.55 -1.35845 -1.09049 0
M  V30 11935 C 1120.68 -2.72738 -2.04516 0
M  V30 11936 H 1121.88 -2.98807 -0.255842 0
M  V30 11937 H 1119.43 -1.56005 -0.0959279 0
M  V30 11938 H 1120.17 -1.9351 -2.60239 0
M  V30 11939 H 1119.95 -3.50042 -1.76672 0
M  V30 11940 H 1121.44 -3.18208 -2.70432 0
M  V30 11941 N 1121.88 0.120221 -1.57141 0
M  V30 11942 C 1123.13 0.826586 -1.84423 0
M  V30 11943 C 1123.45 1.80473 -0.738553 0
M  V30 11944 O 1122.72 1.94454 0.23755 0
M  V30 11945 H 1121.3 0.308246 -0.680436 0
M  V30 11946 H 1123.96 0.107835 -1.94601 0
M  V30 11947 H 1123.05 1.37256 -2.80298 0
M  V30 11948 N 1123.36 1.52689 0.390367 0
M  V30 11949 C 1124.6 1.67914 1.13722 0
M  V30 11950 C 1124.94 0.417159 1.89667 0
M  V30 11951 O 1124.21 -0.585005 1.85494 0
M  V30 11952 C 1124.49 2.91331 2.11656 0
M  V30 11953 C 1124.35 4.27626 1.39484 0
M  V30 11954 C 1125.67 3.10293 3.12099 0
M  V30 11955 H 1122.78 0.611047 0.412057 0
M  V30 11956 H 1125.43 1.85283 0.420753 0
M  V30 11957 H 1123.58 2.76654 2.72754 0
M  V30 11958 H 1125.25 4.54068 0.813607 0
M  V30 11959 H 1123.49 4.28169 0.69669 0
M  V30 11960 H 1124.16 5.10066 2.11038 0
M  V30 11961 H 1126.64 3.23992 2.6109 0
M  V30 11962 H 1125.51 3.98127 3.7787 0
M  V30 11963 H 1125.78 2.24448 3.80888 0
M  V30 11964 N 1124.83 -0.648732 1.43629 0
M  V30 11965 C 1126.11 -1.4062 1.35961 0
M  V30 11966 C 1126.49 -2.11098 0.00961023 0
M  V30 11967 O 1125.84 -2.05107 -1.00714 0
M  V30 11968 C 1126.05 -2.38719 2.54586 0
M  V30 11969 C 1127.4 -3.02584 2.97873 0
M  V30 11970 O 1128.42 -2.49046 2.54665 0
M  V30 11971 O 1127.28 -3.99662 3.72736 0
M  V30 11972 H 1124.37 -0.628483 0.53753 0
M  V30 11973 H 1126.92 -0.675263 1.55687 0
M  V30 11974 H 1125.69 -1.85619 3.44472 0
M  V30 11975 H 1125.32 -3.19257 2.36983 0
M  V30 11976 N 1126.31 -1.30234 -0.887518 0
M  V30 11977 C 1127.56 -1.18277 -1.63381 0
M  V30 11978 C 1127.87 0.262079 -1.93836 0
M  V30 11979 O 1129.08 0.503127 -2.66797 0
M  V30 11980 C 1127.54 -2.06944 -2.94452 0
M  V30 11981 C 1127.14 -3.56323 -2.71547 0
M  V30 11982 C 1128.89 -2.03743 -3.7241 0
M  V30 11983 C 1126.8 -4.37054 -3.98419 0
M  V30 11984 H 1125.73 -0.439087 -0.612959 0
M  V30 11985 H 1128.38 -1.54964 -0.982779 0
M  V30 11986 H 1126.76 -1.63138 -3.60835 0
M  V30 11987 H 1127.93 -4.08261 -2.13681 0
M  V30 11988 H 1126.25 -3.61321 -2.06969 0
M  V30 11989 H 1128.84 -2.61312 -4.66497 0
M  V30 11990 H 1129.19 -1.02029 -4.03603 0
M  V30 11991 H 1129.72 -2.45657 -3.12886 0
M  V30 11992 H 1126.46 -5.39453 -3.72385 0
M  V30 11993 H 1125.98 -3.89881 -4.55799 0
M  V30 11994 H 1127.66 -4.48356 -4.66462 0
M  V30 11995 N 1127.79 1.09952 -1.12909 0
M  V30 11996 C 1129.04 1.81386 -0.882163 0
M  V30 11997 C 1129.35 1.86376 0.593592 0
M  V30 11998 O 1130.56 2.54064 0.957275 0
M  V30 11999 C 1129.01 3.25824 -1.52861 0
M  V30 12000 C 1128.62 3.29117 -3.0395 0
M  V30 12001 C 1130.37 4.02051 -1.36216 0
M  V30 12002 C 1128.27 4.68047 -3.61505 0
M  V30 12003 H 1127.2 0.679701 -0.326378 0
M  V30 12004 H 1129.85 1.23614 -1.35616 0
M  V30 12005 H 1128.24 3.83624 -0.982271 0
M  V30 12006 H 1129.41 2.81114 -3.65119 0
M  V30 12007 H 1127.73 2.66379 -3.20049 0
M  V30 12008 H 1130.32 5.04683 -1.76633 0
M  V30 12009 H 1130.67 4.15171 -0.306391 0
M  V30 12010 H 1131.2 3.5068 -1.87799 0
M  V30 12011 H 1127.94 4.60128 -4.66865 0
M  V30 12012 H 1127.46 5.16397 -3.05114 0
M  V30 12013 H 1129.14 5.37018 -3.6086 0
M  V30 12014 N 1129.27 0.921757 1.27833 0
M  V30 12015 C 1130.55 0.477706 1.89677 0
M  V30 12016 C 1130.93 -1.04392 1.83481 0
M  V30 12017 O 1130.27 -1.89549 1.27606 0
M  V30 12018 C 1130.48 1.01709 3.33851 0
M  V30 12019 C 1131.83 1.074 4.10792 0
M  V30 12020 O 1132.86 0.966295 3.42843 0
M  V30 12021 O 1131.71 1.23909 5.32268 0
M  V30 12022 H 1128.81 0.15271 0.812778 0
M  V30 12023 H 1131.35 1.01306 1.36144 0
M  V30 12024 H 1130.13 2.061 3.32623 0
M  V30 12025 H 1129.75 0.463031 3.94895 0
M  V30 12026 N 1130.75 -1.41857 0.686609 0
M  V30 12027 C 1131.97 -2.05699 0.222561 0
M  V30 12028 C 1132.39 -1.51636 -1.12481 0
M  V30 12029 O 1131.75 -0.660925 -1.70112 0
M  V30 12030 C 1131.8 -3.61138 0.161818 0
M  V30 12031 O 1131.52 -4.13199 1.45596 0
M  V30 12032 C 1133.02 -4.42112 -0.324304 0
M  V30 12033 H 1130.24 -0.662665 0.10543 0
M  V30 12034 H 1132.78 -1.81788 0.936671 0
M  V30 12035 H 1130.94 -3.8412 -0.503056 0
M  V30 12036 H 1131.35 -5.0717 1.33712 0
M  V30 12037 H 1132.83 -5.51097 -0.315694 0
M  V30 12038 H 1133.3 -4.1756 -1.36164 0
M  V30 12039 H 1133.91 -4.24174 0.309251 0
M  V30 12040 N 1132.22 -0.430739 -1.51599 0
M  V30 12041 C 1133.19 0.372319 -2.26156 0
M  V30 12042 C 1134.19 0.955338 -1.29344 0
M  V30 12043 O 1135.38 0.830823 -1.53111 0
M  V30 12044 C 1132.51 1.52613 -3.04831 0
M  V30 12045 H 1133.7 -0.280996 -2.98581 0
M  V30 12046 H 1131.26 -0.183749 -1.55216 0
M  V30 12047 H 1131.99 2.21569 -2.36807 0
M  V30 12048 H 1131.78 1.11433 -3.75932 0
M  V30 12049 H 1133.27 2.09366 -3.61325 0
M  V30 12050 N 1133.7 1.56767 -0.161869 0
M  V30 12051 C 1134.95 1.96885 0.486215 0
M  V30 12052 C 1135.28 1.04745 1.6353 0
M  V30 12053 O 1134.56 0.0927156 1.94279 0
M  V30 12054 C 1134.84 3.46559 0.97822 0
M  V30 12055 C 1134.69 4.49477 -0.17039 0
M  V30 12056 C 1136.01 3.99093 1.85506 0
M  V30 12057 H 1133.13 0.715857 0.175265 0
M  V30 12058 H 1135.77 1.88399 -0.246098 0
M  V30 12059 H 1133.92 3.53921 1.60225 0
M  V30 12060 H 1135.59 4.54183 -0.807205 0
M  V30 12061 H 1133.84 4.25838 -0.827322 0
M  V30 12062 H 1134.51 5.51578 0.21583 0
M  V30 12063 H 1136.98 3.94303 1.32908 0
M  V30 12064 H 1135.86 5.04255 2.16837 0
M  V30 12065 H 1136.12 3.4234 2.79742 0
M  V30 12066 N 1135.18 -0.111886 1.57202 0
M  V30 12067 C 1136.14 -1.12101 1.99915 0
M  V30 12068 C 1137.14 -1.33906 0.890272 0
M  V30 12069 O 1138.33 -1.30303 1.15615 0
M  V30 12070 C 1135.47 -2.47392 2.34543 0
M  V30 12071 H 1136.66 -0.753736 2.90274 0
M  V30 12072 H 1134.21 -0.35641 1.52182 0
M  V30 12073 H 1134.95 -2.89026 1.47086 0
M  V30 12074 H 1134.73 -2.32917 3.15423 0
M  V30 12075 H 1136.22 -3.20004 2.68304 0
M  V30 12076 N 1136.66 -1.52894 -0.382264 0
M  V30 12077 C 1137.88 -1.72453 -1.15216 0
M  V30 12078 C 1138.31 -0.444925 -1.82762 0
M  V30 12079 O 1137.67 0.599825 -1.7109 0
M  V30 12080 C 1137.71 -2.87939 -2.17079 0
M  V30 12081 O 1136.82 -2.55383 -3.23811 0
M  V30 12082 H 1136.16 -0.57324 -0.335099 0
M  V30 12083 H 1138.69 -1.99713 -0.444495 0
M  V30 12084 H 1138.7 -3.13628 -2.60963 0
M  V30 12085 H 1137.37 -3.80765 -1.67305 0
M  V30 12086 H 1135.95 -2.40457 -2.85018 0
M  V30 12087 N 1138.14 0.641106 -1.43971 0
M  V30 12088 C 1139.07 1.76599 -1.44527 0
M  V30 12089 C 1140.05 1.59709 -0.305257 0
M  V30 12090 O 1141.23 1.81728 -0.50071 0
M  V30 12091 C 1138.36 3.14052 -1.26843 0
M  V30 12092 C 1137.41 3.49615 -2.44278 0
M  V30 12093 S 1138.24 3.4822 -4.06821 0
M  V30 12094 C 1139.39 4.8831 -3.91541 0
M  V30 12095 H 1139.63 1.75858 -2.3971 0
M  V30 12096 H 1137.16 0.814834 -1.31148 0
M  V30 12097 H 1139.12 3.93376 -1.17327 0
M  V30 12098 H 1137.78 3.12342 -0.331872 0
M  V30 12099 H 1136.97 4.49611 -2.2774 0
M  V30 12100 H 1136.57 2.77732 -2.50482 0
M  V30 12101 H 1138.87 5.77282 -3.54615 0
M  V30 12102 H 1139.81 5.099 -4.91333 0
M  V30 12103 H 1140.22 4.62414 -3.2378 0
M  V30 12104 N 1139.62 1.30703 0.880598 0
M  V30 12105 C 1140.84 1.22843 1.67106 0
M  V30 12106 C 1141.27 -0.204788 1.86982 0
M  V30 12107 O 1140.62 -1.14716 1.40392 0
M  V30 12108 C 1140.67 1.96685 3.02237 0
M  V30 12109 O 1139.78 1.29693 3.91476 0
M  V30 12110 H 1139.12 0.424661 0.51045 0
M  V30 12111 H 1141.65 1.72596 1.09871 0
M  V30 12112 H 1141.66 2.05874 3.52249 0
M  V30 12113 H 1140.33 3.00919 2.8709 0
M  V30 12114 H 1138.91 1.28886 3.49918 0
M  V30 12115 N 1141.09 -1.09351 1.1349 0
M  V30 12116 C 1142.34 -1.81185 0.89535 0
M  V30 12117 C 1142.66 -1.86173 -0.580048 0
M  V30 12118 O 1141.93 -1.34784 -1.42162 0
M  V30 12119 H 1140.51 -0.671011 0.328257 0
M  V30 12120 H 1143.17 -1.32255 1.43159 0
M  V30 12121 H 1142.27 -2.84339 1.28676 0
M  V30 12122 N 1142.57 -0.928524 -1.27343 0
M  V30 12123 C 1143.5 -0.445627 -2.29208 0
M  V30 12124 C 1144.48 0.494508 -1.62753 0
M  V30 12125 O 1145.67 0.399082 -1.90055 0
M  V30 12126 C 1142.8 0.301684 -3.45987 0
M  V30 12127 C 1141.75 -0.550695 -4.24442 0
M  V30 12128 C 1141.08 0.325833 -5.33706 0
M  V30 12129 C 1142.38 -1.81559 -4.89728 0
M  V30 12130 H 1144.07 -1.29696 -2.69851 0
M  V30 12131 H 1141.62 -0.625085 -1.29725 0
M  V30 12132 H 1143.57 0.650455 -4.1635 0
M  V30 12133 H 1142.29 1.18705 -3.04264 0
M  V30 12134 H 1140.95 -0.882185 -3.55827 0
M  V30 12135 H 1140.6 1.21018 -4.88225 0
M  V30 12136 H 1140.3 -0.240994 -5.87106 0
M  V30 12137 H 1141.83 0.670156 -6.06911 0
M  V30 12138 H 1143.24 -1.53483 -5.52373 0
M  V30 12139 H 1141.64 -2.32598 -5.53189 0
M  V30 12140 H 1142.71 -2.53461 -4.13383 0
M  V30 12141 N 1144.05 1.41491 -0.694123 0
M  V30 12142 C 1145.28 2.05579 -0.233466 0
M  V30 12143 C 1145.69 1.5223 1.11675 0
M  V30 12144 O 1145.05 0.669937 1.69759 0
M  V30 12145 C 1145.1 3.61047 -0.180967 0
M  V30 12146 O 1144.82 4.12421 -1.47785 0
M  V30 12147 C 1146.32 4.42278 0.300853 0
M  V30 12148 H 1143.54 0.662097 -0.108943 0
M  V30 12149 H 1146.09 1.81288 -0.946299 0
M  V30 12150 H 1144.24 3.84381 0.482678 0
M  V30 12151 H 1144.66 5.06454 -1.364 0
M  V30 12152 H 1146.13 5.51256 0.286464 0
M  V30 12153 H 1146.61 4.18276 1.33948 0
M  V30 12154 H 1147.21 4.24004 -0.331741 0
M  V30 12155 N 1145.53 0.438773 1.51369 0
M  V30 12156 C 1146.75 -0.128221 2.07003 0
M  V30 12157 C 1147.18 -1.3557 1.30393 0
M  V30 12158 O 1146.54 -1.7804 0.342283 0
M  V30 12159 C 1146.58 -0.42761 3.58056 0
M  V30 12160 O 1145.69 -1.51382 3.83611 0
M  V30 12161 H 1145.03 -0.00123679 0.663999 0
M  V30 12162 H 1147.56 0.62052 1.94963 0
M  V30 12163 H 1147.57 -0.677645 4.02333 0
M  V30 12164 H 1146.24 0.469535 4.13241 0
M  V30 12165 H 1144.82 -1.25363 3.51196 0
M  V30 12166 N 1147.01 -1.56678 0.170181 0
M  V30 12167 C 1147.94 -2.15083 -0.791961 0
M  V30 12168 C 1148.95 -1.10612 -1.19452 0
M  V30 12169 O 1150.14 -1.37803 -1.13457 0
M  V30 12170 C 1147.24 -2.67769 -2.07733 0
M  V30 12171 C 1146.41 -3.96885 -1.83851 0
M  V30 12172 C 1145.47 -4.34646 -2.96596 0
M  V30 12173 O 1144.5 -5.02543 -2.67281 0
M  V30 12174 N 1145.7 -3.96112 -4.24353 0
M  V30 12175 H 1148.46 -2.98268 -0.292658 0
M  V30 12176 H 1146.03 -1.61895 -0.0126383 0
M  V30 12177 H 1148.02 -2.90029 -2.8225 0
M  V30 12178 H 1146.59 -1.89179 -2.48858 0
M  V30 12179 H 1145.81 -3.83013 -0.932452 0
M  V30 12180 H 1147.1 -4.81213 -1.65261 0
M  V30 12181 H 1146.49 -3.41448 -4.51032 0
M  V30 12182 H 1145.05 -4.23375 -4.95577 0
M  V30 12183 N 1148.48 0.103547 -1.57259 0
M  V30 12184 C 1149.89 0.659006 -1.74683 0
M  V30 12185 C 1150.25 1.79542 -0.791142 0
M  V30 12186 O 1149.37 2.16376 0.0323585 0
M  V30 12187 C 1149.97 1.20222 -3.16752 0
M  V30 12188 C 1148.52 1.70382 -3.35629 0
M  V30 12189 C 1147.67 0.609886 -2.7051 0
M  V30 12190 H 1150.62 -0.122474 -1.58227 0
M  V30 12191 H 1150.64 2.07169 -3.19157 0
M  V30 12192 H 1150.16 0.374901 -3.86285 0
M  V30 12193 H 1148.26 2.55542 -2.71162 0
M  V30 12194 H 1148.37 1.80263 -4.43894 0
M  V30 12195 H 1146.73 1.04728 -2.32173 0
M  V30 12196 H 1147.52 -0.206713 -3.42677 0
M  V30 12197 N 1149.96 1.53094 0.37415 0
M  V30 12198 C 1151.19 1.73061 1.143 0
M  V30 12199 C 1151.61 0.454611 1.82524 0
M  V30 12200 O 1150.97 -0.590743 1.71406 0
M  V30 12201 C 1151.02 2.89086 2.15549 0
M  V30 12202 O 1150.12 2.57096 3.22452 0
M  V30 12203 H 1149.46 0.575009 0.332055 0
M  V30 12204 H 1151.99 1.99946 0.433897 0
M  V30 12205 H 1152 3.15007 2.59296 0
M  V30 12206 H 1150.68 3.81647 1.65283 0
M  V30 12207 H 1149.25 2.41965 2.83738 0
M  V30 12208 N 1151.44 -0.633461 1.44309 0
M  V30 12209 C 1152.4 -1.72743 1.50641 0
M  V30 12210 C 1153.4 -1.56031 0.388718 0
M  V30 12211 O 1154.59 -1.61568 0.651251 0
M  V30 12212 C 1151.72 -3.11804 1.37809 0
M  V30 12213 H 1152.92 -1.68503 2.48086 0
M  V30 12214 H 1150.47 -0.846912 1.31366 0
M  V30 12215 H 1151.21 -3.2164 0.414483 0
M  V30 12216 H 1150.99 -3.2534 2.18852 0
M  V30 12217 H 1152.48 -3.91538 1.45216 0
M  V30 12218 N 1152.92 -1.31168 -0.873655 0
M  V30 12219 C 1153.87 -1.18432 -2.00191 0
M  V30 12220 C 1154.86 -0.0934873 -1.69142 0
M  V30 12221 O 1156.07 -0.255126 -1.78183 0
M  V30 12222 H 1152.44 -0.366594 -0.656592 0
M  V30 12223 H 1154.41 -2.13896 -2.08065 0
M  V30 12224 C 1153.16 -0.904668 -3.35725 0
M  V30 12225 H 1152.48 -1.73617 -3.60135 0
M  V30 12226 H 1153.92 -0.855715 -4.15275 0
M  V30 12227 C 1152.38 0.392554 -3.34605 0
M  V30 12228 O 1152.91 1.41052 -3.76121 0
M  V30 12229 N 1151.12 0.40777 -2.87725 0
M  V30 12230 H 1150.67 -0.42112 -2.54134 0
M  V30 12231 H 1150.62 1.27564 -2.87358 0
M  V30 12232 N 1154.4 1.08748 -1.14068 0
M  V30 12233 C 1155.62 1.85353 -0.930532 0
M  V30 12234 C 1156.05 1.80892 0.515717 0
M  V30 12235 O 1155.4 1.19146 1.36652 0
M  V30 12236 C 1155.45 3.30962 -1.43167 0
M  V30 12237 O 1154.56 4.0769 -0.621468 0
M  V30 12238 H 1153.9 0.574485 -0.332962 0
M  V30 12239 H 1156.43 1.37282 -1.51707 0
M  V30 12240 H 1156.44 3.81807 -1.43832 0
M  V30 12241 H 1155.11 3.33524 -2.48464 0
M  V30 12242 H 1153.69 3.66587 -0.683267 0
M  V30 12243 N 1155.87 0.935264 1.26849 0
M  V30 12244 C 1156.8 0.457776 2.28969 0
M  V30 12245 C 1157.79 -0.48587 1.63013 0
M  V30 12246 O 1158.97 -0.388998 1.90264 0
M  V30 12247 C 1156.1 -0.283332 3.46142 0
M  V30 12248 C 1155.05 0.573196 4.24144 0
M  V30 12249 C 1154.38 -0.297525 5.33872 0
M  V30 12250 C 1155.68 1.84153 4.88759 0
M  V30 12251 H 1157.37 1.31125 2.69159 0
M  V30 12252 H 1154.92 0.631956 1.29392 0
M  V30 12253 H 1156.87 -0.628366 4.16689 0
M  V30 12254 H 1155.6 -1.1709 3.04889 0
M  V30 12255 H 1154.26 0.901043 3.55354 0
M  V30 12256 H 1153.9 -1.18427 4.8886 0
M  V30 12257 H 1153.6 0.272126 5.8697 0
M  V30 12258 H 1155.13 -0.637961 6.07258 0
M  V30 12259 H 1156.54 1.5641 5.51551 0
M  V30 12260 H 1154.94 2.35528 5.51948 0
M  V30 12261 H 1156.01 2.5565 4.12033 0
M  V30 12262 N 1157.35 -1.41121 0.701616 0
M  V30 12263 C 1158.58 -2.05154 0.244011 0
M  V30 12264 C 1158.99 -1.52922 -1.11407 0
M  V30 12265 O 1158.33 -0.67486 -1.70855 0
M  V30 12266 C 1158.4 -3.59262 0.130773 0
M  V30 12267 C 1158.06 -4.34318 1.42187 0
M  V30 12268 C 1159.06 -4.632 2.36097 0
M  V30 12269 C 1156.74 -4.73481 1.67693 0
M  V30 12270 C 1158.74 -5.30214 3.53768 0
M  V30 12271 C 1156.42 -5.4023 2.85648 0
M  V30 12272 C 1157.42 -5.68524 3.78509 0
M  V30 12273 O 1157.11 -6.33898 4.94397 0
M  V30 12274 H 1156.84 -0.666997 0.109957 0
M  V30 12275 H 1159.39 -1.81771 0.956473 0
M  V30 12276 H 1157.62 -3.81409 -0.637512 0
M  V30 12277 H 1159.31 -4.0486 -0.29044 0
M  V30 12278 H 1160.08 -4.3342 2.17652 0
M  V30 12279 H 1155.96 -4.50835 0.962733 0
M  V30 12280 H 1159.5 -5.52215 4.26267 0
M  V30 12281 H 1155.4 -5.69429 3.04008 0
M  V30 12282 H 1156.17 -6.52394 4.94292 0
M  V30 12283 N 1158.83 -0.446794 -1.51134 0
M  V30 12284 C 1160.06 0.114727 -2.06281 0
M  V30 12285 C 1160.47 1.36192 -1.31333 0
M  V30 12286 O 1159.81 1.79956 -0.368982 0
M  V30 12287 C 1159.87 0.492968 -3.56104 0
M  V30 12288 C 1159.54 -0.648755 -4.52372 0
M  V30 12289 C 1160.53 -1.52369 -4.97071 0
M  V30 12290 C 1158.22 -0.832177 -4.95359 0
M  V30 12291 C 1160.21 -2.56667 -5.83439 0
M  V30 12292 C 1157.9 -1.87841 -5.81514 0
M  V30 12293 C 1158.9 -2.74404 -6.25453 0
M  V30 12294 O 1158.59 -3.7723 -7.09896 0
M  V30 12295 H 1158.32 0.007138 -0.675962 0
M  V30 12296 H 1160.87 -0.627452 -1.95582 0
M  V30 12297 H 1159.1 1.28799 -3.6462 0
M  V30 12298 H 1160.79 0.986739 -3.93724 0
M  V30 12299 H 1161.56 -1.39356 -4.64548 0
M  V30 12300 H 1157.44 -0.167954 -4.60694 0
M  V30 12301 H 1160.98 -3.24264 -6.17656 0
M  V30 12302 H 1156.88 -2.00871 -6.1345 0
M  V30 12303 H 1157.65 -3.73924 -7.28095 0
M  V30 12304 N 1160.31 1.56586 -0.178487 0
M  V30 12305 C 1161.27 2.17091 0.73512 0
M  V30 12306 C 1162.27 1.12088 1.15295 0
M  V30 12307 O 1163.46 1.37563 1.06874 0
M  V30 12308 C 1160.59 2.75957 2.00151 0
M  V30 12309 H 1161.79 2.99176 0.208272 0
M  V30 12310 H 1159.34 1.56138 0.0710967 0
M  V30 12311 H 1160.07 1.97626 2.57127 0
M  V30 12312 H 1159.86 3.52809 1.7108 0
M  V30 12313 H 1161.35 3.2247 2.65335 0
M  V30 12314 N 1161.79 -0.095206 1.57312 0
M  V30 12315 C 1162.72 -1.11627 2.05089 0
M  V30 12316 C 1163.7 -1.41782 0.939787 0
M  V30 12317 O 1164.88 -1.51813 1.21105 0
M  V30 12318 C 1162.01 -2.43618 2.47523 0
M  V30 12319 C 1160.97 -2.27872 3.62296 0
M  V30 12320 C 1160.29 -3.65038 3.90706 0
M  V30 12321 C 1161.59 -1.71936 4.93189 0
M  V30 12322 H 1163.29 -0.718795 2.90644 0
M  V30 12323 H 1160.83 -0.344315 1.39823 0
M  V30 12324 H 1162.79 -3.1532 2.79556 0
M  V30 12325 H 1161.51 -2.85301 1.58968 0
M  V30 12326 H 1160.17 -1.58615 3.3051 0
M  V30 12327 H 1159.82 -4.04249 2.99319 0
M  V30 12328 H 1159.52 -3.55349 4.67976 0
M  V30 12329 H 1161.04 -4.38208 4.25213 0
M  V30 12330 H 1162.45 -2.33479 5.23603 0
M  V30 12331 H 1160.85 -1.73006 5.74621 0
M  V30 12332 H 1161.92 -0.678789 4.80125 0
M  V30 12333 N 1163.26 -1.53291 -0.366026 0
M  V30 12334 C 1164.21 -1.80367 -1.4687 0
M  V30 12335 C 1165.21 -0.672767 -1.55468 0
M  V30 12336 O 1166.41 -0.8557 -1.5836 0
M  V30 12337 H 1162.79 -0.571076 -0.48926 0
M  V30 12338 H 1164.76 -2.72661 -1.21237 0
M  V30 12339 C 1163.51 -2.01008 -2.8371 0
M  V30 12340 H 1162.83 -2.87468 -2.77853 0
M  V30 12341 H 1164.27 -2.2393 -3.60043 0
M  V30 12342 C 1162.73 -0.789054 -3.27529 0
M  V30 12343 O 1163.26 0.0224712 -4.01694 0
M  V30 12344 N 1161.47 -0.612621 -2.84069 0
M  V30 12345 H 1161.01 -1.27416 -2.23881 0
M  V30 12346 H 1160.97 0.202943 -3.13744 0
M  V30 12347 N 1164.74 0.6258 -1.44643 0
M  V30 12348 C 1165.99 1.38251 -1.47414 0
M  V30 12349 C 1166.31 1.94689 -0.110043 0
M  V30 12350 O 1165.58 1.76095 0.858333 0
M  V30 12351 H 1164.16 0.513179 -0.542823 0
M  V30 12352 H 1166.82 0.736179 -1.80462 0
M  V30 12353 H 1165.92 2.21115 -2.2026 0
M  V30 12354 N 1166.22 1.31629 0.866686 0
M  V30 12355 C 1167.47 1.21503 1.61998 0
M  V30 12356 C 1167.8 -0.226044 1.93182 0
M  V30 12357 O 1167.05 -1.17573 1.56445 0
M  V30 12358 C 1167.35 2.00775 2.95676 0
M  V30 12359 C 1167.02 3.50245 2.83971 0
M  V30 12360 C 1165.68 3.91 2.80485 0
M  V30 12361 C 1168.03 4.45347 2.70769 0
M  V30 12362 C 1165.36 5.25119 2.61661 0
M  V30 12363 C 1167.71 5.79595 2.53481 0
M  V30 12364 C 1166.37 6.19567 2.48381 0
M  V30 12365 H 1165.64 0.44461 0.592792 0
M  V30 12366 H 1168.29 1.62929 1.00629 0
M  V30 12367 H 1166.6 1.52039 3.61097 0
M  V30 12368 H 1168.29 1.90318 3.52959 0
M  V30 12369 H 1164.88 3.17869 2.87502 0
M  V30 12370 H 1169.07 4.14789 2.72514 0
M  V30 12371 H 1164.32 5.5516 2.5614 0
M  V30 12372 H 1168.5 6.5291 2.42243 0
M  V30 12373 H 1166.12 7.23434 2.33554 0
M  V30 12374 N 1167.7 -1.08142 1.14644 0
M  V30 12375 C 1169.11 -1.62061 0.926986 0
M  V30 12376 C 1169.46 -1.88805 -0.533578 0
M  V30 12377 O 1168.59 -1.64753 -1.40305 0
M  V30 12378 C 1169.18 -2.94425 1.67629 0
M  V30 12379 C 1167.74 -3.45118 1.50235 0
M  V30 12380 C 1166.89 -2.19307 1.69705 0
M  V30 12381 H 1169.84 -0.913326 1.29785 0
M  V30 12382 H 1169.86 -3.62987 1.14107 0
M  V30 12383 H 1169.37 -2.74928 2.73927 0
M  V30 12384 H 1167.47 -3.69713 0.462967 0
M  V30 12385 H 1167.59 -4.2169 2.27408 0
M  V30 12386 H 1165.95 -2.28611 1.12291 0
M  V30 12387 H 1166.73 -2.02315 2.77351 0
M  V30 12388 N 1169.18 -0.941978 -1.26351 0
M  V30 12389 C 1170.59 -0.644413 -1.46012 0
M  V30 12390 C 1170.79 0.802031 -1.84851 0
M  V30 12391 O 1169.85 1.57859 -1.9707 0
M  V30 12392 C 1171.16 -1.60652 -2.54188 0
M  V30 12393 C 1172.71 -1.6163 -2.68038 0
M  V30 12394 C 1173.19 -2.56573 -3.79387 0
M  V30 12395 N 1174.68 -2.54863 -3.8678 0
M  V30 12396 C 1175.41 -3.2501 -4.72394 0
M  V30 12397 N 1174.91 -4.04586 -5.6239 0
M  V30 12398 N 1176.7 -3.13958 -4.66247 0
M  V30 12399 H 1168.85 -1.8769 -0.994293 0
M  V30 12400 H 1171.11 -0.806621 -0.498063 0
M  V30 12401 H 1170.82 -2.63907 -2.32478 0
M  V30 12402 H 1170.69 -1.3592 -3.5186 0
M  V30 12403 H 1173.08 -0.59099 -2.89122 0
M  V30 12404 H 1173.16 -1.90417 -1.70807 0
M  V30 12405 H 1172.81 -3.59223 -3.59056 0
M  V30 12406 H 1172.74 -2.25077 -4.76076 0
M  V30 12407 H 1175.23 -1.97082 -3.22439 0
M  V30 12408 H 1175.54 -4.55061 -6.24612 0
M  V30 12409 H 1173.89 -4.08687 -5.62139 0
M  V30 12410 H 1177.08 -2.51273 -3.94943 0
M  V30 12411 H 1177.25 -3.68894 -5.32749 0
M  V30 12412 N 1170.66 1.40747 -0.709091 0
M  V30 12413 C 1171.61 2.27982 -0.0289269 0
M  V30 12414 C 1172.59 1.42917 0.739164 0
M  V30 12415 O 1173.78 1.66067 0.612433 0
M  V30 12416 C 1170.91 3.31378 0.896856 0
M  V30 12417 C 1170 4.23918 0.124296 0
M  V30 12418 N 1170.39 4.97925 -0.889043 0
M  V30 12419 C 1168.69 4.44562 0.357808 0
M  V30 12420 C 1169.39 5.65754 -1.35268 0
M  V30 12421 N 1168.36 5.3938 -0.676047 0
M  V30 12422 H 1172.16 2.82641 -0.805676 0
M  V30 12423 H 1169.68 1.5312 -0.541105 0
M  V30 12424 H 1171.68 3.92712 1.39939 0
M  V30 12425 H 1170.34 2.78279 1.67305 0
M  V30 12426 H 1171.35 5.02095 -1.2697 0
M  V30 12427 H 1168.02 4.02451 1.11084 0
M  V30 12428 H 1169.41 6.35058 -2.19432 0
M  V30 12429 N 1172.13 0.454803 1.50895 0
M  V30 12430 C 1173.06 -0.337982 2.31041 0
M  V30 12431 C 1174.04 -1.00523 1.37219 0
M  V30 12432 O 1175.23 -1.00553 1.66141 0
M  V30 12433 C 1172.36 -1.42964 3.1651 0
M  V30 12434 C 1171.31 -0.884907 4.18752 0
M  V30 12435 C 1170.64 -2.07363 4.92854 0
M  V30 12436 C 1171.94 0.0926716 5.22218 0
M  V30 12437 H 1173.63 0.33089 2.97566 0
M  V30 12438 H 1171.18 0.160577 1.43102 0
M  V30 12439 H 1173.13 -1.9916 3.71367 0
M  V30 12440 H 1171.86 -2.12705 2.47839 0
M  V30 12441 H 1170.52 -0.345031 3.64973 0
M  V30 12442 H 1170.16 -2.75764 4.2067 0
M  V30 12443 H 1169.86 -1.71545 5.62002 0
M  V30 12444 H 1171.39 -2.6408 5.5054 0
M  V30 12445 H 1172.8 -0.379568 5.72042 0
M  V30 12446 H 1171.2 0.3643 5.98993 0
M  V30 12447 H 1172.27 1.02383 4.73968 0
M  V30 12448 N 1173.61 -1.56489 0.186789 0
M  V30 12449 C 1175.03 -1.58701 -0.169176 0
M  V30 12450 C 1175.23 -1.2027 -1.61671 0
M  V30 12451 O 1174.28 -0.92154 -2.35083 0
M  V30 12452 C 1175.6 -3.00437 0.125657 0
M  V30 12453 C 1177.14 -3.12932 0.0651 0
M  V30 12454 C 1177.62 -4.56787 0.333131 0
M  V30 12455 N 1179.11 -4.62344 0.281453 0
M  V30 12456 C 1179.85 -5.71529 0.462805 0
M  V30 12457 N 1179.34 -6.89213 0.704054 0
M  V30 12458 N 1181.13 -5.60692 0.397636 0
M  V30 12459 H 1173.29 -1.79754 1.13148 0
M  V30 12460 H 1175.55 -0.83385 0.450997 0
M  V30 12461 H 1175.25 -3.33086 1.12901 0
M  V30 12462 H 1175.13 -3.72782 -0.575612 0
M  V30 12463 H 1177.52 -2.80101 -0.928845 0
M  V30 12464 H 1177.6 -2.42991 0.799318 0
M  V30 12465 H 1177.24 -4.9033 1.32436 0
M  V30 12466 H 1177.17 -5.24907 -0.421879 0
M  V30 12467 H 1179.66 -3.77764 0.101266 0
M  V30 12468 H 1179.97 -7.68314 0.831468 0
M  V30 12469 H 1178.32 -6.9104 0.740851 0
M  V30 12470 H 1181.51 -4.6763 0.20964 0
M  V30 12471 H 1181.68 -6.45726 0.54239 0
M  V30 12472 N 1175.09 0.086862 -1.5736 0
M  V30 12473 C 1176.32 0.802167 -1.90717 0
M  V30 12474 C 1176.73 1.71875 -0.781304 0
M  V30 12475 O 1176.09 1.80831 0.246255 0
M  V30 12476 C 1176.14 1.60858 -3.23739 0
M  V30 12477 O 1175.86 0.728851 -4.31995 0
M  V30 12478 C 1177.36 2.42621 -3.71012 0
M  V30 12479 H 1174.58 0.228914 -0.630745 0
M  V30 12480 H 1177.13 0.061634 -2.04407 0
M  V30 12481 H 1175.28 2.30153 -3.11622 0
M  V30 12482 H 1175.7 1.2882 -5.08435 0
M  V30 12483 H 1177.17 2.94683 -4.66761 0
M  V30 12484 H 1177.65 3.21462 -2.99264 0
M  V30 12485 H 1178.25 1.78509 -3.86024 0
M  V30 12486 N 1176.57 1.53483 0.357892 0
M  V30 12487 C 1177.84 1.60649 1.11585 0
M  V30 12488 C 1178.22 0.418789 2.06904 0
M  V30 12489 O 1177.57 -0.590279 2.20744 0
M  V30 12490 C 1177.78 2.96046 1.84818 0
M  V30 12491 C 1179.13 3.50895 2.39076 0
M  V30 12492 O 1180.15 2.98126 1.94934 0
M  V30 12493 O 1179.01 4.43163 3.19794 0
M  V30 12494 H 1176.11 0.649202 0.512315 0
M  V30 12495 H 1178.65 1.65826 0.360537 0
M  V30 12496 H 1177.43 3.73929 1.15296 0
M  V30 12497 H 1177.05 2.94395 2.6724 0
M  V30 12498 N 1178.05 -0.61812 1.44973 0
M  V30 12499 C 1179.29 -1.37343 1.47715 0
M  V30 12500 C 1179.61 -1.95239 0.118784 0
M  V30 12501 O 1180.81 -2.7149 0.0237981 0
M  V30 12502 C 1179.27 -2.48732 2.60116 0
M  V30 12503 C 1178.88 -1.97294 4.02218 0
M  V30 12504 C 1180.62 -3.25831 2.72093 0
M  V30 12505 C 1178.53 -3.06102 5.06019 0
M  V30 12506 H 1177.46 -0.516175 0.549617 0
M  V30 12507 H 1180.11 -0.663617 1.7108 0
M  V30 12508 H 1178.49 -3.2235 2.30014 0
M  V30 12509 H 1179.67 -1.30455 4.41948 0
M  V30 12510 H 1177.98 -1.32972 3.94598 0
M  V30 12511 H 1180.58 -4.06968 3.46815 0
M  V30 12512 H 1180.92 -3.76156 1.7836 0
M  V30 12513 H 1181.45 -2.59309 3.01668 0
M  V30 12514 H 1178.19 -2.60706 6.01426 0
M  V30 12515 H 1177.71 -3.71541 4.70869 0
M  V30 12516 H 1179.39 -3.70662 5.30301 0
M  V30 12517 N 1179.52 -1.32087 -0.859693 0
M  V30 12518 C 1180.43 -1.22587 -2.00024 0
M  V30 12519 C 1181.45 -0.140477 -1.73432 0
M  V30 12520 O 1182.63 -0.360213 -1.98153 0
M  V30 12521 C 1179.69 -0.944195 -3.33595 0
M  V30 12522 C 1178.75 -2.11752 -3.73443 0
M  V30 12523 C 1177.98 -1.84919 -5.0064 0
M  V30 12524 O 1178.21 -0.789299 -5.64913 0
M  V30 12525 O 1177.14 -2.70885 -5.37499 0
M  V30 12526 H 1180.97 -2.18457 -2.10974 0
M  V30 12527 H 1178.55 -1.11927 -0.989577 0
M  V30 12528 H 1180.43 -0.803389 -4.13671 0
M  V30 12529 H 1179.11 -0.0156083 -3.23696 0
M  V30 12530 H 1178.02 -2.31378 -2.93965 0
M  V30 12531 H 1179.35 -3.02872 -3.87981 0
M  V30 12532 N 1181 1.07532 -1.15215 0
M  V30 12533 C 1182.25 1.79737 -0.924062 0
M  V30 12534 C 1182.57 1.87072 0.550356 0
M  V30 12535 O 1181.84 1.37029 1.4 0
M  V30 12536 H 1180.42 0.665704 -0.338891 0
M  V30 12537 H 1183.08 1.29961 -1.45245 0
M  V30 12538 H 1182.18 2.82256 -1.33184 0
M  V30 12539 N 1182.48 0.948665 1.2585 0
M  V30 12540 C 1183.41 0.408398 2.24516 0
M  V30 12541 C 1184.39 -0.506954 1.54495 0
M  V30 12542 O 1185.58 -0.442695 1.83228 0
M  V30 12543 C 1182.7 -0.41241 3.3618 0
M  V30 12544 C 1181.75 0.442483 4.24198 0
M  V30 12545 S 1182.58 1.87106 5.01749 0
M  V30 12546 C 1183.74 1.05851 6.16884 0
M  V30 12547 H 1183.97 1.24458 2.69995 0
M  V30 12548 H 1181.5 0.752309 1.34832 0
M  V30 12549 H 1183.46 -0.880064 4.00955 0
M  V30 12550 H 1182.12 -1.22335 2.89297 0
M  V30 12551 H 1181.32 -0.186767 5.03654 0
M  V30 12552 H 1180.92 0.845113 3.64327 0
M  V30 12553 H 1183.21 0.304329 6.76816 0
M  V30 12554 H 1184.15 1.82678 6.8413 0
M  V30 12555 H 1184.56 0.591269 5.61395 0
M  V30 12556 N 1183.96 -1.40369 0.716545 0
M  V30 12557 C 1184.87 -2.34508 0.065658 0
M  V30 12558 C 1185.88 -1.57352 -0.742723 0
M  V30 12559 O 1187.06 -1.89735 -0.675456 0
M  V30 12560 C 1184.13 -3.36262 -0.844337 0
M  V30 12561 C 1183.19 -4.29292 -0.0257971 0
M  V30 12562 C 1182.42 -5.26185 -0.892452 0
M  V30 12563 O 1182.64 -5.29071 -2.13166 0
M  V30 12564 O 1181.58 -6.0099 -0.330933 0
M  V30 12565 H 1185.4 -2.91789 0.842184 0
M  V30 12566 H 1182.99 -1.41579 0.477034 0
M  V30 12567 H 1184.87 -3.98661 -1.36555 0
M  V30 12568 H 1183.54 -2.81393 -1.59999 0
M  V30 12569 H 1182.45 -3.70175 0.540512 0
M  V30 12570 H 1183.78 -4.87316 0.69166 0
M  V30 12571 N 1185.44 -0.462799 -1.50652 0
M  V30 12572 C 1186.66 0.0952726 -2.07181 0
M  V30 12573 C 1187.09 1.33479 -1.32533 0
M  V30 12574 O 1186.44 1.77473 -0.370564 0
M  V30 12575 C 1186.49 0.370592 -3.58691 0
M  V30 12576 O 1185.6 1.4526 -3.85971 0
M  V30 12577 H 1184.94 -0.00932702 -0.663934 0
M  V30 12578 H 1187.47 -0.651458 -1.93951 0
M  V30 12579 H 1187.48 0.613551 -4.0336 0
M  V30 12580 H 1186.15 -0.535219 -4.12442 0
M  V30 12581 H 1184.73 1.1976 -3.53146 0
M  V30 12582 N 1186.91 1.56388 -0.195085 0
M  V30 12583 C 1187.84 2.22091 0.720971 0
M  V30 12584 C 1188.83 1.184 1.22128 0
M  V30 12585 O 1190.01 1.46907 1.27012 0
M  V30 12586 C 1187.14 2.88025 1.94059 0
M  V30 12587 C 1186.09 3.97959 1.5752 0
M  V30 12588 C 1185.42 4.51058 2.87143 0
M  V30 12589 C 1186.72 5.16365 0.785145 0
M  V30 12590 H 1188.41 2.98898 0.173245 0
M  V30 12591 H 1185.96 1.43767 0.0818868 0
M  V30 12592 H 1187.91 3.32671 2.58666 0
M  V30 12593 H 1186.64 2.08623 2.51285 0
M  V30 12594 H 1185.3 3.54004 0.952715 0
M  V30 12595 H 1184.94 3.68418 3.42458 0
M  V30 12596 H 1184.64 5.25237 2.63439 0
M  V30 12597 H 1186.17 4.98406 3.52738 0
M  V30 12598 H 1187.58 5.57556 1.33431 0
M  V30 12599 H 1185.98 5.9661 0.646231 0
M  V30 12600 H 1187.05 4.84428 -0.213789 0
M  V30 12601 N 1188.39 -0.0785156 1.57404 0
M  V30 12602 C 1189.62 -0.795871 1.91522 0
M  V30 12603 C 1190.04 -1.70665 0.790892 0
M  V30 12604 O 1189.4 -1.79474 -0.25666 0
M  V30 12605 C 1189.45 -1.57121 3.24569 0
M  V30 12606 O 1188.55 -2.6814 3.13328 0
M  V30 12607 H 1187.89 -0.217575 0.627341 0
M  V30 12608 H 1190.42 -0.0487724 2.04542 0
M  V30 12609 H 1190.43 -1.9519 3.5828 0
M  V30 12610 H 1189.11 -0.902909 4.05981 0
M  V30 12611 H 1187.69 -2.32978 2.91163 0
M  V30 12612 N 1189.87 -1.5367 -0.349747 0
M  V30 12613 C 1190.82 -1.77604 -1.42972 0
M  V30 12614 C 1191.8 -0.631036 -1.48009 0
M  V30 12615 O 1193 -0.890228 -1.52983 0
M  V30 12616 C 1190.13 -1.98354 -2.80198 0
M  V30 12617 C 1189.21 -3.18901 -2.79576 0
M  V30 12618 N 1189.6 -4.40497 -2.48589 0
M  V30 12619 C 1187.9 -3.19945 -3.10727 0
M  V30 12620 C 1188.6 -5.22318 -2.56045 0
M  V30 12621 N 1187.58 -4.5889 -2.91412 0
M  V30 12622 H 1191.38 -2.69215 -1.17901 0
M  V30 12623 H 1188.89 -1.5251 -0.558062 0
M  V30 12624 H 1190.89 -2.13632 -3.58004 0
M  V30 12625 H 1189.55 -1.07981 -3.06219 0
M  V30 12626 H 1190.56 -4.67955 -2.21898 0
M  V30 12627 H 1187.24 -2.39519 -3.41961 0
M  V30 12628 H 1188.63 -6.29352 -2.35299 0
M  V30 12629 N 1191.35 0.610423 -1.45298 0
M  V30 12630 C 1192.58 1.39419 -1.52466 0
M  V30 12631 C 1192.99 1.88563 -0.1551 0
M  V30 12632 O 1192.33 1.62692 0.853061 0
M  V30 12633 C 1192.39 2.63515 -2.44541 0
M  V30 12634 C 1192.06 2.36028 -3.91331 0
M  V30 12635 C 1193.05 1.96567 -4.81308 0
M  V30 12636 C 1190.74 2.49028 -4.36223 0
M  V30 12637 C 1192.73 1.70461 -6.14184 0
M  V30 12638 C 1190.42 2.22536 -5.6914 0
M  V30 12639 C 1191.42 1.83314 -6.5794 0
M  V30 12640 O 1191.1 1.57131 -7.88394 0
M  V30 12641 H 1190.84 0.433278 -0.518889 0
M  V30 12642 H 1193.39 0.751803 -1.91147 0
M  V30 12643 H 1191.62 3.30463 -2.00826 0
M  V30 12644 H 1193.31 3.25554 -2.42424 0
M  V30 12645 H 1194.08 1.86062 -4.4789 0
M  V30 12646 H 1189.95 2.78524 -3.67349 0
M  V30 12647 H 1193.5 1.39773 -6.83454 0
M  V30 12648 H 1189.4 2.32657 -6.02114 0
M  V30 12649 H 1190.16 1.71207 -8.00394 0
M  V30 12650 N 1192.83 1.32541 0.852676 0
M  V30 12651 C 1194.07 1.24406 1.60918 0
M  V30 12652 C 1194.43 -0.19184 1.91441 0
M  V30 12653 O 1193.72 -1.13016 1.54719 0
M  V30 12654 C 1193.91 2.039 2.9353 0
M  V30 12655 C 1193.74 3.55074 2.75957 0
M  V30 12656 C 1192.51 4.24409 2.74236 0
M  V30 12657 C 1194.71 4.49686 2.49574 0
M  V30 12658 N 1192.69 5.61624 2.47895 0
M  V30 12659 C 1194.06 5.74692 2.32658 0
M  V30 12660 C 1196.12 4.38921 2.35058 0
M  V30 12661 C 1194.82 6.90149 2.027 0
M  V30 12662 C 1196.85 5.5418 2.06491 0
M  V30 12663 C 1196.21 6.78186 1.90377 0
M  V30 12664 H 1192.31 0.510401 0.592465 0
M  V30 12665 H 1194.89 1.66929 1.00214 0
M  V30 12666 H 1193.06 1.6372 3.52208 0
M  V30 12667 H 1194.8 1.87644 3.58569 0
M  V30 12668 H 1191.55 3.76546 2.87246 0
M  V30 12669 H 1191.98 6.33918 2.37648 0
M  V30 12670 H 1196.62 3.43697 2.46236 0
M  V30 12671 H 1194.34 7.85383 1.90259 0
M  V30 12672 H 1197.92 5.47779 1.96035 0
M  V30 12673 H 1196.8 7.65864 1.68587 0
M  V30 12674 N 1194.3 -1.0692 1.15784 0
M  V30 12675 C 1195.53 -1.83849 0.959903 0
M  V30 12676 C 1195.95 -1.8169 -0.486873 0
M  V30 12677 O 1195.31 -1.21305 -1.34739 0
M  V30 12678 C 1195.36 -3.28642 1.48414 0
M  V30 12679 O 1194.46 -4.0665 0.686249 0
M  V30 12680 H 1193.81 -0.569115 0.342059 0
M  V30 12681 H 1196.34 -1.34851 1.53871 0
M  V30 12682 H 1196.35 -3.7947 1.49888 0
M  V30 12683 H 1195.02 -3.29529 2.53739 0
M  V30 12684 H 1193.6 -3.65453 0.741501 0
M  V30 12685 N 1195.78 -0.955326 -1.25345 0
M  V30 12686 C 1197.01 -0.627693 -1.97149 0
M  V30 12687 C 1197.43 0.800349 -1.70997 0
M  V30 12688 O 1196.78 1.53545 -0.986417 0
M  V30 12689 C 1196.83 -0.877675 -3.50684 0
M  V30 12690 O 1196.55 -2.24957 -3.75934 0
M  V30 12691 C 1198.06 -0.562524 -4.39716 0
M  V30 12692 H 1195.28 -0.235269 -0.628402 0
M  V30 12693 H 1197.82 -1.27989 -1.59496 0
M  V30 12694 H 1195.97 -0.271878 -3.86445 0
M  V30 12695 H 1196.39 -2.32022 -4.70389 0
M  V30 12696 H 1197.86 -0.787972 -5.46347 0
M  V30 12697 H 1198.34 0.50293 -4.36311 0
M  V30 12698 H 1198.95 -1.14767 -4.09522 0
M  V30 12699 N 1197.26 1.39987 -0.723979 0
M  V30 12700 C 1198.51 2.01028 -0.267511 0
M  V30 12701 C 1198.84 1.57295 1.13894 0
M  V30 12702 O 1198.12 0.796805 1.7743 0
M  V30 12703 C 1198.4 3.58326 -0.356971 0
M  V30 12704 C 1198.25 4.12109 -1.8024 0
M  V30 12705 C 1199.57 4.39289 0.267003 0
M  V30 12706 H 1196.69 0.730364 -0.0986775 0
M  V30 12707 H 1199.33 1.66348 -0.91806 0
M  V30 12708 H 1197.48 3.88001 0.196908 0
M  V30 12709 H 1199.15 3.93199 -2.41231 0
M  V30 12710 H 1197.4 3.66082 -2.32737 0
M  V30 12711 H 1198.07 5.21261 -1.81634 0
M  V30 12712 H 1200.54 4.15595 -0.20503 0
M  V30 12713 H 1199.42 5.48624 0.174004 0
M  V30 12714 H 1199.68 4.20931 1.35164 0
M  V30 12715 N 1198.74 0.470782 1.50404 0
M  V30 12716 C 1200.16 0.124919 1.5911 0
M  V30 12717 C 1200.36 -1.36855 1.47895 0
M  V30 12718 O 1199.41 -2.1418 1.33728 0
M  V30 12719 C 1200.72 0.674839 2.9303 0
M  V30 12720 C 1202.27 0.638239 3.06424 0
M  V30 12721 C 1202.75 1.1657 4.42917 0
M  V30 12722 N 1204.24 1.1251 4.49328 0
M  V30 12723 C 1204.97 1.50373 5.53331 0
M  V30 12724 N 1204.47 1.95684 6.6459 0
M  V30 12725 N 1206.26 1.41978 5.43874 0
M  V30 12726 H 1198.41 1.44212 1.55938 0
M  V30 12727 H 1200.68 0.596354 0.73693 0
M  V30 12728 H 1200.38 1.72106 3.06712 0
M  V30 12729 H 1200.26 0.118234 3.77015 0
M  V30 12730 H 1202.64 -0.399075 2.92389 0
M  V30 12731 H 1202.72 1.23164 2.24197 0
M  V30 12732 H 1202.37 2.20164 4.57701 0
M  V30 12733 H 1202.3 0.548513 5.23736 0
M  V30 12734 H 1204.79 0.79276 3.69491 0
M  V30 12735 H 1205.1 2.22724 7.40009 0
M  V30 12736 H 1203.45 1.99636 6.65711 0
M  V30 12737 H 1206.64 1.0642 4.55842 0
M  V30 12738 H 1206.81 1.71812 6.24808 0
M  V30 12739 N 1200.22 -1.56282 0.203376 0
M  V30 12740 C 1201.45 -2.02198 -0.438572 0
M  V30 12741 C 1201.86 -1.08343 -1.54619 0
M  V30 12742 O 1201.22 -0.0897594 -1.82279 0
M  V30 12743 C 1201.27 -3.4776 -0.987184 0
M  V30 12744 O 1200.99 -4.38034 0.0762552 0
M  V30 12745 C 1202.49 -4.09234 -1.70419 0
M  V30 12746 H 1199.71 -0.662041 -0.109282 0
M  V30 12747 H 1202.25 -2.02067 0.314509 0
M  V30 12748 H 1200.41 -3.48564 -1.69061 0
M  V30 12749 H 1200.82 -5.2344 -0.333322 0
M  V30 12750 H 1202.3 -5.1291 -2.04027 0
M  V30 12751 H 1202.77 -3.53172 -2.61087 0
M  V30 12752 H 1203.38 -4.12226 -1.04641 0
M  V30 12753 N 1201.7 0.070167 -1.57444 0
M  V30 12754 C 1202.93 0.78076 -1.91279 0
M  V30 12755 C 1203.33 1.71559 -0.797754 0
M  V30 12756 O 1202.68 1.82156 0.237665 0
M  V30 12757 C 1202.74 1.62664 -3.20594 0
M  V30 12758 C 1202.4 0.861007 -4.48816 0
M  V30 12759 C 1203.4 0.179522 -5.1959 0
M  V30 12760 C 1201.08 0.8277 -4.95434 0
M  V30 12761 C 1203.08 -0.525024 -6.35234 0
M  V30 12762 C 1200.77 0.119382 -6.10983 0
M  V30 12763 C 1201.76 -0.555778 -6.80735 0
M  V30 12764 O 1201.45 -1.25268 -7.9408 0
M  V30 12765 H 1201.18 0.227053 -0.636728 0
M  V30 12766 H 1203.74 0.0442334 -2.05352 0
M  V30 12767 H 1201.97 2.40601 -3.02734 0
M  V30 12768 H 1203.66 2.21606 -3.40067 0
M  V30 12769 H 1204.42 0.19655 -4.84602 0
M  V30 12770 H 1200.3 1.34268 -4.41014 0
M  V30 12771 H 1203.85 -1.05257 -6.89613 0
M  V30 12772 H 1199.74 0.100287 -6.45422 0
M  V30 12773 H 1200.51 -1.16212 -8.10208 0
M  V30 12774 N 1203.17 1.53854 0.341593 0
M  V30 12775 C 1204.4 1.7488 1.10002 0
M  V30 12776 C 1204.81 0.488802 1.82777 0
M  V30 12777 O 1204.15 -0.549333 1.75294 0
M  V30 12778 C 1204.22 2.87604 2.15694 0
M  V30 12779 C 1203.88 4.27142 1.62477 0
M  V30 12780 C 1204.88 5.08642 1.07606 0
M  V30 12781 C 1202.56 4.73633 1.67265 0
M  V30 12782 C 1204.56 6.34735 0.582284 0
M  V30 12783 C 1202.24 5.99697 1.175 0
M  V30 12784 C 1203.24 6.80081 0.630742 0
M  V30 12785 O 1202.93 8.03777 0.140519 0
M  V30 12786 H 1202.66 0.587824 0.333824 0
M  V30 12787 H 1205.22 2.01488 0.398965 0
M  V30 12788 H 1203.45 2.56526 2.89364 0
M  V30 12789 H 1205.13 2.96583 2.77117 0
M  V30 12790 H 1205.9 4.73887 1.03227 0
M  V30 12791 H 1201.78 4.11121 2.08567 0
M  V30 12792 H 1205.32 6.97424 0.156811 0
M  V30 12793 H 1201.22 6.33947 1.21579 0
M  V30 12794 H 1201.99 8.18094 0.257626 0
M  V30 12795 N 1204.65 -0.602709 1.4562 0
M  V30 12796 C 1205.88 -1.39299 1.53657 0
M  V30 12797 C 1206.3 -1.87315 0.171632 0
M  V30 12798 O 1205.66 -1.60423 -0.844639 0
M  V30 12799 C 1205.71 -2.57021 2.52928 0
M  V30 12800 O 1204.81 -3.57812 2.05047 0
M  V30 12801 H 1204.15 -0.41567 0.517798 0
M  V30 12802 H 1206.68 -0.73304 1.91018 0
M  V30 12803 H 1206.69 -3.04202 2.71892 0
M  V30 12804 H 1205.37 -2.21422 3.52058 0
M  V30 12805 H 1203.94 -3.17247 1.95981 0
M  V30 12806 N 1206.13 -1.32992 -0.845635 0
M  V30 12807 C 1207.41 -1.14671 -1.58461 0
M  V30 12808 C 1207.79 0.289498 -2.09106 0
M  V30 12809 O 1207.13 1.28751 -1.88773 0
M  V30 12810 C 1207.34 -2.18206 -2.72373 0
M  V30 12811 C 1208.69 -2.5201 -3.41726 0
M  V30 12812 O 1209.72 -2.16821 -2.82608 0
M  V30 12813 O 1208.58 -3.12368 -4.48429 0
M  V30 12814 H 1205.67 -0.443088 -0.698285 0
M  V30 12815 H 1208.22 -1.44552 -0.888978 0
M  V30 12816 H 1206.99 -3.14707 -2.32541 0
M  V30 12817 H 1206.61 -1.89372 -3.49605 0
M  V30 12818 N 1207.61 1.06304 -1.1635 0
M  V30 12819 C 1208.85 1.79101 -0.94494 0
M  V30 12820 C 1209.18 1.87217 0.527251 0
M  V30 12821 O 1208.44 1.35992 1.40729 0
M  V30 12822 C 1208.74 3.23589 -1.51741 0
M  V30 12823 C 1208.4 3.35552 -3.0119 0
M  V30 12824 C 1207.06 3.38525 -3.41986 0
M  V30 12825 C 1209.42 3.37482 -3.97184 0
M  V30 12826 C 1206.74 3.41042 -4.77396 0
M  V30 12827 C 1209.1 3.41537 -5.3248 0
M  V30 12828 C 1207.76 3.42792 -5.72757 0
M  V30 12829 H 1207.03 0.655377 -0.345778 0
M  V30 12830 H 1209.68 1.25017 -1.45062 0
M  V30 12831 H 1207.98 3.80525 -0.933164 0
M  V30 12832 H 1209.68 3.78512 -1.32399 0
M  V30 12833 H 1206.27 3.33944 -2.68662 0
M  V30 12834 H 1210.45 3.34397 -3.66732 0
M  V30 12835 H 1205.71 3.40317 -5.07931 0
M  V30 12836 H 1209.88 3.41977 -6.0665 0
M  V30 12837 H 1207.51 3.44495 -6.77663 0
M  V30 12838 N 1209.09 0.96196 1.24836 0
M  V30 12839 C 1210 0.494876 2.29321 0
M  V30 12840 C 1211.01 -0.441363 1.68309 0
M  V30 12841 O 1212.19 -0.315814 1.98908 0
M  V30 12842 C 1209.25 -0.212944 3.46045 0
M  V30 12843 C 1208.31 0.762411 4.22476 0
M  V30 12844 C 1207.55 0.0882756 5.33627 0
M  V30 12845 O 1207.77 -1.12459 5.59204 0
M  V30 12846 O 1206.7 0.777529 5.96857 0
M  V30 12847 H 1210.53 1.36333 2.7138 0
M  V30 12848 H 1208.11 0.728738 1.30421 0
M  V30 12849 H 1210 -0.610805 4.1695 0
M  V30 12850 H 1208.67 -1.05645 3.05975 0
M  V30 12851 H 1207.58 1.21062 3.5397 0
M  V30 12852 H 1208.91 1.57416 4.66349 0
M  V30 12853 N 1210.56 -1.39601 0.731392 0
M  V30 12854 C 1211.79 -2.05411 0.286532 0
M  V30 12855 C 1212.21 -1.54777 -1.06892 0
M  V30 12856 O 1211.57 -0.689942 -1.67659 0
M  V30 12857 C 1211.62 -3.594 0.293914 0
M  V30 12858 O 1210.72 -4.06072 -0.719657 0
M  V30 12859 H 1210.06 -0.650949 0.131004 0
M  V30 12860 H 1212.59 -1.78703 0.996305 0
M  V30 12861 H 1212.6 -4.0777 0.137052 0
M  V30 12862 H 1211.28 -3.95617 1.28298 0
M  V30 12863 H 1209.86 -3.69125 -0.529226 0
M  V30 12864 N 1212.04 -0.478751 -1.50152 0
M  V30 12865 C 1213.32 0.135533 -1.9513 0
M  V30 12866 C 1213.7 1.56253 -1.41944 0
M  V30 12867 O 1213.05 2.19824 -0.623673 0
M  V30 12868 C 1213.26 0.0710037 -3.48928 0
M  V30 12869 C 1214.61 0.256075 -4.23827 0
M  V30 12870 O 1215.63 0.147234 -3.55896 0
M  V30 12871 O 1214.49 0.476741 -5.44417 0
M  V30 12872 H 1211.58 0.107491 -0.819985 0
M  V30 12873 H 1214.13 -0.539701 -1.60889 0
M  V30 12874 H 1212.9 -0.925012 -3.80209 0
M  V30 12875 H 1212.52 0.787362 -3.89726 0
M  V30 12876 N 1213.52 1.56172 -0.211661 0
M  V30 12877 C 1214.77 1.97214 0.423008 0
M  V30 12878 C 1215.08 1.10203 1.616 0
M  V30 12879 O 1216.29 1.411 2.31955 0
M  V30 12880 C 1214.74 3.50805 0.803977 0
M  V30 12881 C 1214.35 4.46505 -0.365654 0
M  V30 12882 C 1216.1 4.00582 1.4048 0
M  V30 12883 C 1214 5.91388 0.0371986 0
M  V30 12884 H 1212.93 0.736432 0.161814 0
M  V30 12885 H 1215.58 1.80925 -0.306307 0
M  V30 12886 H 1213.97 3.62659 1.59043 0
M  V30 12887 H 1215.14 4.46394 -1.14321 0
M  V30 12888 H 1213.46 4.07015 -0.879061 0
M  V30 12889 H 1216.05 5.06317 1.71894 0
M  V30 12890 H 1216.4 3.45853 2.31713 0
M  V30 12891 H 1216.93 3.9191 0.681984 0
M  V30 12892 H 1213.67 6.50078 -0.841367 0
M  V30 12893 H 1213.19 5.94716 0.77927 0
M  V30 12894 H 1214.87 6.4531 0.467309 0
M  V30 12895 N 1215 -0.0618163 1.57479 0
M  V30 12896 C 1215.95 -1.0724 2.04373 0
M  V30 12897 C 1216.92 -1.37875 0.926271 0
M  V30 12898 O 1218.1 -1.48772 1.19463 0
M  V30 12899 C 1215.24 -2.37805 2.50085 0
M  V30 12900 C 1214.35 -2.13614 3.7549 0
M  V30 12901 C 1213.49 -3.37814 4.09945 0
M  V30 12902 C 1212.53 -3.09032 5.28361 0
M  V30 12903 N 1211.66 -4.25591 5.58406 0
M  V30 12904 H 1216.5 -0.665536 2.90473 0
M  V30 12905 H 1214.04 -0.317043 1.43643 0
M  V30 12906 H 1216 -3.14048 2.74644 0
M  V30 12907 H 1214.63 -2.76275 1.66948 0
M  V30 12908 H 1213.68 -1.28017 3.58212 0
M  V30 12909 H 1214.99 -1.88361 4.61867 0
M  V30 12910 H 1214.15 -4.22447 4.35458 0
M  V30 12911 H 1212.89 -3.66153 3.22154 0
M  V30 12912 H 1211.89 -2.22797 5.02635 0
M  V30 12913 H 1213.12 -2.82006 6.17778 0
M  V30 12914 H 1211.06 -4.53941 4.73575 0
M  V30 12915 H 1210.98 -4.03646 6.39223 0
M  V30 12916 H 1212.25 -5.11191 5.88476 0
M  V30 12917 N 1216.48 -1.54033 -0.333429 0
M  V30 12918 C 1217.7 -1.76031 -1.09672 0
M  V30 12919 C 1218.13 -0.502844 -1.81254 0
M  V30 12920 O 1217.48 0.54509 -1.72912 0
M  V30 12921 C 1217.53 -2.947 -2.07809 0
M  V30 12922 O 1216.64 -2.65555 -3.15522 0
M  V30 12923 H 1215.98 -0.583611 -0.316692 0
M  V30 12924 H 1218.51 -2.01026 -0.380732 0
M  V30 12925 H 1218.52 -3.21771 -2.50853 0
M  V30 12926 H 1217.19 -3.85895 -1.55106 0
M  V30 12927 H 1215.77 -2.49403 -2.77223 0
M  V30 12928 N 1217.95 0.594978 -1.45938 0
M  V30 12929 C 1219.37 1.17703 -1.44924 0
M  V30 12930 C 1219.72 1.9534 -0.183522 0
M  V30 12931 O 1218.84 2.04276 0.714163 0
M  V30 12932 C 1219.44 2.14119 -2.62561 0
M  V30 12933 C 1218 2.67674 -2.64627 0
M  V30 12934 C 1217.14 1.43312 -2.37397 0
M  V30 12935 H 1220.09 0.383583 -1.53995 0
M  V30 12936 H 1220.11 2.97374 -2.3738 0
M  V30 12937 H 1219.63 1.57586 -3.54667 0
M  V30 12938 H 1217.73 3.28111 -1.76562 0
M  V30 12939 H 1217.84 3.11246 -3.64229 0
M  V30 12940 H 1216.2 1.72702 -1.87206 0
M  V30 12941 H 1216.99 0.886276 -3.31663 0
M  V30 12942 N 1219.43 1.33438 0.838571 0
M  V30 12943 C 1220.38 1.23698 1.96981 0
M  V30 12944 C 1221.37 0.138299 1.68835 0
M  V30 12945 O 1222.58 0.302278 1.77444 0
M  V30 12946 H 1218.96 0.383874 0.646641 0
M  V30 12947 H 1220.93 2.19337 2.02321 0
M  V30 12948 C 1219.68 0.993362 3.33208 0
M  V30 12949 H 1219 1.83104 3.55405 0
M  V30 12950 H 1220.44 0.965517 4.1286 0
M  V30 12951 C 1218.9 -0.303701 3.35528 0
M  V30 12952 O 1219.43 -1.3103 3.79729 0
M  V30 12953 N 1217.63 -0.331342 2.88705 0
M  V30 12954 H 1217.18 0.488351 2.52929 0
M  V30 12955 H 1217.14 -1.199 2.9064 0
M  V30 12956 N 1220.91 -1.05686 1.16912 0
M  V30 12957 C 1222.14 -1.82282 0.978811 0
M  V30 12958 C 1222.55 -1.8278 -0.472972 0
M  V30 12959 O 1221.91 -1.25143 -1.32836 0
M  V30 12960 C 1221.96 -3.28623 1.50629 0
M  V30 12961 O 1221.68 -3.28269 2.90122 0
M  V30 12962 C 1223.18 -4.21927 1.35987 0
M  V30 12963 H 1220.4 -0.574558 0.346588 0
M  V30 12964 H 1222.95 -1.33301 1.55084 0
M  V30 12965 H 1221.1 -3.74893 0.976404 0
M  V30 12966 H 1221.52 -4.19824 3.14401 0
M  V30 12967 H 1222.99 -5.2261 1.77716 0
M  V30 12968 H 1223.47 -4.38131 0.30626 0
M  V30 12969 H 1224.07 -3.81508 1.87968 0
M  V30 12970 N 1222.39 -0.968567 -1.24324 0
M  V30 12971 C 1223.3 -0.50703 -2.29055 0
M  V30 12972 C 1224.31 0.432431 -1.68541 0
M  V30 12973 O 1225.49 0.30526 -1.99073 0
M  V30 12974 C 1222.56 0.194589 -3.46153 0
M  V30 12975 C 1221.62 -0.784805 -4.22066 0
M  V30 12976 C 1220.85 -0.116574 -5.33573 0
M  V30 12977 O 1221.07 1.09492 -5.59792 0
M  V30 12978 O 1220.01 -0.809171 -5.96436 0
M  V30 12979 H 1223.83 -1.3777 -2.70653 0
M  V30 12980 H 1221.42 -0.735645 -1.30033 0
M  V30 12981 H 1223.3 0.588684 -4.17268 0
M  V30 12982 H 1221.97 1.04021 -3.06531 0
M  V30 12983 H 1220.88 -1.22938 -3.53323 0
M  V30 12984 H 1222.21 -1.59887 -4.65507 0
M  V30 12985 N 1223.87 1.39211 -0.738786 0
M  V30 12986 C 1225.12 1.99673 -0.285254 0
M  V30 12987 C 1225.43 1.59297 1.13507 0
M  V30 12988 O 1226.63 2.12622 1.68832 0
M  V30 12989 C 1225.09 3.5696 -0.45906 0
M  V30 12990 C 1224.7 4.06297 -1.88751 0
M  V30 12991 C 1226.44 4.24446 -0.0674954 0
M  V30 12992 C 1224.35 5.56171 -2.01067 0
M  V30 12993 H 1223.28 0.746945 -0.102901 0
M  V30 12994 H 1225.93 1.59163 -0.913209 0
M  V30 12995 H 1224.31 3.95285 0.23785 0
M  V30 12996 H 1225.49 3.79297 -2.61669 0
M  V30 12997 H 1223.8 3.51486 -2.23264 0
M  V30 12998 H 1226.4 5.34521 -0.138475 0
M  V30 12999 H 1226.74 4.04653 0.977823 0
M  V30 13000 H 1227.27 3.91309 -0.715704 0
M  V30 13001 H 1224.01 5.80849 -3.03801 0
M  V30 13002 H 1223.53 5.84961 -1.32591 0
M  V30 13003 H 1225.21 6.21642 -1.79362 0
M  V30 13004 N 1225.34 0.486708 1.49896 0
M  V30 13005 C 1226.57 -0.0599944 2.06513 0
M  V30 13006 C 1226.98 -1.32662 1.34898 0
M  V30 13007 O 1226.33 -1.78915 0.416565 0
M  V30 13008 C 1226.39 -0.39838 3.57286 0
M  V30 13009 C 1226.05 0.768465 4.50493 0
M  V30 13010 C 1227.05 1.65495 4.92856 0
M  V30 13011 C 1224.73 0.96322 4.92978 0
M  V30 13012 C 1226.73 2.72046 5.76429 0
M  V30 13013 C 1224.41 2.03193 5.7633 0
M  V30 13014 C 1225.41 2.9089 6.17958 0
M  V30 13015 O 1225.1 3.95919 6.99645 0
M  V30 13016 H 1224.83 0.0107865 0.675914 0
M  V30 13017 H 1227.39 0.679087 1.93849 0
M  V30 13018 H 1225.62 -1.19086 3.67907 0
M  V30 13019 H 1227.31 -0.882003 3.96201 0
M  V30 13020 H 1228.07 1.51624 4.6069 0
M  V30 13021 H 1223.95 0.29004 4.60087 0
M  V30 13022 H 1227.49 3.40526 6.08841 0
M  V30 13023 H 1223.39 2.17064 6.07909 0
M  V30 13024 H 1224.16 3.93097 7.17925 0
M  V30 13025 N 1226.82 -1.56058 0.219941 0
M  V30 13026 C 1227.76 -2.17494 -0.723133 0
M  V30 13027 C 1228.77 -1.14356 -1.15873 0
M  V30 13028 O 1229.96 -1.41343 -1.09016 0
M  V30 13029 C 1227.06 -2.74242 -1.99109 0
M  V30 13030 C 1226.23 -4.02533 -1.71132 0
M  V30 13031 C 1225.29 -4.43862 -2.82618 0
M  V30 13032 O 1224.32 -5.10792 -2.51157 0
M  V30 13033 N 1225.52 -4.09412 -4.11537 0
M  V30 13034 H 1228.28 -2.99048 -0.197619 0
M  V30 13035 H 1225.84 -1.61853 0.0388738 0
M  V30 13036 H 1227.84 -2.98862 -2.7288 0
M  V30 13037 H 1226.41 -1.97 -2.42713 0
M  V30 13038 H 1225.63 -3.85786 -0.810128 0
M  V30 13039 H 1226.91 -4.86227 -1.49868 0
M  V30 13040 H 1226.31 -3.55624 -4.39941 0
M  V30 13041 H 1224.87 -4.38928 -4.81857 0
M  V30 13042 N 1228.3 0.053464 -1.57509 0
M  V30 13043 C 1229.25 1.06886 -2.01394 0
M  V30 13044 C 1230.24 1.33441 -0.899013 0
M  V30 13045 O 1231.43 1.33435 -1.16293 0
M  V30 13046 C 1228.56 2.37731 -2.47667 0
M  V30 13047 C 1227.64 2.14371 -3.65931 0
M  V30 13048 N 1228.03 1.60994 -4.79494 0
M  V30 13049 C 1226.33 2.44766 -3.72835 0
M  V30 13050 C 1227.03 1.52875 -5.61252 0
M  V30 13051 N 1226.01 1.99576 -5.05638 0
M  V30 13052 H 1229.81 0.649779 -2.86627 0
M  V30 13053 H 1227.32 0.260224 -1.60302 0
M  V30 13054 H 1229.32 3.11256 -2.77354 0
M  V30 13055 H 1227.98 2.80339 -1.63829 0
M  V30 13056 H 1228.99 1.296 -5.01422 0
M  V30 13057 H 1225.67 2.90616 -2.99748 0
M  V30 13058 H 1227.06 1.12303 -6.62448 0
M  V30 13059 N 1229.78 1.54207 0.325255 0
M  V30 13060 C 1230.69 1.86495 1.42326 0
M  V30 13061 C 1231.71 0.756718 1.56684 0
M  V30 13062 O 1232.88 1.05084 1.71812 0
M  V30 13063 C 1229.95 2.08414 2.77064 0
M  V30 13064 C 1229.01 3.32221 2.71897 0
M  V30 13065 C 1228.24 3.53085 4.00209 0
M  V30 13066 O 1228.46 2.77421 4.98391 0
M  V30 13067 O 1227.4 4.46559 4.0357 0
M  V30 13068 H 1231.22 2.79859 1.17951 0
M  V30 13069 H 1228.81 1.40091 0.519124 0
M  V30 13070 H 1230.69 2.24171 3.56827 0
M  V30 13071 H 1229.37 1.18238 3.01333 0
M  V30 13072 H 1228.27 3.21851 1.90691 0
M  V30 13073 H 1229.61 4.22449 2.52582 0
M  V30 13074 N 1231.26 -0.58723 1.46251 0
M  V30 13075 C 1232.19 -1.71113 1.50982 0
M  V30 13076 C 1233.17 -1.58466 0.364322 0
M  V30 13077 O 1234.35 -1.79745 0.567812 0
M  V30 13078 C 1231.48 -3.09128 1.38411 0
M  V30 13079 C 1230.53 -3.40308 2.57085 0
M  V30 13080 S 1231.36 -3.32881 4.19464 0
M  V30 13081 C 1232.51 -4.73441 4.09395 0
M  V30 13082 H 1232.75 -1.66841 2.46072 0
M  V30 13083 H 1230.28 -0.765598 1.34082 0
M  V30 13084 H 1232.24 -3.88751 1.31846 0
M  V30 13085 H 1230.9 -3.10895 0.447567 0
M  V30 13086 H 1230.09 -4.40849 2.4427 0
M  V30 13087 H 1229.69 -2.68244 2.60617 0
M  V30 13088 H 1231.99 -5.63723 3.75796 0
M  V30 13089 H 1232.93 -4.91313 5.09919 0
M  V30 13090 H 1233.34 -4.50079 3.40719 0
M  V30 13091 N 1232.74 -1.33881 -0.831482 0
M  V30 13092 C 1234.15 -1.23112 -1.40358 0
M  V30 13093 C 1234.5 0.146944 -1.95649 0
M  V30 13094 O 1233.62 1.04689 -1.89391 0
M  V30 13095 C 1234.22 -2.22899 -2.5515 0
M  V30 13096 C 1232.78 -2.15946 -3.08292 0
M  V30 13097 C 1231.92 -2.09975 -1.81124 0
M  V30 13098 H 1234.87 -1.45372 -0.63661 0
M  V30 13099 H 1234.9 -1.841 -3.32997 0
M  V30 13100 H 1234.41 -3.23186 -2.14878 0
M  V30 13101 H 1232.51 -1.18987 -3.53091 0
M  V30 13102 H 1232.62 -3.06822 -3.67964 0
M  V30 13103 H 1230.99 -1.55564 -2.01673 0
M  V30 13104 H 1231.77 -3.12082 -1.43037 0
M  V30 13105 N 1234.21 1.05064 -1.1747 0
M  V30 13106 C 1235.46 1.77737 -0.961979 0
M  V30 13107 C 1235.78 1.88198 0.510551 0
M  V30 13108 O 1235.05 1.39968 1.37062 0
M  V30 13109 H 1233.63 0.658366 -0.352935 0
M  V30 13110 H 1236.29 1.26851 -1.47969 0
M  V30 13111 H 1235.39 2.79368 -1.39141 0
M  V30 13112 N 1235.69 0.975146 1.23809 0
M  V30 13113 C 1236.94 0.639858 1.91704 0
M  V30 13114 C 1237.26 -0.828557 1.76522 0
M  V30 13115 O 1236.53 -1.59217 1.14135 0
M  V30 13116 H 1235.11 0.233667 0.709513 0
M  V30 13117 H 1237.77 1.23782 1.50545 0
M  V30 13118 H 1236.87 0.886915 2.99233 0
M  V30 13119 N 1237.17 -1.38817 0.746158 0
M  V30 13120 C 1238.1 -2.29081 0.0737986 0
M  V30 13121 C 1239.11 -1.47377 -0.691656 0
M  V30 13122 O 1240.3 -1.70326 -0.533973 0
M  V30 13123 C 1237.4 -3.26185 -0.919607 0
M  V30 13124 C 1236.58 -4.36879 -0.213349 0
M  V30 13125 C 1235.64 -5.1422 -1.11644 0
M  V30 13126 O 1234.66 -5.66137 -0.589747 0
M  V30 13127 N 1235.86 -5.26488 -2.44521 0
M  V30 13128 H 1238.63 -2.87424 0.848966 0
M  V30 13129 H 1236.19 -1.50518 0.596314 0
M  V30 13130 H 1238.18 -3.74802 -1.52662 0
M  V30 13131 H 1236.75 -2.68793 -1.5959 0
M  V30 13132 H 1235.97 -3.89994 0.574285 0
M  V30 13133 H 1237.26 -5.08053 0.275655 0
M  V30 13134 H 1236.66 -4.85846 -2.89777 0
M  V30 13135 H 1235.21 -5.78505 -3.00291 0
M  V30 13136 N 1238.65 -0.49465 -1.49636 0
M  V30 13137 C 1239.88 0.0490417 -2.06542 0
M  V30 13138 C 1240.29 1.31945 -1.35599 0
M  V30 13139 O 1239.63 1.78691 -0.426047 0
M  V30 13140 C 1239.69 0.379426 -3.57492 0
M  V30 13141 C 1239.35 -0.792345 -4.50079 0
M  V30 13142 C 1240.35 -1.68106 -4.91972 0
M  V30 13143 C 1238.04 -0.98935 -4.9246 0
M  V30 13144 C 1240.03 -2.75099 -5.74978 0
M  V30 13145 C 1237.72 -2.06247 -5.75244 0
M  V30 13146 C 1238.72 -2.94163 -6.16407 0
M  V30 13147 O 1238.4 -3.99623 -6.97536 0
M  V30 13148 H 1238.14 -0.0143708 -0.675847 0
M  V30 13149 H 1240.69 -0.689358 -1.93486 0
M  V30 13150 H 1238.92 1.17133 -3.68533 0
M  V30 13151 H 1240.61 0.860979 -3.96664 0
M  V30 13152 H 1241.37 -1.54065 -4.59879 0
M  V30 13153 H 1237.25 -0.314435 -4.59926 0
M  V30 13154 H 1240.8 -3.4375 -6.07027 0
M  V30 13155 H 1236.69 -2.20285 -6.06749 0
M  V30 13156 H 1237.46 -3.96899 -7.15831 0
M  V30 13157 N 1240.13 1.55939 -0.228214 0
M  V30 13158 C 1241.35 2.0332 0.409364 0
M  V30 13159 C 1241.78 1.10683 1.52088 0
M  V30 13160 O 1241.13 0.0962484 1.81044 0
M  V30 13161 C 1241.18 3.48877 0.911981 0
M  V30 13162 O 1240.29 3.59378 2.02289 0
M  V30 13163 H 1239.63 0.657625 0.0917909 0
M  V30 13164 H 1242.16 2.01605 -0.348802 0
M  V30 13165 H 1242.17 3.89331 1.22007 0
M  V30 13166 H 1240.84 4.15783 0.0984902 0
M  V30 13167 H 1239.42 3.30815 1.72093 0
M  V30 13168 N 1241.6 -0.0451101 1.57535 0
M  V30 13169 C 1242.55 -1.0692 2.06569 0
M  V30 13170 C 1243.55 -1.38443 0.976218 0
M  V30 13171 O 1244.75 -1.37536 1.1612 0
M  V30 13172 H 1241.13 -0.36226 0.658993 0
M  V30 13173 H 1243.1 -0.629709 2.9168 0
M  V30 13174 C 1241.85 -2.36656 2.54733 0
M  V30 13175 H 1241.17 -2.13257 3.38174 0
M  V30 13176 H 1242.61 -3.06696 2.92769 0
M  V30 13177 C 1241.07 -3.04499 1.4416 0
M  V30 13178 O 1241.6 -3.93679 0.798721 0
M  V30 13179 N 1239.81 -2.6556 1.18009 0
M  V30 13180 H 1239.35 -1.93126 1.7047 0
M  V30 13181 H 1239.31 -3.11272 0.442363 0
M  V30 13182 N 1243.08 -1.54377 -0.317073 0
M  V30 13183 C 1244.01 -1.8721 -1.39552 0
M  V30 13184 C 1244.99 -0.729483 -1.53664 0
M  V30 13185 O 1246.18 -0.983799 -1.67437 0
M  V30 13186 C 1243.31 -2.1052 -2.76222 0
M  V30 13187 C 1242.26 -3.26366 -2.76892 0
M  V30 13188 C 1241.59 -3.35061 -4.16699 0
M  V30 13189 C 1242.89 -4.63862 -2.40061 0
M  V30 13190 H 1244.58 -2.77532 -1.12323 0
M  V30 13191 H 1242.13 -1.33536 -0.538897 0
M  V30 13192 H 1244.08 -2.32073 -3.51739 0
M  V30 13193 H 1242.81 -1.16953 -3.04942 0
M  V30 13194 H 1241.46 -3.0471 -2.03831 0
M  V30 13195 H 1241.11 -2.39041 -4.4257 0
M  V30 13196 H 1240.81 -4.12923 -4.18053 0
M  V30 13197 H 1242.34 -3.58856 -4.94019 0
M  V30 13198 H 1243.75 -4.85252 -3.05292 0
M  V30 13199 H 1242.15 -5.44321 -2.52655 0
M  V30 13200 H 1243.22 -4.6567 -1.35202 0
M  V30 13201 N 1244.56 0.579466 -1.4656 0
M  V30 13202 C 1245.79 1.36837 -1.55854 0
M  V30 13203 C 1246.21 1.87019 -0.20141 0
M  V30 13204 O 1245.57 1.61746 0.81901 0
M  V30 13205 C 1245.62 2.52965 -2.56985 0
M  V30 13206 O 1244.72 3.54505 -2.10713 0
M  V30 13207 H 1244.06 0.407379 -0.524345 0
M  V30 13208 H 1246.59 0.702558 -1.9216 0
M  V30 13209 H 1246.6 2.99838 -2.76697 0
M  V30 13210 H 1245.28 2.15793 -3.55536 0
M  V30 13211 H 1243.85 3.14089 -2.01003 0
M  V30 13212 N 1246.04 1.3432 0.824371 0
M  V30 13213 C 1246.97 1.21619 1.94271 0
M  V30 13214 C 1247.98 0.143628 1.62165 0
M  V30 13215 O 1249.17 0.395353 1.74067 0
M  V30 13216 C 1246.27 0.846128 3.28167 0
M  V30 13217 C 1245.45 2.01337 3.88307 0
M  V30 13218 C 1244.5 1.62194 5.00579 0
M  V30 13219 O 1243.53 2.33831 5.18953 0
M  V30 13220 N 1244.73 0.535262 5.78027 0
M  V30 13221 H 1247.5 2.17963 2.05699 0
M  V30 13222 H 1245.06 1.27256 1.00088 0
M  V30 13223 H 1247.05 0.566086 4.00721 0
M  V30 13224 H 1245.62 -0.0270764 3.12588 0
M  V30 13225 H 1244.84 2.45823 3.08164 0
M  V30 13226 H 1246.13 2.79404 4.25219 0
M  V30 13227 H 1245.53 -0.0603126 5.65668 0
M  V30 13228 H 1244.08 0.314946 6.51039 0
M  V30 13229 N 1247.52 -1.0444 1.18026 0
M  V30 13230 C 1248.45 -2.12388 0.86162 0
M  V30 13231 C 1249.46 -1.62204 -0.139196 0
M  V30 13232 O 1250.65 -1.78282 0.0881334 0
M  V30 13233 C 1247.75 -3.37859 0.265407 0
M  V30 13234 C 1246.92 -4.17292 1.31096 0
M  V30 13235 C 1245.98 -5.21096 0.731121 0
M  V30 13236 O 1245.01 -5.5159 1.40488 0
M  V30 13237 N 1246.21 -5.78568 -0.473194 0
M  V30 13238 H 1248.98 -2.40317 1.79074 0
M  V30 13239 H 1246.54 -1.20601 1.08014 0
M  V30 13240 H 1248.53 -4.04472 -0.135976 0
M  V30 13241 H 1247.1 -3.07403 -0.567658 0
M  V30 13242 H 1246.32 -3.46057 1.8878 0
M  V30 13243 H 1247.61 -4.67158 2.01596 0
M  V30 13244 H 1247 -5.56088 -1.03839 0
M  V30 13245 H 1245.56 -6.46665 -0.816545 0
M  V30 13246 N 1248.99 -0.981699 -1.2329 0
M  V30 13247 C 1249.96 -0.527992 -2.23036 0
M  V30 13248 C 1250.96 0.383083 -1.5617 0
M  V30 13249 O 1252.15 0.176595 -1.73303 0
M  V30 13250 C 1249.28 0.233501 -3.40099 0
M  V30 13251 H 1250.47 -1.40995 -2.64689 0
M  V30 13252 H 1248.03 -0.767724 -1.36146 0
M  V30 13253 H 1248.76 1.13194 -3.03904 0
M  V30 13254 H 1248.55 -0.420505 -3.89839 0
M  V30 13255 H 1250.04 0.539485 -4.14101 0
M  V30 13256 N 1250.47 1.3842 -0.753509 0
M  V30 13257 C 1251.42 2.30457 -0.12574 0
M  V30 13258 C 1252.39 1.50173 0.709728 0
M  V30 13259 O 1253.57 1.78804 0.665872 0
M  V30 13260 C 1250.71 3.36593 0.761503 0
M  V30 13261 C 1249.83 4.31909 -0.0885848 0
M  V30 13262 C 1248.96 5.25116 0.801655 0
M  V30 13263 C 1248 6.12078 -0.0520719 0
M  V30 13264 N 1247.14 6.97583 0.795124 0
M  V30 13265 H 1251.98 2.83567 -0.916187 0
M  V30 13266 H 1249.52 1.39609 -0.463436 0
M  V30 13267 H 1251.47 3.96738 1.29054 0
M  V30 13268 H 1250.1 2.84894 1.51774 0
M  V30 13269 H 1249.16 3.73227 -0.735249 0
M  V30 13270 H 1250.47 4.93161 -0.747899 0
M  V30 13271 H 1249.62 5.90377 1.39786 0
M  V30 13272 H 1248.36 4.6423 1.4947 0
M  V30 13273 H 1247.37 5.45813 -0.660946 0
M  V30 13274 H 1248.59 6.75032 -0.742178 0
M  V30 13275 H 1246.54 6.39246 1.47312 0
M  V30 13276 H 1246.45 7.55754 0.192705 0
M  V30 13277 H 1247.72 7.67254 1.3763 0
M  V30 13278 N 1251.95 0.502579 1.49372 0
M  V30 13279 C 1253.18 -0.0403087 2.07361 0
M  V30 13280 C 1253.6 -1.29918 1.36026 0
M  V30 13281 O 1252.96 -1.76428 0.417488 0
M  V30 13282 C 1253.01 -0.275362 3.59547 0
M  V30 13283 O 1252.11 -1.34975 3.89686 0
M  V30 13284 H 1251.45 0.0269268 0.663454 0
M  V30 13285 H 1253.98 0.702652 1.92156 0
M  V30 13286 H 1253.99 -0.506392 4.04845 0
M  V30 13287 H 1252.67 0.644382 4.10878 0
M  V30 13288 H 1251.24 -1.10355 3.56197 0
M  V30 13289 N 1253.43 -1.55816 0.23648 0
M  V30 13290 C 1254.36 -2.23924 -0.661834 0
M  V30 13291 C 1255.34 -1.21597 -1.18946 0
M  V30 13292 O 1256.52 -1.50222 -1.23073 0
M  V30 13293 C 1253.65 -2.93069 -1.86355 0
M  V30 13294 C 1252.61 -4.01996 -1.46913 0
M  V30 13295 C 1251.93 -4.58512 -2.75083 0
M  V30 13296 C 1253.23 -5.18265 -0.647964 0
M  V30 13297 H 1254.93 -2.99253 -0.0939368 0
M  V30 13298 H 1252.47 -1.43934 -0.0437407 0
M  V30 13299 H 1254.43 -3.39412 -2.49755 0
M  V30 13300 H 1253.15 -2.15212 -2.45665 0
M  V30 13301 H 1251.81 -3.56406 -0.858522 0
M  V30 13302 H 1251.46 -3.77368 -3.3257 0
M  V30 13303 H 1251.16 -5.32037 -2.49421 0
M  V30 13304 H 1252.68 -5.07583 -3.39399 0
M  V30 13305 H 1254.1 -5.60898 -1.18602 0
M  V30 13306 H 1252.49 -5.98114 -0.487823 0
M  V30 13307 H 1253.56 -4.83691 0.342151 0
M  V30 13308 N 1254.91 0.036755 -1.57557 0
M  V30 13309 C 1256.15 0.727665 -1.88546 0
M  V30 13310 C 1256.48 1.76304 -0.833179 0
M  V30 13311 O 1255.75 1.9544 0.13414 0
M  V30 13312 H 1254.33 0.271744 -0.695819 0
M  V30 13313 H 1256.99 0.00452915 -1.94899 0
M  V30 13314 H 1256.08 1.22205 -2.8718 0
M  V30 13315 N 1256.39 1.54543 0.308881 0
M  V30 13316 C 1257.32 1.87947 1.38557 0
M  V30 13317 C 1258.3 0.737622 1.53275 0
M  V30 13318 O 1259.48 0.992664 1.66913 0
M  V30 13319 C 1256.61 2.11982 2.75102 0
M  V30 13320 C 1255.57 3.2783 2.75158 0
M  V30 13321 C 1254.89 3.37266 4.14917 0
M  V30 13322 C 1256.19 4.65129 2.37598 0
M  V30 13323 H 1257.89 2.78123 1.1085 0
M  V30 13324 H 1255.43 1.3382 0.531808 0
M  V30 13325 H 1257.38 2.33935 3.50503 0
M  V30 13326 H 1256.11 1.18569 3.04317 0
M  V30 13327 H 1254.77 3.05787 2.02212 0
M  V30 13328 H 1254.42 2.41384 4.41296 0
M  V30 13329 H 1254.12 4.15135 4.15857 0
M  V30 13330 H 1255.64 3.61471 4.92109 0
M  V30 13331 H 1257.05 4.86865 3.02714 0
M  V30 13332 H 1255.45 5.45653 2.49765 0
M  V30 13333 H 1256.52 4.6638 1.32731 0
M  V30 13334 N 1257.86 -0.571685 1.46866 0
M  V30 13335 C 1259.11 -1.32685 1.52444 0
M  V30 13336 C 1259.43 -1.94147 0.182225 0
M  V30 13337 O 1258.7 -1.79159 -0.792385 0
M  V30 13338 H 1257.28 -0.492679 0.561495 0
M  V30 13339 H 1259.94 -0.668694 1.8307 0
M  V30 13340 H 1259.04 -2.12788 2.28315 0
M  V30 13341 N 1259.34 -1.34755 -0.817236 0
M  V30 13342 C 1260.25 -1.28888 -1.96023 0
M  V30 13343 C 1261.27 -0.195582 -1.72897 0
M  V30 13344 O 1262.44 -0.423071 -1.96906 0
M  V30 13345 C 1259.51 -1.04985 -3.30423 0
M  V30 13346 C 1258.57 -2.23526 -3.66517 0
M  V30 13347 C 1257.8 -2.00753 -4.94504 0
M  V30 13348 O 1258.03 -0.968622 -5.62116 0
M  V30 13349 O 1256.96 -2.87848 -5.28608 0
M  V30 13350 H 1260.79 -2.25059 -2.03917 0
M  V30 13351 H 1258.37 -1.15019 -0.953467 0
M  V30 13352 H 1260.25 -0.934589 -4.10906 0
M  V30 13353 H 1258.93 -0.118582 -3.23483 0
M  V30 13354 H 1257.83 -2.40613 -2.86455 0
M  V30 13355 H 1259.17 -3.15062 -3.78149 0
M  V30 13356 N 1260.82 1.03812 -1.18578 0
M  V30 13357 C 1262.24 1.29271 -0.936011 0
M  V30 13358 C 1262.44 1.97551 0.396965 0
M  V30 13359 O 1261.49 2.25769 1.13069 0
M  V30 13360 C 1262.8 2.1489 -2.1034 0
M  V30 13361 C 1264.35 2.28228 -2.14198 0
M  V30 13362 C 1264.83 3.17214 -3.30362 0
M  V30 13363 N 1266.32 3.24802 -3.30239 0
M  V30 13364 C 1267.05 3.9382 -4.16765 0
M  V30 13365 N 1266.55 4.65147 -5.1343 0
M  V30 13366 N 1268.34 3.90125 -4.04671 0
M  V30 13367 H 1260.49 0.579011 -2.04356 0
M  V30 13368 H 1262.76 0.318021 -0.893066 0
M  V30 13369 H 1262.46 1.72029 -3.06755 0
M  V30 13370 H 1262.34 3.15576 -2.06619 0
M  V30 13371 H 1264.72 2.70324 -1.18359 0
M  V30 13372 H 1264.8 1.27124 -2.21976 0
M  V30 13373 H 1264.45 2.75829 -4.26475 0
M  V30 13374 H 1264.38 4.18356 -3.19821 0
M  V30 13375 H 1266.87 2.73994 -2.60261 0
M  V30 13376 H 1267.18 5.15414 -5.7582 0
M  V30 13377 H 1265.53 4.64043 -5.17387 0
M  V30 13378 H 1268.72 3.33536 -3.28438 0
M  V30 13379 H 1268.89 4.43641 -4.7232 0
M  V30 13380 N 1262.3 0.988223 1.22768 0
M  V30 13381 C 1263.54 0.661461 1.91392 0
M  V30 13382 C 1263.87 -0.805942 1.77016 0
M  V30 13383 O 1263.13 -1.5978 1.12999 0
M  V30 13384 C 1263.43 1.00744 3.42907 0
M  V30 13385 C 1263.09 2.46634 3.77469 0
M  V30 13386 C 1261.75 2.86503 3.86613 0
M  V30 13387 C 1264.11 3.41217 3.9398 0
M  V30 13388 C 1261.43 4.19954 4.09702 0
M  V30 13389 C 1263.79 4.74321 4.18572 0
M  V30 13390 C 1262.45 5.13938 4.25939 0
M  V30 13391 H 1261.72 0.242046 0.700353 0
M  V30 13392 H 1264.37 1.24354 1.45631 0
M  V30 13393 H 1262.67 0.34338 3.90292 0
M  V30 13394 H 1264.37 0.732714 3.94249 0
M  V30 13395 H 1260.96 2.14729 3.70931 0
M  V30 13396 H 1265.14 3.11589 3.86298 0
M  V30 13397 H 1260.4 4.50243 4.13631 0
M  V30 13398 H 1264.57 5.47561 4.30291 0
M  V30 13399 H 1262.2 6.17364 4.43583 0
M  V30 13400 N 1263.78 -1.38018 0.760839 0
M  V30 13401 C 1265.05 -1.94054 0.245437 0
M  V30 13402 C 1265.43 -1.6955 -1.25761 0
M  V30 13403 O 1264.78 -1.03812 -2.03557 0
M  V30 13404 C 1264.99 -3.43681 0.606986 0
M  V30 13405 C 1266.34 -4.20748 0.570673 0
M  V30 13406 O 1267.36 -3.51995 0.545715 0
M  V30 13407 O 1266.22 -5.43327 0.588043 0
M  V30 13408 H 1263.32 -0.825264 0.0535607 0
M  V30 13409 H 1265.86 -1.47369 0.841453 0
M  V30 13410 H 1264.63 -3.55054 1.64476 0
M  V30 13411 H 1264.26 -3.97597 -0.0166576 0
M  V30 13412 N 1265.25 -0.510493 -1.49103 0
M  V30 13413 C 1266.16 0.267176 -2.33074 0
M  V30 13414 C 1267.18 0.958117 -1.45245 0
M  V30 13415 O 1268.36 0.937399 -1.78255 0
M  V30 13416 C 1265.42 1.31212 -3.20911 0
M  V30 13417 C 1264.48 0.633613 -4.24598 0
M  V30 13418 C 1263.71 1.62878 -5.08239 0
M  V30 13419 O 1263.94 2.85958 -4.93543 0
M  V30 13420 O 1262.87 1.17887 -5.90242 0
M  V30 13421 H 1266.7 -0.420384 -3.00776 0
M  V30 13422 H 1264.28 -0.271683 -1.46909 0
M  V30 13423 H 1266.16 1.91647 -3.75299 0
M  V30 13424 H 1264.84 1.98244 -2.55892 0
M  V30 13425 H 1263.75 -0.0107246 -3.74098 0
M  V30 13426 H 1265.08 0.0055777 -4.922 0
M  V30 13427 N 1266.73 1.55688 -0.24474 0
M  V30 13428 C 1267.98 1.99186 0.381167 0
M  V30 13429 C 1268.31 1.13266 1.57748 0
M  V30 13430 O 1267.59 0.195568 1.93514 0
M  V30 13431 C 1267.87 3.51257 0.793142 0
M  V30 13432 C 1267.72 4.47942 -0.408409 0
M  V30 13433 C 1269.04 4.08365 1.64091 0
M  V30 13434 H 1266.16 0.724141 0.137073 0
M  V30 13435 H 1268.8 1.8683 -0.345619 0
M  V30 13436 H 1266.95 3.61917 1.4124 0
M  V30 13437 H 1268.62 4.49265 -1.04682 0
M  V30 13438 H 1266.87 4.20854 -1.05189 0
M  V30 13439 H 1267.54 5.51946 -0.0768531 0
M  V30 13440 H 1270.01 4.00794 1.1182 0
M  V30 13441 H 1268.89 5.1504 1.89802 0
M  V30 13442 H 1269.15 3.56687 2.61202 0
M  V30 13443 N 1268.21 -0.0283989 1.57574 0
M  V30 13444 C 1269.16 -1.02881 2.06601 0
M  V30 13445 C 1270.13 -1.35879 0.955308 0
M  V30 13446 O 1271.31 -1.46205 1.22592 0
M  V30 13447 C 1268.45 -2.32447 2.55073 0
M  V30 13448 C 1267.56 -2.05602 3.79937 0
M  V30 13449 C 1266.7 -3.29043 4.17018 0
M  V30 13450 C 1265.74 -2.97755 5.34797 0
M  V30 13451 N 1264.88 -4.1365 5.67308 0
M  V30 13452 H 1269.72 -0.603772 2.91819 0
M  V30 13453 H 1267.25 -0.286503 1.44283 0
M  V30 13454 H 1269.21 -3.08152 2.81244 0
M  V30 13455 H 1267.84 -2.72672 1.72771 0
M  V30 13456 H 1266.89 -1.2039 3.60847 0
M  V30 13457 H 1268.2 -1.78522 4.65759 0
M  V30 13458 H 1267.36 -4.13115 4.4432 0
M  V30 13459 H 1266.1 -3.59237 3.29849 0
M  V30 13460 H 1265.1 -2.12085 5.07247 0
M  V30 13461 H 1266.33 -2.68839 6.23621 0
M  V30 13462 H 1264.27 -4.43794 4.83097 0
M  V30 13463 H 1264.19 -3.89996 6.47641 0
M  V30 13464 H 1265.46 -4.98594 5.99186 0
M  V30 13465 N 1269.69 -1.54705 -0.300681 0
M  V30 13466 C 1270.96 -1.6468 -1.05546 0
M  V30 13467 C 1271.34 -0.495292 -2.05207 0
M  V30 13468 O 1270.69 0.507944 -2.22783 0
M  V30 13469 C 1270.9 -3.02702 -1.73703 0
M  V30 13470 C 1272.25 -3.59527 -2.25888 0
M  V30 13471 O 1273.27 -3.05156 -1.83735 0
M  V30 13472 O 1272.13 -4.54727 -3.03126 0
M  V30 13473 H 1269.23 -0.667769 -0.487867 0
M  V30 13474 H 1271.77 -1.6705 -0.298743 0
M  V30 13475 H 1270.55 -3.7795 -1.01338 0
M  V30 13476 H 1270.17 -3.0411 -2.5613 0
M  V30 13477 N 1271.17 0.563888 -1.47167 0
M  V30 13478 C 1272.1 1.68689 -1.53685 0
M  V30 13479 C 1273.08 1.57866 -0.389486 0
M  V30 13480 O 1274.26 1.78819 -0.596336 0
M  V30 13481 C 1271.39 3.06887 -1.43311 0
M  V30 13482 C 1270.43 3.36175 -2.62466 0
M  V30 13483 S 1271.27 3.26166 -4.24707 0
M  V30 13484 C 1272.42 4.66868 -4.16875 0
M  V30 13485 H 1272.66 1.62905 -2.48695 0
M  V30 13486 H 1270.19 0.74417 -1.35283 0
M  V30 13487 H 1272.15 3.86604 -1.38014 0
M  V30 13488 H 1270.81 3.10144 -0.496971 0
M  V30 13489 H 1270 4.36907 -2.51253 0
M  V30 13490 H 1269.6 2.64064 -2.64852 0
M  V30 13491 H 1271.9 5.57673 -3.84717 0
M  V30 13492 H 1272.84 4.83139 -5.1767 0
M  V30 13493 H 1273.25 4.44601 -3.47836 0
M  V30 13494 N 1272.64 1.35187 0.810078 0
M  V30 13495 C 1273.87 1.31181 1.59609 0
M  V30 13496 C 1274.28 -0.113556 1.88859 0
M  V30 13497 O 1273.63 -1.07491 1.48968 0
M  V30 13498 C 1273.69 2.04749 2.95496 0
M  V30 13499 C 1273.35 3.53952 2.89079 0
M  V30 13500 C 1274.35 4.48612 2.6276 0
M  V30 13501 C 1272.03 3.96551 3.08306 0
M  V30 13502 C 1274.03 5.83846 2.5574 0
M  V30 13503 C 1271.71 5.31881 3.00909 0
M  V30 13504 C 1272.71 6.2534 2.74661 0
M  V30 13505 O 1272.4 7.58188 2.6722 0
M  V30 13506 H 1272.13 0.452285 0.502408 0
M  V30 13507 H 1274.69 1.78571 1.01497 0
M  V30 13508 H 1272.92 1.51992 3.55577 0
M  V30 13509 H 1274.61 1.93866 3.5661 0
M  V30 13510 H 1275.37 4.1702 2.47628 0
M  V30 13511 H 1271.25 3.24194 3.27749 0
M  V30 13512 H 1274.79 6.56765 2.35172 0
M  V30 13513 H 1270.69 5.63088 3.15598 0
M  V30 13514 H 1271.46 7.68073 2.82853 0
M  V30 13515 N 1274.12 -1.03182 1.19127 0
M  V30 13516 C 1275.54 -1.28773 0.942854 0
M  V30 13517 C 1275.74 -1.97759 -0.386483 0
M  V30 13518 O 1274.79 -2.26365 -1.1187 0
M  V30 13519 C 1276.11 -2.13771 2.11476 0
M  V30 13520 C 1277.66 -2.27089 2.15406 0
M  V30 13521 C 1278.13 -3.15458 3.32039 0
M  V30 13522 N 1279.62 -3.23046 3.31957 0
M  V30 13523 C 1280.36 -3.91604 4.18848 0
M  V30 13524 N 1279.85 -4.62418 5.15889 0
M  V30 13525 N 1281.65 -3.87974 4.06734 0
M  V30 13526 H 1273.8 -0.568165 2.0466 0
M  V30 13527 H 1276.06 -0.31328 0.89474 0
M  V30 13528 H 1275.77 -1.704 3.07663 0
M  V30 13529 H 1275.64 -3.14476 2.0829 0
M  V30 13530 H 1278.03 -2.69693 1.19791 0
M  V30 13531 H 1278.11 -1.25945 2.22647 0
M  V30 13532 H 1277.75 -2.73564 4.27931 0
M  V30 13533 H 1277.68 -4.16654 3.22035 0
M  V30 13534 H 1280.17 -2.7261 2.6171 0
M  V30 13535 H 1280.49 -5.12353 5.78545 0
M  V30 13536 H 1278.83 -4.61293 5.1984 0
M  V30 13537 H 1282.02 -3.31789 3.30202 0
M  V30 13538 H 1282.19 -4.4113 4.74666 0
M  V30 13539 N 1275.6 -0.99472 -1.22242 0
M  V30 13540 C 1277.02 -0.705762 -1.43147 0
M  V30 13541 C 1277.22 0.722908 -1.88086 0
M  V30 13542 O 1276.27 1.49359 -2.03588 0
M  V30 13543 C 1277.59 -1.71288 -2.47145 0
M  V30 13544 C 1279.13 -1.72853 -2.60942 0
M  V30 13545 C 1279.61 -2.72433 -3.68163 0
M  V30 13546 N 1281.1 -2.71039 -3.75623 0
M  V30 13547 C 1281.83 -3.44753 -4.58184 0
M  V30 13548 N 1281.33 -4.28075 -5.44724 0
M  V30 13549 N 1283.12 -3.33451 -4.52512 0
M  V30 13550 H 1275.27 -1.91738 -0.913792 0
M  V30 13551 H 1277.54 -0.82702 -0.463403 0
M  V30 13552 H 1277.24 -2.7353 -2.21075 0
M  V30 13553 H 1277.12 -1.50721 -3.45779 0
M  V30 13554 H 1279.5 -0.713085 -2.86355 0
M  V30 13555 H 1279.59 -1.9749 -1.62577 0
M  V30 13556 H 1279.23 -3.74129 -3.43497 0
M  V30 13557 H 1279.16 -2.45066 -4.66101 0
M  V30 13558 H 1281.65 -2.10581 -3.1379 0
M  V30 13559 H 1281.96 -4.81143 -6.04749 0
M  V30 13560 H 1280.31 -4.32161 -5.44299 0
M  V30 13561 H 1283.5 -2.67797 -3.8393 0
M  V30 13562 H 1283.67 -3.91158 -5.16623 0
M  V30 13563 N 1277.08 1.37613 -0.768148 0
M  V30 13564 C 1278.32 2.00075 -0.331331 0
M  V30 13565 C 1278.66 1.60839 1.08833 0
M  V30 13566 O 1277.93 0.852849 1.74805 0
M  V30 13567 C 1278.22 3.57009 -0.470789 0
M  V30 13568 C 1278.07 4.06166 -1.9326 0
M  V30 13569 C 1279.39 4.39916 0.127111 0
M  V30 13570 H 1276.51 0.726855 -0.121864 0
M  V30 13571 H 1279.15 1.63343 -0.970518 0
M  V30 13572 H 1277.3 3.88431 0.0733688 0
M  V30 13573 H 1278.97 3.85325 -2.53618 0
M  V30 13574 H 1277.21 3.58492 -2.44266 0
M  V30 13575 H 1277.88 5.15219 -1.98125 0
M  V30 13576 H 1280.36 4.14732 -0.337144 0
M  V30 13577 H 1279.24 5.489 -0.000624226 0
M  V30 13578 H 1279.5 4.25018 1.21704 0
M  V30 13579 N 1278.56 0.518393 1.4883 0
M  V30 13580 C 1279.5 -0.264197 2.31095 0
M  V30 13581 C 1280.5 -0.946455 1.40494 0
M  V30 13582 O 1281.7 -0.872161 1.57459 0
M  V30 13583 H 1278.08 -0.104065 0.744765 0
M  V30 13584 H 1280.05 0.449375 2.94997 0
M  V30 13585 C 1278.8 -1.30527 3.2227 0
M  V30 13586 H 1278.12 -0.789695 3.91923 0
M  V30 13587 H 1279.56 -1.82449 3.82738 0
M  V30 13588 C 1278.02 -2.33274 2.43073 0
M  V30 13589 O 1278.55 -3.39493 2.14726 0
M  V30 13590 N 1276.76 -2.06189 2.04779 0
M  V30 13591 H 1276.3 -1.19829 2.28033 0
M  V30 13592 H 1276.26 -2.7516 1.521 0
M  V30 13593 N 1280.03 -1.55556 0.252993 0
M  V30 13594 C 1281.28 -1.9909 -0.37005 0
M  V30 13595 C 1281.61 -1.1412 -1.57502 0
M  V30 13596 O 1280.86 -0.193471 -1.94741 0
M  V30 13597 C 1281.16 -3.47925 -0.817484 0
M  V30 13598 C 1280.83 -4.50027 0.280398 0
M  V30 13599 C 1279.49 -4.77669 0.581914 0
M  V30 13600 C 1281.84 -5.11096 1.02129 0
M  V30 13601 C 1279.17 -5.63652 1.62829 0
M  V30 13602 C 1281.52 -5.98215 2.05723 0
M  V30 13603 C 1280.19 -6.24186 2.36533 0
M  V30 13604 H 1279.46 -0.728522 -0.135411 0
M  V30 13605 H 1282.1 -1.88046 0.36209 0
M  V30 13606 H 1280.41 -3.56333 -1.62893 0
M  V30 13607 H 1282.11 -3.79001 -1.30993 0
M  V30 13608 H 1278.7 -4.28585 0.0352579 0
M  V30 13609 H 1282.88 -4.89784 0.801603 0
M  V30 13610 H 1278.14 -5.82028 1.87227 0
M  V30 13611 H 1282.31 -6.44575 2.6362 0
M  V30 13612 H 1279.94 -6.90607 3.17752 0
M  V30 13613 N 1281.51 0.0200419 -1.57587 0
M  V30 13614 C 1282.44 1.01715 -2.10181 0
M  V30 13615 C 1283.42 1.37136 -1.00636 0
M  V30 13616 O 1284.61 1.45862 -1.2821 0
M  V30 13617 C 1281.74 2.31531 -2.58865 0
M  V30 13618 C 1280.69 2.10327 -3.72755 0
M  V30 13619 C 1280.02 3.45981 -4.07678 0
M  V30 13620 C 1281.32 1.4821 -5.0083 0
M  V30 13621 H 1283.01 0.579307 -2.93742 0
M  V30 13622 H 1280.56 0.277211 -1.41307 0
M  V30 13623 H 1282.51 3.01623 -2.94281 0
M  V30 13624 H 1281.24 2.77392 -1.72399 0
M  V30 13625 H 1279.89 1.42665 -3.37701 0
M  V30 13626 H 1279.54 3.89508 -3.18265 0
M  V30 13627 H 1279.24 3.32616 -4.84397 0
M  V30 13628 H 1280.77 4.17421 -4.45637 0
M  V30 13629 H 1282.18 2.08232 -5.34146 0
M  V30 13630 H 1280.58 1.45393 -5.82221 0
M  V30 13631 H 1281.65 0.448942 -4.82817 0
M  V30 13632 N 1282.99 1.54862 0.292472 0
M  V30 13633 C 1284.24 1.74548 1.02661 0
M  V30 13634 C 1284.57 0.535895 1.86972 0
M  V30 13635 O 1283.82 -0.482016 1.89671 0
M  V30 13636 C 1284.12 2.99214 1.95463 0
M  V30 13637 C 1283.79 4.32628 1.2706 0
M  V30 13638 C 1282.45 4.68892 1.08138 0
M  V30 13639 C 1284.8 5.15296 0.782278 0
M  V30 13640 C 1282.13 5.85397 0.39081 0
M  V30 13641 C 1284.48 6.32512 0.105392 0
M  V30 13642 C 1283.14 6.67431 -0.0957097 0
M  V30 13643 H 1282.41 0.638717 0.375662 0
M  V30 13644 H 1285.06 1.89125 0.300672 0
M  V30 13645 H 1283.37 2.79454 2.74613 0
M  V30 13646 H 1285.06 3.1164 2.52352 0
M  V30 13647 H 1281.65 4.04113 1.42796 0
M  V30 13648 H 1285.84 4.87771 0.916151 0
M  V30 13649 H 1281.09 6.10989 0.224095 0
M  V30 13650 H 1285.27 6.95833 -0.280845 0
M  V30 13651 H 1282.89 7.57562 -0.63281 0
M  V30 13652 N 1284.47 -0.556076 1.47464 0
M  V30 13653 C 1285.72 -1.31061 1.53842 0
M  V30 13654 C 1286.04 -1.93943 0.202806 0
M  V30 13655 O 1285.31 -1.7999 -0.773338 0
M  V30 13656 H 1283.89 -0.486696 0.566689 0
M  V30 13657 H 1286.55 -0.64924 1.83769 0
M  V30 13658 H 1285.65 -2.10354 2.30559 0
M  V30 13659 N 1285.95 -1.35615 -0.802897 0
M  V30 13660 C 1287.22 -1.19655 -1.54732 0
M  V30 13661 C 1287.6 0.222827 -2.09921 0
M  V30 13662 O 1286.95 1.2268 -1.92774 0
M  V30 13663 C 1287.16 -2.26761 -2.65293 0
M  V30 13664 C 1288.51 -2.62754 -3.33535 0
M  V30 13665 O 1289.53 -2.25702 -2.75567 0
M  V30 13666 O 1288.39 -3.26476 -4.38264 0
M  V30 13667 H 1285.49 -0.465079 -0.683835 0
M  V30 13668 H 1288.03 -1.47307 -0.84254 0
M  V30 13669 H 1286.81 -3.21946 -2.22411 0
M  V30 13670 H 1286.43 -2.00399 -3.43404 0
M  V30 13671 N 1287.43 1.02549 -1.19673 0
M  V30 13672 C 1288.67 1.75408 -0.995732 0
M  V30 13673 C 1288.99 1.89773 0.473863 0
M  V30 13674 O 1290.19 2.59638 0.793762 0
M  V30 13675 C 1288.65 3.15444 -1.73273 0
M  V30 13676 C 1288.26 3.09121 -3.24266 0
M  V30 13677 C 1290 3.92575 -1.61509 0
M  V30 13678 C 1287.91 4.44109 -3.9054 0
M  V30 13679 H 1286.84 0.657569 -0.368944 0
M  V30 13680 H 1289.49 1.14739 -1.43203 0
M  V30 13681 H 1287.87 3.76601 -1.22425 0
M  V30 13682 H 1289.05 2.57325 -3.82257 0
M  V30 13683 H 1287.36 2.45485 -3.36342 0
M  V30 13684 H 1289.96 4.92428 -2.08372 0
M  V30 13685 H 1290.3 4.12382 -0.569804 0
M  V30 13686 H 1290.83 3.38027 -2.09721 0
M  V30 13687 H 1287.57 4.29506 -4.95182 0
M  V30 13688 H 1287.09 4.95947 -3.37337 0
M  V30 13689 H 1288.77 5.12982 -3.94282 0
M  V30 13690 N 1288.9 1.00119 1.21713 0
M  V30 13691 C 1290.15 0.682733 1.90962 0
M  V30 13692 C 1290.48 -0.784131 1.77665 0
M  V30 13693 O 1289.76 -1.56799 1.15084 0
M  V30 13694 C 1290.04 1.09975 3.42896 0
M  V30 13695 C 1289.89 2.62578 3.65202 0
M  V30 13696 C 1291.21 0.659247 4.35134 0
M  V30 13697 H 1288.33 0.249501 0.693483 0
M  V30 13698 H 1290.97 1.24619 1.43423 0
M  V30 13699 H 1289.12 0.620334 3.83515 0
M  V30 13700 H 1290.8 3.18254 3.33934 0
M  V30 13701 H 1289.04 3.04268 3.09198 0
M  V30 13702 H 1289.71 2.86809 4.7164 0
M  V30 13703 H 1292.19 1.07116 4.02076 0
M  V30 13704 H 1291.06 0.979241 5.40095 0
M  V30 13705 H 1291.32 -0.439777 4.39907 0
M  V30 13706 N 1290.38 -1.37203 0.775435 0
M  V30 13707 C 1291.33 -2.30228 0.162388 0
M  V30 13708 C 1292.3 -1.51284 -0.685747 0
M  V30 13709 O 1293.48 -1.7984 -0.637342 0
M  V30 13710 C 1290.62 -3.37762 -0.707858 0
M  V30 13711 C 1289.74 -4.31714 0.157287 0
M  V30 13712 C 1288.87 -5.26325 -0.718012 0
M  V30 13713 C 1287.91 -6.11918 0.149442 0
M  V30 13714 N 1287.05 -6.9876 -0.684043 0
M  V30 13715 H 1291.89 -2.82073 0.961184 0
M  V30 13716 H 1289.42 -1.38854 0.485587 0
M  V30 13717 H 1291.38 -3.98741 -1.22726 0
M  V30 13718 H 1290.01 -2.87273 -1.47222 0
M  V30 13719 H 1289.06 -3.7201 0.794533 0
M  V30 13720 H 1290.38 -4.91909 0.826262 0
M  V30 13721 H 1289.53 -5.92526 -1.30376 0
M  V30 13722 H 1288.27 -4.6655 -1.42066 0
M  V30 13723 H 1287.27 -5.44692 0.747697 0
M  V30 13724 H 1288.5 -6.73766 0.849476 0
M  V30 13725 H 1286.45 -6.41508 -1.37124 0
M  V30 13726 H 1286.36 -7.55965 -0.0724464 0
M  V30 13727 H 1287.63 -7.69346 -1.25407 0
M  V30 13728 N 1291.86 -0.526279 -1.48553 0
M  V30 13729 C 1293.11 0.00918008 -2.02798 0
M  V30 13730 C 1293.44 1.34284 -1.4029 0
M  V30 13731 O 1292.71 1.86639 -0.547355 0
M  V30 13732 C 1293 0.135102 -3.59846 0
M  V30 13733 C 1292.85 -1.22347 -4.32841 0
M  V30 13734 C 1294.17 0.863673 -4.31542 0
M  V30 13735 H 1291.29 0.00186216 -0.736998 0
M  V30 13736 H 1293.93 -0.682591 -1.77315 0
M  V30 13737 H 1292.08 0.724279 -3.81689 0
M  V30 13738 H 1293.75 -1.85347 -4.22427 0
M  V30 13739 H 1291.99 -1.80631 -3.94405 0
M  V30 13740 H 1292.67 -1.08839 -5.41164 0
M  V30 13741 H 1295.14 0.363734 -4.14507 0
M  V30 13742 H 1294.02 0.92067 -5.41124 0
M  V30 13743 H 1294.28 1.91313 -3.98562 0
M  V30 13744 N 1293.34 1.5542 -0.261239 0
M  V30 13745 C 1294.57 2.03687 0.363225 0
M  V30 13746 C 1294.98 1.14007 1.50492 0
M  V30 13747 O 1294.34 0.157349 1.8182 0
M  V30 13748 C 1294.39 3.51184 0.857435 0
M  V30 13749 O 1294.11 4.37449 -0.238776 0
M  V30 13750 C 1295.61 4.15277 1.55113 0
M  V30 13751 H 1292.83 0.665641 0.0846356 0
M  V30 13752 H 1295.37 2.00761 -0.389288 0
M  V30 13753 H 1293.53 3.54599 1.56008 0
M  V30 13754 H 1293.94 5.24316 0.138821 0
M  V30 13755 H 1295.42 5.20129 1.8485 0
M  V30 13756 H 1295.89 3.62619 2.47799 0
M  V30 13757 H 1296.5 4.15826 0.892695 0
M  V30 13758 N 1294.82 -0.0116844 1.57596 0
M  V30 13759 C 1296.23 -0.55604 1.78228 0
M  V30 13760 C 1296.58 -1.74624 0.894474 0
M  V30 13761 O 1295.7 -2.16196 0.0938498 0
M  V30 13762 C 1296.3 -1.0155 3.23223 0
M  V30 13763 C 1294.86 -1.50525 3.44992 0
M  V30 13764 C 1294 -0.451133 2.73606 0
M  V30 13765 H 1296.95 0.214516 1.57243 0
M  V30 13766 H 1296.98 -1.88208 3.30693 0
M  V30 13767 H 1296.49 -0.149048 3.87814 0
M  V30 13768 H 1294.59 -2.39298 2.856 0
M  V30 13769 H 1294.7 -1.54076 4.53649 0
M  V30 13770 H 1293.07 -0.910135 2.37884 0
M  V30 13771 H 1293.85 0.406152 3.40889 0
M  V30 13772 N 1296.29 -1.55015 -0.284256 0
M  V30 13773 C 1297.52 -1.79431 -1.04016 0
M  V30 13774 C 1297.94 -0.560254 -1.79563 0
M  V30 13775 O 1297.3 0.489804 -1.74558 0
M  V30 13776 C 1297.35 -3.01162 -1.98328 0
M  V30 13777 O 1296.45 -2.75459 -3.06914 0
M  V30 13778 H 1295.79 -0.593391 -0.297965 0
M  V30 13779 H 1298.32 -2.02136 -0.316585 0
M  V30 13780 H 1298.33 -3.29589 -2.40489 0
M  V30 13781 H 1297.01 -3.90634 -1.42751 0
M  V30 13782 H 1295.59 -2.58096 -2.69148 0
M  V30 13783 N 1297.77 0.548248 -1.47757 0
M  V30 13784 C 1299 1.335 -1.58722 0
M  V30 13785 C 1299.42 1.86549 -0.241034 0
M  V30 13786 O 1298.78 1.63447 0.784517 0
M  V30 13787 C 1298.83 2.47457 -2.62293 0
M  V30 13788 O 1297.93 3.49956 -2.18185 0
M  V30 13789 H 1297.27 0.396166 -0.532868 0
M  V30 13790 H 1299.8 0.66164 -1.93607 0
M  V30 13791 H 1299.81 2.93901 -2.82995 0
M  V30 13792 H 1298.49 2.08203 -3.60034 0
M  V30 13793 H 1297.06 3.09755 -2.0762 0
M  V30 13794 N 1299.25 1.36039 0.795694 0
M  V30 13795 C 1300.2 1.29853 1.90806 0
M  V30 13796 C 1301.17 0.168387 1.65244 0
M  V30 13797 O 1302.35 0.353879 1.8749 0
M  V30 13798 C 1299.49 1.08737 3.27521 0
M  V30 13799 C 1298.6 2.30771 3.65197 0
M  V30 13800 C 1297.74 2.02718 4.90998 0
M  V30 13801 C 1296.78 3.20746 5.21333 0
M  V30 13802 N 1295.92 2.92399 6.38316 0
M  V30 13803 H 1300.76 2.2497 1.95429 0
M  V30 13804 H 1298.29 1.11819 0.955771 0
M  V30 13805 H 1300.25 0.945236 4.06351 0
M  V30 13806 H 1298.88 0.172781 3.22337 0
M  V30 13807 H 1297.93 2.5581 2.81541 0
M  V30 13808 H 1299.24 3.18869 3.83568 0
M  V30 13809 H 1298.4 1.85398 5.77679 0
M  V30 13810 H 1297.14 1.11921 4.74684 0
M  V30 13811 H 1296.14 3.38632 4.33138 0
M  V30 13812 H 1297.37 4.1236 5.3957 0
M  V30 13813 H 1295.31 2.04207 6.23406 0
M  V30 13814 H 1295.23 3.74034 6.56989 0
M  V30 13815 H 1296.5 2.78643 7.27996 0
M  V30 13816 N 1300.73 -1.01913 1.20215 0
M  V30 13817 C 1301.97 -1.7573 1.01226 0
M  V30 13818 C 1302.31 -1.88799 -0.45481 0
M  V30 13819 O 1301.58 -1.41196 -1.33768 0
M  V30 13820 C 1301.87 -3.17795 1.69348 0
M  V30 13821 C 1301.72 -3.12536 3.23483 0
M  V30 13822 C 1303.04 -4.16409 1.42448 0
M  V30 13823 H 1300.16 -0.637889 0.369144 0
M  V30 13824 H 1302.8 -1.18907 1.48193 0
M  V30 13825 H 1300.95 -3.66311 1.29416 0
M  V30 13826 H 1302.62 -2.71843 3.72692 0
M  V30 13827 H 1300.86 -2.49997 3.54519 0
M  V30 13828 H 1301.53 -4.12949 3.66302 0
M  V30 13829 H 1304.01 -3.76537 1.77086 0
M  V30 13830 H 1302.89 -5.13983 1.92648 0
M  V30 13831 H 1303.15 -4.407 0.351574 0
M  V30 13832 N 1302.21 -1.00763 -1.2118 0
M  V30 13833 C 1303.45 -0.692851 -1.90598 0
M  V30 13834 C 1303.79 0.774698 -1.78079 0
M  V30 13835 O 1303.06 1.56186 -1.15914 0
M  V30 13836 C 1303.34 -1.11792 -3.42308 0
M  V30 13837 C 1303.2 -2.64511 -3.63805 0
M  V30 13838 C 1304.52 -0.682314 -4.34779 0
M  V30 13839 H 1301.63 -0.253175 -0.69215 0
M  V30 13840 H 1304.28 -1.25378 -1.4276 0
M  V30 13841 H 1302.43 -0.640665 -3.83181 0
M  V30 13842 H 1304.1 -3.20021 -3.32242 0
M  V30 13843 H 1302.34 -3.05903 -3.0758 0
M  V30 13844 H 1303.01 -2.89306 -4.70113 0
M  V30 13845 H 1305.49 -1.09247 -4.01503 0
M  V30 13846 H 1304.36 -1.00787 -5.39568 0
M  V30 13847 H 1304.63 0.416441 -4.40134 0
M  V30 13848 N 1303.68 1.3679 -0.7827 0
M  V30 13849 C 1304.93 1.99023 -0.351316 0
M  V30 13850 C 1305.25 1.62436 1.07887 0
M  V30 13851 O 1304.52 0.895084 1.74256 0
M  V30 13852 H 1303.1 0.736141 -0.126909 0
M  V30 13853 H 1305.77 1.67095 -1.00325 0
M  V30 13854 H 1304.86 3.09015 -0.43774 0
M  V30 13855 N 1305.16 0.53415 1.48272 0
M  V30 13856 C 1306.44 -0.0630181 1.95498 0
M  V30 13857 C 1306.82 -1.50877 1.47646 0
M  V30 13858 O 1306.17 -2.17358 0.704829 0
M  V30 13859 C 1306.38 0.0585475 3.48951 0
M  V30 13860 C 1307.73 -0.0985978 4.24486 0
M  V30 13861 O 1308.75 -0.0150438 3.56197 0
M  V30 13862 O 1307.61 -0.274356 5.45811 0
M  V30 13863 H 1304.7 -0.0769841 0.823409 0
M  V30 13864 H 1307.25 0.599043 1.58775 0
M  V30 13865 H 1306.02 1.06549 3.76514 0
M  V30 13866 H 1305.64 -0.642175 3.9238 0
M  V30 13867 N 1306.64 -1.55279 0.269478 0
M  V30 13868 C 1307.57 -2.18397 -0.66165 0
M  V30 13869 C 1308.55 -1.1431 -1.15637 0
M  V30 13870 O 1309.74 -1.42808 -1.23037 0
M  V30 13871 C 1306.86 -2.80272 -1.90172 0
M  V30 13872 C 1305.91 -3.97612 -1.54295 0
M  V30 13873 S 1306.74 -5.31828 -0.625995 0
M  V30 13874 C 1307.9 -5.97169 -1.87456 0
M  V30 13875 H 1308.13 -2.97036 -0.125326 0
M  V30 13876 H 1305.66 -1.54306 0.0537711 0
M  V30 13877 H 1307.62 -3.16553 -2.61351 0
M  V30 13878 H 1306.28 -2.01538 -2.40918 0
M  V30 13879 H 1305.48 -4.39576 -2.46555 0
M  V30 13880 H 1305.08 -3.62725 -0.911395 0
M  V30 13881 H 1307.37 -6.16059 -2.81917 0
M  V30 13882 H 1308.31 -6.92073 -1.49803 0
M  V30 13883 H 1308.72 -5.26469 -2.03693 0
M  V30 13884 N 1308.12 0.00332656 -1.576 0
M  V30 13885 C 1309.08 0.980628 -2.07163 0
M  V30 13886 C 1310.08 1.27455 -0.980402 0
M  V30 13887 O 1311.27 1.22029 -1.24317 0
M  V30 13888 C 1308.4 2.30647 -2.51028 0
M  V30 13889 H 1309.6 0.551982 -2.94776 0
M  V30 13890 H 1307.15 0.250728 -1.54276 0
M  V30 13891 H 1307.88 2.78207 -1.66647 0
M  V30 13892 H 1307.67 2.10635 -3.30719 0
M  V30 13893 H 1309.16 3.00761 -2.89711 0
M  V30 13894 N 1309.6 1.55164 0.276031 0
M  V30 13895 C 1310.53 1.90844 1.34539 0
M  V30 13896 C 1311.51 0.769968 1.51676 0
M  V30 13897 O 1312.69 1.02785 1.64769 0
M  V30 13898 C 1309.82 2.17769 2.70543 0
M  V30 13899 C 1308.78 3.33592 2.68142 0
M  V30 13900 C 1308.1 3.45991 4.07669 0
M  V30 13901 C 1309.4 4.70064 2.27678 0
M  V30 13902 H 1311.1 2.80412 1.04926 0
M  V30 13903 H 1308.64 1.34918 0.503303 0
M  V30 13904 H 1310.6 2.41317 3.45462 0
M  V30 13905 H 1309.32 1.24997 3.01734 0
M  V30 13906 H 1307.98 3.10007 1.95681 0
M  V30 13907 H 1307.63 2.50691 4.36077 0
M  V30 13908 H 1307.33 4.23862 4.06958 0
M  V30 13909 H 1308.85 3.71828 4.84331 0
M  V30 13910 H 1310.26 4.93176 2.92319 0
M  V30 13911 H 1308.66 5.50829 2.38134 0
M  V30 13912 H 1309.73 4.69091 1.22808 0
M  V30 13913 N 1311.07 -0.540404 1.48045 0
M  V30 13914 C 1312.3 -1.31986 1.58944 0
M  V30 13915 C 1312.71 -1.87608 0.244889 0
M  V30 13916 O 1312.06 -1.66576 -0.774467 0
M  V30 13917 C 1312.12 -2.51547 2.56835 0
M  V30 13918 C 1311.78 -2.17089 4.02146 0
M  V30 13919 C 1312.78 -1.73379 4.90138 0
M  V30 13920 C 1310.46 -2.27932 4.47607 0
M  V30 13921 C 1312.46 -1.40964 6.21617 0
M  V30 13922 C 1310.14 -1.95129 5.7911 0
M  V30 13923 C 1311.14 -1.51715 6.65937 0
M  V30 13924 O 1310.83 -1.19337 7.94993 0
M  V30 13925 H 1310.56 -0.408028 0.538971 0
M  V30 13926 H 1313.12 -0.659748 1.94516 0
M  V30 13927 H 1311.35 -3.20505 2.16364 0
M  V30 13928 H 1313.04 -3.13617 2.57681 0
M  V30 13929 H 1313.8 -1.64481 4.56258 0
M  V30 13930 H 1309.68 -2.6068 3.8022 0
M  V30 13931 H 1313.22 -1.07005 6.89344 0
M  V30 13932 H 1309.12 -2.03664 6.12528 0
M  V30 13933 H 1309.89 -1.32824 8.07651 0
M  V30 13934 N 1312.55 -1.36459 -0.788468 0
M  V30 13935 C 1313.49 -1.25222 -1.90774 0
M  V30 13936 C 1314.46 -0.136188 -1.62029 0
M  V30 13937 O 1315.65 -0.307486 -1.85975 0
M  V30 13938 C 1312.77 -0.932287 -3.25616 0
M  V30 13939 C 1311.82 -2.0629 -3.73292 0
M  V30 13940 S 1312.65 -3.68084 -3.8894 0
M  V30 13941 C 1313.81 -3.38206 -5.26657 0
M  V30 13942 H 1314.04 -2.19959 -2.00013 0
M  V30 13943 H 1311.58 -1.21886 -0.947801 0
M  V30 13944 H 1313.53 -0.754514 -4.03506 0
M  V30 13945 H 1312.19 -0.00268413 -3.141 0
M  V30 13946 H 1311.39 -1.79363 -4.71004 0
M  V30 13947 H 1310.99 -2.19994 -3.02454 0
M  V30 13948 H 1313.28 -2.92158 -6.11269 0
M  V30 13949 H 1314.22 -4.35185 -5.58587 0
M  V30 13950 H 1314.63 -2.73531 -4.93802 0
M  V30 13951 N 1314.03 1.01274 -1.20754 0
M  V30 13952 C 1315.28 1.75191 -1.02156 0
M  V30 13953 C 1315.61 1.89038 0.444791 0
M  V30 13954 O 1314.88 1.41903 1.33018 0
M  V30 13955 C 1315.17 3.16892 -1.71031 0
M  V30 13956 C 1315.02 3.10816 -3.25136 0
M  V30 13957 C 1316.34 4.15648 -1.44654 0
M  V30 13958 H 1313.46 0.635922 -0.372521 0
M  V30 13959 H 1316.1 1.18119 -1.48822 0
M  V30 13960 H 1314.25 3.6562 -1.31357 0
M  V30 13961 H 1315.92 2.69863 -3.74128 0
M  V30 13962 H 1314.17 2.48113 -3.5584 0
M  V30 13963 H 1314.84 4.11001 -3.68487 0
M  V30 13964 H 1317.31 3.75592 -1.7908 0
M  V30 13965 H 1316.19 5.12954 -1.95371 0
M  V30 13966 H 1316.45 4.40507 -0.37494 0
M  V30 13967 N 1315.51 1.01404 1.20644 0
M  V30 13968 C 1316.44 0.540288 2.22741 0
M  V30 13969 C 1317.45 -0.375953 1.584 0
M  V30 13970 O 1318.64 -0.174708 1.77643 0
M  V30 13971 C 1315.74 -0.233766 3.38093 0
M  V30 13972 C 1314.92 0.683759 4.32023 0
M  V30 13973 C 1313.98 -0.0422681 5.26183 0
M  V30 13974 O 1313 0.579392 5.66243 0
M  V30 13975 N 1314.2 -1.31794 5.65341 0
M  V30 13976 H 1316.97 1.41831 2.64015 0
M  V30 13977 H 1314.53 0.891265 1.35159 0
M  V30 13978 H 1316.52 -0.728645 3.98087 0
M  V30 13979 H 1315.09 -1.01306 2.9573 0
M  V30 13980 H 1314.31 1.35899 3.70034 0
M  V30 13981 H 1315.6 1.30786 4.91704 0
M  V30 13982 H 1315 -1.84399 5.34802 0
M  V30 13983 H 1313.55 -1.7576 6.27656 0
M  V30 13984 N 1316.99 -1.36373 0.789944 0
M  V30 13985 C 1317.94 -2.31928 0.17666 0
M  V30 13986 C 1318.93 -1.55831 -0.664316 0
M  V30 13987 O 1320.14 -1.71089 -0.559341 0
M  V30 13988 H 1316.51 -0.751021 0.038353 0
M  V30 13989 H 1318.48 -2.81216 0.998004 0
M  V30 13990 C 1317.23 -3.41112 -0.673646 0
M  V30 13991 H 1316.55 -3.99784 -0.0358875 0
M  V30 13992 H 1317.99 -4.10292 -1.06942 0
M  V30 13993 C 1316.45 -2.82728 -1.83211 0
M  V30 13994 O 1316.98 -2.74935 -2.92871 0
M  V30 13995 N 1315.19 -2.4001 -1.6384 0
M  V30 13996 H 1314.74 -2.46549 -0.746423 0
M  V30 13997 H 1314.69 -2.01294 -2.41512 0
M  V30 13998 N 1318.47 -0.542005 -1.47987 0
M  V30 13999 C 1319.74 0.0526494 -1.95529 0
M  V30 14000 C 1320.12 1.50092 -1.48444 0
M  V30 14001 O 1319.47 2.16981 -0.716347 0
M  V30 14002 C 1319.68 -0.0770524 -3.48915 0
M  V30 14003 C 1321.03 0.0760849 -4.24532 0
M  V30 14004 O 1322.05 -0.00384644 -3.562 0
M  V30 14005 O 1320.91 0.245406 -5.45949 0
M  V30 14006 H 1318.01 0.0726163 -0.823806 0
M  V30 14007 H 1320.55 -0.607454 -1.58455 0
M  V30 14008 H 1319.32 -1.08544 -3.75944 0
M  V30 14009 H 1318.95 0.621357 -3.92715 0
M  V30 14010 N 1319.94 1.55134 -0.277709 0
M  V30 14011 C 1320.87 2.256 0.602232 0
M  V30 14012 C 1321.85 1.24708 1.15681 0
M  V30 14013 O 1323.04 1.53433 1.19046 0
M  V30 14014 C 1320.17 2.97907 1.78519 0
M  V30 14015 C 1319.12 4.0575 1.36203 0
M  V30 14016 C 1318.45 4.65644 2.62829 0
M  V30 14017 C 1319.75 5.19801 0.510327 0
M  V30 14018 H 1321.44 2.99396 0.0145622 0
M  V30 14019 H 1318.99 1.43999 0.00556389 0
M  V30 14020 H 1320.94 3.45915 2.40668 0
M  V30 14021 H 1319.67 2.21649 2.39873 0
M  V30 14022 H 1318.33 3.58557 0.763726 0
M  V30 14023 H 1317.97 3.86053 3.22447 0
M  V30 14024 H 1317.67 5.38463 2.35227 0
M  V30 14025 H 1319.2 5.16403 3.25823 0
M  V30 14026 H 1320.61 5.63845 1.03689 0
M  V30 14027 H 1319.01 5.99197 0.329073 0
M  V30 14028 H 1320.08 4.82614 -0.470273 0
M  V30 14029 N 1321.42 0.00503138 1.57599 0
M  V30 14030 C 1322.7 -0.716079 1.82021 0
M  V30 14031 C 1323.08 -1.91707 0.883829 0
M  V30 14032 O 1322.43 -2.28404 -0.0662812 0
M  V30 14033 C 1322.64 -1.11706 3.3064 0
M  V30 14034 C 1323.98 -1.51881 3.96506 0
M  V30 14035 O 1325.01 -1.21071 3.34993 0
M  V30 14036 O 1323.87 -2.09191 5.04877 0
M  V30 14037 H 1320.96 -0.349112 0.7497 0
M  V30 14038 H 1323.51 0.030871 1.69672 0
M  V30 14039 H 1322.28 -0.261223 3.90427 0
M  V30 14040 H 1321.9 -1.92295 3.48006 0
M  V30 14041 N 1322.9 -1.55308 -0.267798 0
M  V30 14042 C 1323.81 -1.91649 -1.35307 0
M  V30 14043 C 1324.83 -0.814349 -1.53767 0
M  V30 14044 O 1326 -1.11388 -1.67793 0
M  V30 14045 C 1323.07 -2.18553 -2.69138 0
M  V30 14046 C 1322.13 -3.42083 -2.5938 0
M  V30 14047 C 1321.36 -3.67695 -3.86828 0
M  V30 14048 O 1321.58 -2.95728 -4.87751 0
M  V30 14049 O 1320.52 -4.61229 -3.86718 0
M  V30 14050 H 1324.34 -2.84044 -1.07483 0
M  V30 14051 H 1321.93 -1.41921 -0.466772 0
M  V30 14052 H 1323.81 -2.3726 -3.48261 0
M  V30 14053 H 1322.49 -1.2934 -2.96737 0
M  V30 14054 H 1321.39 -3.28706 -1.78614 0
M  V30 14055 H 1322.73 -4.31532 -2.36729 0
M  V30 14056 N 1324.38 0.532545 -1.4833 0
M  V30 14057 C 1325.31 1.65325 -1.58746 0
M  V30 14058 C 1326.32 1.5581 -0.471925 0
M  V30 14059 O 1327.51 1.62317 -0.742656 0
M  V30 14060 C 1324.61 3.03957 -1.49877 0
M  V30 14061 C 1323.78 3.38979 -2.76427 0
M  V30 14062 C 1322.84 4.56881 -2.61048 0
M  V30 14063 O 1321.87 4.6023 -3.34928 0
M  V30 14064 N 1323.07 5.54898 -1.70496 0
M  V30 14065 H 1325.84 1.56827 -2.55393 0
M  V30 14066 H 1323.4 0.71976 -1.45021 0
M  V30 14067 H 1325.39 3.80702 -1.37288 0
M  V30 14068 H 1323.96 3.06548 -0.612158 0
M  V30 14069 H 1323.18 2.51438 -3.03599 0
M  V30 14070 H 1324.47 3.59163 -3.60388 0
M  V30 14071 H 1323.87 5.54968 -1.0967 0
M  V30 14072 H 1322.42 6.3087 -1.63847 0
M  V30 14073 N 1325.86 1.36875 0.78122 0
M  V30 14074 C 1327.08 1.349 1.57533 0
M  V30 14075 C 1327.51 -0.0655249 1.87986 0
M  V30 14076 O 1326.86 -1.03986 1.48515 0
M  V30 14077 C 1326.91 2.18562 2.86815 0
M  V30 14078 O 1326.02 1.58374 3.80777 0
M  V30 14079 H 1325.36 0.461355 0.477543 0
M  V30 14080 H 1327.89 1.80271 0.96766 0
M  V30 14081 H 1327.9 2.31436 3.36008 0
M  V30 14082 H 1326.57 3.21385 2.63978 0
M  V30 14083 H 1325.15 1.54487 3.39394 0
M  V30 14084 N 1327.33 -1.00632 1.21289 0
M  V30 14085 C 1328.58 -1.74647 1.03084 0
M  V30 14086 C 1328.91 -1.89271 -0.43476 0
M  V30 14087 O 1328.19 -1.42607 -1.32263 0
M  V30 14088 C 1328.47 -3.15981 1.72709 0
M  V30 14089 C 1328.32 -3.09088 3.2678 0
M  V30 14090 C 1329.64 -4.14875 1.46857 0
M  V30 14091 H 1326.76 -0.633938 0.375889 0
M  V30 14092 H 1329.4 -1.17328 1.49446 0
M  V30 14093 H 1327.55 -3.64918 1.33294 0
M  V30 14094 H 1329.23 -2.67875 3.75554 0
M  V30 14095 H 1327.47 -2.46223 3.57151 0
M  V30 14096 H 1328.14 -4.09041 3.70661 0
M  V30 14097 H 1330.62 -3.74637 1.81069 0
M  V30 14098 H 1329.49 -5.1191 1.98088 0
M  V30 14099 H 1329.75 -4.40302 0.398296 0
M  V30 14100 N 1328.81 -1.02043 -1.20104 0
M  V30 14101 C 1330.06 -0.707271 -1.88893 0
M  V30 14102 C 1330.37 0.766617 -1.79951 0
M  V30 14103 O 1331.58 1.19248 -2.4391 0
M  V30 14104 C 1330.04 -1.2147 -3.38782 0
M  V30 14105 C 1329.64 -2.71576 -3.56301 0
M  V30 14106 C 1331.39 -0.977146 -4.13101 0
M  V30 14107 C 1329.29 -3.15781 -5.00037 0
M  V30 14108 H 1328.22 -0.26086 -0.707438 0
M  V30 14109 H 1330.88 -1.23361 -1.35846 0
M  V30 14110 H 1329.26 -0.616315 -3.91175 0
M  V30 14111 H 1330.43 -3.36997 -3.14276 0
M  V30 14112 H 1328.75 -2.93517 -2.95359 0
M  V30 14113 H 1331.34 -1.28278 -5.19085 0
M  V30 14114 H 1331.69 0.0862909 -4.16211 0
M  V30 14115 H 1332.22 -1.5391 -3.6682 0
M  V30 14116 H 1328.96 -4.21417 -5.02084 0
M  V30 14117 H 1328.48 -2.55083 -5.42856 0
M  V30 14118 H 1330.16 -3.08637 -5.6864 0
M  V30 14119 N 1330.29 1.35952 -0.797165 0
M  V30 14120 C 1331.52 2.0328 -0.385316 0
M  V30 14121 C 1331.93 1.60095 1.00076 0
M  V30 14122 O 1331.29 0.794014 1.64322 0
M  V30 14123 C 1331.34 3.5871 -0.448284 0
M  V30 14124 O 1331.06 4.00323 -1.7797 0
M  V30 14125 C 1332.56 4.43291 -0.0280465 0
M  V30 14126 H 1329.78 0.652192 -0.157756 0
M  V30 14127 H 1332.33 1.73769 -1.07817 0
M  V30 14128 H 1330.48 3.86903 0.196224 0
M  V30 14129 H 1330.9 4.94941 -1.73592 0
M  V30 14130 H 1332.37 5.51862 -0.123234 0
M  V30 14131 H 1332.85 4.27059 1.02552 0
M  V30 14132 H 1333.45 4.20375 -0.645343 0
M  V30 14133 N 1331.77 0.549846 1.47697 0
M  V30 14134 C 1333.05 -0.0422793 1.95554 0
M  V30 14135 C 1333.43 -1.49303 1.49238 0
M  V30 14136 O 1332.77 -2.16598 0.727844 0
M  V30 14137 C 1332.98 0.0955552 3.48869 0
M  V30 14138 C 1334.33 -0.0535698 4.24566 0
M  V30 14139 O 1335.36 0.0227365 3.56193 0
M  V30 14140 O 1334.21 -0.21645 5.46071 0
M  V30 14141 H 1331.31 -0.0682465 0.824179 0
M  V30 14142 H 1333.85 0.615849 1.58131 0
M  V30 14143 H 1332.63 1.10536 3.75363 0
M  V30 14144 H 1332.25 -0.600522 3.93039 0
M  V30 14145 N 1333.25 -1.54984 0.285932 0
M  V30 14146 C 1334.49 -1.99436 -0.32709 0
M  V30 14147 C 1334.82 -1.17582 -1.55562 0
M  V30 14148 O 1334.09 -0.268002 -1.94058 0
M  V30 14149 H 1332.67 -0.736662 -0.123846 0
M  V30 14150 H 1335.33 -1.90881 0.393774 0
M  V30 14151 H 1334.42 -3.0609 -0.609523 0
M  V30 14152 N 1334.72 -0.0133892 -1.57594 0
M  V30 14153 C 1335.95 0.67827 -1.95149 0
M  V30 14154 C 1336.36 1.67089 -0.887572 0
M  V30 14155 O 1335.71 1.8316 0.140774 0
M  V30 14156 C 1335.77 1.45441 -3.28766 0
M  V30 14157 C 1335.43 0.621889 -4.52749 0
M  V30 14158 C 1336.43 -0.0961541 -5.19811 0
M  V30 14159 C 1334.11 0.563917 -4.99124 0
M  V30 14160 C 1336.11 -0.86101 -6.31558 0
M  V30 14161 C 1333.79 -0.204654 -6.10757 0
M  V30 14162 C 1334.79 -0.915839 -6.76832 0
M  V30 14163 O 1334.48 -1.67184 -7.86323 0
M  V30 14164 H 1334.21 0.192983 -0.647869 0
M  V30 14165 H 1336.77 -0.0646816 -2.05298 0
M  V30 14166 H 1335 2.24215 -3.15063 0
M  V30 14167 H 1336.69 2.03268 -3.51336 0
M  V30 14168 H 1337.45 -0.0606029 -4.84962 0
M  V30 14169 H 1333.33 1.10702 -4.47511 0
M  V30 14170 H 1336.87 -1.41664 -6.83064 0
M  V30 14171 H 1332.77 -0.241979 -6.45046 0
M  V30 14172 H 1333.54 -1.58996 -8.02909 0
M  V30 14173 N 1336.2 1.55448 0.259558 0
M  V30 14174 C 1337.15 1.89248 1.32113 0
M  V30 14175 C 1338.12 0.745348 1.48438 0
M  V30 14176 O 1339.3 0.997854 1.62627 0
M  V30 14177 C 1336.44 2.18161 2.67394 0
M  V30 14178 C 1335.56 3.45614 2.59182 0
M  V30 14179 C 1334.69 3.6416 3.86731 0
M  V30 14180 C 1333.73 4.85258 3.73084 0
M  V30 14181 N 1332.87 5.00391 4.92497 0
M  V30 14182 H 1337.71 2.79785 1.02589 0
M  V30 14183 H 1335.25 1.38509 0.495338 0
M  V30 14184 H 1337.2 2.32927 3.46122 0
M  V30 14185 H 1335.83 1.30843 2.95093 0
M  V30 14186 H 1334.89 3.39248 1.72091 0
M  V30 14187 H 1336.2 4.34483 2.45002 0
M  V30 14188 H 1335.35 3.78817 4.73902 0
M  V30 14189 H 1334.09 2.73501 4.03793 0
M  V30 14190 H 1333.1 4.70591 2.84296 0
M  V30 14191 H 1334.32 5.77365 3.57528 0
M  V30 14192 H 1332.27 4.12666 5.09944 0
M  V30 14193 H 1332.18 5.83328 4.809 0
M  V30 14194 H 1333.45 5.19446 5.81202 0
M  V30 14195 N 1337.68 -0.524672 1.4861 0
M  V30 14196 C 1338.61 -1.63782 1.66426 0
M  V30 14197 C 1339.59 -1.62177 0.513077 0
M  V30 14198 O 1340.78 -1.7929 0.74623 0
M  V30 14199 C 1337.91 -3.02354 1.70877 0
M  V30 14200 C 1336.86 -3.18819 2.85549 0
M  V30 14201 C 1336.19 -4.58506 2.75094 0
M  V30 14202 C 1337.49 -3.01086 4.26784 0
M  V30 14203 H 1339.18 -1.49127 2.59618 0
M  V30 14204 H 1336.73 -0.715997 1.24938 0
M  V30 14205 H 1338.68 -3.80105 1.81929 0
M  V30 14206 H 1337.4 -3.18044 0.742682 0
M  V30 14207 H 1336.06 -2.43487 2.74061 0
M  V30 14208 H 1335.71 -4.71038 1.76443 0
M  V30 14209 H 1335.41 -4.70466 3.52044 0
M  V30 14210 H 1336.93 -5.38348 2.88121 0
M  V30 14211 H 1338.35 -3.68624 4.39077 0
M  V30 14212 H 1336.75 -3.24536 5.04774 0
M  V30 14213 H 1337.82 -1.97454 4.42877 0
M  V30 14214 N 1339.16 -1.37287 -0.77395 0
M  V30 14215 C 1340.44 -1.2291 -1.52159 0
M  V30 14216 C 1340.82 0.178249 -2.10346 0
M  V30 14217 O 1340.16 1.18564 -1.95333 0
M  V30 14218 C 1340.37 -2.32337 -2.60424 0
M  V30 14219 C 1341.72 -2.69769 -3.27887 0
M  V30 14220 O 1342.75 -2.31497 -2.70717 0
M  V30 14221 O 1341.6 -3.35699 -4.31241 0
M  V30 14222 H 1338.7 -0.47948 -0.673816 0
M  V30 14223 H 1341.24 -1.49061 -0.811105 0
M  V30 14224 H 1340.02 -3.26591 -2.15532 0
M  V30 14225 H 1339.64 -2.07638 -3.39076 0
M  V30 14226 N 1340.64 0.999871 -1.21821 0
M  V30 14227 C 1341.88 1.7384 -1.03855 0
M  V30 14228 C 1342.21 1.89749 0.42727 0
M  V30 14229 O 1341.47 1.43261 1.33323 0
M  V30 14230 C 1341.77 3.1509 -1.6868 0
M  V30 14231 C 1341.43 3.19115 -3.18554 0
M  V30 14232 C 1340.09 3.19921 -3.5945 0
M  V30 14233 C 1342.45 3.15954 -4.14515 0
M  V30 14234 C 1339.77 3.15257 -4.94803 0
M  V30 14235 C 1342.13 3.12831 -5.49836 0
M  V30 14236 C 1340.79 3.11949 -5.90122 0
M  V30 14237 H 1340.06 0.636126 -0.380032 0
M  V30 14238 H 1342.71 1.17151 -1.51485 0
M  V30 14239 H 1341.01 3.75044 -1.13356 0
M  V30 14240 H 1342.71 3.70962 -1.52277 0
M  V30 14241 H 1339.3 3.19234 -2.85986 0
M  V30 14242 H 1343.48 3.14487 -3.83942 0
M  V30 14243 H 1338.74 3.12915 -5.25256 0
M  V30 14244 H 1342.91 3.09339 -6.23925 0
M  V30 14245 H 1340.54 3.0809 -6.94971 0
M  V30 14246 N 1342.11 1.02678 1.19562 0
M  V30 14247 C 1343.53 0.752027 1.70884 0
M  V30 14248 C 1343.88 -0.728523 1.82173 0
M  V30 14249 O 1343 -1.56799 1.49141 0
M  V30 14250 C 1343.6 1.35848 3.10372 0
M  V30 14251 C 1342.16 1.13236 3.58963 0
M  V30 14252 C 1341.3 1.45785 2.35886 0
M  V30 14253 H 1344.25 1.19497 1.04432 0
M  V30 14254 H 1344.27 0.754347 3.72948 0
M  V30 14255 H 1343.79 2.43604 3.02124 0
M  V30 14256 H 1341.89 0.0729271 3.72529 0
M  V30 14257 H 1342 1.81959 4.43202 0
M  V30 14258 H 1340.36 0.877125 2.3912 0
M  V30 14259 H 1341.15 2.54619 2.30269 0
M  V30 14260 N 1343.59 -1.35528 0.804364 0
M  V30 14261 C 1344.5 -2.33616 0.214663 0
M  V30 14262 C 1345.52 -1.61757 -0.64115 0
M  V30 14263 O 1346.69 -1.93647 -0.553424 0
M  V30 14264 C 1343.76 -3.40951 -0.628778 0
M  V30 14265 C 1342.82 -4.28587 0.247269 0
M  V30 14266 C 1342.05 -5.30796 -0.556012 0
M  V30 14267 O 1342.28 -5.41557 -1.79088 0
M  V30 14268 O 1341.21 -6.01878 0.0519437 0
M  V30 14269 H 1345.04 -2.85843 1.02605 0
M  V30 14270 H 1342.62 -1.38259 0.566108 0
M  V30 14271 H 1344.5 -4.06538 -1.10926 0
M  V30 14272 H 1343.18 -2.90999 -1.4178 0
M  V30 14273 H 1342.09 -3.65988 0.774835 0
M  V30 14274 H 1343.42 -4.81931 1.00017 0
M  V30 14275 N 1345.07 -0.557671 -1.47404 0
M  V30 14276 C 1346.3 -0.0366797 -2.07368 0
M  V30 14277 C 1346.72 1.2478 -1.40754 0
M  V30 14278 O 1346.08 1.74757 -0.48268 0
M  V30 14279 C 1346.13 0.141728 -3.60321 0
M  V30 14280 O 1345.23 1.20419 -3.94427 0
M  V30 14281 H 1344.57 -0.0515319 -0.661997 0
M  V30 14282 H 1347.1 -0.773485 -1.89416 0
M  V30 14283 H 1347.11 0.355787 -4.06446 0
M  V30 14284 H 1345.79 -0.796433 -4.08203 0
M  V30 14285 H 1344.36 0.970589 -3.60047 0
M  V30 14286 N 1346.55 1.54831 -0.294147 0
M  V30 14287 C 1347.8 2.00298 0.317605 0
M  V30 14288 C 1348.13 1.18228 1.54064 0
M  V30 14289 O 1347.4 0.257034 1.92794 0
M  V30 14290 C 1347.69 3.53602 0.680991 0
M  V30 14291 C 1347.54 4.46416 -0.550711 0
M  V30 14292 C 1348.86 4.13379 1.51016 0
M  V30 14293 H 1345.98 0.728135 0.113965 0
M  V30 14294 H 1348.62 1.85636 -0.404883 0
M  V30 14295 H 1346.77 3.66227 1.29654 0
M  V30 14296 H 1348.44 4.45707 -1.18922 0
M  V30 14297 H 1346.68 4.17294 -1.18524 0
M  V30 14298 H 1347.36 5.51423 -0.252412 0
M  V30 14299 H 1349.83 4.04148 0.99012 0
M  V30 14300 H 1348.71 5.20818 1.73321 0
M  V30 14301 H 1348.97 3.64817 2.49722 0
M  V30 14302 N 1348.03 0.0217466 1.57585 0
M  V30 14303 C 1349.27 -0.659463 1.91778 0
M  V30 14304 C 1349.61 -1.72201 0.897801 0
M  V30 14305 O 1348.88 -1.94333 -0.080509 0
M  V30 14306 C 1349.16 -1.28269 3.36481 0
M  V30 14307 C 1349.02 -0.230201 4.49211 0
M  V30 14308 C 1350.34 -2.20279 3.81005 0
M  V30 14309 H 1347.46 -0.238263 0.697424 0
M  V30 14310 H 1350.1 0.0774967 1.89842 0
M  V30 14311 H 1348.25 -1.9108 3.38262 0
M  V30 14312 H 1349.92 0.399901 4.59563 0
M  V30 14313 H 1348.16 0.445157 4.3151 0
M  V30 14314 H 1348.83 -0.705732 5.4747 0
M  V30 14315 H 1351.31 -1.67463 3.80914 0
M  V30 14316 H 1350.19 -2.60842 4.82962 0
M  V30 14317 H 1350.45 -3.09092 3.16093 0
M  V30 14318 N 1349.51 -1.55583 -0.251311 0
M  V30 14319 C 1350.73 -1.81597 -1.00186 0
M  V30 14320 C 1351.16 -0.598216 -1.78334 0
M  V30 14321 O 1350.51 0.452667 -1.75558 0
M  V30 14322 C 1350.56 -3.05301 -1.91895 0
M  V30 14323 O 1349.67 -2.81907 -3.01002 0
M  V30 14324 H 1349.01 -0.599578 -0.285311 0
M  V30 14325 H 1351.54 -2.02762 -0.273638 0
M  V30 14326 H 1351.55 -3.34616 -2.33444 0
M  V30 14327 H 1350.22 -3.93574 -1.34433 0
M  V30 14328 H 1348.8 -2.63747 -2.63613 0
M  V30 14329 N 1350.98 0.516783 -1.48886 0
M  V30 14330 C 1352.23 1.27187 -1.57574 0
M  V30 14331 C 1352.56 1.92815 -0.255432 0
M  V30 14332 O 1351.81 1.80533 0.755403 0
M  V30 14333 C 1352.11 2.37296 -2.67256 0
M  V30 14334 C 1351.78 1.89232 -4.0927 0
M  V30 14335 C 1350.44 1.75842 -4.47921 0
M  V30 14336 C 1352.79 1.53073 -4.98215 0
M  V30 14337 C 1350.12 1.24648 -5.73306 0
M  V30 14338 C 1352.47 1.03337 -6.24103 0
M  V30 14339 C 1351.14 0.885744 -6.61597 0
M  V30 14340 H 1350.41 0.46541 -0.576606 0
M  V30 14341 H 1353.05 0.575223 -1.82657 0
M  V30 14342 H 1351.36 3.12685 -2.36084 0
M  V30 14343 H 1353.06 2.95393 -2.7119 0
M  V30 14344 H 1349.65 2.00608 -3.78754 0
M  V30 14345 H 1353.83 1.62272 -4.69022 0
M  V30 14346 H 1349.09 1.11917 -6.0107 0
M  V30 14347 H 1353.26 0.744338 -6.92411 0
M  V30 14348 H 1350.89 0.486866 -7.58639 0
M  V30 14349 N 1352.46 1.37696 0.766659 0
M  V30 14350 C 1353.71 1.33185 1.52539 0
M  V30 14351 C 1354.04 -0.0821239 1.94327 0
M  V30 14352 O 1353.29 -1.05645 1.64735 0
M  V30 14353 C 1353.59 2.22154 2.79968 0
M  V30 14354 C 1353.26 3.70344 2.57208 0
M  V30 14355 C 1351.92 4.10729 2.50709 0
M  V30 14356 C 1354.27 4.64205 2.36988 0
M  V30 14357 C 1351.6 5.43082 2.21988 0
M  V30 14358 C 1353.95 5.96801 2.0979 0
M  V30 14359 C 1352.61 6.36284 2.01739 0
M  V30 14360 H 1351.88 0.487357 0.558179 0
M  V30 14361 H 1354.53 1.69945 0.882662 0
M  V30 14362 H 1352.84 1.78406 3.48825 0
M  V30 14363 H 1354.53 2.15975 3.37869 0
M  V30 14364 H 1351.12 3.38319 2.63131 0
M  V30 14365 H 1355.31 4.3386 2.40996 0
M  V30 14366 H 1350.56 5.7263 2.14254 0
M  V30 14367 H 1354.74 6.6908 1.93145 0
M  V30 14368 H 1352.36 7.38765 1.79248 0
M  V30 14369 N 1353.94 -0.993397 1.22349 0
M  V30 14370 C 1354.89 -2.0834 0.993123 0
M  V30 14371 C 1355.86 -1.65883 -0.0849717 0
M  V30 14372 O 1357.04 -1.90691 0.0645176 0
M  V30 14373 C 1354.18 -3.40252 0.576434 0
M  V30 14374 C 1353.29 -3.96055 1.72524 0
M  V30 14375 C 1352.43 -5.16123 1.25659 0
M  V30 14376 C 1351.47 -5.64062 2.37698 0
M  V30 14377 N 1350.61 -6.7537 1.91883 0
M  V30 14378 H 1355.45 -2.27381 1.92619 0
M  V30 14379 H 1352.98 -1.11476 0.959763 0
M  V30 14380 H 1354.94 -4.16001 0.316021 0
M  V30 14381 H 1353.57 -3.21214 -0.319626 0
M  V30 14382 H 1352.62 -3.17182 2.1 0
M  V30 14383 H 1353.93 -4.27614 2.56802 0
M  V30 14384 H 1353.09 -5.9916 0.953528 0
M  V30 14385 H 1351.83 -4.86186 0.384011 0
M  V30 14386 H 1350.83 -4.79614 2.68794 0
M  V30 14387 H 1352.06 -5.96025 3.25471 0
M  V30 14388 H 1350 -6.47217 1.06986 0
M  V30 14389 H 1349.92 -7.06246 2.69727 0
M  V30 14390 H 1351.19 -7.61914 1.64644 0
M  V30 14391 N 1355.42 -1.03311 -1.19015 0
M  V30 14392 C 1356.67 -0.730593 -1.88432 0
M  V30 14393 C 1356.99 0.743392 -1.80274 0
M  V30 14394 O 1356.26 1.5359 -1.21601 0
M  V30 14395 H 1354.84 -0.267253 -0.697556 0
M  V30 14396 H 1357.5 -1.30824 -1.44468 0
M  V30 14397 H 1356.59 -1.02867 -2.9466 0
M  V30 14398 N 1356.9 1.35099 -0.81154 0
M  V30 14399 C 1357.81 2.33499 -0.22705 0
M  V30 14400 C 1358.82 1.62095 0.632562 0
M  V30 14401 O 1360 1.93938 0.543147 0
M  V30 14402 C 1357.06 3.41279 0.610687 0
M  V30 14403 C 1356.12 4.2845 -0.269994 0
M  V30 14404 C 1355.36 5.31083 0.527854 0
M  V30 14405 O 1355.58 5.42499 1.76213 0
M  V30 14406 O 1354.51 6.01842 -0.083862 0
M  V30 14407 H 1358.34 2.85294 -1.04119 0
M  V30 14408 H 1355.92 1.37957 -0.573432 0
M  V30 14409 H 1357.81 4.07121 1.08768 0
M  V30 14410 H 1356.48 2.91746 1.40235 0
M  V30 14411 H 1355.39 3.65572 -0.794234 0
M  V30 14412 H 1356.72 4.81394 -1.02572 0
M  V30 14413 N 1358.37 0.56548 1.47106 0
M  V30 14414 C 1359.62 0.042333 2.01656 0
M  V30 14415 C 1359.94 -1.31892 1.44443 0
M  V30 14416 O 1361.14 -1.93245 1.90706 0
M  V30 14417 C 1359.6 0.0251556 3.59891 0
M  V30 14418 C 1359.21 1.38367 4.26097 0
M  V30 14419 C 1360.95 -0.44495 4.22162 0
M  V30 14420 C 1358.86 1.32516 5.76362 0
M  V30 14421 H 1357.79 0.0120557 0.753904 0
M  V30 14422 H 1360.44 0.714565 1.69015 0
M  V30 14423 H 1358.82 -0.712893 3.8953 0
M  V30 14424 H 1359.99 2.14009 4.08089 0
M  V30 14425 H 1358.31 1.79239 3.75849 0
M  V30 14426 H 1360.91 -0.507256 5.32288 0
M  V30 14427 H 1361.25 -1.45876 3.89905 0
M  V30 14428 H 1361.78 0.238496 3.97084 0
M  V30 14429 H 1358.52 2.31523 6.13252 0
M  V30 14430 H 1358.04 0.610674 5.96683 0
M  V30 14431 H 1359.72 1.03072 6.38737 0
M  V30 14432 N 1359.85 -1.54672 0.302354 0
M  V30 14433 C 1361.1 -1.99771 -0.305919 0
M  V30 14434 C 1361.42 -1.19225 -1.54306 0
M  V30 14435 O 1360.69 -0.288569 -1.93763 0
M  V30 14436 H 1359.27 -0.737934 -0.116026 0
M  V30 14437 H 1361.93 -1.90452 0.413997 0
M  V30 14438 H 1361.03 -3.06719 -0.577024 0
M  V30 14439 N 1361.33 -0.0301034 -1.57571 0
M  V30 14440 C 1362.26 0.980187 -2.07183 0
M  V30 14441 C 1363.28 1.2882 -0.995449 0
M  V30 14442 O 1364.46 1.25268 -1.27162 0
M  V30 14443 C 1361.56 2.30734 -2.48224 0
M  V30 14444 C 1360.74 2.18434 -3.78953 0
M  V30 14445 C 1359.8 3.34092 -4.06533 0
M  V30 14446 O 1358.82 3.10934 -4.76769 0
M  V30 14447 N 1360.02 4.57914 -3.56784 0
M  V30 14448 H 1362.79 0.556877 -2.94481 0
M  V30 14449 H 1360.35 0.156632 -1.61141 0
M  V30 14450 H 1362.34 3.06936 -2.63766 0
M  V30 14451 H 1360.91 2.64703 -1.66287 0
M  V30 14452 H 1360.13 1.26953 -3.73198 0
M  V30 14453 H 1361.42 2.07421 -4.64601 0
M  V30 14454 H 1360.82 4.79623 -2.99964 0
M  V30 14455 H 1359.38 5.31281 -3.77603 0
M  V30 14456 N 1362.81 1.55714 0.243056 0
M  V30 14457 C 1364.22 1.68126 0.811814 0
M  V30 14458 C 1364.57 0.628259 1.85869 0
M  V30 14459 O 1363.7 -0.224747 2.1523 0
M  V30 14460 C 1364.29 3.048 1.47928 0
M  V30 14461 C 1362.85 3.19138 1.99569 0
M  V30 14462 C 1362 2.64011 0.848149 0
M  V30 14463 H 1364.95 1.58689 0.0187918 0
M  V30 14464 H 1364.97 2.99459 2.34743 0
M  V30 14465 H 1364.48 3.81417 0.717106 0
M  V30 14466 H 1362.58 2.4735 2.78655 0
M  V30 14467 H 1362.69 4.26095 2.19043 0
M  V30 14468 H 1361.06 2.21934 1.2497 0
M  V30 14469 H 1361.84 3.43157 0.0989987 0
M  V30 14470 N 1364.29 -0.50888 1.49158 0
M  V30 14471 C 1365.53 -1.26537 1.58481 0
M  V30 14472 C 1365.87 -1.92353 0.267168 0
M  V30 14473 O 1365.14 -1.80336 -0.728639 0
M  V30 14474 C 1365.42 -2.33846 2.73839 0
M  V30 14475 C 1365.28 -1.72582 4.15374 0
M  V30 14476 C 1366.6 -3.35467 2.84868 0
M  V30 14477 H 1363.71 -0.458697 0.576859 0
M  V30 14478 H 1366.36 -0.564728 1.81413 0
M  V30 14479 H 1364.51 -2.93605 2.54417 0
M  V30 14480 H 1366.18 -1.16711 4.46292 0
M  V30 14481 H 1364.42 -1.03025 4.21389 0
M  V30 14482 H 1365.09 -2.5038 4.91949 0
M  V30 14483 H 1367.57 -2.85689 3.02524 0
M  V30 14484 H 1366.44 -4.07922 3.67275 0
M  V30 14485 H 1366.71 -3.97313 1.93894 0
M  V30 14486 N 1365.76 -1.381 -0.759346 0
M  V30 14487 C 1366.71 -1.34972 -1.89434 0
M  V30 14488 C 1367.71 -0.236499 -1.67741 0
M  V30 14489 O 1368.91 -0.405218 -1.7538 0
M  V30 14490 H 1365.29 -0.420922 -0.62316 0
M  V30 14491 H 1367.26 -2.3076 -1.89189 0
M  V30 14492 C 1366.01 -1.18594 -3.2685 0
M  V30 14493 H 1365.33 -2.03514 -3.44125 0
M  V30 14494 H 1366.77 -1.20458 -4.06529 0
M  V30 14495 C 1365.23 0.107562 -3.36728 0
M  V30 14496 O 1365.76 1.08668 -3.86722 0
M  V30 14497 N 1363.97 0.162455 -2.90146 0
M  V30 14498 H 1363.51 -0.634985 -2.49651 0
M  V30 14499 H 1363.47 1.02751 -2.97136 0
M  V30 14500 N 1367.24 0.986894 -1.22875 0
M  V30 14501 C 1368.49 1.72388 -1.05484 0
M  V30 14502 C 1368.81 1.90639 0.410074 0
M  V30 14503 O 1368.08 1.47036 1.2945 0
M  V30 14504 H 1366.66 0.638732 -0.387337 0
M  V30 14505 H 1369.32 1.18829 -1.54485 0
M  V30 14506 H 1368.42 2.71599 -1.53754 0
M  V30 14507 N 1368.72 1.0394 1.18466 0
M  V30 14508 C 1369.97 0.742042 1.88414 0
M  V30 14509 C 1370.3 -0.730138 1.80275 0
M  V30 14510 O 1369.55 -1.54844 1.19674 0
M  V30 14511 C 1369.85 1.15198 3.38326 0
M  V30 14512 C 1369.52 2.62422 3.66668 0
M  V30 14513 C 1368.18 3.02643 3.74113 0
M  V30 14514 C 1370.53 3.5762 3.79153 0
M  V30 14515 C 1367.86 4.36953 3.91522 0
M  V30 14516 C 1370.21 4.91647 3.98077 0
M  V30 14517 C 1368.87 5.31541 4.03758 0
M  V30 14518 H 1368.14 0.271532 0.689457 0
M  V30 14519 H 1370.79 1.30419 1.40225 0
M  V30 14520 H 1369.1 0.508607 3.88485 0
M  V30 14521 H 1370.79 0.899269 3.90787 0
M  V30 14522 H 1367.38 2.30268 3.61489 0
M  V30 14523 H 1371.57 3.27693 3.72735 0
M  V30 14524 H 1366.82 4.67382 3.94163 0
M  V30 14525 H 1371 5.65318 4.0668 0
M  V30 14526 H 1368.62 6.35622 4.16999 0
M  V30 14527 N 1370.2 -1.34667 0.818693 0
M  V30 14528 C 1371.15 -2.31501 0.225816 0
M  V30 14529 C 1372.14 -1.57205 -0.631112 0
M  V30 14530 O 1373.35 -1.72237 -0.522924 0
M  V30 14531 H 1369.72 -0.750039 0.0542747 0
M  V30 14532 H 1371.69 -2.79036 1.05743 0
M  V30 14533 C 1370.44 -3.42464 -0.60114 0
M  V30 14534 H 1369.76 -3.9977 0.0489207 0
M  V30 14535 H 1371.2 -4.12468 -0.982154 0
M  V30 14536 C 1369.66 -2.86551 -1.77173 0
M  V30 14537 O 1370.19 -2.81085 -2.86974 0
M  V30 14538 N 1368.4 -2.43432 -1.58712 0
M  V30 14539 H 1367.95 -2.48077 -0.693958 0
M  V30 14540 H 1367.9 -2.06371 -2.37188 0
M  V30 14541 N 1371.68 -0.573274 -1.46804 0
M  V30 14542 C 1372.62 0.165358 -2.30207 0
M  V30 14543 C 1373.59 0.89312 -1.40045 0
M  V30 14544 O 1374.78 0.885653 -1.68999 0
M  V30 14545 C 1371.92 1.17915 -3.2433 0
M  V30 14546 C 1371.03 0.455805 -4.29589 0
M  V30 14547 C 1370.17 1.45629 -5.10848 0
M  V30 14548 C 1369.21 0.718822 -6.07865 0
M  V30 14549 N 1368.34 1.66691 -6.82025 0
M  V30 14550 H 1373.18 -0.551947 -2.92844 0
M  V30 14551 H 1370.72 -0.28401 -1.44332 0
M  V30 14552 H 1372.68 1.77969 -3.77337 0
M  V30 14553 H 1371.31 1.86429 -2.63523 0
M  V30 14554 H 1370.36 -0.259584 -3.79513 0
M  V30 14555 H 1371.67 -0.121161 -4.98653 0
M  V30 14556 H 1370.83 2.1299 -5.68084 0
M  V30 14557 H 1369.56 2.06718 -4.41723 0
M  V30 14558 H 1368.57 0.0313773 -5.49791 0
M  V30 14559 H 1369.79 0.113452 -6.79005 0
M  V30 14560 H 1367.74 2.26608 -6.15617 0
M  V30 14561 H 1367.66 1.14251 -7.47317 0
M  V30 14562 H 1368.93 2.33117 -7.43826 0
M  V30 14563 N 1373.15 1.5451 -0.310553 0
M  V30 14564 C 1374.43 1.92452 0.34951 0
M  V30 14565 C 1374.81 1.23881 1.70929 0
M  V30 14566 O 1374.16 0.377898 2.25353 0
M  V30 14567 C 1374.37 3.46026 0.454675 0
M  V30 14568 C 1375.72 4.18432 0.721071 0
M  V30 14569 O 1376.74 3.52112 0.538112 0
M  V30 14570 O 1375.6 5.3586 1.07314 0
M  V30 14571 H 1372.69 0.803168 0.197103 0
M  V30 14572 H 1375.24 1.65852 -0.359313 0
M  V30 14573 H 1374.01 3.88081 -0.500853 0
M  V30 14574 H 1373.64 3.7869 1.21159 0
M  V30 14575 N 1374.63 0.0384594 1.57553 0
M  V30 14576 C 1375.56 -0.938444 2.13812 0
M  V30 14577 C 1376.54 -1.33307 1.05657 0
M  V30 14578 O 1377.73 -1.41003 1.33535 0
M  V30 14579 C 1374.86 -2.21764 2.67279 0
M  V30 14580 C 1373.81 -1.96347 3.80305 0
M  V30 14581 C 1373.14 -3.30612 4.20238 0
M  V30 14582 C 1374.44 -1.2952 5.05986 0
M  V30 14583 H 1376.13 -0.469887 2.9569 0
M  V30 14584 H 1373.68 -0.224576 1.42238 0
M  V30 14585 H 1375.63 -2.90493 3.05273 0
M  V30 14586 H 1374.36 -2.70802 1.82576 0
M  V30 14587 H 1373.02 -1.30033 3.42764 0
M  V30 14588 H 1372.66 -3.77427 3.32502 0
M  V30 14589 H 1372.36 -3.14409 4.96408 0
M  V30 14590 H 1373.89 -4.00594 4.60822 0
M  V30 14591 H 1375.3 -1.88264 5.41507 0
M  V30 14592 H 1373.7 -1.23685 5.87216 0
M  V30 14593 H 1374.77 -0.269439 4.84151 0
M  V30 14594 N 1376.11 -1.55841 -0.234795 0
M  V30 14595 C 1377.04 -1.87793 -1.31402 0
M  V30 14596 C 1378.06 -0.765113 -1.43701 0
M  V30 14597 O 1379.25 -1.04332 -1.44834 0
M  V30 14598 C 1376.35 -2.05976 -2.69123 0
M  V30 14599 C 1375.52 -3.36914 -2.7894 0
M  V30 14600 C 1374.58 -3.44691 -3.97586 0
M  V30 14601 O 1373.6 -4.17818 -3.86545 0
M  V30 14602 N 1374.81 -2.74866 -5.11301 0
M  V30 14603 H 1377.57 -2.80957 -1.04324 0
M  V30 14604 H 1375.13 -1.56226 -0.424872 0
M  V30 14605 H 1377.12 -2.08507 -3.46853 0
M  V30 14606 H 1375.69 -1.195 -2.88857 0
M  V30 14607 H 1374.91 -3.46595 -1.87791 0
M  V30 14608 H 1376.2 -4.23196 -2.82458 0
M  V30 14609 H 1375.6 -2.15208 -5.23165 0
M  V30 14610 H 1374.16 -2.83075 -5.87122 0
M  V30 14611 N 1377.59 0.500963 -1.49426 0
M  V30 14612 C 1378.55 1.58478 -1.65582 0
M  V30 14613 C 1379.55 1.51897 -0.52762 0
M  V30 14614 O 1380.74 1.55049 -0.794071 0
M  V30 14615 C 1377.87 2.9813 -1.65322 0
M  V30 14616 H 1379.07 1.45483 -2.6225 0
M  V30 14617 H 1376.62 0.725199 -1.38458 0
M  V30 14618 H 1377.36 3.16602 -0.702384 0
M  V30 14619 H 1377.14 3.04315 -2.47255 0
M  V30 14620 H 1378.63 3.76874 -1.79878 0
M  V30 14621 N 1379.07 1.38501 0.752011 0
M  V30 14622 C 1380.31 1.34995 1.51341 0
M  V30 14623 C 1380.65 -0.0594724 1.94109 0
M  V30 14624 O 1379.92 -1.02098 1.65548 0
M  V30 14625 C 1380.2 2.30705 2.76491 0
M  V30 14626 C 1380.06 3.80515 2.39851 0
M  V30 14627 C 1381.38 2.24521 3.78521 0
M  V30 14628 H 1378.5 0.491687 0.549011 0
M  V30 14629 H 1381.14 1.69361 0.861205 0
M  V30 14630 H 1379.29 2.01529 3.32142 0
M  V30 14631 H 1380.96 4.20371 1.89962 0
M  V30 14632 H 1379.2 3.98119 1.7229 0
M  V30 14633 H 1379.87 4.42946 3.29397 0
M  V30 14634 H 1382.35 2.50282 3.32413 0
M  V30 14635 H 1381.23 2.93598 4.63779 0
M  V30 14636 H 1381.49 1.24457 4.2422 0
M  V30 14637 N 1380.55 -0.980364 1.23396 0
M  V30 14638 C 1381.79 -1.71592 1.06015 0
M  V30 14639 C 1382.11 -1.91401 -0.403103 0
M  V30 14640 O 1383.31 -2.62405 -0.696853 0
M  V30 14641 C 1381.77 -3.08795 1.84861 0
M  V30 14642 C 1381.38 -2.96873 3.35515 0
M  V30 14643 C 1383.12 -3.8631 1.75968 0
M  V30 14644 C 1381.03 -4.29308 4.06753 0
M  V30 14645 H 1379.96 -0.643423 0.393095 0
M  V30 14646 H 1382.61 -1.09345 1.47363 0
M  V30 14647 H 1380.99 -3.71797 1.36318 0
M  V30 14648 H 1382.17 -2.4296 3.91544 0
M  V30 14649 H 1380.48 -2.32833 3.45221 0
M  V30 14650 H 1383.08 -4.84355 2.26504 0
M  V30 14651 H 1383.42 -4.09983 0.722464 0
M  V30 14652 H 1383.95 -3.3001 2.22122 0
M  V30 14653 H 1380.69 -4.10831 5.10782 0
M  V30 14654 H 1380.21 -4.83086 3.55511 0
M  V30 14655 H 1381.89 -4.97995 4.1305 0
M  V30 14656 N 1382.02 -1.04567 -1.17913 0
M  V30 14657 C 1382.95 -0.662066 -2.23917 0
M  V30 14658 C 1383.93 0.33713 -1.66726 0
M  V30 14659 O 1385.12 0.216116 -1.92994 0
M  V30 14660 C 1382.25 -0.029463 -3.47288 0
M  V30 14661 C 1381.2 -0.95274 -4.17261 0
M  V30 14662 C 1380.53 -0.184347 -5.34382 0
M  V30 14663 C 1381.83 -2.2741 -4.70194 0
M  V30 14664 H 1383.52 -1.54826 -2.5626 0
M  V30 14665 H 1381.07 -0.745886 -1.23177 0
M  V30 14666 H 1383.02 0.250654 -4.20654 0
M  V30 14667 H 1381.75 0.891638 -3.14193 0
M  V30 14668 H 1380.41 -1.21732 -3.45799 0
M  V30 14669 H 1380.05 0.73932 -4.97537 0
M  V30 14670 H 1379.75 -0.79949 -5.82136 0
M  V30 14671 H 1381.28 0.0886344 -6.10536 0
M  V30 14672 H 1382.69 -2.05433 -5.35229 0
M  V30 14673 H 1381.09 -2.84265 -5.28501 0
M  V30 14674 H 1382.16 -2.91708 -3.87342 0
M  V30 14675 N 1383.5 1.34231 -0.825823 0
M  V30 14676 C 1384.45 2.29467 -0.247724 0
M  V30 14677 C 1385.42 1.53724 0.629127 0
M  V30 14678 O 1386.6 1.82082 0.570156 0
M  V30 14679 C 1383.74 3.40157 0.582012 0
M  V30 14680 C 1382.86 4.30832 -0.317406 0
M  V30 14681 C 1381.99 5.28627 0.522176 0
M  V30 14682 C 1381.03 6.10941 -0.376448 0
M  V30 14683 N 1380.17 7.00817 0.424232 0
M  V30 14684 H 1385.01 2.78311 -1.06521 0
M  V30 14685 H 1382.54 1.36956 -0.536788 0
M  V30 14686 H 1384.5 4.03021 1.07843 0
M  V30 14687 H 1383.13 2.92539 1.36459 0
M  V30 14688 H 1382.18 3.68805 -0.932054 0
M  V30 14689 H 1383.5 4.88503 -1.00826 0
M  V30 14690 H 1382.65 5.96957 1.08295 0
M  V30 14691 H 1381.39 4.71501 1.24652 0
M  V30 14692 H 1380.39 5.41542 -0.94934 0
M  V30 14693 H 1381.62 6.70149 -1.09895 0
M  V30 14694 H 1379.57 6.46156 1.1322 0
M  V30 14695 H 1379.48 7.55713 -0.208175 0
M  V30 14696 H 1380.75 7.7347 0.967664 0
M  V30 14697 N 1384.98 0.581051 1.46498 0
M  V30 14698 C 1386.23 0.0658652 2.01993 0
M  V30 14699 C 1386.55 -1.29807 1.45516 0
M  V30 14700 O 1385.82 -1.85177 0.639233 0
M  V30 14701 H 1384.4 0.0213584 0.746695 0
M  V30 14702 H 1387.06 0.756456 1.79621 0
M  V30 14703 H 1386.16 -0.00438128 3.121 0
M  V30 14704 N 1386.46 -1.54343 0.318742 0
M  V30 14705 C 1387.39 -2.21652 -0.583351 0
M  V30 14706 C 1388.4 -1.21494 -1.08366 0
M  V30 14707 O 1389.59 -1.4799 -0.998064 0
M  V30 14708 C 1386.69 -2.86349 -1.81266 0
M  V30 14709 C 1385.86 -4.12601 -1.45186 0
M  V30 14710 C 1384.92 -4.60937 -2.53818 0
M  V30 14711 O 1383.95 -5.25731 -2.18164 0
M  V30 14712 N 1385.15 -4.34755 -3.84667 0
M  V30 14713 H 1387.92 -2.99699 -0.00703539 0
M  V30 14714 H 1385.48 -1.61278 0.141728 0
M  V30 14715 H 1387.47 -3.15611 -2.53321 0
M  V30 14716 H 1386.04 -2.12037 -2.29693 0
M  V30 14717 H 1385.26 -3.90157 -0.563143 0
M  V30 14718 H 1386.55 -4.94774 -1.18642 0
M  V30 14719 H 1385.95 -3.82883 -4.16434 0
M  V30 14720 H 1384.5 -4.68683 -4.52967 0
M  V30 14721 N 1387.94 -0.0468143 -1.5753 0
M  V30 14722 C 1388.85 0.944362 -2.14753 0
M  V30 14723 C 1389.86 1.34473 -1.10422 0
M  V30 14724 O 1391.04 1.42254 -1.42569 0
M  V30 14725 C 1388.1 2.2023 -2.67768 0
M  V30 14726 C 1387.16 1.8607 -3.8688 0
M  V30 14727 C 1386.4 3.05867 -4.37357 0
M  V30 14728 O 1386.62 4.19099 -3.86927 0
M  V30 14729 O 1385.55 2.87134 -5.28997 0
M  V30 14730 H 1389.38 0.48772 -2.99758 0
M  V30 14731 H 1386.96 0.174831 -1.48374 0
M  V30 14732 H 1388.85 2.94044 -3.01855 0
M  V30 14733 H 1387.52 2.65041 -1.85836 0
M  V30 14734 H 1386.43 1.09586 -3.5769 0
M  V30 14735 H 1387.76 1.46062 -4.70028 0
M  V30 14736 N 1389.41 1.55964 0.226527 0
M  V30 14737 C 1390.38 1.91184 1.26418 0
M  V30 14738 C 1391.38 0.789982 1.40057 0
M  V30 14739 O 1392.57 1.05778 1.38407 0
M  V30 14740 C 1389.7 2.15826 2.63878 0
M  V30 14741 H 1390.89 2.83986 0.963956 0
M  V30 14742 H 1388.45 1.49169 0.466726 0
M  V30 14743 H 1389.18 1.2556 2.99007 0
M  V30 14744 H 1388.97 2.97549 2.55356 0
M  V30 14745 H 1390.46 2.44188 3.38765 0
M  V30 14746 N 1390.89 -0.493031 1.4969 0
M  V30 14747 C 1391.82 -1.60215 1.69863 0
M  V30 14748 C 1392.8 -1.61053 0.547362 0
M  V30 14749 O 1393.99 -1.77667 0.784093 0
M  V30 14750 C 1391.12 -2.98662 1.77252 0
M  V30 14751 C 1390.07 -3.1269 2.92248 0
M  V30 14752 C 1389.4 -4.52567 2.84758 0
M  V30 14753 C 1390.7 -2.91965 4.33074 0
M  V30 14754 H 1392.39 -1.43587 2.62723 0
M  V30 14755 H 1389.94 -0.689334 1.26429 0
M  V30 14756 H 1391.89 -3.7616 1.89951 0
M  V30 14757 H 1390.62 -3.16397 0.809976 0
M  V30 14758 H 1389.27 -2.37619 2.79164 0
M  V30 14759 H 1388.92 -4.6719 1.86394 0
M  V30 14760 H 1388.62 -4.62893 3.61944 0
M  V30 14761 H 1390.15 -5.32116 2.99475 0
M  V30 14762 H 1391.56 -3.59228 4.46798 0
M  V30 14763 H 1389.96 -3.13756 5.11544 0
M  V30 14764 H 1391.03 -1.88015 4.46966 0
M  V30 14765 N 1392.37 -1.38898 -0.744656 0
M  V30 14766 C 1393.6 -1.38848 -1.53391 0
M  V30 14767 C 1394.01 0.0194949 -1.8879 0
M  V30 14768 O 1393.37 0.988399 -1.53417 0
M  V30 14769 C 1393.42 -2.25243 -2.8275 0
M  V30 14770 O 1393.14 -3.60557 -2.48858 0
M  V30 14771 C 1394.64 -2.33471 -3.76837 0
M  V30 14772 H 1391.86 -0.4746 -0.474338 0
M  V30 14773 H 1394.41 -1.82591 -0.920902 0
M  V30 14774 H 1392.56 -1.84938 -3.40407 0
M  V30 14775 H 1392.98 -4.06142 -3.31887 0
M  V30 14776 H 1394.45 -2.9819 -4.64528 0
M  V30 14777 H 1394.93 -1.351 -4.17905 0
M  V30 14778 H 1395.53 -2.74205 -3.25103 0
M  V30 14779 N 1393.85 0.973806 -1.23914 0
M  V30 14780 C 1394.81 2.04892 -1.02723 0
M  V30 14781 C 1395.81 1.60795 0.0132972 0
M  V30 14782 O 1397 1.72714 -0.227084 0
M  V30 14783 C 1394.13 3.36341 -0.555667 0
M  V30 14784 H 1395.33 2.25124 -1.98139 0
M  V30 14785 H 1392.88 1.14817 -1.06051 0
M  V30 14786 H 1393.61 3.21799 0.40197 0
M  V30 14787 H 1393.4 3.69689 -1.30661 0
M  V30 14788 H 1394.89 4.15398 -0.428248 0
M  V30 14789 N 1395.33 1.05191 1.17357 0
M  V30 14790 C 1396.74 0.773255 1.39617 0
M  V30 14791 C 1396.94 -0.632346 1.91321 0
M  V30 14792 O 1396 -1.39475 2.10483 0
M  V30 14793 C 1397.31 1.82885 2.38692 0
M  V30 14794 C 1398.86 1.85106 2.52398 0
M  V30 14795 C 1399.33 2.89689 3.54746 0
M  V30 14796 N 1400.83 2.88651 3.62263 0
M  V30 14797 C 1401.56 3.66221 4.41214 0
M  V30 14798 N 1401.06 4.53577 5.23679 0
M  V30 14799 N 1402.85 3.54661 4.36087 0
M  V30 14800 H 1395 1.9588 0.82127 0
M  V30 14801 H 1397.26 0.848187 0.423417 0
M  V30 14802 H 1396.97 2.83766 2.07773 0
M  V30 14803 H 1396.84 1.67047 3.38194 0
M  V30 14804 H 1399.23 0.848896 2.82627 0
M  V30 14805 H 1399.31 2.05022 1.5297 0
M  V30 14806 H 1398.96 3.90091 3.25255 0
M  V30 14807 H 1398.89 2.67025 4.53878 0
M  V30 14808 H 1401.38 2.25312 3.03386 0
M  V30 14809 H 1401.69 5.09449 5.81104 0
M  V30 14810 H 1400.03 4.57638 5.23061 0
M  V30 14811 H 1403.23 2.8581 3.70716 0
M  V30 14812 H 1403.4 4.15361 4.97372 0
M  V30 14813 N 1396.8 -1.33791 0.83293 0
M  V30 14814 C 1398.22 -1.80336 0.483294 0
M  V30 14815 C 1398.57 -1.68969 -0.997195 0
M  V30 14816 O 1397.69 -1.23549 -1.77664 0
M  V30 14817 C 1398.29 -3.27427 0.870475 0
M  V30 14818 C 1396.85 -3.72012 0.573064 0
M  V30 14819 C 1395.99 -2.55319 1.08201 0
M  V30 14820 H 1398.94 -1.21396 1.02218 0
M  V30 14821 H 1398.96 -3.80083 0.178173 0
M  V30 14822 H 1398.48 -3.35668 1.94804 0
M  V30 14823 H 1396.58 -3.69302 -0.494678 0
M  V30 14824 H 1396.69 -4.65725 1.12414 0
M  V30 14825 H 1395.05 -2.49681 0.503123 0
M  V30 14826 H 1395.84 -2.66326 2.16623 0
M  V30 14827 N 1398.28 -0.588812 -1.46187 0
M  V30 14828 C 1399.53 -0.0765765 -2.01955 0
M  V30 14829 C 1399.85 1.29034 -1.46203 0
M  V30 14830 O 1399.12 1.84836 -0.649044 0
M  V30 14831 H 1397.7 -0.025318 -0.746571 0
M  V30 14832 H 1400.36 -0.765971 -1.79217 0
M  V30 14833 H 1399.46 -0.0121702 -3.12098 0
M  V30 14834 N 1399.76 1.54172 -0.326923 0
M  V30 14835 C 1400.67 2.28149 0.546351 0
M  V30 14836 C 1401.69 1.32628 1.12631 0
M  V30 14837 O 1402.86 1.65647 1.14556 0
M  V30 14838 C 1399.93 3.02742 1.68962 0
M  V30 14839 C 1398.99 4.13856 1.14112 0
M  V30 14840 C 1398.22 4.84882 2.2299 0
M  V30 14841 O 1398.44 4.55448 3.43399 0
M  V30 14842 O 1397.38 5.71714 1.8822 0
M  V30 14843 H 1401.2 3.03651 -0.0545288 0
M  V30 14844 H 1398.79 1.49113 -0.0925027 0
M  V30 14845 H 1400.67 3.49443 2.35515 0
M  V30 14846 H 1399.35 2.30113 2.27662 0
M  V30 14847 H 1398.25 3.71497 0.440579 0
M  V30 14848 H 1399.59 4.88539 0.599211 0
M  V30 14849 N 1401.24 0.0551678 1.57503 0
M  V30 14850 C 1402.47 -0.626291 1.96879 0
M  V30 14851 C 1402.88 -1.64677 0.93156 0
M  V30 14852 O 1402.22 -1.83469 -0.0921632 0
M  V30 14853 C 1402.28 -1.36674 3.32506 0
M  V30 14854 C 1401.95 -0.501632 4.54239 0
M  V30 14855 C 1402.94 0.233939 5.19373 0
M  V30 14856 C 1400.63 -0.431385 5.00444 0
M  V30 14857 C 1402.62 1.02815 6.29053 0
M  V30 14858 C 1400.31 0.366514 6.1 0
M  V30 14859 C 1401.31 1.09497 6.74166 0
M  V30 14860 O 1400.99 1.87974 7.81614 0
M  V30 14861 H 1400.73 -0.175738 0.652757 0
M  V30 14862 H 1403.28 0.11909 2.05054 0
M  V30 14863 H 1401.51 -2.15783 3.20896 0
M  V30 14864 H 1403.2 -1.93882 3.56602 0
M  V30 14865 H 1403.97 0.189161 4.84631 0
M  V30 14866 H 1399.84 -0.98798 4.50289 0
M  V30 14867 H 1403.39 1.59724 6.79068 0
M  V30 14868 H 1399.29 0.412916 6.44178 0
M  V30 14869 H 1400.05 1.80228 7.98411 0
M  V30 14870 N 1402.72 -1.56081 -0.218252 0
M  V30 14871 C 1403.65 -1.95706 -1.27364 0
M  V30 14872 C 1404.63 -0.825731 -1.48713 0
M  V30 14873 O 1405.81 -1.08829 -1.60841 0
M  V30 14874 C 1402.94 -2.2766 -2.62275 0
M  V30 14875 C 1401.9 -3.43314 -2.55576 0
M  V30 14876 C 1401.22 -3.60883 -3.94547 0
M  V30 14877 C 1402.52 -4.7819 -2.10075 0
M  V30 14878 H 1404.22 -2.84113 -0.944459 0
M  V30 14879 H 1401.76 -1.36693 -0.452882 0
M  V30 14880 H 1403.72 -2.53973 -3.36268 0
M  V30 14881 H 1402.44 -1.3611 -2.96887 0
M  V30 14882 H 1401.1 -3.17056 -1.8404 0
M  V30 14883 H 1400.75 -2.66703 -4.26472 0
M  V30 14884 H 1400.45 -4.38674 -3.90946 0
M  V30 14885 H 1401.97 -3.89547 -4.70197 0
M  V30 14886 H 1403.38 -5.03686 -2.73813 0
M  V30 14887 H 1401.78 -5.59287 -2.17527 0
M  V30 14888 H 1402.85 -4.73325 -1.05314 0
M  V30 14889 N 1404.2 0.485086 -1.49949 0
M  V30 14890 C 1405.11 1.61089 -1.70551 0
M  V30 14891 C 1406.12 1.63752 -0.588333 0
M  V30 14892 O 1407.3 1.81879 -0.86498 0
M  V30 14893 C 1404.36 2.97382 -1.78227 0
M  V30 14894 C 1403.42 3.05219 -3.01894 0
M  V30 14895 C 1402.66 4.35011 -3.09195 0
M  V30 14896 O 1402.88 5.24722 -2.23658 0
M  V30 14897 O 1401.81 4.48151 -4.01802 0
M  V30 14898 H 1405.64 1.46633 -2.65956 0
M  V30 14899 H 1403.22 0.663091 -1.33879 0
M  V30 14900 H 1405.11 3.78356 -1.85538 0
M  V30 14901 H 1403.78 3.12066 -0.860043 0
M  V30 14902 H 1402.69 2.23373 -3.00092 0
M  V30 14903 H 1404.02 2.95467 -3.93649 0
M  V30 14904 N 1405.67 1.39291 0.737279 0
M  V30 14905 C 1407.08 1.32489 1.31543 0
M  V30 14906 C 1407.44 -0.0118162 1.96196 0
M  V30 14907 O 1406.56 -0.913938 1.96153 0
M  V30 14908 C 1407.16 2.39946 2.39189 0
M  V30 14909 C 1405.71 2.36671 2.92684 0
M  V30 14910 C 1404.86 2.21953 1.66229 0
M  V30 14911 H 1407.81 1.49412 0.534954 0
M  V30 14912 H 1407.83 2.06603 3.19524 0
M  V30 14913 H 1407.35 3.3722 1.92104 0
M  V30 14914 H 1405.45 1.43028 3.44055 0
M  V30 14915 H 1405.56 3.31441 3.45953 0
M  V30 14916 H 1403.92 1.69087 1.90478 0
M  V30 14917 H 1404.71 3.21194 1.21199 0
M  V30 14918 N 1407.15 -0.967221 1.24429 0
M  V30 14919 C 1408.4 -1.71279 1.08588 0
M  V30 14920 C 1408.73 -1.90558 -0.374325 0
M  V30 14921 O 1408.01 -1.46742 -1.27659 0
M  V30 14922 C 1408.29 -3.10326 1.82674 0
M  V30 14923 C 1408.14 -2.98535 3.36447 0
M  V30 14924 C 1409.46 -4.09993 1.59981 0
M  V30 14925 H 1406.58 -0.621658 0.395867 0
M  V30 14926 H 1409.22 -1.12514 1.53103 0
M  V30 14927 H 1407.37 -3.60492 1.44836 0
M  V30 14928 H 1409.04 -2.55791 3.83886 0
M  V30 14929 H 1407.29 -2.34736 3.64803 0
M  V30 14930 H 1407.96 -3.97041 3.83487 0
M  V30 14931 H 1410.43 -3.68687 1.92897 0
M  V30 14932 H 1409.31 -5.05349 2.14274 0
M  V30 14933 H 1409.57 -4.38812 0.538173 0
M  V30 14934 N 1408.63 -1.05812 -1.16797 0
M  V30 14935 C 1409.91 -0.685551 -1.83193 0
M  V30 14936 C 1410.29 0.833539 -1.93947 0
M  V30 14937 O 1409.63 1.74193 -1.47882 0
M  V30 14938 C 1409.84 -1.38183 -3.20479 0
M  V30 14939 C 1411.19 -1.52389 -3.96311 0
M  V30 14940 O 1412.22 -1.34134 -3.2998 0
M  V30 14941 O 1411.08 -1.82297 -5.15199 0
M  V30 14942 H 1408.17 -0.242095 -0.790771 0
M  V30 14943 H 1410.72 -1.15809 -1.24041 0
M  V30 14944 H 1409.49 -2.41791 -3.07657 0
M  V30 14945 H 1409.11 -0.899043 -3.87302 0
M  V30 14946 N 1410.11 1.33347 -0.840014 0
M  V30 14947 C 1411.35 1.97745 -0.436274 0
M  V30 14948 C 1411.68 1.66538 1.00475 0
M  V30 14949 O 1410.94 0.938137 1.71748 0
M  V30 14950 C 1411.24 3.52239 -0.605173 0
M  V30 14951 C 1410.9 4.03398 -2.01446 0
M  V30 14952 C 1409.56 4.1708 -2.39994 0
M  V30 14953 C 1411.92 4.3071 -2.93494 0
M  V30 14954 C 1409.24 4.55409 -3.69891 0
M  V30 14955 C 1411.6 4.70491 -4.22873 0
M  V30 14956 C 1410.26 4.82379 -4.61375 0
M  V30 14957 H 1409.53 0.723599 -0.159644 0
M  V30 14958 H 1412.18 1.59003 -1.06725 0
M  V30 14959 H 1410.48 3.91648 0.109116 0
M  V30 14960 H 1412.18 4.00069 -0.273056 0
M  V30 14961 H 1408.77 3.93224 -1.70508 0
M  V30 14962 H 1412.95 4.19661 -2.64949 0
M  V30 14963 H 1408.21 4.62806 -3.99525 0
M  V30 14964 H 1412.38 4.9058 -4.94271 0
M  V30 14965 H 1410.01 5.11835 -5.62075 0
M  V30 14966 N 1411.59 0.596556 1.45873 0
M  V30 14967 C 1412.5 -0.130832 2.34235 0
M  V30 14968 C 1413.51 -0.871805 1.50584 0
M  V30 14969 O 1414.69 -0.831877 1.83417 0
M  V30 14970 C 1411.75 -1.12279 3.28016 0
M  V30 14971 C 1410.81 -0.384982 4.2757 0
M  V30 14972 C 1410.05 -1.32969 5.1687 0
M  V30 14973 O 1410.27 -2.56696 5.09375 0
M  V30 14974 O 1409.2 -0.832741 5.96112 0
M  V30 14975 H 1413.03 0.59503 2.97814 0
M  V30 14976 H 1410.61 0.356873 1.45075 0
M  V30 14977 H 1412.5 -1.6944 3.85834 0
M  V30 14978 H 1411.17 -1.82988 2.67015 0
M  V30 14979 H 1410.08 0.228816 3.734 0
M  V30 14980 H 1411.41 0.281398 4.91395 0
M  V30 14981 N 1413.06 -1.53996 0.335095 0
M  V30 14982 C 1414.01 -2.24736 -0.52559 0
M  V30 14983 C 1414.98 -1.24244 -1.10239 0
M  V30 14984 O 1416.17 -1.52955 -1.14058 0
M  V30 14985 C 1413.31 -3.01732 -1.67487 0
M  V30 14986 C 1412.42 -4.17062 -1.1262 0
M  V30 14987 C 1411.55 -4.81563 -2.2421 0
M  V30 14988 C 1410.59 -5.88977 -1.6665 0
M  V30 14989 N 1409.73 -6.47293 -2.71949 0
M  V30 14990 H 1414.57 -2.97881 0.0842008 0
M  V30 14991 H 1412.11 -1.47003 0.0533254 0
M  V30 14992 H 1414.06 -3.44626 -2.35135 0
M  V30 14993 H 1412.69 -2.30899 -2.25578 0
M  V30 14994 H 1411.75 -3.78869 -0.340917 0
M  V30 14995 H 1413.06 -4.94346 -0.665113 0
M  V30 14996 H 1412.21 -5.27486 -2.9974 0
M  V30 14997 H 1410.95 -4.03685 -2.73659 0
M  V30 14998 H 1409.96 -5.42446 -0.89623 0
M  V30 14999 H 1411.18 -6.68758 -1.18064 0
M  V30 15000 H 1409.13 -5.72283 -3.20668 0
M  V30 15001 H 1409.04 -7.20024 -2.30438 0
M  V30 15002 H 1410.31 -6.97869 -3.47273 0
M  V30 15003 N 1414.54 -0.0635198 -1.57472 0
M  V30 15004 C 1415.79 0.608384 -1.93459 0
M  V30 15005 C 1416.12 1.6976 -0.943141 0
M  V30 15006 O 1415.4 1.94478 0.0289567 0
M  V30 15007 C 1415.68 1.19302 -3.39763 0
M  V30 15008 C 1415.53 0.11102 -4.49663 0
M  V30 15009 C 1416.85 2.101 -3.86712 0
M  V30 15010 H 1413.97 0.219688 -0.703496 0
M  V30 15011 H 1416.61 -0.127803 -1.8957 0
M  V30 15012 H 1414.76 1.82044 -3.43209 0
M  V30 15013 H 1416.43 -0.521606 -4.58342 0
M  V30 15014 H 1414.68 -0.559408 -4.30178 0
M  V30 15015 H 1415.35 0.560332 -5.49149 0
M  V30 15016 H 1417.82 1.57305 -3.8522 0
M  V30 15017 H 1416.7 2.47945 -4.89708 0
M  V30 15018 H 1416.96 3.00603 -3.24177 0
M  V30 15019 N 1416.02 1.56195 0.209972 0
M  V30 15020 C 1417.44 1.49446 0.56018 0
M  V30 15021 C 1417.64 0.760799 1.86585 0
M  V30 15022 O 1416.69 0.305201 2.50649 0
M  V30 15023 C 1418 2.94054 0.628687 0
M  V30 15024 C 1419.55 3.04641 0.718531 0
M  V30 15025 C 1420.03 4.50631 0.81828 0
M  V30 15026 N 1421.52 4.54721 0.8822 0
M  V30 15027 C 1422.25 5.64976 0.979292 0
M  V30 15028 N 1421.75 6.84955 1.03961 0
M  V30 15029 N 1423.54 5.52854 1.01533 0
M  V30 15030 H 1415.69 2.02316 -0.646674 0
M  V30 15031 H 1417.96 0.920063 -0.228446 0
M  V30 15032 H 1417.66 3.50728 -0.261324 0
M  V30 15033 H 1417.54 3.46592 1.48842 0
M  V30 15034 H 1419.92 2.48026 1.59898 0
M  V30 15035 H 1420 2.55254 -0.167102 0
M  V30 15036 H 1419.65 5.07867 -0.0577557 0
M  V30 15037 H 1419.58 4.97736 1.7195 0
M  V30 15038 H 1422.07 3.68322 0.845433 0
M  V30 15039 H 1422.38 7.64732 1.11379 0
M  V30 15040 H 1420.73 6.87643 1.00854 0
M  V30 15041 H 1423.92 4.58046 0.96494 0
M  V30 15042 H 1424.09 6.38809 1.08754 0
M  V30 15043 N 1417.5 -0.477127 1.50204 0
M  V30 15044 C 1418.41 -1.60182 1.71403 0
M  V30 15045 C 1419.42 -1.63437 0.597009 0
M  V30 15046 O 1420.6 -1.81418 0.874614 0
M  V30 15047 C 1417.66 -2.96432 1.79802 0
M  V30 15048 C 1416.73 -3.03614 3.03508 0
M  V30 15049 C 1415.96 -4.33365 3.11497 0
M  V30 15050 O 1416.18 -5.23529 2.26438 0
M  V30 15051 O 1415.12 -4.46013 4.04173 0
M  V30 15052 H 1418.94 -1.45221 2.66729 0
M  V30 15053 H 1416.53 -0.655982 1.34228 0
M  V30 15054 H 1418.41 -3.77367 1.87542 0
M  V30 15055 H 1417.08 -3.11605 0.876581 0
M  V30 15056 H 1415.99 -2.21779 3.01272 0
M  V30 15057 H 1417.32 -2.93376 3.95211 0
M  V30 15058 N 1418.98 -1.3968 -0.729882 0
M  V30 15059 C 1419.91 -1.41549 -1.85704 0
M  V30 15060 C 1420.89 -0.278186 -1.6781 0
M  V30 15061 O 1422.07 -0.484749 -1.88053 0
M  V30 15062 C 1419.2 -1.26327 -3.2351 0
M  V30 15063 C 1418.16 -2.37511 -3.56051 0
M  V30 15064 C 1417.48 -2.07375 -4.92849 0
M  V30 15065 C 1418.78 -3.79833 -3.58502 0
M  V30 15066 H 1420.48 -2.35877 -1.84398 0
M  V30 15067 H 1418.02 -1.13536 -0.885747 0
M  V30 15068 H 1419.98 -1.26254 -4.02042 0
M  V30 15069 H 1418.7 -0.284697 -3.25357 0
M  V30 15070 H 1417.36 -2.36809 -2.79852 0
M  V30 15071 H 1417.01 -1.07943 -4.91281 0
M  V30 15072 H 1416.71 -2.81855 -5.15588 0
M  V30 15073 H 1418.23 -2.08961 -5.73731 0
M  V30 15074 H 1419.64 -3.82436 -4.27101 0
M  V30 15075 H 1418.04 -4.53715 -3.92763 0
M  V30 15076 H 1419.11 -4.10443 -2.58195 0
M  V30 15077 N 1420.45 0.960609 -1.2494 0
M  V30 15078 C 1421.38 2.074 -1.07274 0
M  V30 15079 C 1422.37 1.70092 0.0164365 0
M  V30 15080 O 1423.55 1.93604 -0.151975 0
M  V30 15081 C 1420.68 3.40491 -0.684317 0
M  V30 15082 C 1419.63 3.91784 -1.72306 0
M  V30 15083 C 1418.96 5.21301 -1.18949 0
M  V30 15084 C 1420.26 4.18829 -3.12056 0
M  V30 15085 H 1421.95 2.22438 -2.00404 0
M  V30 15086 H 1419.5 1.06888 -0.964937 0
M  V30 15087 H 1421.45 4.17826 -0.547686 0
M  V30 15088 H 1420.18 3.25374 0.282687 0
M  V30 15089 H 1418.84 3.16613 -1.84802 0
M  V30 15090 H 1418.48 5.02549 -0.212892 0
M  V30 15091 H 1418.18 5.56588 -1.8837 0
M  V30 15092 H 1419.71 6.01238 -1.06513 0
M  V30 15093 H 1421.12 4.86844 -3.02748 0
M  V30 15094 H 1419.52 4.6536 -3.78894 0
M  V30 15095 H 1420.59 3.25333 -3.59564 0
M  V30 15096 N 1421.93 1.0643 1.16234 0
M  V30 15097 C 1422.84 0.687446 2.24302 0
M  V30 15098 C 1423.86 -0.297132 1.71444 0
M  V30 15099 O 1425.03 -0.146101 2.00869 0
M  V30 15100 C 1422.1 0.0810973 3.46605 0
M  V30 15101 C 1421.16 1.11772 4.14494 0
M  V30 15102 C 1420.39 0.54021 5.30959 0
M  V30 15103 O 1420.62 -0.646619 5.66723 0
M  V30 15104 O 1419.55 1.28057 5.8812 0
M  V30 15105 H 1423.38 1.58842 2.58849 0
M  V30 15106 H 1420.96 0.836649 1.23776 0
M  V30 15107 H 1422.84 -0.25524 4.20626 0
M  V30 15108 H 1421.52 -0.793338 3.13828 0
M  V30 15109 H 1420.43 1.50626 3.42436 0
M  V30 15110 H 1421.76 1.96373 4.5133 0
M  V30 15111 N 1423.41 -1.329 0.847073 0
M  V30 15112 C 1424.32 -2.32815 0.288878 0
M  V30 15113 C 1425.34 -1.63715 -0.589363 0
M  V30 15114 O 1426.51 -1.9531 -0.491537 0
M  V30 15115 C 1423.58 -3.42778 -0.519988 0
M  V30 15116 C 1422.64 -4.27584 0.383496 0
M  V30 15117 C 1421.87 -5.32296 -0.386862 0
M  V30 15118 O 1422.09 -5.4698 -1.61768 0
M  V30 15119 O 1421.03 -6.01408 0.2434 0
M  V30 15120 H 1424.85 -2.82434 1.11647 0
M  V30 15121 H 1422.44 -1.36388 0.609807 0
M  V30 15122 H 1424.32 -4.09862 -0.979357 0
M  V30 15123 H 1423 -2.95362 -1.3245 0
M  V30 15124 H 1421.9 -3.63338 0.890879 0
M  V30 15125 H 1423.24 -4.78505 1.15299 0
M  V30 15126 N 1424.89 -0.604284 -1.45555 0
M  V30 15127 C 1425.8 0.118409 -2.34301 0
M  V30 15128 C 1426.81 0.863807 -1.51044 0
M  V30 15129 O 1427.99 0.822138 -1.83856 0
M  V30 15130 C 1425.06 1.10538 -3.28606 0
M  V30 15131 C 1424.12 0.362301 -4.27768 0
M  V30 15132 C 1423.35 1.30226 -5.17568 0
M  V30 15133 O 1423.57 2.53991 -5.10729 0
M  V30 15134 O 1422.51 0.801116 -5.96545 0
M  V30 15135 H 1426.33 -0.610816 -2.97494 0
M  V30 15136 H 1423.92 -0.364562 -1.44884 0
M  V30 15137 H 1425.8 1.67392 -3.86727 0
M  V30 15138 H 1424.47 1.81569 -2.67982 0
M  V30 15139 H 1423.38 -0.248616 -3.73273 0
M  V30 15140 H 1424.71 -0.307454 -4.91239 0
M  V30 15141 N 1426.37 1.53816 -0.343257 0
M  V30 15142 C 1427.3 2.22552 0.548015 0
M  V30 15143 C 1428.31 1.23202 1.06419 0
M  V30 15144 O 1429.5 1.49559 0.974394 0
M  V30 15145 C 1426.6 2.89197 1.76687 0
M  V30 15146 C 1425.77 4.14859 1.38603 0
M  V30 15147 C 1424.83 4.64917 2.46453 0
M  V30 15148 O 1423.86 5.29135 2.09773 0
M  V30 15149 N 1425.06 4.4082 3.77701 0
M  V30 15150 H 1427.83 2.99672 -0.040645 0
M  V30 15151 H 1425.39 1.61033 -0.167368 0
M  V30 15152 H 1427.38 3.19601 2.48268 0
M  V30 15153 H 1425.95 2.15664 2.26291 0
M  V30 15154 H 1425.17 3.91003 0.501001 0
M  V30 15155 H 1426.46 4.96599 1.10756 0
M  V30 15156 H 1425.85 3.8946 4.1029 0
M  V30 15157 H 1424.41 4.7583 4.45453 0
M  V30 15158 N 1427.84 0.0718701 1.57436 0
M  V30 15159 C 1428.78 -0.924911 2.09709 0
M  V30 15160 C 1429.79 -1.26136 1.02925 0
M  V30 15161 O 1430.98 -1.21853 1.30438 0
M  V30 15162 C 1428.08 -2.24072 2.54254 0
M  V30 15163 C 1427.25 -2.0831 3.84611 0
M  V30 15164 C 1426.31 -3.23196 4.15248 0
M  V30 15165 O 1425.34 -2.98184 4.84846 0
M  V30 15166 N 1426.54 -4.48293 3.688 0
M  V30 15167 H 1429.3 -0.478605 2.95854 0
M  V30 15168 H 1426.86 -0.113853 1.61499 0
M  V30 15169 H 1428.86 -2.99835 2.71811 0
M  V30 15170 H 1427.43 -2.60201 1.73246 0
M  V30 15171 H 1426.65 -1.17014 3.76432 0
M  V30 15172 H 1427.93 -1.9503 4.69937 0
M  V30 15173 H 1427.33 -4.71501 3.12575 0
M  V30 15174 H 1425.89 -5.21082 3.91556 0
M  V30 15175 N 1429.32 -1.56304 -0.201686 0
M  V30 15176 C 1430.57 -1.79881 -0.921269 0
M  V30 15177 C 1430.89 -0.643809 -1.84065 0
M  V30 15178 O 1430.16 0.338239 -1.92958 0
M  V30 15179 H 1428.74 -0.663506 -0.343175 0
M  V30 15180 H 1431.4 -1.93779 -0.208775 0
M  V30 15181 H 1430.5 -2.7279 -1.51631 0
M  V30 15182 N 1430.8 0.469154 -1.50455 0
M  V30 15183 C 1432.21 1.04997 -1.54378 0
M  V30 15184 C 1432.56 1.93082 -0.348414 0
M  V30 15185 O 1431.69 2.09594 0.538469 0
M  V30 15186 C 1432.28 1.91096 -2.79764 0
M  V30 15187 C 1430.84 2.44283 -2.86361 0
M  V30 15188 C 1429.99 1.22676 -2.48688 0
M  V30 15189 H 1432.94 0.251692 -1.56691 0
M  V30 15190 H 1432.96 2.76186 -2.61728 0
M  V30 15191 H 1432.47 1.26961 -3.66746 0
M  V30 15192 H 1430.57 3.11966 -2.03735 0
M  V30 15193 H 1430.69 2.79258 -3.89297 0
M  V30 15194 H 1429.05 1.56215 -2.01169 0
M  V30 15195 H 1429.83 0.602002 -3.37981 0
M  V30 15196 N 1432.28 1.40065 0.722464 0
M  V30 15197 C 1433.52 1.38175 1.48444 0
M  V30 15198 C 1433.86 -0.0182857 1.94191 0
M  V30 15199 O 1433.13 -0.985638 1.67677 0
M  V30 15200 C 1433.42 2.36518 2.71535 0
M  V30 15201 C 1433.27 3.85517 2.31726 0
M  V30 15202 C 1434.59 2.325 3.73673 0
M  V30 15203 H 1431.71 0.503221 0.538458 0
M  V30 15204 H 1434.35 1.7115 0.825087 0
M  V30 15205 H 1432.5 2.08529 3.27793 0
M  V30 15206 H 1434.17 4.24306 1.81003 0
M  V30 15207 H 1432.41 4.01684 1.63807 0
M  V30 15208 H 1433.08 4.49834 3.19928 0
M  V30 15209 H 1435.56 2.57277 3.27029 0
M  V30 15210 H 1434.44 3.03369 4.57447 0
M  V30 15211 H 1434.7 1.33427 4.21485 0
M  V30 15212 N 1433.76 -0.95397 1.25448 0
M  V30 15213 C 1434.99 -1.73331 1.12977 0
M  V30 15214 C 1435.4 -1.86131 -0.316364 0
M  V30 15215 O 1434.76 -1.35951 -1.21753 0
M  V30 15216 C 1434.81 -3.14675 1.77938 0
M  V30 15217 O 1434.53 -3.025 3.16899 0
M  V30 15218 C 1436.03 -4.08884 1.71256 0
M  V30 15219 H 1433.25 -0.543118 0.394036 0
M  V30 15220 H 1435.79 -1.19678 1.65823 0
M  V30 15221 H 1433.95 -3.6527 1.29062 0
M  V30 15222 H 1434.36 -3.91668 3.4885 0
M  V30 15223 H 1435.84 -5.05668 2.21368 0
M  V30 15224 H 1436.31 -4.33959 0.676476 0
M  V30 15225 H 1436.92 -3.64205 2.19624 0
M  V30 15226 N 1435.24 -1.07045 -1.15668 0
M  V30 15227 C 1436.15 -0.699332 -2.23934 0
M  V30 15228 C 1437.16 0.288036 -1.71599 0
M  V30 15229 O 1438.34 0.135447 -2.00944 0
M  V30 15230 C 1435.4 -0.0994775 -3.46557 0
M  V30 15231 C 1434.46 -1.13968 -4.13896 0
M  V30 15232 C 1433.7 -0.56836 -5.30665 0
M  V30 15233 O 1433.92 0.616556 -5.67058 0
M  V30 15234 O 1432.85 -1.31174 -5.87432 0
M  V30 15235 H 1436.68 -1.60212 -2.58003 0
M  V30 15236 H 1434.26 -0.843202 -1.23331 0
M  V30 15237 H 1436.15 0.23293 -4.20756 0
M  V30 15238 H 1434.82 0.776684 -3.14244 0
M  V30 15239 H 1433.73 -1.5244 -3.41633 0
M  V30 15240 H 1435.06 -1.98764 -4.50282 0
M  V30 15241 N 1436.71 1.32449 -0.85411 0
M  V30 15242 C 1437.65 2.2777 -0.255605 0
M  V30 15243 C 1438.66 1.52407 0.572355 0
M  V30 15244 O 1439.85 1.74031 0.396935 0
M  V30 15245 C 1436.95 3.32461 0.657496 0
M  V30 15246 C 1436.12 4.37193 -0.134492 0
M  V30 15247 C 1435.18 5.21465 0.704288 0
M  V30 15248 O 1434.21 5.69033 0.138001 0
M  V30 15249 N 1435.41 5.44254 2.01911 0
M  V30 15250 H 1438.17 2.79769 -1.07468 0
M  V30 15251 H 1435.73 1.45304 -0.714038 0
M  V30 15252 H 1437.73 3.85748 1.22396 0
M  V30 15253 H 1436.3 2.80625 1.37726 0
M  V30 15254 H 1435.52 3.84198 -0.882378 0
M  V30 15255 H 1436.8 5.04256 -0.678508 0
M  V30 15256 H 1436.2 5.07336 2.50252 0
M  V30 15257 H 1434.76 6.00538 2.53371 0
M  V30 15258 N 1438.19 0.611994 1.45232 0
M  V30 15259 C 1439.47 0.0407 1.95558 0
M  V30 15260 C 1439.85 -1.42839 1.55436 0
M  V30 15261 O 1439.2 -2.13316 0.819055 0
M  V30 15262 C 1439.41 0.243436 3.4815 0
M  V30 15263 C 1440.75 0.126551 4.24411 0
M  V30 15264 O 1441.78 0.17379 3.55776 0
M  V30 15265 O 1440.64 0.0153526 5.46498 0
M  V30 15266 H 1437.73 -0.0332288 0.826332 0
M  V30 15267 H 1440.28 0.682364 1.55377 0
M  V30 15268 H 1439.05 1.26357 3.70337 0
M  V30 15269 H 1438.67 -0.43328 3.95232 0
M  V30 15270 N 1439.67 -1.53632 0.351409 0
M  V30 15271 C 1440.92 -2.00222 -0.243731 0
M  V30 15272 C 1441.23 -1.24305 -1.51022 0
M  V30 15273 O 1442.44 -1.61411 -2.18309 0
M  V30 15274 C 1440.89 -3.56619 -0.48487 0
M  V30 15275 C 1440.5 -4.414 0.766173 0
M  V30 15276 C 1442.25 -4.11603 -1.03844 0
M  V30 15277 C 1440.15 -5.89321 0.4954 0
M  V30 15278 H 1439.08 -0.74801 -0.0948534 0
M  V30 15279 H 1441.73 -1.77433 0.467957 0
M  V30 15280 H 1440.12 -3.75505 -1.25746 0
M  V30 15281 H 1441.29 -4.34288 1.54047 0
M  V30 15282 H 1439.6 -3.97448 1.24194 0
M  V30 15283 H 1442.2 -5.19736 -1.25611 0
M  V30 15284 H 1442.54 -3.65311 -1.99634 0
M  V30 15285 H 1443.08 -3.96459 -0.326363 0
M  V30 15286 H 1439.82 -6.39863 1.42324 0
M  V30 15287 H 1439.34 -5.99317 -0.240662 0
M  V30 15288 H 1441.02 -6.46897 0.115584 0
M  V30 15289 N 1441.15 -0.0802183 -1.57396 0
M  V30 15290 C 1442.4 0.586573 -1.92982 0
M  V30 15291 C 1442.71 1.70256 -0.962918 0
M  V30 15292 O 1443.92 2.4295 -1.21193 0
M  V30 15293 C 1442.37 1.09475 -3.42846 0
M  V30 15294 C 1441.98 0.0093098 -4.47999 0
M  V30 15295 C 1443.72 1.73512 -3.87419 0
M  V30 15296 C 1441.63 0.532002 -5.89002 0
M  V30 15297 H 1440.56 0.222878 -0.720306 0
M  V30 15298 H 1443.21 -0.153816 -1.82854 0
M  V30 15299 H 1441.59 1.88836 -3.48076 0
M  V30 15300 H 1442.77 -0.765609 -4.54395 0
M  V30 15301 H 1441.08 -0.535345 -4.12944 0
M  V30 15302 H 1443.68 2.13665 -4.90154 0
M  V30 15303 H 1444.02 2.59845 -3.25248 0
M  V30 15304 H 1444.56 1.00758 -3.84828 0
M  V30 15305 H 1441.29 -0.294364 -6.54839 0
M  V30 15306 H 1440.81 1.27425 -5.86108 0
M  V30 15307 H 1442.49 1.00573 -6.39135 0
M  V30 15308 N 1442.63 1.56409 0.193394 0
M  V30 15309 C 1443.85 1.8519 0.933775 0
M  V30 15310 C 1444.28 0.663991 1.75991 0
M  V30 15311 O 1443.63 -0.387198 1.77117 0
M  V30 15312 C 1443.68 3.12212 1.80432 0
M  V30 15313 O 1442.79 2.92884 2.90332 0
M  V30 15314 H 1442.13 0.609754 0.262862 0
M  V30 15315 H 1444.66 2.03638 0.198195 0
M  V30 15316 H 1444.67 3.4305 2.20864 0
M  V30 15317 H 1443.34 3.98292 1.19733 0
M  V30 15318 H 1441.92 2.73349 2.53643 0
M  V30 15319 N 1444.1 -0.461169 1.50702 0
M  V30 15320 C 1445.33 -1.23375 1.65717 0
M  V30 15321 C 1445.74 -1.86047 0.343992 0
M  V30 15322 O 1445.08 -1.70447 -0.68508 0
M  V30 15323 C 1445.15 -2.3758 2.69808 0
M  V30 15324 C 1444.81 -1.95467 4.13088 0
M  V30 15325 C 1445.81 -1.47154 4.9864 0
M  V30 15326 C 1443.49 -2.03885 4.5906 0
M  V30 15327 C 1445.49 -1.07815 6.28215 0
M  V30 15328 C 1443.17 -1.64157 5.88639 0
M  V30 15329 C 1444.17 -1.16201 6.73043 0
M  V30 15330 O 1443.86 -0.770282 8.00201 0
M  V30 15331 H 1443.59 -0.378885 0.559841 0
M  V30 15332 H 1446.15 -0.555712 1.9774 0
M  V30 15333 H 1444.38 -3.08586 2.33049 0
M  V30 15334 H 1446.06 -2.99517 2.73942 0
M  V30 15335 H 1446.83 -1.40064 4.64335 0
M  V30 15336 H 1442.71 -2.40159 3.93503 0
M  V30 15337 H 1446.25 -0.703139 6.94047 0
M  V30 15338 H 1442.15 -1.70909 6.22463 0
M  V30 15339 H 1442.92 -0.898254 8.13556 0
M  V30 15340 N 1445.58 -1.40446 -0.715026 0
M  V30 15341 C 1446.83 -1.3896 -1.47709 0
M  V30 15342 C 1447.16 0.00798698 -1.94198 0
M  V30 15343 O 1446.44 0.976732 -1.68197 0
M  V30 15344 C 1446.72 -2.37955 -2.70277 0
M  V30 15345 C 1446.57 -3.8674 -2.29678 0
M  V30 15346 C 1447.89 -2.34478 -3.72435 0
M  V30 15347 H 1445.01 -0.50607 -0.535782 0
M  V30 15348 H 1447.65 -1.71585 -0.815999 0
M  V30 15349 H 1445.8 -2.10264 -3.26682 0
M  V30 15350 H 1447.47 -4.2526 -1.7875 0
M  V30 15351 H 1445.72 -4.02547 -1.61674 0
M  V30 15352 H 1446.39 -4.51524 -3.17538 0
M  V30 15353 H 1448.86 -2.59007 -3.2566 0
M  V30 15354 H 1447.74 -3.05791 -4.55832 0
M  V30 15355 H 1448 -1.35661 -4.20771 0
M  V30 15356 N 1447.06 0.947303 -1.25952 0
M  V30 15357 C 1447.99 2.0625 -1.09467 0
M  V30 15358 C 1448.97 1.701 -0.00160498 0
M  V30 15359 O 1450.16 1.93432 -0.172501 0
M  V30 15360 C 1447.29 3.39746 -0.720392 0
M  V30 15361 C 1446.24 3.89935 -1.76451 0
M  V30 15362 C 1445.57 5.2001 -1.24472 0
M  V30 15363 C 1446.87 4.15496 -3.16481 0
M  V30 15364 H 1448.56 2.203 -2.02752 0
M  V30 15365 H 1446.11 1.05858 -0.97622 0
M  V30 15366 H 1448.06 4.17221 -0.591972 0
M  V30 15367 H 1446.78 3.25656 0.248161 0
M  V30 15368 H 1445.44 3.14635 -1.8815 0
M  V30 15369 H 1445.09 5.02295 -0.266182 0
M  V30 15370 H 1444.79 5.54559 -1.94263 0
M  V30 15371 H 1446.31 6.00075 -1.12884 0
M  V30 15372 H 1447.73 4.83605 -3.07894 0
M  V30 15373 H 1446.12 4.61315 -3.83808 0
M  V30 15374 H 1447.19 3.21501 -3.62995 0
M  V30 15375 N 1448.54 1.07657 1.15099 0
M  V30 15376 C 1449.77 0.821631 1.89559 0
M  V30 15377 C 1450.18 -0.629174 1.78432 0
M  V30 15378 O 1449.52 -1.44353 1.13613 0
M  V30 15379 C 1449.58 1.15473 3.4045 0
M  V30 15380 C 1449.25 2.60675 3.75363 0
M  V30 15381 C 1450.24 3.58923 3.76125 0
M  V30 15382 C 1447.93 2.96333 4.05576 0
M  V30 15383 C 1449.92 4.90863 4.06611 0
M  V30 15384 C 1447.61 4.28469 4.35727 0
M  V30 15385 C 1448.61 5.25543 4.36226 0
M  V30 15386 O 1448.29 6.55305 4.65651 0
M  V30 15387 H 1448.03 0.296469 0.607521 0
M  V30 15388 H 1450.58 1.43722 1.46742 0
M  V30 15389 H 1448.81 0.482117 3.83683 0
M  V30 15390 H 1450.5 0.881832 3.96205 0
M  V30 15391 H 1451.27 3.32718 3.52879 0
M  V30 15392 H 1447.14 2.2142 4.04344 0
M  V30 15393 H 1450.69 5.66626 4.06916 0
M  V30 15394 H 1446.59 4.54425 4.58441 0
M  V30 15395 H 1447.35 6.60503 4.83402 0
M  V30 15396 N 1450.02 -1.31994 0.861122 0
M  V30 15397 C 1451.43 -1.79271 0.521437 0
M  V30 15398 C 1451.78 -1.71046 -0.96113 0
M  V30 15399 O 1450.9 -1.2729 -1.75003 0
M  V30 15400 C 1451.5 -3.25507 0.939731 0
M  V30 15401 C 1450.06 -3.70713 0.651845 0
M  V30 15402 C 1449.2 -2.52967 1.13592 0
M  V30 15403 H 1452.16 -1.19201 1.0477 0
M  V30 15404 H 1452.18 -3.79619 0.258754 0
M  V30 15405 H 1451.69 -3.3146 2.0188 0
M  V30 15406 H 1449.79 -3.70268 -0.416232 0
M  V30 15407 H 1449.9 -4.63236 1.22267 0
M  V30 15408 H 1448.27 -2.48558 0.555971 0
M  V30 15409 H 1449.05 -2.61671 2.22223 0
M  V30 15410 N 1451.49 -0.619688 -1.44906 0
M  V30 15411 C 1452.44 0.0920359 -2.30616 0
M  V30 15412 C 1453.41 0.848114 -1.42815 0
M  V30 15413 O 1454.6 0.831439 -1.71732 0
M  V30 15414 C 1451.74 1.07537 -3.27917 0
M  V30 15415 C 1450.85 0.318904 -4.30821 0
M  V30 15416 C 1449.98 1.29303 -5.15222 0
M  V30 15417 C 1449.02 0.525071 -6.09844 0
M  V30 15418 N 1448.16 1.44909 -6.86983 0
M  V30 15419 H 1453 -0.644834 -2.9094 0
M  V30 15420 H 1450.54 -0.329785 -1.43356 0
M  V30 15421 H 1452.5 1.65874 -3.82808 0
M  V30 15422 H 1451.13 1.7795 -2.6932 0
M  V30 15423 H 1450.18 -0.380192 -3.78495 0
M  V30 15424 H 1451.49 -0.279742 -4.98015 0
M  V30 15425 H 1450.64 1.94809 -5.74573 0
M  V30 15426 H 1449.38 1.92561 -4.48076 0
M  V30 15427 H 1448.39 -0.14355 -5.49613 0
M  V30 15428 H 1449.61 -0.102625 -6.79022 0
M  V30 15429 H 1447.56 2.06908 -6.22515 0
M  V30 15430 H 1447.48 0.90418 -7.50574 0
M  V30 15431 H 1448.74 2.09335 -7.50866 0
M  V30 15432 N 1452.97 1.53444 -0.359552 0
M  V30 15433 C 1454.22 2.01464 0.232366 0
M  V30 15434 C 1454.55 1.24656 1.48911 0
M  V30 15435 O 1453.83 0.338574 1.9153 0
M  V30 15436 C 1454.11 3.56172 0.530403 0
M  V30 15437 C 1453.96 4.43678 -0.739556 0
M  V30 15438 C 1455.28 4.19412 1.33347 0
M  V30 15439 H 1452.4 0.732314 0.0829802 0
M  V30 15440 H 1455.04 1.83752 -0.483253 0
M  V30 15441 H 1453.19 3.71396 1.14004 0
M  V30 15442 H 1454.86 4.40263 -1.37719 0
M  V30 15443 H 1453.11 4.11892 -1.36117 0
M  V30 15444 H 1453.78 5.49856 -0.486062 0
M  V30 15445 H 1456.25 4.07984 0.817816 0
M  V30 15446 H 1455.13 5.277 1.51075 0
M  V30 15447 H 1455.39 3.7508 2.34024 0
M  V30 15448 N 1454.45 0.0885642 1.57351 0
M  V30 15449 C 1455.68 -0.584389 1.98163 0
M  V30 15450 C 1456.09 -1.62664 0.966281 0
M  V30 15451 O 1455.43 -1.83623 -0.053226 0
M  V30 15452 C 1455.49 -1.2959 3.35331 0
M  V30 15453 C 1455.16 -0.405168 4.552 0
M  V30 15454 C 1456.15 0.344053 5.1876 0
M  V30 15455 C 1453.84 -0.325136 5.01247 0
M  V30 15456 C 1455.83 1.16135 6.26731 0
M  V30 15457 C 1453.52 0.495821 6.09085 0
M  V30 15458 C 1454.52 1.23772 6.71691 0
M  V30 15459 O 1454.21 2.04511 7.77451 0
M  V30 15460 H 1453.94 -0.161852 0.656338 0
M  V30 15461 H 1456.49 0.162558 2.04756 0
M  V30 15462 H 1454.72 -2.08928 3.25401 0
M  V30 15463 H 1456.41 -1.86274 3.60634 0
M  V30 15464 H 1457.18 0.291916 4.84121 0
M  V30 15465 H 1453.06 -0.892245 4.52283 0
M  V30 15466 H 1456.6 1.74093 6.75528 0
M  V30 15467 H 1452.5 0.549463 6.43157 0
M  V30 15468 H 1453.27 1.97123 7.94409 0
M  V30 15469 N 1455.93 -1.56509 -0.185096 0
M  V30 15470 C 1456.84 -1.98552 -1.24958 0
M  V30 15471 C 1457.85 -0.894713 -1.49234 0
M  V30 15472 O 1459.03 -1.20126 -1.61653 0
M  V30 15473 C 1456.1 -2.32513 -2.57175 0
M  V30 15474 C 1455.16 -3.55351 -2.40882 0
M  V30 15475 C 1454.39 -3.87683 -3.66794 0
M  V30 15476 O 1454.61 -3.21167 -4.7139 0
M  V30 15477 O 1453.55 -4.8108 -3.61726 0
M  V30 15478 H 1457.37 -2.89342 -0.922756 0
M  V30 15479 H 1454.96 -1.44196 -0.390887 0
M  V30 15480 H 1456.84 -2.55387 -3.35195 0
M  V30 15481 H 1455.51 -1.44888 -2.89464 0
M  V30 15482 H 1454.42 -3.37712 -1.60939 0
M  V30 15483 H 1455.75 -4.43474 -2.13522 0
M  V30 15484 N 1457.41 0.45317 -1.50944 0
M  V30 15485 C 1458.34 1.56678 -1.67287 0
M  V30 15486 C 1459.35 1.53089 -0.553853 0
M  V30 15487 O 1460.54 1.58152 -0.827653 0
M  V30 15488 C 1457.64 2.95585 -1.65779 0
M  V30 15489 C 1456.81 3.2385 -2.94007 0
M  V30 15490 C 1455.87 4.42401 -2.84899 0
M  V30 15491 O 1454.9 4.4183 -3.58853 0
M  V30 15492 N 1456.1 5.4508 -1.99671 0
M  V30 15493 H 1458.87 1.43069 -2.63347 0
M  V30 15494 H 1456.43 0.641875 -1.48632 0
M  V30 15495 H 1458.42 3.7289 -1.57275 0
M  V30 15496 H 1456.99 3.02872 -0.773791 0
M  V30 15497 H 1456.21 2.34991 -3.16501 0
M  V30 15498 H 1457.5 3.39554 -3.7892 0
M  V30 15499 H 1456.89 5.48374 -1.38933 0
M  V30 15500 H 1455.45 6.21298 -1.97057 0
M  V30 15501 N 1458.88 1.40823 0.707568 0
M  V30 15502 C 1460.11 1.42659 1.49439 0
M  V30 15503 C 1460.52 0.0268475 1.89181 0
M  V30 15504 O 1459.87 -0.961444 1.56531 0
M  V30 15505 C 1459.93 2.26104 2.79494 0
M  V30 15506 C 1459.59 3.7442 2.62027 0
M  V30 15507 C 1460.59 4.66867 2.28759 0
M  V30 15508 C 1458.27 4.18328 2.78042 0
M  V30 15509 C 1460.27 6.01208 2.11727 0
M  V30 15510 C 1457.95 5.52736 2.60627 0
M  V30 15511 C 1458.95 6.43991 2.27518 0
M  V30 15512 O 1458.64 7.75921 2.10243 0
M  V30 15513 H 1458.37 0.488307 0.467475 0
M  V30 15514 H 1460.93 1.85607 0.879719 0
M  V30 15515 H 1459.16 1.77949 3.43323 0
M  V30 15516 H 1460.85 2.19785 3.41247 0
M  V30 15517 H 1461.61 4.34239 2.16012 0
M  V30 15518 H 1457.49 3.47612 3.02798 0
M  V30 15519 H 1461.03 6.724 1.85807 0
M  V30 15520 H 1456.93 5.84947 2.7296 0
M  V30 15521 H 1457.7 7.86938 2.251 0
M  V30 15522 N 1460.36 -0.94061 1.26453 0
M  V30 15523 C 1461.61 -1.68132 1.1142 0
M  V30 15524 C 1461.92 -1.92587 -0.342006 0
M  V30 15525 O 1463.13 -2.64489 -0.613018 0
M  V30 15526 C 1461.59 -3.02758 1.94591 0
M  V30 15527 C 1461.19 -2.86049 3.4479 0
M  V30 15528 C 1462.94 -3.80516 1.88169 0
M  V30 15529 C 1460.85 -4.1615 4.20206 0
M  V30 15530 H 1459.78 -0.630591 0.413366 0
M  V30 15531 H 1462.43 -1.04602 1.50767 0
M  V30 15532 H 1460.81 -3.67272 1.48078 0
M  V30 15533 H 1461.98 -2.3038 3.99076 0
M  V30 15534 H 1460.3 -2.21732 3.52454 0
M  V30 15535 H 1462.89 -4.76904 2.41799 0
M  V30 15536 H 1463.24 -4.07477 0.852531 0
M  V30 15537 H 1463.77 -3.22776 2.32509 0
M  V30 15538 H 1460.51 -3.94373 5.23593 0
M  V30 15539 H 1460.03 -4.71531 3.707 0
M  V30 15540 H 1461.71 -4.84602 4.28684 0
M  V30 15541 N 1461.84 -1.08266 -1.14527 0
M  V30 15542 C 1462.77 -0.669233 -2.19212 0
M  V30 15543 C 1463.79 0.282962 -1.60322 0
M  V30 15544 O 1464.97 0.0708403 -1.78359 0
M  V30 15545 C 1462.07 0.0362509 -3.38881 0
M  V30 15546 C 1461.25 -0.934477 -4.27301 0
M  V30 15547 C 1460.31 -0.264584 -5.25534 0
M  V30 15548 O 1459.33 -0.908543 -5.61902 0
M  V30 15549 N 1460.53 0.98609 -5.72063 0
M  V30 15550 H 1463.3 -1.56982 -2.55297 0
M  V30 15551 H 1460.86 -0.968551 -1.29733 0
M  V30 15552 H 1462.85 0.495309 -4.01658 0
M  V30 15553 H 1461.42 0.838913 -3.01133 0
M  V30 15554 H 1460.64 -1.57241 -3.61481 0
M  V30 15555 H 1461.93 -1.59232 -4.83242 0
M  V30 15556 H 1461.33 1.52904 -5.44644 0
M  V30 15557 H 1459.89 1.38867 -6.36835 0
M  V30 15558 N 1463.32 1.31536 -0.86811 0
M  V30 15559 C 1464.55 2.00952 -0.492529 0
M  V30 15560 C 1464.96 1.65174 0.914487 0
M  V30 15561 O 1464.32 0.880002 1.59882 0
M  V30 15562 C 1464.37 3.55829 -0.637798 0
M  V30 15563 O 1464.09 3.90326 -1.9894 0
M  V30 15564 C 1465.59 4.42519 -0.262986 0
M  V30 15565 H 1462.81 0.642913 -0.192105 0
M  V30 15566 H 1465.36 1.6781 -1.16876 0
M  V30 15567 H 1463.51 3.87399 -0.0091406 0
M  V30 15568 H 1463.93 4.85043 -1.99583 0
M  V30 15569 H 1465.4 5.50433 -0.415591 0
M  V30 15570 H 1465.88 4.31895 0.797705 0
M  V30 15571 H 1466.48 4.16363 -0.867268 0
M  V30 15572 N 1464.8 0.627364 1.44575 0
M  V30 15573 C 1466.21 0.292662 1.56894 0
M  V30 15574 C 1466.41 -1.20429 1.61552 0
M  V30 15575 O 1465.47 -1.98819 1.55651 0
M  V30 15576 C 1466.78 0.981267 2.84239 0
M  V30 15577 C 1468.33 0.959053 2.97945 0
M  V30 15578 C 1468.81 1.62805 4.28087 0
M  V30 15579 N 1470.3 1.59446 4.34892 0
M  V30 15580 C 1471.03 2.08107 5.34302 0
M  V30 15581 N 1470.53 2.64942 6.40139 0
M  V30 15582 N 1472.32 1.98758 5.25787 0
M  V30 15583 H 1464.47 1.5991 1.39795 0
M  V30 15584 H 1466.73 0.671019 0.669655 0
M  V30 15585 H 1466.44 2.0361 2.86768 0
M  V30 15586 H 1466.31 0.516703 3.73644 0
M  V30 15587 H 1468.7 -0.0872902 2.94971 0
M  V30 15588 H 1468.78 1.46207 2.09898 0
M  V30 15589 H 1468.43 2.67382 4.31821 0
M  V30 15590 H 1468.36 1.09989 5.14985 0
M  V30 15591 H 1470.85 1.17947 3.59022 0
M  V30 15592 H 1471.16 2.99814 7.12272 0
M  V30 15593 H 1469.51 2.68991 6.40835 0
M  V30 15594 H 1472.7 1.54081 4.42014 0
M  V30 15595 H 1472.87 2.36992 6.03107 0
M  V30 15596 N 1466.28 -1.53251 0.367684 0
M  V30 15597 C 1467.22 -2.27318 -0.4929 0
M  V30 15598 C 1468.22 -1.30376 -1.08159 0
M  V30 15599 O 1469.42 -1.47996 -1.02455 0
M  V30 15600 H 1465.8 -0.730709 -0.177677 0
M  V30 15601 H 1467.77 -2.98005 0.153525 0
M  V30 15602 C 1466.52 -3.07678 -1.61955 0
M  V30 15603 H 1465.84 -3.82117 -1.17587 0
M  V30 15604 H 1467.28 -3.62678 -2.19638 0
M  V30 15605 C 1465.74 -2.18648 -2.5631 0
M  V30 15606 O 1466.27 -1.79869 -3.5918 0
M  V30 15607 N 1464.48 -1.83239 -2.25548 0
M  V30 15608 H 1464.02 -2.14973 -1.4193 0
M  V30 15609 H 1463.98 -1.23957 -2.88933 0
M  V30 15610 N 1467.75 -0.0969077 -1.57302 0
M  V30 15611 C 1468.69 0.891431 -2.11154 0
M  V30 15612 C 1469.7 1.24482 -1.04919 0
M  V30 15613 O 1470.89 1.19762 -1.3236 0
M  V30 15614 C 1467.99 2.19998 -2.57787 0
M  V30 15615 C 1467.16 2.02165 -3.87876 0
M  V30 15616 C 1466.22 3.16549 -4.20337 0
M  V30 15617 O 1465.25 2.90432 -4.89528 0
M  V30 15618 N 1466.45 4.42369 -3.75885 0
M  V30 15619 H 1469.21 0.431477 -2.96578 0
M  V30 15620 H 1466.77 0.0881458 -1.6166 0
M  V30 15621 H 1468.77 2.95472 -2.76547 0
M  V30 15622 H 1467.34 2.57412 -1.77364 0
M  V30 15623 H 1466.56 1.11011 -3.78246 0
M  V30 15624 H 1467.84 1.87529 -4.7298 0
M  V30 15625 H 1467.24 4.66469 -3.20036 0
M  V30 15626 H 1465.8 5.14787 -3.99797 0
M  V30 15627 N 1469.23 1.56605 0.176793 0
M  V30 15628 C 1470.46 1.85543 0.9087 0
M  V30 15629 C 1470.87 0.679554 1.76575 0
M  V30 15630 O 1470.21 -0.360668 1.80125 0
M  V30 15631 C 1470.27 3.08823 1.84034 0
M  V30 15632 C 1469.94 4.41942 1.16344 0
M  V30 15633 C 1470.94 5.17176 0.531526 0
M  V30 15634 C 1468.62 4.88679 1.16183 0
M  V30 15635 C 1470.61 6.37332 -0.0929601 0
M  V30 15636 C 1468.3 6.08767 0.533514 0
M  V30 15637 C 1469.3 6.82937 -0.0927812 0
M  V30 15638 O 1468.99 8.00748 -0.711202 0
M  V30 15639 H 1468.72 0.619862 0.269717 0
M  V30 15640 H 1471.27 2.04579 0.183414 0
M  V30 15641 H 1469.5 2.85718 2.6058 0
M  V30 15642 H 1471.19 3.24253 2.44161 0
M  V30 15643 H 1471.96 4.82152 0.524784 0
M  V30 15644 H 1467.84 4.30891 1.63871 0
M  V30 15645 H 1471.38 6.95165 -0.582409 0
M  V30 15646 H 1467.28 6.43256 0.537821 0
M  V30 15647 H 1468.05 8.16224 -0.609911 0
M  V30 15648 N 1470.71 -0.445159 1.51182 0
M  V30 15649 C 1471.96 -1.19288 1.6314 0
M  V30 15650 C 1472.28 -1.91904 0.346109 0
M  V30 15651 O 1471.55 -1.8523 -0.637695 0
M  V30 15652 H 1470.13 -0.443319 0.601229 0
M  V30 15653 H 1472.79 -0.511136 1.88078 0
M  V30 15654 H 1471.89 -1.92672 2.45528 0
M  V30 15655 N 1472.19 -1.41197 -0.700089 0
M  V30 15656 C 1473.14 -1.42885 -1.83539 0
M  V30 15657 C 1474.13 -0.307431 -1.66587 0
M  V30 15658 O 1475.34 -0.479238 -1.73503 0
M  V30 15659 H 1471.71 -0.446973 -0.604747 0
M  V30 15660 H 1473.68 -2.38576 -1.79231 0
M  V30 15661 C 1472.43 -1.3235 -3.21526 0
M  V30 15662 H 1471.75 -2.17926 -3.35184 0
M  V30 15663 H 1473.19 -1.37592 -4.01054 0
M  V30 15664 C 1471.65 -0.0353528 -3.36881 0
M  V30 15665 O 1472.18 0.921676 -3.90983 0
M  V30 15666 N 1470.39 0.0392479 -2.90573 0
M  V30 15667 H 1469.94 -0.740299 -2.46733 0
M  V30 15668 H 1469.89 0.900559 -3.01226 0
M  V30 15669 N 1473.67 0.933891 -1.2695 0
M  V30 15670 C 1474.6 2.05078 -1.11649 0
M  V30 15671 C 1475.58 1.70089 -0.0196463 0
M  V30 15672 O 1476.76 1.93239 -0.193007 0
M  V30 15673 C 1473.89 3.38963 -0.756387 0
M  V30 15674 C 1472.85 3.88041 -1.80577 0
M  V30 15675 C 1472.17 5.18661 -1.2998 0
M  V30 15676 C 1473.47 4.12116 -3.2087 0
M  V30 15677 H 1475.17 2.18137 -2.05077 0
M  V30 15678 H 1472.71 1.04817 -0.987392 0
M  V30 15679 H 1474.66 4.1657 -0.63619 0
M  V30 15680 H 1473.39 3.25901 0.213607 0
M  V30 15681 H 1472.05 3.12622 -1.91477 0
M  V30 15682 H 1471.7 5.01985 -0.319442 0
M  V30 15683 H 1471.4 5.52467 -2.00134 0
M  V30 15684 H 1472.92 5.98844 -1.19242 0
M  V30 15685 H 1474.33 4.80312 -3.13006 0
M  V30 15686 H 1472.73 4.57218 -3.88679 0
M  V30 15687 H 1473.8 3.17633 -3.66384 0
M  V30 15688 N 1475.14 1.08871 1.13951 0
M  V30 15689 C 1476.37 0.843055 1.89492 0
M  V30 15690 C 1476.79 -0.599539 1.78289 0
M  V30 15691 O 1476.15 -1.42062 1.12642 0
M  V30 15692 C 1476.2 1.27572 3.3728 0
M  V30 15693 O 1475.3 0.430611 4.10146 0
M  V30 15694 H 1474.64 0.3058 0.589391 0
M  V30 15695 H 1477.17 1.45137 1.44209 0
M  V30 15696 H 1477.18 1.25864 3.88101 0
M  V30 15697 H 1475.86 2.32635 3.44751 0
M  V30 15698 H 1474.44 0.511516 3.69375 0
M  V30 15699 N 1476.62 -1.31073 0.875073 0
M  V30 15700 C 1477.55 -2.30855 0.350468 0
M  V30 15701 C 1478.53 -1.60569 -0.561384 0
M  V30 15702 O 1479.72 -1.88242 -0.477329 0
M  V30 15703 C 1476.85 -3.44444 -0.444493 0
M  V30 15704 C 1475.8 -4.26357 0.374716 0
M  V30 15705 C 1475.13 -5.31903 -0.546243 0
M  V30 15706 C 1476.43 -4.96817 1.61153 0
M  V30 15707 H 1478.12 -2.74983 1.18427 0
M  V30 15708 H 1475.67 -1.32199 0.570909 0
M  V30 15709 H 1477.62 -4.13304 -0.82206 0
M  V30 15710 H 1476.34 -2.99096 -1.31185 0
M  V30 15711 H 1475 -3.59171 0.734295 0
M  V30 15712 H 1474.65 -4.82803 -1.41102 0
M  V30 15713 H 1474.35 -5.876 -0.00198173 0
M  V30 15714 H 1475.88 -6.03621 -0.920542 0
M  V30 15715 H 1477.29 -5.58247 1.30511 0
M  V30 15716 H 1475.69 -5.62334 2.09524 0
M  V30 15717 H 1476.76 -4.2351 2.36151 0
M  V30 15718 N 1478.1 -0.635022 -1.4424 0
M  V30 15719 C 1479.03 0.0543561 -2.33437 0
M  V30 15720 C 1480.01 0.830807 -1.48431 0
M  V30 15721 O 1481.2 0.795913 -1.77141 0
M  V30 15722 C 1478.33 1.03391 -3.31553 0
M  V30 15723 C 1477.28 0.368824 -4.26408 0
M  V30 15724 C 1476.61 1.45855 -5.14422 0
M  V30 15725 C 1477.91 -0.727381 -5.1721 0
M  V30 15726 H 1479.6 -0.690489 -2.91329 0
M  V30 15727 H 1477.15 -0.3335 -1.40085 0
M  V30 15728 H 1479.1 1.52495 -3.9284 0
M  V30 15729 H 1477.82 1.80969 -2.71878 0
M  V30 15730 H 1476.48 -0.101605 -3.66459 0
M  V30 15731 H 1476.13 2.22531 -4.51098 0
M  V30 15732 H 1475.83 1.0189 -5.78699 0
M  V30 15733 H 1477.35 1.95132 -5.78581 0
M  V30 15734 H 1478.77 -0.319272 -5.7241 0
M  V30 15735 H 1477.17 -1.09041 -5.9011 0
M  V30 15736 H 1478.24 -1.59292 -4.57989 0
M  V30 15737 N 1479.58 1.53054 -0.375806 0
M  V30 15738 C 1480.86 1.93761 0.26757 0
M  V30 15739 C 1481.24 1.31019 1.65521 0
M  V30 15740 O 1480.58 0.473138 2.23548 0
M  V30 15741 C 1480.79 3.47643 0.307505 0
M  V30 15742 C 1482.14 4.21114 0.542951 0
M  V30 15743 O 1483.17 3.54077 0.388285 0
M  V30 15744 O 1482.02 5.39929 0.8449 0
M  V30 15745 H 1479.12 0.810805 0.16286 0
M  V30 15746 H 1481.66 1.64179 -0.429334 0
M  V30 15747 H 1480.44 3.85608 -0.665001 0
M  V30 15748 H 1480.06 3.83488 1.04988 0
M  V30 15749 N 1481.06 0.105248 1.57248 0
M  V30 15750 C 1482.28 -0.564157 1.9906 0
M  V30 15751 C 1482.7 -1.61092 0.984624 0
M  V30 15752 O 1482.06 -1.82484 -0.0244031 0
M  V30 15753 C 1482.11 -1.20272 3.40906 0
M  V30 15754 O 1481.83 -0.197815 4.37653 0
M  V30 15755 C 1483.33 -1.95677 3.97776 0
M  V30 15756 H 1480.55 -0.150468 0.653912 0
M  V30 15757 H 1483.09 0.187532 2.03638 0
M  V30 15758 H 1481.25 -1.90528 3.3731 0
M  V30 15759 H 1481.66 -0.659998 5.20331 0
M  V30 15760 H 1483.14 -2.35702 4.99148 0
M  V30 15761 H 1483.61 -2.82661 3.36154 0
M  V30 15762 H 1484.22 -1.30215 4.04876 0
M  V30 15763 N 1482.53 -1.56697 -0.168486 0
M  V30 15764 C 1483.95 -1.71808 -0.730674 0
M  V30 15765 C 1484.3 -0.716224 -1.8266 0
M  V30 15766 O 1483.42 0.121803 -2.16057 0
M  V30 15767 C 1484.02 -3.1151 -1.33217 0
M  V30 15768 C 1482.58 -3.28297 -1.84115 0
M  V30 15769 C 1481.72 -2.67757 -0.72122 0
M  V30 15770 H 1484.67 -1.58598 0.0569421 0
M  V30 15771 H 1484.69 -3.10318 -2.20189 0
M  V30 15772 H 1484.21 -3.84404 -0.53431 0
M  V30 15773 H 1482.31 -2.60364 -2.66536 0
M  V30 15774 H 1482.42 -4.3606 -1.98464 0
M  V30 15775 H 1480.78 -2.27644 -1.14239 0
M  V30 15776 H 1481.57 -3.43239 0.0648388 0
M  V30 15777 N 1484.01 0.437135 -1.51416 0
M  V30 15778 C 1485.24 1.20898 -1.67903 0
M  V30 15779 C 1485.66 1.85009 -0.376458 0
M  V30 15780 O 1485.01 1.7072 0.645051 0
M  V30 15781 C 1485.06 2.29286 -2.79482 0
M  V30 15782 O 1484.78 1.67798 -4.04692 0
M  V30 15783 C 1486.29 3.19561 -3.07238 0
M  V30 15784 H 1483.51 0.364381 -0.563442 0
M  V30 15785 H 1486.05 0.517931 -1.97833 0
M  V30 15786 H 1484.2 2.94107 -2.5215 0
M  V30 15787 H 1484.62 2.39433 -4.6666 0
M  V30 15788 H 1486.09 3.91748 -3.88893 0
M  V30 15789 H 1486.57 3.80327 -2.19654 0
M  V30 15790 H 1487.18 2.60441 -3.3623 0
M  V30 15791 N 1485.49 1.41566 0.692592 0
M  V30 15792 C 1486.74 1.41083 1.45265 0
M  V30 15793 C 1487.07 0.0209998 1.94489 0
M  V30 15794 O 1486.32 -0.96764 1.70104 0
M  V30 15795 C 1486.62 2.36683 2.67799 0
M  V30 15796 C 1486.29 3.83458 2.37215 0
M  V30 15797 C 1484.95 4.23441 2.28585 0
M  V30 15798 C 1487.3 4.76114 2.12048 0
M  V30 15799 C 1484.63 5.54086 1.92888 0
M  V30 15800 C 1486.98 6.07082 1.7786 0
M  V30 15801 C 1485.64 6.46083 1.67727 0
M  V30 15802 H 1484.91 0.51626 0.531561 0
M  V30 15803 H 1487.56 1.74385 0.791337 0
M  V30 15804 H 1485.87 1.96645 3.38877 0
M  V30 15805 H 1487.56 2.33581 3.25946 0
M  V30 15806 H 1484.15 3.51792 2.44828 0
M  V30 15807 H 1488.34 4.46025 2.17659 0
M  V30 15808 H 1483.59 5.83182 1.83599 0
M  V30 15809 H 1487.77 6.78378 1.57407 0
M  V30 15810 H 1485.39 7.47228 1.39836 0
M  V30 15811 N 1486.97 -0.927146 1.27443 0
M  V30 15812 C 1488.22 -1.67489 1.13814 0
M  V30 15813 C 1488.54 -1.91917 -0.315914 0
M  V30 15814 O 1487.8 -1.5079 -1.24743 0
M  V30 15815 C 1488.1 -3.0472 1.86764 0
M  V30 15816 C 1487.76 -3 3.36617 0
M  V30 15817 C 1486.43 -2.9842 3.77491 0
M  V30 15818 C 1488.78 -2.91249 4.32231 0
M  V30 15819 C 1486.11 -2.85872 5.12342 0
M  V30 15820 C 1488.46 -2.80242 5.67139 0
M  V30 15821 C 1487.12 -2.77013 6.07306 0
M  V30 15822 H 1486.39 -0.612887 0.416474 0
M  V30 15823 H 1489.04 -1.0812 1.58058 0
M  V30 15824 H 1487.34 -3.67797 1.35029 0
M  V30 15825 H 1489.04 -3.61453 1.73646 0
M  V30 15826 H 1485.63 -3.02017 3.04111 0
M  V30 15827 H 1489.81 -2.91567 4.01625 0
M  V30 15828 H 1485.07 -2.81758 5.42607 0
M  V30 15829 H 1489.24 -2.72437 6.40899 0
M  V30 15830 H 1486.87 -2.67047 7.11751 0
M  V30 15831 N 1488.45 -1.09474 -1.13372 0
M  V30 15832 C 1489.69 -0.831091 -1.84659 0
M  V30 15833 C 1490.02 0.643294 -1.83554 0
M  V30 15834 O 1489.28 1.48958 -1.26925 0
M  V30 15835 C 1489.58 -1.31208 -3.32444 0
M  V30 15836 C 1489.24 -2.79617 -3.5373 0
M  V30 15837 C 1487.9 -3.20147 -3.59248 0
M  V30 15838 C 1490.26 -3.75303 -3.61659 0
M  V30 15839 C 1487.58 -4.55135 -3.70228 0
M  V30 15840 C 1489.94 -5.1008 -3.74167 0
M  V30 15841 C 1488.6 -5.50199 -3.77938 0
M  V30 15842 H 1487.87 -0.304118 -0.675717 0
M  V30 15843 H 1490.52 -1.36961 -1.33843 0
M  V30 15844 H 1488.82 -0.693379 -3.85616 0
M  V30 15845 H 1490.52 -1.08469 -3.86051 0
M  V30 15846 H 1487.11 -2.47253 -3.50091 0
M  V30 15847 H 1491.29 -3.45103 -3.56676 0
M  V30 15848 H 1486.55 -4.85656 -3.71414 0
M  V30 15849 H 1490.72 -5.84077 -3.79245 0
M  V30 15850 H 1488.35 -6.54794 -3.86198 0
M  V30 15851 N 1489.92 1.30607 -0.882012 0
M  V30 15852 C 1491.17 1.95869 -0.497978 0
M  V30 15853 C 1491.49 1.69991 0.955405 0
M  V30 15854 O 1490.76 1.02188 1.67136 0
M  V30 15855 H 1489.34 0.724699 -0.181165 0
M  V30 15856 H 1492.01 1.59193 -1.12444 0
M  V30 15857 H 1491.1 3.04917 -0.665754 0
M  V30 15858 N 1491.4 0.642663 1.43901 0
M  V30 15859 C 1492.34 -0.104884 2.27959 0
M  V30 15860 C 1493.31 -0.840134 1.39214 0
M  V30 15861 O 1494.5 -0.841868 1.68656 0
M  V30 15862 C 1491.62 -1.15496 3.184 0
M  V30 15863 C 1490.67 -0.518946 4.23331 0
M  V30 15864 S 1491.5 0.699619 5.3091 0
M  V30 15865 C 1492.66 -0.350181 6.2492 0
M  V30 15866 H 1492.89 0.608181 2.91013 0
M  V30 15867 H 1490.43 0.431176 1.48257 0
M  V30 15868 H 1492.38 -1.75582 3.71054 0
M  V30 15869 H 1491.04 -1.84028 2.54544 0
M  V30 15870 H 1490.24 -1.31018 4.86673 0
M  V30 15871 H 1489.84 0.00756354 3.73999 0
M  V30 15872 H 1492.13 -1.21944 6.66435 0
M  V30 15873 H 1493.07 0.247942 7.07666 0
M  V30 15874 H 1493.48 -0.681254 5.60374 0
M  V30 15875 N 1492.88 -1.52852 0.383918 0
M  V30 15876 C 1494.3 -1.59565 0.0336391 0
M  V30 15877 C 1494.5 -1.39819 -1.45097 0
M  V30 15878 O 1493.55 -1.21249 -2.21484 0
M  V30 15879 C 1494.87 -2.96412 0.506001 0
M  V30 15880 C 1496.41 -3.09575 0.461794 0
M  V30 15881 C 1496.89 -4.48863 0.910259 0
M  V30 15882 N 1498.38 -4.55032 0.866053 0
M  V30 15883 C 1499.12 -5.61032 1.18453 0
M  V30 15884 N 1498.61 -6.74701 1.57321 0
M  V30 15885 N 1500.4 -5.51109 1.10613 0
M  V30 15886 H 1492.56 -1.63937 1.3505 0
M  V30 15887 H 1494.82 -0.769857 0.553194 0
M  V30 15888 H 1494.52 -3.16061 1.54268 0
M  V30 15889 H 1494.4 -3.77073 -0.0977643 0
M  V30 15890 H 1496.79 -2.89625 -0.565786 0
M  V30 15891 H 1496.87 -2.30879 1.10129 0
M  V30 15892 H 1496.51 -4.69553 1.93604 0
M  V30 15893 H 1496.44 -5.26017 0.247825 0
M  V30 15894 H 1498.93 -3.73423 0.579962 0
M  V30 15895 H 1499.24 -7.51545 1.8 0
M  V30 15896 H 1497.59 -6.76046 1.61203 0
M  V30 15897 H 1500.78 -4.61187 0.801531 0
M  V30 15898 H 1500.95 -6.33618 1.35766 0
M  V30 15899 N 1494.36 -0.113586 -1.5719 0
M  V30 15900 C 1495.31 0.855985 -2.16277 0
M  V30 15901 C 1496.3 1.2792 -1.11053 0
M  V30 15902 O 1497.51 1.25158 -1.29366 0
M  V30 15903 H 1493.88 0.294134 -0.692091 0
M  V30 15904 H 1495.85 0.333109 -2.96535 0
M  V30 15905 C 1494.6 2.09832 -2.77247 0
M  V30 15906 H 1493.93 1.78158 -3.5791 0
M  V30 15907 H 1495.37 2.7569 -3.22135 0
M  V30 15908 C 1493.82 2.88453 -1.74059 0
M  V30 15909 O 1494.35 3.83648 -1.19068 0
M  V30 15910 N 1492.56 2.52342 -1.44124 0
M  V30 15911 H 1492.11 1.74998 -1.89033 0
M  V30 15912 H 1492.07 3.05244 -0.753234 0
M  V30 15913 N 1495.84 1.56784 0.160173 0
M  V30 15914 C 1497.09 1.8226 0.873253 0
M  V30 15915 C 1497.41 0.692384 1.82294 0
M  V30 15916 O 1496.68 -0.286961 1.93787 0
M  V30 15917 H 1495.26 0.672371 0.325463 0
M  V30 15918 H 1497.92 1.94264 0.157325 0
M  V30 15919 H 1497.01 2.76714 1.44345 0
M  V30 15920 N 1497.32 -0.429099 1.51646 0
M  V30 15921 C 1498.23 -1.54648 1.76412 0
M  V30 15922 C 1499.24 -1.61455 0.648703 0
M  V30 15923 O 1500.42 -1.78544 0.931888 0
M  V30 15924 C 1497.48 -2.90562 1.89142 0
M  V30 15925 C 1496.54 -2.93804 3.13014 0
M  V30 15926 C 1495.78 -4.23235 3.25127 0
M  V30 15927 O 1496 -5.1606 2.42979 0
M  V30 15928 O 1494.93 -4.32929 4.18158 0
M  V30 15929 H 1498.76 -1.36661 2.71215 0
M  V30 15930 H 1496.34 -0.612946 1.36247 0
M  V30 15931 H 1498.23 -3.7121 1.99453 0
M  V30 15932 H 1496.9 -3.08659 0.975272 0
M  V30 15933 H 1495.81 -2.12082 3.08175 0
M  V30 15934 H 1497.14 -2.80654 4.04344 0
M  V30 15935 N 1498.79 -1.41931 -0.685074 0
M  V30 15936 C 1500.02 -1.45229 -1.47364 0
M  V30 15937 C 1500.44 -0.060595 -1.88703 0
M  V30 15938 O 1499.79 0.92244 -1.57472 0
M  V30 15939 C 1499.84 -2.37033 -2.72942 0
M  V30 15940 O 1499.57 -3.70787 -2.33342 0
M  V30 15941 C 1501.07 -2.49244 -3.66596 0
M  V30 15942 H 1498.29 -0.494291 -0.453781 0
M  V30 15943 H 1500.83 -1.86333 -0.84263 0
M  V30 15944 H 1498.99 -1.9921 -3.32256 0
M  V30 15945 H 1499.4 -4.19853 -3.14362 0
M  V30 15946 H 1500.87 -3.17624 -4.51463 0
M  V30 15947 H 1501.35 -1.52703 -4.11799 0
M  V30 15948 H 1501.96 -2.87747 -3.1318 0
M  V30 15949 N 1500.27 0.920374 -1.27933 0
M  V30 15950 C 1501.52 1.67131 -1.1487 0
M  V30 15951 C 1501.85 1.91816 0.303343 0
M  V30 15952 O 1501.13 1.51379 1.22125 0
M  V30 15953 C 1501.41 3.03332 -1.94066 0
M  V30 15954 C 1501.26 2.85842 -3.47296 0
M  V30 15955 C 1502.58 4.03773 -1.75087 0
M  V30 15956 H 1499.7 0.606537 -0.418666 0
M  V30 15957 H 1502.34 1.06755 -1.57173 0
M  V30 15958 H 1500.49 3.54869 -1.58116 0
M  V30 15959 H 1502.16 2.41367 -3.93115 0
M  V30 15960 H 1500.41 2.21035 -3.73264 0
M  V30 15961 H 1501.08 3.82535 -3.97958 0
M  V30 15962 H 1503.55 3.61274 -2.06447 0
M  V30 15963 H 1502.43 4.97048 -2.32882 0
M  V30 15964 H 1502.69 4.36512 -0.700665 0
M  V30 15965 N 1501.75 1.10074 1.1279 0
M  V30 15966 C 1502.66 0.758458 2.22001 0
M  V30 15967 C 1503.68 -0.242438 1.72303 0
M  V30 15968 O 1504.85 -0.0821223 2.01233 0
M  V30 15969 C 1501.92 0.191326 3.46172 0
M  V30 15970 C 1500.98 1.24902 4.10729 0
M  V30 15971 C 1500.21 0.708857 5.28972 0
M  V30 15972 O 1500.43 -0.465993 5.68493 0
M  V30 15973 O 1499.37 1.46703 5.83748 0
M  V30 15974 H 1503.19 1.66997 2.53665 0
M  V30 15975 H 1500.78 0.875604 1.21052 0
M  V30 15976 H 1502.66 -0.121292 4.21225 0
M  V30 15977 H 1501.34 -0.693094 3.16193 0
M  V30 15978 H 1500.24 1.61444 3.37471 0
M  V30 15979 H 1501.58 2.10632 4.44854 0
M  V30 15980 N 1503.23 -1.30138 0.888926 0
M  V30 15981 C 1504.48 -1.95265 0.5054 0
M  V30 15982 C 1504.79 -1.70925 -0.950998 0
M  V30 15983 O 1506 -2.30069 -1.44155 0
M  V30 15984 C 1504.45 -3.49647 0.852937 0
M  V30 15985 C 1504.06 -3.82802 2.32737 0
M  V30 15986 C 1505.8 -4.21067 0.538801 0
M  V30 15987 C 1503.71 -5.30379 2.61633 0
M  V30 15988 H 1502.64 -0.730882 0.185278 0
M  V30 15989 H 1505.29 -1.48027 1.08444 0
M  V30 15990 H 1503.67 -3.9548 0.202937 0
M  V30 15991 H 1504.85 -3.47866 3.02202 0
M  V30 15992 H 1503.16 -3.24495 2.60944 0
M  V30 15993 H 1505.76 -5.2967 0.731676 0
M  V30 15994 H 1506.1 -4.13014 -0.522039 0
M  V30 15995 H 1506.64 -3.8093 1.14617 0
M  V30 15996 H 1503.37 -5.43486 3.66473 0
M  V30 15997 H 1502.89 -5.66601 1.96782 0
M  V30 15998 H 1504.57 -5.97856 2.47339 0
M  V30 15999 N 1504.71 -0.650285 -1.43559 0
M  V30 16000 C 1505.62 0.0438076 -2.34559 0
M  V30 16001 C 1506.63 0.815316 -1.53716 0
M  V30 16002 O 1507.81 0.76323 -1.86378 0
M  V30 16003 C 1504.87 1.00028 -3.31957 0
M  V30 16004 C 1503.93 0.226027 -4.28705 0
M  V30 16005 C 1503.17 1.13694 -5.21449 0
M  V30 16006 O 1503.39 2.37614 -5.18551 0
M  V30 16007 O 1502.32 0.610924 -5.98792 0
M  V30 16008 H 1506.15 -0.705152 -2.954 0
M  V30 16009 H 1503.73 -0.410471 -1.43651 0
M  V30 16010 H 1505.62 1.55004 -3.91857 0
M  V30 16011 H 1504.29 1.72952 -2.73623 0
M  V30 16012 H 1503.2 -0.367244 -3.72293 0
M  V30 16013 H 1504.53 -0.463582 -4.90012 0
M  V30 16014 N 1506.18 1.52647 -0.392018 0
M  V30 16015 C 1507.43 2.00798 0.19056 0
M  V30 16016 C 1507.75 1.28265 1.47673 0
M  V30 16017 O 1508.95 1.67142 2.13953 0
M  V30 16018 C 1507.41 3.57779 0.390148 0
M  V30 16019 C 1507.02 4.39213 -0.882933 0
M  V30 16020 C 1508.76 4.14211 0.928945 0
M  V30 16021 C 1506.67 5.87801 -0.651474 0
M  V30 16022 H 1505.6 0.750262 0.0749879 0
M  V30 16023 H 1508.25 1.7613 -0.514835 0
M  V30 16024 H 1506.63 3.78707 1.15746 0
M  V30 16025 H 1507.8 4.30051 -1.65507 0
M  V30 16026 H 1506.12 3.94015 -1.34688 0
M  V30 16027 H 1508.72 5.22884 1.11787 0
M  V30 16028 H 1509.06 3.70475 1.89878 0
M  V30 16029 H 1509.59 3.97185 0.221135 0
M  V30 16030 H 1506.33 6.35864 -1.59239 0
M  V30 16031 H 1505.85 5.99744 0.0816786 0
M  V30 16032 H 1507.53 6.46363 -0.287057 0
M  V30 16033 N 1507.66 0.121921 1.57128 0
M  V30 16034 C 1508.94 -0.579087 1.86831 0
M  V30 16035 C 1509.32 -1.84623 1.0236 0
M  V30 16036 O 1508.67 -2.28266 0.103326 0
M  V30 16037 C 1508.88 -0.86872 3.38015 0
M  V30 16038 C 1510.23 -1.22051 4.0668 0
M  V30 16039 O 1511.25 -0.958889 3.43051 0
M  V30 16040 O 1510.11 -1.71164 5.19004 0
M  V30 16041 H 1507.2 -0.292539 0.773531 0
M  V30 16042 H 1509.75 0.156644 1.68975 0
M  V30 16043 H 1508.52 0.0291056 3.91289 0
M  V30 16044 H 1508.14 -1.65951 3.61312 0
M  V30 16045 N 1509.14 -1.56867 -0.151857 0
M  V30 16046 C 1510.09 -1.97899 -1.18763 0
M  V30 16047 C 1511.06 -0.845833 -1.42951 0
M  V30 16048 O 1512.24 -1.10751 -1.55367 0
M  V30 16049 C 1509.38 -2.36063 -2.5173 0
M  V30 16050 C 1508.5 -3.62647 -2.34757 0
M  V30 16051 C 1507.63 -3.89936 -3.60726 0
M  V30 16052 C 1506.67 -5.09806 -3.38769 0
M  V30 16053 N 1505.81 -5.33129 -4.56856 0
M  V30 16054 H 1510.65 -2.86187 -0.830713 0
M  V30 16055 H 1508.18 -1.41592 -0.398745 0
M  V30 16056 H 1510.14 -2.56218 -3.29254 0
M  V30 16057 H 1508.77 -1.50861 -2.85379 0
M  V30 16058 H 1507.82 -3.50297 -1.48312 0
M  V30 16059 H 1509.14 -4.50328 -2.1449 0
M  V30 16060 H 1508.29 -4.10563 -4.4668 0
M  V30 16061 H 1507.03 -3.00668 -3.83993 0
M  V30 16062 H 1506.03 -4.89057 -2.51203 0
M  V30 16063 H 1507.26 -6.00623 -3.16906 0
M  V30 16064 H 1505.2 -4.46815 -4.80305 0
M  V30 16065 H 1505.12 -6.1507 -4.39574 0
M  V30 16066 H 1506.39 -5.5825 -5.44038 0
M  V30 16067 N 1510.62 0.421051 -1.51871 0
M  V30 16068 C 1511.87 1.16677 -1.65018 0
M  V30 16069 C 1512.19 1.91329 -0.376596 0
M  V30 16070 O 1511.46 1.86221 0.608146 0
M  V30 16071 H 1510.04 0.433698 -0.608206 0
M  V30 16072 H 1512.7 0.48115 -1.88868 0
M  V30 16073 H 1511.8 1.88742 -2.48562 0
M  V30 16074 N 1512.1 1.42293 0.677538 0
M  V30 16075 C 1513.04 1.45556 1.79114 0
M  V30 16076 C 1514.01 0.307826 1.63223 0
M  V30 16077 O 1515.2 0.511504 1.83816 0
M  V30 16078 C 1512.34 1.36104 3.17127 0
M  V30 16079 C 1511.45 2.60891 3.44325 0
M  V30 16080 C 1510.59 2.43601 4.72051 0
M  V30 16081 C 1509.63 3.63775 4.92274 0
M  V30 16082 N 1508.76 3.45444 6.11239 0
M  V30 16083 H 1513.6 2.40723 1.7566 0
M  V30 16084 H 1511.14 1.19517 0.857565 0
M  V30 16085 H 1513.1 1.28622 3.96878 0
M  V30 16086 H 1511.73 0.445342 3.19713 0
M  V30 16087 H 1510.78 2.78751 2.58848 0
M  V30 16088 H 1512.09 3.50229 3.55163 0
M  V30 16089 H 1511.25 2.33689 5.59888 0
M  V30 16090 H 1509.98 1.51748 4.63491 0
M  V30 16091 H 1508.99 3.74122 4.0288 0
M  V30 16092 H 1510.21 4.56605 5.02681 0
M  V30 16093 H 1508.16 2.56306 6.03857 0
M  V30 16094 H 1508.08 4.28368 6.22926 0
M  V30 16095 H 1509.35 3.39339 7.01762 0
M  V30 16096 N 1513.57 -0.913576 1.28419 0
M  V30 16097 C 1514.99 -1.192 1.0613 0
M  V30 16098 C 1515.19 -2.00542 -0.196232 0
M  V30 16099 O 1514.25 -2.35998 -0.897853 0
M  V30 16100 C 1515.56 -1.92642 2.30889 0
M  V30 16101 C 1517.11 -2.05524 2.3607 0
M  V30 16102 C 1517.58 -2.82374 3.60595 0
M  V30 16103 N 1519.07 -2.89935 3.61236 0
M  V30 16104 C 1519.81 -3.49899 4.54266 0
M  V30 16105 N 1519.3 -4.11141 5.57615 0
M  V30 16106 N 1521.1 -3.4744 4.41862 0
M  V30 16107 H 1513.25 -0.370509 2.09143 0
M  V30 16108 H 1515.51 -0.226573 0.920526 0
M  V30 16109 H 1515.22 -1.40299 3.22504 0
M  V30 16110 H 1515.09 -2.93191 2.37316 0
M  V30 16111 H 1517.48 -2.57047 1.44951 0
M  V30 16112 H 1517.56 -1.0415 2.33637 0
M  V30 16113 H 1517.2 -2.3153 4.52058 0
M  V30 16114 H 1517.13 -3.84063 3.60282 0
M  V30 16115 H 1519.62 -2.46424 2.86502 0
M  V30 16116 H 1519.94 -4.54877 6.24746 0
M  V30 16117 H 1518.28 -4.09645 5.61441 0
M  V30 16118 H 1521.47 -2.98806 3.60323 0
M  V30 16119 H 1521.65 -3.9388 5.14551 0
M  V30 16120 N 1515.05 -1.1067 -1.12204 0
M  V30 16121 C 1515.98 -0.779829 -2.20093 0
M  V30 16122 C 1516.96 0.248279 -1.68278 0
M  V30 16123 O 1518.15 0.113511 -1.93868 0
M  V30 16124 C 1515.28 -0.213511 -3.46643 0
M  V30 16125 C 1514.23 -1.17258 -4.11624 0
M  V30 16126 C 1513.56 -0.467352 -5.32654 0
M  V30 16127 C 1514.86 -2.52014 -4.57478 0
M  V30 16128 H 1516.55 -1.68192 -2.47693 0
M  V30 16129 H 1514.1 -0.810131 -1.1905 0
M  V30 16130 H 1516.05 0.0273225 -4.21391 0
M  V30 16131 H 1514.78 0.723837 -3.18478 0
M  V30 16132 H 1513.43 -1.39891 -3.3886 0
M  V30 16133 H 1513.08 0.474547 -5.00756 0
M  V30 16134 H 1512.78 -1.10694 -5.77079 0
M  V30 16135 H 1514.31 -0.235122 -6.10147 0
M  V30 16136 H 1515.72 -2.33516 -5.23587 0
M  V30 16137 H 1514.12 -3.1188 -5.1269 0
M  V30 16138 H 1515.19 -3.11831 -3.71335 0
M  V30 16139 N 1516.53 1.29665 -0.895815 0
M  V30 16140 C 1517.78 1.94995 -0.515749 0
M  V30 16141 C 1518.09 1.71427 0.94192 0
M  V30 16142 O 1519.3 2.3083 1.42933 0
M  V30 16143 C 1517.75 3.4919 -0.871468 0
M  V30 16144 C 1517.36 3.81562 -2.34764 0
M  V30 16145 C 1519.11 4.20775 -0.561123 0
M  V30 16146 C 1517.01 5.28984 -2.64442 0
M  V30 16147 H 1515.94 0.729889 -0.189151 0
M  V30 16148 H 1518.59 1.4745 -1.09228 0
M  V30 16149 H 1516.98 3.95366 -0.223908 0
M  V30 16150 H 1518.15 3.46258 -3.04043 0
M  V30 16151 H 1516.47 3.23107 -2.62661 0
M  V30 16152 H 1519.06 5.29275 -0.759755 0
M  V30 16153 H 1519.41 4.13285 0.500129 0
M  V30 16154 H 1519.94 3.80317 -1.16635 0
M  V30 16155 H 1516.68 5.41535 -3.69351 0
M  V30 16156 H 1516.2 5.6555 -1.99784 0
M  V30 16157 H 1517.88 5.96536 -2.50506 0
M  V30 16158 N 1518.01 0.657889 1.43212 0
M  V30 16159 C 1519.26 0.170493 2.00978 0
M  V30 16160 C 1519.57 -1.22439 1.52539 0
M  V30 16161 O 1520.78 -1.80725 2.02609 0
M  V30 16162 C 1519.23 0.253982 3.59003 0
M  V30 16163 C 1518.84 1.65185 4.16435 0
M  V30 16164 C 1520.58 -0.17557 4.24137 0
M  V30 16165 C 1518.49 1.68902 5.66768 0
M  V30 16166 H 1517.42 0.0599767 0.751611 0
M  V30 16167 H 1520.07 0.820606 1.64129 0
M  V30 16168 H 1518.45 -0.463723 3.93275 0
M  V30 16169 H 1519.63 2.39529 3.93653 0
M  V30 16170 H 1517.94 2.02779 3.63689 0
M  V30 16171 H 1520.54 -0.167714 5.34437 0
M  V30 16172 H 1520.88 -1.20784 3.98393 0
M  V30 16173 H 1521.42 0.490544 3.94764 0
M  V30 16174 H 1518.16 2.70055 5.97286 0
M  V30 16175 H 1517.68 0.988906 5.91592 0
M  V30 16176 H 1519.35 1.43485 6.30889 0
M  V30 16177 N 1519.49 -1.52437 0.400108 0
M  V30 16178 C 1520.43 -2.26763 -0.429799 0
M  V30 16179 C 1521.4 -1.28808 -1.0487 0
M  V30 16180 O 1522.59 -1.57655 -1.07468 0
M  V30 16181 C 1519.73 -3.08564 -1.54539 0
M  V30 16182 C 1518.84 -4.21463 -0.948294 0
M  V30 16183 C 1517.98 -4.9064 -2.03584 0
M  V30 16184 C 1517.02 -5.95515 -1.4152 0
M  V30 16185 N 1516.15 -6.58245 -2.4425 0
M  V30 16186 H 1520.99 -2.97256 0.210467 0
M  V30 16187 H 1518.53 -1.46645 0.115627 0
M  V30 16188 H 1520.49 -3.54289 -2.20307 0
M  V30 16189 H 1519.12 -2.40259 -2.15582 0
M  V30 16190 H 1518.17 -3.79974 -0.179918 0
M  V30 16191 H 1519.48 -4.96722 -0.454845 0
M  V30 16192 H 1518.64 -5.39724 -2.77097 0
M  V30 16193 H 1517.37 -4.14929 -2.56291 0
M  V30 16194 H 1516.38 -5.45759 -0.665354 0
M  V30 16195 H 1517.6 -6.73164 -0.89593 0
M  V30 16196 H 1515.55 -5.85369 -2.96107 0
M  V30 16197 H 1515.47 -7.2915 -1.99692 0
M  V30 16198 H 1516.74 -7.1197 -3.17362 0
M  V30 16199 N 1520.96 -0.130252 -1.57061 0
M  V30 16200 C 1521.89 0.812189 -2.18919 0
M  V30 16201 C 1522.88 1.2692 -1.13249 0
M  V30 16202 O 1524.06 1.32978 -1.41529 0
M  V30 16203 C 1521.19 2.05803 -2.79754 0
M  V30 16204 C 1520.14 1.73841 -3.91105 0
M  V30 16205 C 1519.47 3.05549 -4.38799 0
M  V30 16206 C 1520.77 0.997991 -5.12677 0
M  V30 16207 H 1522.46 0.296692 -2.97926 0
M  V30 16208 H 1520.01 0.141265 -1.43305 0
M  V30 16209 H 1521.96 2.72201 -3.21691 0
M  V30 16210 H 1520.69 2.59697 -1.98053 0
M  V30 16211 H 1519.35 1.09828 -3.49762 0
M  V30 16212 H 1518.99 3.57399 -3.53942 0
M  V30 16213 H 1518.69 2.84932 -5.13894 0
M  V30 16214 H 1520.22 3.73045 -4.83394 0
M  V30 16215 H 1521.63 1.56372 -5.51562 0
M  V30 16216 H 1520.03 0.892378 -5.93428 0
M  V30 16217 H 1521.1 -0.0132936 -4.84898 0
M  V30 16218 N 1522.44 1.56945 0.143535 0
M  V30 16219 C 1523.35 2.01795 1.1965 0
M  V30 16220 C 1524.37 0.933965 1.4681 0
M  V30 16221 O 1525.55 1.2437 1.58411 0
M  V30 16222 C 1522.61 2.39249 2.5092 0
M  V30 16223 C 1521.67 3.61613 2.31376 0
M  V30 16224 C 1520.9 3.97271 3.56386 0
M  V30 16225 O 1521.13 3.33552 4.62709 0
M  V30 16226 O 1520.06 4.90501 3.48844 0
M  V30 16227 H 1523.89 2.91687 0.845718 0
M  V30 16228 H 1521.47 1.45182 0.352518 0
M  V30 16229 H 1523.35 2.64184 3.28306 0
M  V30 16230 H 1522.03 1.52511 2.85521 0
M  V30 16231 H 1520.94 3.4186 1.51929 0
M  V30 16232 H 1522.27 4.48979 2.01689 0
M  V30 16233 N 1523.92 -0.412991 1.52093 0
M  V30 16234 C 1525.15 -1.18212 1.69805 0
M  V30 16235 C 1525.56 -1.84386 0.405844 0
M  V30 16236 O 1524.92 -1.71725 -0.617809 0
M  V30 16237 C 1524.97 -2.24811 2.83094 0
M  V30 16238 O 1524.69 -1.61338 4.0731 0
M  V30 16239 C 1526.19 -3.14633 3.12283 0
M  V30 16240 H 1523.41 -0.355371 0.569168 0
M  V30 16241 H 1525.96 -0.486392 1.98632 0
M  V30 16242 H 1524.11 -2.90058 2.56797 0
M  V30 16243 H 1524.53 -2.31979 4.7041 0
M  V30 16244 H 1526 -3.85511 3.95076 0
M  V30 16245 H 1526.48 -3.76785 2.25677 0
M  V30 16246 H 1527.08 -2.55059 3.40331 0
M  V30 16247 N 1525.4 -1.4265 -0.669982 0
M  V30 16248 C 1526.65 -1.42667 -1.42579 0
M  V30 16249 C 1526.96 -0.0483217 -1.9554 0
M  V30 16250 O 1528.17 0.0740917 -2.71399 0
M  V30 16251 C 1526.62 -2.5098 -2.57948 0
M  V30 16252 C 1526.23 -3.94844 -2.11666 0
M  V30 16253 C 1527.98 -2.6017 -3.35428 0
M  V30 16254 C 1525.88 -4.94655 -3.24146 0
M  V30 16255 H 1524.81 -0.530651 -0.535654 0
M  V30 16256 H 1527.46 -1.68576 -0.724861 0
M  V30 16257 H 1525.85 -2.18244 -3.30432 0
M  V30 16258 H 1527.02 -4.36958 -1.46303 0
M  V30 16259 H 1525.33 -3.89547 -1.47111 0
M  V30 16260 H 1527.93 -3.31918 -4.19207 0
M  V30 16261 H 1528.27 -1.64683 -3.82342 0
M  V30 16262 H 1528.81 -2.92124 -2.70016 0
M  V30 16263 H 1525.55 -5.91636 -2.82218 0
M  V30 16264 H 1525.07 -4.57168 -3.88275 0
M  V30 16265 H 1526.75 -5.16593 -3.89538 0
M  V30 16266 N 1526.88 0.906753 -1.28902 0
M  V30 16267 C 1528.1 1.69547 -1.19452 0
M  V30 16268 C 1528.53 1.86531 0.242418 0
M  V30 16269 O 1527.89 1.38052 1.17521 0
M  V30 16270 C 1527.93 3.06139 -1.90556 0
M  V30 16271 O 1527.04 3.9401 -1.21779 0
M  V30 16272 H 1526.38 0.518902 -0.41429 0
M  V30 16273 H 1528.91 1.13327 -1.70347 0
M  V30 16274 H 1528.92 3.56326 -1.98736 0
M  V30 16275 H 1527.59 2.93094 -2.95074 0
M  V30 16276 H 1526.17 3.52444 -1.2181 0
M  V30 16277 N 1528.36 1.11264 1.11616 0
M  V30 16278 C 1529.27 0.781961 2.21184 0
M  V30 16279 C 1530.28 -0.224149 1.7255 0
M  V30 16280 O 1531.46 -0.0607743 2.01308 0
M  V30 16281 C 1528.52 0.228031 3.45949 0
M  V30 16282 C 1527.58 1.29251 4.09381 0
M  V30 16283 C 1526.82 0.764921 5.2819 0
M  V30 16284 O 1527.04 -0.405671 5.68956 0
M  V30 16285 O 1525.97 1.52886 5.82159 0
M  V30 16286 H 1529.8 1.69678 2.51879 0
M  V30 16287 H 1527.38 0.888394 1.20116 0
M  V30 16288 H 1529.27 -0.0766085 4.2133 0
M  V30 16289 H 1527.94 -0.659519 3.1691 0
M  V30 16290 H 1526.85 1.65014 3.3574 0
M  V30 16291 H 1528.18 2.15339 4.42595 0
M  V30 16292 N 1529.83 -1.29188 0.902679 0
M  V30 16293 C 1531.24 -1.77521 0.578207 0
M  V30 16294 C 1531.6 -1.74017 -0.906227 0
M  V30 16295 O 1530.72 -1.32793 -1.70865 0
M  V30 16296 C 1531.32 -3.22352 1.04281 0
M  V30 16297 C 1529.87 -3.68451 0.769454 0
M  V30 16298 C 1529.02 -2.49225 1.21583 0
M  V30 16299 H 1531.97 -1.15807 1.0851 0
M  V30 16300 H 1531.99 -3.78604 0.379396 0
M  V30 16301 H 1531.51 -3.2487 2.12323 0
M  V30 16302 H 1529.61 -3.71405 -0.298223 0
M  V30 16303 H 1529.72 -4.59112 1.36943 0
M  V30 16304 H 1528.08 -2.46663 0.634766 0
M  V30 16305 H 1528.87 -2.54469 2.30436 0
M  V30 16306 N 1531.31 -0.665475 -1.42861 0
M  V30 16307 C 1532.59 -0.113252 -1.95272 0
M  V30 16308 C 1532.97 1.36972 -1.6063 0
M  V30 16309 O 1532.32 2.10129 -0.897662 0
M  V30 16310 C 1532.53 -0.372482 -3.47007 0
M  V30 16311 C 1533.87 -0.283982 -4.23649 0
M  V30 16312 O 1534.9 -0.305714 -3.54886 0
M  V30 16313 O 1533.76 -0.218171 -5.46064 0
M  V30 16314 H 1530.85 0.00253712 -0.826996 0
M  V30 16315 H 1533.4 -0.739561 -1.52737 0
M  V30 16316 H 1532.17 -1.40015 -3.65392 0
M  V30 16317 H 1531.79 0.286294 -3.96568 0
M  V30 16318 N 1532.79 1.52222 -0.408187 0
M  V30 16319 C 1533.7 2.30725 0.424645 0
M  V30 16320 C 1534.72 1.38412 1.05442 0
M  V30 16321 O 1535.89 1.71486 1.05614 0
M  V30 16322 C 1532.96 3.11273 1.52677 0
M  V30 16323 C 1532.02 4.19323 0.920143 0
M  V30 16324 C 1531.25 4.96021 1.96974 0
M  V30 16325 O 1531.47 4.73011 3.18774 0
M  V30 16326 O 1530.41 5.80887 1.5765 0
M  V30 16327 H 1534.23 3.02935 -0.215411 0
M  V30 16328 H 1531.82 1.48413 -0.171414 0
M  V30 16329 H 1533.7 3.61436 2.16661 0
M  V30 16330 H 1532.38 2.41857 2.15144 0
M  V30 16331 H 1531.28 3.7331 0.243037 0
M  V30 16332 H 1532.62 4.91028 0.339405 0
M  V30 16333 N 1534.27 0.138579 1.5699 0
M  V30 16334 C 1535.22 -0.821469 2.17611 0
M  V30 16335 C 1536.21 -1.26137 1.13074 0
M  V30 16336 O 1537.42 -1.23084 1.31341 0
M  V30 16337 H 1533.79 -0.283086 0.696682 0
M  V30 16338 H 1535.76 -0.285891 2.97027 0
M  V30 16339 C 1534.51 -2.05395 2.8055 0
M  V30 16340 H 1533.83 -1.72442 3.60699 0
M  V30 16341 H 1535.27 -2.70531 3.2648 0
M  V30 16342 C 1533.73 -2.85647 1.78626 0
M  V30 16343 O 1534.26 -3.81705 1.25156 0
M  V30 16344 N 1532.47 -2.50018 1.4812 0
M  V30 16345 H 1532.02 -1.71969 1.91793 0
M  V30 16346 H 1531.97 -3.04007 0.8017 0
M  V30 16347 N 1535.75 -1.57019 -0.13521 0
M  V30 16348 C 1536.99 -1.83626 -0.844147 0
M  V30 16349 C 1537.31 -0.721298 -1.81169 0
M  V30 16350 O 1536.58 0.256095 -1.94219 0
M  V30 16351 H 1535.16 -0.677464 -0.314725 0
M  V30 16352 H 1537.83 -1.9449 -0.126399 0
M  V30 16353 H 1536.92 -2.78976 -1.39925 0
M  V30 16354 N 1537.22 0.404919 -1.52309 0
M  V30 16355 C 1538.17 1.51412 -1.7657 0
M  V30 16356 C 1539.17 1.5713 -0.632983 0
M  V30 16357 O 1540.37 1.60486 -0.815121 0
M  V30 16358 H 1536.75 0.503636 -0.55844 0
M  V30 16359 H 1538.72 1.28137 -2.69488 0
M  V30 16360 C 1537.47 2.88733 -1.93722 0
M  V30 16361 H 1536.79 2.85078 -2.80304 0
M  V30 16362 H 1538.23 3.65626 -2.14695 0
M  V30 16363 C 1536.69 3.29431 -0.705444 0
M  V30 16364 O 1537.22 4.01506 0.124693 0
M  V30 16365 N 1535.43 2.85536 -0.540128 0
M  V30 16366 H 1534.97 2.27052 -1.21677 0
M  V30 16367 H 1534.93 3.13126 0.282723 0
M  V30 16368 N 1538.7 1.43003 0.662408 0
M  V30 16369 C 1540.12 1.26201 0.977003 0
M  V30 16370 C 1540.32 0.175104 2.00738 0
M  V30 16371 O 1539.37 -0.44954 2.48466 0
M  V30 16372 C 1540.69 2.62319 1.47001 0
M  V30 16373 C 1542.24 2.69776 1.58714 0
M  V30 16374 C 1542.71 4.06289 2.11408 0
M  V30 16375 N 1544.2 4.08307 2.18724 0
M  V30 16376 C 1544.94 5.10761 2.60598 0
M  V30 16377 N 1544.43 6.23593 3.01834 0
M  V30 16378 N 1546.23 4.98115 2.60456 0
M  V30 16379 H 1538.38 2.12391 -0.0195698 0
M  V30 16380 H 1540.64 0.946472 0.0538044 0
M  V30 16381 H 1540.35 3.42773 0.78736 0
M  V30 16382 H 1540.22 2.87088 2.44664 0
M  V30 16383 H 1542.61 1.89659 2.26083 0
M  V30 16384 H 1542.69 2.48782 0.595081 0
M  V30 16385 H 1542.33 4.86868 1.44644 0
M  V30 16386 H 1542.26 4.24641 3.11428 0
M  V30 16387 H 1544.75 3.26857 1.89665 0
M  V30 16388 H 1545.07 6.97609 3.32509 0
M  V30 16389 H 1543.41 6.27079 2.99661 0
M  V30 16390 H 1546.6 4.09037 2.27611 0
M  V30 16391 H 1546.77 5.78092 2.92769 0
M  V30 16392 N 1540.18 -0.899904 1.29381 0
M  V30 16393 C 1541.41 -1.68383 1.20227 0
M  V30 16394 C 1541.82 -1.87305 -0.237135 0
M  V30 16395 O 1541.18 -1.40992 -1.15877 0
M  V30 16396 C 1541.23 -3.06845 1.91124 0
M  V30 16397 O 1540.95 -2.88787 3.29444 0
M  V30 16398 C 1542.45 -4.01253 1.88444 0
M  V30 16399 H 1539.67 -0.525917 0.416717 0
M  V30 16400 H 1542.22 -1.12537 1.7075 0
M  V30 16401 H 1540.37 -3.59467 1.44438 0
M  V30 16402 H 1540.79 -3.7652 3.65148 0
M  V30 16403 H 1542.26 -4.95824 2.42616 0
M  V30 16404 H 1542.74 -4.30699 0.859925 0
M  V30 16405 H 1543.34 -3.54562 2.34874 0
M  V30 16406 N 1541.66 -1.11854 -1.11024 0
M  V30 16407 C 1542.91 -0.864814 -1.82219 0
M  V30 16408 C 1543.22 0.611349 -1.85801 0
M  V30 16409 O 1544.43 0.981475 -2.53139 0
M  V30 16410 C 1542.88 -1.49745 -3.27268 0
M  V30 16411 C 1542.49 -3.00796 -3.32003 0
M  V30 16412 C 1544.23 -1.32374 -4.03333 0
M  V30 16413 C 1542.14 -3.57023 -4.71475 0
M  V30 16414 H 1541.07 -0.319877 -0.682784 0
M  V30 16415 H 1543.72 -1.34431 -1.24903 0
M  V30 16416 H 1542.1 -0.94562 -3.84544 0
M  V30 16417 H 1543.28 -3.6242 -2.84585 0
M  V30 16418 H 1541.59 -3.17493 -2.6942 0
M  V30 16419 H 1544.19 -1.7181 -5.06345 0
M  V30 16420 H 1544.53 -0.26676 -4.15444 0
M  V30 16421 H 1545.07 -1.84444 -3.52456 0
M  V30 16422 H 1541.81 -4.62453 -4.64562 0
M  V30 16423 H 1541.33 -3.00172 -5.19285 0
M  V30 16424 H 1543 -3.5572 -5.40437 0
M  V30 16425 N 1543.14 1.28707 -0.909517 0
M  V30 16426 C 1544.37 1.98995 -0.555405 0
M  V30 16427 C 1544.77 1.68183 0.866665 0
M  V30 16428 O 1544.12 0.928626 1.585 0
M  V30 16429 C 1544.18 3.53018 -0.67958 0
M  V30 16430 C 1543.84 4.0741 -2.07042 0
M  V30 16431 C 1544.84 4.21565 -3.04268 0
M  V30 16432 C 1542.53 4.42204 -2.38245 0
M  V30 16433 C 1544.52 4.69762 -4.30816 0
M  V30 16434 C 1542.21 4.90095 -3.65034 0
M  V30 16435 C 1543.2 5.03831 -4.61133 0
M  V30 16436 O 1542.89 5.50679 -5.85668 0
M  V30 16437 H 1542.62 0.64228 -0.210836 0
M  V30 16438 H 1545.18 1.64974 -1.22364 0
M  V30 16439 H 1543.41 3.86673 0.0457104 0
M  V30 16440 H 1545.1 4.0453 -0.33319 0
M  V30 16441 H 1545.86 3.94962 -2.81478 0
M  V30 16442 H 1541.74 4.30766 -1.642 0
M  V30 16443 H 1545.29 4.80398 -5.0583 0
M  V30 16444 H 1541.18 5.16137 -3.8765 0
M  V30 16445 H 1541.95 5.68974 -5.88397 0
M  V30 16446 N 1544.61 0.673042 1.42506 0
M  V30 16447 C 1545.84 0.202628 2.05604 0
M  V30 16448 C 1546.25 -1.14466 1.50646 0
M  V30 16449 O 1545.6 -1.7218 0.6403 0
M  V30 16450 C 1545.66 0.0583637 3.59453 0
M  V30 16451 C 1545.32 1.33408 4.37094 0
M  V30 16452 C 1546.32 2.26717 4.67863 0
M  V30 16453 C 1544 1.58119 4.76764 0
M  V30 16454 C 1546 3.43014 5.37234 0
M  V30 16455 C 1543.68 2.74706 5.45875 0
M  V30 16456 C 1544.68 3.66978 5.76035 0
M  V30 16457 O 1544.37 4.81526 6.4373 0
M  V30 16458 H 1544.1 0.0964964 0.669077 0
M  V30 16459 H 1546.66 0.919656 1.83661 0
M  V30 16460 H 1544.89 -0.714227 3.80047 0
M  V30 16461 H 1546.58 -0.37195 4.04192 0
M  V30 16462 H 1547.34 2.08875 4.37717 0
M  V30 16463 H 1543.22 0.871705 4.52683 0
M  V30 16464 H 1546.76 4.15055 5.60692 0
M  V30 16465 H 1542.66 2.92474 5.75438 0
M  V30 16466 H 1543.43 4.81047 6.6222 0
M  V30 16467 N 1546.09 -1.52004 0.416254 0
M  V30 16468 C 1547.06 -2.2579 -0.393882 0
M  V30 16469 C 1548.06 -1.28427 -0.967637 0
M  V30 16470 O 1549.25 -1.52311 -0.845396 0
M  V30 16471 C 1546.38 -3.03361 -1.55515 0
M  V30 16472 H 1547.57 -2.98835 0.252492 0
M  V30 16473 H 1545.12 -1.55384 0.168929 0
M  V30 16474 H 1545.86 -2.34682 -2.23818 0
M  V30 16475 H 1545.64 -3.74852 -1.15015 0
M  V30 16476 H 1547.13 -3.5931 -2.12805 0
M  V30 16477 N 1547.57 -0.146903 -1.56914 0
M  V30 16478 C 1548.5 0.830846 -2.12538 0
M  V30 16479 C 1549.48 1.24243 -1.04892 0
M  V30 16480 O 1550.67 1.33855 -1.32721 0
M  V30 16481 C 1547.79 2.11561 -2.64499 0
M  V30 16482 C 1546.84 1.84995 -3.8429 0
M  V30 16483 S 1547.67 1.04104 -5.25283 0
M  V30 16484 C 1548.83 2.337 -5.80633 0
M  V30 16485 H 1549.06 0.357829 -2.95139 0
M  V30 16486 H 1546.59 0.0673772 -1.54253 0
M  V30 16487 H 1548.55 2.85366 -2.95087 0
M  V30 16488 H 1547.21 2.55977 -1.82028 0
M  V30 16489 H 1546.41 2.8026 -4.18892 0
M  V30 16490 H 1546.01 1.19298 -3.54463 0
M  V30 16491 H 1548.3 3.29351 -5.92059 0
M  V30 16492 H 1549.24 2.03603 -6.78197 0
M  V30 16493 H 1549.65 2.44344 -5.08878 0
M  V30 16494 N 1549.05 1.57088 0.126881 0
M  V30 16495 C 1550 2.00736 1.17506 0
M  V30 16496 C 1550.99 0.902986 1.43327 0
M  V30 16497 O 1552.2 1.08819 1.43382 0
M  V30 16498 H 1548.57 0.639285 0.396003 0
M  V30 16499 H 1550.54 2.88015 0.780373 0
M  V30 16500 C 1549.29 2.42096 2.49569 0
M  V30 16501 H 1548.61 3.26639 2.30536 0
M  V30 16502 H 1550.05 2.76442 3.2149 0
M  V30 16503 C 1548.51 1.28148 3.11576 0
M  V30 16504 O 1549.04 0.593145 3.97297 0
M  V30 16505 N 1547.25 1.04055 2.71332 0
M  V30 16506 H 1546.8 1.60208 2.0172 0
M  V30 16507 H 1546.75 0.280075 3.1315 0
M  V30 16508 N 1550.53 -0.396836 1.52522 0
M  V30 16509 C 1551.77 -1.14037 1.66853 0
M  V30 16510 C 1552.1 -1.90706 0.406987 0
M  V30 16511 O 1551.37 -1.87165 -0.578443 0
M  V30 16512 H 1549.95 -0.423967 0.615029 0
M  V30 16513 H 1552.61 -0.451042 1.89609 0
M  V30 16514 H 1551.7 -1.84763 2.51533 0
M  V30 16515 N 1552.01 -1.43353 -0.654814 0
M  V30 16516 C 1552.94 -1.44353 -1.7803 0
M  V30 16517 C 1553.95 -0.339872 -1.59213 0
M  V30 16518 O 1555.14 -0.604207 -1.67963 0
M  V30 16519 C 1552.24 -1.23913 -3.15434 0
M  V30 16520 C 1551.41 -2.47088 -3.60924 0
M  V30 16521 C 1550.47 -2.21896 -4.77126 0
M  V30 16522 O 1549.5 -2.95236 -4.86646 0
M  V30 16523 N 1550.7 -1.23459 -5.6722 0
M  V30 16524 H 1553.46 -2.41372 -1.77651 0
M  V30 16525 H 1551.03 -1.38488 -0.838603 0
M  V30 16526 H 1553.02 -1.04945 -3.90856 0
M  V30 16527 H 1551.59 -0.35346 -3.10595 0
M  V30 16528 H 1550.81 -2.81492 -2.75964 0
M  V30 16529 H 1552.1 -3.29066 -3.88064 0
M  V30 16530 H 1551.49 -0.6284 -5.62199 0
M  V30 16531 H 1550.05 -1.10474 -6.4237 0
M  V30 16532 N 1553.48 0.89303 -1.29857 0
M  V30 16533 C 1554.45 1.97944 -1.15546 0
M  V30 16534 C 1555.45 1.60554 -0.088989 0
M  V30 16535 O 1556.64 1.7092 -0.336464 0
M  V30 16536 C 1553.77 3.32126 -0.768442 0
M  V30 16537 H 1554.96 2.12067 -2.12055 0
M  V30 16538 H 1552.51 1.0784 -1.13138 0
M  V30 16539 H 1553.25 3.23704 0.196504 0
M  V30 16540 H 1553.03 3.60631 -1.53907 0
M  V30 16541 H 1554.52 4.11834 -0.691559 0
M  V30 16542 N 1554.96 1.12442 1.10429 0
M  V30 16543 C 1556.38 0.860481 1.34417 0
M  V30 16544 C 1556.58 -0.509394 1.94955 0
M  V30 16545 O 1555.63 -1.25807 2.18927 0
M  V30 16546 C 1556.95 1.97694 2.26578 0
M  V30 16547 C 1558.49 2.00783 2.40115 0
M  V30 16548 C 1558.97 3.11663 3.35604 0
M  V30 16549 N 1560.46 3.11106 3.43173 0
M  V30 16550 C 1561.2 3.9354 4.1703 0
M  V30 16551 N 1560.69 4.85963 4.93773 0
M  V30 16552 N 1562.48 3.81677 4.12649 0
M  V30 16553 H 1554.64 2.00706 0.695036 0
M  V30 16554 H 1556.9 0.873398 0.368619 0
M  V30 16555 H 1556.6 2.96405 1.89306 0
M  V30 16556 H 1556.48 1.88217 3.26886 0
M  V30 16557 H 1558.87 1.02692 2.76656 0
M  V30 16558 H 1558.95 2.14335 1.39621 0
M  V30 16559 H 1558.59 4.09987 2.99789 0
M  V30 16560 H 1558.52 2.9535 4.35977 0
M  V30 16561 H 1561.01 2.4415 2.88442 0
M  V30 16562 H 1561.32 5.45373 5.47529 0
M  V30 16563 H 1559.67 4.89976 4.92898 0
M  V30 16564 H 1562.86 3.08808 3.51789 0
M  V30 16565 H 1563.03 4.46151 4.6995 0
M  V30 16566 N 1556.44 -1.28223 0.91633 0
M  V30 16567 C 1557.86 -1.47281 0.614864 0
M  V30 16568 C 1558.06 -1.83197 -0.839111 0
M  V30 16569 O 1557.11 -1.9385 -1.61798 0
M  V30 16570 C 1558.42 -2.57373 1.55498 0
M  V30 16571 C 1559.97 -2.71241 1.56197 0
M  V30 16572 C 1560.45 -3.84479 2.48877 0
M  V30 16573 N 1561.94 -3.91837 2.47019 0
M  V30 16574 C 1562.67 -4.78846 3.15427 0
M  V30 16575 N 1562.17 -5.70427 3.93173 0
M  V30 16576 N 1563.96 -4.72478 3.04501 0
M  V30 16577 H 1556.11 -1.03191 1.85649 0
M  V30 16578 H 1558.38 -0.514213 0.796422 0
M  V30 16579 H 1558.08 -2.37747 2.5917 0
M  V30 16580 H 1557.96 -3.54527 1.28803 0
M  V30 16581 H 1560.34 -2.90254 0.532619 0
M  V30 16582 H 1560.42 -1.74609 1.86937 0
M  V30 16583 H 1560.07 -3.6622 3.51916 0
M  V30 16584 H 1560 -4.80514 2.15439 0
M  V30 16585 H 1562.49 -3.26344 1.90546 0
M  V30 16586 H 1562.8 -6.33653 4.42384 0
M  V30 16587 H 1561.15 -5.70259 3.97278 0
M  V30 16588 H 1564.34 -3.99925 2.43265 0
M  V30 16589 H 1564.51 -5.40073 3.58086 0
M  V30 16590 N 1557.92 -0.68059 -1.42147 0
M  V30 16591 C 1559.17 -0.202445 -2.00681 0
M  V30 16592 C 1559.48 1.19997 -1.54467 0
M  V30 16593 O 1560.69 1.77479 -2.05459 0
M  V30 16594 C 1559.14 -0.311064 -3.58553 0
M  V30 16595 C 1558.75 -1.7179 -4.13754 0
M  V30 16596 C 1560.49 0.108072 -4.24362 0
M  V30 16597 C 1558.4 -1.77897 -5.64009 0
M  V30 16598 H 1557.33 -0.0719266 -0.750561 0
M  V30 16599 H 1559.98 -0.846614 -1.62803 0
M  V30 16600 H 1558.36 0.401098 -3.93963 0
M  V30 16601 H 1559.54 -2.45761 -3.89793 0
M  V30 16602 H 1557.85 -2.08539 -3.60417 0
M  V30 16603 H 1560.45 0.0826684 -5.34636 0
M  V30 16604 H 1560.79 1.14431 -4.00264 0
M  V30 16605 H 1561.33 -0.553285 -3.93933 0
M  V30 16606 H 1558.06 -2.79523 -5.92914 0
M  V30 16607 H 1557.58 -1.0829 -5.89944 0
M  V30 16608 H 1559.26 -1.53504 -6.28527 0
M  V30 16609 N 1559.4 1.51781 -0.424309 0
M  V30 16610 C 1560.63 2.06088 0.145337 0
M  V30 16611 C 1561.03 1.29297 1.38127 0
M  V30 16612 O 1560.38 0.342227 1.80484 0
M  V30 16613 C 1560.44 3.55333 0.545777 0
M  V30 16614 C 1560.1 4.53285 -0.581528 0
M  V30 16615 C 1561.1 4.99278 -1.44973 0
M  V30 16616 C 1558.78 4.96539 -0.758549 0
M  V30 16617 C 1560.78 5.87185 -2.47977 0
M  V30 16618 C 1558.47 5.84239 -1.79188 0
M  V30 16619 C 1559.46 6.29458 -2.65089 0
M  V30 16620 O 1559.15 7.15418 -3.6665 0
M  V30 16621 H 1558.88 0.675782 0.0171719 0
M  V30 16622 H 1561.44 1.96492 -0.598349 0
M  V30 16623 H 1559.67 3.62668 1.34197 0
M  V30 16624 H 1561.36 3.92215 1.04508 0
M  V30 16625 H 1562.12 4.66566 -1.32445 0
M  V30 16626 H 1558 4.60893 -0.0995452 0
M  V30 16627 H 1561.55 6.22401 -3.15059 0
M  V30 16628 H 1557.44 6.16365 -1.91742 0
M  V30 16629 H 1558.21 7.33566 -3.63074 0
M  V30 16630 N 1560.87 0.155222 1.56834 0
M  V30 16631 C 1562.12 -0.493831 1.95561 0
M  V30 16632 C 1562.44 -1.65468 1.04305 0
M  V30 16633 O 1563.64 -2.36891 1.32646 0
M  V30 16634 C 1562.1 -0.929923 3.47679 0
M  V30 16635 C 1561.71 0.204447 4.47533 0
M  V30 16636 C 1563.45 -1.5483 3.95257 0
M  V30 16637 C 1561.36 -0.250375 5.9087 0
M  V30 16638 H 1560.29 -0.188258 0.73012 0
M  V30 16639 H 1562.94 0.240883 1.81912 0
M  V30 16640 H 1561.32 -1.72014 3.56689 0
M  V30 16641 H 1562.49 0.981535 4.50225 0
M  V30 16642 H 1560.81 0.731756 4.0992 0
M  V30 16643 H 1563.41 -1.90036 4.9979 0
M  V30 16644 H 1563.75 -2.44031 3.37275 0
M  V30 16645 H 1564.28 -0.822828 3.89197 0
M  V30 16646 H 1561.02 0.606461 6.52689 0
M  V30 16647 H 1560.54 -0.993164 5.9152 0
M  V30 16648 H 1562.22 -0.699645 6.43206 0
M  V30 16649 N 1562.35 -1.57153 -0.118549 0
M  V30 16650 C 1563.3 -2.00374 -1.14538 0
M  V30 16651 C 1564.27 -0.875964 -1.41124 0
M  V30 16652 O 1565.45 -1.14022 -1.52982 0
M  V30 16653 C 1562.59 -2.4135 -2.46666 0
M  V30 16654 C 1561.71 -3.67545 -2.27012 0
M  V30 16655 C 1560.84 -3.975 -3.52374 0
M  V30 16656 C 1559.88 -5.16877 -3.27879 0
M  V30 16657 N 1559.02 -5.427 -4.45445 0
M  V30 16658 H 1563.86 -2.87885 -0.769821 0
M  V30 16659 H 1561.39 -1.42406 -0.368622 0
M  V30 16660 H 1563.35 -2.63144 -3.23745 0
M  V30 16661 H 1561.98 -1.5688 -2.82114 0
M  V30 16662 H 1561.03 -3.53364 -1.40848 0
M  V30 16663 H 1562.35 -4.54777 -2.04889 0
M  V30 16664 H 1561.5 -4.19945 -4.37871 0
M  V30 16665 H 1560.24 -3.08745 -3.77529 0
M  V30 16666 H 1559.24 -4.94276 -2.40773 0
M  V30 16667 H 1560.47 -6.0721 -3.04094 0
M  V30 16668 H 1558.42 -4.56902 -4.70719 0
M  V30 16669 H 1558.33 -6.24256 -4.26428 0
M  V30 16670 H 1559.6 -5.69664 -5.32074 0
M  V30 16671 N 1563.83 0.388742 -1.5273 0
M  V30 16672 C 1565.11 1.14799 -1.58368 0
M  V30 16673 C 1565.49 2.07706 -0.377018 0
M  V30 16674 O 1564.83 2.1951 0.634634 0
M  V30 16675 C 1565.04 1.90745 -2.92262 0
M  V30 16676 C 1566.39 2.46098 -3.46007 0
M  V30 16677 O 1567.42 2.00901 -2.94138 0
M  V30 16678 O 1566.28 3.28658 -4.3663 0
M  V30 16679 H 1563.37 0.52529 -0.638748 0
M  V30 16680 H 1565.92 0.393874 -1.65066 0
M  V30 16681 H 1564.69 1.22806 -3.7153 0
M  V30 16682 H 1564.31 2.73118 -2.88951 0
M  V30 16683 N 1565.31 1.43698 0.647203 0
M  V30 16684 C 1566.22 1.51781 1.78884 0
M  V30 16685 C 1567.23 0.404498 1.69233 0
M  V30 16686 O 1568.41 0.659509 1.90296 0
M  V30 16687 C 1565.47 1.44408 3.15194 0
M  V30 16688 C 1564.54 2.6646 3.36597 0
M  V30 16689 C 1563.77 2.59429 4.66403 0
M  V30 16690 O 1563.99 1.64537 5.46154 0
M  V30 16691 O 1562.93 3.50027 4.89658 0
M  V30 16692 H 1566.75 2.48198 1.75019 0
M  V30 16693 H 1564.34 1.25766 0.806436 0
M  V30 16694 H 1566.22 1.42761 3.96481 0
M  V30 16695 H 1564.89 0.511292 3.19637 0
M  V30 16696 H 1563.8 2.73679 2.5505 0
M  V30 16697 H 1565.13 3.58732 3.37005 0
M  V30 16698 N 1566.79 -0.886131 1.30328 0
M  V30 16699 C 1567.73 -2.01312 1.16516 0
M  V30 16700 C 1568.73 -1.69223 0.0773431 0
M  V30 16701 O 1569.93 -1.78418 0.238111 0
M  V30 16702 H 1566.31 -0.66006 0.360312 0
M  V30 16703 H 1568.28 -2.10097 2.11901 0
M  V30 16704 C 1567.03 -3.36573 0.872592 0
M  V30 16705 H 1566.35 -3.61775 1.70172 0
M  V30 16706 H 1567.79 -4.16073 0.816049 0
M  V30 16707 C 1566.25 -3.34215 -0.424465 0
M  V30 16708 O 1566.78 -3.74758 -1.44634 0
M  V30 16709 N 1564.99 -2.87323 -0.435207 0
M  V30 16710 H 1564.53 -2.54525 0.396851 0
M  V30 16711 H 1564.49 -2.86128 -1.303 0
M  V30 16712 N 1568.26 -1.13026 -1.09832 0
M  V30 16713 C 1569.51 -0.890736 -1.82191 0
M  V30 16714 C 1569.84 0.581818 -1.8528 0
M  V30 16715 O 1569.12 1.43037 -1.31798 0
M  V30 16716 C 1569.4 -1.47403 -3.28549 0
M  V30 16717 C 1569.25 -3.0154 -3.33757 0
M  V30 16718 C 1570.57 -1.13876 -4.25112 0
M  V30 16719 H 1567.69 -0.325028 -0.661457 0
M  V30 16720 H 1570.33 -1.39787 -1.28684 0
M  V30 16721 H 1568.48 -1.04272 -3.74245 0
M  V30 16722 H 1570.16 -3.53395 -2.96495 0
M  V30 16723 H 1568.4 -3.36746 -2.73467 0
M  V30 16724 H 1569.07 -3.37449 -4.36843 0
M  V30 16725 H 1571.55 -1.51139 -3.87681 0
M  V30 16726 H 1570.42 -1.57343 -5.25865 0
M  V30 16727 H 1570.68 -0.051854 -4.4207 0
M  V30 16728 N 1569.74 1.27735 -0.923117 0
M  V30 16729 C 1570.69 2.24644 -0.389748 0
M  V30 16730 C 1571.68 1.52822 0.50341 0
M  V30 16731 O 1572.87 1.73672 0.341602 0
M  V30 16732 C 1570 3.41402 0.360535 0
M  V30 16733 C 1569.08 4.20533 -0.548877 0
M  V30 16734 N 1569.47 4.77552 -1.66667 0
M  V30 16735 C 1567.77 4.44617 -0.35102 0
M  V30 16736 C 1568.47 5.37179 -2.23191 0
M  V30 16737 N 1567.45 5.21857 -1.52204 0
M  V30 16738 H 1571.25 2.66308 -1.24328 0
M  V30 16739 H 1568.77 1.42614 -0.776856 0
M  V30 16740 H 1570.76 4.09922 0.759555 0
M  V30 16741 H 1569.42 3.0127 1.21105 0
M  V30 16742 H 1570.43 4.75638 -2.04912 0
M  V30 16743 H 1567.11 4.14967 0.459214 0
M  V30 16744 H 1568.5 5.92274 -3.17272 0
M  V30 16745 N 1571.22 0.688118 1.41784 0
M  V30 16746 C 1572.45 0.22475 2.05676 0
M  V30 16747 C 1572.86 -1.1232 1.51755 0
M  V30 16748 O 1572.22 -1.70041 0.662735 0
M  V30 16749 C 1572.27 0.165661 3.6112 0
M  V30 16750 O 1571.99 1.46035 4.13044 0
M  V30 16751 C 1573.49 -0.319599 4.42146 0
M  V30 16752 H 1570.71 0.106135 0.662553 0
M  V30 16753 H 1573.26 0.938605 1.81688 0
M  V30 16754 H 1571.41 -0.498968 3.84173 0
M  V30 16755 H 1571.83 1.34252 5.07027 0
M  V30 16756 H 1573.3 -0.30983 5.5113 0
M  V30 16757 H 1573.78 -1.3572 4.17704 0
M  V30 16758 H 1574.38 0.313764 4.24141 0
M  V30 16759 N 1572.7 -1.51554 0.432352 0
M  V30 16760 C 1573.65 -2.29204 -0.396044 0
M  V30 16761 C 1574.64 -1.34846 -1.02532 0
M  V30 16762 O 1575.85 -1.52209 -0.960861 0
M  V30 16763 H 1572.22 -0.737587 -0.146525 0
M  V30 16764 H 1574.19 -2.97085 0.279781 0
M  V30 16765 C 1572.94 -3.1427 -1.4876 0
M  V30 16766 H 1572.26 -3.8676 -1.01274 0
M  V30 16767 H 1573.7 -3.71667 -2.04058 0
M  V30 16768 C 1572.16 -2.29322 -2.46806 0
M  V30 16769 O 1572.69 -1.94941 -3.51228 0
M  V30 16770 N 1570.9 -1.92641 -2.17573 0
M  V30 16771 H 1570.45 -2.208 -1.32685 0
M  V30 16772 H 1570.4 -1.361 -2.83415 0
M  V30 16773 N 1574.18 -0.163538 -1.56749 0
M  V30 16774 C 1575.14 0.755801 -2.1638 0
M  V30 16775 C 1576.14 1.16359 -1.10982 0
M  V30 16776 O 1577.33 1.08182 -1.36537 0
M  V30 16777 C 1574.46 2.02775 -2.74035 0
M  V30 16778 H 1575.65 0.23681 -2.98964 0
M  V30 16779 H 1573.21 0.0859925 -1.56063 0
M  V30 16780 H 1573.94 2.59002 -1.95163 0
M  V30 16781 H 1573.73 1.74439 -3.5116 0
M  V30 16782 H 1575.22 2.684 -3.19923 0
M  V30 16783 N 1575.65 1.57214 0.110213 0
M  V30 16784 C 1576.6 2.01971 1.1537 0
M  V30 16785 C 1577.6 0.918137 1.42361 0
M  V30 16786 O 1578.8 1.10334 1.4222 0
M  V30 16787 H 1575.18 0.64345 0.3892 0
M  V30 16788 H 1577.15 2.88827 0.749781 0
M  V30 16789 C 1575.9 2.4473 2.46987 0
M  V30 16790 H 1575.22 3.29066 2.27059 0
M  V30 16791 H 1576.66 2.79836 3.1854 0
M  V30 16792 C 1575.12 1.31445 3.10199 0
M  V30 16793 O 1575.65 0.635251 3.96645 0
M  V30 16794 N 1573.86 1.06927 2.70213 0
M  V30 16795 H 1573.4 1.62339 2.0001 0
M  V30 16796 H 1573.36 0.313273 3.12835 0
M  V30 16797 N 1577.13 -0.380637 1.52934 0
M  V30 16798 C 1578.38 -1.1265 1.68635 0
M  V30 16799 C 1578.71 -1.89397 0.429227 0
M  V30 16800 O 1577.99 -1.85863 -0.573182 0
M  V30 16801 C 1578.27 -2.09797 2.92673 0
M  V30 16802 C 1578.12 -1.36758 4.28506 0
M  V30 16803 C 1579.44 -3.10117 3.12274 0
M  V30 16804 H 1576.56 -0.408158 0.613658 0
M  V30 16805 H 1579.2 -0.408947 1.85547 0
M  V30 16806 H 1577.35 -2.70987 2.78385 0
M  V30 16807 H 1579.02 -0.784679 4.54577 0
M  V30 16808 H 1577.27 -0.669413 4.28604 0
M  V30 16809 H 1577.94 -2.07786 5.11399 0
M  V30 16810 H 1580.41 -2.59022 3.25648 0
M  V30 16811 H 1579.29 -3.75328 4.00525 0
M  V30 16812 H 1579.55 -3.79451 2.26868 0
M  V30 16813 N 1578.61 -1.44039 -0.639573 0
M  V30 16814 C 1579.56 -1.50254 -1.75192 0
M  V30 16815 C 1580.53 -0.350994 -1.62349 0
M  V30 16816 O 1581.71 -0.56006 -1.82395 0
M  V30 16817 C 1578.85 -1.44464 -3.13407 0
M  V30 16818 C 1577.97 -2.69929 -3.37287 0
M  V30 16819 C 1577.1 -2.56031 -4.65426 0
M  V30 16820 C 1576.14 -3.76699 -4.82456 0
M  V30 16821 N 1575.28 -3.61529 -6.01865 0
M  V30 16822 H 1580.12 -2.45296 -1.69216 0
M  V30 16823 H 1577.65 -1.21748 -0.825576 0
M  V30 16824 H 1579.61 -1.39099 -3.93328 0
M  V30 16825 H 1578.24 -0.529951 -3.1842 0
M  V30 16826 H 1577.29 -2.85516 -2.51366 0
M  V30 16827 H 1578.61 -3.59523 -3.45753 0
M  V30 16828 H 1577.76 -2.48451 -5.53495 0
M  V30 16829 H 1576.5 -1.63983 -4.59305 0
M  V30 16830 H 1575.5 -3.84672 -3.92819 0
M  V30 16831 H 1576.73 -4.69772 -4.90398 0
M  V30 16832 H 1574.67 -2.72226 -5.96849 0
M  V30 16833 H 1574.59 -4.44733 -6.1135 0
M  V30 16834 H 1575.86 -3.57826 -6.92518 0
M  V30 16835 N 1580.09 0.879207 -1.30796 0
M  V30 16836 C 1581.5 1.44705 -1.17972 0
M  V30 16837 C 1581.85 1.94992 0.217381 0
M  V30 16838 O 1580.98 1.85494 1.11449 0
M  V30 16839 C 1581.57 2.6302 -2.13555 0
M  V30 16840 C 1580.13 3.15877 -2.04692 0
M  V30 16841 C 1579.28 1.88576 -2.03309 0
M  V30 16842 H 1582.23 0.688604 -1.42982 0
M  V30 16843 H 1582.25 3.39418 -1.71976 0
M  V30 16844 H 1581.76 2.2639 -3.15229 0
M  V30 16845 H 1579.86 3.57151 -1.0618 0
M  V30 16846 H 1579.97 3.78786 -2.93357 0
M  V30 16847 H 1578.34 2.0715 -1.48192 0
M  V30 16848 H 1579.12 1.54195 -3.06723 0
M  V30 16849 N 1581.57 1.13606 1.09231 0
M  V30 16850 C 1582.51 0.815279 2.15921 0
M  V30 16851 C 1583.48 -0.223501 1.64589 0
M  V30 16852 O 1584.67 -0.0952982 1.90562 0
M  V30 16853 C 1581.81 0.289655 3.43882 0
M  V30 16854 C 1580.92 1.38773 4.09104 0
M  V30 16855 C 1580.06 0.820238 5.24829 0
M  V30 16856 C 1579.1 1.89658 5.81976 0
M  V30 16857 N 1578.23 1.34688 6.8906 0
M  V30 16858 H 1583.07 1.72914 2.42703 0
M  V30 16859 H 1580.61 0.863101 1.19117 0
M  V30 16860 H 1582.57 -0.0332398 4.17187 0
M  V30 16861 H 1581.2 -0.587329 3.17412 0
M  V30 16862 H 1580.25 1.82718 3.33644 0
M  V30 16863 H 1581.56 2.20114 4.47606 0
M  V30 16864 H 1580.72 0.448745 6.05038 0
M  V30 16865 H 1579.46 -0.0242261 4.87694 0
M  V30 16866 H 1578.46 2.27712 5.00427 0
M  V30 16867 H 1579.69 2.74448 6.21172 0
M  V30 16868 H 1577.63 0.524453 6.539 0
M  V30 16869 H 1577.55 2.09675 7.26342 0
M  V30 16870 H 1578.82 1.00302 7.7302 0
M  V30 16871 N 1583.05 -1.27244 0.929878 0
M  V30 16872 C 1584.01 -2.25028 0.435315 0
M  V30 16873 C 1585.01 -1.54453 -0.447332 0
M  V30 16874 O 1586.2 -1.72424 -0.248105 0
M  V30 16875 C 1583.33 -3.38843 -0.373933 0
M  V30 16876 H 1584.52 -2.70293 1.2993 0
M  V30 16877 H 1582.08 -1.39204 0.710771 0
M  V30 16878 H 1582.81 -2.98963 -1.25664 0
M  V30 16879 H 1582.6 -3.91244 0.258946 0
M  V30 16880 H 1584.09 -4.11516 -0.710255 0
M  V30 16881 N 1584.52 -0.695628 -1.41417 0
M  V30 16882 C 1585.8 -0.154646 -1.94988 0
M  V30 16883 C 1586.18 1.33534 -1.63499 0
M  V30 16884 O 1585.53 2.08178 -0.942031 0
M  V30 16885 C 1585.74 -0.446004 -3.46138 0
M  V30 16886 C 1587.09 -0.37378 -4.22952 0
M  V30 16887 O 1588.11 -0.380921 -3.54157 0
M  V30 16888 O 1586.97 -0.33395 -5.45479 0
M  V30 16889 H 1584.06 -0.0150053 -0.826864 0
M  V30 16890 H 1586.61 -0.771792 -1.51134 0
M  V30 16891 H 1585.38 -1.47734 -3.6234 0
M  V30 16892 H 1585 0.202111 -3.97086 0
M  V30 16893 N 1586 1.51322 -0.440383 0
M  V30 16894 C 1586.95 2.27823 0.369526 0
M  V30 16895 C 1587.92 1.31543 1.01418 0
M  V30 16896 O 1589.1 1.60449 1.03251 0
M  V30 16897 C 1586.24 3.12553 1.46304 0
M  V30 16898 C 1585.36 4.23829 0.836217 0
M  V30 16899 C 1584.49 4.95865 1.90504 0
M  V30 16900 C 1583.53 5.99058 1.25681 0
M  V30 16901 N 1582.67 6.64489 2.26712 0
M  V30 16902 H 1587.51 2.96593 -0.289205 0
M  V30 16903 H 1585.04 1.46287 -0.154466 0
M  V30 16904 H 1587 3.60006 2.10836 0
M  V30 16905 H 1585.63 2.4589 2.09136 0
M  V30 16906 H 1584.68 3.80318 0.0791116 0
M  V30 16907 H 1586 4.97753 0.322989 0
M  V30 16908 H 1585.15 5.46881 2.6269 0
M  V30 16909 H 1583.89 4.21578 2.452 0
M  V30 16910 H 1582.89 5.47331 0.520422 0
M  V30 16911 H 1584.12 6.75303 0.717138 0
M  V30 16912 H 1582.07 5.93014 2.80483 0
M  V30 16913 H 1581.98 7.34188 1.80289 0
M  V30 16914 H 1583.25 7.20134 2.98373 0
M  V30 16915 N 1587.48 0.171848 1.5666 0
M  V30 16916 C 1588.7 -0.482396 2.01712 0
M  V30 16917 C 1589.13 -1.5598 1.05128 0
M  V30 16918 O 1588.49 -1.81274 0.0309178 0
M  V30 16919 C 1588.54 -1.03716 3.45363 0
M  V30 16920 O 1587.64 -2.15114 3.51852 0
M  V30 16921 H 1586.98 -0.115439 0.653888 0
M  V30 16922 H 1589.51 0.275895 2.02731 0
M  V30 16923 H 1589.52 -1.35964 3.84679 0
M  V30 16924 H 1588.2 -0.24832 4.15158 0
M  V30 16925 H 1586.77 -1.83907 3.24396 0
M  V30 16926 N 1588.96 -1.5727 -0.101874 0
M  V30 16927 C 1589.91 -2.0258 -1.14297 0
M  V30 16928 C 1590.9 -0.925674 -1.41872 0
M  V30 16929 O 1592.11 -1.11086 -1.41633 0
M  V30 16930 H 1588.48 -0.645504 -0.385782 0
M  V30 16931 H 1590.45 -2.8922 -0.734453 0
M  V30 16932 C 1589.2 -2.46036 -2.45686 0
M  V30 16933 H 1588.52 -3.30266 -2.2531 0
M  V30 16934 H 1589.96 -2.81522 -3.17051 0
M  V30 16935 C 1588.42 -1.33089 -3.09498 0
M  V30 16936 O 1588.95 -0.656277 -3.96303 0
M  V30 16937 N 1587.16 -1.08359 -2.69642 0
M  V30 16938 H 1586.71 -1.63397 -1.99146 0
M  V30 16939 H 1586.66 -0.329859 -3.12665 0
M  V30 16940 N 1590.44 0.372521 -1.53134 0
M  V30 16941 C 1591.85 0.949671 -1.60742 0
M  V30 16942 C 1592.2 1.90475 -0.470501 0
M  V30 16943 O 1591.32 2.12594 0.404085 0
M  V30 16944 C 1591.92 1.72918 -2.9135 0
M  V30 16945 C 1590.48 2.25577 -3.01317 0
M  V30 16946 C 1589.62 1.06612 -2.55986 0
M  V30 16947 H 1592.57 0.151533 -1.57975 0
M  V30 16948 H 1592.6 2.58982 -2.78763 0
M  V30 16949 H 1592.11 1.0338 -3.74078 0
M  V30 16950 H 1590.21 2.98378 -2.23162 0
M  V30 16951 H 1590.32 2.53935 -4.06268 0
M  V30 16952 H 1588.69 1.43105 -2.10697 0
M  V30 16953 H 1589.47 0.38584 -3.41125 0
M  V30 16954 N 1591.91 1.44376 0.631925 0
M  V30 16955 C 1593.14 1.5082 1.42366 0
M  V30 16956 C 1593.56 0.133858 1.87623 0
M  V30 16957 O 1592.92 -0.876789 1.58689 0
M  V30 16958 C 1592.97 2.47698 2.62065 0
M  V30 16959 O 1592.07 1.97796 3.61871 0
M  V30 16960 H 1591.41 0.509318 0.426018 0
M  V30 16961 H 1593.94 1.89502 0.771376 0
M  V30 16962 H 1593.95 2.65708 3.09618 0
M  V30 16963 H 1592.63 3.47526 2.2847 0
M  V30 16964 H 1591.21 1.89549 3.21131 0
M  V30 16965 N 1593.39 -0.872258 1.31261 0
M  V30 16966 C 1594.34 -1.96688 1.15317 0
M  V30 16967 C 1595.33 -1.60769 0.0647922 0
M  V30 16968 O 1596.52 -1.74617 0.289469 0
M  V30 16969 C 1593.65 -3.32347 0.860242 0
M  V30 16970 C 1592.73 -3.7454 1.98948 0
M  V30 16971 N 1593.12 -3.88715 3.23627 0
M  V30 16972 C 1591.42 -4.04035 1.88871 0
M  V30 16973 C 1592.12 -4.24718 3.97478 0
M  V30 16974 N 1591.1 -4.35278 3.25629 0
M  V30 16975 H 1594.9 -2.05755 2.09862 0
M  V30 16976 H 1592.41 -1.0629 1.22785 0
M  V30 16977 H 1594.41 -4.10512 0.727004 0
M  V30 16978 H 1593.07 -3.24609 -0.0770132 0
M  V30 16979 H 1594.08 -3.73504 3.58769 0
M  V30 16980 H 1590.76 -4.04698 1.02595 0
M  V30 16981 H 1592.15 -4.43302 5.04909 0
M  V30 16982 N 1594.87 -1.14184 -1.08627 0
M  V30 16983 C 1596.12 -0.903271 -1.80344 0
M  V30 16984 C 1596.43 0.571801 -1.87056 0
M  V30 16985 O 1597.64 0.92756 -2.55164 0
M  V30 16986 C 1596.09 -1.56653 -3.24018 0
M  V30 16987 C 1595.7 -3.07771 -3.25548 0
M  V30 16988 C 1597.45 -1.40899 -4.00434 0
M  V30 16989 C 1595.35 -3.66943 -4.63796 0
M  V30 16990 H 1594.28 -0.334288 -0.675846 0
M  V30 16991 H 1596.93 -1.3705 -1.22023 0
M  V30 16992 H 1595.32 -1.02698 -3.82452 0
M  V30 16993 H 1596.49 -3.68375 -2.76834 0
M  V30 16994 H 1594.8 -3.23136 -2.62625 0
M  V30 16995 H 1597.4 -1.82511 -5.02587 0
M  V30 16996 H 1597.74 -0.354822 -4.14785 0
M  V30 16997 H 1598.28 -1.91879 -3.48464 0
M  V30 16998 H 1595.02 -4.72203 -4.54648 0
M  V30 16999 H 1594.54 -3.11119 -5.12801 0
M  V30 17000 H 1596.22 -3.67103 -5.32771 0
M  V30 17001 N 1596.35 1.26749 -0.936613 0
M  V30 17002 C 1597.6 1.9358 -0.580605 0
M  V30 17003 C 1597.92 1.7389 0.882446 0
M  V30 17004 O 1597.19 1.09185 1.62652 0
M  V30 17005 H 1595.77 0.716363 -0.211739 0
M  V30 17006 H 1598.43 1.54281 -1.19095 0
M  V30 17007 H 1597.53 3.01819 -0.79448 0
M  V30 17008 N 1597.83 0.703118 1.41046 0
M  V30 17009 C 1598.79 0.0514476 2.29142 0
M  V30 17010 C 1599.79 -0.700223 1.44753 0
M  V30 17011 O 1600.98 -0.533985 1.65814 0
M  V30 17012 C 1598.11 -0.93735 3.2776 0
M  V30 17013 H 1599.3 0.827201 2.88266 0
M  V30 17014 H 1596.86 0.467045 1.49159 0
M  V30 17015 H 1597.59 -1.7406 2.7363 0
M  V30 17016 H 1597.38 -0.4014 3.9004 0
M  V30 17017 H 1598.87 -1.39088 3.93757 0
M  V30 17018 N 1599.3 -1.51086 0.448402 0
M  V30 17019 C 1600.24 -2.25799 -0.393401 0
M  V30 17020 C 1601.25 -1.30241 -0.976792 0
M  V30 17021 O 1602.44 -1.55916 -0.869051 0
M  V30 17022 C 1599.54 -3.00682 -1.56345 0
M  V30 17023 C 1598.71 -4.23421 -1.09695 0
M  V30 17024 C 1597.77 -4.8079 -2.1384 0
M  V30 17025 O 1596.8 -5.42329 -1.72823 0
M  V30 17026 N 1598 -4.65792 -3.46437 0
M  V30 17027 H 1600.76 -2.98681 0.246986 0
M  V30 17028 H 1598.32 -1.59497 0.277902 0
M  V30 17029 H 1600.32 -3.35945 -2.25662 0
M  V30 17030 H 1598.89 -2.30741 -2.10897 0
M  V30 17031 H 1598.11 -3.93526 -0.230457 0
M  V30 17032 H 1599.39 -5.03049 -0.762832 0
M  V30 17033 H 1598.79 -4.16799 -3.82486 0
M  V30 17034 H 1597.35 -5.05386 -4.11616 0
M  V30 17035 N 1600.78 -0.180154 -1.56567 0
M  V30 17036 C 1601.72 0.785576 -2.14252 0
M  V30 17037 C 1602.69 1.21991 -1.07504 0
M  V30 17038 O 1603.88 1.3101 -1.35531 0
M  V30 17039 C 1601 2.05903 -2.68927 0
M  V30 17040 C 1600.05 1.76802 -3.88128 0
M  V30 17041 S 1600.88 0.92939 -5.27373 0
M  V30 17042 C 1602.04 2.21331 -5.8546 0
M  V30 17043 H 1602.27 0.295145 -2.95831 0
M  V30 17044 H 1599.81 0.0346427 -1.54361 0
M  V30 17045 H 1601.76 2.79043 -3.01074 0
M  V30 17046 H 1600.42 2.52059 -1.87417 0
M  V30 17047 H 1599.62 2.71312 -4.24742 0
M  V30 17048 H 1599.22 1.11753 -3.56914 0
M  V30 17049 H 1601.51 3.16718 -5.98912 0
M  V30 17050 H 1602.45 1.89172 -6.82363 0
M  V30 17051 H 1602.86 2.33495 -5.13946 0
M  V30 17052 N 1602.26 1.57322 0.0935319 0
M  V30 17053 C 1603.67 1.75099 0.64787 0
M  V30 17054 C 1604.02 0.802558 1.79035 0
M  V30 17055 O 1603.15 -0.0185803 2.16392 0
M  V30 17056 C 1603.74 3.17512 1.18203 0
M  V30 17057 C 1602.3 3.36707 1.68242 0
M  V30 17058 C 1601.45 2.70893 0.592649 0
M  V30 17059 H 1604.4 1.58146 -0.132546 0
M  V30 17060 H 1604.42 3.2047 2.05132 0
M  V30 17061 H 1603.93 3.86516 0.350297 0
M  V30 17062 H 1602.03 2.72784 2.5381 0
M  V30 17063 H 1602.15 4.45033 1.77433 0
M  V30 17064 H 1600.51 2.32835 1.03248 0
M  V30 17065 H 1601.29 3.42539 -0.228529 0
M  V30 17066 N 1603.74 -0.364395 1.53329 0
M  V30 17067 C 1604.99 -1.10473 1.69234 0
M  V30 17068 C 1605.31 -1.89799 0.447347 0
M  V30 17069 O 1604.58 -1.8835 -0.538612 0
M  V30 17070 H 1603.16 -0.410826 0.623884 0
M  V30 17071 H 1605.82 -0.410721 1.90523 0
M  V30 17072 H 1604.92 -1.79387 2.55396 0
M  V30 17073 N 1605.22 -1.44709 -0.62426 0
M  V30 17074 C 1606.44 -1.51573 -1.41564 0
M  V30 17075 C 1606.87 -0.143806 -1.87549 0
M  V30 17076 O 1606.22 0.868361 -1.59151 0
M  V30 17077 C 1606.27 -2.49085 -2.60747 0
M  V30 17078 O 1605.38 -1.99712 -3.60817 0
M  V30 17079 H 1604.72 -0.51157 -0.423311 0
M  V30 17080 H 1607.25 -1.89908 -0.761316 0
M  V30 17081 H 1607.26 -2.67346 -3.08205 0
M  V30 17082 H 1605.93 -3.48733 -2.26624 0
M  V30 17083 H 1604.51 -1.9125 -3.20122 0
M  V30 17084 N 1606.69 0.865285 -1.31722 0
M  V30 17085 C 1607.94 1.62108 -1.21855 0
M  V30 17086 C 1608.27 1.9293 0.221714 0
M  V30 17087 O 1607.55 1.56423 1.15595 0
M  V30 17088 C 1607.83 2.94828 -2.06756 0
M  V30 17089 C 1607.68 2.70855 -3.59107 0
M  V30 17090 C 1609 3.95983 -1.92055 0
M  V30 17091 H 1606.12 0.588234 -0.444015 0
M  V30 17092 H 1608.76 0.999922 -1.6156 0
M  V30 17093 H 1606.91 3.47843 -1.73025 0
M  V30 17094 H 1608.59 2.24477 -4.02999 0
M  V30 17095 H 1606.83 2.05004 -3.82303 0
M  V30 17096 H 1607.5 3.65312 -4.13825 0
M  V30 17097 H 1609.98 3.52193 -2.21584 0
M  V30 17098 H 1608.85 4.86724 -2.53754 0
M  V30 17099 H 1609.11 4.33148 -0.885174 0
M  V30 17100 N 1608.17 1.14759 1.0802 0
M  V30 17101 C 1609.4 0.941887 1.84218 0
M  V30 17102 C 1609.82 -0.509702 1.8179 0
M  V30 17103 O 1609.17 -1.35331 1.22441 0
M  V30 17104 C 1609.22 1.43978 3.31591 0
M  V30 17105 O 1608.94 2.83449 3.34048 0
M  V30 17106 C 1610.45 1.27459 4.24581 0
M  V30 17107 H 1607.67 0.334942 0.581425 0
M  V30 17108 H 1610.21 1.52367 1.36399 0
M  V30 17109 H 1608.36 0.900674 3.76785 0
M  V30 17110 H 1608.78 3.05878 4.26073 0
M  V30 17111 H 1610.25 1.67151 5.26084 0
M  V30 17112 H 1610.73 0.217925 4.38659 0
M  V30 17113 H 1611.34 1.80243 3.85217 0
M  V30 17114 N 1609.65 -1.26251 0.943322 0
M  V30 17115 C 1610.56 -2.3003 0.460778 0
M  V30 17116 C 1611.58 -1.67635 -0.4663 0
M  V30 17117 O 1612.75 -1.98418 -0.345307 0
M  V30 17118 C 1609.82 -3.45691 -0.264291 0
M  V30 17119 C 1608.88 -4.23561 0.69961 0
M  V30 17120 C 1608.11 -5.33699 0.00904846 0
M  V30 17121 O 1608.33 -5.57473 -1.20748 0
M  V30 17122 O 1607.27 -5.97945 0.688839 0
M  V30 17123 H 1611.09 -2.73374 1.32289 0
M  V30 17124 H 1608.68 -1.31489 0.709297 0
M  V30 17125 H 1610.56 -4.15997 -0.672634 0
M  V30 17126 H 1609.24 -3.04373 -1.10176 0
M  V30 17127 H 1608.14 -3.55728 1.15794 0
M  V30 17128 H 1609.48 -4.68634 1.50476 0
M  V30 17129 N 1611.13 -0.710588 -1.40671 0
M  V30 17130 C 1612.38 -0.248316 -2.01274 0
M  V30 17131 C 1612.71 1.1539 -1.56201 0
M  V30 17132 O 1611.98 1.78182 -0.779838 0
M  V30 17133 C 1612.27 -0.322762 -3.58651 0
M  V30 17134 C 1612.12 -1.763 -4.1381 0
M  V30 17135 C 1613.44 0.308908 -4.39015 0
M  V30 17136 H 1610.56 -0.0917037 -0.731272 0
M  V30 17137 H 1613.2 -0.902145 -1.67216 0
M  V30 17138 H 1611.35 0.233923 -3.87795 0
M  V30 17139 H 1613.02 -2.37468 -3.95483 0
M  V30 17140 H 1611.26 -2.29233 -3.68286 0
M  V30 17141 H 1611.94 -1.76652 -5.22971 0
M  V30 17142 H 1614.41 -0.165363 -4.15771 0
M  V30 17143 H 1613.29 0.226347 -5.48433 0
M  V30 17144 H 1613.55 1.39174 -4.19622 0
M  V30 17145 N 1612.61 1.50847 -0.456408 0
M  V30 17146 C 1613.55 2.28202 0.345341 0
M  V30 17147 C 1614.52 1.32611 1.00017 0
M  V30 17148 O 1615.71 1.61535 1.01543 0
M  V30 17149 C 1612.85 3.14087 1.42981 0
M  V30 17150 C 1611.96 4.24693 0.791217 0
M  V30 17151 C 1611.1 4.97857 1.85234 0
M  V30 17152 C 1610.14 6.00357 1.1932 0
M  V30 17153 N 1609.27 6.66856 2.19652 0
M  V30 17154 H 1614.11 2.9627 -0.320646 0
M  V30 17155 H 1611.65 1.46115 -0.169973 0
M  V30 17156 H 1613.61 3.62222 2.07006 0
M  V30 17157 H 1612.24 2.48095 2.06516 0
M  V30 17158 H 1611.29 3.8038 0.0387694 0
M  V30 17159 H 1612.6 4.98068 0.270177 0
M  V30 17160 H 1611.76 5.49636 2.56875 0
M  V30 17161 H 1610.5 4.24155 2.40715 0
M  V30 17162 H 1609.5 5.47853 0.462341 0
M  V30 17163 H 1610.73 6.76025 0.645473 0
M  V30 17164 H 1608.67 5.95955 2.74178 0
M  V30 17165 H 1608.59 7.36059 1.72492 0
M  V30 17166 H 1609.86 7.23259 2.90719 0
M  V30 17167 N 1614.09 0.188454 1.56469 0
M  V30 17168 C 1615.33 -0.452728 1.97682 0
M  V30 17169 C 1615.66 -1.61729 1.07506 0
M  V30 17170 O 1614.94 -1.94094 0.125677 0
M  V30 17171 C 1615.22 -0.919257 3.48169 0
M  V30 17172 C 1615.08 0.246656 4.49123 0
M  V30 17173 C 1616.39 -1.78706 4.02184 0
M  V30 17174 H 1613.51 -0.16309 0.718729 0
M  V30 17175 H 1616.16 0.27804 1.87955 0
M  V30 17176 H 1614.31 -1.54195 3.5659 0
M  V30 17177 H 1615.98 0.884178 4.52747 0
M  V30 17178 H 1614.22 0.89948 4.24372 0
M  V30 17179 H 1614.89 -0.122179 5.51865 0
M  V30 17180 H 1617.37 -1.26196 3.96502 0
M  V30 17181 H 1616.24 -2.08247 5.07863 0
M  V30 17182 H 1616.5 -2.73891 3.47039 0
M  V30 17183 N 1615.56 -1.5737 -0.0851874 0
M  V30 17184 C 1616.79 -1.91183 -0.803983 0
M  V30 17185 C 1617.21 -0.78365 -1.70999 0
M  V30 17186 O 1616.57 0.264266 -1.79364 0
M  V30 17187 C 1616.62 -3.239 -1.58496 0
M  V30 17188 O 1615.72 -3.12189 -2.69466 0
M  V30 17189 H 1615.06 -0.626413 -0.220233 0
M  V30 17190 H 1617.59 -2.04519 -0.0574426 0
M  V30 17191 H 1617.6 -3.5745 -1.96707 0
M  V30 17192 H 1616.28 -4.05594 -0.920111 0
M  V30 17193 H 1614.86 -2.90173 -2.3421 0
M  V30 17194 N 1617.04 0.356258 -1.53521 0
M  V30 17195 C 1618.29 1.09953 -1.70406 0
M  V30 17196 C 1618.62 1.8869 -0.459304 0
M  V30 17197 O 1617.9 1.86751 0.54354 0
M  V30 17198 C 1618.18 2.05114 -2.95973 0
M  V30 17199 C 1618.03 1.29924 -4.30627 0
M  V30 17200 C 1619.35 3.0511 -3.17168 0
M  V30 17201 H 1616.47 0.398343 -0.620074 0
M  V30 17202 H 1619.11 0.379376 -1.86174 0
M  V30 17203 H 1617.26 2.66524 -2.82661 0
M  V30 17204 H 1618.93 0.71226 -4.55768 0
M  V30 17205 H 1617.18 0.601141 -4.29615 0
M  V30 17206 H 1617.85 1.99624 -5.1464 0
M  V30 17207 H 1620.32 2.53809 -3.29728 0
M  V30 17208 H 1619.2 3.68908 -4.06445 0
M  V30 17209 H 1619.46 3.75794 -2.32876 0
M  V30 17210 N 1618.52 1.45038 0.616577 0
M  V30 17211 C 1619.77 1.48292 1.3731 0
M  V30 17212 C 1620.09 0.122437 1.94615 0
M  V30 17213 O 1619.36 -0.847103 1.76638 0
M  V30 17214 H 1617.94 0.546079 0.509712 0
M  V30 17215 H 1620.6 1.80927 0.724673 0
M  V30 17216 H 1619.7 2.21664 2.19708 0
M  V30 17217 N 1620 -0.858287 1.32179 0
M  V30 17218 C 1620.91 -1.99894 1.228 0
M  V30 17219 C 1621.92 -1.73417 0.142323 0
M  V30 17220 O 1623.1 -1.98114 0.362321 0
M  V30 17221 C 1620.16 -3.33495 0.947745 0
M  V30 17222 C 1619.23 -3.73217 2.12149 0
M  V30 17223 C 1618.46 -5.00443 1.85452 0
M  V30 17224 O 1618.68 -5.64828 0.79531 0
M  V30 17225 O 1617.62 -5.3721 2.71457 0
M  V30 17226 H 1621.44 -2.10742 2.18682 0
M  V30 17227 H 1619.03 -0.988385 1.12033 0
M  V30 17228 H 1620.91 -4.13585 0.807791 0
M  V30 17229 H 1619.58 -3.23694 0.019053 0
M  V30 17230 H 1618.49 -2.93718 2.3169 0
M  V30 17231 H 1619.82 -3.87659 3.03285 0
M  V30 17232 N 1621.48 -1.1533 -1.07409 0
M  V30 17233 C 1622.7 -0.951643 -1.83715 0
M  V30 17234 C 1623.12 0.500054 -1.82057 0
M  V30 17235 O 1622.48 1.3468 -1.23157 0
M  V30 17236 C 1622.53 -1.45734 -3.30823 0
M  V30 17237 O 1622.25 -2.85217 -3.3254 0
M  V30 17238 C 1623.75 -1.29709 -4.23899 0
M  V30 17239 H 1620.97 -0.338021 -0.57964 0
M  V30 17240 H 1623.51 -1.53088 -1.35589 0
M  V30 17241 H 1621.67 -0.920643 -3.76302 0
M  V30 17242 H 1622.08 -3.08134 -4.24445 0
M  V30 17243 H 1623.56 -1.69938 -5.2519 0
M  V30 17244 H 1624.03 -0.241185 -4.38537 0
M  V30 17245 H 1624.64 -1.82283 -3.84256 0
M  V30 17246 N 1622.95 1.25748 -0.950004 0
M  V30 17247 C 1624.2 1.93622 -0.603186 0
M  V30 17248 C 1624.53 1.74271 0.856925 0
M  V30 17249 O 1623.81 1.08502 1.61423 0
M  V30 17250 C 1624.09 3.4715 -0.957024 0
M  V30 17251 C 1623.94 3.75747 -2.47253 0
M  V30 17252 C 1625.26 4.37488 -0.478754 0
M  V30 17253 H 1622.38 0.703206 -0.220612 0
M  V30 17254 H 1625.02 1.48453 -1.18582 0
M  V30 17255 H 1623.17 3.85753 -0.46122 0
M  V30 17256 H 1624.85 3.46808 -3.04174 0
M  V30 17257 H 1623.09 3.21516 -2.91222 0
M  V30 17258 H 1623.76 4.83097 -2.67061 0
M  V30 17259 H 1626.24 4.06162 -0.903987 0
M  V30 17260 H 1625.11 5.43682 -0.755073 0
M  V30 17261 H 1625.37 4.37712 0.621303 0
M  V30 17262 N 1624.43 0.718038 1.40292 0
M  V30 17263 C 1625.38 0.0670495 2.30703 0
M  V30 17264 C 1626.35 -0.747716 1.48319 0
M  V30 17265 O 1627.53 -0.711161 1.77051 0
M  V30 17266 C 1624.67 -0.846918 3.34546 0
M  V30 17267 C 1623.79 -0.0213622 4.31995 0
M  V30 17268 C 1622.92 -0.935035 5.22906 0
M  V30 17269 C 1621.96 -0.103715 6.12012 0
M  V30 17270 N 1621.1 -0.972397 6.95334 0
M  V30 17271 H 1625.94 0.843724 2.85806 0
M  V30 17272 H 1623.47 0.427756 1.40743 0
M  V30 17273 H 1625.43 -1.39109 3.93325 0
M  V30 17274 H 1624.06 -1.58975 2.80939 0
M  V30 17275 H 1623.11 0.640026 3.74977 0
M  V30 17276 H 1624.43 0.62215 4.94905 0
M  V30 17277 H 1623.58 -1.54766 5.86628 0
M  V30 17278 H 1622.32 -1.61236 4.60276 0
M  V30 17279 H 1621.32 0.521826 5.47318 0
M  V30 17280 H 1622.55 0.570146 6.76702 0
M  V30 17281 H 1620.5 -1.63533 6.3529 0
M  V30 17282 H 1620.41 -0.384977 7.55019 0
M  V30 17283 H 1621.68 -1.57112 7.63503 0
M  V30 17284 N 1625.91 -1.50602 0.464402 0
M  V30 17285 C 1626.87 -2.26929 -0.32185 0
M  V30 17286 C 1627.87 -1.3144 -0.926289 0
M  V30 17287 O 1629.06 -1.54924 -0.796511 0
M  V30 17288 C 1626.2 -3.08155 -1.45785 0
M  V30 17289 H 1627.39 -2.97881 0.347436 0
M  V30 17290 H 1624.94 -1.54768 0.218278 0
M  V30 17291 H 1625.68 -2.41684 -2.16239 0
M  V30 17292 H 1625.46 -3.78321 -1.03031 0
M  V30 17293 H 1626.95 -3.65899 -2.01266 0
M  V30 17294 N 1627.39 -0.19675 -1.56367 0
M  V30 17295 C 1628.34 0.740138 -2.2051 0
M  V30 17296 C 1629.33 1.21854 -1.17677 0
M  V30 17297 O 1630.54 1.18124 -1.35819 0
M  V30 17298 H 1626.91 0.257034 -0.706709 0
M  V30 17299 H 1628.88 0.175454 -2.97884 0
M  V30 17300 C 1627.63 1.94841 -2.8798 0
M  V30 17301 H 1626.95 1.58936 -3.66851 0
M  V30 17302 H 1628.39 2.58227 -3.36296 0
M  V30 17303 C 1626.85 2.78821 -1.89104 0
M  V30 17304 O 1627.38 3.76797 -1.39237 0
M  V30 17305 N 1625.59 2.44348 -1.57297 0
M  V30 17306 H 1625.14 1.64732 -1.98043 0
M  V30 17307 H 1625.09 3.00822 -0.913978 0
M  V30 17308 N 1628.87 1.57413 0.0768405 0
M  V30 17309 C 1629.8 2.00058 1.11845 0
M  V30 17310 C 1630.81 0.905783 1.35275 0
M  V30 17311 O 1632 1.18372 1.33605 0
M  V30 17312 C 1629.1 2.32002 2.47039 0
M  V30 17313 C 1628.27 3.63265 2.43634 0
M  V30 17314 C 1627.33 3.82937 3.60896 0
M  V30 17315 O 1626.36 4.54582 3.42555 0
M  V30 17316 N 1627.56 3.24904 4.81059 0
M  V30 17317 H 1630.33 2.90026 0.75533 0
M  V30 17318 H 1627.89 1.59707 0.265567 0
M  V30 17319 H 1629.88 2.4234 3.24119 0
M  V30 17320 H 1628.45 1.4795 2.75372 0
M  V30 17321 H 1627.67 3.63727 1.51974 0
M  V30 17322 H 1628.96 4.49462 2.38455 0
M  V30 17323 H 1628.35 2.66742 4.98864 0
M  V30 17324 H 1626.91 3.40699 5.55669 0
M  V30 17325 N 1630.34 -0.348112 1.53707 0
M  V30 17326 C 1631.76 -0.923978 1.62233 0
M  V30 17327 C 1632.11 -1.89702 0.500744 0
M  V30 17328 O 1631.23 -2.1321 -0.370212 0
M  V30 17329 C 1631.83 -1.68261 2.94064 0
M  V30 17330 C 1630.39 -2.20755 3.04867 0
M  V30 17331 C 1629.53 -1.02526 2.5765 0
M  V30 17332 H 1632.48 -0.126381 1.58196 0
M  V30 17333 H 1632.5 -2.54514 2.82848 0
M  V30 17334 H 1632.02 -0.974155 3.75675 0
M  V30 17335 H 1630.12 -2.9479 2.27881 0
M  V30 17336 H 1630.23 -2.47439 4.10257 0
M  V30 17337 H 1628.59 -1.39735 2.12947 0
M  V30 17338 H 1629.38 -0.331521 3.41696 0
M  V30 17339 N 1631.82 -1.45363 -0.608876 0
M  V30 17340 C 1632.75 -1.56778 -1.7304 0
M  V30 17341 C 1633.73 -0.419405 -1.64848 0
M  V30 17342 O 1634.92 -0.64238 -1.83268 0
M  V30 17343 C 1632.05 -1.5329 -3.1164 0
M  V30 17344 C 1631 -2.66832 -3.34641 0
M  V30 17345 C 1630.33 -2.48398 -4.735 0
M  V30 17346 C 1631.63 -4.0885 -3.25021 0
M  V30 17347 H 1633.32 -2.50656 -1.63743 0
M  V30 17348 H 1630.87 -1.20635 -0.786338 0
M  V30 17349 H 1632.82 -1.59873 -3.89895 0
M  V30 17350 H 1631.55 -0.559414 -3.21773 0
M  V30 17351 H 1630.2 -2.59675 -2.58775 0
M  V30 17352 H 1629.85 -1.49191 -4.80366 0
M  V30 17353 H 1629.55 -3.24537 -4.89846 0
M  V30 17354 H 1631.08 -2.56833 -5.53958 0
M  V30 17355 H 1632.49 -4.17257 -3.93153 0
M  V30 17356 H 1630.89 -4.85369 -3.52897 0
M  V30 17357 H 1631.96 -4.30849 -2.2248 0
M  V30 17358 N 1633.3 0.851265 -1.32632 0
M  V30 17359 C 1634.23 1.97562 -1.24465 0
M  V30 17360 C 1635.21 1.69619 -0.127777 0
M  V30 17361 O 1636.4 1.9162 -0.315509 0
M  V30 17362 C 1633.53 3.33467 -0.970423 0
M  V30 17363 C 1632.48 3.75772 -2.0489 0
M  V30 17364 C 1631.81 5.09345 -1.62702 0
M  V30 17365 C 1633.11 3.90876 -3.4643 0
M  V30 17366 H 1634.8 2.04653 -2.18535 0
M  V30 17367 H 1632.35 0.983252 -1.05205 0
M  V30 17368 H 1634.3 4.11681 -0.899825 0
M  V30 17369 H 1633.02 3.26599 0.00591373 0
M  V30 17370 H 1631.68 2.99812 -2.1097 0
M  V30 17371 H 1631.33 4.98937 -0.638039 0
M  V30 17372 H 1631.03 5.38621 -2.34864 0
M  V30 17373 H 1632.55 5.90048 -1.57085 0
M  V30 17374 H 1633.97 4.59434 -3.42919 0
M  V30 17375 H 1632.37 4.31574 -4.1697 0
M  V30 17376 H 1633.44 2.93689 -3.85843 0
M  V30 17377 N 1634.78 1.15898 1.06796 0
M  V30 17378 C 1636.03 0.931848 1.78884 0
M  V30 17379 C 1636.34 -0.54197 1.87942 0
M  V30 17380 O 1637.55 -0.886848 2.56607 0
M  V30 17381 C 1636 1.61788 3.21485 0
M  V30 17382 C 1635.61 3.12911 3.2061 0
M  V30 17383 C 1637.35 1.47252 3.98142 0
M  V30 17384 C 1635.26 3.74275 4.579 0
M  V30 17385 H 1634.19 0.344998 0.670442 0
M  V30 17386 H 1636.84 1.38974 1.19827 0
M  V30 17387 H 1635.22 1.08769 3.80769 0
M  V30 17388 H 1636.4 3.72732 2.70938 0
M  V30 17389 H 1634.71 3.27273 2.57451 0
M  V30 17390 H 1637.31 1.90484 4.9962 0
M  V30 17391 H 1637.65 0.420766 4.14168 0
M  V30 17392 H 1638.19 1.97398 3.45367 0
M  V30 17393 H 1634.93 4.79376 4.47078 0
M  V30 17394 H 1634.45 3.19238 5.07786 0
M  V30 17395 H 1636.12 3.75532 5.26863 0
M  V30 17396 N 1636.26 -1.25243 0.956659 0
M  V30 17397 C 1637.48 -1.97082 0.629791 0
M  V30 17398 C 1637.9 -1.71082 -0.798529 0
M  V30 17399 O 1637.26 -0.98805 -1.5344 0
M  V30 17400 C 1637.31 -3.5059 0.881406 0
M  V30 17401 O 1637.03 -3.75694 2.25356 0
M  V30 17402 C 1638.53 -4.39656 0.567203 0
M  V30 17403 H 1635.75 -0.628152 0.235938 0
M  V30 17404 H 1638.29 -1.5936 1.28159 0
M  V30 17405 H 1636.45 -3.86416 0.27599 0
M  V30 17406 H 1636.86 -4.70142 2.32523 0
M  V30 17407 H 1638.34 -5.46263 0.793785 0
M  V30 17408 H 1638.81 -4.36364 -0.498287 0
M  V30 17409 H 1639.42 -4.094 1.15203 0
M  V30 17410 N 1637.73 -0.725468 -1.3991 0
M  V30 17411 C 1638.64 -0.0805887 -2.34462 0
M  V30 17412 C 1639.66 0.732689 -1.57822 0
M  V30 17413 O 1640.84 0.663362 -1.90162 0
M  V30 17414 C 1637.9 0.822908 -3.36792 0
M  V30 17415 C 1636.96 -0.00153812 -4.293 0
M  V30 17416 C 1636.2 0.85893 -5.26743 0
M  V30 17417 O 1636.42 2.09793 -5.30418 0
M  V30 17418 O 1635.35 0.292659 -6.01188 0
M  V30 17419 H 1639.18 -0.860746 -2.91247 0
M  V30 17420 H 1636.76 -0.48604 -1.41273 0
M  V30 17421 H 1638.65 1.34014 -3.99522 0
M  V30 17422 H 1637.32 1.58204 -2.82406 0
M  V30 17423 H 1636.23 -0.564072 -3.69823 0
M  V30 17424 H 1637.56 -0.722675 -4.86866 0
M  V30 17425 N 1639.21 1.50354 -0.472382 0
M  V30 17426 C 1640.18 2.27096 0.30981 0
M  V30 17427 C 1641.18 1.3193 0.919306 0
M  V30 17428 O 1642.37 1.55344 0.788284 0
M  V30 17429 C 1639.5 3.08924 1.44149 0
M  V30 17430 H 1640.69 2.97692 -0.363228 0
M  V30 17431 H 1638.24 1.5465 -0.226483 0
M  V30 17432 H 1638.98 2.42828 2.14954 0
M  V30 17433 H 1638.76 3.78862 1.01023 0
M  V30 17434 H 1640.25 3.66961 1.99323 0
M  V30 17435 N 1640.69 0.205039 1.56261 0
M  V30 17436 C 1641.62 -0.751391 2.15475 0
M  V30 17437 C 1642.6 -1.20265 1.09431 0
M  V30 17438 O 1643.79 -1.28837 1.37598 0
M  V30 17439 C 1640.91 -2.01598 2.72169 0
M  V30 17440 C 1639.96 -1.70605 3.90892 0
M  V30 17441 S 1640.79 -0.845372 5.28785 0
M  V30 17442 C 1641.95 -2.11989 5.88907 0
M  V30 17443 H 1642.18 -0.248043 2.96263 0
M  V30 17444 H 1639.71 -0.0100808 1.54397 0
M  V30 17445 H 1641.67 -2.74217 3.05475 0
M  V30 17446 H 1640.33 -2.49045 1.91403 0
M  V30 17447 H 1639.53 -2.6452 4.29005 0
M  V30 17448 H 1639.13 -1.0606 3.58646 0
M  V30 17449 H 1641.42 -3.0715 6.03875 0
M  V30 17450 H 1642.36 -1.78292 6.85286 0
M  V30 17451 H 1642.77 -2.25289 5.17596 0
M  V30 17452 N 1642.17 -1.57451 -0.0684915 0
M  V30 17453 C 1643.12 -2.03916 -1.08105 0
M  V30 17454 C 1644.09 -0.920418 -1.38266 0
M  V30 17455 O 1645.27 -1.18831 -1.49277 0
M  V30 17456 C 1642.41 -2.49075 -2.38863 0
M  V30 17457 C 1641.52 -3.74581 -2.15204 0
M  V30 17458 C 1640.66 -4.08509 -3.39549 0
M  V30 17459 C 1639.7 -5.27046 -3.11269 0
M  V30 17460 N 1638.84 -5.56597 -4.27954 0
M  V30 17461 H 1643.68 -2.90188 -0.677843 0
M  V30 17462 H 1641.21 -1.43507 -0.32313 0
M  V30 17463 H 1643.17 -2.7331 -3.1521 0
M  V30 17464 H 1641.8 -1.65776 -2.76981 0
M  V30 17465 H 1640.85 -3.57666 -1.29535 0
M  V30 17466 H 1642.16 -4.61065 -1.90317 0
M  V30 17467 H 1641.32 -4.33663 -4.24289 0
M  V30 17468 H 1640.06 -3.20599 -3.67515 0
M  V30 17469 H 1639.06 -5.01686 -2.24926 0
M  V30 17470 H 1640.29 -6.16577 -2.84622 0
M  V30 17471 H 1638.23 -4.71646 -4.55945 0
M  V30 17472 H 1638.15 -6.37506 -4.06352 0
M  V30 17473 H 1639.42 -5.86303 -5.13681 0
M  V30 17474 N 1643.65 0.339955 -1.5389 0
M  V30 17475 C 1644.58 1.44096 -1.76951 0
M  V30 17476 C 1645.56 1.50367 -0.618758 0
M  V30 17477 O 1646.74 1.68028 -0.854329 0
M  V30 17478 C 1643.87 2.82307 -1.87137 0
M  V30 17479 C 1642.92 2.93645 -3.09314 0
M  V30 17480 S 1643.75 2.59742 -4.68288 0
M  V30 17481 C 1644.9 4.00055 -4.81359 0
M  V30 17482 H 1645.14 1.24318 -2.7006 0
M  V30 17483 H 1642.67 0.535835 -1.44804 0
M  V30 17484 H 1644.63 3.61931 -1.93692 0
M  V30 17485 H 1643.29 2.99378 -0.950349 0
M  V30 17486 H 1642.48 3.94927 -3.13127 0
M  V30 17487 H 1642.08 2.21974 -3.01004 0
M  V30 17488 H 1644.38 4.94619 -4.62989 0
M  V30 17489 H 1645.32 4.01234 -5.83452 0
M  V30 17490 H 1645.73 3.88248 -4.09785 0
M  V30 17491 N 1645.13 1.45684 0.601159 0
M  V30 17492 C 1646.04 1.57396 1.73965 0
M  V30 17493 C 1647.05 0.458133 1.6786 0
M  V30 17494 O 1648.23 0.719717 1.88101 0
M  V30 17495 C 1645.29 1.54363 3.1044 0
M  V30 17496 C 1644.35 2.77034 3.27949 0
M  V30 17497 C 1643.59 2.74136 4.57914 0
M  V30 17498 O 1643.81 1.81829 5.40643 0
M  V30 17499 O 1642.74 3.65428 4.78274 0
M  V30 17500 H 1646.57 2.5364 1.67034 0
M  V30 17501 H 1644.15 1.28267 0.766017 0
M  V30 17502 H 1646.04 1.55302 3.91739 0
M  V30 17503 H 1644.71 0.612723 3.17848 0
M  V30 17504 H 1643.62 2.81655 2.46214 0
M  V30 17505 H 1644.95 3.69272 3.25422 0
M  V30 17506 N 1646.6 -0.84422 1.33082 0
M  V30 17507 C 1647.83 -1.63133 1.27261 0
M  V30 17508 C 1648.25 -1.88142 -0.157479 0
M  V30 17509 O 1647.6 -1.4578 -1.09793 0
M  V30 17510 C 1647.65 -2.98462 2.03967 0
M  V30 17511 O 1647.38 -2.74555 3.41396 0
M  V30 17512 C 1648.88 -3.92899 2.05293 0
M  V30 17513 H 1646.1 -0.507769 0.438647 0
M  V30 17514 H 1648.64 -1.05194 1.75369 0
M  V30 17515 H 1646.8 -3.53017 1.59554 0
M  V30 17516 H 1647.21 -3.60694 3.80789 0
M  V30 17517 H 1648.68 -4.85088 2.63427 0
M  V30 17518 H 1649.16 -4.26665 1.04183 0
M  V30 17519 H 1649.77 -3.44281 2.49701 0
M  V30 17520 N 1648.08 -1.16463 -1.0618 0
M  V30 17521 C 1649.31 -0.971075 -1.82696 0
M  V30 17522 C 1649.72 0.480716 -1.82578 0
M  V30 17523 O 1649.08 1.33366 -1.24579 0
M  V30 17524 C 1649.13 -1.49235 -3.29259 0
M  V30 17525 O 1648.85 -2.88728 -3.29496 0
M  V30 17526 C 1650.35 -1.34197 -4.225 0
M  V30 17527 H 1647.57 -0.34415 -0.576023 0
M  V30 17528 H 1650.12 -1.54517 -1.33958 0
M  V30 17529 H 1648.27 -0.960503 -3.75304 0
M  V30 17530 H 1648.69 -3.12618 -4.21153 0
M  V30 17531 H 1650.16 -1.75499 -5.23358 0
M  V30 17532 H 1650.64 -0.287685 -4.38257 0
M  V30 17533 H 1651.24 -1.86349 -3.82301 0
M  V30 17534 N 1649.56 1.24734 -0.963288 0
M  V30 17535 C 1650.81 1.91987 -0.618386 0
M  V30 17536 C 1651.12 1.76179 0.849726 0
M  V30 17537 O 1652.33 2.38082 1.30496 0
M  V30 17538 C 1650.78 3.44079 -1.05534 0
M  V30 17539 C 1650.39 3.68582 -2.5466 0
M  V30 17540 C 1652.14 4.17209 -0.783378 0
M  V30 17541 C 1650.04 5.14223 -2.92111 0
M  V30 17542 H 1648.97 0.718836 -0.227575 0
M  V30 17543 H 1651.62 1.41453 -1.1689 0
M  V30 17544 H 1650.01 3.93624 -0.433168 0
M  V30 17545 H 1651.18 3.29655 -3.2197 0
M  V30 17546 H 1649.49 3.08729 -2.79419 0
M  V30 17547 H 1652.09 5.24503 -1.03924 0
M  V30 17548 H 1652.43 4.15355 0.280352 0
M  V30 17549 H 1652.97 3.736 -1.36631 0
M  V30 17550 H 1649.71 5.21195 -3.97537 0
M  V30 17551 H 1649.23 5.54164 -2.29482 0
M  V30 17552 H 1650.91 5.82419 -2.81775 0
M  V30 17553 N 1651.04 0.732878 1.39523 0
M  V30 17554 C 1651.97 0.0519358 2.29141 0
M  V30 17555 C 1652.98 -0.705687 1.4671 0
M  V30 17556 O 1654.17 -0.550202 1.69809 0
M  V30 17557 C 1651.27 -0.950691 3.25292 0
M  V30 17558 C 1650.44 -0.255028 4.36656 0
M  V30 17559 C 1649.5 -1.16546 5.13131 0
M  V30 17560 O 1648.53 -0.643742 5.65548 0
M  V30 17561 N 1649.73 -2.49534 5.24131 0
M  V30 17562 H 1652.5 0.8215 2.88221 0
M  V30 17563 H 1650.06 0.581924 1.5108 0
M  V30 17564 H 1652.05 -1.56232 3.73328 0
M  V30 17565 H 1650.62 -1.62148 2.67258 0
M  V30 17566 H 1649.84 0.537045 3.90525 0
M  V30 17567 H 1651.13 0.227162 5.08293 0
M  V30 17568 H 1650.53 -2.944 4.83058 0
M  V30 17569 H 1649.08 -3.05798 5.75613 0
M  V30 17570 N 1652.52 -1.50101 0.480349 0
M  V30 17571 C 1653.48 -2.27258 -0.297763 0
M  V30 17572 C 1654.48 -1.32415 -0.912296 0
M  V30 17573 O 1655.67 -1.5576 -0.780035 0
M  V30 17574 C 1652.8 -3.09684 -1.42508 0
M  V30 17575 H 1653.99 -2.97495 0.379011 0
M  V30 17576 H 1651.55 -1.54528 0.234681 0
M  V30 17577 H 1652.28 -2.43964 -2.13663 0
M  V30 17578 H 1652.07 -3.79393 -0.990125 0
M  V30 17579 H 1653.56 -3.68013 -1.97374 0
M  V30 17580 N 1653.99 -0.213323 -1.5615 0
M  V30 17581 C 1655.4 0.29602 -1.84338 0
M  V30 17582 C 1655.76 1.60073 -1.13451 0
M  V30 17583 O 1654.88 2.12645 -0.4014 0
M  V30 17584 C 1655.48 0.54387 -3.34406 0
M  V30 17585 C 1654.03 0.997539 -3.62941 0
M  V30 17586 C 1653.18 0.0560823 -2.77243 0
M  V30 17587 H 1656.13 -0.436707 -1.52573 0
M  V30 17588 H 1656.15 1.39093 -3.54166 0
M  V30 17589 H 1655.67 -0.405885 -3.85972 0
M  V30 17590 H 1653.77 1.96094 -3.16825 0
M  V30 17591 H 1653.88 0.877642 -4.70993 0
M  V30 17592 H 1652.24 0.561362 -2.48437 0
M  V30 17593 H 1653.03 -0.888442 -3.31605 0
M  V30 17594 N 1655.47 1.57485 0.0601405 0
M  V30 17595 C 1656.72 1.87816 0.75707 0
M  V30 17596 C 1657.05 0.806616 1.76986 0
M  V30 17597 O 1656.3 -0.196101 1.94715 0
M  V30 17598 C 1656.6 3.24839 1.49045 0
M  V30 17599 C 1656.27 4.46665 0.616559 0
M  V30 17600 C 1654.93 4.79731 0.375769 0
M  V30 17601 C 1657.28 5.21199 0.0113073 0
M  V30 17602 C 1654.61 5.84737 -0.479564 0
M  V30 17603 C 1656.96 6.27111 -0.831546 0
M  V30 17604 C 1655.63 6.58671 -1.0821 0
M  V30 17605 H 1654.9 0.687266 0.277032 0
M  V30 17606 H 1657.54 1.91492 0.0175593 0
M  V30 17607 H 1655.85 3.17007 2.30247 0
M  V30 17608 H 1657.54 3.45545 2.03469 0
M  V30 17609 H 1654.13 4.20792 0.814371 0
M  V30 17610 H 1658.32 4.95957 0.18443 0
M  V30 17611 H 1653.57 6.07581 -0.682308 0
M  V30 17612 H 1657.75 6.84021 -1.30721 0
M  V30 17613 H 1655.38 7.39863 -1.74663 0
M  V30 17614 N 1656.95 -0.331789 1.54068 0
M  V30 17615 C 1658.23 -1.08843 1.6252 0
M  V30 17616 C 1658.61 -2.06164 0.453847 0
M  V30 17617 O 1657.96 -2.21714 -0.552727 0
M  V30 17618 C 1658.17 -1.79767 2.9914 0
M  V30 17619 C 1659.51 -2.33086 3.54903 0
M  V30 17620 O 1660.54 -1.89846 3.01392 0
M  V30 17621 O 1659.4 -3.12226 4.48528 0
M  V30 17622 H 1656.49 -0.501222 0.657804 0
M  V30 17623 H 1659.04 -0.332339 1.66414 0
M  V30 17624 H 1657.81 -1.08932 3.75832 0
M  V30 17625 H 1657.43 -2.62205 2.98888 0
M  V30 17626 N 1658.43 -1.46001 -0.593424 0
M  V30 17627 C 1659.68 -1.50457 -1.34933 0
M  V30 17628 C 1660 -0.153383 -1.94396 0
M  V30 17629 O 1659.27 0.818894 -1.77963 0
M  V30 17630 H 1657.85 -0.554119 -0.50096 0
M  V30 17631 H 1660.51 -1.82057 -0.695798 0
M  V30 17632 H 1659.61 -2.25131 -2.16154 0
M  V30 17633 N 1659.91 0.83715 -1.33527 0
M  V30 17634 C 1661.15 1.59487 -1.25267 0
M  V30 17635 C 1661.49 1.93357 0.180741 0
M  V30 17636 O 1660.76 1.5884 1.12251 0
M  V30 17637 C 1661.04 2.90376 -2.12964 0
M  V30 17638 C 1660.9 2.63177 -3.64771 0
M  V30 17639 C 1662.22 3.9182 -2.00412 0
M  V30 17640 H 1659.33 0.578684 -0.456392 0
M  V30 17641 H 1661.98 0.965428 -1.63644 0
M  V30 17642 H 1660.13 3.44095 -1.80364 0
M  V30 17643 H 1661.8 2.15878 -4.0767 0
M  V30 17644 H 1660.04 1.96849 -3.86566 0
M  V30 17645 H 1660.71 3.56452 -4.21481 0
M  V30 17646 H 1663.19 3.47413 -2.29005 0
M  V30 17647 H 1662.06 4.81232 -2.64021 0
M  V30 17648 H 1662.33 4.31173 -0.976852 0
M  V30 17649 N 1661.38 1.17024 1.05561 0
M  V30 17650 C 1662.63 0.950769 1.77886 0
M  V30 17651 C 1662.95 -0.522005 1.88506 0
M  V30 17652 O 1664.15 -0.859582 2.57533 0
M  V30 17653 C 1662.61 1.65189 3.19751 0
M  V30 17654 C 1662.22 3.16294 3.17273 0
M  V30 17655 C 1663.96 1.51466 3.96558 0
M  V30 17656 C 1661.87 3.79111 4.53904 0
M  V30 17657 H 1660.8 0.352089 0.666745 0
M  V30 17658 H 1663.45 1.40237 1.18346 0
M  V30 17659 H 1661.83 1.12801 3.79594 0
M  V30 17660 H 1663 3.75585 2.66969 0
M  V30 17661 H 1661.32 3.29986 2.53966 0
M  V30 17662 H 1663.92 1.95772 4.97571 0
M  V30 17663 H 1664.26 0.46467 4.13699 0
M  V30 17664 H 1664.79 2.0105 3.43254 0
M  V30 17665 H 1661.53 4.84091 4.41969 0
M  V30 17666 H 1661.05 3.24606 5.04372 0
M  V30 17667 H 1662.73 3.81099 5.2285 0
M  V30 17668 N 1662.86 -1.24221 0.969889 0
M  V30 17669 C 1663.81 -2.25292 0.501215 0
M  V30 17670 C 1664.78 -1.59764 -0.454382 0
M  V30 17671 O 1665.96 -1.87291 -0.364261 0
M  V30 17672 C 1663.1 -3.44518 -0.200361 0
M  V30 17673 C 1662.22 -4.24636 0.79426 0
M  V30 17674 C 1661.35 -5.31156 0.068568 0
M  V30 17675 C 1660.39 -6.02973 1.05311 0
M  V30 17676 N 1659.53 -7.0119 0.357274 0
M  V30 17677 H 1664.37 -2.64749 1.36792 0
M  V30 17678 H 1661.91 -1.30142 0.685673 0
M  V30 17679 H 1663.86 -4.1251 -0.623833 0
M  V30 17680 H 1662.49 -3.05892 -1.03101 0
M  V30 17681 H 1661.55 -3.56161 1.33616 0
M  V30 17682 H 1662.86 -4.74271 1.54493 0
M  V30 17683 H 1662.01 -6.05294 -0.412792 0
M  V30 17684 H 1660.75 -4.82434 -0.714781 0
M  V30 17685 H 1659.76 -5.27636 1.54532 0
M  V30 17686 H 1660.98 -6.53784 1.83694 0
M  V30 17687 H 1658.93 -6.54736 -0.407059 0
M  V30 17688 H 1658.84 -7.48718 1.04677 0
M  V30 17689 H 1660.11 -7.79433 -0.102045 0
M  V30 17690 N 1664.34 -0.740267 -1.39132 0
M  V30 17691 C 1665.27 -0.064087 -2.2911 0
M  V30 17692 C 1666.29 0.697897 -1.47082 0
M  V30 17693 O 1667.47 0.541189 -1.70098 0
M  V30 17694 C 1664.57 0.933426 -3.25792 0
M  V30 17695 C 1663.75 0.231867 -4.36785 0
M  V30 17696 C 1662.81 1.13823 -5.13742 0
M  V30 17697 O 1661.83 0.613741 -5.65881 0
M  V30 17698 N 1663.03 2.46751 -5.25447 0
M  V30 17699 H 1665.8 -0.836774 -2.87781 0
M  V30 17700 H 1663.36 -0.589928 -1.5077 0
M  V30 17701 H 1665.35 1.5425 -3.74151 0
M  V30 17702 H 1663.92 1.60728 -2.68114 0
M  V30 17703 H 1663.14 -0.557747 -3.90234 0
M  V30 17704 H 1664.43 -0.254115 -5.08165 0
M  V30 17705 H 1663.83 2.91834 -4.84613 0
M  V30 17706 H 1662.39 3.02741 -5.77227 0
M  V30 17707 N 1665.82 1.49844 -0.488302 0
M  V30 17708 C 1667.06 2.02709 0.060788 0
M  V30 17709 C 1667.4 1.36828 1.37811 0
M  V30 17710 O 1666.67 0.499679 1.87972 0
M  V30 17711 C 1666.96 3.59386 0.226637 0
M  V30 17712 C 1666.81 4.35814 -1.11292 0
M  V30 17713 C 1668.13 4.29204 0.973218 0
M  V30 17714 H 1665.25 0.736712 0.0206177 0
M  V30 17715 H 1667.89 1.78995 -0.637245 0
M  V30 17716 H 1666.04 3.79722 0.821182 0
M  V30 17717 H 1667.71 4.27007 -1.74536 0
M  V30 17718 H 1665.95 3.98874 -1.70535 0
M  V30 17719 H 1666.62 5.43758 -0.950319 0
M  V30 17720 H 1669.1 4.13447 0.469106 0
M  V30 17721 H 1667.98 5.38605 1.05809 0
M  V30 17722 H 1668.24 3.93564 2.01394 0
M  V30 17723 N 1667.3 0.221601 1.56034 0
M  V30 17724 C 1668.52 -0.414945 2.02696 0
M  V30 17725 C 1668.94 -1.53344 1.10141 0
M  V30 17726 O 1668.3 -1.82162 0.111026 0
M  V30 17727 C 1668.35 -0.946532 3.48888 0
M  V30 17728 O 1668.07 0.12737 4.37915 0
M  V30 17729 C 1669.57 -1.65631 4.11195 0
M  V30 17730 H 1666.79 -0.101548 0.663271 0
M  V30 17731 H 1669.33 0.338069 2.01686 0
M  V30 17732 H 1667.49 -1.64982 3.50514 0
M  V30 17733 H 1667.9 -0.272211 5.23793 0
M  V30 17734 H 1669.38 -1.98027 5.15257 0
M  V30 17735 H 1669.85 -2.56947 3.56195 0
M  V30 17736 H 1670.46 -0.998231 4.13419 0
M  V30 17737 N 1668.77 -1.57515 -0.0517878 0
M  V30 17738 C 1670.02 -1.88493 -0.748206 0
M  V30 17739 C 1670.35 -0.816494 -1.76202 0
M  V30 17740 O 1669.63 0.171075 -1.93746 0
M  V30 17741 C 1669.91 -3.30131 -1.43825 0
M  V30 17742 C 1669.76 -4.47648 -0.4395 0
M  V30 17743 C 1671.08 -3.70315 -2.37813 0
M  V30 17744 H 1668.2 -0.68555 -0.270537 0
M  V30 17745 H 1670.84 -1.89997 -0.0111457 0
M  V30 17746 H 1668.99 -3.2898 -2.06651 0
M  V30 17747 H 1670.67 -4.60929 0.185088 0
M  V30 17748 H 1668.91 -4.33117 0.243381 0
M  V30 17749 H 1669.58 -5.43582 -0.96035 0
M  V30 17750 H 1672.06 -3.72687 -1.8505 0
M  V30 17751 H 1670.93 -4.70269 -2.83087 0
M  V30 17752 H 1671.19 -3.0133 -3.23501 0
M  V30 17753 N 1670.25 0.323614 -1.54242 0
M  V30 17754 C 1671.2 1.4184 -1.84348 0
M  V30 17755 C 1672.2 1.53553 -0.715384 0
M  V30 17756 O 1673.4 1.5594 -0.899045 0
M  V30 17757 H 1669.78 0.473326 -0.584352 0
M  V30 17758 H 1671.75 1.13672 -2.75901 0
M  V30 17759 C 1670.5 2.78059 -2.08755 0
M  V30 17760 H 1669.82 2.69819 -2.95021 0
M  V30 17761 H 1671.26 3.53731 -2.33774 0
M  V30 17762 C 1669.72 3.25229 -0.879076 0
M  V30 17763 O 1670.25 4.01603 -0.0883125 0
M  V30 17764 N 1668.45 2.82272 -0.690726 0
M  V30 17765 H 1668 2.20283 -1.33542 0
M  V30 17766 H 1667.96 3.14185 0.116344 0
M  V30 17767 N 1671.73 1.46313 0.585673 0
M  V30 17768 C 1672.68 1.57018 1.71604 0
M  V30 17769 C 1673.67 0.438838 1.63617 0
M  V30 17770 O 1674.88 0.615597 1.69146 0
M  V30 17771 H 1671.25 0.493616 0.567316 0
M  V30 17772 H 1673.23 2.52065 1.59706 0
M  V30 17773 C 1671.97 1.57482 3.09992 0
M  V30 17774 H 1671.3 2.43872 3.16806 0
M  V30 17775 H 1672.74 1.69027 3.88852 0
M  V30 17776 C 1671.2 0.302944 3.35535 0
M  V30 17777 O 1671.73 -0.608066 3.97071 0
M  V30 17778 N 1669.93 0.191781 2.89966 0
M  V30 17779 H 1669.48 0.934025 2.4007 0
M  V30 17780 H 1669.44 -0.658341 3.0743 0
M  V30 17781 N 1673.21 -0.830057 1.33969 0
M  V30 17782 C 1674.46 -1.58272 1.25675 0
M  V30 17783 C 1674.78 -1.94213 -0.175071 0
M  V30 17784 O 1674.05 -1.61694 -1.10597 0
M  V30 17785 H 1672.63 -0.586858 0.462176 0
M  V30 17786 H 1675.29 -0.991495 1.67796 0
M  V30 17787 H 1674.39 -2.50874 1.85658 0
M  V30 17788 N 1674.69 -1.17582 -1.04939 0
M  V30 17789 C 1675.96 -0.875638 -1.74906 0
M  V30 17790 C 1676.34 0.62353 -2.01681 0
M  V30 17791 O 1675.69 1.57558 -1.65492 0
M  V30 17792 C 1675.9 -1.71334 -3.04049 0
M  V30 17793 C 1677.25 -1.93489 -3.77951 0
M  V30 17794 O 1678.27 -1.68314 -3.13925 0
M  V30 17795 O 1677.13 -2.35815 -4.93005 0
M  V30 17796 H 1674.23 -0.324451 -0.760697 0
M  V30 17797 H 1676.77 -1.2829 -1.11084 0
M  V30 17798 H 1675.55 -2.73003 -2.80331 0
M  V30 17799 H 1675.17 -1.30401 -3.75608 0
M  V30 17800 N 1676.17 1.23705 -0.976463 0
M  V30 17801 C 1677.39 1.96055 -0.661065 0
M  V30 17802 C 1677.81 1.7233 0.77121 0
M  V30 17803 O 1677.17 1.01234 1.51849 0
M  V30 17804 C 1677.22 3.49144 -0.937071 0
M  V30 17805 O 1676.94 3.72061 -2.31305 0
M  V30 17806 C 1678.44 4.38698 -0.637077 0
M  V30 17807 H 1675.66 0.624319 -0.245901 0
M  V30 17808 H 1678.2 1.57301 -1.30678 0
M  V30 17809 H 1676.36 3.85928 -0.33743 0
M  V30 17810 H 1676.77 4.66383 -2.39973 0
M  V30 17811 H 1678.25 5.44931 -0.88059 0
M  V30 17812 H 1678.72 4.37102 0.428802 0
M  V30 17813 H 1679.33 4.07515 -1.21702 0
M  V30 17814 N 1677.64 0.747635 1.38738 0
M  V30 17815 C 1678.89 0.297962 1.99487 0
M  V30 17816 C 1679.21 -1.1249 1.60016 0
M  V30 17817 O 1680.41 -1.67474 2.13693 0
M  V30 17818 C 1678.87 0.48178 3.56661 0
M  V30 17819 C 1678.48 1.91335 4.05086 0
M  V30 17820 C 1680.22 0.0945202 4.24395 0
M  V30 17821 C 1678.13 2.04604 5.54879 0
M  V30 17822 H 1677.06 0.107655 0.746275 0
M  V30 17823 H 1679.71 0.923325 1.58578 0
M  V30 17824 H 1678.09 -0.212676 3.95428 0
M  V30 17825 H 1679.26 2.64079 3.77623 0
M  V30 17826 H 1677.58 2.25497 3.50057 0
M  V30 17827 H 1680.18 0.172508 5.34422 0
M  V30 17828 H 1680.52 -0.952037 4.05268 0
M  V30 17829 H 1681.05 0.740606 3.90845 0
M  V30 17830 H 1677.79 3.07493 5.78903 0
M  V30 17831 H 1677.31 1.36313 5.84105 0
M  V30 17832 H 1678.99 1.83317 6.20487 0
M  V30 17833 N 1679.12 -1.49583 0.496242 0
M  V30 17834 C 1680.08 -2.27561 -0.273642 0
M  V30 17835 C 1681.08 -1.33375 -0.8982 0
M  V30 17836 O 1682.27 -1.56578 -0.76347 0
M  V30 17837 C 1679.41 -3.11178 -1.39216 0
M  V30 17838 H 1680.6 -2.97077 0.410543 0
M  V30 17839 H 1678.15 -1.54271 0.251058 0
M  V30 17840 H 1678.89 -2.46217 -2.11064 0
M  V30 17841 H 1678.67 -3.80422 -0.949829 0
M  V30 17842 H 1680.16 -3.70085 -1.93459 0
M  V30 17843 N 1680.6 -0.229873 -1.55915 0
M  V30 17844 C 1681.83 0.404189 -2.02914 0
M  V30 17845 C 1682.24 1.52758 -1.10952 0
M  V30 17846 O 1681.6 1.82101 -0.120685 0
M  V30 17847 C 1681.65 0.928016 -3.49385 0
M  V30 17848 O 1681.37 -0.150592 -4.37841 0
M  V30 17849 C 1682.87 1.63448 -4.12067 0
M  V30 17850 H 1680.09 0.0980294 -0.663801 0
M  V30 17851 H 1682.64 -0.34876 -2.01504 0
M  V30 17852 H 1680.79 1.63121 -3.51384 0
M  V30 17853 H 1681.21 0.244429 -5.2393 0
M  V30 17854 H 1682.68 1.95292 -5.16299 0
M  V30 17855 H 1683.16 2.55055 -3.57553 0
M  V30 17856 H 1683.76 0.976292 -4.13943 0
M  V30 17857 N 1682.08 1.5754 0.0434337 0
M  V30 17858 C 1683.33 1.88235 0.735652 0
M  V30 17859 C 1683.65 0.825698 1.76656 0
M  V30 17860 O 1682.92 -0.142424 1.95382 0
M  V30 17861 H 1681.5 0.694661 0.274692 0
M  V30 17862 H 1684.16 1.94896 0.0127911 0
M  V30 17863 H 1683.25 2.86659 1.23421 0
M  V30 17864 N 1683.56 -0.31543 1.54411 0
M  V30 17865 C 1684.83 -1.07113 1.63665 0
M  V30 17866 C 1685.21 -2.05671 0.475688 0
M  V30 17867 O 1684.56 -2.22288 -0.52918 0
M  V30 17868 C 1684.77 -1.76584 3.0103 0
M  V30 17869 C 1686.12 -2.29309 3.57355 0
M  V30 17870 O 1687.14 -1.86638 3.03388 0
M  V30 17871 O 1686 -3.07452 4.51814 0
M  V30 17872 H 1683.1 -0.494217 0.663083 0
M  V30 17873 H 1685.64 -0.31467 1.66757 0
M  V30 17874 H 1684.41 -1.0494 3.76966 0
M  V30 17875 H 1684.04 -2.5902 3.01653 0
M  V30 17876 N 1685.03 -1.46622 -0.577906 0
M  V30 17877 C 1685.96 -1.60413 -1.69676 0
M  V30 17878 C 1686.95 -0.454277 -1.63922 0
M  V30 17879 O 1688.13 -0.68111 -1.81864 0
M  V30 17880 C 1685.26 -1.59866 -3.08318 0
M  V30 17881 C 1684.21 -2.7387 -3.28906 0
M  V30 17882 C 1683.54 -2.58386 -4.68125 0
M  V30 17883 C 1684.84 -4.15652 -3.16276 0
M  V30 17884 H 1686.53 -2.54073 -1.5839 0
M  V30 17885 H 1684.08 -1.22275 -0.760572 0
M  V30 17886 H 1686.03 -1.68108 -3.86417 0
M  V30 17887 H 1684.76 -0.627541 -3.20514 0
M  V30 17888 H 1683.42 -2.65105 -2.53209 0
M  V30 17889 H 1683.06 -1.59347 -4.77093 0
M  V30 17890 H 1682.76 -3.34855 -4.82852 0
M  V30 17891 H 1684.29 -2.68525 -5.48385 0
M  V30 17892 H 1685.7 -4.25503 -3.84214 0
M  V30 17893 H 1684.1 -4.92746 -3.42523 0
M  V30 17894 H 1685.17 -4.35471 -2.13291 0
M  V30 17895 N 1686.51 0.822941 -1.34408 0
M  V30 17896 C 1687.44 1.94878 -1.28627 0
M  V30 17897 C 1688.42 1.6931 -0.163727 0
M  V30 17898 O 1689.61 1.90908 -0.356083 0
M  V30 17899 C 1686.74 3.31333 -1.04094 0
M  V30 17900 C 1685.69 3.71341 -2.12814 0
M  V30 17901 C 1685.02 5.05779 -1.73469 0
M  V30 17902 C 1686.32 3.83439 -3.54643 0
M  V30 17903 H 1688.01 1.99972 -2.22827 0
M  V30 17904 H 1685.56 0.960715 -1.07267 0
M  V30 17905 H 1687.51 4.0968 -0.986947 0
M  V30 17906 H 1686.24 3.26539 -0.0633642 0
M  V30 17907 H 1684.89 2.95269 -2.17282 0
M  V30 17908 H 1684.54 4.97471 -0.743727 0
M  V30 17909 H 1684.24 5.33518 -2.46236 0
M  V30 17910 H 1685.77 5.86583 -1.69566 0
M  V30 17911 H 1687.18 4.52057 -3.52587 0
M  V30 17912 H 1685.58 4.22632 -4.2603 0
M  V30 17913 H 1686.65 2.85439 -3.91986 0
M  V30 17914 N 1687.99 1.18137 1.04314 0
M  V30 17915 C 1689.24 0.969582 1.76867 0
M  V30 17916 C 1689.55 -0.501982 1.89049 0
M  V30 17917 O 1690.76 -0.832218 2.58431 0
M  V30 17918 C 1689.21 1.68571 3.17981 0
M  V30 17919 C 1688.82 3.19641 3.13901 0
M  V30 17920 C 1690.57 1.55664 3.94929 0
M  V30 17921 C 1688.47 3.83904 4.49858 0
M  V30 17922 H 1687.4 0.359141 0.662973 0
M  V30 17923 H 1690.05 1.41484 1.16852 0
M  V30 17924 H 1688.44 1.16821 3.78377 0
M  V30 17925 H 1689.61 3.78395 2.62971 0
M  V30 17926 H 1687.93 3.32661 2.50451 0
M  V30 17927 H 1690.52 2.01039 4.95467 0
M  V30 17928 H 1690.87 0.508522 4.13182 0
M  V30 17929 H 1691.4 2.0468 3.41103 0
M  V30 17930 H 1688.14 4.88751 4.36809 0
M  V30 17931 H 1687.66 3.29937 5.00901 0
M  V30 17932 H 1689.34 3.86623 5.18779 0
M  V30 17933 N 1689.47 -1.23186 0.98301 0
M  V30 17934 C 1690.38 -2.28448 0.533727 0
M  V30 17935 C 1691.39 -1.69034 -0.412732 0
M  V30 17936 O 1692.57 -1.99416 -0.282007 0
M  V30 17937 C 1689.64 -3.46357 -0.154179 0
M  V30 17938 C 1688.7 -4.21121 0.834009 0
M  V30 17939 C 1687.93 -5.334 0.178836 0
M  V30 17940 O 1688.15 -5.61032 -1.02952 0
M  V30 17941 O 1687.09 -5.95451 0.878722 0
M  V30 17942 H 1690.91 -2.69027 1.40919 0
M  V30 17943 H 1688.5 -1.29166 0.75077 0
M  V30 17944 H 1690.38 -4.17926 -0.539947 0
M  V30 17945 H 1689.05 -3.07724 -1.00437 0
M  V30 17946 H 1687.96 -3.51864 1.27053 0
M  V30 17947 H 1689.29 -4.6361 1.65309 0
M  V30 17948 N 1690.95 -0.754982 -1.38339 0
M  V30 17949 C 1692.2 -0.308537 -1.99326 0
M  V30 17950 C 1692.51 1.1164 -1.60611 0
M  V30 17951 O 1693.71 1.66339 -2.14578 0
M  V30 17952 C 1692.17 -0.500688 -3.564 0
M  V30 17953 C 1691.78 -1.9348 -4.04066 0
M  V30 17954 C 1693.52 -0.117026 -4.24339 0
M  V30 17955 C 1691.43 -2.07544 -5.53786 0
M  V30 17956 H 1690.36 -0.111611 -0.745694 0
M  V30 17957 H 1693.01 -0.931722 -1.58086 0
M  V30 17958 H 1691.39 0.191702 -3.95536 0
M  V30 17959 H 1692.57 -2.66077 -3.76217 0
M  V30 17960 H 1690.88 -2.27351 -3.48856 0
M  V30 17961 H 1693.48 -0.200847 -5.34323 0
M  V30 17962 H 1693.82 0.930531 -4.05767 0
M  V30 17963 H 1694.35 -0.761323 -3.90447 0
M  V30 17964 H 1691.09 -3.10559 -5.77264 0
M  V30 17965 H 1690.61 -1.39409 -5.83374 0
M  V30 17966 H 1692.29 -1.86605 -6.19506 0
M  V30 17967 N 1692.42 1.49318 -0.504168 0
M  V30 17968 C 1693.33 2.32958 0.277053 0
M  V30 17969 C 1694.35 1.44838 0.964266 0
M  V30 17970 O 1695.53 1.77856 0.944947 0
M  V30 17971 C 1692.59 3.20352 1.32572 0
M  V30 17972 C 1691.65 4.24326 0.651606 0
M  V30 17973 C 1690.89 5.07544 1.65031 0
M  V30 17974 O 1691.11 4.92326 2.88047 0
M  V30 17975 O 1690.04 5.89737 1.20388 0
M  V30 17976 H 1693.87 3.00952 -0.40763 0
M  V30 17977 H 1691.45 1.47023 -0.265453 0
M  V30 17978 H 1693.34 3.74483 1.93237 0
M  V30 17979 H 1692.01 2.5505 1.99327 0
M  V30 17980 H 1690.92 3.741 0.00513384 0
M  V30 17981 H 1692.25 4.92193 0.0264424 0
M  V30 17982 N 1693.9 0.238138 1.5579 0
M  V30 17983 C 1694.85 -0.665098 2.21009 0
M  V30 17984 C 1695.82 -1.17793 1.17107 0
M  V30 17985 O 1697 -1.234 1.45523 0
M  V30 17986 C 1694.14 -1.86028 2.90667 0
M  V30 17987 C 1693.26 -1.3848 4.09203 0
M  V30 17988 C 1692.39 -2.53885 4.666 0
M  V30 17989 C 1691.43 -2.03155 5.77403 0
M  V30 17990 N 1690.57 -3.11895 6.2902 0
M  V30 17991 H 1695.41 -0.102242 2.97825 0
M  V30 17992 H 1692.95 -0.0387064 1.47049 0
M  V30 17993 H 1694.9 -2.56226 3.29248 0
M  V30 17994 H 1693.53 -2.39575 2.16341 0
M  V30 17995 H 1692.59 -0.577172 3.75996 0
M  V30 17996 H 1693.9 -0.972946 4.89219 0
M  V30 17997 H 1693.05 -3.32139 5.07709 0
M  V30 17998 H 1691.79 -2.98368 3.85782 0
M  V30 17999 H 1690.8 -1.23369 5.3578 0
M  V30 18000 H 1692.02 -1.59653 6.60067 0
M  V30 18001 H 1689.97 -3.55828 5.5111 0
M  V30 18002 H 1689.88 -2.75013 7.04204 0
M  V30 18003 H 1691.15 -3.90234 6.74787 0
M  V30 18004 N 1695.38 -1.57561 -0.0350783 0
M  V30 18005 C 1696.34 -2.05145 -1.02217 0
M  V30 18006 C 1697.34 -0.954524 -1.29404 0
M  V30 18007 O 1698.53 -1.21833 -1.24509 0
M  V30 18008 C 1695.67 -2.4633 -2.35658 0
M  V30 18009 H 1696.86 -2.93605 -0.61126 0
M  V30 18010 H 1694.41 -1.53739 -0.28176 0
M  V30 18011 H 1695.15 -1.61008 -2.81508 0
M  V30 18012 H 1694.93 -3.26408 -2.17256 0
M  V30 18013 H 1696.42 -2.83592 -3.06537 0
M  V30 18014 N 1696.86 0.307236 -1.54576 0
M  V30 18015 C 1698.09 1.06233 -1.77545 0
M  V30 18016 C 1698.5 1.81153 -0.5319 0
M  V30 18017 O 1697.86 1.75573 0.498044 0
M  V30 18018 C 1697.91 2.04775 -2.97908 0
M  V30 18019 O 1697.63 1.32896 -4.17457 0
M  V30 18020 C 1699.13 2.92373 -3.33216 0
M  V30 18021 H 1696.35 0.315318 -0.592297 0
M  V30 18022 H 1698.9 0.348403 -2.0151 0
M  V30 18023 H 1697.05 2.71679 -2.76169 0
M  V30 18024 H 1697.46 1.99022 -4.85274 0
M  V30 18025 H 1698.94 3.5738 -4.20694 0
M  V30 18026 H 1699.42 3.60343 -2.51097 0
M  V30 18027 H 1700.02 2.31009 -3.57093 0
M  V30 18028 N 1698.34 1.46926 0.570122 0
M  V30 18029 C 1699.61 1.43365 1.33063 0
M  V30 18030 C 1699.99 0.123738 2.10737 0
M  V30 18031 O 1699.34 -0.894766 2.10253 0
M  V30 18032 C 1699.55 2.67122 2.24604 0
M  V30 18033 C 1700.9 3.13798 2.86035 0
M  V30 18034 O 1701.92 2.67759 2.34912 0
M  V30 18035 O 1700.78 3.93801 3.78923 0
M  V30 18036 H 1697.88 0.570726 0.598499 0
M  V30 18037 H 1700.42 1.5911 0.590095 0
M  V30 18038 H 1699.19 3.54005 1.66722 0
M  V30 18039 H 1698.82 2.53899 3.05976 0
M  V30 18040 O 1699.85 -0.714588 1.44831 0
M  V30 18041 H 1700.54 -1.36549 1.37383 0
M  V30 END ATOM
M  V30 BEGIN BOND
M  V30 END BOND
M  V30 END CTAB
M  END
$$$$
