drugbank_target|A0A0H2XJ39 Penicillin-binding protein 3 (DB01053)
 OpenBabel12092120573D

  0  0  0     0  0            999 V3000
M  V30 BEGIN CTAB
M  V30 COUNTS 10953 11041 0 0 0
M  V30 BEGIN ATOM
M  V30 1 H -0.908 1.98254 -0.117106 0
M  V30 2 N 0 1.576 0 0
M  V30 3 C 0.933 2.03868 1.02534 0
M  V30 4 C 1.911 0.928543 1.3348 0
M  V30 5 O 3.095 1.19667 1.45644 0
M  V30 6 C 0.222 2.43627 2.35294 0
M  V30 7 C -0.732 3.65373 2.2001 0
M  V30 8 S 0.101 5.13292 1.52614 0
M  V30 9 C 1.257 5.56322 2.86805 0
M  V30 10 H 1.49 2.90518 0.631377 0
M  V30 11 H -0.977 1.52953 0.210867 0
M  V30 12 H 0.981 2.67203 3.11629 0
M  V30 13 H -0.358 1.57376 2.7183 0
M  V30 14 H -1.165 3.90944 3.18086 0
M  V30 15 H -1.563 3.418 1.51819 0
M  V30 16 H 0.729 5.58782 3.83104 0
M  V30 17 H 1.672 6.56266 2.65933 0
M  V30 18 H 2.08 4.83886 2.90714 0
M  V30 19 N 1.4781 -0.272755 1.55222 0
M  V30 20 C 2.4081 -1.34136 1.91127 0
M  V30 21 C 3.3891 -1.51513 0.773168 0
M  V30 22 O 4.5741 -1.64552 1.03132 0
M  V30 23 C 1.7041 -2.70083 2.1834 0
M  V30 24 C 0.6581 -2.67437 3.34158 0
M  V30 25 C -0.0159 -4.06938 3.46851 0
M  V30 26 C 1.2841 -2.26686 4.70543 0
M  V30 27 H 2.9781 -1.04333 2.80633 0
M  V30 28 H 0.5241 -0.500454 1.35024 0
M  V30 29 H 2.4771 -3.44952 2.42046 0
M  V30 30 H 1.2011 -3.01469 1.25634 0
M  V30 31 H -0.1399 -1.95026 3.1042 0
M  V30 32 H -0.4919 -4.35547 2.51611 0
M  V30 33 H -0.7919 -4.06062 4.2472 0
M  V30 34 H 0.7321 -4.83545 3.72849 0
M  V30 35 H 2.1461 -2.91277 4.93792 0
M  V30 36 H 0.5431 -2.36971 5.5133 0
M  V30 37 H 1.6131 -1.21818 4.69349 0
M  V30 38 N 2.9562 -1.48159 -0.537278 0
M  V30 39 C 3.9032 -1.62138 -1.64256 0
M  V30 40 C 4.8732 -0.463668 -1.59497 0
M  V30 41 O 6.0582 -0.686241 -1.78032 0
M  V30 42 C 3.1982 -1.66028 -3.02537 0
M  V30 43 C 2.3112 -2.92855 -3.17585 0
M  V30 44 C 1.4462 -2.87952 -4.46382 0
M  V30 45 C 0.4852 -4.09516 -4.54932 0
M  V30 46 N -0.3778 -4.02733 -5.75109 0
M  V30 47 H 4.4622 -2.56529 -1.51647 0
M  V30 48 H 1.9992 -1.27224 -0.738414 0
M  V30 49 H 3.9572 -1.66265 -3.82638 0
M  V30 50 H 2.5872 -0.751331 -3.13934 0
M  V30 51 H 1.6392 -3.02395 -2.30784 0
M  V30 52 H 2.9512 -3.82822 -3.19764 0
M  V30 53 H 2.1052 -2.8655 -5.34765 0
M  V30 54 H 0.8442 -1.95702 -4.46712 0
M  V30 55 H -0.1508 -4.11201 -3.64957 0
M  V30 56 H 1.0742 -5.02917 -4.56346 0
M  V30 57 H -0.9798 -3.13299 -5.76351 0
M  V30 58 H -1.0628 -4.86397 -5.78752 0
M  V30 59 H 0.2052 -4.05379 -6.65799 0
M  V30 60 N 4.4343 0.785586 -1.36625 0
M  V30 61 C 5.8503 1.08419 -1.17122 0
M  V30 62 C 6.0503 2.015 0.00208491 0
M  V30 63 O 5.1063 2.43551 0.666278 0
M  V30 64 C 6.4193 1.69498 -2.48377 0
M  V30 65 C 7.9673 1.81821 -2.54775 0
M  V30 66 C 8.4423 2.46315 -3.86126 0
M  V30 67 N 9.9333 2.53779 -3.87492 0
M  V30 68 C 10.6683 3.045 -4.85868 0
M  V30 69 N 10.1643 3.55499 -5.94637 0
M  V30 70 N 11.9573 3.03247 -4.73284 0
M  V30 71 H 4.1083 0.167264 -2.1174 0
M  V30 72 H 6.3713 0.13682 -0.938075 0
M  V30 73 H 6.0773 1.08571 -3.34522 0
M  V30 74 H 5.9513 2.6896 -2.64462 0
M  V30 75 H 8.3383 2.41884 -1.69045 0
M  V30 76 H 8.4193 0.811532 -2.42586 0
M  V30 77 H 8.0633 1.86895 -4.72263 0
M  V30 78 H 7.9933 3.47561 -3.95612 0
M  V30 79 H 10.4843 2.17672 -3.08913 0
M  V30 80 H 10.7973 3.92562 -6.65669 0
M  V30 81 H 9.1423 3.5364 -5.98301 0
M  V30 82 H 12.3333 2.62696 -3.87438 0
M  V30 83 H 12.5063 3.42467 -5.50109 0
M  V30 84 N 5.9124 1.20967 1.01018 0
M  V30 85 C 6.8424 0.988272 2.11555 0
M  V30 86 C 7.8234 -0.0849778 1.69888 0
M  V30 87 O 9.0084 0.0738202 1.9406 0
M  V30 88 C 6.1384 0.546528 3.42973 0
M  V30 89 C 5.0924 1.56375 3.9841 0
M  V30 90 C 4.4184 0.97842 5.25672 0
M  V30 91 C 5.7184 2.94922 4.31066 0
M  V30 92 H 7.4124 1.91276 2.30334 0
M  V30 93 H 4.9584 0.921073 1.1069 0
M  V30 94 H 6.9114 0.378839 4.19694 0
M  V30 95 H 5.6354 -0.413598 3.23971 0
M  V30 96 H 4.2944 1.71891 3.23804 0
M  V30 97 H 3.9424 0.0101688 5.02999 0
M  V30 98 H 3.6424 1.65784 5.63728 0
M  V30 99 H 5.1664 0.821939 6.05043 0
M  V30 100 H 6.5804 2.8288 4.9865 0
M  V30 101 H 4.9774 3.5983 4.80253 0
M  V30 102 H 6.0474 3.4616 3.39561 0
M  V30 103 N 7.3905 -1.2043 1.01659 0
M  V30 104 C 8.3375 -2.23215 0.586822 0
M  V30 105 C 9.3075 -1.61382 -0.393085 0
M  V30 106 O 10.4925 -1.88544 -0.292525 0
M  V30 107 C 7.6325 -3.45032 -0.0687464 0
M  V30 108 C 6.7455 -4.21296 0.955724 0
M  V30 109 C 5.8805 -5.30507 0.271208 0
M  V30 110 C 4.9195 -5.98515 1.28244 0
M  V30 111 N 4.0565 -6.99316 0.62459 0
M  V30 112 H 8.8965 -2.59336 1.46796 0
M  V30 113 H 6.4335 -1.27431 0.734836 0
M  V30 114 H 8.3915 -4.1459 -0.465965 0
M  V30 115 H 7.0215 -3.09604 -0.913529 0
M  V30 116 H 6.0735 -3.50803 1.4711 0
M  V30 117 H 7.3855 -4.6803 1.72479 0
M  V30 118 H 6.5395 -6.06428 -0.18151 0
M  V30 119 H 5.2785 -4.8481 -0.530163 0
M  V30 120 H 4.2835 -5.21355 1.74554 0
M  V30 121 H 5.5085 -6.46298 2.08509 0
M  V30 122 H 3.4545 -6.55812 -0.156914 0
M  V30 123 H 3.3715 -7.44178 1.33172 0
M  V30 124 H 4.6395 -7.79255 0.195462 0
M  V30 125 N 8.8686 -0.792821 -1.36206 0
M  V30 126 C 9.7786 -0.194808 -2.3379 0
M  V30 127 C 10.7946 0.654869 -1.61206 0
M  V30 128 O 11.9706 0.569856 -1.9317 0
M  V30 129 C 9.0356 0.657721 -3.40404 0
M  V30 130 C 8.0966 -0.210849 -4.28782 0
M  V30 131 C 7.3296 0.601086 -5.30304 0
M  V30 132 O 7.5526 1.83682 -5.40016 0
M  V30 133 O 6.4866 -0.000808277 -6.019 0
M  V30 134 H 10.3126 -1.00172 -2.86704 0
M  V30 135 H 7.8976 -0.554341 -1.38735 0
M  V30 136 H 9.7796 1.14375 -4.05581 0
M  V30 137 H 8.4546 1.44247 -2.89784 0
M  V30 138 H 7.3616 -0.743714 -3.66633 0
M  V30 139 H 8.6946 -0.959195 -4.82763 0
M  V30 140 N 10.3467 1.47872 -0.545128 0
M  V30 141 C 11.2937 2.29849 0.2093 0
M  V30 142 C 12.2637 1.38313 0.919707 0
M  V30 143 O 13.4487 1.67277 0.917772 0
M  V30 144 C 10.5887 3.22019 1.24088 0
M  V30 145 C 9.7017 4.2864 0.537778 0
M  V30 146 C 8.8367 5.07973 1.5536 0
M  V30 147 C 7.8757 6.06381 0.8348 0
M  V30 148 N 7.0127 6.78717 1.79688 0
M  V30 149 H 11.8527 2.93845 -0.49591 0
M  V30 150 H 9.3897 1.44848 -0.256389 0
M  V30 151 H 11.3477 3.73868 1.85144 0
M  V30 152 H 9.9777 2.59914 1.91428 0
M  V30 153 H 9.0297 3.7994 -0.187046 0
M  V30 154 H 10.3417 4.98793 -0.0258907 0
M  V30 155 H 9.4957 5.63912 2.23803 0
M  V30 156 H 8.2347 4.37693 2.15118 0
M  V30 157 H 7.2397 5.49631 0.136388 0
M  V30 158 H 8.4647 6.78665 0.24313 0
M  V30 159 H 6.4107 6.11177 2.38326 0
M  V30 160 H 6.3277 7.44998 1.28505 0
M  V30 161 H 7.5957 7.39237 2.47282 0
M  V30 162 N 11.8248 0.280983 1.55075 0
M  V30 163 C 13.0498 -0.340154 2.04592 0
M  V30 164 C 13.4748 -1.48246 1.15779 0
M  V30 165 O 12.8328 -1.80614 0.15761 0
M  V30 166 C 12.8808 -0.793104 3.5177 0
M  V30 167 O 11.9848 -1.89981 3.66034 0
M  V30 168 H 11.3258 -0.0694289 0.66036 0
M  V30 169 H 13.8558 0.416993 2.00306 0
M  V30 170 H 13.8658 -1.08729 3.93245 0
M  V30 171 H 12.5408 0.0426163 4.15878 0
M  V30 172 H 11.1178 -1.60771 3.36463 0
M  V30 173 N 13.3029 -1.57598 0.00835791 0
M  V30 174 C 14.2509 -2.10078 -0.998508 0
M  V30 175 C 15.2449 -1.02262 -1.35051 0
M  V30 176 O 16.4509 -1.20719 -1.33518 0
M  V30 177 H 12.8259 -0.670903 -0.339696 0
M  V30 178 H 14.7969 -2.93648 -0.530398 0
M  V30 179 C 13.5459 -2.62615 -2.27879 0
M  V30 180 H 12.8689 -3.45213 -2.01662 0
M  V30 181 H 14.3089 -3.03004 -2.96588 0
M  V30 182 C 12.7679 -1.54407 -2.99433 0
M  V30 183 O 13.2979 -0.931812 -3.90743 0
M  V30 184 N 11.5039 -1.2695 -2.61404 0
M  V30 185 H 11.0509 -1.76924 -1.87232 0
M  V30 186 H 11.0089 -0.547704 -3.09593 0
M  V30 187 N 14.781 0.264519 -1.55364 0
M  V30 188 C 16.058 1.01677 -1.67096 0
M  V30 189 C 16.438 2.03996 -0.543015 0
M  V30 190 O 15.786 2.23907 0.45585 0
M  V30 191 C 15.996 1.66596 -3.0667 0
M  V30 192 C 17.344 2.17442 -3.64697 0
M  V30 193 O 18.368 1.76568 -3.09358 0
M  V30 194 O 17.227 2.92439 -4.61673 0
M  V30 195 H 14.321 0.472161 -0.678965 0
M  V30 196 H 16.867 0.259703 -1.67701 0
M  V30 197 H 15.639 0.924962 -3.80211 0
M  V30 198 H 15.262 2.48968 -3.10001 0
M  V30 199 N 16.2591 1.48442 0.529413 0
M  V30 200 C 17.1691 1.6569 1.66084 0
M  V30 201 C 18.1851 0.539432 1.65427 0
M  V30 202 O 19.3611 0.810572 1.84368 0
M  V30 203 C 16.4261 1.69315 3.02545 0
M  V30 204 C 15.4871 2.92694 3.14052 0
M  V30 205 C 14.7201 2.96137 4.44003 0
M  V30 206 O 14.9431 2.07973 5.31134 0
M  V30 207 O 13.8771 3.88312 4.59888 0
M  V30 208 H 17.7031 2.61483 1.54469 0
M  V30 209 H 15.2881 1.3185 0.702567 0
M  V30 210 H 17.1701 1.74217 3.83701 0
M  V30 211 H 15.8451 0.766966 3.14483 0
M  V30 212 H 14.7521 2.93324 2.32189 0
M  V30 213 H 16.0851 3.84699 3.0703 0
M  V30 214 N 17.7372 -0.778329 1.37039 0
M  V30 215 C 18.9862 -1.53189 1.3121 0
M  V30 216 C 19.2992 -1.95328 -0.103095 0
M  V30 217 O 20.5052 -2.70012 -0.283826 0
M  V30 218 C 18.9612 -2.76591 2.30272 0
M  V30 219 C 18.5692 -2.41577 3.77286 0
M  V30 220 C 20.3132 -3.5455 2.33441 0
M  V30 221 C 18.2202 -3.61441 4.68096 0
M  V30 222 H 17.1502 -0.5751 0.487622 0
M  V30 223 H 19.8012 -0.853101 1.62464 0
M  V30 224 H 18.1832 -3.46326 1.92027 0
M  V30 225 H 19.3572 -1.79668 4.2433 0
M  V30 226 H 17.6722 -1.76806 3.76999 0
M  V30 227 H 20.2692 -4.43628 2.98493 0
M  V30 228 H 20.6122 -3.93936 1.34611 0
M  V30 229 H 21.1452 -2.91805 2.7036 0
M  V30 230 H 17.8842 -3.27142 5.6803 0
M  V30 231 H 17.4042 -4.22478 4.25761 0
M  V30 232 H 19.0832 -4.28335 4.8491 0
M  V30 233 N 19.2153 -1.21501 -1.00376 0
M  V30 234 C 20.4613 -1.03452 -1.74429 0
M  V30 235 C 20.7943 0.430764 -1.89362 0
M  V30 236 O 20.0693 1.31962 -1.42886 0
M  V30 237 C 20.3523 -1.73375 -3.15615 0
M  V30 238 C 20.2053 -3.27431 -3.08397 0
M  V30 239 C 21.5243 -1.47732 -4.14564 0
M  V30 240 H 18.6433 -0.377226 -0.633143 0
M  V30 241 H 21.2853 -1.49693 -1.17013 0
M  V30 242 H 19.4353 -1.34064 -3.64636 0
M  V30 243 H 21.1073 -3.76119 -2.67081 0
M  V30 244 H 19.3503 -3.5767 -2.45468 0
M  V30 245 H 20.0213 -3.71524 -4.08258 0
M  V30 246 H 22.4973 -1.8186 -3.74254 0
M  V30 247 H 21.3733 -1.99169 -5.11491 0
M  V30 248 H 21.6343 -0.407589 -4.40217 0
M  V30 249 N 20.6934 1.19889 -1.02296 0
M  V30 250 C 21.6254 2.22334 -0.556787 0
M  V30 251 C 22.6384 1.58674 0.364199 0
M  V30 252 O 23.8274 1.77768 0.161533 0
M  V30 253 C 20.9274 3.38257 0.208694 0
M  V30 254 C 20.1004 4.31504 -0.71577 0
M  V30 255 C 19.1594 5.262 0.00325597 0
M  V30 256 O 18.1854 5.65798 -0.621357 0
M  V30 257 N 19.3874 5.66303 1.27599 0
M  V30 258 H 22.1524 2.62957 -1.43784 0
M  V30 259 H 19.7134 1.34495 -0.901261 0
M  V30 260 H 21.7054 3.98616 0.699111 0
M  V30 261 H 20.2754 2.96472 0.991102 0
M  V30 262 H 19.4954 3.69016 -1.38638 0
M  V30 263 H 20.7834 4.9072 -1.34428 0
M  V30 264 H 20.1814 5.36155 1.80429 0
M  V30 265 H 18.7384 6.28942 1.71102 0
M  V30 266 N 22.1715 0.800033 1.35784 0
M  V30 267 C 23.1195 0.193851 2.31791 0
M  V30 268 C 24.1135 -0.652744 1.56319 0
M  V30 269 O 25.3195 -0.546641 1.71499 0
M  V30 270 H 21.6945 0.04392 0.750716 0
M  V30 271 H 23.6655 1.01883 2.80468 0
M  V30 272 C 22.4145 -0.648338 3.41602 0
M  V30 273 H 21.7375 -0.00624665 3.998 0
M  V30 274 H 23.1775 -1.03898 4.11073 0
M  V30 275 C 21.6365 -1.8111 2.84079 0
M  V30 276 O 22.1665 -2.90825 2.77099 0
M  V30 277 N 20.3725 -1.62056 2.41218 0
M  V30 278 H 19.9195 -0.728123 2.47095 0
M  V30 279 H 19.8775 -2.40013 2.03079 0
M  V30 280 N 23.6496 -1.47581 0.552962 0
M  V30 281 C 24.8776 -2.06875 0.0320556 0
M  V30 282 C 25.2926 -1.40625 -1.25976 0
M  V30 283 O 24.6496 -0.501349 -1.75479 0
M  V30 284 C 24.7006 -3.61092 -0.17167 0
M  V30 285 O 24.4216 -4.24858 1.06899 0
M  V30 286 C 25.9226 -4.37242 -0.730344 0
M  V30 287 H 23.1426 -0.669561 0.043915 0
M  V30 288 H 25.6866 -1.89646 0.765163 0
M  V30 289 H 23.8416 -3.7785 -0.854894 0
M  V30 290 H 24.2556 -5.17334 0.864059 0
M  V30 291 H 25.7296 -5.45842 -0.822203 0
M  V30 292 H 26.2066 -4.03235 -1.74064 0
M  V30 293 H 26.8126 -4.25219 -0.0829543 0
M  V30 294 N 25.1277 -0.289203 -1.54924 0
M  V30 295 C 26.3767 0.324231 -1.99077 0
M  V30 296 C 26.6897 1.5591 -1.18117 0
M  V30 297 O 27.8957 2.24637 -1.52481 0
M  V30 298 C 26.3517 0.628209 -3.54375 0
M  V30 299 C 25.9597 -0.587647 -4.44129 0
M  V30 300 C 27.7037 1.20349 -4.07083 0
M  V30 301 C 25.6107 -0.257475 -5.90839 0
M  V30 302 H 24.5407 0.124924 -0.743579 0
M  V30 303 H 27.1917 -0.396063 -1.79175 0
M  V30 304 H 25.5737 1.40778 -3.70132 0
M  V30 305 H 26.7477 -1.36418 -4.40144 0
M  V30 306 H 25.0627 -1.08074 -4.0213 0
M  V30 307 H 27.6597 1.46456 -5.14252 0
M  V30 308 H 28.0027 2.14195 -3.56968 0
M  V30 309 H 28.5357 0.485889 -3.94821 0
M  V30 310 H 25.2747 -1.16419 -6.45079 0
M  V30 311 H 24.7947 0.482018 -5.9786 0
M  V30 312 H 26.4737 0.145238 -6.46837 0
M  V30 313 N 26.6058 1.57591 -0.0167156 0
M  V30 314 C 27.5538 2.10604 0.987353 0
M  V30 315 C 28.5478 1.02977 1.34507 0
M  V30 316 O 29.7538 1.21425 1.32875 0
M  V30 317 H 26.1288 0.672695 0.336134 0
M  V30 318 H 28.0998 2.93925 0.514817 0
M  V30 319 C 26.8488 2.6382 2.26483 0
M  V30 320 H 26.1718 3.46278 1.99829 0
M  V30 321 H 27.6118 3.04573 2.94977 0
M  V30 322 C 26.0708 1.55992 2.9861 0
M  V30 323 O 26.6008 0.952521 3.90243 0
M  V30 324 N 24.8068 1.28335 2.60727 0
M  V30 325 H 24.3538 1.77914 1.86291 0
M  V30 326 H 24.3118 0.564115 3.09298 0
M  V30 327 N 28.0839 -0.256276 1.55502 0
M  V30 328 C 29.0309 -1.31714 1.89526 0
M  V30 329 C 30.0009 -1.4828 0.748479 0
M  V30 330 O 31.1859 -1.62416 1.00128 0
M  V30 331 C 28.3259 -2.66933 2.18725 0
M  V30 332 C 27.4389 -2.58452 3.4616 0
M  V30 333 C 26.5739 -3.85961 3.64976 0
M  V30 334 C 25.6129 -3.72059 4.86044 0
M  V30 335 N 24.7499 -4.9144 5.01429 0
M  V30 336 H 29.5899 -1.01998 2.80001 0
M  V30 337 H 27.1269 -0.492413 1.38613 0
M  V30 338 H 29.0849 -3.4563 2.33657 0
M  V30 339 H 27.7149 -2.94816 1.31466 0
M  V30 340 H 26.7669 -1.71374 3.3961 0
M  V30 341 H 28.0789 -2.44085 4.34999 0
M  V30 342 H 27.2329 -4.73101 3.79816 0
M  V30 343 H 25.9719 -4.03215 2.74353 0
M  V30 344 H 24.9769 -2.83302 4.7119 0
M  V30 345 H 26.2019 -3.56309 5.78118 0
M  V30 346 H 24.1479 -5.09072 4.13741 0
M  V30 347 H 24.0649 -4.79668 5.84341 0
M  V30 348 H 25.3329 -5.80104 5.20672 0
M  V30 349 N 29.562 -1.4872 -0.521534 0
M  V30 350 C 30.978 -1.35028 -0.850855 0
M  V30 351 C 31.178 -0.367712 -1.98116 0
M  V30 352 O 30.234 0.208037 -2.51642 0
M  V30 353 C 31.547 -2.75263 -1.21041 0
M  V30 354 C 33.095 -2.83813 -1.31981 0
M  V30 355 C 33.57 -4.24769 -1.71276 0
M  V30 356 N 35.061 -4.27482 -1.78363 0
M  V30 357 C 35.796 -5.33494 -2.1017 0
M  V30 358 N 35.292 -6.49775 -2.40343 0
M  V30 359 N 37.085 -5.20894 -2.11248 0
M  V30 360 H 29.236 -2.11214 0.22413 0
M  V30 361 H 31.499 -0.947252 0.0376439 0
M  V30 362 H 31.205 -3.48765 -0.453415 0
M  V30 363 H 31.079 -3.09327 -2.15863 0
M  V30 364 H 33.466 -2.10561 -2.06756 0
M  V30 365 H 33.547 -2.53358 -0.352596 0
M  V30 366 H 33.191 -4.9854 -0.970588 0
M  V30 367 H 33.121 -4.52673 -2.69062 0
M  V30 368 H 35.612 -3.43611 -1.57288 0
M  V30 369 H 35.925 -7.26402 -2.63743 0
M  V30 370 H 34.27 -6.53035 -2.37844 0
M  V30 371 H 37.461 -4.29065 -1.87139 0
M  V30 372 H 37.634 -6.03612 -2.35704 0
M  V30 373 N 31.0401 0.771051 -1.3745 0
M  V30 374 C 32.2891 1.52491 -1.3202 0
M  V30 375 C 32.6021 1.9538 0.0927347 0
M  V30 376 O 33.8081 2.70159 0.269503 0
M  V30 377 C 32.2641 2.75366 -2.31736 0
M  V30 378 C 31.8721 2.39573 -3.78562 0
M  V30 379 C 33.6161 3.53307 -2.35318 0
M  V30 380 C 31.5231 3.58954 -4.70007 0
M  V30 381 H 30.4531 0.572506 -0.490666 0
M  V30 382 H 33.1041 0.844474 -1.62914 0
M  V30 383 H 31.4861 3.45303 -1.93861 0
M  V30 384 H 32.6601 1.77415 -4.25277 0
M  V30 385 H 30.9751 1.74805 -3.77932 0
M  V30 386 H 33.5721 4.42039 -3.00842 0
M  V30 387 H 33.9151 3.93217 -1.36698 0
M  V30 388 H 34.4481 2.90367 -2.71904 0
M  V30 389 H 31.1871 3.24125 -5.69757 0
M  V30 390 H 30.7071 4.20214 -4.27996 0
M  V30 391 H 32.3861 4.25758 -4.87175 0
M  V30 392 N 32.5182 1.22032 0.997298 0
M  V30 393 C 33.4662 0.983634 2.10778 0
M  V30 394 C 34.4602 -0.0717564 1.69248 0
M  V30 395 O 35.6662 0.080304 1.79821 0
M  V30 396 H 32.0412 0.300877 0.689186 0
M  V30 397 H 34.0122 1.92606 2.27916 0
M  V30 398 C 32.7612 0.57326 3.42942 0
M  V30 399 H 32.0842 1.37702 3.75338 0
M  V30 400 H 33.5242 0.447031 4.21637 0
M  V30 401 C 31.9832 -0.7167 3.29188 0
M  V30 402 O 32.5132 -1.77027 3.60589 0
M  V30 403 N 30.7192 -0.686167 2.82383 0
M  V30 404 H 30.2662 0.171507 2.57028 0
M  V30 405 H 30.2242 -1.54955 2.73562 0
M  V30 406 N 33.9963 -1.19345 1.0293 0
M  V30 407 C 35.2433 -1.89038 0.726008 0
M  V30 408 C 35.5713 -1.79649 -0.745427 0
M  V30 409 O 34.8263 -1.18354 -1.55855 0
M  V30 410 C 35.1253 -3.39292 1.12319 0
M  V30 411 C 34.7913 -3.68885 2.59297 0
M  V30 412 C 33.4533 -3.76671 2.99453 0
M  V30 413 C 35.8053 -3.82178 3.54386 0
M  V30 414 C 33.1333 -3.9522 4.33611 0
M  V30 415 C 35.4853 -4.0224 4.88248 0
M  V30 416 C 34.1493 -4.08259 5.28092 0
M  V30 417 H 33.4193 -0.691739 0.265665 0
M  V30 418 H 36.0663 -1.41328 1.29223 0
M  V30 419 H 34.3713 -3.88903 0.475584 0
M  V30 420 H 36.0683 -3.91536 0.866037 0
M  V30 421 H 32.6583 -3.63433 2.27189 0
M  V30 422 H 36.8423 -3.75505 3.24514 0
M  V30 423 H 32.0983 -3.98119 4.64016 0
M  V30 424 H 36.2723 -4.11468 5.61843 0
M  V30 425 H 33.8993 -4.22384 6.32057 0
M  V30 426 N 35.4744 -0.807222 -1.35358 0
M  V30 427 C 36.7234 -0.384376 -1.98004 0
M  V30 428 C 37.0364 1.0543 -1.64754 0
M  V30 429 O 38.2424 1.58029 -2.20769 0
M  V30 430 C 36.6984 -0.636326 -3.5423 0
M  V30 431 C 36.3064 -2.08759 -3.96388 0
M  V30 432 C 38.0504 -0.278869 -4.23583 0
M  V30 433 C 35.9574 -2.28525 -5.45463 0
M  V30 434 H 34.8874 -0.139986 -0.740891 0
M  V30 435 H 37.5384 -0.991369 -1.54415 0
M  V30 436 H 35.9204 0.0406256 -3.95979 0
M  V30 437 H 37.0944 -2.8024 -3.6579 0
M  V30 438 H 35.4094 -2.40497 -3.39926 0
M  V30 439 H 38.0064 -0.404599 -5.33167 0
M  V30 440 H 38.3494 0.775012 -4.09022 0
M  V30 441 H 38.8824 -0.909764 -3.87257 0
M  V30 442 H 35.6214 -3.32361 -5.64992 0
M  V30 443 H 35.1414 -1.61569 -5.77629 0
M  V30 444 H 36.8204 -2.10109 -6.11934 0
M  V30 445 N 36.9525 1.47285 -0.560781 0
M  V30 446 C 38.1995 2.02464 -0.038062 0
M  V30 447 C 38.5275 1.43474 1.31322 0
M  V30 448 O 37.7825 0.581311 1.86867 0
M  V30 449 C 38.0815 3.57258 0.100784 0
M  V30 450 C 37.7475 4.35184 -1.18007 0
M  V30 451 C 36.4095 4.56194 -1.53103 0
M  V30 452 C 38.7615 4.80098 -2.02867 0
M  V30 453 C 36.0895 5.19367 -2.729 0
M  V30 454 C 38.4415 5.44593 -3.21871 0
M  V30 455 C 37.1055 5.63835 -3.57276 0
M  V30 456 H 36.3755 0.740869 -0.0139279 0
M  V30 457 H 39.0225 1.76916 -0.733012 0
M  V30 458 H 37.3275 3.81819 0.878724 0
M  V30 459 H 39.0245 3.97606 0.520639 0
M  V30 460 H 35.6145 4.19113 -0.8968 0
M  V30 461 H 39.7985 4.63642 -1.7706 0
M  V30 462 H 35.0545 5.32459 -3.00496 0
M  V30 463 H 39.2285 5.78358 -3.87911 0
M  V30 464 H 36.8555 6.12557 -4.50197 0
M  V30 465 N 38.4306 0.297415 1.54768 0
M  V30 466 C 39.6786 -0.312295 1.99673 0
M  V30 467 C 39.9996 -1.54686 1.18732 0
M  V30 468 O 39.2696 -1.93854 0.282382 0
M  V30 469 H 37.8496 -0.118381 0.73756 0
M  V30 470 H 40.5116 0.407915 1.90583 0
M  V30 471 H 39.6076 -0.586813 3.06534 0
M  V30 472 N 39.9087 -1.5758 0.0250728 0
M  V30 473 C 41.1547 -1.91917 -0.655413 0
M  V30 474 C 41.4877 -0.901433 -1.72011 0
M  V30 475 O 40.7627 0.0764069 -1.9435 0
M  V30 476 C 41.0457 -3.36751 -1.27558 0
M  V30 477 C 40.8987 -4.49258 -0.220719 0
M  V30 478 C 42.2177 -3.81469 -2.19475 0
M  V30 479 H 39.3367 -0.697925 -0.23679 0
M  V30 480 H 41.9787 -1.89825 0.0815036 0
M  V30 481 H 40.1287 -3.38664 -1.90365 0
M  V30 482 H 41.8007 -4.59478 0.409601 0
M  V30 483 H 40.0437 -4.31415 0.454264 0
M  V30 484 H 40.7147 -5.47618 -0.694175 0
M  V30 485 H 43.1907 -3.81266 -1.66659 0
M  V30 486 H 42.0667 -4.83512 -2.59822 0
M  V30 487 H 42.3277 -3.16744 -3.08424 0
M  V30 488 N 41.3868 0.248026 -1.55636 0
M  V30 489 C 42.6358 0.974134 -1.76617 0
M  V30 490 C 42.9488 1.86528 -0.588796 0
M  V30 491 O 44.1548 2.62805 -0.681594 0
M  V30 492 C 42.6108 1.78213 -3.12679 0
M  V30 493 C 42.2188 0.93843 -4.38061 0
M  V30 494 C 43.9628 2.50104 -3.42999 0
M  V30 495 C 41.8698 1.74225 -5.65155 0
M  V30 496 H 40.7998 0.36745 -0.658405 0
M  V30 497 H 43.4508 0.22884 -1.82067 0
M  V30 498 H 41.8328 2.56933 -3.01333 0
M  V30 499 H 43.0068 0.193635 -4.60393 0
M  V30 500 H 41.3218 0.332905 -4.15067 0
M  V30 501 H 43.9188 3.10694 -4.3517 0
M  V30 502 H 44.2618 3.21662 -2.64271 0
M  V30 503 H 44.7948 1.78395 -3.55556 0
M  V30 504 H 41.5338 1.07043 -6.46701 0
M  V30 505 H 41.0538 2.46235 -5.46926 0
M  V30 506 H 42.7328 2.30967 -6.0437 0
M  V30 507 N 42.8649 1.48995 0.513639 0
M  V30 508 C 44.1139 1.57093 1.2651 0
M  V30 509 C 44.4269 0.257091 1.93903 0
M  V30 510 O 45.6329 0.216478 2.70636 0
M  V30 511 C 44.0889 2.77118 2.29638 0
M  V30 512 C 43.6969 4.15209 1.68241 0
M  V30 513 C 45.4409 2.94538 3.05692 0
M  V30 514 C 43.3479 5.26474 2.69406 0
M  V30 515 H 42.2779 0.584876 0.475854 0
M  V30 516 H 44.9289 1.7536 0.540487 0
M  V30 517 H 43.3109 2.52319 3.05207 0
M  V30 518 H 44.4849 4.50094 0.987505 0
M  V30 519 H 42.7999 4.03042 1.04623 0
M  V30 520 H 45.3969 3.74832 3.8132 0
M  V30 521 H 45.7399 2.04614 3.62545 0
M  V30 522 H 46.2729 3.19316 2.37238 0
M  V30 523 H 43.0119 6.18417 2.17351 0
M  V30 524 H 42.5319 4.96058 3.37175 0
M  V30 525 H 44.2109 5.55277 3.32078 0
M  V30 526 N 44.343 -0.763751 1.37857 0
M  V30 527 C 45.59 -1.52257 1.33506 0
M  V30 528 C 45.918 -1.94343 -0.078022 0
M  V30 529 O 45.173 -1.64958 -1.05297 0
M  V30 530 C 45.472 -2.79499 2.22745 0
M  V30 531 C 45.138 -2.56426 3.70886 0
M  V30 532 C 43.8 -2.49842 4.11257 0
M  V30 533 C 46.152 -2.36008 4.64704 0
M  V30 534 C 43.48 -2.20841 5.43549 0
M  V30 535 C 45.832 -2.0853 5.97242 0
M  V30 536 C 44.496 -2.00396 6.36709 0
M  V30 537 H 43.766 -0.557149 0.488534 0
M  V30 538 H 46.413 -0.879073 1.70131 0
M  V30 539 H 44.718 -3.48447 1.79142 0
M  V30 540 H 46.415 -3.37413 2.16688 0
M  V30 541 H 43.005 -2.62416 3.38874 0
M  V30 542 H 47.189 -2.40079 4.34368 0
M  V30 543 H 42.445 -2.13045 5.73081 0
M  V30 544 H 46.619 -1.91732 6.69486 0
M  V30 545 H 44.246 -1.77688 7.39142 0
M  V30 546 N 45.8211 -1.22559 -0.990812 0
M  V30 547 C 47.0701 -1.04553 -1.72486 0
M  V30 548 C 47.3831 0.419349 -1.91052 0
M  V30 549 O 48.5891 0.719121 -2.61803 0
M  V30 550 C 47.0451 -1.82231 -3.10355 0
M  V30 551 C 46.6531 -3.32981 -2.99713 0
M  V30 552 C 48.3971 -1.7268 -3.87791 0
M  V30 553 C 46.3041 -4.03091 -4.32748 0
M  V30 554 H 45.2341 -0.387614 -0.646739 0
M  V30 555 H 47.8851 -1.46429 -1.10593 0
M  V30 556 H 46.2671 -1.33155 -3.72942 0
M  V30 557 H 47.4411 -3.89466 -2.46278 0
M  V30 558 H 45.7561 -3.43231 -2.35758 0
M  V30 559 H 48.3531 -2.22381 -4.86262 0
M  V30 560 H 48.6961 -0.687607 -4.10582 0
M  V30 561 H 49.2291 -2.1931 -3.31885 0
M  V30 562 H 45.9681 -5.07273 -4.15156 0
M  V30 563 H 45.4881 -3.51394 -4.86089 0
M  V30 564 H 47.1671 -4.08804 -5.01486 0
M  V30 565 N 47.2992 1.18797 -1.03562 0
M  V30 566 C 48.5462 1.8865 -0.736023 0
M  V30 567 C 48.8742 1.80041 0.735889 0
M  V30 568 O 48.1292 1.19179 1.55225 0
M  V30 569 C 48.4282 3.38692 -1.14117 0
M  V30 570 C 48.0942 3.67504 -2.6125 0
M  V30 571 C 46.7562 3.75078 -3.01447 0
M  V30 572 C 49.1082 3.80293 -3.56408 0
M  V30 573 C 46.4362 3.92915 -4.35701 0
M  V30 574 C 48.7882 3.99645 -4.90374 0
M  V30 575 C 47.4522 4.05453 -5.30249 0
M  V30 576 H 46.7222 0.690321 -0.26933 0
M  V30 577 H 49.3692 1.40641 -1.29971 0
M  V30 578 H 47.6742 3.88645 -0.496202 0
M  V30 579 H 49.3712 3.91072 -0.886789 0
M  V30 580 H 45.9612 3.62223 -2.29113 0
M  V30 581 H 50.1452 3.73779 -3.26501 0
M  V30 582 H 45.4012 3.95653 -4.66121 0
M  V30 583 H 49.5752 4.08482 -5.64017 0
M  V30 584 H 47.2022 4.19027 -6.34288 0
M  V30 585 N 48.7773 0.814389 1.34928 0
M  V30 586 C 49.7403 0.235759 2.27984 0
M  V30 587 C 50.7403 -0.581412 1.49921 0
M  V30 588 O 51.9303 -0.398758 1.69575 0
M  V30 589 C 49.0623 -0.670433 3.34242 0
M  V30 590 H 50.2553 1.05659 2.80671 0
M  V30 591 H 47.8083 0.585614 1.44915 0
M  V30 592 H 48.5433 -1.51466 2.86755 0
M  V30 593 H 48.3283 -0.0860822 3.92005 0
M  V30 594 H 49.8183 -1.06935 4.03676 0
M  V30 595 N 50.2554 -1.46986 0.568584 0
M  V30 596 C 51.5014 -2.02741 0.0488709 0
M  V30 597 C 51.8344 -1.44077 -1.30214 0
M  V30 598 O 51.1094 -0.600552 -1.84996 0
M  V30 599 C 51.3924 -3.60086 -0.032047 0
M  V30 600 C 51.2454 -4.29162 1.34686 0
M  V30 601 C 52.5644 -4.33838 -0.739798 0
M  V30 602 H 49.6834 -0.736749 0.0192338 0
M  V30 603 H 52.3254 -1.75289 0.733065 0
M  V30 604 H 50.4754 -3.83606 -0.61473 0
M  V30 605 H 52.1474 -4.16948 1.97362 0
M  V30 606 H 50.3904 -3.89073 1.91846 0
M  V30 607 H 51.0614 -5.37826 1.24285 0
M  V30 608 H 53.5374 -4.15378 -0.244939 0
M  V30 609 H 52.4134 -5.43537 -0.765406 0
M  V30 610 H 52.6744 -4.03875 -1.79827 0
M  V30 611 N 51.7335 -0.305618 -1.54608 0
M  V30 612 C 52.6635 0.561482 -2.26649 0
M  V30 613 C 53.6445 1.13415 -1.26772 0
M  V30 614 O 54.8295 1.16262 -1.55553 0
M  V30 615 C 51.9595 1.73122 -3.01075 0
M  V30 616 C 50.9135 1.2887 -4.08138 0
M  V30 617 C 50.2395 2.54396 -4.70305 0
M  V30 618 C 51.5395 0.416578 -5.20636 0
M  V30 619 H 53.2335 -0.0393902 -2.99374 0
M  V30 620 H 50.7795 -0.020385 -1.43986 0
M  V30 621 H 52.7325 2.34396 -3.50195 0
M  V30 622 H 51.4565 2.3584 -2.25936 0
M  V30 623 H 50.1155 0.698991 -3.59875 0
M  V30 624 H 49.7635 3.15439 -3.918 0
M  V30 625 H 49.4635 2.25486 -5.42614 0
M  V30 626 H 50.9875 3.16464 -5.2219 0
M  V30 627 H 52.4015 0.935116 -5.65622 0
M  V30 628 H 50.7985 0.221046 -5.99693 0
M  V30 629 H 51.8685 -0.557162 -4.81688 0
M  V30 630 N 53.2116 1.57565 -0.0334293 0
M  V30 631 C 54.4576 1.92262 0.645226 0
M  V30 632 C 54.7906 0.910543 1.71531 0
M  V30 633 O 54.0656 -0.066099 1.94388 0
M  V30 634 C 54.3486 3.37422 1.2577 0
M  V30 635 C 54.2016 4.49369 0.196891 0
M  V30 636 C 55.5206 3.82628 2.17449 0
M  V30 637 H 52.6396 0.699171 0.233085 0
M  V30 638 H 55.2816 1.89779 -0.0915694 0
M  V30 639 H 53.4316 3.39669 1.88566 0
M  V30 640 H 55.1036 4.59254 -0.433962 0
M  V30 641 H 53.3466 4.31168 -0.477137 0
M  V30 642 H 54.0176 5.47978 0.665124 0
M  V30 643 H 56.4936 3.82145 1.64634 0
M  V30 644 H 55.3696 4.84883 2.57254 0
M  V30 645 H 55.6306 3.18376 3.0674 0
M  V30 646 N 54.6897 -0.239769 1.55765 0
M  V30 647 C 55.6197 -1.30052 1.9393 0
M  V30 648 C 56.6007 -1.49839 0.805132 0
M  V30 649 O 57.7857 -1.62328 1.06599 0
M  V30 650 C 54.9157 -2.65391 2.2402 0
M  V30 651 C 53.8697 -2.60289 3.39755 0
M  V30 652 C 53.1957 -3.99489 3.55405 0
M  V30 653 C 54.4957 -2.16654 4.75246 0
M  V30 654 H 56.1897 -0.983573 2.82783 0
M  V30 655 H 53.7357 -0.471701 1.36055 0
M  V30 656 H 55.6887 -3.3974 2.49308 0
M  V30 657 H 54.4127 -2.98736 1.32 0
M  V30 658 H 53.0717 -1.88398 3.14487 0
M  V30 659 H 52.7197 -4.30112 2.60793 0
M  V30 660 H 52.4197 -3.96962 4.33238 0
M  V30 661 H 53.9437 -4.75528 3.83022 0
M  V30 662 H 55.3577 -2.80737 4.99859 0
M  V30 663 H 53.7547 -2.25223 5.56232 0
M  V30 664 H 54.8247 -1.11835 4.71827 0
M  V30 665 N 56.1678 -1.49265 -0.50573 0
M  V30 666 C 57.5838 -1.35923 -0.836486 0
M  V30 667 C 57.7838 -0.388704 -1.97715 0
M  V30 668 O 56.8398 0.181336 -2.51848 0
M  V30 669 C 58.1528 -2.76531 -1.18115 0
M  V30 670 C 59.7008 -2.85197 -1.28964 0
M  V30 671 C 60.1758 -4.26561 -1.66761 0
M  V30 672 N 61.6668 -4.2935 -1.73819 0
M  V30 673 C 62.4018 -5.35693 -2.045 0
M  V30 674 N 61.8978 -6.52287 -2.33438 0
M  V30 675 N 63.6908 -5.23105 -2.05711 0
M  V30 676 H 55.8418 -2.10965 0.246519 0
M  V30 677 H 58.1048 -0.9468 0.0476887 0
M  V30 678 H 57.8108 -3.49226 -0.416398 0
M  V30 679 H 57.6848 -3.11599 -2.1257 0
M  V30 680 H 60.0718 -2.12742 -2.04511 0
M  V30 681 H 60.1528 -2.53718 -0.325704 0
M  V30 682 H 59.7968 -4.99541 -0.917656 0
M  V30 683 H 59.7268 -4.55502 -2.64246 0
M  V30 684 H 62.2178 -3.4526 -1.53635 0
M  V30 685 H 62.5308 -7.29158 -2.56024 0
M  V30 686 H 60.8758 -6.55521 -2.30905 0
M  V30 687 H 64.0668 -4.31026 -1.82577 0
M  V30 688 H 64.2398 -6.06078 -2.29289 0
M  V30 689 N 57.6459 0.756429 -1.3826 0
M  V30 690 C 58.5759 1.88374 -1.37976 0
M  V30 691 C 59.5569 1.68311 -0.246082 0
M  V30 692 O 60.7419 1.88944 -0.44874 0
M  V30 693 C 57.8719 3.25864 -1.20125 0
M  V30 694 C 56.8259 3.60523 -2.30666 0
M  V30 695 C 56.1519 4.9672 -1.97923 0
M  V30 696 C 57.4519 3.65692 -3.72916 0
M  V30 697 H 59.1459 1.88869 -2.32312 0
M  V30 698 H 56.6919 0.907272 -1.11824 0
M  V30 699 H 58.6449 4.0438 -1.18552 0
M  V30 700 H 57.3689 3.25841 -0.222498 0
M  V30 701 H 56.0279 2.84324 -2.3142 0
M  V30 702 H 55.6759 4.93253 -0.985393 0
M  V30 703 H 55.3759 5.20878 -2.71955 0
M  V30 704 H 56.8999 5.77618 -1.97964 0
M  V30 705 H 58.3139 4.34328 -3.74208 0
M  V30 706 H 56.7109 4.01358 -4.4613 0
M  V30 707 H 57.7809 2.65987 -4.05436 0
M  V30 708 N 59.124 1.23083 0.984299 0
M  V30 709 C 60.372 1.05848 1.72165 0
M  V30 710 C 60.693 -0.406049 1.90726 0
M  V30 711 O 59.963 -1.29139 1.47309 0
M  V30 712 H 58.543 0.388685 0.637913 0
M  V30 713 H 61.205 1.54736 1.18503 0
M  V30 714 H 60.301 1.54327 2.71274 0
M  V30 715 N 60.6021 -1.18246 1.0419 0
M  V30 716 C 61.8321 -1.91916 0.764961 0
M  V30 717 C 62.2401 -1.76485 -0.681898 0
M  V30 718 O 61.5831 -1.09275 -1.47664 0
M  V30 719 C 61.6451 -3.4373 1.05309 0
M  V30 720 C 61.3091 -3.8294 2.4941 0
M  V30 721 C 62.3061 -3.86621 3.47592 0
M  V30 722 C 59.9911 -4.142 2.84155 0
M  V30 723 C 61.9851 -4.21013 4.78568 0
M  V30 724 C 59.6721 -4.48262 4.15337 0
M  V30 725 C 60.6701 -4.51645 5.12353 0
M  V30 726 O 60.3581 -4.84911 6.41183 0
M  V30 727 H 60.0901 -0.61606 0.278292 0
M  V30 728 H 62.6441 -1.50947 1.39299 0
M  V30 729 H 60.8741 -3.84946 0.367933 0
M  V30 730 H 62.5631 -3.9865 0.763752 0
M  V30 731 H 63.3291 -3.62607 3.22089 0
M  V30 732 H 59.2081 -4.10743 2.09311 0
M  V30 733 H 62.7521 -4.23568 5.54289 0
M  V30 734 H 58.6491 -4.71737 4.40607 0
M  V30 735 H 59.4171 -5.02809 6.45852 0
M  V30 736 N 62.0802 -0.821533 -1.34494 0
M  V30 737 C 63.0102 -0.257138 -2.3208 0
M  V30 738 C 63.9912 0.625645 -1.58176 0
M  V30 739 O 65.1762 0.552811 -1.86166 0
M  V30 740 C 62.3062 0.582958 -3.42372 0
M  V30 741 C 61.2602 -0.202571 -4.2752 0
M  V30 742 C 60.5862 0.760179 -5.29269 0
M  V30 743 C 61.8862 -1.40998 -5.02908 0
M  V30 744 H 63.5802 -1.07247 -2.79532 0
M  V30 745 H 61.1262 -0.517163 -1.34393 0
M  V30 746 H 63.0792 0.987972 -4.09655 0
M  V30 747 H 61.8032 1.43133 -2.93565 0
M  V30 748 H 60.4622 -0.588936 -3.61838 0
M  V30 749 H 60.1102 1.60447 -4.76724 0
M  V30 750 H 59.8102 0.238809 -5.87115 0
M  V30 751 H 61.3342 1.16308 -5.9942 0
M  V30 752 H 62.7482 -1.07905 -5.63054 0
M  V30 753 H 61.1452 -1.86689 -5.70322 0
M  V30 754 H 62.2152 -2.1889 -4.32684 0
M  V30 755 N 63.5583 1.46682 -0.576371 0
M  V30 756 C 64.4903 2.28341 0.198231 0
M  V30 757 C 65.5033 1.38141 0.861453 0
M  V30 758 O 66.6923 1.62797 0.732082 0
M  V30 759 C 63.7923 3.12986 1.29972 0
M  V30 760 C 62.9653 4.31271 0.729639 0
M  V30 761 C 62.0243 4.97363 1.71803 0
M  V30 762 O 61.0503 5.55156 1.25658 0
M  V30 763 N 62.2523 4.93796 3.05198 0
M  V30 764 H 65.0173 2.9546 -0.502324 0
M  V30 765 H 62.5783 1.56525 -0.413715 0
M  V30 766 H 64.5703 3.54066 1.96008 0
M  V30 767 H 63.1403 2.47984 1.90323 0
M  V30 768 H 62.3603 3.94052 -0.108012 0
M  V30 769 H 63.6483 5.07739 0.328438 0
M  V30 770 H 63.0463 4.48077 3.45317 0
M  V30 771 H 61.6033 5.38837 3.6674 0
M  V30 772 N 65.0364 0.313813 1.54444 0
M  V30 773 C 66.2854 -0.292519 1.99568 0
M  V30 774 C 66.5984 -1.54011 1.20582 0
M  V30 775 O 67.8044 -2.22183 1.56035 0
M  V30 776 C 66.2604 -0.571752 3.55329 0
M  V30 777 C 65.8684 0.658229 4.43138 0
M  V30 778 C 67.6124 -1.13857 4.08946 0
M  V30 779 C 65.5194 0.351439 5.90355 0
M  V30 780 H 64.4494 -0.113079 0.745472 0
M  V30 781 H 67.1004 0.424518 1.78522 0
M  V30 782 H 65.4824 -1.34872 3.72325 0
M  V30 783 H 66.6564 1.43403 4.37918 0
M  V30 784 H 64.9714 1.14458 4.0036 0
M  V30 785 H 67.5684 -1.38257 5.16516 0
M  V30 786 H 67.9114 -2.08489 3.6033 0
M  V30 787 H 68.4444 -0.423015 3.95544 0
M  V30 788 H 65.1834 1.26667 6.43145 0
M  V30 789 H 64.7034 -0.386842 5.98551 0
M  V30 790 H 66.3824 -0.0423134 6.46986 0
M  V30 791 N 66.5145 -1.57545 0.0417849 0
M  V30 792 C 67.4775 -2.09885 -0.92093 0
M  V30 793 C 68.4775 -1.01648 -1.24596 0
M  V30 794 O 69.6675 -1.27759 -1.1842 0
M  V30 795 C 66.7995 -2.57527 -2.23367 0
M  V30 796 H 67.9925 -2.96236 -0.467382 0
M  V30 797 H 65.5455 -1.5493 -0.206467 0
M  V30 798 H 66.2805 -1.74542 -2.73323 0
M  V30 799 H 66.0655 -3.36613 -2.01083 0
M  V30 800 H 67.5555 -2.98201 -2.92346 0
M  V30 801 N 67.9926 0.231505 -1.5589 0
M  V30 802 C 68.9246 1.31006 -1.8807 0
M  V30 803 C 69.9376 1.43539 -0.768145 0
M  V30 804 O 71.1266 1.44614 -1.04638 0
M  V30 805 C 68.2266 2.68688 -2.06543 0
M  V30 806 C 67.3996 2.78228 -3.37502 0
M  V30 807 C 66.4586 3.96857 -3.4553 0
M  V30 808 O 65.4846 3.85662 -4.18633 0
M  V30 809 N 66.6866 5.1072 -2.75944 0
M  V30 810 H 69.4516 1.03731 -2.81176 0
M  V30 811 H 67.0126 0.421573 -1.56315 0
M  V30 812 H 69.0046 3.46412 -2.09239 0
M  V30 813 H 67.5746 2.88605 -1.20109 0
M  V30 814 H 66.7946 1.87059 -3.46991 0
M  V30 815 H 68.0826 2.81564 -4.23791 0
M  V30 816 H 67.4806 5.2271 -2.16311 0
M  V30 817 H 66.0376 5.86523 -2.84314 0
M  V30 818 N 69.4707 1.49531 0.497807 0
M  V30 819 C 70.7187 1.58865 1.24926 0
M  V30 820 C 71.0397 0.278721 1.92998 0
M  V30 821 O 70.3097 -0.702144 1.82885 0
M  V30 822 H 68.8897 0.585343 0.464094 0
M  V30 823 H 71.5517 1.86174 0.57666 0
M  V30 824 H 70.6477 2.38633 2.01149 0
M  V30 825 N 70.9488 -0.749086 1.3866 0
M  V30 826 C 72.1738 -1.54344 1.38538 0
M  V30 827 C 72.5988 -1.88088 -0.0216655 0
M  V30 828 O 71.9568 -1.50899 -1.00494 0
M  V30 829 C 72.0048 -2.8164 2.25192 0
M  V30 830 O 71.1088 -3.7698 1.67212 0
M  V30 831 H 70.4498 -0.466654 0.472367 0
M  V30 832 H 72.9798 -0.925355 1.82478 0
M  V30 833 H 72.9898 -3.30519 2.3921 0
M  V30 834 H 71.6648 -2.56411 3.27454 0
M  V30 835 H 70.2418 -3.35699 1.6236 0
M  V30 836 N 72.4269 -1.23603 -0.977757 0
M  V30 837 C 73.3769 -0.986664 -2.05545 0
M  V30 838 C 74.3609 0.0683009 -1.60755 0
M  V30 839 O 75.5529 -0.144162 -1.76412 0
M  V30 840 C 72.6819 -0.582623 -3.3832 0
M  V30 841 C 71.7679 -1.67313 -3.89701 0
M  V30 842 N 72.1589 -2.90394 -4.14132 0
M  V30 843 C 70.4569 -1.54832 -4.18262 0
M  V30 844 C 71.1579 -3.61017 -4.56116 0
M  V30 845 N 70.1339 -2.8854 -4.60701 0
M  V30 846 H 73.9359 -1.92139 -2.22396 0
M  V30 847 H 71.4499 -1.1358 -1.16074 0
M  V30 848 H 73.4469 -0.38524 -4.15116 0
M  V30 849 H 72.1069 0.34503 -3.22862 0
M  V30 850 H 73.1179 -3.26673 -4.01877 0
M  V30 851 H 69.7949 -0.687969 -4.11793 0
M  V30 852 H 71.1849 -4.66544 -4.83514 0
M  V30 853 N 73.905 1.17692 -1.04816 0
M  V30 854 C 75.135 1.91508 -0.775128 0
M  V30 855 C 75.543 1.76844 0.67253 0
M  V30 856 O 74.886 1.10057 1.47082 0
M  V30 857 C 74.948 3.43167 -1.0713 0
M  V30 858 C 74.612 3.81612 -2.51438 0
M  V30 859 C 75.609 3.84772 -3.49638 0
M  V30 860 C 73.294 4.12687 -2.86348 0
M  V30 861 C 75.288 4.18469 -4.80794 0
M  V30 862 C 72.975 4.46053 -4.17708 0
M  V30 863 C 73.973 4.48921 -5.14741 0
M  V30 864 O 73.661 4.81504 -6.43746 0
M  V30 865 H 73.393 0.614575 -0.281555 0
M  V30 866 H 75.947 1.50206 -1.40098 0
M  V30 867 H 74.177 3.84745 -0.388342 0
M  V30 868 H 75.866 3.98239 -0.784883 0
M  V30 869 H 76.632 3.60893 -3.24008 0
M  V30 870 H 72.511 4.09627 -2.11486 0
M  V30 871 H 76.055 4.20623 -5.56527 0
M  V30 872 H 71.952 4.69393 -4.43103 0
M  V30 873 H 72.72 4.99377 -6.4851 0
M  V30 874 N 75.3831 0.828654 1.34056 0
M  V30 875 C 76.3301 0.252567 2.29414 0
M  V30 876 C 77.3001 -0.62588 1.53857 0
M  V30 877 O 78.4851 -0.566312 1.82202 0
M  V30 878 C 75.6251 -0.574831 3.40279 0
M  V30 879 C 74.7381 0.326499 4.30764 0
M  V30 880 C 73.8731 -0.511016 5.28736 0
M  V30 881 C 72.9121 0.389342 6.1086 0
M  V30 882 N 72.0491 -0.409439 7.00905 0
M  V30 883 H 76.8891 1.07108 2.78086 0
M  V30 884 H 74.4261 0.539677 1.36843 0
M  V30 885 H 76.3841 -1.06992 4.03248 0
M  V30 886 H 75.0141 -1.35841 2.92826 0
M  V30 887 H 74.0661 0.939837 3.68607 0
M  V30 888 H 75.3781 1.01857 4.88289 0
M  V30 889 H 74.5321 -1.07035 5.97184 0
M  V30 890 H 73.2711 -1.23657 4.71763 0
M  V30 891 H 72.2761 0.960769 5.4134 0
M  V30 892 H 73.5011 1.1131 6.69916 0
M  V30 893 H 71.4471 -1.11856 6.46393 0
M  V30 894 H 71.3641 0.224126 7.55668 0
M  V30 895 H 72.6321 -0.951336 7.73673 0
M  V30 896 N 76.8612 -1.46375 0.584142 0
M  V30 897 C 77.7932 -2.28443 -0.186119 0
M  V30 898 C 78.8062 -1.38596 -0.854115 0
M  V30 899 O 79.9952 -1.63183 -0.723438 0
M  V30 900 C 77.0952 -3.13671 -1.28311 0
M  V30 901 C 76.2682 -4.31652 -0.706758 0
M  V30 902 C 75.3272 -4.98267 -1.69163 0
M  V30 903 O 74.3532 -5.55815 -1.22712 0
M  V30 904 N 75.5552 -4.95408 -3.02575 0
M  V30 905 H 78.3202 -2.9519 0.517986 0
M  V30 906 H 75.8812 -1.56303 0.42201 0
M  V30 907 H 77.8732 -3.55101 -1.94128 0
M  V30 908 H 76.4432 -2.48989 -1.89005 0
M  V30 909 H 75.6632 -3.93989 0.128908 0
M  V30 910 H 76.9512 -5.07906 -0.301506 0
M  V30 911 H 76.3492 -4.49902 -3.42936 0
M  V30 912 H 74.9062 -5.40774 -3.63877 0
M  V30 913 N 78.3393 -0.321999 -1.54275 0
M  V30 914 C 79.5883 0.281931 -1.9972 0
M  V30 915 C 79.9013 1.53369 -1.21397 0
M  V30 916 O 81.1073 2.21352 -1.57211 0
M  V30 917 C 79.5633 0.5529 -3.55628 0
M  V30 918 C 79.1713 -0.681721 -4.42783 0
M  V30 919 C 80.9153 1.11687 -4.09544 0
M  V30 920 C 78.8223 -0.382742 -5.9016 0
M  V30 921 H 77.7523 0.109124 -0.746062 0
M  V30 922 H 80.4033 -0.43398 -1.78294 0
M  V30 923 H 78.7853 1.32896 -3.73035 0
M  V30 924 H 79.9593 -1.45723 -4.37151 0
M  V30 925 H 78.2743 -1.1658 -3.99748 0
M  V30 926 H 80.8713 1.35515 -5.17242 0
M  V30 927 H 81.2143 2.06575 -3.61431 0
M  V30 928 H 81.7473 0.402032 -3.95763 0
M  V30 929 H 78.4863 -1.30076 -6.42464 0
M  V30 930 H 78.0063 0.355094 -5.98748 0
M  V30 931 H 79.6853 0.00800157 -6.47 0
M  V30 932 N 79.8174 1.5752 -0.0501392 0
M  V30 933 C 81.0664 1.91827 0.623328 0
M  V30 934 C 81.3794 0.930222 1.72065 0
M  V30 935 O 82.5854 1.1653 2.4522 0
M  V30 936 C 81.0414 3.40692 1.16003 0
M  V30 937 C 80.6494 4.479 0.0948811 0
M  V30 938 C 82.3934 3.84034 1.80881 0
M  V30 939 C 80.3004 5.87879 0.644411 0
M  V30 940 H 79.2304 0.715918 0.236596 0
M  V30 941 H 81.8814 1.83115 -0.118861 0
M  V30 942 H 80.2634 3.44405 1.9545 0
M  V30 943 H 81.4374 4.55775 -0.678675 0
M  V30 944 H 79.7524 4.13892 -0.45637 0
M  V30 945 H 82.3494 4.85984 2.22988 0
M  V30 946 H 82.6924 3.20225 2.6601 0
M  V30 947 H 83.2254 3.82833 1.0809 0
M  V30 948 H 79.9644 6.55282 -0.169229 0
M  V30 949 H 79.4844 5.83567 1.38598 0
M  V30 950 H 81.1634 6.37098 1.12763 0
M  V30 951 N 81.2955 -0.223234 1.56011 0
M  V30 952 C 82.2425 -1.27664 1.92277 0
M  V30 953 C 83.2125 -1.46659 0.779763 0
M  V30 954 O 84.3975 -1.60256 1.03551 0
M  V30 955 C 81.5375 -2.62234 2.24338 0
M  V30 956 C 80.6505 -2.51051 3.51564 0
M  V30 957 C 79.7855 -3.78133 3.7308 0
M  V30 958 C 78.8245 -3.61665 4.93827 0
M  V30 959 N 77.9615 -4.80693 5.11741 0
M  V30 960 H 82.8015 -0.960358 2.82101 0
M  V30 961 H 80.3385 -0.462901 1.39627 0
M  V30 962 H 82.2965 -3.40596 2.40936 0
M  V30 963 H 80.9265 -2.91961 1.3769 0
M  V30 964 H 79.9785 -1.64132 3.43169 0
M  V30 965 H 81.2905 -2.34803 4.40079 0
M  V30 966 H 80.4445 -4.64938 3.89766 0
M  V30 967 H 79.1835 -3.97304 2.82844 0
M  V30 968 H 78.1885 -2.73244 4.77093 0
M  V30 969 H 79.4135 -3.43966 5.85546 0
M  V30 970 H 77.3595 -5.00181 4.24446 0
M  V30 971 H 77.2765 -4.67165 5.94384 0
M  V30 972 H 78.5445 -5.6893 5.3286 0
M  V30 973 N 82.7736 -1.49793 -0.48987 0
M  V30 974 C 83.7216 -1.67783 -1.61095 0
M  V30 975 C 84.7156 -0.543683 -1.60438 0
M  V30 976 O 85.9216 -0.723647 -1.64813 0
M  V30 977 H 82.2966 -0.529255 -0.534222 0
M  V30 978 H 84.2676 -2.61861 -1.43078 0
M  V30 979 C 83.0166 -1.77191 -2.99164 0
M  V30 980 H 82.3396 -2.63841 -3.0038 0
M  V30 981 H 83.7796 -1.93809 -3.77113 0
M  V30 982 C 82.2386 -0.519203 -3.32875 0
M  V30 983 O 82.7686 0.350124 -4.00171 0
M  V30 984 N 80.9746 -0.378816 -2.8812 0
M  V30 985 H 80.5216 -1.08725 -2.33531 0
M  V30 986 H 80.4796 0.458239 -3.11043 0
M  V30 987 N 84.2517 0.741722 -1.39055 0
M  V30 988 C 85.5287 1.49252 -1.26425 0
M  V30 989 C 85.9087 2.10705 0.129144 0
M  V30 990 O 85.2567 1.98045 1.13976 0
M  V30 991 C 85.4667 2.54934 -2.38347 0
M  V30 992 C 86.8147 3.21506 -2.77343 0
M  V30 993 O 87.8387 2.65245 -2.37747 0
M  V30 994 O 86.6977 4.23294 -3.45665 0
M  V30 995 H 83.7917 0.662451 -0.495064 0
M  V30 996 H 86.3377 0.776121 -1.50912 0
M  V30 997 H 85.1097 2.07857 -3.31529 0
M  V30 998 H 84.7327 3.34141 -2.15489 0
M  V30 999 N 85.7298 1.2412 0.971189 0
M  V30 1000 C 86.6398 1.04747 2.09917 0
M  V30 1001 C 87.6558 -0.0107162 1.73997 0
M  V30 1002 O 88.8318 0.186714 2.00533 0
M  V30 1003 C 85.8968 0.650828 3.40537 0
M  V30 1004 C 84.9578 1.7851 3.90426 0
M  V30 1005 C 84.1908 1.40729 5.14812 0
M  V30 1006 O 84.4138 0.29557 5.69634 0
M  V30 1007 O 83.3478 2.23168 5.58999 0
M  V30 1008 H 87.1738 1.99304 2.29154 0
M  V30 1009 H 84.7588 1.02908 1.08307 0
M  V30 1010 H 86.6408 0.440992 4.19086 0
M  V30 1011 H 85.3158 -0.265649 3.22608 0
M  V30 1012 H 84.2228 2.04966 3.12953 0
M  V30 1013 H 85.5558 2.68023 4.12825 0
M  V30 1014 N 87.2079 -1.17134 1.05439 0
M  V30 1015 C 88.1559 -2.23289 0.651511 0
M  V30 1016 C 89.1499 -1.66186 -0.328411 0
M  V30 1017 O 90.3559 -1.78949 -0.194206 0
M  V30 1018 H 86.7309 -0.726938 0.192523 0
M  V30 1019 H 88.7019 -2.54565 1.55689 0
M  V30 1020 C 87.4509 -3.47671 0.0448436 0
M  V30 1021 H 86.7739 -3.91918 0.78996 0
M  V30 1022 H 88.2139 -4.2353 -0.19964 0
M  V30 1023 C 86.6729 -3.14453 -1.20918 0
M  V30 1024 O 87.2029 -3.29459 -2.29825 0
M  V30 1025 N 85.4089 -2.68657 -1.10779 0
M  V30 1026 H 84.9559 -2.56646 -0.221526 0
M  V30 1027 H 84.9139 -2.46804 -1.9477 0
M  V30 1028 N 88.686 -0.835752 -1.33615 0
M  V30 1029 C 89.935 -0.426289 -1.97144 0
M  V30 1030 C 90.248 1.01912 -1.66953 0
M  V30 1031 O 91.454 1.53311 -2.24072 0
M  V30 1032 C 89.91 -0.711321 -3.52801 0
M  V30 1033 C 89.518 -2.1712 -3.91871 0
M  V30 1034 C 91.262 -0.368654 -4.22896 0
M  V30 1035 C 89.169 -2.40044 -5.40493 0
M  V30 1036 H 88.099 -0.15567 -0.737755 0
M  V30 1037 H 90.75 -1.0239 -1.52278 0
M  V30 1038 H 89.132 -0.0433766 -3.95976 0
M  V30 1039 H 90.306 -2.87936 -3.59763 0
M  V30 1040 H 88.621 -2.47654 -3.34749 0
M  V30 1041 H 91.218 -0.517601 -5.32189 0
M  V30 1042 H 91.561 0.688078 -4.10574 0
M  V30 1043 H 92.094 -0.991702 -3.8524 0
M  V30 1044 H 88.833 -3.44271 -5.57815 0
M  V30 1045 H 88.353 -1.73785 -5.74072 0
M  V30 1046 H 90.032 -2.23042 -6.0734 0
M  V30 1047 N 90.1641 1.46063 -0.591896 0
M  V30 1048 C 91.3921 2.06717 -0.0868936 0
M  V30 1049 C 91.8071 1.43916 1.22203 0
M  V30 1050 O 91.1641 0.547698 1.74088 0
M  V30 1051 C 91.2151 3.6142 0.0758725 0
M  V30 1052 O 90.9361 4.21874 -1.18126 0
M  V30 1053 C 92.4371 4.39025 0.61416 0
M  V30 1054 H 89.6571 0.668162 -0.0616518 0
M  V30 1055 H 92.2011 1.8755 -0.815175 0
M  V30 1056 H 90.3561 3.79983 0.754413 0
M  V30 1057 H 90.7701 5.14861 -1.00092 0
M  V30 1058 H 92.2441 5.4783 0.677193 0
M  V30 1059 H 92.7211 4.07708 1.63312 0
M  V30 1060 H 93.3271 4.2529 -0.0298142 0
M  V30 1061 N 91.6422 0.330177 1.54103 0
M  V30 1062 C 92.8882 -0.270806 2.00984 0
M  V30 1063 C 93.2212 -1.51265 1.21789 0
M  V30 1064 O 92.4962 -1.92142 0.301927 0
M  V30 1065 C 92.7792 -0.598339 3.55094 0
M  V30 1066 C 92.6322 0.654674 4.4501 0
M  V30 1067 C 93.9512 -1.41334 4.16789 0
M  V30 1068 H 91.0702 -0.0969531 0.730595 0
M  V30 1069 H 93.7122 0.448066 1.84641 0
M  V30 1070 H 91.8622 -1.21078 3.69151 0
M  V30 1071 H 93.5342 1.29285 4.42813 0
M  V30 1072 H 91.7772 1.28224 4.14416 0
M  V30 1073 H 92.4482 0.380944 5.50684 0
M  V30 1074 H 94.9242 -0.895597 4.06347 0
M  V30 1075 H 93.8002 -1.61127 5.24718 0
M  V30 1076 H 94.0612 -2.41146 3.70541 0
M  V30 1077 N 93.1203 -1.57491 0.0584922 0
M  V30 1078 C 94.0683 -2.13148 -0.931168 0
M  V30 1079 C 95.0623 -1.06507 -1.31729 0
M  V30 1080 O 96.2683 -1.24906 -1.29609 0
M  V30 1081 H 92.6433 -0.68137 -0.31818 0
M  V30 1082 H 94.6143 -2.95187 -0.436707 0
M  V30 1083 C 93.3633 -2.69732 -2.19408 0
M  V30 1084 H 92.6863 -3.51454 -1.90578 0
M  V30 1085 H 94.1263 -3.12287 -2.86798 0
M  V30 1086 C 92.5853 -1.63855 -2.94369 0
M  V30 1087 O 93.1153 -1.05565 -3.87581 0
M  V30 1088 N 91.3213 -1.35202 -2.57233 0
M  V30 1089 H 90.8683 -1.82791 -1.81508 0
M  V30 1090 H 90.8263 -0.645922 -3.07693 0
M  V30 1091 N 94.5984 0.214957 -1.56127 0
M  V30 1092 C 95.5084 1.28727 -1.96129 0
M  V30 1093 C 96.5244 1.50916 -0.866044 0
M  V30 1094 O 97.7004 1.63918 -1.17016 0
M  V30 1095 C 94.7654 2.61569 -2.27558 0
M  V30 1096 C 93.8264 2.47625 -3.50685 0
M  V30 1097 C 93.0594 3.74132 -3.80606 0
M  V30 1098 O 93.2824 4.77438 -3.12104 0
M  V30 1099 O 92.2164 3.70849 -4.74083 0
M  V30 1100 H 96.0424 0.977855 -2.87527 0
M  V30 1101 H 93.6274 0.418358 -1.43423 0
M  V30 1102 H 95.5094 3.40012 -2.48938 0
M  V30 1103 H 94.1844 2.92178 -1.39332 0
M  V30 1104 H 93.0914 1.67361 -3.34576 0
M  V30 1105 H 94.4244 2.21954 -4.39315 0
M  V30 1106 N 96.0765 1.50051 0.48192 0
M  V30 1107 C 97.3015 1.64508 1.26301 0
M  V30 1108 C 97.7265 0.323851 1.85291 0
M  V30 1109 O 97.0845 -0.710969 1.66778 0
M  V30 1110 C 97.1325 2.7305 2.35533 0
M  V30 1111 O 96.2365 2.3355 3.39895 0
M  V30 1112 H 95.5775 0.549978 0.372048 0
M  V30 1113 H 98.1075 1.9636 0.574786 0
M  V30 1114 H 98.1175 2.95799 2.8101 0
M  V30 1115 H 96.7925 3.68946 1.91967 0
M  V30 1116 H 95.3695 2.21205 3.00204 0
M  V30 1117 N 97.5546 -0.734337 1.39446 0
M  V30 1118 C 98.8006 -1.49613 1.36908 0
M  V30 1119 C 99.1336 -1.94169 -0.0347829 0
M  V30 1120 O 98.4086 -1.66833 -0.999847 0
M  V30 1121 C 98.6916 -2.73534 2.34203 0
M  V30 1122 C 98.5446 -2.34993 3.83534 0
M  V30 1123 C 99.8636 -3.75635 2.29317 0
M  V30 1124 H 96.9826 -0.542714 0.498629 0
M  V30 1125 H 99.6246 -0.839597 1.70443 0
M  V30 1126 H 97.7746 -3.29553 2.05736 0
M  V30 1127 H 99.4466 -1.84601 4.22753 0
M  V30 1128 H 97.6896 -1.67213 4.00278 0
M  V30 1129 H 98.3606 -3.23738 4.47099 0
M  V30 1130 H 100.837 -3.29203 2.54489 0
M  V30 1131 H 99.7126 -4.60008 2.99472 0
M  V30 1132 H 99.9736 -4.22603 1.29842 0
M  V30 1133 N 99.0327 -1.24633 -0.964593 0
M  V30 1134 C 100.444 -1.08045 -1.5226 0
M  V30 1135 C 100.795 0.347116 -1.93105 0
M  V30 1136 O 99.9197 1.23588 -1.77637 0
M  V30 1137 C 100.515 -1.95514 -2.76695 0
M  V30 1138 C 99.0737 -1.8314 -3.28841 0
M  V30 1139 C 98.2207 -1.90262 -2.01732 0
M  V30 1140 H 101.172 -1.38064 -0.782553 0
M  V30 1141 H 101.193 -1.48925 -3.50145 0
M  V30 1142 H 100.705 -2.99407 -2.46936 0
M  V30 1143 H 98.8057 -0.82092 -3.63444 0
M  V30 1144 H 98.9187 -2.67406 -3.97531 0
M  V30 1145 H 97.2827 -1.34027 -2.16584 0
M  V30 1146 H 98.0657 -2.9574 -1.74334 0
M  V30 1147 N 100.511 1.16574 -1.06058 0
M  V30 1148 C 101.927 1.3904 -0.783585 0
M  V30 1149 C 102.127 1.91784 0.618145 0
M  V30 1150 O 101.183 2.11511 1.37911 0
M  V30 1151 C 102.496 2.37329 -1.84649 0
M  V30 1152 C 104.044 2.51018 -1.86973 0
M  V30 1153 C 104.519 3.52588 -2.92311 0
M  V30 1154 N 106.01 3.60113 -2.91329 0
M  V30 1155 C 106.745 4.38486 -3.69482 0
M  V30 1156 N 106.241 5.20302 -4.57447 0
M  V30 1157 N 108.034 4.33446 -3.57885 0
M  V30 1158 H 100.185 0.806725 -1.96483 0
M  V30 1159 H 102.448 0.417117 -0.851303 0
M  V30 1160 H 102.154 2.05663 -2.85299 0
M  V30 1161 H 102.028 3.36946 -1.6955 0
M  V30 1162 H 104.415 2.81989 -0.869827 0
M  V30 1163 H 104.496 1.51445 -2.0615 0
M  V30 1164 H 104.14 3.22354 -3.92492 0
M  V30 1165 H 104.07 4.51886 -2.70383 0
M  V30 1166 H 106.561 3.01707 -2.27555 0
M  V30 1167 H 106.874 5.77311 -5.13743 0
M  V30 1168 H 105.219 5.19653 -4.61503 0
M  V30 1169 H 108.41 3.68586 -2.88551 0
M  V30 1170 H 108.583 4.94279 -4.19037 0
M  V30 1171 N 101.989 0.842826 1.3317 0
M  V30 1172 C 103.237 0.439577 1.97262 0
M  V30 1173 C 103.558 -1.00548 1.67078 0
M  V30 1174 O 102.828 -1.70098 0.971779 0
M  V30 1175 H 101.408 0.159558 0.72976 0
M  V30 1176 H 104.07 1.07665 1.62463 0
M  V30 1177 H 103.166 0.574886 3.0676 0
M  V30 1178 N 103.467 -1.45747 0.599634 0
M  V30 1179 C 104.883 -1.57424 0.26264 0
M  V30 1180 C 105.083 -1.59222 -1.23493 0
M  V30 1181 O 104.139 -1.51825 -2.01756 0
M  V30 1182 C 105.452 -2.86061 0.926795 0
M  V30 1183 C 107 -2.99722 0.901967 0
M  V30 1184 C 107.475 -4.31119 1.54598 0
M  V30 1185 N 108.966 -4.37858 1.5111 0
M  V30 1186 C 109.701 -5.3818 1.97863 0
M  V30 1187 N 109.197 -6.45083 2.52666 0
M  V30 1188 N 110.99 -5.29487 1.88679 0
M  V30 1189 H 103.141 -1.42823 1.57211 0
M  V30 1190 H 105.404 -0.68235 0.658105 0
M  V30 1191 H 105.11 -2.90605 1.98095 0
M  V30 1192 H 104.984 -3.74563 0.445238 0
M  V30 1193 H 107.371 -2.9475 -0.143617 0
M  V30 1194 H 107.452 -2.12652 1.42171 0
M  V30 1195 H 107.096 -4.36849 2.59085 0
M  V30 1196 H 107.026 -5.16992 1.00132 0
M  V30 1197 H 109.517 -3.61209 1.11068 0
M  V30 1198 H 109.83 -7.17869 2.86155 0
M  V30 1199 H 108.175 -6.45856 2.56701 0
M  V30 1200 H 111.366 -4.44877 1.4561 0
M  V30 1201 H 111.539 -6.07524 2.25429 0
M  V30 1202 N 104.945 -0.338344 -1.53925 0
M  V30 1203 C 106.194 0.260732 -2.00008 0
M  V30 1204 C 106.507 1.52073 -1.23017 0
M  V30 1205 O 107.713 2.19672 -1.5955 0
M  V30 1206 C 106.169 0.51515 -3.56194 0
M  V30 1207 C 105.777 -0.728645 -4.42035 0
M  V30 1208 C 107.521 1.07337 -4.10706 0
M  V30 1209 C 105.428 -0.445315 -5.89721 0
M  V30 1210 H 104.358 0.101205 -0.747177 0
M  V30 1211 H 107.009 -0.452866 -1.77824 0
M  V30 1212 H 105.391 1.28932 -3.74423 0
M  V30 1213 H 106.565 -1.50352 -4.35581 0
M  V30 1214 H 104.88 -1.20813 -3.98489 0
M  V30 1215 H 107.477 1.30022 -5.18651 0
M  V30 1216 H 107.82 2.0273 -3.63602 0
M  V30 1217 H 108.353 0.360034 -3.96167 0
M  V30 1218 H 105.092 -1.36883 -6.41049 0
M  V30 1219 H 104.612 0.291569 -5.99091 0
M  V30 1220 H 106.291 -0.0606218 -6.46972 0
M  V30 1221 N 106.423 1.57458 -0.0668435 0
M  V30 1222 C 107.353 2.15468 0.899764 0
M  V30 1223 C 108.334 1.08042 1.31381 0
M  V30 1224 O 109.519 1.36054 1.38574 0
M  V30 1225 C 106.649 2.71232 2.16911 0
M  V30 1226 C 105.603 3.83781 1.89463 0
M  V30 1227 C 104.929 4.26127 3.22986 0
M  V30 1228 C 106.229 5.08238 1.20381 0
M  V30 1229 H 107.923 2.96488 0.416529 0
M  V30 1230 H 105.469 1.4262 0.198908 0
M  V30 1231 H 107.422 3.10458 2.84945 0
M  V30 1232 H 106.146 1.87426 2.67468 0
M  V30 1233 H 104.805 3.45051 1.23836 0
M  V30 1234 H 104.453 3.39249 3.71374 0
M  V30 1235 H 104.153 5.01993 3.05413 0
M  V30 1236 H 105.677 4.67966 3.92225 0
M  V30 1237 H 107.091 5.44811 1.78475 0
M  V30 1238 H 105.488 5.89349 1.13083 0
M  V30 1239 H 106.558 4.84558 0.182153 0
M  V30 1240 N 107.901 -0.206675 1.56239 0
M  V30 1241 C 109.178 -0.954051 1.70755 0
M  V30 1242 C 109.558 -2.01841 0.618353 0
M  V30 1243 O 108.906 -2.25444 -0.372434 0
M  V30 1244 C 109.116 -1.551 3.12642 0
M  V30 1245 C 110.464 -2.03757 3.72516 0
M  V30 1246 O 111.488 -1.64965 3.15698 0
M  V30 1247 O 110.347 -2.75103 4.72208 0
M  V30 1248 H 107.441 -0.446636 0.696021 0
M  V30 1249 H 109.987 -0.197283 1.68549 0
M  V30 1250 H 108.759 -0.783212 3.83382 0
M  V30 1251 H 108.382 -2.37291 3.19028 0
M  V30 1252 N 109.379 -1.50304 -0.473955 0
M  V30 1253 C 110.795 -1.37667 -0.807466 0
M  V30 1254 C 110.995 -0.430555 -1.96846 0
M  V30 1255 O 110.051 0.127874 -2.52176 0
M  V30 1256 C 111.364 -2.78974 -1.12223 0
M  V30 1257 C 112.912 -2.87868 -1.22885 0
M  V30 1258 C 113.387 -4.30003 -1.57676 0
M  V30 1259 N 114.878 -4.3294 -1.64673 0
M  V30 1260 C 115.613 -5.3991 -1.93091 0
M  V30 1261 N 115.109 -6.57092 -2.1955 0
M  V30 1262 N 116.902 -5.27351 -1.94569 0
M  V30 1263 H 109.053 -2.10394 0.291212 0
M  V30 1264 H 111.316 -0.945575 0.0677609 0
M  V30 1265 H 111.022 -3.50031 -0.342229 0
M  V30 1266 H 110.896 -3.16038 -2.05913 0
M  V30 1267 H 113.283 -2.17032 -1.99953 0
M  V30 1268 H 113.364 -2.54352 -0.271814 0
M  V30 1269 H 113.008 -5.01375 -0.81149 0
M  V30 1270 H 112.938 -4.61004 -2.54525 0
M  V30 1271 H 115.429 -3.48441 -1.46277 0
M  V30 1272 H 115.742 -7.34425 -2.405 0
M  V30 1273 H 114.087 -6.60272 -2.16948 0
M  V30 1274 H 117.278 -4.34801 -1.73394 0
M  V30 1275 H 117.451 -6.10805 -2.16381 0
M  V30 1276 N 110.857 0.726932 -1.39834 0
M  V30 1277 C 111.805 1.86235 -1.39353 0
M  V30 1278 C 112.799 1.67144 -0.275555 0
M  V30 1279 O 114.005 1.74387 -0.44601 0
M  V30 1280 H 110.38 0.613174 -0.43534 0
M  V30 1281 H 112.351 1.83756 -2.35109 0
M  V30 1282 C 111.1 3.23995 -1.26185 0
M  V30 1283 H 110.423 3.39285 -2.11484 0
M  V30 1284 H 111.863 4.03609 -1.29907 0
M  V30 1285 C 110.322 3.36888 0.0290018 0
M  V30 1286 O 110.852 3.89152 0.99619 0
M  V30 1287 N 109.058 2.90446 0.0947437 0
M  V30 1288 H 108.605 2.48102 -0.693035 0
M  V30 1289 H 108.563 2.99451 0.957932 0
M  V30 1290 N 112.336 1.25143 0.95797 0
M  V30 1291 C 113.584 1.09476 1.69881 0
M  V30 1292 C 113.905 -0.365502 1.91544 0
M  V30 1293 O 113.175 -1.25985 1.50015 0
M  V30 1294 H 111.755 0.402128 0.629525 0
M  V30 1295 H 114.417 1.57214 1.15194 0
M  V30 1296 H 113.513 1.60046 2.6794 0
M  V30 1297 N 113.814 -1.1601 1.06675 0
M  V30 1298 C 114.761 -2.20525 0.680967 0
M  V30 1299 C 115.731 -1.62904 -0.324283 0
M  V30 1300 O 116.916 -1.89615 -0.212294 0
M  V30 1301 C 114.056 -3.45013 0.0776551 0
M  V30 1302 C 113.169 -4.16863 1.13355 0
M  V30 1303 C 112.304 -5.2888 0.49597 0
M  V30 1304 C 111.343 -5.92537 1.53513 0
M  V30 1305 N 110.48 -6.96038 0.920631 0
M  V30 1306 H 115.32 -2.52876 1.57663 0
M  V30 1307 H 112.857 -1.24199 0.788223 0
M  V30 1308 H 114.815 -4.16193 -0.289704 0
M  V30 1309 H 113.445 -3.132 -0.781393 0
M  V30 1310 H 112.497 -3.44248 1.61857 0
M  V30 1311 H 113.809 -4.60294 1.92174 0
M  V30 1312 H 112.963 -6.06653 0.0758604 0
M  V30 1313 H 111.702 -4.86622 -0.324062 0
M  V30 1314 H 110.707 -5.13482 1.9651 0
M  V30 1315 H 111.932 -6.36873 2.35733 0
M  V30 1316 H 109.878 -6.55888 0.12138 0
M  V30 1317 H 109.795 -7.3786 1.64616 0
M  V30 1318 H 111.063 -7.77725 0.525795 0
M  V30 1319 N 115.292 -0.849877 -1.32721 0
M  V30 1320 C 116.538 -0.451591 -1.97708 0
M  V30 1321 C 116.871 0.989175 -1.6712 0
M  V30 1322 O 116.146 1.69334 -0.956891 0
M  V30 1323 C 116.429 -0.685598 -3.53513 0
M  V30 1324 C 116.282 -2.17444 -3.93749 0
M  V30 1325 C 117.601 -0.138874 -4.39881 0
M  V30 1326 H 114.72 -0.16555 -0.718166 0
M  V30 1327 H 117.362 -1.06742 -1.57182 0
M  V30 1328 H 115.512 -0.161416 -3.88165 0
M  V30 1329 H 117.184 -2.76433 -3.693 0
M  V30 1330 H 115.427 -2.65476 -3.43081 0
M  V30 1331 H 116.098 -2.28888 -5.02309 0
M  V30 1332 H 118.574 -0.587068 -4.11938 0
M  V30 1333 H 117.45 -0.332213 -5.47894 0
M  V30 1334 H 117.711 0.95806 -4.31594 0
M  V30 1335 N 116.77 1.45427 -0.607355 0
M  V30 1336 C 117.7 2.3329 0.0989352 0
M  V30 1337 C 118.681 1.46816 0.859007 0
M  V30 1338 O 119.866 1.75588 0.829604 0
M  V30 1339 C 116.996 3.29518 1.09705 0
M  V30 1340 C 115.95 4.25626 0.450206 0
M  V30 1341 C 115.276 5.11542 1.55655 0
M  V30 1342 C 116.576 5.18505 -0.628455 0
M  V30 1343 H 118.27 2.92595 -0.634716 0
M  V30 1344 H 115.816 1.40696 -0.306681 0
M  V30 1345 H 117.769 3.89855 1.59971 0
M  V30 1346 H 116.493 2.68372 1.86129 0
M  V30 1347 H 115.152 3.66586 -0.0315886 0
M  V30 1348 H 114.8 4.46765 2.31107 0
M  V30 1349 H 114.5 5.76647 1.12925 0
M  V30 1350 H 116.024 5.74748 2.06148 0
M  V30 1351 H 117.438 5.72916 -0.209877 0
M  V30 1352 H 115.835 5.92085 -0.977489 0
M  V30 1353 H 116.905 4.60948 -1.50514 0
M  V30 1354 N 118.248 0.346503 1.53744 0
M  V30 1355 C 119.494 -0.249473 2.0126 0
M  V30 1356 C 119.827 -1.49965 1.23386 0
M  V30 1357 O 119.102 -1.91811 0.32229 0
M  V30 1358 C 119.385 -0.560643 3.55709 0
M  V30 1359 C 119.238 0.701836 4.44291 0
M  V30 1360 C 120.557 -1.36905 4.18264 0
M  V30 1361 H 117.676 -0.0891987 0.731582 0
M  V30 1362 H 120.318 0.467624 1.84156 0
M  V30 1363 H 118.468 -1.17156 3.70414 0
M  V30 1364 H 120.14 1.33974 4.41417 0
M  V30 1365 H 118.383 1.32612 4.13033 0
M  V30 1366 H 119.054 0.43933 5.50249 0
M  V30 1367 H 121.53 -0.852448 4.07275 0
M  V30 1368 H 120.406 -1.55553 5.26398 0
M  V30 1369 H 120.667 -2.37203 3.73078 0
M  V30 1370 N 119.726 -1.57421 0.075193 0
M  V30 1371 C 121.003 -1.85029 -0.634329 0
M  V30 1372 C 121.383 -0.968305 -1.87582 0
M  V30 1373 O 120.731 -0.0354749 -2.28472 0
M  V30 1374 C 120.941 -3.35286 -0.968742 0
M  V30 1375 C 122.289 -4.02875 -1.34077 0
M  V30 1376 O 123.313 -3.40051 -1.06037 0
M  V30 1377 O 122.172 -5.13691 -1.86506 0
M  V30 1378 H 119.266 -0.7645 -0.315387 0
M  V30 1379 H 121.812 -1.69366 0.106382 0
M  V30 1380 H 120.584 -3.91203 -0.0871376 0
M  V30 1381 H 120.207 -3.56223 -1.7661 0
M  V30 1382 N 121.204 0.198386 -1.56346 0
M  V30 1383 C 122.152 1.26538 -1.95169 0
M  V30 1384 C 123.146 1.47295 -0.836685 0
M  V30 1385 O 124.352 1.48195 -1.02167 0
M  V30 1386 H 120.727 0.424744 -0.620561 0
M  V30 1387 H 122.698 0.910904 -2.84157 0
M  V30 1388 C 121.447 2.6035 -2.30463 0
M  V30 1389 H 120.77 2.45192 -3.15786 0
M  V30 1390 H 122.21 3.33762 -2.61494 0
M  V30 1391 C 120.669 3.17096 -1.13806 0
M  V30 1392 O 121.199 3.99588 -0.41135 0
M  V30 1393 N 119.405 2.75795 -0.915736 0
M  V30 1394 H 118.952 2.08816 -1.50843 0
M  V30 1395 H 118.91 3.14101 -0.136979 0
M  V30 1396 N 122.682 1.50554 0.465978 0
M  V30 1397 C 123.645 1.69233 1.54574 0
M  V30 1398 C 124.645 0.562901 1.50626 0
M  V30 1399 O 125.835 0.830016 1.53155 0
M  V30 1400 C 122.967 1.7223 2.94193 0
M  V30 1401 H 124.16 2.65571 1.39327 0
M  V30 1402 H 121.713 1.40111 0.692711 0
M  V30 1403 H 122.448 0.77603 3.14878 0
M  V30 1404 H 122.233 2.54285 2.98466 0
M  V30 1405 H 123.723 1.88618 3.72576 0
M  V30 1406 N 124.16 -0.719506 1.40217 0
M  V30 1407 C 125.385 -1.51371 1.4178 0
M  V30 1408 C 125.81 -1.88091 0.0182355 0
M  V30 1409 O 125.168 -1.52997 -0.972707 0
M  V30 1410 C 125.216 -2.768 2.31115 0
M  V30 1411 O 124.32 -3.73349 1.7517 0
M  V30 1412 H 123.661 -0.456529 0.482159 0
M  V30 1413 H 126.191 -0.88644 1.844 0
M  V30 1414 H 126.201 -3.25371 2.46167 0
M  V30 1415 H 124.876 -2.49407 3.3282 0
M  V30 1416 H 123.453 -3.32179 1.69444 0
M  V30 1417 N 125.638 -1.25649 -0.95132 0
M  V30 1418 C 126.585 -1.06323 -2.04851 0
M  V30 1419 C 127.555 0.0286491 -1.66075 0
M  V30 1420 O 128.74 -0.12917 -1.90362 0
M  V30 1421 C 125.88 -0.691529 -3.381 0
M  V30 1422 C 124.993 -1.85861 -3.89974 0
M  V30 1423 C 124.128 -1.43096 -5.11563 0
M  V30 1424 C 123.167 -2.56696 -5.55674 0
M  V30 1425 N 122.304 -2.14684 -6.68472 0
M  V30 1426 H 127.144 -2.00222 -2.20715 0
M  V30 1427 H 124.681 -0.997027 -1.08156 0
M  V30 1428 H 126.639 -0.456963 -4.1469 0
M  V30 1429 H 125.269 0.210474 -3.22113 0
M  V30 1430 H 124.321 -2.20639 -3.09875 0
M  V30 1431 H 125.633 -2.71161 -4.18657 0
M  V30 1432 H 124.787 -1.15624 -5.9558 0
M  V30 1433 H 123.526 -0.548722 -4.84603 0
M  V30 1434 H 122.531 -2.84909 -4.7022 0
M  V30 1435 H 123.756 -3.45503 -5.8464 0
M  V30 1436 H 121.702 -1.28881 -6.43215 0
M  V30 1437 H 121.619 -2.9353 -6.96689 0
M  V30 1438 H 122.887 -1.90397 -7.5589 0
M  V30 1439 N 127.117 1.15442 -1.07289 0
M  V30 1440 C 128.05 2.19135 -0.636798 0
M  V30 1441 C 129.028 1.58884 0.34562 0
M  V30 1442 O 130.212 1.86805 0.252195 0
M  V30 1443 C 127.339 3.38638 0.0650014 0
M  V30 1444 C 126.385 4.17412 -0.87576 0
M  V30 1445 S 127.218 4.79882 -2.37642 0
M  V30 1446 C 128.374 6.02753 -1.6864 0
M  V30 1447 H 128.607 2.55787 -1.51526 0
M  V30 1448 H 126.14 1.26394 -0.886793 0
M  V30 1449 H 128.098 4.07873 0.463664 0
M  V30 1450 H 126.759 3.00331 0.919801 0
M  V30 1451 H 125.952 5.02909 -0.33143 0
M  V30 1452 H 125.554 3.53722 -1.21478 0
M  V30 1453 H 127.846 6.70113 -0.997753 0
M  V30 1454 H 128.789 6.61754 -2.51967 0
M  V30 1455 H 129.197 5.52355 -1.16465 0
M  V30 1456 N 128.595 0.856903 1.32268 0
M  V30 1457 C 129.558 0.308171 2.27119 0
M  V30 1458 C 130.558 -0.533421 1.51695 0
M  V30 1459 O 131.748 -0.344607 1.70757 0
M  V30 1460 C 128.88 -0.563757 3.36206 0
M  V30 1461 H 130.073 1.14535 2.77167 0
M  V30 1462 H 127.626 0.631421 1.42978 0
M  V30 1463 H 128.361 -1.42266 2.91429 0
M  V30 1464 H 128.146 0.0386749 3.92081 0
M  V30 1465 H 129.636 -0.940386 4.06874 0
M  V30 1466 N 130.073 -1.45103 0.615059 0
M  V30 1467 C 131.322 -2.01396 0.110718 0
M  V30 1468 C 131.635 -1.48834 -1.26916 0
M  V30 1469 O 132.841 -1.97152 -1.86664 0
M  V30 1470 C 131.297 -3.59599 0.14723 0
M  V30 1471 C 130.905 -4.21158 1.52743 0
M  V30 1472 C 132.649 -4.23428 -0.30148 0
M  V30 1473 C 130.556 -5.71535 1.51992 0
M  V30 1474 H 129.486 -0.753061 0.0376241 0
M  V30 1475 H 132.137 -1.66494 0.77149 0
M  V30 1476 H 130.519 -3.91724 -0.580339 0
M  V30 1477 H 131.693 -4.00594 2.2773 0
M  V30 1478 H 130.008 -3.69552 1.91886 0
M  V30 1479 H 132.605 -5.33703 -0.326392 0
M  V30 1480 H 132.948 -3.94629 -1.32565 0
M  V30 1481 H 133.481 -3.96047 0.373065 0
M  V30 1482 H 130.22 -6.05044 2.52193 0
M  V30 1483 H 129.74 -5.94268 0.81274 0
M  V30 1484 H 131.419 -6.34873 1.24681 0
M  V30 1485 N 131.551 -0.354651 -1.53558 0
M  V30 1486 C 132.779 0.239515 -2.05509 0
M  V30 1487 C 133.194 1.4333 -1.2289 0
M  V30 1488 O 132.551 1.80538 -0.266899 0
M  V30 1489 C 132.602 0.643719 -3.55723 0
M  V30 1490 O 132.323 -0.502602 -4.35207 0
M  V30 1491 C 133.824 1.29743 -4.23889 0
M  V30 1492 H 131.044 0.0442697 -0.669538 0
M  V30 1493 H 133.588 -0.509856 -1.98042 0
M  V30 1494 H 131.743 1.34302 -3.63376 0
M  V30 1495 H 132.157 -0.178172 -5.24197 0
M  V30 1496 H 133.631 1.53091 -5.30346 0
M  V30 1497 H 134.108 2.25441 -3.76926 0
M  V30 1498 H 134.714 0.639865 -4.20459 0
M  V30 1499 N 133.029 1.57378 -0.0835403 0
M  V30 1500 C 134.259 1.97975 0.590713 0
M  V30 1501 C 134.667 0.961083 1.62972 0
M  V30 1502 O 134.01 -0.0590879 1.83605 0
M  V30 1503 C 134.072 3.34915 1.3066 0
M  V30 1504 C 133.736 4.55069 0.419698 0
M  V30 1505 C 134.733 5.18868 -0.32749 0
M  V30 1506 C 132.418 5.0114 0.341137 0
M  V30 1507 C 134.412 6.27098 -1.14134 0
M  V30 1508 C 132.099 6.0924 -0.476374 0
M  V30 1509 C 133.097 6.72083 -1.21627 0
M  V30 1510 O 132.785 7.781 -2.02028 0
M  V30 1511 H 132.517 0.655818 0.163947 0
M  V30 1512 H 135.071 2.04807 -0.156021 0
M  V30 1513 H 133.301 3.24733 2.09966 0
M  V30 1514 H 134.99 3.60037 1.87424 0
M  V30 1515 H 135.756 4.84211 -0.276459 0
M  V30 1516 H 131.635 4.51996 0.90668 0
M  V30 1517 H 135.179 6.7608 -1.71935 0
M  V30 1518 H 131.076 6.43329 -0.528927 0
M  V30 1519 H 131.844 7.95034 -1.94586 0
M  V30 1520 N 134.507 -0.190092 1.56449 0
M  V30 1521 C 135.735 -0.925772 1.85033 0
M  V30 1522 C 136.15 -1.76638 0.666658 0
M  V30 1523 O 135.507 -1.78822 -0.364565 0
M  V30 1524 C 135.558 -1.81786 3.12468 0
M  V30 1525 O 135.279 -1.01118 4.26271 0
M  V30 1526 C 136.78 -2.6648 3.54265 0
M  V30 1527 H 134 -0.269872 0.614337 0
M  V30 1528 H 136.544 -0.195837 2.0356 0
M  V30 1529 H 134.699 -2.50136 2.95822 0
M  V30 1530 H 135.113 -1.61956 4.98869 0
M  V30 1531 H 136.587 -3.24722 4.46385 0
M  V30 1532 H 137.064 -3.40434 2.77491 0
M  V30 1533 H 137.67 -2.03493 3.73458 0
M  V30 1534 N 135.985 -1.50799 -0.457987 0
M  V30 1535 C 137.401 -1.38515 -0.792819 0
M  V30 1536 C 137.601 -0.451409 -1.96379 0
M  V30 1537 O 136.657 0.10112 -2.52297 0
M  V30 1538 C 137.97 -2.80149 -1.09258 0
M  V30 1539 C 139.518 -2.89156 -1.19825 0
M  V30 1540 C 139.993 -4.31651 -1.53106 0
M  V30 1541 N 141.484 -4.34662 -1.60072 0
M  V30 1542 C 142.219 -5.41928 -1.87354 0
M  V30 1543 N 141.715 -6.59384 -2.12568 0
M  V30 1544 N 143.508 -5.29385 -1.88965 0
M  V30 1545 H 135.659 -2.10073 0.313511 0
M  V30 1546 H 137.922 -0.944803 0.0777862 0
M  V30 1547 H 137.628 -3.50374 -0.305084 0
M  V30 1548 H 137.502 -3.18204 -2.02549 0
M  V30 1549 H 139.889 -2.19141 -1.97639 0
M  V30 1550 H 139.97 -2.54626 -0.244821 0
M  V30 1551 H 139.614 -5.02208 -0.758266 0
M  V30 1552 H 139.544 -4.63678 -2.49621 0
M  V30 1553 H 142.035 -3.49973 -1.42573 0
M  V30 1554 H 142.348 -7.36934 -2.32696 0
M  V30 1555 H 140.693 -6.62535 -2.09933 0
M  V30 1556 H 143.884 -4.36616 -1.68772 0
M  V30 1557 H 144.057 -6.13066 -2.09891 0
M  V30 1558 N 137.463 0.71206 -1.40597 0
M  V30 1559 C 138.711 1.46907 -1.38791 0
M  V30 1560 C 139.032 1.94998 0.00780391 0
M  V30 1561 O 138.302 1.70587 0.963174 0
M  V30 1562 H 136.882 0.545043 -0.51082 0
M  V30 1563 H 139.544 0.843882 -1.75683 0
M  V30 1564 H 138.64 2.34021 -2.06496 0
M  V30 1565 N 138.941 1.26152 0.944643 0
M  V30 1566 C 140.357 1.03189 1.21754 0
M  V30 1567 C 140.557 -0.245112 2.00004 0
M  V30 1568 O 139.613 -0.955176 2.33736 0
M  V30 1569 C 140.926 2.26119 1.98219 0
M  V30 1570 C 142.474 2.30984 2.11224 0
M  V30 1571 C 142.949 3.53597 2.91089 0
M  V30 1572 N 144.44 3.54053 2.98664 0
M  V30 1573 C 145.175 4.45593 3.60881 0
M  V30 1574 N 144.671 5.47416 4.24626 0
M  V30 1575 N 146.464 4.33252 3.58119 0
M  V30 1576 H 138.615 2.08177 0.421437 0
M  V30 1577 H 140.878 0.914723 0.248969 0
M  V30 1578 H 140.584 3.18984 1.48128 0
M  V30 1579 H 140.458 2.3009 2.98895 0
M  V30 1580 H 142.845 1.38635 2.60508 0
M  V30 1581 H 142.926 2.31026 1.09821 0
M  V30 1582 H 142.57 4.46273 2.42493 0
M  V30 1583 H 142.5 3.50802 3.92741 0
M  V30 1584 H 144.991 2.80403 2.53343 0
M  V30 1585 H 145.304 6.13459 4.69987 0
M  V30 1586 H 143.649 5.51278 4.23223 0
M  V30 1587 H 146.84 3.52924 3.0751 0
M  V30 1588 H 147.013 5.04786 4.06319 0
M  V30 1589 N 140.419 -1.14872 1.07899 0
M  V30 1590 C 141.366 -2.19791 0.704319 0
M  V30 1591 C 142.336 -1.63238 -0.306987 0
M  V30 1592 O 143.521 -1.8983 -0.192171 0
M  V30 1593 C 140.661 -3.44911 0.114244 0
M  V30 1594 C 139.774 -4.15637 1.1777 0
M  V30 1595 C 138.909 -5.28324 0.552037 0
M  V30 1596 C 137.948 -5.90875 1.59789 0
M  V30 1597 N 137.085 -6.95022 0.994404 0
M  V30 1598 H 141.925 -2.5119 1.60336 0
M  V30 1599 H 139.462 -1.23356 0.801352 0
M  V30 1600 H 141.42 -4.16477 -0.245544 0
M  V30 1601 H 140.05 -3.14011 -0.74813 0
M  V30 1602 H 139.102 -3.42512 1.65499 0
M  V30 1603 H 140.414 -4.5823 1.97046 0
M  V30 1604 H 139.568 -6.06538 0.1402 0
M  V30 1605 H 138.307 -4.86939 -0.272431 0
M  V30 1606 H 137.312 -5.11369 2.01945 0
M  V30 1607 H 138.537 -6.34337 2.42474 0
M  V30 1608 H 136.483 -6.55722 0.190939 0
M  V30 1609 H 136.4 -7.36073 1.72432 0
M  V30 1610 H 137.668 -7.77123 0.608253 0
M  V30 1611 N 141.898 -0.863906 -1.31812 0
M  V30 1612 C 143.126 -0.486111 -2.01108 0
M  V30 1613 C 143.541 0.919755 -1.64882 0
M  V30 1614 O 142.898 1.60162 -0.874893 0
M  V30 1615 C 142.949 -0.626435 -3.56031 0
M  V30 1616 O 142.67 -1.97693 -3.90959 0
M  V30 1617 C 144.171 -0.248857 -4.42601 0
M  V30 1618 H 141.391 -0.190052 -0.643523 0
M  V30 1619 H 143.935 -1.1634 -1.68182 0
M  V30 1620 H 142.09 0.00322717 -3.874 0
M  V30 1621 H 142.504 -1.98034 -4.85678 0
M  V30 1622 H 143.978 -0.398016 -5.50563 0
M  V30 1623 H 144.455 0.811489 -4.31638 0
M  V30 1624 H 145.061 -0.853971 -4.16638 0
M  V30 1625 N 143.376 1.44774 -0.622745 0
M  V30 1626 C 144.604 2.06487 -0.130722 0
M  V30 1627 C 145.019 1.46476 1.19123 0
M  V30 1628 O 144.376 0.584502 1.72887 0
M  V30 1629 C 144.427 3.615 -0.000807207 0
M  V30 1630 O 144.148 4.19274 -1.27048 0
M  V30 1631 C 145.649 4.40229 0.520898 0
M  V30 1632 H 142.869 0.666704 -0.0758106 0
M  V30 1633 H 145.413 1.85779 -0.854774 0
M  V30 1634 H 143.568 3.81498 0.673643 0
M  V30 1635 H 143.982 5.12622 -1.1099 0
M  V30 1636 H 145.456 5.49144 0.560838 0
M  V30 1637 H 145.933 4.1108 1.54627 0
M  V30 1638 H 146.539 4.25131 -0.120018 0
M  V30 1639 N 144.854 0.36279 1.53368 0
M  V30 1640 C 145.786 -0.519668 2.23231 0
M  V30 1641 C 146.799 -1.04844 1.24546 0
M  V30 1642 O 147.988 -0.955296 1.50786 0
M  V30 1643 C 145.088 -1.72995 2.9142 0
M  V30 1644 C 144.261 -1.33316 4.16588 0
M  V30 1645 C 143.32 -2.40521 4.68013 0
M  V30 1646 O 142.346 -2.03027 5.3176 0
M  V30 1647 N 143.548 -3.72065 4.45587 0
M  V30 1648 H 146.313 0.078751 2.99597 0
M  V30 1649 H 143.874 0.187833 1.60807 0
M  V30 1650 H 145.866 -2.44184 3.22733 0
M  V30 1651 H 144.436 -2.2353 2.18525 0
M  V30 1652 H 143.656 -0.451236 3.91609 0
M  V30 1653 H 144.944 -1.04432 4.97967 0
M  V30 1654 H 144.342 -4.05304 3.94646 0
M  V30 1655 H 142.899 -4.39366 4.81457 0
M  V30 1656 N 146.332 -1.57332 0.0918853 0
M  V30 1657 C 147.557 -1.98995 -0.584442 0
M  V30 1658 C 147.982 -0.970528 -1.61128 0
M  V30 1659 O 147.34 0.0613904 -1.81196 0
M  V30 1660 C 147.388 -3.39636 -1.21161 0
M  V30 1661 O 146.492 -3.40447 -2.32744 0
M  V30 1662 H 145.833 -0.647165 -0.148572 0
M  V30 1663 H 148.363 -2.03873 0.172347 0
M  V30 1664 H 148.373 -3.7726 -1.55367 0
M  V30 1665 H 147.048 -4.13356 -0.459313 0
M  V30 1666 H 145.625 -3.14614 -2.0018 0
M  V30 1667 N 147.81 0.181792 -1.56548 0
M  V30 1668 C 148.72 1.24538 -1.98815 0
M  V30 1669 C 149.736 1.49045 -0.897861 0
M  V30 1670 O 150.912 1.61399 -1.20467 0
M  V30 1671 C 147.977 2.56683 -2.33055 0
M  V30 1672 C 147.038 2.40131 -3.55859 0
M  V30 1673 C 146.271 3.65975 -3.88456 0
M  V30 1674 O 146.494 4.70711 -3.22161 0
M  V30 1675 O 145.428 3.6071 -4.81842 0
M  V30 1676 H 149.254 0.916647 -2.89536 0
M  V30 1677 H 146.839 0.387842 -1.44278 0
M  V30 1678 H 148.721 3.34655 -2.56094 0
M  V30 1679 H 147.396 2.89157 -1.45498 0
M  V30 1680 H 146.303 1.60226 -3.38051 0
M  V30 1681 H 147.636 2.12585 -4.43924 0
M  V30 1682 N 149.288 1.51039 0.449983 0
M  V30 1683 C 150.221 1.66105 1.56474 0
M  V30 1684 C 151.199 0.508776 1.54435 0
M  V30 1685 O 152.383 0.731005 1.73749 0
M  V30 1686 C 149.51 1.66304 2.9506 0
M  V30 1687 C 148.556 2.87346 3.15174 0
M  V30 1688 S 149.389 4.4835 2.92818 0
M  V30 1689 C 150.545 4.51274 4.33708 0
M  V30 1690 H 150.778 2.60397 1.43459 0
M  V30 1691 H 148.311 1.40565 0.638805 0
M  V30 1692 H 150.269 1.67103 3.74949 0
M  V30 1693 H 148.93 0.732108 3.05449 0
M  V30 1694 H 148.123 2.83849 4.16468 0
M  V30 1695 H 147.725 2.84223 2.43091 0
M  V30 1696 H 150.017 4.26136 5.26701 0
M  V30 1697 H 150.96 5.53017 4.42242 0
M  V30 1698 H 151.368 3.80738 4.16772 0
M  V30 1699 N 150.766 -0.704594 1.40972 0
M  V30 1700 C 151.696 -1.83124 1.44872 0
M  V30 1701 C 152.677 -1.67281 0.30838 0
M  V30 1702 O 153.862 -1.87149 0.518556 0
M  V30 1703 C 150.992 -3.21181 1.32136 0
M  V30 1704 C 149.946 -3.51714 2.43888 0
M  V30 1705 C 149.272 -4.89032 2.16222 0
M  V30 1706 C 150.572 -3.516 3.86232 0
M  V30 1707 H 152.266 -1.80117 2.39161 0
M  V30 1708 H 149.812 -0.865145 1.15114 0
M  V30 1709 H 151.765 -3.99702 1.33479 0
M  V30 1710 H 150.489 -3.24791 0.343279 0
M  V30 1711 H 149.148 -2.75539 2.41813 0
M  V30 1712 H 148.796 -4.89256 1.16778 0
M  V30 1713 H 148.496 -5.10426 2.911 0
M  V30 1714 H 150.02 -5.69873 2.19265 0
M  V30 1715 H 151.434 -4.2014 3.9007 0
M  V30 1716 H 149.831 -3.84523 4.60719 0
M  V30 1717 H 150.901 -2.50757 4.15029 0
M  V30 1718 N 152.244 -1.26651 -0.937939 0
M  V30 1719 C 153.521 -1.0313 -1.66204 0
M  V30 1720 C 153.901 0.437256 -2.06522 0
M  V30 1721 O 153.249 1.41831 -1.79154 0
M  V30 1722 C 153.459 -1.98314 -2.87181 0
M  V30 1723 C 154.807 -2.27107 -3.58758 0
M  V30 1724 O 155.831 -1.96205 -2.97291 0
M  V30 1725 O 154.69 -2.79736 -4.69479 0
M  V30 1726 H 151.784 -0.392384 -0.727986 0
M  V30 1727 H 154.33 -1.37874 -0.989382 0
M  V30 1728 H 153.102 -2.97399 -2.54302 0
M  V30 1729 H 152.725 -1.64068 -3.6217 0
M  V30 1730 N 153.722 1.14298 -1.08507 0
M  V30 1731 C 154.95 1.89219 -0.836876 0
M  V30 1732 C 155.365 1.78638 0.611054 0
M  V30 1733 O 154.722 1.14643 1.41998 0
M  V30 1734 C 154.773 3.39158 -1.25116 0
M  V30 1735 O 154.494 3.49449 -2.64229 0
M  V30 1736 C 155.995 4.31073 -1.03398 0
M  V30 1737 H 153.215 0.599328 -0.301739 0
M  V30 1738 H 155.759 1.44746 -1.44461 0
M  V30 1739 H 153.914 3.81251 -0.687514 0
M  V30 1740 H 154.328 4.42589 -2.81452 0
M  V30 1741 H 155.802 5.34646 -1.37323 0
M  V30 1742 H 156.279 4.3919 0.0289259 0
M  V30 1743 H 156.885 3.94738 -1.58311 0
M  V30 1744 N 155.201 0.870884 1.31352 0
M  V30 1745 C 156.164 0.332243 2.26779 0
M  V30 1746 C 157.164 -0.517302 1.52252 0
M  V30 1747 O 158.354 -0.326477 1.71113 0
M  V30 1748 C 155.486 -0.528066 3.36785 0
M  V30 1749 H 156.679 1.17469 2.75937 0
M  V30 1750 H 154.232 0.64655 1.423 0
M  V30 1751 H 154.967 -1.39167 2.92922 0
M  V30 1752 H 154.752 0.0802582 3.92018 0
M  V30 1753 H 156.242 -0.897179 4.07849 0
M  V30 1754 N 156.679 -1.44442 0.630414 0
M  V30 1755 C 157.589 -2.34476 -0.0761693 0
M  V30 1756 C 158.605 -1.52576 -0.836449 0
M  V30 1757 O 159.781 -1.85307 -0.788874 0
M  V30 1758 C 156.846 -3.30545 -1.04599 0
M  V30 1759 C 155.907 -4.28352 -0.28516 0
M  V30 1760 C 155.14 -5.19831 -1.20878 0
M  V30 1761 O 155.363 -5.15223 -2.44747 0
M  V30 1762 O 154.297 -5.97892 -0.693491 0
M  V30 1763 H 158.123 -2.96345 0.664324 0
M  V30 1764 H 155.708 -1.44203 0.39061 0
M  V30 1765 H 157.59 -3.89681 -1.60396 0
M  V30 1766 H 156.265 -2.7121 -1.76711 0
M  V30 1767 H 155.172 -3.72764 0.315837 0
M  V30 1768 H 156.505 -4.90605 0.395924 0
M  V30 1769 N 158.157 -0.370918 -1.53173 0
M  V30 1770 C 159.104 0.473035 -2.259 0
M  V30 1771 C 160.074 1.07311 -1.26781 0
M  V30 1772 O 161.259 1.1046 -1.55574 0
M  V30 1773 C 158.399 1.60405 -3.05556 0
M  V30 1774 C 157.512 1.02863 -4.19575 0
M  V30 1775 C 156.647 2.12918 -4.86661 0
M  V30 1776 C 155.686 1.52869 -5.92704 0
M  V30 1777 N 154.823 2.56779 -6.53459 0
M  V30 1778 H 159.663 -0.153649 -2.97604 0
M  V30 1779 H 157.2 -0.0875946 -1.46839 0
M  V30 1780 H 159.158 2.27034 -3.50016 0
M  V30 1781 H 157.788 2.20131 -2.36097 0
M  V30 1782 H 156.84 0.252465 -3.79561 0
M  V30 1783 H 158.152 0.549642 -4.95762 0
M  V30 1784 H 157.306 2.87356 -5.34333 0
M  V30 1785 H 156.045 2.6417 -4.09958 0
M  V30 1786 H 155.05 0.769479 -5.44389 0
M  V30 1787 H 156.275 1.02435 -6.7133 0
M  V30 1788 H 154.221 3.07235 -5.79606 0
M  V30 1789 H 154.138 2.13583 -7.25202 0
M  V30 1790 H 155.406 3.30903 -7.05779 0
M  V30 1791 N 159.635 1.57281 -0.100228 0
M  V30 1792 C 160.565 2.17328 0.853857 0
M  V30 1793 C 161.546 1.10804 1.2906 0
M  V30 1794 O 162.731 1.38963 1.35657 0
M  V30 1795 C 159.861 2.75772 2.11109 0
M  V30 1796 C 158.815 3.87713 1.81279 0
M  V30 1797 C 158.141 4.32882 3.13874 0
M  V30 1798 C 159.441 5.10677 1.09574 0
M  V30 1799 H 161.135 2.97305 0.353545 0
M  V30 1800 H 158.681 1.43009 0.168612 0
M  V30 1801 H 160.634 3.16433 2.78296 0
M  V30 1802 H 159.358 1.93057 2.63432 0
M  V30 1803 H 158.017 3.476 1.16489 0
M  V30 1804 H 157.665 3.47051 3.64095 0
M  V30 1805 H 157.365 5.08358 2.94696 0
M  V30 1806 H 158.889 4.7618 3.82211 0
M  V30 1807 H 160.303 5.48474 1.66879 0
M  V30 1808 H 158.7 5.91615 1.00557 0
M  V30 1809 H 159.77 4.84835 0.0793299 0
M  V30 1810 N 161.113 -0.173488 1.56642 0
M  V30 1811 C 162.338 -0.910149 1.86363 0
M  V30 1812 C 162.763 -1.75132 0.686318 0
M  V30 1813 O 162.121 -1.77595 -0.364643 0
M  V30 1814 C 162.169 -1.76447 3.14482 0
M  V30 1815 O 161.273 -2.86584 2.96553 0
M  V30 1816 H 160.614 -0.255086 0.613047 0
M  V30 1817 H 163.144 -0.172283 2.03873 0
M  V30 1818 H 163.154 -2.16483 3.45831 0
M  V30 1819 H 161.829 -1.14658 3.99783 0
M  V30 1820 H 160.406 -2.50146 2.76553 0
M  V30 1821 N 162.591 -1.51276 -0.441967 0
M  V30 1822 C 163.538 -1.72256 -1.53612 0
M  V30 1823 C 164.508 -0.564164 -1.56225 0
M  V30 1824 O 165.693 -0.798074 -1.73307 0
M  V30 1825 C 162.833 -1.84932 -2.91366 0
M  V30 1826 C 161.946 -3.12459 -2.98317 0
M  V30 1827 C 161.081 -3.15758 -4.27166 0
M  V30 1828 C 160.12 -4.37619 -4.27967 0
M  V30 1829 N 159.257 -4.38493 -5.48333 0
M  V30 1830 H 164.097 -2.65654 -1.35026 0
M  V30 1831 H 161.634 -1.31662 -0.656009 0
M  V30 1832 H 163.592 -1.90263 -3.7129 0
M  V30 1833 H 162.222 -0.949461 -3.08521 0
M  V30 1834 H 161.274 -3.1646 -2.11086 0
M  V30 1835 H 162.586 -4.02382 -2.94771 0
M  V30 1836 H 161.74 -3.19979 -5.15459 0
M  V30 1837 H 160.479 -2.23715 -4.33362 0
M  V30 1838 H 159.484 -4.33579 -3.38067 0
M  V30 1839 H 160.709 -5.30921 -4.23438 0
M  V30 1840 H 158.655 -3.49318 -5.55259 0
M  V30 1841 H 158.572 -5.22219 -5.46647 0
M  V30 1842 H 159.84 -4.469 -6.38671 0
M  V30 1843 N 164.069 0.697108 -1.41344 0
M  V30 1844 C 164.999 1.82353 -1.45841 0
M  V30 1845 C 165.98 1.67115 -0.317247 0
M  V30 1846 O 167.165 1.86871 -0.528474 0
M  V30 1847 C 164.295 3.20476 -1.33838 0
M  V30 1848 C 163.249 3.50415 -2.4575 0
M  V30 1849 C 162.575 4.87878 -2.18813 0
M  V30 1850 C 163.875 3.49546 -3.88091 0
M  V30 1851 H 165.569 1.78846 -2.40113 0
M  V30 1852 H 163.115 0.859028 -1.15571 0
M  V30 1853 H 165.068 3.98988 -1.35596 0
M  V30 1854 H 163.792 3.24604 -0.360498 0
M  V30 1855 H 162.451 2.74253 -2.43271 0
M  V30 1856 H 162.099 4.8863 -1.19371 0
M  V30 1857 H 161.799 5.08875 -2.93803 0
M  V30 1858 H 163.323 5.68702 -2.22284 0
M  V30 1859 H 164.737 4.18066 -3.92293 0
M  V30 1860 H 163.134 3.82075 -4.62751 0
M  V30 1861 H 164.204 2.48552 -4.16353 0
M  V30 1862 N 165.547 1.27147 0.931209 0
M  V30 1863 C 166.796 1.12664 1.67302 0
M  V30 1864 C 167.109 -0.327718 1.92835 0
M  V30 1865 O 168.315 -0.593392 2.64936 0
M  V30 1866 C 166.771 1.9683 3.01307 0
M  V30 1867 C 166.379 3.46901 2.83485 0
M  V30 1868 C 168.123 1.90985 3.79111 0
M  V30 1869 C 166.03 4.23279 4.13024 0
M  V30 1870 H 164.96 0.41803 0.627509 0
M  V30 1871 H 167.611 1.51539 1.03481 0
M  V30 1872 H 165.993 1.50797 3.66164 0
M  V30 1873 H 167.167 4.00773 2.27415 0
M  V30 1874 H 165.482 3.54088 2.19113 0
M  V30 1875 H 168.079 2.45328 4.75098 0
M  V30 1876 H 168.422 0.882718 4.06834 0
M  V30 1877 H 168.955 2.34895 3.21044 0
M  V30 1878 H 165.694 5.26503 3.90481 0
M  V30 1879 H 165.214 3.74186 4.6877 0
M  V30 1880 H 166.893 4.32265 4.81411 0
M  V30 1881 N 167.025 -1.13721 1.09112 0
M  V30 1882 C 167.972 -2.19031 0.727591 0
M  V30 1883 C 168.942 -1.63555 -0.289656 0
M  V30 1884 O 170.127 -1.90023 -0.172026 0
M  V30 1885 C 167.267 -3.4477 0.15082 0
M  V30 1886 C 166.38 -4.14365 1.22172 0
M  V30 1887 C 165.515 -5.27709 0.608042 0
M  V30 1888 C 164.554 -5.89147 1.66047 0
M  V30 1889 N 163.691 -6.93929 1.06806 0
M  V30 1890 H 168.531 -2.49475 1.62991 0
M  V30 1891 H 166.068 -1.22499 0.81439 0
M  V30 1892 H 168.026 -4.16714 -0.201358 0
M  V30 1893 H 166.656 -3.14787 -0.714783 0
M  V30 1894 H 165.708 -3.40737 1.69122 0
M  V30 1895 H 167.02 -4.56114 2.01895 0
M  V30 1896 H 166.174 -6.06355 0.204523 0
M  V30 1897 H 164.913 -4.872 -0.220769 0
M  V30 1898 H 163.918 -5.09198 2.07357 0
M  V30 1899 H 165.143 -6.31729 2.49189 0
M  V30 1900 H 163.089 -6.55483 0.260476 0
M  V30 1901 H 163.006 -7.34202 1.8023 0
M  V30 1902 H 164.274 -7.76434 0.690644 0
M  V30 1903 N 168.503 -0.877838 -1.30888 0
M  V30 1904 C 169.436 -0.283995 -2.26426 0
M  V30 1905 C 170.414 0.591361 -1.51465 0
M  V30 1906 O 171.598 0.54304 -1.80509 0
M  V30 1907 C 168.725 0.597129 -3.33395 0
M  V30 1908 C 167.771 -0.207937 -4.25993 0
M  V30 1909 S 168.604 -1.59158 -5.11301 0
M  V30 1910 C 169.76 -0.716791 -6.21782 0
M  V30 1911 H 169.993 -1.09383 -2.76446 0
M  V30 1912 H 167.526 -0.676828 -1.38775 0
M  V30 1913 H 169.484 1.09978 -3.95493 0
M  V30 1914 H 168.145 1.38099 -2.82113 0
M  V30 1915 H 167.338 0.464163 -5.01858 0
M  V30 1916 H 166.94 -0.642963 -3.68432 0
M  V30 1917 H 169.232 0.0692833 -6.77465 0
M  V30 1918 H 170.175 -1.44682 -6.93161 0
M  V30 1919 H 170.583 -0.280855 -5.63801 0
M  V30 1920 N 169.982 1.44106 -0.638065 0
M  V30 1921 C 171.259 1.95453 -0.0759321 0
M  V30 1922 C 171.639 1.57984 1.40015 0
M  V30 1923 O 170.987 0.857361 2.11806 0
M  V30 1924 C 171.197 3.47655 -0.306132 0
M  V30 1925 C 172.545 4.24114 -0.203008 0
M  V30 1926 O 173.569 3.55405 -0.237871 0
M  V30 1927 O 172.428 5.46381 -0.113827 0
M  V30 1928 H 169.522 0.826797 0.0183332 0
M  V30 1929 H 172.068 1.54122 -0.710251 0
M  V30 1930 H 170.84 3.68 -1.3301 0
M  V30 1931 H 170.463 3.95949 0.361991 0
M  V30 1932 N 171.46 0.379036 1.52974 0
M  V30 1933 C 172.688 -0.20679 2.05864 0
M  V30 1934 C 173.103 -1.41356 1.25155 0
M  V30 1935 O 172.46 -1.8009 0.295588 0
M  V30 1936 C 172.511 -0.587045 3.56702 0
M  V30 1937 O 172.232 0.571776 4.34353 0
M  V30 1938 C 173.733 -1.22983 4.25899 0
M  V30 1939 H 170.953 -0.0336123 0.670158 0
M  V30 1940 H 173.497 0.541298 1.97206 0
M  V30 1941 H 171.652 -1.28504 3.65466 0
M  V30 1942 H 172.066 0.261544 5.23847 0
M  V30 1943 H 173.54 -1.44635 5.32715 0
M  V30 1944 H 174.017 -2.19416 3.80465 0
M  V30 1945 H 174.623 -0.572892 4.21424 0
M  V30 1946 N 172.938 -1.57226 0.108567 0
M  V30 1947 C 173.885 -2.14756 -0.845481 0
M  V30 1948 C 174.855 -1.06971 -1.27068 0
M  V30 1949 O 176.04 -1.34827 -1.35005 0
M  V30 1950 C 173.18 -2.74298 -2.09415 0
M  V30 1951 C 172.293 -3.96358 -1.71826 0
M  V30 1952 C 171.428 -4.44021 -2.9158 0
M  V30 1953 C 170.467 -5.58637 -2.50181 0
M  V30 1954 N 169.604 -6.01091 -3.62814 0
M  V30 1955 H 174.444 -2.95961 -0.348035 0
M  V30 1956 H 171.981 -1.46226 -0.160106 0
M  V30 1957 H 173.939 -3.06945 -2.82561 0
M  V30 1958 H 172.569 -1.95801 -2.56636 0
M  V30 1959 H 171.621 -3.69939 -0.885947 0
M  V30 1960 H 172.933 -4.79504 -1.37394 0
M  V30 1961 H 172.087 -4.78522 -3.72963 0
M  V30 1962 H 170.826 -3.59803 -3.29231 0
M  V30 1963 H 169.831 -5.23751 -1.67228 0
M  V30 1964 H 171.056 -6.44613 -2.13659 0
M  V30 1965 H 169.002 -5.19817 -4.00158 0
M  V30 1966 H 168.919 -6.79066 -3.32273 0
M  V30 1967 H 170.187 -6.40227 -4.44668 0
M  V30 1968 N 174.416 0.165178 -1.56732 0
M  V30 1969 C 175.363 1.2044 -1.96883 0
M  V30 1970 C 176.333 1.43664 -0.833657 0
M  V30 1971 O 177.518 1.56302 -1.09427 0
M  V30 1972 C 174.658 2.53727 -2.33916 0
M  V30 1973 C 173.771 2.3783 -3.6064 0
M  V30 1974 C 172.906 3.64026 -3.86857 0
M  V30 1975 C 171.945 3.43088 -5.06909 0
M  V30 1976 N 171.082 4.61369 -5.29229 0
M  V30 1977 H 175.922 0.854996 -2.85471 0
M  V30 1978 H 173.459 0.41076 -1.41249 0
M  V30 1979 H 175.417 3.31419 -2.53411 0
M  V30 1980 H 174.047 2.8665 -1.48431 0
M  V30 1981 H 173.099 1.51282 -3.49024 0
M  V30 1982 H 174.411 2.18308 -4.4849 0
M  V30 1983 H 173.565 4.50152 -4.06753 0
M  V30 1984 H 172.304 3.86533 -2.97394 0
M  V30 1985 H 171.309 2.55349 -4.86906 0
M  V30 1986 H 172.534 3.21997 -5.97909 0
M  V30 1987 H 170.48 4.84084 -4.42718 0
M  V30 1988 H 170.397 4.44783 -6.11313 0
M  V30 1989 H 171.665 5.48761 -5.53608 0
M  V30 1990 N 175.894 1.51508 0.433938 0
M  V30 1991 C 177.143 1.63578 1.18005 0
M  V30 1992 C 177.456 0.359514 1.92268 0
M  V30 1993 O 178.662 0.359632 2.69108 0
M  V30 1994 C 177.118 2.88901 2.14626 0
M  V30 1995 C 176.726 4.23544 1.45995 0
M  V30 1996 C 178.47 3.10328 2.89649 0
M  V30 1997 C 176.377 5.40014 2.4112 0
M  V30 1998 H 175.307 0.609277 0.444182 0
M  V30 1999 H 177.958 1.77978 0.446773 0
M  V30 2000 H 176.34 2.68142 2.91403 0
M  V30 2001 H 177.514 4.54696 0.747532 0
M  V30 2002 H 175.829 4.08021 0.831115 0
M  V30 2003 H 178.426 3.94518 3.60915 0
M  V30 2004 H 178.769 2.23544 3.51189 0
M  V30 2005 H 179.302 3.31443 2.19978 0
M  V30 2006 H 176.041 6.29068 1.84264 0
M  V30 2007 H 175.561 5.13233 3.10406 0
M  V30 2008 H 177.24 5.72099 3.02177 0
M  V30 2009 N 177.372 -0.689602 1.41712 0
M  V30 2010 C 178.6 -1.47827 1.44758 0
M  V30 2011 C 179.015 -1.88721 0.0545703 0
M  V30 2012 O 178.372 -1.57176 -0.927463 0
M  V30 2013 C 178.423 -2.73698 2.3616 0
M  V30 2014 O 178.144 -2.34524 3.7004 0
M  V30 2015 C 179.645 -3.67389 2.48072 0
M  V30 2016 H 176.865 -0.455357 0.49284 0
M  V30 2017 H 179.409 -0.848574 1.86063 0
M  V30 2018 H 177.564 -3.32891 1.98148 0
M  V30 2019 H 177.978 -3.15701 4.18847 0
M  V30 2020 H 179.452 -4.52475 3.16181 0
M  V30 2021 H 179.929 -4.12284 1.51388 0
M  V30 2022 H 180.535 -3.14097 2.86746 0
M  V30 2023 N 178.85 -1.27639 -0.924453 0
M  V30 2024 C 179.76 -1.12466 -2.05885 0
M  V30 2025 C 180.776 -0.053869 -1.73917 0
M  V30 2026 O 181.952 -0.261012 -1.99702 0
M  V30 2027 C 179.017 -0.776768 -3.37886 0
M  V30 2028 C 178.078 -1.92878 -3.83532 0
M  V30 2029 C 177.311 -1.59739 -5.09234 0
M  V30 2030 O 177.534 -0.506782 -5.68144 0
M  V30 2031 O 176.468 -2.43761 -5.50331 0
M  V30 2032 H 180.294 -2.07671 -2.21599 0
M  V30 2033 H 177.879 -1.06857 -1.04413 0
M  V30 2034 H 179.761 -0.596229 -4.17161 0
M  V30 2035 H 178.436 0.145732 -3.23372 0
M  V30 2036 H 177.343 -2.1644 -3.0513 0
M  V30 2037 H 178.676 -2.8316 -4.02593 0
M  V30 2038 N 180.328 1.1314 -1.09713 0
M  V30 2039 C 181.744 1.36477 -0.827423 0
M  V30 2040 C 181.944 1.93654 0.556817 0
M  V30 2041 O 181 2.15791 1.31112 0
M  V30 2042 C 182.313 2.31334 -1.92106 0
M  V30 2043 C 183.861 2.44943 -1.94864 0
M  V30 2044 C 184.336 3.4311 -3.0338 0
M  V30 2045 N 185.827 3.50662 -3.02639 0
M  V30 2046 C 186.562 4.2651 -3.83246 0
M  V30 2047 N 186.058 5.05485 -4.73768 0
M  V30 2048 N 187.851 4.2184 -3.71493 0
M  V30 2049 H 180.002 0.743807 -1.9895 0
M  V30 2050 H 182.265 0.389823 -0.864143 0
M  V30 2051 H 181.971 1.96483 -2.91698 0
M  V30 2052 H 181.845 3.31381 -1.80184 0
M  V30 2053 H 184.232 2.79079 -0.959099 0
M  V30 2054 H 184.313 1.4481 -2.10864 0
M  V30 2055 H 183.957 3.09704 -4.02549 0
M  V30 2056 H 183.887 4.43055 -2.84622 0
M  V30 2057 H 186.378 2.94315 -2.37039 0
M  V30 2058 H 186.691 5.60675 -5.3185 0
M  V30 2059 H 185.036 5.04708 -4.77802 0
M  V30 2060 H 188.227 3.5922 -3.00131 0
M  V30 2061 H 188.4 4.80697 -4.3455 0
M  V30 2062 N 181.806 0.884767 1.30421 0
M  V30 2063 C 183.083 0.423185 1.90967 0
M  V30 2064 C 183.463 -1.09605 1.80416 0
M  V30 2065 O 182.811 -1.93126 1.22125 0
M  V30 2066 C 183.021 0.921056 3.36627 0
M  V30 2067 C 184.369 0.955903 4.137 0
M  V30 2068 O 185.393 0.867706 3.4547 0
M  V30 2069 O 184.252 1.08614 5.35598 0
M  V30 2070 H 181.346 0.129369 0.816819 0
M  V30 2071 H 183.892 0.973653 1.3899 0
M  V30 2072 H 182.664 1.96489 3.3839 0
M  V30 2073 H 182.287 0.349741 3.96059 0
M  V30 2074 N 183.284 -1.43765 0.645699 0
M  V30 2075 C 184.231 -2.30745 -0.0504648 0
M  V30 2076 C 185.201 -1.4432 -0.822241 0
M  V30 2077 O 186.386 -1.73202 -0.800358 0
M  V30 2078 C 183.526 -3.29802 -1.0161 0
M  V30 2079 C 182.639 -4.31326 -0.241219 0
M  V30 2080 C 181.774 -5.17469 -1.19998 0
M  V30 2081 C 180.813 -6.10691 -0.415094 0
M  V30 2082 N 179.95 -6.89483 -1.32506 0
M  V30 2083 H 184.79 -2.8973 0.697155 0
M  V30 2084 H 182.327 -1.42738 0.355563 0
M  V30 2085 H 184.285 -3.85734 -1.58949 0
M  V30 2086 H 182.915 -2.72483 -1.73069 0
M  V30 2087 H 181.967 -3.77749 0.448334 0
M  V30 2088 H 183.279 -4.9743 0.369437 0
M  V30 2089 H 182.433 -5.7799 -1.84424 0
M  V30 2090 H 181.172 -4.51473 -1.84455 0
M  V30 2091 H 180.177 -5.49265 0.242565 0
M  V30 2092 H 181.402 -6.78727 0.224966 0
M  V30 2093 H 179.348 -6.26142 -1.95657 0
M  V30 2094 H 179.265 -7.52081 -0.768783 0
M  V30 2095 H 180.533 -7.54516 -1.9577 0
M  V30 2096 N 184.763 -0.387143 -1.52771 0
M  V30 2097 C 185.71 0.449048 -2.26389 0
M  V30 2098 C 186.68 1.05961 -1.27912 0
M  V30 2099 O 187.865 1.08804 -1.56737 0
M  V30 2100 C 185.005 1.57155 -3.0724 0
M  V30 2101 C 184.118 0.984066 -4.20643 0
M  V30 2102 C 183.253 2.07745 -4.88892 0
M  V30 2103 C 182.292 1.46574 -5.94292 0
M  V30 2104 N 181.429 2.49834 -6.56146 0
M  V30 2105 H 186.269 -0.185205 -2.97424 0
M  V30 2106 H 183.806 -0.103164 -1.46738 0
M  V30 2107 H 185.764 2.23309 -3.52405 0
M  V30 2108 H 184.394 2.17615 -2.38419 0
M  V30 2109 H 183.446 0.212193 -3.79808 0
M  V30 2110 H 184.758 0.497029 -4.96318 0
M  V30 2111 H 183.912 2.81673 -5.3735 0
M  V30 2112 H 182.651 2.59807 -4.12737 0
M  V30 2113 H 181.656 0.711696 -5.45174 0
M  V30 2114 H 182.881 0.953088 -6.72379 0
M  V30 2115 H 180.827 3.0107 -5.82832 0
M  V30 2116 H 180.744 2.05879 -7.27427 0
M  V30 2117 H 182.012 3.23399 -7.09249 0
M  V30 2118 N 186.241 1.57166 -0.116904 0
M  V30 2119 C 187.518 1.86645 0.585049 0
M  V30 2120 C 187.898 1.0177 1.84949 0
M  V30 2121 O 187.246 0.0960379 2.28298 0
M  V30 2122 C 187.456 3.37736 0.879507 0
M  V30 2123 C 188.804 4.06289 1.23348 0
M  V30 2124 O 189.828 3.42743 0.969836 0
M  V30 2125 O 188.687 5.18455 1.7282 0
M  V30 2126 H 185.781 0.772593 0.295007 0
M  V30 2127 H 188.327 1.69025 -0.151249 0
M  V30 2128 H 187.099 3.91296 -0.0166136 0
M  V30 2129 H 186.722 3.6078 1.67103 0
M  V30 2130 N 187.719 -0.156864 1.56817 0
M  V30 2131 C 188.966 -0.871125 1.82805 0
M  V30 2132 C 189.294 -1.81611 0.696262 0
M  V30 2133 O 188.549 -1.93141 -0.315459 0
M  V30 2134 C 188.848 -1.68737 3.1506 0
M  V30 2135 C 188.514 -0.890045 4.42028 0
M  V30 2136 C 187.176 -0.670042 4.76512 0
M  V30 2137 C 189.528 -0.331769 5.20143 0
M  V30 2138 C 186.856 0.119104 5.86579 0
M  V30 2139 C 189.208 0.444365 6.31037 0
M  V30 2140 C 187.872 0.675035 6.64078 0
M  V30 2141 H 187.142 -0.318767 0.668931 0
M  V30 2142 H 189.789 -0.135274 1.91022 0
M  V30 2143 H 188.094 -2.49304 3.0225 0
M  V30 2144 H 189.791 -2.24331 3.3238 0
M  V30 2145 H 186.381 -1.07157 4.14988 0
M  V30 2146 H 190.565 -0.489043 4.93885 0
M  V30 2147 H 185.821 0.307417 6.10627 0
M  V30 2148 H 189.995 0.884139 6.90765 0
M  V30 2149 H 187.622 1.28839 7.49203 0
M  V30 2150 N 189.197 -1.51736 -0.425897 0
M  V30 2151 C 190.443 -1.66174 -1.17294 0
M  V30 2152 C 190.798 -0.37876 -1.88635 0
M  V30 2153 O 190.091 0.626021 -1.81084 0
M  V30 2154 C 190.285 -2.81103 -2.20717 0
M  V30 2155 C 190.114 -4.20453 -1.59529 0
M  V30 2156 C 188.884 -4.86225 -1.37525 0
M  V30 2157 C 191.082 -5.03146 -1.06528 0
M  V30 2158 N 189.064 -6.09657 -0.720537 0
M  V30 2159 C 190.435 -6.17674 -0.536506 0
M  V30 2160 C 192.49 -4.88594 -0.958127 0
M  V30 2161 C 191.193 -7.19245 0.0888917 0
M  V30 2162 C 193.219 -5.90383 -0.346608 0
M  V30 2163 C 192.581 -7.04191 0.171564 0
M  V30 2164 H 188.68 -0.661871 -0.416475 0
M  V30 2165 H 191.264 -1.88997 -0.467801 0
M  V30 2166 H 189.435 -2.59924 -2.88607 0
M  V30 2167 H 191.167 -2.84662 -2.87663 0
M  V30 2168 H 187.922 -4.44293 -1.64015 0
M  V30 2169 H 188.346 -6.75756 -0.410292 0
M  V30 2170 H 192.988 -4.0085 -1.34459 0
M  V30 2171 H 190.706 -8.06628 0.48746 0
M  V30 2172 H 194.292 -5.81194 -0.265451 0
M  V30 2173 H 193.172 -7.81606 0.637309 0
M  V30 2174 N 190.675 0.682077 -1.42076 0
M  V30 2175 C 191.924 1.43786 -1.41451 0
M  V30 2176 C 192.237 1.95574 -0.0317074 0
M  V30 2177 O 193.443 2.71326 0.0971462 0
M  V30 2178 C 191.899 2.60071 -2.48779 0
M  V30 2179 C 191.507 2.15013 -3.93031 0
M  V30 2180 C 193.251 3.37626 -2.57311 0
M  V30 2181 C 191.158 3.28336 -4.91883 0
M  V30 2182 H 190.088 0.540143 -0.526082 0
M  V30 2183 H 192.739 0.739157 -1.67955 0
M  V30 2184 H 191.121 3.32275 -2.15429 0
M  V30 2185 H 192.295 1.5001 -4.35699 0
M  V30 2186 H 190.61 1.50416 -3.88284 0
M  V30 2187 H 193.207 4.22012 -3.28345 0
M  V30 2188 H 193.55 3.83727 -1.61429 0
M  V30 2189 H 194.083 2.72488 -2.89819 0
M  V30 2190 H 190.822 2.87234 -5.89217 0
M  V30 2191 H 190.342 3.92145 -4.53853 0
M  V30 2192 H 192.021 3.93913 -5.13265 0
M  V30 2193 N 192.153 1.28127 0.917671 0
M  V30 2194 C 193.085 1.07517 2.02417 0
M  V30 2195 C 194.098 0.0281099 1.62776 0
M  V30 2196 O 195.287 0.270748 1.76435 0
M  V30 2197 C 192.387 0.610957 3.33347 0
M  V30 2198 C 191.56 1.73255 4.01624 0
M  V30 2199 C 190.619 1.26238 5.10833 0
M  V30 2200 O 189.645 1.96389 5.34247 0
M  V30 2201 N 190.847 0.123448 5.80369 0
M  V30 2202 H 193.612 2.02806 2.20658 0
M  V30 2203 H 191.173 1.19827 1.08871 0
M  V30 2204 H 193.165 0.280101 4.0373 0
M  V30 2205 H 191.735 -0.24898 3.11607 0
M  V30 2206 H 190.955 2.23319 3.24842 0
M  V30 2207 H 192.243 2.48503 4.43986 0
M  V30 2208 H 191.641 -0.461847 5.63812 0
M  V30 2209 H 190.198 -0.148158 6.51632 0
M  V30 2210 N 193.631 -1.12557 1.10312 0
M  V30 2211 C 194.561 -2.20341 0.772798 0
M  V30 2212 C 195.542 -1.68198 -0.25365 0
M  V30 2213 O 196.727 -1.93831 -0.119699 0
M  V30 2214 C 193.857 -3.46709 0.202443 0
M  V30 2215 C 192.811 -4.11996 1.15943 0
M  V30 2216 C 192.137 -5.328 0.450345 0
M  V30 2217 C 193.437 -4.5828 2.50552 0
M  V30 2218 H 195.131 -2.48229 1.674 0
M  V30 2219 H 192.677 -1.19308 0.806326 0
M  V30 2220 H 194.63 -4.2138 -0.0407752 0
M  V30 2221 H 193.354 -3.18245 -0.734001 0
M  V30 2222 H 192.013 -3.39305 1.38808 0
M  V30 2223 H 191.661 -5.00602 -0.490531 0
M  V30 2224 H 191.361 -5.7743 1.08851 0
M  V30 2225 H 192.885 -6.10219 0.215642 0
M  V30 2226 H 194.299 -5.2433 2.31843 0
M  V30 2227 H 192.696 -5.13683 3.10242 0
M  V30 2228 H 193.766 -3.72329 3.10643 0
M  V30 2229 N 195.109 -0.891671 -1.2995 0
M  V30 2230 C 196.059 -0.334811 -2.25528 0
M  V30 2231 C 197.043 0.540553 -1.51548 0
M  V30 2232 O 198.235 0.383882 -1.72787 0
M  V30 2233 C 195.364 0.44374 -3.4042 0
M  V30 2234 C 194.45 -0.44609 -4.21747 0
M  V30 2235 N 194.841 -1.54963 -4.81477 0
M  V30 2236 C 193.139 -0.242415 -4.45341 0
M  V30 2237 C 193.84 -2.10015 -5.42465 0
M  V30 2238 N 192.816 -1.39423 -5.25416 0
M  V30 2239 H 196.618 -1.17792 -2.69262 0
M  V30 2240 H 194.132 -0.741822 -1.44467 0
M  V30 2241 H 196.129 0.859362 -4.07947 0
M  V30 2242 H 194.789 1.28421 -2.98225 0
M  V30 2243 H 195.8 -1.93244 -4.80497 0
M  V30 2244 H 192.477 0.560342 -4.13723 0
M  V30 2245 H 193.867 -3.02724 -5.9984 0
M  V30 2246 N 196.587 1.43421 -0.653314 0
M  V30 2247 C 197.998 1.85065 -0.246537 0
M  V30 2248 C 198.349 1.54688 1.2069 0
M  V30 2249 O 197.474 0.995896 1.92122 0
M  V30 2250 C 198.069 3.35922 -0.440666 0
M  V30 2251 C 196.628 3.76297 -0.0882064 0
M  V30 2252 C 195.775 2.67147 -0.743484 0
M  V30 2253 H 198.726 1.33572 -0.856979 0
M  V30 2254 H 198.747 3.79204 0.313798 0
M  V30 2255 H 198.259 3.58 -1.49858 0
M  V30 2256 H 196.36 3.5983 0.96711 0
M  V30 2257 H 196.473 4.76338 -0.513738 0
M  V30 2258 H 194.837 2.54086 -0.176712 0
M  V30 2259 H 195.62 2.92053 -1.80443 0
M  V30 2260 N 198.065 0.39524 1.52563 0
M  V30 2261 C 199.012 -0.437036 2.26624 0
M  V30 2262 C 199.982 -1.05281 1.28472 0
M  V30 2263 O 201.167 -1.07971 1.57311 0
M  V30 2264 C 198.307 -1.55524 3.08069 0
M  V30 2265 C 197.42 -0.961745 4.21158 0
M  V30 2266 C 196.555 -2.05149 4.89987 0
M  V30 2267 C 195.594 -1.4342 5.95061 0
M  V30 2268 N 194.731 -2.46351 6.57462 0
M  V30 2269 H 199.571 0.200976 2.97322 0
M  V30 2270 H 197.108 0.110944 1.46681 0
M  V30 2271 H 199.066 -2.21437 3.53584 0
M  V30 2272 H 197.696 -2.16348 2.3957 0
M  V30 2273 H 196.748 -0.192048 3.79915 0
M  V30 2274 H 198.06 -0.470701 4.96574 0
M  V30 2275 H 197.214 -2.78819 5.38837 0
M  V30 2276 H 195.953 -2.57615 4.14109 0
M  V30 2277 H 194.958 -0.682774 5.45544 0
M  V30 2278 H 196.183 -0.917416 6.72875 0
M  V30 2279 H 194.129 -2.97975 5.8442 0
M  V30 2280 H 194.046 -2.02019 7.28508 0
M  V30 2281 H 195.314 -3.19633 7.10954 0
M  V30 2282 N 199.544 -1.57102 0.125237 0
M  V30 2283 C 200.491 -2.15641 -0.822655 0
M  V30 2284 C 201.461 -1.08313 -1.25927 0
M  V30 2285 O 202.646 -1.36251 -1.33567 0
M  V30 2286 C 199.786 -2.76504 -2.06494 0
M  V30 2287 C 198.899 -3.98158 -1.67612 0
M  V30 2288 C 198.034 -4.47088 -2.86854 0
M  V30 2289 C 197.073 -5.6126 -2.44242 0
M  V30 2290 N 196.21 -6.04905 -3.56419 0
M  V30 2291 H 201.05 -2.96313 -0.316625 0
M  V30 2292 H 198.587 -1.46388 -0.144588 0
M  V30 2293 H 200.545 -3.09925 -2.79289 0
M  V30 2294 H 199.175 -1.98512 -2.54545 0
M  V30 2295 H 198.227 -3.70858 -0.846661 0
M  V30 2296 H 199.539 -4.80934 -1.32301 0
M  V30 2297 H 198.693 -4.82451 -3.67867 0
M  V30 2298 H 197.432 -3.63275 -3.25396 0
M  V30 2299 H 196.437 -5.25495 -1.61663 0
M  V30 2300 H 197.662 -6.46843 -2.0681 0
M  V30 2301 H 195.608 -5.24032 -3.94623 0
M  V30 2302 H 195.525 -6.82552 -3.25051 0
M  V30 2303 H 196.793 -6.44907 -4.37853 0
M  V30 2304 N 201.022 0.148545 -1.56898 0
M  V30 2305 C 201.985 1.16736 -1.97244 0
M  V30 2306 C 202.985 1.35947 -0.858777 0
M  V30 2307 O 204.175 1.32966 -1.12542 0
M  V30 2308 C 201.307 2.52798 -2.28705 0
M  V30 2309 H 202.5 0.821279 -2.88435 0
M  V30 2310 H 200.053 0.391831 -1.51309 0
M  V30 2311 H 200.788 2.92381 -1.403 0
M  V30 2312 H 200.573 2.40216 -3.09901 0
M  V30 2313 H 202.063 3.26179 -2.60762 0
M  V30 2314 N 202.5 1.5196 0.417844 0
M  V30 2315 C 203.447 1.74678 1.50852 0
M  V30 2316 C 204.417 0.588947 1.55308 0
M  V30 2317 O 205.602 0.825544 1.72016 0
M  V30 2318 C 202.742 1.89544 2.88387 0
M  V30 2319 C 201.855 3.17166 2.93309 0
M  V30 2320 C 200.99 3.22513 4.22088 0
M  V30 2321 C 200.029 4.44372 4.20951 0
M  V30 2322 N 199.166 4.47161 5.41287 0
M  V30 2323 H 204.006 2.67768 1.30783 0
M  V30 2324 H 201.543 1.32689 0.63498 0
M  V30 2325 H 203.501 1.96146 3.68216 0
M  V30 2326 H 202.131 0.998424 3.06971 0
M  V30 2327 H 201.183 3.19778 2.06024 0
M  V30 2328 H 202.495 4.07021 2.88332 0
M  V30 2329 H 201.649 3.28139 5.10303 0
M  V30 2330 H 200.388 2.30581 4.29748 0
M  V30 2331 H 199.393 4.38902 3.31127 0
M  V30 2332 H 200.618 5.3759 4.14938 0
M  V30 2333 H 198.564 3.58108 5.49632 0
M  V30 2334 H 198.481 5.3085 5.3827 0
M  V30 2335 H 199.749 4.57005 6.3148 0
M  V30 2336 N 203.978 -0.674533 1.42435 0
M  V30 2337 C 204.941 -1.76986 1.45632 0
M  V30 2338 C 205.941 -1.5708 0.343871 0
M  V30 2339 O 207.131 -1.63367 0.604709 0
M  V30 2340 C 204.263 -3.15623 1.28822 0
M  V30 2341 H 205.456 -1.75539 2.43158 0
M  V30 2342 H 203.009 -0.884189 1.28887 0
M  V30 2343 H 203.744 -3.22696 0.322193 0
M  V30 2344 H 203.529 -3.31475 2.09444 0
M  V30 2345 H 205.019 -3.95537 1.33942 0
M  V30 2346 N 205.456 -1.28612 -0.910864 0
M  V30 2347 C 206.389 -1.07109 -2.01502 0
M  V30 2348 C 207.367 0.013706 -1.62594 0
M  V30 2349 O 208.551 -0.134796 -1.88017 0
M  V30 2350 C 205.678 -0.628255 -3.32822 0
M  V30 2351 C 204.724 -1.71012 -3.90714 0
M  V30 2352 S 205.557 -3.30676 -4.21205 0
M  V30 2353 C 206.713 -2.88234 -5.55583 0
M  V30 2354 H 206.946 -2.00591 -2.19432 0
M  V30 2355 H 204.479 -1.12633 -1.05609 0
M  V30 2356 H 206.437 -0.37946 -4.08742 0
M  V30 2357 H 205.098 0.28678 -3.12788 0
M  V30 2358 H 204.291 -1.35195 -4.85529 0
M  V30 2359 H 203.893 -1.91186 -3.21441 0
M  V30 2360 H 206.185 -2.34584 -6.35591 0
M  V30 2361 H 207.128 -3.81857 -5.96314 0
M  V30 2362 H 207.536 -2.26862 -5.16908 0
M  V30 2363 N 206.934 1.1197 -1.10907 0
M  V30 2364 C 207.867 2.16998 -0.706192 0
M  V30 2365 C 208.845 1.59903 0.294897 0
M  V30 2366 O 210.029 1.87513 0.192636 0
M  V30 2367 C 207.156 3.38673 -0.0427664 0
M  V30 2368 C 206.202 4.14414 -1.00811 0
M  V30 2369 S 207.035 4.72079 -2.52789 0
M  V30 2370 C 208.191 5.97083 -1.87731 0
M  V30 2371 H 208.424 2.50837 -1.59587 0
M  V30 2372 H 205.957 1.23508 -0.926555 0
M  V30 2373 H 207.915 4.09142 0.333668 0
M  V30 2374 H 206.576 3.03105 0.823788 0
M  V30 2375 H 205.769 5.016 -0.491259 0
M  V30 2376 H 205.371 3.49678 -1.3267 0
M  V30 2377 H 207.663 6.66599 -1.21044 0
M  V30 2378 H 208.606 6.53403 -2.72892 0
M  V30 2379 H 209.014 5.4837 -1.33979 0
M  V30 2380 N 208.412 0.89855 1.29475 0
M  V30 2381 C 209.64 0.539261 1.99749 0
M  V30 2382 C 210.055 -0.875716 1.67262 0
M  V30 2383 O 209.412 -1.57786 0.917049 0
M  V30 2384 C 209.463 0.72061 3.54245 0
M  V30 2385 O 209.184 2.07989 3.8558 0
M  V30 2386 C 210.685 0.366118 4.41786 0
M  V30 2387 H 207.905 0.207047 0.638258 0
M  V30 2388 H 210.449 1.20758 1.65039 0
M  V30 2389 H 208.604 0.0994862 3.87272 0
M  V30 2390 H 209.018 2.10841 4.80257 0
M  V30 2391 H 210.492 0.543848 5.49314 0
M  V30 2392 H 210.969 -0.696763 4.33638 0
M  V30 2393 H 211.575 0.964135 4.14228 0
M  V30 2394 N 209.89 -1.43072 0.660911 0
M  V30 2395 C 210.837 -2.30785 -0.0259884 0
M  V30 2396 C 211.807 -1.45184 -0.806888 0
M  V30 2397 O 212.992 -1.74041 -0.781943 0
M  V30 2398 C 210.132 -3.30861 -0.981067 0
M  V30 2399 C 209.245 -4.31558 -0.195458 0
M  V30 2400 C 208.38 -5.18712 -1.14503 0
M  V30 2401 C 207.419 -6.11097 -0.350299 0
M  V30 2402 N 206.556 -6.90849 -1.25186 0
M  V30 2403 H 211.396 -2.88975 0.727846 0
M  V30 2404 H 208.933 -1.42353 0.370682 0
M  V30 2405 H 210.891 -3.87399 -1.54849 0
M  V30 2406 H 209.521 -2.74304 -1.70169 0
M  V30 2407 H 208.573 -3.77252 0.488374 0
M  V30 2408 H 209.885 -4.9701 0.422176 0
M  V30 2409 H 209.039 -5.79914 -1.78284 0
M  V30 2410 H 207.778 -4.53404 -1.79656 0
M  V30 2411 H 206.783 -5.48976 0.300808 0
M  V30 2412 H 208.008 -6.7845 0.296941 0
M  V30 2413 H 205.954 -6.28182 -1.89005 0
M  V30 2414 H 205.871 -7.52854 -0.688971 0
M  V30 2415 H 207.139 -7.5655 -1.87757 0
M  V30 2416 N 211.368 -0.403325 -1.52352 0
M  V30 2417 C 212.278 0.432009 -2.30588 0
M  V30 2418 C 213.294 1.05884 -1.38075 0
M  V30 2419 O 214.47 1.06161 -1.71148 0
M  V30 2420 C 211.535 1.53669 -3.10784 0
M  V30 2421 C 210.596 0.933525 -4.19027 0
M  V30 2422 C 209.829 1.98557 -4.9539 0
M  V30 2423 O 210.052 3.20283 -4.71991 0
M  V30 2424 O 208.986 1.59504 -5.80381 0
M  V30 2425 H 212.812 -0.205739 -3.03002 0
M  V30 2426 H 210.397 -0.166675 -1.48467 0
M  V30 2427 H 212.279 2.17814 -3.60742 0
M  V30 2428 H 210.954 2.15915 -2.41169 0
M  V30 2429 H 209.861 0.254954 -3.7323 0
M  V30 2430 H 211.194 0.35508 -4.90918 0
M  V30 2431 N 212.846 1.57033 -0.133567 0
M  V30 2432 C 213.778 2.13176 0.841944 0
M  V30 2433 C 214.791 1.07794 1.22001 0
M  V30 2434 O 215.98 1.35117 1.16643 0
M  V30 2435 C 213.08 2.62847 2.13926 0
M  V30 2436 C 212.253 3.92486 1.93064 0
M  V30 2437 C 211.312 4.27605 3.0666 0
M  V30 2438 O 210.338 4.96168 2.78937 0
M  V30 2439 N 211.54 3.861 4.33483 0
M  V30 2440 H 214.305 2.97503 0.362192 0
M  V30 2441 H 211.866 1.61821 0.05042 0
M  V30 2442 H 213.858 2.83363 2.88942 0
M  V30 2443 H 212.428 1.83319 2.53205 0
M  V30 2444 H 211.648 3.80732 1.02159 0
M  V30 2445 H 212.936 4.77225 1.76447 0
M  V30 2446 H 212.334 3.30828 4.58878 0
M  V30 2447 H 210.891 4.11694 5.05323 0
M  V30 2448 N 214.325 -0.140222 1.56975 0
M  V30 2449 C 215.288 -1.15689 1.97861 0
M  V30 2450 C 216.288 -1.3549 0.865974 0
M  V30 2451 O 217.478 -1.32367 1.13246 0
M  V30 2452 C 214.61 -2.51582 2.30042 0
M  V30 2453 H 215.803 -0.805971 2.88867 0
M  V30 2454 H 213.356 -0.383801 1.51515 0
M  V30 2455 H 214.091 -2.91632 1.41849 0
M  V30 2456 H 213.876 -2.38569 3.11171 0
M  V30 2457 H 215.366 -3.24792 2.62488 0
M  V30 2458 N 215.803 -1.52179 -0.40978 0
M  V30 2459 C 216.736 -1.70196 -1.52015 0
M  V30 2460 C 217.714 -0.549542 -1.53032 0
M  V30 2461 O 218.898 -0.776815 -1.71749 0
M  V30 2462 C 216.025 -1.74069 -2.90547 0
M  V30 2463 C 215.071 -2.95601 -3.07445 0
M  V30 2464 S 215.904 -4.55956 -2.80827 0
M  V30 2465 C 217.06 -4.62614 -4.21591 0
M  V30 2466 H 217.293 -2.64109 -1.36504 0
M  V30 2467 H 214.826 -1.4221 -0.601312 0
M  V30 2468 H 216.784 -1.76985 -3.70387 0
M  V30 2469 H 215.445 -0.812835 -3.034 0
M  V30 2470 H 214.638 -2.94791 -4.08796 0
M  V30 2471 H 214.24 -2.90569 -2.35469 0
M  V30 2472 H 216.532 -4.39951 -5.15218 0
M  V30 2473 H 217.475 -5.64548 -4.27424 0
M  V30 2474 H 217.883 -3.91654 -4.06531 0
M  V30 2475 N 217.281 0.66697 -1.42791 0
M  V30 2476 C 218.211 1.79218 -1.49677 0
M  V30 2477 C 219.192 1.66405 -0.352623 0
M  V30 2478 O 220.377 1.85708 -0.567993 0
M  V30 2479 C 217.507 3.17565 -1.40605 0
M  V30 2480 C 216.461 3.45124 -2.53127 0
M  V30 2481 C 215.787 4.83127 -2.29112 0
M  V30 2482 C 217.087 3.41236 -3.95418 0
M  V30 2483 H 218.781 1.73713 -2.43853 0
M  V30 2484 H 216.327 0.83432 -1.17367 0
M  V30 2485 H 218.28 3.96022 -1.44029 0
M  V30 2486 H 217.004 3.23767 -0.429271 0
M  V30 2487 H 215.663 2.69031 -2.49034 0
M  V30 2488 H 215.311 4.85988 -1.29709 0
M  V30 2489 H 215.011 5.02528 -3.04531 0
M  V30 2490 H 216.535 5.63859 -2.34297 0
M  V30 2491 H 217.949 4.09651 -4.01073 0
M  V30 2492 H 216.346 3.72173 -4.70752 0
M  V30 2493 H 217.416 2.39665 -4.21532 0
M  V30 2494 N 218.759 1.29093 0.90403 0
M  V30 2495 C 219.722 1.1386 1.98919 0
M  V30 2496 C 220.722 0.0753457 1.60623 0
M  V30 2497 O 221.912 0.321931 1.71199 0
M  V30 2498 C 219.044 0.740198 3.32767 0
M  V30 2499 H 220.237 2.10246 2.13861 0
M  V30 2500 H 217.79 1.12218 1.08797 0
M  V30 2501 H 218.525 -0.223997 3.23525 0
M  V30 2502 H 218.31 1.50838 3.61926 0
M  V30 2503 H 219.8 0.656546 4.12407 0
M  V30 2504 N 220.237 -1.11381 1.11499 0
M  V30 2505 C 221.514 -1.7955 0.775965 0
M  V30 2506 C 221.894 -1.97859 -0.73588 0
M  V30 2507 O 221.242 -1.56376 -1.66609 0
M  V30 2508 C 221.452 -3.13196 1.53977 0
M  V30 2509 C 222.8 -3.88227 1.71944 0
M  V30 2510 O 223.824 -3.22887 1.50407 0
M  V30 2511 O 222.683 -5.05477 2.07738 0
M  V30 2512 H 219.777 -0.777728 0.28119 0
M  V30 2513 H 222.323 -1.18118 1.21845 0
M  V30 2514 H 221.095 -2.95229 2.56818 0
M  V30 2515 H 220.718 -3.82342 1.09088 0
M  V30 2516 N 221.715 -0.905404 -1.28997 0
M  V30 2517 C 222.963 -0.533192 -1.9494 0
M  V30 2518 C 223.284 0.924618 -1.71685 0
M  V30 2519 O 222.554 1.65268 -1.05183 0
M  V30 2520 H 221.134 -0.194194 -0.721317 0
M  V30 2521 H 223.796 -1.15294 -1.57141 0
M  V30 2522 H 222.892 -0.72059 -3.03667 0
M  V30 2523 N 223.193 1.4272 -0.668489 0
M  V30 2524 C 224.418 2.06484 -0.194758 0
M  V30 2525 C 224.843 1.49862 1.13679 0
M  V30 2526 O 224.201 0.614582 1.70565 0
M  V30 2527 C 224.249 3.60353 -0.133546 0
M  V30 2528 O 223.353 4.02464 0.899806 0
M  V30 2529 H 222.694 0.656137 -0.10188 0
M  V30 2530 H 225.224 1.82964 -0.915722 0
M  V30 2531 H 225.234 4.07976 0.0447041 0
M  V30 2532 H 223.909 4.00938 -1.1055 0
M  V30 2533 H 222.486 3.66402 0.693109 0
M  V30 2534 N 224.671 0.411399 1.52136 0
M  V30 2535 C 225.92 -0.165009 2.01024 0
M  V30 2536 C 226.233 -1.4603 1.30133 0
M  V30 2537 O 227.439 -2.1181 1.69849 0
M  V30 2538 C 225.895 -0.344618 3.58246 0
M  V30 2539 C 225.503 0.938716 4.38055 0
M  V30 2540 C 227.247 -0.876195 4.15359 0
M  V30 2541 C 225.154 0.726172 5.86925 0
M  V30 2542 H 224.084 -0.0654407 0.751155 0
M  V30 2543 H 226.735 0.537192 1.75461 0
M  V30 2544 H 225.117 -1.10921 3.80148 0
M  V30 2545 H 226.291 1.70963 4.27912 0
M  V30 2546 H 224.606 1.39688 3.92271 0
M  V30 2547 H 227.203 -1.05128 5.24263 0
M  V30 2548 H 227.546 -1.85152 3.7286 0
M  V30 2549 H 228.079 -0.170607 3.97434 0
M  V30 2550 H 224.818 1.67312 6.33788 0
M  V30 2551 H 224.338 -0.00540283 5.998 0
M  V30 2552 H 226.017 0.369231 6.45946 0
M  V30 2553 N 226.149 -1.5696 0.141893 0
M  V30 2554 C 227.096 -2.16501 -0.799737 0
M  V30 2555 C 228.066 -1.09643 -1.24771 0
M  V30 2556 O 229.251 -1.3766 -1.32115 0
M  V30 2557 C 226.391 -2.78679 -2.03549 0
M  V30 2558 C 225.504 -3.99914 -1.6338 0
M  V30 2559 C 224.639 -4.50106 -2.82096 0
M  V30 2560 C 223.678 -5.63819 -2.38275 0
M  V30 2561 N 222.815 -6.08651 -3.49983 0
M  V30 2562 H 227.655 -2.96632 -0.285179 0
M  V30 2563 H 225.192 -1.46533 -0.129053 0
M  V30 2564 H 227.15 -3.1287 -2.75986 0
M  V30 2565 H 225.78 -2.012 -2.52425 0
M  V30 2566 H 224.832 -3.71735 -0.807279 0
M  V30 2567 H 226.144 -4.82311 -1.27192 0
M  V30 2568 H 225.298 -4.86325 -3.62729 0
M  V30 2569 H 224.037 -3.66706 -3.21525 0
M  V30 2570 H 223.042 -5.2718 -1.56081 0
M  V30 2571 H 224.267 -6.49 -1.99938 0
M  V30 2572 H 222.213 -5.28188 -3.89042 0
M  V30 2573 H 222.13 -6.85961 -3.17794 0
M  V30 2574 H 223.398 -6.49515 -4.30988 0
M  V30 2575 N 227.627 0.131896 -1.57047 0
M  V30 2576 C 228.559 1.1878 -1.9602 0
M  V30 2577 C 229.572 1.38363 -0.857875 0
M  V30 2578 O 230.761 1.37666 -1.13623 0
M  V30 2579 C 227.861 2.55008 -2.23213 0
M  V30 2580 C 227.034 2.56201 -3.54513 0
M  V30 2581 C 226.093 3.7408 -3.70069 0
M  V30 2582 O 225.119 3.58258 -4.42312 0
M  V30 2583 N 226.321 4.92137 -3.07866 0
M  V30 2584 H 229.086 0.85639 -2.87204 0
M  V30 2585 H 226.647 0.321309 -1.5868 0
M  V30 2586 H 228.639 3.32404 -2.30846 0
M  V30 2587 H 227.209 2.80382 -1.3822 0
M  V30 2588 H 226.429 1.64613 -3.58185 0
M  V30 2589 H 227.717 2.54043 -4.4084 0
M  V30 2590 H 227.115 5.07895 -2.49116 0
M  V30 2591 H 225.672 5.67254 -3.21039 0
M  V30 2592 N 229.106 1.52395 0.401703 0
M  V30 2593 C 230.383 1.57387 1.16141 0
M  V30 2594 C 230.763 0.359359 2.08019 0
M  V30 2595 O 230.111 -0.65326 2.18963 0
M  V30 2596 C 230.321 2.90631 1.93221 0
M  V30 2597 C 231.669 3.43904 2.49028 0
M  V30 2598 O 232.693 2.92421 2.03393 0
M  V30 2599 O 231.552 4.33823 3.32356 0
M  V30 2600 H 228.646 0.634262 0.530698 0
M  V30 2601 H 231.192 1.64725 0.407883 0
M  V30 2602 H 229.964 3.70473 1.25958 0
M  V30 2603 H 229.587 2.8662 2.75563 0
M  V30 2604 N 230.584 -0.659388 1.43143 0
M  V30 2605 C 231.516 -1.7849 1.43784 0
M  V30 2606 C 232.529 -1.5932 0.334787 0
M  V30 2607 O 233.718 -1.68155 0.598842 0
M  V30 2608 C 230.818 -3.15828 1.22906 0
M  V30 2609 C 229.991 -3.61711 2.45934 0
M  V30 2610 C 229.05 -4.77831 2.20371 0
M  V30 2611 O 228.076 -4.87586 2.93681 0
M  V30 2612 N 229.278 -5.67611 1.21647 0
M  V30 2613 H 232.043 -1.7842 2.40803 0
M  V30 2614 H 229.604 -0.84302 1.3822 0
M  V30 2615 H 231.596 -3.91189 1.03697 0
M  V30 2616 H 230.166 -3.10707 0.343542 0
M  V30 2617 H 229.386 -2.76861 2.80609 0
M  V30 2618 H 230.674 -3.89112 3.27825 0
M  V30 2619 H 230.072 -5.62397 0.610449 0
M  V30 2620 H 228.629 -6.42719 1.08423 0
M  V30 2621 N 232.062 -1.29571 -0.897171 0
M  V30 2622 C 233.292 -1.20408 -1.67886 0
M  V30 2623 C 233.7 0.237429 -1.87704 0
M  V30 2624 O 233.043 1.17048 -1.41582 0
M  V30 2625 C 233.105 -1.84887 -3.08314 0
M  V30 2626 C 232.769 -3.34189 -3.11716 0
M  V30 2627 C 233.766 -4.30374 -2.91675 0
M  V30 2628 C 231.451 -3.75431 -3.33701 0
M  V30 2629 C 233.445 -5.65776 -2.93557 0
M  V30 2630 C 231.132 -5.10955 -3.35214 0
M  V30 2631 C 232.13 -6.05938 -3.15164 0
M  V30 2632 O 231.818 -7.38987 -3.1647 0
M  V30 2633 H 231.55 -0.418289 -0.531046 0
M  V30 2634 H 234.104 -1.71514 -1.13014 0
M  V30 2635 H 232.334 -1.28295 -3.64798 0
M  V30 2636 H 234.023 -1.70011 -3.6858 0
M  V30 2637 H 234.789 -3.99844 -2.74499 0
M  V30 2638 H 230.668 -3.01953 -3.48347 0
M  V30 2639 H 234.212 -6.39889 -2.77826 0
M  V30 2640 H 230.109 -5.4113 -3.51922 0
M  V30 2641 H 230.877 -7.47823 -3.3272 0
M  V30 2642 N 233.54 1.10788 -1.12088 0
M  V30 2643 C 234.817 1.79136 -0.785476 0
M  V30 2644 C 235.197 1.98246 0.725377 0
M  V30 2645 O 234.545 1.57258 1.65778 0
M  V30 2646 C 234.755 3.12375 -1.55636 0
M  V30 2647 C 236.103 3.8731 -1.74001 0
M  V30 2648 O 237.127 3.22085 -1.52117 0
M  V30 2649 O 235.986 5.04369 -2.10415 0
M  V30 2650 H 233.08 0.776226 -0.285311 0
M  V30 2651 H 235.626 1.1747 -1.2247 0
M  V30 2652 H 234.398 2.93863 -2.5838 0
M  V30 2653 H 234.021 3.81758 -1.11114 0
M  V30 2654 N 235.018 0.912232 1.28515 0
M  V30 2655 C 235.965 0.397954 2.27343 0
M  V30 2656 C 236.935 -0.526766 1.57526 0
M  V30 2657 O 238.12 -0.449292 1.85435 0
M  V30 2658 C 235.26 -0.357263 3.43246 0
M  V30 2659 C 234.373 0.599788 4.27816 0
M  V30 2660 C 233.508 -0.173725 5.30916 0
M  V30 2661 C 232.547 0.777039 6.07148 0
M  V30 2662 N 231.684 0.0371398 7.0209 0
M  V30 2663 H 236.524 1.24577 2.70711 0
M  V30 2664 H 234.061 0.625612 1.33133 0
M  V30 2665 H 236.019 -0.8113 4.09236 0
M  V30 2666 H 234.649 -1.16943 3.00872 0
M  V30 2667 H 233.701 1.17235 3.61884 0
M  V30 2668 H 235.013 1.32704 4.80823 0
M  V30 2669 H 234.167 -0.688394 6.02782 0
M  V30 2670 H 232.906 -0.934041 4.78672 0
M  V30 2671 H 231.911 1.3031 5.34134 0
M  V30 2672 H 233.136 1.53689 6.61481 0
M  V30 2673 H 231.082 -0.705213 6.52198 0
M  V30 2674 H 230.999 0.704249 7.52713 0
M  V30 2675 H 232.267 -0.457383 7.78157 0
M  V30 2676 N 236.496 -1.42363 0.676048 0
M  V30 2677 C 237.428 -2.29164 -0.0404605 0
M  V30 2678 C 238.441 -1.43747 -0.764245 0
M  V30 2679 O 239.63 -1.67453 -0.618195 0
M  V30 2680 C 236.73 -3.21196 -1.08103 0
M  V30 2681 C 235.903 -4.35273 -0.430812 0
M  V30 2682 C 234.962 -5.08017 -1.37133 0
M  V30 2683 O 233.988 -5.62494 -0.87116 0
M  V30 2684 N 235.19 -5.13647 -2.70456 0
M  V30 2685 H 237.955 -2.91298 0.704667 0
M  V30 2686 H 235.516 -1.53303 0.520559 0
M  V30 2687 H 237.508 -3.66728 -1.71152 0
M  V30 2688 H 236.078 -2.60505 -1.72788 0
M  V30 2689 H 235.298 -3.92372 0.379209 0
M  V30 2690 H 236.586 -5.08795 0.0221132 0
M  V30 2691 H 235.984 -4.708 -3.1363 0
M  V30 2692 H 234.541 -5.62821 -3.28749 0
M  V30 2693 N 237.974 -0.419461 -1.51915 0
M  V30 2694 C 238.904 0.391813 -2.30189 0
M  V30 2695 C 239.885 1.03699 -1.34836 0
M  V30 2696 O 241.07 1.04403 -1.63748 0
M  V30 2697 C 238.2 1.50312 -3.13087 0
M  V30 2698 C 237.154 0.9824 -4.16573 0
M  V30 2699 C 236.48 2.18809 -4.8788 0
M  V30 2700 C 237.78 0.0292356 -5.22292 0
M  V30 2701 H 239.474 -0.26135 -2.98257 0
M  V30 2702 H 237.02 -0.127134 -1.43438 0
M  V30 2703 H 238.973 2.07773 -3.66617 0
M  V30 2704 H 237.697 2.18431 -2.42807 0
M  V30 2705 H 236.356 0.430119 -3.64068 0
M  V30 2706 H 236.004 2.85507 -4.14119 0
M  V30 2707 H 235.704 1.84615 -5.57845 0
M  V30 2708 H 237.228 2.76858 -5.44226 0
M  V30 2709 H 238.642 0.512976 -5.71 0
M  V30 2710 H 237.039 -0.2244 -5.9968 0
M  V30 2711 H 238.109 -0.912931 -4.76228 0
M  V30 2712 N 239.452 1.56882 -0.150215 0
M  V30 2713 C 240.382 2.19935 0.784284 0
M  V30 2714 C 241.363 1.14854 1.25469 0
M  V30 2715 O 242.548 1.43209 1.31168 0
M  V30 2716 C 239.678 2.82349 2.02229 0
M  V30 2717 C 238.632 3.93285 1.68853 0
M  V30 2718 C 237.958 4.42649 2.99944 0
M  V30 2719 C 239.258 5.13904 0.932714 0
M  V30 2720 H 240.952 2.9828 0.258781 0
M  V30 2721 H 238.498 1.43473 0.123029 0
M  V30 2722 H 240.451 3.25126 2.68088 0
M  V30 2723 H 239.175 2.0134 2.57157 0
M  V30 2724 H 237.834 3.5113 1.05371 0
M  V30 2725 H 237.482 3.58458 3.52869 0
M  V30 2726 H 237.182 5.17476 2.78374 0
M  V30 2727 H 238.706 4.88099 3.66868 0
M  V30 2728 H 240.12 5.53506 1.49345 0
M  V30 2729 H 238.517 5.94515 0.81684 0
M  V30 2730 H 239.587 4.84842 -0.0749568 0
M  V30 2731 N 240.93 -0.123565 1.57115 0
M  V30 2732 C 242.155 -0.850398 1.89164 0
M  V30 2733 C 242.58 -1.7286 0.741688 0
M  V30 2734 O 241.938 -1.78665 -0.307958 0
M  V30 2735 C 241.986 -1.66353 3.19936 0
M  V30 2736 O 241.09 -2.77004 3.0552 0
M  V30 2737 H 240.431 -0.235454 0.620852 0
M  V30 2738 H 242.961 -0.107335 2.04318 0
M  V30 2739 H 242.971 -2.05372 3.52543 0
M  V30 2740 H 241.646 -1.01881 4.03228 0
M  V30 2741 H 240.223 -2.41221 2.84371 0
M  V30 2742 N 242.408 -1.52605 -0.393616 0
M  V30 2743 C 243.355 -1.77055 -1.48054 0
M  V30 2744 C 244.325 -0.61358 -1.54352 0
M  V30 2745 O 245.51 -0.852806 -1.70681 0
M  V30 2746 C 242.65 -1.94108 -2.85335 0
M  V30 2747 C 241.763 -3.21792 -2.88226 0
M  V30 2748 C 240.898 -3.29188 -4.16904 0
M  V30 2749 C 239.937 -4.51013 -4.13828 0
M  V30 2750 N 239.074 -4.55716 -5.34105 0
M  V30 2751 H 243.914 -2.69815 -1.26506 0
M  V30 2752 H 241.451 -1.33683 -0.61379 0
M  V30 2753 H 243.409 -2.01979 -3.65049 0
M  V30 2754 H 242.039 -1.04713 -3.05344 0
M  V30 2755 H 241.091 -3.23015 -2.00911 0
M  V30 2756 H 242.403 -4.11557 -2.8182 0
M  V30 2757 H 241.557 -3.36216 -5.05018 0
M  V30 2758 H 240.296 -2.37389 -4.26026 0
M  V30 2759 H 239.301 -4.44115 -3.24102 0
M  V30 2760 H 240.526 -5.44123 -4.06333 0
M  V30 2761 H 238.472 -3.66807 -5.43865 0
M  V30 2762 H 238.389 -5.39346 -5.29756 0
M  V30 2763 H 239.657 -4.66993 -6.2413 0
M  V30 2764 N 243.887 0.651787 -1.4349 0
M  V30 2765 C 245.136 1.40754 -1.44469 0
M  V30 2766 C 245.449 1.95463 -0.0731845 0
M  V30 2767 O 246.655 2.71471 0.0395721 0
M  V30 2768 C 245.111 2.54735 -2.5424 0
M  V30 2769 C 244.719 2.06628 -3.97504 0
M  V30 2770 C 246.463 3.32092 -2.64414 0
M  V30 2771 C 244.37 3.17829 -4.98737 0
M  V30 2772 H 243.3 0.528862 -0.53742 0
M  V30 2773 H 245.951 0.703365 -1.69485 0
M  V30 2774 H 244.333 3.2763 -2.22428 0
M  V30 2775 H 245.507 1.40734 -4.38783 0
M  V30 2776 H 243.822 1.42146 -3.91387 0
M  V30 2777 H 246.419 4.14952 -3.37223 0
M  V30 2778 H 246.762 3.80217 -1.69532 0
M  V30 2779 H 247.295 2.66279 -2.95534 0
M  V30 2780 H 244.034 2.74671 -5.95177 0
M  V30 2781 H 243.554 3.82429 -4.62069 0
M  V30 2782 H 245.233 3.82937 -5.21505 0
M  V30 2783 N 245.365 1.30045 0.890287 0
M  V30 2784 C 246.613 1.18327 1.63839 0
M  V30 2785 C 246.934 -0.263455 1.93212 0
M  V30 2786 O 246.204 -1.17856 1.56482 0
M  V30 2787 H 244.784 0.434933 0.607324 0
M  V30 2788 H 247.446 1.631 1.06698 0
M  V30 2789 H 246.542 1.74024 2.59079 0
M  V30 2790 N 246.843 -1.10192 1.12674 0
M  V30 2791 C 247.79 -2.16606 0.796906 0
M  V30 2792 C 248.76 -1.64394 -0.237476 0
M  V30 2793 O 249.945 -1.90474 -0.111484 0
M  V30 2794 C 247.085 -3.44116 0.26043 0
M  V30 2795 C 246.198 -4.10268 1.35293 0
M  V30 2796 C 245.333 -5.25507 0.775621 0
M  V30 2797 C 244.372 -5.83567 1.84706 0
M  V30 2798 N 243.509 -6.90179 1.28829 0
M  V30 2799 H 248.349 -2.44163 1.70846 0
M  V30 2800 H 245.886 -1.19846 0.85295 0
M  V30 2801 H 247.844 -4.17143 -0.0686814 0
M  V30 2802 H 246.474 -3.16901 -0.614274 0
M  V30 2803 H 245.526 -3.35184 1.79877 0
M  V30 2804 H 246.838 -4.4946 2.16303 0
M  V30 2805 H 245.992 -6.05398 0.397327 0
M  V30 2806 H 244.731 -4.87656 -0.0656581 0
M  V30 2807 H 243.736 -5.02344 2.23452 0
M  V30 2808 H 244.961 -6.23482 2.69161 0
M  V30 2809 H 242.907 -6.54322 0.468881 0
M  V30 2810 H 242.824 -7.28097 2.03497 0
M  V30 2811 H 244.092 -7.73844 0.937311 0
M  V30 2812 N 248.321 -0.919034 -1.28029 0
M  V30 2813 C 249.546 -0.570357 -1.99403 0
M  V30 2814 C 249.971 0.842486 -1.68178 0
M  V30 2815 O 249.329 1.56391 -0.917141 0
M  V30 2816 C 249.377 -0.792541 -3.51783 0
M  V30 2817 O 248.481 0.145988 -4.12142 0
M  V30 2818 H 247.822 -0.220555 -0.6263 0
M  V30 2819 H 250.352 -1.23592 -1.63053 0
M  V30 2820 H 250.362 -0.704708 -4.01868 0
M  V30 2821 H 249.037 -1.82247 -3.73844 0
M  V30 2822 H 247.614 0.00897528 -3.72899 0
M  V30 2823 N 249.799 1.42003 -0.683588 0
M  V30 2824 C 250.731 2.29183 0.0283068 0
M  V30 2825 C 251.744 1.4415 0.756611 0
M  V30 2826 O 252.933 1.67779 0.609306 0
M  V30 2827 C 250.033 3.21765 1.06398 0
M  V30 2828 C 249.206 4.35496 0.407723 0
M  V30 2829 C 248.265 5.08737 1.34437 0
M  V30 2830 O 247.291 5.62948 0.841318 0
M  V30 2831 N 248.493 5.15075 2.67728 0
M  V30 2832 H 251.258 2.9092 -0.720105 0
M  V30 2833 H 248.819 1.53025 -0.528682 0
M  V30 2834 H 250.811 3.6763 1.69204 0
M  V30 2835 H 249.381 2.61418 1.71404 0
M  V30 2836 H 248.601 3.92165 -0.400012 0
M  V30 2837 H 249.889 5.08776 -0.0490956 0
M  V30 2838 H 249.287 4.72457 3.11129 0
M  V30 2839 H 247.844 5.64556 3.2576 0
M  V30 2840 N 251.277 0.427512 1.51691 0
M  V30 2841 C 252.207 -0.3796 2.30394 0
M  V30 2842 C 253.188 -1.02982 1.35384 0
M  V30 2843 O 254.373 -1.03534 1.643 0
M  V30 2844 C 251.503 -1.48649 3.1388 0
M  V30 2845 C 250.457 -0.960294 4.17088 0
M  V30 2846 C 249.783 -2.16219 4.89033 0
M  V30 2847 C 251.083 -0.00153679 5.223 0
M  V30 2848 H 252.777 0.277164 2.98114 0
M  V30 2849 H 250.323 0.134739 1.43368 0
M  V30 2850 H 252.276 -2.05826 3.67714 0
M  V30 2851 H 251 -2.1714 2.43962 0
M  V30 2852 H 249.659 -0.410806 3.64291 0
M  V30 2853 H 249.307 -2.83307 4.15628 0
M  V30 2854 H 249.007 -1.81654 5.58816 0
M  V30 2855 H 250.531 -2.73968 5.45687 0
M  V30 2856 H 251.945 -0.482687 5.71264 0
M  V30 2857 H 250.342 0.256199 5.99553 0
M  V30 2858 H 251.412 0.938174 4.75738 0
M  V30 2859 N 252.755 -1.56801 0.158532 0
M  V30 2860 C 254.032 -1.88131 -0.535357 0
M  V30 2861 C 254.412 -1.06638 -1.82186 0
M  V30 2862 O 253.76 -0.156533 -2.27963 0
M  V30 2863 C 253.97 -3.39949 -0.789653 0
M  V30 2864 C 255.318 -4.09416 -1.12533 0
M  V30 2865 O 256.342 -3.45194 -0.878622 0
M  V30 2866 O 255.201 -5.22855 -1.59014 0
M  V30 2867 H 252.295 -0.780143 -0.27442 0
M  V30 2868 H 254.841 -1.68564 0.19601 0
M  V30 2869 H 253.613 -3.91115 0.120353 0
M  V30 2870 H 253.236 -3.65084 -1.57479 0
M  V30 2871 N 254.233 0.115231 -1.57178 0
M  V30 2872 C 255.143 1.15994 -2.03918 0
M  V30 2873 C 256.159 1.45103 -0.960268 0
M  V30 2874 O 257.335 1.56144 -1.27204 0
M  V30 2875 C 254.4 2.46568 -2.43732 0
M  V30 2876 C 253.461 2.24822 -3.65723 0
M  V30 2877 C 252.694 3.4917 -4.03629 0
M  V30 2878 O 252.917 4.56623 -3.41835 0
M  V30 2879 O 251.851 3.39949 -4.96708 0
M  V30 2880 H 255.677 0.793019 -2.93164 0
M  V30 2881 H 253.262 0.3263 -1.45793 0
M  V30 2882 H 255.144 3.23492 -2.70057 0
M  V30 2883 H 253.819 2.82726 -1.57631 0
M  V30 2884 H 252.726 1.45744 -3.44542 0
M  V30 2885 H 254.059 1.93566 -4.52541 0
M  V30 2886 N 255.711 1.52812 0.385517 0
M  V30 2887 C 256.641 1.80808 1.47752 0
M  V30 2888 C 257.622 0.660318 1.5676 0
M  V30 2889 O 258.807 0.908246 1.71652 0
M  V30 2890 C 255.937 1.98008 2.85324 0
M  V30 2891 C 254.891 3.13709 2.91154 0
M  V30 2892 C 254.217 3.16169 4.31209 0
M  V30 2893 C 255.517 4.52709 2.60483 0
M  V30 2894 H 257.211 2.72253 1.24573 0
M  V30 2895 H 254.757 1.31003 0.597839 0
M  V30 2896 H 256.71 2.16176 3.61726 0
M  V30 2897 H 255.434 1.03255 3.09848 0
M  V30 2898 H 254.093 2.95329 2.17201 0
M  V30 2899 H 253.741 2.19092 4.52778 0
M  V30 2900 H 253.441 3.93894 4.36029 0
M  V30 2901 H 254.965 3.36496 5.09512 0
M  V30 2902 H 256.379 4.71173 3.26602 0
M  V30 2903 H 254.776 5.32528 2.76648 0
M  V30 2904 H 255.846 4.59186 1.55809 0
M  V30 2905 N 257.189 -0.644168 1.43834 0
M  V30 2906 C 258.414 -1.43642 1.49605 0
M  V30 2907 C 258.839 -1.8773 0.117913 0
M  V30 2908 O 258.197 -1.57938 -0.890239 0
M  V30 2909 C 258.245 -2.6416 2.45463 0
M  V30 2910 O 257.349 -3.63538 1.94714 0
M  V30 2911 H 256.69 -0.430329 0.50568 0
M  V30 2912 H 259.22 -0.787448 1.8884 0
M  V30 2913 H 259.23 -3.11864 2.63068 0
M  V30 2914 H 257.905 -2.31414 3.45572 0
M  V30 2915 H 256.482 -3.2273 1.86814 0
M  V30 2916 N 258.668 -1.30515 -0.883378 0
M  V30 2917 C 259.893 -1.22487 -1.67367 0
M  V30 2918 C 260.318 0.208767 -1.86938 0
M  V30 2919 O 259.676 1.15015 -1.40148 0
M  V30 2920 C 259.724 -1.96041 -3.02655 0
M  V30 2921 O 258.828 -1.28859 -3.91751 0
M  V30 2922 H 258.169 -0.423573 -0.511353 0
M  V30 2923 H 260.699 -1.72362 -1.10239 0
M  V30 2924 H 260.709 -2.05124 -3.52687 0
M  V30 2925 H 259.384 -3.00307 -2.8773 0
M  V30 2926 H 257.961 -1.28141 -3.50192 0
M  V30 2927 N 260.146 1.09593 -1.13257 0
M  V30 2928 C 261.093 2.1618 -0.808381 0
M  V30 2929 C 262.063 1.64517 0.228754 0
M  V30 2930 O 263.248 1.9053 0.101381 0
M  V30 2931 C 260.388 3.43973 -0.278675 0
M  V30 2932 C 259.501 4.09545 -1.37466 0
M  V30 2933 C 258.636 5.25088 -0.803479 0
M  V30 2934 C 257.675 5.82579 -1.87799 0
M  V30 2935 N 256.812 6.89486 -1.32488 0
M  V30 2936 H 261.652 2.43254 -1.72138 0
M  V30 2937 H 259.189 1.19392 -0.859294 0
M  V30 2938 H 261.147 4.17174 0.0465583 0
M  V30 2939 H 259.777 3.17223 0.597459 0
M  V30 2940 H 258.829 3.34226 -1.81652 0
M  V30 2941 H 260.141 4.48307 -2.18684 0
M  V30 2942 H 259.295 6.05178 -0.429427 0
M  V30 2943 H 258.034 4.87684 0.0397956 0
M  V30 2944 H 257.039 5.01152 -2.26113 0
M  V30 2945 H 258.264 6.22045 -2.72463 0
M  V30 2946 H 256.21 6.54064 -0.503575 0
M  V30 2947 H 256.127 7.27007 -2.07355 0
M  V30 2948 H 257.395 7.73336 -0.978336 0
M  V30 2949 N 261.624 0.925811 1.2754 0
M  V30 2950 C 262.901 0.483726 1.89524 0
M  V30 2951 C 263.281 -1.03809 1.83812 0
M  V30 2952 O 262.629 -1.89143 1.28207 0
M  V30 2953 C 262.839 1.02769 3.33526 0
M  V30 2954 C 264.187 1.08703 4.10449 0
M  V30 2955 O 265.211 0.977175 3.42534 0
M  V30 2956 O 264.07 1.25599 5.31871 0
M  V30 2957 H 261.164 0.15529 0.812289 0
M  V30 2958 H 263.71 1.01738 1.35822 0
M  V30 2959 H 262.482 2.07155 3.31967 0
M  V30 2960 H 262.105 0.475567 3.94746 0
M  V30 2961 N 263.102 -1.41638 0.69111 0
M  V30 2962 C 264.032 -2.3347 0.037248 0
M  V30 2963 C 265.013 -1.51575 -0.771947 0
M  V30 2964 O 266.198 -1.80126 -0.72582 0
M  V30 2965 C 263.328 -3.35354 -0.903064 0
M  V30 2966 C 262.282 -4.27526 -0.201288 0
M  V30 2967 C 261.608 -5.19747 -1.25565 0
M  V30 2968 C 262.908 -5.13959 0.929689 0
M  V30 2969 H 264.602 -2.88397 0.804227 0
M  V30 2970 H 262.148 -1.38669 0.388189 0
M  V30 2971 H 264.101 -3.98519 -1.36969 0
M  V30 2972 H 262.825 -2.78767 -1.70166 0
M  V30 2973 H 261.484 -3.65779 0.245265 0
M  V30 2974 H 261.132 -4.59479 -2.04666 0
M  V30 2975 H 260.832 -5.8225 -0.791128 0
M  V30 2976 H 262.356 -5.85789 -1.72288 0
M  V30 2977 H 263.77 -5.70718 0.543546 0
M  V30 2978 H 262.167 -5.85379 1.32103 0
M  V30 2979 H 263.237 -4.51389 1.77133 0
M  V30 2980 N 264.58 -0.43555 -1.51462 0
M  V30 2981 C 265.512 0.41257 -2.25456 0
M  V30 2982 C 266.525 0.987822 -1.29406 0
M  V30 2983 O 267.714 0.882266 -1.55172 0
M  V30 2984 C 264.814 1.58894 -2.99342 0
M  V30 2985 C 263.987 1.13288 -4.22474 0
M  V30 2986 C 263.046 2.17917 -4.78956 0
M  V30 2987 O 262.072 1.77425 -5.40841 0
M  V30 2988 N 263.274 3.50382 -4.62832 0
M  V30 2989 H 266.039 -0.221603 -2.9888 0
M  V30 2990 H 263.6 -0.264342 -1.59727 0
M  V30 2991 H 265.592 2.28508 -3.34015 0
M  V30 2992 H 264.162 2.12849 -2.28941 0
M  V30 2993 H 263.382 0.263881 -3.93316 0
M  V30 2994 H 264.67 0.805542 -5.02383 0
M  V30 2995 H 264.068 3.86013 -4.13534 0
M  V30 2996 H 262.625 4.15895 -5.01871 0
M  V30 2997 N 266.058 1.56714 -0.166846 0
M  V30 2998 C 267.304 1.97039 0.479962 0
M  V30 2999 C 267.637 1.05264 1.63197 0
M  V30 3000 O 266.912 0.0988833 1.94248 0
M  V30 3001 C 267.195 3.46867 0.967212 0
M  V30 3002 C 267.048 4.49421 -0.18466 0
M  V30 3003 C 268.367 3.9968 1.84238 0
M  V30 3004 H 265.486 0.71641 0.172992 0
M  V30 3005 H 268.128 1.8832 -0.252079 0
M  V30 3006 H 266.278 3.54428 1.59101 0
M  V30 3007 H 267.95 4.53924 -0.821621 0
M  V30 3008 H 266.193 4.25573 -0.840837 0
M  V30 3009 H 266.864 5.51644 0.198317 0
M  V30 3010 H 269.34 3.94723 1.31655 0
M  V30 3011 H 268.216 5.04941 2.15234 0
M  V30 3012 H 268.477 3.43226 2.78654 0
M  V30 3013 N 267.536 -0.106894 1.57237 0
M  V30 3014 C 268.466 -1.13148 2.04254 0
M  V30 3015 C 269.447 -1.42476 0.929224 0
M  V30 3016 O 270.632 -1.52709 1.19973 0
M  V30 3017 C 267.762 -2.4545 2.45706 0
M  V30 3018 C 266.716 -2.30558 3.60592 0
M  V30 3019 C 266.042 -3.67931 3.87983 0
M  V30 3020 C 267.342 -1.75597 4.91897 0
M  V30 3021 H 269.036 -0.740374 2.90101 0
M  V30 3022 H 266.582 -0.354696 1.39563 0
M  V30 3023 H 268.535 -3.17389 2.77205 0
M  V30 3024 H 267.259 -2.86475 1.56843 0
M  V30 3025 H 265.918 -1.61067 3.29322 0
M  V30 3026 H 265.566 -4.06462 2.96306 0
M  V30 3027 H 265.266 -3.58817 4.65322 0
M  V30 3028 H 266.79 -4.41356 4.21945 0
M  V30 3029 H 268.204 -2.37364 5.21854 0
M  V30 3030 H 266.601 -1.77272 5.73319 0
M  V30 3031 H 267.671 -0.714451 4.79608 0
M  V30 3032 N 269.014 -1.53014 -0.377408 0
M  V30 3033 C 269.977 -1.77957 -1.44444 0
M  V30 3034 C 270.977 -0.649763 -1.47087 0
M  V30 3035 O 272.167 -0.917897 -1.48055 0
M  V30 3036 C 269.299 -1.89089 -2.83651 0
M  V30 3037 H 270.492 -2.73243 -1.23606 0
M  V30 3038 H 268.045 -1.43912 -0.609844 0
M  V30 3039 H 268.78 -0.958293 -3.09818 0
M  V30 3040 H 268.565 -2.71254 -2.83132 0
M  V30 3041 H 270.055 -2.1002 -3.60945 0
M  V30 3042 N 270.492 0.636531 -1.44174 0
M  V30 3043 C 271.741 1.39213 -1.45954 0
M  V30 3044 C 272.054 1.95374 -0.0939119 0
M  V30 3045 O 273.26 2.71498 0.0107767 0
M  V30 3046 C 271.716 2.52025 -2.56927 0
M  V30 3047 C 271.324 2.024 -3.99673 0
M  V30 3048 C 273.068 3.29269 -2.67922 0
M  V30 3049 C 270.975 3.12521 -5.0208 0
M  V30 3050 H 269.905 0.523132 -0.542999 0
M  V30 3051 H 272.556 0.685349 -1.70221 0
M  V30 3052 H 270.938 3.25253 -2.25891 0
M  V30 3053 H 272.112 1.36073 -4.40251 0
M  V30 3054 H 270.427 1.37987 -3.92872 0
M  V30 3055 H 273.024 4.11352 -3.41605 0
M  V30 3056 H 273.367 3.78397 -1.73555 0
M  V30 3057 H 273.9 2.63129 -2.98342 0
M  V30 3058 H 270.639 2.68343 -5.98057 0
M  V30 3059 H 270.159 3.77507 -4.66099 0
M  V30 3060 H 271.838 3.77385 -5.25538 0
M  V30 3061 N 271.97 1.30982 0.876444 0
M  V30 3062 C 273.217 1.20296 1.62896 0
M  V30 3063 C 273.545 -0.240395 1.93009 0
M  V30 3064 O 272.8 -1.18733 1.55567 0
M  V30 3065 C 273.099 1.98572 2.9716 0
M  V30 3066 C 272.765 3.48125 2.86566 0
M  V30 3067 C 271.427 3.88905 2.83383 0
M  V30 3068 C 273.779 4.43322 2.74071 0
M  V30 3069 C 271.107 5.2316 2.65556 0
M  V30 3070 C 273.459 5.77695 2.57781 0
M  V30 3071 C 272.123 6.17704 2.52979 0
M  V30 3072 H 271.393 0.440193 0.59608 0
M  V30 3073 H 274.04 1.62177 1.01837 0
M  V30 3074 H 272.345 1.49352 3.62217 0
M  V30 3075 H 274.042 1.8769 3.54364 0
M  V30 3076 H 270.632 3.15723 2.89856 0
M  V30 3077 H 274.816 4.12752 2.75589 0
M  V30 3078 H 270.072 5.53241 2.60259 0
M  V30 3079 H 274.246 6.51091 2.47089 0
M  V30 3080 H 271.873 7.21678 2.38924 0
M  V30 3081 N 273.449 -1.08991 1.13837 0
M  V30 3082 C 274.865 -1.33312 0.877506 0
M  V30 3083 C 275.065 -1.95587 -0.48456 0
M  V30 3084 O 274.121 -2.20509 -1.23013 0
M  V30 3085 C 275.434 -2.24045 2.0056 0
M  V30 3086 C 276.982 -2.37542 2.03821 0
M  V30 3087 C 277.457 -3.31614 3.15905 0
M  V30 3088 N 278.948 -3.39189 3.15445 0
M  V30 3089 C 279.683 -4.11992 3.98811 0
M  V30 3090 N 279.179 -4.87553 4.92203 0
M  V30 3091 N 280.972 -4.07762 3.86894 0
M  V30 3092 H 273.123 -0.669456 2.01574 0
M  V30 3093 H 275.386 -0.357482 0.878015 0
M  V30 3094 H 275.092 -1.85521 2.98789 0
M  V30 3095 H 274.966 -3.24466 1.92359 0
M  V30 3096 H 277.353 -2.75327 1.06202 0
M  V30 3097 H 277.434 -1.36884 2.16093 0
M  V30 3098 H 277.078 -2.94551 4.13766 0
M  V30 3099 H 277.008 -4.32186 3.0087 0
M  V30 3100 H 279.499 -2.85314 2.47799 0
M  V30 3101 H 279.812 -5.40549 5.52292 0
M  V30 3102 H 278.157 -4.86627 4.96205 0
M  V30 3103 H 281.348 -3.47833 3.13257 0
M  V30 3104 H 281.521 -4.64238 4.52092 0
M  V30 3105 N 274.927 -0.932562 -1.27047 0
M  V30 3106 C 275.837 -0.441219 -2.30414 0
M  V30 3107 C 276.853 0.480525 -1.67233 0
M  V30 3108 O 278.029 0.362151 -1.98117 0
M  V30 3109 C 275.094 0.293651 -3.45454 0
M  V30 3110 C 274.155 -0.663601 -4.2414 0
M  V30 3111 C 273.388 0.0362932 -5.33688 0
M  V30 3112 O 273.611 1.2548 -5.56427 0
M  V30 3113 O 272.545 -0.638015 -5.98509 0
M  V30 3114 H 276.371 -1.29962 -2.74488 0
M  V30 3115 H 273.956 -0.6981 -1.32087 0
M  V30 3116 H 275.838 0.707951 -4.15411 0
M  V30 3117 H 274.513 1.12758 -3.03426 0
M  V30 3118 H 273.42 -1.12768 -3.56699 0
M  V30 3119 H 274.753 -1.46489 -4.69896 0
M  V30 3120 N 276.405 1.4127 -0.698611 0
M  V30 3121 C 277.338 2.28195 0.0153898 0
M  V30 3122 C 278.316 1.42402 0.784883 0
M  V30 3123 O 279.5 1.71828 0.775067 0
M  V30 3124 C 276.627 3.22685 1.02918 0
M  V30 3125 C 275.673 4.25041 0.352501 0
M  V30 3126 S 276.506 5.27757 -0.907322 0
M  V30 3127 C 277.662 6.25812 0.104796 0
M  V30 3128 H 277.895 2.88403 -0.721858 0
M  V30 3129 H 275.428 1.46452 -0.488996 0
M  V30 3130 H 277.386 3.77655 1.60893 0
M  V30 3131 H 276.047 2.61566 1.73902 0
M  V30 3132 H 275.24 4.91437 1.11828 0
M  V30 3133 H 274.842 3.73682 -0.154254 0
M  V30 3134 H 277.134 6.70705 0.957103 0
M  V30 3135 H 278.077 7.06149 -0.525323 0
M  V30 3136 H 278.485 5.62615 0.460931 0
M  V30 3137 N 277.883 0.443576 1.51229 0
M  V30 3138 C 278.831 -0.37904 2.29491 0
M  V30 3139 C 279.825 -1.0153 1.35603 0
M  V30 3140 O 281.031 -0.94955 1.52917 0
M  V30 3141 H 277.406 -0.141053 0.738653 0
M  V30 3142 H 279.377 0.301799 2.9687 0
M  V30 3143 C 278.126 -1.46426 3.15364 0
M  V30 3144 H 277.449 -0.984037 3.87501 0
M  V30 3145 H 278.889 -2.01297 3.7317 0
M  V30 3146 C 277.348 -2.45099 2.31146 0
M  V30 3147 O 277.878 -3.49773 1.9754 0
M  V30 3148 N 276.084 -2.16139 1.94249 0
M  V30 3149 H 275.631 -1.31044 2.21777 0
M  V30 3150 H 275.589 -2.82398 1.38198 0
M  V30 3151 N 279.361 -1.56624 0.175154 0
M  V30 3152 C 280.324 -2.16934 -0.739738 0
M  V30 3153 C 281.324 -1.11842 -1.15533 0
M  V30 3154 O 282.514 -1.37335 -1.07167 0
M  V30 3155 C 279.646 -2.75531 -2.00738 0
M  V30 3156 H 280.839 -2.99131 -0.214639 0
M  V30 3157 H 278.392 -1.56123 -0.0744197 0
M  V30 3158 H 279.127 -1.97078 -2.57548 0
M  V30 3159 H 278.912 -3.52444 -1.71831 0
M  V30 3160 H 280.402 -3.21904 -2.66021 0
M  V30 3161 N 280.839 0.0985539 -1.57292 0
M  V30 3162 C 282.087 0.801092 -1.85545 0
M  V30 3163 C 282.408 1.79438 -0.763353 0
M  V30 3164 O 281.678 1.94763 0.21073 0
M  V30 3165 H 280.258 0.29884 -0.684619 0
M  V30 3166 H 282.92 0.0810064 -1.94732 0
M  V30 3167 H 282.016 1.3338 -2.82163 0
M  V30 3168 N 282.317 1.53212 0.369288 0
M  V30 3169 C 283.545 1.73119 1.13303 0
M  V30 3170 C 283.96 0.458455 1.83149 0
M  V30 3171 O 283.317 -0.568403 1.73423 0
M  V30 3172 C 283.368 2.89413 2.16616 0
M  V30 3173 O 283.089 4.11761 1.49614 0
M  V30 3174 C 284.59 3.21161 3.05566 0
M  V30 3175 H 281.81 0.579107 0.338934 0
M  V30 3176 H 284.354 1.99942 0.429338 0
M  V30 3177 H 282.509 2.64994 2.82589 0
M  V30 3178 H 282.923 4.76858 2.18419 0
M  V30 3179 H 284.397 4.05949 3.74045 0
M  V30 3180 H 284.874 2.36369 3.70171 0
M  V30 3181 H 285.48 3.47492 2.45213 0
M  V30 3182 N 283.795 -0.628877 1.44509 0
M  V30 3183 C 285.041 -1.39045 1.47629 0
M  V30 3184 C 285.374 -1.93892 0.109343 0
M  V30 3185 O 284.649 -1.7379 -0.87334 0
M  V30 3186 C 284.932 -2.55408 2.53848 0
M  V30 3187 C 284.785 -2.05896 3.99909 0
M  V30 3188 C 286.104 -3.5759 2.56549 0
M  V30 3189 H 283.223 -0.504232 0.537512 0
M  V30 3190 H 285.865 -0.710854 1.76201 0
M  V30 3191 H 284.015 -3.13384 2.29615 0
M  V30 3192 H 285.687 -1.52734 4.35282 0
M  V30 3193 H 283.93 -1.37061 4.11578 0
M  V30 3194 H 284.601 -2.89681 4.69882 0
M  V30 3195 H 287.077 -3.09419 2.78207 0
M  V30 3196 H 285.953 -4.36527 3.32769 0
M  V30 3197 H 286.214 -4.11808 1.60832 0
M  V30 3198 N 285.273 -1.31445 -0.869486 0
M  V30 3199 C 286.203 -1.21727 -1.99261 0
M  V30 3200 C 287.184 -0.104359 -1.6978 0
M  V30 3201 O 288.369 -0.289038 -1.92037 0
M  V30 3202 C 285.499 -0.924317 -3.34774 0
M  V30 3203 C 284.453 -1.99685 -3.78563 0
M  V30 3204 C 283.779 -1.55658 -5.11541 0
M  V30 3205 C 285.079 -3.41003 -3.95619 0
M  V30 3206 H 286.773 -2.1569 -2.07649 0
M  V30 3207 H 284.319 -1.03839 -0.997675 0
M  V30 3208 H 286.272 -0.842934 -4.12883 0
M  V30 3209 H 284.996 0.0509793 -3.2656 0
M  V30 3210 H 283.655 -2.06813 -3.02694 0
M  V30 3211 H 283.303 -0.569132 -4.9977 0
M  V30 3212 H 283.003 -2.27409 -5.41811 0
M  V30 3213 H 284.527 -1.48928 -5.92159 0
M  V30 3214 H 285.941 -3.36547 -4.64122 0
M  V30 3215 H 284.338 -4.10975 -4.37286 0
M  V30 3216 H 285.408 -3.81754 -2.98985 0
M  V30 3217 N 286.751 1.08385 -1.14413 0
M  V30 3218 C 288.028 1.77429 -0.823297 0
M  V30 3219 C 288.408 1.9974 0.683163 0
M  V30 3220 O 287.756 1.60739 1.62405 0
M  V30 3221 C 287.966 3.09004 -1.62227 0
M  V30 3222 C 289.314 3.83532 -1.82177 0
M  V30 3223 O 290.338 3.18786 -1.58915 0
M  V30 3224 O 289.197 4.99792 -2.21067 0
M  V30 3225 H 286.291 0.769999 -0.301712 0
M  V30 3226 H 288.837 1.14846 -1.24934 0
M  V30 3227 H 287.609 2.88316 -2.64555 0
M  V30 3228 H 287.232 3.79316 -1.19187 0
M  V30 3229 N 288.23 0.939286 1.26551 0
M  V30 3230 C 289.641 0.628782 1.75793 0
M  V30 3231 C 289.992 -0.856046 1.7654 0
M  V30 3232 O 289.117 -1.66994 1.3763 0
M  V30 3233 C 289.712 1.13465 3.19235 0
M  V30 3234 C 288.271 0.874601 3.66098 0
M  V30 3235 C 287.418 1.28667 2.45642 0
M  V30 3236 H 290.369 1.1178 1.12654 0
M  V30 3237 H 290.39 0.487609 3.77363 0
M  V30 3238 H 289.902 2.21535 3.1866 0
M  V30 3239 H 288.003 -0.191793 3.72106 0
M  V30 3240 H 288.116 1.50028 4.55004 0
M  V30 3241 H 286.48 0.705109 2.44745 0
M  V30 3242 H 287.263 2.37625 2.47769 0
M  V30 3243 N 289.708 -1.40897 0.706093 0
M  V30 3244 C 290.64 -2.29199 0.00815776 0
M  V30 3245 C 291.653 -1.45336 -0.733582 0
M  V30 3246 O 292.842 -1.68727 -0.582537 0
M  V30 3247 C 289.942 -3.23417 -1.01265 0
M  V30 3248 C 289.115 -4.36089 -0.338387 0
M  V30 3249 C 288.174 -5.10811 -1.26326 0
M  V30 3250 O 287.2 -5.64215 -0.751651 0
M  V30 3251 N 288.402 -5.19269 -2.595 0
M  V30 3252 H 291.167 -2.89738 0.766297 0
M  V30 3253 H 288.728 -1.52164 0.55296 0
M  V30 3254 H 290.72 -3.70276 -1.63334 0
M  V30 3255 H 289.29 -2.64112 -1.67223 0
M  V30 3256 H 288.51 -3.91479 0.462352 0
M  V30 3257 H 289.798 -5.08634 0.130031 0
M  V30 3258 H 289.196 -4.77347 -3.03573 0
M  V30 3259 H 287.753 -5.69667 -3.16737 0
M  V30 3260 N 291.186 -0.45159 -1.50991 0
M  V30 3261 C 292.119 0.398179 -2.24699 0
M  V30 3262 C 293.097 1.01276 -1.27208 0
M  V30 3263 O 294.281 1.05247 -1.56382 0
M  V30 3264 C 291.408 1.55618 -3.00833 0
M  V30 3265 C 290.454 1.0609 -4.13095 0
M  V30 3266 S 291.287 -0.00865136 -5.35499 0
M  V30 3267 C 292.443 1.15369 -6.15175 0
M  V30 3268 H 292.676 -0.227555 -2.96428 0
M  V30 3269 H 290.209 -0.236251 -1.52582 0
M  V30 3270 H 292.167 2.21997 -3.45293 0
M  V30 3271 H 290.828 2.15337 -2.28667 0
M  V30 3272 H 290.021 1.92726 -4.65696 0
M  V30 3273 H 289.623 0.47513 -3.7097 0
M  V30 3274 H 291.915 2.06925 -6.45126 0
M  V30 3275 H 292.858 0.667344 -7.04948 0
M  V30 3276 H 293.266 1.3987 -5.46897 0
M  V30 3277 N 292.664 1.56529 -0.183458 0
M  V30 3278 C 293.913 1.96419 0.458511 0
M  V30 3279 C 294.226 1.0727 1.63562 0
M  V30 3280 O 295.432 1.36893 2.34462 0
M  V30 3281 C 293.888 3.49298 0.867122 0
M  V30 3282 C 293.496 4.47092 -0.285057 0
M  V30 3283 C 295.24 3.97983 1.47683 0
M  V30 3284 C 293.147 5.91225 0.143862 0
M  V30 3285 H 292.077 0.733394 0.175071 0
M  V30 3286 H 294.728 1.81448 -0.273624 0
M  V30 3287 H 293.11 3.59731 1.65559 0
M  V30 3288 H 294.284 4.48383 -1.0625 0
M  V30 3289 H 292.599 4.08535 -0.805503 0
M  V30 3290 H 295.196 5.03134 1.80999 0
M  V30 3291 H 295.539 3.41618 2.37914 0
M  V30 3292 H 296.072 3.90617 0.752562 0
M  V30 3293 H 292.811 6.5149 -0.723974 0
M  V30 3294 H 292.331 5.93214 0.886413 0
M  V30 3295 H 294.01 6.44362 0.583628 0
M  V30 3296 N 294.142 -0.090211 1.57342 0
M  V30 3297 C 295.089 -1.10909 2.02405 0
M  V30 3298 C 296.059 -1.39523 0.901252 0
M  V30 3299 O 297.244 -1.50903 1.1676 0
M  V30 3300 C 294.384 -2.42277 2.45755 0
M  V30 3301 C 293.497 -2.20352 3.71576 0
M  V30 3302 C 292.632 -3.45154 4.03785 0
M  V30 3303 C 291.671 -3.18512 5.22701 0
M  V30 3304 N 290.808 -4.35593 5.50639 0
M  V30 3305 H 295.648 -0.71782 2.89225 0
M  V30 3306 H 293.185 -0.342901 1.43048 0
M  V30 3307 H 295.143 -3.18951 2.68935 0
M  V30 3308 H 293.773 -2.79242 1.61938 0
M  V30 3309 H 292.825 -1.34458 3.55844 0
M  V30 3310 H 294.137 -1.96661 4.58395 0
M  V30 3311 H 293.291 -4.30233 4.27767 0
M  V30 3312 H 292.03 -3.71904 3.15498 0
M  V30 3313 H 291.035 -2.31827 4.98534 0
M  V30 3314 H 292.26 -2.93103 6.12591 0
M  V30 3315 H 290.206 -4.6241 4.6531 0
M  V30 3316 H 290.123 -4.1511 6.31838 0
M  V30 3317 H 291.391 -5.21723 5.7916 0
M  V30 3318 N 295.62 -1.53406 -0.361157 0
M  V30 3319 C 296.568 -1.80832 -1.46296 0
M  V30 3320 C 297.562 -0.677699 -1.55253 0
M  V30 3321 O 298.768 -0.860723 -1.58087 0
M  V30 3322 H 295.143 -0.572627 -0.487445 0
M  V30 3323 H 297.114 -2.73045 -1.20371 0
M  V30 3324 C 295.863 -2.01907 -2.8307 0
M  V30 3325 H 295.186 -2.88349 -2.76938 0
M  V30 3326 H 296.626 -2.25072 -3.59331 0
M  V30 3327 C 295.085 -0.799449 -3.27277 0
M  V30 3328 O 295.615 0.00971761 -4.01699 0
M  V30 3329 N 293.821 -0.621637 -2.83873 0
M  V30 3330 H 293.368 -1.28126 -2.23476 0
M  V30 3331 H 293.326 0.19298 -3.13807 0
M  V30 3332 N 297.098 0.621204 -1.44841 0
M  V30 3333 C 298.008 1.7612 -1.5498 0
M  V30 3334 C 299.024 1.68477 -0.434927 0
M  V30 3335 O 300.2 1.89076 -0.693693 0
M  V30 3336 C 297.265 3.1254 -1.50065 0
M  V30 3337 C 296.326 3.31741 -2.72482 0
M  V30 3338 C 295.559 4.61653 -2.67792 0
M  V30 3339 O 295.782 5.431 -1.74352 0
M  V30 3340 O 294.716 4.83271 -3.58794 0
M  V30 3341 H 298.542 1.70518 -2.51311 0
M  V30 3342 H 296.127 0.783643 -1.27198 0
M  V30 3343 H 298.009 3.93844 -1.49882 0
M  V30 3344 H 296.684 3.18663 -0.568806 0
M  V30 3345 H 295.591 2.50077 -2.7823 0
M  V30 3346 H 296.924 3.30486 -3.64746 0
M  V30 3347 N 298.576 1.31904 0.862503 0
M  V30 3348 C 299.853 1.12644 1.59908 0
M  V30 3349 C 300.233 -0.316104 2.0872 0
M  V30 3350 O 299.581 -1.31145 1.87118 0
M  V30 3351 C 299.791 2.1472 2.7513 0
M  V30 3352 C 301.139 2.47637 3.44907 0
M  V30 3353 O 302.163 2.13205 2.85346 0
M  V30 3354 O 301.022 3.06632 4.52371 0
M  V30 3355 H 298.116 0.43416 0.703871 0
M  V30 3356 H 300.662 1.43408 0.907314 0
M  V30 3357 H 299.434 3.1172 2.3653 0
M  V30 3358 H 299.057 1.84905 3.51989 0
M  V30 3359 N 300.054 -1.07777 1.14986 0
M  V30 3360 C 301.3 -1.80557 0.923422 0
M  V30 3361 C 301.633 -1.86298 -0.548337 0
M  V30 3362 O 300.908 -1.34354 -1.40639 0
M  V30 3363 C 301.191 -3.25839 1.53299 0
M  V30 3364 C 301.044 -3.28269 3.07505 0
M  V30 3365 C 302.363 -4.22991 1.21518 0
M  V30 3366 H 299.482 -0.655493 0.336894 0
M  V30 3367 H 302.124 -1.26144 1.42083 0
M  V30 3368 H 300.274 -3.72306 1.10999 0
M  V30 3369 H 301.946 -2.90079 3.58681 0
M  V30 3370 H 300.189 -2.67355 3.4162 0
M  V30 3371 H 300.86 -4.30691 3.45266 0
M  V30 3372 H 303.336 -3.84894 1.581 0
M  V30 3373 H 302.212 -5.22945 1.66793 0
M  V30 3374 H 302.473 -4.41904 0.131505 0
M  V30 3375 N 301.532 -0.945985 -1.26051 0
M  V30 3376 C 302.757 -0.612525 -1.98149 0
M  V30 3377 C 303.182 0.806623 -1.69927 0
M  V30 3378 O 302.54 1.54411 -0.950108 0
M  V30 3379 C 302.588 -0.866981 -3.50023 0
M  V30 3380 O 301.692 0.0585333 -4.12358 0
M  V30 3381 H 301.033 -0.23379 -0.621481 0
M  V30 3382 H 303.563 -1.27023 -1.60395 0
M  V30 3383 H 303.573 -0.789792 -4.00283 0
M  V30 3384 H 302.248 -1.90135 -3.69894 0
M  V30 3385 H 300.825 -0.0701241 -3.72834 0
M  V30 3386 N 303.011 1.40521 -0.713556 0
M  V30 3387 C 303.921 2.34522 -0.0606667 0
M  V30 3388 C 304.937 1.57193 0.74607 0
M  V30 3389 O 306.113 1.89591 0.679493 0
M  V30 3390 C 303.178 3.36081 0.851491 0
M  V30 3391 C 302.239 4.29286 0.0349339 0
M  V30 3392 C 301.472 5.25994 0.903649 0
M  V30 3393 O 301.695 5.28616 2.14292 0
M  V30 3394 O 300.629 6.00918 0.343723 0
M  V30 3395 H 304.455 2.91968 -0.835972 0
M  V30 3396 H 302.04 1.41681 -0.47402 0
M  V30 3397 H 303.922 3.98369 1.37404 0
M  V30 3398 H 302.597 2.81052 1.60598 0
M  V30 3399 H 301.504 3.70289 -0.532633 0
M  V30 3400 H 302.837 4.87462 -0.681287 0
M  V30 3401 N 304.489 0.459591 1.5075 0
M  V30 3402 C 305.436 -0.340524 2.28274 0
M  V30 3403 C 306.406 -0.997371 1.32822 0
M  V30 3404 O 307.591 -1.01202 1.61749 0
M  V30 3405 C 304.731 -1.42317 3.14388 0
M  V30 3406 C 303.844 -0.782251 4.24859 0
M  V30 3407 C 302.979 -1.84182 4.98247 0
M  V30 3408 C 302.018 -1.18053 6.00608 0
M  V30 3409 N 301.155 -2.18244 6.67319 0
M  V30 3410 H 305.995 0.326899 2.96202 0
M  V30 3411 H 303.532 0.173057 1.46078 0
M  V30 3412 H 305.49 -2.06241 3.62658 0
M  V30 3413 H 304.12 -2.05992 2.4853 0
M  V30 3414 H 303.172 -0.0307404 3.80388 0
M  V30 3415 H 304.484 -0.259663 4.98124 0
M  V30 3416 H 303.638 -2.55714 5.50177 0
M  V30 3417 H 302.377 -2.39819 4.24662 0
M  V30 3418 H 301.382 -0.450776 5.47949 0
M  V30 3419 H 302.607 -0.631202 6.7616 0
M  V30 3420 H 300.553 -2.72919 5.96533 0
M  V30 3421 H 300.47 -1.70938 7.36421 0
M  V30 3422 H 301.738 -2.89191 7.23871 0
M  V30 3423 N 305.967 -1.56429 0.191757 0
M  V30 3424 C 306.877 -2.22541 -0.742481 0
M  V30 3425 C 307.893 -1.22342 -1.23727 0
M  V30 3426 O 309.069 -1.55069 -1.28513 0
M  V30 3427 C 306.134 -2.8692 -1.94623 0
M  V30 3428 C 305.195 -4.02378 -1.49633 0
M  V30 3429 C 304.428 -4.63678 -2.6427 0
M  V30 3430 O 304.651 -4.23895 -3.81666 0
M  V30 3431 O 303.585 -5.53202 -2.37174 0
M  V30 3432 H 307.411 -3.02977 -0.209462 0
M  V30 3433 H 304.996 -1.49353 -0.0373832 0
M  V30 3434 H 306.878 -3.27663 -2.64982 0
M  V30 3435 H 305.553 -2.09466 -2.46791 0
M  V30 3436 H 304.46 -3.66265 -0.761636 0
M  V30 3437 H 305.793 -4.81487 -1.02134 0
M  V30 3438 N 307.445 0.0818655 -1.57387 0
M  V30 3439 C 308.675 0.794954 -1.90694 0
M  V30 3440 C 309.083 1.72147 -0.784982 0
M  V30 3441 O 308.426 1.81974 0.251196 0
M  V30 3442 C 308.488 1.65042 -3.19376 0
M  V30 3443 C 308.152 0.894337 -4.48164 0
M  V30 3444 C 309.149 0.21813 -5.19442 0
M  V30 3445 C 306.834 0.864495 -4.94805 0
M  V30 3446 C 308.828 -0.477802 -6.35607 0
M  V30 3447 C 306.515 0.164785 -6.10878 0
M  V30 3448 C 307.513 -0.505173 -6.81129 0
M  V30 3449 O 307.201 -1.19363 -7.94989 0
M  V30 3450 H 306.933 0.231779 -0.635023 0
M  V30 3451 H 309.487 0.059493 -2.05314 0
M  V30 3452 H 307.717 2.42844 -3.00938 0
M  V30 3453 H 309.406 2.24127 -3.38411 0
M  V30 3454 H 310.172 0.232558 -4.84442 0
M  V30 3455 H 306.051 1.37542 -4.40004 0
M  V30 3456 H 309.595 -1.00129 -6.90377 0
M  V30 3457 H 305.492 0.148249 -6.4533 0
M  V30 3458 H 306.26 -1.10188 -8.11049 0
M  V30 3459 N 308.923 1.53595 0.353017 0
M  V30 3460 C 309.886 1.80232 1.41594 0
M  V30 3461 C 310.886 0.673081 1.46035 0
M  V30 3462 O 312.076 0.941335 1.46576 0
M  V30 3463 C 309.208 1.93578 2.80607 0
M  V30 3464 H 310.401 2.75174 1.19244 0
M  V30 3465 H 307.954 1.44864 0.586872 0
M  V30 3466 H 308.689 1.00746 3.08254 0
M  V30 3467 H 308.474 2.75724 2.78781 0
M  V30 3468 H 309.964 2.15735 3.57558 0
M  V30 3469 N 310.401 -0.613514 1.45168 0
M  V30 3470 C 311.364 -1.7065 1.53007 0
M  V30 3471 C 312.364 -1.5548 0.410184 0
M  V30 3472 O 313.554 -1.60656 0.673455 0
M  V30 3473 C 310.686 -3.09875 1.42093 0
M  V30 3474 H 311.879 -1.65068 2.50385 0
M  V30 3475 H 309.432 -0.828728 1.32521 0
M  V30 3476 H 310.167 -3.21039 0.458769 0
M  V30 3477 H 309.952 -3.22293 2.23315 0
M  V30 3478 H 311.442 -3.895 1.50598 0
M  V30 3479 N 311.879 -1.3236 -0.855495 0
M  V30 3480 C 313.125 -1.23054 -1.612 0
M  V30 3481 C 313.458 0.207404 -1.93089 0
M  V30 3482 O 312.733 1.14432 -1.57275 0
M  V30 3483 C 313.016 -2.08937 -2.93287 0
M  V30 3484 C 312.869 -3.61105 -2.68185 0
M  V30 3485 C 314.188 -1.94986 -3.94549 0
M  V30 3486 H 311.307 -0.448364 -0.584926 0
M  V30 3487 H 313.949 -1.62297 -0.987917 0
M  V30 3488 H 312.099 -1.75599 -3.46551 0
M  V30 3489 H 313.771 -4.04652 -2.21483 0
M  V30 3490 H 312.014 -3.83813 -2.02164 0
M  V30 3491 H 312.685 -4.16522 -3.62234 0
M  V30 3492 H 315.161 -2.24189 -3.5054 0
M  V30 3493 H 314.037 -2.57356 -4.84829 0
M  V30 3494 H 314.298 -0.917263 -4.3248 0
M  V30 3495 N 313.357 1.07166 -1.15556 0
M  V30 3496 C 314.582 1.84053 -0.955988 0
M  V30 3497 C 315.007 1.81586 0.490739 0
M  V30 3498 O 314.365 1.21018 1.34997 0
M  V30 3499 C 314.413 3.28957 -1.47714 0
M  V30 3500 O 313.517 4.06795 -0.677593 0
M  V30 3501 H 312.858 0.569842 -0.340847 0
M  V30 3502 H 315.388 1.35178 -1.53584 0
M  V30 3503 H 315.398 3.79788 -1.4908 0
M  V30 3504 H 314.073 3.30068 -2.53037 0
M  V30 3505 H 312.65 3.6561 -0.733721 0
M  V30 3506 N 314.835 0.952656 1.25548 0
M  V30 3507 C 315.767 0.428609 2.25157 0
M  V30 3508 C 316.78 -0.454428 1.56329 0
M  V30 3509 O 317.969 -0.263023 1.76552 0
M  V30 3510 C 315.069 -0.401972 3.36508 0
M  V30 3511 C 314.242 0.467601 4.34893 0
M  V30 3512 C 313.301 -0.30445 5.25319 0
M  V30 3513 O 312.327 0.296473 5.68427 0
M  V30 3514 N 313.529 -1.59805 5.5807 0
M  V30 3515 H 316.294 1.28497 2.70756 0
M  V30 3516 H 313.855 0.822798 1.39433 0
M  V30 3517 H 315.847 -0.926134 3.9396 0
M  V30 3518 H 314.417 -1.15918 2.90313 0
M  V30 3519 H 313.637 1.17288 3.76347 0
M  V30 3520 H 314.925 1.06119 4.97611 0
M  V30 3521 H 314.323 -2.10823 5.24948 0
M  V30 3522 H 312.88 -2.06822 6.18116 0
M  V30 3523 N 316.313 -1.40141 0.720998 0
M  V30 3524 C 317.245 -2.29177 0.0324669 0
M  V30 3525 C 318.258 -1.46105 -0.718126 0
M  V30 3526 O 319.447 -1.69335 -0.564608 0
M  V30 3527 C 316.547 -3.24473 -0.978292 0
M  V30 3528 C 315.72 -4.36423 -0.292115 0
M  V30 3529 C 314.779 -5.12122 -1.20901 0
M  V30 3530 O 313.805 -5.64981 -0.691766 0
M  V30 3531 N 315.007 -5.21992 -2.53978 0
M  V30 3532 H 317.772 -2.88909 0.796984 0
M  V30 3533 H 315.333 -1.51569 0.569068 0
M  V30 3534 H 317.325 -3.71987 -1.59398 0
M  V30 3535 H 315.895 -2.65871 -1.64413 0
M  V30 3536 H 315.115 -3.90967 0.503847 0
M  V30 3537 H 316.403 -5.08467 0.183971 0
M  V30 3538 H 315.801 -4.8054 -2.98493 0
M  V30 3539 H 314.358 -5.72995 -3.10677 0
M  V30 3540 N 317.792 -0.46758 -1.50504 0
M  V30 3541 C 318.722 0.318381 -2.31319 0
M  V30 3542 C 319.703 0.993564 -1.38066 0
M  V30 3543 O 320.888 0.991411 -1.66987 0
M  V30 3544 C 318.018 1.40275 -3.17711 0
M  V30 3545 C 316.972 0.849373 -4.19487 0
M  V30 3546 C 316.298 2.03177 -4.94594 0
M  V30 3547 C 317.598 -0.136942 -5.2212 0
M  V30 3548 H 319.292 -0.356106 -2.97275 0
M  V30 3549 H 316.838 -0.172703 -1.42961 0
M  V30 3550 H 318.791 1.96004 -3.73042 0
M  V30 3551 H 317.515 2.10596 -2.49634 0
M  V30 3552 H 316.174 0.314076 -3.65252 0
M  V30 3553 H 315.822 2.72187 -4.22993 0
M  V30 3554 H 315.522 1.66774 -5.63436 0
M  V30 3555 H 317.046 2.59403 -5.52759 0
M  V30 3556 H 318.46 0.331056 -5.72343 0
M  V30 3557 H 316.857 -0.41507 -5.98663 0
M  V30 3558 H 317.927 -1.06398 -4.73083 0
M  V30 3559 N 319.27 1.56325 -0.20005 0
M  V30 3560 C 320.495 2.02548 0.44597 0
M  V30 3561 C 320.92 1.07922 1.5406 0
M  V30 3562 O 320.278 0.0635775 1.81188 0
M  V30 3563 C 320.326 3.47175 0.974761 0
M  V30 3564 O 319.43 3.55671 2.08739 0
M  V30 3565 H 318.771 0.655862 0.103638 0
M  V30 3566 H 321.301 2.02201 -0.312381 0
M  V30 3567 H 321.311 3.87067 1.2901 0
M  V30 3568 H 319.986 4.15538 0.17347 0
M  V30 3569 H 318.563 3.27657 1.78032 0
M  V30 3570 N 320.748 -0.0735177 1.57428 0
M  V30 3571 C 321.695 -1.08756 2.0357 0
M  V30 3572 C 322.665 -1.38559 0.916 0
M  V30 3573 O 323.85 -1.49656 1.18354 0
M  V30 3574 C 320.99 -2.39657 2.48311 0
M  V30 3575 C 320.103 -2.16399 3.73892 0
M  V30 3576 C 319.238 -3.40852 4.07423 0
M  V30 3577 C 318.277 -3.1295 5.2605 0
M  V30 3578 N 317.414 -4.29729 5.55228 0
M  V30 3579 H 322.254 -0.687104 2.8997 0
M  V30 3580 H 319.791 -0.327709 1.43403 0
M  V30 3581 H 321.749 -3.16081 2.72303 0
M  V30 3582 H 320.379 -2.77508 1.64891 0
M  V30 3583 H 319.431 -1.30676 3.57251 0
M  V30 3584 H 320.743 -1.91788 4.60455 0
M  V30 3585 H 319.897 -4.25671 4.32306 0
M  V30 3586 H 318.636 -3.68537 3.19425 0
M  V30 3587 H 317.641 -2.26526 5.00965 0
M  V30 3588 H 318.866 -2.86589 6.15665 0
M  V30 3589 H 316.812 -4.57448 4.70188 0
M  V30 3590 H 316.729 -4.08385 6.36206 0
M  V30 3591 H 317.997 -5.1555 5.84661 0
M  V30 3592 N 322.226 -1.5378 -0.344866 0
M  V30 3593 C 323.156 -1.84662 -1.42906 0
M  V30 3594 C 324.137 -0.701648 -1.54955 0
M  V30 3595 O 325.322 -0.953438 -1.69184 0
M  V30 3596 C 322.452 -2.05503 -2.79974 0
M  V30 3597 C 321.406 -3.21318 -2.82734 0
M  V30 3598 C 320.732 -3.2749 -4.22675 0
M  V30 3599 C 322.032 -4.59456 -2.48389 0
M  V30 3600 H 323.726 -2.75461 -1.17311 0
M  V30 3601 H 321.272 -1.32542 -0.562896 0
M  V30 3602 H 323.225 -2.25691 -3.55867 0
M  V30 3603 H 321.949 -1.11434 -3.07002 0
M  V30 3604 H 320.608 -3.00984 -2.09294 0
M  V30 3605 H 320.256 -2.31019 -4.4681 0
M  V30 3606 H 319.956 -4.05316 -4.25433 0
M  V30 3607 H 321.48 -3.49887 -5.00412 0
M  V30 3608 H 322.894 -4.79667 -3.13995 0
M  V30 3609 H 321.291 -5.39675 -2.62432 0
M  V30 3610 H 322.361 -4.63155 -1.4358 0
M  V30 3611 N 323.704 0.605807 -1.45491 0
M  V30 3612 C 325.115 1.18777 -1.44045 0
M  V30 3613 C 325.466 1.95471 -0.169001 0
M  V30 3614 O 324.591 2.0374 0.729324 0
M  V30 3615 C 325.186 2.16064 -2.60963 0
M  V30 3616 C 323.745 2.69633 -2.62631 0
M  V30 3617 C 322.892 1.45072 -2.36325 0
M  V30 3618 H 325.843 0.395017 -1.53705 0
M  V30 3619 H 325.864 2.9913 -2.35163 0
M  V30 3620 H 325.376 1.60217 -3.53486 0
M  V30 3621 H 323.477 3.29414 -1.74119 0
M  V30 3622 H 323.59 3.13944 -3.61906 0
M  V30 3623 H 321.954 1.74089 -1.85917 0
M  V30 3624 H 322.737 0.910899 -3.30995 0
M  V30 3625 N 325.182 1.32811 0.848464 0
M  V30 3626 C 326.43 1.23479 1.59991 0
M  V30 3627 C 326.751 -0.201853 1.93952 0
M  V30 3628 O 326.021 -1.12818 1.60153 0
M  V30 3629 H 324.601 0.454034 0.593179 0
M  V30 3630 H 327.263 1.66412 1.01455 0
M  V30 3631 H 326.359 1.82178 2.53412 0
M  V30 3632 N 326.66 -1.06551 1.16123 0
M  V30 3633 C 327.906 -1.79567 0.94252 0
M  V30 3634 C 328.239 -1.86869 -0.528547 0
M  V30 3635 O 327.514 -1.35838 -1.39206 0
M  V30 3636 C 327.797 -3.24195 1.56747 0
M  V30 3637 C 327.65 -3.24989 3.10969 0
M  V30 3638 C 328.969 -4.21678 1.25998 0
M  V30 3639 H 326.088 -0.651883 0.343828 0
M  V30 3640 H 328.73 -1.2463 1.43413 0
M  V30 3641 H 326.88 -3.71107 1.14942 0
M  V30 3642 H 328.552 -2.86258 3.61737 0
M  V30 3643 H 326.795 -2.63716 3.44436 0
M  V30 3644 H 327.466 -4.27005 3.49815 0
M  V30 3645 H 329.942 -3.83196 1.62174 0
M  V30 3646 H 328.818 -5.21146 1.7233 0
M  V30 3647 H 329.079 -4.4174 0.178367 0
M  V30 3648 N 328.138 -0.959301 -1.25041 0
M  V30 3649 C 329.086 -0.474437 -2.2771 0
M  V30 3650 C 330.08 0.457697 -1.631 0
M  V30 3651 O 331.286 0.333912 -1.76876 0
M  V30 3652 H 327.661 -0.134936 -0.739795 0
M  V30 3653 H 329.632 -1.35251 -2.65988 0
M  V30 3654 C 328.381 0.227884 -3.46952 0
M  V30 3655 H 327.704 -0.480248 -3.96905 0
M  V30 3656 H 329.144 0.531091 -4.20661 0
M  V30 3657 C 327.603 1.452 -3.04004 0
M  V30 3658 O 328.133 2.54949 -3.10426 0
M  V30 3659 N 326.339 1.31502 -2.59144 0
M  V30 3660 H 325.886 0.422065 -2.54119 0
M  V30 3661 H 325.844 2.13521 -2.30773 0
M  V30 3662 N 329.616 1.39756 -0.72842 0
M  V30 3663 C 330.844 2.04948 -0.283528 0
M  V30 3664 C 331.259 1.54908 1.0793 0
M  V30 3665 O 330.616 0.711135 1.68075 0
M  V30 3666 C 330.667 3.60498 -0.268957 0
M  V30 3667 O 330.388 4.08695 -1.57798 0
M  V30 3668 C 331.889 4.4288 0.192912 0
M  V30 3669 H 329.109 0.659243 -0.125056 0
M  V30 3670 H 331.653 1.78927 -0.990226 0
M  V30 3671 H 329.808 3.85444 0.388801 0
M  V30 3672 H 330.222 5.02977 -1.48709 0
M  V30 3673 H 331.696 5.51791 0.151952 0
M  V30 3674 H 332.173 4.21418 1.23708 0
M  V30 3675 H 332.779 4.23069 -0.435039 0
M  V30 3676 N 331.094 0.475555 1.50254 0
M  V30 3677 C 332.319 -0.0777042 2.07254 0
M  V30 3678 C 332.744 -1.3235 1.3366 0
M  V30 3679 O 332.102 -1.77152 0.385597 0
M  V30 3680 C 332.15 -0.340169 3.58992 0
M  V30 3681 O 331.254 -1.41982 3.87188 0
M  V30 3682 H 330.595 0.0149556 0.663832 0
M  V30 3683 H 333.125 0.667878 1.93392 0
M  V30 3684 H 333.135 -0.579332 4.03866 0
M  V30 3685 H 331.81 0.570167 4.11973 0
M  V30 3686 H 330.387 -1.16762 3.54148 0
M  V30 3687 N 332.573 -1.56217 0.208337 0
M  V30 3688 C 333.506 -2.15633 -0.746842 0
M  V30 3689 C 334.484 -1.09685 -1.20034 0
M  V30 3690 O 335.668 -1.3787 -1.28547 0
M  V30 3691 C 332.795 -2.72594 -2.01023 0
M  V30 3692 C 331.841 -3.91251 -1.69779 0
M  V30 3693 S 332.674 -5.28962 -0.834209 0
M  V30 3694 C 333.83 -5.89353 -2.10745 0
M  V30 3695 H 334.063 -2.96315 -0.241789 0
M  V30 3696 H 331.596 -1.54398 -0.00682183 0
M  V30 3697 H 333.554 -3.06053 -2.73572 0
M  V30 3698 H 332.215 -1.91929 -2.48641 0
M  V30 3699 H 331.408 -4.29562 -2.63614 0
M  V30 3700 H 331.01 -3.58869 -1.05303 0
M  V30 3701 H 333.302 -6.04522 -3.05875 0
M  V30 3702 H 334.245 -6.85661 -1.76845 0
M  V30 3703 H 334.653 -5.1807 -2.24196 0
M  V30 3704 N 334.051 0.0651679 -1.57465 0
M  V30 3705 C 335.328 0.79644 -1.78651 0
M  V30 3706 C 335.708 1.95454 -0.797566 0
M  V30 3707 O 335.056 2.27882 0.167946 0
M  V30 3708 C 335.266 1.26322 -3.25337 0
M  V30 3709 C 336.614 1.6939 -3.89348 0
M  V30 3710 O 337.638 1.35872 -3.29268 0
M  V30 3711 O 336.497 2.31471 -4.95059 0
M  V30 3712 H 333.591 0.382157 -0.733407 0
M  V30 3713 H 336.137 0.0447311 -1.69641 0
M  V30 3714 H 334.909 0.434859 -3.88876 0
M  V30 3715 H 334.532 2.07604 -3.39096 0
M  V30 3716 N 335.529 1.53961 0.336706 0
M  V30 3717 C 336.775 1.7273 1.07406 0
M  V30 3718 C 337.13 0.488095 1.86106 0
M  V30 3719 O 336.423 -0.519379 1.84426 0
M  V30 3720 C 336.617 2.93493 2.03953 0
M  V30 3721 C 336.446 4.29039 1.34744 0
M  V30 3722 C 335.216 4.93416 1.08942 0
M  V30 3723 C 337.414 5.08501 0.770115 0
M  V30 3724 N 335.396 6.12821 0.363864 0
M  V30 3725 C 336.767 6.19752 0.175472 0
M  V30 3726 C 338.822 4.93349 0.671633 0
M  V30 3727 C 337.525 7.17503 -0.508081 0
M  V30 3728 C 339.551 5.914 0.0018076 0
M  V30 3729 C 338.913 7.01993 -0.581835 0
M  V30 3730 H 335.012 0.685026 0.377177 0
M  V30 3731 H 337.596 1.91403 0.356815 0
M  V30 3732 H 335.767 2.76308 2.72962 0
M  V30 3733 H 337.499 3.00949 2.70577 0
M  V30 3734 H 334.254 4.53099 1.37833 0
M  V30 3735 H 334.678 6.76998 0.0156092 0
M  V30 3736 H 339.32 4.08007 1.1086 0
M  V30 3737 H 337.038 8.02414 -0.956918 0
M  V30 3738 H 340.624 5.81753 -0.0738538 0
M  V30 3739 H 339.504 7.76561 -1.09192 0
M  V30 3740 N 337.007 -0.598083 1.45811 0
M  V30 3741 C 338.284 -1.35777 1.40797 0
M  V30 3742 C 338.664 -2.10935 0.083462 0
M  V30 3743 O 338.012 -2.08505 -0.934763 0
M  V30 3744 C 338.222 -2.29666 2.62783 0
M  V30 3745 C 339.57 -2.91977 3.08277 0
M  V30 3746 O 340.594 -2.39984 2.63223 0
M  V30 3747 O 339.453 -3.86376 3.86491 0
M  V30 3748 H 336.547 -0.609291 0.55919 0
M  V30 3749 H 339.093 -0.620379 1.57954 0
M  V30 3750 H 337.865 -1.73454 3.50756 0
M  V30 3751 H 337.488 -3.1077 2.48008 0
M  V30 3752 N 338.485 -1.33259 -0.841409 0
M  V30 3753 C 339.901 -1.12538 -1.13169 0
M  V30 3754 C 340.101 0.0854037 -2.01319 0
M  V30 3755 O 339.157 0.766417 -2.40587 0
M  V30 3756 C 340.47 -2.41156 -1.79623 0
M  V30 3757 C 342.018 -2.47038 -1.922 0
M  V30 3758 C 342.493 -3.7561 -2.6207 0
M  V30 3759 N 343.984 -3.76667 -2.69585 0
M  V30 3760 C 344.719 -4.72861 -3.2433 0
M  V30 3761 N 344.215 -5.79428 -3.79783 0
M  V30 3762 N 346.008 -4.6034 -3.22558 0
M  V30 3763 H 338.159 -2.10868 -0.254676 0
M  V30 3764 H 340.422 -0.931615 -0.175493 0
M  V30 3765 H 340.128 -3.29747 -1.22311 0
M  V30 3766 H 340.002 -2.53114 -2.79666 0
M  V30 3767 H 342.389 -1.58898 -2.48667 0
M  V30 3768 H 342.47 -2.39022 -0.911148 0
M  V30 3769 H 342.114 -4.64131 -2.06263 0
M  V30 3770 H 342.044 -3.80902 -3.63622 0
M  V30 3771 H 344.535 -2.99648 -2.30259 0
M  V30 3772 H 344.848 -6.48867 -4.19752 0
M  V30 3773 H 343.193 -5.83166 -3.78078 0
M  V30 3774 H 346.384 -3.76244 -2.78492 0
M  V30 3775 H 346.557 -5.35478 -3.64921 0
M  V30 3776 N 339.963 1.05934 -1.16686 0
M  V30 3777 C 340.91 2.13499 -0.876748 0
M  V30 3778 C 341.88 1.65162 0.176299 0
M  V30 3779 O 343.065 1.90757 0.0407143 0
M  V30 3780 C 340.205 3.42912 -0.387967 0
M  V30 3781 C 339.318 4.04964 -1.50426 0
M  V30 3782 C 338.453 5.22266 -0.970125 0
M  V30 3783 C 337.492 5.76309 -2.06238 0
M  V30 3784 N 336.629 6.84922 -1.54356 0
M  V30 3785 H 341.469 2.37654 -1.7979 0
M  V30 3786 H 339.006 1.16598 -0.896843 0
M  V30 3787 H 340.964 4.17111 -0.086186 0
M  V30 3788 H 339.594 3.18963 0.496235 0
M  V30 3789 H 338.646 3.28277 -1.92193 0
M  V30 3790 H 339.958 4.41122 -2.32836 0
M  V30 3791 H 339.112 6.03506 -0.621743 0
M  V30 3792 H 337.851 4.87564 -0.115377 0
M  V30 3793 H 336.856 4.93704 -2.41942 0
M  V30 3794 H 338.081 6.13062 -2.92115 0
M  V30 3795 H 336.027 6.52131 -0.711406 0
M  V30 3796 H 335.944 7.20043 -2.30379 0
M  V30 3797 H 337.212 7.69832 -1.22387 0
M  V30 3798 N 341.441 0.965919 1.2453 0
M  V30 3799 C 342.671 0.643451 1.96324 0
M  V30 3800 C 343.079 -0.790927 1.71875 0
M  V30 3801 O 342.422 -1.54208 0.998273 0
M  V30 3802 C 342.484 0.836078 3.49643 0
M  V30 3803 C 342.148 2.24975 3.97788 0
M  V30 3804 C 343.145 3.22735 4.07601 0
M  V30 3805 C 340.83 2.57697 4.31158 0
M  V30 3806 C 342.824 4.51303 4.50116 0
M  V30 3807 C 340.511 3.86492 4.73357 0
M  V30 3808 C 341.509 4.83107 4.828 0
M  V30 3809 O 341.197 6.09605 5.24058 0
M  V30 3810 H 340.929 0.239223 0.632257 0
M  V30 3811 H 343.483 1.29587 1.59362 0
M  V30 3812 H 341.713 0.12649 3.86493 0
M  V30 3813 H 343.402 0.512965 4.02646 0
M  V30 3814 H 344.168 2.98783 3.82039 0
M  V30 3815 H 340.047 1.83216 4.23028 0
M  V30 3816 H 343.591 5.26716 4.57401 0
M  V30 3817 H 339.488 4.10245 4.98366 0
M  V30 3818 H 340.256 6.13146 5.42213 0
M  V30 3819 N 342.919 -1.39368 0.735821 0
M  V30 3820 C 344.33 -1.83313 0.354015 0
M  V30 3821 C 344.681 -1.61461 -1.11466 0
M  V30 3822 O 343.806 -1.10621 -1.85989 0
M  V30 3823 C 344.401 -3.32781 0.635769 0
M  V30 3824 C 342.96 -3.75142 0.307448 0
M  V30 3825 C 342.107 -2.62358 0.897974 0
M  V30 3826 H 345.058 -1.28349 0.933398 0
M  V30 3827 H 345.079 -3.80388 -0.0921773 0
M  V30 3828 H 344.591 -3.48654 1.70476 0
M  V30 3829 H 342.692 -3.64857 -0.755674 0
M  V30 3830 H 342.805 -4.72532 0.790583 0
M  V30 3831 H 341.169 -2.52624 0.324551 0
M  V30 3832 H 341.952 -2.81036 1.97164 0
M  V30 3833 N 344.397 -0.483516 -1.5 0
M  V30 3834 C 345.627 0.0643896 -2.065 0
M  V30 3835 C 346.035 1.32949 -1.34615 0
M  V30 3836 O 345.378 1.79003 -0.412756 0
M  V30 3837 C 345.44 0.405983 -3.572 0
M  V30 3838 C 345.104 -0.758875 -4.50655 0
M  V30 3839 C 346.101 -1.64445 -4.93208 0
M  V30 3840 C 343.786 -0.952725 -4.93182 0
M  V30 3841 C 345.78 -2.70818 -5.77006 0
M  V30 3842 C 343.467 -2.01966 -5.76761 0
M  V30 3843 C 344.465 -2.89574 -6.18576 0
M  V30 3844 O 344.153 -3.94429 -7.00486 0
M  V30 3845 H 343.885 -0.00934786 -0.675935 0
M  V30 3846 H 346.439 -0.674959 -1.93993 0
M  V30 3847 H 344.669 1.19869 -3.67652 0
M  V30 3848 H 346.358 0.890433 -3.96013 0
M  V30 3849 H 347.124 -1.50643 -4.61012 0
M  V30 3850 H 343.003 -0.280247 -4.60147 0
M  V30 3851 H 346.547 -3.3923 -6.09565 0
M  V30 3852 H 342.444 -2.1577 -6.0837 0
M  V30 3853 H 343.212 -3.91568 -7.1876 0
M  V30 3854 N 345.875 1.56104 -0.216619 0
M  V30 3855 C 347.123 1.97781 0.415593 0
M  V30 3856 C 347.444 1.10536 1.60645 0
M  V30 3857 O 346.714 0.181303 1.95059 0
M  V30 3858 H 345.294 0.730415 0.156534 0
M  V30 3859 H 347.956 1.92445 -0.308366 0
M  V30 3860 H 347.052 3.03072 0.74525 0
M  V30 3861 N 347.353 -0.0568162 1.57498 0
M  V30 3862 C 348.63 -0.786954 1.79071 0
M  V30 3863 C 349.01 -1.95028 0.80792 0
M  V30 3864 O 348.358 -2.27968 -0.155858 0
M  V30 3865 C 348.568 -1.24594 3.26002 0
M  V30 3866 C 349.916 -1.67323 3.90241 0
M  V30 3867 O 350.94 -1.34124 3.29984 0
M  V30 3868 O 349.799 -2.28842 4.9628 0
M  V30 3869 H 346.893 -0.378262 0.735423 0
M  V30 3870 H 349.439 -0.035734 1.69662 0
M  V30 3871 H 348.211 -0.41423 3.89101 0
M  V30 3872 H 347.834 -2.05803 3.40192 0
M  V30 3873 N 348.832 -1.54138 -0.328536 0
M  V30 3874 C 350.06 -1.76062 -1.08673 0
M  V30 3875 C 350.475 -0.506852 -1.81869 0
M  V30 3876 O 349.832 0.522223 -1.74869 0
M  V30 3877 C 349.883 -2.95054 -2.08866 0
M  V30 3878 O 349.604 -4.15583 -1.38644 0
M  V30 3879 C 351.105 -3.2915 -2.96943 0
M  V30 3880 H 348.325 -0.587889 -0.323461 0
M  V30 3881 H 350.869 -2.0101 -0.376175 0
M  V30 3882 H 349.024 -2.72394 -2.75464 0
M  V30 3883 H 349.438 -4.82481 -2.05699 0
M  V30 3884 H 350.912 -4.15723 -3.63151 0
M  V30 3885 H 351.389 -2.461 -3.63774 0
M  V30 3886 H 351.995 -3.53871 -2.35914 0
M  V30 3887 N 350.31 0.590341 -1.46126 0
M  V30 3888 C 351.24 1.71032 -1.58966 0
M  V30 3889 C 352.221 1.64302 -0.440335 0
M  V30 3890 O 353.406 1.82436 -0.665634 0
M  V30 3891 C 350.536 3.09665 -1.57241 0
M  V30 3892 C 349.49 3.31221 -2.71066 0
M  V30 3893 C 348.816 4.70303 -2.54399 0
M  V30 3894 C 350.116 3.19796 -4.1295 0
M  V30 3895 H 351.81 1.60543 -2.52718 0
M  V30 3896 H 349.356 0.770933 -1.21625 0
M  V30 3897 H 351.309 3.87831 -1.64819 0
M  V30 3898 H 350.033 3.21036 -0.600289 0
M  V30 3899 H 348.692 2.55452 -2.62944 0
M  V30 3900 H 348.34 4.78429 -1.55288 0
M  V30 3901 H 348.04 4.85679 -3.30741 0
M  V30 3902 H 349.564 5.50647 -2.63857 0
M  V30 3903 H 350.978 3.87815 -4.22223 0
M  V30 3904 H 349.375 3.46696 -4.89818 0
M  V30 3905 H 350.445 2.16983 -4.33643 0
M  V30 3906 N 351.788 1.33704 0.83433 0
M  V30 3907 C 353.204 1.13137 1.12571 0
M  V30 3908 C 353.404 -0.0747261 2.01361 0
M  V30 3909 O 352.46 -0.753647 2.4099 0
M  V30 3910 C 353.773 2.42105 1.78342 0
M  V30 3911 C 355.321 2.48054 1.90888 0
M  V30 3912 C 355.796 3.76995 2.60075 0
M  V30 3913 N 357.287 3.78092 2.67584 0
M  V30 3914 C 358.022 4.74574 3.21818 0
M  V30 3915 N 357.518 5.81434 3.76705 0
M  V30 3916 N 359.311 4.62044 3.20112 0
M  V30 3917 H 351.462 2.11 0.243489 0
M  V30 3918 H 353.725 0.932532 0.17055 0
M  V30 3919 H 353.431 3.30391 1.20561 0
M  V30 3920 H 353.305 2.54594 2.7832 0
M  V30 3921 H 355.692 1.60215 2.47821 0
M  V30 3922 H 355.773 2.39502 0.898459 0
M  V30 3923 H 355.417 4.65219 2.03799 0
M  V30 3924 H 355.347 3.82825 3.61597 0
M  V30 3925 H 357.838 3.00865 2.28667 0
M  V30 3926 H 358.151 6.51084 4.16305 0
M  V30 3927 H 356.496 5.85163 3.7498 0
M  V30 3928 H 359.687 3.77716 2.76493 0
M  V30 3929 H 359.86 5.37406 3.62076 0
M  V30 3930 N 353.266 -1.05314 1.17247 0
M  V30 3931 C 354.514 -1.77941 0.958194 0
M  V30 3932 C 354.835 -1.88089 -0.514556 0
M  V30 3933 O 354.105 -1.39676 -1.37359 0
M  V30 3934 H 352.685 -0.659116 0.351533 0
M  V30 3935 H 355.347 -1.27166 1.47699 0
M  V30 3936 H 354.443 -2.79663 1.38546 0
M  V30 3937 N 354.744 -0.972509 -1.24016 0
M  V30 3938 C 355.993 -0.632603 -1.91523 0
M  V30 3939 C 356.306 0.836641 -1.76804 0
M  V30 3940 O 357.512 1.28728 -2.39043 0
M  V30 3941 C 355.968 -1.08082 -3.43287 0
M  V30 3942 C 355.576 -2.57386 -3.66683 0
M  V30 3943 C 357.32 -0.814288 -4.16617 0
M  V30 3944 C 355.227 -2.95915 -5.12043 0
M  V30 3945 H 354.157 -0.232898 -0.717129 0
M  V30 3946 H 356.808 -1.17936 -1.40582 0
M  V30 3947 H 355.19 -0.462339 -3.93292 0
M  V30 3948 H 356.364 -3.24405 -3.27258 0
M  V30 3949 H 354.679 -2.81701 -3.06649 0
M  V30 3950 H 357.276 -1.0781 -5.23718 0
M  V30 3951 H 357.619 0.24955 -4.15551 0
M  V30 3952 H 358.152 -1.39397 -3.72577 0
M  V30 3953 H 354.891 -4.0139 -5.18234 0
M  V30 3954 H 354.411 -2.33584 -5.52448 0
M  V30 3955 H 356.09 -2.86086 -5.80314 0
M  V30 3956 N 356.222 1.38976 -0.743202 0
M  V30 3957 C 357.469 2.00343 -0.294752 0
M  V30 3958 C 357.797 1.58983 1.12047 0
M  V30 3959 O 357.052 0.813809 1.77977 0
M  V30 3960 C 357.351 3.55647 -0.353517 0
M  V30 3961 C 357.017 4.16685 -1.72292 0
M  V30 3962 C 355.679 4.3307 -2.09771 0
M  V30 3963 C 358.031 4.50464 -2.62168 0
M  V30 3964 C 355.359 4.80526 -3.36618 0
M  V30 3965 C 357.711 4.99332 -3.88395 0
M  V30 3966 C 356.375 5.13924 -4.25956 0
M  V30 3967 H 355.645 0.733108 -0.107857 0
M  V30 3968 H 358.292 1.6618 -0.951651 0
M  V30 3969 H 356.597 3.89884 0.386954 0
M  V30 3970 H 358.294 4.00998 0.0117269 0
M  V30 3971 H 354.884 4.04339 -1.42155 0
M  V30 3972 H 359.068 4.37416 -2.3448 0
M  V30 3973 H 354.324 4.90008 -3.65653 0
M  V30 3974 H 358.498 5.2444 -4.58187 0
M  V30 3975 H 356.125 5.50457 -5.2431 0
M  V30 3976 N 357.7 0.491464 1.49741 0
M  V30 3977 C 358.948 -0.0563141 2.02022 0
M  V30 3978 C 359.269 -1.38363 1.37407 0
M  V30 3979 O 358.539 -1.88702 0.526166 0
M  V30 3980 H 357.119 -0.0238014 0.746621 0
M  V30 3981 H 359.781 0.646533 1.83864 0
M  V30 3982 H 358.877 -0.192967 3.11503 0
M  V30 3983 N 359.178 -1.55987 0.224894 0
M  V30 3984 C 360.455 -1.90232 -0.455083 0
M  V30 3985 C 360.835 -1.14269 -1.77499 0
M  V30 3986 O 360.183 -0.253079 -2.27094 0
M  V30 3987 C 360.393 -3.42993 -0.644758 0
M  V30 3988 C 361.741 -4.13821 -0.950669 0
M  V30 3989 O 362.765 -3.4861 -0.731423 0
M  V30 3990 O 361.624 -5.29128 -1.36695 0
M  V30 3991 H 358.718 -0.79108 -0.241084 0
M  V30 3992 H 361.264 -1.67581 0.267327 0
M  V30 3993 H 360.036 -3.90252 0.28613 0
M  V30 3994 H 359.659 -3.71434 -1.41853 0
M  V30 3995 N 360.656 0.0484629 -1.57525 0
M  V30 3996 C 361.902 0.744226 -1.88651 0
M  V30 3997 C 362.235 1.76029 -0.820212 0
M  V30 3998 O 361.51 1.93782 0.166985 0
M  V30 3999 C 361.793 1.43128 -3.30434 0
M  V30 4000 C 361.646 0.43005 -4.47739 0
M  V30 4001 C 362.965 2.37031 -3.70816 0
M  V30 4002 H 360.084 0.269089 -0.68612 0
M  V30 4003 H 362.726 0.00713532 -1.89999 0
M  V30 4004 H 360.876 2.05956 -3.29415 0
M  V30 4005 H 362.548 -0.194816 -4.60888 0
M  V30 4006 H 360.791 -0.252522 -4.33064 0
M  V30 4007 H 361.462 0.948874 -5.43783 0
M  V30 4008 H 363.938 1.84263 -3.73077 0
M  V30 4009 H 362.814 2.82094 -4.70865 0
M  V30 4010 H 363.075 3.22864 -3.02012 0
M  V30 4011 N 362.134 1.5431 0.320358 0
M  V30 4012 C 363.359 1.76954 1.08175 0
M  V30 4013 C 363.784 0.518193 1.80821 0
M  V30 4014 O 363.142 -0.530411 1.73368 0
M  V30 4015 C 363.19 2.96451 2.05303 0
M  V30 4016 O 362.294 2.68221 3.13259 0
M  V30 4017 H 361.635 0.586275 0.311733 0
M  V30 4018 H 364.165 2.01342 0.363676 0
M  V30 4019 H 364.175 3.23887 2.48116 0
M  V30 4020 H 362.85 3.87196 1.51829 0
M  V30 4021 H 361.427 2.51744 2.75099 0
M  V30 4022 N 363.613 -0.582584 1.46437 0
M  V30 4023 C 364.841 -1.36682 1.55324 0
M  V30 4024 C 365.256 -1.87796 0.194409 0
M  V30 4025 O 364.613 -1.63623 -0.808318 0
M  V30 4026 C 364.664 -2.55426 2.55812 0
M  V30 4027 O 364.385 -2.0643 3.86417 0
M  V30 4028 C 365.886 -3.47976 2.74641 0
M  V30 4029 H 363.106 -0.417545 0.525259 0
M  V30 4030 H 365.65 -0.708219 1.91845 0
M  V30 4031 H 363.805 -3.17275 2.22295 0
M  V30 4032 H 364.219 -2.83762 4.41111 0
M  V30 4033 H 365.693 -4.27775 3.48874 0
M  V30 4034 H 366.17 -3.99919 1.81553 0
M  V30 4035 H 366.776 -2.91962 3.09255 0
M  V30 4036 N 365.091 -1.34144 -0.827227 0
M  V30 4037 C 366.502 -1.23557 -1.39966 0
M  V30 4038 C 366.853 0.140731 -1.95695 0
M  V30 4039 O 365.978 1.04087 -1.89723 0
M  V30 4040 C 366.573 -2.23708 -2.54441 0
M  V30 4041 C 365.132 -2.16924 -3.07605 0
M  V30 4042 C 364.279 -2.10549 -1.80456 0
M  V30 4043 H 367.23 -1.45573 -0.631991 0
M  V30 4044 H 367.251 -1.85157 -3.32411 0
M  V30 4045 H 366.763 -3.23866 -2.13851 0
M  V30 4046 H 364.864 -1.20107 -3.52711 0
M  V30 4047 H 364.977 -3.07988 -3.66988 0
M  V30 4048 H 363.341 -1.56203 -2.01178 0
M  V30 4049 H 364.124 -3.12535 -1.42046 0
M  V30 4050 N 366.569 1.04691 -1.17803 0
M  V30 4051 C 367.532 2.10724 -0.901545 0
M  V30 4052 C 368.532 1.6042 0.110437 0
M  V30 4053 O 369.722 1.7377 -0.122303 0
M  V30 4054 C 366.854 3.39084 -0.351409 0
M  V30 4055 H 368.047 2.36686 -1.84174 0
M  V30 4056 H 365.6 1.21015 -0.98919 0
M  V30 4057 H 366.335 3.18782 0.59569 0
M  V30 4058 H 366.12 3.76909 -1.08083 0
M  V30 4059 H 367.61 4.17227 -0.176451 0
M  V30 4060 N 368.047 0.979072 1.23499 0
M  V30 4061 C 368.957 0.526431 2.28617 0
M  V30 4062 C 369.973 -0.418126 1.68901 0
M  V30 4063 O 371.149 -0.288372 1.99325 0
M  V30 4064 C 368.214 -0.165235 3.46306 0
M  V30 4065 C 367.275 0.82056 4.21385 0
M  V30 4066 C 366.508 0.161807 5.33455 0
M  V30 4067 O 366.731 -1.04742 5.60701 0
M  V30 4068 O 365.665 0.859708 5.95729 0
M  V30 4069 H 369.491 1.4006 2.69475 0
M  V30 4070 H 367.076 0.746643 1.29405 0
M  V30 4071 H 368.958 -0.553287 4.17752 0
M  V30 4072 H 367.633 -1.01419 3.07402 0
M  V30 4073 H 366.54 1.25929 3.52268 0
M  V30 4074 H 367.873 1.63828 4.64135 0
M  V30 4075 N 369.525 -1.3858 0.750561 0
M  V30 4076 C 370.773 -1.99789 0.30477 0
M  V30 4077 C 371.094 -1.59874 -1.11649 0
M  V30 4078 O 370.364 -0.85417 -1.76297 0
M  V30 4079 H 368.944 -0.738902 0.109694 0
M  V30 4080 H 371.606 -1.69391 0.963983 0
M  V30 4081 H 370.702 -3.09952 0.365499 0
M  V30 4082 N 371.003 -0.499398 -1.49478 0
M  V30 4083 C 372.252 0.0475259 -2.01644 0
M  V30 4084 C 372.565 1.38195 -1.38425 0
M  V30 4085 O 373.771 2.01547 -1.8191 0
M  V30 4086 C 372.227 0.135164 -3.59646 0
M  V30 4087 C 371.835 -1.19252 -4.31837 0
M  V30 4088 C 373.579 0.632538 -4.19761 0
M  V30 4089 C 371.486 -1.06713 -5.81693 0
M  V30 4090 H 370.416 0.0215349 -0.753692 0
M  V30 4091 H 373.067 -0.638577 -1.7203 0
M  V30 4092 H 371.449 0.885681 -3.85969 0
M  V30 4093 H 372.623 -1.9562 -4.17216 0
M  V30 4094 H 370.938 -1.62321 -3.83459 0
M  V30 4095 H 373.535 0.743833 -5.29501 0
M  V30 4096 H 373.878 1.63098 -3.83021 0
M  V30 4097 H 374.411 -0.0613987 -3.97753 0
M  V30 4098 H 371.15 -2.03979 -6.22955 0
M  V30 4099 H 370.67 -0.344307 -5.98811 0
M  V30 4100 H 372.349 -0.745208 -6.42694 0
M  V30 4101 N 372.481 1.55866 -0.233164 0
M  V30 4102 C 373.892 1.847 0.272554 0
M  V30 4103 C 374.243 1.15477 1.58617 0
M  V30 4104 O 373.368 0.42841 2.12117 0
M  V30 4105 C 373.963 3.35071 0.501299 0
M  V30 4106 C 372.522 3.6418 0.951304 0
M  V30 4107 C 371.669 2.77292 0.0208209 0
M  V30 4108 H 374.62 1.52005 -0.456074 0
M  V30 4109 H 374.641 3.55906 1.34577 0
M  V30 4110 H 374.153 3.85424 -0.454936 0
M  V30 4111 H 372.254 3.19293 1.92049 0
M  V30 4112 H 372.367 4.72071 0.817675 0
M  V30 4113 H 370.731 2.49131 0.529723 0
M  V30 4114 H 371.514 3.30448 -0.93054 0
M  V30 4115 N 373.959 -0.0401083 1.57549 0
M  V30 4116 C 374.906 -1.04413 2.05831 0
M  V30 4117 C 375.876 -1.36585 0.945184 0
M  V30 4118 O 377.061 -1.47112 1.21502 0
M  V30 4119 C 374.201 -2.34336 2.53339 0
M  V30 4120 C 373.314 -2.08419 3.78398 0
M  V30 4121 C 372.449 -3.32133 4.14561 0
M  V30 4122 C 371.488 -3.01721 5.3257 0
M  V30 4123 N 370.625 -4.17855 5.64218 0
M  V30 4124 H 375.465 -0.625442 2.91363 0
M  V30 4125 H 373.002 -0.297218 1.44066 0
M  V30 4126 H 374.96 -3.10234 2.78946 0
M  V30 4127 H 373.59 -2.73948 1.7074 0
M  V30 4128 H 372.642 -1.23069 3.59942 0
M  V30 4129 H 373.954 -1.81978 4.64419 0
M  V30 4130 H 373.108 -4.16406 4.41238 0
M  V30 4131 H 371.847 -3.61678 3.2717 0
M  V30 4132 H 370.852 -2.15849 5.05657 0
M  V30 4133 H 372.077 -2.73466 6.21605 0
M  V30 4134 H 370.023 -4.47372 4.79786 0
M  V30 4135 H 369.94 -3.94798 6.44725 0
M  V30 4136 H 371.208 -5.03033 5.95465 0
M  V30 4137 N 375.437 -1.54477 -0.31217 0
M  V30 4138 C 376.347 -1.87695 -1.4074 0
M  V30 4139 C 377.363 -0.769975 -1.56036 0
M  V30 4140 O 378.539 -1.06537 -1.70915 0
M  V30 4141 C 375.604 -2.10755 -2.75287 0
M  V30 4142 C 374.665 -3.34514 -2.69071 0
M  V30 4143 C 373.898 -3.56465 -3.97201 0
M  V30 4144 O 374.121 -2.81637 -4.96021 0
M  V30 4145 O 373.055 -4.49964 -3.9977 0
M  V30 4146 H 376.881 -2.80849 -1.15574 0
M  V30 4147 H 374.466 -1.40526 -0.507228 0
M  V30 4148 H 376.348 -2.27188 -3.54913 0
M  V30 4149 H 375.023 -1.20788 -3.0032 0
M  V30 4150 H 373.93 -3.23456 -1.87955 0
M  V30 4151 H 375.263 -4.24575 -2.48992 0
M  V30 4152 N 376.915 0.57481 -1.46744 0
M  V30 4153 C 377.845 1.69337 -1.60771 0
M  V30 4154 C 378.826 1.63825 -0.457736 0
M  V30 4155 O 380.011 1.8172 -0.684947 0
M  V30 4156 C 377.141 3.0798 -1.60517 0
M  V30 4157 C 376.095 3.28327 -2.74564 0
M  V30 4158 C 375.421 4.67578 -2.59373 0
M  V30 4159 C 376.721 3.15398 -4.16319 0
M  V30 4160 H 378.415 1.57853 -2.54407 0
M  V30 4161 H 375.961 0.75799 -1.22436 0
M  V30 4162 H 377.914 3.86061 -1.68923 0
M  V30 4163 H 376.638 3.20381 -0.634305 0
M  V30 4164 H 375.297 2.52649 -2.65639 0
M  V30 4165 H 374.945 4.76755 -1.60353 0
M  V30 4166 H 374.645 4.82144 -3.35873 0
M  V30 4167 H 376.169 5.47817 -2.69682 0
M  V30 4168 H 377.583 3.83315 -4.26313 0
M  V30 4169 H 375.98 3.41482 -4.93468 0
M  V30 4170 H 377.05 2.12372 -4.3592 0
M  V30 4171 N 378.394 1.34581 0.820102 0
M  V30 4172 C 379.622 1.3018 1.60813 0
M  V30 4173 C 380.037 -0.123551 1.88395 0
M  V30 4174 O 379.394 -1.07148 1.47735 0
M  V30 4175 C 379.445 2.09312 2.94739 0
M  V30 4176 O 379.166 3.46288 2.68358 0
M  V30 4177 C 380.667 2.1234 3.89136 0
M  V30 4178 H 377.887 0.447726 0.499782 0
M  V30 4179 H 380.431 1.77237 1.02017 0
M  V30 4180 H 378.586 1.65889 3.50085 0
M  V30 4181 H 379 3.87227 3.53774 0
M  V30 4182 H 380.474 2.72126 4.80262 0
M  V30 4183 H 380.951 1.11854 4.24718 0
M  V30 4184 H 381.557 2.55864 3.39726 0
M  V30 4185 N 379.872 -1.04064 1.18357 0
M  V30 4186 C 380.782 -2.15569 0.925596 0
M  V30 4187 C 381.798 -1.7365 -0.110295 0
M  V30 4188 O 382.974 -2.01273 0.0716218 0
M  V30 4189 C 380.039 -3.43704 0.454836 0
M  V30 4190 C 379.1 -4.00004 1.55869 0
M  V30 4191 C 378.333 -5.22023 1.1103 0
M  V30 4192 O 378.556 -5.70392 -0.0309756 0
M  V30 4193 O 377.49 -5.70856 1.90805 0
M  V30 4194 H 381.316 -2.40187 1.8586 0
M  V30 4195 H 378.901 -1.1402 0.965394 0
M  V30 4196 H 380.783 -4.20923 0.200382 0
M  V30 4197 H 379.458 -3.20559 -0.449876 0
M  V30 4198 H 378.365 -3.24172 1.86716 0
M  V30 4199 H 379.698 -4.2749 2.43953 0
M  V30 4200 N 381.35 -0.985608 -1.22978 0
M  V30 4201 C 382.3 -0.50118 -2.22423 0
M  V30 4202 C 383.284 0.426649 -1.5514 0
M  V30 4203 O 384.476 0.254656 -1.75159 0
M  V30 4204 C 381.605 0.190003 -3.42774 0
M  V30 4205 C 380.691 -0.757703 -4.17276 0
M  V30 4206 N 381.082 -1.90251 -4.68656 0
M  V30 4207 C 379.38 -0.57209 -4.42316 0
M  V30 4208 C 380.081 -2.49676 -5.25392 0
M  V30 4209 N 379.057 -1.78013 -5.13627 0
M  V30 4210 H 382.859 -1.37441 -2.59783 0
M  V30 4211 H 380.373 -0.846941 -1.38567 0
M  V30 4212 H 382.37 0.55439 -4.13197 0
M  V30 4213 H 381.03 1.05946 -3.06929 0
M  V30 4214 H 382.041 -2.28354 -4.64839 0
M  V30 4215 H 378.718 0.251909 -4.16739 0
M  V30 4216 H 380.108 -3.46384 -5.75732 0
M  V30 4217 N 382.828 1.3818 -0.7579 0
M  V30 4218 C 384.058 2.04004 -0.326463 0
M  V30 4219 C 384.466 1.57286 1.05156 0
M  V30 4220 O 383.809 0.743144 1.67997 0
M  V30 4221 C 383.871 3.58444 -0.275402 0
M  V30 4222 C 383.535 4.28237 -1.59569 0
M  V30 4223 C 384.532 4.53312 -2.54566 0
M  V30 4224 C 382.217 4.66341 -1.86631 0
M  V30 4225 C 384.211 5.15531 -3.74842 0
M  V30 4226 C 381.898 5.28283 -3.0718 0
M  V30 4227 C 382.896 5.52814 -4.01106 0
M  V30 4228 O 382.584 6.13465 -5.19534 0
M  V30 4229 H 382.316 0.662026 -0.136739 0
M  V30 4230 H 384.87 1.7777 -1.02893 0
M  V30 4231 H 383.1 3.83667 0.483337 0
M  V30 4232 H 384.789 4.05701 0.127099 0
M  V30 4233 H 385.555 4.24299 -2.34936 0
M  V30 4234 H 381.434 4.46591 -1.14358 0
M  V30 4235 H 384.978 5.34594 -4.48168 0
M  V30 4236 H 380.875 5.56719 -3.26702 0
M  V30 4237 H 381.643 6.31951 -5.20173 0
M  V30 4238 N 384.306 0.507319 1.49211 0
M  V30 4239 C 385.236 -0.256939 2.32082 0
M  V30 4240 C 386.217 -0.956609 1.40652 0
M  V30 4241 O 387.402 -0.946788 1.69557 0
M  V30 4242 C 384.532 -1.31802 3.21318 0
M  V30 4243 C 383.486 -0.737855 4.21592 0
M  V30 4244 C 382.812 -1.89992 4.99807 0
M  V30 4245 C 384.112 0.275325 5.21574 0
M  V30 4246 H 385.806 0.434798 2.96226 0
M  V30 4247 H 383.352 0.210546 1.42452 0
M  V30 4248 H 385.305 -1.86045 3.78107 0
M  V30 4249 H 384.029 -2.03903 2.5513 0
M  V30 4250 H 382.688 -0.217126 3.65956 0
M  V30 4251 H 382.336 -2.60877 4.30061 0
M  V30 4252 H 382.036 -1.51777 5.6766 0
M  V30 4253 H 383.56 -2.44657 5.59442 0
M  V30 4254 H 384.974 -0.179193 5.7302 0
M  V30 4255 H 383.371 0.573649 5.97352 0
M  V30 4256 H 384.441 1.18903 4.70096 0
M  V30 4257 N 385.784 -1.5574 0.241426 0
M  V30 4258 C 387.009 -2.0366 -0.392111 0
M  V30 4259 C 387.434 -1.11969 -1.51144 0
M  V30 4260 O 386.792 -0.111594 -1.80956 0
M  V30 4261 C 386.84 -3.49638 -0.882371 0
M  V30 4262 O 385.944 -3.6108 -1.99235 0
M  V30 4263 H 385.285 -0.658379 -0.0862122 0
M  V30 4264 H 387.815 -2.01302 0.365881 0
M  V30 4265 H 387.825 -3.90351 -1.18702 0
M  V30 4266 H 386.5 -4.15852 -0.0632361 0
M  V30 4267 H 385.077 -3.32262 -1.69282 0
M  V30 4268 N 387.262 0.0317525 -1.57568 0
M  V30 4269 C 388.209 1.0332 -2.06382 0
M  V30 4270 C 389.179 1.36082 -0.952414 0
M  V30 4271 O 390.364 1.46466 -1.2228 0
M  V30 4272 C 387.504 2.32989 -2.54578 0
M  V30 4273 C 386.617 2.0641 -3.79498 0
M  V30 4274 C 385.752 3.2993 -4.16317 0
M  V30 4275 C 384.791 2.98893 -5.34162 0
M  V30 4276 N 383.928 4.14857 -5.66426 0
M  V30 4277 H 388.768 0.609982 -2.9169 0
M  V30 4278 H 386.305 0.289573 -1.44222 0
M  V30 4279 H 388.263 3.0875 -2.80587 0
M  V30 4280 H 386.893 2.73039 -1.7219 0
M  V30 4281 H 385.945 1.21158 -3.6059 0
M  V30 4282 H 387.257 1.79513 -4.65378 0
M  V30 4283 H 386.411 4.1406 -4.4344 0
M  V30 4284 H 385.15 3.59938 -3.29083 0
M  V30 4285 H 384.155 2.13164 -5.06795 0
M  V30 4286 H 385.38 2.70165 -6.23047 0
M  V30 4287 H 383.326 4.44821 -4.82151 0
M  V30 4288 H 383.243 3.91374 -6.4681 0
M  V30 4289 H 384.511 4.99868 -5.98124 0
M  V30 4290 N 388.74 1.54641 0.303973 0
M  V30 4291 C 389.988 1.73437 1.0375 0
M  V30 4292 C 390.309 0.521449 1.87899 0
M  V30 4293 O 389.579 -0.46432 1.90318 0
M  V30 4294 H 388.159 0.639518 0.386039 0
M  V30 4295 H 390.821 1.91988 0.335675 0
M  V30 4296 H 389.917 2.62235 1.69231 0
M  V30 4297 N 390.218 -0.567019 1.47046 0
M  V30 4298 C 391.448 -1.34831 1.56538 0
M  V30 4299 C 391.856 -1.8802 0.21101 0
M  V30 4300 O 391.199 -1.65152 -0.804387 0
M  V30 4301 C 391.261 -2.56139 2.52256 0
M  V30 4302 C 390.925 -2.24307 3.98165 0
M  V30 4303 C 391.922 -1.82192 4.86931 0
M  V30 4304 C 389.607 -2.35968 4.43423 0
M  V30 4305 C 391.601 -1.52153 6.18973 0
M  V30 4306 C 389.288 -2.05542 5.75496 0
M  V30 4307 C 390.286 -1.63701 6.63092 0
M  V30 4308 O 389.974 -1.33657 7.92711 0
M  V30 4309 H 389.706 -0.417683 0.531523 0
M  V30 4310 H 392.26 -0.694726 1.93294 0
M  V30 4311 H 390.49 -3.24356 2.10548 0
M  V30 4312 H 392.179 -3.18214 2.51982 0
M  V30 4313 H 392.945 -1.72684 4.53217 0
M  V30 4314 H 388.824 -2.67495 3.75456 0
M  V30 4315 H 392.368 -1.19421 6.87302 0
M  V30 4316 H 388.265 -2.14679 6.08755 0
M  V30 4317 H 389.033 -1.4737 8.05124 0
M  V30 4318 N 391.696 -1.35014 -0.812953 0
M  V30 4319 C 392.921 -1.31187 -1.60639 0
M  V30 4320 C 393.346 0.109382 -1.87782 0
M  V30 4321 O 392.704 1.07424 -1.46047 0
M  V30 4322 C 392.752 -2.11809 -2.91838 0
M  V30 4323 O 391.856 -1.49444 -3.8437 0
M  V30 4324 H 391.197 -0.450084 -0.488181 0
M  V30 4325 H 393.727 -1.77963 -1.00947 0
M  V30 4326 H 393.737 -2.23531 -3.41318 0
M  V30 4327 H 392.412 -3.15137 -2.71407 0
M  V30 4328 H 390.989 -1.46524 -3.42907 0
M  V30 4329 N 393.175 1.03435 -1.18907 0
M  V30 4330 C 394.591 1.28973 -0.940111 0
M  V30 4331 C 394.791 1.97676 0.390691 0
M  V30 4332 O 393.847 2.26127 1.12352 0
M  V30 4333 C 395.16 2.14221 -2.11021 0
M  V30 4334 C 396.708 2.27547 -2.14922 0
M  V30 4335 C 397.183 3.16164 -3.31367 0
M  V30 4336 N 398.674 3.23752 -3.31269 0
M  V30 4337 C 399.409 3.92495 -4.18014 0
M  V30 4338 N 398.905 4.63515 -5.14904 0
M  V30 4339 N 400.698 3.88838 -4.05908 0
M  V30 4340 H 392.849 0.57252 -2.04538 0
M  V30 4341 H 395.112 0.315184 -0.894071 0
M  V30 4342 H 394.818 1.71054 -3.073 0
M  V30 4343 H 394.692 3.14919 -2.0762 0
M  V30 4344 H 397.079 2.69947 -1.19217 0
M  V30 4345 H 397.16 1.26418 -2.22378 0
M  V30 4346 H 396.804 2.74474 -4.27348 0
M  V30 4347 H 396.734 4.17339 -3.21148 0
M  V30 4348 H 399.225 2.73167 -2.61129 0
M  V30 4349 H 399.538 5.13583 -5.77453 0
M  V30 4350 H 397.883 4.62398 -5.18857 0
M  V30 4351 H 401.074 3.32491 -3.29495 0
M  V30 4352 H 401.247 4.4214 -4.73726 0
M  V30 4353 N 394.653 0.992116 1.22453 0
M  V30 4354 C 395.601 0.534644 2.26372 0
M  V30 4355 C 396.595 -0.414293 1.64256 0
M  V30 4356 O 397.801 -0.286899 1.77699 0
M  V30 4357 H 394.176 0.154502 0.735957 0
M  V30 4358 H 396.147 1.42256 2.62309 0
M  V30 4359 C 394.896 -0.135815 3.47435 0
M  V30 4360 H 394.219 0.585311 3.95492 0
M  V30 4361 H 395.659 -0.419374 4.21921 0
M  V30 4362 C 394.118 -1.37089 3.07747 0
M  V30 4363 O 394.648 -2.46629 3.17076 0
M  V30 4364 N 392.854 -1.24585 2.62539 0
M  V30 4365 H 392.401 -0.354542 2.55149 0
M  V30 4366 H 392.359 -2.07327 2.36353 0
M  V30 4367 N 396.131 -1.37776 0.765217 0
M  V30 4368 C 397.408 -1.93975 0.251596 0
M  V30 4369 C 397.788 -1.69949 -1.25222 0
M  V30 4370 O 397.136 -1.04457 -2.03226 0
M  V30 4371 C 397.346 -3.43487 0.617895 0
M  V30 4372 C 398.694 -4.20564 0.584029 0
M  V30 4373 O 399.718 -3.5182 0.556888 0
M  V30 4374 O 398.577 -5.43138 0.605291 0
M  V30 4375 H 395.671 -0.82509 0.0561806 0
M  V30 4376 H 398.217 -1.47101 0.846128 0
M  V30 4377 H 396.989 -3.5453 1.65602 0
M  V30 4378 H 396.612 -3.976 -0.00403411 0
M  V30 4379 N 397.609 -0.515225 -1.4894 0
M  V30 4380 C 399.025 -0.172099 -1.58669 0
M  V30 4381 C 399.225 1.32405 -1.51892 0
M  V30 4382 O 398.281 2.10116 -1.40027 0
M  V30 4383 C 399.594 -0.761533 -2.90897 0
M  V30 4384 C 401.142 -0.728926 -3.04394 0
M  V30 4385 C 401.617 -1.29667 -4.39261 0
M  V30 4386 N 403.108 -1.25799 -4.4579 0
M  V30 4387 C 403.843 -1.66733 -5.48623 0
M  V30 4388 N 403.339 -2.15327 -6.58488 0
M  V30 4389 N 405.132 -1.58061 -5.39419 0
M  V30 4390 H 397.283 -1.48778 -1.51588 0
M  V30 4391 H 399.546 -0.617968 -0.718901 0
M  V30 4392 H 399.252 -1.81136 -3.01468 0
M  V30 4393 H 399.126 -0.230106 -3.76497 0
M  V30 4394 H 401.513 0.312098 -2.93445 0
M  V30 4395 H 401.594 -1.29766 -2.20442 0
M  V30 4396 H 401.238 -2.33655 -4.50963 0
M  V30 4397 H 401.168 -0.703752 -5.21876 0
M  V30 4398 H 403.659 -0.902102 -3.66975 0
M  V30 4399 H 403.972 -2.44594 -7.33071 0
M  V30 4400 H 402.317 -2.19311 -6.59491 0
M  V30 4401 H 405.508 -1.19906 -4.52482 0
M  V30 4402 H 405.681 -1.90284 -6.19432 0
M  V30 4403 N 399.087 1.5561 -0.249682 0
M  V30 4404 C 400.333 1.99306 0.374841 0
M  V30 4405 C 400.666 1.13767 1.57387 0
M  V30 4406 O 399.941 0.201711 1.93451 0
M  V30 4407 C 400.224 3.51507 0.781986 0
M  V30 4408 C 400.077 4.4781 -0.422629 0
M  V30 4409 C 401.396 4.08884 1.62793 0
M  V30 4410 H 398.515 0.724572 0.134773 0
M  V30 4411 H 401.157 1.86719 -0.351549 0
M  V30 4412 H 399.307 3.62363 1.4009 0
M  V30 4413 H 400.979 4.48931 -1.06108 0
M  V30 4414 H 399.222 4.20518 -1.06524 0
M  V30 4415 H 399.893 5.51919 -0.0943766 0
M  V30 4416 H 402.369 4.01147 1.10547 0
M  V30 4417 H 401.245 5.1564 1.88166 0
M  V30 4418 H 401.506 3.57515 2.60068 0
M  V30 4419 N 400.565 -0.0233959 1.57583 0
M  V30 4420 C 401.813 -0.711654 1.89156 0
M  V30 4421 C 402.134 -1.75591 0.848096 0
M  V30 4422 O 401.404 -1.95547 -0.117566 0
M  V30 4423 H 399.984 -0.265835 0.698098 0
M  V30 4424 H 402.646 0.0119948 1.94896 0
M  V30 4425 H 401.742 -1.19766 2.88206 0
M  V30 4426 N 402.043 -1.548 -0.295768 0
M  V30 4427 C 402.99 -1.86113 -1.36494 0
M  V30 4428 C 403.96 -0.7105 -1.50137 0
M  V30 4429 O 405.145 -0.959626 -1.64912 0
M  V30 4430 C 402.285 -2.11861 -2.72413 0
M  V30 4431 C 401.398 -3.39471 -2.67177 0
M  V30 4432 C 400.533 -3.55035 -3.95125 0
M  V30 4433 C 399.572 -4.76418 -3.84308 0
M  V30 4434 N 398.709 -4.8876 -5.04042 0
M  V30 4435 H 403.549 -2.77314 -1.09091 0
M  V30 4436 H 401.086 -1.37315 -0.52753 0
M  V30 4437 H 403.044 -2.24786 -3.51464 0
M  V30 4438 H 401.674 -1.2392 -2.98066 0
M  V30 4439 H 400.726 -3.35139 -1.79962 0
M  V30 4440 H 402.038 -4.28646 -2.55076 0
M  V30 4441 H 401.192 -3.67653 -4.82614 0
M  V30 4442 H 399.931 -2.64002 -4.10066 0
M  V30 4443 H 398.936 -4.63827 -2.95202 0
M  V30 4444 H 400.161 -5.68863 -3.70906 0
M  V30 4445 H 398.107 -4.00652 -5.19436 0
M  V30 4446 H 398.024 -5.71945 -4.94384 0
M  V30 4447 H 399.292 -5.0574 -5.93167 0
M  V30 4448 N 403.521 0.559213 -1.47345 0
M  V30 4449 C 404.746 1.34676 -1.57725 0
M  V30 4450 C 405.171 1.86723 -0.227164 0
M  V30 4451 O 404.529 1.6286 0.796642 0
M  V30 4452 C 404.577 2.49399 -2.60447 0
M  V30 4453 O 403.681 3.51567 -2.15578 0
M  V30 4454 H 403.022 0.400115 -0.52991 0
M  V30 4455 H 405.552 0.676009 -1.93109 0
M  V30 4456 H 405.562 2.95996 -2.80803 0
M  V30 4457 H 404.237 2.10873 -3.58477 0
M  V30 4458 H 402.814 3.11289 -2.05313 0
M  V30 4459 N 404.999 1.35443 0.805782 0
M  V30 4460 C 406.229 1.31687 1.59192 0
M  V30 4461 C 406.637 -0.10756 1.88894 0
M  V30 4462 O 405.98 -1.07017 1.49309 0
M  V30 4463 C 406.042 2.05686 2.94845 0
M  V30 4464 C 405.706 3.54868 2.87954 0
M  V30 4465 C 406.703 4.49444 2.61335 0
M  V30 4466 C 404.388 3.97528 3.07046 0
M  V30 4467 C 406.382 5.84655 2.53885 0
M  V30 4468 C 404.069 5.32833 2.99219 0
M  V30 4469 C 405.067 6.26209 2.72674 0
M  V30 4470 O 404.755 7.59032 2.64811 0
M  V30 4471 H 404.487 0.453878 0.50097 0
M  V30 4472 H 407.041 1.78892 1.0093 0
M  V30 4473 H 405.271 1.5312 3.55093 0
M  V30 4474 H 406.96 1.94998 3.55993 0
M  V30 4475 H 407.726 4.17804 2.46303 0
M  V30 4476 H 403.605 3.25233 3.26718 0
M  V30 4477 H 407.149 6.57508 2.33086 0
M  V30 4478 H 403.046 5.64087 3.13809 0
M  V30 4479 H 403.814 7.68967 2.80413 0
M  V30 4480 N 406.477 -1.02803 1.19454 0
M  V30 4481 C 407.407 -2.12999 0.956758 0
M  V30 4482 C 408.388 -1.69743 -0.110188 0
M  V30 4483 O 409.573 -1.94148 0.0450038 0
M  V30 4484 C 406.703 -3.43746 0.495553 0
M  V30 4485 C 405.657 -4.00688 1.50443 0
M  V30 4486 C 404.983 -5.27067 0.900275 0
M  V30 4487 C 406.283 -4.35397 2.8849 0
M  V30 4488 H 407.977 -2.33148 1.87836 0
M  V30 4489 H 405.523 -1.12045 0.904539 0
M  V30 4490 H 407.476 -4.2021 0.316493 0
M  V30 4491 H 406.2 -3.23321 -0.461646 0
M  V30 4492 H 404.859 -3.2632 1.67065 0
M  V30 4493 H 404.507 -5.02959 -0.064503 0
M  V30 4494 H 404.207 -5.66127 1.57397 0
M  V30 4495 H 405.731 -6.06196 0.73203 0
M  V30 4496 H 407.145 -5.02795 2.75446 0
M  V30 4497 H 405.542 -4.85541 3.52661 0
M  V30 4498 H 406.612 -3.44662 3.41081 0
M  V30 4499 N 407.956 -0.998596 -1.21925 0
M  V30 4500 C 408.866 -0.562736 -2.27751 0
M  V30 4501 C 409.882 0.391203 -1.69545 0
M  V30 4502 O 411.058 0.256625 -1.99758 0
M  V30 4503 C 408.123 0.11012 -3.46525 0
M  V30 4504 C 407.184 -0.887495 -4.20026 0
M  V30 4505 C 406.417 -0.246654 -5.3313 0
M  V30 4506 O 406.64 0.958088 -5.62296 0
M  V30 4507 O 405.574 -0.954374 -5.94286 0
M  V30 4508 H 409.4 -1.44329 -2.67213 0
M  V30 4509 H 406.985 -0.767135 -1.28201 0
M  V30 4510 H 408.867 0.486756 -4.18579 0
M  V30 4511 H 407.542 0.965154 -3.08976 0
M  V30 4512 H 406.449 -1.31517 -3.5022 0
M  V30 4513 H 407.782 -1.71191 -4.6147 0
M  V30 4514 N 409.434 1.37368 -0.772513 0
M  V30 4515 C 410.664 2.03647 -0.348082 0
M  V30 4516 C 411.072 1.58392 1.03482 0
M  V30 4517 O 410.415 0.760921 1.672 0
M  V30 4518 C 410.477 3.58131 -0.313404 0
M  V30 4519 C 410.141 4.2652 -1.64102 0
M  V30 4520 C 411.138 4.50587 -2.5936 0
M  V30 4521 C 408.823 4.64335 -1.91567 0
M  V30 4522 C 410.817 5.11526 -3.80289 0
M  V30 4523 C 408.504 5.24996 -3.12766 0
M  V30 4524 C 409.502 5.48529 -4.06946 0
M  V30 4525 O 409.19 6.07921 -5.26011 0
M  V30 4526 H 408.922 0.660538 -0.143753 0
M  V30 4527 H 411.476 1.76669 -1.04772 0
M  V30 4528 H 409.706 3.84159 0.442617 0
M  V30 4529 H 411.395 4.05813 0.0840613 0
M  V30 4530 H 412.161 4.21784 -2.39423 0
M  V30 4531 H 408.04 4.45353 -1.19088 0
M  V30 4532 H 411.584 5.29811 -4.53813 0
M  V30 4533 H 407.481 5.53223 -3.32588 0
M  V30 4534 H 408.249 6.26398 -5.26847 0
M  V30 4535 N 410.912 0.523116 1.48665 0
M  V30 4536 C 411.844 -0.280421 2.27478 0
M  V30 4537 C 412.857 -0.910694 1.34945 0
M  V30 4538 O 414.046 -0.790295 1.60052 0
M  V30 4539 C 411.146 -1.41171 3.08097 0
M  V30 4540 C 410.319 -0.884642 4.28361 0
M  V30 4541 C 409.378 -1.89622 4.90846 0
M  V30 4542 O 408.404 -1.4559 5.50265 0
M  V30 4543 N 409.606 -3.22801 4.82472 0
M  V30 4544 H 412.371 0.395481 2.97079 0
M  V30 4545 H 409.932 0.357018 1.57915 0
M  V30 4546 H 411.924 -2.08645 3.4677 0
M  V30 4547 H 410.494 -1.99139 2.40961 0
M  V30 4548 H 409.714 -0.0341177 3.94185 0
M  V30 4549 H 411.002 -0.511268 5.06225 0
M  V30 4550 H 410.4 -3.61246 4.35336 0
M  V30 4551 H 408.957 -3.85927 5.25265 0
M  V30 4552 N 412.39 -1.55475 0.257931 0
M  V30 4553 C 413.62 -2.03314 -0.367026 0
M  V30 4554 C 414.028 -1.13625 -1.51281 0
M  V30 4555 O 413.371 -0.145334 -1.83124 0
M  V30 4556 C 413.433 -3.47362 -0.926284 0
M  V30 4557 C 413.097 -4.56914 0.0886584 0
M  V30 4558 C 414.094 -5.12013 0.902123 0
M  V30 4559 C 411.779 -5.01827 0.217936 0
M  V30 4560 C 413.773 -6.10529 1.83122 0
M  V30 4561 C 411.46 -6.00172 1.15052 0
M  V30 4562 C 412.458 -6.54402 1.95568 0
M  V30 4563 O 412.146 -7.50827 2.87253 0
M  V30 4564 H 411.878 -0.669976 -0.0900443 0
M  V30 4565 H 414.432 -2.01804 0.382673 0
M  V30 4566 H 412.662 -3.46056 -1.72575 0
M  V30 4567 H 414.351 -3.78637 -1.46249 0
M  V30 4568 H 415.117 -4.78139 0.812891 0
M  V30 4569 H 410.996 -4.59272 -0.398721 0
M  V30 4570 H 414.54 -6.52783 2.46008 0
M  V30 4571 H 410.437 -6.33465 1.24064 0
M  V30 4572 H 411.205 -7.68483 2.81739 0
M  V30 4573 N 413.868 0.0150385 -1.57593 0
M  V30 4574 C 414.778 1.02791 -2.10882 0
M  V30 4575 C 415.794 1.38702 -1.0506 0
M  V30 4576 O 416.97 1.47739 -1.36877 0
M  V30 4577 C 414.035 2.30568 -2.58919 0
M  V30 4578 C 413.096 2.01108 -3.79281 0
M  V30 4579 C 412.329 3.22794 -4.25018 0
M  V30 4580 O 412.552 4.33959 -3.70183 0
M  V30 4581 O 411.486 3.07672 -5.17322 0
M  V30 4582 H 415.312 0.604973 -2.97613 0
M  V30 4583 H 412.897 0.23292 -1.47573 0
M  V30 4584 H 414.779 3.05662 -2.90084 0
M  V30 4585 H 413.454 2.72129 -1.75293 0
M  V30 4586 H 412.361 1.23537 -3.53114 0
M  V30 4587 H 413.694 1.64394 -4.63935 0
M  V30 4588 N 415.346 1.54954 0.287554 0
M  V30 4589 C 416.623 1.65569 1.04146 0
M  V30 4590 C 417.003 0.512672 2.0478 0
M  V30 4591 O 416.351 -0.489038 2.23205 0
M  V30 4592 C 416.561 3.04163 1.71131 0
M  V30 4593 C 417.909 3.61429 2.22832 0
M  V30 4594 O 418.933 3.06702 1.81141 0
M  V30 4595 O 417.792 4.57281 2.9926 0
M  V30 4596 H 414.886 0.671881 0.482188 0
M  V30 4597 H 417.432 1.67297 0.28457 0
M  V30 4598 H 416.204 3.78796 0.981303 0
M  V30 4599 H 415.827 3.06271 2.53543 0
M  V30 4600 N 416.824 -0.551391 1.4764 0
M  V30 4601 C 418.07 -1.31024 1.54792 0
M  V30 4602 C 418.403 -1.9304 0.211967 0
M  V30 4603 O 417.678 -1.78175 -0.77999 0
M  V30 4604 C 417.961 -2.41593 2.67029 0
M  V30 4605 C 417.814 -1.84408 4.10261 0
M  V30 4606 C 419.133 -3.43488 2.75143 0
M  V30 4607 H 416.252 -0.475031 0.563485 0
M  V30 4608 H 418.894 -0.616454 1.79722 0
M  V30 4609 H 417.044 -3.00772 2.45904 0
M  V30 4610 H 418.716 -1.29445 4.42766 0
M  V30 4611 H 416.959 -1.15051 4.18265 0
M  V30 4612 H 417.63 -2.64367 4.84576 0
M  V30 4613 H 420.106 -2.94236 2.94218 0
M  V30 4614 H 418.982 -4.18274 3.55441 0
M  V30 4615 H 419.243 -4.02703 1.82435 0
M  V30 4616 N 418.302 -1.35869 -0.798587 0
M  V30 4617 C 419.232 -1.32118 -1.92528 0
M  V30 4618 C 420.213 -0.194209 -1.68988 0
M  V30 4619 O 421.398 -0.390426 -1.90235 0
M  V30 4620 C 418.528 -1.10047 -3.29404 0
M  V30 4621 C 417.482 -2.19471 -3.67446 0
M  V30 4622 C 416.808 -1.82555 -5.02571 0
M  V30 4623 C 418.108 -3.61495 -3.76987 0
M  V30 4624 H 419.802 -2.26394 -1.95924 0
M  V30 4625 H 417.348 -1.08981 -0.94123 0
M  V30 4626 H 419.301 -1.06061 -4.07835 0
M  V30 4627 H 418.025 -0.122195 -3.26371 0
M  V30 4628 H 416.684 -2.22568 -2.91306 0
M  V30 4629 H 416.332 -0.833249 -4.9605 0
M  V30 4630 H 416.032 -2.5581 -5.28995 0
M  V30 4631 H 417.556 -1.80108 -5.83432 0
M  V30 4632 H 418.97 -3.60676 -4.4563 0
M  V30 4633 H 417.367 -4.33577 -4.14887 0
M  V30 4634 H 418.437 -3.97065 -2.78329 0
M  V30 4635 N 419.78 1.02168 -1.19998 0
M  V30 4636 C 421.196 1.27969 -0.953737 0
M  V30 4637 C 421.396 1.98079 0.369703 0
M  V30 4638 O 420.452 2.27306 1.09947 0
M  V30 4639 C 421.765 2.11971 -2.13281 0
M  V30 4640 C 423.313 2.25255 -2.17323 0
M  V30 4641 C 423.788 3.12632 -3.34702 0
M  V30 4642 N 425.279 3.2022 -3.34684 0
M  V30 4643 C 426.014 3.88039 -4.22153 0
M  V30 4644 N 425.51 4.58027 -5.19791 0
M  V30 4645 N 427.303 3.84511 -4.10009 0
M  V30 4646 H 419.454 0.550794 -2.05134 0
M  V30 4647 H 421.717 0.305683 -0.897364 0
M  V30 4648 H 421.423 1.67785 -3.09097 0
M  V30 4649 H 421.297 3.12699 -2.10949 0
M  V30 4650 H 423.684 2.68667 -1.22073 0
M  V30 4651 H 423.765 1.24053 -2.23706 0
M  V30 4652 H 423.409 2.69926 -4.30235 0
M  V30 4653 H 423.339 4.13909 -3.25556 0
M  V30 4654 H 425.83 2.70382 -2.64012 0
M  V30 4655 H 426.143 5.07429 -5.82868 0
M  V30 4656 H 424.488 4.56869 -5.23733 0
M  V30 4657 H 427.679 3.28978 -3.33003 0
M  V30 4658 H 427.852 4.3709 -4.78389 0
M  V30 4659 N 421.258 1.00505 1.21394 0
M  V30 4660 C 422.506 0.686415 1.90086 0
M  V30 4661 C 422.827 -0.785264 1.7849 0
M  V30 4662 O 422.097 -1.56387 1.17983 0
M  V30 4663 H 420.677 0.2509 0.703604 0
M  V30 4664 H 423.339 1.27417 1.47482 0
M  V30 4665 H 422.435 0.959621 2.96981 0
M  V30 4666 N 422.737 -1.36956 0.779787 0
M  V30 4667 C 423.684 -2.30175 0.169697 0
M  V30 4668 C 424.654 -1.51501 -0.68094 0
M  V30 4669 O 425.839 -1.80042 -0.631629 0
M  V30 4670 C 422.979 -3.37985 -0.697131 0
M  V30 4671 C 422.092 -4.31661 0.170992 0
M  V30 4672 C 421.227 -5.2655 -0.701298 0
M  V30 4673 C 420.266 -6.11867 0.168869 0
M  V30 4674 N 419.403 -6.98973 -0.661855 0
M  V30 4675 H 424.243 -2.81767 0.970135 0
M  V30 4676 H 421.78 -1.38699 0.489994 0
M  V30 4677 H 423.738 -3.99128 -1.2146 0
M  V30 4678 H 422.368 -2.87739 -1.46309 0
M  V30 4679 H 421.42 -3.71756 0.80634 0
M  V30 4680 H 422.732 -4.91644 0.841875 0
M  V30 4681 H 421.886 -5.92937 -1.28494 0
M  V30 4682 H 420.625 -4.66998 -1.40584 0
M  V30 4683 H 419.63 -5.44452 0.764986 0
M  V30 4684 H 420.855 -6.73493 0.870863 0
M  V30 4685 H 418.801 -6.41941 -1.35086 0
M  V30 4686 H 418.718 -7.55984 -0.0484447 0
M  V30 4687 H 419.986 -7.6974 -1.22963 0
M  V30 4688 N 424.215 -0.530993 -1.48385 0
M  V30 4689 C 425.162 0.231223 -2.29639 0
M  V30 4690 C 426.132 0.932864 -1.37429 0
M  V30 4691 O 427.317 0.933692 -1.66394 0
M  V30 4692 C 424.457 1.27155 -3.2082 0
M  V30 4693 C 423.57 0.578655 -4.28107 0
M  V30 4694 C 422.705 1.602 -5.06467 0
M  V30 4695 C 421.744 0.892625 -6.05556 0
M  V30 4696 N 420.881 1.86157 -6.76971 0
M  V30 4697 H 425.721 -0.467848 -2.94305 0
M  V30 4698 H 423.258 -0.242556 -1.45086 0
M  V30 4699 H 425.216 1.88703 -3.72085 0
M  V30 4700 H 423.846 1.939 -2.58075 0
M  V30 4701 H 422.898 -0.150782 -3.80101 0
M  V30 4702 H 424.21 0.0217065 -4.98795 0
M  V30 4703 H 423.364 2.29173 -5.61751 0
M  V30 4704 H 422.103 2.19285 -4.35621 0
M  V30 4705 H 421.108 0.188829 -5.49476 0
M  V30 4706 H 422.333 0.307878 -6.78402 0
M  V30 4707 H 420.279 2.44147 -6.08875 0
M  V30 4708 H 420.196 1.35608 -7.43738 0
M  V30 4709 H 421.464 2.54325 -7.36844 0
M  V30 4710 N 425.693 1.55336 -0.266172 0
M  V30 4711 C 426.64 2.22172 0.625165 0
M  V30 4712 C 427.61 1.19211 1.15663 0
M  V30 4713 O 428.795 1.47723 1.20758 0
M  V30 4714 C 425.935 2.93972 1.8076 0
M  V30 4715 C 425.048 4.11632 1.31084 0
M  V30 4716 C 424.183 4.71099 2.45436 0
M  V30 4717 C 423.222 5.8097 1.92718 0
M  V30 4718 N 422.359 6.34538 3.00509 0
M  V30 4719 H 427.199 2.9796 0.0485582 0
M  V30 4720 H 424.736 1.47095 0.0122024 0
M  V30 4721 H 426.694 3.33811 2.50251 0
M  V30 4722 H 425.324 2.20623 2.35638 0
M  V30 4723 H 424.376 3.76975 0.509326 0
M  V30 4724 H 425.688 4.90893 0.884633 0
M  V30 4725 H 424.842 5.13612 3.22936 0
M  V30 4726 H 423.581 3.91096 2.91368 0
M  V30 4727 H 422.586 5.37916 1.13695 0
M  V30 4728 H 423.811 6.62836 1.47733 0
M  V30 4729 H 421.757 5.57433 3.45839 0
M  V30 4730 H 421.674 7.09046 2.62279 0
M  V30 4731 H 422.942 6.81709 3.78011 0
M  V30 4732 N 427.171 -0.0066808 1.57599 0
M  V30 4733 C 428.081 -1.01671 2.11424 0
M  V30 4734 C 429.097 -1.38143 1.05795 0
M  V30 4735 O 430.273 -1.47011 1.37658 0
M  V30 4736 C 427.338 -2.29192 2.60139 0
M  V30 4737 C 426.399 -1.99094 3.80342 0
M  V30 4738 C 425.632 -3.20535 4.26724 0
M  V30 4739 O 425.855 -4.3199 3.72479 0
M  V30 4740 O 424.789 -3.04924 5.18946 0
M  V30 4741 H 428.615 -0.589181 2.9793 0
M  V30 4742 H 426.2 -0.225091 1.47695 0
M  V30 4743 H 428.082 -3.0412 2.917 0
M  V30 4744 H 426.757 -2.71195 1.76733 0
M  V30 4745 H 425.664 -1.21663 3.53764 0
M  V30 4746 H 426.997 -1.61931 4.648 0
M  V30 4747 N 428.649 -1.55105 -0.279332 0
M  V30 4748 C 429.582 -1.82467 -1.37044 0
M  V30 4749 C 430.56 -0.677261 -1.47824 0
M  V30 4750 O 431.744 -0.919578 -1.64548 0
M  V30 4751 C 428.871 -1.98066 -2.7475 0
M  V30 4752 C 427.917 -3.20594 -2.81286 0
M  V30 4753 S 428.75 -4.78116 -2.41175 0
M  V30 4754 C 429.906 -4.9668 -3.80867 0
M  V30 4755 H 430.139 -2.74728 -1.1363 0
M  V30 4756 H 427.672 -1.46794 -0.478625 0
M  V30 4757 H 429.63 -2.07739 -3.54055 0
M  V30 4758 H 428.291 -1.06704 -2.9542 0
M  V30 4759 H 427.484 -3.28376 -3.82341 0
M  V30 4760 H 427.086 -3.09479 -2.09996 0
M  V30 4761 H 429.378 -4.82033 -4.76078 0
M  V30 4762 H 430.321 -5.98741 -3.78041 0
M  V30 4763 H 430.729 -4.24698 -3.71876 0
M  V30 4764 N 430.127 0.543554 -1.4793 0
M  V30 4765 C 431.074 1.64942 -1.6144 0
M  V30 4766 C 432.044 1.59692 -0.456903 0
M  V30 4767 O 433.229 1.78321 -0.678688 0
M  V30 4768 C 430.369 3.03238 -1.64744 0
M  V30 4769 C 429.482 3.18823 -2.91506 0
M  V30 4770 C 428.617 4.47599 -2.86057 0
M  V30 4771 C 427.656 4.56664 -4.07584 0
M  V30 4772 N 426.793 5.76811 -4.00292 0
M  V30 4773 H 431.633 1.52733 -2.55884 0
M  V30 4774 H 429.17 0.7438 -1.2691 0
M  V30 4775 H 431.128 3.83339 -1.64641 0
M  V30 4776 H 429.758 3.1425 -0.738017 0
M  V30 4777 H 428.81 2.32064 -3.01414 0
M  V30 4778 H 430.122 3.21384 -3.81463 0
M  V30 4779 H 429.276 5.35975 -2.84281 0
M  V30 4780 H 428.015 4.47538 -1.93807 0
M  V30 4781 H 427.02 3.66697 -4.09651 0
M  V30 4782 H 428.245 4.58474 -5.00978 0
M  V30 4783 H 426.191 5.77673 -3.10853 0
M  V30 4784 H 426.108 5.80808 -4.8394 0
M  V30 4785 H 427.376 6.67512 -4.02553 0
M  V30 4786 N 431.605 1.3629 0.791371 0
M  V30 4787 C 432.835 1.33368 1.57786 0
M  V30 4788 C 433.243 -0.0875188 1.88997 0
M  V30 4789 O 432.586 -1.05427 1.50435 0
M  V30 4790 C 432.648 2.08802 2.92646 0
M  V30 4791 C 432.312 3.57903 2.84174 0
M  V30 4792 C 433.309 4.52191 2.56553 0
M  V30 4793 C 430.994 4.00762 3.02812 0
M  V30 4794 C 432.988 5.87315 2.47669 0
M  V30 4795 C 430.675 5.35977 2.93551 0
M  V30 4796 C 431.673 6.29066 2.66017 0
M  V30 4797 O 431.361 7.61798 2.56746 0
M  V30 4798 H 431.093 0.459166 0.496128 0
M  V30 4799 H 433.647 1.79952 0.990269 0
M  V30 4800 H 431.877 1.56878 3.53449 0
M  V30 4801 H 433.566 1.98762 3.53904 0
M  V30 4802 H 434.332 4.20393 2.41858 0
M  V30 4803 H 430.211 3.2868 3.2325 0
M  V30 4804 H 433.755 6.59943 2.26099 0
M  V30 4805 H 429.652 5.67384 3.07808 0
M  V30 4806 H 430.42 7.71898 2.72242 0
M  V30 4807 N 433.083 -1.0153 1.20538 0
M  V30 4808 C 434.311 -1.78746 1.04199 0
M  V30 4809 C 434.726 -1.84323 -0.408733 0
M  V30 4810 O 434.083 -1.29714 -1.28377 0
M  V30 4811 C 434.134 -3.23152 1.62035 0
M  V30 4812 O 433.855 -3.17918 3.0143 0
M  V30 4813 C 435.356 -4.16911 1.50666 0
M  V30 4814 H 432.576 -0.56208 0.366479 0
M  V30 4815 H 435.12 -1.27794 1.59653 0
M  V30 4816 H 433.275 -3.71248 1.10697 0
M  V30 4817 H 433.689 -4.08567 3.28897 0
M  V30 4818 H 435.163 -5.16072 1.95892 0
M  V30 4819 H 435.64 -4.36791 0.459363 0
M  V30 4820 H 436.246 -3.74698 2.01201 0
M  V30 4821 N 434.561 -1.01147 -1.20859 0
M  V30 4822 C 435.789 -0.716911 -1.94082 0
M  V30 4823 C 436.204 0.721568 -1.74467 0
M  V30 4824 O 435.561 1.48889 -1.05539 0
M  V30 4825 C 435.612 -1.03662 -3.46318 0
M  V30 4826 O 435.333 -2.4186 -3.65288 0
M  V30 4827 C 436.834 -0.762386 -4.36695 0
M  V30 4828 H 434.054 -0.26367 -0.617024 0
M  V30 4829 H 436.598 -1.35127 -1.53496 0
M  V30 4830 H 434.753 -0.447757 -3.84804 0
M  V30 4831 H 435.167 -2.53224 -4.59323 0
M  V30 4832 H 436.641 -1.03621 -5.42187 0
M  V30 4833 H 437.118 0.303514 -4.3815 0
M  V30 4834 H 437.724 -1.33316 -4.03865 0
M  V30 4835 N 436.039 1.36541 -0.78704 0
M  V30 4836 C 437.316 1.9355 -0.282424 0
M  V30 4837 C 437.696 1.71919 1.22503 0
M  V30 4838 O 437.044 1.07677 2.01539 0
M  V30 4839 C 437.254 3.4246 -0.672462 0
M  V30 4840 C 438.602 4.19582 -0.650863 0
M  V30 4841 O 439.626 3.50889 -0.612789 0
M  V30 4842 O 438.485 5.42106 -0.691623 0
M  V30 4843 H 435.579 0.824091 -0.0693 0
M  V30 4844 H 438.125 1.45736 -0.869423 0
M  V30 4845 H 436.897 3.51851 -1.71221 0
M  V30 4846 H 436.52 3.97556 -0.0592211 0
M  V30 4847 N 437.518 0.538854 1.48102 0
M  V30 4848 C 438.465 -0.219042 2.29758 0
M  V30 4849 C 439.435 -0.925562 1.37922 0
M  V30 4850 O 440.62 -0.924855 1.66886 0
M  V30 4851 C 437.76 -1.25452 3.2149 0
M  V30 4852 C 436.873 -0.555943 4.28408 0
M  V30 4853 C 436.008 -1.57512 5.0731 0
M  V30 4854 C 435.047 -0.860498 6.06021 0
M  V30 4855 N 434.184 -1.82564 6.77949 0
M  V30 4856 H 439.024 0.483449 2.94052 0
M  V30 4857 H 436.561 0.250247 1.44956 0
M  V30 4858 H 438.519 -1.86727 3.7308 0
M  V30 4859 H 437.149 -1.92528 2.591 0
M  V30 4860 H 436.201 0.170938 3.80016 0
M  V30 4861 H 437.513 0.00474616 4.988 0
M  V30 4862 H 436.667 -2.26191 5.62959 0
M  V30 4863 H 435.406 -2.16972 4.36778 0
M  V30 4864 H 434.411 -0.159686 5.49568 0
M  V30 4865 H 435.636 -0.271897 6.78555 0
M  V30 4866 H 433.582 -2.40915 6.10161 0
M  V30 4867 H 433.499 -1.31662 7.44447 0
M  V30 4868 H 434.767 -2.50414 7.38182 0
M  V30 4869 N 438.996 -1.55193 0.274407 0
M  V30 4870 C 440.221 -2.04446 -0.348824 0
M  V30 4871 C 440.646 -1.15149 -1.48735 0
M  V30 4872 O 440.004 -0.149952 -1.80679 0
M  V30 4873 C 440.052 -3.51431 -0.808009 0
M  V30 4874 O 439.156 -3.65225 -1.91531 0
M  V30 4875 H 438.497 -0.66006 -0.0722276 0
M  V30 4876 H 441.027 -2.00481 0.408498 0
M  V30 4877 H 441.037 -3.92781 -1.10395 0
M  V30 4878 H 439.712 -4.15892 0.0249865 0
M  V30 4879 H 438.289 -3.35778 -1.62196 0
M  V30 4880 N 440.474 -0.00167713 -1.576 0
M  V30 4881 C 441.722 0.681471 -1.90264 0
M  V30 4882 C 442.043 1.7422 -0.875924 0
M  V30 4883 O 441.313 1.95709 0.0864412 0
M  V30 4884 H 439.893 0.254696 -0.702239 0
M  V30 4885 H 442.555 -0.0429996 -1.94853 0
M  V30 4886 H 441.651 1.15166 -2.90075 0
M  V30 4887 N 441.952 1.55251 0.271103 0
M  V30 4888 C 442.899 1.88261 1.33516 0
M  V30 4889 C 443.869 0.734296 1.48988 0
M  V30 4890 O 445.054 0.985741 1.63364 0
M  V30 4891 C 442.194 2.16168 2.69008 0
M  V30 4892 C 441.307 3.43678 2.61743 0
M  V30 4893 C 440.442 3.61276 3.89427 0
M  V30 4894 C 439.481 4.82472 3.7668 0
M  V30 4895 N 438.618 4.96717 4.96202 0
M  V30 4896 H 443.458 2.79015 1.04665 0
M  V30 4897 H 440.995 1.38137 0.505618 0
M  V30 4898 H 442.953 2.30349 3.47844 0
M  V30 4899 H 441.583 1.28646 2.96057 0
M  V30 4900 H 440.635 3.37959 1.74607 0
M  V30 4901 H 441.947 4.3265 2.48224 0
M  V30 4902 H 441.101 3.75284 4.76704 0
M  V30 4903 H 439.84 2.70492 4.05814 0
M  V30 4904 H 438.845 4.68465 2.87786 0
M  V30 4905 H 440.07 5.74692 3.61809 0
M  V30 4906 H 438.016 4.08865 5.12997 0
M  V30 4907 H 437.933 5.79738 4.85222 0
M  V30 4908 H 439.201 5.15113 5.85046 0
M  V30 4909 N 443.43 -0.535701 1.48216 0
M  V30 4910 C 444.676 -1.29375 1.56173 0
M  V30 4911 C 445.009 -1.92804 0.232429 0
M  V30 4912 O 444.284 -1.78992 -0.761048 0
M  V30 4913 C 444.567 -2.38747 2.69577 0
M  V30 4914 C 444.42 -1.80046 4.12193 0
M  V30 4915 C 445.739 -3.40551 2.78771 0
M  V30 4916 H 442.858 -0.469027 0.568491 0
M  V30 4917 H 445.5 -0.597358 1.80365 0
M  V30 4918 H 443.65 -2.98147 2.4908 0
M  V30 4919 H 445.322 -1.24742 4.44114 0
M  V30 4920 H 443.565 -1.10609 4.19462 0
M  V30 4921 H 444.236 -2.59212 4.87353 0
M  V30 4922 H 446.712 -2.91099 2.97322 0
M  V30 4923 H 445.588 -4.1448 3.59857 0
M  V30 4924 H 445.849 -4.00746 1.86696 0
M  V30 4925 N 444.908 -1.36708 -0.784132 0
M  V30 4926 C 446.136 -1.34398 -1.57305 0
M  V30 4927 C 446.551 0.0735577 -1.88657 0
M  V30 4928 O 445.908 1.03193 -1.50524 0
M  V30 4929 C 445.959 -2.17053 -2.89085 0
M  V30 4930 O 445.68 -3.53281 -2.59083 0
M  V30 4931 C 447.181 -2.22583 -3.83369 0
M  V30 4932 H 444.401 -0.460819 -0.487736 0
M  V30 4933 H 446.945 -1.79879 -0.972819 0
M  V30 4934 H 445.1 -1.75113 -3.45564 0
M  V30 4935 H 445.514 -3.9647 -3.43383 0
M  V30 4936 H 446.988 -2.84763 -4.72878 0
M  V30 4937 H 447.465 -1.23075 -4.21603 0
M  V30 4938 H 448.071 -2.64781 -3.32823 0
M  V30 4939 N 446.386 1.0089 -1.21074 0
M  V30 4940 C 447.611 1.78727 -1.05221 0
M  V30 4941 C 448.036 1.83932 0.393795 0
M  V30 4942 O 447.394 1.28004 1.28393 0
M  V30 4943 C 447.442 3.20665 -1.64944 0
M  V30 4944 O 446.546 4.02632 -0.892273 0
M  V30 4945 H 445.887 0.550973 -0.370574 0
M  V30 4946 H 448.417 1.26847 -1.60534 0
M  V30 4947 H 448.427 3.71352 -1.69002 0
M  V30 4948 H 447.102 3.16191 -2.70177 0
M  V30 4949 H 445.679 3.61207 -0.926492 0
M  V30 4950 N 447.864 1.01787 1.20321 0
M  V30 4951 C 449.089 0.727009 1.9424 0
M  V30 4952 C 449.514 -0.706179 1.74341 0
M  V30 4953 O 448.872 -1.48609 1.03852 0
M  V30 4954 C 448.92 1.06958 3.44372 0
M  V30 4955 O 448.024 0.181983 4.11998 0
M  V30 4956 H 447.365 0.269626 0.606793 0
M  V30 4957 H 449.895 1.36158 1.52716 0
M  V30 4958 H 449.905 1.02182 3.94997 0
M  V30 4959 H 448.58 2.11378 3.58179 0
M  V30 4960 H 447.157 0.287378 3.71791 0
M  V30 4961 N 449.342 -1.36122 0.79427 0
M  V30 4962 C 450.252 -2.33769 0.197296 0
M  V30 4963 C 451.268 -1.61276 -0.653153 0
M  V30 4964 O 452.444 -1.9323 -0.5678 0
M  V30 4965 C 449.509 -3.40474 -0.654098 0
M  V30 4966 C 448.57 -4.28759 0.215411 0
M  V30 4967 C 447.803 -5.30368 -0.595443 0
M  V30 4968 O 448.026 -5.40211 -1.83107 0
M  V30 4969 O 446.96 -6.019 0.00721351 0
M  V30 4970 H 450.786 -2.86597 1.00478 0
M  V30 4971 H 448.371 -1.38676 0.555818 0
M  V30 4972 H 450.253 -4.05703 -1.13944 0
M  V30 4973 H 448.928 -2.89937 -1.43938 0
M  V30 4974 H 447.835 -3.66554 0.747615 0
M  V30 4975 H 449.168 -4.82661 0.964332 0
M  V30 4976 N 450.82 -0.546701 -1.47814 0
M  V30 4977 C 452.066 -0.0187684 -2.02791 0
M  V30 4978 C 452.399 1.32338 -1.42128 0
M  V30 4979 O 451.674 1.85867 -0.573023 0
M  V30 4980 C 451.957 0.0854985 -3.59998 0
M  V30 4981 C 451.81 -1.283 -4.31114 0
M  V30 4982 C 453.129 0.80412 -4.32691 0
M  V30 4983 H 450.248 -0.0082946 -0.736953 0
M  V30 4984 H 452.89 -0.706962 -1.76358 0
M  V30 4985 H 451.04 0.671609 -3.82651 0
M  V30 4986 H 452.712 -1.91151 -4.19832 0
M  V30 4987 H 450.955 -1.86049 -3.91878 0
M  V30 4988 H 451.626 -1.16287 -5.39612 0
M  V30 4989 H 454.102 0.306576 -4.14969 0
M  V30 4990 H 452.978 0.846011 -5.42341 0
M  V30 4991 H 453.239 1.85802 -4.01161 0
M  V30 4992 N 452.299 1.55045 -0.282633 0
M  V30 4993 C 453.229 2.2579 0.595066 0
M  V30 4994 C 454.21 1.25074 1.15284 0
M  V30 4995 O 455.395 1.5381 1.18559 0
M  V30 4996 C 452.525 2.98472 1.77572 0
M  V30 4997 C 451.479 4.0618 1.34914 0
M  V30 4998 C 450.805 4.66477 2.6135 0
M  V30 4999 C 452.105 5.1996 0.493821 0
M  V30 5000 H 453.799 2.994 0.00505653 0
M  V30 5001 H 451.345 1.44 0.000992001 0
M  V30 5002 H 453.298 3.46677 2.39568 0
M  V30 5003 H 452.022 2.2241 2.39168 0
M  V30 5004 H 450.681 3.58797 0.752338 0
M  V30 5005 H 450.329 3.87074 3.2122 0
M  V30 5006 H 450.029 5.39207 2.33516 0
M  V30 5007 H 451.553 5.17435 3.24181 0
M  V30 5008 H 452.967 5.64172 1.01898 0
M  V30 5009 H 451.364 5.99299 0.310047 0
M  V30 5010 H 452.434 4.82462 -0.485593 0
M  V30 5011 N 453.777 0.010035 1.57597 0
M  V30 5012 C 454.725 -0.996272 2.10184 0
M  V30 5013 C 455.719 -1.34942 1.02406 0
M  V30 5014 O 456.925 -1.33389 1.20861 0
M  V30 5015 H 453.3 -0.338982 0.671264 0
M  V30 5016 H 455.271 -0.527272 2.93705 0
M  V30 5017 C 454.02 -2.27599 2.62857 0
M  V30 5018 H 453.343 -2.01295 3.45428 0
M  V30 5019 H 454.783 -2.96265 3.0332 0
M  V30 5020 C 453.242 -2.99269 1.54725 0
M  V30 5021 O 453.772 -3.90644 0.93597 0
M  V30 5022 N 451.978 -2.61269 1.27228 0
M  V30 5023 H 451.525 -1.87043 1.77123 0
M  V30 5024 H 451.483 -3.09534 0.550999 0
M  V30 5025 N 455.255 -1.55392 -0.262866 0
M  V30 5026 C 456.666 -1.67079 -0.833158 0
M  V30 5027 C 457.017 -0.604539 -1.86654 0
M  V30 5028 O 456.142 0.252138 -2.14926 0
M  V30 5029 C 456.737 -3.02891 -1.51797 0
M  V30 5030 C 455.296 -3.16571 -2.03617 0
M  V30 5031 C 454.443 -2.62909 -0.881701 0
M  V30 5032 H 457.394 -1.58652 -0.0389986 0
M  V30 5033 H 457.415 -2.96445 -2.38538 0
M  V30 5034 H 456.927 -3.80473 -0.765619 0
M  V30 5035 H 455.028 -2.43782 -2.81782 0
M  V30 5036 H 455.141 -4.23271 -2.24452 0
M  V30 5037 H 453.505 -2.20324 -1.27786 0
M  V30 5038 H 454.288 -3.43003 -0.14269 0
M  V30 5039 N 456.733 0.527833 -1.48498 0
M  V30 5040 C 457.981 1.28101 -1.56316 0
M  V30 5041 C 458.302 1.9352 -0.239781 0
M  V30 5042 O 457.572 1.81433 0.738849 0
M  V30 5043 H 456.152 0.475793 -0.575873 0
M  V30 5044 H 458.814 0.614052 -1.84974 0
M  V30 5045 H 457.91 2.05916 -2.34532 0
M  V30 5046 N 458.211 1.37122 0.776871 0
M  V30 5047 C 459.174 1.32301 1.8716 0
M  V30 5048 C 460.174 0.228099 1.59174 0
M  V30 5049 O 461.364 0.483642 1.67352 0
M  V30 5050 C 458.496 1.054 3.24197 0
M  V30 5051 H 459.689 2.29673 1.92848 0
M  V30 5052 H 457.242 1.22077 0.97606 0
M  V30 5053 H 457.977 0.0853872 3.24188 0
M  V30 5054 H 457.762 1.84648 3.45901 0
M  V30 5055 H 459.252 1.04664 4.04271 0
M  V30 5056 N 459.689 -1.00246 1.21608 0
M  V30 5057 C 461.105 -1.26435 0.973975 0
M  V30 5058 C 461.305 -1.98642 -0.338143 0
M  V30 5059 O 460.361 -2.29026 -1.06317 0
M  V30 5060 C 461.674 -2.08551 2.16626 0
M  V30 5061 C 463.222 -2.21769 2.20879 0
M  V30 5062 C 463.697 -3.07267 3.39633 0
M  V30 5063 N 465.188 -3.14855 3.39736 0
M  V30 5064 C 465.923 -3.81274 4.28273 0
M  V30 5065 N 465.419 -4.497 5.27012 0
M  V30 5066 N 467.212 -3.7794 4.16074 0
M  V30 5067 H 459.363 -0.518089 2.05984 0
M  V30 5068 H 461.626 -0.291368 0.902113 0
M  V30 5069 H 461.332 -1.62847 3.11727 0
M  V30 5070 H 461.206 -3.09303 2.15897 0
M  V30 5071 H 463.593 -2.66691 1.26332 0
M  V30 5072 H 463.674 -1.20478 2.25652 0
M  V30 5073 H 463.318 -2.63047 4.34475 0
M  V30 5074 H 463.248 -4.08678 3.321 0
M  V30 5075 H 465.739 -2.66147 2.6828 0
M  V30 5076 H 466.052 -4.98092 5.90867 0
M  V30 5077 H 464.397 -4.48479 5.30935 0
M  V30 5078 H 467.588 -3.23638 3.38195 0
M  V30 5079 H 467.761 -4.29424 4.85282 0
M  V30 5080 N 461.167 -1.02423 -1.1978 0
M  V30 5081 C 462.415 -0.716569 -1.8897 0
M  V30 5082 C 462.736 0.756769 -1.79716 0
M  V30 5083 O 462.006 1.5449 -1.20456 0
M  V30 5084 H 460.586 -0.262062 -0.699523 0
M  V30 5085 H 463.248 -1.29747 -1.45436 0
M  V30 5086 H 462.344 -1.00675 -2.95417 0
M  V30 5087 N 462.645 1.35699 -0.801477 0
M  V30 5088 C 463.577 2.28598 -0.166028 0
M  V30 5089 C 464.59 1.50044 0.631721 0
M  V30 5090 O 465.779 1.72339 0.464921 0
M  V30 5091 C 462.879 3.29625 0.787451 0
M  V30 5092 C 462.052 4.37384 0.037171 0
M  V30 5093 C 461.111 5.183 0.908375 0
M  V30 5094 O 460.137 5.68053 0.361189 0
M  V30 5095 N 461.339 5.35912 2.23112 0
M  V30 5096 H 464.104 2.83771 -0.964071 0
M  V30 5097 H 461.665 1.47994 -0.656469 0
M  V30 5098 H 463.657 3.80648 1.37439 0
M  V30 5099 H 462.227 2.75004 1.48632 0
M  V30 5100 H 461.447 3.87364 -0.730935 0
M  V30 5101 H 462.735 5.0653 -0.480109 0
M  V30 5102 H 462.133 4.97125 2.69968 0
M  V30 5103 H 460.69 5.90133 2.76741 0
M  V30 5104 N 464.123 0.554532 1.47522 0
M  V30 5105 C 465.4 -0.0360704 1.95567 0
M  V30 5106 C 465.78 -1.48828 1.49711 0
M  V30 5107 O 465.128 -2.16366 0.734717 0
M  V30 5108 C 465.338 0.106631 3.48837 0
M  V30 5109 C 466.686 -0.0400899 4.24581 0
M  V30 5110 O 467.71 0.0340453 3.56184 0
M  V30 5111 O 466.569 -0.199111 5.46137 0
M  V30 5112 H 463.663 -0.0656294 0.824392 0
M  V30 5113 H 466.209 0.620867 1.57935 0
M  V30 5114 H 464.981 1.11727 3.7501 0
M  V30 5115 H 464.604 -0.58804 3.93227 0
M  V30 5116 N 465.601 -1.54893 0.290851 0
M  V30 5117 C 466.531 -2.26103 -0.583084 0
M  V30 5118 C 467.512 -1.25684 -1.14619 0
M  V30 5119 O 468.697 -1.54436 -1.17741 0
M  V30 5120 C 465.827 -2.99409 -1.75987 0
M  V30 5121 C 464.781 -4.0689 -1.32758 0
M  V30 5122 C 464.107 -4.67856 -2.58872 0
M  V30 5123 C 465.407 -5.20215 -0.46624 0
M  V30 5124 H 467.101 -2.99398 0.0108214 0
M  V30 5125 H 464.647 -1.43998 0.00664468 0
M  V30 5126 H 466.6 -3.47943 -2.37727 0
M  V30 5127 H 465.324 -2.23675 -2.37985 0
M  V30 5128 H 463.983 -3.59191 -0.733299 0
M  V30 5129 H 463.631 -3.88772 -3.19163 0
M  V30 5130 H 463.331 -5.40438 -2.30653 0
M  V30 5131 H 464.855 -5.19147 -3.21433 0
M  V30 5132 H 466.269 -5.64704 -0.989047 0
M  V30 5133 H 464.666 -5.99455 -0.27826 0
M  V30 5134 H 465.736 -4.82198 0.511173 0
M  V30 5135 N 467.08 -0.0183926 -1.57589 0
M  V30 5136 C 468.027 0.967022 -2.09565 0
M  V30 5137 C 468.997 1.32983 -0.995225 0
M  V30 5138 O 470.182 1.42501 -1.26878 0
M  V30 5139 C 467.322 2.24772 -2.61861 0
M  V30 5140 C 466.435 1.94232 -3.85873 0
M  V30 5141 C 465.57 3.16518 -4.26603 0
M  V30 5142 C 464.609 2.81748 -5.43401 0
M  V30 5143 N 463.746 3.96626 -5.79338 0
M  V30 5144 H 468.586 0.516874 -2.93483 0
M  V30 5145 H 466.123 0.243544 -1.4507 0
M  V30 5146 H 468.081 2.99667 -2.90268 0
M  V30 5147 H 466.711 2.67423 -1.8079 0
M  V30 5148 H 465.763 1.09625 -3.64262 0
M  V30 5149 H 467.075 1.64616 -4.70853 0
M  V30 5150 H 466.229 3.99743 -4.56389 0
M  V30 5151 H 464.968 3.49286 -3.40368 0
M  V30 5152 H 463.973 1.96933 -5.1332 0
M  V30 5153 H 465.198 2.50207 -6.31327 0
M  V30 5154 H 463.144 4.29257 -4.96059 0
M  V30 5155 H 463.061 3.70598 -6.58933 0
M  V30 5156 H 464.329 4.80586 -6.13724 0
M  V30 5157 N 468.558 1.5553 0.254621 0
M  V30 5158 C 469.488 1.9268 1.31897 0
M  V30 5159 C 470.469 0.790797 1.506 0
M  V30 5160 O 471.654 1.05045 1.63337 0
M  V30 5161 C 468.784 2.21477 2.67517 0
M  V30 5162 C 467.738 3.37256 2.63519 0
M  V30 5163 C 467.064 3.51576 4.02862 0
M  V30 5164 C 468.364 4.73157 2.21179 0
M  V30 5165 H 470.058 2.81832 1.01051 0
M  V30 5166 H 467.604 1.35599 0.484662 0
M  V30 5167 H 469.557 2.46055 3.42104 0
M  V30 5168 H 468.281 1.29144 2.99982 0
M  V30 5169 H 466.94 3.12675 1.9139 0
M  V30 5170 H 466.588 2.56676 4.32581 0
M  V30 5171 H 466.288 4.2943 4.01078 0
M  V30 5172 H 467.812 3.78467 4.79161 0
M  V30 5173 H 469.226 4.97158 2.85494 0
M  V30 5174 H 467.623 5.54058 2.30521 0
M  V30 5175 H 468.693 4.70739 1.16332 0
M  V30 5176 N 470.036 -0.519951 1.48776 0
M  V30 5177 C 471.264 -1.29971 1.60982 0
M  V30 5178 C 471.679 -1.86803 0.273885 0
M  V30 5179 O 471.036 -1.66904 -0.738193 0
M  V30 5180 C 471.087 -2.44346 2.66415 0
M  V30 5181 O 470.808 -1.89855 3.94825 0
M  V30 5182 C 472.309 -3.36014 2.89153 0
M  V30 5183 H 469.529 -0.394891 0.542496 0
M  V30 5184 H 472.073 -0.626214 1.94676 0
M  V30 5185 H 470.228 -3.07562 2.35552 0
M  V30 5186 H 470.642 -2.64798 4.5275 0
M  V30 5187 H 472.116 -4.12593 3.66703 0
M  V30 5188 H 472.593 -3.91859 1.98351 0
M  V30 5189 H 473.199 -2.78582 3.21359 0
M  V30 5190 N 471.514 -1.37532 -0.769588 0
M  V30 5191 C 472.763 -1.32183 -1.5235 0
M  V30 5192 C 473.076 0.0906555 -1.9539 0
M  V30 5193 O 474.282 0.266628 -2.70188 0
M  V30 5194 C 472.738 -2.32029 -2.75119 0
M  V30 5195 C 472.346 -3.78816 -2.3917 0
M  V30 5196 C 474.09 -2.35694 -3.53056 0
M  V30 5197 C 471.997 -4.70388 -3.58453 0
M  V30 5198 H 470.927 -0.491275 -0.571984 0
M  V30 5199 H 473.578 -1.63004 -0.842739 0
M  V30 5200 H 471.96 -1.94229 -3.45096 0
M  V30 5201 H 473.134 -4.25466 -1.76962 0
M  V30 5202 H 471.449 -3.78117 -1.74402 0
M  V30 5203 H 474.046 -3.01312 -4.41718 0
M  V30 5204 H 474.389 -1.37117 -3.93071 0
M  V30 5205 H 474.922 -2.72212 -2.90078 0
M  V30 5206 H 471.661 -5.70102 -3.23518 0
M  V30 5207 H 471.181 -4.28442 -4.19758 0
M  V30 5208 H 472.86 -4.87628 -4.25239 0
M  V30 5209 N 472.992 0.995999 -1.22138 0
M  V30 5210 C 474.269 1.70834 -0.952642 0
M  V30 5211 C 474.649 2.04257 0.533119 0
M  V30 5212 O 473.997 1.72343 1.50034 0
M  V30 5213 C 474.207 2.96119 -1.84701 0
M  V30 5214 C 475.555 3.68962 -2.10124 0
M  V30 5215 O 476.579 3.0612 -1.82124 0
M  V30 5216 O 475.438 4.82017 -2.57531 0
M  V30 5217 H 472.532 0.745498 -0.357997 0
M  V30 5218 H 475.078 1.05262 -1.33109 0
M  V30 5219 H 473.85 2.67898 -2.85213 0
M  V30 5220 H 473.473 3.6943 -1.46995 0
M  V30 5221 N 474.47 1.03057 1.19235 0
M  V30 5222 C 475.719 0.72326 1.88287 0
M  V30 5223 C 476.032 -0.751333 1.80594 0
M  V30 5224 O 477.238 -1.17176 2.44912 0
M  V30 5225 C 475.694 1.24338 3.3774 0
M  V30 5226 C 475.302 2.74587 3.53986 0
M  V30 5227 C 477.046 1.01213 4.12257 0
M  V30 5228 C 474.953 3.20009 4.97341 0
M  V30 5229 H 473.883 0.266848 0.705201 0
M  V30 5230 H 476.534 1.24509 1.34795 0
M  V30 5231 H 474.916 0.649457 3.90638 0
M  V30 5232 H 476.09 3.39649 3.11408 0
M  V30 5233 H 474.405 2.9601 2.9286 0
M  V30 5234 H 477.002 1.32675 5.17978 0
M  V30 5235 H 477.345 -0.051001 4.16269 0
M  V30 5236 H 477.878 1.57014 3.65501 0
M  V30 5237 H 474.617 4.25659 4.98493 0
M  V30 5238 H 474.137 2.59676 5.40674 0
M  V30 5239 H 475.816 3.13447 5.66003 0
M  V30 5240 N 475.948 -1.35272 0.808662 0
M  V30 5241 C 477.225 -1.93077 0.313181 0
M  V30 5242 C 477.605 -1.73847 -1.19752 0
M  V30 5243 O 476.953 -1.1087 -1.998 0
M  V30 5244 C 477.163 -3.41347 0.726859 0
M  V30 5245 C 478.511 -4.18493 0.717532 0
M  V30 5246 O 479.535 -3.4987 0.668535 0
M  V30 5247 O 478.394 -5.40937 0.777779 0
M  V30 5248 H 475.488 -0.822885 0.0824018 0
M  V30 5249 H 478.034 -1.44335 0.892499 0
M  V30 5250 H 476.806 -3.49082 1.76797 0
M  V30 5251 H 476.429 -3.97411 0.122461 0
M  V30 5252 N 477.426 -0.562348 -1.47226 0
M  V30 5253 C 478.356 0.170627 -2.32876 0
M  V30 5254 C 479.337 0.903748 -1.44106 0
M  V30 5255 O 480.522 0.883206 -1.72954 0
M  V30 5256 C 477.652 1.19786 -3.25989 0
M  V30 5257 C 476.606 0.580875 -4.2404 0
M  V30 5258 C 475.932 1.71311 -5.06514 0
M  V30 5259 C 477.232 -0.468714 -5.20193 0
M  V30 5260 H 478.926 -0.544441 -2.94408 0
M  V30 5261 H 476.472 -0.263271 -1.41573 0
M  V30 5262 H 478.425 1.71884 -3.84752 0
M  V30 5263 H 477.149 1.94294 -2.62521 0
M  V30 5264 H 475.808 0.0811538 -3.6651 0
M  V30 5265 H 475.456 2.44736 -4.39447 0
M  V30 5266 H 475.156 1.30604 -5.72902 0
M  V30 5267 H 476.68 2.23725 -5.68137 0
M  V30 5268 H 478.094 -0.0336028 -5.7329 0
M  V30 5269 H 476.491 -0.794957 -5.94811 0
M  V30 5270 H 477.561 -1.36269 -4.65359 0
M  V30 5271 N 478.904 1.54736 -0.299062 0
M  V30 5272 C 479.836 2.20891 0.61153 0
M  V30 5273 C 480.849 1.20104 1.09904 0
M  V30 5274 O 482.038 1.46707 1.01683 0
M  V30 5275 C 479.138 2.84018 1.84897 0
M  V30 5276 C 478.311 4.10719 1.50428 0
M  V30 5277 C 477.37 4.57667 2.59667 0
M  V30 5278 O 476.396 5.2291 2.24842 0
M  V30 5279 N 477.598 4.29821 3.90172 0
M  V30 5280 H 480.363 2.99666 0.0452001 0
M  V30 5281 H 477.924 1.61446 -0.121178 0
M  V30 5282 H 479.916 3.1236 2.5732 0
M  V30 5283 H 478.486 2.09095 2.32375 0
M  V30 5284 H 477.706 3.89408 0.612781 0
M  V30 5285 H 478.994 4.93223 1.24934 0
M  V30 5286 H 478.392 3.77549 4.21276 0
M  V30 5287 H 476.949 4.62877 4.58899 0
M  V30 5288 N 480.382 0.0267497 1.57577 0
M  V30 5289 C 481.329 -0.955894 2.10075 0
M  V30 5290 C 482.299 -1.32453 1.00226 0
M  V30 5291 O 483.484 -1.41826 1.27632 0
M  V30 5292 C 480.624 -2.2338 2.6305 0
M  V30 5293 C 479.737 -1.92183 3.86898 0
M  V30 5294 C 478.872 -3.14251 4.28275 0
M  V30 5295 C 477.911 -2.78862 5.44888 0
M  V30 5296 N 477.048 -3.93548 5.81433 0
M  V30 5297 H 481.888 -0.501303 2.93753 0
M  V30 5298 H 479.425 -0.235847 1.45197 0
M  V30 5299 H 481.383 -2.98124 2.91853 0
M  V30 5300 H 480.013 -2.6646 1.82205 0
M  V30 5301 H 479.065 -1.07692 3.64838 0
M  V30 5302 H 480.377 -1.62117 4.7172 0
M  V30 5303 H 479.531 -3.97317 4.58502 0
M  V30 5304 H 478.27 -3.47476 3.42215 0
M  V30 5305 H 477.275 -1.94208 5.14357 0
M  V30 5306 H 478.5 -2.46855 6.32645 0
M  V30 5307 H 476.446 -4.2662 4.98328 0
M  V30 5308 H 476.363 -3.67098 6.6089 0
M  V30 5309 H 477.631 -4.77325 6.16264 0
M  V30 5310 N 481.861 -1.55662 -0.24637 0
M  V30 5311 C 482.771 -1.93495 -1.32653 0
M  V30 5312 C 483.787 -0.835462 -1.5263 0
M  V30 5313 O 484.963 -1.1369 -1.66242 0
M  V30 5314 C 482.028 -2.22242 -2.66101 0
M  V30 5315 C 481.089 -3.45625 -2.54641 0
M  V30 5316 C 480.322 -3.72991 -3.81724 0
M  V30 5317 O 480.545 -3.02421 -4.8363 0
M  V30 5318 O 479.479 -4.66515 -3.80325 0
M  V30 5319 H 483.305 -2.85498 -1.03559 0
M  V30 5320 H 480.89 -1.42551 -0.44717 0
M  V30 5321 H 482.772 -2.42037 -3.44958 0
M  V30 5322 H 481.447 -1.33417 -2.94926 0
M  V30 5323 H 480.354 -3.31136 -1.74067 0
M  V30 5324 H 481.687 -4.34754 -2.3076 0
M  V30 5325 N 483.339 0.512053 -1.4905 0
M  V30 5326 C 484.585 1.26874 -1.58212 0
M  V30 5327 C 484.918 1.9241 -0.263073 0
M  V30 5328 O 484.193 1.80181 0.732476 0
M  V30 5329 C 484.476 2.34428 -2.73341 0
M  V30 5330 C 484.329 1.73466 -4.15006 0
M  V30 5331 C 485.648 3.36073 -2.84154 0
M  V30 5332 H 482.767 0.459924 -0.575881 0
M  V30 5333 H 485.409 0.568587 -1.81293 0
M  V30 5334 H 483.559 2.94146 -2.53792 0
M  V30 5335 H 485.231 1.17661 -4.46042 0
M  V30 5336 H 483.474 1.03921 -4.21168 0
M  V30 5337 H 484.145 2.51426 -4.91415 0
M  V30 5338 H 486.621 2.86332 -3.01916 0
M  V30 5339 H 485.497 4.08703 -3.66406 0
M  V30 5340 H 485.758 3.97725 -1.93048 0
M  V30 5341 N 484.817 1.37938 0.762283 0
M  V30 5342 C 485.727 1.36681 1.90671 0
M  V30 5343 C 486.743 0.265078 1.71969 0
M  V30 5344 O 487.919 0.502055 1.95042 0
M  V30 5345 C 484.984 1.18211 3.25925 0
M  V30 5346 C 484.045 2.3811 3.57214 0
M  V30 5347 C 483.278 2.20512 4.86014 0
M  V30 5348 O 483.501 1.19429 5.57757 0
M  V30 5349 O 482.435 3.08911 5.16583 0
M  V30 5350 H 486.261 2.33091 1.94685 0
M  V30 5351 H 483.846 1.18767 0.906356 0
M  V30 5352 H 485.728 1.09937 4.06807 0
M  V30 5353 H 484.403 0.248807 3.22742 0
M  V30 5354 H 483.31 2.51958 2.76529 0
M  V30 5355 H 484.643 3.30041 3.65149 0
M  V30 5356 N 486.295 -0.989507 1.22664 0
M  V30 5357 C 487.258 -2.06183 1.00106 0
M  V30 5358 C 488.258 -1.60765 -0.0337726 0
M  V30 5359 O 489.448 -1.72989 0.205072 0
M  V30 5360 C 486.58 -3.37021 0.51279 0
M  V30 5361 H 487.773 -2.27629 1.95256 0
M  V30 5362 H 485.326 -1.16158 1.0458 0
M  V30 5363 H 486.061 -3.21261 -0.442917 0
M  V30 5364 H 485.846 -3.71323 1.25942 0
M  V30 5365 H 487.336 -4.1591 0.375315 0
M  V30 5366 N 487.773 -1.03688 -1.18687 0
M  V30 5367 C 488.703 -0.645407 -2.24403 0
M  V30 5368 C 489.684 0.349511 -1.66471 0
M  V30 5369 O 490.869 0.230453 -1.92828 0
M  V30 5370 C 487.999 -0.00365337 -3.473 0
M  V30 5371 C 486.953 -0.921705 -4.17958 0
M  V30 5372 C 486.279 -0.144629 -5.34504 0
M  V30 5373 C 487.579 -2.23909 -4.71871 0
M  V30 5374 H 489.273 -1.52917 -2.57404 0
M  V30 5375 H 486.819 -0.736711 -1.23728 0
M  V30 5376 H 488.772 0.281908 -4.20456 0
M  V30 5377 H 487.496 0.914963 -3.13522 0
M  V30 5378 H 486.155 -1.19159 -3.46694 0
M  V30 5379 H 485.803 0.776274 -4.96974 0
M  V30 5380 H 485.503 -0.756206 -5.82714 0
M  V30 5381 H 487.027 0.134004 -6.10453 0
M  V30 5382 H 488.441 -2.0145 -5.36741 0
M  V30 5383 H 486.838 -2.8033 -5.30599 0
M  V30 5384 H 487.908 -2.88822 -3.895 0
M  V30 5385 N 489.251 1.34841 -0.815825 0
M  V30 5386 C 490.181 2.32187 -0.247298 0
M  V30 5387 C 491.162 1.5791 0.632344 0
M  V30 5388 O 492.347 1.8593 0.560698 0
M  V30 5389 C 489.477 3.42122 0.597466 0
M  V30 5390 C 488.431 4.27602 -0.184446 0
M  V30 5391 C 487.757 5.28942 0.782609 0
M  V30 5392 C 489.057 5.03502 -1.38865 0
M  V30 5393 H 490.751 2.79985 -1.06061 0
M  V30 5394 H 488.297 1.34611 -0.511461 0
M  V30 5395 H 490.25 4.09232 1.00533 0
M  V30 5396 H 488.974 2.92956 1.44376 0
M  V30 5397 H 487.633 3.62085 -0.573592 0
M  V30 5398 H 487.281 4.7604 1.62466 0
M  V30 5399 H 486.981 5.87008 0.263695 0
M  V30 5400 H 488.505 5.98922 1.18848 0
M  V30 5401 H 489.919 5.63506 -1.05518 0
M  V30 5402 H 488.316 5.71108 -1.8427 0
M  V30 5403 H 489.386 4.33608 -2.17054 0
M  V30 5404 N 490.729 0.570148 1.46925 0
M  V30 5405 C 492.006 -0.0153259 1.95594 0
M  V30 5406 C 492.386 -1.47232 1.51281 0
M  V30 5407 O 491.734 -2.15574 0.757624 0
M  V30 5408 C 491.944 0.143624 3.48704 0
M  V30 5409 C 493.292 0.00494484 4.246 0
M  V30 5410 O 494.316 0.0718214 3.56128 0
M  V30 5411 O 493.175 -0.141175 5.46318 0
M  V30 5412 H 490.269 -0.0568819 0.825041 0
M  V30 5413 H 492.815 0.637583 1.57267 0
M  V30 5414 H 491.587 1.15699 3.73804 0
M  V30 5415 H 491.21 -0.5463 3.93829 0
M  V30 5416 N 492.207 -1.54576 0.307264 0
M  V30 5417 C 493.154 -2.23751 -0.56604 0
M  V30 5418 C 494.124 -1.22235 -1.12462 0
M  V30 5419 O 495.309 -1.50873 -1.16799 0
M  V30 5420 C 492.449 -2.98661 -1.72903 0
M  V30 5421 C 491.562 -4.14963 -1.20124 0
M  V30 5422 C 490.697 -4.77441 -2.3286 0
M  V30 5423 C 489.736 -5.85875 -1.77247 0
M  V30 5424 N 488.873 -6.42282 -2.8358 0
M  V30 5425 H 493.713 -2.97984 0.0304578 0
M  V30 5426 H 491.25 -1.47076 0.0268015 0
M  V30 5427 H 493.208 -3.40329 -2.41313 0
M  V30 5428 H 491.838 -2.26793 -2.29706 0
M  V30 5429 H 490.89 -3.78193 -0.409198 0
M  V30 5430 H 492.202 -4.93066 -0.754171 0
M  V30 5431 H 491.356 -5.21993 -3.09205 0
M  V30 5432 H 490.095 -3.98684 -2.80896 0
M  V30 5433 H 489.1 -5.40741 -0.993926 0
M  V30 5434 H 490.325 -6.6652 -1.30107 0
M  V30 5435 H 488.271 -5.66406 -3.30939 0
M  V30 5436 H 488.188 -7.1575 -2.43388 0
M  V30 5437 H 489.456 -6.91492 -3.59804 0
M  V30 5438 N 493.685 -0.035106 -1.57561 0
M  V30 5439 C 494.617 0.973604 -2.07494 0
M  V30 5440 C 495.63 1.28504 -0.999534 0
M  V30 5441 O 496.819 1.24864 -1.27559 0
M  V30 5442 C 493.919 2.29945 -2.48955 0
M  V30 5443 C 493.092 2.1723 -3.79644 0
M  V30 5444 C 492.151 3.328 -4.07592 0
M  V30 5445 O 491.177 3.09418 -4.77754 0
M  V30 5446 N 492.379 4.56779 -3.58236 0
M  V30 5447 H 495.144 0.547525 -2.94656 0
M  V30 5448 H 492.705 0.151515 -1.61189 0
M  V30 5449 H 494.697 3.06097 -2.64739 0
M  V30 5450 H 493.267 2.64173 -1.67126 0
M  V30 5451 H 492.487 1.25768 -3.73599 0
M  V30 5452 H 493.775 2.05945 -4.65257 0
M  V30 5453 H 493.173 4.78668 -3.01485 0
M  V30 5454 H 491.73 5.30079 -3.79288 0
M  V30 5455 N 495.163 1.55791 0.238111 0
M  V30 5456 C 496.412 1.77234 0.962868 0
M  V30 5457 C 496.725 0.600661 1.86149 0
M  V30 5458 O 497.931 0.698315 2.62366 0
M  V30 5459 C 496.387 3.13808 1.76218 0
M  V30 5460 C 495.995 4.3865 0.910518 0
M  V30 5461 C 497.739 3.44585 2.47914 0
M  V30 5462 C 495.646 5.66252 1.70623 0
M  V30 5463 H 494.576 0.660731 0.36325 0
M  V30 5464 H 497.227 1.8221 0.217242 0
M  V30 5465 H 495.609 3.02963 2.55009 0
M  V30 5466 H 496.783 4.60507 0.164316 0
M  V30 5467 H 495.098 4.15271 0.30647 0
M  V30 5468 H 497.695 4.3714 3.07917 0
M  V30 5469 H 498.038 2.66314 3.19973 0
M  V30 5470 H 498.571 3.56685 1.76127 0
M  V30 5471 H 495.31 6.47369 1.02923 0
M  V30 5472 H 494.83 5.48483 2.42748 0
M  V30 5473 H 496.509 6.05829 2.27114 0
M  V30 5474 N 496.642 -0.504142 1.49319 0
M  V30 5475 C 497.589 -1.60603 1.65756 0
M  V30 5476 C 498.559 -1.58425 0.499082 0
M  V30 5477 O 499.744 -1.76459 0.725728 0
M  V30 5478 C 496.884 -2.98764 1.72726 0
M  V30 5479 C 495.997 -3.10982 2.99857 0
M  V30 5480 C 495.132 -4.39857 2.97824 0
M  V30 5481 C 494.171 -4.45697 4.19548 0
M  V30 5482 N 493.308 -5.65995 4.15444 0
M  V30 5483 H 498.148 -1.45895 2.59843 0
M  V30 5484 H 495.685 -0.709891 1.28837 0
M  V30 5485 H 497.643 -3.78839 1.74747 0
M  V30 5486 H 496.273 -3.12183 0.821075 0
M  V30 5487 H 495.325 -2.23991 3.07461 0
M  V30 5488 H 496.637 -3.11157 3.89849 0
M  V30 5489 H 495.791 -5.2825 2.98391 0
M  V30 5490 H 494.53 -4.42242 2.05604 0
M  V30 5491 H 493.535 -3.55707 4.19229 0
M  V30 5492 H 494.76 -4.4503 5.12957 0
M  V30 5493 H 492.706 -5.69229 3.26059 0
M  V30 5494 H 492.623 -5.67773 4.99169 0
M  V30 5495 H 493.891 -6.56604 4.20109 0
M  V30 5496 N 498.12 -1.38341 -0.754957 0
M  V30 5497 C 499.067 -1.3546 -1.86867 0
M  V30 5498 C 500.037 -0.217369 -1.64672 0
M  V30 5499 O 501.222 -0.409383 -1.86356 0
M  V30 5500 C 498.362 -1.18413 -3.24149 0
M  V30 5501 C 497.475 -2.41511 -3.58185 0
M  V30 5502 C 496.61 -2.17205 -4.84763 0
M  V30 5503 C 495.649 -3.36081 -5.11582 0
M  V30 5504 N 494.786 -3.11219 -6.29354 0
M  V30 5505 H 499.626 -2.30672 -1.88664 0
M  V30 5506 H 497.163 -1.14607 -0.922154 0
M  V30 5507 H 499.121 -1.06545 -4.03366 0
M  V30 5508 H 497.751 -0.268397 -3.21682 0
M  V30 5509 H 496.803 -2.64056 -2.73822 0
M  V30 5510 H 498.115 -3.30115 -3.73932 0
M  V30 5511 H 497.269 -2.02465 -5.7192 0
M  V30 5512 H 496.008 -1.25964 -4.71152 0
M  V30 5513 H 495.013 -3.51341 -4.22894 0
M  V30 5514 H 496.238 -4.28196 -5.27091 0
M  V30 5515 H 494.184 -2.22624 -6.17069 0
M  V30 5516 H 494.101 -3.93373 -6.45596 0
M  V30 5517 H 495.369 -3.00132 -7.19403 0
M  V30 5518 N 499.598 0.982988 -1.23187 0
M  V30 5519 C 500.528 2.09301 -1.03515 0
M  V30 5520 C 501.509 1.70035 0.0471136 0
M  V30 5521 O 502.694 1.93847 -0.117029 0
M  V30 5522 C 499.824 3.4167 -0.622791 0
M  V30 5523 C 498.778 3.94828 -1.65211 0
M  V30 5524 C 498.104 5.23362 -1.09527 0
M  V30 5525 C 499.404 4.2439 -3.04451 0
M  V30 5526 H 501.098 2.26016 -1.96359 0
M  V30 5527 H 498.644 1.08611 -0.945501 0
M  V30 5528 H 500.597 4.18746 -0.472233 0
M  V30 5529 H 499.321 3.24811 0.341329 0
M  V30 5530 H 497.98 3.19895 -1.79061 0
M  V30 5531 H 497.628 5.02852 -0.122211 0
M  V30 5532 H 497.328 5.59895 -1.783 0
M  V30 5533 H 498.852 6.03062 -0.956511 0
M  V30 5534 H 500.266 4.92225 -2.93917 0
M  V30 5535 H 498.663 4.72118 -3.70438 0
M  V30 5536 H 499.733 3.31765 -3.53638 0
M  V30 5537 N 501.076 1.04316 1.18135 0
M  V30 5538 C 502.492 0.762858 1.40188 0
M  V30 5539 C 502.692 -0.646547 1.90846 0
M  V30 5540 O 501.748 -1.41036 2.0944 0
M  V30 5541 C 503.061 1.81106 2.40044 0
M  V30 5542 C 504.609 1.83226 2.53766 0
M  V30 5543 C 505.084 2.87044 3.56889 0
M  V30 5544 N 506.575 2.85951 3.64398 0
M  V30 5545 C 507.31 3.62932 4.43923 0
M  V30 5546 N 506.806 4.49672 5.27036 0
M  V30 5547 N 508.599 3.51411 4.38711 0
M  V30 5548 H 500.75 1.95264 0.835805 0
M  V30 5549 H 503.013 0.845017 0.429709 0
M  V30 5550 H 502.719 2.82214 2.09876 0
M  V30 5551 H 502.593 1.64529 3.39426 0
M  V30 5552 H 504.98 0.827869 2.8325 0
M  V30 5553 H 505.061 2.03879 1.54489 0
M  V30 5554 H 504.705 3.87663 3.28145 0
M  V30 5555 H 504.635 2.63645 4.5585 0
M  V30 5556 H 507.126 2.23051 3.05052 0
M  V30 5557 H 507.439 5.05116 5.84874 0
M  V30 5558 H 505.784 4.53738 5.26447 0
M  V30 5559 H 508.975 2.83047 3.72829 0
M  V30 5560 H 509.148 4.11654 5.00445 0
M  V30 5561 N 502.554 -1.34406 0.822964 0
M  V30 5562 C 503.779 -2.0304 0.423034 0
M  V30 5563 C 504.204 -1.61568 -0.963196 0
M  V30 5564 O 503.562 -0.800339 -1.62678 0
M  V30 5565 C 503.61 -3.56636 0.53321 0
M  V30 5566 O 502.714 -4.09971 -0.446939 0
M  V30 5567 H 502.055 -0.64075 0.174171 0
M  V30 5568 H 504.585 -1.71653 1.11339 0
M  V30 5569 H 504.595 -4.05945 0.408991 0
M  V30 5570 H 503.27 -3.86168 1.54425 0
M  V30 5571 H 501.847 -3.71835 -0.281601 0
M  V30 5572 N 504.032 -0.577932 -1.46621 0
M  V30 5573 C 504.964 0.195801 -2.28362 0
M  V30 5574 C 505.977 0.859983 -1.38232 0
M  V30 5575 O 507.166 0.730349 -1.62875 0
M  V30 5576 C 504.266 1.29639 -3.13124 0
M  V30 5577 C 503.439 0.725049 -4.31349 0
M  V30 5578 C 502.498 1.71274 -4.97546 0
M  V30 5579 O 501.524 1.25067 -5.5529 0
M  V30 5580 N 502.726 3.04672 -4.94121 0
M  V30 5581 H 505.491 -0.505468 -2.95407 0
M  V30 5582 H 503.052 -0.415381 -1.56481 0
M  V30 5583 H 505.044 1.95631 -3.54275 0
M  V30 5584 H 503.614 1.90059 -2.48186 0
M  V30 5585 H 502.834 -0.112205 -3.9404 0
M  V30 5586 H 504.122 0.323034 -5.07774 0
M  V30 5587 H 503.52 3.4484 -4.48444 0
M  V30 5588 H 502.077 3.66166 -5.39227 0
M  V30 5589 N 505.51 1.54411 -0.315457 0
M  V30 5590 C 506.758 2.00023 0.288971 0
M  V30 5591 C 507.079 1.20529 1.5329 0
M  V30 5592 O 506.349 0.304986 1.93511 0
M  V30 5593 H 504.929 0.738891 0.109766 0
M  V30 5594 H 507.591 1.90094 -0.430129 0
M  V30 5595 H 506.687 3.07198 0.550999 0
M  V30 5596 N 506.988 0.0434614 1.5754 0
M  V30 5597 C 507.951 -0.918696 2.09982 0
M  V30 5598 C 508.951 -1.24488 1.01781 0
M  V30 5599 O 510.141 -1.18284 1.27885 0
M  V30 5600 C 507.273 -2.23093 2.57764 0
M  V30 5601 H 508.466 -0.464229 2.96285 0
M  V30 5602 H 506.019 -0.204818 1.54952 0
M  V30 5603 H 506.754 -2.73137 1.74832 0
M  V30 5604 H 506.539 -2.00724 3.36827 0
M  V30 5605 H 508.029 -2.92028 2.98512 0
M  V30 5606 N 508.466 -1.55915 -0.229846 0
M  V30 5607 C 509.413 -1.91734 -1.28478 0
M  V30 5608 C 510.383 -0.773539 -1.46988 0
M  V30 5609 O 511.568 -1.02871 -1.60693 0
M  V30 5610 C 508.708 -2.23224 -2.63182 0
M  V30 5611 C 507.821 -3.50497 -2.52539 0
M  V30 5612 C 506.956 -3.71474 -3.79711 0
M  V30 5613 C 505.995 -4.92289 -3.63755 0
M  V30 5614 N 505.132 -5.09698 -4.82858 0
M  V30 5615 H 509.972 -2.81692 -0.972308 0
M  V30 5616 H 507.509 -1.39429 -0.468815 0
M  V30 5617 H 509.467 -2.3949 -3.41614 0
M  V30 5618 H 508.097 -1.36451 -2.92542 0
M  V30 5619 H 507.149 -3.4247 -1.65585 0
M  V30 5620 H 508.461 -4.39079 -2.36666 0
M  V30 5621 H 507.615 -3.87791 -4.66586 0
M  V30 5622 H 506.354 -2.81157 -3.985 0
M  V30 5623 H 505.359 -4.7593 -2.75264 0
M  V30 5624 H 506.584 -5.84083 -3.46445 0
M  V30 5625 H 504.53 -4.22322 -5.01976 0
M  V30 5626 H 504.447 -5.92399 -4.69681 0
M  V30 5627 H 505.715 -5.30443 -5.71183 0
M  V30 5628 N 509.944 0.496216 -1.49584 0
M  V30 5629 C 511.221 1.25755 -1.49816 0
M  V30 5630 C 511.601 2.09859 -0.228572 0
M  V30 5631 O 510.949 2.14449 0.788908 0
M  V30 5632 C 511.159 2.11017 -2.7798 0
M  V30 5633 C 512.507 2.70047 -3.27658 0
M  V30 5634 O 513.531 2.21281 -2.79129 0
M  V30 5635 O 512.39 3.58834 -4.1219 0
M  V30 5636 H 509.484 0.569322 -0.599834 0
M  V30 5637 H 512.03 0.510094 -1.61852 0
M  V30 5638 H 510.802 1.48879 -3.61871 0
M  V30 5639 H 510.425 2.92947 -2.68827 0
M  V30 5640 N 511.423 1.38739 0.74761 0
M  V30 5641 C 512.356 1.3083 1.86972 0
M  V30 5642 C 513.334 0.184229 1.61553 0
M  V30 5643 O 514.518 0.36256 1.8498 0
M  V30 5644 C 511.645 1.02854 3.22705 0
M  V30 5645 C 510.691 2.17281 3.67003 0
M  V30 5646 S 511.524 3.79468 3.77842 0
M  V30 5647 C 512.68 3.53692 5.16385 0
M  V30 5648 H 512.913 2.258 1.93395 0
M  V30 5649 H 510.446 1.24646 0.911199 0
M  V30 5650 H 512.404 0.87397 4.01089 0
M  V30 5651 H 511.065 0.0959295 3.13953 0
M  V30 5652 H 510.258 1.93267 4.65472 0
M  V30 5653 H 509.86 2.28876 2.9579 0
M  V30 5654 H 512.152 3.10176 6.02327 0
M  V30 5655 H 513.095 4.51576 5.45422 0
M  V30 5656 H 513.503 2.8807 4.85464 0
M  V30 5657 N 512.901 -0.976442 1.23707 0
M  V30 5658 C 514.178 -1.69296 0.979699 0
M  V30 5659 C 514.558 -2.0508 -0.500555 0
M  V30 5660 O 513.906 -1.74708 -1.47273 0
M  V30 5661 C 514.116 -2.93143 1.89389 0
M  V30 5662 C 515.464 -3.65572 2.15968 0
M  V30 5663 O 516.488 -3.03184 1.86971 0
M  V30 5664 O 515.347 -4.77859 2.65167 0
M  V30 5665 H 512.441 -0.739708 0.369812 0
M  V30 5666 H 514.987 -1.03131 1.34767 0
M  V30 5667 H 513.759 -2.63327 2.89439 0
M  V30 5668 H 513.382 -3.67044 1.52854 0
M  V30 5669 N 514.379 -1.04941 -1.1758 0
M  V30 5670 C 515.327 -0.64204 -2.23563 0
M  V30 5671 C 516.321 0.335453 -1.66045 0
M  V30 5672 O 517.527 0.20179 -1.78865 0
M  V30 5673 H 513.902 -0.18944 -0.727748 0
M  V30 5674 H 515.873 -1.54609 -2.55223 0
M  V30 5675 C 514.622 -0.0301051 -3.47687 0
M  V30 5676 H 513.945 -0.773339 -3.92249 0
M  V30 5677 H 515.385 0.217592 -4.23441 0
M  V30 5678 C 513.844 1.2225 -3.13937 0
M  V30 5679 O 514.374 2.3122 -3.28482 0
M  V30 5680 N 512.58 1.11917 -2.68185 0
M  V30 5681 H 512.127 0.232403 -2.5655 0
M  V30 5682 H 512.085 1.95814 -2.45976 0
M  V30 5683 N 515.857 1.33968 -0.830081 0
M  V30 5684 C 516.82 2.27694 -0.26235 0
M  V30 5685 C 517.82 1.50589 0.563876 0
M  V30 5686 O 519.01 1.70028 0.378941 0
M  V30 5687 C 516.142 3.35002 0.63138 0
M  V30 5688 H 517.335 2.79419 -1.08928 0
M  V30 5689 H 514.888 1.44221 -0.602486 0
M  V30 5690 H 515.623 2.88504 1.48109 0
M  V30 5691 H 515.408 3.92079 0.0403276 0
M  V30 5692 H 516.898 4.04897 1.02217 0
M  V30 5693 N 517.335 0.585699 1.46312 0
M  V30 5694 C 518.268 -0.194257 2.27372 0
M  V30 5695 C 519.246 -0.894116 1.3581 0
M  V30 5696 O 520.43 -0.907402 1.65222 0
M  V30 5697 C 517.557 -1.27901 3.13622 0
M  V30 5698 C 516.603 -0.684666 4.20969 0
M  V30 5699 S 517.436 0.490745 5.33247 0
M  V30 5700 C 518.592 -0.595137 6.23064 0
M  V30 5701 H 518.825 0.493515 2.93175 0
M  V30 5702 H 516.358 0.372666 1.49835 0
M  V30 5703 H 518.316 -1.90008 3.63878 0
M  V30 5704 H 516.977 -1.93875 2.47126 0
M  V30 5705 H 516.17 -1.50015 4.81156 0
M  V30 5706 H 515.772 -0.139204 3.73741 0
M  V30 5707 H 518.064 -1.48002 6.61137 0
M  V30 5708 H 519.007 -0.0299446 7.08094 0
M  V30 5709 H 519.415 -0.900627 5.57269 0
M  V30 5710 N 518.813 -1.54241 0.323641 0
M  V30 5711 C 519.746 -2.20579 -0.584833 0
M  V30 5712 C 520.724 -1.18286 -1.11567 0
M  V30 5713 O 521.908 -1.47025 -1.17966 0
M  V30 5714 C 519.035 -2.86754 -1.80249 0
M  V30 5715 C 518.081 -4.02767 -1.4029 0
M  V30 5716 S 518.914 -5.33693 -0.439539 0
M  V30 5717 C 520.07 -6.03362 -1.66448 0
M  V30 5718 H 520.303 -2.97292 -0.0213238 0
M  V30 5719 H 517.836 -1.54024 0.107726 0
M  V30 5720 H 519.794 -3.25503 -2.50116 0
M  V30 5721 H 518.455 -2.09844 -2.33719 0
M  V30 5722 H 517.648 -4.47933 -2.31024 0
M  V30 5723 H 517.25 -3.65692 -0.783928 0
M  V30 5724 H 519.542 -6.25546 -2.6019 0
M  V30 5725 H 520.485 -6.9689 -1.25498 0
M  V30 5726 H 520.893 -5.33273 -1.85149 0
M  V30 5727 N 520.291 -0.0518155 -1.57515 0
M  V30 5728 C 521.537 0.622745 -1.93002 0
M  V30 5729 C 521.87 1.70456 -0.930499 0
M  V30 5730 O 521.145 1.94452 0.0434086 0
M  V30 5731 C 521.428 1.21824 -3.38867 0
M  V30 5732 C 521.281 0.144434 -4.49568 0
M  V30 5733 C 522.6 2.12968 -3.8514 0
M  V30 5734 H 519.719 0.22491 -0.701844 0
M  V30 5735 H 522.361 -0.113711 -1.89659 0
M  V30 5736 H 520.511 1.8459 -3.41846 0
M  V30 5737 H 522.183 -0.48753 -4.58717 0
M  V30 5738 H 520.426 -0.527424 -4.30582 0
M  V30 5739 H 521.097 0.601127 -5.48717 0
M  V30 5740 H 523.573 1.60163 -3.8404 0
M  V30 5741 H 522.449 2.51578 -4.87852 0
M  V30 5742 H 522.71 3.03004 -3.21934 0
M  V30 5743 N 521.769 1.56035 0.221574 0
M  V30 5744 C 523.015 1.79312 0.947372 0
M  V30 5745 C 523.348 0.621453 1.83988 0
M  V30 5746 O 522.623 -0.379287 1.90766 0
M  V30 5747 C 522.906 3.1267 1.78633 0
M  V30 5748 C 522.759 4.40284 0.920312 0
M  V30 5749 C 524.078 3.4247 2.7641 0
M  V30 5750 H 521.197 0.652328 0.342982 0
M  V30 5751 H 523.839 1.88765 0.216244 0
M  V30 5752 H 521.989 3.04741 2.40967 0
M  V30 5753 H 523.661 4.60232 0.313718 0
M  V30 5754 H 521.904 4.33212 0.225734 0
M  V30 5755 H 522.575 5.30033 1.54171 0
M  V30 5756 H 525.051 3.50526 2.24211 0
M  V30 5757 H 523.927 4.3695 3.32213 0
M  V30 5758 H 524.188 2.64635 3.54148 0
M  V30 5759 N 523.247 -0.488276 1.49845 0
M  V30 5760 C 524.179 -1.60539 1.63584 0
M  V30 5761 C 525.192 -1.5434 0.517972 0
M  V30 5762 O 526.381 -1.60041 0.790516 0
M  V30 5763 C 523.481 -2.99374 1.58835 0
M  V30 5764 C 522.654 -3.30624 2.86368 0
M  V30 5765 C 521.713 -4.4893 2.74496 0
M  V30 5766 O 520.739 -4.50085 3.48443 0
M  V30 5767 N 521.941 -5.49591 1.86894 0
M  V30 5768 H 524.706 -1.49176 2.59936 0
M  V30 5769 H 522.267 -0.67639 1.47094 0
M  V30 5770 H 524.259 -3.76459 1.48529 0
M  V30 5771 H 522.829 -3.04595 0.702892 0
M  V30 5772 H 522.049 -2.42314 3.1093 0
M  V30 5773 H 523.337 -3.48305 3.70892 0
M  V30 5774 H 522.735 -5.51467 1.26097 0
M  V30 5775 H 521.292 -6.25728 1.82503 0
M  V30 5776 N 524.725 -1.39134 -0.740242 0
M  V30 5777 C 525.673 -1.3757 -1.87556 0
M  V30 5778 C 526.667 -0.259593 -1.67399 0
M  V30 5779 O 527.873 -0.429349 -1.74804 0
M  V30 5780 H 524.248 -0.42947 -0.6173 0
M  V30 5781 H 526.219 -2.33345 -1.85991 0
M  V30 5782 C 524.968 -1.23087 -3.25184 0
M  V30 5783 H 524.291 -2.08237 -3.41288 0
M  V30 5784 H 525.731 -1.26049 -4.0483 0
M  V30 5785 C 524.19 0.0611471 -3.36845 0
M  V30 5786 O 524.72 1.03328 -3.88183 0
M  V30 5787 N 522.926 0.122454 -2.90342 0
M  V30 5788 H 522.473 -0.669329 -2.48752 0
M  V30 5789 H 522.431 0.986463 -2.98523 0
M  V30 5790 N 526.204 0.969867 -1.24223 0
M  V30 5791 C 527.615 1.52717 -1.07399 0
M  V30 5792 C 527.966 1.92956 0.355298 0
M  V30 5793 O 527.091 1.77112 1.2434 0
M  V30 5794 C 527.686 2.77521 -1.94339 0
M  V30 5795 C 526.245 3.29615 -1.81744 0
M  V30 5796 C 525.392 2.02537 -1.89405 0
M  V30 5797 H 528.343 0.788399 -1.37732 0
M  V30 5798 H 528.364 3.50773 -1.47439 0
M  V30 5799 H 527.876 2.48203 -2.98357 0
M  V30 5800 H 525.977 3.63789 -0.805505 0
M  V30 5801 H 526.09 3.98661 -2.65718 0
M  V30 5802 H 524.454 2.17151 -1.33108 0
M  V30 5803 H 525.237 1.75587 -2.94999 0
M  V30 5804 N 527.682 1.05563 1.17022 0
M  V30 5805 C 528.629 0.659893 2.21165 0
M  V30 5806 C 529.599 -0.339813 1.62587 0
M  V30 5807 O 530.784 -0.230378 1.89404 0
M  V30 5808 C 527.924 0.0447297 3.45071 0
M  V30 5809 C 527.037 1.09372 4.17926 0
M  V30 5810 C 526.172 0.445481 5.29329 0
M  V30 5811 C 525.211 1.47852 5.93975 0
M  V30 5812 N 524.348 0.854172 6.96885 0
M  V30 5813 H 529.188 1.55243 2.54369 0
M  V30 5814 H 526.725 0.776336 1.24946 0
M  V30 5815 H 528.683 -0.329404 4.15898 0
M  V30 5816 H 527.313 -0.811244 3.1244 0
M  V30 5817 H 526.365 1.58564 3.45777 0
M  V30 5818 H 527.677 1.87773 4.62107 0
M  V30 5819 H 526.831 0.0179688 6.06697 0
M  V30 5820 H 525.57 -0.370481 4.86291 0
M  V30 5821 H 524.575 1.91601 5.15334 0
M  V30 5822 H 525.8 2.29645 6.39093 0
M  V30 5823 H 523.746 0.0587882 6.55974 0
M  V30 5824 H 523.663 1.57567 7.39397 0
M  V30 5825 H 524.931 0.451559 7.78191 0
M  V30 5826 N 529.16 -1.33526 0.837174 0
M  V30 5827 C 530.108 -2.31168 0.257698 0
M  V30 5828 C 531.102 -1.5806 -0.609388 0
M  V30 5829 O 532.308 -1.72941 -0.499139 0
M  V30 5830 H 528.683 -0.74922 0.0646058 0
M  V30 5831 H 530.654 -2.77552 1.09578 0
M  V30 5832 C 529.403 -3.4326 -0.553887 0
M  V30 5833 H 528.726 -3.99665 0.104008 0
M  V30 5834 H 530.166 -4.13782 -0.925219 0
M  V30 5835 C 528.625 -2.88965 -1.73207 0
M  V30 5836 O 529.155 -2.85013 -2.83073 0
M  V30 5837 N 527.361 -2.45596 -1.55342 0
M  V30 5838 H 526.908 -2.49009 -0.659705 0
M  V30 5839 H 526.866 -2.0962 -2.34322 0
M  V30 5840 N 530.638 -0.59345 -1.46 0
M  V30 5841 C 531.886 -0.082988 -2.0193 0
M  V30 5842 C 532.207 1.28569 -1.46612 0
M  V30 5843 O 531.477 1.84629 -0.654909 0
M  V30 5844 H 530.057 -0.0276882 -0.746487 0
M  V30 5845 H 532.719 -0.771657 -1.78973 0
M  V30 5846 H 531.815 -0.022079 -3.12092 0
M  V30 5847 N 532.116 1.54067 -0.331816 0
M  V30 5848 C 533.393 1.92915 0.322955 0
M  V30 5849 C 533.773 1.26225 1.69205 0
M  V30 5850 O 533.121 0.408919 2.24811 0
M  V30 5851 C 533.331 3.46619 0.406946 0
M  V30 5852 C 534.679 4.19386 0.663339 0
M  V30 5853 O 535.703 3.5282 0.489536 0
M  V30 5854 O 534.562 5.37288 0.999193 0
M  V30 5855 H 531.656 0.805808 0.186016 0
M  V30 5856 H 534.202 1.65342 -0.382135 0
M  V30 5857 H 532.974 3.87354 -0.554287 0
M  V30 5858 H 532.597 3.80324 1.15929 0
M  V30 5859 N 533.594 0.0601682 1.57485 0
M  V30 5860 C 534.843 -0.611101 1.9222 0
M  V30 5861 C 535.156 -1.71469 0.941159 0
M  V30 5862 O 536.362 -2.44473 1.18089 0
M  V30 5863 C 534.818 -1.13832 3.41424 0
M  V30 5864 C 534.426 -0.0663596 4.47951 0
M  V30 5865 C 536.17 -1.78432 3.85178 0
M  V30 5866 C 534.077 -0.606965 5.88277 0
M  V30 5867 H 533.007 -0.232033 0.71741 0
M  V30 5868 H 535.658 0.130518 1.83035 0
M  V30 5869 H 534.04 -1.93254 3.45643 0
M  V30 5870 H 535.214 0.707682 4.55333 0
M  V30 5871 H 533.529 0.482715 4.13593 0
M  V30 5872 H 536.126 -2.1989 4.87394 0
M  V30 5873 H 536.469 -2.63966 3.21913 0
M  V30 5874 H 537.002 -1.05651 3.83514 0
M  V30 5875 H 533.741 0.21095 6.5516 0
M  V30 5876 H 533.261 -1.34879 5.84438 0
M  V30 5877 H 534.94 -1.08704 6.37803 0
M  V30 5878 N 535.072 -1.5615 -0.213296 0
M  V30 5879 C 536.002 -1.96109 -1.26742 0
M  V30 5880 C 536.983 -0.830448 -1.48451 0
M  V30 5881 O 538.168 -1.09339 -1.60495 0
M  V30 5882 C 535.298 -2.28492 -2.61551 0
M  V30 5883 C 534.252 -3.44124 -2.54485 0
M  V30 5884 C 533.578 -3.62134 -3.93399 0
M  V30 5885 C 534.878 -4.78855 -2.08556 0
M  V30 5886 H 536.572 -2.84412 -0.935434 0
M  V30 5887 H 534.118 -1.36836 -0.44854 0
M  V30 5888 H 536.071 -2.55039 -3.3546 0
M  V30 5889 H 534.795 -1.37052 -2.96453 0
M  V30 5890 H 533.454 -3.17639 -1.83033 0
M  V30 5891 H 533.102 -2.68055 -4.25623 0
M  V30 5892 H 532.802 -4.39913 -3.89551 0
M  V30 5893 H 534.326 -3.91038 -4.68958 0
M  V30 5894 H 535.74 -5.04552 -2.72213 0
M  V30 5895 H 534.137 -5.59975 -2.1575 0
M  V30 5896 H 535.207 -4.73657 -1.03811 0
M  V30 5897 N 536.55 0.480323 -1.50102 0
M  V30 5898 C 537.513 1.56181 -1.6775 0
M  V30 5899 C 538.513 1.51156 -0.548503 0
M  V30 5900 O 539.703 1.5394 -0.815363 0
M  V30 5901 C 536.835 2.95823 -1.69415 0
M  V30 5902 H 538.028 1.41855 -2.6423 0
M  V30 5903 H 535.581 0.70605 -1.39444 0
M  V30 5904 H 536.316 3.15604 -0.745948 0
M  V30 5905 H 536.101 3.00878 -2.51425 0
M  V30 5906 H 537.591 3.74359 -1.85054 0
M  V30 5907 N 538.028 1.39524 0.732853 0
M  V30 5908 C 538.958 1.41153 1.86005 0
M  V30 5909 C 539.939 0.274614 1.67869 0
M  V30 5910 O 541.124 0.480745 1.88155 0
M  V30 5911 C 538.254 1.25638 3.23778 0
M  V30 5912 C 537.208 2.36752 3.56556 0
M  V30 5913 C 536.534 2.06326 4.93289 0
M  V30 5914 C 537.834 3.79069 3.5931 0
M  V30 5915 H 539.528 2.35484 1.84899 0
M  V30 5916 H 537.074 1.13348 0.888162 0
M  V30 5917 H 539.027 1.25398 4.0231 0
M  V30 5918 H 537.751 0.277772 3.25417 0
M  V30 5919 H 536.41 2.36213 2.80355 0
M  V30 5920 H 536.058 1.06897 4.9151 0
M  V30 5921 H 535.758 2.80757 5.16187 0
M  V30 5922 H 537.282 2.07739 5.74175 0
M  V30 5923 H 538.696 3.81526 4.27914 0
M  V30 5924 H 537.093 4.52878 3.93728 0
M  V30 5925 H 538.163 4.09893 2.59068 0
M  V30 5926 N 539.506 -0.963266 1.24736 0
M  V30 5927 C 540.469 -2.04013 1.04457 0
M  V30 5928 C 541.469 -1.608 0.000335555 0
M  V30 5929 O 542.659 -1.72515 0.241719 0
M  V30 5930 C 539.791 -3.35858 0.584162 0
M  V30 5931 H 540.984 -2.23436 2.00041 0
M  V30 5932 H 538.537 -1.13914 1.07021 0
M  V30 5933 H 539.272 -3.22128 -0.374673 0
M  V30 5934 H 539.057 -3.68568 1.3379 0
M  V30 5935 H 540.547 -4.1502 0.463451 0
M  V30 5936 N 540.985 -1.06182 -1.16461 0
M  V30 5937 C 542.233 -0.776326 -1.86595 0
M  V30 5938 C 542.554 0.69921 -1.82033 0
M  V30 5939 O 541.824 1.50579 -1.2531 0
M  V30 5940 H 540.404 -0.284184 -0.690832 0
M  V30 5941 H 543.066 -1.34308 -1.41235 0
M  V30 5942 H 542.162 -1.10022 -2.92064 0
M  V30 5943 N 542.463 1.3308 -0.844243 0
M  V30 5944 C 543.41 2.29104 -0.279323 0
M  V30 5945 C 544.38 1.54577 0.607882 0
M  V30 5946 O 545.565 1.8285 0.545009 0
M  V30 5947 C 542.705 3.40927 0.53508 0
M  V30 5948 C 541.818 4.30354 -0.376749 0
M  V30 5949 C 540.953 5.29297 0.449276 0
M  V30 5950 C 539.992 6.10365 -0.460606 0
M  V30 5951 N 539.129 7.01335 0.327612 0
M  V30 5952 H 543.969 2.76817 -1.10346 0
M  V30 5953 H 541.506 1.36203 -0.555611 0
M  V30 5954 H 543.464 4.04469 1.02278 0
M  V30 5955 H 542.094 2.94391 1.32414 0
M  V30 5956 H 541.146 3.67485 -0.982791 0
M  V30 5957 H 542.458 4.87067 -1.07549 0
M  V30 5958 H 541.612 5.98392 1.00058 0
M  V30 5959 H 540.351 4.73174 1.18143 0
M  V30 5960 H 539.356 5.40182 -1.02388 0
M  V30 5961 H 540.581 6.68571 -1.1912 0
M  V30 5962 H 538.527 6.47655 1.04305 0
M  V30 5963 H 538.444 7.55355 -0.3123 0
M  V30 5964 H 539.712 7.74731 0.86098 0
M  V30 5965 N 543.941 0.601185 1.45683 0
M  V30 5966 C 544.873 -0.159446 2.28645 0
M  V30 5967 C 545.886 -0.837882 1.39583 0
M  V30 5968 O 547.075 -0.704344 1.64016 0
M  V30 5969 C 544.175 -1.24641 3.15147 0
M  V30 5970 C 543.348 -0.656334 4.32448 0
M  V30 5971 C 542.407 -1.63337 5.00208 0
M  V30 5972 O 541.433 -1.16217 5.57209 0
M  V30 5973 N 542.635 -2.96773 4.98905 0
M  V30 5974 H 545.4 0.5524 2.94565 0
M  V30 5975 H 542.961 0.440223 1.558 0
M  V30 5976 H 544.953 -1.8997 3.57342 0
M  V30 5977 H 543.523 -1.86087 2.51178 0
M  V30 5978 H 542.743 0.174879 3.93812 0
M  V30 5979 H 544.031 -0.242211 5.08223 0
M  V30 5980 H 543.429 -3.37662 4.53873 0
M  V30 5981 H 541.986 -3.57541 5.44984 0
M  V30 5982 N 545.419 -1.53889 0.339982 0
M  V30 5983 C 546.668 -2.00035 -0.258604 0
M  V30 5984 C 546.981 -1.23179 -1.51942 0
M  V30 5985 O 548.187 -1.59784 -2.19503 0
M  V30 5986 C 546.643 -3.56249 -0.511359 0
M  V30 5987 C 546.251 -4.41957 0.733349 0
M  V30 5988 C 547.995 -4.1082 -1.069 0
M  V30 5989 C 545.902 -5.89673 0.451591 0
M  V30 5990 H 544.832 -0.747284 -0.10041 0
M  V30 5991 H 547.483 -1.77776 0.454758 0
M  V30 5992 H 545.865 -3.7456 -1.28533 0
M  V30 5993 H 547.039 -4.35421 1.50815 0
M  V30 5994 H 545.354 -3.9836 1.21237 0
M  V30 5995 H 547.951 -5.18789 -1.2947 0
M  V30 5996 H 548.294 -3.63817 -2.02343 0
M  V30 5997 H 548.827 -3.96205 -0.355817 0
M  V30 5998 H 545.566 -6.40903 1.37565 0
M  V30 5999 H 545.086 -5.99122 -0.285193 0
M  V30 6000 H 546.765 -6.46965 0.0675067 0
M  V30 6001 N 546.897 -0.0685191 -1.57451 0
M  V30 6002 C 547.845 0.917577 -2.13736 0
M  V30 6003 C 548.839 1.31049 -1.07344 0
M  V30 6004 O 550.045 1.28811 -1.25728 0
M  V30 6005 H 546.42 0.313835 -0.683382 0
M  V30 6006 H 548.391 0.417903 -2.95459 0
M  V30 6007 C 547.14 2.17686 -2.71123 0
M  V30 6008 H 546.463 1.88336 -3.52661 0
M  V30 6009 H 547.903 2.84803 -3.14107 0
M  V30 6010 C 546.362 2.9332 -1.65726 0
M  V30 6011 O 546.892 3.86901 -1.08031 0
M  V30 6012 N 545.098 2.56367 -1.36837 0
M  V30 6013 H 544.645 1.80341 -1.83943 0
M  V30 6014 H 544.603 3.07276 -0.665501 0
M  V30 6015 N 548.375 1.56261 0.205012 0
M  V30 6016 C 549.322 1.93754 1.25411 0
M  V30 6017 C 550.292 0.796826 1.45739 0
M  V30 6018 O 551.477 1.05414 1.59036 0
M  V30 6019 C 548.617 2.27383 2.59598 0
M  V30 6020 C 547.73 3.5447 2.46931 0
M  V30 6021 C 546.865 3.77468 3.73753 0
M  V30 6022 C 545.904 4.98014 3.55877 0
M  V30 6023 N 545.041 5.17316 4.74688 0
M  V30 6024 H 549.881 2.83203 0.92737 0
M  V30 6025 H 547.418 1.40158 0.446574 0
M  V30 6026 H 549.376 2.44895 3.37761 0
M  V30 6027 H 548.006 1.41088 2.90335 0
M  V30 6028 H 547.058 3.45061 1.60116 0
M  V30 6029 H 548.37 4.42789 2.29651 0
M  V30 6030 H 547.524 3.95165 4.60358 0
M  V30 6031 H 546.263 2.87461 3.93976 0
M  V30 6032 H 545.268 4.80249 2.67657 0
M  V30 6033 H 546.493 5.8952 3.37109 0
M  V30 6034 H 544.439 4.30255 4.95194 0
M  V30 6035 H 544.356 5.99796 4.60197 0
M  V30 6036 H 545.624 5.39463 5.62672 0
M  V30 6037 N 549.853 -0.472356 1.50355 0
M  V30 6038 C 551.078 -1.25251 1.65309 0
M  V30 6039 C 551.503 -1.85081 0.335643 0
M  V30 6040 O 550.861 -1.67227 -0.700335 0
M  V30 6041 C 550.909 -2.3379 2.74544 0
M  V30 6042 O 550.013 -3.38401 2.35709 0
M  V30 6043 H 549.354 -0.368539 0.552336 0
M  V30 6044 H 551.884 -0.562271 1.96722 0
M  V30 6045 H 551.894 -2.79121 2.97583 0
M  V30 6046 H 550.569 -1.89614 3.70161 0
M  V30 6047 H 549.146 -2.9879 2.23112 0
M  V30 6048 N 551.331 -1.39911 -0.725443 0
M  V30 6049 C 552.579 -1.37382 -1.48224 0
M  V30 6050 C 552.9 0.0264107 -1.94982 0
M  V30 6051 O 552.17 0.979408 -1.6966 0
M  V30 6052 H 550.75 -0.505596 -0.549892 0
M  V30 6053 H 553.412 -1.7487 -0.860608 0
M  V30 6054 H 552.508 -2.04254 -2.3598 0
M  V30 6055 N 552.809 0.956637 -1.25245 0
M  V30 6056 C 553.756 2.053 -1.05454 0
M  V30 6057 C 554.726 1.66062 0.0356889 0
M  V30 6058 O 555.911 1.90415 -0.121099 0
M  V30 6059 C 553.051 3.38391 -0.677191 0
M  V30 6060 C 552.164 3.90758 -1.84206 0
M  V30 6061 C 551.299 5.12165 -1.40926 0
M  V30 6062 C 550.338 5.56757 -2.54338 0
M  V30 6063 N 549.475 6.69376 -2.11848 0
M  V30 6064 H 554.315 2.21562 -1.99284 0
M  V30 6065 H 551.852 1.08578 -0.992434 0
M  V30 6066 H 553.81 4.1488 -0.43938 0
M  V30 6067 H 552.44 3.22021 0.224127 0
M  V30 6068 H 551.492 3.10808 -2.19323 0
M  V30 6069 H 552.804 4.19802 -2.69383 0
M  V30 6070 H 551.958 5.96065 -1.13098 0
M  V30 6071 H 550.697 4.84832 -0.528175 0
M  V30 6072 H 549.702 4.71423 -2.82913 0
M  V30 6073 H 550.927 5.861 -3.43022 0
M  V30 6074 H 548.873 6.43756 -1.26153 0
M  V30 6075 H 548.79 6.97927 -2.90574 0
M  V30 6076 H 550.058 7.5669 -1.87191 0
M  V30 6077 N 554.287 1.06798 1.15896 0
M  V30 6078 C 555.22 0.627503 2.19403 0
M  V30 6079 C 556.198 -0.352352 1.58736 0
M  V30 6080 O 557.382 -0.260111 1.86697 0
M  V30 6081 C 554.509 -0.079356 3.38607 0
M  V30 6082 C 553.555 0.858057 4.17779 0
M  V30 6083 S 554.388 2.35605 4.80885 0
M  V30 6084 C 555.544 1.66083 6.03463 0
M  V30 6085 H 555.777 1.50441 2.56427 0
M  V30 6086 H 553.31 0.881427 1.26768 0
M  V30 6087 H 555.268 -0.48095 4.07673 0
M  V30 6088 H 553.929 -0.932524 2.99938 0
M  V30 6089 H 553.122 0.310108 5.03045 0
M  V30 6090 H 552.724 1.19977 3.54234 0
M  V30 6091 H 555.016 0.969337 6.7053 0
M  V30 6092 H 555.959 2.49159 6.62816 0
M  V30 6093 H 556.367 1.14122 5.52844 0
M  V30 6094 N 555.766 -1.3263 0.851289 0
M  V30 6095 C 556.994 -2.01563 0.466899 0
M  V30 6096 C 557.409 -1.63996 -0.935447 0
M  V30 6097 O 556.766 -0.85957 -1.6099 0
M  V30 6098 C 556.817 -3.56613 0.592433 0
M  V30 6099 O 556.538 -3.92828 1.93954 0
M  V30 6100 C 558.039 -4.42818 0.206612 0
M  V30 6101 H 555.259 -0.645307 0.183902 0
M  V30 6102 H 557.803 -1.69285 1.1473 0
M  V30 6103 H 555.958 -3.87379 -0.0401936 0
M  V30 6104 H 556.372 -4.87545 1.9339 0
M  V30 6105 H 557.846 -5.50918 0.345462 0
M  V30 6106 H 558.323 -4.30844 -0.85264 0
M  V30 6107 H 558.929 -4.17434 0.814176 0
M  V30 6108 N 557.244 -0.608902 -1.45362 0
M  V30 6109 C 558.521 -0.0365378 -1.95566 0
M  V30 6110 C 558.901 1.43169 -1.55131 0
M  V30 6111 O 558.249 2.1349 -0.814513 0
M  V30 6112 C 558.459 -0.236026 -3.48201 0
M  V30 6113 C 559.807 -0.117518 -4.24437 0
M  V30 6114 O 560.831 -0.166217 -3.55812 0
M  V30 6115 O 559.69 -0.00372127 -5.465 0
M  V30 6116 H 556.784 0.0349874 -0.82626 0
M  V30 6117 H 559.33 -0.679055 -1.55521 0
M  V30 6118 H 558.102 -1.25569 -3.70605 0
M  V30 6119 H 557.725 0.441691 -3.95139 0
M  V30 6120 N 558.722 1.53707 -0.348139 0
M  V30 6121 C 559.952 2.05108 0.247864 0
M  V30 6122 C 560.36 1.22252 1.44399 0
M  V30 6123 O 559.703 0.251853 1.81965 0
M  V30 6124 C 559.765 3.52171 0.722187 0
M  V30 6125 C 559.429 4.5562 -0.354902 0
M  V30 6126 C 560.426 5.05883 -1.19911 0
M  V30 6127 C 558.111 4.99703 -0.510145 0
M  V30 6128 C 560.105 5.98814 -2.18406 0
M  V30 6129 C 557.792 5.92443 -1.49848 0
M  V30 6130 C 558.79 6.41887 -2.33389 0
M  V30 6131 O 558.478 7.32802 -3.3054 0
M  V30 6132 H 558.21 0.674086 0.0508296 0
M  V30 6133 H 560.764 1.99229 -0.49968 0
M  V30 6134 H 558.994 3.55529 1.52105 0
M  V30 6135 H 560.683 3.8652 1.23925 0
M  V30 6136 H 561.449 4.72586 -1.09028 0
M  V30 6137 H 557.328 4.60816 0.130274 0
M  V30 6138 H 560.872 6.3733 -2.83649 0
M  V30 6139 H 556.769 6.25155 -1.60786 0
M  V30 6140 H 557.537 7.50749 -3.26064 0
M  V30 6141 N 560.2 0.0768682 1.57412 0
M  V30 6142 C 561.477 -0.632359 1.85096 0
M  V30 6143 C 561.857 -1.87479 0.9703 0
M  V30 6144 O 561.205 -2.28469 0.0379062 0
M  V30 6145 C 561.415 -0.965174 3.35388 0
M  V30 6146 C 562.763 -1.33648 4.03018 0
M  V30 6147 O 563.787 -1.05675 3.40164 0
M  V30 6148 O 562.646 -1.85959 5.13889 0
M  V30 6149 H 559.74 -0.314574 0.764835 0
M  V30 6150 H 562.286 0.108184 1.69355 0
M  V30 6151 H 561.058 -0.0829745 3.91212 0
M  V30 6152 H 560.681 -1.76231 3.5641 0
M  V30 6153 N 561.678 -1.56367 -0.196722 0
M  V30 6154 C 562.927 -1.79724 -0.915539 0
M  V30 6155 C 563.24 -0.649804 -1.84491 0
M  V30 6156 O 564.446 -0.767631 -2.60422 0
M  V30 6157 C 562.902 -3.18369 -1.67836 0
M  V30 6158 C 562.51 -4.4091 -0.793897 0
M  V30 6159 C 564.254 -3.51037 -2.38691 0
M  V30 6160 C 562.161 -5.70577 -1.55549 0
M  V30 6161 H 561.091 -0.67013 -0.345604 0
M  V30 6162 H 563.742 -1.82721 -0.168856 0
M  V30 6163 H 562.124 -3.09617 -2.46887 0
M  V30 6164 H 563.298 -4.60781 -0.042163 0
M  V30 6165 H 561.613 -4.15937 -0.19626 0
M  V30 6166 H 564.21 -4.4515 -2.96219 0
M  V30 6167 H 564.553 -2.74704 -3.12799 0
M  V30 6168 H 565.086 -3.61229 -1.66608 0
M  V30 6169 H 561.825 -6.49871 -0.857226 0
M  V30 6170 H 561.345 -5.54726 -2.2812 0
M  V30 6171 H 563.024 -6.11637 -2.10971 0
M  V30 6172 N 563.156 0.464375 -1.50603 0
M  V30 6173 C 564.404 1.21356 -1.61608 0
M  V30 6174 C 564.725 1.92329 -0.321643 0
M  V30 6175 O 563.995 1.84403 0.661232 0
M  V30 6176 H 562.575 0.45094 -0.595535 0
M  V30 6177 H 565.237 0.535046 -1.87412 0
M  V30 6178 H 564.333 1.95783 -2.43054 0
M  V30 6179 N 564.634 1.40294 0.718013 0
M  V30 6180 C 565.862 1.4175 1.50714 0
M  V30 6181 C 566.277 0.0165366 1.88793 0
M  V30 6182 O 565.634 -0.958942 1.55276 0
M  V30 6183 C 565.685 2.30598 2.784 0
M  V30 6184 O 565.406 3.6524 2.41932 0
M  V30 6185 C 566.907 2.4062 3.72313 0
M  V30 6186 H 564.127 0.483565 0.465194 0
M  V30 6187 H 566.671 1.84316 0.885889 0
M  V30 6188 H 564.826 1.91401 3.36815 0
M  V30 6189 H 565.24 4.12402 3.24076 0
M  V30 6190 H 566.714 3.07001 4.58753 0
M  V30 6191 H 567.191 1.4305 4.15251 0
M  V30 6192 H 567.797 2.80359 3.19811 0
M  V30 6193 N 566.112 -0.949982 1.2575 0
M  V30 6194 C 567.359 -1.69515 1.10774 0
M  V30 6195 C 567.687 -1.91316 -0.350479 0
M  V30 6196 O 566.942 -1.48515 -1.27443 0
M  V30 6197 C 567.241 -3.08039 1.81237 0
M  V30 6198 C 566.907 -3.06023 3.31151 0
M  V30 6199 C 565.569 -3.0518 3.72047 0
M  V30 6200 C 567.921 -2.98998 4.26907 0
M  V30 6201 C 565.249 -2.95067 5.07102 0
M  V30 6202 C 567.601 -2.90426 5.61992 0
M  V30 6203 C 566.265 -2.87922 6.0221 0
M  V30 6204 H 565.535 -0.6203 0.405351 0
M  V30 6205 H 568.182 -1.10953 1.56082 0
M  V30 6206 H 566.487 -3.70172 1.28373 0
M  V30 6207 H 568.184 -3.64526 1.67098 0
M  V30 6208 H 564.774 -3.07453 2.98614 0
M  V30 6209 H 568.958 -2.98764 3.963 0
M  V30 6210 H 564.214 -2.915 5.37436 0
M  V30 6211 H 568.388 -2.83952 6.35881 0
M  V30 6212 H 566.015 -2.79841 7.06819 0
M  V30 6213 N 567.59 -1.07411 -1.15328 0
M  V30 6214 C 568.818 -0.818782 -1.90009 0
M  V30 6215 C 569.233 0.628072 -1.78047 0
M  V30 6216 O 568.59 1.43085 -1.13282 0
M  V30 6217 C 568.641 -1.21874 -3.40337 0
M  V30 6218 O 568.362 -2.60883 -3.51954 0
M  V30 6219 C 569.863 -0.992796 -4.3204 0
M  V30 6220 H 567.083 -0.296007 -0.60218 0
M  V30 6221 H 569.627 -1.43073 -1.46117 0
M  V30 6222 H 567.782 -0.651103 -3.81889 0
M  V30 6223 H 568.196 -2.77216 -4.45255 0
M  V30 6224 H 569.67 -1.32215 -5.35932 0
M  V30 6225 H 570.147 0.0708331 -4.39143 0
M  V30 6226 H 570.753 -1.54537 -3.9623 0
M  V30 6227 N 569.068 1.32177 -0.85831 0
M  V30 6228 C 570.293 2.01847 -0.476718 0
M  V30 6229 C 570.718 1.64065 0.920021 0
M  V30 6230 O 570.076 0.843189 1.60499 0
M  V30 6231 C 570.124 3.55097 -0.627578 0
M  V30 6232 O 569.228 4.11012 0.338086 0
M  V30 6233 H 568.569 0.635907 -0.191099 0
M  V30 6234 H 571.099 1.68641 -1.15851 0
M  V30 6235 H 571.109 4.04718 -0.516476 0
M  V30 6236 H 569.784 3.81938 -1.64609 0
M  V30 6237 H 568.361 3.72451 0.182917 0
M  V30 6238 N 570.547 0.616602 1.45037 0
M  V30 6239 C 571.479 -0.135186 2.28801 0
M  V30 6240 C 572.492 -0.82303 1.40464 0
M  V30 6241 O 573.681 -0.686909 1.64754 0
M  V30 6242 C 570.781 -1.21292 3.16451 0
M  V30 6243 C 569.954 -0.61043 4.3312 0
M  V30 6244 C 569.013 -1.58022 5.01912 0
M  V30 6245 O 568.039 -1.10301 5.58411 0
M  V30 6246 N 569.241 -2.91464 5.02025 0
M  V30 6247 H 572.006 0.583612 2.93963 0
M  V30 6248 H 569.567 0.456723 1.55324 0
M  V30 6249 H 571.559 -1.86169 3.59337 0
M  V30 6250 H 570.129 -1.83412 2.53138 0
M  V30 6251 H 569.349 0.216638 3.93604 0
M  V30 6252 H 570.637 -0.188293 5.08451 0
M  V30 6253 H 570.035 -3.32829 4.57429 0
M  V30 6254 H 568.592 -3.51741 5.48745 0
M  V30 6255 N 572.025 -1.5352 0.356285 0
M  V30 6256 C 573.272 -2.01117 -0.236303 0
M  V30 6257 C 573.6 -1.24381 -1.49531 0
M  V30 6258 O 572.855 -0.323057 -1.93015 0
M  V30 6259 C 573.154 -3.52607 -0.583369 0
M  V30 6260 C 572.82 -4.47151 0.58023 0
M  V30 6261 C 571.482 -4.72718 0.899528 0
M  V30 6262 C 573.834 -5.03137 1.36024 0
M  V30 6263 C 571.162 -5.51523 2.00098 0
M  V30 6264 C 573.514 -5.83145 2.45204 0
M  V30 6265 C 572.178 -6.07001 2.77679 0
M  V30 6266 H 571.448 -0.735938 -0.0864695 0
M  V30 6267 H 574.095 -1.85209 0.48683 0
M  V30 6268 H 572.4 -3.66413 -1.38739 0
M  V30 6269 H 574.097 -3.86901 -1.05397 0
M  V30 6270 H 570.687 -4.27394 0.321322 0
M  V30 6271 H 574.871 -4.83339 1.12682 0
M  V30 6272 H 570.127 -5.68229 2.25668 0
M  V30 6273 H 574.301 -6.25537 3.06067 0
M  V30 6274 H 571.928 -6.67851 3.63151 0
M  V30 6275 N 573.503 -0.0852151 -1.57369 0
M  V30 6276 C 574.466 0.8627 -2.12344 0
M  V30 6277 C 575.466 1.21746 -1.05046 0
M  V30 6278 O 576.656 1.14852 -1.30976 0
M  V30 6279 C 573.788 2.1618 -2.63589 0
M  V30 6280 H 574.981 0.385511 -2.97412 0
M  V30 6281 H 572.534 0.163663 -1.55441 0
M  V30 6282 H 573.269 2.68406 -1.82013 0
M  V30 6283 H 573.054 1.91723 -3.4203 0
M  V30 6284 H 574.544 2.84011 -3.06149 0
M  V30 6285 N 574.981 1.5647 0.188427 0
M  V30 6286 C 576.227 1.81281 0.909124 0
M  V30 6287 C 576.56 0.66034 1.82628 0
M  V30 6288 O 575.835 -0.338737 1.91528 0
M  V30 6289 C 576.118 3.16388 1.7196 0
M  V30 6290 C 575.971 4.42137 0.826714 0
M  V30 6291 C 577.29 3.48256 2.69083 0
M  V30 6292 H 574.409 0.659457 0.329068 0
M  V30 6293 H 577.051 1.89182 0.176156 0
M  V30 6294 H 575.201 3.09784 2.34448 0
M  V30 6295 H 576.873 4.60794 0.216025 0
M  V30 6296 H 575.116 4.33594 0.133792 0
M  V30 6297 H 575.787 5.33184 1.42893 0
M  V30 6298 H 578.263 3.55203 2.16726 0
M  V30 6299 H 577.139 4.43899 3.2287 0
M  V30 6300 H 577.4 2.72088 3.48455 0
M  V30 6301 N 576.459 -0.456382 1.50847 0
M  V30 6302 C 577.707 -1.20497 1.62249 0
M  V30 6303 C 578.028 -1.92156 0.331839 0
M  V30 6304 O 577.298 -1.84751 -0.651443 0
M  V30 6305 H 575.878 -0.447775 0.597918 0
M  V30 6306 H 578.54 -0.525099 1.87693 0
M  V30 6307 H 577.636 -1.94492 2.44089 0
M  V30 6308 N 577.937 -1.40673 -0.710563 0
M  V30 6309 C 579.162 -1.42741 -1.50465 0
M  V30 6310 C 579.587 -0.0302116 -1.88076 0
M  V30 6311 O 578.945 0.962945 -1.53613 0
M  V30 6312 C 578.993 -2.32873 -2.75322 0
M  V30 6313 O 578.097 -1.77544 -3.72226 0
M  V30 6314 H 577.438 -0.485056 -0.45345 0
M  V30 6315 H 579.968 -1.84961 -0.874681 0
M  V30 6316 H 579.978 -2.48233 -3.23797 0
M  V30 6317 H 578.653 -3.34401 -2.47283 0
M  V30 6318 H 577.23 -1.71556 -3.31093 0
M  V30 6319 N 579.415 0.9433 -1.26252 0
M  V30 6320 C 580.64 1.72898 -1.14547 0
M  V30 6321 C 581.065 1.85761 0.295743 0
M  V30 6322 O 580.423 1.3463 1.21427 0
M  V30 6323 C 580.471 3.11471 -1.8171 0
M  V30 6324 O 579.575 3.97336 -1.10445 0
M  V30 6325 H 578.916 0.530555 -0.399259 0
M  V30 6326 H 581.446 1.18159 -1.67032 0
M  V30 6327 H 581.456 3.61872 -1.88449 0
M  V30 6328 H 580.131 3.01425 -2.86558 0
M  V30 6329 H 578.708 3.55788 -1.11666 0
M  V30 6330 N 580.893 1.08022 1.14757 0
M  V30 6331 C 582.139 0.808705 1.85978 0
M  V30 6332 C 582.472 -0.663764 1.82504 0
M  V30 6333 O 581.747 -1.48765 1.25296 0
M  V30 6334 C 582.03 1.32623 3.34788 0
M  V30 6335 C 581.883 2.86375 3.46856 0
M  V30 6336 C 583.202 0.948291 4.29762 0
M  V30 6337 H 580.321 0.295244 0.675278 0
M  V30 6338 H 582.963 1.33917 1.34783 0
M  V30 6339 H 581.113 0.875002 3.78518 0
M  V30 6340 H 582.785 3.39839 3.11941 0
M  V30 6341 H 581.028 3.24232 2.88194 0
M  V30 6342 H 581.699 3.17658 4.51439 0
M  V30 6343 H 584.175 1.33722 3.94028 0
M  V30 6344 H 583.051 1.33765 5.32352 0
M  V30 6345 H 583.312 -0.145094 4.41862 0
M  V30 6346 N 582.371 -1.3172 0.865308 0
M  V30 6347 C 583.318 -2.2863 0.315736 0
M  V30 6348 C 584.288 -1.55524 -0.583213 0
M  V30 6349 O 585.473 -1.83694 -0.51585 0
M  V30 6350 C 582.613 -3.41735 -0.480773 0
M  V30 6351 C 581.726 -4.297 0.445167 0
M  V30 6352 C 580.861 -5.29944 -0.365012 0
M  V30 6353 C 579.9 -6.09554 0.557651 0
M  V30 6354 N 579.037 -7.01768 -0.215994 0
M  V30 6355 H 583.877 -2.75026 1.14736 0
M  V30 6356 H 581.414 -1.35302 0.577209 0
M  V30 6357 H 583.372 -4.06045 -0.958306 0
M  V30 6358 H 582.002 -2.96461 -1.27714 0
M  V30 6359 H 581.054 -3.65875 1.04113 0
M  V30 6360 H 582.366 -4.85295 1.15284 0
M  V30 6361 H 581.52 -5.99908 -0.905255 0
M  V30 6362 H 580.259 -4.74994 -1.106 0
M  V30 6363 H 579.264 -5.38485 1.10969 0
M  V30 6364 H 580.489 -6.66591 1.29742 0
M  V30 6365 H 578.435 -6.49232 -0.939878 0
M  V30 6366 H 578.352 -7.54762 0.432431 0
M  V30 6367 H 579.62 -7.76002 -0.737618 0
M  V30 6368 N 583.85 -0.624285 -1.44708 0
M  V30 6369 C 585.098 -0.125802 -2.01708 0
M  V30 6370 C 585.418 1.2543 -1.49306 0
M  V30 6371 O 584.689 1.83198 -0.693924 0
M  V30 6372 H 583.269 -0.0435161 -0.745731 0
M  V30 6373 H 585.931 -0.809446 -1.77296 0
M  V30 6374 H 585.027 -0.0882734 -3.11975 0
M  V30 6375 N 585.328 1.53329 -0.364422 0
M  V30 6376 C 586.576 2.00842 0.225189 0
M  V30 6377 C 586.897 1.25345 1.49378 0
M  V30 6378 O 586.167 0.366396 1.92443 0
M  V30 6379 H 584.747 0.742009 0.0862027 0
M  V30 6380 H 587.409 1.8863 -0.490389 0
M  V30 6381 H 586.505 3.08795 0.452987 0
M  V30 6382 N 586.806 0.0935595 1.57322 0
M  V30 6383 C 588.034 -0.578934 1.98635 0
M  V30 6384 C 588.449 -1.61819 0.972626 0
M  V30 6385 O 587.806 -1.82461 -0.0379638 0
M  V30 6386 C 587.857 -1.22802 3.40003 0
M  V30 6387 O 587.578 -0.230334 4.37494 0
M  V30 6388 C 589.079 -1.98627 3.96311 0
M  V30 6389 H 586.299 -0.155324 0.652775 0
M  V30 6390 H 588.843 0.172393 2.03772 0
M  V30 6391 H 586.998 -1.93029 3.35885 0
M  V30 6392 H 587.412 -0.698649 5.19826 0
M  V30 6393 H 588.886 -2.39405 4.97382 0
M  V30 6394 H 589.363 -2.85151 3.34044 0
M  V30 6395 H 589.969 -1.3322 4.03897 0
M  V30 6396 N 588.284 -1.56567 -0.180126 0
M  V30 6397 C 589.214 -1.98753 -1.22553 0
M  V30 6398 C 590.195 -0.86175 -1.46656 0
M  V30 6399 O 591.38 -1.12719 -1.58139 0
M  V30 6400 C 588.51 -2.33988 -2.56645 0
M  V30 6401 C 587.464 -3.49445 -2.47128 0
M  V30 6402 C 586.79 -3.70397 -3.8563 0
M  V30 6403 C 588.09 -4.83171 -1.98352 0
M  V30 6404 H 589.784 -2.86332 -0.874896 0
M  V30 6405 H 587.33 -1.37757 -0.419414 0
M  V30 6406 H 589.283 -2.62097 -3.29974 0
M  V30 6407 H 588.007 -1.43309 -2.93479 0
M  V30 6408 H 586.666 -3.2145 -1.76254 0
M  V30 6409 H 586.314 -2.77023 -4.19842 0
M  V30 6410 H 586.014 -4.48077 -3.80132 0
M  V30 6411 H 587.538 -4.00897 -4.60558 0
M  V30 6412 H 588.952 -5.10213 -2.61449 0
M  V30 6413 H 587.349 -5.64425 -2.03823 0
M  V30 6414 H 588.419 -4.75753 -0.937402 0
M  V30 6415 N 589.762 0.448376 -1.51087 0
M  V30 6416 C 590.692 1.55102 -1.74544 0
M  V30 6417 C 591.673 1.59357 -0.594932 0
M  V30 6418 O 592.858 1.75261 -0.836491 0
M  V30 6419 C 589.988 2.93268 -1.86041 0
M  V30 6420 C 588.942 3.03877 -3.01402 0
M  V30 6421 C 588.268 4.43914 -2.98068 0
M  V30 6422 C 589.568 2.7898 -4.41551 0
M  V30 6423 H 591.262 1.35724 -2.66869 0
M  V30 6424 H 588.808 0.651498 -1.28419 0
M  V30 6425 H 590.761 3.70356 -2.01034 0
M  V30 6426 H 589.485 3.13853 -0.903548 0
M  V30 6427 H 588.144 2.29227 -2.86096 0
M  V30 6428 H 587.792 4.6145 -2.00182 0
M  V30 6429 H 587.492 4.51944 -3.75527 0
M  V30 6430 H 589.016 5.22991 -3.1514 0
M  V30 6431 H 590.43 3.45805 -4.57265 0
M  V30 6432 H 588.827 2.98431 -5.20633 0
M  V30 6433 H 589.897 1.74663 -4.5235 0
M  V30 6434 N 591.24 1.41047 0.703093 0
M  V30 6435 C 592.203 1.42036 1.79884 0
M  V30 6436 C 593.203 0.312153 1.57741 0
M  V30 6437 O 594.393 0.571672 1.64553 0
M  V30 6438 C 591.525 1.22437 3.18154 0
M  V30 6439 H 592.718 2.39572 1.80403 0
M  V30 6440 H 590.271 1.27079 0.909977 0
M  V30 6441 H 591.006 0.257112 3.23279 0
M  V30 6442 H 590.791 2.02723 3.35627 0
M  V30 6443 H 592.281 1.25946 3.98155 0
M  V30 6444 N 592.718 -0.936591 1.26751 0
M  V30 6445 C 593.966 -1.67998 1.12343 0
M  V30 6446 C 594.287 -1.92137 -0.332938 0
M  V30 6447 O 593.557 -1.52132 -1.23421 0
M  V30 6448 H 592.137 -0.622609 0.412756 0
M  V30 6449 H 594.799 -1.12509 1.59147 0
M  V30 6450 H 593.895 -2.65185 1.64571 0
M  V30 6451 N 594.196 -1.08629 -1.14182 0
M  V30 6452 C 595.426 -0.837673 -1.88856 0
M  V30 6453 C 595.834 0.614024 -1.78959 0
M  V30 6454 O 595.177 1.43384 -1.14833 0
M  V30 6455 C 595.239 -1.18355 -3.39459 0
M  V30 6456 C 594.903 -2.63848 -3.73139 0
M  V30 6457 C 595.9 -3.62099 -3.73069 0
M  V30 6458 C 593.585 -2.99761 -4.03049 0
M  V30 6459 C 595.579 -4.94292 -4.02435 0
M  V30 6460 C 593.266 -4.32147 -4.32078 0
M  V30 6461 C 594.264 -5.29223 -4.31755 0
M  V30 6462 O 593.952 -6.59229 -4.60079 0
M  V30 6463 H 593.684 -0.301609 -0.604986 0
M  V30 6464 H 596.238 -1.44961 -1.45518 0
M  V30 6465 H 594.468 -0.514628 -3.8326 0
M  V30 6466 H 596.157 -0.915391 -3.95443 0
M  V30 6467 H 596.923 -3.35698 -3.50046 0
M  V30 6468 H 592.802 -2.2484 -4.02453 0
M  V30 6469 H 596.346 -5.70055 -4.02098 0
M  V30 6470 H 592.243 -4.58296 -4.54571 0
M  V30 6471 H 593.011 -6.64578 -4.77785 0
M  V30 6472 N 595.674 1.31259 -0.872281 0
M  V30 6473 C 596.606 2.27396 -0.28697 0
M  V30 6474 C 597.619 1.53181 0.551297 0
M  V30 6475 O 598.808 1.74561 0.372914 0
M  V30 6476 C 595.908 3.33335 0.611617 0
M  V30 6477 C 595.081 4.36966 -0.194729 0
M  V30 6478 C 594.14 5.22387 0.632358 0
M  V30 6479 O 593.166 5.69169 0.0595691 0
M  V30 6480 N 594.368 5.46985 1.94391 0
M  V30 6481 H 597.133 2.78261 -1.11314 0
M  V30 6482 H 594.694 1.44306 -0.733994 0
M  V30 6483 H 596.686 3.87398 1.17068 0
M  V30 6484 H 595.256 2.82496 1.33846 0
M  V30 6485 H 594.476 3.82945 -0.935241 0
M  V30 6486 H 595.764 5.03273 -0.747935 0
M  V30 6487 H 595.162 5.10737 2.43237 0
M  V30 6488 H 593.719 6.03973 2.45071 0
M  V30 6489 N 597.152 0.631951 1.44375 0
M  V30 6490 C 598.1 -0.0846693 2.32446 0
M  V30 6491 C 599.094 -0.834957 1.47393 0
M  V30 6492 O 600.3 -0.747764 1.63733 0
M  V30 6493 H 596.675 -0.0461508 0.750583 0
M  V30 6494 H 598.646 0.67619 2.90638 0
M  V30 6495 C 597.395 -1.05211 3.314 0
M  V30 6496 H 596.718 -0.484203 3.96857 0
M  V30 6497 H 598.158 -1.523 3.95703 0
M  V30 6498 C 596.617 -2.13776 2.60387 0
M  V30 6499 O 597.147 -3.21869 2.4034 0
M  V30 6500 N 595.353 -1.89733 2.20113 0
M  V30 6501 H 594.9 -1.01833 2.36618 0
M  V30 6502 H 594.858 -2.62572 1.72926 0
M  V30 6503 N 598.631 -1.53133 0.372548 0
M  V30 6504 C 599.578 -2.25951 -0.470631 0
M  V30 6505 C 600.548 -1.26895 -1.07176 0
M  V30 6506 O 601.733 -1.55691 -1.10294 0
M  V30 6507 C 598.873 -3.05726 -1.6008 0
M  V30 6508 C 597.986 -4.19684 -1.02416 0
M  V30 6509 C 597.121 -4.86888 -2.124 0
M  V30 6510 C 596.16 -5.92866 -1.52238 0
M  V30 6511 N 595.297 -6.53732 -2.56084 0
M  V30 6512 H 600.137 -2.97587 0.156816 0
M  V30 6513 H 597.674 -1.4683 0.0891571 0
M  V30 6514 H 599.632 -3.50258 -2.26661 0
M  V30 6515 H 598.262 -2.36331 -2.1988 0
M  V30 6516 H 597.314 -3.79588 -0.248426 0
M  V30 6517 H 598.626 -4.95821 -0.544366 0
M  V30 6518 H 597.78 -5.34638 -2.86787 0
M  V30 6519 H 596.519 -4.10239 -2.63734 0
M  V30 6520 H 595.524 -5.4447 -0.763685 0
M  V30 6521 H 596.749 -6.71439 -1.0172 0
M  V30 6522 H 594.695 -5.79932 -3.06618 0
M  V30 6523 H 594.612 -7.25429 -2.12811 0
M  V30 6524 H 595.88 -7.0613 -3.30152 0
M  V30 6525 N 600.109 -0.101901 -1.5727 0
M  V30 6526 C 601.072 0.840129 -2.13247 0
M  V30 6527 C 602.072 1.20625 -1.06331 0
M  V30 6528 O 603.262 1.13456 -1.32186 0
M  V30 6529 C 600.394 2.13372 -2.65867 0
M  V30 6530 H 601.587 0.353945 -2.97804 0
M  V30 6531 H 599.14 0.147167 -1.55606 0
M  V30 6532 H 599.875 2.66461 -1.84849 0
M  V30 6533 H 599.66 1.88085 -3.44044 0
M  V30 6534 H 601.15 2.80748 -3.09145 0
M  V30 6535 N 601.587 1.56661 0.17182 0
M  V30 6536 C 602.836 1.81158 0.886831 0
M  V30 6537 C 603.149 0.679072 1.83434 0
M  V30 6538 O 604.355 0.808964 2.59168 0
M  V30 6539 C 602.811 3.20999 1.6275 0
M  V30 6540 C 602.419 4.42117 0.723652 0
M  V30 6541 C 604.163 3.5479 2.33076 0
M  V30 6542 C 602.07 5.7298 1.46452 0
M  V30 6543 H 601 0.675543 0.334899 0
M  V30 6544 H 603.651 1.82967 0.139765 0
M  V30 6545 H 602.033 3.13506 2.4193 0
M  V30 6546 H 603.207 4.60789 -0.0311485 0
M  V30 6547 H 601.522 4.16197 0.130063 0
M  V30 6548 H 604.119 4.49806 2.89099 0
M  V30 6549 H 604.462 2.79646 3.08389 0
M  V30 6550 H 604.995 3.63834 1.6084 0
M  V30 6551 H 601.734 6.51152 0.753729 0
M  V30 6552 H 601.254 5.58285 2.19266 0
M  V30 6553 H 602.933 6.14916 2.01214 0
M  V30 6554 N 603.065 -0.440357 1.51323 0
M  V30 6555 C 604.012 -1.53429 1.72419 0
M  V30 6556 C 604.982 -1.56165 0.565826 0
M  V30 6557 O 606.167 -1.73222 0.799917 0
M  V30 6558 C 603.307 -2.91169 1.85242 0
M  V30 6559 C 602.42 -2.97985 3.12777 0
M  V30 6560 C 601.555 -4.26829 3.16212 0
M  V30 6561 C 600.594 -4.27501 4.38074 0
M  V30 6562 N 599.731 -5.47866 4.39076 0
M  V30 6563 H 604.571 -1.34743 2.65797 0
M  V30 6564 H 602.108 -0.654608 1.31732 0
M  V30 6565 H 604.066 -3.71087 1.90658 0
M  V30 6566 H 602.696 -3.0842 0.952744 0
M  V30 6567 H 601.748 -2.10749 3.16685 0
M  V30 6568 H 603.06 -2.94342 4.02696 0
M  V30 6569 H 602.214 -5.15118 3.20527 0
M  V30 6570 H 600.953 -4.33124 2.24176 0
M  V30 6571 H 599.958 -3.37606 4.33938 0
M  V30 6572 H 601.183 -4.22873 5.31371 0
M  V30 6573 H 599.129 -5.54887 3.49909 0
M  V30 6574 H 599.046 -5.46091 5.22801 0
M  V30 6575 H 600.314 -6.38195 4.4758 0
M  V30 6576 N 604.543 -1.41418 -0.695603 0
M  V30 6577 C 605.789 -1.40982 -1.4578 0
M  V30 6578 C 606.122 -0.0187763 -1.94191 0
M  V30 6579 O 605.397 0.95346 -1.69527 0
M  V30 6580 C 605.68 -2.41657 -2.66972 0
M  V30 6581 C 605.533 -3.89869 -2.24327 0
M  V30 6582 C 606.852 -2.39589 -3.69168 0
M  V30 6583 H 603.971 -0.513405 -0.528757 0
M  V30 6584 H 606.613 -1.72693 -0.792275 0
M  V30 6585 H 604.763 -2.14746 -3.23754 0
M  V30 6586 H 606.435 -4.27683 -1.72872 0
M  V30 6587 H 604.678 -4.04737 -1.56111 0
M  V30 6588 H 605.349 -4.55857 -3.11285 0
M  V30 6589 H 607.825 -2.63471 -3.2206 0
M  V30 6590 H 606.701 -3.12044 -4.51575 0
M  V30 6591 H 606.962 -1.41447 -4.18862 0
M  V30 6592 N 606.021 0.929856 -1.27246 0
M  V30 6593 C 607.269 1.674 -1.13233 0
M  V30 6594 C 607.59 1.92311 0.322744 0
M  V30 6595 O 606.86 1.52784 1.22612 0
M  V30 6596 H 605.44 0.620411 -0.416052 0
M  V30 6597 H 608.102 1.11663 -1.59741 0
M  V30 6598 H 607.198 2.64308 -1.65975 0
M  V30 6599 N 607.499 1.09233 1.13605 0
M  V30 6600 C 608.409 0.741939 2.22559 0
M  V30 6601 C 609.425 -0.255236 1.72118 0
M  V30 6602 O 610.601 -0.0970747 2.01166 0
M  V30 6603 C 607.666 0.165595 3.46304 0
M  V30 6604 C 606.727 1.21846 4.11645 0
M  V30 6605 C 605.96 0.669526 5.29484 0
M  V30 6606 O 606.183 -0.508228 5.68131 0
M  V30 6607 O 605.117 1.42361 5.84822 0
M  V30 6608 H 608.943 1.65107 2.54899 0
M  V30 6609 H 606.528 0.866584 1.21699 0
M  V30 6610 H 608.41 -0.152592 4.21124 0
M  V30 6611 H 607.085 -0.716573 3.15669 0
M  V30 6612 H 605.992 1.58931 3.38662 0
M  V30 6613 H 607.325 2.07321 4.46407 0
M  V30 6614 N 608.977 -1.30795 0.87923 0
M  V30 6615 C 610.205 -2.00527 0.509548 0
M  V30 6616 C 610.62 -1.65944 -0.90045 0
M  V30 6617 O 609.977 -0.893525 -1.5913 0
M  V30 6618 C 610.028 -3.55276 0.667943 0
M  V30 6619 O 609.749 -3.88625 2.02242 0
M  V30 6620 C 611.25 -4.4228 0.300494 0
M  V30 6621 H 608.47 -0.641261 0.197549 0
M  V30 6622 H 611.014 -1.66813 1.18295 0
M  V30 6623 H 609.169 -3.87377 0.0419843 0
M  V30 6624 H 609.583 -4.83334 2.03688 0
M  V30 6625 H 611.057 -5.50061 0.462242 0
M  V30 6626 H 611.534 -4.32556 -0.76106 0
M  V30 6627 H 612.14 -4.15613 0.902536 0
M  V30 6628 N 610.455 -0.639598 -1.44038 0
M  V30 6629 C 611.388 0.109736 -2.27936 0
M  V30 6630 C 612.366 0.843095 -1.39035 0
M  V30 6631 O 613.55 0.845456 -1.68476 0
M  V30 6632 C 610.677 1.16173 -3.18153 0
M  V30 6633 C 609.723 0.527954 -4.2322 0
M  V30 6634 S 610.556 -0.688318 -5.31058 0
M  V30 6635 C 611.712 0.363481 -6.24844 0
M  V30 6636 H 611.945 -0.601986 -2.91142 0
M  V30 6637 H 609.478 -0.42802 -1.48349 0
M  V30 6638 H 611.436 1.76372 -3.7068 0
M  V30 6639 H 610.097 1.84569 -2.54151 0
M  V30 6640 H 609.29 1.32054 -4.86393 0
M  V30 6641 H 608.892 0.000396444 -3.74 0
M  V30 6642 H 611.184 1.23362 -6.66174 0
M  V30 6643 H 612.127 -0.23288 -7.07717 0
M  V30 6644 H 612.535 0.693179 -5.60228 0
M  V30 6645 N 611.933 1.52934 -0.380664 0
M  V30 6646 C 613.179 2.01765 0.20458 0
M  V30 6647 C 613.512 1.26696 1.47179 0
M  V30 6648 O 612.787 0.364936 1.91046 0
M  V30 6649 C 613.07 3.56869 0.481269 0
M  V30 6650 C 612.923 4.42617 -0.800629 0
M  V30 6651 C 614.242 4.2121 1.27554 0
M  V30 6652 H 611.361 0.733388 0.0728803 0
M  V30 6653 H 614.003 1.83068 -0.50853 0
M  V30 6654 H 612.153 3.72932 1.08875 0
M  V30 6655 H 613.825 4.38323 -1.43773 0
M  V30 6656 H 612.068 4.09977 -1.4178 0
M  V30 6657 H 612.739 5.49134 -0.561791 0
M  V30 6658 H 615.215 4.09072 0.761514 0
M  V30 6659 H 614.091 5.29732 1.43788 0
M  V30 6660 H 614.352 3.78269 2.28833 0
M  V30 6661 N 613.412 0.11024 1.57214 0
M  V30 6662 C 614.689 -0.592956 1.86396 0
M  V30 6663 C 615.069 -1.85379 1.00985 0
M  V30 6664 O 614.417 -2.28337 0.0863592 0
M  V30 6665 C 614.627 -0.893816 3.3736 0
M  V30 6666 C 615.975 -1.25069 4.05762 0
M  V30 6667 O 616.999 -0.984356 3.42329 0
M  V30 6668 O 615.858 -1.75017 5.17718 0
M  V30 6669 H 612.952 -0.29828 0.771335 0
M  V30 6670 H 615.498 0.144083 1.69087 0
M  V30 6671 H 614.27 2.6031e-05 3.913 0
M  V30 6672 H 613.893 -1.68631 3.60068 0
M  V30 6673 N 614.89 -1.56749 -0.16351 0
M  V30 6674 C 615.8 -2.00255 -1.2221 0
M  V30 6675 C 616.816 -0.915194 -1.47987 0
M  V30 6676 O 617.992 -1.22342 -1.59982 0
M  V30 6677 C 615.057 -2.36035 -2.53946 0
M  V30 6678 C 614.118 -3.58637 -2.35962 0
M  V30 6679 C 613.351 -3.92701 -3.61416 0
M  V30 6680 O 613.574 -3.27632 -4.66919 0
M  V30 6681 O 612.508 -4.86019 -3.55062 0
M  V30 6682 H 616.334 -2.90586 -0.882794 0
M  V30 6683 H 613.919 -1.44721 -0.370978 0
M  V30 6684 H 615.801 -2.59982 -3.31643 0
M  V30 6685 H 614.476 -1.48863 -2.8744 0
M  V30 6686 H 613.383 -3.39898 -1.5627 0
M  V30 6687 H 614.716 -4.46374 -2.0739 0
M  V30 6688 N 616.368 0.432326 -1.51554 0
M  V30 6689 C 617.779 1.01202 -1.56892 0
M  V30 6690 C 618.13 1.92175 -0.395394 0
M  V30 6691 O 617.255 2.10844 0.487198 0
M  V30 6692 C 617.85 1.84217 -2.8434 0
M  V30 6693 C 616.409 2.37228 -2.92233 0
M  V30 6694 C 615.556 1.16576 -2.51606 0
M  V30 6695 H 618.507 0.213407 -1.57259 0
M  V30 6696 H 618.528 2.69721 -2.68385 0
M  V30 6697 H 618.04 1.17979 -3.69733 0
M  V30 6698 H 616.141 3.06905 -2.11282 0
M  V30 6699 H 616.254 2.69682 -3.95991 0
M  V30 6700 H 614.618 1.51263 -2.04919 0
M  V30 6701 H 615.401 0.519404 -3.39348 0
M  V30 6702 N 617.846 1.41785 0.688094 0
M  V30 6703 C 618.776 1.47 1.8142 0
M  V30 6704 C 619.757 0.327881 1.6691 0
M  V30 6705 O 620.942 0.540362 1.86531 0
M  V30 6706 C 618.072 1.35876 3.19617 0
M  V30 6707 C 617.026 2.47976 3.48844 0
M  V30 6708 C 616.352 2.21915 4.86475 0
M  V30 6709 C 617.652 3.90309 3.47068 0
M  V30 6710 H 619.346 2.41247 1.77314 0
M  V30 6711 H 616.892 1.16116 0.851651 0
M  V30 6712 H 618.845 1.38134 3.98117 0
M  V30 6713 H 617.569 0.38116 3.24368 0
M  V30 6714 H 616.228 2.45013 2.72698 0
M  V30 6715 H 615.876 1.2248 4.8786 0
M  V30 6716 H 615.576 2.97037 5.06994 0
M  V30 6717 H 617.1 2.25901 5.67275 0
M  V30 6718 H 618.514 3.94947 4.1556 0
M  V30 6719 H 616.911 4.65175 3.7912 0
M  V30 6720 H 617.981 4.17927 2.45896 0
M  V30 6721 N 619.324 -0.923095 1.27737 0
M  V30 6722 C 620.274 -2.01061 1.0751 0
M  V30 6723 C 621.258 -1.609 0.00165451 0
M  V30 6724 O 622.45 -1.75618 0.220724 0
M  V30 6725 C 619.579 -3.35467 0.729162 0
M  V30 6726 C 618.665 -3.82059 1.84098 0
M  V30 6727 N 619.056 -4.01115 3.08124 0
M  V30 6728 C 617.354 -4.11135 1.7287 0
M  V30 6729 C 618.055 -4.39989 3.80506 0
M  V30 6730 N 617.031 -4.47721 3.08297 0
M  V30 6731 H 620.833 -2.13832 2.01626 0
M  V30 6732 H 618.347 -1.11027 1.18519 0
M  V30 6733 H 620.344 -4.13049 0.565355 0
M  V30 6734 H 619.004 -3.24056 -0.204334 0
M  V30 6735 H 620.015 -3.87294 3.43836 0
M  V30 6736 H 616.692 -4.08412 0.866352 0
M  V30 6737 H 618.082 -4.62773 4.87125 0
M  V30 6738 N 620.802 -1.09834 -1.13024 0
M  V30 6739 C 622.049 -0.83695 -1.84395 0
M  V30 6740 C 622.377 0.637463 -1.83757 0
M  V30 6741 O 621.632 1.48554 -1.27398 0
M  V30 6742 C 621.931 -1.32263 -3.32026 0
M  V30 6743 C 621.597 -2.80739 -3.52841 0
M  V30 6744 C 620.259 -3.21286 -3.5823 0
M  V30 6745 C 622.611 -3.76449 -3.60466 0
M  V30 6746 C 619.939 -4.56308 -3.68781 0
M  V30 6747 C 622.291 -5.11266 -3.72546 0
M  V30 6748 C 620.955 -5.51397 -3.76189 0
M  V30 6749 H 620.225 -0.306262 -0.674748 0
M  V30 6750 H 622.872 -1.37385 -1.33408 0
M  V30 6751 H 621.177 -0.705618 -3.85394 0
M  V30 6752 H 622.874 -1.09695 -3.85705 0
M  V30 6753 H 619.464 -2.48363 -3.49305 0
M  V30 6754 H 623.648 -3.46234 -3.55578 0
M  V30 6755 H 618.904 -4.86832 -3.69871 0
M  V30 6756 H 623.078 -5.85279 -3.77388 0
M  V30 6757 H 620.705 -6.56017 -3.84117 0
M  V30 6758 N 622.28 1.30327 -0.886154 0
M  V30 6759 C 623.212 2.27079 -0.311072 0
M  V30 6760 C 624.225 1.53758 0.53502 0
M  V30 6761 O 625.414 1.74947 0.354378 0
M  V30 6762 C 622.514 3.33965 0.576228 0
M  V30 6763 C 621.687 4.36735 -0.241064 0
M  V30 6764 C 620.746 5.23028 0.576916 0
M  V30 6765 O 619.772 5.692 -0.000802231 0
M  V30 6766 N 620.974 5.49016 1.88579 0
M  V30 6767 H 623.739 2.77065 -1.14259 0
M  V30 6768 H 621.3 1.43519 -0.749258 0
M  V30 6769 H 623.292 3.88618 1.12953 0
M  V30 6770 H 621.862 2.839 1.30842 0
M  V30 6771 H 621.082 3.81932 -0.975805 0
M  V30 6772 H 622.37 5.02451 -0.801272 0
M  V30 6773 H 621.768 5.13288 2.37806 0
M  V30 6774 H 620.325 6.06539 2.38651 0
M  V30 6775 N 623.758 0.647228 1.43697 0
M  V30 6776 C 625.006 0.157876 2.01482 0
M  V30 6777 C 625.327 -1.23039 1.51282 0
M  V30 6778 O 624.597 -1.82071 0.722982 0
M  V30 6779 H 623.177 0.0553745 0.744945 0
M  V30 6780 H 625.839 0.83755 1.75986 0
M  V30 6781 H 624.935 0.137895 3.11795 0
M  V30 6782 N 625.236 -1.5273 0.388769 0
M  V30 6783 C 626.484 -2.01174 -0.193208 0
M  V30 6784 C 626.805 -1.27705 -1.47365 0
M  V30 6785 O 626.075 -0.396966 -1.91836 0
M  V30 6786 H 624.655 -0.743287 -0.0743871 0
M  V30 6787 H 627.317 -1.87826 0.520336 0
M  V30 6788 H 626.413 -3.09477 -0.403803 0
M  V30 6789 N 626.714 -0.118576 -1.57153 0
M  V30 6790 C 627.644 0.828436 -2.1831 0
M  V30 6791 C 628.625 1.27758 -1.12303 0
M  V30 6792 O 629.81 1.34026 -1.40537 0
M  V30 6793 C 626.94 2.07876 -2.78217 0
M  V30 6794 C 625.894 1.76742 -3.89803 0
M  V30 6795 C 625.22 3.08801 -4.36516 0
M  V30 6796 C 626.52 1.03606 -5.11921 0
M  V30 6797 H 628.214 0.318824 -2.97698 0
M  V30 6798 H 625.76 0.151911 -1.43196 0
M  V30 6799 H 627.713 2.74584 -3.19659 0
M  V30 6800 H 626.437 2.61161 -1.96118 0
M  V30 6801 H 625.096 1.12424 -3.48936 0
M  V30 6802 H 624.744 3.6002 -3.51276 0
M  V30 6803 H 624.444 2.88743 -5.11763 0
M  V30 6804 H 625.968 3.76627 -4.80608 0
M  V30 6805 H 627.382 1.60467 -5.50385 0
M  V30 6806 H 625.779 0.936454 -5.92748 0
M  V30 6807 H 626.849 0.0227421 -4.84895 0
M  V30 6808 N 628.193 1.56834 0.155195 0
M  V30 6809 C 629.421 1.87049 0.884326 0
M  V30 6810 C 629.836 0.705839 1.7511 0
M  V30 6811 O 629.193 -0.324641 1.79589 0
M  V30 6812 C 629.244 3.1644 1.74781 0
M  V30 6813 O 628.965 4.28417 0.915978 0
M  V30 6814 C 630.466 3.60113 2.58522 0
M  V30 6815 H 627.686 0.620196 0.25612 0
M  V30 6816 H 630.23 2.03946 0.150445 0
M  V30 6817 H 628.385 3.01321 2.43484 0
M  V30 6818 H 628.799 5.02353 1.50803 0
M  V30 6819 H 630.273 4.53508 3.14698 0
M  V30 6820 H 630.75 2.85005 3.34169 0
M  V30 6821 H 631.356 3.77898 1.95124 0
M  V30 6822 N 629.671 -0.424282 1.51781 0
M  V30 6823 C 630.618 -1.51591 1.74037 0
M  V30 6824 C 631.588 -1.55556 0.582358 0
M  V30 6825 O 632.773 -1.72364 0.818245 0
M  V30 6826 C 629.913 -2.89188 1.8832 0
M  V30 6827 C 629.026 -2.9465 3.1592 0
M  V30 6828 C 628.161 -4.23452 3.20721 0
M  V30 6829 C 627.2 -4.22831 4.42584 0
M  V30 6830 N 626.337 -5.43178 4.44862 0
M  V30 6831 H 631.177 -1.31917 2.67212 0
M  V30 6832 H 628.714 -0.640599 1.32419 0
M  V30 6833 H 630.672 -3.69044 1.94583 0
M  V30 6834 H 629.302 -3.07392 0.985402 0
M  V30 6835 H 628.354 -2.07378 3.18902 0
M  V30 6836 H 629.666 -2.90055 4.05795 0
M  V30 6837 H 628.82 -5.1169 3.25973 0
M  V30 6838 H 627.559 -4.30722 2.28757 0
M  V30 6839 H 626.564 -3.32984 4.37495 0
M  V30 6840 H 627.789 -4.17213 5.35826 0
M  V30 6841 H 625.735 -5.51145 3.55775 0
M  V30 6842 H 625.652 -5.40515 5.28563 0
M  V30 6843 H 626.92 -6.33412 4.54324 0
M  V30 6844 N 631.149 -1.42148 -0.680565 0
M  V30 6845 C 632.565 -1.24947 -0.992995 0
M  V30 6846 C 632.765 -0.149527 -2.00944 0
M  V30 6847 O 631.821 0.481145 -2.47873 0
M  V30 6848 C 633.134 -2.60426 -1.5033 0
M  V30 6849 C 634.682 -2.67733 -1.62137 0
M  V30 6850 C 635.157 -4.03564 -2.16565 0
M  V30 6851 N 636.648 -4.05488 -2.23905 0
M  V30 6852 C 637.383 -5.07401 -2.67081 0
M  V30 6853 N 636.879 -6.19698 -3.09751 0
M  V30 6854 N 638.672 -4.94758 -2.66778 0
M  V30 6855 H 630.823 -2.12399 -0.0074788 0
M  V30 6856 H 633.086 -0.94571 -0.0658529 0
M  V30 6857 H 632.792 -3.41743 -0.830947 0
M  V30 6858 H 632.666 -2.83949 -2.483 0
M  V30 6859 H 635.053 -1.86765 -2.2848 0
M  V30 6860 H 635.134 -2.48004 -0.626713 0
M  V30 6861 H 634.778 -4.84987 -1.50833 0
M  V30 6862 H 634.708 -4.20641 -3.1681 0
M  V30 6863 H 637.199 -3.24415 -1.93812 0
M  V30 6864 H 637.512 -6.93318 -3.41365 0
M  V30 6865 H 635.857 -6.23212 -3.07623 0
M  V30 6866 H 639.048 -4.06105 -2.32801 0
M  V30 6867 H 639.221 -5.74317 -3.00107 0
M  V30 6868 N 632.627 0.916307 -1.28225 0
M  V30 6869 C 633.852 1.7043 -1.18188 0
M  V30 6870 C 634.277 1.86346 0.256274 0
M  V30 6871 O 633.635 1.37175 1.18544 0
M  V30 6872 C 633.683 3.07546 -1.88275 0
M  V30 6873 O 632.787 3.94904 -1.18848 0
M  V30 6874 H 632.128 0.521967 -0.410423 0
M  V30 6875 H 634.658 1.14589 -1.69501 0
M  V30 6876 H 634.668 3.57793 -1.96082 0
M  V30 6877 H 633.343 2.95279 -2.92887 0
M  V30 6878 H 631.92 3.53339 -1.19187 0
M  V30 6879 N 634.105 1.10431 1.1244 0
M  V30 6880 C 635.335 0.867612 1.87499 0
M  V30 6881 C 635.743 -0.585475 1.79913 0
M  V30 6882 O 635.086 -1.41539 1.171 0
M  V30 6883 C 635.148 1.2374 3.37533 0
M  V30 6884 C 634.812 2.69751 3.68895 0
M  V30 6885 C 635.809 3.67988 3.67261 0
M  V30 6886 C 633.494 3.06135 3.98229 0
M  V30 6887 C 635.488 5.00632 3.9452 0
M  V30 6888 C 633.175 4.38967 4.25149 0
M  V30 6889 C 634.173 5.36025 4.23281 0
M  V30 6890 O 633.861 6.66465 4.49533 0
M  V30 6891 H 633.593 0.311196 0.600111 0
M  V30 6892 H 636.147 1.47257 1.43194 0
M  V30 6893 H 634.377 0.575537 3.82393 0
M  V30 6894 H 636.066 0.978187 3.93937 0
M  V30 6895 H 636.832 3.41224 3.44661 0
M  V30 6896 H 632.711 2.31214 3.98825 0
M  V30 6897 H 636.255 5.7638 3.92978 0
M  V30 6898 H 632.152 4.6547 4.47223 0
M  V30 6899 H 632.92 6.72095 4.67152 0
M  V30 6900 N 635.583 -1.29855 0.893053 0
M  V30 6901 C 636.83 -1.95826 0.515585 0
M  V30 6902 C 637.158 -1.70451 -0.936842 0
M  V30 6903 O 636.413 -1.00657 -1.67829 0
M  V30 6904 C 636.712 -3.49515 0.746588 0
M  V30 6905 C 636.378 -3.94955 2.17535 0
M  V30 6906 C 635.04 -4.07073 2.56603 0
M  V30 6907 C 637.392 -4.18536 3.10607 0
M  V30 6908 C 634.72 -4.40138 3.87938 0
M  V30 6909 C 637.072 -4.53073 4.41484 0
M  V30 6910 C 635.736 -4.634 4.80434 0
M  V30 6911 H 635.006 -0.71658 0.188666 0
M  V30 6912 H 637.653 -1.54574 1.13045 0
M  V30 6913 H 635.958 -3.9177 0.0487551 0
M  V30 6914 H 637.655 -3.98644 0.434009 0
M  V30 6915 H 634.245 -3.86035 1.86212 0
M  V30 6916 H 638.429 -4.08646 2.81641 0
M  V30 6917 H 633.685 -4.46335 4.17846 0
M  V30 6918 H 637.859 -4.70269 5.13634 0
M  V30 6919 H 635.486 -4.88775 5.82239 0
M  V30 6920 N 637.061 -0.65484 -1.43351 0
M  V30 6921 C 638.009 0.0476784 -2.32551 0
M  V30 6922 C 639.003 0.811403 -1.48703 0
M  V30 6923 O 640.209 0.721621 -1.64902 0
M  V30 6924 H 636.584 0.0342038 -0.751222 0
M  V30 6925 H 638.555 -0.722342 -2.89525 0
M  V30 6926 C 637.304 0.999251 -3.33032 0
M  V30 6927 H 636.627 0.421005 -3.97577 0
M  V30 6928 H 638.067 1.45986 -3.98076 0
M  V30 6929 C 636.526 2.09606 -2.63756 0
M  V30 6930 O 637.056 3.18004 -2.4543 0
M  V30 6931 N 635.262 1.86207 -2.23103 0
M  V30 6932 H 634.809 0.980555 -2.38208 0
M  V30 6933 H 634.767 2.59787 -1.77081 0
M  V30 6934 N 638.539 1.52521 -0.396863 0
M  V30 6935 C 639.486 2.26671 0.434624 0
M  V30 6936 C 640.456 1.28584 1.05144 0
M  V30 6937 O 641.641 1.57426 1.07804 0
M  V30 6938 C 638.781 3.08234 1.55196 0
M  V30 6939 C 637.894 4.21261 0.957262 0
M  V30 6940 C 637.029 4.90205 2.04627 0
M  V30 6941 C 636.068 5.95213 1.42787 0
M  V30 6942 N 635.205 6.57723 2.45651 0
M  V30 6943 H 640.045 2.973 -0.204139 0
M  V30 6944 H 637.582 1.46669 -0.112505 0
M  V30 6945 H 639.54 3.53819 2.2106 0
M  V30 6946 H 638.17 2.398 2.16092 0
M  V30 6947 H 637.222 3.79935 0.188005 0
M  V30 6948 H 638.534 4.96624 0.465416 0
M  V30 6949 H 637.688 5.39133 2.78246 0
M  V30 6950 H 636.427 4.14383 2.57174 0
M  V30 6951 H 635.432 5.45616 0.676968 0
M  V30 6952 H 636.657 6.72972 0.910255 0
M  V30 6953 H 634.603 5.84737 2.97353 0
M  V30 6954 H 634.52 7.28723 2.01243 0
M  V30 6955 H 635.788 7.11293 3.18876 0
M  V30 6956 N 640.017 0.126909 1.57088 0
M  V30 6957 C 640.965 -0.837618 2.16995 0
M  V30 6958 C 641.959 -1.26974 1.12133 0
M  V30 6959 O 643.165 -1.24056 1.30423 0
M  V30 6960 H 639.54 -0.288256 0.694559 0
M  V30 6961 H 641.511 -0.307957 2.96807 0
M  V30 6962 C 640.26 -2.07474 2.79016 0
M  V30 6963 H 639.583 -1.75117 3.59408 0
M  V30 6964 H 641.023 -2.72949 3.24461 0
M  V30 6965 C 639.482 -2.86967 1.76498 0
M  V30 6966 O 640.012 -3.82625 1.22316 0
M  V30 6967 N 638.218 -2.51111 1.46258 0
M  V30 6968 H 637.765 -1.73389 1.90509 0
M  V30 6969 H 637.723 -3.04594 0.779085 0
M  V30 6970 N 641.495 -1.56914 -0.146875 0
M  V30 6971 C 642.743 -1.82994 -0.85777 0
M  V30 6972 C 643.064 -0.707814 -1.817 0
M  V30 6973 O 642.334 0.270521 -1.94023 0
M  V30 6974 H 640.914 -0.675106 -0.319751 0
M  V30 6975 H 643.576 -1.9439 -0.140849 0
M  V30 6976 H 642.672 -2.77928 -1.41994 0
M  V30 6977 N 642.974 0.416227 -1.52004 0
M  V30 6978 C 643.924 1.50558 -1.7122 0
M  V30 6979 C 644.908 1.50613 -0.56609 0
M  V30 6980 O 646.1 1.56709 -0.822874 0
M  V30 6981 C 643.229 2.88556 -1.85984 0
M  V30 6982 C 642.315 2.93177 -3.06445 0
M  V30 6983 N 642.706 2.67505 -4.29272 0
M  V30 6984 C 641.004 3.24343 -3.06133 0
M  V30 6985 C 641.705 2.78511 -5.10692 0
M  V30 6986 N 640.681 3.11087 -4.45787 0
M  V30 6987 H 644.483 1.29494 -2.63834 0
M  V30 6988 H 641.997 0.62384 -1.4994 0
M  V30 6989 H 643.994 3.66954 -1.97865 0
M  V30 6990 H 642.654 3.10624 -0.945654 0
M  V30 6991 H 643.665 2.42033 -4.57865 0
M  V30 6992 H 640.342 3.52051 -2.24425 0
M  V30 6993 H 641.732 2.62438 -6.18527 0
M  V30 6994 N 644.452 1.42507 0.673017 0
M  V30 6995 C 645.698 1.43284 1.43519 0
M  V30 6996 C 646.031 0.049668 1.94136 0
M  V30 6997 O 645.306 -0.926369 1.71022 0
M  V30 6998 C 645.589 2.45874 2.63093 0
M  V30 6999 C 645.442 3.93388 2.18096 0
M  V30 7000 C 646.761 2.45431 3.6531 0
M  V30 7001 H 643.88 0.521752 0.520522 0
M  V30 7002 H 646.522 1.73932 0.764701 0
M  V30 7003 H 644.672 2.19869 3.20296 0
M  V30 7004 H 646.344 4.30379 1.66046 0
M  V30 7005 H 644.587 4.07169 1.49652 0
M  V30 7006 H 645.258 4.60752 3.03993 0
M  V30 7007 H 647.734 2.68561 3.17827 0
M  V30 7008 H 646.61 3.19189 4.46553 0
M  V30 7009 H 646.871 1.48092 4.16559 0
M  V30 7010 N 645.93 -0.909495 1.28709 0
M  V30 7011 C 647.158 -1.69272 1.18973 0
M  V30 7012 C 647.573 -1.87123 -0.251048 0
M  V30 7013 O 646.93 -1.40127 -1.16922 0
M  V30 7014 C 646.981 -3.08257 1.88839 0
M  V30 7015 O 646.702 -2.91228 3.27289 0
M  V30 7016 C 648.203 -4.02642 1.85457 0
M  V30 7017 H 645.423 -0.528999 0.412797 0
M  V30 7018 H 647.967 -1.13803 1.69909 0
M  V30 7019 H 646.122 -3.6053 1.41762 0
M  V30 7020 H 646.536 -3.79223 3.6234 0
M  V30 7021 H 648.01 -4.97613 2.38925 0
M  V30 7022 H 648.487 -4.31327 0.827893 0
M  V30 7023 H 649.093 -3.56298 2.32233 0
M  V30 7024 N 647.408 -1.11026 -1.11852 0
M  V30 7025 C 648.657 -0.851249 -1.82857 0
M  V30 7026 C 648.97 0.62514 -1.85341 0
M  V30 7027 O 650.176 1.00026 -2.52403 0
M  V30 7028 C 648.632 -1.47309 -3.28372 0
M  V30 7029 C 648.24 -2.9832 -3.34229 0
M  V30 7030 C 649.984 -1.29373 -4.04306 0
M  V30 7031 C 647.891 -3.53509 -4.74115 0
M  V30 7032 H 646.821 -0.314794 -0.685143 0
M  V30 7033 H 649.472 -1.33499 -1.25898 0
M  V30 7034 H 647.854 -0.917017 -3.85236 0
M  V30 7035 H 649.028 -3.60295 -2.87271 0
M  V30 7036 H 647.343 -3.15482 -2.71772 0
M  V30 7037 H 649.94 -1.68042 -5.07608 0
M  V30 7038 H 650.283 -0.235879 -4.15631 0
M  V30 7039 H 650.816 -1.8182 -3.53817 0
M  V30 7040 H 647.555 -4.58987 -4.67986 0
M  V30 7041 H 647.075 -2.96305 -5.21501 0
M  V30 7042 H 648.754 -3.51693 -5.43066 0
M  V30 7043 N 648.886 1.2938 -0.899927 0
M  V30 7044 C 649.834 2.29675 -0.367698 0
M  V30 7045 C 650.828 1.60787 0.533282 0
M  V30 7046 O 652.034 1.75126 0.416058 0
M  V30 7047 H 648.409 0.745284 -0.100279 0
M  V30 7048 H 650.38 2.72008 -1.22696 0
M  V30 7049 C 649.129 3.45512 0.389483 0
M  V30 7050 H 648.452 3.98713 -0.294575 0
M  V30 7051 H 649.892 4.17725 0.726744 0
M  V30 7052 C 648.351 2.969 1.59223 0
M  V30 7053 O 648.881 2.98195 2.69152 0
M  V30 7054 N 647.087 2.52728 1.43447 0
M  V30 7055 H 646.634 2.51873 0.540148 0
M  V30 7056 H 646.592 2.20561 2.24054 0
M  V30 7057 N 650.364 0.662433 1.43002 0
M  V30 7058 C 651.641 0.109096 1.95296 0
M  V30 7059 C 652.021 -1.37313 1.60338 0
M  V30 7060 O 651.369 -2.1032 0.893187 0
M  V30 7061 C 651.579 0.365096 3.47085 0
M  V30 7062 C 652.927 0.274964 4.23709 0
M  V30 7063 O 653.951 0.29816 3.5495 0
M  V30 7064 O 652.81 0.206549 5.4611 0
M  V30 7065 H 649.904 -0.00429724 0.826989 0
M  V30 7066 H 652.45 0.736308 1.52894 0
M  V30 7067 H 651.222 1.39237 3.65689 0
M  V30 7068 H 650.845 -0.294733 3.96506 0
M  V30 7069 N 651.842 -1.52309 0.404946 0
M  V30 7070 C 652.789 -2.26898 -0.422597 0
M  V30 7071 C 653.759 -1.2914 -1.04461 0
M  V30 7072 O 654.944 -1.57996 -1.06967 0
M  V30 7073 C 652.084 -3.09053 -1.53559 0
M  V30 7074 C 651.197 -4.21762 -0.934908 0
M  V30 7075 C 650.332 -4.91283 -2.02025 0
M  V30 7076 C 649.371 -5.95962 -1.39628 0
M  V30 7077 N 648.508 -6.59017 -2.42159 0
M  V30 7078 H 653.348 -2.97188 0.219903 0
M  V30 7079 H 650.885 -1.46607 0.120282 0
M  V30 7080 H 652.843 -3.54987 -2.19181 0
M  V30 7081 H 651.473 -2.40942 -2.14818 0
M  V30 7082 H 650.525 -3.80029 -0.167854 0
M  V30 7083 H 651.837 -4.96864 -0.439073 0
M  V30 7084 H 650.991 -5.40601 -2.75383 0
M  V30 7085 H 649.73 -4.15741 -2.54973 0
M  V30 7086 H 648.735 -5.45968 -0.648023 0
M  V30 7087 H 649.96 -6.73445 -0.874553 0
M  V30 7088 H 647.906 -5.86306 -2.94247 0
M  V30 7089 H 647.823 -7.2978 -1.97376 0
M  V30 7090 H 649.091 -7.12974 -3.15099 0
M  V30 7091 N 653.32 -0.135238 -1.57019 0
M  V30 7092 C 654.252 0.839675 -2.13265 0
M  V30 7093 C 655.265 1.21887 -1.07923 0
M  V30 7094 O 656.454 1.16499 -1.35241 0
M  V30 7095 C 653.554 2.13647 -2.63075 0
M  V30 7096 C 652.727 1.92646 -3.92691 0
M  V30 7097 C 651.786 3.06205 -4.27931 0
M  V30 7098 O 650.812 2.78409 -4.96465 0
M  V30 7099 N 652.014 4.33072 -3.86561 0
M  V30 7100 H 654.779 0.359026 -2.97542 0
M  V30 7101 H 652.34 0.0486979 -1.61827 0
M  V30 7102 H 654.332 2.88641 -2.8367 0
M  V30 7103 H 652.902 2.5301 -1.83588 0
M  V30 7104 H 652.122 1.01754 -3.80841 0
M  V30 7105 H 653.41 1.75939 -4.77413 0
M  V30 7106 H 652.808 4.58526 -3.31316 0
M  V30 7107 H 651.365 5.04885 -4.12231 0
M  V30 7108 N 654.798 1.5699 0.138552 0
M  V30 7109 C 655.761 1.97984 1.15478 0
M  V30 7110 C 656.761 0.867416 1.35398 0
M  V30 7111 O 657.951 1.13387 1.32246 0
M  V30 7112 C 655.083 2.3031 2.51337 0
M  V30 7113 H 656.276 2.88953 0.802896 0
M  V30 7114 H 653.829 1.51555 0.382189 0
M  V30 7115 H 654.564 1.42159 2.91481 0
M  V30 7116 H 654.349 3.11425 2.38237 0
M  V30 7117 H 655.839 2.62834 3.24512 0
M  V30 7118 N 656.276 -0.40816 1.52223 0
M  V30 7119 C 657.206 -1.5042 1.78595 0
M  V30 7120 C 658.187 -1.57723 0.636974 0
M  V30 7121 O 659.372 -1.72982 0.882664 0
M  V30 7122 C 656.502 -2.88232 1.93751 0
M  V30 7123 C 655.456 -2.95779 3.09352 0
M  V30 7124 C 654.782 -4.35855 3.09732 0
M  V30 7125 C 656.082 -2.67175 4.48793 0
M  V30 7126 H 657.776 -1.28601 2.70374 0
M  V30 7127 H 655.322 -0.617221 1.30101 0
M  V30 7128 H 657.275 -3.64895 2.10783 0
M  V30 7129 H 655.999 -3.11347 0.986443 0
M  V30 7130 H 654.658 -2.21561 2.92072 0
M  V30 7131 H 654.306 -4.55981 2.12346 0
M  V30 7132 H 654.006 -4.41829 3.87377 0
M  V30 7133 H 655.53 -5.14451 3.28895 0
M  V30 7134 H 656.944 -3.3356 4.66273 0
M  V30 7135 H 655.341 -2.84523 5.28362 0
M  V30 7136 H 656.411 -1.62609 4.56822 0
M  V30 7137 N 657.755 -1.42862 -0.66545 0
M  V30 7138 C 658.688 -1.41509 -1.79026 0
M  V30 7139 C 659.666 -0.278106 -1.60204 0
M  V30 7140 O 660.85 -0.469792 -1.82552 0
M  V30 7141 C 657.977 -1.21494 -3.1616 0
M  V30 7142 C 657.023 -2.38308 -3.53711 0
M  V30 7143 S 657.856 -4.00852 -3.55075 0
M  V30 7144 C 659.012 -3.83197 -4.94885 0
M  V30 7145 H 659.245 -2.36691 -1.79902 0
M  V30 7146 H 656.778 -1.29746 -0.836977 0
M  V30 7147 H 658.736 -1.10633 -3.95311 0
M  V30 7148 H 657.397 -0.27881 -3.1286 0
M  V30 7149 H 656.59 -2.20076 -4.53412 0
M  V30 7150 H 656.192 -2.45732 -2.81943 0
M  V30 7151 H 658.484 -3.44765 -5.83218 0
M  V30 7152 H 659.427 -4.82607 -5.18166 0
M  V30 7153 H 659.835 -3.15884 -4.67843 0
M  V30 7154 N 659.233 0.902656 -1.29189 0
M  V30 7155 C 660.183 1.99326 -1.10695 0
M  V30 7156 C 661.167 1.60877 -0.0272521 0
M  V30 7157 O 662.359 1.75245 -0.248635 0
M  V30 7158 C 659.488 3.34265 -0.78244 0
M  V30 7159 C 658.574 3.79081 -1.90153 0
M  V30 7160 N 658.965 3.96162 -3.14466 0
M  V30 7161 C 657.263 4.08333 -1.79389 0
M  V30 7162 C 657.964 4.3388 -3.87458 0
M  V30 7163 N 656.94 4.42759 -3.15381 0
M  V30 7164 H 660.742 2.10597 -2.05003 0
M  V30 7165 H 658.256 1.09127 -1.20271 0
M  V30 7166 H 660.253 4.12097 -0.630996 0
M  V30 7167 H 658.913 3.2434 0.152754 0
M  V30 7168 H 659.924 3.81775 -3.49954 0
M  V30 7169 H 656.601 4.06982 -0.931217 0
M  V30 7170 H 657.991 4.54965 -4.94425 0
M  V30 7171 N 660.711 1.11618 1.11262 0
M  V30 7172 C 661.936 0.889013 1.8738 0
M  V30 7173 C 662.361 -0.555884 1.79698 0
M  V30 7174 O 661.719 -1.39272 1.16073 0
M  V30 7175 C 661.767 1.35759 3.34069 0
M  V30 7176 O 660.871 0.530499 4.08974 0
M  V30 7177 H 660.212 0.320082 0.581759 0
M  V30 7178 H 662.742 1.48611 1.40627 0
M  V30 7179 H 662.752 1.35291 3.84916 0
M  V30 7180 H 661.427 2.40973 3.38976 0
M  V30 7181 H 660.004 0.601439 3.68018 0
M  V30 7182 N 662.189 -1.289 0.906776 0
M  V30 7183 C 663.414 -1.99939 0.551303 0
M  V30 7184 C 663.839 -1.67366 -0.858496 0
M  V30 7185 O 663.197 -0.902176 -1.57259 0
M  V30 7186 C 663.245 -3.52523 0.758937 0
M  V30 7187 O 662.349 -4.11983 -0.185308 0
M  V30 7188 H 661.69 -0.628376 0.214568 0
M  V30 7189 H 664.22 -1.64225 1.2203 0
M  V30 7190 H 664.23 -4.02522 0.666329 0
M  V30 7191 H 662.905 -3.75566 1.78671 0
M  V30 7192 H 661.482 -3.72873 -0.0445577 0
M  V30 7193 N 663.667 -0.670007 -1.42649 0
M  V30 7194 C 664.615 0.0230106 -2.32589 0
M  V30 7195 C 665.609 0.795585 -1.49555 0
M  V30 7196 O 666.815 0.70409 -1.65658 0
M  V30 7197 H 663.19 0.0262342 -0.751542 0
M  V30 7198 H 665.161 -0.753009 -2.88743 0
M  V30 7199 C 663.91 0.963872 -3.34073 0
M  V30 7200 H 663.233 0.378813 -3.98001 0
M  V30 7201 H 664.673 1.41755 -3.99602 0
M  V30 7202 C 663.132 2.06797 -2.65964 0
M  V30 7203 O 663.662 3.15383 -2.48789 0
M  V30 7204 N 661.868 1.83831 -2.25066 0
M  V30 7205 H 661.415 0.955235 -2.39234 0
M  V30 7206 H 661.373 2.57895 -1.79827 0
M  V30 7207 N 665.145 1.52092 -0.413018 0
M  V30 7208 C 666.391 2.02154 0.161737 0
M  V30 7209 C 666.724 1.29789 1.44459 0
M  V30 7210 O 665.999 0.405378 1.90229 0
M  V30 7211 C 666.282 3.5781 0.405463 0
M  V30 7212 C 666.135 4.40819 -0.894335 0
M  V30 7213 C 667.454 4.23821 1.18591 0
M  V30 7214 H 664.573 0.734769 0.0573077 0
M  V30 7215 H 667.215 1.81948 -0.547247 0
M  V30 7216 H 665.365 3.75158 1.0094 0
M  V30 7217 H 667.037 4.35175 -1.53039 0
M  V30 7218 H 665.28 4.06877 -1.50444 0
M  V30 7219 H 665.951 5.47819 -0.678144 0
M  V30 7220 H 668.427 4.10596 0.674573 0
M  V30 7221 H 667.303 5.32663 1.3252 0
M  V30 7222 H 667.564 3.83038 2.20758 0
M  V30 7223 N 666.623 0.143563 1.56945 0
M  V30 7224 C 667.853 -0.514699 2.00086 0
M  V30 7225 C 668.261 -1.59184 1.0226 0
M  V30 7226 O 667.604 -1.83697 0.0110514 0
M  V30 7227 C 667.666 -1.17778 3.39659 0
M  V30 7228 C 667.33 -0.245657 4.56339 0
M  V30 7229 C 668.327 0.525343 5.17239 0
M  V30 7230 C 666.012 -0.149564 5.02077 0
M  V30 7231 C 668.006 1.37992 6.22284 0
M  V30 7232 C 665.693 0.708621 6.06978 0
M  V30 7233 C 666.691 1.47197 6.6695 0
M  V30 7234 O 666.379 2.31586 7.6982 0
M  V30 7235 H 666.111 -0.138789 0.661599 0
M  V30 7236 H 668.665 0.234098 2.04062 0
M  V30 7237 H 666.895 -1.97415 3.32512 0
M  V30 7238 H 668.584 -1.73542 3.6693 0
M  V30 7239 H 669.35 0.461118 4.82803 0
M  V30 7240 H 665.229 -0.733457 4.55128 0
M  V30 7241 H 668.773 1.97621 6.69023 0
M  V30 7242 H 664.67 0.77415 6.40841 0
M  V30 7243 H 665.438 2.24796 7.87025 0
M  V30 7244 N 668.101 -1.57061 -0.130224 0
M  V30 7245 C 669.034 -1.94698 -1.19029 0
M  V30 7246 C 670.012 -0.815074 -1.40696 0
M  V30 7247 O 671.196 -1.07223 -1.55034 0
M  V30 7248 C 668.323 -2.23352 -2.5462 0
M  V30 7249 C 667.369 -3.45945 -2.49448 0
M  V30 7250 S 668.202 -4.98927 -1.94505 0
M  V30 7251 C 669.358 -5.30721 -3.31792 0
M  V30 7252 H 669.591 -2.84308 -0.869272 0
M  V30 7253 H 667.124 -1.50688 -0.336531 0
M  V30 7254 H 669.082 -2.40539 -3.32643 0
M  V30 7255 H 667.743 -1.34376 -2.83905 0
M  V30 7256 H 666.936 -3.63324 -3.49302 0
M  V30 7257 H 666.538 -3.28086 -1.79543 0
M  V30 7258 H 668.83 -5.25215 -4.27966 0
M  V30 7259 H 669.773 -6.32048 -3.19251 0
M  V30 7260 H 670.181 -4.5821 -3.29703 0
M  V30 7261 N 669.579 0.400081 -1.52437 0
M  V30 7262 C 670.826 1.14619 -1.6694 0
M  V30 7263 C 671.154 1.90262 -0.403797 0
M  V30 7264 O 670.409 1.85835 0.61351 0
M  V30 7265 C 670.708 2.15914 -2.84808 0
M  V30 7266 C 670.374 1.57011 -4.2268 0
M  V30 7267 C 669.036 1.40672 -4.60179 0
M  V30 7268 C 671.388 1.14081 -5.08562 0
M  V30 7269 C 668.716 0.799335 -5.81229 0
M  V30 7270 C 671.068 0.547573 -6.30226 0
M  V30 7271 C 669.732 0.371389 -6.66466 0
M  V30 7272 H 669.002 0.419419 -0.610875 0
M  V30 7273 H 671.649 0.432227 -1.86558 0
M  V30 7274 H 669.954 2.93488 -2.59561 0
M  V30 7275 H 671.651 2.73533 -2.93225 0
M  V30 7276 H 668.241 1.70713 -3.93135 0
M  V30 7277 H 672.425 1.2551 -4.80168 0
M  V30 7278 H 667.681 0.65093 -6.07925 0
M  V30 7279 H 671.855 0.206575 -6.96094 0
M  V30 7280 H 669.482 -0.10135 -7.60132 0
M  V30 7281 N 671.057 1.43213 0.657864 0
M  V30 7282 C 672.004 1.48011 1.77092 0
M  V30 7283 C 672.974 0.330291 1.62783 0
M  V30 7284 O 674.159 0.536787 1.83094 0
M  V30 7285 C 671.299 1.40461 3.15222 0
M  V30 7286 C 670.412 2.65612 3.40697 0
M  V30 7287 C 669.547 2.50083 4.68649 0
M  V30 7288 C 668.586 3.70525 4.87214 0
M  V30 7289 N 667.723 3.53835 6.0642 0
M  V30 7290 H 672.563 2.43121 1.72326 0
M  V30 7291 H 670.1 1.20687 0.841013 0
M  V30 7292 H 672.058 1.34079 3.95068 0
M  V30 7293 H 670.688 0.489359 3.19069 0
M  V30 7294 H 669.74 2.82292 2.54982 0
M  V30 7295 H 671.052 3.5509 3.50303 0
M  V30 7296 H 670.206 2.41383 5.56614 0
M  V30 7297 H 668.945 1.58121 4.61356 0
M  V30 7298 H 667.95 3.79639 3.97686 0
M  V30 7299 H 669.175 4.63489 4.96341 0
M  V30 7300 H 667.121 2.64604 6.00267 0
M  V30 7301 H 667.038 4.36912 6.16963 0
M  V30 7302 H 668.306 3.48978 6.97019 0
M  V30 7303 N 672.536 -0.895792 1.29666 0
M  V30 7304 C 673.764 -1.68001 1.20761 0
M  V30 7305 C 674.179 -1.87379 -0.231187 0
M  V30 7306 O 673.536 -1.41359 -1.15429 0
M  V30 7307 C 673.587 -3.06236 1.92098 0
M  V30 7308 O 673.308 -2.8774 3.30359 0
M  V30 7309 C 674.809 -4.00652 1.89717 0
M  V30 7310 H 672.029 -0.524591 0.418384 0
M  V30 7311 H 674.573 -1.11995 1.71106 0
M  V30 7312 H 672.728 -3.59007 1.45578 0
M  V30 7313 H 673.142 -3.75359 3.66342 0
M  V30 7314 H 674.616 -4.95051 2.44189 0
M  V30 7315 H 675.093 -4.30424 0.873595 0
M  V30 7316 H 675.699 -3.53815 2.35998 0
M  V30 7317 N 674.014 -1.12206 -1.10668 0
M  V30 7318 C 674.977 -0.790867 -2.15123 0
M  V30 7319 C 675.977 0.193618 -1.5963 0
M  V30 7320 O 677.167 -0.0318728 -1.74171 0
M  V30 7321 C 674.299 -0.174797 -3.40452 0
M  V30 7322 H 675.492 -1.7163 -2.45933 0
M  V30 7323 H 673.045 -0.924993 -1.2599 0
M  V30 7324 H 673.78 0.760478 -3.15257 0
M  V30 7325 H 673.565 -0.88358 -3.82015 0
M  V30 7326 H 675.055 0.0405162 -4.1758 0
M  V30 7327 N 675.492 1.28418 -0.913599 0
M  V30 7328 C 676.422 2.29713 -0.418847 0
M  V30 7329 C 677.403 1.62165 0.513469 0
M  V30 7330 O 678.588 1.89576 0.421235 0
M  V30 7331 C 675.718 3.45612 0.342042 0
M  V30 7332 C 674.672 4.25056 -0.501123 0
M  V30 7333 C 673.998 5.3329 0.388097 0
M  V30 7334 C 675.298 4.91814 -1.75831 0
M  V30 7335 H 676.992 2.71346 -1.26538 0
M  V30 7336 H 674.538 1.30446 -0.609903 0
M  V30 7337 H 676.491 4.15562 0.699 0
M  V30 7338 H 675.215 3.02858 1.22248 0
M  V30 7339 H 673.874 3.56833 -0.840598 0
M  V30 7340 H 673.522 4.8678 1.26707 0
M  V30 7341 H 673.222 5.87347 -0.172459 0
M  V30 7342 H 674.746 6.06088 0.74094 0
M  V30 7343 H 676.16 5.54126 -1.47026 0
M  V30 7344 H 674.557 5.55866 -2.26126 0
M  V30 7345 H 675.627 4.16313 -2.4862 0
M  V30 7346 N 676.97 0.677563 1.42291 0
M  V30 7347 C 677.917 0.000947061 2.308 0
M  V30 7348 C 678.887 -0.789889 1.46116 0
M  V30 7349 O 680.072 -0.761578 1.74942 0
M  V30 7350 C 677.212 -0.942387 3.31984 0
M  V30 7351 C 676.325 -0.14508 4.31756 0
M  V30 7352 C 675.46 -1.08442 5.20013 0
M  V30 7353 C 674.499 -0.278958 6.11464 0
M  V30 7354 N 673.636 -1.17115 6.92263 0
M  V30 7355 H 678.476 0.761521 2.88106 0
M  V30 7356 H 676.013 0.38727 1.41911 0
M  V30 7357 H 677.971 -1.50317 3.89179 0
M  V30 7358 H 676.601 -1.66956 2.76271 0
M  V30 7359 H 675.653 0.532368 3.76656 0
M  V30 7360 H 676.965 0.48015 4.96484 0
M  V30 7361 H 676.119 -1.71504 5.81955 0
M  V30 7362 H 674.858 -1.74353 4.55469 0
M  V30 7363 H 673.863 0.364856 5.48588 0
M  V30 7364 H 675.088 0.376099 6.78058 0
M  V30 7365 H 673.034 -1.81661 6.30345 0
M  V30 7366 H 672.951 -0.601063 7.53607 0
M  V30 7367 H 674.219 -1.78915 7.58689 0
M  V30 7368 N 678.448 -1.51871 0.421078 0
M  V30 7369 C 679.378 -2.30231 -0.389363 0
M  V30 7370 C 680.359 -1.34946 -1.03555 0
M  V30 7371 O 681.544 -1.63859 -1.04229 0
M  V30 7372 C 678.674 -3.13247 -1.49979 0
M  V30 7373 C 677.628 -4.16677 -0.977966 0
M  V30 7374 C 676.954 -4.88112 -2.1829 0
M  V30 7375 C 678.254 -5.22295 -0.0236775 0
M  V30 7376 H 679.948 -2.98229 0.264524 0
M  V30 7377 H 677.494 -1.43424 0.12866 0
M  V30 7378 H 679.447 -3.66838 -2.07383 0
M  V30 7379 H 678.171 -2.4304 -2.18173 0
M  V30 7380 H 676.83 -3.64114 -0.426245 0
M  V30 7381 H 676.478 -4.14423 -2.85066 0
M  V30 7382 H 676.178 -5.58041 -1.84021 0
M  V30 7383 H 677.702 -5.44521 -2.76278 0
M  V30 7384 H 679.116 -5.71055 -0.506899 0
M  V30 7385 H 677.513 -5.99656 0.230782 0
M  V30 7386 H 678.583 -4.76131 0.917999 0
M  V30 7387 N 679.926 -0.151884 -1.56866 0
M  V30 7388 C 680.889 0.771861 -2.15812 0
M  V30 7389 C 681.889 1.17181 -1.10115 0
M  V30 7390 O 683.079 1.09194 -1.35729 0
M  V30 7391 C 680.211 2.04806 -2.7252 0
M  V30 7392 H 681.404 0.259021 -2.98779 0
M  V30 7393 H 678.957 0.097588 -1.55995 0
M  V30 7394 H 679.692 2.60445 -1.93233 0
M  V30 7395 H 679.477 1.77044 -3.49854 0
M  V30 7396 H 680.967 2.70771 -3.1792 0
M  V30 7397 N 681.404 1.57128 0.121893 0
M  V30 7398 C 682.652 1.84335 0.828548 0
M  V30 7399 C 682.973 0.736632 1.80551 0
M  V30 7400 O 682.243 -0.23962 1.94429 0
M  V30 7401 H 680.823 0.680108 0.30897 0
M  V30 7402 H 683.485 1.9459 0.109906 0
M  V30 7403 H 682.581 2.80152 1.37554 0
M  V30 7404 N 682.882 -0.391992 1.52647 0
M  V30 7405 C 684.159 -1.15136 1.58123 0
M  V30 7406 C 684.539 -2.07786 0.372597 0
M  V30 7407 O 683.887 -2.19374 -0.639304 0
M  V30 7408 C 684.097 -1.91367 2.91856 0
M  V30 7409 C 685.445 -2.46833 3.45483 0
M  V30 7410 O 686.469 -2.01527 2.9371 0
M  V30 7411 O 685.328 -3.29587 4.3593 0
M  V30 7412 H 682.422 -0.526649 0.637629 0
M  V30 7413 H 684.968 -0.397386 1.64982 0
M  V30 7414 H 683.74 -1.23597 3.71268 0
M  V30 7415 H 683.363 -2.73732 2.88369 0
M  V30 7416 N 684.36 -1.4356 -0.65026 0
M  V30 7417 C 685.771 -1.40324 -1.2315 0
M  V30 7418 C 686.122 -0.108812 -1.95898 0
M  V30 7419 O 685.247 0.79163 -2.01401 0
M  V30 7420 C 685.842 -2.54195 -2.23987 0
M  V30 7421 C 684.401 -2.54215 -2.77582 0
M  V30 7422 C 683.548 -2.31752 -1.5227 0
M  V30 7423 H 686.499 -1.52418 -0.442095 0
M  V30 7424 H 686.52 -2.25854 -3.0622 0
M  V30 7425 H 686.032 -3.48392 -1.71011 0
M  V30 7426 H 684.133 -1.63907 -3.34612 0
M  V30 7427 H 684.246 -3.52081 -3.24925 0
M  V30 7428 H 682.61 -1.80476 -1.79723 0
M  V30 7429 H 683.393 -3.28037 -1.01225 0
M  V30 7430 N 685.838 0.888903 -1.30139 0
M  V30 7431 C 687.068 1.67115 -1.21474 0
M  V30 7432 C 687.476 1.87852 0.225472 0
M  V30 7433 O 686.819 1.42324 1.16145 0
M  V30 7434 C 686.881 3.0713 -1.86846 0
M  V30 7435 C 686.545 3.09582 -3.36167 0
M  V30 7436 C 687.542 2.88929 -4.32222 0
M  V30 7437 C 685.227 3.31304 -3.77549 0
M  V30 7438 C 687.221 2.89949 -5.67634 0
M  V30 7439 C 684.908 3.31954 -5.13079 0
M  V30 7440 C 685.906 3.113 -6.07932 0
M  V30 7441 O 685.594 3.11758 -7.40987 0
M  V30 7442 H 685.326 0.528372 -0.421662 0
M  V30 7443 H 687.88 1.11919 -1.7223 0
M  V30 7444 H 686.11 3.63973 -1.30615 0
M  V30 7445 H 687.799 3.6749 -1.72354 0
M  V30 7446 H 688.565 2.71948 -4.01584 0
M  V30 7447 H 684.444 3.46417 -3.04165 0
M  V30 7448 H 687.988 2.73746 -6.41645 0
M  V30 7449 H 683.885 3.48469 -5.43359 0
M  V30 7450 H 684.653 3.27951 -7.49927 0
M  V30 7451 N 687.317 1.12792 1.10072 0
M  V30 7452 C 688.547 0.907189 1.85617 0
M  V30 7453 C 688.955 -0.547181 1.81115 0
M  V30 7454 O 688.298 -1.39024 1.20075 0
M  V30 7455 C 688.36 1.30872 3.34832 0
M  V30 7456 C 688.024 2.77516 3.6309 0
M  V30 7457 C 689.021 3.75696 3.59373 0
M  V30 7458 C 686.706 3.14513 3.91646 0
M  V30 7459 C 688.7 5.08888 3.83812 0
M  V30 7460 C 686.387 4.47886 4.15742 0
M  V30 7461 C 687.385 5.44882 4.11816 0
M  V30 7462 O 687.073 6.7585 4.35295 0
M  V30 7463 H 686.805 0.323855 0.593375 0
M  V30 7464 H 689.359 1.50262 1.40038 0
M  V30 7465 H 687.589 0.656518 3.81086 0
M  V30 7466 H 689.278 1.06153 3.91773 0
M  V30 7467 H 690.044 3.48458 3.37345 0
M  V30 7468 H 685.923 2.39622 3.93831 0
M  V30 7469 H 689.467 5.84586 3.80663 0
M  V30 7470 H 685.364 4.74851 4.37249 0
M  V30 7471 H 686.132 6.81853 4.52791 0
M  V30 7472 N 688.795 -1.27931 0.920396 0
M  V30 7473 C 690.02 -1.99343 0.572478 0
M  V30 7474 C 690.445 -1.68267 -0.840696 0
M  V30 7475 O 689.803 -0.918805 -1.56294 0
M  V30 7476 C 689.851 -3.51698 0.796284 0
M  V30 7477 O 688.955 -4.12157 -0.141602 0
M  V30 7478 H 688.296 -0.626065 0.221221 0
M  V30 7479 H 690.826 -1.62921 1.23765 0
M  V30 7480 H 690.836 -4.01793 0.708984 0
M  V30 7481 H 689.511 -3.73649 1.82644 0
M  V30 7482 H 688.088 -3.729 -0.005007 0
M  V30 7483 N 690.273 -0.685099 -1.4193 0
M  V30 7484 C 691.521 -0.21124 -2.00993 0
M  V30 7485 C 691.842 1.18985 -1.54491 0
M  V30 7486 O 691.112 1.8009 -0.771 0
M  V30 7487 H 689.692 -0.0751059 -0.743215 0
M  V30 7488 H 692.354 -0.883915 -1.73704 0
M  V30 7489 H 691.45 -0.220513 -3.1132 0
M  V30 7490 N 691.751 1.51645 -0.429126 0
M  V30 7491 C 692.684 2.24083 0.431492 0
M  V30 7492 C 693.662 1.25691 1.03153 0
M  V30 7493 O 694.846 1.54802 1.07557 0
M  V30 7494 C 691.973 2.9849 1.60067 0
M  V30 7495 C 691.019 4.11474 1.12211 0
M  V30 7496 S 691.852 5.35453 0.0708449 0
M  V30 7497 C 693.008 6.13395 1.24488 0
M  V30 7498 H 693.241 2.96733 -0.183525 0
M  V30 7499 H 690.774 1.52916 -0.213574 0
M  V30 7500 H 692.732 3.4196 2.27099 0
M  V30 7501 H 691.393 2.25445 2.18708 0
M  V30 7502 H 690.586 4.62784 1.99618 0
M  V30 7503 H 690.188 3.70223 0.530149 0
M  V30 7504 H 692.48 6.41984 2.16479 0
M  V30 7505 H 693.423 7.0388 0.771921 0
M  V30 7506 H 693.831 5.44761 1.47973 0
M  V30 7507 N 693.229 0.160201 1.56784 0
M  V30 7508 C 694.192 -0.760405 2.16219 0
M  V30 7509 C 695.192 -1.16595 1.10735 0
M  V30 7510 O 696.382 -1.08472 1.36306 0
M  V30 7511 C 693.514 -2.03358 2.73603 0
M  V30 7512 H 694.707 -0.243173 2.98912 0
M  V30 7513 H 692.26 -0.0893139 1.56045 0
M  V30 7514 H 692.995 -2.59416 1.94612 0
M  V30 7515 H 692.78 -1.75186 3.50788 0
M  V30 7516 H 694.27 -2.69081 3.19351 0
M  V30 7517 N 694.707 -1.5719 -0.113559 0
M  V30 7518 C 695.637 -2.03772 -1.14013 0
M  V30 7519 C 696.618 -0.923176 -1.42869 0
M  V30 7520 O 697.803 -1.19325 -1.53216 0
M  V30 7521 C 694.933 -2.44663 -2.4649 0
M  V30 7522 C 693.887 -3.59612 -2.32085 0
M  V30 7523 C 693.213 -3.8642 -3.69573 0
M  V30 7524 C 694.513 -4.91149 -1.7768 0
M  V30 7525 H 696.207 -2.89785 -0.752665 0
M  V30 7526 H 693.753 -1.39412 -0.360609 0
M  V30 7527 H 695.706 -2.75857 -3.18561 0
M  V30 7528 H 694.43 -1.55628 -2.87137 0
M  V30 7529 H 693.089 -3.28636 -1.62461 0
M  V30 7530 H 692.737 -2.94581 -4.07715 0
M  V30 7531 H 692.437 -4.63797 -3.60786 0
M  V30 7532 H 693.961 -4.2007 -4.4314 0
M  V30 7533 H 695.375 -5.20843 -2.39574 0
M  V30 7534 H 693.772 -5.72562 -1.79701 0
M  V30 7535 H 694.842 -4.79301 -0.734776 0
M  V30 7536 N 696.185 0.383891 -1.52853 0
M  V30 7537 C 697.596 0.961591 -1.60032 0
M  V30 7538 C 697.947 1.90819 -0.456333 0
M  V30 7539 O 697.072 2.12288 0.419873 0
M  V30 7540 C 697.667 1.75078 -2.90057 0
M  V30 7541 C 696.226 2.2781 -2.99632 0
M  V30 7542 C 695.373 1.08512 -2.55187 0
M  V30 7543 H 698.324 0.163269 -1.57858 0
M  V30 7544 H 698.345 2.61046 -2.7683 0
M  V30 7545 H 697.857 1.06157 -3.73299 0
M  V30 7546 H 695.958 3.00028 -2.20939 0
M  V30 7547 H 696.071 2.56947 -4.0437 0
M  V30 7548 H 694.435 1.44667 -2.09627 0
M  V30 7549 H 695.218 0.41118 -3.40829 0
M  V30 7550 N 697.663 1.43903 0.642637 0
M  V30 7551 C 698.888 1.49758 1.43483 0
M  V30 7552 C 699.313 0.119911 1.87717 0
M  V30 7553 O 698.671 -0.888558 1.58033 0
M  V30 7554 C 698.719 2.45744 2.63898 0
M  V30 7555 O 697.823 1.95101 3.63331 0
M  V30 7556 H 697.164 0.506138 0.429791 0
M  V30 7557 H 699.694 1.88923 0.785438 0
M  V30 7558 H 699.704 2.63399 3.11584 0
M  V30 7559 H 698.379 3.45818 2.31046 0
M  V30 7560 H 696.956 1.87158 3.22531 0
M  V30 7561 N 699.141 -0.881989 1.30609 0
M  V30 7562 C 700.418 -1.61563 1.10258 0
M  V30 7563 C 700.798 -2.08228 -0.347053 0
M  V30 7564 O 700.146 -1.85151 -1.33908 0
M  V30 7565 C 700.356 -2.78287 2.10612 0
M  V30 7566 C 701.704 -3.48545 2.4249 0
M  V30 7567 O 702.728 -2.88479 2.08945 0
M  V30 7568 O 701.587 -4.56873 2.99883 0
M  V30 7569 H 698.681 -0.710238 0.423663 0
M  V30 7570 H 701.227 -0.928503 1.42045 0
M  V30 7571 H 699.999 -2.41131 3.08174 0
M  V30 7572 H 699.622 -3.54695 1.79659 0
M  V30 7573 N 700.619 -1.13374 -1.09472 0
M  V30 7574 C 701.868 -0.889844 -1.8101 0
M  V30 7575 C 702.181 0.585686 -1.86625 0
M  V30 7576 O 703.387 0.946497 -2.54467 0
M  V30 7577 C 701.843 -1.54241 -3.25174 0
M  V30 7578 C 701.451 -3.05343 -3.27826 0
M  V30 7579 C 703.195 -1.37919 -4.0147 0
M  V30 7580 C 701.102 -3.63486 -4.6651 0
M  V30 7581 H 700.032 -0.329256 -0.678311 0
M  V30 7582 H 702.683 -1.36139 -1.23038 0
M  V30 7583 H 701.065 -0.998525 -3.83204 0
M  V30 7584 H 702.239 -3.66307 -2.79563 0
M  V30 7585 H 700.554 -3.21175 -2.65019 0
M  V30 7586 H 703.151 -1.78771 -5.03929 0
M  V30 7587 H 703.494 -0.323987 -4.15037 0
M  V30 7588 H 704.027 -1.89284 -3.49881 0
M  V30 7589 H 700.766 -4.68811 -4.58145 0
M  V30 7590 H 700.286 -3.073 -5.15099 0
M  V30 7591 H 701.965 -3.63134 -5.35484 0
M  V30 7592 N 702.098 1.27442 -0.927168 0
M  V30 7593 C 703.323 1.99036 -0.583042 0
M  V30 7594 C 703.748 1.68711 0.83176 0
M  V30 7595 O 703.106 0.927081 1.55804 0
M  V30 7596 C 703.154 3.51271 -0.814925 0
M  V30 7597 O 702.258 4.12226 0.119742 0
M  V30 7598 H 701.599 0.624883 -0.224538 0
M  V30 7599 H 704.129 1.62263 -1.24628 0
M  V30 7600 H 704.139 4.01411 -0.730282 0
M  V30 7601 H 702.814 3.72676 -1.84623 0
M  V30 7602 H 701.391 3.72897 -0.0147688 0
M  V30 7603 N 703.576 0.692616 1.41565 0
M  V30 7604 C 704.801 0.229776 2.06123 0
M  V30 7605 C 705.226 -1.11119 1.5177 0
M  V30 7606 O 704.584 -1.69498 0.643444 0
M  V30 7607 C 704.632 0.19469 3.60074 0
M  V30 7608 O 703.736 -0.831366 4.03933 0
M  V30 7609 H 703.077 0.113002 0.654314 0
M  V30 7610 H 705.607 0.946645 1.81383 0
M  V30 7611 H 705.617 0.0245487 4.07993 0
M  V30 7612 H 704.292 1.17339 3.99004 0
M  V30 7613 H 702.869 -0.630819 3.67526 0
M  V30 7614 N 705.054 -1.51416 0.437162 0
M  V30 7615 C 706.465 -1.86682 -0.0260005 0
M  V30 7616 C 706.816 -1.35432 -1.4196 0
M  V30 7617 O 705.941 -0.705055 -2.04592 0
M  V30 7618 C 706.536 -3.38757 -0.0539577 0
M  V30 7619 C 705.095 -3.7356 -0.461532 0
M  V30 7620 C 704.242 -2.75134 0.345924 0
M  V30 7621 H 707.193 -1.44642 0.653013 0
M  V30 7622 H 707.214 -3.70573 -0.863478 0
M  V30 7623 H 706.726 -3.76028 0.96045 0
M  V30 7624 H 704.827 -3.41878 -1.48155 0
M  V30 7625 H 704.94 -4.78737 -0.186451 0
M  V30 7626 H 703.304 -2.53947 -0.195739 0
M  V30 7627 H 704.087 -3.15247 1.35921 0
M  V30 7628 N 706.532 -0.168513 -1.56696 0
M  V30 7629 C 707.495 0.748928 -2.16619 0
M  V30 7630 C 708.495 1.16007 -1.11351 0
M  V30 7631 O 709.685 1.07748 -1.3688 0
M  V30 7632 C 706.817 2.01904 -2.74677 0
M  V30 7633 H 708.01 0.227317 -2.99037 0
M  V30 7634 H 705.563 0.0810372 -1.5609 0
M  V30 7635 H 706.298 2.58381 -1.95985 0
M  V30 7636 H 706.083 1.73323 -3.51712 0
M  V30 7637 H 707.573 2.67383 -3.20774 0
M  V30 7638 N 708.01 1.57248 0.105221 0
M  V30 7639 C 708.942 1.98008 1.15436 0
M  V30 7640 C 709.955 0.881236 1.36887 0
M  V30 7641 O 711.144 1.15943 1.35718 0
M  V30 7642 C 708.244 2.27509 2.51183 0
M  V30 7643 C 707.417 3.58811 2.50147 0
M  V30 7644 C 706.476 3.76365 3.67745 0
M  V30 7645 O 705.502 4.48329 3.50699 0
M  V30 7646 N 706.704 3.16174 4.86841 0
M  V30 7647 H 709.469 2.88616 0.807519 0
M  V30 7648 H 707.03 1.59202 0.29433 0
M  V30 7649 H 709.022 2.36455 3.28438 0
M  V30 7650 H 707.592 1.42959 2.77995 0
M  V30 7651 H 706.812 3.60927 1.5851 0
M  V30 7652 H 708.1 4.45088 2.46524 0
M  V30 7653 H 707.498 2.57701 5.03594 0
M  V30 7654 H 706.055 3.30621 5.61723 0
M  V30 7655 N 709.488 -0.375779 1.53054 0
M  V30 7656 C 710.435 -1.45978 1.78771 0
M  V30 7657 C 711.405 -1.53625 0.631552 0
M  V30 7658 O 712.59 -1.69674 0.872667 0
M  V30 7659 C 709.73 -2.8305 1.97425 0
M  V30 7660 C 708.843 -2.84451 3.25134 0
M  V30 7661 C 707.978 -4.13034 3.34031 0
M  V30 7662 C 707.017 -4.08536 4.55812 0
M  V30 7663 N 706.154 -5.2875 4.61918 0
M  V30 7664 H 710.994 -1.23349 2.71273 0
M  V30 7665 H 708.531 -0.598147 1.3439 0
M  V30 7666 H 710.489 -3.62666 2.06225 0
M  V30 7667 H 709.119 -3.04101 1.0827 0
M  V30 7668 H 708.171 -1.97127 3.25338 0
M  V30 7669 H 709.483 -2.76998 4.14818 0
M  V30 7670 H 708.637 -5.0106 3.42087 0
M  V30 7671 H 707.376 -4.23226 2.42345 0
M  V30 7672 H 706.381 -3.18897 4.47867 0
M  V30 7673 H 707.606 -3.99955 5.48828 0
M  V30 7674 H 705.552 -5.39547 3.73129 0
M  V30 7675 H 705.469 -5.23426 5.45492 0
M  V30 7676 H 706.737 -6.18637 4.74245 0
M  V30 7677 N 710.966 -1.44241 -0.634997 0
M  V30 7678 C 711.896 -1.53632 -1.7584 0
M  V30 7679 C 712.877 -0.389603 -1.65578 0
M  V30 7680 O 714.062 -0.609219 -1.84397 0
M  V30 7681 C 711.192 -1.47644 -3.14354 0
M  V30 7682 C 710.146 -2.60752 -3.394 0
M  V30 7683 C 709.472 -2.39817 -4.77904 0
M  V30 7684 C 710.772 -4.02921 -3.32343 0
M  V30 7685 H 712.466 -2.47662 -1.68238 0
M  V30 7686 H 710.012 -1.19197 -0.807969 0
M  V30 7687 H 711.965 -1.52815 -3.92716 0
M  V30 7688 H 710.689 -0.501284 -3.2273 0
M  V30 7689 H 709.348 -2.54965 -2.63417 0
M  V30 7690 H 708.996 -1.40502 -4.82978 0
M  V30 7691 H 708.696 -3.15649 -4.9562 0
M  V30 7692 H 710.22 -2.46799 -5.585 0
M  V30 7693 H 711.634 -4.10098 -4.00615 0
M  V30 7694 H 710.031 -4.78925 -3.61595 0
M  V30 7695 H 711.101 -4.26766 -2.30215 0
M  V30 7696 N 712.444 0.87505 -1.31075 0
M  V30 7697 C 713.86 1.15997 -1.09622 0
M  V30 7698 C 714.06 2.01036 0.136611 0
M  V30 7699 O 713.116 2.38559 0.827397 0
M  V30 7700 C 714.429 1.85702 -2.36506 0
M  V30 7701 C 715.977 1.98425 -2.42067 0
M  V30 7702 C 716.452 2.71544 -3.68819 0
M  V30 7703 N 717.943 2.79084 -3.69684 0
M  V30 7704 C 718.678 3.36259 -4.64454 0
M  V30 7705 N 718.174 3.94406 -5.69575 0
M  V30 7706 N 719.967 3.34169 -4.51982 0
M  V30 7707 H 712.118 0.308258 -2.10151 0
M  V30 7708 H 714.381 0.199145 -0.926847 0
M  V30 7709 H 714.087 1.30663 -3.26527 0
M  V30 7710 H 713.961 2.86017 -2.45915 0
M  V30 7711 H 716.348 2.5263 -1.52518 0
M  V30 7712 H 716.429 0.971682 -2.36626 0
M  V30 7713 H 716.073 2.18008 -4.58732 0
M  V30 7714 H 716.003 3.73198 -3.71525 0
M  V30 7715 H 718.494 2.3781 -2.93691 0
M  V30 7716 H 718.807 4.36129 -6.37974 0
M  V30 7717 H 717.152 3.92797 -5.73355 0
M  V30 7718 H 720.343 2.87977 -3.69035 0
M  V30 7719 H 720.516 3.78431 -5.26017 0
M  V30 7720 N 713.922 1.13953 1.08869 0
M  V30 7721 C 715.338 0.878924 1.33218 0
M  V30 7722 C 715.538 -0.482478 1.95638 0
M  V30 7723 O 714.594 -1.22778 2.2064 0
M  V30 7724 C 715.907 2.00798 2.23832 0
M  V30 7725 C 717.455 2.04073 2.37325 0
M  V30 7726 C 717.93 3.16258 3.31278 0
M  V30 7727 N 719.421 3.15805 3.38853 0
M  V30 7728 C 720.156 3.99249 4.11567 0
M  V30 7729 N 719.652 4.92721 4.87029 0
M  V30 7730 N 721.445 3.87327 4.0735 0
M  V30 7731 H 713.596 2.01645 0.66731 0
M  V30 7732 H 715.859 0.878395 0.356547 0
M  V30 7733 H 715.565 2.98986 1.85203 0
M  V30 7734 H 715.439 1.92704 3.24261 0
M  V30 7735 H 717.826 1.06495 2.75214 0
M  V30 7736 H 717.907 2.16239 1.36654 0
M  V30 7737 H 717.551 4.14079 2.9411 0
M  V30 7738 H 717.481 3.0133 4.31866 0
M  V30 7739 H 719.972 2.48102 2.8505 0
M  V30 7740 H 720.285 5.52867 5.39961 0
M  V30 7741 H 718.63 4.96723 4.86098 0
M  V30 7742 H 721.821 3.13627 3.475 0
M  V30 7743 H 721.994 4.52585 4.63757 0
M  V30 7744 N 715.4 -1.26948 0.933913 0
M  V30 7745 C 716.648 -1.93704 0.576484 0
M  V30 7746 C 716.969 -1.73702 -0.886145 0
M  V30 7747 O 716.239 -1.08838 -1.62884 0
M  V30 7748 H 714.819 -0.716812 0.210214 0
M  V30 7749 H 717.481 -1.54534 1.18766 0
M  V30 7750 H 716.577 -3.01987 0.788055 0
M  V30 7751 N 716.879 -0.700114 -1.41195 0
M  V30 7752 C 717.809 -0.0521132 -2.33442 0
M  V30 7753 C 718.79 0.76228 -1.52063 0
M  V30 7754 O 719.975 0.714336 -1.80585 0
M  V30 7755 C 717.105 0.881693 -3.35922 0
M  V30 7756 C 716.059 0.174062 -4.27646 0
M  V30 7757 C 715.385 1.22254 -5.20536 0
M  V30 7758 C 716.685 -0.962396 -5.13357 0
M  V30 7759 H 718.379 -0.822574 -2.87879 0
M  V30 7760 H 715.925 -0.397011 -1.38419 0
M  V30 7761 H 717.878 1.34429 -3.99383 0
M  V30 7762 H 716.602 1.68387 -2.79845 0
M  V30 7763 H 715.261 -0.268551 -3.65615 0
M  V30 7764 H 714.909 2.01736 -4.60773 0
M  V30 7765 H 714.609 0.754038 -5.82742 0
M  V30 7766 H 716.133 1.68555 -5.86874 0
M  V30 7767 H 717.547 -0.579875 -5.7036 0
M  V30 7768 H 715.944 -1.35828 -5.84526 0
M  V30 7769 H 717.014 -1.80003 -4.50252 0
M  V30 7770 N 718.357 1.51182 -0.445186 0
M  V30 7771 C 719.305 2.29531 0.376597 0
M  V30 7772 C 720.299 1.35711 1.01385 0
M  V30 7773 O 721.505 1.53018 0.947922 0
M  V30 7774 H 717.88 0.738803 0.140267 0
M  V30 7775 H 719.851 2.96838 -0.304958 0
M  V30 7776 C 718.6 3.1552 1.4609 0
M  V30 7777 H 717.923 3.87605 0.979912 0
M  V30 7778 H 719.363 3.73384 2.009 0
M  V30 7779 C 717.822 2.31406 2.44852 0
M  V30 7780 O 718.352 1.97912 3.49562 0
M  V30 7781 N 716.558 1.94478 2.15932 0
M  V30 7782 H 716.105 2.21917 1.30808 0
M  V30 7783 H 716.063 1.38498 2.82251 0
M  V30 7784 N 719.835 0.176821 1.56605 0
M  V30 7785 C 720.767 -0.782836 2.15417 0
M  V30 7786 C 721.78 -1.18982 1.11117 0
M  V30 7787 O 722.969 -1.12872 1.38283 0
M  V30 7788 C 720.069 -2.06596 2.68647 0
M  V30 7789 C 719.242 -1.82167 3.9766 0
M  V30 7790 C 718.301 -2.94751 4.35899 0
M  V30 7791 O 717.327 -2.65148 5.03672 0
M  V30 7792 N 718.529 -4.2267 3.97907 0
M  V30 7793 H 721.294 -0.280012 2.98389 0
M  V30 7794 H 718.855 -0.00577529 1.61899 0
M  V30 7795 H 720.847 -2.81018 2.91223 0
M  V30 7796 H 719.417 -2.48054 1.90232 0
M  V30 7797 H 718.637 -0.916208 3.83405 0
M  V30 7798 H 719.925 -1.6322 4.81909 0
M  V30 7799 H 719.323 -4.4958 3.43357 0
M  V30 7800 H 717.88 -4.93778 4.25472 0
M  V30 7801 N 721.313 -1.57302 -0.09688 0
M  V30 7802 C 722.559 -1.86273 -0.801885 0
M  V30 7803 C 722.892 -0.765694 -1.78468 0
M  V30 7804 O 722.167 0.226495 -1.93177 0
M  V30 7805 C 722.45 -3.25876 -1.53221 0
M  V30 7806 C 722.303 -4.46205 -0.567529 0
M  V30 7807 C 723.622 -3.63352 -2.48321 0
M  V30 7808 H 720.741 -0.67752 -0.29006 0
M  V30 7809 H 723.383 -1.89887 -0.0655577 0
M  V30 7810 H 721.533 -3.22926 -2.15988 0
M  V30 7811 H 723.205 -4.6127 0.0529982 0
M  V30 7812 H 721.448 -4.33636 0.119233 0
M  V30 7813 H 722.119 -5.40608 -1.11564 0
M  V30 7814 H 724.595 -3.67234 -1.95648 0
M  V30 7815 H 723.471 -4.61968 -2.9644 0
M  V30 7816 H 723.732 -2.91941 -3.31998 0
M  V30 7817 N 722.791 0.367657 -1.53252 0
M  V30 7818 C 724.039 1.10832 -1.68999 0
M  V30 7819 C 724.36 1.89894 -0.443306 0
M  V30 7820 O 723.63 1.88235 0.54262 0
M  V30 7821 H 722.21 0.412153 -0.623008 0
M  V30 7822 H 724.872 0.414775 -1.90435 0
M  V30 7823 H 723.968 1.7993 -2.55013 0
M  V30 7824 N 724.269 1.44576 0.627338 0
M  V30 7825 C 725.199 1.54562 1.75022 0
M  V30 7826 C 726.18 0.398378 1.65369 0
M  V30 7827 O 727.365 0.61899 1.84071 0
M  V30 7828 C 724.495 1.49309 3.13567 0
M  V30 7829 C 723.449 2.62549 3.38012 0
M  V30 7830 C 722.775 2.42348 4.76625 0
M  V30 7831 C 724.075 4.04678 3.30202 0
M  V30 7832 H 725.769 2.4855 1.66922 0
M  V30 7833 H 723.315 1.19624 0.801636 0
M  V30 7834 H 725.268 1.54895 3.919 0
M  V30 7835 H 723.992 0.518392 3.2246 0
M  V30 7836 H 722.651 2.56358 2.62061 0
M  V30 7837 H 722.299 1.43062 4.82226 0
M  V30 7838 H 721.999 3.18273 4.93939 0
M  V30 7839 H 723.523 2.49758 5.57183 0
M  V30 7840 H 724.937 4.12217 3.98435 0
M  V30 7841 H 723.334 4.80836 3.5905 0
M  V30 7842 H 724.404 4.2798 2.27949 0
M  V30 7843 N 725.747 -0.868086 1.31537 0
M  V30 7844 C 726.995 -1.61807 1.21091 0
M  V30 7845 C 727.316 -1.93631 -0.230623 0
M  V30 7846 O 726.586 -1.5846 -1.15183 0
M  V30 7847 H 725.166 -0.599854 0.445178 0
M  V30 7848 H 727.828 -1.03915 1.64887 0
M  V30 7849 H 726.924 -2.56088 1.78396 0
M  V30 7850 N 727.225 -1.14528 -1.08264 0
M  V30 7851 C 728.471 -0.91576 -1.80947 0
M  V30 7852 C 728.804 0.55623 -1.86064 0
M  V30 7853 O 728.079 1.41207 -1.33756 0
M  V30 7854 C 728.362 -1.51917 -3.26486 0
M  V30 7855 C 728.215 -3.06111 -3.2957 0
M  V30 7856 C 729.534 -1.19724 -4.23502 0
M  V30 7857 H 726.653 -0.334113 -0.656915 0
M  V30 7858 H 729.295 -1.41547 -1.26746 0
M  V30 7859 H 727.445 -1.0942 -3.72773 0
M  V30 7860 H 729.117 -3.57448 -2.91597 0
M  V30 7861 H 727.36 -3.40483 -2.688 0
M  V30 7862 H 728.031 -3.43438 -4.32151 0
M  V30 7863 H 730.507 -1.56467 -3.85561 0
M  V30 7864 H 729.383 -1.64575 -5.23647 0
M  V30 7865 H 729.644 -0.112771 -4.41956 0
M  V30 7866 N 728.703 1.26451 -0.940633 0
M  V30 7867 C 729.65 2.264 -0.448497 0
M  V30 7868 C 730.62 1.5866 0.491546 0
M  V30 7869 O 731.805 1.86389 0.407874 0
M  V30 7870 C 728.945 3.43956 0.280715 0
M  V30 7871 C 728.058 4.26374 -0.694937 0
M  V30 7872 C 727.193 5.31171 0.0554186 0
M  V30 7873 C 726.232 6.05266 -0.912091 0
M  V30 7874 N 725.369 7.01833 -0.193524 0
M  V30 7875 H 730.209 2.67869 -1.30576 0
M  V30 7876 H 727.746 1.31707 -0.655112 0
M  V30 7877 H 729.704 4.10941 0.71994 0
M  V30 7878 H 728.334 3.03403 1.10212 0
M  V30 7879 H 727.386 3.59183 -1.25267 0
M  V30 7880 H 728.698 4.77748 -1.43382 0
M  V30 7881 H 727.852 6.04166 0.553951 0
M  V30 7882 H 726.591 4.80634 0.827183 0
M  V30 7883 H 725.596 5.31099 -1.42175 0
M  V30 7884 H 726.821 6.57893 -1.68385 0
M  V30 7885 H 724.767 6.53607 0.559758 0
M  V30 7886 H 724.684 7.50957 -0.871744 0
M  V30 7887 H 725.952 7.78983 0.283932 0
M  V30 7888 N 730.181 0.707592 1.40822 0
M  V30 7889 C 731.409 0.253073 2.05346 0
M  V30 7890 C 731.824 -1.10218 1.53289 0
M  V30 7891 O 731.181 -1.69112 0.686105 0
M  V30 7892 C 731.232 0.215411 3.60858 0
M  V30 7893 O 730.953 1.51714 4.10992 0
M  V30 7894 C 732.454 -0.258636 4.42545 0
M  V30 7895 H 729.674 0.115256 0.661027 0
M  V30 7896 H 732.218 0.963555 1.80377 0
M  V30 7897 H 730.373 -0.445978 3.84824 0
M  V30 7898 H 730.787 1.41226 5.05129 0
M  V30 7899 H 732.261 -0.233849 5.51504 0
M  V30 7900 H 732.738 -1.2995 4.19535 0
M  V30 7901 H 733.344 0.372186 4.23668 0
M  V30 7902 N 731.66 -1.50943 0.453197 0
M  V30 7903 C 732.908 -2.01813 -0.107709 0
M  V30 7904 C 733.229 -1.33841 -1.41816 0
M  V30 7905 O 732.499 -0.477973 -1.8998 0
M  V30 7906 H 731.079 -0.745773 -0.0427948 0
M  V30 7907 H 733.741 -1.8545 0.599531 0
M  V30 7908 H 732.837 -3.10911 -0.27218 0
M  V30 7909 N 733.138 -0.185124 -1.56509 0
M  V30 7910 C 734.387 0.456421 -1.96468 0
M  V30 7911 C 734.7 1.63448 -1.07444 0
M  V30 7912 O 735.906 2.34316 -1.37143 0
M  V30 7913 C 734.362 0.863404 -3.4939 0
M  V30 7914 C 733.97 -0.289815 -4.47062 0
M  V30 7915 C 735.714 1.47259 -3.98139 0
M  V30 7916 C 733.621 0.137571 -5.9124 0
M  V30 7917 H 732.551 0.17429 -0.733579 0
M  V30 7918 H 735.202 -0.275554 -1.81419 0
M  V30 7919 H 733.584 1.65176 -3.59907 0
M  V30 7920 H 734.758 -1.06728 -4.4827 0
M  V30 7921 H 733.073 -0.809851 -4.08449 0
M  V30 7922 H 735.67 1.80463 -5.03326 0
M  V30 7923 H 736.013 2.3755 -3.41871 0
M  V30 7924 H 736.546 0.748405 -3.90696 0
M  V30 7925 H 733.285 -0.730907 -6.51412 0
M  V30 7926 H 732.805 0.8801 -5.93308 0
M  V30 7927 H 734.484 0.576771 -6.44424 0
M  V30 7928 N 734.616 1.57351 0.0885366 0
M  V30 7929 C 735.893 1.77449 0.822873 0
M  V30 7930 C 736.273 0.768463 1.96616 0
M  V30 7931 O 735.621 -0.201757 2.27608 0
M  V30 7932 C 735.831 3.23425 1.31137 0
M  V30 7933 C 737.179 3.86791 1.75152 0
M  V30 7934 O 738.203 3.27215 1.40745 0
M  V30 7935 O 737.062 4.91568 2.38794 0
M  V30 7936 H 734.156 0.727653 0.393002 0
M  V30 7937 H 736.702 1.69556 0.0699095 0
M  V30 7938 H 735.474 3.88188 0.49254 0
M  V30 7939 H 735.097 3.35977 2.12615 0
M  V30 7940 N 736.094 -0.359525 1.53444 0
M  V30 7941 C 737.024 -1.44662 1.8329 0
M  V30 7942 C 738.005 -1.55617 0.68683 0
M  V30 7943 O 739.19 -1.70086 0.93725 0
M  V30 7944 C 736.32 -2.81923 2.02822 0
M  V30 7945 C 735.274 -2.85787 3.18606 0
M  V30 7946 C 734.6 -4.25781 3.23442 0
M  V30 7947 C 735.9 -2.52762 4.57065 0
M  V30 7948 H 737.594 -1.19934 2.74329 0
M  V30 7949 H 735.14 -0.575517 1.31999 0
M  V30 7950 H 737.093 -3.58005 2.22285 0
M  V30 7951 H 735.817 -3.08051 1.085 0
M  V30 7952 H 734.476 -2.12157 2.98973 0
M  V30 7953 H 734.124 -4.48994 2.26745 0
M  V30 7954 H 733.824 -4.29281 4.01238 0
M  V30 7955 H 735.348 -5.03727 3.45096 0
M  V30 7956 H 736.762 -3.18557 4.76649 0
M  V30 7957 H 735.159 -2.67569 5.37147 0
M  V30 7958 H 736.229 -1.47993 4.61764 0
M  V30 7959 N 737.572 -1.44907 -0.619662 0
M  V30 7960 C 738.983 -1.42905 -1.20146 0
M  V30 7961 C 739.334 -0.150341 -1.95623 0
M  V30 7962 O 738.459 0.748732 -2.03034 0
M  V30 7963 C 739.054 -2.58889 -2.18545 0
M  V30 7964 C 737.613 -2.60046 -2.72127 0
M  V30 7965 C 736.76 -2.3493 -1.4732 0
M  V30 7966 H 739.711 -1.53321 -0.409666 0
M  V30 7967 H 739.732 -2.32298 -3.0136 0
M  V30 7968 H 739.244 -3.51941 -1.63583 0
M  V30 7969 H 737.345 -1.70968 -3.3106 0
M  V30 7970 H 737.458 -3.58893 -3.17384 0
M  V30 7971 H 735.822 -1.84248 -1.75855 0
M  V30 7972 H 736.605 -3.3011 -0.942442 0
M  V30 7973 N 739.05 0.861098 -1.31996 0
M  V30 7974 C 739.998 1.99052 -1.20337 0
M  V30 7975 C 740.992 1.69045 -0.109623 0
M  V30 7976 O 742.198 1.77931 -0.272117 0
M  V30 7977 H 738.573 0.653064 -0.372843 0
M  V30 7978 H 740.544 2.06015 -2.15872 0
M  V30 7979 C 739.293 3.34846 -0.936663 0
M  V30 7980 H 738.616 3.58462 -1.77045 0
M  V30 7981 H 740.056 4.1444 -0.895302 0
M  V30 7982 C 738.515 3.34965 0.360607 0
M  V30 7983 O 739.045 3.7745 1.37456 0
M  V30 7984 N 737.251 2.88101 0.380296 0
M  V30 7985 H 736.798 2.53721 -0.445351 0
M  V30 7986 H 736.756 2.88563 1.24816 0
M  V30 7987 N 740.528 1.15101 1.07655 0
M  V30 7988 C 741.438 0.858869 2.18313 0
M  V30 7989 C 742.454 -0.163641 1.73229 0
M  V30 7990 O 743.63 0.00969541 2.01398 0
M  V30 7991 C 740.695 0.34893 3.4494 0
M  V30 7992 C 739.756 1.43495 4.04608 0
M  V30 7993 C 738.989 0.949253 5.2519 0
M  V30 7994 O 739.212 -0.20636 5.70027 0
M  V30 7995 O 738.146 1.73161 5.76454 0
M  V30 7996 H 741.972 1.78386 2.45788 0
M  V30 7997 H 739.557 0.929876 1.16934 0
M  V30 7998 H 741.439 0.070851 4.2134 0
M  V30 7999 H 740.114 -0.548237 3.19024 0
M  V30 8000 H 739.021 1.7666 3.29761 0
M  V30 8001 H 740.354 2.30692 4.3479 0
M  V30 8002 N 742.006 -1.2595 0.947325 0
M  V30 8003 C 743.234 -1.97544 0.615127 0
M  V30 8004 C 743.649 -1.70484 -0.811221 0
M  V30 8005 O 743.006 -0.97662 -1.5417 0
M  V30 8006 C 743.057 -3.51236 0.855328 0
M  V30 8007 O 742.778 -3.77359 2.22558 0
M  V30 8008 C 744.279 -4.40066 0.534515 0
M  V30 8009 H 741.499 -0.629888 0.231263 0
M  V30 8010 H 744.043 -1.60308 1.26971 0
M  V30 8011 H 742.198 -3.8661 0.247266 0
M  V30 8012 H 742.612 -4.71857 2.29022 0
M  V30 8013 H 744.086 -5.46838 0.753168 0
M  V30 8014 H 744.563 -4.35982 -0.530701 0
M  V30 8015 H 745.169 -4.10245 1.12158 0
M  V30 8016 N 743.484 -0.715051 -1.40445 0
M  V30 8017 C 744.9 -0.388555 -1.54798 0
M  V30 8018 C 745.1 1.10271 -1.68649 0
M  V30 8019 O 744.156 1.88875 -1.67578 0
M  V30 8020 C 745.469 -1.15414 -2.77669 0
M  V30 8021 C 747.017 -1.14039 -2.91486 0
M  V30 8022 C 747.492 -1.88812 -4.1727 0
M  V30 8023 N 748.983 -1.85878 -4.24268 0
M  V30 8024 C 749.718 -2.40558 -5.20499 0
M  V30 8025 N 749.214 -3.03791 -6.22642 0
M  V30 8026 N 751.007 -2.30703 -5.12574 0
M  V30 8027 H 743.158 -1.68201 -1.297 0
M  V30 8028 H 745.421 -0.710915 -0.627139 0
M  V30 8029 H 745.127 -2.20853 -2.7371 0
M  V30 8030 H 745.001 -0.745412 -3.69761 0
M  V30 8031 H 747.388 -0.0941996 -2.9495 0
M  V30 8032 H 747.469 -1.58834 -2.00513 0
M  V30 8033 H 747.113 -2.93422 -4.14568 0
M  V30 8034 H 747.043 -1.41438 -5.0725 0
M  V30 8035 H 749.534 -1.39794 -3.51093 0
M  V30 8036 H 749.847 -3.43032 -6.92495 0
M  V30 8037 H 748.192 -3.07875 -6.23087 0
M  V30 8038 H 751.383 -1.80961 -4.31707 0
M  V30 8039 H 751.556 -2.73618 -5.87398 0
M  V30 8040 N 744.962 1.50701 -0.461195 0
M  V30 8041 C 746.21 2.01867 0.0970051 0
M  V30 8042 C 746.531 1.34591 1.41104 0
M  V30 8043 O 745.801 0.488041 1.89723 0
M  V30 8044 H 744.381 0.74599 0.0388392 0
M  V30 8045 H 747.043 1.85129 -0.609357 0
M  V30 8046 H 746.139 3.11051 0.255688 0
M  V30 8047 N 746.441 0.193421 1.56409 0
M  V30 8048 C 747.373 -0.759944 2.16235 0
M  V30 8049 C 748.386 -1.17797 1.12373 0
M  V30 8050 O 749.575 -1.11399 1.39472 0
M  V30 8051 C 746.675 -2.03735 2.70823 0
M  V30 8052 C 745.848 -1.77939 3.9957 0
M  V30 8053 C 744.907 -2.90111 4.39001 0
M  V30 8054 O 743.933 -2.59791 5.06456 0
M  V30 8055 N 745.135 -4.18426 4.02368 0
M  V30 8056 H 747.9 -0.248348 2.98669 0
M  V30 8057 H 745.461 0.0113966 1.61896 0
M  V30 8058 H 747.453 -2.77914 2.94187 0
M  V30 8059 H 746.023 -2.46022 1.92852 0
M  V30 8060 H 745.243 -0.875491 3.84355 0
M  V30 8061 H 746.531 -1.58099 4.83614 0
M  V30 8062 H 745.929 -4.45913 3.48106 0
M  V30 8063 H 744.486 -4.89237 4.30686 0
M  V30 8064 N 747.919 -1.57396 -0.0801906 0
M  V30 8065 C 749.168 -1.8602 -0.779702 0
M  V30 8066 C 749.481 -0.784864 -1.79163 0
M  V30 8067 O 750.687 -0.958691 -2.54011 0
M  V30 8068 C 749.143 -3.29942 -1.43758 0
M  V30 8069 C 748.751 -4.45584 -0.464654 0
M  V30 8070 C 750.495 -3.67775 -2.11995 0
M  V30 8071 C 748.402 -5.80544 -1.12797 0
M  V30 8072 H 747.332 -0.69392 -0.294943 0
M  V30 8073 H 749.983 -1.83471 -0.0328527 0
M  V30 8074 H 748.365 -3.27078 -2.2324 0
M  V30 8075 H 749.539 -4.59824 0.299749 0
M  V30 8076 H 747.854 -4.16247 0.112813 0
M  V30 8077 H 750.451 -4.65896 -2.62383 0
M  V30 8078 H 750.794 -2.9715 -2.91561 0
M  V30 8079 H 751.327 -3.72593 -1.39354 0
M  V30 8080 H 748.066 -6.54439 -0.372807 0
M  V30 8081 H 747.586 -5.70119 -1.86344 0
M  V30 8082 H 749.265 -6.25602 -1.6502 0
M  V30 8083 N 749.397 0.351382 -1.53633 0
M  V30 8084 C 750.307 1.45471 -1.84052 0
M  V30 8085 C 751.323 1.57945 -0.730015 0
M  V30 8086 O 752.499 1.73571 -1.02153 0
M  V30 8087 C 749.564 2.80562 -2.03681 0
M  V30 8088 C 748.625 2.77497 -3.27558 0
M  V30 8089 C 747.858 4.06144 -3.46241 0
M  V30 8090 O 748.081 5.03028 -2.68922 0
M  V30 8091 O 747.015 4.11092 -4.39645 0
M  V30 8092 H 750.841 1.22684 -2.77817 0
M  V30 8093 H 748.426 0.542827 -1.3919 0
M  V30 8094 H 750.308 3.6058 -2.18082 0
M  V30 8095 H 748.983 3.03296 -1.13106 0
M  V30 8096 H 747.89 1.96126 -3.18568 0
M  V30 8097 H 749.223 2.59716 -4.18101 0
M  V30 8098 N 750.875 1.45233 0.611969 0
M  V30 8099 C 752.286 1.4354 1.19387 0
M  V30 8100 C 752.637 0.160713 1.95541 0
M  V30 8101 O 751.762 -0.737954 2.03429 0
M  V30 8102 C 752.357 2.60045 2.17169 0
M  V30 8103 C 750.916 2.61486 2.70744 0
M  V30 8104 C 750.063 2.35708 1.46072 0
M  V30 8105 H 753.014 1.53536 0.401529 0
M  V30 8106 H 753.035 2.33893 3.00124 0
M  V30 8107 H 752.547 3.52803 1.61714 0
M  V30 8108 H 750.648 1.72721 3.30149 0
M  V30 8109 H 750.761 3.60572 3.15476 0
M  V30 8110 H 749.125 1.85178 1.74875 0
M  V30 8111 H 749.908 3.30606 0.924922 0
M  V30 8112 N 752.353 -0.854086 1.3245 0
M  V30 8113 C 753.283 -1.97827 1.24044 0
M  V30 8114 C 754.264 -1.69646 0.124166 0
M  V30 8115 O 755.449 -1.91687 0.31143 0
M  V30 8116 C 752.579 -3.33673 0.963324 0
M  V30 8117 C 751.533 -3.76207 2.04089 0
M  V30 8118 C 750.859 -5.0969 1.61618 0
M  V30 8119 C 752.159 -3.91612 3.45597 0
M  V30 8120 H 753.853 -2.05118 2.18099 0
M  V30 8121 H 751.399 -0.985489 1.04996 0
M  V30 8122 H 753.352 -4.11871 0.891061 0
M  V30 8123 H 752.076 -3.26597 -0.0128649 0
M  V30 8124 H 750.735 -3.0026 2.10332 0
M  V30 8125 H 750.383 -4.99072 0.627418 0
M  V30 8126 H 750.083 -5.3912 2.33717 0
M  V30 8127 H 751.607 -5.90381 1.55829 0
M  V30 8128 H 753.021 -4.60163 3.4194 0
M  V30 8129 H 751.418 -4.3246 4.16051 0
M  V30 8130 H 752.488 -2.9451 3.85217 0
M  V30 8131 N 753.831 -1.1567 -1.07043 0
M  V30 8132 C 755.059 -0.957471 -1.83412 0
M  V30 8133 C 755.474 0.494271 -1.82215 0
M  V30 8134 O 754.831 1.34288 -1.23584 0
M  V30 8135 C 754.882 -1.46784 -3.30359 0
M  V30 8136 O 754.603 -2.86271 -3.31633 0
M  V30 8137 C 756.104 -1.31054 -4.23485 0
M  V30 8138 H 753.324 -0.33986 -0.578564 0
M  V30 8139 H 755.868 -1.53518 -1.35102 0
M  V30 8140 H 754.023 -0.932586 -3.76007 0
M  V30 8141 H 754.437 -3.0948 -4.23465 0
M  V30 8142 H 755.911 -1.71605 -5.24648 0
M  V30 8143 H 756.388 -0.255107 -4.38458 0
M  V30 8144 H 756.994 -1.83503 -3.83676 0
M  V30 8145 N 755.309 1.25446 -0.953992 0
M  V30 8146 C 756.257 2.27909 -0.46478 0
M  V30 8147 C 757.251 1.62904 0.464607 0
M  V30 8148 O 758.457 1.76733 0.341407 0
M  V30 8149 H 754.832 0.74036 -0.131798 0
M  V30 8150 H 756.803 2.66559 -1.34122 0
M  V30 8151 C 755.552 3.46853 0.242589 0
M  V30 8152 H 754.875 3.97105 -0.463418 0
M  V30 8153 H 756.315 4.20432 0.548919 0
M  V30 8154 C 754.774 3.03386 1.46487 0
M  V30 8155 O 755.304 3.09342 2.56262 0
M  V30 8156 N 753.51 2.58584 1.32599 0
M  V30 8157 H 753.057 2.53938 0.432834 0
M  V30 8158 H 753.015 2.29866 2.14497 0
M  V30 8159 N 756.787 0.722489 1.40064 0
M  V30 8160 C 757.735 0.063329 2.32514 0
M  V30 8161 C 758.729 -0.73953 1.52405 0
M  V30 8162 O 759.935 -0.642122 1.68157 0
M  V30 8163 H 756.31 0.00167692 0.751998 0
M  V30 8164 H 758.281 0.859656 2.85749 0
M  V30 8165 C 757.03 -0.839219 3.3742 0
M  V30 8166 H 756.353 -0.230836 3.99133 0
M  V30 8167 H 757.793 -1.26827 4.04587 0
M  V30 8168 C 756.252 -1.96783 2.73456 0
M  V30 8169 O 756.782 -3.05933 2.60323 0
M  V30 8170 N 754.988 -1.75351 2.31734 0
M  V30 8171 H 754.535 -0.865787 2.42615 0
M  V30 8172 H 754.493 -2.51043 1.89275 0
M  V30 8173 N 758.265 -1.50454 0.469181 0
M  V30 8174 C 759.676 -1.86695 0.0136034 0
M  V30 8175 C 760.027 -1.38413 -1.39055 0
M  V30 8176 O 759.152 -0.748294 -2.03051 0
M  V30 8177 C 759.747 -3.38795 0.0179098 0
M  V30 8178 C 758.306 -3.74455 -0.382191 0
M  V30 8179 C 757.453 -2.74338 0.404207 0
M  V30 8180 H 760.404 -1.43225 0.683547 0
M  V30 8181 H 760.425 -3.72321 -0.78468 0
M  V30 8182 H 759.937 -3.73906 1.04 0
M  V30 8183 H 758.038 -3.44944 -1.4087 0
M  V30 8184 H 758.151 -4.79025 -0.084862 0
M  V30 8185 H 756.515 -2.54305 -0.141829 0
M  V30 8186 H 757.298 -3.12293 1.42577 0
M  V30 8187 N 759.743 -0.201713 -1.56304 0
M  V30 8188 C 760.991 0.434447 -1.97375 0
M  V30 8189 C 761.312 1.61692 -1.08998 0
M  V30 8190 O 760.582 1.95223 -0.162682 0
M  V30 8191 H 759.162 0.163497 -0.728888 0
M  V30 8192 H 761.824 -0.289988 -1.92731 0
M  V30 8193 H 760.92 0.774136 -3.02347 0
M  V30 8194 N 761.222 1.57436 0.0718424 0
M  V30 8195 C 762.17 2.04725 1.10411 0
M  V30 8196 C 763.164 0.952579 1.4008 0
M  V30 8197 O 764.37 1.13769 1.39487 0
M  V30 8198 H 760.745 0.652749 0.373393 0
M  V30 8199 H 762.716 2.90569 0.679126 0
M  V30 8200 C 761.465 2.5068 2.40946 0
M  V30 8201 H 760.788 3.34505 2.18967 0
M  V30 8202 H 762.228 2.87521 3.11621 0
M  V30 8203 C 760.687 1.38971 3.06902 0
M  V30 8204 O 761.217 0.731786 3.94978 0
M  V30 8205 N 759.423 1.13485 2.67525 0
M  V30 8206 H 758.97 1.67168 1.95991 0
M  V30 8207 H 758.928 0.389467 3.11978 0
M  V30 8208 N 762.7 -0.34323 1.53817 0
M  V30 8209 C 763.93 -1.10188 1.74763 0
M  V30 8210 C 764.338 -1.82829 0.486856 0
M  V30 8211 O 763.681 -1.75236 -0.551198 0
M  V30 8212 C 763.743 -2.16 2.87375 0
M  V30 8213 C 763.407 -1.62931 4.26969 0
M  V30 8214 C 764.404 -1.08147 5.08528 0
M  V30 8215 C 762.089 -1.67769 4.73454 0
M  V30 8216 C 764.083 -0.589039 6.34672 0
M  V30 8217 C 761.77 -1.18138 5.99572 0
M  V30 8218 C 762.768 -0.637979 6.80014 0
M  V30 8219 O 762.456 -0.149073 8.03762 0
M  V30 8220 H 762.188 -0.33445 0.587469 0
M  V30 8221 H 764.742 -0.401109 2.01445 0
M  V30 8222 H 762.972 -2.89637 2.56218 0
M  V30 8223 H 764.661 -2.77432 2.96287 0
M  V30 8224 H 765.427 -1.03732 4.73777 0
M  V30 8225 H 761.306 -2.09004 4.10899 0
M  V30 8226 H 764.85 -0.164233 6.97407 0
M  V30 8227 H 760.747 -1.22254 6.33817 0
M  V30 8228 H 761.515 -0.266332 8.18067 0
M  V30 8229 N 764.178 -1.45556 -0.604258 0
M  V30 8230 C 765.108 -1.57327 -1.72541 0
M  V30 8231 C 766.089 -0.424637 -1.64714 0
M  V30 8232 O 767.274 -0.648196 -1.83063 0
M  V30 8233 C 764.404 -1.54279 -3.11152 0
M  V30 8234 C 763.358 -2.67893 -3.33792 0
M  V30 8235 C 762.684 -2.499 -4.72709 0
M  V30 8236 C 763.984 -4.0988 -3.23722 0
M  V30 8237 H 765.678 -2.51175 -1.62947 0
M  V30 8238 H 763.224 -1.20884 -0.782504 0
M  V30 8239 H 765.177 -1.6111 -3.89386 0
M  V30 8240 H 763.901 -0.569627 -3.21594 0
M  V30 8241 H 762.56 -2.60495 -2.57949 0
M  V30 8242 H 762.208 -1.50715 -4.79889 0
M  V30 8243 H 761.908 -3.26091 -4.88813 0
M  V30 8244 H 763.432 -2.5859 -5.5314 0
M  V30 8245 H 764.846 -4.18503 -3.91826 0
M  V30 8246 H 763.243 -4.86487 -3.51355 0
M  V30 8247 H 764.313 -4.31553 -2.21111 0
M  V30 8248 N 765.656 0.84705 -1.32902 0
M  V30 8249 C 766.933 1.58583 -1.14503 0
M  V30 8250 C 767.313 2.09075 0.291724 0
M  V30 8251 O 766.661 1.88636 1.28952 0
M  V30 8252 C 766.871 2.72605 -2.17916 0
M  V30 8253 C 768.219 3.41993 -2.51646 0
M  V30 8254 O 769.243 2.82838 -2.1652 0
M  V30 8255 O 768.102 4.48761 -3.1189 0
M  V30 8256 H 765.196 0.698756 -0.442345 0
M  V30 8257 H 767.742 0.890516 -1.44457 0
M  V30 8258 H 766.514 2.32876 -3.14459 0
M  V30 8259 H 766.137 3.49807 -1.89 0
M  V30 8260 N 767.134 1.16236 1.06428 0
M  V30 8261 C 768.064 0.890807 2.1584 0
M  V30 8262 C 769.045 -0.162333 1.69324 0
M  V30 8263 O 770.23 -0.0147191 1.94194 0
M  V30 8264 C 767.36 0.389615 3.45108 0
M  V30 8265 C 766.314 1.38051 4.05125 0
M  V30 8266 C 765.64 0.737773 5.29586 0
M  V30 8267 C 766.94 2.74965 4.44062 0
M  V30 8268 H 768.634 1.80577 2.38814 0
M  V30 8269 H 766.18 0.869657 1.14774 0
M  V30 8270 H 768.133 0.187127 4.20984 0
M  V30 8271 H 766.857 -0.560851 3.21748 0
M  V30 8272 H 765.516 1.56952 3.31303 0
M  V30 8273 H 765.164 -0.219135 5.02522 0
M  V30 8274 H 764.864 1.39914 5.70699 0
M  V30 8275 H 766.388 0.545275 6.0816 0
M  V30 8276 H 767.802 2.59855 5.11027 0
M  V30 8277 H 766.199 3.37563 4.96156 0
M  V30 8278 H 767.269 3.30321 3.54987 0
M  V30 8279 N 768.612 -1.24939 0.960631 0
M  V30 8280 C 769.837 -1.9742 0.635608 0
M  V30 8281 C 770.262 -1.70857 -0.786737 0
M  V30 8282 O 769.62 -0.968063 -1.53291 0
M  V30 8283 C 769.668 -3.48987 0.907771 0
M  V30 8284 O 768.772 -4.12399 -0.0104053 0
M  V30 8285 H 768.113 -0.61871 0.241027 0
M  V30 8286 H 770.643 -1.58901 1.28886 0
M  V30 8287 H 770.653 -3.99334 0.836453 0
M  V30 8288 H 769.328 -3.6765 1.94439 0
M  V30 8289 H 767.905 -3.72727 0.113631 0
M  V30 8290 N 770.09 -0.729906 -1.39679 0
M  V30 8291 C 771.339 -0.272534 -1.9985 0
M  V30 8292 C 771.652 1.14519 -1.58571 0
M  V30 8293 O 772.858 1.70182 -2.11543 0
M  V30 8294 C 771.314 -0.436322 -3.57245 0
M  V30 8295 C 770.922 -1.86161 -4.0749 0
M  V30 8296 C 772.666 -0.0404679 -4.24481 0
M  V30 8297 C 770.573 -1.97522 -5.5744 0
M  V30 8298 H 769.503 -0.0981428 -0.747585 0
M  V30 8299 H 772.154 -0.903056 -1.59741 0
M  V30 8300 H 770.536 0.263015 -3.95126 0
M  V30 8301 H 771.71 -2.59248 -3.80955 0
M  V30 8302 H 770.025 -2.21021 -3.529 0
M  V30 8303 H 772.622 -0.104437 -5.34598 0
M  V30 8304 H 772.965 1.00357 -4.04023 0
M  V30 8305 H 773.498 -0.690774 -3.91757 0
M  V30 8306 H 770.237 -3.00096 -5.82771 0
M  V30 8307 H 769.757 -1.28864 -5.85794 0
M  V30 8308 H 771.436 -1.754 -6.22771 0
M  V30 8309 N 771.568 1.50203 -0.477153 0
M  V30 8310 C 772.816 2.01959 0.0755889 0
M  V30 8311 C 773.137 1.3608 1.39668 0
M  V30 8312 O 772.407 0.508136 1.89195 0
M  V30 8313 H 770.987 0.74636 0.0309248 0
M  V30 8314 H 773.649 1.84473 -0.628959 0
M  V30 8315 H 772.745 3.11305 0.222683 0
M  V30 8316 N 773.046 0.209999 1.56195 0
M  V30 8317 C 773.978 -0.736967 2.17029 0
M  V30 8318 C 774.991 -1.16599 1.13616 0
M  V30 8319 O 776.18 -1.09914 1.40646 0
M  V30 8320 C 773.28 -2.00852 2.72969 0
M  V30 8321 C 772.453 -1.73691 4.01435 0
M  V30 8322 C 771.512 -2.85439 4.42053 0
M  V30 8323 O 770.538 -2.54405 5.09183 0
M  V30 8324 N 771.74 -4.14135 4.06783 0
M  V30 8325 H 774.505 -0.216656 2.98916 0
M  V30 8326 H 772.066 0.0285672 1.61875 0
M  V30 8327 H 774.058 -2.74778 2.97118 0
M  V30 8328 H 772.628 -2.43963 1.95451 0
M  V30 8329 H 771.848 -0.834676 3.85262 0
M  V30 8330 H 773.136 -1.52961 4.85263 0
M  V30 8331 H 772.534 -4.42196 3.52816 0
M  V30 8332 H 771.091 -4.84642 4.35851 0
M  V30 8333 N 774.524 -1.57472 -0.0634922 0
M  V30 8334 C 775.754 -1.91608 -0.772645 0
M  V30 8335 C 776.162 -0.805019 -1.71219 0
M  V30 8336 O 775.505 0.229941 -1.82255 0
M  V30 8337 C 775.567 -3.21281 -1.61304 0
M  V30 8338 C 775.231 -4.49177 -0.841973 0
M  V30 8339 C 776.228 -5.19661 -0.157494 0
M  V30 8340 C 773.913 -4.9578 -0.80669 0
M  V30 8341 C 775.907 -6.35006 0.551948 0
M  V30 8342 C 773.594 -6.11028 -0.0934812 0
M  V30 8343 C 774.592 -6.80493 0.58463 0
M  V30 8344 O 774.28 -7.93542 1.28633 0
M  V30 8345 H 774.012 -0.637685 -0.224352 0
M  V30 8346 H 776.566 -2.05369 -0.0355279 0
M  V30 8347 H 774.796 -3.03752 -2.39315 0
M  V30 8348 H 776.485 -3.41003 -2.20162 0
M  V30 8349 H 777.251 -4.84681 -0.176006 0
M  V30 8350 H 773.13 -4.41579 -1.32397 0
M  V30 8351 H 776.674 -6.89161 1.0818 0
M  V30 8352 H 772.571 -6.45459 -0.0729258 0
M  V30 8353 H 773.339 -8.09708 1.19646 0
M  V30 8354 N 776.003 0.335068 -1.53997 0
M  V30 8355 C 777.28 1.09188 -1.62288 0
M  V30 8356 C 777.66 2.0626 -0.449458 0
M  V30 8357 O 777.008 2.21596 0.557444 0
M  V30 8358 C 777.218 1.80403 -2.98757 0
M  V30 8359 C 778.566 2.33841 -3.54406 0
M  V30 8360 O 779.59 1.90487 -3.00987 0
M  V30 8361 O 778.449 3.1318 -4.47862 0
M  V30 8362 H 775.543 0.502621 -0.656736 0
M  V30 8363 H 778.089 0.33588 -1.66343 0
M  V30 8364 H 776.861 1.09732 -3.75599 0
M  V30 8365 H 776.484 2.62841 -2.9833 0
M  V30 8366 N 777.481 1.45874 0.596531 0
M  V30 8367 C 778.709 1.54013 1.38158 0
M  V30 8368 C 779.124 0.17648 1.87973 0
M  V30 8369 O 778.481 -0.823895 1.62844 0
M  V30 8370 C 778.532 2.53363 2.57855 0
M  V30 8371 O 778.253 3.8443 2.10108 0
M  V30 8372 C 779.754 2.71308 3.50581 0
M  V30 8373 H 776.974 0.521251 0.422538 0
M  V30 8374 H 779.518 1.9116 0.726493 0
M  V30 8375 H 777.673 2.19257 3.19382 0
M  V30 8376 H 778.087 4.38384 2.87958 0
M  V30 8377 H 779.561 3.44776 4.31084 0
M  V30 8378 H 780.038 1.77728 4.01633 0
M  V30 8379 H 780.644 3.06455 2.94899 0
M  V30 8380 N 778.959 -0.83999 1.33349 0
M  V30 8381 C 780.189 -1.62492 1.27593 0
M  V30 8382 C 780.597 -1.88559 -0.155597 0
M  V30 8383 O 779.94 -1.46537 -1.10782 0
M  V30 8384 C 780.002 -2.99984 1.98116 0
M  V30 8385 C 779.666 -2.96892 3.47425 0
M  V30 8386 C 780.663 -2.72688 4.42648 0
M  V30 8387 C 778.348 -3.17063 3.89585 0
M  V30 8388 C 780.342 -2.68681 5.78004 0
M  V30 8389 C 778.029 -3.12682 5.25046 0
M  V30 8390 C 779.027 -2.88522 6.19067 0
M  V30 8391 O 778.715 -2.84042 7.52047 0
M  V30 8392 H 778.447 -0.512358 0.440982 0
M  V30 8393 H 781.001 -1.0545 1.76265 0
M  V30 8394 H 779.231 -3.58875 1.44034 0
M  V30 8395 H 780.92 -3.6084 1.85875 0
M  V30 8396 H 781.686 -2.56856 4.114 0
M  V30 8397 H 777.565 -3.34889 3.16813 0
M  V30 8398 H 781.109 -2.49743 6.51363 0
M  V30 8399 H 777.006 -3.28063 5.55918 0
M  V30 8400 H 777.774 -2.99892 7.61582 0
M  V30 8401 N 780.437 -1.16799 -1.0581 0
M  V30 8402 C 781.665 -0.97687 -1.82387 0
M  V30 8403 C 782.08 0.474917 -1.82729 0
M  V30 8404 O 781.437 1.3297 -1.25001 0
M  V30 8405 C 781.488 -1.50279 -3.28783 0
M  V30 8406 O 781.209 -2.89772 -3.28578 0
M  V30 8407 C 782.71 -1.35538 -4.22071 0
M  V30 8408 H 779.93 -0.345977 -0.574927 0
M  V30 8409 H 782.474 -1.54942 -1.33466 0
M  V30 8410 H 780.629 -0.972414 -3.74997 0
M  V30 8411 H 781.043 -3.13954 -4.20159 0
M  V30 8412 H 782.517 -1.7716 -5.22799 0
M  V30 8413 H 782.994 -0.301598 -4.38163 0
M  V30 8414 H 783.6 -1.87562 -3.81708 0
M  V30 8415 N 781.915 1.24427 -0.967243 0
M  V30 8416 C 783.326 1.74349 -0.667785 0
M  V30 8417 C 783.677 1.78403 0.816509 0
M  V30 8418 O 782.802 1.41315 1.63887 0
M  V30 8419 C 783.397 3.16628 -1.20548 0
M  V30 8420 C 781.956 3.64059 -0.955934 0
M  V30 8421 C 781.103 2.42715 -1.34106 0
M  V30 8422 H 784.054 1.10136 -1.14262 0
M  V30 8423 H 784.075 3.76183 -0.571547 0
M  V30 8424 H 783.587 3.13646 -2.28578 0
M  V30 8425 H 781.688 3.72441 0.108858 0
M  V30 8426 H 781.801 4.51549 -1.60126 0
M  V30 8427 H 780.165 2.43114 -0.759452 0
M  V30 8428 H 780.948 2.42414 -2.43085 0
M  V30 8429 N 783.393 0.737304 1.3929 0
M  V30 8430 C 784.323 0.113988 2.33222 0
M  V30 8431 C 785.304 -0.721695 1.54031 0
M  V30 8432 O 786.489 -0.666206 1.82415 0
M  V30 8433 C 783.619 -0.792319 3.38141 0
M  V30 8434 C 782.573 -0.0606178 4.27957 0
M  V30 8435 C 781.899 -1.08409 5.23595 0
M  V30 8436 C 783.199 1.09817 5.10625 0
M  V30 8437 H 784.893 0.898611 2.85596 0
M  V30 8438 H 782.439 0.433571 1.37318 0
M  V30 8439 H 784.392 -1.23793 4.02807 0
M  V30 8440 H 783.116 -1.60908 2.84211 0
M  V30 8441 H 781.775 0.365393 3.64775 0
M  V30 8442 H 781.423 -1.89449 4.6596 0
M  V30 8443 H 781.123 -0.599269 5.84536 0
M  V30 8444 H 782.647 -1.52936 5.91137 0
M  V30 8445 H 784.061 0.730892 5.68622 0
M  V30 8446 H 782.458 1.51278 5.80719 0
M  V30 8447 H 783.528 1.91878 4.45321 0
M  V30 8448 N 784.871 -1.49948 0.485112 0
M  V30 8449 C 785.803 -2.26691 -0.338222 0
M  V30 8450 C 786.816 -1.32584 -0.944742 0
M  V30 8451 O 788.005 -1.57989 -0.830772 0
M  V30 8452 C 785.105 -3.04405 -1.48966 0
M  V30 8453 C 784.278 -4.25971 -0.993371 0
M  V30 8454 C 783.337 -4.85861 -2.02052 0
M  V30 8455 O 782.363 -5.46382 -1.59547 0
M  V30 8456 N 783.565 -4.74101 -3.34975 0
M  V30 8457 H 786.33 -2.97989 0.319748 0
M  V30 8458 H 783.891 -1.58772 0.316714 0
M  V30 8459 H 785.883 -3.41348 -2.17403 0
M  V30 8460 H 784.453 -2.35815 -2.05207 0
M  V30 8461 H 783.673 -3.93971 -0.134424 0
M  V30 8462 H 784.961 -5.0476 -0.639934 0
M  V30 8463 H 784.359 -4.26002 -3.72208 0
M  V30 8464 H 782.916 -5.15274 -3.9917 0
M  V30 8465 N 786.349 -0.21828 -1.56081 0
M  V30 8466 C 787.279 0.687922 -2.23136 0
M  V30 8467 C 788.26 1.20357 -1.202 0
M  V30 8468 O 789.445 1.24817 -1.48776 0
M  V30 8469 C 786.575 1.89762 -2.90874 0
M  V30 8470 C 785.529 1.51595 -4.00254 0
M  V30 8471 C 784.855 2.80415 -4.55271 0
M  V30 8472 C 786.155 0.708404 -5.17474 0
M  V30 8473 H 787.849 0.128854 -2.99123 0
M  V30 8474 H 785.395 0.0605354 -1.43873 0
M  V30 8475 H 787.348 2.53699 -3.36474 0
M  V30 8476 H 786.072 2.4816 -2.1233 0
M  V30 8477 H 784.731 0.900058 -3.55379 0
M  V30 8478 H 784.379 3.36951 -3.73461 0
M  V30 8479 H 784.079 2.55613 -5.2909 0
M  V30 8480 H 785.603 3.453 -5.03587 0
M  V30 8481 H 787.017 1.2514 -5.59476 0
M  V30 8482 H 785.414 0.557593 -5.97504 0
M  V30 8483 H 786.484 -0.285679 -4.84058 0
M  V30 8484 N 787.827 1.57504 0.0551401 0
M  V30 8485 C 789.052 1.92682 0.767352 0
M  V30 8486 C 789.477 0.81614 1.69472 0
M  V30 8487 O 788.835 -0.229989 1.79835 0
M  V30 8488 C 788.883 3.26866 1.52286 0
M  V30 8489 O 787.987 3.17274 2.63459 0
M  V30 8490 H 787.328 0.630502 0.208238 0
M  V30 8491 H 789.858 2.04592 0.0184026 0
M  V30 8492 H 789.868 3.61138 1.8985 0
M  V30 8493 H 788.543 4.07276 0.842541 0
M  V30 8494 H 787.12 2.94589 2.2863 0
M  V30 8495 N 789.305 -0.326896 1.54172 0
M  V30 8496 C 790.237 -1.42319 1.79661 0
M  V30 8497 C 791.25 -1.47989 0.678456 0
M  V30 8498 O 792.439 -1.50773 0.955503 0
M  V30 8499 C 789.539 -2.80876 1.89636 0
M  V30 8500 C 788.712 -2.98449 3.19761 0
M  V30 8501 C 787.771 -4.17347 3.2048 0
M  V30 8502 O 786.797 -4.10667 3.94134 0
M  V30 8503 N 787.999 -5.26717 2.44027 0
M  V30 8504 H 790.764 -1.20819 2.74268 0
M  V30 8505 H 788.325 -0.516866 1.53428 0
M  V30 8506 H 790.317 -3.58619 1.87549 0
M  V30 8507 H 788.887 -2.95442 1.02141 0
M  V30 8508 H 788.107 -2.08035 3.34836 0
M  V30 8509 H 789.395 -3.07083 4.05681 0
M  V30 8510 H 788.793 -5.35019 1.8377 0
M  V30 8511 H 787.35 -6.02891 2.47721 0
M  V30 8512 N 790.784 -1.46188 -0.588786 0
M  V30 8513 C 792.014 -1.54519 -1.3714 0
M  V30 8514 C 792.422 -0.183075 -1.88312 0
M  V30 8515 O 791.765 0.828815 -1.6394 0
M  V30 8516 C 791.827 -2.48426 -2.59856 0
M  V30 8517 C 791.491 -3.94791 -2.30193 0
M  V30 8518 C 792.488 -4.84173 -1.894 0
M  V30 8519 C 790.173 -4.39872 -2.42525 0
M  V30 8520 C 792.167 -6.16647 -1.61325 0
M  V30 8521 C 789.854 -5.72381 -2.14063 0
M  V30 8522 C 790.852 -6.60589 -1.73527 0
M  V30 8523 O 790.54 -7.9064 -1.4541 0
M  V30 8524 H 790.272 -0.525264 -0.425527 0
M  V30 8525 H 792.826 -1.92242 -0.723344 0
M  V30 8526 H 791.056 -2.05709 -3.27446 0
M  V30 8527 H 792.745 -2.4723 -3.21919 0
M  V30 8528 H 793.511 -4.50603 -1.79393 0
M  V30 8529 H 789.39 -3.71444 -2.7304 0
M  V30 8530 H 792.934 -6.85454 -1.29611 0
M  V30 8531 H 788.831 -6.05501 -2.23693 0
M  V30 8532 H 789.599 -8.02847 -1.59306 0
M  V30 8533 N 792.262 0.832906 -1.33792 0
M  V30 8534 C 793.508 1.59089 -1.25772 0
M  V30 8535 C 793.841 1.93414 0.174601 0
M  V30 8536 O 793.116 1.59195 1.11746 0
M  V30 8537 C 793.399 2.89699 -2.13885 0
M  V30 8538 C 793.252 2.62017 -3.65605 0
M  V30 8539 C 794.571 3.91182 -2.01654 0
M  V30 8540 H 791.69 0.577232 -0.458227 0
M  V30 8541 H 794.332 0.960227 -1.6395 0
M  V30 8542 H 792.482 3.4352 -1.81456 0
M  V30 8543 H 794.154 2.14582 -4.08353 0
M  V30 8544 H 792.397 1.95621 -3.87189 0
M  V30 8545 H 793.068 3.55112 -4.2261 0
M  V30 8546 H 795.544 3.46684 -2.30107 0
M  V30 8547 H 794.42 4.80391 -2.65548 0
M  V30 8548 H 794.681 4.30861 -0.990536 0
M  V30 8549 N 793.74 1.17359 1.05189 0
M  V30 8550 C 794.965 0.98709 1.82404 0
M  V30 8551 C 795.39 -0.459848 1.82392 0
M  V30 8552 O 794.748 -1.32924 1.23292 0
M  V30 8553 C 794.796 1.53276 3.26403 0
M  V30 8554 O 793.9 0.746541 4.05587 0
M  V30 8555 H 793.241 0.35047 0.563974 0
M  V30 8556 H 795.771 1.55856 1.32552 0
M  V30 8557 H 795.781 1.55504 3.77203 0
M  V30 8558 H 794.456 2.58603 3.25726 0
M  V30 8559 H 793.033 0.795671 3.64312 0
M  V30 8560 N 795.218 -1.23913 0.973828 0
M  V30 8561 C 796.446 -1.96195 0.656891 0
M  V30 8562 C 796.861 -1.72166 -0.774876 0
M  V30 8563 O 796.218 -1.0091 -1.52064 0
M  V30 8564 C 796.269 -3.49342 0.929638 0
M  V30 8565 O 795.99 -3.72553 2.30512 0
M  V30 8566 C 797.491 -4.38833 0.627739 0
M  V30 8567 H 794.711 -0.624841 0.244572 0
M  V30 8568 H 797.255 -1.57579 1.30343 0
M  V30 8569 H 795.41 -3.85999 0.329216 0
M  V30 8570 H 795.824 -4.66893 2.3898 0
M  V30 8571 H 797.298 -5.45117 0.868991 0
M  V30 8572 H 797.775 -4.37009 -0.438104 0
M  V30 8573 H 798.381 -4.07773 1.20834 0
M  V30 8574 N 796.696 -0.74468 -1.38897 0
M  V30 8575 C 797.945 -0.293716 -1.9955 0
M  V30 8576 C 798.258 1.12831 -1.59777 0
M  V30 8577 O 799.464 1.67929 -2.13336 0
M  V30 8578 C 797.92 -0.474188 -3.56762 0
M  V30 8579 C 797.528 -1.90472 -4.05493 0
M  V30 8580 C 799.272 -0.0854875 -4.24414 0
M  V30 8581 C 797.179 -2.03423 -5.55314 0
M  V30 8582 H 796.109 -0.106066 -0.746502 0
M  V30 8583 H 798.76 -0.919948 -1.58774 0
M  V30 8584 H 797.142 0.221092 -3.95382 0
M  V30 8585 H 798.316 -2.63274 -3.78184 0
M  V30 8586 H 796.631 -2.24752 -3.50536 0
M  V30 8587 H 799.228 -0.161133 -5.34457 0
M  V30 8588 H 799.571 0.96066 -4.05064 0
M  V30 8589 H 800.104 -0.732286 -3.91002 0
M  V30 8590 H 796.843 -3.0626 -5.79556 0
M  V30 8591 H 796.363 -1.3507 -5.84394 0
M  V30 8592 H 798.042 -1.81996 -6.20876 0
M  V30 8593 N 798.174 1.49689 -0.493057 0
M  V30 8594 C 799.137 2.27502 0.278485 0
M  V30 8595 C 800.137 1.33184 0.901037 0
M  V30 8596 O 801.327 1.56415 0.766801 0
M  V30 8597 C 798.459 3.10881 1.39878 0
M  V30 8598 H 799.652 2.97163 -0.404219 0
M  V30 8599 H 797.205 1.54324 -0.247774 0
M  V30 8600 H 797.94 2.45767 2.11587 0
M  V30 8601 H 797.725 3.80219 0.957924 0
M  V30 8602 H 799.215 3.69673 1.94247 0
M  V30 8603 N 799.652 0.226554 1.55963 0
M  V30 8604 C 800.6 -0.697922 2.21882 0
M  V30 8605 C 801.594 -1.19586 1.19981 0
M  V30 8606 O 802.8 -1.15511 1.38048 0
M  V30 8607 H 799.175 -0.243501 0.711485 0
M  V30 8608 H 801.146 -0.118576 2.98164 0
M  V30 8609 C 799.895 -1.89309 2.91646 0
M  V30 8610 H 799.218 -1.51906 3.69817 0
M  V30 8611 H 800.658 -2.51762 3.41162 0
M  V30 8612 C 799.117 -2.75162 1.94391 0
M  V30 8613 O 799.647 -3.74071 1.46402 0
M  V30 8614 N 797.853 -2.41302 1.61932 0
M  V30 8615 H 797.4 -1.60923 2.01151 0
M  V30 8616 H 797.358 -2.99023 0.971219 0
M  V30 8617 N 801.13 -1.57531 -0.0467866 0
M  V30 8618 C 802.407 -1.79568 -0.775536 0
M  V30 8619 C 802.787 -0.820322 -1.94509 0
M  V30 8620 O 802.135 0.14134 -2.28062 0
M  V30 8621 C 802.345 -3.26789 -1.22516 0
M  V30 8622 C 803.693 -3.91299 -1.64835 0
M  V30 8623 O 804.717 -3.30831 -1.3202 0
M  V30 8624 O 803.576 -4.97727 -2.25677 0
M  V30 8625 H 800.67 -0.737817 -0.373572 0
M  V30 8626 H 803.216 -1.69682 -0.0249302 0
M  V30 8627 H 801.988 -3.89357 -0.389446 0
M  V30 8628 H 801.611 -3.41496 -2.03633 0
M  V30 8629 N 802.608 0.318715 -1.54344 0
M  V30 8630 C 803.856 1.054 -1.72439 0
M  V30 8631 C 804.177 1.88388 -0.503495 0
M  V30 8632 O 803.447 1.89866 0.48246 0
M  V30 8633 H 802.027 0.392124 -0.635805 0
M  V30 8634 H 804.689 0.35398 -1.91659 0
M  V30 8635 H 803.785 1.71726 -2.60608 0
M  V30 8636 N 804.086 1.46499 0.581025 0
M  V30 8637 C 805.316 1.55244 1.36319 0
M  V30 8638 C 805.724 0.193059 1.88212 0
M  V30 8639 O 805.067 -0.820109 1.64377 0
M  V30 8640 C 805.129 2.498 2.58535 0
M  V30 8641 C 804.793 3.96007 2.28096 0
M  V30 8642 C 805.79 4.85171 1.8683 0
M  V30 8643 C 803.475 4.41152 2.40189 0
M  V30 8644 C 805.469 6.17493 1.58053 0
M  V30 8645 C 803.156 5.73508 2.11024 0
M  V30 8646 C 804.154 6.615 1.70021 0
M  V30 8647 O 803.842 7.914 1.41215 0
M  V30 8648 H 803.574 0.527513 0.422736 0
M  V30 8649 H 806.128 1.92623 0.713139 0
M  V30 8650 H 804.358 2.07443 3.2635 0
M  V30 8651 H 806.047 2.48934 3.20604 0
M  V30 8652 H 806.813 4.51548 1.77001 0
M  V30 8653 H 802.692 3.72886 2.71066 0
M  V30 8654 H 806.236 6.86131 1.25974 0
M  V30 8655 H 802.133 6.06679 2.20478 0
M  V30 8656 H 802.901 8.03681 1.55046 0
M  V30 8657 N 805.565 -0.825799 1.34232 0
M  V30 8658 C 806.981 -1.11848 1.13851 0
M  V30 8659 C 807.181 -2.01405 -0.0619031 0
M  V30 8660 O 806.237 -2.41465 -0.738287 0
M  V30 8661 C 807.55 -1.76797 2.43235 0
M  V30 8662 C 809.098 -1.89304 2.49265 0
M  V30 8663 C 809.573 -2.57669 3.78643 0
M  V30 8664 N 811.064 -2.65171 3.79788 0
M  V30 8665 C 811.799 -3.1879 4.76614 0
M  V30 8666 N 811.295 -3.72995 5.83821 0
M  V30 8667 N 813.088 -3.17164 4.64073 0
M  V30 8668 H 805.239 -0.230049 2.11151 0
M  V30 8669 H 807.502 -0.164609 0.9336 0
M  V30 8670 H 807.208 -1.18455 3.31152 0
M  V30 8671 H 807.082 -2.76693 2.56361 0
M  V30 8672 H 809.469 -2.46796 1.6179 0
M  V30 8673 H 809.55 -0.883191 2.4007 0
M  V30 8674 H 809.194 -2.00833 4.66507 0
M  V30 8675 H 809.124 -3.59152 3.8512 0
M  V30 8676 H 811.615 -2.26746 3.02315 0
M  V30 8677 H 811.928 -4.12151 6.53721 0
M  V30 8678 H 810.273 -3.71246 5.87538 0
M  V30 8679 H 813.464 -2.74082 3.79469 0
M  V30 8680 H 813.637 -3.58647 5.397 0
M  V30 8681 N 807.043 -1.17915 -1.04565 0
M  V30 8682 C 808.292 -0.965816 -1.77073 0
M  V30 8683 C 808.605 0.506005 -1.88942 0
M  V30 8684 O 809.811 0.837717 -2.58253 0
M  V30 8685 C 808.267 -1.67894 -3.18339 0
M  V30 8686 C 807.875 -3.18972 -3.1458 0
M  V30 8687 C 809.619 -1.54823 -3.9526 0
M  V30 8688 C 807.526 -3.82946 -4.50674 0
M  V30 8689 H 806.456 -0.357729 -0.663736 0
M  V30 8690 H 809.107 -1.41235 -1.17153 0
M  V30 8691 H 807.489 -1.16016 -3.78624 0
M  V30 8692 H 808.663 -3.77835 -2.63776 0
M  V30 8693 H 806.978 -3.32127 -2.51159 0
M  V30 8694 H 809.575 -1.99984 -4.95894 0
M  V30 8695 H 809.918 -0.499727 -4.1329 0
M  V30 8696 H 810.451 -2.03953 -3.41538 0
M  V30 8697 H 807.19 -4.8782 -4.37849 0
M  V30 8698 H 806.71 -3.2887 -5.01602 0
M  V30 8699 H 808.389 -3.85518 -5.196 0
M  V30 8700 N 808.521 1.23394 -0.980386 0
M  V30 8701 C 809.453 2.24146 -0.478657 0
M  V30 8702 C 810.466 1.57303 0.419492 0
M  V30 8703 O 811.655 1.77094 0.223631 0
M  V30 8704 C 808.755 3.3732 0.326913 0
M  V30 8705 C 807.928 4.33744 -0.56436 0
M  V30 8706 C 806.987 5.25866 0.187358 0
M  V30 8707 O 806.013 5.67626 -0.423019 0
M  V30 8708 N 807.215 5.61492 1.47335 0
M  V30 8709 H 809.98 2.67826 -1.34496 0
M  V30 8710 H 807.541 1.37566 -0.853653 0
M  V30 8711 H 809.533 3.95926 0.838148 0
M  V30 8712 H 808.103 2.92823 1.09422 0
M  V30 8713 H 807.323 3.73641 -1.25642 0
M  V30 8714 H 808.611 4.95123 -1.17177 0
M  V30 8715 H 808.009 5.29514 1.99077 0
M  V30 8716 H 806.566 6.2257 1.93002 0
M  V30 8717 N 809.999 0.752036 1.385 0
M  V30 8718 C 811.41 0.375385 1.82887 0
M  V30 8719 C 811.761 -1.09575 1.62751 0
M  V30 8720 O 810.886 -1.84685 1.12785 0
M  V30 8721 C 811.481 0.674563 3.32017 0
M  V30 8722 C 810.04 0.351208 3.74758 0
M  V30 8723 C 809.187 0.928531 2.61292 0
M  V30 8724 H 812.138 0.948313 1.27251 0
M  V30 8725 H 812.159 -0.0477781 3.8047 0
M  V30 8726 H 811.671 1.74533 3.46641 0
M  V30 8727 H 809.772 -0.713042 3.65714 0
M  V30 8728 H 809.885 0.845675 4.71577 0
M  V30 8729 H 808.249 0.354012 2.52228 0
M  V30 8730 H 809.032 2.0043 2.78716 0
M  V30 8731 N 811.477 -1.49425 0.500989 0
M  V30 8732 C 812.427 -2.26061 -0.296698 0
M  V30 8733 C 813.411 -1.30906 -0.935541 0
M  V30 8734 O 814.603 -1.55628 -0.843142 0
M  V30 8735 C 811.732 -3.15189 -1.36055 0
M  V30 8736 C 810.818 -4.17806 -0.727952 0
M  V30 8737 N 811.209 -5.05516 0.169408 0
M  V30 8738 C 809.507 -4.34907 -0.988535 0
M  V30 8739 C 810.208 -5.79267 0.531509 0
M  V30 8740 N 809.184 -5.43507 -0.100564 0
M  V30 8741 H 812.986 -2.91246 0.394103 0
M  V30 8742 H 810.5 -1.59275 0.317065 0
M  V30 8743 H 812.497 -3.68724 -1.94547 0
M  V30 8744 H 811.157 -2.51556 -2.05303 0
M  V30 8745 H 812.168 -5.15075 0.540218 0
M  V30 8746 H 808.845 -3.82481 -1.67376 0
M  V30 8747 H 810.235 -6.59872 1.26564 0
M  V30 8748 N 812.955 -0.234822 -1.55841 0
M  V30 8749 C 814.204 0.393685 -1.97821 0
M  V30 8750 C 814.517 1.59947 -1.1259 0
M  V30 8751 O 815.723 2.29835 -1.44528 0
M  V30 8752 C 814.179 0.751811 -3.5196 0
M  V30 8753 C 813.787 -0.431898 -4.45913 0
M  V30 8754 C 815.531 1.34518 -4.02623 0
M  V30 8755 C 813.438 -0.0505976 -5.91378 0
M  V30 8756 H 812.368 0.150864 -0.738753 0
M  V30 8757 H 815.019 -0.333132 -1.80451 0
M  V30 8758 H 813.401 1.53642 -3.6498 0
M  V30 8759 H 814.575 -1.20935 -4.44647 0
M  V30 8760 H 812.89 -0.939385 -4.05666 0
M  V30 8761 H 815.487 1.64359 -5.08813 0
M  V30 8762 H 815.83 2.26554 -3.49255 0
M  V30 8763 H 816.363 0.623729 -3.9288 0
M  V30 8764 H 813.102 -0.937779 -6.48757 0
M  V30 8765 H 812.622 0.690898 -5.95808 0
M  V30 8766 H 814.301 0.37146 -6.45933 0
M  V30 8767 N 814.433 1.57553 0.0384317 0
M  V30 8768 C 815.681 1.88468 0.729672 0
M  V30 8769 C 816.002 0.831302 1.76393 0
M  V30 8770 O 815.272 -0.13622 1.95426 0
M  V30 8771 H 813.852 0.695529 0.272485 0
M  V30 8772 H 816.514 1.94899 0.0066032 0
M  V30 8773 H 815.61 2.8705 1.22511 0
M  V30 8774 N 815.911 -0.310526 1.54511 0
M  V30 8775 C 816.841 -1.38757 1.878 0
M  V30 8776 C 817.822 -1.53353 0.735991 0
M  V30 8777 O 819.007 -1.67018 0.990887 0
M  V30 8778 C 816.137 -2.75327 2.11689 0
M  V30 8779 C 815.091 -2.75506 3.27537 0
M  V30 8780 C 814.417 -4.15275 3.36824 0
M  V30 8781 C 815.717 -2.38093 4.64875 0
M  V30 8782 H 817.411 -1.11146 2.78005 0
M  V30 8783 H 814.957 -0.533232 1.33763 0
M  V30 8784 H 816.91 -3.50752 2.33562 0
M  V30 8785 H 815.634 -3.04443 1.18245 0
M  V30 8786 H 814.293 -2.02538 3.05572 0
M  V30 8787 H 813.941 -4.41553 2.40915 0
M  V30 8788 H 813.641 -4.16299 4.14692 0
M  V30 8789 H 815.165 -4.92493 3.60947 0
M  V30 8790 H 816.579 -3.03232 4.86542 0
M  V30 8791 H 814.976 -2.50345 5.45387 0
M  V30 8792 H 816.046 -1.33227 4.66239 0
M  V30 8793 N 817.389 -1.46805 -0.573248 0
M  V30 8794 C 818.617 -1.56191 -1.3569 0
M  V30 8795 C 819.032 -0.206362 -1.87669 0
M  V30 8796 O 818.389 0.797883 -1.64134 0
M  V30 8797 C 818.44 -2.57433 -2.53792 0
M  V30 8798 O 818.161 -3.87724 -2.03965 0
M  V30 8799 C 819.662 -2.76851 -3.4622 0
M  V30 8800 H 816.882 -0.527907 -0.414192 0
M  V30 8801 H 819.426 -1.92292 -0.695989 0
M  V30 8802 H 817.581 -2.24311 -3.15854 0
M  V30 8803 H 817.995 -4.42909 -2.80948 0
M  V30 8804 H 819.469 -3.5159 -4.25545 0
M  V30 8805 H 819.946 -1.84095 -3.98755 0
M  V30 8806 H 820.552 -3.11107 -2.89987 0
M  V30 8807 N 818.867 0.818669 -1.34668 0
M  V30 8808 C 820.116 1.57017 -1.26604 0
M  V30 8809 C 820.429 1.94936 0.161036 0
M  V30 8810 O 821.635 2.69051 0.36386 0
M  V30 8811 C 820.091 2.83305 -2.2196 0
M  V30 8812 C 819.699 2.52671 -3.69948 0
M  V30 8813 C 821.443 3.61324 -2.22813 0
M  V30 8814 C 819.35 3.75178 -4.5716 0
M  V30 8815 H 818.28 0.589323 -0.470335 0
M  V30 8816 H 820.931 0.900956 -1.59859 0
M  V30 8817 H 819.313 3.51874 -1.81661 0
M  V30 8818 H 820.487 1.92186 -4.18809 0
M  V30 8819 H 818.802 1.8792 -3.71584 0
M  V30 8820 H 821.399 4.52294 -2.85192 0
M  V30 8821 H 821.742 3.97759 -1.22857 0
M  V30 8822 H 822.275 2.99703 -2.61578 0
M  V30 8823 H 819.014 3.43861 -5.58068 0
M  V30 8824 H 818.534 4.34931 -4.13031 0
M  V30 8825 H 820.213 4.42542 -4.71981 0
M  V30 8826 N 820.346 1.18468 1.03938 0
M  V30 8827 C 821.296 0.880799 2.103 0
M  V30 8828 C 822.28 -0.150008 1.60199 0
M  V30 8829 O 823.472 0.054213 1.76917 0
M  V30 8830 C 820.601 0.409723 3.40846 0
M  V30 8831 C 819.687 1.47267 3.9771 0
M  V30 8832 N 820.078 2.68945 4.28371 0
M  V30 8833 C 818.376 1.33349 4.25598 0
M  V30 8834 C 819.077 3.37341 4.73894 0
M  V30 8835 N 818.053 2.64725 4.74786 0
M  V30 8836 H 821.855 1.80574 2.31884 0
M  V30 8837 H 819.369 1.07527 1.21703 0
M  V30 8838 H 821.366 0.17352 4.16539 0
M  V30 8839 H 820.026 -0.508862 3.20688 0
M  V30 8840 H 821.037 3.05801 4.17978 0
M  V30 8841 H 817.714 0.477548 4.1476 0
M  V30 8842 H 819.104 4.41338 5.06627 0
M  V30 8843 N 821.824 -1.22873 0.986916 0
M  V30 8844 C 822.734 -2.28277 0.540978 0
M  V30 8845 C 823.75 -1.69164 -0.407363 0
M  V30 8846 O 824.926 -1.99504 -0.275674 0
M  V30 8847 C 821.991 -3.46404 -0.143181 0
M  V30 8848 C 821.052 -4.20854 0.847375 0
M  V30 8849 C 820.285 -5.33341 0.19577 0
M  V30 8850 O 820.508 -5.61356 -1.0117 0
M  V30 8851 O 819.442 -5.95169 0.897623 0
M  V30 8852 H 823.268 -2.68578 1.41773 0
M  V30 8853 H 820.853 -1.28927 0.754867 0
M  V30 8854 H 822.735 -4.18096 -0.526676 0
M  V30 8855 H 821.41 -3.08041 -0.994593 0
M  V30 8856 H 820.317 -3.51459 1.28169 0
M  V30 8857 H 821.65 -4.63082 1.6678 0
M  V30 8858 N 823.302 -0.75937 -1.38099 0
M  V30 8859 C 824.527 -0.327859 -2.04792 0
M  V30 8860 C 824.952 1.03752 -1.56899 0
M  V30 8861 O 824.31 1.66235 -0.723581 0
M  V30 8862 C 824.358 -0.366264 -3.58735 0
M  V30 8863 O 823.462 0.637697 -4.0744 0
M  V30 8864 H 822.803 -0.144092 -0.648177 0
M  V30 8865 H 825.333 -1.03211 -1.7666 0
M  V30 8866 H 825.343 -0.219179 -4.07411 0
M  V30 8867 H 824.018 -1.36243 -3.92951 0
M  V30 8868 H 822.595 0.454749 -3.70117 0
M  V30 8869 N 824.78 1.49157 -0.508906 0
M  V30 8870 C 826.008 2.06879 0.0293734 0
M  V30 8871 C 826.423 1.36823 1.30095 0
M  V30 8872 O 825.78 0.449034 1.7689 0
M  V30 8873 C 825.831 3.60423 0.278791 0
M  V30 8874 O 825.552 4.27844 -0.942389 0
M  V30 8875 C 827.053 4.34881 0.859825 0
M  V30 8876 H 824.273 0.67057 -0.0240184 0
M  V30 8877 H 826.817 1.91834 -0.708526 0
M  V30 8878 H 824.972 3.75145 0.966689 0
M  V30 8879 H 825.386 5.19671 -0.710097 0
M  V30 8880 H 826.86 5.43161 0.983884 0
M  V30 8881 H 827.337 3.9789 1.85958 0
M  V30 8882 H 827.943 4.24785 0.209152 0
M  V30 8883 N 826.258 0.243083 1.55714 0
M  V30 8884 C 827.206 -0.674349 2.2261 0
M  V30 8885 C 828.2 -1.18307 1.21243 0
M  V30 8886 O 829.406 -1.1404 1.39265 0
M  V30 8887 H 825.781 -0.235941 0.714028 0
M  V30 8888 H 827.752 -0.0869446 2.98273 0
M  V30 8889 C 826.501 -1.86206 2.93637 0
M  V30 8890 H 825.824 -1.47975 3.71407 0
M  V30 8891 H 827.264 -2.4813 3.43813 0
M  V30 8892 C 825.723 -2.73084 1.97298 0
M  V30 8893 O 826.253 -3.72497 1.50361 0
M  V30 8894 N 824.459 -2.39571 1.64482 0
M  V30 8895 H 824.006 -1.5878 2.02846 0
M  V30 8896 H 823.964 -2.97976 1.00288 0
M  V30 8897 N 827.736 -1.57571 -0.0300757 0
M  V30 8898 C 828.683 -2.06492 -1.03101 0
M  V30 8899 C 829.653 -0.953862 -1.3598 0
M  V30 8900 O 830.838 -1.22436 -1.46335 0
M  V30 8901 C 827.978 -2.54826 -2.32718 0
M  V30 8902 C 827.091 -3.79718 -2.06006 0
M  V30 8903 C 826.226 -4.16668 -3.29487 0
M  V30 8904 C 825.265 -5.3448 -2.98324 0
M  V30 8905 N 824.402 -5.66867 -4.14254 0
M  V30 8906 H 829.242 -2.91755 -0.606877 0
M  V30 8907 H 826.779 -1.44252 -0.288038 0
M  V30 8908 H 828.737 -2.80916 -3.08451 0
M  V30 8909 H 827.367 -1.72481 -2.72856 0
M  V30 8910 H 826.419 -3.60718 -1.20774 0
M  V30 8911 H 827.731 -4.65569 -1.79017 0
M  V30 8912 H 826.885 -4.43881 -4.13588 0
M  V30 8913 H 825.624 -3.29466 -3.59588 0
M  V30 8914 H 824.629 -5.07021 -2.12625 0
M  V30 8915 H 825.854 -6.23334 -2.69502 0
M  V30 8916 H 823.8 -4.82625 -4.44308 0
M  V30 8917 H 823.717 -6.47226 -3.90685 0
M  V30 8918 H 824.985 -5.98656 -4.99231 0
M  V30 8919 N 829.214 0.302327 -1.54673 0
M  V30 8920 C 830.491 1.05721 -1.64567 0
M  V30 8921 C 830.871 2.0526 -0.493108 0
M  V30 8922 O 830.219 2.22729 0.510315 0
M  V30 8923 C 830.429 1.74025 -3.02517 0
M  V30 8924 C 831.777 2.26271 -3.59286 0
M  V30 8925 O 832.801 1.8406 -3.0496 0
M  V30 8926 O 831.66 3.0361 -4.54404 0
M  V30 8927 H 828.754 0.488577 -0.667249 0
M  V30 8928 H 831.3 0.300521 -1.67018 0
M  V30 8929 H 830.072 1.0174 -3.77842 0
M  V30 8930 H 829.695 2.56454 -3.03838 0
M  V30 8931 N 830.692 1.47107 0.565454 0
M  V30 8932 C 831.602 1.61591 1.70075 0
M  V30 8933 C 832.618 0.498931 1.66693 0
M  V30 8934 O 833.794 0.765372 1.8629 0
M  V30 8935 C 830.859 1.61887 3.06583 0
M  V30 8936 C 829.92 2.84949 3.21096 0
M  V30 8937 C 829.153 2.85221 4.51093 0
M  V30 8938 O 829.376 1.94959 5.36048 0
M  V30 8939 O 828.31 3.76982 4.69221 0
M  V30 8940 H 832.136 2.57638 1.60799 0
M  V30 8941 H 829.721 1.30097 0.73451 0
M  V30 8942 H 831.603 1.64809 3.87835 0
M  V30 8943 H 830.278 0.69005 3.16259 0
M  V30 8944 H 829.185 2.87575 2.39273 0
M  V30 8945 H 830.518 3.77098 3.1632 0
M  V30 8946 N 832.17 -0.811516 1.35101 0
M  V30 8947 C 833.416 -1.57068 1.28287 0
M  V30 8948 C 833.749 -1.93667 -0.143808 0
M  V30 8949 O 833.024 -1.60953 -1.09199 0
M  V30 8950 C 833.307 -2.86259 2.18466 0
M  V30 8951 C 833.16 -2.56168 3.69727 0
M  V30 8952 C 834.479 -3.87924 2.07852 0
M  V30 8953 H 831.598 -0.569869 0.467353 0
M  V30 8954 H 834.24 -0.934023 1.65457 0
M  V30 8955 H 832.39 -3.4059 1.86898 0
M  V30 8956 H 834.062 -2.08059 4.11715 0
M  V30 8957 H 832.305 -1.89436 3.90252 0
M  V30 8958 H 832.976 -3.48344 4.28206 0
M  V30 8959 H 835.452 -3.4298 2.35593 0
M  V30 8960 H 834.328 -4.76106 2.73157 0
M  V30 8961 H 834.589 -4.2923 1.05896 0
M  V30 8962 N 833.648 -1.19017 -1.03309 0
M  V30 8963 C 834.896 -0.988258 -1.76289 0
M  V30 8964 C 835.217 0.482557 -1.88935 0
M  V30 8965 O 834.487 1.34969 -1.41987 0
M  V30 8966 H 833.067 -0.36267 -0.653054 0
M  V30 8967 H 835.729 -1.49836 -1.2464 0
M  V30 8968 H 834.825 -1.43273 -2.77271 0
M  V30 8969 N 835.127 1.22348 -0.993418 0
M  V30 8970 C 836.538 1.72893 -0.704616 0
M  V30 8971 C 836.889 1.80095 0.778483 0
M  V30 8972 O 836.014 1.4476 1.60853 0
M  V30 8973 C 836.609 3.14 -1.27237 0
M  V30 8974 C 835.168 3.61949 -1.03294 0
M  V30 8975 C 834.315 2.39816 -1.39225 0
M  V30 8976 H 837.266 1.07688 -1.16572 0
M  V30 8977 H 837.287 3.74886 -0.651212 0
M  V30 8978 H 836.799 3.08727 -2.3518 0
M  V30 8979 H 834.9 3.72588 0.0298329 0
M  V30 8980 H 835.013 4.48051 -1.69668 0
M  V30 8981 H 833.377 2.41448 -0.810849 0
M  V30 8982 H 834.16 2.37203 -2.48172 0
M  V30 8983 N 836.605 0.766683 1.37694 0
M  V30 8984 C 837.535 0.163432 2.32927 0
M  V30 8985 C 838.516 -0.688861 1.55527 0
M  V30 8986 O 839.701 -0.627363 1.83787 0
M  V30 8987 C 836.831 -0.720416 3.39746 0
M  V30 8988 C 835.785 0.0301718 4.27989 0
M  V30 8989 C 835.111 -0.972788 5.25776 0
M  V30 8990 C 836.411 1.20623 5.0818 0
M  V30 8991 H 838.105 0.958988 2.83626 0
M  V30 8992 H 835.651 0.462601 1.36367 0
M  V30 8993 H 837.604 -1.15221 4.05342 0
M  V30 8994 H 836.328 -1.54844 2.8756 0
M  V30 8995 H 834.987 0.442685 3.63917 0
M  V30 8996 H 834.635 -1.79522 4.69873 0
M  V30 8997 H 834.335 -0.475145 5.85676 0
M  V30 8998 H 835.859 -1.40362 5.94248 0
M  V30 8999 H 837.273 0.851341 5.66944 0
M  V30 9000 H 835.67 1.63561 5.7738 0
M  V30 9001 H 836.74 2.01281 4.41151 0
M  V30 9002 N 838.083 -1.48885 0.516809 0
M  V30 9003 C 839.03 -2.29408 -0.253125 0
M  V30 9004 C 840 -1.36533 -0.945935 0
M  V30 9005 O 841.185 -1.65495 -0.949527 0
M  V30 9006 C 838.325 -3.19592 -1.30211 0
M  V30 9007 C 837.438 -4.27535 -0.61948 0
M  V30 9008 C 836.573 -5.04916 -1.65026 0
M  V30 9009 C 835.612 -6.04677 -0.950368 0
M  V30 9010 N 834.749 -6.75164 -1.92608 0
M  V30 9011 H 839.589 -2.94738 0.439744 0
M  V30 9012 H 837.126 -1.45311 0.2287 0
M  V30 9013 H 839.084 -3.70267 -1.92245 0
M  V30 9014 H 837.714 -2.56213 -1.96353 0
M  V30 9015 H 836.766 -3.80228 0.114505 0
M  V30 9016 H 838.078 -4.98752 -0.0693016 0
M  V30 9017 H 837.232 -5.59539 -2.34523 0
M  V30 9018 H 835.971 -4.33508 -2.23432 0
M  V30 9019 H 834.976 -5.4927 -0.241252 0
M  V30 9020 H 836.201 -6.78077 -0.372599 0
M  V30 9021 H 834.147 -6.06517 -2.49946 0
M  V30 9022 H 834.064 -7.4241 -1.42699 0
M  V30 9023 H 835.332 -7.34384 -2.61345 0
M  V30 9024 N 839.561 -0.251338 -1.55583 0
M  V30 9025 C 840.508 0.646337 -2.21565 0
M  V30 9026 C 841.478 1.16796 -1.18102 0
M  V30 9027 O 842.663 1.22162 -1.46564 0
M  V30 9028 C 839.803 1.83557 -2.92234 0
M  V30 9029 C 838.916 1.35006 -4.10363 0
M  V30 9030 C 838.051 2.4992 -4.68736 0
M  V30 9031 C 837.09 1.98253 -5.79105 0
M  V30 9032 N 836.227 3.06551 -6.31642 0
M  V30 9033 H 841.067 0.0769881 -2.97901 0
M  V30 9034 H 838.604 0.026238 -1.47077 0
M  V30 9035 H 840.562 2.53425 -3.31408 0
M  V30 9036 H 839.192 2.37733 -2.18364 0
M  V30 9037 H 838.244 0.545274 -3.76472 0
M  V30 9038 H 839.556 0.931435 -4.90026 0
M  V30 9039 H 838.71 3.27823 -5.10507 0
M  V30 9040 H 837.449 2.95086 -3.88298 0
M  V30 9041 H 836.454 1.18822 -5.36807 0
M  V30 9042 H 837.679 1.54051 -6.61396 0
M  V30 9043 H 835.625 3.51143 -5.54107 0
M  V30 9044 H 835.542 2.69033 -7.06511 0
M  V30 9045 H 836.81 3.84499 -6.78071 0
M  V30 9046 N 841.039 1.57585 0.0217189 0
M  V30 9047 C 841.986 2.07036 1.02004 0
M  V30 9048 C 842.956 0.96106 1.35473 0
M  V30 9049 O 844.141 1.23211 1.45684 0
M  V30 9050 C 841.281 2.56056 2.31364 0
M  V30 9051 C 840.394 3.80805 2.03989 0
M  V30 9052 C 839.529 4.18409 3.27272 0
M  V30 9053 C 838.568 5.36055 2.95486 0
M  V30 9054 N 837.705 5.69056 4.11242 0
M  V30 9055 H 842.545 2.92073 0.591396 0
M  V30 9056 H 840.082 1.44403 0.280384 0
M  V30 9057 H 842.04 2.82548 3.06957 0
M  V30 9058 H 840.67 1.73925 2.71937 0
M  V30 9059 H 839.722 3.61354 1.1886 0
M  V30 9060 H 841.034 4.66512 1.76546 0
M  V30 9061 H 840.188 4.46068 4.11228 0
M  V30 9062 H 838.927 3.31369 3.57835 0
M  V30 9063 H 837.932 5.08142 2.09933 0
M  V30 9064 H 839.157 6.24755 2.66193 0
M  V30 9065 H 837.103 4.84974 4.41742 0
M  V30 9066 H 837.02 6.49288 3.87247 0
M  V30 9067 H 838.288 6.01295 4.96049 0
M  V30 9068 N 842.517 -0.29412 1.54831 0
M  V30 9069 C 843.766 -1.02614 1.73647 0
M  V30 9070 C 844.079 -1.88193 0.533162 0
M  V30 9071 O 845.285 -2.64713 0.603275 0
M  V30 9072 C 843.741 -1.87417 3.07251 0
M  V30 9073 C 843.349 -1.06806 4.35082 0
M  V30 9074 C 845.093 -2.60176 3.35423 0
M  V30 9075 C 843 -1.90926 5.59733 0
M  V30 9076 H 841.93 -0.386834 0.647206 0
M  V30 9077 H 844.581 -0.282789 1.81308 0
M  V30 9078 H 842.963 -2.65765 2.93572 0
M  V30 9079 H 844.137 -0.330226 4.59615 0
M  V30 9080 H 842.452 -0.455979 4.13896 0
M  V30 9081 H 845.049 -3.23476 4.25755 0
M  V30 9082 H 845.392 -3.29365 2.54606 0
M  V30 9083 H 845.925 -1.88871 3.50103 0
M  V30 9084 H 842.664 -1.26194 6.43238 0
M  V30 9085 H 842.184 -2.62363 5.39375 0
M  V30 9086 H 843.863 -2.48807 5.97247 0
M  V30 9087 N 843.995 -1.47404 -0.557645 0
M  V30 9088 C 844.943 -1.60265 -1.68576 0
M  V30 9089 C 845.937 -0.469982 -1.6275 0
M  V30 9090 O 847.143 -0.647764 -1.67941 0
M  V30 9091 H 843.518 -0.504353 -0.557792 0
M  V30 9092 H 845.489 -2.55066 -1.54867 0
M  V30 9093 C 844.238 -1.63369 -3.0693 0
M  V30 9094 H 843.561 -2.49874 -3.12095 0
M  V30 9095 H 845.001 -1.76417 -3.85556 0
M  V30 9096 C 843.46 -0.366921 -3.34896 0
M  V30 9097 O 843.99 0.53218 -3.98159 0
M  V30 9098 N 842.196 -0.247082 -2.89548 0
M  V30 9099 H 841.743 -0.979669 -2.38244 0
M  V30 9100 H 841.701 0.599552 -3.0863 0
M  V30 9101 N 845.473 0.80434 -1.35529 0
M  V30 9102 C 846.721 1.55845 -1.28673 0
M  V30 9103 C 847.042 1.94511 0.137976 0
M  V30 9104 O 846.312 1.63775 1.07492 0
M  V30 9105 H 844.892 0.577931 -0.473291 0
M  V30 9106 H 847.554 0.959293 -1.69657 0
M  V30 9107 H 846.65 2.47285 -1.90411 0
M  V30 9108 N 846.951 1.19563 1.02676 0
M  V30 9109 C 848.179 1.02488 1.79732 0
M  V30 9110 C 848.594 -0.426302 1.83924 0
M  V30 9111 O 847.951 -1.29609 1.28483 0
M  V30 9112 C 848.002 1.58944 3.24683 0
M  V30 9113 O 847.723 2.98382 3.2078 0
M  V30 9114 C 849.224 1.46681 4.1833 0
M  V30 9115 H 846.444 0.361098 0.565552 0
M  V30 9116 H 848.988 1.58426 1.29311 0
M  V30 9117 H 847.143 1.0715 3.72287 0
M  V30 9118 H 847.557 3.24983 4.11687 0
M  V30 9119 H 849.031 1.90959 5.17918 0
M  V30 9120 H 849.508 0.417663 4.3721 0
M  V30 9121 H 850.114 1.97616 3.76601 0
M  V30 9122 N 848.429 -1.21819 0.999893 0
M  V30 9123 C 849.675 -1.91035 0.680701 0
M  V30 9124 C 850.008 -1.77582 -0.786021 0
M  V30 9125 O 849.283 -1.14917 -1.56921 0
M  V30 9126 C 849.566 -3.43013 1.0961 0
M  V30 9127 C 849.419 -3.65481 2.6219 0
M  V30 9128 C 850.738 -4.35204 0.654616 0
M  V30 9129 H 847.857 -0.693748 0.248763 0
M  V30 9130 H 850.499 -1.43555 1.24466 0
M  V30 9131 H 848.649 -3.83581 0.616253 0
M  V30 9132 H 850.321 -3.34273 3.17899 0
M  V30 9133 H 848.564 -3.09522 3.03938 0
M  V30 9134 H 849.235 -4.71945 2.86307 0
M  V30 9135 H 851.711 -4.0219 1.06688 0
M  V30 9136 H 850.587 -5.40198 0.973492 0
M  V30 9137 H 850.848 -4.3986 -0.444458 0
M  V30 9138 N 849.908 -0.773975 -1.37286 0
M  V30 9139 C 850.838 -0.175782 -2.32837 0
M  V30 9140 C 851.819 0.680603 -1.5589 0
M  V30 9141 O 853.004 0.617607 -1.84117 0
M  V30 9142 C 850.134 0.702388 -3.40123 0
M  V30 9143 C 849.088 -0.0528687 -4.27967 0
M  V30 9144 C 848.414 0.944891 -5.26285 0
M  V30 9145 C 849.714 -1.23316 -5.07534 0
M  V30 9146 H 851.408 -0.974016 -2.83114 0
M  V30 9147 H 848.954 -0.469826 -1.3612 0
M  V30 9148 H 850.907 1.13069 -4.05947 0
M  V30 9149 H 849.631 1.53316 -2.88378 0
M  V30 9150 H 848.29 -0.461978 -3.63678 0
M  V30 9151 H 847.938 1.77028 -4.70819 0
M  V30 9152 H 847.638 0.444079 -5.8592 0
M  V30 9153 H 849.162 1.37209 -5.94984 0
M  V30 9154 H 850.576 -0.881395 -5.66484 0
M  V30 9155 H 848.973 -1.66621 -5.76504 0
M  V30 9156 H 850.043 -2.03617 -4.40077 0
M  V30 9157 N 851.386 1.48609 -0.524698 0
M  V30 9158 C 852.334 2.31205 0.254398 0
M  V30 9159 C 853.328 1.40894 0.940491 0
M  V30 9160 O 854.534 1.57827 0.865478 0
M  V30 9161 H 850.909 0.745199 0.100907 0
M  V30 9162 H 852.88 2.94804 -0.461876 0
M  V30 9163 C 851.629 3.2282 1.2916 0
M  V30 9164 H 850.952 3.92255 0.773074 0
M  V30 9165 H 852.392 3.83508 1.80825 0
M  V30 9166 C 850.851 2.4406 2.32242 0
M  V30 9167 O 851.381 2.16163 3.3858 0
M  V30 9168 N 849.587 2.05651 2.05319 0
M  V30 9169 H 849.134 2.28539 1.18861 0
M  V30 9170 H 849.092 1.53265 2.74513 0
M  V30 9171 N 852.864 0.259585 1.55447 0
M  V30 9172 C 853.811 -0.634578 2.21905 0
M  V30 9173 C 854.781 -1.16168 1.18719 0
M  V30 9174 O 855.966 -1.21383 1.4721 0
M  V30 9175 C 853.106 -1.82005 2.93203 0
M  V30 9176 C 852.219 -1.32828 4.11073 0
M  V30 9177 C 851.354 -2.47431 4.70055 0
M  V30 9178 C 850.393 -1.95179 5.80148 0
M  V30 9179 N 849.53 -3.03197 6.33258 0
M  V30 9180 H 854.37 -0.0611886 2.97937 0
M  V30 9181 H 851.907 -0.0184378 1.47088 0
M  V30 9182 H 853.865 -2.51664 3.32748 0
M  V30 9183 H 852.495 -2.36571 2.19622 0
M  V30 9184 H 851.547 -0.525301 3.76756 0
M  V30 9185 H 852.859 -0.905435 4.90513 0
M  V30 9186 H 852.013 -3.25111 5.12238 0
M  V30 9187 H 850.752 -2.93023 3.89857 0
M  V30 9188 H 849.757 -1.15974 5.37429 0
M  V30 9189 H 850.982 -1.50541 6.62204 0
M  V30 9190 H 848.928 -3.48199 5.55961 0
M  V30 9191 H 848.845 -2.65282 7.07928 0
M  V30 9192 H 850.113 -3.80898 6.80101 0
M  V30 9193 N 854.342 -1.57594 -0.0133615 0
M  V30 9194 C 855.588 -1.90262 -0.702019 0
M  V30 9195 C 855.921 -0.859219 -1.74158 0
M  V30 9196 O 855.196 0.123778 -1.94106 0
M  V30 9197 C 855.479 -3.3354 -1.35732 0
M  V30 9198 C 855.332 -4.48586 -0.330208 0
M  V30 9199 C 856.651 -3.76004 -2.28712 0
M  V30 9200 H 853.77 -0.691943 -0.253739 0
M  V30 9201 H 856.412 -1.89967 0.0351894 0
M  V30 9202 H 854.562 -3.33921 -1.98567 0
M  V30 9203 H 856.234 -4.6034 0.297433 0
M  V30 9204 H 854.477 -4.32394 0.348926 0
M  V30 9205 H 855.148 -5.45762 -0.827508 0
M  V30 9206 H 857.624 -3.77089 -1.75906 0
M  V30 9207 H 856.5 -4.77032 -2.71535 0
M  V30 9208 H 856.761 -3.09129 -3.16056 0
M  V30 9209 N 855.82 0.285905 -1.54985 0
M  V30 9210 C 856.768 1.37302 -1.87752 0
M  V30 9211 C 857.762 1.51763 -0.752616 0
M  V30 9212 O 858.968 1.53701 -0.936805 0
M  V30 9213 H 855.343 0.458935 -0.59572 0
M  V30 9214 H 857.314 1.0691 -2.78591 0
M  V30 9215 C 856.063 2.72885 -2.15474 0
M  V30 9216 H 855.386 2.62545 -3.01513 0
M  V30 9217 H 856.826 3.47925 -2.42331 0
M  V30 9218 C 855.285 3.22989 -0.958124 0
M  V30 9219 O 855.815 4.01268 -0.186219 0
M  V30 9220 N 854.021 2.80503 -0.759354 0
M  V30 9221 H 853.568 2.16961 -1.38874 0
M  V30 9222 H 853.526 3.14375 0.0396937 0
M  V30 9223 N 857.298 1.47698 0.54982 0
M  V30 9224 C 858.246 1.61156 1.67724 0
M  V30 9225 C 859.24 0.478606 1.62498 0
M  V30 9226 O 860.446 0.656661 1.67595 0
M  V30 9227 H 856.821 0.507304 0.55511 0
M  V30 9228 H 858.792 2.55884 1.53512 0
M  V30 9229 C 857.541 1.64994 3.06059 0
M  V30 9230 H 856.864 2.51525 3.10765 0
M  V30 9231 H 858.304 1.78459 3.84615 0
M  V30 9232 C 856.763 0.384677 3.34697 0
M  V30 9233 O 857.293 -0.511057 3.98436 0
M  V30 9234 N 855.499 0.262434 2.89413 0
M  V30 9235 H 855.046 0.99229 2.37721 0
M  V30 9236 H 855.004 -0.583177 3.08944 0
M  V30 9237 N 858.776 -0.797141 1.35954 0
M  V30 9238 C 860.004 -1.5858 1.32891 0
M  V30 9239 C 860.419 -1.88578 -0.0915564 0
M  V30 9240 O 859.776 -1.49532 -1.04625 0
M  V30 9241 C 859.827 -2.91143 2.14284 0
M  V30 9242 O 859.548 -2.62442 3.50793 0
M  V30 9243 C 861.049 -3.85476 2.18914 0
M  V30 9244 H 858.269 -0.492111 0.456144 0
M  V30 9245 H 860.813 -0.98994 1.78943 0
M  V30 9246 H 858.968 -3.47219 1.71807 0
M  V30 9247 H 859.382 -3.4715 3.93175 0
M  V30 9248 H 860.856 -4.75574 2.80238 0
M  V30 9249 H 861.333 -4.22758 1.19047 0
M  V30 9250 H 861.939 -3.35334 2.61593 0
M  V30 9251 N 860.254 -1.20106 -1.0204 0
M  V30 9252 C 861.164 -0.962051 -2.13967 0
M  V30 9253 C 862.18 0.0808053 -1.73812 0
M  V30 9254 O 863.356 -0.105774 -2.01122 0
M  V30 9255 C 860.421 -0.513108 -3.42882 0
M  V30 9256 C 859.482 -1.62636 -3.97301 0
M  V30 9257 C 858.715 -1.19875 -5.20063 0
M  V30 9258 O 858.938 -0.0658423 -5.70362 0
M  V30 9259 O 857.872 -2.00467 -5.67536 0
M  V30 9260 H 861.698 -1.8991 -2.36998 0
M  V30 9261 H 859.283 -0.984608 -1.12365 0
M  V30 9262 H 861.165 -0.271797 -4.20523 0
M  V30 9263 H 859.84 0.395402 -3.21276 0
M  V30 9264 H 858.747 -1.92192 -3.20957 0
M  V30 9265 H 860.08 -2.51174 -4.23288 0
M  V30 9266 N 861.732 1.21287 -1.00634 0
M  V30 9267 C 862.679 2.23705 -0.567876 0
M  V30 9268 C 863.649 1.61043 0.406753 0
M  V30 9269 O 864.834 1.88289 0.308499 0
M  V30 9270 C 861.974 3.44961 0.097996 0
M  V30 9271 C 861.087 4.22091 -0.919972 0
M  V30 9272 C 860.222 5.30718 -0.226222 0
M  V30 9273 C 859.261 5.99581 -1.23165 0
M  V30 9274 N 858.398 6.99821 -0.565278 0
M  V30 9275 H 863.238 2.60571 -1.44592 0
M  V30 9276 H 860.775 1.28049 -0.724006 0
M  V30 9277 H 862.733 4.1418 0.501097 0
M  V30 9278 H 861.363 3.08818 0.939744 0
M  V30 9279 H 860.415 3.52038 -1.44131 0
M  V30 9280 H 861.727 4.69476 -1.68505 0
M  V30 9281 H 860.881 6.06253 0.232917 0
M  V30 9282 H 859.62 4.84343 0.571247 0
M  V30 9283 H 858.625 5.22816 -1.70128 0
M  V30 9284 H 859.85 6.48042 -2.03022 0
M  V30 9285 H 857.796 6.55656 0.212508 0
M  V30 9286 H 857.713 7.4528 -1.26858 0
M  V30 9287 H 858.981 7.79393 -0.129389 0
M  V30 9288 N 863.21 0.781244 1.36873 0
M  V30 9289 C 864.12 0.174981 2.33947 0
M  V30 9290 C 865.136 -0.668512 1.60645 0
M  V30 9291 O 866.312 -0.586213 1.9268 0
M  V30 9292 C 863.377 -0.686557 3.39834 0
M  V30 9293 C 862.438 0.174489 4.28945 0
M  V30 9294 C 861.671 -0.646024 5.29776 0
M  V30 9295 O 861.894 -1.88254 5.38439 0
M  V30 9296 O 860.828 -0.0502214 6.01879 0
M  V30 9297 H 864.654 0.977382 2.87543 0
M  V30 9298 H 862.239 0.542559 1.392 0
M  V30 9299 H 864.121 -1.1781 4.04597 0
M  V30 9300 H 862.796 -1.46699 2.8855 0
M  V30 9301 H 861.703 0.712604 3.6725 0
M  V30 9302 H 863.036 0.918232 4.83559 0
M  V30 9303 N 864.689 -1.48329 0.532571 0
M  V30 9304 C 865.938 -2.017 -0.00259705 0
M  V30 9305 C 866.251 -1.41469 -1.35077 0
M  V30 9306 O 867.457 -1.86354 -1.97445 0
M  V30 9307 C 865.913 -3.59858 -0.0550179 0
M  V30 9308 C 865.521 -4.29073 1.28842 0
M  V30 9309 C 867.265 -4.21066 -0.538878 0
M  V30 9310 C 865.172 -5.79171 1.19644 0
M  V30 9311 H 864.102 -0.753985 -0.00474081 0
M  V30 9312 H 866.753 -1.70565 0.676739 0
M  V30 9313 H 865.135 -3.87846 -0.799486 0
M  V30 9314 H 866.309 -4.12755 2.04865 0
M  V30 9315 H 864.624 -3.79748 1.70822 0
M  V30 9316 H 867.221 -5.31026 -0.6257 0
M  V30 9317 H 867.564 -3.86559 -1.54525 0
M  V30 9318 H 868.097 -3.97517 0.149984 0
M  V30 9319 H 864.836 -6.18257 2.17805 0
M  V30 9320 H 864.356 -5.97895 0.477609 0
M  V30 9321 H 866.035 -6.40875 0.888186 0
M  V30 9322 N 866.167 -0.267825 -1.55308 0
M  V30 9323 C 867.114 0.6228 -2.22238 0
M  V30 9324 C 868.084 1.15536 -1.19334 0
M  V30 9325 O 869.269 1.206 -1.47852 0
M  V30 9326 C 866.409 1.80447 -2.94164 0
M  V30 9327 C 865.522 1.30646 -4.11771 0
M  V30 9328 C 864.657 2.44935 -4.7136 0
M  V30 9329 C 863.696 1.92099 -5.81175 0
M  V30 9330 N 862.833 2.99834 -6.34857 0
M  V30 9331 H 867.673 0.0453874 -2.97965 0
M  V30 9332 H 865.21 0.0106371 -1.47096 0
M  V30 9333 H 867.168 2.49896 -3.34078 0
M  V30 9334 H 865.798 2.35403 -2.20874 0
M  V30 9335 H 864.85 0.505314 -3.77029 0
M  V30 9336 H 866.162 0.879409 -4.90987 0
M  V30 9337 H 865.316 3.2239 -5.13955 0
M  V30 9338 H 864.055 2.90951 -3.91406 0
M  V30 9339 H 863.06 1.13122 -5.38037 0
M  V30 9340 H 864.285 1.47027 -6.62993 0
M  V30 9341 H 862.231 3.45246 -5.578 0
M  V30 9342 H 862.148 2.61524 -7.09324 0
M  V30 9343 H 863.416 3.77286 -6.82111 0
M  V30 9344 N 867.645 1.57599 0.00500368 0
M  V30 9345 C 868.577 2.04949 1.02609 0
M  V30 9346 C 869.59 0.966507 1.31006 0
M  V30 9347 O 870.779 1.2434 1.2807 0
M  V30 9348 C 867.879 2.43023 2.36206 0
M  V30 9349 C 867.052 3.73993 2.26821 0
M  V30 9350 C 866.111 3.9899 3.43065 0
M  V30 9351 O 865.137 4.69725 3.21477 0
M  V30 9352 N 866.339 3.46496 4.65748 0
M  V30 9353 H 869.104 2.93167 0.622336 0
M  V30 9354 H 866.665 1.60752 0.192488 0
M  V30 9355 H 868.657 2.56863 3.12735 0
M  V30 9356 H 867.227 1.60349 2.68341 0
M  V30 9357 H 866.447 3.70277 1.35235 0
M  V30 9358 H 867.735 4.59865 2.17719 0
M  V30 9359 H 867.133 2.89206 4.86186 0
M  V30 9360 H 865.69 3.65675 5.3956 0
M  V30 9361 N 869.123 -0.277682 1.55134 0
M  V30 9362 C 870.372 -1.00766 1.74726 0
M  V30 9363 C 870.685 -1.87617 0.553092 0
M  V30 9364 O 871.891 -2.64058 0.631318 0
M  V30 9365 C 870.347 -1.84147 3.09221 0
M  V30 9366 C 869.955 -1.02186 4.3619 0
M  V30 9367 C 871.699 -2.56604 3.38164 0
M  V30 9368 C 869.606 -1.84978 5.61727 0
M  V30 9369 H 868.536 -0.379948 0.651273 0
M  V30 9370 H 871.187 -0.263543 1.81598 0
M  V30 9371 H 869.569 -2.62637 2.96375 0
M  V30 9372 H 870.743 -0.281459 4.5994 0
M  V30 9373 H 869.058 -0.412054 4.14356 0
M  V30 9374 H 871.655 -3.18942 4.29162 0
M  V30 9375 H 871.998 -3.26647 2.58085 0
M  V30 9376 H 872.531 -1.85147 3.52087 0
M  V30 9377 H 869.27 -1.19365 6.4454 0
M  V30 9378 H 868.79 -2.56628 5.42128 0
M  V30 9379 H 870.469 -2.42458 5.99853 0
M  V30 9380 N 870.601 -1.47988 -0.541979 0
M  V30 9381 C 871.533 -1.5769 -1.66332 0
M  V30 9382 C 872.546 -0.461994 -1.56107 0
M  V30 9383 O 873.735 -0.732306 -1.62787 0
M  V30 9384 C 870.835 -1.47939 -3.04905 0
M  V30 9385 C 870.008 -2.74263 -3.40733 0
M  V30 9386 C 869.067 -2.58133 -4.58534 0
M  V30 9387 O 868.093 -3.31991 -4.62354 0
M  V30 9388 N 869.295 -1.6696 -5.55972 0
M  V30 9389 H 872.06 -2.54389 -1.5845 0
M  V30 9390 H 869.621 -1.4456 -0.728979 0
M  V30 9391 H 871.613 -1.34861 -3.81569 0
M  V30 9392 H 870.183 -0.592626 -3.06931 0
M  V30 9393 H 869.403 -3.01992 -2.53366 0
M  V30 9394 H 870.691 -3.58094 -3.6145 0
M  V30 9395 H 870.089 -1.06134 -5.55655 0
M  V30 9396 H 868.646 -1.59826 -6.31901 0
M  V30 9397 N 872.079 0.78992 -1.36375 0
M  V30 9398 C 872.989 1.93386 -1.32812 0
M  V30 9399 C 874.005 1.72468 -0.230377 0
M  V30 9400 O 875.181 1.96014 -0.462657 0
M  V30 9401 C 872.246 3.2824 -1.11621 0
M  V30 9402 C 871.307 3.61939 -2.30865 0
M  V30 9403 C 870.54 4.90359 -2.10675 0
M  V30 9404 O 870.763 5.6005 -1.08168 0
M  V30 9405 O 869.697 5.22702 -2.9844 0
M  V30 9406 H 873.523 1.99342 -2.29121 0
M  V30 9407 H 871.108 0.9301 -1.16917 0
M  V30 9408 H 872.99 4.08939 -1.01719 0
M  V30 9409 H 871.665 3.23178 -0.183732 0
M  V30 9410 H 870.572 2.81549 -2.46335 0
M  V30 9411 H 871.905 3.71725 -3.22617 0
M  V30 9412 N 873.557 1.20646 1.01402 0
M  V30 9413 C 874.805 1.01618 1.74695 0
M  V30 9414 C 875.126 -0.452438 1.89679 0
M  V30 9415 O 874.396 -1.32693 1.44116 0
M  V30 9416 H 872.976 0.373013 0.647202 0
M  V30 9417 H 875.638 1.518 1.22241 0
M  V30 9418 H 874.734 1.47666 2.74957 0
M  V30 9419 N 875.035 -1.20752 1.01276 0
M  V30 9420 C 876.282 -1.90021 0.699887 0
M  V30 9421 C 876.61 -1.78604 -0.770113 0
M  V30 9422 O 875.865 -1.16195 -1.57471 0
M  V30 9423 C 876.164 -3.40808 1.07633 0
M  V30 9424 C 875.83 -3.72423 2.54189 0
M  V30 9425 C 874.492 -3.80762 2.94234 0
M  V30 9426 C 876.844 -3.87025 3.49086 0
M  V30 9427 C 874.172 -4.01158 4.28123 0
M  V30 9428 C 876.524 -4.0893 4.82658 0
M  V30 9429 C 875.188 -4.15498 5.22415 0
M  V30 9430 H 874.458 -0.695335 0.256107 0
M  V30 9431 H 877.105 -1.43096 1.27263 0
M  V30 9432 H 875.41 -3.89521 0.421944 0
M  V30 9433 H 877.107 -3.92693 0.811997 0
M  V30 9434 H 873.697 -3.66529 2.22158 0
M  V30 9435 H 877.881 -3.79942 3.19309 0
M  V30 9436 H 873.137 -4.04476 4.58486 0
M  V30 9437 H 877.311 -4.19172 5.56119 0
M  V30 9438 H 874.938 -4.31055 6.26176 0
M  V30 9439 N 876.513 -0.788492 -1.36457 0
M  V30 9440 C 877.46 -0.18435 -2.30063 0
M  V30 9441 C 878.43 0.67128 -1.51931 0
M  V30 9442 O 879.615 0.620152 -1.8044 0
M  V30 9443 C 876.755 0.675596 -3.38422 0
M  V30 9444 C 875.868 -0.198475 -4.31544 0
M  V30 9445 C 875.003 0.667757 -5.26986 0
M  V30 9446 C 874.042 -0.207825 -6.11747 0
M  V30 9447 N 873.179 0.617335 -6.99381 0
M  V30 9448 H 878.019 -0.988056 -2.81143 0
M  V30 9449 H 875.556 -0.498815 -1.38384 0
M  V30 9450 H 877.514 1.18916 -3.99894 0
M  V30 9451 H 876.144 1.44474 -2.88664 0
M  V30 9452 H 875.196 -0.829995 -3.71235 0
M  V30 9453 H 876.508 -0.873163 -4.91098 0
M  V30 9454 H 875.662 1.24716 -5.93743 0
M  V30 9455 H 874.401 1.37607 -4.67884 0
M  V30 9456 H 873.406 -0.799638 -5.43954 0
M  V30 9457 H 874.631 -0.913729 -6.72925 0
M  V30 9458 H 872.577 1.30996 -6.42788 0
M  V30 9459 H 872.494 0.000307255 -7.56 0
M  V30 9460 H 873.762 1.1806 -7.70508 0
M  V30 9461 N 877.991 1.48044 -0.54043 0
M  V30 9462 C 878.924 2.26667 0.264083 0
M  V30 9463 C 879.902 1.32996 0.935456 0
M  V30 9464 O 881.086 1.62354 0.95778 0
M  V30 9465 C 878.213 3.09541 1.37485 0
M  V30 9466 C 877.259 4.18664 0.813792 0
M  V30 9467 S 878.092 5.34503 -0.326536 0
M  V30 9468 C 879.248 6.20939 0.786452 0
M  V30 9469 H 879.481 2.94554 -0.403129 0
M  V30 9470 H 877.014 1.5091 -0.326415 0
M  V30 9471 H 878.972 3.57863 2.01107 0
M  V30 9472 H 877.633 2.41048 2.01382 0
M  V30 9473 H 876.826 4.76316 1.6474 0
M  V30 9474 H 876.428 3.73136 0.254066 0
M  V30 9475 H 878.72 6.56273 1.68262 0
M  V30 9476 H 879.663 7.07667 0.247673 0
M  V30 9477 H 880.071 5.54236 1.07156 0
M  V30 9478 N 879.47 0.276058 1.55163 0
M  V30 9479 C 880.433 -0.597924 2.21263 0
M  V30 9480 C 881.433 -1.0806 1.19078 0
M  V30 9481 O 882.623 -0.980626 1.43977 0
M  V30 9482 C 879.755 -1.82503 2.87933 0
M  V30 9483 H 880.948 -0.0207769 2.99893 0
M  V30 9484 H 878.501 0.0266823 1.56277 0
M  V30 9485 H 879.236 -2.44266 2.13318 0
M  V30 9486 H 879.021 -1.48683 3.62816 0
M  V30 9487 H 880.511 -2.44651 3.38431 0
M  V30 9488 N 880.948 -1.576 0.00335426 0
M  V30 9489 C 882.195 -1.90713 -0.680791 0
M  V30 9490 C 882.523 -0.877263 -1.73592 0
M  V30 9491 O 881.778 0.117497 -1.95347 0
M  V30 9492 C 882.077 -3.3058 -1.35837 0
M  V30 9493 C 881.743 -4.48786 -0.436111 0
M  V30 9494 C 880.405 -4.80855 -0.182195 0
M  V30 9495 C 882.757 -5.20821 0.198677 0
M  V30 9496 C 880.085 -5.8233 0.714747 0
M  V30 9497 C 882.437 -6.23252 1.08351 0
M  V30 9498 C 881.101 -6.53776 1.34658 0
M  V30 9499 H 880.371 -0.697869 -0.249119 0
M  V30 9500 H 883.018 -1.91407 0.0596011 0
M  V30 9501 H 881.323 -3.26026 -2.17289 0
M  V30 9502 H 883.02 -3.53462 -1.89383 0
M  V30 9503 H 879.61 -4.23731 -0.644186 0
M  V30 9504 H 883.794 -4.96298 0.0155259 0
M  V30 9505 H 879.05 -6.04339 0.926529 0
M  V30 9506 H 883.224 -6.78199 1.58172 0
M  V30 9507 H 880.851 -7.32225 2.04328 0
M  V30 9508 N 882.426 0.269451 -1.5528 0
M  V30 9509 C 883.374 1.35303 -1.89198 0
M  V30 9510 C 884.368 1.50956 -0.768671 0
M  V30 9511 O 885.574 1.52699 -0.953054 0
M  V30 9512 H 881.949 0.452591 -0.600554 0
M  V30 9513 H 883.92 1.03949 -2.79709 0
M  V30 9514 C 882.669 2.70585 -2.18356 0
M  V30 9515 H 881.992 2.59332 -3.04281 0
M  V30 9516 H 883.432 3.45335 -2.46007 0
M  V30 9517 C 881.891 3.21954 -0.992327 0
M  V30 9518 O 882.421 4.01048 -0.228769 0
M  V30 9519 N 880.627 2.79682 -0.789062 0
M  V30 9520 H 880.174 2.15475 -1.41167 0
M  V30 9521 H 880.132 3.14399 0.00634776 0
M  V30 9522 N 883.904 1.48273 0.534124 0
M  V30 9523 C 885.181 1.46567 1.29528 0
M  V30 9524 C 885.561 0.17509 2.10373 0
M  V30 9525 O 884.909 -0.843228 2.12372 0
M  V30 9526 C 885.119 2.72519 2.18023 0
M  V30 9527 C 886.467 3.2068 2.78298 0
M  V30 9528 O 887.491 2.73408 2.28313 0
M  V30 9529 O 886.35 4.02924 3.69208 0
M  V30 9530 H 883.444 0.585151 0.584403 0
M  V30 9531 H 885.99 1.60502 0.551119 0
M  V30 9532 H 884.762 3.57965 1.5804 0
M  V30 9533 H 884.385 2.61285 2.99693 0
M  V30 9534 N 885.382 -0.782676 1.36792 0
M  V30 9535 C 886.329 -1.89558 1.31667 0
M  V30 9536 C 887.299 -1.65076 0.184147 0
M  V30 9537 O 888.484 -1.87143 0.371753 0
M  V30 9538 C 885.624 -3.26469 1.11858 0
M  V30 9539 C 884.737 -3.62978 2.34245 0
M  V30 9540 C 883.872 -4.89041 2.07394 0
M  V30 9541 C 882.911 -5.18249 3.25706 0
M  V30 9542 N 882.048 -6.35497 2.98476 0
M  V30 9543 H 886.888 -1.93274 2.26824 0
M  V30 9544 H 884.425 -0.945057 1.12726 0
M  V30 9545 H 886.383 -4.05431 0.983968 0
M  V30 9546 H 885.013 -3.22158 0.203531 0
M  V30 9547 H 884.065 -2.79087 2.58485 0
M  V30 9548 H 885.377 -3.80507 3.22514 0
M  V30 9549 H 884.531 -5.75883 1.90901 0
M  V30 9550 H 883.27 -4.73594 1.16446 0
M  V30 9551 H 882.275 -4.29887 3.4275 0
M  V30 9552 H 883.5 -5.35611 4.1749 0
M  V30 9553 H 881.446 -6.21429 2.10146 0
M  V30 9554 H 881.363 -6.5339 3.80286 0
M  V30 9555 H 882.631 -7.25304 2.85577 0
M  V30 9556 N 886.86 -1.21182 -1.00761 0
M  V30 9557 C 888.137 -0.936297 -1.71735 0
M  V30 9558 C 888.517 0.552585 -2.03739 0
M  V30 9559 O 887.865 1.51672 -1.70903 0
M  V30 9560 C 888.075 -1.81867 -2.97868 0
M  V30 9561 C 889.423 -2.06594 -3.7095 0
M  V30 9562 O 890.447 -1.79194 -3.07844 0
M  V30 9563 O 889.306 -2.5292 -4.84452 0
M  V30 9564 H 886.4 -0.350867 -0.74888 0
M  V30 9565 H 888.946 -1.32098 -1.06527 0
M  V30 9566 H 887.718 -2.82643 -2.70607 0
M  V30 9567 H 887.341 -1.43463 -3.70815 0
M  V30 9568 N 888.338 1.20213 -1.01915 0
M  V30 9569 C 889.586 1.89272 -0.708552 0
M  V30 9570 C 889.907 1.79394 0.76438 0
M  V30 9571 O 889.177 1.198 1.54999 0
M  V30 9572 H 887.757 0.700628 -0.259094 0
M  V30 9573 H 890.419 1.45985 -1.29129 0
M  V30 9574 H 889.515 2.95841 -0.994215 0
M  V30 9575 N 889.816 0.795718 1.36037 0
M  V30 9576 C 891.044 0.383153 2.03321 0
M  V30 9577 C 891.459 -1.00246 1.59988 0
M  V30 9578 O 890.816 -1.64406 0.792265 0
M  V30 9579 C 890.867 0.444467 3.58757 0
M  V30 9580 O 890.588 1.77544 4.00512 0
M  V30 9581 C 892.089 0.0233291 4.43294 0
M  V30 9582 H 889.309 0.157061 0.652359 0
M  V30 9583 H 891.853 1.07632 1.73884 0
M  V30 9584 H 890.008 -0.200341 3.86882 0
M  V30 9585 H 890.422 1.73065 4.95125 0
M  V30 9586 H 891.896 0.117361 5.51875 0
M  V30 9587 H 892.373 -1.03007 4.2695 0
M  V30 9588 H 892.979 0.64087 4.20444 0
M  V30 9589 N 891.294 -1.47756 0.548274 0
M  V30 9590 C 892.542 -2.02089 0.0208542 0
M  V30 9591 C 892.863 -1.42589 -1.33017 0
M  V30 9592 O 892.133 -0.597825 -1.86555 0
M  V30 9593 H 890.713 -0.746985 0.00472023 0
M  V30 9594 H 893.375 -1.81262 0.716257 0
M  V30 9595 H 892.471 -3.12012 -0.0739016 0
M  V30 9596 N 892.772 -0.284283 -1.55015 0
M  V30 9597 C 894.002 0.332465 -2.03907 0
M  V30 9598 C 894.41 1.49331 -1.16177 0
M  V30 9599 O 893.753 1.82851 -0.176395 0
M  V30 9600 C 893.815 0.867193 -3.48884 0
M  V30 9601 C 893.479 -0.166198 -4.56698 0
M  V30 9602 C 894.476 -0.988898 -5.10408 0
M  V30 9603 C 892.161 -0.303081 -5.01385 0
M  V30 9604 C 894.155 -1.93458 -6.07333 0
M  V30 9605 C 891.842 -1.25223 -5.98133 0
M  V30 9606 C 892.84 -2.06647 -6.50988 0
M  V30 9607 O 892.528 -2.99955 -7.45843 0
M  V30 9608 H 892.26 0.0786597 -0.671408 0
M  V30 9609 H 894.814 -0.416871 -2.01125 0
M  V30 9610 H 893.044 1.66676 -3.48935 0
M  V30 9611 H 894.733 1.39802 -3.81065 0
M  V30 9612 H 895.499 -0.89393 -4.76691 0
M  V30 9613 H 891.378 0.320711 -4.59883 0
M  V30 9614 H 894.922 -2.57053 -6.48513 0
M  V30 9615 H 890.819 -1.34798 -6.31268 0
M  V30 9616 H 891.587 -2.94742 -7.6359 0
M  V30 9617 N 894.251 1.57596 -0.0117121 0
M  V30 9618 C 895.497 1.91355 0.671661 0
M  V30 9619 C 895.83 0.886818 1.72769 0
M  V30 9620 O 895.105 -0.0928813 1.94278 0
M  V30 9621 C 895.388 3.35657 1.30409 0
M  V30 9622 C 895.241 4.49055 0.2588 0
M  V30 9623 C 896.56 3.79595 2.22701 0
M  V30 9624 H 893.679 0.695893 0.242698 0
M  V30 9625 H 896.321 1.89887 -0.0654071 0
M  V30 9626 H 894.471 3.37038 1.9323 0
M  V30 9627 H 896.143 4.59809 -0.370631 0
M  V30 9628 H 894.386 4.31785 -0.417672 0
M  V30 9629 H 895.057 5.4701 0.740578 0
M  V30 9630 H 897.533 3.7984 1.69885 0
M  V30 9631 H 896.409 4.81292 2.63912 0
M  V30 9632 H 896.67 3.14118 3.11098 0
M  V30 9633 N 895.729 -0.261212 1.5542 0
M  V30 9634 C 896.954 -1.01341 1.80955 0
M  V30 9635 C 897.379 -1.78711 0.586849 0
M  V30 9636 O 896.737 -1.75266 -0.463837 0
M  V30 9637 C 896.785 -1.93835 3.04073 0
M  V30 9638 O 895.889 -3.02791 2.79985 0
M  V30 9639 H 895.23 -0.289123 0.597749 0
M  V30 9640 H 897.76 -0.286543 2.02584 0
M  V30 9641 H 897.77 -2.3557 3.33123 0
M  V30 9642 H 896.445 -1.36936 3.9271 0
M  V30 9643 H 895.022 -2.65287 2.62063 0
M  V30 9644 N 897.207 -1.48554 -0.526253 0
M  V30 9645 C 898.454 -1.56761 -1.28188 0
M  V30 9646 C 898.782 -0.24315 -1.92974 0
M  V30 9647 O 898.037 0.766883 -1.80048 0
M  V30 9648 C 898.336 -2.65739 -2.38993 0
M  V30 9649 C 898.002 -4.08057 -1.91834 0
M  V30 9650 C 896.664 -4.46792 -1.78691 0
M  V30 9651 C 899.016 -4.9723 -1.56242 0
M  V30 9652 C 896.344 -5.72501 -1.28296 0
M  V30 9653 C 898.696 -6.23432 -1.07309 0
M  V30 9654 C 897.36 -6.6102 -0.927853 0
M  V30 9655 H 896.63 -0.573631 -0.469072 0
M  V30 9656 H 899.277 -1.82287 -0.586842 0
M  V30 9657 H 897.582 -2.34088 -3.14181 0
M  V30 9658 H 899.279 -2.69304 -2.97113 0
M  V30 9659 H 895.869 -3.77469 -2.03016 0
M  V30 9660 H 900.053 -4.67979 -1.65255 0
M  V30 9661 H 895.309 -6.00345 -1.15742 0
M  V30 9662 H 899.483 -6.91923 -0.788412 0
M  V30 9663 H 897.11 -7.58314 -0.535162 0
M  V30 9664 N 898.685 0.775411 -1.37205 0
M  V30 9665 C 899.632 1.88857 -1.32671 0
M  V30 9666 C 900.602 1.64976 -0.192899 0
M  V30 9667 O 901.787 1.86944 -0.381673 0
M  V30 9668 C 898.927 3.25871 -1.13588 0
M  V30 9669 C 898.04 3.61731 -2.36167 0
M  V30 9670 C 897.175 4.87934 -2.09985 0
M  V30 9671 C 896.214 5.16514 -3.2845 0
M  V30 9672 N 895.351 6.33905 -3.01842 0
M  V30 9673 H 900.191 1.92068 -2.27846 0
M  V30 9674 H 897.728 0.939066 -1.13225 0
M  V30 9675 H 899.686 4.04903 -1.00546 0
M  V30 9676 H 898.316 3.22045 -0.220613 0
M  V30 9677 H 897.368 2.77712 -2.59962 0
M  V30 9678 H 898.68 3.78792 -3.24528 0
M  V30 9679 H 897.834 5.74863 -1.93953 0
M  V30 9680 H 896.573 4.7297 -1.18956 0
M  V30 9681 H 895.578 4.28063 -3.45025 0
M  V30 9682 H 896.803 5.33389 -4.20325 0
M  V30 9683 H 894.749 6.20306 -2.13439 0
M  V30 9684 H 894.666 6.51364 -3.83746 0
M  V30 9685 H 895.934 7.23779 -2.8942 0
M  V30 9686 N 900.163 1.21714 1.00117 0
M  V30 9687 C 901.44 0.945391 1.71236 0
M  V30 9688 C 901.82 -0.541772 2.0403 0
M  V30 9689 O 901.168 -1.50763 1.71705 0
M  V30 9690 C 901.378 1.83444 2.96899 0
M  V30 9691 C 902.726 2.08558 3.69849 0
M  V30 9692 O 903.75 1.80824 3.06889 0
M  V30 9693 O 902.609 2.55485 4.83104 0
M  V30 9694 H 899.703 0.354834 0.747009 0
M  V30 9695 H 902.249 1.32661 1.05825 0
M  V30 9696 H 901.021 2.84075 2.69105 0
M  V30 9697 H 900.644 1.45428 3.70049 0
M  V30 9698 N 901.641 -1.19671 1.02551 0
M  V30 9699 C 902.869 -1.93233 0.739513 0
M  V30 9700 C 903.284 -1.75298 -0.701158 0
M  V30 9701 O 902.641 -1.07269 -1.47647 0
M  V30 9702 C 902.692 -3.45085 1.07697 0
M  V30 9703 O 902.413 -3.62441 2.46106 0
M  V30 9704 C 903.914 -4.35776 0.813298 0
M  V30 9705 H 901.134 -0.613905 0.270853 0
M  V30 9706 H 903.678 -1.51909 1.36909 0
M  V30 9707 H 901.833 -3.84255 0.492635 0
M  V30 9708 H 902.247 -4.56337 2.58567 0
M  V30 9709 H 903.721 -5.40941 1.09941 0
M  V30 9710 H 904.198 -4.38474 -0.252359 0
M  V30 9711 H 904.804 -4.02282 1.38021 0
M  V30 9712 N 903.119 -0.802921 -1.35613 0
M  V30 9713 C 904.365 -0.382141 -1.99167 0
M  V30 9714 C 904.698 1.04704 -1.63556 0
M  V30 9715 O 903.973 1.72578 -0.89706 0
M  V30 9716 C 904.256 -0.561493 -3.55695 0
M  V30 9717 C 904.109 -2.03534 -4.01116 0
M  V30 9718 C 905.428 0.0151135 -4.40097 0
M  V30 9719 H 902.547 -0.140322 -0.723518 0
M  V30 9720 H 905.189 -1.01177 -1.6082 0
M  V30 9721 H 903.339 -0.0255083 -3.88492 0
M  V30 9722 H 905.011 -2.63343 -3.78746 0
M  V30 9723 H 903.254 -2.5331 -3.52159 0
M  V30 9724 H 903.925 -2.11173 -5.1001 0
M  V30 9725 H 906.401 -0.442582 -4.1374 0
M  V30 9726 H 905.277 -0.140316 -5.48721 0
M  V30 9727 H 905.538 1.10848 -4.27978 0
M  V30 9728 N 904.597 1.47463 -0.556102 0
M  V30 9729 C 905.843 2.02775 -0.0316806 0
M  V30 9730 C 906.176 1.42967 1.3143 0
M  V30 9731 O 905.451 0.584847 1.85499 0
M  V30 9732 C 905.734 3.60046 0.0625742 0
M  V30 9733 C 905.587 4.30288 -1.31043 0
M  V30 9734 C 906.906 4.33195 0.776553 0
M  V30 9735 H 904.025 0.736886 -0.0129869 0
M  V30 9736 H 906.667 1.75904 -0.718177 0
M  V30 9737 H 904.817 3.83071 0.647231 0
M  V30 9738 H 906.489 4.18607 -1.9382 0
M  V30 9739 H 904.732 3.90685 -1.8854 0
M  V30 9740 H 905.403 5.38861 -1.1972 0
M  V30 9741 H 907.879 4.15156 0.280147 0
M  V30 9742 H 906.755 5.42869 0.81146 0
M  V30 9743 H 907.016 4.02336 1.83244 0
M  V30 9744 N 906.075 0.2925 1.54862 0
M  V30 9745 C 907.486 -0.201841 1.85606 0
M  V30 9746 C 907.837 -1.54093 1.21449 0
M  V30 9747 O 906.962 -2.10327 0.509079 0
M  V30 9748 C 907.557 -0.373011 3.3674 0
M  V30 9749 C 906.116 -0.811574 3.67547 0
M  V30 9750 C 905.263 0.0850583 2.7717 0
M  V30 9751 H 908.214 0.513774 1.50153 0
M  V30 9752 H 908.235 -1.20892 3.60785 0
M  V30 9753 H 907.747 0.601751 3.83407 0
M  V30 9754 H 905.848 -1.79719 3.26392 0
M  V30 9755 H 905.961 -0.636853 4.74848 0
M  V30 9756 H 904.325 -0.434224 2.50971 0
M  V30 9757 H 905.108 1.05602 3.26654 0
M  V30 9758 N 907.553 -1.57587 0.0200696 0
M  V30 9759 C 908.781 -1.95718 -0.670964 0
M  V30 9760 C 909.196 -0.896081 -1.6618 0
M  V30 9761 O 908.553 0.123037 -1.82085 0
M  V30 9762 C 908.604 -3.33904 -1.38529 0
M  V30 9763 O 908.325 -4.35943 -0.434167 0
M  V30 9764 C 909.826 -3.86614 -2.16898 0
M  V30 9765 H 907.046 -0.644819 -0.185606 0
M  V30 9766 H 909.59 -2.04354 0.0771495 0
M  V30 9767 H 907.745 -3.26515 -2.08487 0
M  V30 9768 H 908.159 -5.16001 -0.940378 0
M  V30 9769 H 909.633 -4.85673 -2.62346 0
M  V30 9770 H 910.11 -3.20379 -3.00423 0
M  V30 9771 H 910.716 -3.97243 -1.51916 0
M  V30 9772 N 909.032 0.252966 -1.55557 0
M  V30 9773 C 909.995 1.29645 -1.8901 0
M  V30 9774 C 910.995 1.41378 -0.766096 0
M  V30 9775 O 912.185 1.40183 -1.03414 0
M  V30 9776 C 909.317 2.67504 -2.11316 0
M  V30 9777 H 910.51 1.01202 -2.82309 0
M  V30 9778 H 908.063 0.491977 -1.48355 0
M  V30 9779 H 908.798 3.01095 -1.20466 0
M  V30 9780 H 908.583 2.6037 -2.93172 0
M  V30 9781 H 910.073 3.42861 -2.38403 0
M  V30 9782 N 910.51 1.48831 0.518367 0
M  V30 9783 C 911.758 1.57128 1.27103 0
M  V30 9784 C 912.079 0.252098 1.93364 0
M  V30 9785 O 911.349 -0.727281 1.819 0
M  V30 9786 H 909.929 0.578891 0.472116 0
M  V30 9787 H 912.591 1.85361 0.602262 0
M  V30 9788 H 911.687 2.35838 2.04418 0
M  V30 9789 N 911.988 -0.768124 1.37614 0
M  V30 9790 C 912.935 -1.88151 1.33671 0
M  V30 9791 C 913.905 -1.64871 0.201645 0
M  V30 9792 O 915.09 -1.86739 0.391582 0
M  V30 9793 C 912.23 -3.25264 1.15314 0
M  V30 9794 C 911.343 -3.60473 2.38082 0
M  V30 9795 C 910.478 -4.86814 2.12569 0
M  V30 9796 C 909.517 -5.14765 3.31184 0
M  V30 9797 N 908.654 -6.32295 3.052 0
M  V30 9798 H 913.494 -1.90857 2.28862 0
M  V30 9799 H 911.031 -0.933048 1.13722 0
M  V30 9800 H 912.989 -4.04364 1.02691 0
M  V30 9801 H 911.619 -3.21924 0.237689 0
M  V30 9802 H 910.671 -2.7633 2.61431 0
M  V30 9803 H 911.983 -3.77065 3.26532 0
M  V30 9804 H 911.137 -5.73826 1.96999 0
M  V30 9805 H 909.876 -4.72333 1.21462 0
M  V30 9806 H 908.881 -4.26227 3.4729 0
M  V30 9807 H 910.106 -5.31153 4.23147 0
M  V30 9808 H 908.052 -6.19166 2.16726 0
M  V30 9809 H 907.969 -6.4932 3.87195 0
M  V30 9810 H 909.237 -7.22234 2.93254 0
M  V30 9811 N 913.466 -1.22244 -0.994698 0
M  V30 9812 C 914.694 -1.07218 -1.76952 0
M  V30 9813 C 915.109 0.377388 -1.8499 0
M  V30 9814 O 914.466 1.26157 -1.31874 0
M  V30 9815 C 914.517 -1.67496 -3.20355 0
M  V30 9816 O 914.238 -3.06782 -3.12756 0
M  V30 9817 C 915.739 -1.57721 -4.14294 0
M  V30 9818 H 912.959 -0.375966 -0.555779 0
M  V30 9819 H 915.503 -1.61799 -1.25065 0
M  V30 9820 H 913.658 -1.16982 -3.69315 0
M  V30 9821 H 914.072 -3.35784 -4.02926 0
M  V30 9822 H 915.546 -2.04623 -5.12673 0
M  V30 9823 H 916.023 -0.533434 -4.35949 0
M  V30 9824 H 916.629 -2.07531 -3.71229 0
M  V30 9825 N 914.944 1.19125 -1.03184 0
M  V30 9826 C 916.192 1.8851 -0.728587 0
M  V30 9827 C 916.513 1.80195 0.74531 0
M  V30 9828 O 915.783 1.21437 1.5372 0
M  V30 9829 H 914.363 0.69784 -0.266511 0
M  V30 9830 H 917.025 1.44607 -1.3067 0
M  V30 9831 H 916.121 2.9477 -1.02554 0
M  V30 9832 N 916.422 0.810101 1.35185 0
M  V30 9833 C 917.65 0.404696 2.02903 0
M  V30 9834 C 918.065 -0.985434 1.61042 0
M  V30 9835 O 917.422 -1.63557 0.809658 0
M  V30 9836 C 917.473 0.482493 3.58266 0
M  V30 9837 O 917.194 1.81782 3.98606 0
M  V30 9838 C 918.695 0.070345 4.43244 0
M  V30 9839 H 915.915 0.163972 0.650657 0
M  V30 9840 H 918.459 1.0947 1.72733 0
M  V30 9841 H 916.614 -0.159296 3.87072 0
M  V30 9842 H 917.028 1.78306 4.93262 0
M  V30 9843 H 918.502 0.175888 5.5172 0
M  V30 9844 H 918.979 -0.984724 4.28018 0
M  V30 9845 H 919.585 0.685427 4.1974 0
M  V30 9846 N 917.9 -1.47166 0.563914 0
M  V30 9847 C 918.863 -2.28571 -0.169624 0
M  V30 9848 C 919.863 -1.37331 -0.836467 0
M  V30 9849 O 921.053 -1.59896 -0.6913 0
M  V30 9850 C 918.185 -3.17201 -1.24886 0
M  V30 9851 H 919.378 -2.94896 0.545539 0
M  V30 9852 H 916.931 -1.52966 0.321121 0
M  V30 9853 H 917.666 -2.55582 -1.99621 0
M  V30 9854 H 917.451 -3.84356 -0.775426 0
M  V30 9855 H 918.941 -3.7852 -1.76388 0
M  V30 9856 N 919.378 -0.300708 -1.54705 0
M  V30 9857 C 920.288 0.584996 -2.27189 0
M  V30 9858 C 921.304 1.14866 -1.30697 0
M  V30 9859 O 922.48 1.17351 -1.63679 0
M  V30 9860 C 919.545 1.74076 -2.99831 0
M  V30 9861 C 918.606 1.2112 -4.1186 0
M  V30 9862 C 917.839 2.31188 -4.81028 0
M  V30 9863 O 918.062 3.5108 -4.49554 0
M  V30 9864 O 916.996 1.97897 -5.68437 0
M  V30 9865 H 920.822 -0.00298177 -3.037 0
M  V30 9866 H 918.407 -0.0671802 -1.49249 0
M  V30 9867 H 920.289 2.41413 -3.45395 0
M  V30 9868 H 918.964 2.31535 -2.26215 0
M  V30 9869 H 917.871 0.50357 -3.70695 0
M  V30 9870 H 919.204 0.682046 -4.87452 0
M  V30 9871 N 920.856 1.57574 -0.0284266 0
M  V30 9872 C 922.102 1.92056 0.651327 0
M  V30 9873 C 922.435 0.905092 1.71819 0
M  V30 9874 O 921.71 -0.0722703 1.94366 0
M  V30 9875 C 921.993 3.37021 1.26841 0
M  V30 9876 C 921.846 4.49304 0.211157 0
M  V30 9877 C 923.165 3.81936 2.18662 0
M  V30 9878 H 920.284 0.698428 0.235304 0
M  V30 9879 H 922.926 1.89807 -0.0855435 0
M  V30 9880 H 921.076 3.39068 1.89644 0
M  V30 9881 H 922.748 4.5939 -0.419379 0
M  V30 9882 H 920.991 4.31317 -0.463445 0
M  V30 9883 H 921.662 5.47764 0.682518 0
M  V30 9884 H 924.138 3.8162 1.65847 0
M  V30 9885 H 923.014 4.84064 2.58792 0
M  V30 9886 H 923.275 3.174 3.07749 0
M  V30 9887 N 922.334 -0.244713 1.55689 0
M  V30 9888 C 923.581 -0.972446 1.77622 0
M  V30 9889 C 923.909 -1.85235 0.593137 0
M  V30 9890 O 923.164 -1.91064 -0.423464 0
M  V30 9891 C 923.463 -1.8617 3.05083 0
M  V30 9892 C 923.129 -1.13696 4.3633 0
M  V30 9893 C 921.791 -0.936679 4.71996 0
M  V30 9894 C 924.143 -0.623451 5.17458 0
M  V30 9895 C 921.471 -0.210612 5.86322 0
M  V30 9896 C 923.823 0.0891587 6.32537 0
M  V30 9897 C 922.487 0.300904 6.66821 0
M  V30 9898 H 921.757 -0.355843 0.649967 0
M  V30 9899 H 924.404 -0.242372 1.8996 0
M  V30 9900 H 922.709 -2.6589 2.87767 0
M  V30 9901 H 924.406 -2.4265 3.19253 0
M  V30 9902 H 920.996 -1.30301 4.08313 0
M  V30 9903 H 925.18 -0.765725 4.90357 0
M  V30 9904 H 920.436 -0.0361062 6.11389 0
M  V30 9905 H 924.61 0.494685 6.94641 0
M  V30 9906 H 922.237 0.865466 7.55257 0
M  V30 9907 N 923.813 -1.49104 -0.510467 0
M  V30 9908 C 924.745 -1.61183 -1.6295 0
M  V30 9909 C 925.758 -0.495003 -1.55092 0
M  V30 9910 O 926.947 -0.766671 -1.61197 0
M  V30 9911 C 924.047 -1.54373 -3.01699 0
M  V30 9912 C 923.22 -2.81428 -3.34838 0
M  V30 9913 C 922.279 -2.67802 -4.52956 0
M  V30 9914 O 921.305 -3.41723 -4.55208 0
M  V30 9915 N 922.507 -1.78715 -5.52305 0
M  V30 9916 H 925.272 -2.57693 -1.53018 0
M  V30 9917 H 922.833 -1.46073 -0.698152 0
M  V30 9918 H 924.825 -1.42924 -3.78622 0
M  V30 9919 H 923.395 -0.657597 -3.05605 0
M  V30 9920 H 922.615 -3.07299 -2.46903 0
M  V30 9921 H 923.903 -3.6568 -3.53773 0
M  V30 9922 H 923.301 -1.17897 -5.53278 0
M  V30 9923 H 921.858 -1.73194 -6.28369 0
M  V30 9924 N 925.291 0.760815 -1.38019 0
M  V30 9925 C 926.239 1.89578 -1.34771 0
M  V30 9926 C 927.233 1.67766 -0.234714 0
M  V30 9927 O 928.439 1.75423 -0.403352 0
M  V30 9928 H 924.814 0.623608 -0.420258 0
M  V30 9929 H 926.785 1.89434 -2.30558 0
M  V30 9930 C 925.534 3.26976 -1.18246 0
M  V30 9931 H 924.857 3.44342 -2.03147 0
M  V30 9932 H 926.297 4.06657 -1.20026 0
M  V30 9933 C 924.756 3.36717 0.111145 0
M  V30 9934 O 925.286 3.86607 1.09079 0
M  V30 9935 N 923.492 2.90128 0.165542 0
M  V30 9936 H 923.039 2.49719 -0.632328 0
M  V30 9937 H 922.997 2.97026 1.03067 0
M  V30 9938 N 926.769 1.22769 0.988202 0
M  V30 9939 C 928.017 1.05301 1.725 0
M  V30 9940 C 928.338 -0.412103 1.90596 0
M  V30 9941 O 927.608 -1.29606 1.46898 0
M  V30 9942 H 926.188 0.386658 0.639144 0
M  V30 9943 H 928.85 1.54359 1.18993 0
M  V30 9944 H 927.946 1.53465 2.71763 0
M  V30 9945 N 928.247 -1.18576 1.03814 0
M  V30 9946 C 929.157 -2.25778 0.637311 0
M  V30 9947 C 930.173 -1.7074 -0.335248 0
M  V30 9948 O 931.349 -2.00494 -0.19081 0
M  V30 9949 C 928.414 -3.467 0.00386953 0
M  V30 9950 C 927.475 -4.16881 1.02511 0
M  V30 9951 C 926.708 -5.32031 0.421802 0
M  V30 9952 O 926.931 -5.65142 -0.772699 0
M  V30 9953 O 925.865 -5.90826 1.14925 0
M  V30 9954 H 929.691 -2.62323 1.53037 0
M  V30 9955 H 927.276 -1.25609 0.80887 0
M  V30 9956 H 929.158 -4.19953 -0.348873 0
M  V30 9957 H 927.833 -3.11983 -0.863047 0
M  V30 9958 H 926.74 -3.45707 1.4296 0
M  V30 9959 H 928.073 -4.55592 1.86271 0
M  V30 9960 N 929.725 -0.817259 -1.34754 0
M  V30 9961 C 931.136 -0.462215 -1.80888 0
M  V30 9962 C 931.487 1.01685 -1.67794 0
M  V30 9963 O 930.612 1.79094 -1.21468 0
M  V30 9964 C 931.207 -0.832204 -3.2842 0
M  V30 9965 C 929.766 -0.52961 -3.72655 0
M  V30 9966 C 928.913 -1.05214 -2.56564 0
M  V30 9967 H 931.864 -1.00795 -1.22581 0
M  V30 9968 H 931.885 -0.133804 -3.80265 0
M  V30 9969 H 931.397 -1.90873 -3.37919 0
M  V30 9970 H 929.498 0.537743 -3.68699 0
M  V30 9971 H 929.611 -1.06971 -4.67005 0
M  V30 9972 H 927.975 -0.473949 -2.50251 0
M  V30 9973 H 928.758 -2.135 -2.68836 0
M  V30 9974 N 931.203 1.46865 -0.571711 0
M  V30 9975 C 932.619 1.57897 -0.23255 0
M  V30 9976 C 932.819 1.56836 1.26509 0
M  V30 9977 O 931.875 1.47947 2.04617 0
M  V30 9978 C 933.188 2.87778 -0.872036 0
M  V30 9979 C 934.736 3.01389 -0.844605 0
M  V30 9980 C 935.211 4.33991 -1.46343 0
M  V30 9981 N 936.702 4.40662 -1.42727 0
M  V30 9982 C 937.437 5.41858 -1.87557 0
M  V30 9983 N 936.933 6.49787 -2.4031 0
M  V30 9984 N 938.726 5.32992 -1.7854 0
M  V30 9985 H 930.877 1.45798 -1.54457 0
M  V30 9986 H 933.14 0.694785 -0.644964 0
M  V30 9987 H 932.846 2.94332 -1.92513 0
M  V30 9988 H 932.72 3.75345 -0.373677 0
M  V30 9989 H 935.107 2.94423 0.19984 0
M  V30 9990 H 935.188 2.15327 -1.38087 0
M  V30 9991 H 934.832 4.41714 -2.50701 0
M  V30 9992 H 934.762 5.18809 -0.902479 0
M  V30 9993 H 937.253 3.63263 -1.04155 0
M  V30 9994 H 937.566 7.23199 -2.72403 0
M  V30 9995 H 935.911 6.50637 -2.44329 0
M  V30 9996 H 939.102 4.47575 -1.37093 0
M  V30 9997 H 939.275 6.11716 -2.13794 0
M  V30 9998 N 932.681 0.308908 1.54543 0
M  V30 9999 C 933.927 -0.298478 2.00592 0
M  V30 10000 C 934.26 -1.52929 1.19692 0
M  V30 10001 O 933.535 -1.9254 0.27542 0
M  V30 10002 C 933.818 -0.647218 3.54236 0
M  V30 10003 C 933.671 0.593284 4.4587 0
M  V30 10004 C 934.99 -1.47064 4.14801 0
M  V30 10005 H 932.109 -0.107012 0.72919 0
M  V30 10006 H 934.751 0.422578 1.85241 0
M  V30 10007 H 932.901 -1.26153 3.67447 0
M  V30 10008 H 934.573 1.2317 4.44552 0
M  V30 10009 H 932.816 1.22501 4.16144 0
M  V30 10010 H 933.487 0.305018 5.51157 0
M  V30 10011 H 935.963 -0.951511 4.05075 0
M  V30 10012 H 934.839 -1.68343 5.22448 0
M  V30 10013 H 935.1 -2.4623 3.67183 0
M  V30 10014 N 934.159 -1.57557 0.0367827 0
M  V30 10015 C 935.107 -2.11844 -0.960454 0
M  V30 10016 C 936.101 -1.04681 -1.33185 0
M  V30 10017 O 937.307 -1.23108 -1.31318 0
M  V30 10018 H 933.682 -0.676921 -0.32754 0
M  V30 10019 H 935.653 -2.94557 -0.477346 0
M  V30 10020 C 934.402 -2.66683 -2.23105 0
M  V30 10021 H 933.725 -3.48795 -1.95403 0
M  V30 10022 H 935.165 -3.08305 -2.91074 0
M  V30 10023 C 933.624 -1.59782 -2.96599 0
M  V30 10024 O 934.154 -1.00214 -3.88999 0
M  V30 10025 N 932.36 -1.31644 -2.59072 0
M  V30 10026 H 931.907 -1.80272 -1.8401 0
M  V30 10027 H 931.865 -0.603457 -3.08554 0
M  V30 10028 N 935.637 0.236453 -1.55816 0
M  V30 10029 C 936.862 0.98449 -1.82545 0
M  V30 10030 C 937.287 1.77755 -0.615206 0
M  V30 10031 O 936.645 1.75982 0.435895 0
M  V30 10032 C 936.693 1.88973 -3.07118 0
M  V30 10033 O 935.797 2.98298 -2.84766 0
M  V30 10034 H 935.138 0.279577 -0.602273 0
M  V30 10035 H 937.668 0.254277 -2.03014 0
M  V30 10036 H 937.678 2.3024 -3.36829 0
M  V30 10037 H 936.353 1.30671 -3.94839 0
M  V30 10038 H 934.93 2.61085 -2.6625 0
M  V30 10039 N 937.115 1.49373 0.502552 0
M  V30 10040 C 938.343 1.62488 1.28084 0
M  V30 10041 C 938.758 0.295667 1.86471 0
M  V30 10042 O 938.115 -0.718664 1.67754 0
M  V30 10043 C 938.166 2.69249 2.4122 0
M  V30 10044 O 937.887 3.97014 1.85234 0
M  V30 10045 C 939.388 2.93054 3.32617 0
M  V30 10046 H 936.608 0.547068 0.388533 0
M  V30 10047 H 939.152 1.95394 0.603452 0
M  V30 10048 H 937.307 2.39125 3.04792 0
M  V30 10049 H 937.721 4.55809 2.59496 0
M  V30 10050 H 939.195 3.71493 4.08285 0
M  V30 10051 H 939.672 2.02911 3.89517 0
M  V30 10052 H 940.278 3.24589 2.74813 0
M  V30 10053 N 938.594 -0.753485 1.38421 0
M  V30 10054 C 939.824 -1.54049 1.37669 0
M  V30 10055 C 940.232 -1.89167 -0.0353656 0
M  V30 10056 O 939.575 -1.53285 -1.01239 0
M  V30 10057 C 939.637 -2.86777 2.16793 0
M  V30 10058 C 939.301 -2.74196 3.65603 0
M  V30 10059 C 940.298 -2.43985 4.59094 0
M  V30 10060 C 937.983 -2.91645 4.0896 0
M  V30 10061 C 939.977 -2.31379 5.93921 0
M  V30 10062 C 937.664 -2.78658 5.43868 0
M  V30 10063 C 938.662 -2.48568 6.36163 0
M  V30 10064 O 938.35 -2.3564 7.68589 0
M  V30 10065 H 938.082 -0.483276 0.472673 0
M  V30 10066 H 940.636 -0.940267 1.82615 0
M  V30 10067 H 938.866 -3.48988 1.66565 0
M  V30 10068 H 940.555 -3.48289 2.08446 0
M  V30 10069 H 941.321 -2.30172 4.26902 0
M  V30 10070 H 937.2 -3.14063 3.37469 0
M  V30 10071 H 940.744 -2.07813 6.65927 0
M  V30 10072 H 936.641 -2.92044 5.75656 0
M  V30 10073 H 937.409 -2.50851 7.79112 0
M  V30 10074 N 940.072 -1.23292 -0.981677 0
M  V30 10075 C 941.321 -1.05832 -1.71705 0
M  V30 10076 C 941.634 0.40514 -1.91358 0
M  V30 10077 O 942.84 0.699645 -2.6233 0
M  V30 10078 C 941.296 -1.84532 -3.08992 0
M  V30 10079 C 940.904 -3.35199 -2.9723 0
M  V30 10080 C 942.648 -1.75557 -3.86497 0
M  V30 10081 C 940.555 -4.06296 -4.29741 0
M  V30 10082 H 939.485 -0.39241 -0.64384 0
M  V30 10083 H 942.136 -1.47247 -1.09502 0
M  V30 10084 H 940.518 -1.35923 -3.71942 0
M  V30 10085 H 941.692 -3.91286 -2.43377 0
M  V30 10086 H 940.007 -3.44973 -2.332 0
M  V30 10087 H 942.604 -2.25989 -4.84596 0
M  V30 10088 H 942.947 -0.718101 -4.1006 0
M  V30 10089 H 943.48 -2.21771 -3.30246 0
M  V30 10090 H 940.219 -5.10344 -4.11375 0
M  V30 10091 H 939.739 -3.54997 -4.83464 0
M  V30 10092 H 941.418 -4.12519 -4.98434 0
M  V30 10093 N 941.55 1.18024 -1.04442 0
M  V30 10094 C 942.798 1.87727 -0.74854 0
M  V30 10095 C 943.119 1.80975 0.726156 0
M  V30 10096 O 942.389 1.23061 1.52423 0
M  V30 10097 H 940.969 0.694974 -0.273897 0
M  V30 10098 H 943.631 1.43213 -1.32197 0
M  V30 10099 H 942.727 2.93665 -1.05674 0
M  V30 10100 N 943.028 0.824394 1.34319 0
M  V30 10101 C 944.258 0.425576 2.02169 0
M  V30 10102 C 944.666 -0.973596 1.62227 0
M  V30 10103 O 944.009 -1.64173 0.824199 0
M  V30 10104 C 944.071 0.449902 3.56674 0
M  V30 10105 C 943.735 1.80266 4.19944 0
M  V30 10106 C 944.732 2.76373 4.40357 0
M  V30 10107 C 942.417 2.09155 4.56683 0
M  V30 10108 C 944.411 3.9954 4.96635 0
M  V30 10109 C 942.098 3.32581 5.12672 0
M  V30 10110 C 943.096 4.27591 5.32592 0
M  V30 10111 O 942.784 5.48837 5.87395 0
M  V30 10112 H 942.516 0.168866 0.654569 0
M  V30 10113 H 945.07 1.11441 1.7254 0
M  V30 10114 H 943.3 -0.295631 3.85568 0
M  V30 10115 H 944.989 0.0709302 4.05838 0
M  V30 10116 H 945.755 2.55351 4.12336 0
M  V30 10117 H 941.634 1.36004 4.40481 0
M  V30 10118 H 945.178 4.73709 5.12099 0
M  V30 10119 H 941.075 3.53466 5.40122 0
M  V30 10120 H 941.843 5.50377 6.05828 0
M  V30 10121 N 944.506 -1.46559 0.579492 0
M  V30 10122 C 945.469 -2.28739 -0.145371 0
M  V30 10123 C 946.469 -1.38211 -0.821854 0
M  V30 10124 O 947.659 -1.6062 -0.674302 0
M  V30 10125 C 944.791 -3.18507 -1.21515 0
M  V30 10126 H 945.984 -2.94301 0.576786 0
M  V30 10127 H 943.537 -1.52616 0.337327 0
M  V30 10128 H 944.272 -2.57685 -1.96899 0
M  V30 10129 H 944.057 -3.85157 -0.734616 0
M  V30 10130 H 945.547 -3.80369 -1.72363 0
M  V30 10131 N 945.984 -0.3171 -1.54377 0
M  V30 10132 C 947.395 0.172287 -1.85903 0
M  V30 10133 C 947.746 1.52141 -1.23885 0
M  V30 10134 O 946.871 2.0949 -0.542476 0
M  V30 10135 C 947.466 0.319392 -3.37291 0
M  V30 10136 C 946.025 0.752998 -3.68791 0
M  V30 10137 C 945.172 -0.129143 -2.76999 0
M  V30 10138 H 948.123 -0.537597 -1.49317 0
M  V30 10139 H 948.144 1.15137 -3.62662 0
M  V30 10140 H 947.656 -0.662671 -3.82401 0
M  V30 10141 H 945.757 1.74504 -3.2921 0
M  V30 10142 H 945.87 0.561228 -4.75801 0
M  V30 10143 H 944.234 0.394242 -2.5163 0
M  V30 10144 H 945.017 -1.10785 -3.24933 0
M  V30 10145 N 947.462 1.57535 -0.0451378 0
M  V30 10146 C 948.711 1.91628 0.629415 0
M  V30 10147 C 949.024 0.924754 1.72359 0
M  V30 10148 O 950.23 1.15751 2.45589 0
M  V30 10149 C 948.686 3.40322 1.17084 0
M  V30 10150 C 948.294 4.47867 0.109101 0
M  V30 10151 C 950.038 3.83458 1.82099 0
M  V30 10152 C 947.945 5.87671 0.663072 0
M  V30 10153 H 946.875 0.715163 0.238868 0
M  V30 10154 H 949.526 1.83151 -0.113046 0
M  V30 10155 H 947.908 3.43783 1.96543 0
M  V30 10156 H 949.082 4.55988 -0.664201 0
M  V30 10157 H 947.397 4.14034 -0.443227 0
M  V30 10158 H 949.994 4.85273 2.2453 0
M  V30 10159 H 950.337 3.19379 2.67026 0
M  V30 10160 H 950.87 3.82488 1.09305 0
M  V30 10161 H 947.609 6.55332 -0.148423 0
M  V30 10162 H 947.129 5.83124 1.4045 0
M  V30 10163 H 948.808 6.36737 1.14785 0
M  V30 10164 N 948.94 -0.228186 1.55939 0
M  V30 10165 C 950.217 -0.977492 1.69424 0
M  V30 10166 C 950.597 -2.02674 0.590479 0
M  V30 10167 O 949.945 -2.2491 -0.403467 0
M  V30 10168 C 950.155 -1.59394 3.10475 0
M  V30 10169 C 951.503 -2.08871 3.69673 0
M  V30 10170 O 952.527 -1.693 3.13394 0
M  V30 10171 O 951.386 -2.81584 4.68372 0
M  V30 10172 H 948.48 -0.456185 0.6898 0
M  V30 10173 H 951.026 -0.220492 1.68261 0
M  V30 10174 H 949.798 -0.835971 3.82266 0
M  V30 10175 H 949.421 -2.41665 3.15727 0
M  V30 10176 N 950.418 -1.49637 -0.494624 0
M  V30 10177 C 951.695 -1.4995 -1.25596 0
M  V30 10178 C 952.075 -0.230805 -2.09834 0
M  V30 10179 O 951.423 0.786625 -2.14533 0
M  V30 10180 C 951.633 -2.78204 -2.10721 0
M  V30 10181 C 952.981 -3.27946 -2.69698 0
M  V30 10182 O 954.005 -2.79365 -2.20984 0
M  V30 10183 O 952.864 -4.12571 -3.58395 0
M  V30 10184 H 949.958 -0.60044 -0.568684 0
M  V30 10185 H 952.504 -1.61906 -0.508371 0
M  V30 10186 H 951.276 -3.62029 -1.48494 0
M  V30 10187 H 950.899 -2.69139 -2.92661 0
M  V30 10188 N 951.896 0.746133 -1.38819 0
M  V30 10189 C 953.307 1.32384 -1.31648 0
M  V30 10190 C 953.658 1.96185 0.0243086 0
M  V30 10191 O 952.783 1.95567 0.92641 0
M  V30 10192 C 953.378 2.40712 -2.38418 0
M  V30 10193 C 951.937 2.94185 -2.34803 0
M  V30 10194 C 951.084 1.67639 -2.20891 0
M  V30 10195 H 954.035 0.544457 -1.49068 0
M  V30 10196 H 954.056 3.20833 -2.04564 0
M  V30 10197 H 953.568 1.94247 -3.3599 0
M  V30 10198 H 951.669 3.44959 -1.40834 0
M  V30 10199 H 951.782 3.48057 -3.29231 0
M  V30 10200 H 950.146 1.9155 -1.67871 0
M  V30 10201 H 950.929 1.23242 -3.20416 0
M  V30 10202 N 953.375 1.23811 0.975125 0
M  V30 10203 C 954.322 1.02394 2.06843 0
M  V30 10204 C 955.292 -0.060337 1.6599 0
M  V30 10205 O 956.477 0.0928187 1.90574 0
M  V30 10206 C 953.617 0.626882 3.39359 0
M  V30 10207 C 952.73 1.78385 3.9345 0
M  V30 10208 C 951.865 1.33307 5.14201 0
M  V30 10209 C 950.904 2.46045 5.60471 0
M  V30 10210 N 950.041 2.01888 6.72448 0
M  V30 10211 H 954.881 1.95973 2.24496 0
M  V30 10212 H 952.418 0.976206 1.10039 0
M  V30 10213 H 954.376 0.377742 4.15486 0
M  V30 10214 H 953.006 -0.271907 3.21653 0
M  V30 10215 H 952.058 2.14685 3.14029 0
M  V30 10216 H 953.37 2.63122 4.23755 0
M  V30 10217 H 952.524 1.04237 5.97678 0
M  V30 10218 H 951.263 0.456143 4.85562 0
M  V30 10219 H 950.268 2.75884 4.75571 0
M  V30 10220 H 951.493 3.34283 5.91127 0
M  V30 10221 H 949.439 1.16583 6.45558 0
M  V30 10222 H 949.356 2.80182 7.02164 0
M  V30 10223 H 950.624 1.75937 7.59386 0
M  V30 10224 N 954.853 -1.17469 1.05066 0
M  V30 10225 C 955.783 -2.23635 0.671552 0
M  V30 10226 C 956.764 -1.66867 -0.33006 0
M  V30 10227 O 957.949 -1.93084 -0.207933 0
M  V30 10228 C 955.079 -3.47272 0.0441845 0
M  V30 10229 C 954.033 -4.16854 0.97042 0
M  V30 10230 C 953.359 -5.34299 0.206998 0
M  V30 10231 C 954.659 -4.69225 2.29401 0
M  V30 10232 H 956.353 -2.55602 1.55911 0
M  V30 10233 H 953.899 -1.2286 0.751101 0
M  V30 10234 H 955.852 -4.20756 -0.23282 0
M  V30 10235 H 954.576 -3.14568 -0.878311 0
M  V30 10236 H 953.235 -3.4528 1.23197 0
M  V30 10237 H 952.883 -4.97846 -0.718222 0
M  V30 10238 H 952.583 -5.81792 0.82416 0
M  V30 10239 H 954.107 -6.10568 -0.0627525 0
M  V30 10240 H 955.521 -5.34353 2.077 0
M  V30 10241 H 953.918 -5.27291 2.86503 0
M  V30 10242 H 954.988 -3.86102 2.93348 0
M  V30 10243 N 956.331 -0.831506 -1.3388 0
M  V30 10244 C 957.294 -0.264773 -2.27666 0
M  V30 10245 C 958.294 0.562273 -1.50649 0
M  V30 10246 O 959.484 0.377131 -1.70069 0
M  V30 10247 C 956.616 0.627814 -3.35069 0
M  V30 10248 H 957.809 -1.09225 -2.79303 0
M  V30 10249 H 955.362 -0.604021 -1.44157 0
M  V30 10250 H 956.097 1.47802 -2.88661 0
M  V30 10251 H 955.882 0.0361552 -3.92083 0
M  V30 10252 H 957.372 1.01786 -4.05005 0
M  V30 10253 N 957.809 1.4625 -0.587256 0
M  V30 10254 C 959.056 2.02363 -0.0745746 0
M  V30 10255 C 959.384 1.4582 1.28712 0
M  V30 10256 O 958.639 0.614922 1.85788 0
M  V30 10257 C 958.938 3.57382 0.036328 0
M  V30 10258 C 958.604 4.32985 -1.25837 0
M  V30 10259 C 957.266 4.53358 -1.61306 0
M  V30 10260 C 959.618 4.76361 -2.11494 0
M  V30 10261 C 956.946 5.14361 -2.82223 0
M  V30 10262 C 959.298 5.38699 -3.31641 0
M  V30 10263 C 957.962 5.57299 -3.67388 0
M  V30 10264 H 957.232 0.740497 -0.0272888 0
M  V30 10265 H 959.879 1.75565 -0.764804 0
M  V30 10266 H 958.184 3.83342 0.809712 0
M  V30 10267 H 959.881 3.9848 0.448838 0
M  V30 10268 H 956.471 4.17427 -0.972251 0
M  V30 10269 H 960.655 4.60372 -1.85394 0
M  V30 10270 H 955.911 5.26952 -3.10051 0
M  V30 10271 H 960.085 5.71267 -3.9828 0
M  V30 10272 H 957.712 6.04338 -4.61173 0
M  V30 10273 N 959.287 0.325282 1.54207 0
M  V30 10274 C 960.512 -0.281418 2.05482 0
M  V30 10275 C 960.937 -1.44869 1.19977 0
M  V30 10276 O 960.295 -1.80088 0.209275 0
M  V30 10277 C 960.343 -0.692029 3.53897 0
M  V30 10278 O 959.447 -1.7942 3.71325 0
M  V30 10279 H 958.788 -0.0504872 0.662078 0
M  V30 10280 H 961.318 0.474191 1.99029 0
M  V30 10281 H 961.328 -0.974219 3.96198 0
M  V30 10282 H 960.003 0.161709 4.15586 0
M  V30 10283 H 958.58 -1.51069 3.40929 0
M  V30 10284 N 960.765 -1.57509 0.0534917 0
M  V30 10285 C 962.014 -1.91959 -0.619244 0
M  V30 10286 C 962.327 -0.933882 -1.71866 0
M  V30 10287 O 963.533 -1.17052 -2.44972 0
M  V30 10288 C 961.989 -3.40938 -1.15278 0
M  V30 10289 C 961.597 -4.47919 -0.085348 0
M  V30 10290 C 963.341 -3.84419 -1.80063 0
M  V30 10291 C 961.248 -5.88014 -0.631897 0
M  V30 10292 H 960.178 -0.71642 -0.235072 0
M  V30 10293 H 962.829 -1.83089 0.122758 0
M  V30 10294 H 961.211 -3.44821 -1.94717 0
M  V30 10295 H 962.385 -4.55629 0.688374 0
M  V30 10296 H 960.7 -4.13793 0.465178 0
M  V30 10297 H 963.297 -4.86457 -2.21954 0
M  V30 10298 H 963.64 -3.20791 -2.65328 0
M  V30 10299 H 964.173 -3.83062 -1.07275 0
M  V30 10300 H 960.912 -6.55244 0.183175 0
M  V30 10301 H 960.432 -5.83861 -1.37355 0
M  V30 10302 H 962.111 -6.37336 -1.11407 0
M  V30 10303 N 962.243 0.219913 -1.56058 0
M  V30 10304 C 963.489 0.945463 -1.79412 0
M  V30 10305 C 963.822 1.83922 -0.62341 0
M  V30 10306 O 963.097 1.90806 0.377256 0
M  V30 10307 C 963.38 1.783 -3.1286 0
M  V30 10308 C 963.233 0.915626 -4.40382 0
M  V30 10309 C 964.552 2.76045 -3.42764 0
M  V30 10310 H 961.671 0.342288 -0.652693 0
M  V30 10311 H 964.313 0.214235 -1.88788 0
M  V30 10312 H 962.463 2.40642 -3.04998 0
M  V30 10313 H 964.135 0.30882 -4.60265 0
M  V30 10314 H 962.378 0.221124 -4.33236 0
M  V30 10315 H 963.049 1.53607 -5.30197 0
M  V30 10316 H 965.525 2.23838 -3.50764 0
M  V30 10317 H 964.401 3.31748 -4.37304 0
M  V30 10318 H 964.662 3.53866 -2.65012 0
M  V30 10319 N 963.721 1.49897 0.486681 0
M  V30 10320 C 964.951 1.63599 1.2617 0
M  V30 10321 C 965.359 0.312365 1.86604 0
M  V30 10322 O 964.702 -0.713911 1.6926 0
M  V30 10323 C 964.764 2.65736 2.42125 0
M  V30 10324 C 964.428 4.09711 2.0245 0
M  V30 10325 C 965.425 4.9607 1.55596 0
M  V30 10326 C 963.11 4.55534 2.11647 0
M  V30 10327 C 965.104 6.26295 1.18462 0
M  V30 10328 C 962.791 5.85768 1.74124 0
M  V30 10329 C 963.789 6.70973 1.27608 0
M  V30 10330 O 963.477 7.98778 0.905991 0
M  V30 10331 H 963.209 0.55333 0.388332 0
M  V30 10332 H 965.763 1.96768 0.589195 0
M  V30 10333 H 963.993 2.27778 3.12497 0
M  V30 10334 H 965.682 2.68819 3.04123 0
M  V30 10335 H 966.448 4.61891 1.47925 0
M  V30 10336 H 962.327 3.8937 2.46803 0
M  V30 10337 H 965.871 6.92754 0.820839 0
M  V30 10338 H 961.768 6.19473 1.8145 0
M  V30 10339 H 962.536 8.11914 1.03621 0
M  V30 10340 N 965.199 -0.738761 1.39212 0
M  V30 10341 C 966.427 -1.52801 1.39497 0
M  V30 10342 C 966.842 -1.88797 -0.0114917 0
M  V30 10343 O 966.199 -1.53835 -0.981887 0
M  V30 10344 C 966.25 -2.81793 2.2644 0
M  V30 10345 O 965.971 -2.47328 3.61608 0
M  V30 10346 C 967.472 -3.75844 2.35067 0
M  V30 10347 H 964.692 -0.472322 0.476606 0
M  V30 10348 H 967.236 -0.913153 1.8298 0
M  V30 10349 H 965.391 -3.3962 1.8638 0
M  V30 10350 H 965.805 -3.30162 4.07545 0
M  V30 10351 H 967.279 -4.6326 3.00157 0
M  V30 10352 H 967.756 -4.17329 1.3687 0
M  V30 10353 H 968.362 -3.23937 2.75581 0
M  V30 10354 N 966.677 -1.24326 -0.968545 0
M  V30 10355 C 967.625 -1.03256 -2.08425 0
M  V30 10356 C 968.619 0.0322356 -1.69369 0
M  V30 10357 O 969.825 -0.122251 -1.79584 0
M  V30 10358 H 966.2 -0.31688 -0.681976 0
M  V30 10359 H 968.171 -1.97873 -2.23358 0
M  V30 10360 C 966.92 -0.653144 -3.4151 0
M  V30 10361 H 966.243 -1.46424 -3.72021 0
M  V30 10362 H 967.683 -0.545316 -4.20479 0
M  V30 10363 C 966.142 0.639674 -3.30771 0
M  V30 10364 O 966.672 1.68563 -3.64622 0
M  V30 10365 N 964.878 0.620074 -2.83907 0
M  V30 10366 H 964.425 -0.231449 -2.56558 0
M  V30 10367 H 964.383 1.48528 -2.77104 0
M  V30 10368 N 968.156 1.1691 -1.05688 0
M  V30 10369 C 969.088 2.20648 -0.620237 0
M  V30 10370 C 970.101 1.59652 0.318604 0
M  V30 10371 O 971.29 1.78157 0.110553 0
M  V30 10372 C 968.39 3.38716 0.111729 0
M  V30 10373 C 967.563 4.29277 -0.839062 0
M  V30 10374 C 966.622 5.25993 -0.147453 0
M  V30 10375 O 965.648 5.63787 -0.783151 0
M  V30 10376 N 966.85 5.69725 1.11327 0
M  V30 10377 H 969.615 2.58731 -1.51256 0
M  V30 10378 H 967.176 1.31858 -0.939412 0
M  V30 10379 H 969.168 4.00455 0.584657 0
M  V30 10380 H 967.738 2.99189 0.905784 0
M  V30 10381 H 966.958 3.64894 -1.4915 0
M  V30 10382 H 968.246 4.86669 -1.48428 0
M  V30 10383 H 967.644 5.41103 1.64999 0
M  V30 10384 H 966.201 6.33584 1.53018 0
M  V30 10385 N 969.634 0.838594 1.33437 0
M  V30 10386 C 971.045 0.490934 1.8013 0
M  V30 10387 C 971.396 -0.990024 1.6939 0
M  V30 10388 O 970.521 -1.77139 1.24302 0
M  V30 10389 C 971.116 0.884347 3.27055 0
M  V30 10390 C 969.675 0.588829 3.71766 0
M  V30 10391 C 968.822 1.09282 2.54858 0
M  V30 10392 H 971.773 1.02732 1.20962 0
M  V30 10393 H 971.794 0.194283 3.80004 0
M  V30 10394 H 971.306 1.96225 3.34839 0
M  V30 10395 H 969.407 -0.479018 3.69508 0
M  V30 10396 H 969.52 1.14387 4.65245 0
M  V30 10397 H 967.884 0.513702 2.49466 0
M  V30 10398 H 968.667 2.1775 2.65405 0
M  V30 10399 N 971.112 -1.45937 0.595003 0
M  V30 10400 C 972.358 -2.0262 0.0854317 0
M  V30 10401 C 972.691 -1.46402 -1.27594 0
M  V30 10402 O 971.966 -0.633823 -1.83883 0
M  V30 10403 C 972.249 -3.60085 0.0329075 0
M  V30 10404 C 972.102 -4.26663 1.42405 0
M  V30 10405 C 973.421 -4.35101 -0.661426 0
M  V30 10406 H 970.54 -0.736282 0.0325196 0
M  V30 10407 H 973.182 -1.73938 0.764563 0
M  V30 10408 H 971.332 -3.84652 -0.545439 0
M  V30 10409 H 973.004 -4.13321 2.04851 0
M  V30 10410 H 971.247 -3.85549 1.98833 0
M  V30 10411 H 971.918 -5.35497 1.33965 0
M  V30 10412 H 974.394 -4.15753 -0.169977 0
M  V30 10413 H 973.27 -5.44829 -0.667243 0
M  V30 10414 H 973.531 -4.07053 -1.72513 0
M  V30 10415 N 972.59 -0.333456 -1.54032 0
M  V30 10416 C 974.001 0.15256 -1.86076 0
M  V30 10417 C 974.352 1.50819 -1.25492 0
M  V30 10418 O 973.477 2.08903 -0.564665 0
M  V30 10419 C 974.072 0.283599 -3.37611 0
M  V30 10420 C 972.631 0.713841 -3.69569 0
M  V30 10421 C 971.778 -0.158515 -2.76847 0
M  V30 10422 H 974.729 -0.553404 -1.48738 0
M  V30 10423 H 974.75 1.11284 -3.63863 0
M  V30 10424 H 974.262 -0.703193 -3.81676 0
M  V30 10425 H 972.363 1.71002 -3.31042 0
M  V30 10426 H 972.476 0.510731 -4.7637 0
M  V30 10427 H 970.84 0.367531 -2.52034 0
M  V30 10428 H 971.623 -1.14226 -3.2374 0
M  V30 10429 N 974.068 1.57479 -0.061844 0
M  V30 10430 C 975.479 1.80627 0.472295 0
M  V30 10431 C 975.83 0.97496 1.70261 0
M  V30 10432 O 974.955 0.1946 2.15523 0
M  V30 10433 C 975.55 3.27608 0.863616 0
M  V30 10434 C 974.109 3.51638 1.34267 0
M  V30 10435 C 973.256 2.75412 0.323009 0
M  V30 10436 H 976.207 1.56072 -0.287634 0
M  V30 10437 H 976.228 3.39113 1.72577 0
M  V30 10438 H 975.74 3.88087 -0.0320226 0
M  V30 10439 H 973.841 2.96452 2.25714 0
M  V30 10440 H 973.954 4.60342 1.32747 0
M  V30 10441 H 972.318 2.4187 0.798175 0
M  V30 10442 H 973.101 3.38623 -0.564729 0
M  V30 10443 N 975.546 -0.211634 1.56173 0
M  V30 10444 C 976.957 -0.777776 1.69728 0
M  V30 10445 C 977.308 -1.84566 0.66558 0
M  V30 10446 O 976.433 -2.15639 -0.181338 0
M  V30 10447 C 977.028 -1.41757 3.07718 0
M  V30 10448 C 975.587 -1.93098 3.23094 0
M  V30 10449 C 974.734 -0.794785 2.65666 0
M  V30 10450 H 977.685 0.0131839 1.58695 0
M  V30 10451 H 977.706 -2.28662 3.04128 0
M  V30 10452 H 977.218 -0.640114 3.82785 0
M  V30 10453 H 975.319 -2.73615 2.52914 0
M  V30 10454 H 975.432 -2.10414 4.30422 0
M  V30 10455 H 973.796 -1.20473 2.24407 0
M  V30 10456 H 974.579 -0.0298408 3.43287 0
M  V30 10457 N 977.024 -1.50153 -0.478725 0
M  V30 10458 C 978.27 -1.61968 -1.23036 0
M  V30 10459 C 978.625 -0.312529 -1.89845 0
M  V30 10460 O 977.918 0.688995 -1.78783 0
M  V30 10461 C 978.112 -2.73208 -2.30417 0
M  V30 10462 C 977.941 -4.14614 -1.74142 0
M  V30 10463 C 976.711 -4.81116 -1.54452 0
M  V30 10464 C 978.909 -4.99111 -1.24066 0
M  V30 10465 N 976.891 -6.06763 -0.933399 0
M  V30 10466 C 978.262 -6.15419 -0.752286 0
M  V30 10467 C 980.317 -4.84943 -1.12849 0
M  V30 10468 C 979.02 -7.19116 -0.162808 0
M  V30 10469 C 981.046 -5.88809 -0.552955 0
M  V30 10470 C 980.408 -7.0436 -0.0749195 0
M  V30 10471 H 976.507 -0.646894 -0.439377 0
M  V30 10472 H 979.091 -1.87244 -0.53364 0
M  V30 10473 H 977.262 -2.49667 -2.97525 0
M  V30 10474 H 978.994 -2.74423 -2.97446 0
M  V30 10475 H 975.749 -4.38282 -1.7946 0
M  V30 10476 H 976.173 -6.73906 -0.64647 0
M  V30 10477 H 980.815 -3.959 -1.48402 0
M  V30 10478 H 978.533 -8.0784 0.204943 0
M  V30 10479 H 982.119 -5.7991 -0.468633 0
M  V30 10480 H 980.999 -7.83357 0.363455 0
M  V30 10481 N 978.502 0.731368 -1.39602 0
M  V30 10482 C 979.432 1.85855 -1.41351 0
M  V30 10483 C 980.413 1.67839 -0.2764 0
M  V30 10484 O 981.598 1.88104 -0.482747 0
M  V30 10485 C 978.728 3.23644 -1.25983 0
M  V30 10486 C 977.682 3.56304 -2.37132 0
M  V30 10487 C 977.008 4.93069 -2.0685 0
M  V30 10488 C 978.308 3.58906 -3.79452 0
M  V30 10489 H 980.002 1.84648 -2.3568 0
M  V30 10490 H 977.548 0.886955 -1.13442 0
M  V30 10491 H 979.501 4.02176 -1.25826 0
M  V30 10492 H 978.225 3.25387 -0.281234 0
M  V30 10493 H 976.884 2.80104 -2.36511 0
M  V30 10494 H 976.532 4.91396 -1.0742 0
M  V30 10495 H 976.232 5.15888 -2.81306 0
M  V30 10496 H 977.756 5.73953 -2.0835 0
M  V30 10497 H 979.17 4.27508 -3.81982 0
M  V30 10498 H 977.567 3.93246 -4.53297 0
M  V30 10499 H 978.637 2.58631 -4.10168 0
M  V30 10500 N 979.98 1.24838 0.961938 0
M  V30 10501 C 981.208 1.11871 1.74047 0
M  V30 10502 C 981.623 -0.328209 1.85925 0
M  V30 10503 O 980.98 -1.22616 1.35173 0
M  V30 10504 C 981.031 1.75931 3.15801 0
M  V30 10505 O 980.752 3.14967 3.04512 0
M  V30 10506 C 982.253 1.68649 4.09966 0
M  V30 10507 H 979.473 0.390569 0.545616 0
M  V30 10508 H 982.017 1.65058 1.20732 0
M  V30 10509 H 980.172 1.26733 3.66084 0
M  V30 10510 H 980.586 3.46349 3.93882 0
M  V30 10511 H 982.06 2.18144 5.07067 0
M  V30 10512 H 982.537 0.648831 4.34381 0
M  V30 10513 H 983.143 2.17301 3.65596 0
M  V30 10514 N 981.458 -1.16348 1.06306 0
M  V30 10515 C 982.706 -1.86512 0.778311 0
M  V30 10516 C 983.027 -1.82107 -0.697273 0
M  V30 10517 O 982.297 -1.2547 -1.50446 0
M  V30 10518 H 980.877 -0.690529 0.284919 0
M  V30 10519 H 983.539 -1.41092 1.34458 0
M  V30 10520 H 982.635 -2.91947 1.10333 0
M  V30 10521 N 982.937 -0.845659 -1.3299 0
M  V30 10522 C 984.185 -0.443774 -1.97168 0
M  V30 10523 C 984.506 1.00192 -1.67292 0
M  V30 10524 O 983.776 1.69891 -0.975397 0
M  V30 10525 H 982.356 -0.161111 -0.729419 0
M  V30 10526 H 985.018 -1.08011 -1.62233 0
M  V30 10527 H 984.114 -0.581414 -3.06637 0
M  V30 10528 N 984.415 1.45619 -0.602734 0
M  V30 10529 C 985.692 1.9558 -0.0282472 0
M  V30 10530 C 986.072 1.54523 1.43826 0
M  V30 10531 O 985.42 0.805456 2.13833 0
M  V30 10532 C 985.63 3.48298 -0.221263 0
M  V30 10533 C 986.978 4.24483 -0.0995249 0
M  V30 10534 O 988.002 3.55879 -0.151132 0
M  V30 10535 O 986.861 5.46497 0.0194454 0
M  V30 10536 H 983.955 0.826104 0.0384897 0
M  V30 10537 H 986.501 1.55808 -0.672456 0
M  V30 10538 H 985.273 3.71134 -1.23997 0
M  V30 10539 H 984.896 3.94948 0.458437 0
M  V30 10540 N 985.893 0.34162 1.53853 0
M  V30 10541 C 986.823 -0.508431 2.27897 0
M  V30 10542 C 987.804 -1.10425 1.29384 0
M  V30 10543 O 988.989 -1.126 1.58224 0
M  V30 10544 C 986.119 -1.66048 3.05034 0
M  V30 10545 C 985.073 -1.19309 4.11035 0
M  V30 10546 C 984.399 -2.4335 4.76114 0
M  V30 10547 C 985.699 -0.294952 5.21467 0
M  V30 10548 H 987.393 0.109251 2.99201 0
M  V30 10549 H 984.939 0.0539847 1.43899 0
M  V30 10550 H 986.892 -2.26158 3.5557 0
M  V30 10551 H 985.616 -2.30503 2.31379 0
M  V30 10552 H 984.275 -0.614809 3.61408 0
M  V30 10553 H 983.923 -3.06208 3.99056 0
M  V30 10554 H 983.623 -2.1276 5.47729 0
M  V30 10555 H 985.147 -3.0419 5.29434 0
M  V30 10556 H 986.561 -0.80285 5.67651 0
M  V30 10557 H 984.958 -0.0810221 6.00045 0
M  V30 10558 H 986.028 0.669433 4.80257 0
M  V30 10559 N 987.371 -1.57444 0.0701946 0
M  V30 10560 C 988.619 -1.93047 -0.598106 0
M  V30 10561 C 988.94 -0.950841 -1.70247 0
M  V30 10562 O 988.21 0.00127177 -1.959 0
M  V30 10563 H 986.79 -0.712648 -0.223924 0
M  V30 10564 H 989.452 -1.94481 0.127674 0
M  V30 10565 H 988.548 -2.94807 -1.02445 0
M  V30 10566 N 988.849 0.203349 -1.56283 0
M  V30 10567 C 990.265 0.55384 -1.49682 0
M  V30 10568 C 990.465 1.86261 -0.768701 0
M  V30 10569 O 989.521 2.50517 -0.315824 0
M  V30 10570 C 990.834 0.616216 -2.94318 0
M  V30 10571 C 992.382 0.705611 -3.04943 0
M  V30 10572 C 992.857 0.79917 -4.50974 0
M  V30 10573 N 994.348 0.862916 -4.55091 0
M  V30 10574 C 995.083 0.955334 -5.65386 0
M  V30 10575 N 994.579 1.01057 -6.8539 0
M  V30 10576 N 996.372 0.991884 -5.53279 0
M  V30 10577 H 988.523 -0.655244 -2.0204 0
M  V30 10578 H 990.786 -0.232344 -0.919087 0
M  V30 10579 H 990.492 -0.27619 -3.50614 0
M  V30 10580 H 990.366 1.47371 -3.4722 0
M  V30 10581 H 992.753 1.58845 -2.48701 0
M  V30 10582 H 992.834 -0.177921 -2.5518 0
M  V30 10583 H 992.478 -0.0792841 -5.07838 0
M  V30 10584 H 992.408 1.69838 -4.9846 0
M  V30 10585 H 994.899 0.829812 -3.68677 0
M  V30 10586 H 995.212 1.08137 -7.65197 0
M  V30 10587 H 993.557 0.979384 -6.88065 0
M  V30 10588 H 996.748 0.945514 -4.58451 0
M  V30 10589 H 996.921 1.06045 -6.39264 0
M  V30 10590 N 990.327 1.50405 0.470755 0
M  V30 10591 C 991.604 1.51929 1.23195 0
M  V30 10592 C 991.984 0.264159 2.09441 0
M  V30 10593 O 991.332 -0.752395 2.15757 0
M  V30 10594 C 991.542 2.81521 2.06269 0
M  V30 10595 C 992.89 3.32195 2.64446 0
M  V30 10596 O 993.914 2.82845 2.16511 0
M  V30 10597 O 992.773 4.18221 3.51786 0
M  V30 10598 H 989.867 0.609411 0.559059 0
M  V30 10599 H 992.413 1.62695 0.482549 0
M  V30 10600 H 991.185 3.64346 1.42715 0
M  V30 10601 H 990.808 2.7376 2.88342 0
M  V30 10602 N 991.805 -0.723954 1.39988 0
M  V30 10603 C 993.051 -1.48591 1.38017 0
M  V30 10604 C 993.384 -1.94189 -0.0203522 0
M  V30 10605 O 992.659 -1.67572 -0.987422 0
M  V30 10606 C 992.942 -2.71786 2.36229 0
M  V30 10607 C 992.795 -2.32136 3.8527 0
M  V30 10608 C 994.114 -3.73921 2.32102 0
M  V30 10609 H 991.233 -0.538993 0.502648 0
M  V30 10610 H 993.875 -0.826908 1.71062 0
M  V30 10611 H 992.025 -3.28015 2.0818 0
M  V30 10612 H 993.697 -1.81454 4.24113 0
M  V30 10613 H 991.94 -1.64234 4.01509 0
M  V30 10614 H 992.611 -3.20406 4.49493 0
M  V30 10615 H 995.087 -3.27303 2.56928 0
M  V30 10616 H 993.963 -4.5777 3.02882 0
M  V30 10617 H 994.224 -4.21627 1.32979 0
M  V30 10618 N 993.283 -1.25346 -0.955304 0
M  V30 10619 C 994.532 -1.0945 -1.69421 0
M  V30 10620 C 994.845 0.364459 -1.92175 0
M  V30 10621 O 996.051 0.643843 -2.63755 0
M  V30 10622 C 994.507 -1.91045 -3.05008 0
M  V30 10623 C 994.115 -3.41428 -2.90053 0
M  V30 10624 C 995.859 -1.83716 -3.82686 0
M  V30 10625 C 993.766 -4.1532 -4.21026 0
M  V30 10626 H 992.696 -0.405978 -0.635372 0
M  V30 10627 H 995.347 -1.49536 -1.06354 0
M  V30 10628 H 993.729 -1.43781 -3.68975 0
M  V30 10629 H 994.903 -3.9636 -2.35022 0
M  V30 10630 H 993.218 -3.49842 -2.25831 0
M  V30 10631 H 995.815 -2.36217 -4.79693 0
M  V30 10632 H 996.158 -0.804919 -4.08444 0
M  V30 10633 H 996.691 -2.28726 -3.25468 0
M  V30 10634 H 993.43 -5.18955 -4.00457 0
M  V30 10635 H 992.95 -3.65172 -4.75825 0
M  V30 10636 H 994.629 -4.22999 -4.89572 0
M  V30 10637 N 994.761 1.15782 -1.06922 0
M  V30 10638 C 995.709 2.22441 -0.679893 0
M  V30 10639 C 996.703 1.66591 0.307221 0
M  V30 10640 O 997.909 1.79182 0.171402 0
M  V30 10641 H 994.284 0.724427 -0.201765 0
M  V30 10642 H 996.255 2.52562 -1.58918 0
M  V30 10643 C 995.004 3.47586 -0.0891142 0
M  V30 10644 H 994.327 3.9088 -0.839805 0
M  V30 10645 H 995.767 4.2375 0.14569 0
M  V30 10646 C 994.226 3.15967 1.16903 0
M  V30 10647 O 994.756 3.32359 2.25611 0
M  V30 10648 N 992.962 2.70046 1.07349 0
M  V30 10649 H 992.509 2.56907 0.188825 0
M  V30 10650 H 992.467 2.49264 1.91611 0
M  V30 10651 N 996.239 0.8527 1.3254 0
M  V30 10652 C 997.469 0.468363 2.01221 0
M  V30 10653 C 997.877 -0.938966 1.64256 0
M  V30 10654 O 997.22 -1.62387 0.858837 0
M  V30 10655 C 997.282 0.525457 3.55639 0
M  V30 10656 C 996.946 1.89133 4.16026 0
M  V30 10657 C 997.943 2.85652 4.34395 0
M  V30 10658 C 995.628 2.18795 4.52144 0
M  V30 10659 C 997.622 4.09985 4.88048 0
M  V30 10660 C 995.309 3.43381 5.05502 0
M  V30 10661 C 996.307 4.38792 5.23403 0
M  V30 10662 O 995.995 5.61173 5.75622 0
M  V30 10663 H 995.727 0.182712 0.65084 0
M  V30 10664 H 998.281 1.15076 1.70138 0
M  V30 10665 H 996.511 -0.213779 3.86109 0
M  V30 10666 H 998.2 0.156999 4.05596 0
M  V30 10667 H 998.966 2.6404 4.06827 0
M  V30 10668 H 994.845 1.45317 4.37498 0
M  V30 10669 H 998.389 4.84465 5.01936 0
M  V30 10670 H 994.286 3.64844 5.32503 0
M  V30 10671 H 995.054 5.63104 5.94017 0
M  V30 10672 N 997.718 -1.45297 0.610449 0
M  V30 10673 C 998.948 -2.0629 0.113047 0
M  V30 10674 C 999.356 -1.45527 -1.20907 0
M  V30 10675 O 998.699 -0.564837 -1.74801 0
M  V30 10676 C 998.761 -3.59366 -0.0979692 0
M  V30 10677 C 998.425 -4.42481 1.14279 0
M  V30 10678 C 999.422 -4.77277 2.06161 0
M  V30 10679 C 997.107 -4.83187 1.37241 0
M  V30 10680 C 999.101 -5.51639 3.19333 0
M  V30 10681 C 996.788 -5.57303 2.50713 0
M  V30 10682 C 997.786 -5.91445 3.41587 0
M  V30 10683 O 997.474 -6.64056 4.53083 0
M  V30 10684 H 997.206 -0.67264 0.0673159 0
M  V30 10685 H 999.76 -1.87486 0.838937 0
M  V30 10686 H 997.99 -3.76582 -0.878783 0
M  V30 10687 H 999.679 -4.02193 -0.547327 0
M  V30 10688 H 1000.44 -4.46384 1.89647 0
M  V30 10689 H 996.324 -4.56045 0.67407 0
M  V30 10690 H 999.868 -5.78207 3.90286 0
M  V30 10691 H 995.765 -5.8761 2.67179 0
M  V30 10692 H 996.533 -6.82509 4.51801 0
M  V30 10693 N 999.196 -0.349774 -1.5367 0
M  V30 10694 C 1000.44 0.244827 -2.01015 0
M  V30 10695 C 1000.77 1.50057 -1.23746 0
M  V30 10696 O 1000.03 1.9315 -0.314872 0
M  V30 10697 C 1000.32 0.598311 -3.52356 0
M  V30 10698 C 999.991 -0.56127 -4.47393 0
M  V30 10699 C 998.653 -0.879481 -4.73095 0
M  V30 10700 C 1001 -1.3389 -5.03709 0
M  V30 10701 C 998.333 -1.97758 -5.52366 0
M  V30 10702 C 1000.68 -2.4273 -5.84179 0
M  V30 10703 C 999.349 -2.75103 -6.08173 0
M  V30 10704 H 998.619 0.0895884 -0.735564 0
M  V30 10705 H 1001.27 -0.478975 -1.85413 0
M  V30 10706 H 999.571 1.40291 -3.65822 0
M  V30 10707 H 1001.27 1.07036 -3.86451 0
M  V30 10708 H 997.858 -0.303201 -4.27526 0
M  V30 10709 H 1002.04 -1.10632 -4.83812 0
M  V30 10710 H 997.298 -2.23257 -5.6918 0
M  V30 10711 H 1001.47 -3.03412 -6.26828 0
M  V30 10712 H 999.099 -3.60317 -6.69385 0
M  V30 10713 N 1000.67 1.57404 -0.0785433 0
M  V30 10714 C 1001.62 2.13104 0.88631 0
M  V30 10715 C 1002.59 1.04527 1.29086 0
M  V30 10716 O 1003.78 1.32226 1.37553 0
M  V30 10717 C 1000.92 2.70252 2.14611 0
M  V30 10718 C 1000.03 3.93007 1.79358 0
M  V30 10719 C 999.164 4.38376 3 0
M  V30 10720 C 998.203 5.53761 2.60796 0
M  V30 10721 N 997.34 5.94058 3.74219 0
M  V30 10722 H 1002.18 2.95243 0.404452 0
M  V30 10723 H 999.717 1.45894 0.187982 0
M  V30 10724 H 1001.67 3.01497 2.88367 0
M  V30 10725 H 1000.3 1.90868 2.60326 0
M  V30 10726 H 999.357 3.68181 0.956384 0
M  V30 10727 H 1000.67 4.76795 1.4652 0
M  V30 10728 H 999.823 4.71317 3.82027 0
M  V30 10729 H 998.562 3.53455 3.36037 0
M  V30 10730 H 997.567 5.20464 1.77192 0
M  V30 10731 H 998.792 6.40419 2.25922 0
M  V30 10732 H 996.738 5.12085 4.10005 0
M  V30 10733 H 996.655 6.72602 3.45171 0
M  V30 10734 H 997.923 6.31624 4.56805 0
M  V30 10735 N 1002.15 -0.195058 1.56388 0
M  V30 10736 C 1003.08 -1.26581 1.91076 0
M  V30 10737 C 1004.1 -1.41707 0.801436 0
M  V30 10738 O 1005.29 -1.42132 1.07985 0
M  V30 10739 C 1002.39 -2.63794 2.12758 0
M  V30 10740 C 1001.56 -2.70275 3.43904 0
M  V30 10741 C 1000.62 -3.88685 3.54698 0
M  V30 10742 O 999.644 -3.75786 4.2752 0
M  V30 10743 N 1000.85 -5.04141 2.87789 0
M  V30 10744 H 1003.61 -0.971401 2.83521 0
M  V30 10745 H 1001.17 -0.384976 1.57256 0
M  V30 10746 H 1003.16 -3.41434 2.17267 0
M  V30 10747 H 1001.73 -2.85723 1.26812 0
M  V30 10748 H 1000.95 -1.78909 3.51262 0
M  V30 10749 H 1002.24 -2.71597 4.30247 0
M  V30 10750 H 1001.64 -5.17519 2.28452 0
M  V30 10751 H 1000.2 -5.79727 2.97925 0
M  V30 10752 N 1003.63 -1.50653 -0.462772 0
M  V30 10753 C 1004.56 -1.73056 -1.5676 0
M  V30 10754 C 1005.54 -0.579699 -1.59917 0
M  V30 10755 O 1006.73 -0.819729 -1.76051 0
M  V30 10756 C 1003.86 -1.83234 -2.9503 0
M  V30 10757 C 1002.81 -2.98488 -3.06739 0
M  V30 10758 C 1002.14 -2.93818 -4.46738 0
M  V30 10759 C 1003.44 -4.38869 -2.83181 0
M  V30 10760 H 1005.13 -2.65562 -1.38265 0
M  V30 10761 H 1002.68 -1.27792 -0.663722 0
M  V30 10762 H 1004.63 -1.97491 -3.72257 0
M  V30 10763 H 1003.35 -0.873558 -3.14701 0
M  V30 10764 H 1002.01 -2.83895 -2.31946 0
M  V30 10765 H 1001.66 -1.95769 -4.63339 0
M  V30 10766 H 1001.36 -3.71197 -4.55507 0
M  V30 10767 H 1002.88 -3.10135 -5.25974 0
M  V30 10768 H 1004.3 -4.53945 -3.50153 0
M  V30 10769 H 1002.69 -5.17762 -3.03386 0
M  V30 10770 H 1003.76 -4.50663 -1.78972 0
M  V30 10771 N 1005.11 0.71652 -1.4037 0
M  V30 10772 C 1006.36 1.47347 -1.38324 0
M  V30 10773 C 1006.68 1.94995 0.0139949 0
M  V30 10774 O 1005.95 1.7028 0.968585 0
M  V30 10775 H 1004.53 0.546662 -0.509087 0
M  V30 10776 H 1007.19 0.849455 -1.75415 0
M  V30 10777 H 1006.29 2.34675 -2.05752 0
M  V30 10778 N 1006.59 1.25851 0.948643 0
M  V30 10779 C 1007.53 1.06759 2.04625 0
M  V30 10780 C 1008.5 -0.0251144 1.66081 0
M  V30 10781 O 1009.69 0.133221 1.90334 0
M  V30 10782 C 1006.83 0.698724 3.37952 0
M  V30 10783 C 1005.94 1.8669 3.89578 0
M  V30 10784 C 1005.08 1.44184 5.11258 0
M  V30 10785 C 1004.12 2.57878 5.55126 0
M  V30 10786 N 1003.25 2.16106 6.68014 0
M  V30 10787 H 1008.09 2.00691 2.20289 0
M  V30 10788 H 1005.63 0.999327 1.07944 0
M  V30 10789 H 1007.59 0.465788 4.14592 0
M  V30 10790 H 1006.22 -0.203618 3.22157 0
M  V30 10791 H 1005.27 2.21298 3.09405 0
M  V30 10792 H 1006.58 2.72051 4.18079 0
M  V30 10793 H 1005.74 1.16891 5.95333 0
M  V30 10794 H 1004.47 0.559035 4.84485 0
M  V30 10795 H 1003.48 2.85909 4.69612 0
M  V30 10796 H 1004.7 3.46747 5.83904 0
M  V30 10797 H 1002.65 1.3025 6.42939 0
M  V30 10798 H 1002.57 2.95012 6.96063 0
M  V30 10799 H 1003.84 1.92005 7.55483 0
M  V30 10800 N 1008.06 -1.15214 1.07534 0
M  V30 10801 C 1009.01 -2.22078 0.69168 0
M  V30 10802 C 1010.01 -1.66751 -0.298382 0
M  V30 10803 O 1011.21 -1.7927 -0.161897 0
M  V30 10804 H 1007.59 -0.723347 0.205604 0
M  V30 10805 H 1009.56 -2.51716 1.60256 0
M  V30 10806 C 1008.31 -3.47534 0.107546 0
M  V30 10807 H 1007.63 -3.90429 0.860522 0
M  V30 10808 H 1009.07 -4.23821 -0.123215 0
M  V30 10809 C 1007.53 -3.16583 -1.15226 0
M  V30 10810 O 1008.06 -3.33551 -2.23845 0
M  V30 10811 N 1006.27 -2.70611 -1.05915 0
M  V30 10812 H 1005.81 -2.57004 -0.175198 0
M  V30 10813 H 1005.77 -2.50277 -1.90287 0
M  V30 10814 N 1009.54 -0.859717 -1.32086 0
M  V30 10815 C 1010.82 -0.386665 -1.9174 0
M  V30 10816 C 1011.2 1.13028 -1.78292 0
M  V30 10817 O 1010.55 1.95422 -1.18417 0
M  V30 10818 C 1010.76 -0.856648 -3.38323 0
M  V30 10819 C 1012.11 -0.87678 -4.15449 0
M  V30 10820 O 1013.13 -0.80162 -3.47063 0
M  V30 10821 O 1011.99 -0.98373 -5.37573 0
M  V30 10822 H 1009.08 -0.113758 -0.819139 0
M  V30 10823 H 1011.63 -0.946952 -1.40822 0
M  V30 10824 H 1010.4 -1.89996 -3.42078 0
M  V30 10825 H 1010.02 -0.274095 -3.96654 0
M  V30 10826 N 1011.02 1.44971 -0.618145 0
M  V30 10827 C 1011.97 2.30606 0.09449 0
M  V30 10828 C 1012.94 1.42725 0.849633 0
M  V30 10829 O 1014.12 1.71643 0.833266 0
M  V30 10830 C 1011.26 3.27803 1.07886 0
M  V30 10831 C 1010.38 4.30787 0.323488 0
M  V30 10832 C 1009.51 5.15085 1.29851 0
M  V30 10833 C 1008.55 6.09788 0.531561 0
M  V30 10834 N 1007.69 6.86829 1.4564 0
M  V30 10835 H 1012.53 2.91008 -0.641738 0
M  V30 10836 H 1010.06 1.43391 -0.328259 0
M  V30 10837 H 1012.02 3.82631 1.66281 0
M  V30 10838 H 1010.65 2.69131 1.78237 0
M  V30 10839 H 1009.7 3.78536 -0.376164 0
M  V30 10840 H 1011.02 4.98044 -0.274443 0
M  V30 10841 H 1010.17 5.74365 1.95421 0
M  V30 10842 H 1008.91 4.4787 1.93037 0
M  V30 10843 H 1007.91 5.49628 -0.137702 0
M  V30 10844 H 1009.14 6.79033 -0.0953993 0
M  V30 10845 H 1007.08 6.22295 2.07571 0
M  V30 10846 H 1007 7.50477 0.912167 0
M  V30 10847 H 1008.27 7.50642 2.10134 0
M  V30 10848 N 1012.5 0.357919 1.53482 0
M  V30 10849 C 1013.45 -0.507364 2.26999 0
M  V30 10850 C 1014.44 -1.08987 1.29685 0
M  V30 10851 O 1015.65 -1.03396 1.47341 0
M  V30 10852 H 1012.02 -0.182326 0.729562 0
M  V30 10853 H 1013.99 0.134547 2.98097 0
M  V30 10854 C 1012.74 -1.63911 3.06641 0
M  V30 10855 H 1012.06 -1.20017 3.81361 0
M  V30 10856 H 1013.5 -2.21943 3.61272 0
M  V30 10857 C 1011.96 -2.57697 2.17011 0
M  V30 10858 O 1012.49 -3.60318 1.77578 0
M  V30 10859 N 1010.7 -2.2671 1.818 0
M  V30 10860 H 1010.25 -1.43296 2.14065 0
M  V30 10861 H 1010.2 -2.89716 1.22115 0
M  V30 10862 N 1013.98 -1.5736 0.0868897 0
M  V30 10863 C 1014.92 -2.13571 -0.874996 0
M  V30 10864 C 1015.89 -1.0521 -1.2853 0
M  V30 10865 O 1017.08 -1.32954 -1.3685 0
M  V30 10866 C 1014.22 -2.71386 -2.13175 0
M  V30 10867 C 1013.33 -3.93953 -1.77272 0
M  V30 10868 C 1012.47 -4.3996 -2.97671 0
M  V30 10869 C 1011.51 -5.55137 -2.57856 0
M  V30 10870 N 1010.64 -5.96034 -3.71064 0
M  V30 10871 H 1015.48 -2.95453 -0.388789 0
M  V30 10872 H 1013.02 -1.45992 -0.180242 0
M  V30 10873 H 1014.98 -3.03022 -2.86764 0
M  V30 10874 H 1013.61 -1.92245 -2.5931 0
M  V30 10875 H 1012.66 -3.68683 -0.936845 0
M  V30 10876 H 1013.97 -4.77565 -1.43989 0
M  V30 10877 H 1013.13 -4.73337 -3.79522 0
M  V30 10878 H 1011.86 -3.55232 -3.34158 0
M  V30 10879 H 1010.87 -5.21397 -1.7443 0
M  V30 10880 H 1012.09 -6.41608 -2.22522 0
M  V30 10881 H 1010.04 -5.14253 -4.07284 0
M  V30 10882 H 1009.96 -6.74423 -3.41599 0
M  V30 10883 H 1011.23 -6.34038 -4.53449 0
M  V30 10884 N 1015.45 0.186762 -1.56489 0
M  V30 10885 C 1016.73 0.932229 -1.71956 0
M  V30 10886 C 1017.11 2.01037 -0.644006 0
M  V30 10887 O 1016.46 2.259 0.343694 0
M  V30 10888 C 1016.67 1.51106 -3.14592 0
M  V30 10889 C 1018.02 1.98997 -3.75081 0
M  V30 10890 O 1019.04 1.60931 -3.17773 0
M  V30 10891 O 1017.9 2.69067 -4.75673 0
M  V30 10892 H 1014.99 0.437736 -0.701652 0
M  V30 10893 H 1017.54 0.175803 -1.68787 0
M  V30 10894 H 1016.31 0.734327 -3.84348 0
M  V30 10895 H 1015.94 2.33209 -3.22024 0
M  V30 10896 N 1016.93 1.50896 0.454776 0
M  V30 10897 C 1017.88 1.70947 1.55067 0
M  V30 10898 C 1018.85 0.550899 1.56698 0
M  V30 10899 O 1020.03 0.783352 1.73978 0
M  V30 10900 C 1017.17 1.82455 2.92924 0
M  V30 10901 C 1016.29 3.09919 3.00956 0
M  V30 10902 C 1015.42 3.12125 4.29827 0
M  V30 10903 C 1014.46 4.33975 4.31662 0
M  V30 10904 N 1013.6 4.33828 5.5203 0
M  V30 10905 H 1018.44 2.645 1.37273 0
M  V30 10906 H 1015.98 1.31101 0.667148 0
M  V30 10907 H 1017.93 1.87108 3.72889 0
M  V30 10908 H 1016.56 0.92327 3.09315 0
M  V30 10909 H 1015.62 3.14659 2.13761 0
M  V30 10910 H 1016.93 3.99869 2.98172 0
M  V30 10911 H 1016.08 3.15598 5.18154 0
M  V30 10912 H 1014.82 2.20033 4.35243 0
M  V30 10913 H 1013.83 4.30697 3.41731 0
M  V30 10914 H 1015.05 5.27312 4.27924 0
M  V30 10915 H 1013 3.44598 5.58201 0
M  V30 10916 H 1012.91 5.17566 5.51055 0
M  V30 10917 H 1014.18 4.4147 6.42437 0
M  V30 10918 N 1018.41 -0.709066 1.40748 0
M  V30 10919 C 1019.69 -1.4626 1.29874 0
M  V30 10920 C 1020.07 -2.10949 -0.0799322 0
M  V30 10921 O 1019.42 -2.00651 -1.09323 0
M  V30 10922 C 1019.63 -2.49302 2.44232 0
M  V30 10923 C 1020.97 -3.14945 2.84771 0
M  V30 10924 O 1022 -2.59623 2.43873 0
M  V30 10925 O 1020.86 -4.15111 3.5545 0
M  V30 10926 H 1017.95 -0.650716 0.51039 0
M  V30 10927 H 1020.5 -0.740687 1.52682 0
M  V30 10928 H 1019.27 -2.00063 3.36289 0
M  V30 10929 H 1018.89 -3.29021 2.23229 0
M  V30 10930 N 1019.89 -1.26353 -0.941956 0
M  V30 10931 C 1020.84 -1.07842 -2.04056 0
M  V30 10932 C 1021.81 0.0163064 -1.66092 0
M  V30 10933 O 1022.99 -0.143313 -1.90261 0
M  V30 10934 C 1020.13 -0.716636 -3.37577 0
M  V30 10935 C 1019.24 -1.88754 -3.88582 0
M  V30 10936 C 1018.38 -1.46893 -5.10486 0
M  V30 10937 C 1017.42 -2.60819 -5.53751 0
M  V30 10938 N 1016.56 -2.19646 -6.66858 0
M  V30 10939 H 1021.4 -2.01856 -2.19221 0
M  V30 10940 H 1018.93 -1.00504 -1.07412 0
M  V30 10941 H 1020.89 -0.487768 -4.14339 0
M  V30 10942 H 1019.52 0.18653 -3.22261 0
M  V30 10943 H 1018.57 -2.22936 -3.08227 0
M  V30 10944 H 1019.88 -2.74264 -4.1663 0
M  V30 10945 H 1019.04 -1.20047 -5.94705 0
M  V30 10946 H 1017.78 -0.584721 -4.84182 0
M  V30 10947 H 1016.78 -2.88396 -4.6809 0
M  V30 10948 H 1018.01 -3.49838 -5.82057 0
M  V30 10949 H 1015.95 -1.33657 -6.4224 0
M  V30 10950 H 1015.87 -2.987 -6.94489 0
M  V30 10951 H 1017.14 -1.96009 -7.54454 0
M  V30 10952 O 1021.41 1.07557 -1.20473 0
M  V30 10953 H 1022.1 1.68291 -0.959058 0
M  V30 END ATOM
M  V30 BEGIN BOND
M  V30 END BOND
M  V30 END CTAB
M  END
$$$$
