drugbank_target|A0A0H2UXE9 Geranyltranstransferase (Farnesyldiphosphate synthase) (DB02508)
 OpenBabel12092120473D

  0  0  0     0  0            999 V3000
M  V30 BEGIN CTAB
M  V30 COUNTS 4525 4557 0 0 0
M  V30 BEGIN ATOM
M  V30 1 H -0.908 1.98254 -0.117106 0
M  V30 2 N 0 1.576 0 0
M  V30 3 C 0.933 2.03868 1.02534 0
M  V30 4 C 1.911 0.928543 1.3348 0
M  V30 5 O 3.095 1.19667 1.45644 0
M  V30 6 C 0.222 2.43627 2.35294 0
M  V30 7 C -0.732 3.65373 2.2001 0
M  V30 8 S 0.101 5.13292 1.52614 0
M  V30 9 C 1.257 5.56322 2.86805 0
M  V30 10 H 1.49 2.90518 0.631377 0
M  V30 11 H -0.977 1.52953 0.210867 0
M  V30 12 H 0.981 2.67203 3.11629 0
M  V30 13 H -0.358 1.57376 2.7183 0
M  V30 14 H -1.165 3.90944 3.18086 0
M  V30 15 H -1.563 3.418 1.51819 0
M  V30 16 H 0.729 5.58782 3.83104 0
M  V30 17 H 1.672 6.56266 2.65933 0
M  V30 18 H 2.08 4.83886 2.90714 0
M  V30 19 N 1.4781 -0.272755 1.55222 0
M  V30 20 C 2.7551 -1.02562 1.66555 0
M  V30 21 C 3.1351 -2.04282 0.532189 0
M  V30 22 O 2.4831 -2.23662 -0.467717 0
M  V30 23 C 2.6931 -1.6822 3.05782 0
M  V30 24 C 4.0411 -2.19373 3.63539 0
M  V30 25 O 5.0651 -1.78206 3.08417 0
M  V30 26 O 3.9241 -2.94883 4.60115 0
M  V30 27 H 1.0181 -0.475755 0.676451 0
M  V30 28 H 3.5641 -0.268593 1.67561 0
M  V30 29 H 2.3361 -0.945112 3.79715 0
M  V30 30 H 1.9591 -2.50609 3.08676 0
M  V30 31 N 2.9562 -1.48159 -0.537278 0
M  V30 32 C 4.2032 -1.55804 -1.29349 0
M  V30 33 C 4.5312 -0.228802 -1.9315 0
M  V30 34 O 3.7862 0.780242 -1.79473 0
M  V30 35 C 4.0852 -2.63956 -2.40961 0
M  V30 36 C 3.7512 -4.0662 -1.94861 0
M  V30 37 C 2.4132 -4.45452 -1.82006 0
M  V30 38 C 4.7652 -4.96055 -1.59933 0
M  V30 39 C 2.0932 -5.71531 -1.32547 0
M  V30 40 C 4.4452 -6.22617 -1.11939 0
M  V30 41 C 3.1092 -6.60312 -0.976951 0
M  V30 42 H 2.3792 -0.570129 -0.473322 0
M  V30 43 H 5.0262 -1.81845 -0.600372 0
M  V30 44 H 3.3312 -2.31747 -3.15912 0
M  V30 45 H 5.0282 -2.67089 -2.99107 0
M  V30 46 H 1.6182 -3.75949 -2.05815 0
M  V30 47 H 5.8022 -4.66738 -1.68728 0
M  V30 48 H 1.0582 -5.99468 -1.202 0
M  V30 49 H 5.2322 -6.91318 -0.839811 0
M  V30 50 H 2.8592 -7.57895 -0.591501 0
M  V30 51 N 4.4343 0.785586 -1.36625 0
M  V30 52 C 5.8453 1.36101 -1.27803 0
M  V30 53 C 6.1963 1.96035 0.0804875 0
M  V30 54 O 5.3213 1.92834 0.982042 0
M  V30 55 C 5.9163 2.47442 -2.31426 0
M  V30 56 C 4.4753 3.00789 -2.26281 0
M  V30 57 C 3.6223 1.73896 -2.15999 0
M  V30 58 H 6.5733 0.586928 -1.47448 0
M  V30 59 H 6.5943 3.2656 -1.95291 0
M  V30 60 H 6.1063 2.03791 -3.30289 0
M  V30 61 H 4.2073 3.48851 -1.30896 0
M  V30 62 H 4.3203 3.57343 -3.19128 0
M  V30 63 H 2.6843 1.9628 -1.62316 0
M  V30 64 H 3.4673 1.32368 -3.16755 0
M  V30 65 N 5.9124 1.20967 1.01018 0
M  V30 66 C 6.8444 0.922059 2.09835 0
M  V30 67 C 7.8574 -0.0927106 1.62536 0
M  V30 68 O 9.0464 0.139127 1.77957 0
M  V30 69 C 6.1464 0.362004 3.36961 0
M  V30 70 C 5.3194 1.42986 4.13369 0
M  V30 71 C 4.3784 0.879976 5.1879 0
M  V30 72 O 3.4044 1.56219 5.47343 0
M  V30 73 N 4.6064 -0.307396 5.79686 0
M  V30 74 H 7.3714 1.8588 2.35093 0
M  V30 75 H 4.9324 1.11422 1.1746 0
M  V30 76 H 6.9244 -0.0201474 4.04695 0
M  V30 77 H 5.4944 -0.479437 3.08902 0
M  V30 78 H 4.7144 1.98608 3.40512 0
M  V30 79 H 6.0024 2.14885 4.61196 0
M  V30 80 H 5.4004 -0.878796 5.58832 0
M  V30 81 H 3.9574 -0.631115 6.48737 0
M  V30 82 N 7.3905 -1.2043 1.01659 0
M  V30 83 C 8.3225 -2.22626 0.544988 0
M  V30 84 C 9.3355 -1.58479 -0.372609 0
M  V30 85 O 10.5245 -1.77679 -0.170958 0
M  V30 86 C 7.6245 -3.38141 -0.22663 0
M  V30 87 C 6.7975 -4.31877 0.692876 0
M  V30 88 C 5.8565 -5.26191 -0.0311616 0
M  V30 89 O 4.8825 -5.6612 0.591343 0
M  V30 90 N 6.0845 -5.65618 -1.30601 0
M  V30 91 H 8.8495 -2.63716 1.42388 0
M  V30 92 H 6.4105 -1.34971 0.894116 0
M  V30 93 H 8.4025 -3.98239 -0.72024 0
M  V30 94 H 6.9725 -2.95943 -1.00681 0
M  V30 95 H 6.1925 -3.69746 1.36679 0
M  V30 96 H 7.4805 -4.91426 1.31824 0
M  V30 97 H 6.8785 -5.3519 -1.83269 0
M  V30 98 H 5.4355 -6.28025 -1.74435 0
M  V30 99 N 8.8686 -0.792821 -1.36206 0
M  V30 100 C 9.7986 -0.207853 -2.32573 0
M  V30 101 C 10.7796 0.659055 -1.56813 0
M  V30 102 O 11.9646 0.592176 -1.84951 0
M  V30 103 C 9.0946 0.655449 -3.41059 0
M  V30 104 C 8.0486 -0.111842 -4.27854 0
M  V30 105 C 7.3746 0.872274 -5.27537 0
M  V30 106 C 8.6746 -1.30299 -5.05786 0
M  V30 107 H 10.3686 -1.01294 -2.81744 0
M  V30 108 H 7.9146 -0.48854 -1.3546 0
M  V30 109 H 9.8676 1.07464 -4.07467 0
M  V30 110 H 8.5916 1.49328 -2.90463 0
M  V30 111 H 7.2506 -0.512053 -3.63006 0
M  V30 112 H 6.8986 1.70523 -4.73214 0
M  V30 113 H 6.5986 0.363291 -5.86476 0
M  V30 114 H 8.1226 1.28996 -5.96818 0
M  V30 115 H 9.5366 -0.959379 -5.65216 0
M  V30 116 H 7.9336 -1.7455 -5.74154 0
M  V30 117 H 9.0036 -2.09663 -4.37229 0
M  V30 118 N 10.3467 1.47872 -0.545128 0
M  V30 119 C 11.2567 2.33633 0.212746 0
M  V30 120 C 12.2727 1.4744 0.923983 0
M  V30 121 O 13.4487 1.80393 0.895572 0
M  V30 122 C 10.5137 3.23884 1.23693 0
M  V30 123 C 9.5747 4.25961 0.534417 0
M  V30 124 C 8.8077 5.11899 1.5098 0
M  V30 125 O 9.0307 5.00077 2.7437 0
M  V30 126 O 7.9647 5.92831 1.0409 0
M  V30 127 H 11.7907 2.99714 -0.490416 0
M  V30 128 H 9.3757 1.46235 -0.305871 0
M  V30 129 H 11.2577 3.79666 1.82843 0
M  V30 130 H 9.9327 2.60446 1.92222 0
M  V30 131 H 8.8397 3.73972 -0.0979679 0
M  V30 132 H 10.1727 4.92079 -0.109213 0
M  V30 133 N 11.8248 0.280983 1.55075 0
M  V30 134 C 12.7878 -0.590896 2.21452 0
M  V30 135 C 13.7878 -1.07682 1.19421 0
M  V30 136 O 14.9778 -0.97605 1.44288 0
M  V30 137 C 12.1098 -1.81587 2.88511 0
M  V30 138 H 13.3028 -0.0112554 2.99898 0
M  V30 139 H 10.8558 0.0316438 1.56268 0
M  V30 140 H 11.5908 -2.43587 2.14093 0
M  V30 141 H 11.3758 -1.4753 3.63287 0
M  V30 142 H 12.8658 -2.43575 3.39206 0
M  V30 143 N 13.3029 -1.57598 0.00835791 0
M  V30 144 C 14.5429 -1.92788 -0.679136 0
M  V30 145 C 14.9069 -0.883378 -1.70471 0
M  V30 146 O 16.1079 -1.12079 -2.44319 0
M  V30 147 C 14.3789 -3.32994 -1.29807 0
M  V30 148 S 15.9379 -3.90082 -2.00952 0
M  V30 149 H 12.7559 -0.67475 -0.224127 0
M  V30 150 H 15.3579 -1.95385 0.0670497 0
M  V30 151 H 14.0619 -4.06846 -0.538922 0
M  V30 152 H 13.5929 -3.33791 -2.082 0
M  V30 153 H 15.6079 -3.71834 -3.28563 0
M  V30 154 N 14.781 0.264519 -1.55364 0
M  V30 155 C 16.027 0.99646 -1.76631 0
M  V30 156 C 16.36 1.85632 -0.570478 0
M  V30 157 O 15.635 1.89647 0.43175 0
M  V30 158 C 15.918 1.87187 -3.07625 0
M  V30 159 C 15.771 1.04138 -4.37579 0
M  V30 160 C 17.09 2.85749 -3.34717 0
M  V30 161 H 14.209 0.360841 -0.642622 0
M  V30 162 H 16.851 0.268218 -1.88097 0
M  V30 163 H 15.001 2.49279 -2.9798 0
M  V30 164 H 16.673 0.440517 -4.59192 0
M  V30 165 H 14.916 0.345115 -4.32425 0
M  V30 166 H 15.587 1.68729 -5.2558 0
M  V30 167 H 18.063 2.33793 -3.4421 0
M  V30 168 H 16.939 3.44136 -4.27623 0
M  V30 169 H 17.2 3.61311 -2.54768 0
M  V30 170 N 16.2591 1.48442 0.529413 0
M  V30 171 C 17.2061 1.63007 1.63394 0
M  V30 172 C 18.1761 0.47212 1.59249 0
M  V30 173 O 19.3611 0.695673 1.77666 0
M  V30 174 C 16.5011 1.6763 3.01653 0
M  V30 175 C 15.6141 2.94535 3.16027 0
M  V30 176 C 14.7491 2.90316 4.44849 0
M  V30 177 C 13.7881 4.11923 4.52754 0
M  V30 178 N 12.9251 4.05777 5.72965 0
M  V30 179 H 17.7651 2.5733 1.50285 0
M  V30 180 H 15.3021 1.27613 0.731656 0
M  V30 181 H 17.2601 1.68292 3.81751 0
M  V30 182 H 15.8901 0.76797 3.13532 0
M  V30 183 H 14.9421 3.03615 2.29177 0
M  V30 184 H 16.2541 3.84512 3.17729 0
M  V30 185 H 15.4081 2.89382 5.33238 0
M  V30 186 H 14.1471 1.98068 4.45668 0
M  V30 187 H 13.1521 4.13131 3.62771 0
M  V30 188 H 14.3771 5.0533 4.53672 0
M  V30 189 H 12.3231 3.16351 5.74681 0
M  V30 190 H 12.2401 4.8946 5.76164 0
M  V30 191 H 13.5081 4.08904 6.6364 0
M  V30 192 N 17.7372 -0.778329 1.37039 0
M  V30 193 C 18.6692 -1.90034 1.2814 0
M  V30 194 C 19.6822 -1.61585 0.198558 0
M  V30 195 O 20.8712 -1.72625 0.454175 0
M  V30 196 C 17.9712 -3.25108 0.956968 0
M  V30 197 C 17.1442 -3.81253 2.14394 0
M  V30 198 C 16.2032 -4.94789 1.79082 0
M  V30 199 O 15.2292 -5.10721 2.51301 0
M  V30 200 N 16.4312 -5.75878 0.731043 0
M  V30 201 H 19.1962 -1.98186 2.24816 0
M  V30 202 H 16.7572 -0.957129 1.30578 0
M  V30 203 H 18.7492 -3.9857 0.701701 0
M  V30 204 H 17.3192 -3.125 0.0789812 0
M  V30 205 H 16.5392 -2.99647 2.56135 0
M  V30 206 H 17.8272 -4.15495 2.93668 0
M  V30 207 H 17.2252 -5.65547 0.131618 0
M  V30 208 H 15.7822 -6.49596 0.535622 0
M  V30 209 N 19.2153 -1.21501 -1.00376 0
M  V30 210 C 20.1783 -0.976927 -2.07337 0
M  V30 211 C 21.1783 0.0525322 -1.60714 0
M  V30 212 O 22.3683 -0.184869 -1.73216 0
M  V30 213 C 19.5003 -0.473423 -3.37597 0
M  V30 214 H 20.6933 -1.92587 -2.29892 0
M  V30 215 H 18.2463 -1.03217 -1.17371 0
M  V30 216 H 18.9813 0.480379 -3.20722 0
M  V30 217 H 18.7663 -1.216 -3.72768 0
M  V30 218 H 20.2563 -0.32675 -4.1632 0
M  V30 219 N 20.6934 1.19889 -1.02296 0
M  V30 220 C 21.6414 2.24938 -0.592081 0
M  V30 221 C 22.6354 1.65257 0.372357 0
M  V30 222 O 23.8414 1.78371 0.241583 0
M  V30 223 H 20.2164 0.731787 -0.173182 0
M  V30 224 H 22.1874 2.58603 -1.48885 0
M  V30 225 C 20.9364 3.47668 0.047351 0
M  V30 226 H 20.2594 3.93875 -0.685772 0
M  V30 227 H 21.6994 4.22852 0.311862 0
M  V30 228 C 20.1584 3.11136 1.29212 0
M  V30 229 O 20.6884 3.2325 2.38479 0
M  V30 230 N 18.8944 2.65625 1.17863 0
M  V30 231 H 18.4414 2.55968 0.289493 0
M  V30 232 H 18.3994 2.41553 2.01245 0
M  V30 233 N 22.1715 0.800033 1.35784 0
M  V30 234 C 23.1035 0.163596 2.28615 0
M  V30 235 C 24.1165 -0.633317 1.49976 0
M  V30 236 O 25.3055 -0.466754 1.72289 0
M  V30 237 C 22.4055 -0.790958 3.29541 0
M  V30 238 C 21.5785 -0.0418255 4.3738 0
M  V30 239 C 20.6375 -0.91389 5.18203 0
M  V30 240 O 19.6635 -0.367234 5.68014 0
M  V30 241 N 20.8655 -2.23682 5.35674 0
M  V30 242 H 23.6305 0.96105 2.83873 0
M  V30 243 H 21.1915 0.654894 1.48063 0
M  V30 244 H 23.1835 -1.37844 3.80501 0
M  V30 245 H 21.7535 -1.48925 2.74846 0
M  V30 246 H 20.9735 0.726813 3.87442 0
M  V30 247 H 22.2615 0.474719 5.06581 0
M  V30 248 H 21.6595 -2.70497 4.96838 0
M  V30 249 H 20.2165 -2.77369 5.89839 0
M  V30 250 N 23.6496 -1.47581 0.552962 0
M  V30 251 C 24.6126 -2.28439 -0.186605 0
M  V30 252 C 25.6126 -1.36706 -0.84665 0
M  V30 253 O 26.8026 -1.59378 -0.703164 0
M  V30 254 C 23.9346 -3.16264 -1.2724 0
M  V30 255 H 25.1276 -2.95294 0.523609 0
M  V30 256 H 22.6806 -1.532 0.309745 0
M  V30 257 H 23.4156 -2.54091 -2.01514 0
M  V30 258 H 23.2006 -3.83769 -0.803968 0
M  V30 259 H 24.6906 -3.77198 -1.79196 0
M  V30 260 N 25.1277 -0.289203 -1.54924 0
M  V30 261 C 26.0577 0.58549 -2.2604 0
M  V30 262 C 27.0387 1.14753 -1.25562 0
M  V30 263 O 28.2237 1.17906 -1.54311 0
M  V30 264 C 25.3537 1.76305 -2.99222 0
M  V30 265 C 24.3077 1.33191 -4.06748 0
M  V30 266 C 23.6337 2.5937 -4.6758 0
M  V30 267 C 24.9337 0.471775 -5.20165 0
M  V30 268 H 26.6277 -0.00763532 -2.99399 0
M  V30 269 H 24.1737 -0.00511229 -1.43999 0
M  V30 270 H 26.1267 2.38097 -3.47689 0
M  V30 271 H 24.8507 2.38223 -2.23422 0
M  V30 272 H 23.5097 0.737121 -3.59113 0
M  V30 273 H 23.1577 3.19576 -3.88433 0
M  V30 274 H 22.8577 2.31228 -5.40192 0
M  V30 275 H 24.3817 3.21985 -5.18804 0
M  V30 276 H 25.7957 0.995056 -5.64599 0
M  V30 277 H 24.1927 0.284639 -5.99425 0
M  V30 278 H 25.2627 -0.506041 -4.82252 0
M  V30 279 N 26.6058 1.57591 -0.0167156 0
M  V30 280 C 27.8308 1.9598 0.67872 0
M  V30 281 C 28.2558 0.892546 1.65575 0
M  V30 282 O 27.6138 -0.147772 1.80697 0
M  V30 283 C 27.6618 3.33468 1.37227 0
M  V30 284 O 26.7658 3.28954 2.48722 0
M  V30 285 H 26.1068 0.639339 0.17928 0
M  V30 286 H 28.6368 2.04463 -0.0748802 0
M  V30 287 H 28.6468 3.69417 1.7319 0
M  V30 288 H 27.3218 4.10694 0.656007 0
M  V30 289 H 25.8988 3.04705 2.14963 0
M  V30 290 N 28.0839 -0.256276 1.55502 0
M  V30 291 C 29.4999 -0.604325 1.47716 0
M  V30 292 C 29.6999 -1.88763 0.705039 0
M  V30 293 O 28.7559 -2.51445 0.230613 0
M  V30 294 C 30.0689 -0.715756 2.92057 0
M  V30 295 C 31.6169 -0.808706 3.02372 0
M  V30 296 C 32.0919 -0.951777 4.48001 0
M  V30 297 N 33.5829 -1.01688 4.519 0
M  V30 298 C 34.3179 -1.14668 5.61817 0
M  V30 299 N 33.8139 -1.24261 6.81565 0
M  V30 300 N 35.6069 -1.1791 5.49594 0
M  V30 301 H 27.7579 0.586291 2.04148 0
M  V30 302 H 30.0209 0.201015 0.926443 0
M  V30 303 H 29.7269 0.157027 3.51349 0
M  V30 304 H 29.6009 -1.59071 3.42018 0
M  V30 305 H 31.9879 -1.67195 2.43166 0
M  V30 306 H 32.0689 0.0912063 2.55637 0
M  V30 307 H 31.7129 -0.0931291 5.07815 0
M  V30 308 H 31.6429 -1.86659 4.92408 0
M  V30 309 H 34.1339 -0.954468 3.65648 0
M  V30 310 H 34.4469 -1.34046 7.61086 0
M  V30 311 H 32.7919 -1.21236 6.84344 0
M  V30 312 H 35.9829 -1.10057 4.54978 0
M  V30 313 H 36.1559 -1.27681 6.35296 0
M  V30 314 N 29.562 -1.4872 -0.521534 0
M  V30 315 C 30.809 -1.57168 -1.27689 0
M  V30 316 C 31.137 -0.249275 -1.92896 0
M  V30 317 O 30.392 0.761162 -1.80291 0
M  V30 318 C 30.691 -2.66497 -2.38148 0
M  V30 319 C 30.357 -4.08664 -1.90538 0
M  V30 320 C 29.019 -4.47357 -1.77271 0
M  V30 321 C 31.371 -4.97724 -1.54663 0
M  V30 322 C 28.699 -5.72905 -1.26478 0
M  V30 323 C 31.051 -6.2377 -1.05329 0
M  V30 324 C 29.715 -6.61311 -0.906861 0
M  V30 325 H 28.985 -0.575117 -0.467249 0
M  V30 326 H 31.632 -1.82472 -0.581051 0
M  V30 327 H 29.937 -2.35085 -3.13437 0
M  V30 328 H 31.634 -2.70246 -2.96257 0
M  V30 329 H 28.224 -3.78111 -2.01816 0
M  V30 330 H 32.408 -4.68501 -1.63768 0
M  V30 331 H 27.664 -6.00709 -1.13835 0
M  V30 332 H 31.838 -6.9217 -0.76644 0
M  V30 333 H 29.465 -7.5848 -0.511083 0
M  V30 334 N 31.0401 0.771051 -1.3745 0
M  V30 335 C 32.2891 1.52491 -1.3202 0
M  V30 336 C 32.6021 1.9538 0.0927347 0
M  V30 337 O 33.8081 2.70159 0.269503 0
M  V30 338 C 32.2641 2.75366 -2.31736 0
M  V30 339 C 31.8721 2.39573 -3.78562 0
M  V30 340 C 33.6161 3.53307 -2.35318 0
M  V30 341 C 31.5231 3.58954 -4.70007 0
M  V30 342 H 30.4531 0.572506 -0.490666 0
M  V30 343 H 33.1041 0.844474 -1.62914 0
M  V30 344 H 31.4861 3.45303 -1.93861 0
M  V30 345 H 32.6601 1.77415 -4.25277 0
M  V30 346 H 30.9751 1.74805 -3.77932 0
M  V30 347 H 33.5721 4.42039 -3.00842 0
M  V30 348 H 33.9151 3.93217 -1.36698 0
M  V30 349 H 34.4481 2.90367 -2.71904 0
M  V30 350 H 31.1871 3.24125 -5.69757 0
M  V30 351 H 30.7071 4.20214 -4.27996 0
M  V30 352 H 32.3861 4.25758 -4.87175 0
M  V30 353 N 32.5182 1.22032 0.997298 0
M  V30 354 C 33.4812 0.987909 2.06816 0
M  V30 355 C 34.4812 -0.0440084 1.6074 0
M  V30 356 O 35.6712 0.194053 1.73116 0
M  V30 357 C 32.8032 0.49132 3.37341 0
M  V30 358 H 33.9962 1.93803 2.28868 0
M  V30 359 H 31.5492 1.03838 1.16822 0
M  V30 360 H 32.2842 -0.463364 3.20973 0
M  V30 361 H 32.0692 1.23575 3.72118 0
M  V30 362 H 33.5592 0.348824 4.16141 0
M  V30 363 N 33.9963 -1.19345 1.0293 0
M  V30 364 C 35.4073 -1.70725 0.755633 0
M  V30 365 C 35.7583 -1.82326 -0.724676 0
M  V30 366 O 34.8833 -1.49471 -1.56484 0
M  V30 367 C 35.4783 -3.10084 1.36503 0
M  V30 368 C 34.0373 -3.58723 1.13994 0
M  V30 369 C 33.1843 -2.35577 1.46283 0
M  V30 370 H 36.1353 -1.0418 1.19718 0
M  V30 371 H 36.1563 -3.72787 0.762217 0
M  V30 372 H 35.6683 -3.01609 2.44241 0
M  V30 373 H 33.7693 -3.72512 0.0807901 0
M  V30 374 H 33.8823 -4.42816 1.82894 0
M  V30 375 H 32.2463 -2.38935 0.88217 0
M  V30 376 H 33.0293 -2.29731 2.55105 0
M  V30 377 N 35.4744 -0.807222 -1.35358 0
M  V30 378 C 36.4044 -0.232509 -2.3234 0
M  V30 379 C 37.3854 0.642386 -1.57504 0
M  V30 380 O 38.5704 0.572526 -1.85569 0
M  V30 381 C 35.7004 0.619238 -3.41735 0
M  V30 382 C 34.6544 -0.157215 -4.27711 0
M  V30 383 C 33.9804 0.816273 -5.28433 0
M  V30 384 C 35.2804 -1.35656 -5.04376 0
M  V30 385 H 36.9744 -1.04276 -2.80654 0
M  V30 386 H 34.5204 -0.50288 -1.34934 0
M  V30 387 H 36.4734 1.03137 -4.08584 0
M  V30 388 H 35.1974 1.46239 -2.92031 0
M  V30 389 H 33.8564 -0.550525 -3.62443 0
M  V30 390 H 33.5044 1.65494 -4.74996 0
M  V30 391 H 33.2044 0.301067 -5.86828 0
M  V30 392 H 34.7284 1.22659 -5.98153 0
M  V30 393 H 36.1424 -1.01927 -5.64166 0
M  V30 394 H 34.5394 -1.8063 -5.7227 0
M  V30 395 H 35.6094 -2.14288 -4.34981 0
M  V30 396 N 36.9525 1.47285 -0.560781 0
M  V30 397 C 38.3635 1.86258 -0.128343 0
M  V30 398 C 38.7145 1.46699 1.30284 0
M  V30 399 O 37.8395 0.871698 1.98067 0
M  V30 400 C 38.4345 3.38044 -0.22614 0
M  V30 401 C 36.9935 3.76096 0.151283 0
M  V30 402 C 36.1405 2.71335 -0.572084 0
M  V30 403 H 39.0915 1.38752 -0.770297 0
M  V30 404 H 39.1125 3.76441 0.554322 0
M  V30 405 H 38.6245 3.66806 -1.26788 0
M  V30 406 H 36.7255 3.52951 1.19399 0
M  V30 407 H 36.8385 4.78641 -0.209765 0
M  V30 408 H 35.2025 2.54696 -0.0147653 0
M  V30 409 H 35.9855 3.02938 -1.61504 0
M  V30 410 N 38.4306 0.297415 1.54768 0
M  V30 411 C 39.6776 -0.312913 2.00068 0
M  V30 412 C 40.0056 -1.54171 1.18582 0
M  V30 413 O 39.2606 -1.94108 0.249133 0
M  V30 414 C 39.5596 -0.717561 3.50123 0
M  V30 415 C 39.2256 0.409095 4.4904 0
M  V30 416 C 37.8876 0.718399 4.75807 0
M  V30 417 C 40.2396 1.16717 5.07963 0
M  V30 418 C 37.5676 1.78896 5.5876 0
M  V30 419 C 39.9196 2.22762 5.92081 0
M  V30 420 C 38.5836 2.54303 6.1716 0
M  V30 421 H 37.8536 -0.114503 0.7321 0
M  V30 422 H 40.5006 0.415767 1.86932 0
M  V30 423 H 38.8056 -1.52627 3.60849 0
M  V30 424 H 40.5026 -1.20091 3.82595 0
M  V30 425 H 37.0926 0.157918 4.28309 0
M  V30 426 H 41.2766 0.941466 4.87289 0
M  V30 427 H 36.5326 2.0381 5.7643 0
M  V30 428 H 40.7066 2.81962 6.36765 0
M  V30 429 H 38.3336 3.3739 6.81229 0
M  V30 430 N 39.9087 -1.5758 0.0250728 0
M  V30 431 C 40.8407 -2.06869 -0.986796 0
M  V30 432 C 41.8537 -0.991332 -1.29137 0
M  V30 433 O 43.0427 -1.26761 -1.25674 0
M  V30 434 C 40.1427 -2.47486 -2.31525 0
M  V30 435 C 39.3157 -3.78253 -2.19643 0
M  V30 436 C 38.3747 -4.05464 -3.35388 0
M  V30 437 O 37.4007 -4.75774 -3.12454 0
M  V30 438 N 38.6027 -3.55321 -4.59051 0
M  V30 439 H 41.3677 -2.94302 -0.566276 0
M  V30 440 H 38.9287 -1.6109 -0.161776 0
M  V30 441 H 40.9207 -2.62785 -3.07776 0
M  V30 442 H 39.4907 -1.65441 -2.65232 0
M  V30 443 H 38.7107 -3.7279 -1.28144 0
M  V30 444 H 39.9987 -4.63936 -2.08903 0
M  V30 445 H 39.3967 -2.98431 -4.80578 0
M  V30 446 H 37.9537 -3.75905 -5.32483 0
M  V30 447 N 41.3868 0.248026 -1.55636 0
M  V30 448 C 42.3348 1.32683 -1.91045 0
M  V30 449 C 43.3288 1.49883 -0.789401 0
M  V30 450 O 44.5348 1.51371 -0.974007 0
M  V30 451 H 40.9098 0.444272 -0.606734 0
M  V30 452 H 42.8808 1.00085 -2.81115 0
M  V30 453 C 41.6298 2.6755 -2.22064 0
M  V30 454 H 40.9528 2.55114 -3.07826 0
M  V30 455 H 42.3928 3.41912 -2.50743 0
M  V30 456 C 40.8518 3.20556 -1.0366 0
M  V30 457 O 41.3818 4.00695 -0.284016 0
M  V30 458 N 39.5878 2.78568 -0.82753 0
M  V30 459 H 39.1348 2.1351 -1.44123 0
M  V30 460 H 39.0928 3.14378 -0.0369803 0
M  V30 461 N 42.8649 1.48995 0.513639 0
M  V30 462 C 44.0929 1.61531 1.29288 0
M  V30 463 C 44.5079 0.281801 1.86685 0
M  V30 464 O 43.8649 -0.731111 1.67215 0
M  V30 465 C 43.9159 2.67449 2.43215 0
M  V30 466 O 43.6369 3.95626 1.88179 0
M  V30 467 C 45.1379 2.90575 3.34785 0
M  V30 468 H 42.3579 0.544165 0.392588 0
M  V30 469 H 44.9019 1.9494 0.617956 0
M  V30 470 H 43.0569 2.36853 3.0656 0
M  V30 471 H 43.4709 4.53868 2.62876 0
M  V30 472 H 44.9449 3.68449 4.11035 0
M  V30 473 H 45.4219 2.00011 3.91015 0
M  V30 474 H 46.0279 3.22538 2.77218 0
M  V30 475 N 44.343 -0.763751 1.37857 0
M  V30 476 C 45.754 -1.3405 1.29952 0
M  V30 477 C 46.105 -1.96138 -0.0492898 0
M  V30 478 O 45.23 -1.94372 -0.951239 0
M  V30 479 C 45.825 -2.43729 2.35333 0
M  V30 480 C 44.384 -2.97151 2.31037 0
M  V30 481 C 43.531 -1.70438 2.18738 0
M  V30 482 H 46.482 -0.563396 1.48363 0
M  V30 483 H 46.503 -3.23412 2.00462 0
M  V30 484 H 46.015 -1.9851 3.33489 0
M  V30 485 H 44.116 -3.46724 1.3643 0
M  V30 486 H 44.229 -3.52221 3.24772 0
M  V30 487 H 42.593 -1.93673 1.65418 0
M  V30 488 H 43.376 -1.27312 3.18821 0
M  V30 489 N 45.8211 -1.22559 -0.990812 0
M  V30 490 C 47.0671 -1.05297 -1.73322 0
M  V30 491 C 47.4001 0.410655 -1.89808 0
M  V30 492 O 46.6751 1.30439 -1.44277 0
M  V30 493 C 46.9581 -1.76713 -3.13759 0
M  V30 494 C 46.8111 -3.30684 -3.04907 0
M  V30 495 C 48.1301 -1.52121 -4.12974 0
M  V30 496 H 45.2491 -0.38392 -0.629106 0
M  V30 497 H 47.8911 -1.50926 -1.15418 0
M  V30 498 H 46.0411 -1.37924 -3.63193 0
M  V30 499 H 47.7131 -3.7893 -2.63077 0
M  V30 500 H 45.9561 -3.60253 -2.41661 0
M  V30 501 H 46.6271 -3.75833 -4.04294 0
M  V30 502 H 49.1031 -1.85819 -3.72304 0
M  V30 503 H 47.9791 -2.04582 -5.0935 0
M  V30 504 H 48.2401 -0.454257 -4.3976 0
M  V30 505 N 47.2992 1.18797 -1.03562 0
M  V30 506 C 48.5452 1.8893 -0.737113 0
M  V30 507 C 48.8782 1.79837 0.732956 0
M  V30 508 O 48.1532 1.19525 1.5344 0
M  V30 509 C 48.4362 3.39607 -1.19745 0
M  V30 510 C 48.2892 3.57537 -2.72924 0
M  V30 511 C 49.6082 4.33069 -0.783526 0
M  V30 512 H 46.7272 0.686057 -0.269249 0
M  V30 513 H 49.3692 1.39797 -1.28673 0
M  V30 514 H 47.5192 3.81583 -0.729855 0
M  V30 515 H 49.1912 3.24688 -3.27682 0
M  V30 516 H 47.4342 3.00363 -3.12993 0
M  V30 517 H 48.1052 4.63238 -3.00191 0
M  V30 518 H 50.5812 3.98846 -1.18581 0
M  V30 519 H 49.4572 5.3707 -1.13343 0
M  V30 520 H 49.7182 4.40986 0.313681 0
M  V30 521 N 48.7773 0.814389 1.34928 0
M  V30 522 C 49.6873 0.231978 2.3345 0
M  V30 523 C 50.7033 -0.629139 1.62228 0
M  V30 524 O 51.8793 -0.539052 1.94052 0
M  V30 525 C 48.9443 -0.603482 3.41407 0
M  V30 526 C 48.0053 0.279037 4.28392 0
M  V30 527 C 47.2383 -0.516643 5.31193 0
M  V30 528 O 47.4613 -1.75068 5.4287 0
M  V30 529 O 46.3953 0.0965652 6.01823 0
M  V30 530 H 50.2213 1.04721 2.85074 0
M  V30 531 H 47.8063 0.576343 1.37836 0
M  V30 532 H 49.6883 -1.07908 4.0735 0
M  V30 533 H 48.3633 -1.39618 2.92042 0
M  V30 534 H 47.2703 0.801948 3.65403 0
M  V30 535 H 48.6033 1.03588 4.81176 0
M  V30 536 N 50.2554 -1.46986 0.568584 0
M  V30 537 C 51.4834 -2.0683 0.0539956 0
M  V30 538 C 51.8984 -1.41953 -1.24478 0
M  V30 539 O 51.2554 -0.519933 -1.74937 0
M  V30 540 C 51.3064 -3.61254 -0.133362 0
M  V30 541 O 51.0274 -4.237 1.11399 0
M  V30 542 C 52.5284 -4.37992 -0.683927 0
M  V30 543 H 49.7484 -0.669058 0.0510141 0
M  V30 544 H 52.2924 -1.88824 0.785234 0
M  V30 545 H 50.4474 -3.78735 -0.81477 0
M  V30 546 H 50.8614 -5.16388 0.91888 0
M  V30 547 H 52.3354 -5.46684 -0.764263 0
M  V30 548 H 52.8124 -4.05058 -1.69778 0
M  V30 549 H 53.4184 -4.25283 -0.0378494 0
M  V30 550 N 51.7335 -0.305618 -1.54608 0
M  V30 551 C 52.6665 0.610536 -2.19881 0
M  V30 552 C 53.6445 1.1294 -1.16976 0
M  V30 553 O 54.8285 1.19673 -1.45638 0
M  V30 554 C 51.9555 1.83583 -2.84631 0
M  V30 555 C 51.0015 1.4498 -4.01102 0
M  V30 556 S 51.8345 0.501793 -5.33144 0
M  V30 557 C 52.9905 1.73478 -6.01379 0
M  V30 558 H 53.2235 0.0560177 -2.97247 0
M  V30 559 H 50.7565 -0.0897434 -1.54139 0
M  V30 560 H 52.7145 2.53898 -3.22562 0
M  V30 561 H 51.3755 2.36152 -2.07102 0
M  V30 562 H 50.5685 2.36236 -4.45206 0
M  V30 563 H 50.1705 0.826553 -3.64752 0
M  V30 564 H 52.4625 2.67473 -6.22467 0
M  V30 565 H 53.4055 1.33622 -6.95378 0
M  V30 566 H 53.8135 1.9136 -5.31076 0
M  V30 567 N 53.2116 1.57565 -0.0334293 0
M  V30 568 C 54.1436 2.0739 0.975811 0
M  V30 569 C 55.1566 0.998166 1.2861 0
M  V30 570 O 56.3456 1.27426 1.25 0
M  V30 571 C 53.4456 2.4871 2.30209 0
M  V30 572 C 52.6186 3.79413 2.17634 0
M  V30 573 C 51.6776 4.07237 3.33233 0
M  V30 574 O 50.7036 4.77425 3.09927 0
M  V30 575 N 51.9056 3.5775 4.5716 0
M  V30 576 H 54.6706 2.94598 0.55066 0
M  V30 577 H 52.2316 1.61173 0.15323 0
M  V30 578 H 54.2236 2.64413 3.06378 0
M  V30 579 H 52.7936 1.66845 2.64351 0
M  V30 580 H 52.0136 3.73465 1.26165 0
M  V30 581 H 53.3016 4.65038 2.0644 0
M  V30 582 H 52.6996 3.00976 4.78989 0
M  V30 583 H 51.2566 3.78724 5.30482 0
M  V30 584 N 54.6897 -0.239769 1.55765 0
M  V30 585 C 55.9197 -0.982743 1.8173 0
M  V30 586 C 56.3277 -1.7917 0.607835 0
M  V30 587 O 55.6707 -1.78525 -0.432973 0
M  V30 588 C 55.7327 -1.96332 3.01155 0
M  V30 589 C 55.3967 -1.34062 4.36894 0
M  V30 590 C 56.3937 -0.739539 5.14613 0
M  V30 591 C 54.0787 -1.35784 4.83599 0
M  V30 592 C 56.0727 -0.163989 6.37189 0
M  V30 593 C 53.7597 -0.778441 6.06122 0
M  V30 594 C 54.7577 -0.182548 6.82756 0
M  V30 595 O 54.4457 0.387887 8.02964 0
M  V30 596 H 54.1777 -0.294481 0.608487 0
M  V30 597 H 56.7317 -0.26572 2.03674 0
M  V30 598 H 54.9617 -2.71884 2.74984 0
M  V30 599 H 56.6507 -2.57032 3.14149 0
M  V30 600 H 57.4167 -0.718687 4.79646 0
M  V30 601 H 53.2957 -1.81105 4.23936 0
M  V30 602 H 56.8397 0.301753 6.96947 0
M  V30 603 H 52.7367 -0.796645 6.40565 0
M  V30 604 H 53.5047 0.28044 8.18019 0
M  V30 605 N 56.1678 -1.49265 -0.50573 0
M  V30 606 C 57.4158 -1.582 -1.25766 0
M  V30 607 C 57.7368 -0.268482 -1.93143 0
M  V30 608 O 57.0068 0.711833 -1.8251 0
M  V30 609 H 55.5868 -0.582873 -0.467191 0
M  V30 610 H 58.2488 -1.85865 -0.586525 0
M  V30 611 H 57.3448 -2.37563 -2.02412 0
M  V30 612 N 57.6459 0.756429 -1.3826 0
M  V30 613 C 58.6089 1.85176 -1.35065 0
M  V30 614 C 59.6089 1.58818 -0.251703 0
M  V30 615 O 60.7989 1.66615 -0.508433 0
M  V30 616 C 57.9309 3.22596 -1.10201 0
M  V30 617 H 59.1239 1.89417 -2.3251 0
M  V30 618 H 56.6769 0.95783 -1.23512 0
M  V30 619 H 57.4119 3.24025 -0.133504 0
M  V30 620 H 57.1969 3.43122 -1.89762 0
M  V30 621 H 58.6869 4.02673 -1.10654 0
M  V30 622 N 59.124 1.23083 0.984299 0
M  V30 623 C 60.054 1.03292 2.09411 0
M  V30 624 C 61.035 -0.048923 1.7003 0
M  V30 625 O 62.22 0.114967 1.93859 0
M  V30 626 C 59.35 0.619155 3.41736 0
M  V30 627 C 58.304 1.64791 3.95004 0
M  V30 628 C 57.63 1.0897 5.23478 0
M  V30 629 C 58.93 3.03999 4.24714 0
M  V30 630 H 60.624 1.96119 2.26225 0
M  V30 631 H 58.17 0.944344 1.08711 0
M  V30 632 H 60.123 0.467777 4.18796 0
M  V30 633 H 58.847 -0.344786 3.24775 0
M  V30 634 H 57.506 1.78721 3.20085 0
M  V30 635 H 57.154 0.11686 5.02864 0
M  V30 636 H 56.854 1.77704 5.60085 0
M  V30 637 H 58.378 0.950093 6.03163 0
M  V30 638 H 59.792 2.93393 4.92538 0
M  V30 639 H 58.189 3.69936 4.72512 0
M  V30 640 H 59.259 3.53285 3.32142 0
M  V30 641 N 60.6021 -1.18246 1.0419 0
M  V30 642 C 61.5321 -2.24127 0.654914 0
M  V30 643 C 62.5131 -1.66617 -0.342451 0
M  V30 644 O 63.6981 -1.92924 -0.222277 0
M  V30 645 C 60.8281 -3.47295 0.0183757 0
M  V30 646 C 59.7821 -4.17563 0.939414 0
M  V30 647 C 59.1081 -5.34438 0.167286 0
M  V30 648 C 60.4081 -4.70917 2.25908 0
M  V30 649 H 62.1021 -2.56753 1.54007 0
M  V30 650 H 59.6481 -1.23414 0.74195 0
M  V30 651 H 61.6011 -4.20572 -0.264082 0
M  V30 652 H 60.3251 -3.13907 -0.901664 0
M  V30 653 H 58.9841 -3.46186 1.20628 0
M  V30 654 H 58.6321 -4.97298 -0.7552 0
M  V30 655 H 58.3321 -5.82388 0.780901 0
M  V30 656 H 59.8561 -6.10504 -0.108125 0
M  V30 657 H 61.2701 -5.35882 2.03724 0
M  V30 658 H 59.6671 -5.29406 2.82577 0
M  V30 659 H 60.7371 -3.88272 2.9047 0
M  V30 660 N 62.0802 -0.821533 -1.34494 0
M  V30 661 C 63.3282 -0.408139 -1.97936 0
M  V30 662 C 63.6492 1.03193 -1.65457 0
M  V30 663 O 62.9192 1.71622 -0.944595 0
M  V30 664 H 61.4992 -0.147928 -0.732206 0
M  V30 665 H 64.1612 -1.05067 -1.64155 0
M  V30 666 H 63.2572 -0.52601 -3.07635 0
M  V30 667 N 63.5583 1.46682 -0.576371 0
M  V30 668 C 64.8063 2.02013 -0.0594163 0
M  V30 669 C 65.1273 1.45101 1.30271 0
M  V30 670 O 64.3973 0.633317 1.8538 0
M  V30 671 H 62.9773 0.746759 -0.0189745 0
M  V30 672 H 65.6393 1.79862 -0.750717 0
M  V30 673 H 64.7353 3.12097 0.014345 0
M  V30 674 N 65.0364 0.313813 1.54444 0
M  V30 675 C 65.9834 -0.55655 2.23989 0
M  V30 676 C 66.9534 -1.11943 1.22711 0
M  V30 677 O 68.1384 -1.16158 1.51367 0
M  V30 678 C 65.2784 -1.71635 2.99392 0
M  V30 679 C 64.3914 -1.18364 4.15468 0
M  V30 680 C 63.5264 -2.30834 4.78424 0
M  V30 681 C 62.5654 -1.74762 5.86622 0
M  V30 682 N 61.7024 -2.80855 6.43479 0
M  V30 683 H 66.5424 0.0430893 2.97969 0
M  V30 684 H 64.0794 0.0330359 1.47063 0
M  V30 685 H 66.0374 -2.39868 3.41349 0
M  V30 686 H 64.6674 -2.28742 2.27765 0
M  V30 687 H 63.7194 -0.393163 3.78363 0
M  V30 688 H 65.0314 -0.733262 4.93381 0
M  V30 689 H 64.1854 -3.0699 5.23299 0
M  V30 690 H 62.9244 -2.79204 3.99871 0
M  V30 691 H 61.9294 -0.970995 5.41158 0
M  V30 692 H 63.1544 -1.2728 6.67066 0
M  V30 693 H 61.1004 -3.28535 5.67804 0
M  V30 694 H 61.0174 -2.40351 7.16776 0
M  V30 695 H 62.2854 -3.5687 6.93011 0
M  V30 696 N 66.5145 -1.57545 0.0417849 0
M  V30 697 C 67.9305 -1.56467 -0.314704 0
M  V30 698 C 68.1305 -1.04859 -1.72066 0
M  V30 699 O 67.1865 -0.700983 -2.42575 0
M  V30 700 C 68.4995 -3.00317 -0.15174 0
M  V30 701 C 70.0475 -3.12201 -0.223553 0
M  V30 702 C 70.5225 -4.57913 -0.0892295 0
M  V30 703 N 72.0135 -4.6297 -0.145808 0
M  V30 704 C 72.7485 -5.73362 -0.0658459 0
M  V30 705 N 72.2445 -6.92769 0.0659282 0
M  V30 706 N 74.0375 -5.6197 -0.12075 0
M  V30 707 H 66.1885 -1.89416 0.961014 0
M  V30 708 H 68.4515 -0.871862 0.372237 0
M  V30 709 H 68.1575 -3.42073 0.817254 0
M  V30 710 H 68.0315 -3.65892 -0.916692 0
M  V30 711 H 70.4185 -2.70349 -1.18301 0
M  V30 712 H 70.4995 -2.49323 0.571994 0
M  V30 713 H 70.1435 -5.00448 0.866867 0
M  V30 714 H 70.0735 -5.18786 -0.903802 0
M  V30 715 H 72.5645 -3.7709 -0.247286 0
M  V30 716 H 72.8775 -7.72707 0.119905 0
M  V30 717 H 71.2225 -6.94927 0.100885 0
M  V30 718 H 74.4135 -4.67572 -0.222187 0
M  V30 719 H 74.5865 -6.47977 -0.0549735 0
M  V30 720 N 67.9926 0.231505 -1.5589 0
M  V30 721 C 68.9226 1.29022 -1.94617 0
M  V30 722 C 69.9036 1.4941 -0.813067 0
M  V30 723 O 71.0886 1.6176 -1.07459 0
M  V30 724 C 68.2186 2.64199 -2.25424 0
M  V30 725 C 67.1726 2.58484 -3.41131 0
M  V30 726 C 66.4986 3.97599 -3.57518 0
M  V30 727 C 67.7986 2.1413 -4.76388 0
M  V30 728 H 69.4926 0.968563 -2.83301 0
M  V30 729 H 67.0386 0.464479 -1.36303 0
M  V30 730 H 68.9916 3.38413 -2.51107 0
M  V30 731 H 67.7156 2.98032 -1.33583 0
M  V30 732 H 66.3746 1.86727 -3.15481 0
M  V30 733 H 66.0226 4.28723 -2.6307 0
M  V30 734 H 65.7226 3.94659 -4.35337 0
M  V30 735 H 67.2466 4.7349 -3.85538 0
M  V30 736 H 68.6606 2.78083 -5.01341 0
M  V30 737 H 67.0576 2.2227 -5.57419 0
M  V30 738 H 68.1276 1.09331 -4.72414 0
M  V30 739 N 69.4707 1.49531 0.497807 0
M  V30 740 C 70.8867 1.36365 0.829266 0
M  V30 741 C 71.0867 0.399184 1.97506 0
M  V30 742 O 70.1427 -0.167977 2.51941 0
M  V30 743 C 71.4557 2.77153 1.16647 0
M  V30 744 C 73.0037 2.85877 1.27449 0
M  V30 745 C 73.4787 4.2744 1.64497 0
M  V30 746 N 74.9697 4.30265 1.7154 0
M  V30 747 C 75.7047 5.3677 2.01656 0
M  V30 748 N 75.2007 6.53516 2.29976 0
M  V30 749 N 76.9937 5.24189 2.02934 0
M  V30 750 H 69.1447 2.10831 -0.257703 0
M  V30 751 H 71.4077 0.946534 -0.0527091 0
M  V30 752 H 71.1137 3.49442 0.397872 0
M  V30 753 H 70.9877 3.12722 2.10915 0
M  V30 754 H 73.3747 2.13824 2.0338 0
M  V30 755 H 73.4557 2.53887 0.312244 0
M  V30 756 H 73.0997 5.00021 0.891151 0
M  V30 757 H 73.0297 4.56896 2.61827 0
M  V30 758 H 75.5207 3.4607 1.51802 0
M  V30 759 H 75.8337 7.30506 2.52153 0
M  V30 760 H 74.1787 6.56737 2.27425 0
M  V30 761 H 77.3697 4.31988 1.80289 0
M  V30 762 H 77.5427 6.07286 2.26071 0
M  V30 763 N 70.9488 -0.749086 1.3866 0
M  V30 764 C 72.3598 -1.32664 1.31366 0
M  V30 765 C 72.7108 -1.96179 -0.028484 0
M  V30 766 O 71.8358 -1.9537 -0.93057 0
M  V30 767 C 72.4308 -2.41219 2.37905 0
M  V30 768 C 70.9898 -2.94684 2.34176 0
M  V30 769 C 70.1368 -1.68108 2.20533 0
M  V30 770 H 73.0878 -0.547628 1.48952 0
M  V30 771 H 73.1088 -3.21268 2.0388 0
M  V30 772 H 72.6208 -1.94962 3.35576 0
M  V30 773 H 70.7218 -3.45258 1.401 0
M  V30 774 H 70.8348 -3.48757 3.2849 0
M  V30 775 H 69.1988 -1.91907 1.67463 0
M  V30 776 H 69.9818 -1.23923 3.20153 0
M  V30 777 N 72.4269 -1.23603 -0.977757 0
M  V30 778 C 73.6739 -1.06971 -1.71941 0
M  V30 779 C 74.0019 0.393009 -1.90488 0
M  V30 780 O 73.2569 1.30719 -1.4564 0
M  V30 781 C 73.5559 -1.7433 -3.11999 0
M  V30 782 C 73.2219 -3.24252 -3.13323 0
M  V30 783 C 71.8839 -3.65156 -3.13392 0
M  V30 784 C 74.2359 -4.20141 -3.08433 0
M  V30 785 C 71.5639 -5.00403 -3.0629 0
M  V30 786 C 73.9159 -5.55384 -3.02873 0
M  V30 787 C 72.5799 -5.95647 -3.01265 0
M  V30 788 H 71.8499 -0.391433 -0.629175 0
M  V30 789 H 74.4969 -1.53572 -1.14403 0
M  V30 790 H 72.8019 -1.20096 -3.7294 0
M  V30 791 H 74.4989 -1.58936 -3.68158 0
M  V30 792 H 71.0889 -2.91692 -3.14029 0
M  V30 793 H 75.2729 -3.89547 -3.07517 0
M  V30 794 H 70.5289 -5.3081 -3.03399 0
M  V30 795 H 74.7029 -6.29398 -2.98046 0
M  V30 796 H 72.3299 -7.0041 -2.95516 0
M  V30 797 N 73.905 1.17692 -1.04816 0
M  V30 798 C 74.835 2.23777 -0.666791 0
M  V30 799 C 75.816 1.66796 0.33361 0
M  V30 800 O 77.001 1.93039 0.212042 0
M  V30 801 C 74.131 3.47281 -0.0367933 0
M  V30 802 C 73.085 4.17059 -0.961546 0
M  V30 803 C 72.411 5.34342 -0.195626 0
M  V30 804 C 73.711 4.69713 -2.28402 0
M  V30 805 H 75.405 2.55933 -1.55367 0
M  V30 806 H 72.951 1.23019 -0.748484 0
M  V30 807 H 74.904 4.20706 0.241775 0
M  V30 808 H 73.628 3.14381 0.885004 0
M  V30 809 H 72.287 3.45541 -1.22462 0
M  V30 810 H 71.935 4.97692 0.728816 0
M  V30 811 H 71.635 5.81966 -0.811775 0
M  V30 812 H 73.159 6.10553 0.0757473 0
M  V30 813 H 74.573 5.34794 -2.06563 0
M  V30 814 H 72.97 5.279 -2.8538 0
M  V30 815 H 74.04 3.86726 -2.92525 0
M  V30 816 N 75.3831 0.828654 1.34056 0
M  V30 817 C 76.6291 0.42008 1.98402 0
M  V30 818 C 76.9621 -1.01564 1.65525 0
M  V30 819 O 76.2371 -1.70834 0.929831 0
M  V30 820 C 76.5201 0.62927 3.54559 0
M  V30 821 C 76.3731 2.11152 3.97159 0
M  V30 822 C 77.6921 0.0688756 4.40046 0
M  V30 823 H 74.8111 0.154104 0.720709 0
M  V30 824 H 77.4531 1.04228 1.5886 0
M  V30 825 H 75.6031 0.0996418 3.88372 0
M  V30 826 H 77.2751 2.70522 3.73651 0
M  V30 827 H 75.5181 2.59985 3.47261 0
M  V30 828 H 76.1891 2.20868 5.05887 0
M  V30 829 H 78.6651 0.521458 4.1282 0
M  V30 830 H 77.5411 0.245006 5.48353 0
M  V30 831 H 77.8021 -1.0266 4.30015 0
M  V30 832 N 76.8612 -1.46375 0.584142 0
M  V30 833 C 78.0912 -2.06461 0.0758195 0
M  V30 834 C 78.4992 -1.43322 -1.23512 0
M  V30 835 O 77.8422 -0.533216 -1.75791 0
M  V30 836 C 77.9042 -3.59131 -0.162773 0
M  V30 837 C 77.5682 -4.4447 1.06279 0
M  V30 838 C 78.5652 -4.80918 1.97519 0
M  V30 839 C 76.2502 -4.85584 1.28504 0
M  V30 840 C 78.2442 -5.57309 3.09331 0
M  V30 841 C 75.9312 -5.61734 2.4062 0
M  V30 842 C 76.9292 -5.9751 3.30863 0
M  V30 843 O 76.6172 -6.72121 4.41032 0
M  V30 844 H 76.3492 -0.673745 0.0551725 0
M  V30 845 H 78.9032 -1.88969 0.804984 0
M  V30 846 H 77.1332 -3.74936 -0.946565 0
M  V30 847 H 78.8222 -4.0114 -0.619782 0
M  V30 848 H 79.5882 -4.49732 1.81565 0
M  V30 849 H 75.4672 -4.57187 0.591702 0
M  V30 850 H 79.0112 -5.85152 3.79793 0
M  V30 851 H 74.9082 -5.92334 2.56537 0
M  V30 852 H 75.6762 -6.90547 4.39417 0
M  V30 853 N 78.3393 -0.321999 -1.54275 0
M  V30 854 C 79.3023 0.531975 -2.22941 0
M  V30 855 C 80.3023 1.04478 -1.22234 0
M  V30 856 O 81.4923 0.937452 -1.46825 0
M  V30 857 C 78.6243 1.73874 -2.93224 0
M  V30 858 H 79.8173 -0.0682612 -2.99822 0
M  V30 859 H 77.3703 -0.0730644 -1.56129 0
M  V30 860 H 78.1053 2.37825 -2.20476 0
M  V30 861 H 77.8903 1.37847 -3.6707 0
M  V30 862 H 79.3803 2.34496 -3.45545 0
M  V30 863 N 79.8174 1.5752 -0.0501392 0
M  V30 864 C 81.0454 1.96963 0.633492 0
M  V30 865 C 81.4604 0.927631 1.6444 0
M  V30 866 O 80.8174 -0.0882665 1.82286 0
M  V30 867 C 80.8684 3.36487 1.32132 0
M  V30 868 O 80.5894 4.36693 0.350894 0
M  V30 869 C 82.0904 3.90682 2.09481 0
M  V30 870 H 79.3104 0.648244 0.173266 0
M  V30 871 H 81.8544 2.0417 -0.116134 0
M  V30 872 H 80.0094 3.30434 2.02218 0
M  V30 873 H 80.4234 5.17702 0.841735 0
M  V30 874 H 81.8974 4.90591 2.5303 0
M  V30 875 H 82.3744 3.26053 2.94255 0
M  V30 876 H 82.9804 4.00069 1.44307 0
M  V30 877 N 81.2955 -0.223234 1.56011 0
M  V30 878 C 82.5435 -0.946003 1.78592 0
M  V30 879 C 82.8645 -1.84936 0.618349 0
M  V30 880 O 82.1345 -1.92473 -0.364833 0
M  V30 881 H 80.7145 -0.352298 0.658707 0
M  V30 882 H 83.3765 -0.235494 1.93472 0
M  V30 883 H 82.4725 -1.55381 2.70672 0
M  V30 884 N 82.7736 -1.49793 -0.48987 0
M  V30 885 C 83.7236 -1.63673 -1.5873 0
M  V30 886 C 84.7076 -0.491956 -1.53195 0
M  V30 887 O 85.8996 -0.745461 -1.60536 0
M  V30 888 C 83.0286 -1.71689 -2.97284 0
M  V30 889 C 82.1146 -2.91781 -3.07774 0
M  V30 890 N 82.5056 -4.15714 -2.88124 0
M  V30 891 C 80.8036 -2.89949 -3.38889 0
M  V30 892 C 81.5046 -4.965 -3.03088 0
M  V30 893 N 80.4806 -4.30083 -3.3246 0
M  V30 894 H 84.2826 -2.57204 -1.42208 0
M  V30 895 H 81.7966 -1.46719 -0.69623 0
M  V30 896 H 83.7936 -1.79732 -3.76168 0
M  V30 897 H 82.4536 -0.793024 -3.14867 0
M  V30 898 H 83.4646 -4.45515 -2.64077 0
M  V30 899 H 80.1416 -2.06987 -3.62578 0
M  V30 900 H 81.5316 -6.04991 -2.92294 0
M  V30 901 N 84.2517 0.741722 -1.39055 0
M  V30 902 C 85.1847 1.86416 -1.31622 0
M  V30 903 C 86.1627 1.61473 -0.191076 0
M  V30 904 O 87.3467 1.84825 -0.370399 0
M  V30 905 C 84.4737 3.22266 -1.04221 0
M  V30 906 C 83.5197 3.66079 -2.18834 0
M  V30 907 S 84.3527 3.7623 -3.81066 0
M  V30 908 C 85.5087 5.14881 -3.55877 0
M  V30 909 H 85.7417 1.92437 -2.26617 0
M  V30 910 H 83.2747 0.905907 -1.25031 0
M  V30 911 H 85.2327 4.00714 -0.890964 0
M  V30 912 H 83.8937 3.1391 -0.109237 0
M  V30 913 H 83.0867 4.64648 -1.95238 0
M  V30 914 H 82.6887 2.94817 -2.30128 0
M  V30 915 H 84.9807 6.01006 -3.12726 0
M  V30 916 H 85.9237 5.43503 -4.53884 0
M  V30 917 H 86.3317 4.84239 -2.90126 0
M  V30 918 N 85.7298 1.2412 0.971189 0
M  V30 919 C 86.9768 1.07881 1.71371 0
M  V30 920 C 87.3048 -0.382901 1.90694 0
M  V30 921 O 86.5598 -1.29945 1.46331 0
M  V30 922 C 86.8588 1.75983 3.11071 0
M  V30 923 C 86.5248 3.25909 3.11599 0
M  V30 924 C 85.1868 3.66813 3.11451 0
M  V30 925 C 87.5388 4.21771 3.062 0
M  V30 926 C 84.8668 5.02021 3.03631 0
M  V30 927 C 87.2188 5.56982 2.99923 0
M  V30 928 C 85.8828 5.97237 2.98102 0
M  V30 929 H 85.1528 0.394764 0.62709 0
M  V30 930 H 87.7998 1.54176 1.13587 0
M  V30 931 H 86.1048 1.22072 3.72298 0
M  V30 932 H 87.8018 1.60887 3.6731 0
M  V30 933 H 84.3918 2.93353 3.12477 0
M  V30 934 H 88.5758 3.91172 3.05447 0
M  V30 935 H 83.8318 5.32411 3.0058 0
M  V30 936 H 88.0058 6.30969 2.94704 0
M  V30 937 H 85.6328 7.01967 2.91798 0
M  V30 938 N 87.2079 -1.17134 1.05439 0
M  V30 939 C 88.4559 -1.87085 0.764429 0
M  V30 940 C 88.7769 -1.81584 -0.710787 0
M  V30 941 O 88.0469 -1.24349 -1.51374 0
M  V30 942 H 86.6269 -0.692627 0.279779 0
M  V30 943 H 89.2889 -1.42087 1.33406 0
M  V30 944 H 88.3849 -2.92759 1.0816 0
M  V30 945 N 88.686 -0.835752 -1.33615 0
M  V30 946 C 89.932 -0.430596 -1.98176 0
M  V30 947 C 90.265 1.00684 -1.66061 0
M  V30 948 O 89.54 1.70339 -0.938877 0
M  V30 949 C 89.823 -0.648065 -3.5422 0
M  V30 950 C 89.676 -2.13255 -3.96033 0
M  V30 951 C 90.995 -0.0922113 -4.40003 0
M  V30 952 H 88.114 -0.157924 -0.719881 0
M  V30 953 H 90.756 -1.05069 -1.58305 0
M  V30 954 H 88.906 -0.120237 -3.88314 0
M  V30 955 H 90.578 -2.725 -3.72211 0
M  V30 956 H 88.821 -2.61823 -3.45878 0
M  V30 957 H 89.492 -2.23547 -5.04708 0
M  V30 958 H 91.968 -0.543343 -4.12537 0
M  V30 959 H 90.844 -0.274083 -5.48215 0
M  V30 960 H 91.105 1.00378 -4.30554 0
M  V30 961 N 90.1641 1.46063 -0.591896 0
M  V30 962 C 91.3891 2.07226 -0.0850314 0
M  V30 963 C 91.8141 1.43625 1.21463 0
M  V30 964 O 91.1721 0.523305 1.73583 0
M  V30 965 C 91.2201 3.60554 0.0576567 0
M  V30 966 O 90.3241 3.97128 1.11188 0
M  V30 967 H 89.6651 0.660615 -0.0669568 0
M  V30 968 H 92.1951 1.8756 -0.81745 0
M  V30 969 H 92.2051 4.07165 0.2609 0
M  V30 970 H 90.8801 4.06235 -0.891416 0
M  V30 971 H 89.4571 3.62213 0.886356 0
M  V30 972 N 91.6422 0.330177 1.54103 0
M  V30 973 C 92.8702 -0.272179 2.05102 0
M  V30 974 C 93.2852 -1.45267 1.20595 0
M  V30 975 O 92.6422 -1.8094 0.238144 0
M  V30 976 C 92.6932 -0.70023 3.54653 0
M  V30 977 O 92.4142 0.433301 4.35952 0
M  V30 978 C 93.9152 -1.3647 4.21771 0
M  V30 979 H 91.1352 -0.0549159 0.668749 0
M  V30 980 H 93.6792 0.478285 1.98828 0
M  V30 981 H 91.8342 -1.40066 3.61193 0
M  V30 982 H 92.2482 0.0947539 5.24414 0
M  V30 983 H 93.7222 -1.61509 5.27843 0
M  V30 984 H 94.1992 -2.31409 3.73292 0
M  V30 985 H 94.8052 -0.706675 4.19388 0
M  V30 986 N 93.1203 -1.57491 0.0584922 0
M  V30 987 C 94.0683 -2.13148 -0.931168 0
M  V30 988 C 95.0623 -1.06507 -1.31729 0
M  V30 989 O 96.2683 -1.24906 -1.29609 0
M  V30 990 H 92.6433 -0.68137 -0.31818 0
M  V30 991 H 94.6143 -2.95187 -0.436707 0
M  V30 992 C 93.3633 -2.69732 -2.19408 0
M  V30 993 H 92.6863 -3.51454 -1.90578 0
M  V30 994 H 94.1263 -3.12287 -2.86798 0
M  V30 995 C 92.5853 -1.63855 -2.94369 0
M  V30 996 O 93.1153 -1.05565 -3.87581 0
M  V30 997 N 91.3213 -1.35202 -2.57233 0
M  V30 998 H 90.8683 -1.82791 -1.81508 0
M  V30 999 H 90.8263 -0.645922 -3.07693 0
M  V30 1000 N 94.5984 0.214957 -1.56127 0
M  V30 1001 C 95.8264 0.955092 -1.83536 0
M  V30 1002 C 96.2414 1.77677 -0.638472 0
M  V30 1003 O 95.5984 1.78219 0.392968 0
M  V30 1004 C 95.6494 1.86734 -3.09536 0
M  V30 1005 O 95.3704 1.07887 -4.24608 0
M  V30 1006 C 96.8714 2.72082 -3.4998 0
M  V30 1007 H 94.0914 0.279611 -0.609966 0
M  V30 1008 H 96.6354 0.228197 -2.03223 0
M  V30 1009 H 94.7904 2.5481 -2.91806 0
M  V30 1010 H 95.2044 1.69872 -4.9623 0
M  V30 1011 H 96.6784 3.31782 -4.41163 0
M  V30 1012 H 97.1554 3.44806 -2.7204 0
M  V30 1013 H 97.7614 2.09409 -3.70173 0
M  V30 1014 N 96.0765 1.50051 0.48192 0
M  V30 1015 C 97.0065 1.71046 1.58951 0
M  V30 1016 C 97.9875 0.559288 1.60642 0
M  V30 1017 O 99.1725 0.797243 1.77081 0
M  V30 1018 C 96.3025 1.79462 2.97339 0
M  V30 1019 C 95.2565 2.94558 3.10515 0
M  V30 1020 C 94.5825 2.88105 4.50444 0
M  V30 1021 C 95.8825 4.35227 2.88747 0
M  V30 1022 H 97.5765 2.6378 1.41635 0
M  V30 1023 H 95.1225 1.26936 0.679942 0
M  V30 1024 H 97.0755 1.92734 3.74742 0
M  V30 1025 H 95.7995 0.833412 3.15788 0
M  V30 1026 H 94.4585 2.80918 2.35543 0
M  V30 1027 H 94.1065 1.89853 4.65795 0
M  V30 1028 H 93.8065 3.65366 4.60197 0
M  V30 1029 H 95.3305 3.03412 5.29881 0
M  V30 1030 H 96.7445 4.49449 3.55905 0
M  V30 1031 H 95.1415 5.13856 3.09955 0
M  V30 1032 H 96.2115 4.48347 1.84696 0
M  V30 1033 N 97.5546 -0.734337 1.39446 0
M  V30 1034 C 98.8316 -1.48579 1.27215 0
M  V30 1035 C 99.2116 -2.1077 -0.117968 0
M  V30 1036 O 98.5596 -1.98646 -1.12924 0
M  V30 1037 C 98.7696 -2.53667 2.39696 0
M  V30 1038 C 100.118 -3.20031 2.79044 0
M  V30 1039 O 101.142 -2.6398 2.39151 0
M  V30 1040 O 100.001 -4.21455 3.47905 0
M  V30 1041 H 97.0946 -0.659816 0.49857 0
M  V30 1042 H 99.6406 -0.768106 1.51322 0
M  V30 1043 H 98.4126 -2.06096 3.32626 0
M  V30 1044 H 98.0356 -3.32994 2.17258 0
M  V30 1045 N 99.0327 -1.24633 -0.964593 0
M  V30 1046 C 99.9957 -1.0424 -2.04124 0
M  V30 1047 C 100.996 0.00137563 -1.608 0
M  V30 1048 O 102.186 -0.239883 -1.7254 0
M  V30 1049 C 99.3177 -0.580588 -3.3592 0
M  V30 1050 H 100.511 -1.99803 -2.23649 0
M  V30 1051 H 98.0637 -1.06899 -1.14027 0
M  V30 1052 H 98.7987 0.3781 -3.22088 0
M  V30 1053 H 98.5837 -1.33398 -3.6871 0
M  V30 1054 H 100.074 -0.459034 -4.15069 0
M  V30 1055 N 100.511 1.16574 -1.06058 0
M  V30 1056 C 101.922 1.68662 -0.800632 0
M  V30 1057 C 102.273 1.84184 0.67608 0
M  V30 1058 O 101.398 1.53568 1.52466 0
M  V30 1059 C 101.993 3.06356 -1.44676 0
M  V30 1060 C 100.552 3.55575 -1.23465 0
M  V30 1061 C 99.6988 2.31616 -1.52477 0
M  V30 1062 H 102.65 1.00969 -1.22438 0
M  V30 1063 H 102.671 3.70636 -0.860788 0
M  V30 1064 H 102.183 2.95027 -2.52152 0
M  V30 1065 H 100.284 3.72167 -0.179527 0
M  V30 1066 H 100.397 4.37812 -1.94571 0
M  V30 1067 H 98.7608 2.36512 -0.945209 0
M  V30 1068 H 99.5438 2.22887 -2.61106 0
M  V30 1069 N 101.989 0.842826 1.3317 0
M  V30 1070 C 102.952 0.284065 2.27433 0
M  V30 1071 C 103.952 -0.54948 1.5112 0
M  V30 1072 O 105.142 -0.362699 1.70382 0
M  V30 1073 C 102.274 -0.599384 3.35589 0
M  V30 1074 H 103.467 1.11589 2.78366 0
M  V30 1075 H 101.02 0.616221 1.4364 0
M  V30 1076 H 101.755 -1.45349 2.89904 0
M  V30 1077 H 101.54 -0.00291266 3.921 0
M  V30 1078 H 103.03 -0.983488 4.05854 0
M  V30 1079 N 103.467 -1.45747 0.599634 0
M  V30 1080 C 104.43 -2.28917 -0.113835 0
M  V30 1081 C 105.43 -1.3933 -0.802729 0
M  V30 1082 O 106.62 -1.61534 -0.652103 0
M  V30 1083 C 103.752 -3.20152 -1.17114 0
M  V30 1084 H 104.945 -2.93478 0.617289 0
M  V30 1085 H 102.498 -1.52137 0.358327 0
M  V30 1086 H 103.233 -2.60374 -1.93329 0
M  V30 1087 H 103.018 -3.86133 -0.681468 0
M  V30 1088 H 104.508 -3.82708 -1.67105 0
M  V30 1089 N 104.945 -0.338344 -1.53925 0
M  V30 1090 C 105.908 0.508299 -2.23493 0
M  V30 1091 C 106.908 1.03175 -1.23335 0
M  V30 1092 O 108.098 0.921826 -1.47811 0
M  V30 1093 C 105.23 1.70754 -2.95052 0
M  V30 1094 H 106.423 -0.100058 -2.99733 0
M  V30 1095 H 103.976 -0.0896198 -1.56043 0
M  V30 1096 H 104.711 2.35474 -2.22986 0
M  V30 1097 H 104.496 1.33946 -3.68512 0
M  V30 1098 H 105.986 2.30818 -3.48013 0
M  V30 1099 N 106.423 1.57458 -0.0668435 0
M  V30 1100 C 107.669 1.93587 0.6043 0
M  V30 1101 C 108.002 0.946722 1.69561 0
M  V30 1102 O 107.277 -0.0248516 1.94484 0
M  V30 1103 C 107.56 3.40014 1.18585 0
M  V30 1104 C 107.413 4.49685 0.101529 0
M  V30 1105 C 108.732 3.87154 2.09284 0
M  V30 1106 H 105.851 0.703958 0.218202 0
M  V30 1107 H 108.493 1.89542 -0.131804 0
M  V30 1108 H 106.643 3.43592 1.81319 0
M  V30 1109 H 108.315 4.5823 -0.531279 0
M  V30 1110 H 106.558 4.30059 -0.568487 0
M  V30 1111 H 107.229 5.49266 0.54874 0
M  V30 1112 H 109.705 3.85551 1.56491 0
M  V30 1113 H 108.581 4.90231 2.46911 0
M  V30 1114 H 108.842 3.2481 2.99918 0
M  V30 1115 N 107.901 -0.206675 1.56239 0
M  V30 1116 C 108.811 -1.27686 1.96808 0
M  V30 1117 C 109.827 -1.50455 0.874035 0
M  V30 1118 O 111.003 -1.63295 1.17884 0
M  V30 1119 C 108.068 -2.60358 2.28942 0
M  V30 1120 C 107.129 -2.45762 3.51994 0
M  V30 1121 C 106.362 -3.72108 3.82585 0
M  V30 1122 O 106.585 -4.75776 3.14631 0
M  V30 1123 O 105.519 -3.6833 4.76043 0
M  V30 1124 H 109.345 -0.962593 2.88041 0
M  V30 1125 H 106.93 -0.410746 1.43643 0
M  V30 1126 H 108.812 -3.38687 2.50737 0
M  V30 1127 H 107.487 -2.91435 1.4088 0
M  V30 1128 H 106.394 -1.65584 3.35459 0
M  V30 1129 H 107.727 -2.19621 4.40486 0
M  V30 1130 N 109.379 -1.50304 -0.473955 0
M  V30 1131 C 110.619 -1.62786 -1.23612 0
M  V30 1132 C 110.983 -0.319786 -1.89318 0
M  V30 1133 O 112.184 -0.320012 -2.66888 0
M  V30 1134 C 110.455 -2.77351 -2.25414 0
M  V30 1135 S 112.014 -3.09948 -3.10608 0
M  V30 1136 H 108.832 -0.573895 -0.419721 0
M  V30 1137 H 111.434 -1.88076 -0.533623 0
M  V30 1138 H 110.138 -3.70879 -1.75719 0
M  V30 1139 H 109.669 -2.54137 -3.00296 0
M  V30 1140 H 111.684 -2.53553 -4.26527 0
M  V30 1141 N 110.857 0.726932 -1.39834 0
M  V30 1142 C 112.106 1.48214 -1.36805 0
M  V30 1143 C 112.419 1.95576 0.0305291 0
M  V30 1144 O 113.625 2.7088 0.183417 0
M  V30 1145 C 112.081 2.67854 -2.40379 0
M  V30 1146 C 111.689 2.27408 -3.85992 0
M  V30 1147 C 113.433 3.45641 -2.46439 0
M  V30 1148 C 111.34 3.43819 -4.81189 0
M  V30 1149 H 110.27 0.556606 -0.508631 0
M  V30 1150 H 112.921 0.792216 -1.65518 0
M  V30 1151 H 111.303 3.3896 -2.04749 0
M  V30 1152 H 112.477 1.63795 -4.30706 0
M  V30 1153 H 110.792 1.62692 -3.83302 0
M  V30 1154 H 113.389 4.32244 -3.14753 0
M  V30 1155 H 113.732 3.88669 -1.49139 0
M  V30 1156 H 114.265 2.8157 -2.81004 0
M  V30 1157 H 111.004 3.05834 -5.79781 0
M  V30 1158 H 110.524 4.06385 -4.41148 0
M  V30 1159 H 112.203 4.10043 -5.00474 0
M  V30 1160 N 112.336 1.25143 0.95797 0
M  V30 1161 C 113.286 1.01924 2.0395 0
M  V30 1162 C 114.27 -0.0427175 1.60843 0
M  V30 1163 O 115.462 0.17221 1.7616 0
M  V30 1164 C 112.591 0.636373 3.3735 0
M  V30 1165 C 111.677 1.73492 3.8699 0
M  V30 1166 N 112.068 2.96945 4.0946 0
M  V30 1167 C 110.366 1.61467 4.15746 0
M  V30 1168 C 111.067 3.68228 4.50315 0
M  V30 1169 N 110.043 2.95833 4.56053 0
M  V30 1170 H 113.845 1.95653 2.19311 0
M  V30 1171 H 111.359 1.15413 1.14253 0
M  V30 1172 H 113.356 0.451233 4.14451 0
M  V30 1173 H 112.016 -0.293621 3.2337 0
M  V30 1174 H 113.027 3.33025 3.96629 0
M  V30 1175 H 109.704 0.753394 4.10646 0
M  V30 1176 H 111.094 4.74178 4.76031 0
M  V30 1177 N 113.814 -1.1601 1.06675 0
M  V30 1178 C 114.777 -2.18724 0.685001 0
M  V30 1179 C 115.777 -1.58496 -0.271246 0
M  V30 1180 O 116.967 -1.74119 -0.0531156 0
M  V30 1181 C 114.099 -3.40899 0.00853648 0
M  V30 1182 H 115.292 -2.54011 1.59431 0
M  V30 1183 H 112.845 -1.30352 0.862441 0
M  V30 1184 H 113.58 -3.11173 -0.913337 0
M  V30 1185 H 113.365 -3.8587 0.696204 0
M  V30 1186 H 114.855 -4.16886 -0.24414 0
M  V30 1187 N 115.292 -0.849877 -1.32721 0
M  V30 1188 C 116.522 -0.46408 -2.0132 0
M  V30 1189 C 116.93 0.94246 -1.64056 0
M  V30 1190 O 116.273 1.6257 -0.855379 0
M  V30 1191 C 116.335 -0.517887 -3.5575 0
M  V30 1192 C 115.999 -1.88248 -4.16427 0
M  V30 1193 C 116.996 -2.84726 -4.35002 0
M  V30 1194 C 114.681 -2.17832 -4.52609 0
M  V30 1195 C 116.675 -4.08945 -4.8892 0
M  V30 1196 C 114.362 -3.42304 -5.06232 0
M  V30 1197 C 115.36 -4.37677 -5.24335 0
M  V30 1198 O 115.048 -5.59946 -5.76815 0
M  V30 1199 H 114.78 -0.181327 -0.651227 0
M  V30 1200 H 117.334 -1.14713 -1.70382 0
M  V30 1201 H 115.564 0.221997 -3.86062 0
M  V30 1202 H 117.253 -0.148366 -4.05629 0
M  V30 1203 H 118.019 -2.63174 -4.07388 0
M  V30 1204 H 113.898 -1.44385 -4.37806 0
M  V30 1205 H 117.442 -4.83396 -5.02966 0
M  V30 1206 H 113.339 -3.63709 -5.33278 0
M  V30 1207 H 114.107 -5.61838 -5.95214 0
M  V30 1208 N 116.77 1.45427 -0.607355 0
M  V30 1209 C 117.995 2.07124 -0.107006 0
M  V30 1210 C 118.42 1.44906 1.19933 0
M  V30 1211 O 117.778 0.541687 1.73019 0
M  V30 1212 C 117.826 3.60595 0.0194119 0
M  V30 1213 O 116.93 3.98285 1.0697 0
M  V30 1214 H 116.271 0.659868 -0.0739597 0
M  V30 1215 H 118.801 1.86683 -0.837297 0
M  V30 1216 H 118.811 4.07419 0.2177 0
M  V30 1217 H 117.486 4.05266 -0.934453 0
M  V30 1218 H 116.063 3.63133 0.847889 0
M  V30 1219 N 118.248 0.346503 1.53744 0
M  V30 1220 C 119.178 -0.501193 2.28058 0
M  V30 1221 C 120.159 -1.10014 1.29734 0
M  V30 1222 O 121.344 -1.12097 1.58581 0
M  V30 1223 C 118.474 -1.65078 3.05559 0
M  V30 1224 C 117.428 -1.18003 4.11411 0
M  V30 1225 C 116.754 -2.41837 4.76884 0
M  V30 1226 C 118.054 -0.278394 5.21558 0
M  V30 1227 H 119.748 0.11875 2.99164 0
M  V30 1228 H 117.294 0.0585531 1.43881 0
M  V30 1229 H 119.247 -2.25028 3.56287 0
M  V30 1230 H 117.971 -2.29767 2.32109 0
M  V30 1231 H 116.63 -0.603331 3.61601 0
M  V30 1232 H 116.278 -3.0494 4.00026 0
M  V30 1233 H 115.978 -2.1102 5.48402 0
M  V30 1234 H 117.502 -3.02508 5.30397 0
M  V30 1235 H 118.916 -0.784823 5.67903 0
M  V30 1236 H 117.313 -0.0619707 6.00068 0
M  V30 1237 H 118.383 0.684677 4.80042 0
M  V30 1238 N 119.726 -1.57421 0.075193 0
M  V30 1239 C 120.975 -1.92794 -0.592731 0
M  V30 1240 C 121.288 -0.957478 -1.70563 0
M  V30 1241 O 122.494 -1.20417 -2.43335 0
M  V30 1242 C 120.95 -3.42495 -1.10569 0
M  V30 1243 C 120.558 -4.47994 -0.0236121 0
M  V30 1244 C 122.302 -3.86864 -1.74748 0
M  V30 1245 C 120.209 -5.88829 -0.550803 0
M  V30 1246 H 119.139 -0.719591 -0.225177 0
M  V30 1247 H 121.79 -1.82902 0.147978 0
M  V30 1248 H 120.172 -3.47471 -1.89947 0
M  V30 1249 H 121.346 -4.54637 0.751099 0
M  V30 1250 H 119.661 -4.13113 0.522159 0
M  V30 1251 H 122.258 -4.8947 -2.15229 0
M  V30 1252 H 122.601 -3.24417 -2.60882 0
M  V30 1253 H 123.134 -3.84504 -1.01986 0
M  V30 1254 H 119.873 -6.54929 0.273457 0
M  V30 1255 H 119.393 -5.85698 -1.29296 0
M  V30 1256 H 121.072 -6.38811 -1.02613 0
M  V30 1257 N 121.204 0.198386 -1.56346 0
M  V30 1258 C 122.154 1.2499 -1.90687 0
M  V30 1259 C 123.138 1.41158 -0.772217 0
M  V30 1260 O 124.33 1.43584 -1.03502 0
M  V30 1261 C 121.459 2.59542 -2.24706 0
M  V30 1262 C 120.545 2.47181 -3.44619 0
M  V30 1263 N 120.936 2.04495 -4.62618 0
M  V30 1264 C 119.234 2.78082 -3.48692 0
M  V30 1265 C 119.935 2.03945 -5.44776 0
M  V30 1266 N 118.911 2.45323 -4.85095 0
M  V30 1267 H 122.713 0.911149 -2.7942 0
M  V30 1268 H 120.227 0.40684 -1.57221 0
M  V30 1269 H 122.224 3.3549 -2.47491 0
M  V30 1270 H 120.884 2.94244 -1.37298 0
M  V30 1271 H 121.895 1.75256 -4.87345 0
M  V30 1272 H 118.572 3.17002 -2.71691 0
M  V30 1273 H 119.962 1.72872 -6.4928 0
M  V30 1274 N 122.682 1.50554 0.465978 0
M  V30 1275 C 123.959 1.5232 1.22712 0
M  V30 1276 C 124.339 0.270807 2.09356 0
M  V30 1277 O 123.687 -0.745541 2.15995 0
M  V30 1278 C 123.897 2.82175 2.05374 0
M  V30 1279 C 125.245 3.33033 2.6339 0
M  V30 1280 O 126.269 2.83531 2.15612 0
M  V30 1281 O 125.128 4.19336 3.50456 0
M  V30 1282 H 122.222 0.611183 0.557122 0
M  V30 1283 H 124.768 1.62847 0.477381 0
M  V30 1284 H 123.54 3.64797 1.41558 0
M  V30 1285 H 123.163 2.74675 2.87471 0
M  V30 1286 N 124.16 -0.719506 1.40217 0
M  V30 1287 C 125.437 -1.47221 1.28784 0
M  V30 1288 C 125.817 -2.10883 -0.0956067 0
M  V30 1289 O 125.165 -1.99833 -1.10811 0
M  V30 1290 C 125.375 -2.5111 2.42373 0
M  V30 1291 C 126.723 -3.17053 2.82423 0
M  V30 1292 O 127.747 -2.61429 2.41937 0
M  V30 1293 O 126.606 -4.17742 3.52355 0
M  V30 1294 H 123.7 -0.654491 0.50554 0
M  V30 1295 H 126.246 -0.752014 1.52128 0
M  V30 1296 H 125.018 -2.02556 3.34793 0
M  V30 1297 H 124.641 -3.3067 2.20778 0
M  V30 1298 N 125.638 -1.25649 -0.95132 0
M  V30 1299 C 126.568 -1.08808 -2.06599 0
M  V30 1300 C 127.549 0.00382547 -1.701 0
M  V30 1301 O 128.734 -0.166325 -1.93486 0
M  V30 1302 C 125.864 -0.709542 -3.39975 0
M  V30 1303 C 124.818 -1.75206 -3.90496 0
M  V30 1304 C 124.144 -1.22811 -5.20405 0
M  V30 1305 C 125.444 -3.15153 -4.16504 0
M  V30 1306 H 127.138 -2.02048 -2.20946 0
M  V30 1307 H 124.684 -0.972835 -1.06169 0
M  V30 1308 H 126.637 -0.578649 -4.17408 0
M  V30 1309 H 125.361 0.258556 -3.25575 0
M  V30 1310 H 124.02 -1.87145 -3.15234 0
M  V30 1311 H 123.668 -0.250145 -5.02378 0
M  V30 1312 H 123.368 -1.92492 -5.55176 0
M  V30 1313 H 124.892 -1.10968 -6.00432 0
M  V30 1314 H 126.306 -3.06349 -4.84586 0
M  V30 1315 H 124.703 -3.82333 -4.62538 0
M  V30 1316 H 125.773 -3.61966 -3.22658 0
M  V30 1317 N 127.117 1.15442 -1.07289 0
M  V30 1318 C 128.528 1.67803 -0.818475 0
M  V30 1319 C 128.879 1.8489 0.656507 0
M  V30 1320 O 128.004 1.55176 1.50829 0
M  V30 1321 C 128.599 3.04805 -1.47917 0
M  V30 1322 C 127.158 3.54245 -1.27229 0
M  V30 1323 C 126.305 2.29986 -1.54925 0
M  V30 1324 H 129.256 0.996646 -1.23502 0
M  V30 1325 H 129.277 3.69702 -0.90005 0
M  V30 1326 H 128.789 2.92336 -2.55267 0
M  V30 1327 H 126.89 3.71956 -0.21899 0
M  V30 1328 H 127.003 4.35723 -1.99203 0
M  V30 1329 H 125.367 2.35496 -0.970242 0
M  V30 1330 H 126.15 2.20105 -2.63455 0
M  V30 1331 N 128.595 0.856903 1.32268 0
M  V30 1332 C 129.558 0.308171 2.27119 0
M  V30 1333 C 130.558 -0.533421 1.51695 0
M  V30 1334 O 131.748 -0.344607 1.70757 0
M  V30 1335 C 128.88 -0.563757 3.36206 0
M  V30 1336 H 130.073 1.14535 2.77167 0
M  V30 1337 H 127.626 0.631421 1.42978 0
M  V30 1338 H 128.361 -1.42266 2.91429 0
M  V30 1339 H 128.146 0.0386749 3.92081 0
M  V30 1340 H 129.636 -0.940386 4.06874 0
M  V30 1341 N 130.073 -1.45103 0.615059 0
M  V30 1342 C 131.006 -2.27717 -0.148408 0
M  V30 1343 C 131.984 -1.37584 -0.866572 0
M  V30 1344 O 133.168 -1.67017 -0.87393 0
M  V30 1345 C 130.295 -3.16136 -1.21557 0
M  V30 1346 C 129.341 -4.22263 -0.599712 0
M  V30 1347 S 130.174 -5.3215 0.598081 0
M  V30 1348 C 131.33 -6.24137 -0.469484 0
M  V30 1349 H 131.563 -2.92121 0.552483 0
M  V30 1350 H 129.096 -1.49054 0.402778 0
M  V30 1351 H 131.054 -3.67633 -1.82638 0
M  V30 1352 H 129.715 -2.50982 -1.88857 0
M  V30 1353 H 128.908 -4.84081 -1.4029 0
M  V30 1354 H 128.51 -3.73945 -0.063876 0
M  V30 1355 H 130.802 -6.63984 -1.34652 0
M  V30 1356 H 131.745 -7.0801 0.112725 0
M  V30 1357 H 132.153 -5.58971 -0.788168 0
M  V30 1358 N 131.551 -0.354651 -1.53558 0
M  V30 1359 C 132.828 0.294281 -1.93374 0
M  V30 1360 C 133.208 1.67313 -1.28723 0
M  V30 1361 O 132.556 2.24179 -0.442247 0
M  V30 1362 C 132.766 0.355445 -3.47185 0
M  V30 1363 C 134.114 0.601007 -4.20325 0
M  V30 1364 O 135.138 0.437106 -3.53508 0
M  V30 1365 O 133.997 0.919322 -5.38712 0
M  V30 1366 H 131.091 0.174033 -0.808481 0
M  V30 1367 H 133.637 -0.406638 -1.64756 0
M  V30 1368 H 132.409 -0.611729 -3.86489 0
M  V30 1369 H 132.032 1.1027 -3.82003 0
M  V30 1370 N 133.029 1.57378 -0.0835403 0
M  V30 1371 C 134.306 1.85363 0.624507 0
M  V30 1372 C 134.686 0.978239 1.87066 0
M  V30 1373 O 134.034 0.0475908 2.2845 0
M  V30 1374 C 134.244 3.35795 0.950947 0
M  V30 1375 C 135.592 4.03581 1.31939 0
M  V30 1376 O 136.616 3.40609 1.04232 0
M  V30 1377 O 135.475 5.14672 1.83779 0
M  V30 1378 H 132.569 0.766162 0.311329 0
M  V30 1379 H 135.115 1.69307 -0.115362 0
M  V30 1380 H 133.887 3.91244 0.0663899 0
M  V30 1381 H 133.51 3.57154 1.74719 0
M  V30 1382 N 134.507 -0.190092 1.56449 0
M  V30 1383 C 135.784 -0.935886 1.71757 0
M  V30 1384 C 136.164 -2.01173 0.639726 0
M  V30 1385 O 135.512 -2.25827 -0.348502 0
M  V30 1386 C 135.722 -1.51775 3.1427 0
M  V30 1387 C 137.07 -1.99794 3.74656 0
M  V30 1388 O 138.094 -1.61607 3.1743 0
M  V30 1389 O 136.953 -2.70079 4.751 0
M  V30 1390 H 134.047 -0.439229 0.700719 0
M  V30 1391 H 136.593 -0.179395 1.68749 0
M  V30 1392 H 135.365 -0.742505 3.84191 0
M  V30 1393 H 134.988 -2.33894 3.21527 0
M  V30 1394 N 135.985 -1.50799 -0.457987 0
M  V30 1395 C 137.262 -1.52968 -1.21902 0
M  V30 1396 C 137.642 -0.281906 -2.09209 0
M  V30 1397 O 136.99 0.734076 -2.16388 0
M  V30 1398 C 137.2 -2.8326 -2.03875 0
M  V30 1399 C 138.548 -3.34425 -2.6162 0
M  V30 1400 O 139.572 -2.8467 -2.14106 0
M  V30 1401 O 138.431 -4.21188 -3.48228 0
M  V30 1402 H 135.525 -0.614129 -0.553873 0
M  V30 1403 H 138.071 -1.63098 -0.468739 0
M  V30 1404 H 136.843 -3.65543 -1.39621 0
M  V30 1405 H 136.466 -2.76195 -2.8601 0
M  V30 1406 N 137.463 0.71206 -1.40597 0
M  V30 1407 C 138.393 1.83889 -1.43899 0
M  V30 1408 C 139.374 1.67442 -0.299504 0
M  V30 1409 O 140.559 1.87421 -0.508624 0
M  V30 1410 C 137.689 3.21877 -1.30431 0
M  V30 1411 C 136.643 3.53002 -2.42019 0
M  V30 1412 C 135.969 4.90172 -2.13626 0
M  V30 1413 C 137.269 3.53643 -3.84362 0
M  V30 1414 H 138.963 1.81383 -2.38203 0
M  V30 1415 H 136.509 0.871237 -1.14654 0
M  V30 1416 H 138.462 4.00404 -1.31357 0
M  V30 1417 H 137.186 3.24968 -0.326049 0
M  V30 1418 H 135.845 2.76818 -2.40349 0
M  V30 1419 H 135.493 4.89869 -1.14182 0
M  V30 1420 H 135.193 5.11962 -2.88389 0
M  V30 1421 H 136.717 5.71028 -2.1624 0
M  V30 1422 H 138.131 4.22203 -3.87837 0
M  V30 1423 H 136.528 3.86961 -4.58673 0
M  V30 1424 H 137.598 2.52954 -4.13693 0
M  V30 1425 N 138.941 1.26152 0.944643 0
M  V30 1426 C 140.357 1.03189 1.21754 0
M  V30 1427 C 140.557 -0.245112 2.00004 0
M  V30 1428 O 139.613 -0.955176 2.33736 0
M  V30 1429 C 140.926 2.26119 1.98219 0
M  V30 1430 C 142.474 2.30984 2.11224 0
M  V30 1431 C 142.949 3.53597 2.91089 0
M  V30 1432 N 144.44 3.54053 2.98664 0
M  V30 1433 C 145.175 4.45593 3.60881 0
M  V30 1434 N 144.671 5.47416 4.24626 0
M  V30 1435 N 146.464 4.33252 3.58119 0
M  V30 1436 H 138.615 2.08177 0.421437 0
M  V30 1437 H 140.878 0.914723 0.248969 0
M  V30 1438 H 140.584 3.18984 1.48128 0
M  V30 1439 H 140.458 2.3009 2.98895 0
M  V30 1440 H 142.845 1.38635 2.60508 0
M  V30 1441 H 142.926 2.31026 1.09821 0
M  V30 1442 H 142.57 4.46273 2.42493 0
M  V30 1443 H 142.5 3.50802 3.92741 0
M  V30 1444 H 144.991 2.80403 2.53343 0
M  V30 1445 H 145.304 6.13459 4.69987 0
M  V30 1446 H 143.649 5.51278 4.23223 0
M  V30 1447 H 146.84 3.52924 3.0751 0
M  V30 1448 H 147.013 5.04786 4.06319 0
M  V30 1449 N 140.419 -1.14872 1.07899 0
M  V30 1450 C 141.835 -1.37776 0.805606 0
M  V30 1451 C 142.035 -1.92743 -0.587555 0
M  V30 1452 O 141.091 -2.13678 -1.34528 0
M  V30 1453 C 142.404 -2.34361 1.88402 0
M  V30 1454 C 143.952 -2.48012 1.90942 0
M  V30 1455 C 144.427 -3.47893 2.97883 0
M  V30 1456 N 145.918 -3.55433 2.97021 0
M  V30 1457 C 146.653 -4.32553 3.76412 0
M  V30 1458 N 146.149 -5.12959 4.65666 0
M  V30 1459 N 147.942 -4.27697 3.64735 0
M  V30 1460 H 140.093 -0.775365 1.97742 0
M  V30 1461 H 142.356 -0.403521 0.857831 0
M  V30 1462 H 142.062 -2.01098 2.88535 0
M  V30 1463 H 141.936 -3.34206 1.74889 0
M  V30 1464 H 144.323 -2.8057 0.914579 0
M  V30 1465 H 144.404 -1.48147 2.08534 0
M  V30 1466 H 144.048 -3.16069 3.97571 0
M  V30 1467 H 143.978 -4.47527 2.77538 0
M  V30 1468 H 146.469 -2.98048 2.32326 0
M  V30 1469 H 146.782 -5.69065 5.22862 0
M  V30 1470 H 145.127 -5.12245 4.69712 0
M  V30 1471 H 148.318 -3.63949 2.94378 0
M  V30 1472 H 148.491 -4.8755 4.26848 0
M  V30 1473 N 141.898 -0.863906 -1.31812 0
M  V30 1474 C 143.146 -0.470904 -1.96537 0
M  V30 1475 C 143.467 0.978771 -1.68657 0
M  V30 1476 O 142.737 1.6853 -0.998717 0
M  V30 1477 H 141.317 -0.171148 -0.72713 0
M  V30 1478 H 143.979 -1.10236 -1.60729 0
M  V30 1479 H 143.075 -0.623616 -3.05806 0
M  V30 1480 N 143.376 1.44774 -0.622745 0
M  V30 1481 C 144.306 2.33382 0.0741861 0
M  V30 1482 C 145.287 1.47719 0.843387 0
M  V30 1483 O 146.472 1.76458 0.810934 0
M  V30 1484 C 143.602 3.30663 1.06204 0
M  V30 1485 C 142.556 4.26079 0.405037 0
M  V30 1486 C 141.882 5.13165 1.5022 0
M  V30 1487 C 143.182 5.1781 -0.683414 0
M  V30 1488 H 144.876 2.91905 -0.665713 0
M  V30 1489 H 142.422 1.40363 -0.321587 0
M  V30 1490 H 144.375 3.9153 1.55827 0
M  V30 1491 H 143.099 2.70331 1.83272 0
M  V30 1492 H 141.758 3.66532 -0.0704683 0
M  V30 1493 H 141.406 4.49191 2.26355 0
M  V30 1494 H 141.106 5.77812 1.06803 0
M  V30 1495 H 142.63 5.76902 2.00041 0
M  V30 1496 H 144.044 5.72661 -0.270631 0
M  V30 1497 H 142.441 5.91015 -1.04023 0
M  V30 1498 H 143.511 4.59326 -1.55395 0
M  V30 1499 N 144.854 0.36279 1.53368 0
M  V30 1500 C 146.265 -0.117022 1.86333 0
M  V30 1501 C 146.616 -1.48397 1.28347 0
M  V30 1502 O 145.741 -2.07787 0.604428 0
M  V30 1503 C 146.336 -0.21912 3.38091 0
M  V30 1504 C 144.895 -0.643184 3.70864 0
M  V30 1505 C 144.042 0.211318 2.76494 0
M  V30 1506 H 146.993 0.581687 1.47655 0
M  V30 1507 H 147.014 -1.04319 3.6592 0
M  V30 1508 H 146.526 0.775902 3.80265 0
M  V30 1509 H 144.627 -1.64654 3.34245 0
M  V30 1510 H 144.74 -0.41973 4.77258 0
M  V30 1511 H 143.104 -0.319367 2.5269 0
M  V30 1512 H 143.887 1.20383 3.21501 0
M  V30 1513 N 146.332 -1.57332 0.0918853 0
M  V30 1514 C 147.56 -1.98574 -0.581048 0
M  V30 1515 C 147.975 -0.970903 -1.61923 0
M  V30 1516 O 147.332 0.0399054 -1.82456 0
M  V30 1517 C 147.383 -3.39872 -1.23164 0
M  V30 1518 O 147.104 -4.37469 -0.234989 0
M  V30 1519 C 148.605 -3.96099 -1.99049 0
M  V30 1520 H 145.825 -0.65261 -0.156018 0
M  V30 1521 H 148.369 -2.0379 0.170225 0
M  V30 1522 H 146.524 -3.35679 -1.93386 0
M  V30 1523 H 146.938 -5.19751 -0.70418 0
M  V30 1524 H 148.412 -4.97127 -2.39934 0
M  V30 1525 H 148.889 -3.3374 -2.85507 0
M  V30 1526 H 149.495 -4.03755 -1.3365 0
M  V30 1527 N 147.81 0.181792 -1.56548 0
M  V30 1528 C 149.05 0.906711 -1.83189 0
M  V30 1529 C 149.414 1.79882 -0.671312 0
M  V30 1530 O 150.615 2.56054 -0.81792 0
M  V30 1531 C 148.886 1.69023 -3.14906 0
M  V30 1532 S 150.445 2.46535 -3.62996 0
M  V30 1533 H 147.263 0.303877 -0.642791 0
M  V30 1534 H 149.865 0.169107 -1.94767 0
M  V30 1535 H 148.569 1.02571 -3.97376 0
M  V30 1536 H 148.1 2.46941 -3.06241 0
M  V30 1537 H 150.115 3.71014 -3.29489 0
M  V30 1538 N 149.288 1.51039 0.449983 0
M  V30 1539 C 150.238 1.67824 1.54335 0
M  V30 1540 C 151.222 0.5324 1.51836 0
M  V30 1541 O 152.414 0.787762 1.58503 0
M  V30 1542 C 149.543 1.7951 2.92628 0
M  V30 1543 C 148.629 2.99838 2.9993 0
M  V30 1544 N 149.02 4.23207 2.77001 0
M  V30 1545 C 147.318 2.98832 3.31082 0
M  V30 1546 C 148.019 5.04361 2.89818 0
M  V30 1547 N 146.995 4.38746 3.2094 0
M  V30 1548 H 150.797 2.60884 1.35339 0
M  V30 1549 H 148.311 1.48513 0.657085 0
M  V30 1550 H 150.308 1.89642 3.7127 0
M  V30 1551 H 148.968 0.876227 3.12654 0
M  V30 1552 H 149.979 4.5236 2.52172 0
M  V30 1553 H 146.656 2.16527 3.56963 0
M  V30 1554 H 148.046 6.12528 2.76151 0
M  V30 1555 N 150.766 -0.704594 1.40972 0
M  V30 1556 C 152.012 -1.46675 1.40051 0
M  V30 1557 C 152.345 -1.94199 0.00641102 0
M  V30 1558 O 151.62 -1.68916 -0.964235 0
M  V30 1559 C 151.903 -2.68505 2.39952 0
M  V30 1560 C 151.756 -2.26805 3.88432 0
M  V30 1561 C 153.075 -3.70686 2.37233 0
M  V30 1562 H 150.194 -0.532015 0.510028 0
M  V30 1563 H 152.836 -0.803255 1.72185 0
M  V30 1564 H 150.986 -3.25114 2.1268 0
M  V30 1565 H 152.658 -1.75592 4.26574 0
M  V30 1566 H 150.901 -1.58685 4.03734 0
M  V30 1567 H 151.572 -3.14181 4.53866 0
M  V30 1568 H 154.048 -3.23731 2.61415 0
M  V30 1569 H 152.924 -4.53553 3.09162 0
M  V30 1570 H 153.185 -4.19754 1.38777 0
M  V30 1571 N 152.244 -1.26651 -0.937939 0
M  V30 1572 C 153.191 -1.0849 -2.03712 0
M  V30 1573 C 154.161 0.011033 -1.66096 0
M  V30 1574 O 155.346 -0.149353 -1.90215 0
M  V30 1575 C 152.486 -0.72735 -3.37348 0
M  V30 1576 C 151.599 -1.89986 -3.87981 0
M  V30 1577 C 150.734 -1.48513 -5.10017 0
M  V30 1578 C 149.773 -2.62575 -5.5292 0
M  V30 1579 N 148.91 -2.21762 -6.66158 0
M  V30 1580 H 153.75 -2.02551 -2.18579 0
M  V30 1581 H 151.287 -1.00844 -1.07093 0
M  V30 1582 H 153.245 -0.50092 -4.14182 0
M  V30 1583 H 151.875 0.176298 -3.22318 0
M  V30 1584 H 150.927 -2.23913 -3.07518 0
M  V30 1585 H 152.239 -2.75586 -4.15757 0
M  V30 1586 H 151.393 -1.21934 -5.94321 0
M  V30 1587 H 150.132 -0.60009 -4.83994 0
M  V30 1588 H 149.137 -2.8988 -4.67172 0
M  V30 1589 H 150.362 -3.51685 -5.80943 0
M  V30 1590 H 148.308 -1.35696 -6.41812 0
M  V30 1591 H 148.225 -3.00903 -6.93537 0
M  V30 1592 H 149.493 -1.98403 -7.53828 0
M  V30 1593 N 153.722 1.14298 -1.08507 0
M  V30 1594 C 154.969 1.85359 -0.815373 0
M  V30 1595 C 155.297 1.83001 0.658865 0
M  V30 1596 O 154.552 1.25655 1.50031 0
M  V30 1597 C 154.851 3.33547 -1.28379 0
M  V30 1598 C 154.517 3.56093 -2.76602 0
M  V30 1599 C 153.179 3.61955 -3.17084 0
M  V30 1600 C 155.531 3.64834 -3.72217 0
M  V30 1601 C 152.859 3.74082 -4.51973 0
M  V30 1602 C 155.211 3.78487 -5.06883 0
M  V30 1603 C 153.875 3.82598 -5.46969 0
M  V30 1604 H 153.145 0.678276 -0.298366 0
M  V30 1605 H 155.792 1.35002 -1.35819 0
M  V30 1606 H 154.097 3.86191 -0.660593 0
M  V30 1607 H 155.794 3.86959 -1.05186 0
M  V30 1608 H 152.384 3.52179 -2.4427 0
M  V30 1609 H 156.568 3.59595 -3.42061 0
M  V30 1610 H 151.824 3.75527 -4.82483 0
M  V30 1611 H 155.998 3.84193 -5.80834 0
M  V30 1612 H 153.625 3.91747 -6.51489 0
M  V30 1613 N 155.201 0.870884 1.31352 0
M  V30 1614 C 156.449 0.48132 1.96285 0
M  V30 1615 C 156.77 -0.969813 1.69173 0
M  V30 1616 O 156.04 -1.67998 1.00764 0
M  V30 1617 H 154.62 0.175002 0.726212 0
M  V30 1618 H 157.282 1.11087 1.60143 0
M  V30 1619 H 156.378 0.639825 3.05471 0
M  V30 1620 N 156.679 -1.44442 0.630414 0
M  V30 1621 C 157.589 -2.34476 -0.0761693 0
M  V30 1622 C 158.605 -1.52576 -0.836449 0
M  V30 1623 O 159.781 -1.85307 -0.788874 0
M  V30 1624 C 156.846 -3.30545 -1.04599 0
M  V30 1625 C 155.907 -4.28352 -0.28516 0
M  V30 1626 C 155.14 -5.19831 -1.20878 0
M  V30 1627 O 155.363 -5.15223 -2.44747 0
M  V30 1628 O 154.297 -5.97892 -0.693491 0
M  V30 1629 H 158.123 -2.96345 0.664324 0
M  V30 1630 H 155.708 -1.44203 0.39061 0
M  V30 1631 H 157.59 -3.89681 -1.60396 0
M  V30 1632 H 156.265 -2.7121 -1.76711 0
M  V30 1633 H 155.172 -3.72764 0.315837 0
M  V30 1634 H 156.505 -4.90605 0.395924 0
M  V30 1635 N 158.157 -0.370918 -1.53173 0
M  V30 1636 C 159.12 0.460778 -2.24521 0
M  V30 1637 C 160.12 1.00536 -1.25496 0
M  V30 1638 O 161.31 0.890266 -1.49733 0
M  V30 1639 C 158.442 1.64457 -2.98608 0
M  V30 1640 H 159.635 -0.163613 -2.99453 0
M  V30 1641 H 157.188 -0.122699 -1.55818 0
M  V30 1642 H 157.923 2.30691 -2.2793 0
M  V30 1643 H 157.708 1.26099 -3.7127 0
M  V30 1644 H 159.198 2.23384 -3.5283 0
M  V30 1645 N 159.635 1.57281 -0.100228 0
M  V30 1646 C 160.583 2.15542 0.874328 0
M  V30 1647 C 161.577 1.09962 1.28859 0
M  V30 1648 O 162.783 1.28298 1.26252 0
M  V30 1649 H 159.158 0.689567 0.300003 0
M  V30 1650 H 161.129 2.96241 0.35829 0
M  V30 1651 C 159.878 2.75454 2.1218 0
M  V30 1652 H 159.201 3.56384 1.81193 0
M  V30 1653 H 160.641 3.19781 2.78417 0
M  V30 1654 C 159.1 1.71602 2.89921 0
M  V30 1655 O 159.63 1.15804 3.84646 0
M  V30 1656 N 157.836 1.41975 2.53558 0
M  V30 1657 H 157.383 1.87539 1.76598 0
M  V30 1658 H 157.341 0.727274 3.05873 0
M  V30 1659 N 161.113 -0.173488 1.56642 0
M  V30 1660 C 162.076 -1.19859 1.95362 0
M  V30 1661 C 163.076 -1.37296 0.83704 0
M  V30 1662 O 164.266 -1.34739 1.10413 0
M  V30 1663 C 161.398 -2.56405 2.24654 0
M  V30 1664 H 162.591 -0.867062 2.87092 0
M  V30 1665 H 160.144 -0.415853 1.50666 0
M  V30 1666 H 160.879 -2.94576 1.35631 0
M  V30 1667 H 160.664 -2.45115 3.06041 0
M  V30 1668 H 162.154 -3.30287 2.5554 0
M  V30 1669 N 162.591 -1.51276 -0.441967 0
M  V30 1670 C 163.84 -1.6295 -1.18871 0
M  V30 1671 C 164.153 -0.349312 -1.92456 0
M  V30 1672 O 165.359 -0.345355 -2.69295 0
M  V30 1673 C 163.815 -2.87759 -2.16155 0
M  V30 1674 C 163.423 -4.22764 -1.48239 0
M  V30 1675 C 165.167 -3.08788 -2.91291 0
M  V30 1676 C 163.074 -5.38728 -2.4398 0
M  V30 1677 H 162.004 -0.606913 -0.447406 0
M  V30 1678 H 164.655 -1.77739 -0.456205 0
M  V30 1679 H 163.037 -2.66593 -2.92821 0
M  V30 1680 H 164.211 -4.54293 -0.771635 0
M  V30 1681 H 162.526 -4.07575 -0.852741 0
M  V30 1682 H 165.123 -3.92599 -3.63002 0
M  V30 1683 H 165.466 -2.21679 -3.5237 0
M  V30 1684 H 165.999 -3.30272 -2.21733 0
M  V30 1685 H 162.738 -6.28082 -1.87598 0
M  V30 1686 H 162.258 -5.1158 -3.13123 0
M  V30 1687 H 163.937 -5.70489 -3.05207 0
M  V30 1688 N 164.069 0.697108 -1.41344 0
M  V30 1689 C 164.999 1.82353 -1.45841 0
M  V30 1690 C 165.98 1.67115 -0.317247 0
M  V30 1691 O 167.165 1.86871 -0.528474 0
M  V30 1692 C 164.295 3.20476 -1.33838 0
M  V30 1693 C 163.249 3.50415 -2.4575 0
M  V30 1694 C 162.575 4.87878 -2.18813 0
M  V30 1695 C 163.875 3.49546 -3.88091 0
M  V30 1696 H 165.569 1.78846 -2.40113 0
M  V30 1697 H 163.115 0.859028 -1.15571 0
M  V30 1698 H 165.068 3.98988 -1.35596 0
M  V30 1699 H 163.792 3.24604 -0.360498 0
M  V30 1700 H 162.451 2.74253 -2.43271 0
M  V30 1701 H 162.099 4.8863 -1.19371 0
M  V30 1702 H 161.799 5.08875 -2.93803 0
M  V30 1703 H 163.323 5.68702 -2.22284 0
M  V30 1704 H 164.737 4.18066 -3.92293 0
M  V30 1705 H 163.134 3.82075 -4.62751 0
M  V30 1706 H 164.204 2.48552 -4.16353 0
M  V30 1707 N 165.547 1.27147 0.931209 0
M  V30 1708 C 166.51 1.09615 2.01289 0
M  V30 1709 C 167.51 0.0412581 1.60747 0
M  V30 1710 O 168.7 0.285545 1.71844 0
M  V30 1711 C 165.832 0.669447 3.34262 0
M  V30 1712 H 167.025 2.05662 2.18273 0
M  V30 1713 H 164.578 1.09885 1.11153 0
M  V30 1714 H 165.313 -0.292572 3.22978 0
M  V30 1715 H 165.098 1.43127 3.65044 0
M  V30 1716 H 166.588 0.568921 4.13706 0
M  V30 1717 N 167.025 -1.13721 1.09112 0
M  V30 1718 C 168.273 -1.84559 0.823562 0
M  V30 1719 C 168.594 -1.83754 -0.652658 0
M  V30 1720 O 167.864 -1.29102 -1.47342 0
M  V30 1721 H 166.444 -0.683376 0.301673 0
M  V30 1722 H 169.106 -1.37771 1.37859 0
M  V30 1723 H 168.202 -2.8917 1.17419 0
M  V30 1724 N 168.503 -0.877838 -1.30888 0
M  V30 1725 C 169.78 -0.413052 -1.91189 0
M  V30 1726 C 170.16 1.1056 -1.79832 0
M  V30 1727 O 169.508 1.93771 -1.21099 0
M  V30 1728 C 169.718 -0.903191 -3.3711 0
M  V30 1729 C 171.066 -0.93395 -4.14201 0
M  V30 1730 O 172.09 -0.849373 -3.45925 0
M  V30 1731 O 170.949 -1.05772 -5.36167 0
M  V30 1732 H 168.043 -0.125035 -0.817493 0
M  V30 1733 H 170.589 -0.966269 -1.39504 0
M  V30 1734 H 169.361 -1.94692 -3.39427 0
M  V30 1735 H 168.984 -0.328732 -3.96239 0
M  V30 1736 N 169.982 1.44106 -0.638065 0
M  V30 1737 C 170.945 2.29138 0.0531013 0
M  V30 1738 C 171.945 1.41409 0.765506 0
M  V30 1739 O 173.135 1.63206 0.609046 0
M  V30 1740 C 170.267 3.23144 1.08584 0
M  V30 1741 H 171.46 2.91739 -0.694883 0
M  V30 1742 H 169.013 1.51134 -0.398538 0
M  V30 1743 H 169.748 2.65408 1.86357 0
M  V30 1744 H 169.533 3.87804 0.578852 0
M  V30 1745 H 171.023 3.87004 1.56899 0
M  V30 1746 N 171.46 0.379036 1.52974 0
M  V30 1747 C 172.39 -0.452706 2.29069 0
M  V30 1748 C 173.371 -1.07237 1.32039 0
M  V30 1749 O 174.556 -1.08708 1.60923 0
M  V30 1750 C 171.686 -1.5856 3.08992 0
M  V30 1751 C 170.64 -1.0925 4.13822 0
M  V30 1752 C 169.966 -2.31668 4.81907 0
M  V30 1753 C 171.266 -0.167702 5.22031 0
M  V30 1754 H 172.96 0.182181 2.98845 0
M  V30 1755 H 170.506 0.0890592 1.43724 0
M  V30 1756 H 172.459 -2.1742 3.6098 0
M  V30 1757 H 171.183 -2.24792 2.36931 0
M  V30 1758 H 169.842 -0.526494 3.628 0
M  V30 1759 H 169.49 -2.96386 4.06404 0
M  V30 1760 H 169.19 -1.9934 5.52754 0
M  V30 1761 H 170.714 -2.91189 5.36695 0
M  V30 1762 H 172.128 -0.664186 5.6944 0
M  V30 1763 H 170.525 0.0653265 6.00064 0
M  V30 1764 H 171.595 0.786347 4.78482 0
M  V30 1765 N 172.938 -1.57226 0.108567 0
M  V30 1766 C 173.87 -2.11809 -0.875752 0
M  V30 1767 C 174.883 -1.05839 -1.23701 0
M  V30 1768 O 176.072 -1.33245 -1.18778 0
M  V30 1769 C 173.172 -2.59411 -2.18081 0
M  V30 1770 C 172.345 -3.89364 -1.99284 0
M  V30 1771 C 171.404 -4.22672 -3.13424 0
M  V30 1772 O 170.43 -4.91668 -2.86795 0
M  V30 1773 N 171.632 -3.79154 -4.3957 0
M  V30 1774 H 174.397 -2.9689 -0.409477 0
M  V30 1775 H 171.958 -1.61721 -0.076158 0
M  V30 1776 H 173.95 -2.7873 -2.93414 0
M  V30 1777 H 172.52 -1.79268 -2.5609 0
M  V30 1778 H 171.74 -3.79059 -1.08203 0
M  V30 1779 H 173.028 -4.74358 -1.84017 0
M  V30 1780 H 172.426 -3.23486 -4.64083 0
M  V30 1781 H 170.983 -4.03602 -5.11809 0
M  V30 1782 N 174.416 0.165178 -1.56732 0
M  V30 1783 C 175.644 0.896218 -1.86482 0
M  V30 1784 C 176.059 1.75555 -0.694675 0
M  V30 1785 O 175.416 1.79379 0.33607 0
M  V30 1786 C 175.467 1.76792 -3.1532 0
M  V30 1787 O 175.188 0.943239 -4.27825 0
M  V30 1788 C 176.689 2.6081 -3.58459 0
M  V30 1789 H 173.909 0.260064 -0.618553 0
M  V30 1790 H 176.453 0.163428 -2.03846 0
M  V30 1791 H 174.608 2.45398 -2.99764 0
M  V30 1792 H 175.022 1.53998 -5.01383 0
M  V30 1793 H 176.496 3.17579 -4.51495 0
M  V30 1794 H 176.973 3.35977 -2.82872 0
M  V30 1795 H 177.579 1.97526 -3.76648 0
M  V30 1796 N 175.894 1.51508 0.433938 0
M  V30 1797 C 176.824 1.76016 1.53429 0
M  V30 1798 C 177.805 0.610112 1.58782 0
M  V30 1799 O 178.99 0.853177 1.74455 0
M  V30 1800 C 176.12 1.88831 2.9148 0
M  V30 1801 C 175.074 3.04288 3.00987 0
M  V30 1802 C 174.4 3.0229 4.4105 0
M  V30 1803 C 175.7 4.44193 2.74754 0
M  V30 1804 H 177.394 2.68152 1.33171 0
M  V30 1805 H 174.94 1.29035 0.639214 0
M  V30 1806 H 176.893 2.04559 3.6842 0
M  V30 1807 H 175.617 0.933455 3.12976 0
M  V30 1808 H 174.276 2.8827 2.26486 0
M  V30 1809 H 173.924 2.04576 4.59519 0
M  V30 1810 H 173.624 3.79822 4.4834 0
M  V30 1811 H 175.148 3.20116 5.1996 0
M  V30 1812 H 176.562 4.60544 3.41426 0
M  V30 1813 H 174.959 5.23457 2.9345 0
M  V30 1814 H 176.029 4.53996 1.70339 0
M  V30 1815 N 177.372 -0.689602 1.41712 0
M  V30 1816 C 178.335 -1.78521 1.43746 0
M  V30 1817 C 179.335 -1.57436 0.327191 0
M  V30 1818 O 180.525 -1.64 0.587348 0
M  V30 1819 C 177.657 -3.16971 1.25467 0
M  V30 1820 H 178.85 -1.78108 2.41283 0
M  V30 1821 H 176.403 -0.89781 1.27942 0
M  V30 1822 H 177.138 -3.23019 0.287948 0
M  V30 1823 H 176.923 -3.33678 2.05917 0
M  V30 1824 H 178.413 -3.96935 1.2974 0
M  V30 1825 N 178.85 -1.27639 -0.924453 0
M  V30 1826 C 180.097 -1.14167 -1.67249 0
M  V30 1827 C 180.425 0.311863 -1.91984 0
M  V30 1828 O 179.68 1.24425 -1.51053 0
M  V30 1829 C 179.979 -1.87407 -3.04325 0
M  V30 1830 C 179.645 -3.37249 -2.99289 0
M  V30 1831 C 178.307 -3.7812 -2.97622 0
M  V30 1832 C 180.659 -4.32845 -2.90336 0
M  V30 1833 C 177.987 -5.12944 -2.8479 0
M  V30 1834 C 180.339 -5.6773 -2.79045 0
M  V30 1835 C 179.003 -6.07889 -2.7573 0
M  V30 1836 H 178.273 -0.417766 -0.612007 0
M  V30 1837 H 180.92 -1.58286 -1.07786 0
M  V30 1838 H 179.225 -1.35805 -3.67511 0
M  V30 1839 H 180.922 -1.74408 -3.61086 0
M  V30 1840 H 177.512 -3.04748 -3.01374 0
M  V30 1841 H 181.696 -4.02239 -2.90719 0
M  V30 1842 H 176.952 -5.432 -2.80612 0
M  V30 1843 H 181.126 -6.41472 -2.71083 0
M  V30 1844 H 178.753 -7.12314 -2.65544 0
M  V30 1845 N 180.328 1.1314 -1.09713 0
M  V30 1846 C 181.553 1.88862 -0.857081 0
M  V30 1847 C 181.978 1.78729 0.586304 0
M  V30 1848 O 181.336 1.13692 1.41222 0
M  V30 1849 C 181.384 3.36325 -1.30069 0
M  V30 1850 O 180.488 4.09815 -0.461007 0
M  V30 1851 H 179.829 0.587108 -0.310162 0
M  V30 1852 H 182.359 1.43129 -1.46203 0
M  V30 1853 H 182.369 3.87157 -1.28738 0
M  V30 1854 H 181.044 3.43017 -2.35185 0
M  V30 1855 H 179.621 3.68986 -0.538888 0
M  V30 1856 N 181.806 0.884767 1.30421 0
M  V30 1857 C 183.055 0.499164 1.95426 0
M  V30 1858 C 183.368 -0.95645 1.70621 0
M  V30 1859 O 184.574 -1.44889 2.29607 0
M  V30 1860 C 183.03 0.84177 3.49917 0
M  V30 1861 C 182.638 2.31514 3.83543 0
M  V30 1862 C 184.382 0.525355 4.21237 0
M  V30 1863 C 182.289 2.59939 5.31212 0
M  V30 1864 H 181.219 0.182944 0.73147 0
M  V30 1865 H 183.87 1.07971 1.48373 0
M  V30 1866 H 182.252 0.190311 3.95542 0
M  V30 1867 H 183.426 3.0109 3.48829 0
M  V30 1868 H 181.741 2.59907 3.25326 0
M  V30 1869 H 184.338 0.714762 5.29901 0
M  V30 1870 H 184.681 -0.535222 4.12845 0
M  V30 1871 H 185.214 1.134 3.81294 0
M  V30 1872 H 181.953 3.64736 5.44654 0
M  V30 1873 H 181.473 1.94972 5.67227 0
M  V30 1874 H 183.152 2.45429 5.98643 0
M  V30 1875 N 183.284 -1.43765 0.645699 0
M  V30 1876 C 184.214 -2.33471 -0.0370477 0
M  V30 1877 C 185.195 -1.49042 -0.819779 0
M  V30 1878 O 186.38 -1.77726 -0.782758 0
M  V30 1879 C 183.51 -3.32311 -1.0093 0
M  V30 1880 C 182.464 -4.2667 -0.337201 0
M  V30 1881 C 181.79 -5.1549 -1.42037 0
M  V30 1882 C 183.09 -5.16657 0.765706 0
M  V30 1883 H 184.784 -2.90809 0.712069 0
M  V30 1884 H 182.33 -1.39834 0.343876 0
M  V30 1885 H 184.283 -3.9396 -1.49578 0
M  V30 1886 H 183.007 -2.73213 -1.78948 0
M  V30 1887 H 181.666 -3.66374 0.128771 0
M  V30 1888 H 181.314 -4.52735 -2.1918 0
M  V30 1889 H 181.014 -5.79438 -0.975966 0
M  V30 1890 H 182.538 -5.80012 -1.90838 0
M  V30 1891 H 183.952 -5.72158 0.361702 0
M  V30 1892 H 182.349 -5.89286 1.13413 0
M  V30 1893 H 183.419 -4.56796 1.62683 0
M  V30 1894 N 184.763 -0.387143 -1.52771 0
M  V30 1895 C 185.988 0.198407 -2.06449 0
M  V30 1896 C 186.413 1.39918 -1.25716 0
M  V30 1897 O 185.771 1.79099 -0.281657 0
M  V30 1898 C 185.819 0.548893 -3.56398 0
M  V30 1899 O 184.923 1.64315 -3.78252 0
M  V30 1900 H 184.264 0.0237731 -0.663574 0
M  V30 1901 H 186.794 -0.553989 -1.96957 0
M  V30 1902 H 186.804 0.813812 -3.99801 0
M  V30 1903 H 185.479 -0.329005 -4.14597 0
M  V30 1904 H 184.056 1.37211 -3.46738 0
M  V30 1905 N 186.241 1.57166 -0.116904 0
M  V30 1906 C 187.518 1.86645 0.585049 0
M  V30 1907 C 187.898 1.0177 1.84949 0
M  V30 1908 O 187.246 0.0960379 2.28298 0
M  V30 1909 C 187.456 3.37736 0.879507 0
M  V30 1910 C 188.804 4.06289 1.23348 0
M  V30 1911 O 189.828 3.42743 0.969836 0
M  V30 1912 O 188.687 5.18455 1.7282 0
M  V30 1913 H 185.781 0.772593 0.295007 0
M  V30 1914 H 188.327 1.69025 -0.151249 0
M  V30 1915 H 187.099 3.91296 -0.0166136 0
M  V30 1916 H 186.722 3.6078 1.67103 0
M  V30 1917 N 187.719 -0.156864 1.56817 0
M  V30 1918 C 188.682 -1.17781 1.96622 0
M  V30 1919 C 189.682 -1.36401 0.851555 0
M  V30 1920 O 190.872 -1.33561 1.11836 0
M  V30 1921 C 188.004 -2.54008 2.27361 0
M  V30 1922 H 189.197 -0.836564 2.87996 0
M  V30 1923 H 186.75 -0.39985 1.51099 0
M  V30 1924 H 187.485 -2.9312 1.38748 0
M  V30 1925 H 187.27 -2.41856 3.08623 0
M  V30 1926 H 188.76 -3.27558 2.59029 0
M  V30 1927 N 189.197 -1.51736 -0.425897 0
M  V30 1928 C 190.145 -1.74464 -1.53834 0
M  V30 1929 C 191.139 -0.611241 -1.57988 0
M  V30 1930 O 192.345 -0.792899 -1.61596 0
M  V30 1931 H 188.72 -0.551437 -0.511293 0
M  V30 1932 H 190.691 -2.67694 -1.31843 0
M  V30 1933 C 189.44 -1.8972 -2.91379 0
M  V30 1934 H 188.763 -2.76344 -2.88919 0
M  V30 1935 H 190.203 -2.09629 -3.68553 0
M  V30 1936 C 188.662 -0.65992 -3.30374 0
M  V30 1937 O 189.192 0.180083 -4.01296 0
M  V30 1938 N 187.398 -0.500677 -2.86254 0
M  V30 1939 H 186.945 -1.18532 -2.28709 0
M  V30 1940 H 186.903 0.325903 -3.12706 0
M  V30 1941 N 190.675 0.682077 -1.42076 0
M  V30 1942 C 191.608 1.80666 -1.3941 0
M  V30 1943 C 192.586 1.60518 -0.25939 0
M  V30 1944 O 193.77 1.83088 -0.448456 0
M  V30 1945 C 190.897 3.17556 -1.17796 0
M  V30 1946 C 189.943 3.56468 -2.34164 0
M  V30 1947 S 190.776 3.59729 -3.96681 0
M  V30 1948 C 191.932 4.99323 -3.77395 0
M  V30 1949 H 192.165 1.82652 -2.34575 0
M  V30 1950 H 189.698 0.852062 -1.2876 0
M  V30 1951 H 191.656 3.96575 -1.06012 0
M  V30 1952 H 190.317 3.13164 -0.242279 0
M  V30 1953 H 189.51 4.5595 -2.1477 0
M  V30 1954 H 189.112 2.84792 -2.42425 0
M  V30 1955 H 191.404 5.87202 -3.37935 0
M  V30 1956 H 192.347 5.23763 -4.76527 0
M  V30 1957 H 192.755 4.71498 -3.10403 0
M  V30 1958 N 192.153 1.28127 0.917671 0
M  V30 1959 C 193.564 1.13622 1.48145 0
M  V30 1960 C 193.915 -0.275207 1.9426 0
M  V30 1961 O 193.04 -1.1691 1.82102 0
M  V30 1962 C 193.635 2.05648 2.69248 0
M  V30 1963 C 192.194 1.95219 3.21818 0
M  V30 1964 C 191.341 1.97618 1.94532 0
M  V30 1965 H 194.292 1.40874 0.730772 0
M  V30 1966 H 194.313 1.61818 3.44377 0
M  V30 1967 H 193.825 3.08365 2.35653 0
M  V30 1968 H 191.926 0.955244 3.60147 0
M  V30 1969 H 192.039 2.81976 3.87333 0
M  V30 1970 H 190.403 1.41973 2.11461 0
M  V30 1971 H 191.186 3.02007 1.63238 0
M  V30 1972 N 193.631 -1.12557 1.10312 0
M  V30 1973 C 194.541 -2.21841 0.763142 0
M  V30 1974 C 195.557 -1.72354 -0.238801 0
M  V30 1975 O 196.733 -2.01249 -0.0778746 0
M  V30 1976 C 193.798 -3.46131 0.198632 0
M  V30 1977 C 192.859 -4.10464 1.25769 0
M  V30 1978 C 192.092 -5.28821 0.72002 0
M  V30 1979 O 192.315 -5.6859 -0.453993 0
M  V30 1980 O 191.249 -5.83437 1.47935 0
M  V30 1981 H 195.075 -2.53312 1.67532 0
M  V30 1982 H 192.66 -1.20867 0.878157 0
M  V30 1983 H 194.542 -4.2125 -0.112401 0
M  V30 1984 H 193.217 -3.16338 -0.686419 0
M  V30 1985 H 192.124 -3.3713 1.62156 0
M  V30 1986 H 193.457 -4.44408 2.11571 0
M  V30 1987 N 195.109 -0.891671 -1.2995 0
M  V30 1988 C 196.355 -0.514261 -1.96171 0
M  V30 1989 C 196.688 0.935506 -1.70182 0
M  V30 1990 O 195.963 1.66204 -1.01028 0
M  V30 1991 C 196.246 -0.797719 -3.51153 0
M  V30 1992 C 196.099 -2.2986 -3.86632 0
M  V30 1993 C 197.418 -0.278749 -4.39216 0
M  V30 1994 H 194.537 -0.188314 -0.712535 0
M  V30 1995 H 197.179 -1.11689 -1.53706 0
M  V30 1996 H 195.329 -0.284826 -3.87455 0
M  V30 1997 H 197.001 -2.88042 -3.60319 0
M  V30 1998 H 195.244 -2.76257 -3.34462 0
M  V30 1999 H 195.915 -2.44753 -4.94773 0
M  V30 2000 H 198.391 -0.717825 -4.09862 0
M  V30 2001 H 197.267 -0.506353 -5.46559 0
M  V30 2002 H 197.528 0.820266 -4.34424 0
M  V30 2003 N 196.587 1.43421 -0.653314 0
M  V30 2004 C 197.812 2.06678 -0.172846 0
M  V30 2005 C 198.237 1.48648 1.15262 0
M  V30 2006 O 197.595 0.596457 1.71208 0
M  V30 2007 C 197.643 3.60474 -0.0953184 0
M  V30 2008 O 196.747 4.01487 0.942442 0
M  V30 2009 H 196.088 0.657181 -0.0949155 0
M  V30 2010 H 198.618 1.83925 -0.896265 0
M  V30 2011 H 198.628 4.07905 0.0879728 0
M  V30 2012 H 197.303 4.02088 -1.06291 0
M  V30 2013 H 195.88 3.65646 0.731932 0
M  V30 2014 N 198.065 0.39524 1.52563 0
M  V30 2015 C 199.342 -0.242908 1.94086 0
M  V30 2016 C 199.722 -1.63841 1.33114 0
M  V30 2017 O 199.07 -2.22928 0.501529 0
M  V30 2018 C 199.28 -0.26327 3.48006 0
M  V30 2019 C 200.628 -0.489354 4.21771 0
M  V30 2020 O 201.652 -0.343226 3.54543 0
M  V30 2021 O 200.511 -0.776169 5.4096 0
M  V30 2022 H 197.605 -0.152536 0.812811 0
M  V30 2023 H 200.151 0.450178 1.6362 0
M  V30 2024 H 198.923 0.713985 3.84731 0
M  V30 2025 H 198.546 -1.00103 3.84792 0
M  V30 2026 N 199.544 -1.57102 0.125237 0
M  V30 2027 C 200.96 -1.57915 -0.231322 0
M  V30 2028 C 201.16 -1.13833 -1.66266 0
M  V30 2029 O 200.216 -0.828581 -2.38518 0
M  V30 2030 C 201.529 -3.00699 0.00766489 0
M  V30 2031 C 203.077 -3.12947 -0.0577483 0
M  V30 2032 C 203.552 -4.57742 0.153626 0
M  V30 2033 N 205.043 -4.63092 0.0998073 0
M  V30 2034 C 205.778 -5.72905 0.238174 0
M  V30 2035 N 205.274 -6.91445 0.433057 0
M  V30 2036 N 207.067 -5.6182 0.177308 0
M  V30 2037 H 199.218 -1.84055 1.06007 0
M  V30 2038 H 201.481 -0.850905 0.417929 0
M  V30 2039 H 201.187 -3.3726 0.997431 0
M  V30 2040 H 201.061 -3.70236 -0.721452 0
M  V30 2041 H 203.448 -2.7624 -1.03804 0
M  V30 2042 H 203.529 -2.4594 0.70335 0
M  V30 2043 H 203.173 -4.95149 1.13092 0
M  V30 2044 H 203.103 -5.22848 -0.627534 0
M  V30 2045 H 205.594 -3.77871 -0.047051 0
M  V30 2046 H 205.907 -7.70985 0.529332 0
M  V30 2047 H 204.252 -6.93415 0.469109 0
M  V30 2048 H 207.443 -4.68093 0.0259748 0
M  V30 2049 H 207.616 -6.47357 0.288582 0
M  V30 2050 N 201.022 0.148545 -1.56898 0
M  V30 2051 C 202.299 0.890019 -1.74178 0
M  V30 2052 C 202.679 1.99407 -0.692839 0
M  V30 2053 O 202.027 2.26671 0.288505 0
M  V30 2054 C 202.237 1.43389 -3.18183 0
M  V30 2055 C 203.585 1.89791 -3.79822 0
M  V30 2056 O 204.609 1.53134 -3.21603 0
M  V30 2057 O 203.468 2.57387 -4.82093 0
M  V30 2058 H 200.562 0.420496 -0.712118 0
M  V30 2059 H 203.108 0.134591 -1.69165 0
M  V30 2060 H 201.88 0.640383 -3.86024 0
M  V30 2061 H 201.503 2.25287 -3.27615 0
M  V30 2062 N 202.5 1.5196 0.417844 0
M  V30 2063 C 203.916 1.40569 0.755816 0
M  V30 2064 C 204.116 0.503316 1.95113 0
M  V30 2065 O 203.172 -0.0341925 2.52477 0
M  V30 2066 C 204.485 2.82947 1.01791 0
M  V30 2067 C 206.033 2.92231 1.12116 0
M  V30 2068 C 206.508 4.35559 1.41608 0
M  V30 2069 N 207.999 4.38753 1.48491 0
M  V30 2070 C 208.734 5.46705 1.7292 0
M  V30 2071 N 208.23 6.64788 1.95011 0
M  V30 2072 N 210.023 5.34209 1.74863 0
M  V30 2073 H 202.174 2.09168 -0.369098 0
M  V30 2074 H 204.437 0.942409 -0.102809 0
M  V30 2075 H 204.143 3.5106 0.212081 0
M  V30 2076 H 204.017 3.23462 1.94042 0
M  V30 2077 H 206.404 2.24304 1.9176 0
M  V30 2078 H 206.485 2.55185 0.177225 0
M  V30 2079 H 206.129 5.04042 0.624848 0
M  V30 2080 H 206.059 4.70133 2.37239 0
M  V30 2081 H 208.55 3.5363 1.33244 0
M  V30 2082 H 208.863 7.42845 2.13076 0
M  V30 2083 H 207.208 6.67869 1.92293 0
M  V30 2084 H 210.399 4.40937 1.57137 0
M  V30 2085 H 210.572 6.18415 1.93563 0
M  V30 2086 N 203.978 -0.674533 1.42435 0
M  V30 2087 C 205.227 -1.43034 1.42212 0
M  V30 2088 C 205.54 -1.95555 0.0420788 0
M  V30 2089 O 206.746 -2.71374 -0.0827558 0
M  V30 2090 C 205.202 -2.58748 2.50155 0
M  V30 2091 C 204.81 -2.12925 3.94166 0
M  V30 2092 C 206.554 -3.36257 2.59098 0
M  V30 2093 C 204.461 -3.25723 4.93618 0
M  V30 2094 H 203.391 -0.537345 0.528939 0
M  V30 2095 H 206.042 -0.73024 1.68344 0
M  V30 2096 H 204.424 -3.31128 2.17188 0
M  V30 2097 H 205.598 -1.47697 4.36488 0
M  V30 2098 H 203.913 -1.48354 3.89076 0
M  V30 2099 H 206.51 -4.20264 3.30578 0
M  V30 2100 H 206.853 -3.82866 1.63461 0
M  V30 2101 H 207.386 -2.70947 2.9126 0
M  V30 2102 H 204.125 -2.84105 5.90732 0
M  V30 2103 H 203.645 -3.89732 4.55926 0
M  V30 2104 H 205.324 -3.91186 5.15347 0
M  V30 2105 N 205.456 -1.28612 -0.910864 0
M  V30 2106 C 206.681 -1.1891 -1.69927 0
M  V30 2107 C 207.106 0.248372 -1.86453 0
M  V30 2108 O 206.464 1.17961 -1.37676 0
M  V30 2109 C 206.512 -1.89578 -3.06745 0
M  V30 2110 O 205.616 -1.20521 -3.94396 0
M  V30 2111 H 204.957 -0.412632 -0.520222 0
M  V30 2112 H 207.487 -1.69985 -1.1387 0
M  V30 2113 H 207.497 -1.97597 -3.56958 0
M  V30 2114 H 206.172 -2.94136 -2.94035 0
M  V30 2115 H 204.749 -1.20684 -3.52831 0
M  V30 2116 N 206.934 1.1197 -1.10907 0
M  V30 2117 C 207.867 2.16998 -0.706192 0
M  V30 2118 C 208.845 1.59903 0.294897 0
M  V30 2119 O 210.029 1.87513 0.192636 0
M  V30 2120 C 207.156 3.38673 -0.0427664 0
M  V30 2121 C 206.202 4.14414 -1.00811 0
M  V30 2122 S 207.035 4.72079 -2.52789 0
M  V30 2123 C 208.191 5.97083 -1.87731 0
M  V30 2124 H 208.424 2.50837 -1.59587 0
M  V30 2125 H 205.957 1.23508 -0.926555 0
M  V30 2126 H 207.915 4.09142 0.333668 0
M  V30 2127 H 206.576 3.03105 0.823788 0
M  V30 2128 H 205.769 5.016 -0.491259 0
M  V30 2129 H 205.371 3.49678 -1.3267 0
M  V30 2130 H 207.663 6.66599 -1.21044 0
M  V30 2131 H 208.606 6.53403 -2.72892 0
M  V30 2132 H 209.014 5.4837 -1.33979 0
M  V30 2133 N 208.412 0.89855 1.29475 0
M  V30 2134 C 209.661 0.519863 1.94885 0
M  V30 2135 C 209.974 -0.9383 1.71625 0
M  V30 2136 O 211.18 -1.42445 2.31131 0
M  V30 2137 C 209.636 0.878836 3.49005 0
M  V30 2138 C 209.244 2.35569 3.81066 0
M  V30 2139 C 210.988 0.570004 4.20656 0
M  V30 2140 C 208.895 2.65558 5.28425 0
M  V30 2141 H 207.825 0.190692 0.729488 0
M  V30 2142 H 210.476 1.09539 1.47219 0
M  V30 2143 H 208.858 0.232253 3.95318 0
M  V30 2144 H 210.032 3.04773 3.45616 0
M  V30 2145 H 208.347 2.63343 3.22552 0
M  V30 2146 H 210.944 0.770925 5.29113 0
M  V30 2147 H 211.287 -0.491404 4.1339 0
M  V30 2148 H 211.82 1.17438 3.8007 0
M  V30 2149 H 208.559 3.70493 5.40754 0
M  V30 2150 H 208.079 2.00977 5.65127 0
M  V30 2151 H 209.758 2.51765 5.96006 0
M  V30 2152 N 209.89 -1.43072 0.660911 0
M  V30 2153 C 211.115 -2.06584 0.183805 0
M  V30 2154 C 211.54 -1.49257 -1.14472 0
M  V30 2155 O 210.898 -0.605528 -1.70889 0
M  V30 2156 C 210.946 -3.60418 0.114434 0
M  V30 2157 O 210.05 -4.01981 -0.921137 0
M  V30 2158 H 209.391 -0.656669 0.0983994 0
M  V30 2159 H 211.921 -1.83447 0.906006 0
M  V30 2160 H 211.931 -4.07946 -0.0663394 0
M  V30 2161 H 210.606 -4.01519 1.08422 0
M  V30 2162 H 209.183 -3.66029 -0.71253 0
M  V30 2163 N 211.368 -0.403325 -1.52352 0
M  V30 2164 C 212.278 0.432009 -2.30588 0
M  V30 2165 C 213.294 1.05884 -1.38075 0
M  V30 2166 O 214.47 1.06161 -1.71148 0
M  V30 2167 C 211.535 1.53669 -3.10784 0
M  V30 2168 C 210.596 0.933525 -4.19027 0
M  V30 2169 C 209.829 1.98557 -4.9539 0
M  V30 2170 O 210.052 3.20283 -4.71991 0
M  V30 2171 O 208.986 1.59504 -5.80381 0
M  V30 2172 H 212.812 -0.205739 -3.03002 0
M  V30 2173 H 210.397 -0.166675 -1.48467 0
M  V30 2174 H 212.279 2.17814 -3.60742 0
M  V30 2175 H 210.954 2.15915 -2.41169 0
M  V30 2176 H 209.861 0.254954 -3.7323 0
M  V30 2177 H 211.194 0.35508 -4.90918 0
M  V30 2178 N 212.846 1.57033 -0.133567 0
M  V30 2179 C 213.776 2.1909 0.807567 0
M  V30 2180 C 214.757 1.13517 1.26681 0
M  V30 2181 O 215.942 1.41809 1.32679 0
M  V30 2182 C 213.072 2.80188 2.05212 0
M  V30 2183 C 212.026 3.91471 1.73015 0
M  V30 2184 C 211.352 4.39443 3.04622 0
M  V30 2185 C 212.652 5.12886 0.987168 0
M  V30 2186 H 214.346 2.97988 0.290403 0
M  V30 2187 H 211.892 1.43335 0.138239 0
M  V30 2188 H 213.845 3.22264 2.71521 0
M  V30 2189 H 212.569 1.98601 2.59278 0
M  V30 2190 H 211.228 3.49993 1.0909 0
M  V30 2191 H 210.876 3.54695 3.56651 0
M  V30 2192 H 210.576 5.14495 2.83847 0
M  V30 2193 H 212.1 4.8418 3.72024 0
M  V30 2194 H 213.514 5.51891 1.55208 0
M  V30 2195 H 211.911 5.93615 0.87985 0
M  V30 2196 H 212.981 4.84894 -0.0235286 0
M  V30 2197 N 214.325 -0.140222 1.56975 0
M  V30 2198 C 215.288 -1.15689 1.97861 0
M  V30 2199 C 216.288 -1.3549 0.865974 0
M  V30 2200 O 217.478 -1.32367 1.13246 0
M  V30 2201 C 214.61 -2.51582 2.30042 0
M  V30 2202 H 215.803 -0.805971 2.88867 0
M  V30 2203 H 213.356 -0.383801 1.51515 0
M  V30 2204 H 214.091 -2.91632 1.41849 0
M  V30 2205 H 213.876 -2.38569 3.11171 0
M  V30 2206 H 215.366 -3.24792 2.62488 0
M  V30 2207 N 215.803 -1.52179 -0.40978 0
M  V30 2208 C 217.028 -1.70347 -1.18308 0
M  V30 2209 C 217.453 -0.411887 -1.83535 0
M  V30 2210 O 216.811 0.630587 -1.6998 0
M  V30 2211 C 216.859 -2.83977 -2.22238 0
M  V30 2212 O 215.963 -2.495 -3.28365 0
M  V30 2213 H 215.304 -0.567103 -0.345384 0
M  V30 2214 H 217.834 -1.98879 -0.480445 0
M  V30 2215 H 217.844 -3.0887 -2.66577 0
M  V30 2216 H 216.519 -3.77685 -1.74146 0
M  V30 2217 H 215.096 -2.35277 -2.89308 0
M  V30 2218 N 217.281 0.66697 -1.42791 0
M  V30 2219 C 218.244 1.76211 -1.46568 0
M  V30 2220 C 219.244 1.56896 -0.352196 0
M  V30 2221 O 220.434 1.63044 -0.613364 0
M  V30 2222 C 217.566 3.14935 -1.30494 0
M  V30 2223 H 218.759 1.74247 -2.44086 0
M  V30 2224 H 216.312 0.877342 -1.29354 0
M  V30 2225 H 217.047 3.2252 -0.339301 0
M  V30 2226 H 216.832 3.30359 -2.11199 0
M  V30 2227 H 218.322 3.94821 -1.36038 0
M  V30 2228 N 218.759 1.29093 0.90403 0
M  V30 2229 C 219.984 1.19809 1.69294 0
M  V30 2230 C 220.409 -0.238481 1.86582 0
M  V30 2231 O 219.767 -1.1723 1.383 0
M  V30 2232 C 219.815 1.91202 3.05736 0
M  V30 2233 O 218.919 1.22611 3.93752 0
M  V30 2234 H 218.26 0.415385 0.518027 0
M  V30 2235 H 220.79 1.70586 1.12967 0
M  V30 2236 H 220.8 1.99487 3.55906 0
M  V30 2237 H 219.475 2.95692 2.92471 0
M  V30 2238 H 218.052 1.22554 3.52186 0
M  V30 2239 N 220.237 -1.11381 1.11499 0
M  V30 2240 C 221.485 -1.8277 0.862524 0
M  V30 2241 C 221.806 -1.85097 -0.613534 0
M  V30 2242 O 221.076 -1.32198 -1.4457 0
M  V30 2243 H 219.656 -0.676823 0.316101 0
M  V30 2244 H 222.318 -1.34816 1.4075 0
M  V30 2245 H 221.414 -2.86614 1.23527 0
M  V30 2246 N 221.715 -0.905404 -1.28997 0
M  V30 2247 C 222.964 -0.530191 -1.94607 0
M  V30 2248 C 223.277 0.929185 -1.72121 0
M  V30 2249 O 224.483 1.41218 -2.31883 0
M  V30 2250 C 222.939 -0.897333 -3.48534 0
M  V30 2251 C 222.547 -2.37587 -3.79811 0
M  V30 2252 C 224.291 -0.592304 -4.20347 0
M  V30 2253 C 222.198 -2.68357 -5.27009 0
M  V30 2254 H 221.128 -0.194558 -0.728466 0
M  V30 2255 H 223.779 -1.10318 -1.46636 0
M  V30 2256 H 222.161 -0.253214 -3.9519 0
M  V30 2257 H 223.335 -3.06602 -3.43994 0
M  V30 2258 H 221.65 -2.6505 -3.2115 0
M  V30 2259 H 224.247 -0.798975 -5.28697 0
M  V30 2260 H 224.59 0.469474 -4.13644 0
M  V30 2261 H 225.123 -1.19452 -3.79442 0
M  V30 2262 H 221.862 -3.73355 -5.38782 0
M  V30 2263 H 221.382 -2.03971 -5.64053 0
M  V30 2264 H 223.061 -2.54922 -5.94663 0
M  V30 2265 N 223.193 1.4272 -0.668489 0
M  V30 2266 C 224.156 2.292 0.00448567 0
M  V30 2267 C 225.156 1.43001 0.735339 0
M  V30 2268 O 226.346 1.64461 0.57429 0
M  V30 2269 C 223.478 3.25375 1.01705 0
M  V30 2270 H 224.671 2.90199 -0.756608 0
M  V30 2271 H 222.224 1.50254 -0.430506 0
M  V30 2272 H 222.959 2.69301 1.80686 0
M  V30 2273 H 222.744 3.88944 0.496463 0
M  V30 2274 H 224.234 3.90245 1.48655 0
M  V30 2275 N 224.671 0.411399 1.52136 0
M  V30 2276 C 225.919 -0.163322 2.01439 0
M  V30 2277 C 226.24 -1.45453 1.29879 0
M  V30 2278 O 225.51 -1.91225 0.4254 0
M  V30 2279 H 224.09 -0.0633447 0.744309 0
M  V30 2280 H 226.752 0.548161 1.87033 0
M  V30 2281 H 225.848 -0.357817 3.10042 0
M  V30 2282 N 226.149 -1.5696 0.141893 0
M  V30 2283 C 227.082 -2.12271 -0.837627 0
M  V30 2284 C 228.06 -1.04495 -1.24578 0
M  V30 2285 O 229.244 -1.32293 -1.34278 0
M  V30 2286 C 226.371 -2.63822 -2.12404 0
M  V30 2287 C 225.417 -3.83698 -1.86221 0
M  V30 2288 S 226.25 -5.24948 -1.05781 0
M  V30 2289 C 227.406 -5.79884 -2.35552 0
M  V30 2290 H 227.639 -2.95023 -0.367249 0
M  V30 2291 H 225.172 -1.54231 -0.0723014 0
M  V30 2292 H 227.13 -2.94175 -2.86307 0
M  V30 2293 H 225.791 -1.8121 -2.56557 0
M  V30 2294 H 224.984 -4.17995 -2.81596 0
M  V30 2295 H 224.586 -3.5408 -1.20429 0
M  V30 2296 H 226.878 -5.91005 -3.31239 0
M  V30 2297 H 227.821 -6.77544 -2.05767 0
M  V30 2298 H 228.229 -5.08095 -2.45967 0
M  V30 2299 N 227.627 0.131896 -1.57047 0
M  V30 2300 C 228.867 0.847972 -1.85981 0
M  V30 2301 C 229.231 1.77655 -0.7282 0
M  V30 2302 O 230.432 2.53322 -0.898968 0
M  V30 2303 C 228.703 1.58919 -3.20124 0
M  V30 2304 S 230.262 2.34862 -3.70655 0
M  V30 2305 H 227.08 0.283273 -0.652133 0
M  V30 2306 H 229.682 0.107057 -1.95207 0
M  V30 2307 H 228.386 0.898771 -4.00438 0
M  V30 2308 H 227.917 2.37073 -3.13942 0
M  V30 2309 H 229.932 3.60344 -3.41126 0
M  V30 2310 N 229.106 1.52395 0.401703 0
M  V30 2311 C 230.354 1.66488 1.14569 0
M  V30 2312 C 230.675 0.400897 1.90835 0
M  V30 2313 O 229.945 -0.584415 1.8698 0
M  V30 2314 H 228.525 0.613672 0.425929 0
M  V30 2315 H 231.187 1.89464 0.457093 0
M  V30 2316 H 230.283 2.50942 1.85566 0
M  V30 2317 N 230.584 -0.659388 1.43143 0
M  V30 2318 C 231.832 -1.41654 1.44147 0
M  V30 2319 C 232.153 -1.94893 0.0645739 0
M  V30 2320 O 231.423 -1.74044 -0.899198 0
M  V30 2321 H 230.003 -0.525708 0.530697 0
M  V30 2322 H 232.665 -0.778097 1.78694 0
M  V30 2323 H 231.761 -2.26195 2.1504 0
M  V30 2324 N 232.062 -1.29571 -0.897171 0
M  V30 2325 C 232.994 -1.10724 -2.00681 0
M  V30 2326 C 234.007 -0.0540026 -1.6271 0
M  V30 2327 O 235.196 -0.298783 -1.75982 0
M  V30 2328 C 232.296 -0.663912 -3.32333 0
M  V30 2329 C 231.469 -1.79622 -3.98816 0
M  V30 2330 C 230.528 -1.34349 -5.0876 0
M  V30 2331 O 229.554 -2.04864 -5.31055 0
M  V30 2332 N 230.756 -0.215764 -5.80099 0
M  V30 2333 H 233.521 -2.06291 -2.17403 0
M  V30 2334 H 231.082 -1.21544 -1.06951 0
M  V30 2335 H 233.074 -0.344295 -4.03233 0
M  V30 2336 H 231.644 0.199375 -3.11964 0
M  V30 2337 H 230.864 -2.28459 -3.21248 0
M  V30 2338 H 232.152 -2.55535 -4.39976 0
M  V30 2339 H 231.55 0.372091 -5.64475 0
M  V30 2340 H 230.107 0.0444707 -6.51785 0
M  V30 2341 N 233.54 1.10788 -1.12088 0
M  V30 2342 C 234.503 2.15207 -0.788577 0
M  V30 2343 C 235.503 1.59609 0.195317 0
M  V30 2344 O 236.693 1.74174 -0.0300193 0
M  V30 2345 C 233.825 3.4047 -0.171174 0
M  V30 2346 H 235.018 2.46116 -1.71368 0
M  V30 2347 H 232.571 1.26089 -0.923652 0
M  V30 2348 H 233.306 3.15176 0.763832 0
M  V30 2349 H 233.091 3.82109 -0.879514 0
M  V30 2350 H 234.581 4.17576 0.04496 0
M  V30 2351 N 235.018 0.912232 1.28515 0
M  V30 2352 C 235.948 0.416403 2.29757 0
M  V30 2353 C 236.929 -0.515194 1.6211 0
M  V30 2354 O 238.114 -0.423253 1.89532 0
M  V30 2355 C 235.244 -0.34572 3.45575 0
M  V30 2356 C 234.198 0.496599 4.25109 0
M  V30 2357 C 233.524 -0.393771 5.33248 0
M  V30 2358 C 234.824 1.75307 4.92001 0
M  V30 2359 H 236.518 1.26249 2.7148 0
M  V30 2360 H 234.064 0.608515 1.30511 0
M  V30 2361 H 236.017 -0.703422 4.15488 0
M  V30 2362 H 234.741 -1.2257 3.02728 0
M  V30 2363 H 233.4 0.8368 3.56922 0
M  V30 2364 H 233.048 -1.27225 4.86644 0
M  V30 2365 H 232.748 0.166209 5.87365 0
M  V30 2366 H 234.272 -0.747389 6.06009 0
M  V30 2367 H 235.686 1.46437 5.54283 0
M  V30 2368 H 234.083 2.25534 5.56106 0
M  V30 2369 H 235.153 2.48176 4.16577 0
M  V30 2370 N 236.496 -1.42363 0.676048 0
M  V30 2371 C 237.773 -1.95183 0.127726 0
M  V30 2372 C 238.153 -1.61641 -1.35777 0
M  V30 2373 O 237.501 -0.913216 -2.09458 0
M  V30 2374 C 237.711 -3.46721 0.398199 0
M  V30 2375 C 239.059 -4.23427 0.315383 0
M  V30 2376 O 240.083 -3.54649 0.332016 0
M  V30 2377 O 238.942 -5.45888 0.25865 0
M  V30 2378 H 236.036 -0.826992 0.00359427 0
M  V30 2379 H 238.582 -1.52184 0.750864 0
M  V30 2380 H 237.354 -3.64344 1.4272 0
M  V30 2381 H 236.977 -3.96769 -0.256885 0
M  V30 2382 N 237.974 -0.419461 -1.51915 0
M  V30 2383 C 238.904 0.391813 -2.30189 0
M  V30 2384 C 239.885 1.03699 -1.34836 0
M  V30 2385 O 241.07 1.04403 -1.63748 0
M  V30 2386 C 238.2 1.50312 -3.13087 0
M  V30 2387 C 237.154 0.9824 -4.16573 0
M  V30 2388 C 236.48 2.18809 -4.8788 0
M  V30 2389 C 237.78 0.0292356 -5.22292 0
M  V30 2390 H 239.474 -0.26135 -2.98257 0
M  V30 2391 H 237.02 -0.127134 -1.43438 0
M  V30 2392 H 238.973 2.07773 -3.66617 0
M  V30 2393 H 237.697 2.18431 -2.42807 0
M  V30 2394 H 236.356 0.430119 -3.64068 0
M  V30 2395 H 236.004 2.85507 -4.14119 0
M  V30 2396 H 235.704 1.84615 -5.57845 0
M  V30 2397 H 237.228 2.76858 -5.44226 0
M  V30 2398 H 238.642 0.512976 -5.71 0
M  V30 2399 H 237.039 -0.2244 -5.9968 0
M  V30 2400 H 238.109 -0.912931 -4.76228 0
M  V30 2401 N 239.452 1.56882 -0.150215 0
M  V30 2402 C 240.729 1.87844 0.545327 0
M  V30 2403 C 241.109 1.0567 1.82749 0
M  V30 2404 O 240.457 0.144442 2.28043 0
M  V30 2405 C 240.667 3.39526 0.80767 0
M  V30 2406 C 242.015 4.08814 1.14703 0
M  V30 2407 O 243.039 3.44723 0.896917 0
M  V30 2408 O 241.898 5.22004 1.61784 0
M  V30 2409 H 238.992 0.778677 0.278553 0
M  V30 2410 H 241.538 1.68666 -0.187068 0
M  V30 2411 H 240.31 3.91173 -0.0996096 0
M  V30 2412 H 239.933 3.64243 1.59413 0
M  V30 2413 N 240.93 -0.123565 1.57115 0
M  V30 2414 C 241.893 -1.13583 1.99076 0
M  V30 2415 C 242.893 -1.34564 0.880296 0
M  V30 2416 O 244.083 -1.31158 1.14644 0
M  V30 2417 C 241.215 -2.49128 2.32698 0
M  V30 2418 H 242.408 -0.775287 2.89706 0
M  V30 2419 H 239.961 -0.36771 1.51913 0
M  V30 2420 H 240.696 -2.90111 1.44934 0
M  V30 2421 H 240.481 -2.35255 3.13684 0
M  V30 2422 H 241.971 -3.2199 2.65918 0
M  V30 2423 N 242.408 -1.52605 -0.393616 0
M  V30 2424 C 243.318 -1.79971 -1.50492 0
M  V30 2425 C 244.334 -0.686181 -1.59899 0
M  V30 2426 O 245.51 -0.973274 -1.76322 0
M  V30 2427 C 242.575 -1.95867 -2.86072 0
M  V30 2428 C 241.636 -3.19781 -2.86424 0
M  V30 2429 C 240.869 -3.34909 -4.15538 0
M  V30 2430 O 241.092 -2.54948 -5.10253 0
M  V30 2431 O 240.026 -4.28141 -4.23059 0
M  V30 2432 H 243.852 -2.74328 -1.30299 0
M  V30 2433 H 241.437 -1.3764 -0.581005 0
M  V30 2434 H 243.319 -2.08056 -3.66457 0
M  V30 2435 H 241.994 -1.04699 -3.063 0
M  V30 2436 H 240.901 -3.13038 -2.04837 0
M  V30 2437 H 242.234 -4.1078 -2.71147 0
M  V30 2438 N 243.887 0.651787 -1.4349 0
M  V30 2439 C 245.135 1.40888 -1.44897 0
M  V30 2440 C 245.456 1.94856 -0.0749086 0
M  V30 2441 O 244.726 1.74518 0.889956 0
M  V30 2442 H 243.306 0.522887 -0.533478 0
M  V30 2443 H 245.968 0.768609 -1.79104 0
M  V30 2444 H 245.064 2.25052 -2.16236 0
M  V30 2445 N 245.365 1.30045 0.890287 0
M  V30 2446 C 246.312 1.15976 1.99545 0
M  V30 2447 C 247.282 0.0506202 1.66023 0
M  V30 2448 O 248.467 0.219847 1.89529 0
M  V30 2449 C 245.607 0.852054 3.34416 0
M  V30 2450 C 244.72 2.04255 3.80662 0
M  V30 2451 C 243.855 1.6734 5.04154 0
M  V30 2452 C 242.894 2.82916 5.42794 0
M  V30 2453 N 242.031 2.46333 6.57468 0
M  V30 2454 H 246.871 2.10524 2.10911 0
M  V30 2455 H 244.408 1.04749 1.03276 0
M  V30 2456 H 246.366 0.654296 4.12037 0
M  V30 2457 H 244.996 -0.0565502 3.2275 0
M  V30 2458 H 244.048 2.35172 2.98995 0
M  V30 2459 H 245.36 2.90826 4.05242 0
M  V30 2460 H 244.514 1.43908 5.89386 0
M  V30 2461 H 243.253 0.779308 4.81433 0
M  V30 2462 H 242.258 3.0702 4.56091 0
M  V30 2463 H 243.483 3.73004 5.6749 0
M  V30 2464 H 241.429 1.59423 6.36334 0
M  V30 2465 H 241.346 3.26436 6.81891 0
M  V30 2466 H 242.614 2.26244 7.45945 0
M  V30 2467 N 246.843 -1.10192 1.12674 0
M  V30 2468 C 247.793 -2.14754 0.765801 0
M  V30 2469 C 248.777 -1.59154 -0.236409 0
M  V30 2470 O 249.969 -1.76951 -0.0415261 0
M  V30 2471 C 247.098 -3.42563 0.224827 0
M  V30 2472 C 246.184 -4.05091 1.25548 0
M  V30 2473 N 246.575 -4.42287 2.4539 0
M  V30 2474 C 244.873 -4.32186 1.10142 0
M  V30 2475 C 245.574 -4.91441 3.11224 0
M  V30 2476 N 244.55 -4.88405 2.38666 0
M  V30 2477 H 248.352 -2.41309 1.67772 0
M  V30 2478 H 245.866 -1.27339 1.00789 0
M  V30 2479 H 247.863 -4.16868 -0.0519578 0
M  V30 2480 H 246.523 -3.17467 -0.681515 0
M  V30 2481 H 247.534 -4.33902 2.82754 0
M  V30 2482 H 244.211 -4.16735 0.252587 0
M  V30 2483 H 245.601 -5.29749 4.13298 0
M  V30 2484 N 248.321 -0.919034 -1.28029 0
M  V30 2485 C 249.567 -0.555757 -1.95036 0
M  V30 2486 C 249.9 0.899198 -1.72128 0
M  V30 2487 O 249.175 1.64023 -1.04531 0
M  V30 2488 C 249.458 -0.872024 -3.49382 0
M  V30 2489 C 249.311 -2.3801 -3.81669 0
M  V30 2490 C 250.63 -0.37185 -4.38526 0
M  V30 2491 H 247.749 -0.203386 -0.708381 0
M  V30 2492 H 250.391 -1.14924 -1.51303 0
M  V30 2493 H 248.541 -0.366946 -3.86763 0
M  V30 2494 H 250.213 -2.9562 -3.54128 0
M  V30 2495 H 248.456 -2.83289 -3.28526 0
M  V30 2496 H 249.127 -2.55192 -4.8947 0
M  V30 2497 H 251.603 -0.804602 -4.08247 0
M  V30 2498 H 250.479 -0.622173 -5.45362 0
M  V30 2499 H 250.74 0.727934 -4.36066 0
M  V30 2500 N 249.799 1.42003 -0.683588 0
M  V30 2501 C 251.21 1.84501 -0.285736 0
M  V30 2502 C 251.561 1.57213 1.17382 0
M  V30 2503 O 250.686 1.03642 1.89966 0
M  V30 2504 C 251.281 3.34912 -0.511821 0
M  V30 2505 C 249.84 3.76025 -0.168005 0
M  V30 2506 C 248.987 2.6551 -0.799983 0
M  V30 2507 H 251.938 1.31724 -0.885119 0
M  V30 2508 H 251.959 3.79784 0.233292 0
M  V30 2509 H 251.471 3.54741 -1.57418 0
M  V30 2510 H 249.572 3.61801 0.890567 0
M  V30 2511 H 249.685 4.75141 -0.614661 0
M  V30 2512 H 248.049 2.53654 -0.230568 0
M  V30 2513 H 248.832 2.8816 -1.86597 0
M  V30 2514 N 251.277 0.427512 1.51691 0
M  V30 2515 C 252.207 -0.3796 2.30394 0
M  V30 2516 C 253.188 -1.02982 1.35384 0
M  V30 2517 O 254.373 -1.03534 1.643 0
M  V30 2518 C 251.503 -1.48649 3.1388 0
M  V30 2519 C 250.457 -0.960294 4.17088 0
M  V30 2520 C 249.783 -2.16219 4.89033 0
M  V30 2521 C 251.083 -0.00153679 5.223 0
M  V30 2522 H 252.777 0.277164 2.98114 0
M  V30 2523 H 250.323 0.134739 1.43368 0
M  V30 2524 H 252.276 -2.05826 3.67714 0
M  V30 2525 H 251 -2.1714 2.43962 0
M  V30 2526 H 249.659 -0.410806 3.64291 0
M  V30 2527 H 249.307 -2.83307 4.15628 0
M  V30 2528 H 249.007 -1.81654 5.58816 0
M  V30 2529 H 250.531 -2.73968 5.45687 0
M  V30 2530 H 251.945 -0.482687 5.71264 0
M  V30 2531 H 250.342 0.256199 5.99553 0
M  V30 2532 H 251.412 0.938174 4.75738 0
M  V30 2533 N 252.755 -1.56801 0.158532 0
M  V30 2534 C 254.032 -1.88131 -0.535357 0
M  V30 2535 C 254.412 -1.06638 -1.82186 0
M  V30 2536 O 253.76 -0.156533 -2.27963 0
M  V30 2537 C 253.97 -3.39949 -0.789653 0
M  V30 2538 C 255.318 -4.09416 -1.12533 0
M  V30 2539 O 256.342 -3.45194 -0.878622 0
M  V30 2540 O 255.201 -5.22855 -1.59014 0
M  V30 2541 H 252.295 -0.780143 -0.27442 0
M  V30 2542 H 254.841 -1.68564 0.19601 0
M  V30 2543 H 253.613 -3.91115 0.120353 0
M  V30 2544 H 253.236 -3.65084 -1.57479 0
M  V30 2545 N 254.233 0.115231 -1.57178 0
M  V30 2546 C 255.196 1.12526 -1.99676 0
M  V30 2547 C 256.196 1.34095 -0.88742 0
M  V30 2548 O 257.386 1.30548 -1.15337 0
M  V30 2549 C 254.518 2.4789 -2.34015 0
M  V30 2550 H 255.711 0.759912 -2.90113 0
M  V30 2551 H 253.264 0.359648 -1.52106 0
M  V30 2552 H 253.999 2.89339 -1.4647 0
M  V30 2553 H 253.784 2.33588 -3.14927 0
M  V30 2554 H 255.274 3.20575 -2.67622 0
M  V30 2555 N 255.711 1.52812 0.385517 0
M  V30 2556 C 256.641 1.80808 1.47752 0
M  V30 2557 C 257.622 0.660318 1.5676 0
M  V30 2558 O 258.807 0.908246 1.71652 0
M  V30 2559 C 255.937 1.98008 2.85324 0
M  V30 2560 C 254.891 3.13709 2.91154 0
M  V30 2561 C 254.217 3.16169 4.31209 0
M  V30 2562 C 255.517 4.52709 2.60483 0
M  V30 2563 H 257.211 2.72253 1.24573 0
M  V30 2564 H 254.757 1.31003 0.597839 0
M  V30 2565 H 256.71 2.16176 3.61726 0
M  V30 2566 H 255.434 1.03255 3.09848 0
M  V30 2567 H 254.093 2.95329 2.17201 0
M  V30 2568 H 253.741 2.19092 4.52778 0
M  V30 2569 H 253.441 3.93894 4.36029 0
M  V30 2570 H 254.965 3.36496 5.09512 0
M  V30 2571 H 256.379 4.71173 3.26602 0
M  V30 2572 H 254.776 5.32528 2.76648 0
M  V30 2573 H 255.846 4.59186 1.55809 0
M  V30 2574 N 257.189 -0.644168 1.43834 0
M  V30 2575 C 258.099 -1.78563 1.52159 0
M  V30 2576 C 259.115 -1.69147 0.408069 0
M  V30 2577 O 260.291 -1.90156 0.663524 0
M  V30 2578 C 257.356 -3.14888 1.45073 0
M  V30 2579 C 256.417 -3.36034 2.6717 0
M  V30 2580 C 255.65 -4.65855 2.60413 0
M  V30 2581 O 255.873 -5.45805 1.65689 0
M  V30 2582 O 254.807 -4.88918 3.5106 0
M  V30 2583 H 258.633 -1.74494 2.48567 0
M  V30 2584 H 256.218 -0.80378 1.25935 0
M  V30 2585 H 258.1 -3.96179 1.43597 0
M  V30 2586 H 256.775 -3.19528 0.518037 0
M  V30 2587 H 255.682 -2.54472 2.74217 0
M  V30 2588 H 257.015 -3.36247 3.59442 0
M  V30 2589 N 258.668 -1.30515 -0.883378 0
M  V30 2590 C 260.084 -1.08881 -1.16692 0
M  V30 2591 C 260.284 0.149409 -2.00945 0
M  V30 2592 O 259.34 0.84257 -2.38027 0
M  V30 2593 C 260.653 -2.35319 -1.87204 0
M  V30 2594 C 262.201 -2.40799 -1.99962 0
M  V30 2595 C 262.676 -3.67083 -2.73887 0
M  V30 2596 N 264.167 -3.679 -2.81432 0
M  V30 2597 C 264.902 -4.62303 -3.3921 0
M  V30 2598 N 264.398 -5.67052 -3.98025 0
M  V30 2599 N 266.191 -4.49845 -3.3704 0
M  V30 2600 H 258.342 -2.09951 -0.321633 0
M  V30 2601 H 260.605 -0.92556 -0.205043 0
M  V30 2602 H 260.311 -3.25689 -1.3274 0
M  V30 2603 H 260.185 -2.44089 -2.87577 0
M  V30 2604 H 262.572 -1.50907 -2.53597 0
M  V30 2605 H 262.653 -2.36003 -0.98673 0
M  V30 2606 H 262.297 -4.57334 -2.20925 0
M  V30 2607 H 262.227 -3.69141 -3.75556 0
M  V30 2608 H 264.718 -2.92171 -2.39676 0
M  V30 2609 H 265.031 -6.35184 -4.40183 0
M  V30 2610 H 263.376 -5.70842 -3.96439 0
M  V30 2611 H 266.567 -3.67194 -2.90321 0
M  V30 2612 H 266.74 -5.23597 -3.81772 0
M  V30 2613 N 260.146 1.09593 -1.13257 0
M  V30 2614 C 261.395 1.81105 -0.887917 0
M  V30 2615 C 261.708 1.86563 0.587672 0
M  V30 2616 O 262.914 2.54367 0.949204 0
M  V30 2617 C 261.37 3.25338 -1.53895 0
M  V30 2618 C 260.978 3.28151 -3.04994 0
M  V30 2619 C 262.722 4.01617 -1.37492 0
M  V30 2620 C 260.629 4.66897 -3.6299 0
M  V30 2621 H 259.559 0.678661 -0.328534 0
M  V30 2622 H 262.21 1.23183 -1.36008 0
M  V30 2623 H 260.592 3.8331 -0.994446 0
M  V30 2624 H 261.766 2.79953 -3.66009 0
M  V30 2625 H 260.081 2.65361 -3.20893 0
M  V30 2626 H 262.678 5.04119 -1.78235 0
M  V30 2627 H 263.021 4.15072 -0.31957 0
M  V30 2628 H 263.554 3.50082 -1.88912 0
M  V30 2629 H 260.293 4.58643 -4.68323 0
M  V30 2630 H 259.813 5.15426 -3.06752 0
M  V30 2631 H 261.492 5.3587 -3.62563 0
M  V30 2632 N 261.624 0.925811 1.2754 0
M  V30 2633 C 262.574 0.394488 2.24561 0
M  V30 2634 C 263.558 -0.500183 1.52928 0
M  V30 2635 O 264.75 -0.337936 1.73744 0
M  V30 2636 C 261.879 -0.353328 3.41477 0
M  V30 2637 C 260.965 0.557752 4.20416 0
M  V30 2638 N 261.356 1.67674 4.77199 0
M  V30 2639 C 259.654 0.360404 4.44541 0
M  V30 2640 C 260.355 2.24324 5.36706 0
M  V30 2641 N 259.331 1.53305 5.21535 0
M  V30 2642 H 263.133 1.2489 2.66045 0
M  V30 2643 H 260.647 0.779864 1.4245 0
M  V30 2644 H 262.644 -0.7509 4.10082 0
M  V30 2645 H 261.304 -1.20469 3.01525 0
M  V30 2646 H 262.315 2.05915 4.75204 0
M  V30 2647 H 258.992 -0.450454 4.15063 0
M  V30 2648 H 260.382 3.18521 5.91603 0
M  V30 2649 N 263.102 -1.41638 0.69111 0
M  V30 2650 C 264.518 -1.55435 0.362224 0
M  V30 2651 C 264.718 -1.66754 -1.13117 0
M  V30 2652 O 263.774 -1.64348 -1.91692 0
M  V30 2653 C 265.087 -2.79588 1.10684 0
M  V30 2654 C 266.635 -2.9338 1.09075 0
M  V30 2655 C 267.11 -4.20414 1.81703 0
M  V30 2656 N 268.601 -4.27362 1.7865 0
M  V30 2657 C 269.336 -5.24507 2.31689 0
M  V30 2658 N 268.832 -6.27708 2.93179 0
M  V30 2659 N 270.625 -5.16416 2.2197 0
M  V30 2660 H 262.776 -1.32536 1.65976 0
M  V30 2661 H 265.039 -0.639115 0.700168 0
M  V30 2662 H 264.745 -2.77419 2.16175 0
M  V30 2663 H 264.619 -3.70973 0.682545 0
M  V30 2664 H 267.006 -2.95067 0.0441238 0
M  V30 2665 H 267.087 -2.0318 1.55407 0
M  V30 2666 H 266.731 -4.19488 2.86343 0
M  V30 2667 H 266.661 -5.09578 1.32808 0
M  V30 2668 H 269.152 -3.53415 1.33815 0
M  V30 2669 H 269.465 -6.98217 3.31229 0
M  V30 2670 H 267.81 -6.28223 2.97255 0
M  V30 2671 H 271.001 -4.34716 1.73607 0
M  V30 2672 H 271.174 -5.91958 2.63609 0
M  V30 2673 N 264.58 -0.43555 -1.51462 0
M  V30 2674 C 265.53 0.394701 -2.24558 0
M  V30 2675 C 266.514 0.99157 -1.26715 0
M  V30 2676 O 267.706 0.910007 -1.51815 0
M  V30 2677 C 264.835 1.4963 -3.08975 0
M  V30 2678 C 263.921 0.908912 -4.14246 0
M  V30 2679 N 264.312 0.0505335 -5.05775 0
M  V30 2680 C 262.61 1.17668 -4.30198 0
M  V30 2681 C 263.311 -0.279161 -5.8103 0
M  V30 2682 N 262.287 0.336767 -5.42556 0
M  V30 2683 H 266.089 -0.267106 -2.92684 0
M  V30 2684 H 263.603 -0.247518 -1.60503 0
M  V30 2685 H 265.6 2.10394 -3.59917 0
M  V30 2686 H 264.26 2.16046 -2.42393 0
M  V30 2687 H 265.271 -0.31577 -5.16936 0
M  V30 2688 H 261.948 1.83847 -3.74842 0
M  V30 2689 H 263.338 -0.977553 -6.64751 0
M  V30 2690 N 266.058 1.56714 -0.166846 0
M  V30 2691 C 267.005 2.17746 0.765193 0
M  V30 2692 C 267.975 1.11614 1.23011 0
M  V30 2693 O 269.16 1.39745 1.29908 0
M  V30 2694 C 266.3 2.81882 1.9909 0
M  V30 2695 C 265.413 4.02462 1.56997 0
M  V30 2696 C 264.548 4.54537 2.749 0
M  V30 2697 C 263.587 5.67538 2.29275 0
M  V30 2698 N 262.724 6.14142 3.40255 0
M  V30 2699 H 267.564 2.97048 0.237952 0
M  V30 2700 H 265.101 1.4672 0.105725 0
M  V30 2701 H 267.059 3.17221 2.70974 0
M  V30 2702 H 265.689 2.05191 2.49192 0
M  V30 2703 H 264.741 3.72973 0.748037 0
M  V30 2704 H 266.053 4.84273 1.19503 0
M  V30 2705 H 265.207 4.92035 3.54946 0
M  V30 2706 H 263.946 3.71774 3.1565 0
M  V30 2707 H 262.951 5.29597 1.47674 0
M  V30 2708 H 264.176 6.52099 1.89588 0
M  V30 2709 H 262.122 5.3431 3.8059 0
M  V30 2710 H 262.039 6.9093 3.06841 0
M  V30 2711 H 263.307 6.56289 4.206 0
M  V30 2712 N 267.536 -0.106894 1.57237 0
M  V30 2713 C 268.764 -0.826389 1.8968 0
M  V30 2714 C 269.179 -1.72856 0.759353 0
M  V30 2715 O 268.536 -1.80503 -0.269263 0
M  V30 2716 C 268.587 -1.64967 3.21665 0
M  V30 2717 O 268.308 -0.783804 4.31031 0
M  V30 2718 C 269.809 -2.47326 3.67892 0
M  V30 2719 H 267.029 -0.236927 0.627779 0
M  V30 2720 H 269.573 -0.0876593 2.04312 0
M  V30 2721 H 267.728 -2.34103 3.08666 0
M  V30 2722 H 268.142 -1.35284 5.06753 0
M  V30 2723 H 269.616 -3.00604 4.6297 0
M  V30 2724 H 270.093 -3.25247 2.95146 0
M  V30 2725 H 270.699 -1.83411 3.83719 0
M  V30 2726 N 269.014 -1.53014 -0.377408 0
M  V30 2727 C 270.262 -1.6829 -1.11906 0
M  V30 2728 C 270.583 -0.431206 -1.90173 0
M  V30 2729 O 269.853 0.554595 -1.87886 0
M  V30 2730 H 268.433 -0.620371 -0.416112 0
M  V30 2731 H 271.095 -1.90167 -0.426893 0
M  V30 2732 H 270.191 -2.53862 -1.8155 0
M  V30 2733 N 270.492 0.636531 -1.44174 0
M  V30 2734 C 271.455 1.73063 -1.50273 0
M  V30 2735 C 272.455 1.56113 -0.385397 0
M  V30 2736 O 273.645 1.61707 -0.64781 0
M  V30 2737 C 270.777 3.12096 -1.37145 0
M  V30 2738 H 271.97 1.69031 -2.47727 0
M  V30 2739 H 269.523 0.849706 -1.31186 0
M  V30 2740 H 270.258 3.21728 -0.407636 0
M  V30 2741 H 270.043 3.25805 -2.18159 0
M  V30 2742 H 271.533 3.91846 -1.44382 0
M  V30 2743 N 271.97 1.30982 0.876444 0
M  V30 2744 C 272.9 1.20668 1.99903 0
M  V30 2745 C 273.881 0.095354 1.69833 0
M  V30 2746 O 275.066 0.27885 1.92188 0
M  V30 2747 C 272.196 0.90655 3.3526 0
M  V30 2748 C 271.15 1.97675 3.79617 0
M  V30 2749 C 270.476 1.52943 5.1236 0
M  V30 2750 C 271.776 3.389 3.97422 0
M  V30 2751 H 273.47 2.14586 2.0879 0
M  V30 2752 H 271.016 1.03308 1.00317 0
M  V30 2753 H 272.969 0.821025 4.13324 0
M  V30 2754 H 271.693 -0.0682969 3.26529 0
M  V30 2755 H 270.352 2.05205 3.03787 0
M  V30 2756 H 270 0.54262 5.00065 0
M  V30 2757 H 269.7 2.24532 5.43009 0
M  V30 2758 H 271.224 1.45786 5.92941 0
M  V30 2759 H 272.638 3.34081 4.659 0
M  V30 2760 H 271.035 4.0865 4.3946 0
M  V30 2761 H 272.105 3.80163 3.01006 0
M  V30 2762 N 273.449 -1.08991 1.13837 0
M  V30 2763 C 274.698 -1.80631 0.897509 0
M  V30 2764 C 275.011 -1.86872 -0.57777 0
M  V30 2765 O 276.217 -2.54866 -0.935701 0
M  V30 2766 C 274.673 -3.24517 1.55618 0
M  V30 2767 C 274.281 -3.26529 3.0673 0
M  V30 2768 C 276.025 -4.00882 1.3962 0
M  V30 2769 C 273.932 -4.64965 3.65461 0
M  V30 2770 H 272.862 -0.67691 0.332129 0
M  V30 2771 H 275.513 -1.2246 1.3666 0
M  V30 2772 H 273.895 -3.82778 1.01476 0
M  V30 2773 H 275.069 -2.78008 3.67489 0
M  V30 2774 H 273.384 -2.63656 3.22296 0
M  V30 2775 H 275.981 -5.03167 1.80906 0
M  V30 2776 H 276.324 -4.14896 0.341578 0
M  V30 2777 H 276.857 -3.49075 1.90766 0
M  V30 2778 H 273.596 -4.56153 4.70749 0
M  V30 2779 H 273.116 -5.13792 3.09481 0
M  V30 2780 H 274.795 -5.3394 3.654 0
M  V30 2781 N 274.927 -0.932562 -1.27047 0
M  V30 2782 C 276.343 -0.633544 -1.46487 0
M  V30 2783 C 276.543 0.815746 -1.84249 0
M  V30 2784 O 275.599 1.59319 -1.95892 0
M  V30 2785 C 276.912 -1.58758 -2.55375 0
M  V30 2786 C 278.46 -1.59634 -2.69232 0
M  V30 2787 C 278.935 -2.53747 -3.81283 0
M  V30 2788 N 280.426 -2.51982 -3.88664 0
M  V30 2789 C 281.161 -3.21491 -4.74796 0
M  V30 2790 N 280.657 -4.00395 -5.65381 0
M  V30 2791 N 282.45 -3.10485 -4.68568 0
M  V30 2792 H 274.601 -1.86946 -1.00821 0
M  V30 2793 H 276.864 -0.802897 -0.504044 0
M  V30 2794 H 276.57 -2.62172 -2.34432 0
M  V30 2795 H 276.444 -1.33301 -3.52861 0
M  V30 2796 H 278.831 -0.569488 -2.89553 0
M  V30 2797 H 278.912 -1.89142 -1.72218 0
M  V30 2798 H 278.556 -3.56545 -3.61715 0
M  V30 2799 H 278.486 -2.21532 -4.77735 0
M  V30 2800 H 280.977 -1.94681 -3.23895 0
M  V30 2801 H 281.29 -4.50406 -6.27976 0
M  V30 2802 H 279.635 -4.04498 -5.65161 0
M  V30 2803 H 282.826 -2.48331 -3.96799 0
M  V30 2804 H 282.999 -3.64925 -5.35475 0
M  V30 2805 N 276.405 1.4127 -0.698611 0
M  V30 2806 C 277.368 2.29158 -0.044132 0
M  V30 2807 C 278.368 1.44529 0.704841 0
M  V30 2808 O 279.558 1.65643 0.539276 0
M  V30 2809 C 276.69 3.27459 0.947809 0
M  V30 2810 H 277.883 2.88529 -0.817994 0
M  V30 2811 H 275.436 1.49307 -0.46228 0
M  V30 2812 H 276.171 2.73073 1.74933 0
M  V30 2813 H 275.956 3.8991 0.41385 0
M  V30 2814 H 277.446 3.93311 1.40344 0
M  V30 2815 N 277.883 0.443576 1.51229 0
M  V30 2816 C 278.846 -0.353132 2.26463 0
M  V30 2817 C 279.846 -0.944338 1.3015 0
M  V30 2818 O 281.036 -0.817813 1.5381 0
M  V30 2819 C 278.168 -1.50023 3.06114 0
M  V30 2820 H 279.361 0.3063 2.98332 0
M  V30 2821 H 276.914 0.196902 1.55055 0
M  V30 2822 H 277.649 -2.19553 2.38677 0
M  V30 2823 H 277.434 -1.08241 3.76864 0
M  V30 2824 H 278.924 -2.06296 3.63087 0
M  V30 2825 N 279.361 -1.56624 0.175154 0
M  V30 2826 C 280.607 -1.9729 -0.469506 0
M  V30 2827 C 280.94 -1.06128 -1.62636 0
M  V30 2828 O 280.215 -0.109183 -1.94193 0
M  V30 2829 C 280.498 -3.47375 -0.948804 0
M  V30 2830 C 280.351 -4.49317 0.208491 0
M  V30 2831 C 281.67 -4.00652 -1.82116 0
M  V30 2832 H 278.789 -0.717317 -0.16919 0
M  V30 2833 H 281.431 -1.88184 0.262062 0
M  V30 2834 H 279.581 -3.55267 -1.57219 0
M  V30 2835 H 281.253 -4.53482 0.845682 0
M  V30 2836 H 279.496 -4.25121 0.863395 0
M  V30 2837 H 280.167 -5.51741 -0.169059 0
M  V30 2838 H 282.643 -3.95416 -1.2956 0
M  V30 2839 H 281.519 -5.06075 -2.12554 0
M  V30 2840 H 281.78 -3.44699 -2.7683 0
M  V30 2841 N 280.839 0.0985539 -1.57292 0
M  V30 2842 C 282.255 0.45267 -1.53046 0
M  V30 2843 C 282.455 1.80713 -0.891342 0
M  V30 2844 O 281.511 2.4785 -0.482375 0
M  V30 2845 C 282.824 0.418341 -2.97776 0
M  V30 2846 C 284.372 0.500443 -3.08973 0
M  V30 2847 C 284.847 0.496297 -4.55303 0
M  V30 2848 N 286.338 0.557151 -4.59837 0
M  V30 2849 C 287.073 0.575726 -5.70502 0
M  V30 2850 N 286.569 0.550714 -6.90608 0
M  V30 2851 N 288.362 0.620277 -5.58667 0
M  V30 2852 H 280.513 -0.788673 -1.97215 0
M  V30 2853 H 282.776 -0.293188 -0.901524 0
M  V30 2854 H 282.482 -0.509659 -3.47988 0
M  V30 2855 H 282.356 1.2386 -3.56284 0
M  V30 2856 H 284.743 1.41886 -2.58751 0
M  V30 2857 H 284.824 -0.347894 -2.53423 0
M  V30 2858 H 284.468 -0.418162 -5.06176 0
M  V30 2859 H 284.398 1.3618 -5.08687 0
M  V30 2860 H 286.889 0.581816 -3.73394 0
M  V30 2861 H 287.202 0.568075 -7.70709 0
M  V30 2862 H 285.547 0.517816 -6.93068 0
M  V30 2863 H 288.738 0.637322 -4.63741 0
M  V30 2864 H 288.911 0.631283 -6.44918 0
M  V30 2865 N 282.317 1.53212 0.369288 0
M  V30 2866 C 283.247 1.82365 1.45826 0
M  V30 2867 C 284.228 0.676907 1.56051 0
M  V30 2868 O 285.413 0.926401 1.70679 0
M  V30 2869 C 282.543 2.01023 2.83208 0
M  V30 2870 C 281.497 3.1678 2.8781 0
M  V30 2871 C 280.823 3.20724 4.27832 0
M  V30 2872 C 282.123 4.55447 2.55667 0
M  V30 2873 H 283.817 2.73559 1.21678 0
M  V30 2874 H 281.363 1.3163 0.583911 0
M  V30 2875 H 283.316 2.20001 3.59413 0
M  V30 2876 H 282.04 1.06536 3.08736 0
M  V30 2877 H 280.699 2.97616 2.14056 0
M  V30 2878 H 280.347 2.23882 4.50429 0
M  V30 2879 H 280.047 3.98496 4.31827 0
M  V30 2880 H 281.571 3.41881 5.05915 0
M  V30 2881 H 282.985 4.74611 3.21586 0
M  V30 2882 H 281.382 5.35432 2.70984 0
M  V30 2883 H 282.452 4.60812 1.5093 0
M  V30 2884 N 283.795 -0.628877 1.44509 0
M  V30 2885 C 285.043 -1.38565 1.4712 0
M  V30 2886 C 285.364 -1.94712 0.105899 0
M  V30 2887 O 284.634 -1.75912 -0.862079 0
M  V30 2888 H 283.214 -0.514333 0.541729 0
M  V30 2889 H 285.876 -0.740018 1.80305 0
M  V30 2890 H 284.972 -2.21583 2.19789 0
M  V30 2891 N 285.273 -1.31445 -0.869486 0
M  V30 2892 C 286.236 -1.19094 -1.9583 0
M  V30 2893 C 287.236 -0.117906 -1.60367 0
M  V30 2894 O 288.426 -0.367208 -1.70286 0
M  V30 2895 C 285.558 -0.828165 -3.30688 0
M  V30 2896 H 286.751 -2.15842 -2.08212 0
M  V30 2897 H 284.304 -1.15063 -1.05784 0
M  V30 2898 H 285.039 0.138142 -3.24006 0
M  V30 2899 H 284.824 -1.6038 -3.578 0
M  V30 2900 H 286.314 -0.765658 -4.10521 0
M  V30 2901 N 286.751 1.08385 -1.14413 0
M  V30 2902 C 287.681 2.17321 -0.854044 0
M  V30 2903 C 288.662 1.69024 0.191049 0
M  V30 2904 O 289.847 1.94141 0.0476779 0
M  V30 2905 C 286.977 3.45719 -0.330983 0
M  V30 2906 C 285.931 4.07409 -1.31155 0
M  V30 2907 C 285.257 5.30762 -0.64778 0
M  V30 2908 C 286.557 4.48665 -2.67388 0
M  V30 2909 H 288.251 2.41845 -1.76498 0
M  V30 2910 H 285.797 1.16233 -0.850051 0
M  V30 2911 H 287.75 4.21241 -0.115645 0
M  V30 2912 H 286.474 3.2075 0.615381 0
M  V30 2913 H 285.133 3.33919 -1.51306 0
M  V30 2914 H 284.781 5.02078 0.304398 0
M  V30 2915 H 284.481 5.72992 -1.30207 0
M  V30 2916 H 286.005 6.08998 -0.441972 0
M  V30 2917 H 287.419 5.15364 -2.51143 0
M  V30 2918 H 285.816 5.01814 -3.29093 0
M  V30 2919 H 286.886 3.60543 -3.24248 0
M  V30 2920 N 288.23 0.939286 1.26551 0
M  V30 2921 C 289.455 0.602008 1.98471 0
M  V30 2922 C 289.88 -0.815624 1.69497 0
M  V30 2923 O 289.238 -1.54912 0.941905 0
M  V30 2924 C 289.286 0.848407 3.50477 0
M  V30 2925 O 288.39 -0.0804009 4.12322 0
M  V30 2926 H 287.731 0.23049 0.622712 0
M  V30 2927 H 290.261 1.2617 1.61066 0
M  V30 2928 H 290.271 0.768553 4.00696 0
M  V30 2929 H 288.946 1.88171 3.70897 0
M  V30 2930 H 287.523 0.0503508 3.72866 0
M  V30 2931 N 289.708 -1.40897 0.706093 0
M  V30 2932 C 290.671 -2.29131 0.0562841 0
M  V30 2933 C 291.671 -1.44901 -0.697166 0
M  V30 2934 O 292.861 -1.65926 -0.530484 0
M  V30 2935 C 289.993 -3.27957 -0.93043 0
M  V30 2936 H 291.186 -2.88091 0.833284 0
M  V30 2937 H 288.739 -1.4906 0.470192 0
M  V30 2938 H 289.474 -2.73997 -1.73482 0
M  V30 2939 H 289.259 -3.90124 -0.393166 0
M  V30 2940 H 290.749 -3.94049 -1.38256 0
M  V30 2941 N 291.186 -0.45159 -1.50991 0
M  V30 2942 C 292.434 0.109857 -2.01801 0
M  V30 2943 C 292.755 1.41958 -1.3369 0
M  V30 2944 O 292.025 1.9003 -0.475951 0
M  V30 2945 H 290.605 0.0435884 -0.745727 0
M  V30 2946 H 293.267 -0.597557 -1.85514 0
M  V30 2947 H 292.363 0.275489 -3.10882 0
M  V30 2948 N 292.664 1.56529 -0.183458 0
M  V30 2949 C 293.941 1.88959 0.50536 0
M  V30 2950 C 294.321 1.09523 1.80466 0
M  V30 2951 O 293.669 0.19278 2.27685 0
M  V30 2952 C 293.879 3.41162 0.73547 0
M  V30 2953 C 295.227 4.11155 1.06005 0
M  V30 2954 O 296.251 3.46548 0.823594 0
M  V30 2955 O 295.11 5.25318 1.50675 0
M  V30 2956 H 292.204 0.78441 0.261973 0
M  V30 2957 H 294.75 1.68231 -0.222802 0
M  V30 2958 H 293.522 3.90874 -0.182561 0
M  V30 2959 H 293.145 3.67543 1.51651 0
M  V30 2960 N 294.142 -0.090211 1.57342 0
M  V30 2961 C 295.089 -1.10909 2.02405 0
M  V30 2962 C 296.059 -1.39523 0.901252 0
M  V30 2963 O 297.244 -1.50903 1.1676 0
M  V30 2964 C 294.384 -2.42277 2.45755 0
M  V30 2965 C 293.497 -2.20352 3.71576 0
M  V30 2966 C 292.632 -3.45154 4.03785 0
M  V30 2967 C 291.671 -3.18512 5.22701 0
M  V30 2968 N 290.808 -4.35593 5.50639 0
M  V30 2969 H 295.648 -0.71782 2.89225 0
M  V30 2970 H 293.185 -0.342901 1.43048 0
M  V30 2971 H 295.143 -3.18951 2.68935 0
M  V30 2972 H 293.773 -2.79242 1.61938 0
M  V30 2973 H 292.825 -1.34458 3.55844 0
M  V30 2974 H 294.137 -1.96661 4.58395 0
M  V30 2975 H 293.291 -4.30233 4.27767 0
M  V30 2976 H 292.03 -3.71904 3.15498 0
M  V30 2977 H 291.035 -2.31827 4.98534 0
M  V30 2978 H 292.26 -2.93103 6.12591 0
M  V30 2979 H 290.206 -4.6241 4.6531 0
M  V30 2980 H 290.123 -4.1511 6.31838 0
M  V30 2981 H 291.391 -5.21723 5.7916 0
M  V30 2982 N 295.62 -1.53406 -0.361157 0
M  V30 2983 C 296.868 -1.69467 -1.10115 0
M  V30 2984 C 297.189 -0.451352 -1.89705 0
M  V30 2985 O 296.459 0.534636 -1.88463 0
M  V30 2986 H 295.039 -0.624749 -0.409508 0
M  V30 2987 H 297.701 -1.90609 -0.406699 0
M  V30 2988 H 296.797 -2.55774 -1.78847 0
M  V30 2989 N 297.098 0.621204 -1.44841 0
M  V30 2990 C 298.514 0.94048 -1.28946 0
M  V30 2991 C 298.714 2.00154 -0.23249 0
M  V30 2992 O 297.77 2.49651 0.378237 0
M  V30 2993 C 299.083 1.39433 -2.66419 0
M  V30 2994 C 300.631 1.50927 -2.74208 0
M  V30 2995 C 301.106 1.99692 -4.12174 0
M  V30 2996 N 302.597 2.06947 -4.144 0
M  V30 2997 C 303.332 2.45871 -5.1801 0
M  V30 2998 N 302.828 2.83862 -6.31977 0
M  V30 2999 N 304.621 2.46092 -5.05366 0
M  V30 3000 H 296.772 -0.0803548 -2.12248 0
M  V30 3001 H 299.035 0.0266913 -0.947624 0
M  V30 3002 H 298.741 0.688925 -3.44887 0
M  V30 3003 H 298.615 2.36347 -2.93973 0
M  V30 3004 H 301.002 2.20561 -1.96053 0
M  V30 3005 H 301.083 0.523627 -2.50383 0
M  V30 3006 H 300.727 1.30649 -4.90809 0
M  V30 3007 H 300.657 2.99146 -4.33381 0
M  V30 3008 H 303.148 1.80232 -3.32152 0
M  V30 3009 H 303.461 3.12405 -7.0684 0
M  V30 3010 H 301.806 2.8159 -6.35399 0
M  V30 3011 H 304.997 2.1581 -4.15384 0
M  V30 3012 H 305.17 2.76102 -5.86235 0
M  V30 3013 N 298.576 1.31904 0.862503 0
M  V30 3014 C 299.992 1.10724 1.14945 0
M  V30 3015 C 300.192 -0.117421 2.01158 0
M  V30 3016 O 299.248 -0.804595 2.39338 0
M  V30 3017 C 300.561 2.38267 1.83437 0
M  V30 3018 C 302.109 2.43949 1.96106 0
M  V30 3019 C 302.584 3.71394 2.68013 0
M  V30 3020 N 304.075 3.72331 2.75543 0
M  V30 3021 C 304.81 4.67641 3.31812 0
M  V30 3022 N 304.306 5.73313 3.88953 0
M  V30 3023 N 306.099 4.5515 3.29841 0
M  V30 3024 H 298.25 2.10436 0.288191 0
M  V30 3025 H 300.513 0.928705 0.190292 0
M  V30 3026 H 300.219 3.27759 1.27542 0
M  V30 3027 H 300.093 2.48633 2.83657 0
M  V30 3028 H 302.48 1.54922 2.51164 0
M  V30 3029 H 302.561 2.37543 0.949059 0
M  V30 3030 H 302.205 4.60791 2.13621 0
M  V30 3031 H 302.135 3.75069 3.69636 0
M  V30 3032 H 304.626 2.95947 2.34997 0
M  V30 3033 H 304.939 6.42107 4.30022 0
M  V30 3034 H 303.284 5.77077 3.87308 0
M  V30 3035 H 306.475 3.71766 2.84443 0
M  V30 3036 H 306.648 5.29604 3.73394 0
M  V30 3037 N 300.054 -1.07777 1.14986 0
M  V30 3038 C 301.017 -2.13041 0.845358 0
M  V30 3039 C 302.017 -1.60071 -0.152931 0
M  V30 3040 O 303.207 -1.74033 0.0761879 0
M  V30 3041 C 300.339 -3.39896 0.261383 0
M  V30 3042 H 301.532 -2.41485 1.77834 0
M  V30 3043 H 299.085 -1.23595 0.956757 0
M  V30 3044 H 299.82 -3.17091 -0.68 0
M  V30 3045 H 299.605 -3.79642 0.980514 0
M  V30 3046 H 301.095 -4.17548 0.0657687 0
M  V30 3047 N 301.532 -0.945985 -1.26051 0
M  V30 3048 C 302.462 -0.477172 -2.28572 0
M  V30 3049 C 303.443 0.472032 -1.63419 0
M  V30 3050 O 304.628 0.372853 -1.90587 0
M  V30 3051 C 301.758 0.253975 -3.4637 0
M  V30 3052 C 300.712 -0.609135 -4.23643 0
M  V30 3053 C 300.038 0.252252 -5.34105 0
M  V30 3054 C 301.338 -1.8829 -4.8718 0
M  V30 3055 H 303.032 -1.33402 -2.68038 0
M  V30 3056 H 300.578 -0.642904 -1.28852 0
M  V30 3057 H 302.531 0.593016 -4.17207 0
M  V30 3058 H 301.255 1.145 -3.05871 0
M  V30 3059 H 299.914 -0.931138 -3.54578 0
M  V30 3060 H 299.562 1.14278 -4.89846 0
M  V30 3061 H 299.262 -0.32188 -5.86718 0
M  V30 3062 H 300.786 0.586454 -6.07777 0
M  V30 3063 H 302.2 -1.61081 -5.50205 0
M  V30 3064 H 300.597 -2.40199 -5.49931 0
M  V30 3065 H 301.667 -2.59134 -4.09851 0
M  V30 3066 N 303.011 1.40521 -0.713556 0
M  V30 3067 C 304.422 1.83853 -0.324807 0
M  V30 3068 C 304.773 1.59667 1.14021 0
M  V30 3069 O 303.898 1.07649 1.87725 0
M  V30 3070 C 304.493 3.33751 -0.582746 0
M  V30 3071 C 303.052 3.75584 -0.247727 0
M  V30 3072 C 302.199 2.63753 -0.856121 0
M  V30 3073 H 305.15 1.29817 -0.91286 0
M  V30 3074 H 305.171 3.80194 0.152682 0
M  V30 3075 H 304.683 3.51322 -1.64908 0
M  V30 3076 H 302.784 3.63608 0.813624 0
M  V30 3077 H 302.897 4.7373 -0.715307 0
M  V30 3078 H 301.261 2.53108 -0.28432 0
M  V30 3079 H 302.044 2.84137 -1.92668 0
M  V30 3080 N 304.489 0.459591 1.5075 0
M  V30 3081 C 305.735 -0.0994966 2.02556 0
M  V30 3082 C 306.068 -1.40399 1.3417 0
M  V30 3083 O 305.343 -1.88892 0.463683 0
M  V30 3084 C 305.626 -0.295242 3.58888 0
M  V30 3085 C 305.479 1.02947 4.37861 0
M  V30 3086 C 306.798 -1.05502 4.27267 0
M  V30 3087 H 303.917 -0.034686 0.736183 0
M  V30 3088 H 306.559 0.602938 1.8018 0
M  V30 3089 H 304.709 -0.893563 3.78084 0
M  V30 3090 H 306.381 1.66348 4.30263 0
M  V30 3091 H 304.624 1.62885 4.02058 0
M  V30 3092 H 305.295 0.846281 5.45474 0
M  V30 3093 H 307.771 -0.547993 4.12476 0
M  V30 3094 H 306.647 -1.16077 5.36486 0
M  V30 3095 H 306.908 -2.08875 3.89645 0
M  V30 3096 N 305.967 -1.56429 0.191757 0
M  V30 3097 C 306.897 -2.21937 -0.725696 0
M  V30 3098 C 307.878 -1.1814 -1.2238 0
M  V30 3099 O 309.063 -1.46636 -1.27325 0
M  V30 3100 C 306.193 -2.87611 -1.94672 0
M  V30 3101 C 305.147 -3.97623 -1.58366 0
M  V30 3102 C 304.473 -4.50446 -2.88102 0
M  V30 3103 C 305.773 -5.16197 -0.796133 0
M  V30 3104 H 307.467 -2.98861 -0.179606 0
M  V30 3105 H 305.013 -1.43749 -0.0849464 0
M  V30 3106 H 306.966 -3.3212 -2.59373 0
M  V30 3107 H 305.69 -2.08087 -2.51728 0
M  V30 3108 H 304.349 -3.53801 -0.960247 0
M  V30 3109 H 303.997 -3.67688 -3.43241 0
M  V30 3110 H 303.697 -5.24675 -2.64556 0
M  V30 3111 H 305.221 -4.97654 -3.53798 0
M  V30 3112 H 306.635 -5.57271 -1.34618 0
M  V30 3113 H 305.032 -5.96471 -0.658928 0
M  V30 3114 H 306.102 -4.84473 0.203478 0
M  V30 3115 N 307.445 0.0818655 -1.57387 0
M  V30 3116 C 308.722 0.815343 -1.77796 0
M  V30 3117 C 309.102 1.96289 -0.77679 0
M  V30 3118 O 308.45 2.27691 0.192106 0
M  V30 3119 C 308.66 1.29765 -3.23978 0
M  V30 3120 C 310.008 1.7351 -3.8753 0
M  V30 3121 O 311.032 1.39356 -3.27808 0
M  V30 3122 O 309.891 2.36708 -4.92576 0
M  V30 3123 H 306.985 0.389914 -0.729312 0
M  V30 3124 H 309.531 0.0627213 -1.69584 0
M  V30 3125 H 308.303 0.47608 -3.88393 0
M  V30 3126 H 307.926 2.11189 -3.36875 0
M  V30 3127 N 308.923 1.53595 0.353017 0
M  V30 3128 C 309.87 1.80919 1.43308 0
M  V30 3129 C 310.84 0.654288 1.5267 0
M  V30 3130 O 312.025 0.897759 1.6836 0
M  V30 3131 C 309.165 2.01605 2.80089 0
M  V30 3132 C 308.278 3.29321 2.79593 0
M  V30 3133 C 307.413 3.40125 4.0803 0
M  V30 3134 C 306.452 4.61826 4.01725 0
M  V30 3135 N 305.589 4.69716 5.21834 0
M  V30 3136 H 310.429 2.73074 1.19308 0
M  V30 3137 H 307.966 1.35263 0.578131 0
M  V30 3138 H 309.924 2.11586 3.59565 0
M  V30 3139 H 308.554 1.12772 3.0246 0
M  V30 3140 H 307.606 3.28229 1.92276 0
M  V30 3141 H 308.918 4.18884 2.70809 0
M  V30 3142 H 308.072 3.49488 4.95927 0
M  V30 3143 H 306.811 2.48601 4.19582 0
M  V30 3144 H 305.816 4.52552 3.12213 0
M  V30 3145 H 307.041 5.54705 3.91764 0
M  V30 3146 H 304.987 3.81097 5.33948 0
M  V30 3147 H 304.904 5.53202 5.1527 0
M  V30 3148 H 306.172 4.83376 6.11529 0
M  V30 3149 N 310.401 -0.613514 1.45168 0
M  V30 3150 C 311.631 -1.39743 1.52169 0
M  V30 3151 C 312.039 -1.88596 0.151086 0
M  V30 3152 O 311.382 -1.6251 -0.856521 0
M  V30 3153 C 311.444 -2.64035 2.43979 0
M  V30 3154 C 311.108 -2.36861 3.90827 0
M  V30 3155 C 312.105 -1.97591 4.80889 0
M  V30 3156 C 309.79 -2.49956 4.35692 0
M  V30 3157 C 311.784 -1.71768 6.1382 0
M  V30 3158 C 309.471 -2.23747 5.68665 0
M  V30 3159 C 310.469 -1.84714 6.57548 0
M  V30 3160 O 310.157 -1.58809 7.88058 0
M  V30 3161 H 309.889 -0.434382 0.517966 0
M  V30 3162 H 312.443 -0.75587 1.90986 0
M  V30 3163 H 310.673 -3.3089 2.00122 0
M  V30 3164 H 312.362 -3.26069 2.41731 0
M  V30 3165 H 313.128 -1.87015 4.47493 0
M  V30 3166 H 309.007 -2.79305 3.66756 0
M  V30 3167 H 312.551 -1.41227 6.83155 0
M  V30 3168 H 308.448 -2.33938 6.01617 0
M  V30 3169 H 309.216 -1.7291 8.00028 0
M  V30 3170 N 311.879 -1.3236 -0.855495 0
M  V30 3171 C 312.842 -1.21164 -1.94556 0
M  V30 3172 C 313.842 -0.134908 -1.60233 0
M  V30 3173 O 315.032 -0.385249 -1.69887 0
M  V30 3174 C 312.164 -0.863192 -3.29791 0
M  V30 3175 H 313.357 -2.18038 -2.05911 0
M  V30 3176 H 310.91 -1.16179 -1.04557 0
M  V30 3177 H 311.645 0.103769 -3.24134 0
M  V30 3178 H 311.43 -1.64166 -3.56078 0
M  V30 3179 H 312.92 -0.809156 -4.09686 0
M  V30 3180 N 313.357 1.07166 -1.15556 0
M  V30 3181 C 314.267 2.17947 -0.868116 0
M  V30 3182 C 315.283 1.73297 0.156297 0
M  V30 3183 O 316.459 2.01392 -0.0182327 0
M  V30 3184 C 313.524 3.44789 -0.36355 0
M  V30 3185 C 312.585 4.03996 -1.45209 0
M  V30 3186 C 311.818 5.24783 -0.971508 0
M  V30 3187 O 312.041 5.70109 0.182194 0
M  V30 3188 O 310.975 5.75715 -1.75603 0
M  V30 3189 H 314.801 2.4503 -1.79427 0
M  V30 3190 H 312.386 1.16539 -0.934824 0
M  V30 3191 H 314.268 4.21307 -0.0887113 0
M  V30 3192 H 312.943 3.19253 0.534708 0
M  V30 3193 H 311.85 3.29009 -1.78056 0
M  V30 3194 H 313.183 4.33808 -2.32533 0
M  V30 3195 N 314.835 0.952656 1.25548 0
M  V30 3196 C 316.06 0.623025 1.97821 0
M  V30 3197 C 316.485 -0.7976 1.70352 0
M  V30 3198 O 315.843 -1.53905 0.958283 0
M  V30 3199 C 315.891 0.885532 3.49558 0
M  V30 3200 O 314.995 -0.0366641 4.12384 0
M  V30 3201 H 314.336 0.237082 0.620232 0
M  V30 3202 H 316.866 1.27871 1.59719 0
M  V30 3203 H 316.876 0.811009 3.99858 0
M  V30 3204 H 315.551 1.92094 3.6888 0
M  V30 3205 H 314.128 0.0898954 3.72792 0
M  V30 3206 N 316.313 -1.40141 0.720998 0
M  V30 3207 C 317.562 -2.0002 0.259804 0
M  V30 3208 C 317.875 -1.57839 -1.15526 0
M  V30 3209 O 319.081 -2.10455 -1.71525 0
M  V30 3210 C 317.537 -3.57516 0.413566 0
M  V30 3211 C 317.145 -4.08667 1.83562 0
M  V30 3212 C 318.889 -4.24498 0.0134387 0
M  V30 3213 C 316.796 -5.58686 1.93968 0
M  V30 3214 H 315.726 -0.748195 0.0933806 0
M  V30 3215 H 318.377 -1.60313 0.892866 0
M  V30 3216 H 316.759 -3.9495 -0.288169 0
M  V30 3217 H 317.933 -3.82598 2.56817 0
M  V30 3218 H 316.248 -3.543 2.1877 0
M  V30 3219 H 318.845 -5.34654 0.0703954 0
M  V30 3220 H 319.188 -4.03375 -1.02927 0
M  V30 3221 H 319.721 -3.92188 0.665815 0
M  V30 3222 H 316.46 -5.8467 2.96379 0
M  V30 3223 H 315.98 -5.86602 1.25131 0
M  V30 3224 H 317.659 -6.23875 1.71431 0
M  V30 3225 N 317.792 -0.46758 -1.50504 0
M  V30 3226 C 319.04 0.0884469 -2.01906 0
M  V30 3227 C 319.361 1.40532 -1.35188 0
M  V30 3228 O 318.631 1.89515 -0.496079 0
M  V30 3229 H 317.211 0.0356765 -0.746148 0
M  V30 3230 H 319.873 -0.6172 -1.84869 0
M  V30 3231 H 318.969 0.2425 -3.11156 0
M  V30 3232 N 319.27 1.56325 -0.20005 0
M  V30 3233 C 320.2 2.22318 0.713916 0
M  V30 3234 C 321.181 1.18788 1.21752 0
M  V30 3235 O 322.366 1.47309 1.26545 0
M  V30 3236 C 319.496 2.88639 1.93144 0
M  V30 3237 C 318.45 3.98457 1.56255 0
M  V30 3238 C 317.776 4.51967 2.85709 0
M  V30 3239 C 319.076 5.16612 0.768747 0
M  V30 3240 H 320.77 2.98952 0.163755 0
M  V30 3241 H 318.316 1.43792 0.0773219 0
M  V30 3242 H 320.269 3.33491 2.57608 0
M  V30 3243 H 318.993 2.09419 2.50621 0
M  V30 3244 H 317.652 3.54305 0.941471 0
M  V30 3245 H 317.3 3.69503 3.41287 0
M  V30 3246 H 317 5.26071 2.6177 0
M  V30 3247 H 318.524 4.99523 3.51154 0
M  V30 3248 H 319.938 5.57977 1.3166 0
M  V30 3249 H 318.335 5.96812 0.627286 0
M  V30 3250 H 319.405 4.84358 -0.229168 0
M  V30 3251 N 320.748 -0.0735177 1.57428 0
M  V30 3252 C 321.711 -1.07192 2.02589 0
M  V30 3253 C 322.711 -1.31695 0.922661 0
M  V30 3254 O 323.901 -1.27445 1.18758 0
M  V30 3255 C 321.033 -2.41599 2.40506 0
M  V30 3256 H 322.226 -0.682727 2.92025 0
M  V30 3257 H 319.779 -0.319193 1.53006 0
M  V30 3258 H 320.514 -2.85354 1.5409 0
M  V30 3259 H 320.299 -2.25156 3.21009 0
M  V30 3260 H 321.789 -3.13367 2.76027 0
M  V30 3261 N 322.226 -1.5378 -0.344866 0
M  V30 3262 C 323.473 -1.70963 -1.08526 0
M  V30 3263 C 323.801 -0.472126 -1.88683 0
M  V30 3264 O 323.056 0.546116 -1.87926 0
M  V30 3265 C 323.355 -2.92407 -2.05506 0
M  V30 3266 C 323.021 -4.28066 -1.41671 0
M  V30 3267 C 321.683 -4.64951 -1.2399 0
M  V30 3268 C 324.035 -5.12344 -0.956726 0
M  V30 3269 C 321.363 -5.83733 -0.589277 0
M  V30 3270 C 323.715 -6.3179 -0.320015 0
M  V30 3271 C 322.379 -6.67372 -0.130881 0
M  V30 3272 H 321.649 -0.625598 -0.397124 0
M  V30 3273 H 324.296 -1.87995 -0.36469 0
M  V30 3274 H 322.601 -2.69973 -2.8394 0
M  V30 3275 H 324.298 -3.02895 -2.62784 0
M  V30 3276 H 320.888 -3.99034 -1.56429 0
M  V30 3277 H 325.072 -4.8438 -1.08118 0
M  V30 3278 H 320.328 -6.09877 -0.431344 0
M  V30 3279 H 324.502 -6.96386 0.0445072 0
M  V30 3280 H 322.129 -7.59273 0.375318 0
M  V30 3281 N 323.704 0.605807 -1.45491 0
M  V30 3282 C 324.636 1.73031 -1.5031 0
M  V30 3283 C 325.649 1.57968 -0.393687 0
M  V30 3284 O 326.838 1.65817 -0.660839 0
M  V30 3285 C 323.938 3.11049 -1.34543 0
M  V30 3286 C 323.111 3.52334 -2.59189 0
M  V30 3287 C 322.17 4.69323 -2.37954 0
M  V30 3288 O 321.196 4.7635 -3.11575 0
M  V30 3289 N 322.398 5.62705 -1.4263 0
M  V30 3290 H 325.163 1.6936 -2.4726 0
M  V30 3291 H 322.724 0.79114 -1.41254 0
M  V30 3292 H 324.716 3.87071 -1.18144 0
M  V30 3293 H 323.286 3.09217 -0.458623 0
M  V30 3294 H 322.506 2.66256 -2.90691 0
M  V30 3295 H 323.794 3.76677 -3.42041 0
M  V30 3296 H 323.192 5.59744 -0.818758 0
M  V30 3297 H 321.749 6.38252 -1.32202 0
M  V30 3298 N 325.182 1.32811 0.848464 0
M  V30 3299 C 326.428 1.23907 1.60546 0
M  V30 3300 C 326.761 -0.197161 1.93197 0
M  V30 3301 O 326.036 -1.13596 1.5788 0
M  V30 3302 C 326.319 2.10489 2.92175 0
M  V30 3303 C 326.172 3.62522 2.66266 0
M  V30 3304 C 327.491 1.97075 3.93509 0
M  V30 3305 H 324.61 0.451459 0.58254 0
M  V30 3306 H 327.252 1.62818 0.979296 0
M  V30 3307 H 325.402 1.77434 3.45614 0
M  V30 3308 H 327.074 4.05821 2.19334 0
M  V30 3309 H 325.317 3.84879 2.00126 0
M  V30 3310 H 325.988 4.18437 3.6002 0
M  V30 3311 H 328.464 2.26045 3.49346 0
M  V30 3312 H 327.34 2.59923 4.83457 0
M  V30 3313 H 327.601 0.940186 4.31987 0
M  V30 3314 N 326.66 -1.06551 1.16123 0
M  V30 3315 C 327.592 -2.13908 0.823171 0
M  V30 3316 C 328.605 -1.61926 -0.16843 0
M  V30 3317 O 329.794 -1.78412 0.055962 0
M  V30 3318 C 326.894 -3.38283 0.204424 0
M  V30 3319 C 326.067 -4.19589 1.23548 0
M  V30 3320 C 325.126 -5.2233 0.637011 0
M  V30 3321 O 324.152 -5.54034 1.30516 0
M  V30 3322 N 325.354 -5.77621 -0.577474 0
M  V30 3323 H 328.119 -2.43508 1.74711 0
M  V30 3324 H 325.68 -1.2253 1.05821 0
M  V30 3325 H 327.672 -4.0416 -0.208909 0
M  V30 3326 H 326.242 -3.06329 -0.623012 0
M  V30 3327 H 325.462 -3.49406 1.82507 0
M  V30 3328 H 326.75 -4.70718 1.93137 0
M  V30 3329 H 326.148 -5.54125 -1.13853 0
M  V30 3330 H 324.705 -6.45087 -0.933053 0
M  V30 3331 N 328.138 -0.959301 -1.25041 0
M  V30 3332 C 329.415 -0.533805 -1.88175 0
M  V30 3333 C 329.795 0.988994 -1.865 0
M  V30 3334 O 329.143 1.85677 -1.33177 0
M  V30 3335 C 329.353 -1.11575 -3.30684 0
M  V30 3336 C 330.701 -1.19548 -4.07423 0
M  V30 3337 O 331.725 -1.06765 -3.39823 0
M  V30 3338 O 330.584 -1.39656 -5.28354 0
M  V30 3339 H 327.678 -0.176772 -0.807887 0
M  V30 3340 H 330.224 -1.05303 -1.33076 0
M  V30 3341 H 328.996 -2.15884 -3.26358 0
M  V30 3342 H 328.619 -0.580059 -3.93346 0
M  V30 3343 N 329.616 1.39756 -0.72842 0
M  V30 3344 C 330.893 1.94574 -0.200079 0
M  V30 3345 C 331.273 1.66569 1.29684 0
M  V30 3346 O 330.621 0.990326 2.05924 0
M  V30 3347 C 330.831 3.45004 -0.526608 0
M  V30 3348 C 332.179 4.21965 -0.472318 0
M  V30 3349 O 333.203 3.53173 -0.463413 0
M  V30 3350 O 332.062 5.44552 -0.461075 0
M  V30 3351 H 329.156 0.826289 -0.0342851 0
M  V30 3352 H 331.702 1.49293 -0.806829 0
M  V30 3353 H 330.474 3.58796 -1.56144 0
M  V30 3354 H 330.097 3.97449 0.109449 0
M  V30 3355 N 331.094 0.475555 1.50254 0
M  V30 3356 C 332.343 -0.0795996 2.01543 0
M  V30 3357 C 332.656 -1.4038 1.36209 0
M  V30 3358 O 333.862 -2.04415 1.7868 0
M  V30 3359 C 332.318 -0.192363 3.59386 0
M  V30 3360 C 331.926 1.12367 4.33679 0
M  V30 3361 C 333.67 -0.699238 4.18701 0
M  V30 3362 C 331.577 0.974453 5.83317 0
M  V30 3363 H 330.507 -0.0335228 0.753254 0
M  V30 3364 H 333.158 0.611128 1.73025 0
M  V30 3365 H 331.54 -0.946974 3.84511 0
M  V30 3366 H 332.714 1.88958 4.20276 0
M  V30 3367 H 331.029 1.562 3.85993 0
M  V30 3368 H 333.626 -0.827978 5.28251 0
M  V30 3369 H 333.969 -1.69171 3.80377 0
M  V30 3370 H 334.502 -0.00188807 3.978 0
M  V30 3371 H 331.241 1.94042 6.26121 0
M  V30 3372 H 330.761 0.248998 5.99283 0
M  V30 3373 H 332.44 0.642867 6.43798 0
M  V30 3374 N 332.573 -1.56217 0.208337 0
M  V30 3375 C 333.503 -2.22694 -0.702116 0
M  V30 3376 C 334.484 -1.19432 -1.2112 0
M  V30 3377 O 335.669 -1.47978 -1.25762 0
M  V30 3378 C 332.799 -2.8966 -1.9161 0
M  V30 3379 C 331.753 -3.9928 -1.5414 0
M  V30 3380 C 331.079 -4.53476 -2.83308 0
M  V30 3381 C 332.379 -5.17012 -0.741339 0
M  V30 3382 H 334.073 -2.99034 -0.147898 0
M  V30 3383 H 331.619 -1.43831 -0.0696951 0
M  V30 3384 H 333.572 -3.34852 -2.55836 0
M  V30 3385 H 332.296 -2.10746 -2.49507 0
M  V30 3386 H 330.955 -3.54799 -0.922668 0
M  V30 3387 H 330.603 -3.71308 -3.39322 0
M  V30 3388 H 330.303 -5.27451 -2.58976 0
M  V30 3389 H 331.827 -5.01378 -3.485 0
M  V30 3390 H 333.241 -5.58667 -1.28699 0
M  V30 3391 H 331.638 -5.97137 -0.595627 0
M  V30 3392 H 332.708 -4.8423 0.254851 0
M  V30 3393 N 334.051 0.0651679 -1.57465 0
M  V30 3394 C 335.328 0.79644 -1.78651 0
M  V30 3395 C 335.708 1.95454 -0.797566 0
M  V30 3396 O 335.056 2.27882 0.167946 0
M  V30 3397 C 335.266 1.26322 -3.25337 0
M  V30 3398 C 336.614 1.6939 -3.89348 0
M  V30 3399 O 337.638 1.35872 -3.29268 0
M  V30 3400 O 336.497 2.31471 -4.95059 0
M  V30 3401 H 333.591 0.382157 -0.733407 0
M  V30 3402 H 336.137 0.0447311 -1.69641 0
M  V30 3403 H 334.909 0.434859 -3.88876 0
M  V30 3404 H 334.532 2.07604 -3.39096 0
M  V30 3405 N 335.529 1.53961 0.336706 0
M  V30 3406 C 336.775 1.7179 1.07777 0
M  V30 3407 C 337.108 0.483263 1.88091 0
M  V30 3408 O 336.383 -0.519747 1.87427 0
M  V30 3409 C 336.666 2.98558 2.01334 0
M  V30 3410 C 336.519 4.32245 1.24437 0
M  V30 3411 C 337.838 3.21023 3.01052 0
M  V30 3412 H 334.957 0.625089 0.390426 0
M  V30 3413 H 337.599 1.86641 0.35567 0
M  V30 3414 H 335.749 2.86028 2.62908 0
M  V30 3415 H 337.421 4.56637 0.654243 0
M  V30 3416 H 335.664 4.30344 0.546458 0
M  V30 3417 H 336.335 5.17137 1.93063 0
M  V30 3418 H 338.811 3.32929 2.49595 0
M  V30 3419 H 337.687 4.11104 3.6371 0
M  V30 3420 H 337.948 2.37637 3.72802 0
M  V30 3421 N 337.007 -0.598083 1.45811 0
M  V30 3422 C 338.253 -1.35882 1.50545 0
M  V30 3423 C 338.586 -1.93616 0.150445 0
M  V30 3424 O 337.861 -1.75604 -0.83628 0
M  V30 3425 C 338.144 -2.49966 2.59208 0
M  V30 3426 C 337.997 -1.97367 4.04186 0
M  V30 3427 C 339.316 -3.52068 2.64076 0
M  V30 3428 H 336.435 -0.492717 0.548087 0
M  V30 3429 H 339.077 -0.673319 1.77669 0
M  V30 3430 H 337.227 -3.08443 2.3621 0
M  V30 3431 H 338.899 -1.43466 4.38423 0
M  V30 3432 H 337.142 -1.283 4.14393 0
M  V30 3433 H 337.813 -2.79649 4.75921 0
M  V30 3434 H 340.289 -3.03448 2.84708 0
M  V30 3435 H 339.165 -4.2937 3.41954 0
M  V30 3436 H 339.426 -4.08304 1.69531 0
M  V30 3437 N 338.485 -1.33259 -0.841409 0
M  V30 3438 C 339.733 -1.24326 -1.59334 0
M  V30 3439 C 340.054 0.191564 -1.94057 0
M  V30 3440 O 339.324 1.11967 -1.60749 0
M  V30 3441 H 337.904 -0.457174 -0.590763 0
M  V30 3442 H 340.566 -1.66947 -1.00571 0
M  V30 3443 H 339.662 -1.8352 -2.52442 0
M  V30 3444 N 339.963 1.05934 -1.16686 0
M  V30 3445 C 341.24 1.75643 -0.860747 0
M  V30 3446 C 341.62 2.01144 0.640641 0
M  V30 3447 O 340.968 1.64147 1.58959 0
M  V30 3448 C 341.178 3.05493 -1.68745 0
M  V30 3449 C 342.526 3.79581 -1.90271 0
M  V30 3450 O 343.55 3.15344 -1.65641 0
M  V30 3451 O 342.409 4.9499 -2.31618 0
M  V30 3452 H 339.503 0.763426 -0.317977 0
M  V30 3453 H 342.049 1.1217 -1.27342 0
M  V30 3454 H 340.821 2.8264 -2.70611 0
M  V30 3455 H 340.444 3.76702 -1.27206 0
M  V30 3456 N 341.441 0.965919 1.2453 0
M  V30 3457 C 342.669 0.644385 1.96609 0
M  V30 3458 C 343.084 -0.785823 1.71669 0
M  V30 3459 O 342.441 -1.52703 0.999399 0
M  V30 3460 C 342.492 0.907375 3.49927 0
M  V30 3461 O 342.213 2.28136 3.74013 0
M  V30 3462 C 343.714 0.599784 4.39224 0
M  V30 3463 H 340.934 0.240588 0.626385 0
M  V30 3464 H 343.478 1.29337 1.58405 0
M  V30 3465 H 341.633 0.304631 3.862 0
M  V30 3466 H 342.047 2.36002 4.68405 0
M  V30 3467 H 343.521 0.834263 5.45659 0
M  V30 3468 H 343.998 -0.465921 4.36722 0
M  V30 3469 H 344.604 1.18235 4.08535 0
M  V30 3470 N 342.919 -1.39368 0.735821 0
M  V30 3471 C 343.882 -2.2896 0.104874 0
M  V30 3472 C 344.882 -1.46347 -0.666274 0
M  V30 3473 O 346.072 -1.67014 -0.49517 0
M  V30 3474 C 343.204 -3.29857 -0.860656 0
M  V30 3475 H 344.397 -2.86259 0.894205 0
M  V30 3476 H 341.95 -1.48029 0.501704 0
M  V30 3477 H 342.685 -2.77615 -1.67631 0
M  V30 3478 H 342.47 -3.9087 -0.310327 0
M  V30 3479 H 343.96 -3.96893 -1.29867 0
M  V30 3480 N 344.397 -0.483516 -1.5 0
M  V30 3481 C 345.625 0.0644831 -2.06799 0
M  V30 3482 C 346.04 1.32399 -1.34596 0
M  V30 3483 O 345.397 1.77626 -0.418946 0
M  V30 3484 C 345.448 0.339927 -3.59898 0
M  V30 3485 O 345.169 -0.869635 -4.29382 0
M  V30 3486 C 346.67 0.933515 -4.33359 0
M  V30 3487 H 343.89 -0.0126333 -0.670881 0
M  V30 3488 H 346.434 -0.675864 -1.93009 0
M  V30 3489 H 344.589 1.03022 -3.7345 0
M  V30 3490 H 345.003 -0.62179 -5.20801 0
M  V30 3491 H 346.477 1.07593 -5.41413 0
M  V30 3492 H 346.954 1.92685 -3.94676 0
M  V30 3493 H 347.56 0.281221 -4.24369 0
M  V30 3494 N 345.875 1.56104 -0.216619 0
M  V30 3495 C 346.805 2.23063 0.690296 0
M  V30 3496 C 347.786 1.20072 1.20485 0
M  V30 3497 O 348.971 1.48643 1.24976 0
M  V30 3498 C 346.101 2.90672 1.90072 0
M  V30 3499 C 345.055 4.00092 1.5202 0
M  V30 3500 C 344.381 4.54972 2.80899 0
M  V30 3501 C 345.681 5.17398 0.71391 0
M  V30 3502 H 347.375 2.99109 0.132038 0
M  V30 3503 H 344.921 1.43866 0.0620664 0
M  V30 3504 H 346.874 3.36204 2.54057 0
M  V30 3505 H 345.598 2.12066 2.48386 0
M  V30 3506 H 344.257 3.55283 0.903839 0
M  V30 3507 H 343.905 3.73102 3.37348 0
M  V30 3508 H 343.605 5.28817 2.56176 0
M  V30 3509 H 345.129 5.0322 3.45836 0
M  V30 3510 H 346.543 5.59342 1.25735 0
M  V30 3511 H 344.94 5.97444 0.563951 0
M  V30 3512 H 346.01 4.84088 -0.280527 0
M  V30 3513 N 347.353 -0.0568162 1.57498 0
M  V30 3514 C 348.601 -0.751617 1.87604 0
M  V30 3515 C 348.922 -1.77351 0.81066 0
M  V30 3516 O 348.192 -1.95254 -0.159018 0
M  V30 3517 H 346.772 -0.280583 0.692302 0
M  V30 3518 H 349.434 -0.0293483 1.94878 0
M  V30 3519 H 348.53 -1.25852 2.856 0
M  V30 3520 N 348.832 -1.54138 -0.328536 0
M  V30 3521 C 349.779 -1.83176 -1.40411 0
M  V30 3522 C 350.749 -0.678494 -1.5161 0
M  V30 3523 O 351.934 -0.92443 -1.6691 0
M  V30 3524 C 349.074 -2.06035 -2.76846 0
M  V30 3525 C 348.187 -3.33727 -2.74318 0
M  V30 3526 C 347.322 -3.46574 -4.02567 0
M  V30 3527 C 346.361 -4.68159 -3.94327 0
M  V30 3528 N 345.498 -4.77959 -5.14296 0
M  V30 3529 H 350.338 -2.74938 -1.14948 0
M  V30 3530 H 347.875 -1.36166 -0.556538 0
M  V30 3531 H 349.833 -2.1728 -3.56153 0
M  V30 3532 H 348.463 -1.1757 -3.00628 0
M  V30 3533 H 347.515 -3.31246 -1.8703 0
M  V30 3534 H 348.827 -4.23139 -2.64111 0
M  V30 3535 H 347.981 -3.57333 -4.90304 0
M  V30 3536 H 346.72 -2.55245 -4.15574 0
M  V30 3537 H 345.725 -4.57461 -3.04974 0
M  V30 3538 H 346.95 -5.60868 -3.82889 0
M  V30 3539 H 344.896 -3.89544 -5.27818 0
M  V30 3540 H 344.813 -5.6133 -5.06404 0
M  V30 3541 H 346.081 -4.93044 -6.03761 0
M  V30 3542 N 350.31 0.590341 -1.46126 0
M  V30 3543 C 351.726 0.912917 -1.30912 0
M  V30 3544 C 351.926 1.99616 -0.274893 0
M  V30 3545 O 350.982 2.50397 0.325197 0
M  V30 3546 C 352.295 1.3375 -2.69317 0
M  V30 3547 C 353.843 1.45077 -2.77348 0
M  V30 3548 C 354.318 1.90904 -4.16317 0
M  V30 3549 N 355.809 1.9811 -4.18696 0
M  V30 3550 C 356.544 2.34828 -5.23109 0
M  V30 3551 N 356.04 2.70393 -6.37856 0
M  V30 3552 N 357.833 2.35317 -5.10473 0
M  V30 3553 H 349.984 -0.125358 -2.1203 0
M  V30 3554 H 352.247 0.00658481 -0.947977 0
M  V30 3555 H 351.953 0.615614 -3.4627 0
M  V30 3556 H 351.827 2.30058 -2.9892 0
M  V30 3557 H 354.214 2.16353 -2.00687 0
M  V30 3558 H 354.295 0.4704 -2.51438 0
M  V30 3559 H 353.939 1.20209 -4.9347 0
M  V30 3560 H 353.869 2.89886 -4.39629 0
M  V30 3561 H 356.36 1.73146 -3.359 0
M  V30 3562 H 356.673 2.97341 -7.13308 0
M  V30 3563 H 355.018 2.68048 -6.41229 0
M  V30 3564 H 358.209 2.0695 -4.19868 0
M  V30 3565 H 358.382 2.63605 -5.9196 0
M  V30 3566 N 351.788 1.33704 0.83433 0
M  V30 3567 C 352.72 1.20172 1.9517 0
M  V30 3568 C 353.733 0.131572 1.62267 0
M  V30 3569 O 354.922 0.382406 1.74356 0
M  V30 3570 C 352.022 0.821716 3.28787 0
M  V30 3571 C 351.195 1.98446 3.89792 0
M  V30 3572 C 350.254 1.58469 5.01771 0
M  V30 3573 O 349.28 2.29968 5.20676 0
M  V30 3574 N 350.482 0.492291 5.78409 0
M  V30 3575 H 353.247 2.16429 2.07313 0
M  V30 3576 H 350.808 1.26509 1.0103 0
M  V30 3577 H 352.8 0.536291 4.01131 0
M  V30 3578 H 351.37 -0.0503058 3.1256 0
M  V30 3579 H 350.59 2.43526 3.09982 0
M  V30 3580 H 351.878 2.76236 4.27283 0
M  V30 3581 H 351.276 -0.102349 5.65607 0
M  V30 3582 H 349.833 0.266555 6.51255 0
M  V30 3583 N 353.266 -1.05314 1.17247 0
M  V30 3584 C 354.514 -1.77941 0.958194 0
M  V30 3585 C 354.835 -1.88089 -0.514556 0
M  V30 3586 O 354.105 -1.39676 -1.37359 0
M  V30 3587 H 352.685 -0.659116 0.351533 0
M  V30 3588 H 355.347 -1.27166 1.47699 0
M  V30 3589 H 354.443 -2.79663 1.38546 0
M  V30 3590 N 354.744 -0.972509 -1.24016 0
M  V30 3591 C 355.707 -0.511403 -2.23422 0
M  V30 3592 C 356.707 0.394679 -1.55881 0
M  V30 3593 O 357.897 0.189469 -1.73167 0
M  V30 3594 C 355.029 0.258769 -3.39916 0
M  V30 3595 H 356.222 -1.39024 -2.6573 0
M  V30 3596 H 353.775 -0.757585 -1.36713 0
M  V30 3597 H 354.51 1.1545 -3.03054 0
M  V30 3598 H 354.295 -0.391522 -3.9014 0
M  V30 3599 H 355.785 0.570244 -4.13688 0
M  V30 3600 N 356.222 1.38976 -0.743202 0
M  V30 3601 C 357.499 1.94351 -0.220705 0
M  V30 3602 C 357.879 1.67935 1.2791 0
M  V30 3603 O 357.227 1.01211 2.04862 0
M  V30 3604 C 357.437 3.44426 -0.563171 0
M  V30 3605 C 358.785 4.2144 -0.517046 0
M  V30 3606 O 359.809 3.52661 -0.500846 0
M  V30 3607 O 358.668 5.44032 -0.518806 0
M  V30 3608 H 355.762 0.825879 -0.043047 0
M  V30 3609 H 358.308 1.48429 -0.822618 0
M  V30 3610 H 357.08 3.5712 -1.59941 0
M  V30 3611 H 356.703 3.97543 0.0672883 0
M  V30 3612 N 357.7 0.491464 1.49741 0
M  V30 3613 C 358.632 -0.328609 2.26832 0
M  V30 3614 C 359.645 -0.939113 1.32983 0
M  V30 3615 O 360.834 -0.824067 1.58339 0
M  V30 3616 C 357.934 -1.47675 3.05033 0
M  V30 3617 C 357.107 -0.975305 4.26388 0
M  V30 3618 C 356.166 -1.99991 4.86714 0
M  V30 3619 O 355.192 -1.57229 5.47054 0
M  V30 3620 N 356.394 -3.32962 4.75517 0
M  V30 3621 H 359.159 0.332377 2.97851 0
M  V30 3622 H 356.72 0.323441 1.58636 0
M  V30 3623 H 358.712 -2.15954 3.42266 0
M  V30 3624 H 357.282 -2.04206 2.36683 0
M  V30 3625 H 356.502 -0.117723 3.94024 0
M  V30 3626 H 357.79 -0.618531 5.05026 0
M  V30 3627 H 357.188 -3.70399 4.27576 0
M  V30 3628 H 355.745 -3.96982 5.16961 0
M  V30 3629 N 359.178 -1.55987 0.224894 0
M  V30 3630 C 360.11 -2.17722 -0.716224 0
M  V30 3631 C 361.123 -1.14723 -1.15509 0
M  V30 3632 O 362.312 -1.41688 -1.08567 0
M  V30 3633 C 359.412 -2.74873 -1.98238 0
M  V30 3634 C 358.585 -4.03074 -1.69853 0
M  V30 3635 C 357.644 -4.44757 -2.81208 0
M  V30 3636 O 356.67 -5.11587 -2.49534 0
M  V30 3637 N 357.872 -4.10716 -4.10235 0
M  V30 3638 H 360.637 -2.99109 -0.188123 0
M  V30 3639 H 358.198 -1.6184 0.0440123 0
M  V30 3640 H 360.19 -2.99727 -2.7193 0
M  V30 3641 H 358.76 -1.9777 -2.42086 0
M  V30 3642 H 357.98 -3.86041 -0.797875 0
M  V30 3643 H 359.268 -4.86701 -1.48324 0
M  V30 3644 H 358.666 -3.57019 -4.38809 0
M  V30 3645 H 357.223 -4.40455 -4.80461 0
M  V30 3646 N 360.656 0.0484629 -1.57525 0
M  V30 3647 C 361.586 1.0549 -2.08313 0
M  V30 3648 C 362.567 1.38929 -0.981463 0
M  V30 3649 O 363.752 1.48151 -1.25558 0
M  V30 3650 C 360.882 2.36162 -2.54646 0
M  V30 3651 C 359.836 2.17016 -3.68901 0
M  V30 3652 C 359.162 3.53278 -4.01371 0
M  V30 3653 C 360.462 1.57219 -4.98076 0
M  V30 3654 H 362.156 0.632195 -2.92649 0
M  V30 3655 H 359.702 0.302654 -1.40784 0
M  V30 3656 H 361.655 3.06882 -2.88793 0
M  V30 3657 H 360.379 2.80456 -1.67368 0
M  V30 3658 H 359.038 1.48733 -3.35073 0
M  V30 3659 H 358.686 3.95185 -3.11188 0
M  V30 3660 H 358.386 3.41299 -4.78318 0
M  V30 3661 H 359.91 4.25391 -4.38035 0
M  V30 3662 H 361.324 2.17832 -5.30304 0
M  V30 3663 H 359.721 1.55871 -5.79503 0
M  V30 3664 H 360.791 0.535956 -4.81929 0
M  V30 3665 N 362.134 1.5431 0.320358 0
M  V30 3666 C 363.382 1.72327 1.05583 0
M  V30 3667 C 363.703 0.50149 1.88441 0
M  V30 3668 O 362.973 -0.48448 1.89815 0
M  V30 3669 H 361.553 0.635387 0.3928 0
M  V30 3670 H 364.215 1.91621 0.356019 0
M  V30 3671 H 363.311 2.60426 1.72003 0
M  V30 3672 N 363.613 -0.582584 1.46437 0
M  V30 3673 C 364.56 -1.69164 1.5701 0
M  V30 3674 C 365.53 -1.60847 0.414403 0
M  V30 3675 O 366.715 -1.80058 0.631171 0
M  V30 3676 C 363.855 -3.075 1.56646 0
M  V30 3677 C 362.968 -3.2644 2.82951 0
M  V30 3678 C 362.103 -4.55026 2.7409 0
M  V30 3679 C 361.142 -4.6731 3.95333 0
M  V30 3680 N 360.279 -5.87221 3.84858 0
M  V30 3681 H 365.119 -1.59464 2.51744 0
M  V30 3682 H 362.656 -0.777186 1.24893 0
M  V30 3683 H 364.614 -3.8757 1.5442 0
M  V30 3684 H 363.244 -3.16096 0.654439 0
M  V30 3685 H 362.296 -2.39974 2.95155 0
M  V30 3686 H 363.608 -3.31385 3.72808 0
M  V30 3687 H 362.762 -5.43324 2.6997 0
M  V30 3688 H 361.501 -4.52519 1.81873 0
M  V30 3689 H 360.506 -3.77429 3.99784 0
M  V30 3690 H 361.731 -4.71595 4.88646 0
M  V30 3691 H 359.677 -5.85712 2.95427 0
M  V30 3692 H 359.594 -5.93435 4.6837 0
M  V30 3693 H 360.862 -6.7795 3.84713 0
M  V30 3694 N 365.091 -1.34144 -0.827227 0
M  V30 3695 C 366.316 -1.29476 -1.62021 0
M  V30 3696 C 366.741 0.129292 -1.87655 0
M  V30 3697 O 366.099 1.08967 -1.449 0
M  V30 3698 C 366.147 -2.08702 -2.94068 0
M  V30 3699 O 365.251 -1.45359 -3.85933 0
M  V30 3700 H 364.592 -0.444881 -0.492927 0
M  V30 3701 H 367.122 -1.76882 -1.02829 0
M  V30 3702 H 367.132 -2.19898 -3.43669 0
M  V30 3703 H 365.807 -3.12241 -2.74734 0
M  V30 3704 H 364.384 -1.42879 -3.44442 0
M  V30 3705 N 366.569 1.04691 -1.17803 0
M  V30 3706 C 367.797 1.81446 -0.99423 0
M  V30 3707 C 368.212 1.83174 0.457459 0
M  V30 3708 O 367.569 1.26265 1.31771 0
M  V30 3709 C 367.62 3.27334 -1.5341 0
M  V30 3710 O 367.341 3.25798 -2.92895 0
M  V30 3711 C 368.842 4.20759 -1.39559 0
M  V30 3712 H 366.062 0.571599 -0.351447 0
M  V30 3713 H 368.606 1.31982 -1.56208 0
M  V30 3714 H 366.761 3.74052 -1.00815 0
M  V30 3715 H 367.175 4.17144 -3.17949 0
M  V30 3716 H 368.649 5.21084 -1.82141 0
M  V30 3717 H 369.126 4.37856 -0.343394 0
M  V30 3718 H 369.732 3.79901 -1.91195 0
M  V30 3719 N 368.047 0.979072 1.23499 0
M  V30 3720 C 369.277 0.664237 1.95631 0
M  V30 3721 C 369.685 -0.772653 1.72704 0
M  V30 3722 O 369.028 -1.53141 1.01457 0
M  V30 3723 C 369.09 0.873115 3.48736 0
M  V30 3724 C 368.754 2.29182 3.95379 0
M  V30 3725 C 369.751 3.2704 4.04155 0
M  V30 3726 C 367.436 2.62256 4.28401 0
M  V30 3727 C 369.43 4.56052 4.45304 0
M  V30 3728 C 367.117 3.91491 4.69231 0
M  V30 3729 C 368.115 4.88201 4.77649 0
M  V30 3730 O 367.803 6.15129 5.17563 0
M  V30 3731 H 367.535 0.245915 0.629684 0
M  V30 3732 H 370.089 1.3127 1.57979 0
M  V30 3733 H 368.319 0.167476 3.86337 0
M  V30 3734 H 370.008 0.555642 4.02079 0
M  V30 3735 H 370.774 3.02819 3.78848 0
M  V30 3736 H 366.653 1.87692 4.21061 0
M  V30 3737 H 370.197 5.31538 4.51789 0
M  V30 3738 H 366.094 4.15508 4.93987 0
M  V30 3739 H 366.862 6.18862 5.35679 0
M  V30 3740 N 369.525 -1.3858 0.750561 0
M  V30 3741 C 370.936 -1.82927 0.373438 0
M  V30 3742 C 371.287 -1.62634 -1.09748 0
M  V30 3743 O 370.412 -1.12588 -1.84805 0
M  V30 3744 C 371.007 -3.32088 0.671029 0
M  V30 3745 C 369.566 -3.74795 0.34722 0
M  V30 3746 C 368.713 -2.61391 0.92575 0
M  V30 3747 H 371.664 -1.27351 0.946958 0
M  V30 3748 H 371.685 -3.80465 -0.0518269 0
M  V30 3749 H 371.197 -3.46826 1.74164 0
M  V30 3750 H 369.298 -3.65638 -0.716933 0
M  V30 3751 H 369.411 -4.71667 0.840656 0
M  V30 3752 H 367.775 -2.52265 0.351327 0
M  V30 3753 H 368.558 -2.78929 2.00133 0
M  V30 3754 N 371.003 -0.499398 -1.49478 0
M  V30 3755 C 371.966 0.268838 -2.27618 0
M  V30 3756 C 372.966 0.895383 -1.33565 0
M  V30 3757 O 374.156 0.760164 -1.56739 0
M  V30 3758 C 371.288 1.38559 -3.11471 0
M  V30 3759 H 372.481 -0.416812 -2.96989 0
M  V30 3760 H 370.034 -0.254313 -1.54217 0
M  V30 3761 H 370.769 2.10544 -2.46661 0
M  V30 3762 H 370.554 0.941797 -3.80621 0
M  V30 3763 H 372.044 1.92678 -3.70493 0
M  V30 3764 N 372.481 1.55866 -0.233164 0
M  V30 3765 C 373.411 2.23783 0.666599 0
M  V30 3766 C 374.392 1.21343 1.19205 0
M  V30 3767 O 375.577 1.4996 1.23392 0
M  V30 3768 C 372.707 2.92671 1.86978 0
M  V30 3769 C 371.661 4.01682 1.47768 0
M  V30 3770 C 370.987 4.57926 2.76058 0
M  V30 3771 C 372.287 5.18126 0.658993 0
M  V30 3772 H 373.981 2.99232 0.100306 0
M  V30 3773 H 371.527 1.43924 0.046804 0
M  V30 3774 H 373.48 3.3888 2.50476 0
M  V30 3775 H 372.204 2.14688 2.46123 0
M  V30 3776 H 370.863 3.56222 0.866106 0
M  V30 3777 H 370.511 3.76659 3.33372 0
M  V30 3778 H 370.211 5.31505 2.50552 0
M  V30 3779 H 371.735 5.06859 3.40479 0
M  V30 3780 H 373.149 5.60644 1.19795 0
M  V30 3781 H 371.546 5.98009 0.500552 0
M  V30 3782 H 372.616 4.83763 -0.331856 0
M  V30 3783 N 373.959 -0.0401083 1.57549 0
M  V30 3784 C 374.889 -1.04384 2.08869 0
M  V30 3785 C 375.87 -1.38407 0.988817 0
M  V30 3786 O 377.055 -1.47483 1.26342 0
M  V30 3787 C 374.185 -2.34808 2.55895 0
M  V30 3788 C 373.139 -2.15057 3.70047 0
M  V30 3789 C 372.465 -3.51145 4.03239 0
M  V30 3790 C 373.765 -1.54576 4.98902 0
M  V30 3791 H 375.459 -0.616666 2.92981 0
M  V30 3792 H 373.005 -0.295184 1.40942 0
M  V30 3793 H 374.958 -3.05346 2.90417 0
M  V30 3794 H 373.682 -2.79565 1.68853 0
M  V30 3795 H 372.341 -1.46954 3.35857 0
M  V30 3796 H 371.989 -3.93529 3.13279 0
M  V30 3797 H 371.689 -3.38758 4.80122 0
M  V30 3798 H 373.213 -4.23062 4.40285 0
M  V30 3799 H 374.627 -2.15017 5.31451 0
M  V30 3800 H 373.024 -1.52796 5.80322 0
M  V30 3801 H 374.094 -0.51039 4.82206 0
M  V30 3802 N 375.437 -1.54477 -0.31217 0
M  V30 3803 C 376.685 -1.72884 -1.04668 0
M  V30 3804 C 377.006 -0.511477 -1.88173 0
M  V30 3805 O 376.276 0.474407 -1.90069 0
M  V30 3806 H 374.856 -0.637461 -0.389425 0
M  V30 3807 H 377.518 -1.91807 -0.345852 0
M  V30 3808 H 376.614 -2.61334 -1.70619 0
M  V30 3809 N 376.915 0.57481 -1.46744 0
M  V30 3810 C 377.845 1.69337 -1.60771 0
M  V30 3811 C 378.826 1.63825 -0.457736 0
M  V30 3812 O 380.011 1.8172 -0.684947 0
M  V30 3813 C 377.141 3.0798 -1.60517 0
M  V30 3814 C 376.095 3.28327 -2.74564 0
M  V30 3815 C 375.421 4.67578 -2.59373 0
M  V30 3816 C 376.721 3.15398 -4.16319 0
M  V30 3817 H 378.415 1.57853 -2.54407 0
M  V30 3818 H 375.961 0.75799 -1.22436 0
M  V30 3819 H 377.914 3.86061 -1.68923 0
M  V30 3820 H 376.638 3.20381 -0.634305 0
M  V30 3821 H 375.297 2.52649 -2.65639 0
M  V30 3822 H 374.945 4.76755 -1.60353 0
M  V30 3823 H 374.645 4.82144 -3.35873 0
M  V30 3824 H 376.169 5.47817 -2.69682 0
M  V30 3825 H 377.583 3.83315 -4.26313 0
M  V30 3826 H 375.98 3.41482 -4.93468 0
M  V30 3827 H 377.05 2.12372 -4.3592 0
M  V30 3828 N 378.394 1.34581 0.820102 0
M  V30 3829 C 379.304 1.28471 1.96297 0
M  V30 3830 C 380.32 0.191902 1.72939 0
M  V30 3831 O 381.496 0.418879 1.96996 0
M  V30 3832 C 378.561 1.04281 3.30645 0
M  V30 3833 C 377.622 2.22745 3.66992 0
M  V30 3834 C 376.855 1.997 4.9493 0
M  V30 3835 O 377.078 0.956656 5.6232 0
M  V30 3836 O 376.012 2.86723 5.2922 0
M  V30 3837 H 379.838 2.24624 2.04396 0
M  V30 3838 H 377.423 1.14816 0.955913 0
M  V30 3839 H 379.305 0.925841 4.11104 0
M  V30 3840 H 377.98 0.111697 3.23507 0
M  V30 3841 H 376.887 2.40003 2.86966 0
M  V30 3842 H 378.22 3.14257 3.78819 0
M  V30 3843 N 379.872 -1.04064 1.18357 0
M  V30 3844 C 380.804 -2.12114 0.868358 0
M  V30 3845 C 381.817 -1.62247 -0.134045 0
M  V30 3846 O 383.006 -1.78253 0.0937933 0
M  V30 3847 C 380.106 -3.37773 0.276132 0
M  V30 3848 C 379.279 -4.16874 1.3242 0
M  V30 3849 C 378.338 -5.20861 0.747662 0
M  V30 3850 O 377.364 -5.51141 1.42239 0
M  V30 3851 N 378.566 -5.78715 -0.454823 0
M  V30 3852 H 381.331 -2.39748 1.79836 0
M  V30 3853 H 378.892 -1.20258 1.08396 0
M  V30 3854 H 380.884 -4.04513 -0.123133 0
M  V30 3855 H 379.454 -3.07581 -0.557895 0
M  V30 3856 H 378.674 -3.45456 1.89878 0
M  V30 3857 H 379.962 -4.66516 2.03078 0
M  V30 3858 H 379.36 -5.56415 -1.02073 0
M  V30 3859 H 377.917 -6.46921 -0.79601 0
M  V30 3860 N 381.35 -0.985608 -1.22978 0
M  V30 3861 C 382.313 -0.535071 -2.22867 0
M  V30 3862 C 383.313 0.378123 -1.56291 0
M  V30 3863 O 384.503 0.171092 -1.73358 0
M  V30 3864 C 381.635 0.222702 -3.40172 0
M  V30 3865 H 382.828 -1.41835 -2.6424 0
M  V30 3866 H 380.381 -0.772042 -1.35901 0
M  V30 3867 H 381.116 1.12229 -3.04262 0
M  V30 3868 H 380.901 -0.43288 -3.89703 0
M  V30 3869 H 382.391 0.526335 -4.1427 0
M  V30 3870 N 382.828 1.3818 -0.7579 0
M  V30 3871 C 384.244 1.5353 -0.435972 0
M  V30 3872 C 384.444 1.71961 1.05032 0
M  V30 3873 O 383.5 1.73307 1.83633 0
M  V30 3874 C 384.813 2.73989 -1.23898 0
M  V30 3875 C 386.361 2.87841 -1.22949 0
M  V30 3876 C 386.836 4.11266 -2.01554 0
M  V30 3877 N 388.327 4.18352 -1.98837 0
M  V30 3878 C 389.062 5.12856 -2.5645 0
M  V30 3879 N 388.558 6.13005 -3.22794 0
M  V30 3880 N 390.351 5.05238 -2.46356 0
M  V30 3881 H 382.502 1.24467 -1.7211 0
M  V30 3882 H 384.765 0.604982 -0.729864 0
M  V30 3883 H 384.471 2.66789 -2.29165 0
M  V30 3884 H 384.345 3.67294 -0.858764 0
M  V30 3885 H 386.732 2.9452 -0.184854 0
M  V30 3886 H 386.813 1.95534 -1.64924 0
M  V30 3887 H 386.457 4.05349 -3.06031 0
M  V30 3888 H 386.387 5.02661 -1.5697 0
M  V30 3889 H 388.878 3.46628 -1.50524 0
M  V30 3890 H 389.191 6.81619 -3.64165 0
M  V30 3891 H 387.536 6.13325 -3.2689 0
M  V30 3892 H 390.727 4.25938 -1.9415 0
M  V30 3893 H 390.9 5.78707 -2.91552 0
M  V30 3894 N 384.306 0.507319 1.49211 0
M  V30 3895 C 385.253 -0.267728 2.29242 0
M  V30 3896 C 386.223 -0.954609 1.35928 0
M  V30 3897 O 387.408 -0.960046 1.64887 0
M  V30 3898 C 384.548 -1.32243 3.18756 0
M  V30 3899 C 383.661 -0.64669 4.27132 0
M  V30 3900 C 382.796 -1.68238 5.03855 0
M  V30 3901 C 381.835 -0.98885 6.0406 0
M  V30 3902 N 380.972 -1.96903 6.73924 0
M  V30 3903 H 385.812 0.420968 2.95012 0
M  V30 3904 H 383.349 0.219443 1.45454 0
M  V30 3905 H 385.307 -1.94599 3.69036 0
M  V30 3906 H 383.937 -1.97981 2.54958 0
M  V30 3907 H 382.989 0.0902926 3.80293 0
M  V30 3908 H 384.301 -0.101058 4.98698 0
M  V30 3909 H 383.455 -2.38081 5.58034 0
M  V30 3910 H 382.194 -2.26187 4.32077 0
M  V30 3911 H 381.199 -0.276222 5.49106 0
M  V30 3912 H 382.424 -0.415767 6.77826 0
M  V30 3913 H 380.37 -2.53803 6.04913 0
M  V30 3914 H 380.287 -1.47423 7.41487 0
M  V30 3915 H 381.555 -2.66015 7.32705 0
M  V30 3916 N 385.784 -1.5574 0.241426 0
M  V30 3917 C 386.731 -2.21149 -0.660432 0
M  V30 3918 C 387.701 -1.17356 -1.17545 0
M  V30 3919 O 388.886 -1.45784 -1.23093 0
M  V30 3920 C 386.026 -2.91059 -1.85414 0
M  V30 3921 C 385.139 -4.09495 -1.37616 0
M  V30 3922 C 384.274 -4.67135 -2.529 0
M  V30 3923 C 383.313 -5.77831 -2.01936 0
M  V30 3924 N 382.45 -6.29677 -3.10566 0
M  V30 3925 H 387.29 -2.97845 -0.095955 0
M  V30 3926 H 384.827 -1.47057 -0.0356024 0
M  V30 3927 H 386.785 -3.29788 -2.5553 0
M  V30 3928 H 385.415 -2.16846 -2.39118 0
M  V30 3929 H 384.467 -3.76117 -0.569235 0
M  V30 3930 H 385.779 -4.89423 -0.962618 0
M  V30 3931 H 384.933 -5.08409 -3.31067 0
M  V30 3932 H 383.672 -3.86411 -2.97553 0
M  V30 3933 H 382.677 -5.36039 -1.22238 0
M  V30 3934 H 383.902 -6.60402 -1.58259 0
M  V30 3935 H 381.848 -5.5186 -3.54664 0
M  V30 3936 H 381.765 -7.04783 -2.73526 0
M  V30 3937 H 383.033 -6.75609 -3.88809 0
M  V30 3938 N 387.262 0.0317525 -1.57568 0
M  V30 3939 C 388.225 1.01783 -2.0536 0
M  V30 3940 C 389.225 1.29203 -0.957253 0
M  V30 3941 O 390.415 1.24251 -1.22095 0
M  V30 3942 C 387.547 2.35137 -2.46827 0
M  V30 3943 H 388.74 0.605062 -2.93733 0
M  V30 3944 H 386.293 0.278514 -1.53799 0
M  V30 3945 H 387.028 2.81168 -1.61602 0
M  V30 3946 H 386.813 2.16566 -3.26866 0
M  V30 3947 H 388.303 3.05938 -2.84239 0
M  V30 3948 N 388.74 1.54641 0.303973 0
M  V30 3949 C 390.156 1.45788 0.649463 0
M  V30 3950 C 390.356 0.64666 1.90842 0
M  V30 3951 O 389.412 0.153183 2.52035 0
M  V30 3952 C 390.725 2.89718 0.805227 0
M  V30 3953 C 392.273 2.99742 0.901305 0
M  V30 3954 C 392.748 4.44863 1.08909 0
M  V30 3955 N 394.239 4.48559 1.15536 0
M  V30 3956 C 394.974 5.58026 1.3189 0
M  V30 3957 N 394.47 6.77422 1.45161 0
M  V30 3958 N 396.263 5.45708 1.34755 0
M  V30 3959 H 388.414 2.05854 -0.523237 0
M  V30 3960 H 390.677 0.932186 -0.172431 0
M  V30 3961 H 390.383 3.51666 -0.0489108 0
M  V30 3962 H 390.257 3.36964 1.69513 0
M  V30 3963 H 392.644 2.3791 1.74593 0
M  V30 3964 H 392.725 2.55797 -0.0125531 0
M  V30 3965 H 392.369 5.07288 0.249241 0
M  V30 3966 H 392.299 4.86436 2.01713 0
M  V30 3967 H 394.79 3.6254 1.06646 0
M  V30 3968 H 395.103 7.56604 1.57387 0
M  V30 3969 H 393.448 6.80292 1.42223 0
M  V30 3970 H 396.639 4.51378 1.23996 0
M  V30 3971 H 396.812 6.3107 1.47157 0
M  V30 3972 N 390.218 -0.567019 1.47046 0
M  V30 3973 C 391.495 -1.3276 1.43646 0
M  V30 3974 C 391.875 -2.1071 0.128186 0
M  V30 3975 O 391.223 -2.10441 -0.890326 0
M  V30 3976 C 391.433 -2.2404 2.67595 0
M  V30 3977 C 392.781 -2.85372 3.14401 0
M  V30 3978 O 393.805 -2.34346 2.68254 0
M  V30 3979 O 392.664 -3.78091 3.946 0
M  V30 3980 H 389.758 -0.597293 0.571988 0
M  V30 3981 H 392.304 -0.586735 1.59234 0
M  V30 3982 H 391.076 -1.65975 3.54356 0
M  V30 3983 H 390.699 -3.05439 2.54544 0
M  V30 3984 N 391.696 -1.35014 -0.812953 0
M  V30 3985 C 392.626 -1.30069 -1.93919 0
M  V30 3986 C 393.607 -0.176275 -1.69184 0
M  V30 3987 O 394.792 -0.370227 -1.90638 0
M  V30 3988 C 391.922 -1.06547 -3.30552 0
M  V30 3989 C 390.876 -2.15561 -3.69753 0
M  V30 3990 C 390.202 -1.77214 -5.04479 0
M  V30 3991 C 391.502 -3.57476 -3.808 0
M  V30 3992 H 393.196 -2.24303 -1.98314 0
M  V30 3993 H 390.742 -1.07977 -0.952736 0
M  V30 3994 H 392.695 -1.01729 -4.08937 0
M  V30 3995 H 391.419 -0.0875719 -3.26483 0
M  V30 3996 H 390.078 -2.19466 -2.9365 0
M  V30 3997 H 389.726 -0.780589 -4.96906 0
M  V30 3998 H 389.426 -2.50184 -5.31678 0
M  V30 3999 H 390.95 -1.7391 -5.8531 0
M  V30 4000 H 392.364 -3.55929 -4.4943 0
M  V30 4001 H 390.761 -4.29152 -4.19462 0
M  V30 4002 H 391.831 -3.94091 -2.82525 0
M  V30 4003 N 393.175 1.03435 -1.18907 0
M  V30 4004 C 394.424 1.76143 -0.982669 0
M  V30 4005 C 394.737 1.89416 0.487953 0
M  V30 4006 O 395.943 2.59041 0.813036 0
M  V30 4007 C 394.399 3.16722 -1.70924 0
M  V30 4008 C 394.007 3.11522 -3.21959 0
M  V30 4009 C 395.751 3.93764 -1.58588 0
M  V30 4010 C 393.658 4.46999 -3.87228 0
M  V30 4011 H 392.588 0.660292 -0.364047 0
M  V30 4012 H 395.239 1.158 -1.42347 0
M  V30 4013 H 393.621 3.775 -1.19623 0
M  V30 4014 H 394.795 2.60158 -3.80335 0
M  V30 4015 H 393.11 2.47978 -3.34508 0
M  V30 4016 H 395.707 4.93963 -2.04707 0
M  V30 4017 H 396.05 4.12794 -0.539142 0
M  V30 4018 H 396.583 3.39576 -2.07203 0
M  V30 4019 H 393.322 4.33174 -4.91976 0
M  V30 4020 H 392.842 4.98441 -3.33642 0
M  V30 4021 H 394.521 5.15898 -3.90459 0
M  V30 4022 N 394.653 0.992116 1.22453 0
M  V30 4023 C 395.93 0.583508 1.86694 0
M  V30 4024 C 396.31 -0.9392 1.89056 0
M  V30 4025 O 395.658 -1.82081 1.38053 0
M  V30 4026 C 395.868 1.20304 3.2761 0
M  V30 4027 C 397.216 1.30308 4.0411 0
M  V30 4028 O 398.24 1.15737 3.36873 0
M  V30 4029 O 397.099 1.53615 5.24466 0
M  V30 4030 H 394.193 0.198129 0.802916 0
M  V30 4031 H 396.739 1.08794 1.30238 0
M  V30 4032 H 395.511 2.24461 3.2052 0
M  V30 4033 H 395.134 0.684144 3.9167 0
M  V30 4034 N 396.131 -1.37776 0.765217 0
M  V30 4035 C 397.408 -1.93975 0.251596 0
M  V30 4036 C 397.788 -1.69949 -1.25222 0
M  V30 4037 O 397.136 -1.04457 -2.03226 0
M  V30 4038 C 397.346 -3.43487 0.617895 0
M  V30 4039 C 398.694 -4.20564 0.584029 0
M  V30 4040 O 399.718 -3.5182 0.556888 0
M  V30 4041 O 398.577 -5.43138 0.605291 0
M  V30 4042 H 395.671 -0.82509 0.0561806 0
M  V30 4043 H 398.217 -1.47101 0.846128 0
M  V30 4044 H 396.989 -3.5453 1.65602 0
M  V30 4045 H 396.612 -3.976 -0.00403411 0
M  V30 4046 N 397.609 -0.515225 -1.4894 0
M  V30 4047 C 398.572 0.244681 -2.2789 0
M  V30 4048 C 399.572 0.881166 -1.34507 0
M  V30 4049 O 400.762 0.743497 -1.57537 0
M  V30 4050 C 397.894 1.35247 -3.12923 0
M  V30 4051 H 399.087 -0.448289 -2.96531 0
M  V30 4052 H 396.64 -0.270656 -1.53939 0
M  V30 4053 H 397.375 2.07916 -2.48881 0
M  V30 4054 H 397.16 0.901374 -3.81599 0
M  V30 4055 H 398.65 1.88737 -3.72516 0
M  V30 4056 N 399.087 1.5561 -0.249682 0
M  V30 4057 C 400.503 1.59254 0.105103 0
M  V30 4058 C 400.703 1.26685 1.56694 0
M  V30 4059 O 399.759 1.0155 2.31179 0
M  V30 4060 C 401.072 2.99687 -0.246592 0
M  V30 4061 C 402.62 3.12416 -0.191118 0
M  V30 4062 C 403.095 4.55074 -0.516885 0
M  V30 4063 N 404.586 4.60835 -0.467489 0
M  V30 4064 C 405.321 5.69201 -0.69268 0
M  V30 4065 N 404.817 6.85817 -0.981146 0
M  V30 4066 N 406.61 5.58635 -0.623198 0
M  V30 4067 H 398.761 1.75049 -1.20298 0
M  V30 4068 H 401.024 0.815003 -0.484225 0
M  V30 4069 H 400.73 3.28267 -1.26228 0
M  V30 4070 H 400.604 3.74798 0.424962 0
M  V30 4071 H 402.991 2.83615 0.815247 0
M  V30 4072 H 403.072 2.39573 -0.896563 0
M  V30 4073 H 402.716 4.84596 -1.52082 0
M  V30 4074 H 402.646 5.26181 0.210068 0
M  V30 4075 H 405.137 3.7705 -0.253373 0
M  V30 4076 H 405.45 7.64341 -1.14032 0
M  V30 4077 H 403.795 6.87494 -1.01865 0
M  V30 4078 H 406.986 4.66406 -0.397863 0
M  V30 4079 H 407.159 6.43017 -0.802093 0
M  V30 4080 N 400.565 -0.0233959 1.57583 0
M  V30 4081 C 401.497 -1.04994 2.03737 0
M  V30 4082 C 402.51 -1.32125 0.951152 0
M  V30 4083 O 403.699 -1.29512 1.22837 0
M  V30 4084 C 400.799 -2.39026 2.40249 0
M  V30 4085 C 399.972 -2.31171 3.7132 0
M  V30 4086 C 399.031 -3.47698 3.94959 0
M  V30 4087 O 398.057 -3.26937 4.65941 0
M  V30 4088 N 399.259 -4.6976 3.41037 0
M  V30 4089 H 402.024 -0.656507 2.92421 0
M  V30 4090 H 399.585 -0.211235 1.60516 0
M  V30 4091 H 401.577 -3.15712 2.53196 0
M  V30 4092 H 400.147 -2.70194 1.57207 0
M  V30 4093 H 399.367 -1.39547 3.68674 0
M  V30 4094 H 400.655 -2.23071 4.57293 0
M  V30 4095 H 400.053 -4.89528 2.83512 0
M  V30 4096 H 398.61 -5.43791 3.59353 0
M  V30 4097 N 402.043 -1.548 -0.295768 0
M  V30 4098 C 403.006 -1.85363 -1.34808 0
M  V30 4099 C 404.006 -0.726817 -1.43436 0
M  V30 4100 O 405.196 -0.995088 -1.42981 0
M  V30 4101 C 402.328 -2.03859 -2.73229 0
M  V30 4102 H 403.521 -2.7941 -1.08949 0
M  V30 4103 H 401.074 -1.46942 -0.532702 0
M  V30 4104 H 401.809 -1.12117 -3.04303 0
M  V30 4105 H 401.594 -2.8588 -2.68356 0
M  V30 4106 H 403.084 -2.28857 -3.49305 0
M  V30 4107 N 403.521 0.559213 -1.47345 0
M  V30 4108 C 404.451 1.67622 -1.62558 0
M  V30 4109 C 405.432 1.63331 -0.475087 0
M  V30 4110 O 406.617 1.80983 -0.704182 0
M  V30 4111 C 403.747 3.0626 -1.63774 0
M  V30 4112 C 402.701 3.25397 -2.7803 0
M  V30 4113 C 402.027 4.64801 -2.64318 0
M  V30 4114 C 403.327 3.10965 -4.19641 0
M  V30 4115 H 405.021 1.55146 -2.56067 0
M  V30 4116 H 402.567 0.744961 -1.23233 0
M  V30 4117 H 404.52 3.84247 -1.73008 0
M  V30 4118 H 403.244 3.1969 -0.66825 0
M  V30 4119 H 401.903 2.49817 -2.68304 0
M  V30 4120 H 401.551 4.75028 -1.65401 0
M  V30 4121 H 401.251 4.78555 -3.40968 0
M  V30 4122 H 402.775 5.44926 -2.75478 0
M  V30 4123 H 404.189 3.78772 -4.30354 0
M  V30 4124 H 402.586 3.36229 -4.97062 0
M  V30 4125 H 403.656 2.07736 -4.38148 0
M  V30 4126 N 404.999 1.35443 0.805782 0
M  V30 4127 C 405.946 1.28431 1.91766 0
M  V30 4128 C 406.916 0.156102 1.65365 0
M  V30 4129 O 408.101 0.339936 1.87747 0
M  V30 4130 C 405.241 1.06301 3.2832 0
M  V30 4131 C 404.354 2.2805 3.66902 0
M  V30 4132 C 403.489 1.99064 4.92491 0
M  V30 4133 C 402.528 3.16863 5.23703 0
M  V30 4134 N 401.665 2.87647 6.40471 0
M  V30 4135 H 406.505 2.23511 1.97096 0
M  V30 4136 H 404.042 1.11105 0.964054 0
M  V30 4137 H 406 0.915012 4.07042 0
M  V30 4138 H 404.63 0.148822 3.22457 0
M  V30 4139 H 403.682 2.53711 2.83434 0
M  V30 4140 H 404.994 3.1601 3.85927 0
M  V30 4141 H 404.148 1.81099 5.7904 0
M  V30 4142 H 402.887 1.0839 4.75503 0
M  V30 4143 H 401.892 3.35404 4.35642 0
M  V30 4144 H 403.117 4.08339 5.4262 0
M  V30 4145 H 401.063 1.99568 6.24907 0
M  V30 4146 H 400.98 3.69141 6.59751 0
M  V30 4147 H 402.248 2.73226 7.30047 0
M  V30 4148 N 406.477 -1.02803 1.19454 0
M  V30 4149 C 407.409 -2.11181 0.890807 0
M  V30 4150 C 408.422 -1.6238 -0.116829 0
M  V30 4151 O 409.611 -1.78144 0.112694 0
M  V30 4152 C 406.711 -3.37461 0.311942 0
M  V30 4153 C 405.884 -4.15446 1.36834 0
M  V30 4154 C 404.943 -5.20039 0.802864 0
M  V30 4155 O 403.969 -5.49602 1.48077 0
M  V30 4156 N 405.171 -5.79165 -0.393417 0
M  V30 4157 H 407.936 -2.37827 1.82369 0
M  V30 4158 H 405.497 -1.19101 1.09666 0
M  V30 4159 H 407.489 -4.0462 -0.0802225 0
M  V30 4160 H 406.059 -3.08156 -0.52524 0
M  V30 4161 H 405.279 -3.43423 1.93531 0
M  V30 4162 H 406.567 -4.64335 2.08015 0
M  V30 4163 H 405.965 -5.57466 -0.961658 0
M  V30 4164 H 404.522 -6.47729 -0.727351 0
M  V30 4165 N 407.956 -0.998596 -1.21925 0
M  V30 4166 C 408.886 -0.573688 -2.26343 0
M  V30 4167 C 409.867 0.402296 -1.65274 0
M  V30 4168 O 411.052 0.291683 -1.91997 0
M  V30 4169 C 408.182 0.106839 -3.47136 0
M  V30 4170 C 407.136 -0.788269 -4.20678 0
M  V30 4171 C 406.462 0.0254927 -5.34694 0
M  V30 4172 C 407.762 -2.08784 -4.78755 0
M  V30 4173 H 409.456 -1.44651 -2.62138 0
M  V30 4174 H 407.002 -0.696975 -1.26009 0
M  V30 4175 H 408.955 0.415531 -4.19346 0
M  V30 4176 H 407.679 1.01424 -3.10452 0
M  V30 4177 H 406.338 -1.08069 -3.50309 0
M  V30 4178 H 405.986 0.933989 -4.94253 0
M  V30 4179 H 405.686 -0.570437 -5.84825 0
M  V30 4180 H 407.21 0.328147 -6.09718 0
M  V30 4181 H 408.624 -1.84272 -5.42878 0
M  V30 4182 H 407.021 -2.63307 -5.39249 0
M  V30 4183 H 408.091 -2.76284 -3.98491 0
M  V30 4184 N 409.434 1.37368 -0.772513 0
M  V30 4185 C 410.397 2.28601 -0.165541 0
M  V30 4186 C 411.397 1.48062 0.627238 0
M  V30 4187 O 412.587 1.68268 0.450715 0
M  V30 4188 C 409.719 3.32023 0.772897 0
M  V30 4189 H 410.912 2.83787 -0.969787 0
M  V30 4190 H 408.465 1.46647 -0.540775 0
M  V30 4191 H 409.2 2.81962 1.60212 0
M  V30 4192 H 408.985 3.91555 0.206585 0
M  V30 4193 H 410.475 4.00197 1.19298 0
M  V30 4194 N 410.912 0.523116 1.48665 0
M  V30 4195 C 411.822 -0.247406 2.33292 0
M  V30 4196 C 412.838 -0.945769 1.46052 0
M  V30 4197 O 414.014 -0.922253 1.79043 0
M  V30 4198 C 411.079 -1.28487 3.22012 0
M  V30 4199 C 410.14 -0.597592 4.2512 0
M  V30 4200 C 409.373 -1.58563 5.09601 0
M  V30 4201 O 409.596 -2.81763 4.95949 0
M  V30 4202 O 408.53 -1.12879 5.91221 0
M  V30 4203 H 412.356 0.445869 3.00409 0
M  V30 4204 H 409.941 0.284128 1.46673 0
M  V30 4205 H 411.823 -1.88459 3.7691 0
M  V30 4206 H 410.498 -1.96068 2.57564 0
M  V30 4207 H 409.405 0.0424407 3.74076 0
M  V30 4208 H 410.738 0.0361517 4.92187 0
M  V30 4209 N 412.39 -1.55475 0.257931 0
M  V30 4210 C 413.322 -2.19192 -0.669881 0
M  V30 4211 C 414.335 -1.17148 -1.1305 0
M  V30 4212 O 415.524 -1.43959 -1.05537 0
M  V30 4213 C 412.624 -2.79016 -1.92363 0
M  V30 4214 C 411.797 -4.06586 -1.61265 0
M  V30 4215 C 410.856 -4.50622 -2.7171 0
M  V30 4216 O 409.882 -5.16765 -2.38627 0
M  V30 4217 N 411.084 -4.19325 -4.01431 0
M  V30 4218 H 413.849 -2.99441 -0.124635 0
M  V30 4219 H 411.41 -1.6171 0.0783311 0
M  V30 4220 H 413.402 -3.05427 -2.65511 0
M  V30 4221 H 411.972 -2.0286 -2.37837 0
M  V30 4222 H 411.192 -3.87646 -0.715811 0
M  V30 4223 H 412.48 -4.89737 -1.37967 0
M  V30 4224 H 411.878 -3.66247 -4.31138 0
M  V30 4225 H 410.435 -4.50547 -4.7101 0
M  V30 4226 N 413.868 0.0150385 -1.57593 0
M  V30 4227 C 415.093 0.718067 -1.94573 0
M  V30 4228 C 415.518 1.6734 -0.859005 0
M  V30 4229 O 414.876 1.80362 0.184147 0
M  V30 4230 C 414.924 1.43918 -3.30636 0
M  V30 4231 O 414.028 2.55299 -3.23876 0
M  V30 4232 H 413.369 0.192125 -0.635597 0
M  V30 4233 H 415.899 -0.0336708 -2.04572 0
M  V30 4234 H 415.909 1.80598 -3.65853 0
M  V30 4235 H 414.584 0.738619 -4.09289 0
M  V30 4236 H 413.161 2.21058 -3.00312 0
M  V30 4237 N 415.346 1.54954 0.287554 0
M  V30 4238 C 416.276 1.89839 1.35954 0
M  V30 4239 C 417.257 0.758675 1.52244 0
M  V30 4240 O 418.442 1.01557 1.65529 0
M  V30 4241 C 415.572 2.15753 2.72154 0
M  V30 4242 C 414.526 3.3159 2.70614 0
M  V30 4243 C 413.852 3.42952 4.10229 0
M  V30 4244 C 415.152 4.68359 2.31165 0
M  V30 4245 H 416.846 2.79625 1.07007 0
M  V30 4246 H 414.392 1.3454 0.513316 0
M  V30 4247 H 416.345 2.38743 3.47246 0
M  V30 4248 H 415.069 1.22752 3.02654 0
M  V30 4249 H 413.728 3.08545 1.97979 0
M  V30 4250 H 413.376 2.47443 4.37928 0
M  V30 4251 H 413.076 4.20826 4.10097 0
M  V30 4252 H 414.6 3.68218 4.87081 0
M  V30 4253 H 416.014 4.9099 2.95976 0
M  V30 4254 H 414.411 5.49044 2.42221 0
M  V30 4255 H 415.481 4.68165 1.26291 0
M  V30 4256 N 416.824 -0.551391 1.4764 0
M  V30 4257 C 418.101 -1.31229 1.45046 0
M  V30 4258 C 418.481 -2.10563 0.150527 0
M  V30 4259 O 417.829 -2.11374 -0.867956 0
M  V30 4260 C 418.039 -2.21189 2.69956 0
M  V30 4261 C 419.387 -2.82021 3.1741 0
M  V30 4262 O 420.411 -2.31488 2.70724 0
M  V30 4263 O 419.27 -3.73885 3.98588 0
M  V30 4264 H 416.364 -0.591193 0.578291 0
M  V30 4265 H 418.91 -0.569813 1.59847 0
M  V30 4266 H 417.682 -1.62207 3.56096 0
M  V30 4267 H 417.305 -3.02722 2.57769 0
M  V30 4268 N 418.302 -1.35869 -0.798587 0
M  V30 4269 C 419.53 -1.32722 -1.58722 0
M  V30 4270 C 419.945 0.0935631 -1.88568 0
M  V30 4271 O 419.302 1.04784 -1.49421 0
M  V30 4272 C 419.353 -2.13974 -2.91371 0
M  V30 4273 O 419.074 -3.50514 -2.62815 0
M  V30 4274 C 420.575 -2.18504 -3.85708 0
M  V30 4275 H 417.795 -0.45562 -0.492596 0
M  V30 4276 H 420.339 -1.78837 -0.991843 0
M  V30 4277 H 418.494 -1.71438 -3.47402 0
M  V30 4278 H 418.908 -3.92806 -3.47568 0
M  V30 4279 H 420.382 -2.79732 -4.75872 0
M  V30 4280 H 420.859 -1.18597 -4.22885 0
M  V30 4281 H 421.465 -2.61236 -3.35612 0
M  V30 4282 N 419.78 1.02168 -1.19998 0
M  V30 4283 C 421.005 1.79833 -1.03319 0
M  V30 4284 C 421.43 1.83504 0.413281 0
M  V30 4285 O 420.788 1.26635 1.29743 0
M  V30 4286 C 420.836 3.22396 -1.61533 0
M  V30 4287 O 419.94 4.03555 -0.849519 0
M  V30 4288 H 419.281 0.554872 -0.364709 0
M  V30 4289 H 421.811 1.28542 -1.59179 0
M  V30 4290 H 421.821 3.73124 -1.65054 0
M  V30 4291 H 420.496 3.19039 -2.66809 0
M  V30 4292 H 419.073 3.62169 -0.888129 0
M  V30 4293 N 421.258 1.00505 1.21394 0
M  V30 4294 C 422.221 0.570459 2.21987 0
M  V30 4295 C 423.221 -0.353211 1.56873 0
M  V30 4296 O 424.411 -0.14349 1.73608 0
M  V30 4297 C 421.543 -0.168555 3.40483 0
M  V30 4298 H 422.736 1.46021 2.6195 0
M  V30 4299 H 420.289 0.793565 1.34656 0
M  V30 4300 H 421.024 -1.07374 3.06009 0
M  V30 4301 H 420.809 0.494823 3.88965 0
M  V30 4302 H 422.299 -0.460362 4.15055 0
M  V30 4303 N 422.737 -1.36956 0.779787 0
M  V30 4304 C 423.667 -2.32761 0.185651 0
M  V30 4305 C 424.648 -1.56177 -0.673989 0
M  V30 4306 O 425.833 -1.84378 -0.609797 0
M  V30 4307 C 422.963 -3.40418 -0.687964 0
M  V30 4308 C 421.917 -4.27941 0.0710102 0
M  V30 4309 C 421.243 -5.26681 -0.922573 0
M  V30 4310 C 422.543 -5.07006 1.25467 0
M  V30 4311 H 424.237 -2.82698 0.986008 0
M  V30 4312 H 421.783 -1.3592 0.475592 0
M  V30 4313 H 423.736 -4.06423 -1.11348 0
M  V30 4314 H 422.46 -2.89025 -1.52093 0
M  V30 4315 H 421.119 -3.63478 0.47739 0
M  V30 4316 H 420.767 -4.71565 -1.7503 0
M  V30 4317 H 420.467 -5.86103 -0.419237 0
M  V30 4318 H 421.991 -5.9556 -1.34686 0
M  V30 4319 H 423.405 -5.66105 0.905401 0
M  V30 4320 H 421.802 -5.75793 1.69063 0
M  V30 4321 H 422.872 -4.3921 2.05481 0
M  V30 4322 N 424.215 -0.530993 -1.48385 0
M  V30 4323 C 425.125 0.23503 -2.3342 0
M  V30 4324 C 426.141 0.93801 -1.46552 0
M  V30 4325 O 427.317 0.912745 -1.7953 0
M  V30 4326 C 424.382 1.26778 -3.22689 0
M  V30 4327 C 423.443 0.575038 -4.25431 0
M  V30 4328 C 422.676 1.55858 -5.10435 0
M  V30 4329 O 422.899 2.79129 -4.97437 0
M  V30 4330 O 421.833 1.09742 -5.91811 0
M  V30 4331 H 425.659 -0.461794 -3.00169 0
M  V30 4332 H 423.244 -0.291903 -1.46521 0
M  V30 4333 H 425.126 1.86457 -3.77904 0
M  V30 4334 H 423.801 1.94699 -2.586 0
M  V30 4335 H 422.708 -0.0622782 -3.74048 0
M  V30 4336 H 424.041 -0.062253 -4.92161 0
M  V30 4337 N 425.693 1.55336 -0.266172 0
M  V30 4338 C 426.656 2.20878 0.612001 0
M  V30 4339 C 427.656 1.18388 1.08816 0
M  V30 4340 O 428.846 1.4335 0.989774 0
M  V30 4341 C 425.978 2.86765 1.84332 0
M  V30 4342 H 427.171 2.99873 0.0398718 0
M  V30 4343 H 424.724 1.56291 -0.0167309 0
M  V30 4344 H 425.459 2.11759 2.45619 0
M  V30 4345 H 425.244 3.61862 1.5099 0
M  V30 4346 H 426.734 3.36867 2.46801 0
M  V30 4347 N 427.171 -0.0066808 1.57599 0
M  V30 4348 C 428.101 -0.999296 2.11036 0
M  V30 4349 C 429.082 -1.36278 1.01795 0
M  V30 4350 O 430.267 -1.4477 1.29442 0
M  V30 4351 C 427.397 -2.29328 2.60818 0
M  V30 4352 C 426.351 -2.07159 3.74525 0
M  V30 4353 C 425.677 -3.42512 4.10596 0
M  V30 4354 C 426.977 -1.43959 5.02069 0
M  V30 4355 H 428.671 -0.554382 2.94223 0
M  V30 4356 H 426.217 -0.265221 1.41536 0
M  V30 4357 H 428.17 -2.99117 2.96828 0
M  V30 4358 H 426.894 -2.7592 1.74745 0
M  V30 4359 H 425.553 -1.39797 3.38899 0
M  V30 4360 H 425.201 -3.86795 3.21556 0
M  V30 4361 H 424.901 -3.28498 4.87199 0
M  V30 4362 H 426.425 -4.13628 4.4916 0
M  V30 4363 H 427.839 -2.03696 5.35893 0
M  V30 4364 H 426.236 -1.40452 5.83432 0
M  V30 4365 H 427.306 -0.407992 4.83181 0
M  V30 4366 N 428.649 -1.55105 -0.279332 0
M  V30 4367 C 429.612 -1.86783 -1.32834 0
M  V30 4368 C 430.612 -0.74199 -1.42657 0
M  V30 4369 O 431.802 -1.0102 -1.41918 0
M  V30 4370 C 428.934 -2.06746 -2.71052 0
M  V30 4371 H 430.127 -2.8055 -1.05979 0
M  V30 4372 H 427.68 -1.47499 -0.517087 0
M  V30 4373 H 428.415 -1.15339 -3.03097 0
M  V30 4374 H 428.2 -2.88711 -2.65309 0
M  V30 4375 H 429.69 -2.32549 -3.46858 0
M  V30 4376 N 430.127 0.543554 -1.4793 0
M  V30 4377 C 431.404 1.30458 -1.4574 0
M  V30 4378 C 431.784 2.1048 -0.161692 0
M  V30 4379 O 431.132 2.11831 0.856734 0
M  V30 4380 C 431.342 2.19754 -2.71126 0
M  V30 4381 C 432.69 2.80334 -3.18901 0
M  V30 4382 O 433.714 2.30049 -2.71948 0
M  V30 4383 O 432.573 3.71766 -4.00565 0
M  V30 4384 H 429.667 0.588117 -0.581418 0
M  V30 4385 H 432.213 0.561328 -1.60147 0
M  V30 4386 H 430.985 1.60316 -3.56952 0
M  V30 4387 H 430.608 3.01351 -2.59371 0
M  V30 4388 N 431.605 1.3629 0.791371 0
M  V30 4389 C 432.835 1.33368 1.57786 0
M  V30 4390 C 433.243 -0.0875188 1.88997 0
M  V30 4391 O 432.586 -1.05427 1.50435 0
M  V30 4392 C 432.648 2.08802 2.92646 0
M  V30 4393 C 432.312 3.57903 2.84174 0
M  V30 4394 C 433.309 4.52191 2.56553 0
M  V30 4395 C 430.994 4.00762 3.02812 0
M  V30 4396 C 432.988 5.87315 2.47669 0
M  V30 4397 C 430.675 5.35977 2.93551 0
M  V30 4398 C 431.673 6.29066 2.66017 0
M  V30 4399 O 431.361 7.61798 2.56746 0
M  V30 4400 H 431.093 0.459166 0.496128 0
M  V30 4401 H 433.647 1.79952 0.990269 0
M  V30 4402 H 431.877 1.56878 3.53449 0
M  V30 4403 H 433.566 1.98762 3.53904 0
M  V30 4404 H 434.332 4.20393 2.41858 0
M  V30 4405 H 430.211 3.2868 3.2325 0
M  V30 4406 H 433.755 6.59943 2.26099 0
M  V30 4407 H 429.652 5.67384 3.07808 0
M  V30 4408 H 430.42 7.71898 2.72242 0
M  V30 4409 N 433.083 -1.0153 1.20538 0
M  V30 4410 C 434.332 -1.74558 1.01057 0
M  V30 4411 C 434.645 -1.90168 -0.457756 0
M  V30 4412 O 435.851 -2.60301 -0.771722 0
M  V30 4413 C 434.307 -3.13963 1.75941 0
M  V30 4414 C 433.915 -3.06361 3.26875 0
M  V30 4415 C 435.659 -3.91191 1.64832 0
M  V30 4416 C 433.566 -4.40782 3.94291 0
M  V30 4417 H 432.496 -0.654417 0.374505 0
M  V30 4418 H 435.147 -1.13521 1.44171 0
M  V30 4419 H 433.529 -3.75549 1.25614 0
M  V30 4420 H 434.703 -2.54074 3.84425 0
M  V30 4421 H 433.018 -2.42625 3.38411 0
M  V30 4422 H 435.615 -4.90644 2.12539 0
M  V30 4423 H 435.958 -4.11884 0.604745 0
M  V30 4424 H 436.491 -3.36236 2.12579 0
M  V30 4425 H 433.23 -4.25292 4.98805 0
M  V30 4426 H 432.75 -4.9307 3.41529 0
M  V30 4427 H 434.429 -5.09621 3.98617 0
M  V30 4428 N 434.561 -1.01147 -1.20859 0
M  V30 4429 C 435.81 -0.693214 -1.89413 0
M  V30 4430 C 436.123 0.779969 -1.79376 0
M  V30 4431 O 437.329 1.21057 -2.43017 0
M  V30 4432 C 435.785 -1.18949 -3.39675 0
M  V30 4433 C 435.393 -2.68921 -3.58309 0
M  V30 4434 C 437.137 -0.94642 -4.13815 0
M  V30 4435 C 435.044 -3.12056 -5.0237 0
M  V30 4436 H 433.974 -0.255595 -0.709357 0
M  V30 4437 H 436.625 -1.22349 -1.36759 0
M  V30 4438 H 435.007 -0.587228 -3.91622 0
M  V30 4439 H 436.181 -3.34652 -3.16772 0
M  V30 4440 H 434.496 -2.91314 -2.97532 0
M  V30 4441 H 437.093 -1.24417 -5.20023 0
M  V30 4442 H 437.436 0.117219 -4.16135 0
M  V30 4443 H 437.969 -1.5118 -3.67953 0
M  V30 4444 H 434.708 -4.17674 -5.05202 0
M  V30 4445 H 434.228 -2.51041 -5.44737 0
M  V30 4446 H 435.907 -3.04403 -5.70918 0
M  V30 4447 N 436.039 1.36541 -0.78704 0
M  V30 4448 C 436.971 2.28761 -0.141773 0
M  V30 4449 C 437.984 1.49365 0.647599 0
M  V30 4450 O 439.173 1.71836 0.483173 0
M  V30 4451 C 436.273 3.28771 0.822368 0
M  V30 4452 C 435.446 4.3732 0.0835594 0
M  V30 4453 C 434.505 5.17307 0.963296 0
M  V30 4454 O 433.531 5.67638 0.421419 0
M  V30 4455 N 434.733 5.33515 2.28784 0
M  V30 4456 H 437.498 2.84777 -0.933919 0
M  V30 4457 H 435.059 1.48682 -0.640735 0
M  V30 4458 H 437.051 3.79169 1.41468 0
M  V30 4459 H 435.621 2.73412 1.5154 0
M  V30 4460 H 434.841 3.88118 -0.689809 0
M  V30 4461 H 436.129 5.0701 -0.426358 0
M  V30 4462 H 435.527 4.94234 2.75226 0
M  V30 4463 H 434.084 5.87165 2.82985 0
M  V30 4464 N 437.518 0.538854 1.48102 0
M  V30 4465 C 438.934 0.19732 1.58376 0
M  V30 4466 C 439.134 -1.29971 1.5398 0
M  V30 4467 O 438.19 -2.07861 1.43352 0
M  V30 4468 C 439.503 0.807716 2.89649 0
M  V30 4469 C 441.051 0.77726 3.03196 0
M  V30 4470 C 441.526 1.36639 4.37143 0
M  V30 4471 N 443.017 1.32875 4.43732 0
M  V30 4472 C 443.752 1.7544 5.45901 0
M  V30 4473 N 443.248 2.25776 6.54979 0
M  V30 4474 N 445.041 1.66623 5.36836 0
M  V30 4475 H 437.192 1.5117 1.49202 0
M  V30 4476 H 439.455 0.629327 0.708979 0
M  V30 4477 H 439.161 1.85909 2.98548 0
M  V30 4478 H 439.035 0.289975 3.76084 0
M  V30 4479 H 441.422 -0.265374 2.93904 0
M  V30 4480 H 441.503 1.33256 2.18349 0
M  V30 4481 H 441.147 2.408 4.47189 0
M  V30 4482 H 441.077 0.786689 5.20691 0
M  V30 4483 H 443.568 0.96037 3.65493 0
M  V30 4484 H 443.881 2.56226 7.29087 0
M  V30 4485 H 442.226 2.29775 6.55918 0
M  V30 4486 H 445.417 1.27089 4.50517 0
M  V30 4487 H 445.59 2.00115 6.16326 0
M  V30 4488 N 438.996 -1.55193 0.274407 0
M  V30 4489 C 439.944 -2.23924 -0.629362 0
M  V30 4490 C 440.938 -1.23602 -1.1584 0
M  V30 4491 O 442.144 -1.41535 -1.11211 0
M  V30 4492 H 438.519 -0.718637 -0.221507 0
M  V30 4493 H 440.49 -2.98388 -0.0268322 0
M  V30 4494 C 439.239 -2.97329 -1.80252 0
M  V30 4495 H 438.562 -3.74313 -1.40462 0
M  V30 4496 H 440.002 -3.48743 -2.41152 0
M  V30 4497 C 438.461 -2.0276 -2.69054 0
M  V30 4498 O 438.991 -1.57836 -3.69392 0
M  V30 4499 N 437.197 -1.69275 -2.36208 0
M  V30 4500 H 436.744 -2.06004 -1.54661 0
M  V30 4501 H 436.702 -1.06271 -2.95895 0
M  V30 4502 N 440.474 -0.00167713 -1.576 0
M  V30 4503 C 441.421 0.989195 -2.08527 0
M  V30 4504 C 442.391 1.34031 -0.981065 0
M  V30 4505 O 443.576 1.43839 -1.2536 0
M  V30 4506 C 440.716 2.27537 -2.59463 0
M  V30 4507 C 439.829 1.98314 -3.83791 0
M  V30 4508 C 438.964 3.21025 -4.23222 0
M  V30 4509 C 438.003 2.87495 -5.40382 0
M  V30 4510 N 437.14 4.02749 -5.75098 0
M  V30 4511 H 441.98 0.547973 -2.92919 0
M  V30 4512 H 439.517 0.258917 -1.44803 0
M  V30 4513 H 441.475 3.02729 -2.87073 0
M  V30 4514 H 440.105 2.69325 -1.77943 0
M  V30 4515 H 439.157 1.13482 -3.63078 0
M  V30 4516 H 440.469 1.69601 -4.69081 0
M  V30 4517 H 439.623 4.04561 -4.52123 0
M  V30 4518 H 438.362 3.52877 -3.36644 0
M  V30 4519 H 437.367 2.02367 -5.11202 0
M  V30 4520 H 438.592 2.56889 -6.28637 0
M  V30 4521 H 436.538 4.34494 -4.91478 0
M  V30 4522 H 436.455 3.77566 -6.54966 0
M  V30 4523 H 437.723 4.87068 -6.08592 0
M  V30 4524 O 441.991 1.60887 0.140552 0
M  V30 4525 H 442.682 1.77558 0.77413 0
M  V30 END ATOM
M  V30 BEGIN BOND
M  V30 END BOND
M  V30 END CTAB
M  END
$$$$
