drugbank_target|A0A1K3GRG2 Cyd operon protein YbgE (DB05154)
 OpenBabel12092121203D

  0  0  0     0  0            999 V3000
M  V30 BEGIN CTAB
M  V30 COUNTS 1528 1551 0 0 0
M  V30 BEGIN ATOM
M  V30 1 H -0.908 1.98254 -0.117106 0
M  V30 2 N 0 1.576 0 0
M  V30 3 C 0.933 2.03868 1.02534 0
M  V30 4 C 1.911 0.928543 1.3348 0
M  V30 5 O 3.095 1.19667 1.45644 0
M  V30 6 C 0.222 2.43627 2.35294 0
M  V30 7 C -0.732 3.65373 2.2001 0
M  V30 8 S 0.101 5.13292 1.52614 0
M  V30 9 C 1.257 5.56322 2.86805 0
M  V30 10 H 1.49 2.90518 0.631377 0
M  V30 11 H -0.977 1.52953 0.210867 0
M  V30 12 H 0.981 2.67203 3.11629 0
M  V30 13 H -0.358 1.57376 2.7183 0
M  V30 14 H -1.165 3.90944 3.18086 0
M  V30 15 H -1.563 3.418 1.51819 0
M  V30 16 H 0.729 5.58782 3.83104 0
M  V30 17 H 1.672 6.56266 2.65933 0
M  V30 18 H 2.08 4.83886 2.90714 0
M  V30 19 N 1.4781 -0.272755 1.55222 0
M  V30 20 C 2.4081 -1.34136 1.91127 0
M  V30 21 C 3.3891 -1.51513 0.773168 0
M  V30 22 O 4.5741 -1.64552 1.03132 0
M  V30 23 C 1.7041 -2.70083 2.1834 0
M  V30 24 C 0.6581 -2.67437 3.34158 0
M  V30 25 C -0.0159 -4.06938 3.46851 0
M  V30 26 C 1.2841 -2.26686 4.70543 0
M  V30 27 H 2.9781 -1.04333 2.80633 0
M  V30 28 H 0.5241 -0.500454 1.35024 0
M  V30 29 H 2.4771 -3.44952 2.42046 0
M  V30 30 H 1.2011 -3.01469 1.25634 0
M  V30 31 H -0.1399 -1.95026 3.1042 0
M  V30 32 H -0.4919 -4.35547 2.51611 0
M  V30 33 H -0.7919 -4.06062 4.2472 0
M  V30 34 H 0.7321 -4.83545 3.72849 0
M  V30 35 H 2.1461 -2.91277 4.93792 0
M  V30 36 H 0.5431 -2.36971 5.5133 0
M  V30 37 H 1.6131 -1.21818 4.69349 0
M  V30 38 N 2.9562 -1.48159 -0.537278 0
M  V30 39 C 4.2332 -1.46291 -1.29839 0
M  V30 40 C 4.6132 -0.170613 -2.10409 0
M  V30 41 O 3.9612 0.847746 -2.12192 0
M  V30 42 C 4.1712 -2.72055 -2.18603 0
M  V30 43 C 5.5192 -3.20087 -2.7898 0
M  V30 44 O 6.5432 -2.72921 -2.28894 0
M  V30 45 O 5.4022 -4.02138 -3.70064 0
M  V30 46 H 2.4962 -0.583906 -0.585647 0
M  V30 47 H 5.0422 -1.60384 -0.554534 0
M  V30 48 H 3.8142 -3.57628 -1.58801 0
M  V30 49 H 3.4372 -2.60646 -3.00249 0
M  V30 50 N 4.4343 0.785586 -1.36625 0
M  V30 51 C 5.3813 1.89838 -1.31264 0
M  V30 52 C 6.3513 1.65115 -0.180633 0
M  V30 53 O 7.5363 1.87222 -0.36777 0
M  V30 54 C 4.6763 3.26706 -1.11163 0
M  V30 55 C 3.7893 3.63476 -2.33472 0
M  V30 56 C 2.9243 4.89481 -2.06353 0
M  V30 57 C 1.9633 5.18941 -3.24602 0
M  V30 58 N 1.1003 6.36131 -2.97123 0
M  V30 59 H 5.9403 1.93756 -2.26413 0
M  V30 60 H 3.4773 0.947454 -1.12524 0
M  V30 61 H 5.4353 4.05639 -0.975337 0
M  V30 62 H 4.0653 3.222 -0.196674 0
M  V30 63 H 3.1173 2.79636 -2.57891 0
M  V30 64 H 4.4293 3.81193 -3.21704 0
M  V30 65 H 3.5833 5.76288 -1.89675 0
M  V30 66 H 2.3223 4.73841 -1.15437 0
M  V30 67 H 1.3273 4.30615 -3.41834 0
M  V30 68 H 2.5523 5.36498 -4.16349 0
M  V30 69 H 0.4983 6.21875 -2.08823 0
M  V30 70 H 0.4153 6.54198 -3.78894 0
M  V30 71 H 1.6833 7.2591 -2.84033 0
M  V30 72 N 5.9124 1.20967 1.01018 0
M  V30 73 C 7.1374 1.0503 1.78839 0
M  V30 74 C 7.5624 -0.395752 1.8389 0
M  V30 75 O 6.9204 -1.28529 1.27867 0
M  V30 76 C 6.9684 1.64602 3.2084 0
M  V30 77 O 6.0724 0.887988 4.02726 0
M  V30 78 H 5.4134 0.369987 0.551367 0
M  V30 79 H 7.9434 1.60399 1.27018 0
M  V30 80 H 7.9534 1.68607 3.71532 0
M  V30 81 H 6.6284 2.69841 3.16479 0
M  V30 82 H 5.2054 0.922648 3.61305 0
M  V30 83 N 7.3905 -1.2043 1.01659 0
M  V30 84 C 8.6205 -1.93496 0.724081 0
M  V30 85 C 9.0285 -1.74998 -0.71918 0
M  V30 86 O 8.3715 -1.06118 -1.49949 0
M  V30 87 C 8.4335 -3.45886 0.97994 0
M  V30 88 C 8.0975 -3.88145 2.41232 0
M  V30 89 C 9.0945 -3.93907 3.39313 0
M  V30 90 C 6.7795 -4.20134 2.75305 0
M  V30 91 C 8.7735 -4.31069 4.6953 0
M  V30 92 C 6.4605 -4.56971 4.05735 0
M  V30 93 C 7.4585 -4.62411 5.02658 0
M  V30 94 O 7.1465 -4.98403 6.30754 0
M  V30 95 H 6.8785 -0.621824 0.265162 0
M  V30 96 H 9.4325 -1.53867 1.36066 0
M  V30 97 H 7.6625 -3.85639 0.286198 0
M  V30 98 H 9.3515 -4.0018 0.679021 0
M  V30 99 H 10.1175 -3.69357 3.14325 0
M  V30 100 H 5.9965 -4.1509 2.00551 0
M  V30 101 H 9.5405 -4.3523 5.45179 0
M  V30 102 H 5.4375 -4.80977 4.30502 0
M  V30 103 H 6.2055 -5.16395 6.35042 0
M  V30 104 N 8.8686 -0.792821 -1.36206 0
M  V30 105 C 9.8006 -0.151469 -2.28699 0
M  V30 106 C 10.8136 0.641262 -1.49638 0
M  V30 107 O 12.0026 0.475885 -1.72039 0
M  V30 108 C 9.1026 0.808424 -3.29117 0
M  V30 109 C 8.2756 0.0650202 -4.37352 0
M  V30 110 C 7.3346 0.941358 -5.17711 0
M  V30 111 O 6.3606 0.397352 -5.67811 0
M  V30 112 N 7.5626 2.2652 -5.3448 0
M  V30 113 H 10.3276 -0.945982 -2.84379 0
M  V30 114 H 7.8886 -0.647032 -1.48409 0
M  V30 115 H 9.8806 1.3986 -3.79765 0
M  V30 116 H 8.4506 1.5038 -2.74052 0
M  V30 117 H 7.6706 -0.706255 -3.87822 0
M  V30 118 H 8.9586 -0.447847 -5.06825 0
M  V30 119 H 8.3566 2.73128 -4.95396 0
M  V30 120 H 6.9136 2.80493 -5.88359 0
M  V30 121 N 10.3467 1.47872 -0.545128 0
M  V30 122 C 11.2767 2.32661 0.197793 0
M  V30 123 C 12.2577 1.43041 0.920504 0
M  V30 124 O 13.4427 1.71912 0.90333 0
M  V30 125 C 10.5727 3.24569 1.23582 0
M  V30 126 C 9.5267 4.23333 0.630323 0
M  V30 127 C 8.8527 5.0448 1.77211 0
M  V30 128 C 10.1527 5.20704 -0.407974 0
M  V30 129 H 11.8467 2.95024 -0.510045 0
M  V30 130 H 9.3927 1.4187 -0.246731 0
M  V30 131 H 11.3457 3.8272 1.76362 0
M  V30 132 H 10.0697 2.60236 1.97344 0
M  V30 133 H 8.7287 3.6639 0.123922 0
M  V30 134 H 8.3767 4.36561 2.49847 0
M  V30 135 H 8.0767 5.71339 1.37281 0
M  V30 136 H 9.6007 5.65487 2.3034 0
M  V30 137 H 11.0147 5.7329 0.033305 0
M  V30 138 H 9.4117 5.95699 -0.725486 0
M  V30 139 H 10.4817 4.66917 -1.30828 0
M  V30 140 N 11.8248 0.280983 1.55075 0
M  V30 141 C 12.7548 -0.597469 2.25727 0
M  V30 142 C 13.7358 -1.15417 1.24952 0
M  V30 143 O 14.9208 -1.18722 1.53684 0
M  V30 144 C 12.0508 -1.7789 2.98283 0
M  V30 145 C 11.0048 -1.35347 4.06036 0
M  V30 146 C 10.3308 -2.61846 4.66198 0
M  V30 147 C 11.6308 -0.499354 5.19907 0
M  V30 148 H 13.3248 -0.00824265 2.99399 0
M  V30 149 H 10.8708 -0.0025244 1.44 0
M  V30 150 H 12.8238 -2.39937 3.46422 0
M  V30 151 H 11.5478 -2.39405 2.22155 0
M  V30 152 H 10.2068 -0.756156 3.58717 0
M  V30 153 H 9.8548 -3.21632 3.86732 0
M  V30 154 H 9.5548 -2.3409 5.38958 0
M  V30 155 H 11.0788 -3.24732 5.1709 0
M  V30 156 H 12.4928 -1.02498 5.64063 0
M  V30 157 H 10.8898 -0.316424 5.99265 0
M  V30 158 H 11.9598 0.480459 4.82514 0
M  V30 159 N 13.3029 -1.57598 0.00835791 0
M  V30 160 C 14.5799 -1.82172 -0.712235 0
M  V30 161 C 14.9599 -0.887873 -1.9152 0
M  V30 162 O 14.3079 0.06146 -2.28417 0
M  V30 163 C 14.5179 -3.30875 -1.11008 0
M  V30 164 C 15.8659 -3.96826 -1.51044 0
M  V30 165 O 16.8899 -3.35248 -1.20364 0
M  V30 166 O 15.7489 -5.05318 -2.08125 0
M  V30 167 H 12.8429 -0.750435 -0.347529 0
M  V30 168 H 15.3889 -1.69665 0.0344523 0
M  V30 169 H 14.1609 -3.90481 -0.252982 0
M  V30 170 H 13.7839 -3.48412 -1.9156 0
M  V30 171 N 14.781 0.264519 -1.55364 0
M  V30 172 C 15.728 1.32717 -1.88825 0
M  V30 173 C 16.698 1.48675 -0.740605 0
M  V30 174 O 17.883 1.62945 -0.992657 0
M  V30 175 C 15.023 2.68089 -2.17307 0
M  V30 176 C 14.136 2.60284 -3.44785 0
M  V30 177 C 13.271 3.87892 -3.62924 0
M  V30 178 C 12.31 3.74631 -4.84064 0
M  V30 179 N 11.447 4.94092 -4.98816 0
M  V30 180 H 16.287 1.03481 -2.79456 0
M  V30 181 H 13.824 0.499757 -1.3835 0
M  V30 182 H 15.782 3.46864 -2.31821 0
M  V30 183 H 14.412 2.95509 -1.299 0
M  V30 184 H 13.464 1.73173 -3.38697 0
M  V30 185 H 14.776 2.46388 -4.33698 0
M  V30 186 H 13.93 4.75109 -3.77302 0
M  V30 187 H 12.669 4.04664 -2.7221 0
M  V30 188 H 11.674 2.85797 -4.69681 0
M  V30 189 H 12.899 3.5937 -5.76221 0
M  V30 190 H 10.845 5.11259 -4.11036 0
M  V30 191 H 10.762 4.8276 -5.81789 0
M  V30 192 H 12.03 5.82857 -5.17588 0
M  V30 193 N 16.2591 1.48442 0.529413 0
M  V30 194 C 17.5071 1.56179 1.28267 0
M  V30 195 C 17.8281 0.237721 1.93546 0
M  V30 196 O 17.0981 -0.740779 1.81354 0
M  V30 197 H 15.6781 0.575367 0.476405 0
M  V30 198 H 18.3401 1.84909 0.61602 0
M  V30 199 H 17.4361 2.34312 2.06165 0
M  V30 200 N 17.7372 -0.778329 1.37039 0
M  V30 201 C 19.1482 -1.35421 1.28523 0
M  V30 202 C 19.4992 -1.96075 -0.0700901 0
M  V30 203 O 18.6242 -1.93352 -0.971801 0
M  V30 204 C 19.2192 -2.46211 2.32735 0
M  V30 205 C 17.7782 -2.99585 2.27873 0
M  V30 206 C 16.9252 -1.72748 2.16918 0
M  V30 207 H 19.8762 -0.5791 1.47757 0
M  V30 208 H 19.8972 -3.2552 1.9702 0
M  V30 209 H 19.4092 -2.02036 3.31365 0
M  V30 210 H 17.5102 -3.48152 1.32745 0
M  V30 211 H 17.6232 -3.55646 3.21018 0
M  V30 212 H 15.9872 -1.95416 1.63354 0
M  V30 213 H 16.7702 -1.30686 3.17452 0
M  V30 214 N 19.2153 -1.21501 -1.00376 0
M  V30 215 C 20.1453 -0.999478 -2.11028 0
M  V30 216 C 21.1263 0.0759671 -1.6993 0
M  V30 217 O 22.3113 -0.0841106 -1.94018 0
M  V30 218 C 19.4413 -0.564709 -3.42678 0
M  V30 219 C 18.3953 -1.58486 -3.97576 0
M  V30 220 C 17.7213 -1.00628 -5.25146 0
M  V30 221 C 19.0213 -2.97204 -4.29496 0
M  V30 222 H 20.7153 -1.92495 -2.29317 0
M  V30 223 H 18.2613 -0.92693 -1.102 0
M  V30 224 H 20.2143 -0.401091 -4.19487 0
M  V30 225 H 18.9383 0.396411 -3.24185 0
M  V30 226 H 17.5973 -1.73606 -3.22888 0
M  V30 227 H 17.2453 -0.0368439 -5.02987 0
M  V30 228 H 16.9453 -1.68771 -5.62841 0
M  V30 229 H 18.4693 -0.854015 -6.04598 0
M  V30 230 H 19.8833 -2.8552 -4.97143 0
M  V30 231 H 18.2803 -3.62372 -4.78338 0
M  V30 232 H 19.3503 -3.47956 -3.3772 0
M  V30 233 N 20.6934 1.19889 -1.02296 0
M  V30 234 C 22.1094 1.41462 -0.738954 0
M  V30 235 C 22.3094 1.89721 0.678846 0
M  V30 236 O 21.3654 2.07016 1.4457 0
M  V30 237 C 22.6784 2.43083 -1.77005 0
M  V30 238 C 24.2264 2.5684 -1.78892 0
M  V30 239 C 24.7014 3.61709 -2.80945 0
M  V30 240 N 26.1924 3.69199 -2.79725 0
M  V30 241 C 26.9274 4.50019 -3.55345 0
M  V30 242 N 26.4234 5.34592 -4.40662 0
M  V30 243 N 28.2164 4.44612 -3.43914 0
M  V30 244 H 20.3674 0.868827 -1.93817 0
M  V30 245 H 22.6304 0.44399 -0.837602 0
M  V30 246 H 22.3364 2.14636 -2.78612 0
M  V30 247 H 22.2104 3.4217 -1.58744 0
M  V30 248 H 24.5974 2.84614 -0.779674 0
M  V30 249 H 24.6784 1.57927 -2.01228 0
M  V30 250 H 24.3224 3.34678 -3.82038 0
M  V30 251 H 24.2524 4.60259 -2.5587 0
M  V30 252 H 26.7434 3.08794 -2.17842 0
M  V30 253 H 27.0564 5.93363 -4.95116 0
M  V30 254 H 25.4014 5.34073 -4.44737 0
M  V30 255 H 28.5924 3.7758 -2.76679 0
M  V30 256 H 28.7654 5.0736 -4.031 0
M  V30 257 N 22.1715 0.800033 1.35784 0
M  V30 258 C 23.1345 0.211565 2.28221 0
M  V30 259 C 24.1345 -0.59728 1.49296 0
M  V30 260 O 25.3245 -0.416721 1.69142 0
M  V30 261 C 22.4565 -0.705846 3.33513 0
M  V30 262 H 23.6495 1.02677 2.81776 0
M  V30 263 H 21.2025 0.570211 1.45528 0
M  V30 264 H 21.9375 -1.54498 2.85133 0
M  V30 265 H 21.7225 -0.127655 3.91892 0
M  V30 266 H 23.2125 -1.11211 4.02519 0
M  V30 267 N 23.6496 -1.47581 0.552962 0
M  V30 268 C 24.5796 -2.32762 -0.185451 0
M  V30 269 C 25.5606 -1.43527 -0.912905 0
M  V30 270 O 26.7456 -1.72388 -0.894201 0
M  V30 271 C 23.8756 -3.25219 -1.21859 0
M  V30 272 C 22.8296 -4.23661 -0.607864 0
M  V30 273 C 22.1556 -5.05413 -1.74533 0
M  V30 274 C 23.4556 -5.20481 0.435582 0
M  V30 275 H 25.1496 -2.94749 0.525684 0
M  V30 276 H 22.6956 -1.41738 0.254251 0
M  V30 277 H 24.6486 -3.8365 -1.7433 0
M  V30 278 H 23.3726 -2.61279 -1.95961 0
M  V30 279 H 22.0316 -3.66451 -0.104489 0
M  V30 280 H 21.6796 -4.3788 -2.47529 0
M  V30 281 H 21.3796 -5.72059 -1.34249 0
M  V30 282 H 22.9036 -5.66701 -2.27338 0
M  V30 283 H 24.3176 -5.733 -0.00290157 0
M  V30 284 H 22.7146 -5.95305 0.757067 0
M  V30 285 H 23.7846 -4.66217 1.33303 0
M  V30 286 N 25.1277 -0.289203 -1.54924 0
M  V30 287 C 26.3737 0.323998 -2.00195 0
M  V30 288 C 26.7067 1.54441 -1.17735 0
M  V30 289 O 25.9817 1.92875 -0.250878 0
M  V30 290 C 26.2647 0.692276 -3.53383 0
M  V30 291 C 26.1177 -0.536457 -4.46589 0
M  V30 292 C 27.4367 1.52335 -4.12895 0
M  V30 293 H 24.5557 0.116289 -0.727768 0
M  V30 294 H 27.1977 -0.398954 -1.85764 0
M  V30 295 H 25.3477 1.30822 -3.65811 0
M  V30 296 H 27.0197 -1.17499 -4.46085 0
M  V30 297 H 25.2627 -1.17192 -4.1767 0
M  V30 298 H 25.9337 -0.234806 -5.515 0
M  V30 299 H 28.4097 1.00302 -4.0383 0
M  V30 300 H 27.2857 1.74982 -5.20262 0
M  V30 301 H 27.5467 2.50886 -3.64018 0
M  V30 302 N 26.6058 1.57591 -0.0167156 0
M  V30 303 C 27.5358 2.12496 0.967858 0
M  V30 304 C 28.5168 1.03807 1.34752 0
M  V30 305 O 29.7018 1.31577 1.42833 0
M  V30 306 C 26.8318 2.64194 2.25431 0
M  V30 307 C 25.7858 3.77559 2.01576 0
M  V30 308 C 25.1118 4.15636 3.36379 0
M  V30 309 C 26.4118 5.04151 1.36489 0
M  V30 310 H 28.1058 2.95013 0.510643 0
M  V30 311 H 25.6518 1.41915 0.244181 0
M  V30 312 H 27.6048 3.01236 2.94678 0
M  V30 313 H 26.3288 1.78821 2.73296 0
M  V30 314 H 24.9878 3.40937 1.34751 0
M  V30 315 H 24.6358 3.27263 3.81979 0
M  V30 316 H 24.3358 4.92022 3.21229 0
M  V30 317 H 25.8598 4.5525 4.06915 0
M  V30 318 H 27.2738 5.38857 1.95718 0
M  V30 319 H 25.6708 5.85453 1.31776 0
M  V30 320 H 26.7408 4.83733 0.336219 0
M  V30 321 N 28.0839 -0.256276 1.55502 0
M  V30 322 C 29.3329 -0.983486 1.76098 0
M  V30 323 C 29.6459 -1.86837 0.578896 0
M  V30 324 O 30.8519 -2.63163 0.667648 0
M  V30 325 C 29.3079 -1.79868 3.1173 0
M  V30 326 C 28.9159 -0.961648 4.37557 0
M  V30 327 C 30.6599 -2.51919 3.41668 0
M  V30 328 C 28.5669 -1.77219 5.64223 0
M  V30 329 H 27.4969 -0.370936 0.656447 0
M  V30 330 H 30.1479 -0.238492 1.81944 0
M  V30 331 H 28.5299 -2.58527 2.99966 0
M  V30 332 H 29.7039 -0.218048 4.60284 0
M  V30 333 H 28.0189 -0.354913 4.14885 0
M  V30 334 H 30.6159 -3.12998 4.33516 0
M  V30 335 H 30.9589 -3.23059 2.62562 0
M  V30 336 H 31.4919 -1.80278 3.54605 0
M  V30 337 H 28.2309 -1.10471 6.46124 0
M  V30 338 H 27.7509 -2.49132 5.45613 0
M  V30 339 H 29.4299 -2.34169 6.03137 0
M  V30 340 N 29.562 -1.4872 -0.521534 0
M  V30 341 C 30.495 -1.58451 -1.64221 0
M  V30 342 C 31.473 -0.434513 -1.56687 0
M  V30 343 O 32.657 -0.647275 -1.77038 0
M  V30 344 C 29.784 -1.52037 -3.02659 0
M  V30 345 C 28.83 -2.71981 -3.28525 0
M  V30 346 S 29.663 -4.33869 -3.13876 0
M  V30 347 C 30.819 -4.30067 -4.54745 0
M  V30 348 H 31.052 -2.53256 -1.55719 0
M  V30 349 H 28.585 -1.37358 -0.705143 0
M  V30 350 H 30.543 -1.49023 -3.82495 0
M  V30 351 H 29.204 -0.585541 -3.08594 0
M  V30 352 H 28.397 -2.63656 -4.29536 0
M  V30 353 H 27.999 -2.72302 -2.56374 0
M  V30 354 H 30.291 -4.00521 -5.46433 0
M  V30 355 H 31.234 -5.31287 -4.68123 0
M  V30 356 H 31.642 -3.60419 -4.34463 0
M  V30 357 N 31.0401 0.771051 -1.3745 0
M  V30 358 C 32.0031 1.86598 -1.33093 0
M  V30 359 C 33.0031 1.59076 -0.234845 0
M  V30 360 O 34.1931 1.67145 -0.490732 0
M  V30 361 C 31.3251 3.23747 -1.06773 0
M  V30 362 H 32.5181 1.91873 -2.30488 0
M  V30 363 H 30.0711 0.970876 -1.2249 0
M  V30 364 H 30.8061 3.24148 -0.099129 0
M  V30 365 H 30.5911 3.45115 -1.86112 0
M  V30 366 H 32.0811 4.03824 -1.06377 0
M  V30 367 N 32.5182 1.22032 0.997298 0
M  V30 368 C 33.4482 1.01065 2.10495 0
M  V30 369 C 34.4292 -0.0669542 1.69968 0
M  V30 370 O 35.6142 0.0943987 1.9397 0
M  V30 371 C 32.7442 0.582874 3.42374 0
M  V30 372 C 31.6982 1.60592 3.96729 0
M  V30 373 C 31.0242 1.03412 5.24605 0
M  V30 374 C 32.3242 2.99478 4.27914 0
M  V30 375 H 34.0182 1.93708 2.28292 0
M  V30 376 H 31.5642 0.932761 1.09707 0
M  V30 377 H 33.5172 0.423332 4.19268 0
M  V30 378 H 32.2412 -0.379213 3.24391 0
M  V30 379 H 30.9002 1.75316 3.21963 0
M  V30 380 H 30.5482 0.063518 5.0296 0
M  V30 381 H 30.2482 1.71754 5.61938 0
M  V30 382 H 31.7722 0.886066 6.04137 0
M  V30 383 H 33.1862 2.88153 4.95622 0
M  V30 384 H 31.5832 3.64903 4.76409 0
M  V30 385 H 32.6532 3.49742 3.3587 0
M  V30 386 N 33.9963 -1.19345 1.0293 0
M  V30 387 C 35.2443 -1.88665 0.724574 0
M  V30 388 C 35.5653 -1.80036 -0.749144 0
M  V30 389 O 34.8353 -1.2111 -1.53978 0
M  V30 390 H 33.4153 -0.698406 0.265025 0
M  V30 391 H 36.0773 -1.44885 1.30362 0
M  V30 392 H 35.1733 -2.94987 1.01926 0
M  V30 393 N 35.4744 -0.807222 -1.35358 0
M  V30 394 C 36.4044 -0.232509 -2.3234 0
M  V30 395 C 37.3854 0.642386 -1.57504 0
M  V30 396 O 38.5704 0.572526 -1.85569 0
M  V30 397 C 35.7004 0.619238 -3.41735 0
M  V30 398 C 34.6544 -0.157215 -4.27711 0
M  V30 399 C 33.9804 0.816273 -5.28433 0
M  V30 400 C 35.2804 -1.35656 -5.04376 0
M  V30 401 H 36.9744 -1.04276 -2.80654 0
M  V30 402 H 34.5204 -0.50288 -1.34934 0
M  V30 403 H 36.4734 1.03137 -4.08584 0
M  V30 404 H 35.1974 1.46239 -2.92031 0
M  V30 405 H 33.8564 -0.550525 -3.62443 0
M  V30 406 H 33.5044 1.65494 -4.74996 0
M  V30 407 H 33.2044 0.301067 -5.86828 0
M  V30 408 H 34.7284 1.22659 -5.98153 0
M  V30 409 H 36.1424 -1.01927 -5.64166 0
M  V30 410 H 34.5394 -1.8063 -5.7227 0
M  V30 411 H 35.6094 -2.14288 -4.34981 0
M  V30 412 N 36.9525 1.47285 -0.560781 0
M  V30 413 C 37.9155 2.28535 0.174488 0
M  V30 414 C 38.9155 1.37153 0.839388 0
M  V30 415 O 40.1055 1.59748 0.694702 0
M  V30 416 C 37.2375 3.16934 1.25561 0
M  V30 417 H 38.4305 2.95012 -0.539262 0
M  V30 418 H 35.9835 1.53034 -0.317865 0
M  V30 419 H 36.7185 2.55157 2.00164 0
M  V30 420 H 36.5035 3.8419 0.783604 0
M  V30 421 H 37.9935 3.78143 1.77193 0
M  V30 422 N 38.4306 0.297415 1.54768 0
M  V30 423 C 39.3606 -0.573494 2.26348 0
M  V30 424 C 40.3416 -1.14085 1.26169 0
M  V30 425 O 41.5266 -1.17086 1.54934 0
M  V30 426 C 38.6566 -1.74716 3.00153 0
M  V30 427 C 37.6106 -1.31032 4.07449 0
M  V30 428 C 36.9366 -2.56887 4.68949 0
M  V30 429 C 38.2366 -0.444183 5.20408 0
M  V30 430 H 39.9306 0.0235131 2.99391 0
M  V30 431 H 37.4766 0.0127488 1.43994 0
M  V30 432 H 39.4296 -2.3625 3.48947 0
M  V30 433 H 38.1536 -2.37035 2.24682 0
M  V30 434 H 36.8126 -0.718066 3.59499 0
M  V30 435 H 36.4606 -3.17512 3.90122 0
M  V30 436 H 36.1606 -2.2836 5.41411 0
M  V30 437 H 37.6846 -3.19229 5.20505 0
M  V30 438 H 39.0986 -0.9651 5.65118 0
M  V30 439 H 37.4956 -0.252846 5.99567 0
M  V30 440 H 38.5656 0.531609 4.81977 0
M  V30 441 N 39.9087 -1.5758 0.0250728 0
M  V30 442 C 41.1337 -1.96337 -0.668317 0
M  V30 443 C 41.5587 -0.901314 -1.651 0
M  V30 444 O 40.9167 0.138187 -1.80773 0
M  V30 445 C 40.9647 -3.34191 -1.35457 0
M  V30 446 O 40.0687 -3.30269 -2.46974 0
M  V30 447 H 39.4097 -0.640281 -0.175887 0
M  V30 448 H 41.9397 -2.0442 0.0857224 0
M  V30 449 H 41.9497 -3.70331 -1.71228 0
M  V30 450 H 40.6247 -4.11036 -0.634218 0
M  V30 451 H 39.2017 -3.05841 -2.13344 0
M  V30 452 N 41.3868 0.248026 -1.55636 0
M  V30 453 C 42.6328 0.97767 -1.77678 0
M  V30 454 C 42.9658 1.85016 -0.590135 0
M  V30 455 O 42.2408 1.90095 0.411611 0
M  V30 456 C 42.5238 1.83914 -3.09593 0
M  V30 457 C 42.3768 0.99491 -4.38659 0
M  V30 458 C 43.6958 2.82183 -3.37729 0
M  V30 459 H 40.8148 0.354005 -0.646413 0
M  V30 460 H 43.4568 0.248253 -1.88371 0
M  V30 461 H 41.6068 2.46104 -3.00608 0
M  V30 462 H 43.2788 0.391789 -4.59633 0
M  V30 463 H 41.5218 0.299231 -4.32767 0
M  V30 464 H 42.1928 1.63145 -5.2734 0
M  V30 465 H 44.6688 2.30129 -3.4667 0
M  V30 466 H 43.5448 3.39582 -4.31249 0
M  V30 467 H 43.8058 3.58588 -2.58586 0
M  V30 468 N 42.8649 1.48995 0.513639 0
M  V30 469 C 44.1139 1.57093 1.2651 0
M  V30 470 C 44.4269 0.257091 1.93903 0
M  V30 471 O 45.6329 0.216478 2.70636 0
M  V30 472 C 44.0889 2.77118 2.29638 0
M  V30 473 C 43.6969 4.15209 1.68241 0
M  V30 474 C 45.4409 2.94538 3.05692 0
M  V30 475 C 43.3479 5.26474 2.69406 0
M  V30 476 H 42.2779 0.584876 0.475854 0
M  V30 477 H 44.9289 1.7536 0.540487 0
M  V30 478 H 43.3109 2.52319 3.05207 0
M  V30 479 H 44.4849 4.50094 0.987505 0
M  V30 480 H 42.7999 4.03042 1.04623 0
M  V30 481 H 45.3969 3.74832 3.8132 0
M  V30 482 H 45.7399 2.04614 3.62545 0
M  V30 483 H 46.2729 3.19316 2.37238 0
M  V30 484 H 43.0119 6.18417 2.17351 0
M  V30 485 H 42.5319 4.96058 3.37175 0
M  V30 486 H 44.2109 5.55277 3.32078 0
M  V30 487 N 44.343 -0.763751 1.37857 0
M  V30 488 C 45.589 -1.52396 1.3471 0
M  V30 489 C 45.944 -1.92288 -0.0656435 0
M  V30 490 O 45.237 -1.6181 -1.02606 0
M  V30 491 C 45.431 -2.79499 2.22745 0
M  V30 492 C 45.26 -2.52031 3.72438 0
M  V30 493 C 44.03 -2.45759 4.4151 0
M  V30 494 C 46.228 -2.19489 4.65112 0
M  V30 495 N 44.21 -2.1046 5.76697 0
M  V30 496 C 45.581 -1.94396 5.88736 0
M  V30 497 C 47.636 -2.05712 4.53417 0
M  V30 498 C 46.339 -1.56917 7.01975 0
M  V30 499 C 48.365 -1.69634 5.66549 0
M  V30 500 C 47.727 -1.45407 6.89229 0
M  V30 501 H 43.826 -0.55765 0.548225 0
M  V30 502 H 46.41 -0.890302 1.73152 0
M  V30 503 H 44.581 -3.4069 1.86507 0
M  V30 504 H 46.313 -3.45465 2.10798 0
M  V30 505 H 43.068 -2.61885 3.94605 0
M  V30 506 H 43.492 -1.95484 6.48163 0
M  V30 507 H 48.134 -2.23123 3.59133 0
M  V30 508 H 45.852 -1.38246 7.96187 0
M  V30 509 H 49.438 -1.59621 5.59475 0
M  V30 510 H 48.318 -1.17904 7.75286 0
M  V30 511 N 45.8211 -1.22559 -0.990812 0
M  V30 512 C 47.0981 -0.959875 -1.70428 0
M  V30 513 C 47.4781 0.524455 -2.04481 0
M  V30 514 O 46.8261 1.49302 -1.72977 0
M  V30 515 C 47.0361 -1.85955 -2.95333 0
M  V30 516 C 48.3841 -2.11687 -3.68068 0
M  V30 517 O 49.4081 -1.8342 -3.05345 0
M  V30 518 O 48.2671 -2.59572 -4.80921 0
M  V30 519 H 45.3611 -0.361154 -0.743974 0
M  V30 520 H 47.9071 -1.33554 -1.04697 0
M  V30 521 H 46.6791 -2.86346 -2.66687 0
M  V30 522 H 46.3021 -1.4856 -3.68803 0
M  V30 523 N 47.2992 1.18797 -1.03562 0
M  V30 524 C 48.7102 1.70322 -0.764676 0
M  V30 525 C 49.0612 1.82708 0.714996 0
M  V30 526 O 48.1862 1.50299 1.55689 0
M  V30 527 C 48.7812 3.09356 -1.38145 0
M  V30 528 C 47.3402 3.58114 -1.15895 0
M  V30 529 C 46.4872 2.34798 -1.4753 0
M  V30 530 H 49.4382 1.03543 -1.20268 0
M  V30 531 H 49.4592 3.72378 -0.781977 0
M  V30 532 H 48.9712 3.00309 -2.45837 0
M  V30 533 H 47.0722 3.72464 -0.100544 0
M  V30 534 H 47.1852 4.4184 -1.8524 0
M  V30 535 H 45.5492 2.38464 -0.894829 0
M  V30 536 H 46.3322 2.28375 -2.56319 0
M  V30 537 N 48.7773 0.814389 1.34928 0
M  V30 538 C 50.0023 0.410097 2.03305 0
M  V30 539 C 50.4273 -0.973464 1.60951 0
M  V30 540 O 49.7853 -1.63185 0.789964 0
M  V30 541 C 49.8333 0.51049 3.56968 0
M  V30 542 O 48.9373 -0.473035 4.09678 0
M  V30 543 H 48.2783 0.170088 0.641846 0
M  V30 544 H 50.8083 1.10244 1.72358 0
M  V30 545 H 50.8183 0.383135 4.06197 0
M  V30 546 H 49.4933 1.51963 3.87144 0
M  V30 547 H 48.0703 -0.305272 3.71648 0
M  V30 548 N 50.2554 -1.46986 0.568584 0
M  V30 549 C 51.6714 -1.57946 0.229189 0
M  V30 550 C 51.8714 -1.56567 -1.26843 0
M  V30 551 O 50.9274 -1.47511 -2.04931 0
M  V30 552 C 52.2404 -2.87963 0.865909 0
M  V30 553 C 53.7884 -3.01568 0.838188 0
M  V30 554 C 54.2634 -4.34301 1.45419 0
M  V30 555 N 55.7544 -4.40965 1.41788 0
M  V30 556 C 56.4894 -5.42256 1.86403 0
M  V30 557 N 55.9854 -6.50297 2.38926 0
M  V30 558 N 57.7784 -5.3337 1.77405 0
M  V30 559 H 49.9294 -1.46126 1.54146 0
M  V30 560 H 52.1924 -0.696156 0.643484 0
M  V30 561 H 51.8984 -2.94742 1.91886 0
M  V30 562 H 51.7724 -3.75423 0.365687 0
M  V30 563 H 54.1594 -2.94379 -0.206106 0
M  V30 564 H 54.2404 -2.1562 1.37629 0
M  V30 565 H 53.8844 -4.42247 2.49761 0
M  V30 566 H 53.8144 -5.19 0.891435 0
M  V30 567 H 56.3054 -3.63484 1.03381 0
M  V30 568 H 56.6184 -7.23777 2.70863 0
M  V30 569 H 54.9634 -6.51155 2.42944 0
M  V30 570 H 58.1544 -4.47865 1.3614 0
M  V30 571 H 58.3274 -6.12169 2.12492 0
M  V30 572 N 51.7335 -0.305618 -1.54608 0
M  V30 573 C 52.9805 0.302298 -2.00231 0
M  V30 574 C 53.3085 1.5354 -1.19398 0
M  V30 575 O 52.5635 1.93973 -0.259423 0
M  V30 576 C 52.8625 0.698983 -3.50498 0
M  V30 577 C 52.5285 -0.432903 -4.48817 0
M  V30 578 C 51.1905 -0.743622 -4.75419 0
M  V30 579 C 53.5425 -1.19409 -5.07337 0
M  V30 580 C 50.8705 -1.81857 -5.57804 0
M  V30 581 C 53.2225 -2.25899 -5.90891 0
M  V30 582 C 51.8865 -2.57572 -6.15803 0
M  V30 583 H 51.1565 0.110619 -0.732697 0
M  V30 584 H 53.8035 -0.425674 -1.86709 0
M  V30 585 H 52.1085 1.50711 -3.61654 0
M  V30 586 H 53.8055 1.1806 -3.83227 0
M  V30 587 H 50.3955 -0.18063 -4.28219 0
M  V30 588 H 54.5795 -0.967295 -4.86782 0
M  V30 589 H 49.8355 -2.06864 -5.75341 0
M  V30 590 H 54.0095 -2.85335 -6.35261 0
M  V30 591 H 51.6365 -3.40998 -6.7943 0
M  V30 592 N 53.2116 1.57565 -0.0334293 0
M  V30 593 C 54.1746 2.09393 0.932048 0
M  V30 594 C 55.1746 1.00986 1.25134 0
M  V30 595 O 56.3646 1.27129 1.19096 0
M  V30 596 C 53.4966 2.56338 2.2473 0
M  V30 597 H 54.6896 2.95984 0.483085 0
M  V30 598 H 52.2426 1.54819 0.21468 0
M  V30 599 H 52.9776 1.7309 2.74245 0
M  V30 600 H 52.7626 3.35542 2.02865 0
M  V30 601 H 54.2526 2.96646 2.93923 0
M  V30 602 N 54.6897 -0.239769 1.55765 0
M  V30 603 C 55.6527 -1.28038 1.90103 0
M  V30 604 C 56.6527 -1.40723 0.778055 0
M  V30 605 O 57.8427 -1.39301 1.04599 0
M  V30 606 C 54.9747 -2.65702 2.13577 0
M  V30 607 H 56.1677 -0.988048 2.83157 0
M  V30 608 H 53.7207 -0.479382 1.48767 0
M  V30 609 H 54.4557 -3.00063 1.23015 0
M  V30 610 H 54.2407 -2.57875 2.95369 0
M  V30 611 H 55.7307 -3.40828 2.41301 0
M  V30 612 N 56.1678 -1.49265 -0.50573 0
M  V30 613 C 57.1158 -1.66065 -1.62866 0
M  V30 614 C 58.1098 -0.526636 -1.61006 0
M  V30 615 O 59.3158 -0.706126 -1.65571 0
M  V30 616 H 55.6908 -0.52356 -0.539805 0
M  V30 617 H 57.6618 -2.60329 -1.45848 0
M  V30 618 C 56.4108 -1.74008 -3.01026 0
M  V30 619 H 55.7338 -2.6064 -3.03161 0
M  V30 620 H 57.1738 -1.89798 -3.79147 0
M  V30 621 C 55.6328 -0.483868 -3.33407 0
M  V30 622 O 56.1628 0.392548 -3.99777 0
M  V30 623 N 54.3688 -0.348236 -2.88506 0
M  V30 624 H 53.9158 -1.06242 -2.34671 0
M  V30 625 H 53.8738 0.491204 -3.10539 0
M  V30 626 N 57.6459 0.756429 -1.3826 0
M  V30 627 C 58.8739 1.54565 -1.3754 0
M  V30 628 C 59.2889 1.88767 0.0355331 0
M  V30 629 O 58.6459 1.52572 1.0014 0
M  V30 630 C 58.6969 2.84654 -2.22833 0
M  V30 631 O 58.4179 2.51912 -3.5843 0
M  V30 632 C 59.9189 3.78807 -2.30261 0
M  V30 633 H 57.1389 0.478353 -0.470553 0
M  V30 634 H 59.6829 0.936381 -1.81803 0
M  V30 635 H 57.8379 3.41965 -1.8204 0
M  V30 636 H 58.2519 3.35325 -4.03308 0
M  V30 637 H 59.7259 4.67045 -2.94233 0
M  V30 638 H 60.2029 4.19038 -1.31545 0
M  V30 639 H 60.8089 3.2742 -2.71433 0
M  V30 640 N 59.124 1.23083 0.984299 0
M  V30 641 C 60.349 1.088 1.76571 0
M  V30 642 C 60.774 -0.356657 1.84688 0
M  V30 643 O 60.132 -1.25788 1.30565 0
M  V30 644 C 60.18 1.71371 3.17277 0
M  V30 645 O 59.284 0.973213 4.00752 0
M  V30 646 H 58.625 0.381599 0.543395 0
M  V30 647 H 61.155 1.63057 1.23587 0
M  V30 648 H 61.165 1.76449 3.67872 0
M  V30 649 H 59.84 2.76493 3.10684 0
M  V30 650 H 58.417 0.999078 3.59267 0
M  V30 651 N 60.6021 -1.18246 1.0419 0
M  V30 652 C 61.8271 -1.92736 0.765996 0
M  V30 653 C 62.2521 -1.75728 -0.67091 0
M  V30 654 O 61.6101 -1.06825 -1.46486 0
M  V30 655 C 61.6581 -3.42148 1.13875 0
M  V30 656 O 60.7621 -4.11548 0.264954 0
M  V30 657 H 60.1031 -0.601238 0.281797 0
M  V30 658 H 62.6331 -1.49942 1.39207 0
M  V30 659 H 62.6431 -3.92858 1.1012 0
M  V30 660 H 61.3181 -3.53848 2.18551 0
M  V30 661 H 59.8951 -3.71137 0.362226 0
M  V30 662 N 62.0802 -0.821533 -1.34494 0
M  V30 663 C 63.0102 -0.257138 -2.3208 0
M  V30 664 C 63.9912 0.625645 -1.58176 0
M  V30 665 O 65.1762 0.552811 -1.86166 0
M  V30 666 C 62.3062 0.582958 -3.42372 0
M  V30 667 C 61.2602 -0.202571 -4.2752 0
M  V30 668 C 60.5862 0.760179 -5.29269 0
M  V30 669 C 61.8862 -1.40998 -5.02908 0
M  V30 670 H 63.5802 -1.07247 -2.79532 0
M  V30 671 H 61.1262 -0.517163 -1.34393 0
M  V30 672 H 63.0792 0.987972 -4.09655 0
M  V30 673 H 61.8032 1.43133 -2.93565 0
M  V30 674 H 60.4622 -0.588936 -3.61838 0
M  V30 675 H 60.1102 1.60447 -4.76724 0
M  V30 676 H 59.8102 0.238809 -5.87115 0
M  V30 677 H 61.3342 1.16308 -5.9942 0
M  V30 678 H 62.7482 -1.07905 -5.63054 0
M  V30 679 H 61.1452 -1.86689 -5.70322 0
M  V30 680 H 62.2152 -2.1889 -4.32684 0
M  V30 681 N 63.5583 1.46682 -0.576371 0
M  V30 682 C 64.4903 2.28341 0.198231 0
M  V30 683 C 65.5033 1.38141 0.861453 0
M  V30 684 O 66.6923 1.62797 0.732082 0
M  V30 685 C 63.7923 3.12986 1.29972 0
M  V30 686 C 62.9653 4.31271 0.729639 0
M  V30 687 C 62.0243 4.97363 1.71803 0
M  V30 688 O 61.0503 5.55156 1.25658 0
M  V30 689 N 62.2523 4.93796 3.05198 0
M  V30 690 H 65.0173 2.9546 -0.502324 0
M  V30 691 H 62.5783 1.56525 -0.413715 0
M  V30 692 H 64.5703 3.54066 1.96008 0
M  V30 693 H 63.1403 2.47984 1.90323 0
M  V30 694 H 62.3603 3.94052 -0.108012 0
M  V30 695 H 63.6483 5.07739 0.328438 0
M  V30 696 H 63.0463 4.48077 3.45317 0
M  V30 697 H 61.6033 5.38837 3.6674 0
M  V30 698 N 65.0364 0.313813 1.54444 0
M  V30 699 C 66.2854 -0.292519 1.99568 0
M  V30 700 C 66.5984 -1.54011 1.20582 0
M  V30 701 O 67.8044 -2.22183 1.56035 0
M  V30 702 C 66.2604 -0.571752 3.55329 0
M  V30 703 C 65.8684 0.658229 4.43138 0
M  V30 704 C 67.6124 -1.13857 4.08946 0
M  V30 705 C 65.5194 0.351439 5.90355 0
M  V30 706 H 64.4494 -0.113079 0.745472 0
M  V30 707 H 67.1004 0.424518 1.78522 0
M  V30 708 H 65.4824 -1.34872 3.72325 0
M  V30 709 H 66.6564 1.43403 4.37918 0
M  V30 710 H 64.9714 1.14458 4.0036 0
M  V30 711 H 67.5684 -1.38257 5.16516 0
M  V30 712 H 67.9114 -2.08489 3.6033 0
M  V30 713 H 68.4444 -0.423015 3.95544 0
M  V30 714 H 65.1834 1.26667 6.43145 0
M  V30 715 H 64.7034 -0.386842 5.98551 0
M  V30 716 H 66.3824 -0.0423134 6.46986 0
M  V30 717 N 66.5145 -1.57545 0.0417849 0
M  V30 718 C 67.7605 -1.93424 -0.629168 0
M  V30 719 C 68.1155 -0.919564 -1.69002 0
M  V30 720 O 67.4085 0.0626178 -1.91498 0
M  V30 721 C 67.6025 -3.33794 -1.27735 0
M  V30 722 C 67.4315 -4.48822 -0.280806 0
M  V30 723 C 66.2015 -5.05148 0.123869 0
M  V30 724 C 68.3995 -5.12148 0.470012 0
M  V30 725 N 66.3815 -6.03703 1.11426 0
M  V30 726 C 67.7525 -6.05921 1.31377 0
M  V30 727 C 69.8075 -4.95078 0.529343 0
M  V30 728 C 68.5105 -6.84459 2.21152 0
M  V30 729 C 70.5365 -5.74235 1.41448 0
M  V30 730 C 69.8985 -6.67634 2.24598 0
M  V30 731 H 65.9975 -0.755418 -0.202158 0
M  V30 732 H 68.5815 -1.94378 0.111923 0
M  V30 733 H 66.7525 -3.33635 -1.98852 0
M  V30 734 H 68.4845 -3.56988 -1.90635 0
M  V30 735 H 65.2395 -4.72923 -0.253178 0
M  V30 736 H 65.6635 -6.57674 1.60607 0
M  V30 737 H 70.3055 -4.22683 -0.0992798 0
M  V30 738 H 68.0235 -7.56151 2.85063 0
M  V30 739 H 71.6095 -5.63057 1.46484 0
M  V30 740 H 70.4895 -7.27817 2.9198 0
M  V30 741 N 67.9926 0.231505 -1.5589 0
M  V30 742 C 68.9246 1.31006 -1.8807 0
M  V30 743 C 69.9376 1.43539 -0.768145 0
M  V30 744 O 71.1266 1.44614 -1.04638 0
M  V30 745 C 68.2266 2.68688 -2.06543 0
M  V30 746 C 67.3996 2.78228 -3.37502 0
M  V30 747 C 66.4586 3.96857 -3.4553 0
M  V30 748 O 65.4846 3.85662 -4.18633 0
M  V30 749 N 66.6866 5.1072 -2.75944 0
M  V30 750 H 69.4516 1.03731 -2.81176 0
M  V30 751 H 67.0126 0.421573 -1.56315 0
M  V30 752 H 69.0046 3.46412 -2.09239 0
M  V30 753 H 67.5746 2.88605 -1.20109 0
M  V30 754 H 66.7946 1.87059 -3.46991 0
M  V30 755 H 68.0826 2.81564 -4.23791 0
M  V30 756 H 67.4806 5.2271 -2.16311 0
M  V30 757 H 66.0376 5.86523 -2.84314 0
M  V30 758 N 69.4707 1.49531 0.497807 0
M  V30 759 C 70.7187 1.58865 1.24926 0
M  V30 760 C 71.0397 0.278721 1.92998 0
M  V30 761 O 70.3097 -0.702144 1.82885 0
M  V30 762 H 68.8897 0.585343 0.464094 0
M  V30 763 H 71.5517 1.86174 0.57666 0
M  V30 764 H 70.6477 2.38633 2.01149 0
M  V30 765 N 70.9488 -0.749086 1.3866 0
M  V30 766 C 71.8788 -1.8764 1.38973 0
M  V30 767 C 72.8598 -1.68178 0.255004 0
M  V30 768 O 74.0448 -1.88704 0.458754 0
M  V30 769 C 71.1748 -3.25222 1.21851 0
M  V30 770 C 70.1288 -3.59295 2.32575 0
M  V30 771 C 69.4548 -4.95663 2.00555 0
M  V30 772 C 70.7548 -3.63709 3.7485 0
M  V30 773 H 72.4488 -1.87635 2.3331 0
M  V30 774 H 69.9948 -0.901329 1.12303 0
M  V30 775 H 71.9478 -4.03746 1.20695 0
M  V30 776 H 70.6718 -3.25719 0.239775 0
M  V30 777 H 69.3308 -2.83093 2.32925 0
M  V30 778 H 68.9788 -4.92724 1.01154 0
M  V30 779 H 68.6788 -5.19429 2.74714 0
M  V30 780 H 70.2028 -5.7656 2.01024 0
M  V30 781 H 71.6168 -4.32338 3.76506 0
M  V30 782 H 70.0138 -3.98986 4.48252 0
M  V30 783 H 71.0838 -2.63834 4.06841 0
M  V30 784 N 72.4269 -1.23603 -0.977757 0
M  V30 785 C 73.3569 -1.04401 -2.0886 0
M  V30 786 C 74.3379 0.0399052 -1.70053 0
M  V30 787 O 75.5229 -0.125246 -1.93796 0
M  V30 788 C 72.6529 -0.637269 -3.41403 0
M  V30 789 C 71.6069 -1.66883 -3.94124 0
M  V30 790 C 70.9329 -1.11745 -5.22893 0
M  V30 791 C 72.2329 -3.06247 -4.23096 0
M  V30 792 H 73.9269 -1.97316 -2.25182 0
M  V30 793 H 71.4729 -0.950096 -1.08209 0
M  V30 794 H 73.4259 -0.48998 -4.18542 0
M  V30 795 H 72.1499 0.327557 -3.24953 0
M  V30 796 H 70.8089 -1.80416 -3.19133 0
M  V30 797 H 70.4569 -0.143527 -5.02795 0
M  V30 798 H 70.1569 -1.80672 -5.59134 0
M  V30 799 H 71.6809 -0.982067 -6.02651 0
M  V30 800 H 73.0949 -2.96001 -4.90975 0
M  V30 801 H 71.4919 -3.72436 -4.70544 0
M  V30 802 H 72.5619 -3.55041 -3.30263 0
M  V30 803 N 73.905 1.17692 -1.04816 0
M  V30 804 C 74.838 2.20436 -0.590173 0
M  V30 805 C 75.816 1.58115 0.379244 0
M  V30 806 O 77 1.86228 0.291762 0
M  V30 807 C 74.127 3.38424 0.136817 0
M  V30 808 C 73.173 4.19176 -0.787023 0
M  V30 809 S 74.006 4.84815 -2.27409 0
M  V30 810 C 75.162 6.06195 -1.55817 0
M  V30 811 H 75.395 2.58944 -1.46067 0
M  V30 812 H 72.928 1.28246 -0.859784 0
M  V30 813 H 74.886 4.06798 0.550076 0
M  V30 814 H 73.547 2.98312 0.983299 0
M  V30 815 H 72.74 5.03499 -0.224681 0
M  V30 816 H 72.342 3.56219 -1.13947 0
M  V30 817 H 74.634 6.72078 -0.855387 0
M  V30 818 H 75.577 6.6695 -2.37873 0
M  V30 819 H 75.985 5.54701 -1.04722 0
M  V30 820 N 75.3831 0.828654 1.34056 0
M  V30 821 C 76.6321 0.415828 1.97367 0
M  V30 822 C 76.9451 -1.02796 1.6641 0
M  V30 823 O 78.1511 -1.54497 2.23255 0
M  V30 824 C 76.6071 0.692601 3.53173 0
M  V30 825 C 76.2151 2.15038 3.93017 0
M  V30 826 C 77.9591 0.346222 4.23086 0
M  V30 827 C 75.8661 2.37174 5.41758 0
M  V30 828 H 74.7961 0.151755 0.738571 0
M  V30 829 H 77.4471 1.01581 1.52819 0
M  V30 830 H 75.8291 0.0223764 3.95994 0
M  V30 831 H 77.0031 2.86024 3.61285 0
M  V30 832 H 75.3181 2.45875 3.36057 0
M  V30 833 H 77.9151 0.48937 5.32456 0
M  V30 834 H 78.2581 -0.709842 4.10204 0
M  V30 835 H 78.7911 0.971258 3.85761 0
M  V30 836 H 75.5301 3.41308 5.59633 0
M  V30 837 H 75.0501 1.70738 5.74986 0
M  V30 838 H 76.7291 2.19818 6.08514 0
M  V30 839 N 76.8612 -1.46375 0.584142 0
M  V30 840 C 78.1072 -2.03248 0.0787103 0
M  V30 841 C 78.4622 -1.44737 -1.26763 0
M  V30 842 O 77.7552 -0.603625 -1.81843 0
M  V30 843 C 77.9492 -3.57373 -0.0439342 0
M  V30 844 C 77.7782 -4.30831 1.28897 0
M  V30 845 C 76.5482 -4.69683 1.8635 0
M  V30 846 C 78.7462 -4.64278 2.21248 0
M  V30 847 N 76.7282 -5.27898 3.13365 0
M  V30 848 C 78.0992 -5.23078 3.32851 0
M  V30 849 C 80.1542 -4.46209 2.20911 0
M  V30 850 C 78.8572 -5.65715 4.44251 0
M  V30 851 C 80.8832 -4.89864 3.31341 0
M  V30 852 C 80.2452 -5.48736 4.41665 0
M  V30 853 H 76.3442 -0.778714 0.0716144 0
M  V30 854 H 78.9282 -1.78509 0.777355 0
M  V30 855 H 77.0992 -3.81823 -0.711749 0
M  V30 856 H 78.8312 -4.00892 -0.553881 0
M  V30 857 H 75.5862 -4.52488 1.39826 0
M  V30 858 H 76.0102 -5.61525 3.78178 0
M  V30 859 H 80.6522 -4.00027 1.36888 0
M  V30 860 H 78.3702 -6.10875 5.29015 0
M  V30 861 H 81.9562 -4.77634 3.322 0
M  V30 862 H 80.8362 -5.81898 5.25704 0
M  V30 863 N 78.3393 -0.321999 -1.54275 0
M  V30 864 C 79.3023 0.531975 -2.22941 0
M  V30 865 C 80.3023 1.04478 -1.22234 0
M  V30 866 O 81.4923 0.937452 -1.46825 0
M  V30 867 C 78.6243 1.73874 -2.93224 0
M  V30 868 H 79.8173 -0.0682612 -2.99822 0
M  V30 869 H 77.3703 -0.0730644 -1.56129 0
M  V30 870 H 78.1053 2.37825 -2.20476 0
M  V30 871 H 77.8903 1.37847 -3.6707 0
M  V30 872 H 79.3803 2.34496 -3.45545 0
M  V30 873 N 79.8174 1.5752 -0.0501392 0
M  V30 874 C 81.0634 1.92936 0.624798 0
M  V30 875 C 81.3964 0.928685 1.70555 0
M  V30 876 O 80.6714 -0.0454779 1.94447 0
M  V30 877 C 80.9544 3.38737 1.22185 0
M  V30 878 C 80.8074 4.49552 0.149218 0
M  V30 879 C 82.1264 3.84913 2.13378 0
M  V30 880 H 79.2454 0.701604 0.225657 0
M  V30 881 H 81.8874 1.89671 -0.111693 0
M  V30 882 H 80.0374 3.4165 1.84953 0
M  V30 883 H 81.7094 4.58768 -0.482648 0
M  V30 884 H 79.9524 4.30638 -0.522841 0
M  V30 885 H 80.6234 5.48653 0.606966 0
M  V30 886 H 83.0994 3.8387 1.60572 0
M  V30 887 H 81.9754 4.87584 2.52097 0
M  V30 888 H 82.2364 3.21611 3.03346 0
M  V30 889 N 81.2955 -0.223234 1.56011 0
M  V30 890 C 82.5355 -0.954962 1.8072 0
M  V30 891 C 82.8995 -1.81598 0.623384 0
M  V30 892 O 84.1005 -2.58132 0.749745 0
M  V30 893 C 82.3715 -1.77313 3.10314 0
M  V30 894 S 83.9305 -2.56073 3.56332 0
M  V30 895 H 80.7485 -0.320812 0.634508 0
M  V30 896 H 83.3505 -0.220686 1.9425 0
M  V30 897 H 82.0545 -1.13071 3.94516 0
M  V30 898 H 81.5855 -2.54974 2.99586 0
M  V30 899 H 83.6005 -3.79619 3.19536 0
M  V30 900 N 82.7736 -1.49793 -0.48987 0
M  V30 901 C 83.9986 -1.63836 -1.27172 0
M  V30 902 C 84.4236 -0.31402 -1.8546 0
M  V30 903 O 83.7816 0.719803 -1.66399 0
M  V30 904 C 83.8296 -2.71797 -2.36978 0
M  V30 905 O 82.9336 -2.31744 -3.41128 0
M  V30 906 H 82.2746 -0.547997 -0.37496 0
M  V30 907 H 84.8046 -1.96053 -0.585191 0
M  V30 908 H 84.8146 -2.94305 -2.82575 0
M  V30 909 H 83.4896 -3.67923 -1.93921 0
M  V30 910 H 82.0666 -2.1961 -3.01373 0
M  V30 911 N 84.2517 0.741722 -1.39055 0
M  V30 912 C 85.4997 1.49818 -1.35643 0
M  V30 913 C 85.8207 1.94938 0.0491642 0
M  V30 914 O 85.0907 1.68505 0.999141 0
M  V30 915 H 83.6707 0.555755 -0.499144 0
M  V30 916 H 86.3327 0.880957 -1.73854 0
M  V30 917 H 85.4287 2.38348 -2.01486 0
M  V30 918 N 85.7298 1.2412 0.971189 0
M  V30 919 C 86.6928 1.03156 2.04674 0
M  V30 920 C 87.6928 -0.00990322 1.60797 0
M  V30 921 O 88.8828 0.230729 1.72665 0
M  V30 922 C 86.0148 0.562765 3.36223 0
M  V30 923 H 87.2078 1.98614 2.24705 0
M  V30 924 H 84.7608 1.06293 1.14593 0
M  V30 925 H 85.4958 -0.395176 3.21883 0
M  V30 926 H 85.2808 1.31441 3.69413 0
M  V30 927 H 86.7708 0.437015 4.15307 0
M  V30 928 N 87.2079 -1.17134 1.05439 0
M  V30 929 C 88.4569 -1.86791 0.761049 0
M  V30 930 C 88.7699 -1.82072 -0.714795 0
M  V30 931 O 89.9759 -2.47223 -1.12218 0
M  V30 932 C 88.4319 -3.35166 1.31117 0
M  V30 933 C 88.0399 -3.48381 2.81664 0
M  V30 934 C 89.7839 -4.10134 1.09499 0
M  V30 935 C 87.6909 -4.90793 3.29964 0
M  V30 936 H 86.6209 -0.699681 0.281002 0
M  V30 937 H 89.2719 -1.3226 1.27199 0
M  V30 938 H 87.6539 -3.8925 0.72803 0
M  V30 939 H 88.8279 -3.04502 3.45855 0
M  V30 940 H 87.1429 -2.86836 3.01851 0
M  V30 941 H 89.7399 -5.152 1.43084 0
M  V30 942 H 90.0829 -4.16287 0.0328772 0
M  V30 943 H 90.6159 -3.62264 1.64346 0
M  V30 944 H 87.3549 -4.89816 4.35616 0
M  V30 945 H 86.8749 -5.35333 2.70516 0
M  V30 946 H 88.5539 -5.59573 3.24787 0
M  V30 947 N 88.686 -0.835752 -1.33615 0
M  V30 948 C 89.933 -0.429959 -1.97883 0
M  V30 949 C 90.261 1.01006 -1.66217 0
M  V30 950 O 89.516 1.72047 -0.93265 0
M  V30 951 C 89.815 -0.593925 -3.52431 0
M  V30 952 C 89.481 -2.00158 -4.04039 0
M  V30 953 C 88.143 -2.38662 -4.17844 0
M  V30 954 C 90.495 -2.92117 -4.31644 0
M  V30 955 C 87.823 -3.68435 -4.56588 0
M  V30 956 C 90.175 -4.21368 -4.71838 0
M  V30 957 C 88.839 -4.59833 -4.83849 0
M  V30 958 H 88.109 -0.157333 -0.724104 0
M  V30 959 H 90.756 -1.06217 -1.59343 0
M  V30 960 H 89.061 0.121619 -3.91611 0
M  V30 961 H 90.758 -0.260282 -4.00154 0
M  V30 962 H 87.348 -1.69252 -3.93766 0
M  V30 963 H 91.532 -2.63608 -4.20505 0
M  V30 964 H 86.788 -3.98046 -4.64079 0
M  V30 965 H 90.962 -4.92703 -4.92155 0
M  V30 966 H 88.589 -5.60438 -5.13627 0
M  V30 967 N 90.1641 1.46063 -0.591896 0
M  V30 968 C 91.4121 2.01938 -0.0808391 0
M  V30 969 C 91.7331 1.46475 1.28725 0
M  V30 970 O 91.0031 0.652944 1.84698 0
M  V30 971 H 89.5831 0.746516 -0.0268938 0
M  V30 972 H 92.2451 1.79055 -0.769752 0
M  V30 973 H 91.3411 3.12094 -0.0187578 0
M  V30 974 N 91.6422 0.330177 1.54103 0
M  V30 975 C 92.5722 -0.525353 2.27513 0
M  V30 976 C 93.5532 -1.11383 1.2856 0
M  V30 977 O 94.7382 -1.13773 1.57383 0
M  V30 978 C 91.8682 -1.6831 3.03791 0
M  V30 979 C 90.8222 -1.2236 4.10137 0
M  V30 980 C 90.1482 -2.46882 4.74293 0
M  V30 981 C 91.4482 -0.333697 5.21233 0
M  V30 982 H 93.1422 0.087013 2.99274 0
M  V30 983 H 90.6882 0.0432893 1.43935 0
M  V30 984 H 92.6412 -2.28795 3.5388 0
M  V30 985 H 91.3652 -2.32216 2.29659 0
M  V30 986 H 90.0242 -0.64165 3.60941 0
M  V30 987 H 89.6722 -3.09165 3.96769 0
M  V30 988 H 89.3722 -2.16825 5.46133 0
M  V30 989 H 90.8962 -3.08117 5.27159 0
M  V30 990 H 92.3102 -0.845013 5.67038 0
M  V30 991 H 90.7072 -0.125612 5.99969 0
M  V30 992 H 91.7772 0.633724 4.80741 0
M  V30 993 N 93.1203 -1.57491 0.0584922 0
M  V30 994 C 94.0833 -2.1085 -0.898617 0
M  V30 995 C 95.0833 -1.02964 -1.23511 0
M  V30 996 O 96.2733 -1.29007 -1.17059 0
M  V30 997 C 93.4053 -2.59881 -2.20623 0
M  V30 998 H 94.5983 -2.96715 -0.435936 0
M  V30 999 H 92.1513 -1.55141 -0.190023 0
M  V30 1000 H 92.8863 -1.77431 -2.71457 0
M  V30 1001 H 92.6713 -3.38727 -1.97501 0
M  V30 1002 H 94.1613 -3.01285 -2.89166 0
M  V30 1003 N 94.5984 0.214957 -1.56127 0
M  V30 1004 C 95.8454 0.938372 -1.79446 0
M  V30 1005 C 96.1734 1.8407 -0.628378 0
M  V30 1006 O 95.4284 1.91837 0.386925 0
M  V30 1007 C 95.7274 1.80314 -3.0858 0
M  V30 1008 C 95.3934 1.05349 -4.3842 0
M  V30 1009 C 94.0554 0.846435 -4.73697 0
M  V30 1010 C 96.4074 0.524588 -5.18553 0
M  V30 1011 C 93.7354 0.098683 -5.86617 0
M  V30 1012 C 96.0874 -0.209853 -6.32252 0
M  V30 1013 C 94.7514 -0.428102 -6.66126 0
M  V30 1014 H 94.0214 0.343375 -0.656639 0
M  V30 1015 H 96.6684 0.206077 -1.90388 0
M  V30 1016 H 94.9734 2.6035 -2.92789 0
M  V30 1017 H 96.6704 2.36513 -3.23825 0
M  V30 1018 H 93.2604 1.22486 -4.10725 0
M  V30 1019 H 97.4444 0.672008 -4.91729 0
M  V30 1020 H 92.7004 -0.0805753 -6.11347 0
M  V30 1021 H 96.8744 -0.627157 -6.9357 0
M  V30 1022 H 94.5014 -1.00944 -7.53468 0
M  V30 1023 N 96.0765 1.50051 0.48192 0
M  V30 1024 C 97.4925 1.37237 0.814756 0
M  V30 1025 C 97.6925 0.420109 1.97072 0
M  V30 1026 O 96.7485 -0.141246 2.52105 0
M  V30 1027 C 98.0615 2.78375 1.13701 0
M  V30 1028 C 99.6095 2.87213 1.2441 0
M  V30 1029 C 100.084 4.29161 1.59954 0
M  V30 1030 N 101.575 4.32061 1.66967 0
M  V30 1031 C 102.31 5.38879 1.95952 0
M  V30 1032 N 101.806 6.55918 2.23031 0
M  V30 1033 N 103.599 5.26312 1.97363 0
M  V30 1034 H 95.7505 2.10546 -0.28005 0
M  V30 1035 H 98.0135 0.945921 -0.0627454 0
M  V30 1036 H 97.7195 3.49845 0.360787 0
M  V30 1037 H 97.5935 3.14941 2.07586 0
M  V30 1038 H 99.9805 2.15969 2.01101 0
M  V30 1039 H 100.061 2.54204 0.285299 0
M  V30 1040 H 99.7055 5.00938 0.838067 0
M  V30 1041 H 99.6355 4.59648 2.56966 0
M  V30 1042 H 102.126 3.47661 1.48123 0
M  V30 1043 H 102.439 7.33139 2.44391 0
M  V30 1044 H 100.784 6.59112 2.20447 0
M  V30 1045 H 103.975 4.33876 1.75697 0
M  V30 1046 H 104.148 6.09649 2.19618 0
M  V30 1047 N 97.5546 -0.734337 1.39446 0
M  V30 1048 C 98.9656 -1.31264 1.32766 0
M  V30 1049 C 99.3166 -1.96198 -0.00767497 0
M  V30 1050 O 98.4416 -1.96346 -0.909796 0
M  V30 1051 C 99.0366 -2.38682 2.4045 0
M  V30 1052 C 97.5956 -2.92184 2.37288 0
M  V30 1053 C 96.7426 -1.6576 2.22304 0
M  V30 1054 H 99.6936 -0.531799 1.49525 0
M  V30 1055 H 99.7146 -3.19087 2.07276 0
M  V30 1056 H 99.2266 -1.91392 3.37625 0
M  V30 1057 H 97.3276 -3.43752 1.43754 0
M  V30 1058 H 97.4406 -3.45253 3.3217 0
M  V30 1059 H 95.8046 -1.9012 1.69489 0
M  V30 1060 H 96.5876 -1.20521 3.21449 0
M  V30 1061 N 99.0327 -1.24633 -0.964593 0
M  V30 1062 C 99.9797 -1.04144 -2.05968 0
M  V30 1063 C 100.95 0.046262 -1.66036 0
M  V30 1064 O 102.135 -0.108972 -1.90489 0
M  V30 1065 C 99.2747 -0.65563 -3.38815 0
M  V30 1066 C 98.3877 -1.81714 -3.91923 0
M  V30 1067 C 97.5227 -1.37662 -5.13052 0
M  V30 1068 C 96.5617 -2.50788 -5.58365 0
M  V30 1069 N 95.6987 -2.07582 -6.70712 0
M  V30 1070 H 100.539 -1.9787 -2.22827 0
M  V30 1071 H 98.0757 -0.9855 -1.09208 0
M  V30 1072 H 100.034 -0.412954 -4.15151 0
M  V30 1073 H 98.6637 0.244627 -3.21872 0
M  V30 1074 H 97.7157 -2.1734 -3.12198 0
M  V30 1075 H 99.0277 -2.66705 -4.21509 0
M  V30 1076 H 98.1817 -1.093 -5.96773 0
M  V30 1077 H 96.9207 -0.497293 -4.85158 0
M  V30 1078 H 95.9257 -2.79906 -4.73215 0
M  V30 1079 H 97.1507 -3.39283 -5.88272 0
M  V30 1080 H 95.0967 -1.22051 -6.44546 0
M  V30 1081 H 95.0137 -2.86125 -6.99763 0
M  V30 1082 H 96.2817 -1.82369 -7.57867 0
M  V30 1083 N 100.511 1.16574 -1.06058 0
M  V30 1084 C 101.927 1.3904 -0.783585 0
M  V30 1085 C 102.127 1.91784 0.618145 0
M  V30 1086 O 101.183 2.11511 1.37911 0
M  V30 1087 C 102.496 2.37329 -1.84649 0
M  V30 1088 C 104.044 2.51018 -1.86973 0
M  V30 1089 C 104.519 3.52588 -2.92311 0
M  V30 1090 N 106.01 3.60113 -2.91329 0
M  V30 1091 C 106.745 4.38486 -3.69482 0
M  V30 1092 N 106.241 5.20302 -4.57447 0
M  V30 1093 N 108.034 4.33446 -3.57885 0
M  V30 1094 H 100.185 0.806725 -1.96483 0
M  V30 1095 H 102.448 0.417117 -0.851303 0
M  V30 1096 H 102.154 2.05663 -2.85299 0
M  V30 1097 H 102.028 3.36946 -1.6955 0
M  V30 1098 H 104.415 2.81989 -0.869827 0
M  V30 1099 H 104.496 1.51445 -2.0615 0
M  V30 1100 H 104.14 3.22354 -3.92492 0
M  V30 1101 H 104.07 4.51886 -2.70383 0
M  V30 1102 H 106.561 3.01707 -2.27555 0
M  V30 1103 H 106.874 5.77311 -5.13743 0
M  V30 1104 H 105.219 5.19653 -4.61503 0
M  V30 1105 H 108.41 3.68586 -2.88551 0
M  V30 1106 H 108.583 4.94279 -4.19037 0
M  V30 1107 N 101.989 0.842826 1.3317 0
M  V30 1108 C 102.952 0.284065 2.27433 0
M  V30 1109 C 103.952 -0.54948 1.5112 0
M  V30 1110 O 105.142 -0.362699 1.70382 0
M  V30 1111 C 102.274 -0.599384 3.35589 0
M  V30 1112 H 103.467 1.11589 2.78366 0
M  V30 1113 H 101.02 0.616221 1.4364 0
M  V30 1114 H 101.755 -1.45349 2.89904 0
M  V30 1115 H 101.54 -0.00291266 3.921 0
M  V30 1116 H 103.03 -0.983488 4.05854 0
M  V30 1117 N 103.467 -1.45747 0.599634 0
M  V30 1118 C 104.716 -2.01502 0.0893511 0
M  V30 1119 C 105.029 -1.4748 -1.28488 0
M  V30 1120 O 106.235 -1.95161 -1.88745 0
M  V30 1121 C 104.691 -3.59735 0.109082 0
M  V30 1122 C 104.299 -4.22754 1.48267 0
M  V30 1123 C 106.043 -4.23085 -0.346374 0
M  V30 1124 C 103.95 -5.73115 1.45921 0
M  V30 1125 H 102.88 -0.753417 0.0296347 0
M  V30 1126 H 105.531 -1.67303 0.753788 0
M  V30 1127 H 103.913 -3.91087 -0.621854 0
M  V30 1128 H 105.087 -4.02987 2.23468 0
M  V30 1129 H 103.402 -3.71567 1.87955 0
M  V30 1130 H 105.999 -5.33327 -0.38298 0
M  V30 1131 H 106.342 -3.93201 -1.36743 0
M  V30 1132 H 106.875 -3.9642 0.331038 0
M  V30 1133 H 103.614 -6.07685 2.45762 0
M  V30 1134 H 103.134 -5.95097 0.749665 0
M  V30 1135 H 104.813 -6.3616 1.17941 0
M  V30 1136 N 104.945 -0.338344 -1.53925 0
M  V30 1137 C 106.191 0.252842 -2.01822 0
M  V30 1138 C 106.546 1.48612 -1.22197 0
M  V30 1139 O 105.839 1.89238 -0.299892 0
M  V30 1140 C 106.033 0.62448 -3.51902 0
M  V30 1141 C 105.862 -0.571235 -4.46057 0
M  V30 1142 C 104.632 -1.07493 -4.93734 0
M  V30 1143 C 106.83 -1.42807 -4.94076 0
M  V30 1144 N 104.812 -2.23351 -5.71828 0
M  V30 1145 C 106.183 -2.43362 -5.70241 0
M  V30 1146 C 108.238 -1.45412 -4.76193 0
M  V30 1147 C 106.941 -3.46346 -6.30426 0
M  V30 1148 C 108.967 -2.47274 -5.37224 0
M  V30 1149 C 108.329 -3.46555 -6.13253 0
M  V30 1150 H 104.428 0.0559669 -0.779995 0
M  V30 1151 H 107.012 -0.476732 -1.88773 0
M  V30 1152 H 105.183 1.32317 -3.65167 0
M  V30 1153 H 106.915 1.19841 -3.86549 0
M  V30 1154 H 103.67 -0.643848 -4.69203 0
M  V30 1155 H 104.094 -2.81834 -6.15548 0
M  V30 1156 H 108.736 -0.700171 -4.16962 0
M  V30 1157 H 106.454 -4.22638 -6.88769 0
M  V30 1158 H 110.04 -2.50109 -5.25297 0
M  V30 1159 H 108.92 -4.24083 -6.59638 0
M  V30 1160 N 106.423 1.57458 -0.0668435 0
M  V30 1161 C 107.37 2.12439 0.902122 0
M  V30 1162 C 108.34 1.03565 1.2986 0
M  V30 1163 O 109.525 1.312 1.38532 0
M  V30 1164 C 106.665 2.6865 2.16614 0
M  V30 1165 C 105.778 3.91663 1.82274 0
M  V30 1166 C 104.913 4.36134 3.0325 0
M  V30 1167 C 103.952 5.51808 2.64904 0
M  V30 1168 N 103.089 5.9126 3.78624 0
M  V30 1169 H 107.929 2.94934 0.426382 0
M  V30 1170 H 105.466 1.4575 0.198819 0
M  V30 1171 H 107.424 2.99346 2.90599 0
M  V30 1172 H 106.054 1.88928 2.61737 0
M  V30 1173 H 105.106 3.6746 0.983719 0
M  V30 1174 H 106.418 4.75693 1.50059 0
M  V30 1175 H 105.572 4.68465 3.85519 0
M  V30 1176 H 104.311 3.50948 3.38655 0
M  V30 1177 H 103.316 5.19133 1.81055 0
M  V30 1178 H 104.541 6.38722 2.30675 0
M  V30 1179 H 102.487 5.09024 4.138 0
M  V30 1180 H 102.404 6.70018 3.5016 0
M  V30 1181 H 103.672 6.28212 4.61486 0
M  V30 1182 N 107.901 -0.206675 1.56239 0
M  V30 1183 C 109.15 -0.926964 1.79138 0
M  V30 1184 C 109.463 -1.84901 0.638043 0
M  V30 1185 O 110.669 -2.60906 0.751033 0
M  V30 1186 C 109.125 -1.6986 3.17294 0
M  V30 1187 C 108.733 -0.821956 4.40395 0
M  V30 1188 C 110.477 -2.40922 3.4951 0
M  V30 1189 C 108.384 -1.59179 5.69575 0
M  V30 1190 H 107.314 -0.349864 0.667915 0
M  V30 1191 H 109.965 -0.180487 1.8261 0
M  V30 1192 H 108.347 -2.48853 3.08039 0
M  V30 1193 H 109.521 -0.0715019 4.60745 0
M  V30 1194 H 107.836 -0.222741 4.15804 0
M  V30 1195 H 110.433 -2.99047 4.43255 0
M  V30 1196 H 110.776 -3.14542 2.72707 0
M  V30 1197 H 111.309 -1.68905 3.60161 0
M  V30 1198 H 108.048 -0.898589 6.49312 0
M  V30 1199 H 107.568 -2.31648 5.53262 0
M  V30 1200 H 109.247 -2.14862 6.10281 0
M  V30 1201 N 109.379 -1.50304 -0.473955 0
M  V30 1202 C 110.309 -1.71886 -1.58042 0
M  V30 1203 C 111.29 -0.567799 -1.60344 0
M  V30 1204 O 112.475 -0.806623 -1.76656 0
M  V30 1205 C 109.605 -1.81036 -2.96384 0
M  V30 1206 C 108.559 -2.962 -3.08949 0
M  V30 1207 C 107.885 -2.9049 -4.48909 0
M  V30 1208 C 109.185 -4.36752 -2.86434 0
M  V30 1209 H 110.879 -2.64527 -1.40234 0
M  V30 1210 H 108.425 -1.27295 -0.673201 0
M  V30 1211 H 110.378 -1.94719 -3.73714 0
M  V30 1212 H 109.102 -0.850147 -3.15341 0
M  V30 1213 H 107.761 -2.82164 -2.3405 0
M  V30 1214 H 107.409 -1.92321 -4.64781 0
M  V30 1215 H 107.109 -3.67802 -4.58253 0
M  V30 1216 H 108.633 -3.06218 -5.28264 0
M  V30 1217 H 110.047 -4.5133 -3.53517 0
M  V30 1218 H 108.444 -5.15493 -3.07225 0
M  V30 1219 H 109.514 -4.49321 -1.82316 0
M  V30 1220 N 110.857 0.726932 -1.39834 0
M  V30 1221 C 112.104 1.48664 -1.37496 0
M  V30 1222 C 112.432 1.94482 0.0264678 0
M  V30 1223 O 111.687 1.67692 1.00886 0
M  V30 1224 C 111.986 2.73495 -2.30077 0
M  V30 1225 C 111.652 2.46502 -3.77555 0
M  V30 1226 C 110.314 2.3885 -4.17737 0
M  V30 1227 C 112.666 2.23604 -4.70798 0
M  V30 1228 C 109.994 2.06352 -5.49214 0
M  V30 1229 C 112.346 1.92622 -6.02561 0
M  V30 1230 C 111.01 1.83444 -6.41798 0
M  V30 1231 H 110.28 0.544001 -0.503135 0
M  V30 1232 H 112.927 0.833657 -1.72402 0
M  V30 1233 H 111.232 3.43575 -1.88317 0
M  V30 1234 H 112.929 3.31549 -2.25558 0
M  V30 1235 H 109.519 2.5334 -3.45712 0
M  V30 1236 H 113.703 2.28479 -4.40581 0
M  V30 1237 H 108.959 1.97776 -5.78528 0
M  V30 1238 H 113.133 1.73914 -6.74334 0
M  V30 1239 H 110.76 1.58029 -7.43593 0
M  V30 1240 N 112.336 1.25143 0.95797 0
M  V30 1241 C 113.286 1.01924 2.0395 0
M  V30 1242 C 114.27 -0.0427175 1.60843 0
M  V30 1243 O 115.462 0.17221 1.7616 0
M  V30 1244 C 112.591 0.636373 3.3735 0
M  V30 1245 C 111.677 1.73492 3.8699 0
M  V30 1246 N 112.068 2.96945 4.0946 0
M  V30 1247 C 110.366 1.61467 4.15746 0
M  V30 1248 C 111.067 3.68228 4.50315 0
M  V30 1249 N 110.043 2.95833 4.56053 0
M  V30 1250 H 113.845 1.95653 2.19311 0
M  V30 1251 H 111.359 1.15413 1.14253 0
M  V30 1252 H 113.356 0.451233 4.14451 0
M  V30 1253 H 112.016 -0.293621 3.2337 0
M  V30 1254 H 113.027 3.33025 3.96629 0
M  V30 1255 H 109.704 0.753394 4.10646 0
M  V30 1256 H 111.094 4.74178 4.76031 0
M  V30 1257 N 113.814 -1.1601 1.06675 0
M  V30 1258 C 115.225 -1.68235 0.809565 0
M  V30 1259 C 115.576 -1.8454 -0.666303 0
M  V30 1260 O 114.701 -1.54374 -1.5165 0
M  V30 1261 C 115.296 -3.05585 1.46299 0
M  V30 1262 C 113.855 -3.54915 1.25349 0
M  V30 1263 C 113.002 -2.30804 1.53703 0
M  V30 1264 H 115.953 -1.00318 1.22971 0
M  V30 1265 H 115.974 -3.70174 0.880431 0
M  V30 1266 H 115.486 -2.93686 2.53713 0
M  V30 1267 H 113.587 -3.72067 0.199261 0
M  V30 1268 H 113.7 -4.36774 1.9689 0
M  V30 1269 H 112.064 -2.36007 0.957739 0
M  V30 1270 H 112.847 -2.21499 2.62284 0
M  V30 1271 N 115.292 -0.849877 -1.32721 0
M  V30 1272 C 116.222 -0.306308 -2.31482 0
M  V30 1273 C 117.203 0.591952 -1.59468 0
M  V30 1274 O 118.388 0.513199 -1.87296 0
M  V30 1275 C 115.518 0.510204 -3.43532 0
M  V30 1276 C 114.472 -0.293209 -4.26994 0
M  V30 1277 C 113.798 0.647743 -5.30762 0
M  V30 1278 C 115.098 -1.51634 -4.99804 0
M  V30 1279 H 116.792 -1.13153 -2.77195 0
M  V30 1280 H 114.338 -0.545553 -1.33266 0
M  V30 1281 H 116.291 0.900856 -4.11658 0
M  V30 1282 H 115.015 1.36874 -2.96535 0
M  V30 1283 H 113.674 -0.665555 -3.60508 0
M  V30 1284 H 113.322 1.50299 -4.8002 0
M  V30 1285 H 113.022 0.11422 -5.87489 0
M  V30 1286 H 114.546 1.03567 -6.01753 0
M  V30 1287 H 115.96 -1.19824 -5.60638 0
M  V30 1288 H 114.357 -1.98745 -5.66234 0
M  V30 1289 H 115.427 -2.28018 -4.27943 0
M  V30 1290 N 116.77 1.45427 -0.607355 0
M  V30 1291 C 118.181 1.85756 -0.187535 0
M  V30 1292 C 118.532 1.5077 1.25551 0
M  V30 1293 O 117.657 0.93427 1.95193 0
M  V30 1294 C 118.252 3.37154 -0.333572 0
M  V30 1295 C 116.811 3.76387 0.0315542 0
M  V30 1296 C 115.958 2.69377 -0.658117 0
M  V30 1297 H 118.909 1.36231 -0.81405 0
M  V30 1298 H 118.93 3.78014 0.43428 0
M  V30 1299 H 118.442 3.62586 -1.38393 0
M  V30 1300 H 116.543 3.56571 1.0811 0
M  V30 1301 H 116.656 4.77731 -0.361935 0
M  V30 1302 H 115.02 2.5452 -0.0957873 0
M  V30 1303 H 115.803 2.97646 -1.7106 0
M  V30 1304 N 118.248 0.346503 1.53744 0
M  V30 1305 C 119.211 -0.496439 2.23759 0
M  V30 1306 C 120.211 -1.0252 1.2388 0
M  V30 1307 O 121.401 -0.913974 1.48297 0
M  V30 1308 C 118.533 -1.69187 2.95954 0
M  V30 1309 H 119.726 0.115952 2.99676 0
M  V30 1310 H 117.279 0.0978939 1.55993 0
M  V30 1311 H 118.014 -2.34288 2.24231 0
M  V30 1312 H 117.799 -1.31989 3.69217 0
M  V30 1313 H 119.289 -2.28969 3.49232 0
M  V30 1314 N 119.726 -1.57421 0.075193 0
M  V30 1315 C 120.972 -1.93905 -0.594025 0
M  V30 1316 C 121.305 -0.955701 -1.69056 0
M  V30 1317 O 120.58 0.0145373 -1.94495 0
M  V30 1318 C 120.863 -3.40638 -1.1678 0
M  V30 1319 C 120.716 -4.49733 -0.0776792 0
M  V30 1320 C 122.035 -3.88259 -2.07228 0
M  V30 1321 H 119.154 -0.705105 -0.214466 0
M  V30 1322 H 121.796 -1.8947 0.141854 0
M  V30 1323 H 119.946 -3.44549 -1.79494 0
M  V30 1324 H 121.618 -4.57942 0.555573 0
M  V30 1325 H 119.861 -4.29751 0.591286 0
M  V30 1326 H 120.532 -5.49549 -0.519603 0
M  V30 1327 H 123.008 -3.86376 -1.54445 0
M  V30 1328 H 121.884 -4.91533 -2.44308 0
M  V30 1329 H 122.145 -3.26396 -2.98191 0
M  V30 1330 N 121.204 0.198386 -1.56346 0
M  V30 1331 C 122.45 0.920648 -1.80698 0
M  V30 1332 C 122.783 1.83045 -0.648697 0
M  V30 1333 O 122.058 1.91308 0.350925 0
M  V30 1334 C 122.341 1.73971 -3.15287 0
M  V30 1335 C 122.194 0.85485 -4.41602 0
M  V30 1336 C 123.513 2.71296 -3.46535 0
M  V30 1337 H 120.632 0.333261 -0.657348 0
M  V30 1338 H 123.274 0.188198 -1.89066 0
M  V30 1339 H 121.424 2.36416 -3.08285 0
M  V30 1340 H 123.096 0.245362 -4.60647 0
M  V30 1341 H 121.339 0.161398 -4.335 0
M  V30 1342 H 122.01 1.46286 -5.32264 0
M  V30 1343 H 124.486 2.18983 -3.53816 0
M  V30 1344 H 123.362 3.2569 -4.41834 0
M  V30 1345 H 123.623 3.5018 -2.69864 0
M  V30 1346 N 122.682 1.50554 0.465978 0
M  V30 1347 C 123.931 1.61038 1.21448 0
M  V30 1348 C 124.244 0.31865 1.92987 0
M  V30 1349 O 125.45 0.302469 2.6981 0
M  V30 1350 C 123.906 2.84283 2.20706 0
M  V30 1351 C 123.514 4.20352 1.54946 0
M  V30 1352 C 125.258 3.04115 2.96166 0
M  V30 1353 C 123.165 5.34778 2.5252 0
M  V30 1354 H 122.095 0.599718 0.457005 0
M  V30 1355 H 124.746 1.7699 0.484424 0
M  V30 1356 H 123.128 2.61901 2.97025 0
M  V30 1357 H 124.302 4.53008 0.843811 0
M  V30 1358 H 122.617 4.06167 0.917475 0
M  V30 1359 H 125.214 3.86774 3.69202 0
M  V30 1360 H 125.557 2.16045 3.55852 0
M  V30 1361 H 126.09 3.26702 2.26959 0
M  V30 1362 H 122.829 6.25018 1.97566 0
M  V30 1363 H 122.349 5.06534 3.21222 0
M  V30 1364 H 124.028 5.65561 3.14245 0
M  V30 1365 N 124.16 -0.719506 1.40217 0
M  V30 1366 C 125.09 -1.8465 1.42922 0
M  V30 1367 C 126.071 -1.67599 0.29062 0
M  V30 1368 O 127.256 -1.87688 0.498677 0
M  V30 1369 C 124.386 -3.22565 1.28722 0
M  V30 1370 C 123.34 -3.54281 2.40144 0
M  V30 1371 C 122.666 -4.91298 2.11023 0
M  V30 1372 C 123.966 -3.55676 3.82481 0
M  V30 1373 H 125.66 -1.82644 2.37237 0
M  V30 1374 H 123.206 -0.877305 1.1419 0
M  V30 1375 H 125.159 -4.01095 1.29232 0
M  V30 1376 H 123.883 -3.25137 0.308811 0
M  V30 1377 H 122.542 -2.78088 2.38877 0
M  V30 1378 H 122.19 -4.90468 1.11582 0
M  V30 1379 H 121.89 -5.13485 2.8567 0
M  V30 1380 H 123.414 -5.72166 2.13209 0
M  V30 1381 H 124.828 -4.24254 3.85592 0
M  V30 1382 H 123.225 -3.89388 4.56614 0
M  V30 1383 H 124.295 -2.55144 4.12346 0
M  V30 1384 N 125.638 -1.25649 -0.95132 0
M  V30 1385 C 126.886 -1.10375 -1.69298 0
M  V30 1386 C 127.207 0.355339 -1.91735 0
M  V30 1387 O 126.477 1.25188 -1.50681 0
M  V30 1388 H 125.057 -0.405461 -0.627384 0
M  V30 1389 H 127.719 -1.57823 -1.14358 0
M  V30 1390 H 126.815 -1.61465 -2.67087 0
M  V30 1391 N 127.117 1.15442 -1.07289 0
M  V30 1392 C 128.347 1.89821 -0.815576 0
M  V30 1393 C 128.755 1.7823 0.634867 0
M  V30 1394 O 128.098 1.13152 1.44715 0
M  V30 1395 C 128.16 3.40817 -1.14385 0
M  V30 1396 C 127.824 3.76193 -2.59476 0
M  V30 1397 C 128.821 3.77269 -3.57721 0
M  V30 1398 C 126.506 4.0652 -2.95037 0
M  V30 1399 C 128.5 4.08176 -4.89562 0
M  V30 1400 C 126.187 4.37092 -4.27076 0
M  V30 1401 C 127.185 4.37902 -5.24148 0
M  V30 1402 O 126.873 4.67741 -6.53815 0
M  V30 1403 H 126.605 0.608465 -0.294528 0
M  V30 1404 H 129.159 1.472 -1.43252 0
M  V30 1405 H 127.389 3.83835 -0.469865 0
M  V30 1406 H 129.078 3.96485 -0.869179 0
M  V30 1407 H 129.844 3.5394 -3.3159 0
M  V30 1408 H 125.723 4.05049 -2.20128 0
M  V30 1409 H 129.267 4.08723 -5.65324 0
M  V30 1410 H 125.164 4.59889 -4.5296 0
M  V30 1411 H 125.932 4.85509 -6.58957 0
M  V30 1412 N 128.595 0.856903 1.32268 0
M  V30 1413 C 129.843 0.460474 1.96784 0
M  V30 1414 C 130.164 -0.987701 1.68135 0
M  V30 1415 O 129.434 -1.69058 0.989765 0
M  V30 1416 H 128.014 0.167289 0.728027 0
M  V30 1417 H 130.676 1.09383 1.61312 0
M  V30 1418 H 129.772 0.60739 3.06133 0
M  V30 1419 N 130.073 -1.45103 0.615059 0
M  V30 1420 C 131.003 -2.33339 -0.0865619 0
M  V30 1421 C 131.984 -1.4727 -0.851209 0
M  V30 1422 O 133.169 -1.76026 -0.820281 0
M  V30 1423 C 130.299 -3.30095 -1.07956 0
M  V30 1424 C 129.253 -4.25858 -0.427628 0
M  V30 1425 C 128.579 -5.12361 -1.5294 0
M  V30 1426 C 129.879 -5.18165 0.655944 0
M  V30 1427 H 131.573 -2.92254 0.650224 0
M  V30 1428 H 129.119 -1.40532 0.314138 0
M  V30 1429 H 131.072 -3.90698 -1.57901 0
M  V30 1430 H 129.796 -2.69355 -1.84703 0
M  V30 1431 H 128.455 -3.66564 0.0510292 0
M  V30 1432 H 128.103 -4.47984 -2.28734 0
M  V30 1433 H 127.803 -5.77238 -1.09865 0
M  V30 1434 H 129.327 -5.75833 -2.03098 0
M  V30 1435 H 130.741 -5.72796 0.240257 0
M  V30 1436 H 129.138 -5.91559 1.00888 0
M  V30 1437 H 130.208 -4.60144 1.52957 0
M  V30 1438 N 131.551 -0.354651 -1.53558 0
M  V30 1439 C 132.781 0.239167 -2.05211 0
M  V30 1440 C 133.189 1.43879 -1.22863 0
M  V30 1441 O 132.532 1.81857 -0.259565 0
M  V30 1442 C 132.594 0.707251 -3.52474 0
M  V30 1443 C 132.258 -0.374212 -4.55465 0
M  V30 1444 C 133.255 -1.22054 -5.0537 0
M  V30 1445 C 130.94 -0.531323 -4.99482 0
M  V30 1446 C 132.934 -2.20942 -5.97882 0
M  V30 1447 C 130.621 -1.52358 -5.91802 0
M  V30 1448 C 131.619 -2.36108 -6.40892 0
M  V30 1449 O 131.307 -3.33643 -7.31394 0
M  V30 1450 H 131.039 0.0479716 -0.674296 0
M  V30 1451 H 133.593 -0.508121 -1.99016 0
M  V30 1452 H 131.823 1.50596 -3.56171 0
M  V30 1453 H 133.512 1.22285 -3.87042 0
M  V30 1454 H 134.278 -1.1103 -4.7212 0
M  V30 1455 H 130.157 0.110738 -4.60867 0
M  V30 1456 H 133.701 -2.86348 -6.36121 0
M  V30 1457 H 129.598 -1.63434 -6.24467 0
M  V30 1458 H 130.366 -3.29244 -7.4936 0
M  V30 1459 N 133.029 1.57378 -0.0835403 0
M  V30 1460 C 133.979 2.09916 0.889905 0
M  V30 1461 C 134.963 1.01151 1.25129 0
M  V30 1462 O 136.155 1.27443 1.2283 0
M  V30 1463 C 133.284 2.67379 2.15322 0
M  V30 1464 C 132.37 3.83167 1.81779 0
M  V30 1465 N 132.761 4.91665 1.18739 0
M  V30 1466 C 131.059 3.92685 2.11459 0
M  V30 1467 C 131.76 5.72409 1.0355 0
M  V30 1468 N 130.736 5.21062 1.54906 0
M  V30 1469 H 134.538 2.91188 0.398378 0
M  V30 1470 H 132.052 1.61956 0.120013 0
M  V30 1471 H 134.049 3.0334 2.8599 0
M  V30 1472 H 132.709 1.87558 2.65051 0
M  V30 1473 H 133.72 5.10784 0.855604 0
M  V30 1474 H 130.397 3.23856 2.63483 0
M  V30 1475 H 131.787 6.69699 0.543425 0
M  V30 1476 N 134.507 -0.190092 1.56449 0
M  V30 1477 C 135.754 -0.909705 1.80916 0
M  V30 1478 C 136.082 -1.83047 0.657583 0
M  V30 1479 O 135.337 -1.92428 -0.356356 0
M  V30 1480 C 135.636 -1.75382 3.1141 0
M  V30 1481 C 135.302 -0.983606 4.40041 0
M  V30 1482 C 133.964 -0.770967 4.74984 0
M  V30 1483 C 136.316 -0.442024 5.19322 0
M  V30 1484 C 133.644 -0.0053448 5.867 0
M  V30 1485 C 135.996 0.310412 6.31838 0
M  V30 1486 C 134.66 0.534023 6.6536 0
M  V30 1487 H 133.93 -0.332885 0.662019 0
M  V30 1488 H 136.577 -0.175762 1.90692 0
M  V30 1489 H 134.882 -2.55659 2.96893 0
M  V30 1490 H 136.579 -2.31331 3.27547 0
M  V30 1491 H 133.169 -1.15936 4.12622 0
M  V30 1492 H 137.353 -0.593693 4.92736 0
M  V30 1493 H 132.609 0.177825 6.11141 0
M  V30 1494 H 136.783 0.737419 6.92485 0
M  V30 1495 H 134.41 1.12918 7.51767 0
M  V30 1496 N 135.985 -1.50799 -0.457987 0
M  V30 1497 C 137.232 -1.62442 -1.20908 0
M  V30 1498 C 137.56 -0.330865 -1.91665 0
M  V30 1499 O 136.815 0.68401 -1.83357 0
M  V30 1500 C 137.114 -2.76358 -2.2663 0
M  V30 1501 C 136.78 -4.16378 -1.73033 0
M  V30 1502 C 135.442 -4.54473 -1.58138 0
M  V30 1503 C 137.794 -5.03836 -1.33413 0
M  V30 1504 C 135.122 -5.77754 -1.02065 0
M  V30 1505 C 137.474 -6.27676 -0.78778 0
M  V30 1506 C 136.138 -6.64562 -0.625561 0
M  V30 1507 H 135.408 -0.594417 -0.442435 0
M  V30 1508 H 138.055 -1.84772 -0.503136 0
M  V30 1509 H 136.36 -2.48167 -3.03184 0
M  V30 1510 H 138.057 -2.82568 -2.84528 0
M  V30 1511 H 134.647 -3.86331 -1.85598 0
M  V30 1512 H 138.831 -4.75026 -1.4375 0
M  V30 1513 H 134.087 -6.04997 -0.882547 0
M  V30 1514 H 138.261 -6.94797 -0.472177 0
M  V30 1515 H 135.888 -7.59965 -0.188926 0
M  V30 1516 N 137.463 0.71206 -1.40597 0
M  V30 1517 C 138.688 1.50617 -1.42581 0
M  V30 1518 C 139.113 1.88079 -0.0282102 0
M  V30 1519 O 138.471 1.53511 0.964579 0
M  V30 1520 C 138.519 2.7557 -2.3258 0
M  V30 1521 O 137.623 3.72414 -1.77148 0
M  V30 1522 H 136.964 0.453966 -0.484573 0
M  V30 1523 H 139.494 0.876649 -1.84868 0
M  V30 1524 H 139.504 3.2406 -2.47889 0
M  V30 1525 H 138.179 2.47639 -3.34138 0
M  V30 1526 H 136.756 3.31276 -1.71204 0
M  V30 1527 O 138.98 1.37088 0.85376 0
M  V30 1528 H 139.671 1.23267 1.49416 0
M  V30 END ATOM
M  V30 BEGIN BOND
M  V30 END BOND
M  V30 END CTAB
M  END
$$$$
