drugbank_target|A0A143ZZK9 Non-SERCA-type Ca2+-transporting P-ATPase (DB11638)
 OpenBabel12092121103D

  0  0  0     0  0            999 V3000
M  V30 BEGIN CTAB
M  V30 COUNTS 19815 19985 0 0 0
M  V30 BEGIN ATOM
M  V30 1 H -0.908 1.98254 -0.117106 0
M  V30 2 N 0 1.576 0 0
M  V30 3 C 0.933 2.03868 1.02534 0
M  V30 4 C 1.911 0.928543 1.3348 0
M  V30 5 O 3.095 1.19667 1.45644 0
M  V30 6 C 0.222 2.43627 2.35294 0
M  V30 7 C -0.732 3.65373 2.2001 0
M  V30 8 S 0.101 5.13292 1.52614 0
M  V30 9 C 1.257 5.56322 2.86805 0
M  V30 10 H 1.49 2.90518 0.631377 0
M  V30 11 H -0.977 1.52953 0.210867 0
M  V30 12 H 0.981 2.67203 3.11629 0
M  V30 13 H -0.358 1.57376 2.7183 0
M  V30 14 H -1.165 3.90944 3.18086 0
M  V30 15 H -1.563 3.418 1.51819 0
M  V30 16 H 0.729 5.58782 3.83104 0
M  V30 17 H 1.672 6.56266 2.65933 0
M  V30 18 H 2.08 4.83886 2.90714 0
M  V30 19 N 1.4781 -0.272755 1.55222 0
M  V30 20 C 2.7031 -1.02683 1.80197 0
M  V30 21 C 3.1281 -1.79142 0.573551 0
M  V30 22 O 2.4861 -1.74917 -0.476849 0
M  V30 23 C 2.5341 -1.9609 3.02624 0
M  V30 24 O 1.6381 -3.04863 2.77727 0
M  V30 25 H 0.9791 -0.293557 0.595584 0
M  V30 26 H 3.5091 -0.30159 2.02365 0
M  V30 27 H 3.5191 -2.38039 3.31363 0
M  V30 28 H 2.1941 -1.39851 3.91682 0
M  V30 29 H 0.7711 -2.67228 2.60084 0
M  V30 30 N 2.9562 -1.48159 -0.537278 0
M  V30 31 C 4.1812 -1.59707 -1.32319 0
M  V30 32 C 4.6062 -0.254859 -1.86365 0
M  V30 33 O 3.9642 0.772378 -1.64024 0
M  V30 34 C 4.0122 -2.6412 -2.45505 0
M  V30 35 O 3.1162 -2.20774 -3.48328 0
M  V30 36 H 2.4572 -0.535791 -0.392204 0
M  V30 37 H 4.9872 -1.94092 -0.647268 0
M  V30 38 H 4.9972 -2.85166 -2.91795 0
M  V30 39 H 3.6722 -3.61567 -2.05528 0
M  V30 40 H 2.2492 -2.09911 -3.08207 0
M  V30 41 N 4.4343 0.785586 -1.36625 0
M  V30 42 C 5.3663 1.90711 -1.2713 0
M  V30 43 C 6.3793 1.61688 -0.189986 0
M  V30 44 O 7.5683 1.72864 -0.445014 0
M  V30 45 C 4.6683 3.25611 -0.939713 0
M  V30 46 C 3.8413 3.82385 -2.12369 0
M  V30 47 C 2.9003 4.95732 -1.76456 0
M  V30 48 O 1.9263 5.12047 -2.48589 0
M  V30 49 N 3.1283 5.76258 -0.700492 0
M  V30 50 H 5.8933 1.99376 -2.23762 0
M  V30 51 H 3.4543 0.964041 -1.30069 0
M  V30 52 H 5.4463 3.98937 -0.680554 0
M  V30 53 H 4.0163 3.12538 -0.0624074 0
M  V30 54 H 3.2363 3.01001 -2.54543 0
M  V30 55 H 4.5243 4.17047 -2.9146 0
M  V30 56 H 3.9223 5.65609 -0.101624 0
M  V30 57 H 2.4793 6.4987 -0.501165 0
M  V30 58 N 5.9124 1.20967 1.01018 0
M  V30 59 C 6.8604 0.961223 2.1181 0
M  V30 60 C 7.8544 -0.0897034 1.69162 0
M  V30 61 O 9.0604 0.0612271 1.79896 0
M  V30 62 H 5.4354 0.29355 0.692338 0
M  V30 63 H 7.4064 1.90178 2.29946 0
M  V30 64 C 6.1554 0.536854 3.4353 0
M  V30 65 H 5.4784 1.33713 3.76777 0
M  V30 66 H 6.9184 0.402286 4.22087 0
M  V30 67 C 5.3774 -0.751574 3.2841 0
M  V30 68 O 5.9074 -1.80841 3.58691 0
M  V30 69 N 4.1134 -0.716079 2.81639 0
M  V30 70 H 3.6604 0.144236 2.57196 0
M  V30 71 H 3.6184 -1.57847 2.71904 0
M  V30 72 N 7.3905 -1.2043 1.01659 0
M  V30 73 C 8.3385 -2.25249 0.580143 0
M  V30 74 C 9.3325 -1.65057 -0.381115 0
M  V30 75 O 10.5385 -1.78241 -0.251039 0
M  V30 76 H 6.9135 -0.732695 0.169299 0
M  V30 77 H 8.8845 -2.59389 1.47512 0
M  V30 78 C 7.6335 -3.47638 -0.065788 0
M  V30 79 H 6.9565 -3.94233 0.664874 0
M  V30 80 H 8.3965 -4.2268 -0.334282 0
M  V30 81 C 6.8555 -3.10447 -1.3086 0
M  V30 82 O 7.3855 -3.21981 -2.4019 0
M  V30 83 N 5.5915 -2.64996 -1.1927 0
M  V30 84 H 5.1385 -2.55811 -0.303064 0
M  V30 85 H 5.0965 -2.40482 -2.02523 0
M  V30 86 N 8.8686 -0.792821 -1.36206 0
M  V30 87 C 9.8166 -0.181555 -2.3189 0
M  V30 88 C 10.8106 0.661025 -1.55971 0
M  V30 89 O 12.0166 0.555728 -1.71206 0
M  V30 90 H 8.3916 -0.0399382 -0.750939 0
M  V30 91 H 10.3626 -1.00394 -2.81005 0
M  V30 92 C 9.1116 0.666444 -3.41253 0
M  V30 93 H 8.4346 0.0274489 -3.99791 0
M  V30 94 H 9.8746 1.06076 -4.10517 0
M  V30 95 C 8.3336 1.82614 -2.83114 0
M  V30 96 O 8.8636 2.9229 -2.75553 0
M  V30 97 N 7.0696 1.63333 -2.40356 0
M  V30 98 H 6.6166 0.741217 -2.46706 0
M  V30 99 H 6.5746 2.41087 -2.01803 0
M  V30 100 N 10.3467 1.47872 -0.545128 0
M  V30 101 C 11.2937 2.29849 0.2093 0
M  V30 102 C 12.2637 1.38313 0.919707 0
M  V30 103 O 13.4487 1.67277 0.917772 0
M  V30 104 C 10.5887 3.22019 1.24088 0
M  V30 105 C 9.7017 4.2864 0.537778 0
M  V30 106 C 8.8367 5.07973 1.5536 0
M  V30 107 C 7.8757 6.06381 0.8348 0
M  V30 108 N 7.0127 6.78717 1.79688 0
M  V30 109 H 11.8527 2.93845 -0.49591 0
M  V30 110 H 9.3897 1.44848 -0.256389 0
M  V30 111 H 11.3477 3.73868 1.85144 0
M  V30 112 H 9.9777 2.59914 1.91428 0
M  V30 113 H 9.0297 3.7994 -0.187046 0
M  V30 114 H 10.3417 4.98793 -0.0258907 0
M  V30 115 H 9.4957 5.63912 2.23803 0
M  V30 116 H 8.2347 4.37693 2.15118 0
M  V30 117 H 7.2397 5.49631 0.136388 0
M  V30 118 H 8.4647 6.78665 0.24313 0
M  V30 119 H 6.4107 6.11177 2.38326 0
M  V30 120 H 6.3277 7.44998 1.28505 0
M  V30 121 H 7.5957 7.39237 2.47282 0
M  V30 122 N 11.8248 0.280983 1.55075 0
M  V30 123 C 12.7568 -0.637268 2.20163 0
M  V30 124 C 13.7698 -1.11298 1.18813 0
M  V30 125 O 14.9588 -1.03388 1.4551 0
M  V30 126 C 12.0588 -1.88199 2.81841 0
M  V30 127 C 11.2318 -1.55211 4.08936 0
M  V30 128 C 10.2908 -2.64991 4.54606 0
M  V30 129 O 9.3168 -2.30929 5.2025 0
M  V30 130 N 10.5188 -3.95161 4.25238 0
M  V30 131 H 13.2838 -0.0801694 2.99593 0
M  V30 132 H 10.8448 0.102329 1.61576 0
M  V30 133 H 12.8368 -2.60948 3.09335 0
M  V30 134 H 11.4068 -2.34799 2.06369 0
M  V30 135 H 10.6268 -0.658185 3.88666 0
M  V30 136 H 11.9148 -1.30681 4.91732 0
M  V30 137 H 11.3128 -4.25653 3.72607 0
M  V30 138 H 9.8698 -4.6427 4.5749 0
M  V30 139 N 13.3029 -1.57598 0.00835791 0
M  V30 140 C 14.5509 -1.90551 -0.6734 0
M  V30 141 C 14.8719 -0.883301 -1.73847 0
M  V30 142 O 14.1419 0.0781442 -1.95744 0
M  V30 143 H 12.7219 -0.703312 -0.251717 0
M  V30 144 H 15.3839 -1.94833 0.0512592 0
M  V30 145 H 14.4799 -2.9056 -1.13935 0
M  V30 146 N 14.781 0.264519 -1.55364 0
M  V30 147 C 16.029 0.993021 -1.76021 0
M  V30 148 C 16.35 1.86511 -0.569099 0
M  V30 149 O 15.62 1.91438 0.415735 0
M  V30 150 H 14.2 0.369639 -0.649135 0
M  V30 151 H 16.862 0.286707 -1.9278 0
M  V30 152 H 15.958 1.62502 -2.66457 0
M  V30 153 N 16.2591 1.48442 0.529413 0
M  V30 154 C 17.1911 1.59095 1.64989 0
M  V30 155 C 18.2041 0.475212 1.5571 0
M  V30 156 O 19.3931 0.746081 1.6216 0
M  V30 157 C 16.4931 1.50518 3.0364 0
M  V30 158 C 15.6661 2.77142 3.38395 0
M  V30 159 C 14.7251 2.62012 4.56329 0
M  V30 160 O 13.7511 3.35898 4.59522 0
M  V30 161 N 14.9531 1.71667 5.54536 0
M  V30 162 H 17.7181 2.55723 1.56287 0
M  V30 163 H 15.2791 1.45173 0.716697 0
M  V30 164 H 17.2711 1.38091 3.80412 0
M  V30 165 H 15.8411 0.618627 3.06418 0
M  V30 166 H 15.0611 3.0413 2.50796 0
M  V30 167 H 16.3491 3.61146 3.58401 0
M  V30 168 H 15.7471 1.10841 5.54735 0
M  V30 169 H 14.3041 1.65178 6.30523 0
M  V30 170 N 17.7372 -0.778329 1.37039 0
M  V30 171 C 19.0142 -1.52551 1.22424 0
M  V30 172 C 19.3942 -2.10288 -0.184964 0
M  V30 173 O 18.7422 -1.94953 -1.19187 0
M  V30 174 C 18.9522 -2.61164 2.31504 0
M  V30 175 C 20.3002 -3.28746 2.68721 0
M  V30 176 O 21.3242 -2.71455 2.30631 0
M  V30 177 O 20.1832 -4.3231 3.3432 0
M  V30 178 H 17.2772 -0.675343 0.477326 0
M  V30 179 H 19.8232 -0.815859 1.48801 0
M  V30 180 H 18.5952 -2.16574 3.25901 0
M  V30 181 H 18.2182 -3.39737 2.06554 0
M  V30 182 N 19.2153 -1.21501 -1.00376 0
M  V30 183 C 20.4643 -1.02718 -1.73586 0
M  V30 184 C 20.7773 0.439589 -1.90596 0
M  V30 185 O 21.9833 0.746848 -2.61026 0
M  V30 186 C 20.4393 -1.78929 -3.1227 0
M  V30 187 C 20.0473 -3.29783 -3.03228 0
M  V30 188 C 21.7913 -1.68557 -3.89601 0
M  V30 189 C 19.6983 -3.98479 -4.36999 0
M  V30 190 H 18.6283 -0.380733 -0.650814 0
M  V30 191 H 21.2793 -1.45248 -1.1214 0
M  V30 192 H 19.6613 -1.29192 -3.74333 0
M  V30 193 H 20.8353 -3.86832 -2.50395 0
M  V30 194 H 19.1503 -3.40711 -2.39385 0
M  V30 195 H 21.7473 -2.17211 -4.88593 0
M  V30 196 H 22.0903 -0.644021 -4.11288 0
M  V30 197 H 22.6233 -2.15778 -3.34193 0
M  V30 198 H 19.3623 -5.02841 -4.20513 0
M  V30 199 H 18.8823 -3.46219 -4.89788 0
M  V30 200 H 20.5613 -4.03462 -5.05794 0
M  V30 201 N 20.6934 1.19889 -1.02296 0
M  V30 202 C 21.6414 2.24938 -0.592081 0
M  V30 203 C 22.6354 1.65257 0.372357 0
M  V30 204 O 23.8414 1.78371 0.241583 0
M  V30 205 H 20.2164 0.731787 -0.173182 0
M  V30 206 H 22.1874 2.58603 -1.48885 0
M  V30 207 C 20.9364 3.47668 0.047351 0
M  V30 208 H 20.2594 3.93875 -0.685772 0
M  V30 209 H 21.6994 4.22852 0.311862 0
M  V30 210 C 20.1584 3.11136 1.29212 0
M  V30 211 O 20.6884 3.2325 2.38479 0
M  V30 212 N 18.8944 2.65625 1.17863 0
M  V30 213 H 18.4414 2.55968 0.289493 0
M  V30 214 H 18.3994 2.41553 2.01245 0
M  V30 215 N 22.1715 0.800033 1.35784 0
M  V30 216 C 23.1195 0.193851 2.31791 0
M  V30 217 C 24.1135 -0.652744 1.56319 0
M  V30 218 O 25.3195 -0.546641 1.71499 0
M  V30 219 H 21.6945 0.04392 0.750716 0
M  V30 220 H 23.6655 1.01883 2.80468 0
M  V30 221 C 22.4145 -0.648338 3.41602 0
M  V30 222 H 21.7375 -0.00624665 3.998 0
M  V30 223 H 23.1775 -1.03898 4.11073 0
M  V30 224 C 21.6365 -1.8111 2.84079 0
M  V30 225 O 22.1665 -2.90825 2.77099 0
M  V30 226 N 20.3725 -1.62056 2.41218 0
M  V30 227 H 19.9195 -0.728123 2.47095 0
M  V30 228 H 19.8775 -2.40013 2.03079 0
M  V30 229 N 23.6496 -1.47581 0.552962 0
M  V30 230 C 24.5966 -2.29957 -0.197108 0
M  V30 231 C 25.5666 -1.38799 -0.912359 0
M  V30 232 O 26.7516 -1.67761 -0.908888 0
M  V30 233 C 23.8916 -3.22672 -1.22379 0
M  V30 234 C 23.0046 -4.28919 -0.515038 0
M  V30 235 C 22.1396 -5.0879 -1.52664 0
M  V30 236 C 21.1786 -6.06815 -0.802631 0
M  V30 237 N 20.3156 -6.7966 -1.76086 0
M  V30 238 H 25.1556 -2.93578 0.511486 0
M  V30 239 H 22.6926 -1.4471 0.264067 0
M  V30 240 H 24.6506 -3.74845 -1.83159 0
M  V30 241 H 23.2806 -2.60925 -1.90047 0
M  V30 242 H 22.3326 -3.79835 0.207192 0
M  V30 243 H 23.6446 -4.98773 0.0523425 0
M  V30 244 H 22.7986 -5.65091 -2.20809 0
M  V30 245 H 21.5376 -4.38828 -2.12794 0
M  V30 246 H 20.5426 -5.49695 -0.107238 0
M  V30 247 H 21.7676 -6.78784 -0.207135 0
M  V30 248 H 19.7136 -6.12432 -2.35081 0
M  V30 249 H 19.6306 -7.45669 -1.24552 0
M  V30 250 H 20.8986 -7.40538 -2.43359 0
M  V30 251 N 25.1277 -0.289203 -1.54924 0
M  V30 252 C 26.0747 0.592115 -2.23075 0
M  V30 253 C 27.0447 1.13881 -1.20915 0
M  V30 254 O 28.2297 1.18551 -1.495 0
M  V30 255 C 25.3697 1.76376 -2.96623 0
M  V30 256 C 24.4827 1.24959 -4.13533 0
M  V30 257 C 23.6177 2.38416 -4.74691 0
M  V30 258 C 22.6567 1.84072 -5.83767 0
M  V30 259 N 21.7937 2.91057 -6.38929 0
M  V30 260 H 26.6337 0.00432038 -2.98 0
M  V30 261 H 24.1707 -0.00963529 -1.47097 0
M  V30 262 H 26.1287 2.45268 -3.3749 0
M  V30 263 H 24.7587 2.32337 -2.24097 0
M  V30 264 H 23.8107 0.453307 -3.77689 0
M  V30 265 H 25.1227 0.811662 -4.92152 0
M  V30 266 H 24.2767 3.15276 -5.18349 0
M  V30 267 H 23.0157 2.8553 -3.95378 0
M  V30 268 H 22.0207 1.05697 -5.39545 0
M  V30 269 H 23.2457 1.37877 -6.64956 0
M  V30 270 H 21.1917 3.37526 -5.62505 0
M  V30 271 H 21.1087 2.51724 -7.12861 0
M  V30 272 H 22.3767 3.6785 -6.87246 0
M  V30 273 N 26.6058 1.57591 -0.0167156 0
M  V30 274 C 27.8828 1.82547 0.702564 0
M  V30 275 C 28.2628 0.898018 1.91047 0
M  V30 276 O 27.6108 -0.0493456 2.28447 0
M  V30 277 C 27.8208 3.31459 1.09251 0
M  V30 278 C 29.1688 3.97622 1.48937 0
M  V30 279 O 30.1928 3.35881 1.18584 0
M  V30 280 O 29.0518 5.06415 2.05442 0
M  V30 281 H 26.1458 0.752268 0.343544 0
M  V30 282 H 28.6918 1.69644 -0.0434495 0
M  V30 283 H 27.4638 3.9061 0.23227 0
M  V30 284 H 27.0868 3.49422 1.89709 0
M  V30 285 N 28.0839 -0.256276 1.55502 0
M  V30 286 C 29.3089 -1.00766 1.81276 0
M  V30 287 C 29.7339 -1.78524 0.59252 0
M  V30 288 O 29.0919 -1.75413 -0.45827 0
M  V30 289 C 29.1399 -1.92869 3.04687 0
M  V30 290 O 28.2439 -3.019 2.80945 0
M  V30 291 H 27.5849 -0.287224 0.598664 0
M  V30 292 H 30.1149 -0.280109 2.02674 0
M  V30 293 H 30.1249 -2.34511 3.33869 0
M  V30 294 H 28.7999 -1.35689 3.93143 0
M  V30 295 H 27.3769 -2.64454 2.62904 0
M  V30 296 N 29.562 -1.4872 -0.521534 0
M  V30 297 C 30.839 -1.4766 -1.2828 0
M  V30 298 C 31.219 -0.19292 -2.10217 0
M  V30 299 O 30.567 0.825193 -2.13079 0
M  V30 300 C 30.777 -2.74358 -2.15705 0
M  V30 301 C 32.125 -3.23028 -2.75569 0
M  V30 302 O 33.149 -2.75333 -2.25987 0
M  V30 303 O 32.008 -4.0604 -3.65778 0
M  V30 304 H 29.102 -0.590085 -0.579421 0
M  V30 305 H 31.648 -1.60963 -0.537492 0
M  V30 306 H 30.42 -3.59292 -1.54999 0
M  V30 307 H 30.043 -2.63816 -2.97467 0
M  V30 308 N 31.0401 0.771051 -1.3745 0
M  V30 309 C 32.3171 1.519 -1.23231 0
M  V30 310 C 32.6971 2.10383 0.173809 0
M  V30 311 O 32.0451 1.95583 1.18151 0
M  V30 312 C 32.2551 2.59933 -2.32886 0
M  V30 313 C 33.6031 3.27316 -2.70461 0
M  V30 314 O 34.6271 2.70228 -2.32068 0
M  V30 315 O 33.4861 4.30531 -3.36608 0
M  V30 316 H 30.5801 0.672803 -0.480901 0
M  V30 317 H 33.1261 0.807957 -1.49232 0
M  V30 318 H 31.8981 2.14842 -3.27045 0
M  V30 319 H 31.5211 3.38637 -2.08353 0
M  V30 320 N 32.5182 1.22032 0.997298 0
M  V30 321 C 33.7672 1.03637 1.73038 0
M  V30 322 C 34.0802 -0.429475 1.90827 0
M  V30 323 O 35.2862 -0.732995 2.61418 0
M  V30 324 C 33.7422 1.80582 3.11317 0
M  V30 325 C 33.3502 3.31387 3.01474 0
M  V30 326 C 35.0942 1.70621 3.88701 0
M  V30 327 C 33.0012 4.00791 4.3488 0
M  V30 328 H 31.9312 0.384179 0.648785 0
M  V30 329 H 34.5822 1.4584 1.11368 0
M  V30 330 H 32.9642 1.31175 3.73643 0
M  V30 331 H 34.1382 3.88155 2.4834 0
M  V30 332 H 32.4532 3.41976 2.37575 0
M  V30 333 H 35.0502 2.19799 4.87434 0
M  V30 334 H 35.3932 0.665823 4.10941 0
M  V30 335 H 35.9262 2.17547 3.33044 0
M  V30 336 H 32.6652 5.05064 4.1784 0
M  V30 337 H 32.1852 3.48811 4.87945 0
M  V30 338 H 33.8642 4.06139 5.03647 0
M  V30 339 N 33.9963 -1.19345 1.0293 0
M  V30 340 C 34.9433 -2.2258 0.610464 0
M  V30 341 C 35.9133 -1.6179 -0.375946 0
M  V30 342 O 37.0983 -1.88844 -0.272511 0
M  V30 343 C 34.2383 -3.45085 -0.0321473 0
M  V30 344 C 33.3513 -4.20258 1.00035 0
M  V30 345 C 32.4863 -5.3019 0.32746 0
M  V30 346 C 31.5253 -5.97121 1.34584 0
M  V30 347 N 30.6623 -6.98615 0.698726 0
M  V30 348 H 35.5023 -2.57764 1.49538 0
M  V30 349 H 33.0393 -1.26644 0.748311 0
M  V30 350 H 34.9973 -4.15061 -0.421966 0
M  V30 351 H 33.6273 -3.10555 -0.88064 0
M  V30 352 H 32.6793 -3.49223 1.50823 0
M  V30 353 H 33.9913 -4.66175 1.77433 0
M  V30 354 H 33.1453 -6.06587 -0.11718 0
M  V30 355 H 31.8843 -4.85345 -0.478713 0
M  V30 356 H 30.8893 -5.19474 1.80074 0
M  V30 357 H 32.1143 -6.4405 2.15352 0
M  V30 358 H 30.0603 -6.55942 -0.0873471 0
M  V30 359 H 29.9773 -7.42724 1.41058 0
M  V30 360 H 31.2453 -7.79004 0.278102 0
M  V30 361 N 35.4744 -0.807222 -1.35358 0
M  V30 362 C 36.8854 -0.44876 -1.81226 0
M  V30 363 C 37.2364 1.02929 -1.67033 0
M  V30 364 O 36.3614 1.79991 -1.20133 0
M  V30 365 C 36.9564 -0.807774 -3.2903 0
M  V30 366 C 35.5154 -0.501901 -3.73039 0
M  V30 367 C 34.6624 -1.03304 -2.57339 0
M  V30 368 H 37.6134 -0.998808 -1.23327 0
M  V30 369 H 37.6344 -0.10554 -3.80354 0
M  V30 370 H 37.1464 -1.88357 -3.39328 0
M  V30 371 H 35.2474 0.565128 -3.68289 0
M  V30 372 H 35.3604 -1.03497 -4.67787 0
M  V30 373 H 33.7244 -0.455339 -2.50597 0
M  V30 374 H 34.5074 -2.11496 -2.70415 0
M  V30 375 N 36.9525 1.47285 -0.560781 0
M  V30 376 C 38.1775 2.07359 -0.0410566 0
M  V30 377 C 38.6025 1.41017 1.24483 0
M  V30 378 O 37.9605 0.486368 1.74654 0
M  V30 379 C 38.0085 3.6035 0.134123 0
M  V30 380 O 37.1125 3.94681 1.19587 0
M  V30 381 H 36.4535 0.661887 -0.0529291 0
M  V30 382 H 38.9835 1.89252 -0.777482 0
M  V30 383 H 38.9935 4.0652 0.347207 0
M  V30 384 H 37.6685 4.08034 -0.805047 0
M  V30 385 H 36.2455 3.60251 0.962987 0
M  V30 386 N 38.4306 0.297415 1.54768 0
M  V30 387 C 39.6766 -0.313376 2.00364 0
M  V30 388 C 40.0096 -1.53815 1.18553 0
M  V30 389 O 39.2846 -1.92739 0.261103 0
M  V30 390 C 39.5676 -0.673525 3.53745 0
M  V30 391 C 39.4206 0.560133 4.46299 0
M  V30 392 C 40.7396 -1.50143 4.13697 0
M  V30 393 H 37.8586 -0.112428 0.728374 0
M  V30 394 H 40.5006 0.4088 1.8555 0
M  V30 395 H 38.6506 -1.28881 3.665 0
M  V30 396 H 40.3226 1.19863 4.45455 0
M  V30 397 H 38.5656 1.19405 4.17043 0
M  V30 398 H 39.2366 0.26405 5.51368 0
M  V30 399 H 41.7126 -0.981588 4.04356 0
M  V30 400 H 40.5886 -1.72221 5.21182 0
M  V30 401 H 40.8496 -2.48952 3.65343 0
M  V30 402 N 39.9087 -1.5758 0.0250728 0
M  V30 403 C 41.1337 -1.96337 -0.668317 0
M  V30 404 C 41.5587 -0.901314 -1.651 0
M  V30 405 O 40.9167 0.138187 -1.80773 0
M  V30 406 C 40.9647 -3.34191 -1.35457 0
M  V30 407 O 40.0687 -3.30269 -2.46974 0
M  V30 408 H 39.4097 -0.640281 -0.175887 0
M  V30 409 H 41.9397 -2.0442 0.0857224 0
M  V30 410 H 41.9497 -3.70331 -1.71228 0
M  V30 411 H 40.6247 -4.11036 -0.634218 0
M  V30 412 H 39.2017 -3.05841 -2.13344 0
M  V30 413 N 41.3868 0.248026 -1.55636 0
M  V30 414 C 42.3338 1.30707 -1.90222 0
M  V30 415 C 43.3038 1.47881 -0.756332 0
M  V30 416 O 44.4888 1.61883 -1.00988 0
M  V30 417 C 41.6288 2.65769 -2.20138 0
M  V30 418 C 40.7418 2.56612 -3.47526 0
M  V30 419 C 39.8768 3.8402 -3.67017 0
M  V30 420 C 38.9158 3.69476 -4.8801 0
M  V30 421 N 38.0528 4.88774 -5.04029 0
M  V30 422 H 42.8928 1.00512 -2.80538 0
M  V30 423 H 40.4298 0.485055 -1.38873 0
M  V30 424 H 42.3878 3.44386 -2.35487 0
M  V30 425 H 41.0178 2.94115 -1.33027 0
M  V30 426 H 40.0698 1.69571 -3.40514 0
M  V30 427 H 41.3818 2.41774 -4.36287 0
M  V30 428 H 40.5358 4.7108 -3.8232 0
M  V30 429 H 39.2748 4.01754 -2.76487 0
M  V30 430 H 38.2798 2.80799 -4.72686 0
M  V30 431 H 39.5048 3.53238 -5.8 0
M  V30 432 H 37.4508 5.0687 -4.16435 0
M  V30 433 H 37.3678 4.76562 -5.86877 0
M  V30 434 H 38.6358 5.77335 -5.23741 0
M  V30 435 N 42.8649 1.48995 0.513639 0
M  V30 436 C 43.7749 1.67443 1.64317 0
M  V30 437 C 44.7909 0.556947 1.64846 0
M  V30 438 O 45.9669 0.830082 1.83498 0
M  V30 439 C 43.0319 1.72515 3.00732 0
M  V30 440 C 42.0929 2.96009 3.1093 0
M  V30 441 C 41.3259 3.00829 4.40837 0
M  V30 442 O 41.5489 2.13594 5.28898 0
M  V30 443 O 40.4829 3.93168 4.55744 0
M  V30 444 H 44.3089 2.63106 1.51687 0
M  V30 445 H 41.8939 1.32588 0.688543 0
M  V30 446 H 43.7759 1.78277 3.81831 0
M  V30 447 H 42.4509 0.800278 3.13651 0
M  V30 448 H 41.3579 2.9577 2.29065 0
M  V30 449 H 42.6909 3.87934 3.02933 0
M  V30 450 N 44.343 -0.763751 1.37857 0
M  V30 451 C 45.62 -1.51244 1.24035 0
M  V30 452 C 46 -2.10472 -0.162649 0
M  V30 453 O 45.348 -1.96206 -1.17112 0
M  V30 454 C 45.558 -2.58694 2.34261 0
M  V30 455 C 46.906 -3.25878 2.72193 0
M  V30 456 O 47.93 -2.68993 2.33497 0
M  V30 457 O 46.789 -4.2874 3.38887 0
M  V30 458 H 43.883 -0.670243 0.484462 0
M  V30 459 H 46.429 -0.800031 1.49658 0
M  V30 460 H 45.201 -2.13105 3.2818 0
M  V30 461 H 44.824 -3.37527 2.10146 0
M  V30 462 N 45.8211 -1.22559 -0.990812 0
M  V30 463 C 46.7511 -1.0218 -2.09956 0
M  V30 464 C 47.7321 0.0579394 -1.70001 0
M  V30 465 O 48.9171 -0.104684 -1.93918 0
M  V30 466 C 46.0471 -0.601023 -3.4206 0
M  V30 467 C 45.0011 -1.62694 -3.95872 0
M  V30 468 C 44.3271 -1.06193 -5.24049 0
M  V30 469 C 45.6271 -3.01743 -4.2632 0
M  V30 470 H 47.3211 -1.94916 -2.27262 0
M  V30 471 H 44.8671 -0.938566 -1.09211 0
M  V30 472 H 46.8201 -0.445561 -4.19038 0
M  V30 473 H 45.5441 0.362005 -3.24588 0
M  V30 474 H 44.2031 -1.77021 -3.21028 0
M  V30 475 H 43.8511 -0.0901903 -5.02919 0
M  V30 476 H 43.5511 -1.74732 -5.61019 0
M  V30 477 H 45.0751 -0.918092 -6.03658 0
M  V30 478 H 46.4891 -2.90777 -4.94087 0
M  V30 479 H 44.8861 -3.67425 -4.74467 0
M  V30 480 H 45.9561 -3.51518 -3.34011 0
M  V30 481 N 47.2992 1.18797 -1.03562 0
M  V30 482 C 48.5482 1.87978 -0.731235 0
M  V30 483 C 48.8612 1.80911 0.743671 0
M  V30 484 O 50.0672 2.45407 1.16137 0
M  V30 485 C 48.5232 3.3721 -1.25768 0
M  V30 486 C 48.1312 3.52818 -2.76085 0
M  V30 487 C 49.8752 4.11825 -1.0296 0
M  V30 488 C 47.7822 4.9598 -3.22114 0
M  V30 489 H 46.7122 0.704063 -0.269835 0
M  V30 490 H 49.3632 1.34266 -1.25079 0
M  V30 491 H 47.7452 3.90359 -0.666011 0
M  V30 492 H 48.9192 3.09965 -3.40966 0
M  V30 493 H 47.2342 2.91602 -2.97249 0
M  V30 494 H 49.8312 5.17411 -1.34869 0
M  V30 495 H 50.1742 4.16287 0.0333546 0
M  V30 496 H 50.7072 3.64833 -1.58562 0
M  V30 497 H 47.4462 4.96684 -4.27768 0
M  V30 498 H 46.9662 5.39569 -2.61965 0
M  V30 499 H 48.6452 5.6467 -3.15844 0
M  V30 500 N 48.7773 0.814389 1.34928 0
M  V30 501 C 49.7253 0.218424 2.31572 0
M  V30 502 C 50.7193 -0.636128 1.57002 0
M  V30 503 O 51.9253 -0.52842 1.72069 0
M  V30 504 H 48.3003 0.0518799 0.750208 0
M  V30 505 H 50.2713 1.04852 2.79372 0
M  V30 506 C 49.0203 -0.61207 3.4227 0
M  V30 507 H 48.3433 0.0361578 3.99784 0
M  V30 508 H 49.7833 -0.995317 4.12152 0
M  V30 509 C 48.2423 -1.78087 2.85984 0
M  V30 510 O 48.7723 -2.8787 2.80168 0
M  V30 511 N 46.9783 -1.59488 2.42924 0
M  V30 512 H 46.5253 -0.701874 2.47854 0
M  V30 513 H 46.4833 -2.37846 2.05613 0
M  V30 514 N 50.2554 -1.46986 0.568584 0
M  V30 515 C 51.4804 -2.07335 0.0520528 0
M  V30 516 C 51.9054 -1.41675 -1.23733 0
M  V30 517 O 51.2634 -0.495623 -1.74394 0
M  V30 518 C 51.3114 -3.60417 -0.11501 0
M  V30 519 O 50.4154 -3.95309 -1.17492 0
M  V30 520 H 49.7564 -0.661597 0.0564385 0
M  V30 521 H 52.2864 -1.88837 0.787507 0
M  V30 522 H 52.2964 -4.06698 -0.325644 0
M  V30 523 H 50.9714 -4.07601 0.826675 0
M  V30 524 H 49.5484 -3.60757 -0.943869 0
M  V30 525 N 51.7335 -0.305618 -1.54608 0
M  V30 526 C 52.6635 0.561482 -2.26649 0
M  V30 527 C 53.6445 1.13415 -1.26772 0
M  V30 528 O 54.8295 1.16262 -1.55553 0
M  V30 529 C 51.9595 1.73122 -3.01075 0
M  V30 530 C 50.9135 1.2887 -4.08138 0
M  V30 531 C 50.2395 2.54396 -4.70305 0
M  V30 532 C 51.5395 0.416578 -5.20636 0
M  V30 533 H 53.2335 -0.0393902 -2.99374 0
M  V30 534 H 50.7795 -0.020385 -1.43986 0
M  V30 535 H 52.7325 2.34396 -3.50195 0
M  V30 536 H 51.4565 2.3584 -2.25936 0
M  V30 537 H 50.1155 0.698991 -3.59875 0
M  V30 538 H 49.7635 3.15439 -3.918 0
M  V30 539 H 49.4635 2.25486 -5.42614 0
M  V30 540 H 50.9875 3.16464 -5.2219 0
M  V30 541 H 52.4015 0.935116 -5.65622 0
M  V30 542 H 50.7985 0.221046 -5.99693 0
M  V30 543 H 51.8685 -0.557162 -4.81688 0
M  V30 544 N 53.2116 1.57565 -0.0334293 0
M  V30 545 C 54.1586 2.10478 0.946981 0
M  V30 546 C 55.1286 1.00787 1.32027 0
M  V30 547 O 56.3136 1.28232 1.41284 0
M  V30 548 C 53.4536 2.63994 2.22263 0
M  V30 549 C 52.5666 3.87709 1.90541 0
M  V30 550 C 51.7016 4.29604 3.12433 0
M  V30 551 C 50.7406 5.46065 2.76549 0
M  V30 552 N 49.8776 5.83096 3.9108 0
M  V30 553 H 54.7176 2.93963 0.488846 0
M  V30 554 H 52.2546 1.45296 0.22969 0
M  V30 555 H 54.2126 2.93114 2.96884 0
M  V30 556 H 52.8426 1.83333 2.65685 0
M  V30 557 H 51.8946 3.65291 1.06144 0
M  V30 558 H 53.2066 4.72403 1.60116 0
M  V30 559 H 52.3606 4.60182 3.9537 0
M  V30 560 H 51.0996 3.43685 3.46023 0
M  V30 561 H 50.1046 5.15176 1.92026 0
M  V30 562 H 51.3296 6.33685 2.44171 0
M  V30 563 H 49.2756 5.00132 4.24504 0
M  V30 564 H 49.1926 6.6244 3.64293 0
M  V30 565 H 50.4606 6.18282 4.74708 0
M  V30 566 N 54.6897 -0.239769 1.55765 0
M  V30 567 C 55.6377 -1.31668 1.91745 0
M  V30 568 C 56.6317 -1.49462 0.797338 0
M  V30 569 O 57.8377 -1.50852 0.982021 0
M  V30 570 H 54.2127 -0.441048 0.609082 0
M  V30 571 H 56.1837 -0.985923 2.81642 0
M  V30 572 C 54.9327 -2.66368 2.2348 0
M  V30 573 H 54.2557 -2.53478 3.09175 0
M  V30 574 H 55.6957 -3.40578 2.52553 0
M  V30 575 C 54.1547 -3.20002 1.05359 0
M  V30 576 O 54.6847 -4.00538 0.305261 0
M  V30 577 N 52.8907 -2.78126 0.842292 0
M  V30 578 H 52.4377 -2.12742 1.45253 0
M  V30 579 H 52.3957 -3.14354 0.053652 0
M  V30 580 N 56.1678 -1.49265 -0.50573 0
M  V30 581 C 57.4448 -1.49012 -1.26707 0
M  V30 582 C 57.8248 -0.215205 -2.1 0
M  V30 583 O 57.1728 0.802547 -2.13943 0
M  V30 584 C 57.3828 -2.7663 -2.12783 0
M  V30 585 C 58.7308 -3.25932 -2.72127 0
M  V30 586 O 59.7548 -2.77715 -2.23054 0
M  V30 587 O 58.6138 -4.09897 -3.61451 0
M  V30 588 H 55.7078 -0.596197 -0.57313 0
M  V30 589 H 58.2538 -1.61524 -0.52039 0
M  V30 590 H 57.0258 -3.60916 -1.5118 0
M  V30 591 H 56.6488 -2.66956 -2.94653 0
M  V30 592 N 57.6459 0.756429 -1.3826 0
M  V30 593 C 58.5559 1.9009 -1.37488 0
M  V30 594 C 59.5719 1.71855 -0.272366 0
M  V30 595 O 60.7479 1.94827 -0.510318 0
M  V30 596 C 57.8129 3.25421 -1.19592 0
M  V30 597 C 56.8739 3.56202 -2.39622 0
M  V30 598 C 56.1069 4.85075 -2.2257 0
M  V30 599 O 56.3299 5.57246 -1.21793 0
M  V30 600 O 55.2639 5.15269 -3.11098 0
M  V30 601 H 59.0899 1.93695 -2.33914 0
M  V30 602 H 56.6749 0.901313 -1.1915 0
M  V30 603 H 58.5569 4.06337 -1.11661 0
M  V30 604 H 57.2319 3.22634 -0.262486 0
M  V30 605 H 56.1389 2.75458 -2.53128 0
M  V30 606 H 57.4719 3.63747 -3.31586 0
M  V30 607 N 59.124 1.23083 0.984299 0
M  V30 608 C 60.054 1.03292 2.09411 0
M  V30 609 C 61.035 -0.048923 1.7003 0
M  V30 610 O 62.22 0.114967 1.93859 0
M  V30 611 C 59.35 0.619155 3.41736 0
M  V30 612 C 58.304 1.64791 3.95004 0
M  V30 613 C 57.63 1.0897 5.23478 0
M  V30 614 C 58.93 3.03999 4.24714 0
M  V30 615 H 60.624 1.96119 2.26225 0
M  V30 616 H 58.17 0.944344 1.08711 0
M  V30 617 H 60.123 0.467777 4.18796 0
M  V30 618 H 58.847 -0.344786 3.24775 0
M  V30 619 H 57.506 1.78721 3.20085 0
M  V30 620 H 57.154 0.11686 5.02864 0
M  V30 621 H 56.854 1.77704 5.60085 0
M  V30 622 H 58.378 0.950093 6.03163 0
M  V30 623 H 59.792 2.93393 4.92538 0
M  V30 624 H 58.189 3.69936 4.72512 0
M  V30 625 H 59.259 3.53285 3.32142 0
M  V30 626 N 60.6021 -1.18246 1.0419 0
M  V30 627 C 61.5501 -2.23968 0.627792 0
M  V30 628 C 62.5441 -1.65828 -0.346019 0
M  V30 629 O 63.7501 -1.78733 -0.213175 0
M  V30 630 H 60.1251 -0.728939 0.184802 0
M  V30 631 H 62.0961 -2.56202 1.52981 0
M  V30 632 C 60.8451 -3.47699 0.00796591 0
M  V30 633 H 60.1681 -3.92734 0.748347 0
M  V30 634 H 61.6081 -4.23294 -0.24455 0
M  V30 635 C 60.0671 -3.13153 -1.24246 0
M  V30 636 O 60.5971 -3.27003 -2.33307 0
M  V30 637 N 58.8031 -2.67467 -1.13622 0
M  V30 638 H 58.3501 -2.56396 -0.248734 0
M  V30 639 H 58.3081 -2.44724 -1.97377 0
M  V30 640 N 62.0802 -0.821533 -1.34494 0
M  V30 641 C 63.0272 -0.240397 -2.29545 0
M  V30 642 C 63.9972 0.634031 -1.53523 0
M  V30 643 O 65.1822 0.575966 -1.81899 0
M  V30 644 C 62.3222 0.592869 -3.39969 0
M  V30 645 C 61.4352 -0.30365 -4.30932 0
M  V30 646 C 60.5702 0.539049 -5.28458 0
M  V30 647 C 59.6092 -0.356942 -6.11058 0
M  V30 648 N 58.7462 0.446603 -7.00678 0
M  V30 649 H 63.5862 -1.05632 -2.7865 0
M  V30 650 H 61.1232 -0.532413 -1.37127 0
M  V30 651 H 63.0812 1.09129 -4.02675 0
M  V30 652 H 61.7112 1.37392 -2.92102 0
M  V30 653 H 60.7632 -0.920276 -3.691 0
M  V30 654 H 62.0752 -0.992661 -4.88823 0
M  V30 655 H 61.2292 1.102 -5.96608 0
M  V30 656 H 59.9682 1.26157 -4.71101 0
M  V30 657 H 58.9732 -0.932047 -5.41842 0
M  V30 658 H 60.1982 -1.07755 -6.70497 0
M  V30 659 H 58.1442 1.15282 -6.45791 0
M  V30 660 H 58.0612 -0.184048 -7.55776 0
M  V30 661 H 59.3292 0.992352 -7.73158 0
M  V30 662 N 63.5583 1.46682 -0.576371 0
M  V30 663 C 64.5063 2.31953 0.17335 0
M  V30 664 C 65.5003 1.44098 0.89062 0
M  V30 665 O 66.7063 1.60759 0.809728 0
M  V30 666 H 63.0813 0.748273 0.0747727 0
M  V30 667 H 65.0523 2.93007 -0.564738 0
M  V30 668 C 63.8013 3.27142 1.17786 0
M  V30 669 H 63.1243 3.94719 0.635361 0
M  V30 670 H 64.5643 3.896 1.67296 0
M  V30 671 C 63.0233 2.52036 2.23561 0
M  V30 672 O 63.5533 2.27877 3.3081 0
M  V30 673 N 61.7593 2.12709 1.97998 0
M  V30 674 H 61.3063 2.32557 1.10792 0
M  V30 675 H 61.2643 1.62776 2.68982 0
M  V30 676 N 65.0364 0.313813 1.54444 0
M  V30 677 C 66.2644 -0.293918 2.04802 0
M  V30 678 C 66.6794 -1.46537 1.19047 0
M  V30 679 O 66.0364 -1.81182 0.218939 0
M  V30 680 C 66.0874 -0.737806 3.53891 0
M  V30 681 O 65.8084 0.387038 4.36387 0
M  V30 682 C 67.3094 -1.40936 4.203 0
M  V30 683 H 64.5294 -0.0620057 0.668129 0
M  V30 684 H 67.0734 0.457169 1.99324 0
M  V30 685 H 65.2284 -1.43889 3.59687 0
M  V30 686 H 65.6424 0.0391274 5.24485 0
M  V30 687 H 67.1164 -1.67099 5.26101 0
M  V30 688 H 67.5934 -2.35355 3.70816 0
M  V30 689 H 68.1994 -0.751117 4.18615 0
M  V30 690 N 66.5145 -1.57545 0.0417849 0
M  V30 691 C 67.7425 -1.96624 -0.643928 0
M  V30 692 C 68.1575 -0.918897 -1.64929 0
M  V30 693 O 67.5145 0.0979323 -1.82237 0
M  V30 694 C 67.5655 -3.35781 -1.33914 0
M  V30 695 O 67.2865 -4.365 -0.374048 0
M  V30 696 C 68.7875 -3.89566 -2.1155 0
M  V30 697 H 66.0075 -0.647316 -0.176702 0
M  V30 698 H 68.5515 -2.04229 0.105304 0
M  V30 699 H 66.7065 -3.29357 -2.03968 0
M  V30 700 H 67.1205 -5.17248 -0.869179 0
M  V30 701 H 68.5945 -4.89242 -2.55628 0
M  V30 702 H 69.0715 -3.24488 -2.9598 0
M  V30 703 H 69.6775 -3.99298 -1.46427 0
M  V30 704 N 67.9926 0.231505 -1.5589 0
M  V30 705 C 68.9256 1.31369 -1.86595 0
M  V30 706 C 69.9036 1.45671 -0.722397 0
M  V30 707 O 71.0876 1.61642 -0.969743 0
M  V30 708 C 68.2146 2.68529 -2.06421 0
M  V30 709 C 67.2606 2.71295 -3.29092 0
M  V30 710 S 68.0936 2.26358 -4.85306 0
M  V30 711 C 69.2496 3.65414 -5.08157 0
M  V30 712 H 69.4826 1.05128 -2.78092 0
M  V30 713 H 67.0156 0.433259 -1.48197 0
M  V30 714 H 68.9736 3.47499 -2.18528 0
M  V30 715 H 67.6346 2.91999 -1.15738 0
M  V30 716 H 66.8276 3.72063 -3.39978 0
M  V30 717 H 66.4296 2.0038 -3.15791 0
M  V30 718 H 68.7216 4.6103 -4.96445 0
M  V30 719 H 69.6646 3.5945 -6.10083 0
M  V30 720 H 70.0726 3.5864 -4.35933 0
M  V30 721 N 69.4707 1.49531 0.497807 0
M  V30 722 C 70.7477 1.49682 1.25915 0
M  V30 723 C 71.1277 0.226339 2.09883 0
M  V30 724 O 70.4757 -0.791189 2.14365 0
M  V30 725 C 70.6857 2.77755 2.11313 0
M  V30 726 C 72.0337 3.27371 2.70395 0
M  V30 727 O 73.0577 2.78894 2.21578 0
M  V30 728 O 71.9167 4.11808 3.59272 0
M  V30 729 H 69.0107 0.599228 0.56996 0
M  V30 730 H 71.5567 1.61798 0.511816 0
M  V30 731 H 70.3287 3.61713 1.49264 0
M  V30 732 H 69.9517 2.68515 2.93233 0
M  V30 733 N 70.9488 -0.749086 1.3866 0
M  V30 734 C 71.8808 -1.87273 1.32142 0
M  V30 735 C 72.8938 -1.61127 0.232787 0
M  V30 736 O 74.0828 -1.71623 0.49069 0
M  V30 737 C 71.1828 -3.23005 1.02571 0
M  V30 738 C 70.3558 -3.7662 2.22433 0
M  V30 739 C 69.4148 -4.90879 1.89537 0
M  V30 740 O 68.4408 -5.05276 2.62078 0
M  V30 741 N 69.6428 -5.74198 0.853031 0
M  V30 742 H 72.4078 -1.93373 2.28969 0
M  V30 743 H 69.9688 -0.929216 1.32579 0
M  V30 744 H 71.9608 -3.96992 0.786085 0
M  V30 745 H 70.5308 -3.12262 0.145249 0
M  V30 746 H 69.7508 -2.94147 2.62434 0
M  V30 747 H 71.0388 -4.09173 3.02415 0
M  V30 748 H 70.4368 -5.6514 0.25155 0
M  V30 749 H 68.9938 -6.48313 0.67329 0
M  V30 750 N 72.4269 -1.23603 -0.977757 0
M  V30 751 C 73.3749 -1.01704 -2.09187 0
M  V30 752 C 74.3689 0.0448214 -1.69341 0
M  V30 753 O 75.5749 -0.108902 -1.7967 0
M  V30 754 H 71.9499 -0.311803 -0.684312 0
M  V30 755 H 73.9209 -1.96207 -2.24823 0
M  V30 756 C 72.6699 -0.627746 -3.41986 0
M  V30 757 H 71.9929 -1.43656 -3.73099 0
M  V30 758 H 73.4329 -0.514053 -4.20872 0
M  V30 759 C 71.8919 0.664238 -3.30287 0
M  V30 760 O 72.4219 1.71268 -3.6336 0
M  V30 761 N 70.6279 0.641156 -2.83439 0
M  V30 762 H 70.1749 -0.212376 -2.56723 0
M  V30 763 H 70.1329 1.50583 -2.75993 0
M  V30 764 N 73.905 1.17692 -1.04816 0
M  V30 765 C 75.182 1.83768 -0.669963 0
M  V30 766 C 75.562 1.93232 0.849986 0
M  V30 767 O 74.91 1.46397 1.75443 0
M  V30 768 C 75.12 3.21641 -1.35455 0
M  V30 769 C 76.468 3.97592 -1.49017 0
M  V30 770 O 77.492 3.31107 -1.31326 0
M  V30 771 O 76.351 5.16729 -1.77914 0
M  V30 772 H 73.445 0.792799 -0.235368 0
M  V30 773 H 75.991 1.25021 -1.14751 0
M  V30 774 H 74.763 3.097 -2.39168 0
M  V30 775 H 74.386 3.88052 -0.866107 0
M  V30 776 N 75.3831 0.828654 1.34056 0
M  V30 777 C 76.3161 0.199763 2.27324 0
M  V30 778 C 77.2941 -0.647168 1.49166 0
M  V30 779 O 78.4781 -0.609661 1.78369 0
M  V30 780 C 75.6051 -0.720455 3.30949 0
M  V30 781 C 74.6511 0.0496888 4.26471 0
M  V30 782 S 75.4841 1.40072 5.16856 0
M  V30 783 C 76.6401 0.485527 6.24014 0
M  V30 784 H 76.8731 0.990478 2.80316 0
M  V30 785 H 74.4061 0.624857 1.41191 0
M  V30 786 H 76.3641 -1.24581 3.91139 0
M  V30 787 H 75.0251 -1.48474 2.76793 0
M  V30 788 H 74.2181 -0.650104 4.9979 0
M  V30 789 H 73.8201 0.505779 3.70564 0
M  V30 790 H 76.1121 -0.320672 6.76741 0
M  V30 791 H 77.0551 1.18856 6.98054 0
M  V30 792 H 77.4631 0.0714109 5.64455 0
M  V30 793 N 76.8612 -1.46375 0.584142 0
M  V30 794 C 77.8082 -2.30323 -0.148286 0
M  V30 795 C 78.7782 -1.40703 -0.882713 0
M  V30 796 O 79.9632 -1.69651 -0.873099 0
M  V30 797 C 77.1032 -3.25196 -1.15507 0
M  V30 798 C 76.2162 -4.29915 -0.423943 0
M  V30 799 C 75.3512 -5.11914 -1.41838 0
M  V30 800 C 74.3902 -6.08381 -0.673736 0
M  V30 801 N 73.5272 -6.83242 -1.6163 0
M  V30 802 H 78.3672 -2.92427 0.573644 0
M  V30 803 H 75.9042 -1.44118 0.294703 0
M  V30 804 H 77.8622 -3.78646 -1.75166 0
M  V30 805 H 76.4922 -2.64898 -1.8447 0
M  V30 806 H 75.5442 -3.7931 0.287714 0
M  V30 807 H 76.8562 -4.98549 0.158128 0
M  V30 808 H 76.0102 -5.69648 -2.08773 0
M  V30 809 H 74.7492 -4.43243 -2.03438 0
M  V30 810 H 73.7542 -5.49799 0.00938483 0
M  V30 811 H 74.9792 -6.79071 -0.0631082 0
M  V30 812 H 72.9252 -6.1728 -2.22038 0
M  V30 813 H 72.8422 -7.48144 -1.08707 0
M  V30 814 H 74.1102 -7.45534 -2.27596 0
M  V30 815 N 78.3393 -0.321999 -1.54275 0
M  V30 816 C 79.2863 0.544664 -2.24281 0
M  V30 817 C 80.2563 1.1129 -1.23303 0
M  V30 818 O 81.4413 1.15354 -1.51981 0
M  V30 819 C 78.5813 1.70045 -3.00298 0
M  V30 820 C 77.6943 1.16159 -4.1609 0
M  V30 821 C 76.8293 2.28293 -4.79641 0
M  V30 822 C 75.8683 1.71648 -5.8754 0
M  V30 823 N 75.0053 2.77438 -6.44959 0
M  V30 824 H 79.8453 -0.0588907 -2.97942 0
M  V30 825 H 77.3823 -0.0408345 -1.47043 0
M  V30 826 H 79.3403 2.38054 -3.42616 0
M  V30 827 H 77.9703 2.27531 -2.28975 0
M  V30 828 H 77.0223 0.373092 -3.78566 0
M  V30 829 H 78.3343 0.707087 -4.93763 0
M  V30 830 H 77.4883 3.0421 -5.2492 0
M  V30 831 H 76.2273 2.77079 -4.01346 0
M  V30 832 H 75.2323 0.942282 -5.41665 0
M  V30 833 H 76.4573 1.23741 -6.67731 0
M  V30 834 H 74.4033 3.25519 -5.69538 0
M  V30 835 H 74.3203 2.36547 -7.1804 0
M  V30 836 H 75.5883 3.53189 -6.94894 0
M  V30 837 N 79.8174 1.5752 -0.0501392 0
M  V30 838 C 80.7654 2.12651 0.942459 0
M  V30 839 C 81.7594 1.05807 1.32292 0
M  V30 840 O 82.9654 1.24217 1.3027 0
M  V30 841 H 79.3404 0.679673 0.321789 0
M  V30 842 H 81.3114 2.94951 0.452356 0
M  V30 843 C 80.0604 2.68565 2.20836 0
M  V30 844 H 79.3834 3.50439 1.92439 0
M  V30 845 H 80.8234 3.10761 2.8845 0
M  V30 846 C 79.2824 1.62291 2.95234 0
M  V30 847 O 79.8124 1.03508 3.88135 0
M  V30 848 N 78.0184 1.33836 2.57946 0
M  V30 849 H 77.5654 1.81826 1.82475 0
M  V30 850 H 77.5234 0.629595 3.08032 0
M  V30 851 N 81.2955 -0.223234 1.56011 0
M  V30 852 C 82.2055 -1.29766 1.95443 0
M  V30 853 C 83.2215 -1.51373 0.858028 0
M  V30 854 O 84.3975 -1.64536 1.16146 0
M  V30 855 C 81.4625 -2.62772 2.26167 0
M  V30 856 C 80.5235 -2.49482 3.49367 0
M  V30 857 C 79.7565 -3.76145 3.78616 0
M  V30 858 O 79.9795 -4.79087 3.09568 0
M  V30 859 O 78.9135 -3.73358 4.72109 0
M  V30 860 H 82.7395 -0.99309 2.87004 0
M  V30 861 H 80.3245 -0.425958 1.43199 0
M  V30 862 H 82.2065 -3.41327 2.47131 0
M  V30 863 H 80.8815 -2.92913 1.37781 0
M  V30 864 H 79.7885 -1.69133 3.33684 0
M  V30 865 H 81.1215 -2.2428 4.38131 0
M  V30 866 N 82.7736 -1.49793 -0.48987 0
M  V30 867 C 83.7216 -1.67783 -1.61095 0
M  V30 868 C 84.7156 -0.543683 -1.60438 0
M  V30 869 O 85.9216 -0.723647 -1.64813 0
M  V30 870 H 82.2966 -0.529255 -0.534222 0
M  V30 871 H 84.2676 -2.61861 -1.43078 0
M  V30 872 C 83.0166 -1.77191 -2.99164 0
M  V30 873 H 82.3396 -2.63841 -3.0038 0
M  V30 874 H 83.7796 -1.93809 -3.77113 0
M  V30 875 C 82.2386 -0.519203 -3.32875 0
M  V30 876 O 82.7686 0.350124 -4.00171 0
M  V30 877 N 80.9746 -0.378816 -2.8812 0
M  V30 878 H 80.5216 -1.08725 -2.33531 0
M  V30 879 H 80.4796 0.458239 -3.11043 0
M  V30 880 N 84.2517 0.741722 -1.39055 0
M  V30 881 C 85.1847 1.86416 -1.31622 0
M  V30 882 C 86.1627 1.61473 -0.191076 0
M  V30 883 O 87.3467 1.84825 -0.370399 0
M  V30 884 C 84.4737 3.22266 -1.04221 0
M  V30 885 C 83.5197 3.66079 -2.18834 0
M  V30 886 S 84.3527 3.7623 -3.81066 0
M  V30 887 C 85.5087 5.14881 -3.55877 0
M  V30 888 H 85.7417 1.92437 -2.26617 0
M  V30 889 H 83.2747 0.905907 -1.25031 0
M  V30 890 H 85.2327 4.00714 -0.890964 0
M  V30 891 H 83.8937 3.1391 -0.109237 0
M  V30 892 H 83.0867 4.64648 -1.95238 0
M  V30 893 H 82.6887 2.94817 -2.30128 0
M  V30 894 H 84.9807 6.01006 -3.12726 0
M  V30 895 H 85.9237 5.43503 -4.53884 0
M  V30 896 H 86.3317 4.84239 -2.90126 0
M  V30 897 N 85.7298 1.2412 0.971189 0
M  V30 898 C 86.6778 1.02812 2.08644 0
M  V30 899 C 87.6718 -0.0358403 1.69362 0
M  V30 900 O 88.8778 0.118429 1.7961 0
M  V30 901 H 85.2528 0.315428 0.682649 0
M  V30 902 H 87.2238 1.97397 2.23779 0
M  V30 903 C 85.9728 0.645874 3.41649 0
M  V30 904 H 85.2958 1.45632 3.72332 0
M  V30 905 H 86.7358 0.536366 4.20594 0
M  V30 906 C 85.1948 -0.646713 3.30635 0
M  V30 907 O 85.7248 -1.69338 3.64263 0
M  V30 908 N 83.9308 -0.626115 2.83775 0
M  V30 909 H 83.4778 0.225988 2.56607 0
M  V30 910 H 83.4358 -1.49117 2.76788 0
M  V30 911 N 87.2079 -1.17134 1.05439 0
M  V30 912 C 88.4569 -1.86791 0.761049 0
M  V30 913 C 88.7699 -1.82072 -0.714795 0
M  V30 914 O 89.9759 -2.47223 -1.12218 0
M  V30 915 C 88.4319 -3.35166 1.31117 0
M  V30 916 C 88.0399 -3.48381 2.81664 0
M  V30 917 C 89.7839 -4.10134 1.09499 0
M  V30 918 C 87.6909 -4.90793 3.29964 0
M  V30 919 H 86.6209 -0.699681 0.281002 0
M  V30 920 H 89.2719 -1.3226 1.27199 0
M  V30 921 H 87.6539 -3.8925 0.72803 0
M  V30 922 H 88.8279 -3.04502 3.45855 0
M  V30 923 H 87.1429 -2.86836 3.01851 0
M  V30 924 H 89.7399 -5.152 1.43084 0
M  V30 925 H 90.0829 -4.16287 0.0328772 0
M  V30 926 H 90.6159 -3.62264 1.64346 0
M  V30 927 H 87.3549 -4.89816 4.35616 0
M  V30 928 H 86.8749 -5.35333 2.70516 0
M  V30 929 H 88.5539 -5.59573 3.24787 0
M  V30 930 N 88.686 -0.835752 -1.33615 0
M  V30 931 C 89.633 -0.26473 -2.29277 0
M  V30 932 C 90.603 0.617712 -1.54187 0
M  V30 933 O 91.788 0.556641 -1.825 0
M  V30 934 C 88.928 0.556777 -3.40579 0
M  V30 935 C 88.041 -0.349339 -4.30585 0
M  V30 936 C 87.176 0.482969 -5.29 0
M  V30 937 C 86.215 -0.421732 -6.10645 0
M  V30 938 N 85.352 0.372262 -7.01112 0
M  V30 939 H 90.192 -1.08582 -2.77514 0
M  V30 940 H 87.729 -0.546927 -1.36554 0
M  V30 941 H 89.687 1.04852 -4.03809 0
M  V30 942 H 88.317 1.34286 -2.93542 0
M  V30 943 H 87.369 -0.959372 -3.68104 0
M  V30 944 H 88.681 -1.04445 -4.87742 0
M  V30 945 H 87.835 1.03866 -5.97743 0
M  V30 946 H 86.574 1.21153 -4.72412 0
M  V30 947 H 85.579 -0.989464 -5.40823 0
M  V30 948 H 86.804 -1.14861 -6.69316 0
M  V30 949 H 84.75 1.08426 -6.46977 0
M  V30 950 H 84.667 -0.264198 -7.55538 0
M  V30 951 H 85.935 0.910293 -7.74167 0
M  V30 952 N 90.1641 1.46063 -0.591896 0
M  V30 953 C 91.1111 2.30399 0.136069 0
M  V30 954 C 92.0811 1.41169 0.875238 0
M  V30 955 O 93.2661 1.70112 0.86409 0
M  V30 956 C 90.4061 3.25804 1.13781 0
M  V30 957 C 89.5191 4.30134 0.401137 0
M  V30 958 C 88.6541 5.12659 1.39121 0
M  V30 959 C 87.6931 6.0873 0.641462 0
M  V30 960 N 86.8301 6.8409 1.58004 0
M  V30 961 H 91.6701 2.92118 -0.589144 0
M  V30 962 H 89.2071 1.43959 -0.302342 0
M  V30 963 H 91.1651 3.79569 1.73156 0
M  V30 964 H 89.7951 2.65872 1.83062 0
M  V30 965 H 88.8471 3.79152 -0.307826 0
M  V30 966 H 90.1591 4.98458 -0.184565 0
M  V30 967 H 89.3131 5.70747 2.05749 0
M  V30 968 H 88.0521 4.44316 2.01084 0
M  V30 969 H 87.0571 5.49786 -0.0385419 0
M  V30 970 H 88.2821 6.79095 0.0270945 0
M  V30 971 H 86.2281 6.18449 2.18761 0
M  V30 972 H 86.1451 7.48709 1.04738 0
M  V30 973 H 87.4131 7.4673 2.23639 0
M  V30 974 N 91.6422 0.330177 1.54103 0
M  V30 975 C 92.5902 -0.548226 2.26047 0
M  V30 976 C 93.5842 -1.11309 1.27698 0
M  V30 977 O 94.7902 -1.06036 1.45452 0
M  V30 978 H 91.1652 -0.195456 0.726155 0
M  V30 979 H 93.1362 0.0807567 2.98291 0
M  V30 980 C 91.8852 -1.69415 3.03634 0
M  V30 981 H 91.2082 -1.26876 3.79134 0
M  V30 982 H 92.6482 -2.28423 3.5721 0
M  V30 983 C 91.1072 -2.61569 2.12328 0
M  V30 984 O 91.6372 -3.63462 1.7105 0
M  V30 985 N 89.8432 -2.29952 1.77681 0
M  V30 986 H 89.3902 -1.47134 2.11446 0
M  V30 987 H 89.3482 -2.91871 1.16869 0
M  V30 988 N 93.1203 -1.57491 0.0584922 0
M  V30 989 C 94.0303 -2.15448 -0.928414 0
M  V30 990 C 95.0463 -1.11416 -1.3365 0
M  V30 991 O 96.2223 -1.4362 -1.41193 0
M  V30 992 C 93.2873 -2.69393 -2.18239 0
M  V30 993 C 92.3483 -3.88249 -1.83196 0
M  V30 994 C 91.5813 -4.39613 -3.02616 0
M  V30 995 O 91.8043 -3.90023 -4.16219 0
M  V30 996 O 90.7383 -5.31111 -2.83204 0
M  V30 997 H 94.5643 -3.00112 -0.465483 0
M  V30 998 H 92.1493 -1.48499 -0.163826 0
M  V30 999 H 94.0313 -3.04026 -2.91798 0
M  V30 1000 H 92.7063 -1.87796 -2.63656 0
M  V30 1001 H 91.6133 -3.58492 -1.06931 0
M  V30 1002 H 92.9463 -4.71098 -1.42573 0
M  V30 1003 N 94.5984 0.214957 -1.56127 0
M  V30 1004 C 95.8444 0.939762 -1.79712 0
M  V30 1005 C 96.1774 1.83723 -0.629247 0
M  V30 1006 O 95.4524 1.90925 0.371197 0
M  V30 1007 C 95.7354 1.77306 -3.13424 0
M  V30 1008 C 95.5884 0.90164 -4.40671 0
M  V30 1009 C 96.9074 2.74956 -3.43638 0
M  V30 1010 H 94.0264 0.340214 -0.653776 0
M  V30 1011 H 96.6684 0.20824 -1.88855 0
M  V30 1012 H 94.8184 2.39673 -3.0576 0
M  V30 1013 H 96.4904 0.294206 -4.60361 0
M  V30 1014 H 94.7334 0.207368 -4.33304 0
M  V30 1015 H 95.4044 1.51923 -5.30682 0
M  V30 1016 H 97.8804 2.22724 -3.51473 0
M  V30 1017 H 96.7564 3.30358 -4.38355 0
M  V30 1018 H 97.0174 3.53023 -2.66134 0
M  V30 1019 N 96.0765 1.50051 0.48192 0
M  V30 1020 C 97.0065 1.71046 1.58951 0
M  V30 1021 C 97.9875 0.559288 1.60642 0
M  V30 1022 O 99.1725 0.797243 1.77081 0
M  V30 1023 C 96.3025 1.79462 2.97339 0
M  V30 1024 C 95.2565 2.94558 3.10515 0
M  V30 1025 C 94.5825 2.88105 4.50444 0
M  V30 1026 C 95.8825 4.35227 2.88747 0
M  V30 1027 H 97.5765 2.6378 1.41635 0
M  V30 1028 H 95.1225 1.26936 0.679942 0
M  V30 1029 H 97.0755 1.92734 3.74742 0
M  V30 1030 H 95.7995 0.833412 3.15788 0
M  V30 1031 H 94.4585 2.80918 2.35543 0
M  V30 1032 H 94.1065 1.89853 4.65795 0
M  V30 1033 H 93.8065 3.65366 4.60197 0
M  V30 1034 H 95.3305 3.03412 5.29881 0
M  V30 1035 H 96.7445 4.49449 3.55905 0
M  V30 1036 H 95.1415 5.13856 3.09955 0
M  V30 1037 H 96.2115 4.48347 1.84696 0
M  V30 1038 N 97.5546 -0.734337 1.39446 0
M  V30 1039 C 98.5026 -1.86971 1.38364 0
M  V30 1040 C 99.4966 -1.67288 0.266687 0
M  V30 1041 O 100.703 -1.74621 0.436755 0
M  V30 1042 H 97.0776 -0.615474 0.432082 0
M  V30 1043 H 99.0486 -1.85 2.34132 0
M  V30 1044 C 97.7976 -3.2466 1.24465 0
M  V30 1045 H 97.1206 -3.40402 2.09682 0
M  V30 1046 H 98.5606 -4.04292 1.27764 0
M  V30 1047 C 97.0196 -3.36867 -0.0468674 0
M  V30 1048 O 97.5496 -3.88618 -1.01681 0
M  V30 1049 N 95.7556 -2.90391 -0.110145 0
M  V30 1050 H 95.3026 -2.48466 0.679868 0
M  V30 1051 H 95.2606 -2.98939 -0.973799 0
M  V30 1052 N 99.0327 -1.24633 -0.964593 0
M  V30 1053 C 99.9807 -1.03917 -2.08096 0
M  V30 1054 C 100.975 0.0268581 -1.69379 0
M  V30 1055 O 102.181 -0.127952 -1.79545 0
M  V30 1056 H 98.5557 -0.319044 -0.680966 0
M  V30 1057 H 100.527 -1.98581 -2.22729 0
M  V30 1058 C 99.2757 -0.663983 -3.41301 0
M  V30 1059 H 98.5987 -1.47605 -3.71555 0
M  V30 1060 H 100.039 -0.558663 -4.20303 0
M  V30 1061 C 98.4977 0.629169 -3.30973 0
M  V30 1062 O 99.0277 1.67404 -3.65156 0
M  V30 1063 N 97.2337 0.611057 -2.84103 0
M  V30 1064 H 96.7807 -0.239593 -2.56483 0
M  V30 1065 H 96.7387 1.47647 -2.77575 0
M  V30 1066 N 100.511 1.16574 -1.06058 0
M  V30 1067 C 101.736 1.91493 -0.796562 0
M  V30 1068 C 102.161 1.76773 0.642868 0
M  V30 1069 O 101.519 1.09142 1.44768 0
M  V30 1070 C 101.567 3.40293 -1.19303 0
M  V30 1071 O 100.671 4.11074 -0.330394 0
M  V30 1072 H 100.012 0.596678 -0.291326 0
M  V30 1073 H 102.542 1.47708 -1.41575 0
M  V30 1074 H 102.552 3.91057 -1.16356 0
M  V30 1075 H 101.227 3.50326 -2.24153 0
M  V30 1076 H 99.8038 3.70513 -0.421225 0
M  V30 1077 N 101.989 0.842826 1.3317 0
M  V30 1078 C 102.937 0.267495 2.31057 0
M  V30 1079 C 103.931 -0.602682 1.58316 0
M  V30 1080 O 105.137 -0.491803 1.73151 0
M  V30 1081 H 101.512 0.0677813 0.748939 0
M  V30 1082 H 103.483 1.10754 2.77085 0
M  V30 1083 C 102.232 -0.539331 3.43492 0
M  V30 1084 H 101.555 0.12095 3.99617 0
M  V30 1085 H 102.995 -0.90767 4.14171 0
M  V30 1086 C 101.454 -1.71981 2.89697 0
M  V30 1087 O 101.984 -2.81862 2.86211 0
M  V30 1088 N 100.19 -1.54299 2.46252 0
M  V30 1089 H 99.7369 -0.649143 2.49287 0
M  V30 1090 H 99.6949 -2.33431 2.10612 0
M  V30 1091 N 103.467 -1.45747 0.599634 0
M  V30 1092 C 104.415 -2.322 -0.136426 0
M  V30 1093 C 105.409 -1.45497 -0.867583 0
M  V30 1094 O 106.615 -1.62027 -0.78405 0
M  V30 1095 H 102.99 -0.749368 -0.0628588 0
M  V30 1096 H 104.961 -2.92072 0.611281 0
M  V30 1097 C 103.71 -3.28974 -1.12567 0
M  V30 1098 H 103.033 -3.9568 -0.572484 0
M  V30 1099 H 104.473 -3.92212 -1.61077 0
M  V30 1100 C 102.932 -2.55561 -2.19523 0
M  V30 1101 O 103.462 -2.33111 -3.27143 0
M  V30 1102 N 101.668 -2.15832 -1.94589 0
M  V30 1103 H 101.215 -2.3429 -1.07078 0
M  V30 1104 H 101.173 -1.67034 -2.66359 0
M  V30 1105 N 104.945 -0.338344 -1.53925 0
M  V30 1106 C 106.191 0.260143 -2.01125 0
M  V30 1107 C 106.524 1.50617 -1.22589 0
M  V30 1108 O 105.799 1.91979 -0.312113 0
M  V30 1109 C 106.082 0.579499 -3.55407 0
M  V30 1110 C 105.935 -0.678264 -4.44657 0
M  V30 1111 C 107.254 1.39122 -4.17532 0
M  V30 1112 H 104.373 0.0930772 -0.731099 0
M  V30 1113 H 107.015 -0.457852 -1.84401 0
M  V30 1114 H 105.165 1.19118 -3.69788 0
M  V30 1115 H 106.837 -1.31631 -4.42121 0
M  V30 1116 H 105.08 -1.3042 -4.13731 0
M  V30 1117 H 105.751 -0.410143 -5.50474 0
M  V30 1118 H 108.227 0.874035 -4.06817 0
M  V30 1119 H 107.103 1.58342 -5.25565 0
M  V30 1120 H 107.364 2.39178 -3.71815 0
M  V30 1121 N 106.423 1.57458 -0.0668435 0
M  V30 1122 C 107.333 2.15937 0.916975 0
M  V30 1123 C 108.349 1.12123 1.33058 0
M  V30 1124 O 109.525 1.44366 1.40429 0
M  V30 1125 C 106.59 2.70547 2.16807 0
M  V30 1126 C 105.651 3.89215 1.81135 0
M  V30 1127 C 104.884 4.41211 3.0028 0
M  V30 1128 O 105.107 3.92225 4.14144 0
M  V30 1129 O 104.041 5.32605 2.80384 0
M  V30 1130 H 107.867 3.00354 0.449561 0
M  V30 1131 H 105.452 1.48584 0.155949 0
M  V30 1132 H 107.334 3.0557 2.90181 0
M  V30 1133 H 106.009 1.89192 2.62656 0
M  V30 1134 H 104.916 3.59054 1.05028 0
M  V30 1135 H 106.249 4.71848 1.40073 0
M  V30 1136 N 107.901 -0.206675 1.56239 0
M  V30 1137 C 109.178 -0.954051 1.70755 0
M  V30 1138 C 109.558 -2.01841 0.618353 0
M  V30 1139 O 108.906 -2.25444 -0.372434 0
M  V30 1140 C 109.116 -1.551 3.12642 0
M  V30 1141 C 110.464 -2.03757 3.72516 0
M  V30 1142 O 111.488 -1.64965 3.15698 0
M  V30 1143 O 110.347 -2.75103 4.72208 0
M  V30 1144 H 107.441 -0.446636 0.696021 0
M  V30 1145 H 109.987 -0.197283 1.68549 0
M  V30 1146 H 108.759 -0.783212 3.83382 0
M  V30 1147 H 108.382 -2.37291 3.19028 0
M  V30 1148 N 109.379 -1.50304 -0.473955 0
M  V30 1149 C 110.627 -1.60832 -1.22382 0
M  V30 1150 C 110.948 -0.30939 -1.9253 0
M  V30 1151 O 110.218 0.67296 -1.83978 0
M  V30 1152 H 108.798 -0.592652 -0.454723 0
M  V30 1153 H 111.46 -1.87068 -0.546968 0
M  V30 1154 H 110.556 -2.41803 -1.97327 0
M  V30 1155 N 110.857 0.726932 -1.39834 0
M  V30 1156 C 112.134 1.47902 -1.28001 0
M  V30 1157 C 112.514 2.1083 0.106789 0
M  V30 1158 O 111.862 1.99242 1.11869 0
M  V30 1159 C 112.072 2.52392 -2.41038 0
M  V30 1160 C 113.42 3.18546 -2.80737 0
M  V30 1161 O 114.444 2.62708 -2.40547 0
M  V30 1162 O 113.303 4.19604 -3.50135 0
M  V30 1163 H 110.397 0.657163 -0.502062 0
M  V30 1164 H 112.943 0.760071 -1.51727 0
M  V30 1165 H 111.715 2.04329 -3.33715 0
M  V30 1166 H 111.338 3.31837 -2.19021 0
M  V30 1167 N 112.336 1.25143 0.95797 0
M  V30 1168 C 113.284 1.05019 2.07542 0
M  V30 1169 C 114.278 -0.0178751 1.69391 0
M  V30 1170 O 115.484 0.137472 1.79474 0
M  V30 1171 H 111.859 0.32265 0.679265 0
M  V30 1172 H 113.83 1.99759 2.21673 0
M  V30 1173 C 112.579 0.682074 3.40944 0
M  V30 1174 H 111.902 1.49573 3.70767 0
M  V30 1175 H 113.342 0.580945 4.20001 0
M  V30 1176 C 111.801 -0.611608 3.31302 0
M  V30 1177 O 112.331 -1.65465 3.66038 0
M  V30 1178 N 110.537 -0.595982 2.84423 0
M  V30 1179 H 110.084 0.253192 2.56353 0
M  V30 1180 H 110.042 -1.46173 2.78354 0
M  V30 1181 N 113.814 -1.1601 1.06675 0
M  V30 1182 C 114.724 -2.24156 0.692179 0
M  V30 1183 C 115.74 -1.71507 -0.293513 0
M  V30 1184 O 116.916 -2.009 -0.141861 0
M  V30 1185 C 113.981 -3.46587 0.0884131 0
M  V30 1186 C 113.042 -4.14257 1.12646 0
M  V30 1187 C 112.275 -5.30844 0.551416 0
M  V30 1188 O 112.498 -5.66858 -0.634656 0
M  V30 1189 O 111.432 -5.87848 1.29298 0
M  V30 1190 H 115.258 -2.58513 1.59388 0
M  V30 1191 H 112.843 -1.23599 0.83926 0
M  V30 1192 H 114.725 -4.20679 -0.246361 0
M  V30 1193 H 113.4 -3.13994 -0.786712 0
M  V30 1194 H 112.307 -3.42118 1.51348 0
M  V30 1195 H 113.64 -4.50914 1.97325 0
M  V30 1196 N 115.292 -0.849877 -1.32721 0
M  V30 1197 C 116.24 -0.279745 -2.30912 0
M  V30 1198 C 117.234 0.594278 -1.58634 0
M  V30 1199 O 118.44 0.482613 -1.73409 0
M  V30 1200 H 114.815 -0.0717521 -0.748569 0
M  V30 1201 H 116.786 -1.12222 -2.76494 0
M  V30 1202 C 115.535 0.521108 -3.43773 0
M  V30 1203 H 114.858 -0.142141 -3.99547 0
M  V30 1204 H 116.298 0.885693 -4.14646 0
M  V30 1205 C 114.757 1.70442 -2.90605 0
M  V30 1206 O 115.287 2.8034 -2.87702 0
M  V30 1207 N 113.493 1.52991 -2.47067 0
M  V30 1208 H 113.04 0.635914 -2.49628 0
M  V30 1209 H 112.998 2.32311 -2.11847 0
M  V30 1210 N 116.77 1.45427 -0.607355 0
M  V30 1211 C 117.995 2.07124 -0.107006 0
M  V30 1212 C 118.42 1.44906 1.19933 0
M  V30 1213 O 117.778 0.541687 1.73019 0
M  V30 1214 C 117.826 3.60595 0.0194119 0
M  V30 1215 O 116.93 3.98285 1.0697 0
M  V30 1216 H 116.271 0.659868 -0.0739597 0
M  V30 1217 H 118.801 1.86683 -0.837297 0
M  V30 1218 H 118.811 4.07419 0.2177 0
M  V30 1219 H 117.486 4.05266 -0.934453 0
M  V30 1220 H 116.063 3.63133 0.847889 0
M  V30 1221 N 118.248 0.346503 1.53744 0
M  V30 1222 C 119.195 -0.508914 2.25119 0
M  V30 1223 C 120.165 -1.09315 1.25058 0
M  V30 1224 O 121.35 -1.12921 1.53797 0
M  V30 1225 C 118.49 -1.65246 3.02965 0
M  V30 1226 C 117.603 -1.09525 4.17886 0
M  V30 1227 C 116.738 -2.20634 4.83212 0
M  V30 1228 C 115.777 -1.62279 5.90196 0
M  V30 1229 N 114.914 -2.67143 6.49291 0
M  V30 1230 H 119.754 0.106283 2.9781 0
M  V30 1231 H 117.291 0.0642227 1.4696 0
M  V30 1232 H 119.249 -2.32574 3.4636 0
M  V30 1233 H 117.879 -2.2386 2.32565 0
M  V30 1234 H 116.931 -0.312818 3.79112 0
M  V30 1235 H 118.243 -0.628444 4.94825 0
M  V30 1236 H 117.397 -2.95821 5.29693 0
M  V30 1237 H 116.136 -2.70659 4.05703 0
M  V30 1238 H 115.141 -0.855989 5.43096 0
M  V30 1239 H 116.366 -1.13102 6.69615 0
M  V30 1240 H 114.312 -3.16417 5.74645 0
M  V30 1241 H 114.229 -2.25093 7.21713 0
M  V30 1242 H 115.497 -3.4209 7.00425 0
M  V30 1243 N 119.726 -1.57421 0.075193 0
M  V30 1244 C 120.973 -1.93618 -0.593146 0
M  V30 1245 C 121.301 -0.955484 -1.69413 0
M  V30 1246 O 120.556 0.0283251 -1.9568 0
M  V30 1247 C 120.855 -3.36428 -1.20626 0
M  V30 1248 C 120.521 -4.50307 -0.231078 0
M  V30 1249 C 119.183 -4.81186 0.0371936 0
M  V30 1250 C 121.535 -5.19374 0.435888 0
M  V30 1251 C 118.863 -5.78466 0.979461 0
M  V30 1252 C 121.215 -6.17665 1.3665 0
M  V30 1253 C 119.879 -6.46958 1.6432 0
M  V30 1254 H 119.149 -0.708499 -0.217047 0
M  V30 1255 H 121.796 -1.90937 0.146793 0
M  V30 1256 H 120.101 -3.35592 -2.02201 0
M  V30 1257 H 121.798 -3.61727 -1.73073 0
M  V30 1258 H 118.388 -4.26227 -0.450357 0
M  V30 1259 H 122.572 -4.95711 0.241748 0
M  V30 1260 H 117.828 -5.99487 1.20106 0
M  V30 1261 H 122.002 -6.70284 1.88924 0
M  V30 1262 H 119.629 -7.2215 2.37494 0
M  V30 1263 N 121.204 0.198386 -1.56346 0
M  V30 1264 C 122.137 1.27381 -1.89339 0
M  V30 1265 C 123.115 1.44106 -0.753134 0
M  V30 1266 O 124.299 1.59549 -1.00381 0
M  V30 1267 C 121.426 2.6409 -2.12071 0
M  V30 1268 C 120.472 2.64253 -3.34772 0
M  V30 1269 S 121.305 2.16013 -4.89999 0
M  V30 1270 C 122.461 3.54553 -5.15794 0
M  V30 1271 H 122.694 0.992058 -2.8026 0
M  V30 1272 H 120.227 0.401726 -1.49082 0
M  V30 1273 H 122.185 3.42786 -2.2585 0
M  V30 1274 H 120.846 2.89478 -1.21906 0
M  V30 1275 H 120.039 3.64768 -3.47794 0
M  V30 1276 H 119.641 1.93637 -3.1997 0
M  V30 1277 H 121.933 4.50396 -5.06112 0
M  V30 1278 H 122.876 3.46428 -6.1757 0
M  V30 1279 H 123.284 3.49313 -4.43442 0
M  V30 1280 N 122.682 1.50554 0.465978 0
M  V30 1281 C 123.63 1.70324 1.58406 0
M  V30 1282 C 124.624 0.569139 1.59553 0
M  V30 1283 O 125.83 0.749776 1.63641 0
M  V30 1284 H 122.205 0.537688 0.525734 0
M  V30 1285 H 124.176 2.64104 1.38894 0
M  V30 1286 C 122.925 1.81928 2.96307 0
M  V30 1287 H 122.248 2.68586 2.96144 0
M  V30 1288 H 123.688 1.99784 3.73982 0
M  V30 1289 C 122.147 0.572095 3.32007 0
M  V30 1290 O 122.677 -0.286416 4.00678 0
M  V30 1291 N 120.883 0.424606 2.87481 0
M  V30 1292 H 120.43 1.12427 2.31771 0
M  V30 1293 H 120.388 -0.408697 3.11732 0
M  V30 1294 N 124.16 -0.719506 1.40217 0
M  V30 1295 C 125.107 -1.83359 1.40172 0
M  V30 1296 C 126.077 -1.64065 0.259206 0
M  V30 1297 O 127.262 -1.85254 0.456677 0
M  V30 1298 C 124.402 -3.2103 1.26624 0
M  V30 1299 C 123.515 -3.51923 2.50548 0
M  V30 1300 C 122.65 -4.79079 2.29471 0
M  V30 1301 C 121.689 -5.02863 3.48992 0
M  V30 1302 N 120.826 -6.2123 3.27135 0
M  V30 1303 H 125.666 -1.82733 2.35399 0
M  V30 1304 H 123.203 -0.892688 1.16917 0
M  V30 1305 H 125.161 -4.00524 1.16776 0
M  V30 1306 H 123.791 -3.20895 0.350176 0
M  V30 1307 H 122.843 -2.67014 2.70939 0
M  V30 1308 H 124.155 -3.6541 3.39525 0
M  V30 1309 H 123.309 -5.66582 2.16955 0
M  V30 1310 H 122.048 -4.67794 1.37913 0
M  V30 1311 H 121.053 -4.13816 3.6199 0
M  V30 1312 H 122.278 -5.16023 4.41472 0
M  V30 1313 H 120.224 -6.11204 2.38256 0
M  V30 1314 H 120.141 -6.35375 4.09675 0
M  V30 1315 H 121.409 -7.11532 3.18344 0
M  V30 1316 N 125.638 -1.25649 -0.95132 0
M  V30 1317 C 126.863 -1.13443 -1.73624 0
M  V30 1318 C 127.288 0.307565 -1.85568 0
M  V30 1319 O 126.646 1.22282 -1.33854 0
M  V30 1320 C 126.694 -1.79723 -3.12621 0
M  V30 1321 O 125.798 -1.07912 -3.98031 0
M  V30 1322 H 125.139 -0.395872 -0.533086 0
M  V30 1323 H 127.669 -1.66276 -1.1922 0
M  V30 1324 H 127.679 -1.86141 -3.63064 0
M  V30 1325 H 126.354 -2.84633 -3.03244 0
M  V30 1326 H 124.931 -1.09398 -3.56492 0
M  V30 1327 N 127.117 1.15442 -1.07289 0
M  V30 1328 C 128.064 2.20161 -0.692653 0
M  V30 1329 C 129.034 1.63073 0.31564 0
M  V30 1330 O 130.219 1.89725 0.202235 0
M  V30 1331 C 127.359 3.44967 -0.0959509 0
M  V30 1332 C 126.472 4.16256 -1.15564 0
M  V30 1333 C 125.607 5.28609 -0.524011 0
M  V30 1334 C 124.646 5.91715 -1.56653 0
M  V30 1335 N 123.783 6.9554 -0.957531 0
M  V30 1336 H 128.623 2.52037 -1.59002 0
M  V30 1337 H 126.16 1.2378 -0.794798 0
M  V30 1338 H 128.118 4.16341 0.267628 0
M  V30 1339 H 126.748 3.1361 0.764772 0
M  V30 1340 H 125.8 3.43385 -1.6368 0
M  V30 1341 H 127.112 4.59268 -1.94613 0
M  V30 1342 H 126.266 6.06604 -0.108032 0
M  V30 1343 H 125.005 4.86787 0.29825 0
M  V30 1344 H 124.01 5.12433 -1.9923 0
M  V30 1345 H 125.235 6.35614 -2.39107 0
M  V30 1346 H 123.181 6.55814 -0.156162 0
M  V30 1347 H 123.098 7.36977 -1.68526 0
M  V30 1348 H 124.366 7.77435 -0.567032 0
M  V30 1349 N 128.595 0.856903 1.32268 0
M  V30 1350 C 129.505 0.306131 2.32594 0
M  V30 1351 C 130.521 -0.577209 1.64147 0
M  V30 1352 O 131.697 -0.477043 1.95669 0
M  V30 1353 C 128.762 -0.494561 3.43154 0
M  V30 1354 C 127.823 0.415186 4.27288 0
M  V30 1355 C 127.056 -0.347387 5.32568 0
M  V30 1356 O 127.279 -1.57708 5.48165 0
M  V30 1357 O 126.213 0.287982 6.01211 0
M  V30 1358 H 130.039 1.13737 2.81598 0
M  V30 1359 H 127.624 0.619902 1.35932 0
M  V30 1360 H 129.506 -0.948944 4.10576 0
M  V30 1361 H 128.181 -1.30257 2.96336 0
M  V30 1362 H 127.088 0.917793 3.62667 0
M  V30 1363 H 128.421 1.18844 4.77637 0
M  V30 1364 N 130.073 -1.45103 0.615059 0
M  V30 1365 C 131.321 -2.01784 0.112955 0
M  V30 1366 C 131.642 -1.48504 -1.26378 0
M  V30 1367 O 130.912 -0.682245 -1.83636 0
M  V30 1368 H 129.492 -0.745993 0.0387668 0
M  V30 1369 H 132.154 -1.77808 0.798141 0
M  V30 1370 H 131.25 -3.12025 0.0684069 0
M  V30 1371 N 131.551 -0.354651 -1.53558 0
M  V30 1372 C 132.481 0.489091 -2.2832 0
M  V30 1373 C 133.462 1.09324 -1.30316 0
M  V30 1374 O 134.647 1.11255 -1.59173 0
M  V30 1375 C 131.777 1.63456 -3.0643 0
M  V30 1376 C 130.731 1.1582 -4.12031 0
M  V30 1377 C 130.057 2.39305 -4.7816 0
M  V30 1378 C 131.357 0.250731 -5.21698 0
M  V30 1379 H 133.051 -0.134614 -2.99097 0
M  V30 1380 H 130.597 -0.0661826 -1.43848 0
M  V30 1381 H 132.55 2.23136 -3.57475 0
M  V30 1382 H 131.274 2.28533 -2.33325 0
M  V30 1383 H 129.933 0.584146 -3.61916 0
M  V30 1384 H 129.581 3.02814 -4.01637 0
M  V30 1385 H 129.281 2.08109 -5.49513 0
M  V30 1386 H 130.805 2.99691 -5.31994 0
M  V30 1387 H 132.219 0.754695 -5.68311 0
M  V30 1388 H 130.616 0.0301468 -6.00092 0
M  V30 1389 H 131.686 -0.710125 -4.79672 0
M  V30 1390 N 133.029 1.57378 -0.0835403 0
M  V30 1391 C 133.977 2.14602 0.89714 0
M  V30 1392 C 134.971 1.08589 1.30018 0
M  V30 1393 O 136.177 1.26952 1.27606 0
M  V30 1394 H 132.552 0.686346 0.3073 0
M  V30 1395 H 134.523 2.95845 0.38969 0
M  V30 1396 C 133.272 2.73188 2.15089 0
M  V30 1397 H 132.595 3.54442 1.84962 0
M  V30 1398 H 134.035 3.1681 2.81793 0
M  V30 1399 C 132.494 1.68517 2.91725 0
M  V30 1400 O 133.024 1.11718 3.85852 0
M  V30 1401 N 131.23 1.39277 2.55049 0
M  V30 1402 H 130.777 1.85655 1.78577 0
M  V30 1403 H 130.735 0.694791 3.06627 0
M  V30 1404 N 134.507 -0.190092 1.56449 0
M  V30 1405 C 135.455 -1.25501 1.95837 0
M  V30 1406 C 136.449 -1.4685 0.844485 0
M  V30 1407 O 137.655 -1.47651 1.02952 0
M  V30 1408 H 134.03 -0.421447 0.622805 0
M  V30 1409 H 136.001 -0.895821 2.84636 0
M  V30 1410 C 134.75 -2.59124 2.31841 0
M  V30 1411 H 134.073 -2.43514 3.17082 0
M  V30 1412 H 135.513 -3.32371 2.6326 0
M  V30 1413 C 133.972 -3.16488 1.15486 0
M  V30 1414 O 134.502 -3.99365 0.432535 0
M  V30 1415 N 132.708 -2.75305 0.930349 0
M  V30 1416 H 132.255 -2.08013 1.51948 0
M  V30 1417 H 132.213 -3.14024 0.153634 0
M  V30 1418 N 135.985 -1.50799 -0.457987 0
M  V30 1419 C 137.234 -1.6168 -1.20593 0
M  V30 1420 C 137.547 -0.32888 -1.92815 0
M  V30 1421 O 138.753 -0.316773 -2.69646 0
M  V30 1422 C 137.209 -2.8545 -2.19195 0
M  V30 1423 C 136.817 -4.21168 -1.52715 0
M  V30 1424 C 138.561 -3.05681 -2.94549 0
M  V30 1425 C 136.468 -5.3611 -2.4968 0
M  V30 1426 H 135.398 -0.602134 -0.453818 0
M  V30 1427 H 138.049 -1.77245 -0.475031 0
M  V30 1428 H 136.431 -2.63472 -2.95632 0
M  V30 1429 H 137.605 -4.53449 -0.819775 0
M  V30 1430 H 135.92 -4.06648 -0.895922 0
M  V30 1431 H 138.517 -3.88727 -3.67145 0
M  V30 1432 H 138.86 -2.17929 -3.54701 0
M  V30 1433 H 139.393 -3.27901 -2.25223 0
M  V30 1434 H 136.132 -6.26057 -1.94249 0
M  V30 1435 H 135.652 -5.0823 -3.18532 0
M  V30 1436 H 137.331 -5.6722 -3.11241 0
M  V30 1437 N 137.463 0.71206 -1.40597 0
M  V30 1438 C 138.411 1.84746 -1.41321 0
M  V30 1439 C 139.405 1.66842 -0.293268 0
M  V30 1440 O 140.611 1.73904 -0.464481 0
M  V30 1441 H 136.986 0.608522 -0.441819 0
M  V30 1442 H 138.957 1.81252 -2.37045 0
M  V30 1443 C 137.706 3.22638 -1.29614 0
M  V30 1444 H 137.029 3.37023 -2.15071 0
M  V30 1445 H 138.469 4.02209 -1.3418 0
M  V30 1446 C 136.928 3.36899 -0.00673121 0
M  V30 1447 O 137.458 3.90186 0.954859 0
M  V30 1448 N 135.664 2.9053 0.0639327 0
M  V30 1449 H 135.211 2.47353 -0.719311 0
M  V30 1450 H 135.169 3.0045 0.926118 0
M  V30 1451 N 138.941 1.26152 0.944643 0
M  V30 1452 C 140.189 1.11271 1.6871 0
M  V30 1453 C 140.51 -0.345166 1.91921 0
M  V30 1454 O 139.78 -1.24387 1.51343 0
M  V30 1455 H 138.36 0.408783 0.625224 0
M  V30 1456 H 141.022 1.58427 1.1352 0
M  V30 1457 H 140.118 1.62879 2.66227 0
M  V30 1458 N 140.419 -1.14872 1.07899 0
M  V30 1459 C 141.329 -2.2341 0.715915 0
M  V30 1460 C 142.345 -1.71808 -0.275306 0
M  V30 1461 O 143.521 -2.01039 -0.120545 0
M  V30 1462 C 140.586 -3.46474 0.125168 0
M  V30 1463 C 139.647 -4.13039 1.17034 0
M  V30 1464 C 138.88 -5.30229 0.607688 0
M  V30 1465 O 139.103 -5.675 -0.574497 0
M  V30 1466 O 138.037 -5.86444 1.35526 0
M  V30 1467 H 141.863 -2.56808 1.62121 0
M  V30 1468 H 139.448 -1.22702 0.852322 0
M  V30 1469 H 141.33 -4.20917 -0.201729 0
M  V30 1470 H 140.005 -3.14811 -0.753364 0
M  V30 1471 H 138.912 -3.40493 1.54968 0
M  V30 1472 H 140.245 -4.48796 2.02097 0
M  V30 1473 N 141.898 -0.863906 -1.31812 0
M  V30 1474 C 142.845 -0.313303 -2.28664 0
M  V30 1475 C 143.815 0.584868 -1.55462 0
M  V30 1476 O 145 0.517805 -1.83639 0
M  V30 1477 C 142.14 0.48441 -3.41683 0
M  V30 1478 C 141.253 -0.440594 -4.29747 0
M  V30 1479 C 140.388 0.370652 -5.29905 0
M  V30 1480 C 139.427 -0.551164 -6.09613 0
M  V30 1481 N 138.564 0.223462 -7.01744 0
M  V30 1482 H 143.404 -1.14444 -2.75148 0
M  V30 1483 H 140.941 -0.575769 -1.35364 0
M  V30 1484 H 142.899 0.962627 -4.05943 0
M  V30 1485 H 141.529 1.28029 -2.96325 0
M  V30 1486 H 140.581 -1.03724 -3.65986 0
M  V30 1487 H 141.893 -1.14767 -4.85417 0
M  V30 1488 H 141.047 0.911638 -5.99812 0
M  V30 1489 H 139.786 1.11105 -4.74876 0
M  V30 1490 H 138.791 -1.10396 -5.38603 0
M  V30 1491 H 140.016 -1.29032 -6.66729 0
M  V30 1492 H 137.962 0.946787 -6.49132 0
M  V30 1493 H 137.879 -0.424399 -7.54808 0
M  V30 1494 H 139.147 0.745876 -7.75923 0
M  V30 1495 N 143.376 1.44774 -0.622745 0
M  V30 1496 C 144.324 2.32387 0.0994683 0
M  V30 1497 C 145.318 1.46859 0.844326 0
M  V30 1498 O 146.524 1.63254 0.758174 0
M  V30 1499 H 142.899 0.750273 0.0509291 0
M  V30 1500 H 144.87 2.91062 -0.65767 0
M  V30 1501 C 143.619 3.30723 1.07319 0
M  V30 1502 H 142.942 3.96541 0.509462 0
M  V30 1503 H 144.382 3.94725 1.54817 0
M  V30 1504 C 142.841 2.59021 2.15429 0
M  V30 1505 O 143.371 2.38286 3.23393 0
M  V30 1506 N 141.577 2.189 1.91131 0
M  V30 1507 H 141.124 2.35964 1.03337 0
M  V30 1508 H 141.082 1.71251 2.63668 0
M  V30 1509 N 144.854 0.36279 1.53368 0
M  V30 1510 C 146.131 -0.284021 1.93527 0
M  V30 1511 C 146.511 -1.66628 1.29608 0
M  V30 1512 O 145.859 -2.23942 0.45413 0
M  V30 1513 C 146.069 -0.337028 3.47369 0
M  V30 1514 C 147.417 -0.578708 4.20638 0
M  V30 1515 O 148.441 -0.418352 3.53735 0
M  V30 1516 O 147.3 -0.89074 5.39192 0
M  V30 1517 H 144.394 -0.169743 0.809393 0
M  V30 1518 H 146.94 0.41537 1.64538 0
M  V30 1519 H 145.712 0.632217 3.86159 0
M  V30 1520 H 145.335 -1.08243 3.82582 0
M  V30 1521 N 146.332 -1.57332 0.0918853 0
M  V30 1522 C 147.609 -1.85691 -0.614668 0
M  V30 1523 C 147.989 -0.988146 -1.86545 0
M  V30 1524 O 147.337 -0.0597055 -2.28422 0
M  V30 1525 C 147.547 -3.36294 -0.933126 0
M  V30 1526 C 148.895 -4.04275 -1.29796 0
M  V30 1527 O 149.919 -3.41157 -1.02424 0
M  V30 1528 O 148.778 -5.1564 -1.81047 0
M  V30 1529 H 145.872 -0.767802 -0.307261 0
M  V30 1530 H 148.418 -1.69244 0.12434 0
M  V30 1531 H 147.19 -3.91273 -0.0456404 0
M  V30 1532 H 146.813 -3.58076 -1.72822 0
M  V30 1533 N 147.81 0.181792 -1.56548 0
M  V30 1534 C 148.758 1.24461 -1.965 0
M  V30 1535 C 149.752 1.464 -0.852261 0
M  V30 1536 O 150.958 1.47103 -1.03733 0
M  V30 1537 H 147.333 0.418138 -0.625031 0
M  V30 1538 H 149.304 0.880714 -2.85107 0
M  V30 1539 C 148.053 2.57891 -2.33212 0
M  V30 1540 H 147.376 2.41829 -3.18369 0
M  V30 1541 H 148.816 3.3097 -2.65019 0
M  V30 1542 C 147.275 3.15871 -1.17163 0
M  V30 1543 O 147.805 3.9913 -0.453708 0
M  V30 1544 N 146.011 2.74808 -0.944936 0
M  V30 1545 H 145.558 2.07205 -1.53049 0
M  V30 1546 H 145.516 3.13939 -0.170286 0
M  V30 1547 N 149.288 1.51039 0.449983 0
M  V30 1548 C 150.236 1.71995 1.5659 0
M  V30 1549 C 151.23 0.586029 1.5894 0
M  V30 1550 O 152.436 0.76709 1.62837 0
M  V30 1551 H 148.811 0.543233 0.520001 0
M  V30 1552 H 150.782 2.65562 1.36085 0
M  V30 1553 C 149.531 1.8506 2.9436 0
M  V30 1554 H 148.854 2.71712 2.93279 0
M  V30 1555 H 150.294 2.0374 3.71842 0
M  V30 1556 C 148.753 0.607277 3.31382 0
M  V30 1557 O 149.283 -0.243903 4.00959 0
M  V30 1558 N 147.489 0.455073 2.87015 0
M  V30 1559 H 147.036 1.14879 2.30566 0
M  V30 1560 H 146.994 -0.375611 3.12148 0
M  V30 1561 N 150.766 -0.704594 1.40972 0
M  V30 1562 C 151.991 -1.49858 1.43378 0
M  V30 1563 C 152.416 -1.88061 0.038184 0
M  V30 1564 O 151.774 -1.5402 -0.956425 0
M  V30 1565 C 151.822 -2.74333 2.34038 0
M  V30 1566 O 150.926 -3.7147 1.7912 0
M  V30 1567 H 150.267 -0.45139 0.486974 0
M  V30 1568 H 152.797 -0.866832 1.8533 0
M  V30 1569 H 152.807 -3.22741 2.49604 0
M  V30 1570 H 151.482 -2.45863 3.35446 0
M  V30 1571 H 150.059 -3.30363 1.72958 0
M  V30 1572 N 152.244 -1.26651 -0.937939 0
M  V30 1573 C 153.493 -1.11775 -1.67897 0
M  V30 1574 C 153.806 0.33794 -1.92659 0
M  V30 1575 O 155.012 0.607434 -2.64618 0
M  V30 1576 C 153.468 -1.9523 -3.02346 0
M  V30 1577 C 153.076 -3.45393 -2.8532 0
M  V30 1578 C 154.82 -1.88972 -3.80118 0
M  V30 1579 C 152.727 -4.21083 -4.15263 0
M  V30 1580 H 151.657 -0.414696 -0.629717 0
M  V30 1581 H 154.308 -1.50988 -1.04283 0
M  V30 1582 H 152.69 -1.48853 -3.66959 0
M  V30 1583 H 153.864 -3.99561 -2.29537 0
M  V30 1584 H 152.179 -3.52921 -2.20988 0
M  V30 1585 H 154.776 -2.42805 -4.76392 0
M  V30 1586 H 155.119 -0.86113 -4.07296 0
M  V30 1587 H 155.652 -2.33189 -3.22285 0
M  V30 1588 H 152.391 -5.24425 -3.93267 0
M  V30 1589 H 151.911 -3.71695 -4.70747 0
M  V30 1590 H 153.59 -4.29706 -4.83696 0
M  V30 1591 N 153.722 1.14298 -1.08507 0
M  V30 1592 C 154.968 1.85633 -0.816581 0
M  V30 1593 C 155.301 1.82784 0.656021 0
M  V30 1594 O 154.576 1.25926 1.48233 0
M  V30 1595 C 154.859 3.34223 -1.34041 0
M  V30 1596 C 154.712 3.45639 -2.87843 0
M  V30 1597 C 156.031 4.29356 -0.9665 0
M  V30 1598 H 153.15 0.67402 -0.298104 0
M  V30 1599 H 155.792 1.34214 -1.34487 0
M  V30 1600 H 153.942 3.78144 -0.89104 0
M  V30 1601 H 155.614 3.10498 -3.41158 0
M  V30 1602 H 153.857 2.86817 -3.25451 0
M  V30 1603 H 154.528 4.50089 -3.19569 0
M  V30 1604 H 157.004 3.93457 -1.35391 0
M  V30 1605 H 155.88 5.3178 -1.3602 0
M  V30 1606 H 156.141 4.41919 0.126362 0
M  V30 1607 N 155.201 0.870884 1.31352 0
M  V30 1608 C 156.148 0.325425 2.28494 0
M  V30 1609 C 157.118 -0.576615 1.5577 0
M  V30 1610 O 158.303 -0.508059 1.83911 0
M  V30 1611 C 155.443 -0.466283 3.41935 0
M  V30 1612 C 154.556 0.463378 4.29508 0
M  V30 1613 C 153.691 -0.342544 5.30094 0
M  V30 1614 C 152.73 0.583486 6.09313 0
M  V30 1615 N 151.867 -0.186244 7.01853 0
M  V30 1616 H 156.707 1.15901 2.74538 0
M  V30 1617 H 154.244 0.58294 1.35056 0
M  V30 1618 H 156.202 -0.941085 4.06447 0
M  V30 1619 H 154.832 -1.26456 2.97 0
M  V30 1620 H 153.884 1.05663 3.65431 0
M  V30 1621 H 155.196 1.1734 4.84802 0
M  V30 1622 H 154.35 -0.879816 6.00287 0
M  V30 1623 H 153.089 -1.08585 4.75458 0
M  V30 1624 H 152.094 1.13251 5.3801 0
M  V30 1625 H 153.319 1.32566 6.66035 0
M  V30 1626 H 151.265 -0.912348 6.49625 0
M  V30 1627 H 151.182 0.464422 7.54572 0
M  V30 1628 H 152.45 -0.704716 7.76308 0
M  V30 1629 N 156.679 -1.44442 0.630414 0
M  V30 1630 C 157.925 -2.02351 0.134816 0
M  V30 1631 C 158.258 -1.4947 -1.23986 0
M  V30 1632 O 157.533 -0.678475 -1.82283 0
M  V30 1633 C 157.816 -3.59898 0.120707 0
M  V30 1634 C 157.669 -4.23063 1.52767 0
M  V30 1635 C 158.988 -4.36585 -0.555127 0
M  V30 1636 H 156.107 -0.73527 0.0504646 0
M  V30 1637 H 158.749 -1.72022 0.806751 0
M  V30 1638 H 156.899 -3.85868 -0.451477 0
M  V30 1639 H 158.571 -4.08202 2.14869 0
M  V30 1640 H 156.814 -3.80586 2.08175 0
M  V30 1641 H 157.485 -5.32071 1.46984 0
M  V30 1642 H 159.961 -4.16044 -0.0685429 0
M  V30 1643 H 158.837 -5.46294 -0.534185 0
M  V30 1644 H 159.098 -4.11138 -1.62535 0
M  V30 1645 N 158.157 -0.370918 -1.53173 0
M  V30 1646 C 159.067 0.480823 -2.2962 0
M  V30 1647 C 160.083 1.08789 -1.35798 0
M  V30 1648 O 161.259 1.09768 -1.68858 0
M  V30 1649 C 158.324 1.60227 -3.07454 0
M  V30 1650 C 157.385 1.0222 -4.16953 0
M  V30 1651 C 156.618 2.0902 -4.91066 0
M  V30 1652 O 156.841 3.30222 -4.65091 0
M  V30 1653 O 155.775 1.71778 -5.76867 0
M  V30 1654 H 159.601 -0.141421 -3.03371 0
M  V30 1655 H 157.186 -0.135146 -1.48787 0
M  V30 1656 H 159.068 2.25417 -3.56041 0
M  V30 1657 H 157.743 2.20982 -2.36535 0
M  V30 1658 H 156.65 0.334064 -3.72605 0
M  V30 1659 H 157.983 0.459131 -4.90054 0
M  V30 1660 N 159.635 1.57281 -0.100228 0
M  V30 1661 C 160.545 2.17833 0.870965 0
M  V30 1662 C 161.561 1.14921 1.30649 0
M  V30 1663 O 162.737 1.47313 1.37335 0
M  V30 1664 C 159.802 2.75085 2.1102 0
M  V30 1665 C 158.863 3.9297 1.72838 0
M  V30 1666 C 158.096 4.47482 2.90854 0
M  V30 1667 O 158.319 4.00922 4.05731 0
M  V30 1668 O 157.253 5.38433 2.69023 0
M  V30 1669 H 161.079 3.0124 0.38575 0
M  V30 1670 H 158.664 1.48881 0.124397 0
M  V30 1671 H 160.546 3.11656 2.83634 0
M  V30 1672 H 159.221 1.94721 2.58584 0
M  V30 1673 H 158.128 3.61201 0.973883 0
M  V30 1674 H 159.461 4.74713 1.30033 0
M  V30 1675 N 161.113 -0.173488 1.56642 0
M  V30 1676 C 162.338 -0.910149 1.86363 0
M  V30 1677 C 162.763 -1.75132 0.686318 0
M  V30 1678 O 162.121 -1.77595 -0.364643 0
M  V30 1679 C 162.169 -1.76447 3.14482 0
M  V30 1680 O 161.273 -2.86584 2.96553 0
M  V30 1681 H 160.614 -0.255086 0.613047 0
M  V30 1682 H 163.144 -0.172283 2.03873 0
M  V30 1683 H 163.154 -2.16483 3.45831 0
M  V30 1684 H 161.829 -1.14658 3.99783 0
M  V30 1685 H 160.406 -2.50146 2.76553 0
M  V30 1686 N 162.591 -1.51276 -0.441967 0
M  V30 1687 C 164.002 -1.56244 -1.02199 0
M  V30 1688 C 164.353 -0.383149 -1.92422 0
M  V30 1689 O 163.478 0.500613 -2.1053 0
M  V30 1690 C 164.073 -2.83162 -1.86024 0
M  V30 1691 C 162.632 -2.90716 -2.39084 0
M  V30 1692 C 161.779 -2.50858 -1.18175 0
M  V30 1693 H 164.73 -1.5712 -0.223416 0
M  V30 1694 H 164.751 -2.66663 -2.71425 0
M  V30 1695 H 164.263 -3.68974 -1.20331 0
M  V30 1696 H 162.364 -2.09323 -3.08244 0
M  V30 1697 H 162.477 -3.94266 -2.72198 0
M  V30 1698 H 160.841 -2.03951 -1.52565 0
M  V30 1699 H 161.624 -3.3901 -0.541001 0
M  V30 1700 N 164.069 0.697108 -1.41344 0
M  V30 1701 C 165.016 1.81106 -1.43071 0
M  V30 1702 C 165.986 1.63632 -0.285275 0
M  V30 1703 O 167.171 1.84504 -0.486091 0
M  V30 1704 C 164.311 3.18975 -1.31715 0
M  V30 1705 C 163.424 3.47892 -2.56115 0
M  V30 1706 C 162.559 4.75367 -2.37064 0
M  V30 1707 C 161.598 4.97247 -3.56948 0
M  V30 1708 N 160.735 6.15947 -3.36977 0
M  V30 1709 H 165.575 1.78965 -2.38276 0
M  V30 1710 H 163.112 0.873975 -1.18322 0
M  V30 1711 H 165.07 3.98615 -1.23133 0
M  V30 1712 H 163.7 3.20297 -0.401183 0
M  V30 1713 H 162.752 2.62669 -2.75153 0
M  V30 1714 H 164.064 3.59962 -3.45295 0
M  V30 1715 H 163.218 5.63059 -2.25941 0
M  V30 1716 H 161.957 4.65541 -1.45338 0
M  V30 1717 H 160.962 4.08004 -3.68527 0
M  V30 1718 H 162.187 5.08934 -4.49626 0
M  V30 1719 H 160.133 6.07336 -2.47949 0
M  V30 1720 H 160.05 6.28777 -4.19732 0
M  V30 1721 H 161.318 7.06377 -3.29623 0
M  V30 1722 N 165.547 1.27147 0.931209 0
M  V30 1723 C 166.772 1.16191 1.71797 0
M  V30 1724 C 167.197 -0.278004 1.86034 0
M  V30 1725 O 166.555 -1.20137 1.35782 0
M  V30 1726 C 166.603 1.84673 3.09723 0
M  V30 1727 O 165.707 1.14231 3.96264 0
M  V30 1728 H 165.048 0.404303 0.526721 0
M  V30 1729 H 167.578 1.68152 1.1656 0
M  V30 1730 H 167.588 1.91893 3.60057 0
M  V30 1731 H 166.263 2.89421 2.98677 0
M  V30 1732 H 164.84 1.15056 3.54706 0
M  V30 1733 N 167.025 -1.13721 1.09112 0
M  V30 1734 C 168.274 -1.84275 0.82009 0
M  V30 1735 C 168.587 -1.84253 -0.656509 0
M  V30 1736 O 169.793 -2.50668 -1.04296 0
M  V30 1737 C 168.249 -3.30825 1.41714 0
M  V30 1738 C 167.857 -3.39244 2.92605 0
M  V30 1739 C 169.601 -4.06443 1.22492 0
M  V30 1740 C 167.508 -4.80047 3.45411 0
M  V30 1741 H 166.438 -0.690387 0.30312 0
M  V30 1742 H 169.089 -1.28146 1.31343 0
M  V30 1743 H 167.471 -3.86737 0.851498 0
M  V30 1744 H 168.645 -2.93344 3.55367 0
M  V30 1745 H 166.96 -2.77088 3.10823 0
M  V30 1746 H 169.557 -5.10387 1.59402 0
M  V30 1747 H 169.9 -4.15972 0.165299 0
M  V30 1748 H 170.433 -3.56852 1.75788 0
M  V30 1749 H 167.172 -4.75709 4.50978 0
M  V30 1750 H 166.692 -5.26455 2.87411 0
M  V30 1751 H 168.371 -5.48957 3.42425 0
M  V30 1752 N 168.503 -0.877838 -1.30888 0
M  V30 1753 C 169.751 -0.491723 -1.96027 0
M  V30 1754 C 170.072 0.960827 -1.69685 0
M  V30 1755 O 169.342 1.67462 -1.01654 0
M  V30 1756 H 167.922 -0.17885 -0.725273 0
M  V30 1757 H 170.584 -1.11935 -1.59551 0
M  V30 1758 H 169.68 -0.656016 -3.05128 0
M  V30 1759 N 169.982 1.44106 -0.638065 0
M  V30 1760 C 171.212 2.06037 -0.152394 0
M  V30 1761 C 171.62 1.47808 1.18108 0
M  V30 1762 O 170.963 0.598092 1.73691 0
M  V30 1763 C 171.025 3.59488 0.0293714 0
M  V30 1764 C 170.689 4.4022 -1.22702 0
M  V30 1765 C 171.686 4.73256 -2.15232 0
M  V30 1766 C 169.371 4.8048 -1.46437 0
M  V30 1767 C 171.365 5.45444 -3.29802 0
M  V30 1768 C 169.052 5.52417 -2.61303 0
M  V30 1769 C 170.05 5.84819 -3.52811 0
M  V30 1770 O 169.738 6.55289 -4.65673 0
M  V30 1771 H 169.47 0.671233 -0.0801401 0
M  V30 1772 H 172.024 1.85851 -0.874563 0
M  V30 1773 H 170.254 3.78191 0.806758 0
M  V30 1774 H 171.943 4.03164 0.470475 0
M  V30 1775 H 172.709 4.42684 -1.98131 0
M  V30 1776 H 168.588 4.54676 -0.760977 0
M  V30 1777 H 172.132 5.70653 -4.01249 0
M  V30 1778 H 168.029 5.82404 -2.78344 0
M  V30 1779 H 168.797 6.73762 -4.64744 0
M  V30 1780 N 171.46 0.379036 1.52974 0
M  V30 1781 C 172.408 -0.476033 2.27677 0
M  V30 1782 C 173.402 -1.0719 1.31174 0
M  V30 1783 O 174.608 -1.01355 1.48752 0
M  V30 1784 H 170.983 -0.172255 0.732006 0
M  V30 1785 H 172.954 0.175615 2.97883 0
M  V30 1786 C 171.703 -1.5967 3.0887 0
M  V30 1787 H 171.026 -1.1475 3.82978 0
M  V30 1788 H 172.466 -2.16943 3.64296 0
M  V30 1789 C 170.925 -2.54682 2.20542 0
M  V30 1790 O 171.455 -3.57836 1.82527 0
M  V30 1791 N 169.661 -2.24183 1.84907 0
M  V30 1792 H 169.208 -1.40333 2.1602 0
M  V30 1793 H 169.166 -2.88006 1.26096 0
M  V30 1794 N 172.938 -1.57226 0.108567 0
M  V30 1795 C 174.168 -1.9889 -0.559142 0
M  V30 1796 C 174.576 -0.986889 -1.61422 0
M  V30 1797 O 173.919 0.0298705 -1.83676 0
M  V30 1798 C 173.981 -3.36952 -1.25315 0
M  V30 1799 C 173.645 -4.55679 -0.347248 0
M  V30 1800 C 174.642 -5.18281 0.409996 0
M  V30 1801 C 172.327 -5.0162 -0.261367 0
M  V30 1802 C 174.321 -6.25203 1.24096 0
M  V30 1803 C 172.008 -6.08405 0.573238 0
M  V30 1804 C 173.006 -6.70063 1.32304 0
M  V30 1805 O 172.694 -7.74788 2.14381 0
M  V30 1806 H 172.426 -0.658343 -0.153492 0
M  V30 1807 H 174.98 -2.04532 0.188584 0
M  V30 1808 H 173.21 -3.28032 -2.04773 0
M  V30 1809 H 174.899 -3.62974 -1.81673 0
M  V30 1810 H 175.665 -4.8371 0.353457 0
M  V30 1811 H 171.544 -4.53381 -0.834656 0
M  V30 1812 H 175.088 -6.73259 1.82669 0
M  V30 1813 H 170.985 -6.42406 0.631208 0
M  V30 1814 H 171.753 -7.91837 2.07209 0
M  V30 1815 N 174.416 0.165178 -1.56732 0
M  V30 1816 C 175.646 0.894919 -1.86212 0
M  V30 1817 C 176.054 1.76066 -0.692627 0
M  V30 1818 O 175.397 1.80387 0.347303 0
M  V30 1819 C 175.459 1.8174 -3.10179 0
M  V30 1820 C 175.123 1.13064 -4.42793 0
M  V30 1821 C 176.12 0.493169 -5.17556 0
M  V30 1822 C 173.805 1.12556 -4.89527 0
M  V30 1823 C 175.799 -0.140209 -6.37246 0
M  V30 1824 C 173.486 0.488366 -6.09145 0
M  V30 1825 C 174.484 -0.143411 -6.82849 0
M  V30 1826 O 174.172 -0.77055 -8.00199 0
M  V30 1827 H 173.904 0.265114 -0.621844 0
M  V30 1828 H 176.458 0.168242 -2.0471 0
M  V30 1829 H 174.688 2.58455 -2.87642 0
M  V30 1830 H 176.377 2.4175 -3.26055 0
M  V30 1831 H 177.143 0.489023 -4.82528 0
M  V30 1832 H 173.022 1.60672 -4.32094 0
M  V30 1833 H 176.566 -0.633932 -6.94714 0
M  V30 1834 H 172.463 0.490116 -6.43637 0
M  V30 1835 H 173.231 -0.670408 -8.1575 0
M  V30 1836 N 175.894 1.51508 0.433938 0
M  V30 1837 C 176.857 1.72473 1.50949 0
M  V30 1838 C 177.857 0.594725 1.49398 0
M  V30 1839 O 179.047 0.862315 1.5136 0
M  V30 1840 C 176.179 1.78431 2.90474 0
M  V30 1841 H 177.372 2.68467 1.33662 0
M  V30 1842 H 174.925 1.41549 0.662836 0
M  V30 1843 H 175.66 0.842645 3.13161 0
M  V30 1844 H 175.445 2.60558 2.93005 0
M  V30 1845 H 176.935 1.96479 3.68491 0
M  V30 1846 N 177.372 -0.689602 1.41712 0
M  V30 1847 C 178.597 -1.48329 1.44959 0
M  V30 1848 C 179.022 -1.8801 0.0581283 0
M  V30 1849 O 178.38 -1.55026 -0.940035 0
M  V30 1850 C 178.428 -2.71835 2.36935 0
M  V30 1851 O 177.532 -3.69549 1.8305 0
M  V30 1852 H 176.873 -0.446199 0.491734 0
M  V30 1853 H 179.403 -0.847127 1.86239 0
M  V30 1854 H 179.413 -3.20076 2.53013 0
M  V30 1855 H 178.088 -2.42291 3.38035 0
M  V30 1856 H 176.665 -3.2851 1.76452 0
M  V30 1857 N 178.85 -1.27639 -0.924453 0
M  V30 1858 C 179.76 -1.12466 -2.05885 0
M  V30 1859 C 180.776 -0.053869 -1.73917 0
M  V30 1860 O 181.952 -0.261012 -1.99702 0
M  V30 1861 C 179.017 -0.776768 -3.37886 0
M  V30 1862 C 178.078 -1.92878 -3.83532 0
M  V30 1863 C 177.311 -1.59739 -5.09234 0
M  V30 1864 O 177.534 -0.506782 -5.68144 0
M  V30 1865 O 176.468 -2.43761 -5.50331 0
M  V30 1866 H 180.294 -2.07671 -2.21599 0
M  V30 1867 H 177.879 -1.06857 -1.04413 0
M  V30 1868 H 179.761 -0.596229 -4.17161 0
M  V30 1869 H 178.436 0.145732 -3.23372 0
M  V30 1870 H 177.343 -2.1644 -3.0513 0
M  V30 1871 H 178.676 -2.8316 -4.02593 0
M  V30 1872 N 180.328 1.1314 -1.09713 0
M  V30 1873 C 181.553 1.88862 -0.857081 0
M  V30 1874 C 181.978 1.78729 0.586304 0
M  V30 1875 O 181.336 1.13692 1.41222 0
M  V30 1876 C 181.384 3.36325 -1.30069 0
M  V30 1877 O 180.488 4.09815 -0.461007 0
M  V30 1878 H 179.829 0.587108 -0.310162 0
M  V30 1879 H 182.359 1.43129 -1.46203 0
M  V30 1880 H 182.369 3.87157 -1.28738 0
M  V30 1881 H 181.044 3.43017 -2.35185 0
M  V30 1882 H 179.621 3.68986 -0.538888 0
M  V30 1883 N 181.806 0.884767 1.30421 0
M  V30 1884 C 183.055 0.499164 1.95426 0
M  V30 1885 C 183.368 -0.95645 1.70621 0
M  V30 1886 O 184.574 -1.44889 2.29607 0
M  V30 1887 C 183.03 0.84177 3.49917 0
M  V30 1888 C 182.638 2.31514 3.83543 0
M  V30 1889 C 184.382 0.525355 4.21237 0
M  V30 1890 C 182.289 2.59939 5.31212 0
M  V30 1891 H 181.219 0.182944 0.73147 0
M  V30 1892 H 183.87 1.07971 1.48373 0
M  V30 1893 H 182.252 0.190311 3.95542 0
M  V30 1894 H 183.426 3.0109 3.48829 0
M  V30 1895 H 181.741 2.59907 3.25326 0
M  V30 1896 H 184.338 0.714762 5.29901 0
M  V30 1897 H 184.681 -0.535222 4.12845 0
M  V30 1898 H 185.214 1.134 3.81294 0
M  V30 1899 H 181.953 3.64736 5.44654 0
M  V30 1900 H 181.473 1.94972 5.67227 0
M  V30 1901 H 183.152 2.45429 5.98643 0
M  V30 1902 N 183.284 -1.43765 0.645699 0
M  V30 1903 C 184.194 -2.34544 -0.0512957 0
M  V30 1904 C 185.21 -1.53455 -0.82022 0
M  V30 1905 O 186.386 -1.86133 -0.769176 0
M  V30 1906 C 183.451 -3.31636 -1.01087 0
M  V30 1907 C 182.512 -4.2863 -0.239712 0
M  V30 1908 C 181.745 -5.21084 -1.15358 0
M  V30 1909 O 181.968 -5.1779 -2.39269 0
M  V30 1910 O 180.902 -5.98593 -0.630038 0
M  V30 1911 H 184.728 -2.95624 0.695718 0
M  V30 1912 H 182.313 -1.43781 0.405882 0
M  V30 1913 H 184.195 -3.9136 -1.56254 0
M  V30 1914 H 182.87 -2.73069 -1.73824 0
M  V30 1915 H 181.777 -3.72408 0.355356 0
M  V30 1916 H 183.11 -4.90157 0.447936 0
M  V30 1917 N 184.763 -0.387143 -1.52771 0
M  V30 1918 C 185.711 0.463953 -2.27926 0
M  V30 1919 C 186.705 1.06493 -1.31741 0
M  V30 1920 O 187.911 1.00565 -1.49287 0
M  V30 1921 H 184.286 0.16837 -0.732909 0
M  V30 1922 H 186.257 -0.19141 -2.97785 0
M  V30 1923 C 185.006 1.5803 -3.09713 0
M  V30 1924 H 184.329 1.12718 -3.83581 0
M  V30 1925 H 185.769 2.15008 -3.65442 0
M  V30 1926 C 184.228 2.53509 -2.2189 0
M  V30 1927 O 184.758 3.56863 -1.84422 0
M  V30 1928 N 182.964 2.23199 -1.86093 0
M  V30 1929 H 182.511 1.39185 -2.16761 0
M  V30 1930 H 182.469 2.87333 -1.27621 0
M  V30 1931 N 186.241 1.57166 -0.116904 0
M  V30 1932 C 187.171 2.18222 0.830759 0
M  V30 1933 C 188.152 1.12167 1.27877 0
M  V30 1934 O 189.337 1.40394 1.34176 0
M  V30 1935 C 186.467 2.77996 2.08172 0
M  V30 1936 C 185.421 3.89614 1.77157 0
M  V30 1937 C 184.747 4.36187 3.09265 0
M  V30 1938 C 186.047 5.1181 1.04151 0
M  V30 1939 H 187.741 2.97664 0.321992 0
M  V30 1940 H 185.287 1.4318 0.153434 0
M  V30 1941 H 187.24 3.19366 2.74924 0
M  V30 1942 H 185.964 1.9584 2.6137 0
M  V30 1943 H 184.623 3.48816 1.12796 0
M  V30 1944 H 184.271 3.50893 3.60393 0
M  V30 1945 H 183.971 5.11455 2.89288 0
M  V30 1946 H 185.495 4.80207 3.77139 0
M  V30 1947 H 186.909 5.50214 1.61052 0
M  V30 1948 H 185.306 5.92648 0.942762 0
M  V30 1949 H 186.376 4.84892 0.0279022 0
M  V30 1950 N 187.719 -0.156864 1.56817 0
M  V30 1951 C 188.959 -0.877453 1.84608 0
M  V30 1952 C 189.323 -1.78791 0.699845 0
M  V30 1953 O 190.524 -2.5472 0.858553 0
M  V30 1954 C 188.795 -1.63992 3.17555 0
M  V30 1955 S 190.354 -2.40729 3.66872 0
M  V30 1956 H 187.172 -0.293612 0.647544 0
M  V30 1957 H 189.774 -0.138099 1.95012 0
M  V30 1958 H 188.478 -0.962363 3.98957 0
M  V30 1959 H 188.009 -2.42038 3.10131 0
M  V30 1960 H 190.024 -3.65725 3.3535 0
M  V30 1961 N 189.197 -1.51736 -0.425897 0
M  V30 1962 C 190.144 -1.73875 -1.51776 0
M  V30 1963 C 191.114 -0.580702 -1.55618 0
M  V30 1964 O 192.299 -0.81641 -1.72451 0
M  V30 1965 C 189.439 -1.88012 -2.89388 0
M  V30 1966 C 188.552 -3.15606 -2.94986 0
M  V30 1967 C 187.687 -3.20271 -4.23793 0
M  V30 1968 C 186.726 -4.42134 -4.23302 0
M  V30 1969 N 185.863 -4.44284 -5.43651 0
M  V30 1970 H 190.703 -2.67071 -1.32201 0
M  V30 1971 H 188.24 -1.32351 -0.642008 0
M  V30 1972 H 190.198 -1.9419 -3.69251 0
M  V30 1973 H 188.828 -0.98213 -3.07496 0
M  V30 1974 H 187.88 -3.18681 -2.07717 0
M  V30 1975 H 189.192 -4.05486 -2.90486 0
M  V30 1976 H 188.346 -3.25428 -5.12036 0
M  V30 1977 H 187.085 -2.28299 -4.30965 0
M  V30 1978 H 186.09 -4.3714 -3.3345 0
M  V30 1979 H 187.315 -5.35382 -4.17783 0
M  V30 1980 H 185.261 -3.55188 -5.51523 0
M  V30 1981 H 185.178 -5.27988 -5.41078 0
M  V30 1982 H 186.446 -4.53649 -6.33895 0
M  V30 1983 N 190.675 0.682077 -1.42076 0
M  V30 1984 C 191.585 1.82535 -1.47371 0
M  V30 1985 C 192.601 1.7017 -0.363079 0
M  V30 1986 O 193.777 1.91848 -0.612875 0
M  V30 1987 C 190.842 3.18624 -1.36674 0
M  V30 1988 C 189.903 3.42999 -2.58167 0
M  V30 1989 C 189.136 4.72595 -2.4797 0
M  V30 1990 O 189.359 5.50006 -1.5116 0
M  V30 1991 O 188.293 4.98054 -3.37974 0
M  V30 1992 H 192.119 1.81023 -2.43853 0
M  V30 1993 H 189.704 0.836887 -1.2376 0
M  V30 1994 H 191.586 3.99847 -1.33043 0
M  V30 1995 H 190.261 3.20789 -0.433138 0
M  V30 1996 H 189.168 2.61653 -2.67373 0
M  V30 1997 H 190.501 3.45659 -3.50401 0
M  V30 1998 N 192.153 1.28127 0.917671 0
M  V30 1999 C 193.4 1.15052 1.66641 0
M  V30 2000 C 193.728 -0.301677 1.92146 0
M  V30 2001 O 192.983 -1.23622 1.51711 0
M  V30 2002 C 193.282 1.89018 3.03327 0
M  V30 2003 C 192.948 3.38832 2.97496 0
M  V30 2004 C 191.61 3.79693 2.95613 0
M  V30 2005 C 193.962 4.34378 2.88036 0
M  V30 2006 C 191.29 5.14447 2.82066 0
M  V30 2007 C 193.642 5.69201 2.7603 0
M  V30 2008 C 192.306 6.09343 2.72502 0
M  V30 2009 H 191.576 0.421006 0.609783 0
M  V30 2010 H 194.223 1.58855 1.06945 0
M  V30 2011 H 192.528 1.37752 3.66785 0
M  V30 2012 H 194.225 1.76321 3.60156 0
M  V30 2013 H 190.815 3.06342 2.99754 0
M  V30 2014 H 194.999 4.03775 2.88581 0
M  V30 2015 H 190.255 5.44681 2.77728 0
M  V30 2016 H 194.429 6.42901 2.67678 0
M  V30 2017 H 192.056 7.13712 2.61762 0
M  V30 2018 N 193.631 -1.12557 1.10312 0
M  V30 2019 C 194.879 -1.83675 0.843091 0
M  V30 2020 C 195.2 -1.84435 -0.633131 0
M  V30 2021 O 194.47 -1.30657 -1.45964 0
M  V30 2022 H 193.05 -0.680138 0.308904 0
M  V30 2023 H 195.712 -1.36301 1.39313 0
M  V30 2024 H 194.808 -2.87908 1.2048 0
M  V30 2025 N 195.109 -0.891671 -1.2995 0
M  V30 2026 C 196.039 -0.379797 -2.30391 0
M  V30 2027 C 197.02 0.540919 -1.6127 0
M  V30 2028 O 198.205 0.453352 -1.88834 0
M  V30 2029 C 195.335 0.400654 -3.44981 0
M  V30 2030 C 194.289 -0.428905 -4.25846 0
M  V30 2031 C 193.615 0.478557 -5.32554 0
M  V30 2032 C 194.915 -1.67458 -4.94727 0
M  V30 2033 H 196.609 -1.21914 -2.73454 0
M  V30 2034 H 194.155 -0.587675 -1.31462 0
M  V30 2035 H 196.108 0.769434 -4.14316 0
M  V30 2036 H 194.832 1.27371 -3.0074 0
M  V30 2037 H 193.491 -0.779911 -3.58208 0
M  V30 2038 H 193.139 1.34951 -4.84559 0
M  V30 2039 H 192.839 -0.0727433 -5.87555 0
M  V30 2040 H 194.363 0.843705 -6.04743 0
M  V30 2041 H 195.777 -1.376 -5.56542 0
M  V30 2042 H 194.174 -2.16659 -5.59624 0
M  V30 2043 H 195.244 -2.41518 -4.20473 0
M  V30 2044 N 196.587 1.43421 -0.653314 0
M  V30 2045 C 197.497 2.34568 0.0388565 0
M  V30 2046 C 198.513 1.53888 0.81207 0
M  V30 2047 O 199.689 1.86539 0.759294 0
M  V30 2048 C 196.754 3.32167 0.993269 0
M  V30 2049 C 195.815 4.28751 0.216977 0
M  V30 2050 C 195.048 5.21688 1.12593 0
M  V30 2051 O 195.271 5.19052 2.36519 0
M  V30 2052 O 194.205 5.98919 0.598284 0
M  V30 2053 H 198.031 2.95251 -0.711386 0
M  V30 2054 H 195.616 1.43564 -0.413502 0
M  V30 2055 H 197.498 3.92183 1.54176 0
M  V30 2056 H 196.173 2.73987 1.72374 0
M  V30 2057 H 195.08 3.72215 -0.375101 0
M  V30 2058 H 196.413 4.89913 -0.473924 0
M  V30 2059 N 198.065 0.39524 1.52563 0
M  V30 2060 C 199.29 -0.187456 2.06551 0
M  V30 2061 C 199.715 -1.39249 1.26457 0
M  V30 2062 O 199.073 -1.78947 0.291151 0
M  V30 2063 C 199.121 -0.529985 3.56684 0
M  V30 2064 O 198.225 -1.62307 3.79118 0
M  V30 2065 H 197.566 -0.0202537 0.663691 0
M  V30 2066 H 200.096 0.564426 1.96661 0
M  V30 2067 H 200.106 -0.792598 4.00227 0
M  V30 2068 H 198.781 0.350987 4.14416 0
M  V30 2069 H 197.358 -1.3537 3.47461 0
M  V30 2070 N 199.544 -1.57102 0.125237 0
M  V30 2071 C 200.793 -1.94582 -0.531095 0
M  V30 2072 C 201.106 -1.01126 -1.6743 0
M  V30 2073 O 202.312 -1.28097 -2.39381 0
M  V30 2074 C 200.768 -3.45839 -0.996164 0
M  V30 2075 C 200.376 -4.47842 0.118926 0
M  V30 2076 C 202.12 -3.92227 -1.62352 0
M  V30 2077 C 200.027 -5.90284 -0.363192 0
M  V30 2078 H 198.957 -0.726391 -0.20217 0
M  V30 2079 H 201.608 -1.82339 0.206092 0
M  V30 2080 H 199.99 -3.53338 -1.78796 0
M  V30 2081 H 201.164 -4.52018 0.895358 0
M  V30 2082 H 199.479 -4.11243 0.653324 0
M  V30 2083 H 202.076 -4.96069 -1.99548 0
M  V30 2084 H 202.419 -3.32552 -2.50429 0
M  V30 2085 H 202.952 -3.87554 -0.897019 0
M  V30 2086 H 199.691 -6.53728 0.481679 0
M  V30 2087 H 199.211 -5.89515 -1.10597 0
M  V30 2088 H 200.89 -6.41752 -0.822377 0
M  V30 2089 N 201.022 0.148545 -1.56898 0
M  V30 2090 C 201.97 1.20265 -1.99096 0
M  V30 2091 C 202.964 1.44559 -0.883123 0
M  V30 2092 O 204.17 1.4487 -1.0683 0
M  V30 2093 H 200.545 0.404786 -0.63376 0
M  V30 2094 H 202.516 0.82004 -2.86911 0
M  V30 2095 C 201.265 2.52886 -2.3863 0
M  V30 2096 H 200.588 2.35021 -3.23427 0
M  V30 2097 H 202.028 3.25274 -2.7198 0
M  V30 2098 C 200.487 3.13315 -1.23837 0
M  V30 2099 O 201.017 3.98077 -0.538268 0
M  V30 2100 N 199.223 2.72742 -1.00301 0
M  V30 2101 H 198.77 2.03912 -1.5741 0
M  V30 2102 H 198.728 3.13507 -0.236838 0
M  V30 2103 N 202.5 1.5196 0.417844 0
M  V30 2104 C 203.728 1.69426 1.18753 0
M  V30 2105 C 204.143 0.399955 1.84515 0
M  V30 2106 O 203.5 -0.623288 1.71527 0
M  V30 2107 C 203.551 2.82375 2.25714 0
M  V30 2108 O 203.272 4.06793 1.62638 0
M  V30 2109 C 204.773 3.11277 3.15628 0
M  V30 2110 H 201.993 0.568031 0.357186 0
M  V30 2111 H 204.537 1.98475 0.49273 0
M  V30 2112 H 202.692 2.5587 2.90877 0
M  V30 2113 H 203.106 4.69667 2.3348 0
M  V30 2114 H 204.58 3.93843 3.86771 0
M  V30 2115 H 205.057 2.24473 3.77503 0
M  V30 2116 H 205.663 3.39515 2.56144 0
M  V30 2117 N 203.978 -0.674533 1.42435 0
M  V30 2118 C 205.226 -1.43175 1.42637 0
M  V30 2119 C 205.547 -1.94951 0.0438992 0
M  V30 2120 O 204.817 -1.7308 -0.917607 0
M  V30 2121 H 203.397 -0.531307 0.525092 0
M  V30 2122 H 206.059 -0.797006 1.77859 0
M  V30 2123 H 205.155 -2.28463 2.12629 0
M  V30 2124 N 205.456 -1.28612 -0.910864 0
M  V30 2125 C 206.386 -1.15326 -2.03032 0
M  V30 2126 C 207.367 -0.0502924 -1.70026 0
M  V30 2127 O 208.552 -0.227797 -1.92859 0
M  V30 2128 C 205.682 -0.817343 -3.37545 0
M  V30 2129 C 204.636 -1.8754 -3.84724 0
M  V30 2130 C 203.962 -1.39305 -5.16235 0
M  V30 2131 C 205.262 -3.28244 -4.06267 0
M  V30 2132 H 206.956 -2.08975 -2.14406 0
M  V30 2133 H 204.502 -1.00612 -1.03021 0
M  V30 2134 H 206.455 -0.711151 -4.15356 0
M  V30 2135 H 205.179 0.154846 -3.26233 0
M  V30 2136 H 203.838 -1.97079 -3.09121 0
M  V30 2137 H 203.486 -0.409846 -5.01328 0
M  V30 2138 H 203.186 -2.10057 -5.48771 0
M  V30 2139 H 204.71 -1.30014 -5.96598 0
M  V30 2140 H 206.124 -3.21611 -4.74594 0
M  V30 2141 H 204.521 -3.96855 -4.5014 0
M  V30 2142 H 205.591 -3.72048 -3.10979 0
M  V30 2143 N 206.934 1.1197 -1.10907 0
M  V30 2144 C 207.882 2.19927 -0.757303 0
M  V30 2145 C 208.876 1.67564 0.248747 0
M  V30 2146 O 210.082 1.79672 0.108605 0
M  V30 2147 H 206.457 0.716925 -0.226987 0
M  V30 2148 H 208.428 2.46847 -1.67658 0
M  V30 2149 C 207.177 3.47061 -0.210671 0
M  V30 2150 H 206.5 3.87703 -0.976049 0
M  V30 2151 H 207.94 4.24 -0.0026584 0
M  V30 2152 C 206.399 3.19864 1.05777 0
M  V30 2153 O 206.929 3.40049 2.13845 0
M  V30 2154 N 205.135 2.73636 0.978349 0
M  V30 2155 H 204.682 2.5741 0.0988246 0
M  V30 2156 H 204.64 2.55815 1.82773 0
M  V30 2157 N 208.412 0.89855 1.29475 0
M  V30 2158 C 209.637 0.538561 2.00285 0
M  V30 2159 C 210.062 -0.869135 1.66816 0
M  V30 2160 O 209.42 -1.57831 0.892145 0
M  V30 2161 C 209.468 0.736475 3.52999 0
M  V30 2162 O 208.572 -0.211537 4.11857 0
M  V30 2163 H 207.913 0.210563 0.62973 0
M  V30 2164 H 210.443 1.20982 1.64998 0
M  V30 2165 H 210.453 0.640685 4.02938 0
M  V30 2166 H 209.128 1.76276 3.76696 0
M  V30 2167 H 207.705 -0.0682991 3.72837 0
M  V30 2168 N 209.89 -1.43072 0.660911 0
M  V30 2169 C 210.8 -2.34585 -0.0264163 0
M  V30 2170 C 211.816 -1.54316 -0.803898 0
M  V30 2171 O 212.992 -1.86939 -0.749391 0
M  V30 2172 C 210.057 -3.32689 -0.975639 0
M  V30 2173 C 209.118 -4.2886 -0.194236 0
M  V30 2174 C 208.351 -5.22278 -1.09825 0
M  V30 2175 O 208.574 -5.20299 -2.33763 0
M  V30 2176 O 207.508 -5.99228 -0.566513 0
M  V30 2177 H 211.334 -2.94869 0.727034 0
M  V30 2178 H 208.919 -1.43342 0.42111 0
M  V30 2179 H 210.801 -3.92995 -1.52094 0
M  V30 2180 H 209.476 -2.74898 -1.70918 0
M  V30 2181 H 208.383 -3.72011 0.394835 0
M  V30 2182 H 209.716 -4.89655 0.499899 0
M  V30 2183 N 211.368 -0.403325 -1.52352 0
M  V30 2184 C 212.3 0.4603 -2.2453 0
M  V30 2185 C 213.313 1.01505 -1.27282 0
M  V30 2186 O 214.502 0.914982 -1.53266 0
M  V30 2187 C 211.602 1.65208 -2.95905 0
M  V30 2188 C 210.775 1.22224 -4.19976 0
M  V30 2189 C 209.834 2.28028 -4.74226 0
M  V30 2190 O 208.86 1.88857 -5.36956 0
M  V30 2191 N 210.062 3.6012 -4.55295 0
M  V30 2192 H 212.827 -0.158156 -2.99282 0
M  V30 2193 H 210.388 -0.230402 -1.60252 0
M  V30 2194 H 212.38 2.35541 -3.29093 0
M  V30 2195 H 210.95 2.17658 -2.24374 0
M  V30 2196 H 210.17 0.34725 -3.92668 0
M  V30 2197 H 211.458 0.911924 -5.00561 0
M  V30 2198 H 210.856 3.94698 -4.05253 0
M  V30 2199 H 209.413 4.26447 -4.92936 0
M  V30 2200 N 212.846 1.57033 -0.133567 0
M  V30 2201 C 214.092 1.95976 0.521649 0
M  V30 2202 C 214.425 1.01779 1.65393 0
M  V30 2203 O 213.7 0.0576581 1.94415 0
M  V30 2204 C 213.983 3.44738 1.04057 0
M  V30 2205 C 213.836 4.49711 -0.0892897 0
M  V30 2206 C 215.155 3.95682 1.92675 0
M  V30 2207 H 212.274 0.712579 0.188149 0
M  V30 2208 H 214.916 1.88813 -0.212076 0
M  V30 2209 H 213.066 3.50973 1.66583 0
M  V30 2210 H 214.738 4.55565 -0.725152 0
M  V30 2211 H 212.981 4.27261 -0.750378 0
M  V30 2212 H 213.652 5.51099 0.315284 0
M  V30 2213 H 216.128 3.91841 1.39998 0
M  V30 2214 H 215.004 5.00262 2.25897 0
M  V30 2215 H 215.265 3.37239 2.85872 0
M  V30 2216 N 214.325 -0.140222 1.56975 0
M  V30 2217 C 215.272 -1.17292 1.98774 0
M  V30 2218 C 216.242 -1.4232 0.856408 0
M  V30 2219 O 217.427 -1.54541 1.119 0
M  V30 2220 C 214.567 -2.49973 2.37923 0
M  V30 2221 C 213.68 -2.32062 3.64378 0
M  V30 2222 C 212.815 -3.57825 3.926 0
M  V30 2223 C 211.854 -3.3498 5.12303 0
M  V30 2224 N 210.991 -4.52891 5.36502 0
M  V30 2225 H 215.831 -0.809472 2.86795 0
M  V30 2226 H 213.368 -0.388237 1.41884 0
M  V30 2227 H 215.326 -3.27346 2.58652 0
M  V30 2228 H 213.956 -2.84252 1.52972 0
M  V30 2229 H 213.008 -1.45711 3.51387 0
M  V30 2230 H 214.32 -2.11145 4.51906 0
M  V30 2231 H 213.474 -4.43624 4.13863 0
M  V30 2232 H 212.213 -3.81753 3.03506 0
M  V30 2233 H 211.218 -2.4757 4.90906 0
M  V30 2234 H 212.443 -3.12444 6.02956 0
M  V30 2235 H 210.389 -4.76979 4.50363 0
M  V30 2236 H 210.306 -4.35001 6.18312 0
M  V30 2237 H 211.574 -5.39884 5.62268 0
M  V30 2238 N 215.803 -1.52179 -0.40978 0
M  V30 2239 C 217.052 -1.65434 -1.15388 0
M  V30 2240 C 217.365 -0.390056 -1.91671 0
M  V30 2241 O 218.571 -0.402399 -2.68501 0
M  V30 2242 C 217.027 -2.92279 -2.10003 0
M  V30 2243 C 216.635 -4.25813 -1.39239 0
M  V30 2244 C 218.379 -3.14897 -2.84675 0
M  V30 2245 C 216.286 -5.43782 -2.32498 0
M  V30 2246 H 215.216 -0.616267 -0.434432 0
M  V30 2247 H 217.867 -1.78666 -0.418401 0
M  V30 2248 H 216.249 -2.72744 -2.871 0
M  V30 2249 H 217.423 -4.55828 -0.675099 0
M  V30 2250 H 215.738 -4.09292 -0.766097 0
M  V30 2251 H 218.335 -4.0021 -3.54593 0
M  V30 2252 H 218.678 -2.29103 -3.47588 0
M  V30 2253 H 219.211 -3.34901 -2.14677 0
M  V30 2254 H 215.95 -6.3192 -1.74233 0
M  V30 2255 H 215.47 -5.18106 -3.02201 0
M  V30 2256 H 217.149 -5.76834 -2.93038 0
M  V30 2257 N 217.281 0.66697 -1.42791 0
M  V30 2258 C 218.229 1.80157 -1.47127 0
M  V30 2259 C 219.223 1.65825 -0.346199 0
M  V30 2260 O 220.429 1.72338 -0.519572 0
M  V30 2261 H 216.804 0.594158 -0.460956 0
M  V30 2262 H 218.775 1.73619 -2.42692 0
M  V30 2263 C 217.524 3.18351 -1.39813 0
M  V30 2264 H 216.847 3.3001 -2.25684 0
M  V30 2265 H 218.287 3.97736 -1.46908 0
M  V30 2266 C 216.746 3.36707 -0.11391 0
M  V30 2267 O 217.276 3.93027 0.830241 0
M  V30 2268 N 215.482 2.90586 -0.0285295 0
M  V30 2269 H 215.029 2.4494 -0.79764 0
M  V30 2270 H 214.987 3.03245 0.830063 0
M  V30 2271 N 218.759 1.29093 0.90403 0
M  V30 2272 C 220.175 1.07011 1.1841 0
M  V30 2273 C 220.375 -0.181358 2.00682 0
M  V30 2274 O 219.431 -0.880331 2.36657 0
M  V30 2275 C 220.744 2.32311 1.90924 0
M  V30 2276 C 222.292 2.37587 2.03768 0
M  V30 2277 C 222.767 3.62679 2.79693 0
M  V30 2278 N 224.258 3.63376 2.87249 0
M  V30 2279 C 224.993 4.56848 3.46522 0
M  V30 2280 N 224.489 5.60648 4.06996 0
M  V30 2281 N 226.282 4.44426 3.44154 0
M  V30 2282 H 218.433 2.09412 0.354993 0
M  V30 2283 H 220.696 0.922181 0.219742 0
M  V30 2284 H 220.402 3.23536 1.37905 0
M  V30 2285 H 220.276 2.39483 2.91424 0
M  V30 2286 H 222.663 1.46853 2.55965 0
M  V30 2287 H 222.744 2.34403 1.02415 0
M  V30 2288 H 222.388 4.53762 2.28173 0
M  V30 2289 H 222.318 3.63119 3.81381 0
M  V30 2290 H 224.809 2.88321 2.44293 0
M  V30 2291 H 225.122 6.28101 4.50232 0
M  V30 2292 H 223.467 5.64463 4.05471 0
M  V30 2293 H 226.658 3.62529 2.96126 0
M  V30 2294 H 226.831 5.17457 3.90054 0
M  V30 2295 N 220.237 -1.11381 1.11499 0
M  V30 2296 C 221.514 -1.7955 0.775965 0
M  V30 2297 C 221.894 -1.97859 -0.73588 0
M  V30 2298 O 221.242 -1.56376 -1.66609 0
M  V30 2299 C 221.452 -3.13196 1.53977 0
M  V30 2300 C 222.8 -3.88227 1.71944 0
M  V30 2301 O 223.824 -3.22887 1.50407 0
M  V30 2302 O 222.683 -5.05477 2.07738 0
M  V30 2303 H 219.777 -0.777728 0.28119 0
M  V30 2304 H 222.323 -1.18118 1.21845 0
M  V30 2305 H 221.095 -2.95229 2.56818 0
M  V30 2306 H 220.718 -3.82342 1.09088 0
M  V30 2307 N 221.715 -0.905404 -1.28997 0
M  V30 2308 C 222.662 -0.385892 -2.27551 0
M  V30 2309 C 223.632 0.535113 -1.57244 0
M  V30 2310 O 224.817 0.459119 -1.85194 0
M  V30 2311 C 221.957 0.375461 -3.43051 0
M  V30 2312 C 221.07 -0.577092 -4.28128 0
M  V30 2313 C 220.205 0.201879 -5.30816 0
M  V30 2314 C 219.244 -0.744829 -6.07551 0
M  V30 2315 N 218.381 9.42587e-05 -7.021 0
M  V30 2316 H 223.221 -1.23139 -2.71368 0
M  V30 2317 H 220.758 -0.618542 -1.33463 0
M  V30 2318 H 222.716 0.832992 -4.088 0
M  V30 2319 H 221.346 1.18537 -3.00248 0
M  V30 2320 H 220.398 -1.15315 -3.62501 0
M  V30 2321 H 221.71 -1.30152 -4.8152 0
M  V30 2322 H 220.864 0.720351 -6.02408 0
M  V30 2323 H 219.603 0.959413 -4.7817 0
M  V30 2324 H 218.608 -1.27475 -5.34818 0
M  V30 2325 H 219.833 -1.50178 -6.62286 0
M  V30 2326 H 217.779 0.739791 -6.51815 0
M  V30 2327 H 217.696 -0.664321 -7.53076 0
M  V30 2328 H 218.964 0.498644 -7.77903 0
M  V30 2329 N 223.193 1.4272 -0.668489 0
M  V30 2330 C 224.423 2.05668 -0.196063 0
M  V30 2331 C 224.831 1.5028 1.14946 0
M  V30 2332 O 224.174 0.6348 1.72383 0
M  V30 2333 C 224.236 3.59469 -0.0468879 0
M  V30 2334 C 223.9 4.37518 -1.32012 0
M  V30 2335 C 224.897 4.68584 -2.25222 0
M  V30 2336 C 222.582 4.77266 -1.56596 0
M  V30 2337 C 224.576 5.38326 -3.41297 0
M  V30 2338 C 222.263 5.4675 -2.72962 0
M  V30 2339 C 223.261 5.77204 -3.65137 0
M  V30 2340 O 222.949 6.45264 -4.79468 0
M  V30 2341 H 222.681 0.669382 -0.0943599 0
M  V30 2342 H 225.235 1.83954 -0.913788 0
M  V30 2343 H 223.465 3.79817 0.726357 0
M  V30 2344 H 225.154 4.04071 0.384852 0
M  V30 2345 H 225.92 4.38382 -2.07477 0
M  V30 2346 H 221.799 4.52959 -0.857249 0
M  V30 2347 H 225.343 5.62014 -4.13263 0
M  V30 2348 H 221.24 5.76369 -2.90635 0
M  V30 2349 H 222.008 6.63753 -4.78931 0
M  V30 2350 N 224.671 0.411399 1.52136 0
M  V30 2351 C 225.919 -0.163322 2.01439 0
M  V30 2352 C 226.24 -1.45453 1.29879 0
M  V30 2353 O 225.51 -1.91225 0.4254 0
M  V30 2354 H 224.09 -0.0633447 0.744309 0
M  V30 2355 H 226.752 0.548161 1.87033 0
M  V30 2356 H 225.848 -0.357817 3.10042 0
M  V30 2357 N 226.149 -1.5696 0.141893 0
M  V30 2358 C 227.059 -2.20066 -0.812905 0
M  V30 2359 C 228.075 -1.18344 -1.27557 0
M  V30 2360 O 229.251 -1.50902 -1.33381 0
M  V30 2361 C 226.316 -2.80583 -2.03652 0
M  V30 2362 C 225.377 -3.97414 -1.62359 0
M  V30 2363 C 224.61 -4.55036 -2.78887 0
M  V30 2364 O 224.833 -4.11538 -3.94959 0
M  V30 2365 O 223.767 -5.45376 -2.54653 0
M  V30 2366 H 227.593 -3.02157 -0.305746 0
M  V30 2367 H 225.178 -1.49159 -0.0848799 0
M  V30 2368 H 227.06 -3.19067 -2.75272 0
M  V30 2369 H 225.735 -2.01508 -2.5333 0
M  V30 2370 H 224.642 -3.63656 -0.877775 0
M  V30 2371 H 225.975 -4.77994 -1.17401 0
M  V30 2372 N 227.627 0.131896 -1.57047 0
M  V30 2373 C 228.575 1.18146 -2.0036 0
M  V30 2374 C 229.569 1.43614 -0.898406 0
M  V30 2375 O 230.775 1.43729 -1.08361 0
M  V30 2376 H 227.15 0.398042 -0.638018 0
M  V30 2377 H 229.121 0.789564 -2.87765 0
M  V30 2378 C 227.87 2.50341 -2.41298 0
M  V30 2379 H 227.193 2.31578 -3.25902 0
M  V30 2380 H 228.633 3.22371 -2.75414 0
M  V30 2381 C 227.092 3.11984 -1.27153 0
M  V30 2382 O 227.622 3.97484 -0.580459 0
M  V30 2383 N 225.828 2.71662 -1.03189 0
M  V30 2384 H 225.375 2.02231 -1.59564 0
M  V30 2385 H 225.333 3.13238 -0.270077 0
M  V30 2386 N 229.106 1.52395 0.401703 0
M  V30 2387 C 230.353 1.66817 1.14796 0
M  V30 2388 C 230.681 0.401772 1.90305 0
M  V30 2389 O 229.936 -0.615487 1.85769 0
M  V30 2390 C 230.235 2.84578 2.16217 0
M  V30 2391 C 229.901 4.22513 1.5746 0
M  V30 2392 C 228.563 4.60029 1.41161 0
M  V30 2393 C 230.915 5.0844 1.14622 0
M  V30 2394 C 228.243 5.81144 0.80552 0
M  V30 2395 C 230.595 6.30167 0.55428 0
M  V30 2396 C 229.259 6.66426 0.378482 0
M  V30 2397 H 228.529 0.610428 0.420069 0
M  V30 2398 H 231.176 1.86512 0.434212 0
M  V30 2399 H 229.481 2.59248 2.93764 0
M  V30 2400 H 231.178 2.92933 2.73845 0
M  V30 2401 H 227.768 3.92953 1.71132 0
M  V30 2402 H 231.952 4.80034 1.26021 0
M  V30 2403 H 227.208 6.07855 0.657399 0
M  V30 2404 H 231.382 6.96071 0.213983 0
M  V30 2405 H 229.009 7.60143 -0.0932606 0
M  V30 2406 N 230.584 -0.659388 1.43143 0
M  V30 2407 C 231.833 -1.41518 1.43721 0
M  V30 2408 C 232.146 -1.95499 0.0628176 0
M  V30 2409 O 233.352 -2.71446 -0.0539683 0
M  V30 2410 C 231.808 -2.5608 2.52885 0
M  V30 2411 C 231.416 -2.08733 3.96402 0
M  V30 2412 C 233.16 -3.3349 2.62649 0
M  V30 2413 C 231.067 -3.20469 4.97045 0
M  V30 2414 H 229.997 -0.531705 0.534608 0
M  V30 2415 H 232.648 -0.712343 1.69109 0
M  V30 2416 H 231.03 -3.28805 2.20688 0
M  V30 2417 H 232.204 -1.43059 4.3803 0
M  V30 2418 H 230.519 -1.44219 3.90627 0
M  V30 2419 H 233.116 -4.16734 3.35017 0
M  V30 2420 H 233.459 -3.8111 1.67513 0
M  V30 2421 H 233.992 -2.67842 2.94118 0
M  V30 2422 H 230.731 -2.77824 5.93712 0
M  V30 2423 H 230.251 -3.84874 4.60034 0
M  V30 2424 H 231.93 -3.85698 5.19467 0
M  V30 2425 N 232.062 -1.29571 -0.897171 0
M  V30 2426 C 232.972 -1.16808 -2.03453 0
M  V30 2427 C 233.988 -0.0907471 -1.73763 0
M  V30 2428 O 235.164 -0.303312 -1.99103 0
M  V30 2429 C 232.229 -0.848264 -3.36163 0
M  V30 2430 C 231.29 -2.0097 -3.79354 0
M  V30 2431 C 230.523 -1.70505 -5.05731 0
M  V30 2432 O 230.746 -0.62718 -5.66941 0
M  V30 2433 O 229.68 -2.5538 -5.45036 0
M  V30 2434 H 233.506 -2.12325 -2.17144 0
M  V30 2435 H 231.091 -1.09047 -1.02123 0
M  V30 2436 H 232.973 -0.684581 -4.15802 0
M  V30 2437 H 231.648 0.0771071 -3.23608 0
M  V30 2438 H 230.555 -2.22863 -3.00471 0
M  V30 2439 H 231.888 -2.91636 -3.96496 0
M  V30 2440 N 233.54 1.10788 -1.12088 0
M  V30 2441 C 234.487 2.17025 -0.785407 0
M  V30 2442 C 235.457 1.64265 0.246191 0
M  V30 2443 O 236.642 1.90412 0.121584 0
M  V30 2444 C 233.782 3.44249 -0.242177 0
M  V30 2445 C 232.895 4.1098 -1.33115 0
M  V30 2446 C 232.03 5.25911 -0.747741 0
M  V30 2447 C 231.069 5.84538 -1.81609 0
M  V30 2448 N 230.206 6.90853 -1.25167 0
M  V30 2449 H 235.046 2.45066 -1.69548 0
M  V30 2450 H 232.583 1.20297 -0.846582 0
M  V30 2451 H 234.541 4.17101 0.0908026 0
M  V30 2452 H 233.171 3.16571 0.631072 0
M  V30 2453 H 232.223 3.36133 -1.78097 0
M  V30 2454 H 233.535 4.50601 -2.13917 0
M  V30 2455 H 232.689 6.056 -0.365216 0
M  V30 2456 H 231.428 4.87614 0.0915188 0
M  V30 2457 H 230.433 5.03522 -2.20785 0
M  V30 2458 H 231.658 6.249 -2.6585 0
M  V30 2459 H 229.604 6.54562 -0.434174 0
M  V30 2460 H 229.521 7.29166 -1.99633 0
M  V30 2461 H 230.789 7.7433 -0.896259 0
M  V30 2462 N 235.018 0.912232 1.28515 0
M  V30 2463 C 236.295 0.463597 1.90027 0
M  V30 2464 C 236.675 -1.05753 1.82701 0
M  V30 2465 O 236.023 -1.90492 1.26194 0
M  V30 2466 C 236.233 0.992253 3.34597 0
M  V30 2467 C 237.581 1.04344 4.11579 0
M  V30 2468 O 238.605 0.94079 3.43551 0
M  V30 2469 O 237.464 1.1995 5.33174 0
M  V30 2470 H 234.558 0.146666 0.813891 0
M  V30 2471 H 237.104 1.00292 1.36893 0
M  V30 2472 H 235.876 2.03623 3.34146 0
M  V30 2473 H 235.499 0.433672 3.95228 0
M  V30 2474 N 236.496 -1.42363 0.676048 0
M  V30 2475 C 237.406 -2.346 -0.00153389 0
M  V30 2476 C 238.422 -1.5516 -0.787485 0
M  V30 2477 O 239.598 -1.87723 -0.729521 0
M  V30 2478 C 236.663 -3.33705 -0.940298 0
M  V30 2479 C 235.724 -4.29042 -0.148739 0
M  V30 2480 C 234.957 -5.23413 -1.04279 0
M  V30 2481 O 235.18 -5.22749 -2.28232 0
M  V30 2482 O 234.114 -5.99795 -0.502925 0
M  V30 2483 H 237.94 -2.94082 0.758268 0
M  V30 2484 H 235.525 -1.42888 0.436289 0
M  V30 2485 H 237.407 -3.94586 -1.47917 0
M  V30 2486 H 236.082 -2.76695 -1.67993 0
M  V30 2487 H 234.989 -3.71571 0.43427 0
M  V30 2488 H 236.322 -4.89097 0.551805 0
M  V30 2489 N 237.974 -0.419461 -1.51915 0
M  V30 2490 C 239.22 0.153166 -2.02221 0
M  V30 2491 C 239.553 1.43907 -1.30401 0
M  V30 2492 O 238.828 1.90055 -0.413438 0
M  V30 2493 C 239.111 0.390291 -3.57979 0
M  V30 2494 C 238.964 -0.913014 -4.40436 0
M  V30 2495 C 240.283 1.16794 -4.2432 0
M  V30 2496 H 237.402 0.0541924 -0.735005 0
M  V30 2497 H 240.044 -0.554955 -1.81715 0
M  V30 2498 H 238.194 0.993491 -3.75582 0
M  V30 2499 H 239.866 -1.54882 -4.34522 0
M  V30 2500 H 238.109 -1.52168 -4.06236 0
M  V30 2501 H 238.78 -0.701361 -5.47526 0
M  V30 2502 H 241.256 0.657161 -4.10878 0
M  V30 2503 H 240.132 1.3026 -5.3322 0
M  V30 2504 H 240.393 2.19132 -3.83971 0
M  V30 2505 N 239.452 1.56882 -0.150215 0
M  V30 2506 C 240.698 1.96518 0.500834 0
M  V30 2507 C 241.031 1.03527 1.64304 0
M  V30 2508 O 240.306 0.0782751 1.94342 0
M  V30 2509 C 240.589 3.45822 1.00395 0
M  V30 2510 C 240.442 4.49591 -0.136983 0
M  V30 2511 C 241.761 3.97704 1.88467 0
M  V30 2512 H 238.88 0.714535 0.18058 0
M  V30 2513 H 241.522 1.88577 -0.232091 0
M  V30 2514 H 239.672 3.5272 1.62851 0
M  V30 2515 H 241.344 4.5477 -0.77343 0
M  V30 2516 H 239.587 4.26441 -0.795652 0
M  V30 2517 H 240.258 5.51402 0.256815 0
M  V30 2518 H 242.734 3.93304 1.35834 0
M  V30 2519 H 241.61 5.0263 2.20578 0
M  V30 2520 H 241.871 3.40252 2.82279 0
M  V30 2521 N 240.93 -0.123565 1.57115 0
M  V30 2522 C 242.341 -0.681198 1.73829 0
M  V30 2523 C 242.692 -1.80535 0.768214 0
M  V30 2524 O 241.817 -2.16317 -0.0599103 0
M  V30 2525 C 242.412 -1.24246 3.15196 0
M  V30 2526 C 240.971 -1.74643 3.33432 0
M  V30 2527 C 240.118 -0.644284 2.69711 0
M  V30 2528 H 243.069 0.102315 1.5837 0
M  V30 2529 H 243.09 -2.11216 3.16493 0
M  V30 2530 H 242.602 -0.424062 3.85776 0
M  V30 2531 H 240.703 -2.58974 2.67886 0
M  V30 2532 H 240.816 -1.85902 4.41562 0
M  V30 2533 H 239.18 -1.07676 2.3082 0
M  V30 2534 H 239.963 0.163058 3.42913 0
M  V30 2535 N 242.408 -1.52605 -0.393616 0
M  V30 2536 C 243.654 -1.67672 -1.14079 0
M  V30 2537 C 243.987 -0.413121 -1.89755 0
M  V30 2538 O 243.262 0.588952 -1.85369 0
M  V30 2539 C 243.545 -2.9088 -2.12276 0
M  V30 2540 C 243.398 -4.27329 -1.40394 0
M  V30 2541 C 244.717 -3.09628 -3.12759 0
M  V30 2542 H 241.836 -0.610168 -0.413356 0
M  V30 2543 H 244.478 -1.85193 -0.424696 0
M  V30 2544 H 242.628 -2.76073 -2.73342 0
M  V30 2545 H 244.3 -4.53894 -0.82327 0
M  V30 2546 H 242.543 -4.2802 -0.705801 0
M  V30 2547 H 243.214 -5.09615 -2.12123 0
M  V30 2548 H 245.69 -3.23436 -2.61779 0
M  V30 2549 H 244.566 -3.97322 -3.78717 0
M  V30 2550 H 244.827 -2.23637 -3.81365 0
M  V30 2551 N 243.887 0.651787 -1.4349 0
M  V30 2552 C 245.133 1.4121 -1.46395 0
M  V30 2553 C 245.488 1.92202 -0.087366 0
M  V30 2554 O 244.781 1.69452 0.894231 0
M  V30 2555 C 244.975 2.60914 -2.44251 0
M  V30 2556 C 244.804 2.21639 -3.91288 0
M  V30 2557 C 243.574 2.09897 -4.59643 0
M  V30 2558 C 245.772 1.81835 -4.81083 0
M  V30 2559 N 243.754 1.63967 -5.91598 0
M  V30 2560 C 245.125 1.46998 -6.02322 0
M  V30 2561 C 247.18 1.69031 -4.6833 0
M  V30 2562 C 245.883 1.00638 -7.12225 0
M  V30 2563 C 247.909 1.24077 -5.78238 0
M  V30 2564 C 247.271 0.901772 -6.98604 0
M  V30 2565 H 243.37 0.512322 -0.590805 0
M  V30 2566 H 245.954 0.74989 -1.7968 0
M  V30 2567 H 244.125 3.24792 -2.1299 0
M  V30 2568 H 245.857 3.27622 -2.37584 0
M  V30 2569 H 242.612 2.297 -4.14168 0
M  V30 2570 H 243.036 1.43359 -6.61647 0
M  V30 2571 H 247.678 1.93878 -3.75727 0
M  V30 2572 H 245.396 0.745399 -8.04655 0
M  V30 2573 H 248.982 1.14657 -5.7039 0
M  V30 2574 H 247.862 0.559226 -7.82203 0
M  V30 2575 N 245.365 1.30045 0.890287 0
M  V30 2576 C 246.295 1.18541 2.01172 0
M  V30 2577 C 247.276 0.0773356 1.69924 0
M  V30 2578 O 248.461 0.25845 1.92473 0
M  V30 2579 C 245.591 0.870941 3.36202 0
M  V30 2580 C 244.545 1.93637 3.81692 0
M  V30 2581 C 243.871 1.475 5.13953 0
M  V30 2582 C 245.171 3.34666 4.00994 0
M  V30 2583 H 246.865 2.12359 2.11054 0
M  V30 2584 H 244.411 1.02238 1.01407 0
M  V30 2585 H 246.364 0.777141 4.14172 0
M  V30 2586 H 245.088 -0.102926 3.26438 0
M  V30 2587 H 243.747 2.01972 3.05946 0
M  V30 2588 H 243.395 0.489551 5.00612 0
M  V30 2589 H 243.095 2.1876 5.4536 0
M  V30 2590 H 244.619 1.39489 5.94454 0
M  V30 2591 H 246.033 3.2912 4.69417 0
M  V30 2592 H 244.43 4.03966 4.43769 0
M  V30 2593 H 245.5 3.76949 3.05021 0
M  V30 2594 N 246.843 -1.10192 1.12674 0
M  V30 2595 C 248.092 -1.81573 0.8783 0
M  V30 2596 C 248.405 -1.86249 -0.597557 0
M  V30 2597 O 249.611 -2.5386 -0.962681 0
M  V30 2598 C 248.067 -3.26149 1.52167 0
M  V30 2599 C 247.675 -3.29763 3.03249 0
M  V30 2600 C 249.419 -4.0234 1.3536 0
M  V30 2601 C 247.326 -4.68815 3.60508 0
M  V30 2602 H 246.256 -0.680394 0.324931 0
M  V30 2603 H 248.907 -1.23902 1.35353 0
M  V30 2604 H 247.289 -3.83832 0.974104 0
M  V30 2605 H 248.463 -2.8189 3.6452 0
M  V30 2606 H 246.778 -2.67059 3.19481 0
M  V30 2607 H 249.375 -5.05058 1.75559 0
M  V30 2608 H 249.718 -4.15235 0.297554 0
M  V30 2609 H 250.251 -3.51079 1.87052 0
M  V30 2610 H 246.99 -4.61121 4.65884 0
M  V30 2611 H 246.51 -5.17045 3.04014 0
M  V30 2612 H 248.189 -5.37785 3.59717 0
M  V30 2613 N 248.321 -0.919034 -1.28029 0
M  V30 2614 C 249.568 -0.554934 -1.94748 0
M  V30 2615 C 249.896 0.90231 -1.72304 0
M  V30 2616 O 249.151 1.65767 -1.04018 0
M  V30 2617 C 249.45 -0.816855 -3.4794 0
M  V30 2618 C 249.116 -2.25448 -3.90492 0
M  V30 2619 C 247.778 -2.64752 -4.01821 0
M  V30 2620 C 250.13 -3.18977 -4.12193 0
M  V30 2621 C 247.458 -3.96727 -4.32232 0
M  V30 2622 C 249.81 -4.50523 -4.44086 0
M  V30 2623 C 248.474 -4.89673 -4.53626 0
M  V30 2624 H 247.744 -0.203065 -0.712633 0
M  V30 2625 H 250.391 -1.16136 -1.52265 0
M  V30 2626 H 248.696 -0.127677 -3.91592 0
M  V30 2627 H 250.393 -0.514238 -3.97689 0
M  V30 2628 H 246.983 -1.93952 -3.82205 0
M  V30 2629 H 251.167 -2.89817 -4.02889 0
M  V30 2630 H 246.423 -4.26754 -4.37825 0
M  V30 2631 H 250.597 -5.23005 -4.59825 0
M  V30 2632 H 248.224 -5.91969 -4.76946 0
M  V30 2633 N 249.799 1.42003 -0.683588 0
M  V30 2634 C 250.729 2.33487 -0.024866 0
M  V30 2635 C 251.71 1.51163 0.779975 0
M  V30 2636 O 252.895 1.79739 0.735362 0
M  V30 2637 C 250.025 3.3487 0.920836 0
M  V30 2638 C 248.979 4.27414 0.223958 0
M  V30 2639 C 248.305 5.19074 1.2832 0
M  V30 2640 C 249.605 5.14445 -0.90242 0
M  V30 2641 H 251.299 2.88819 -0.788921 0
M  V30 2642 H 248.845 1.38873 -0.38083 0
M  V30 2643 H 250.798 3.97787 1.39081 0
M  V30 2644 H 249.522 2.77861 1.71642 0
M  V30 2645 H 248.181 3.65904 -0.225864 0
M  V30 2646 H 247.829 4.58387 2.071 0
M  V30 2647 H 247.529 5.81822 0.821995 0
M  V30 2648 H 249.053 5.84867 1.75392 0
M  V30 2649 H 250.467 5.70998 -0.513272 0
M  V30 2650 H 248.864 5.86072 -1.28997 0
M  V30 2651 H 249.934 4.52322 -1.74737 0
M  V30 2652 N 251.277 0.427512 1.51691 0
M  V30 2653 C 252.502 -0.143601 2.06902 0
M  V30 2654 C 252.927 -1.36536 1.29382 0
M  V30 2655 O 252.285 -1.78289 0.329043 0
M  V30 2656 C 252.333 -0.454207 3.57728 0
M  V30 2657 O 251.437 -1.54228 3.82475 0
M  V30 2658 H 250.778 -0.00617128 0.663971 0
M  V30 2659 H 253.308 0.606014 1.95419 0
M  V30 2660 H 253.318 -0.707525 4.01818 0
M  V30 2661 H 251.993 0.438812 4.13579 0
M  V30 2662 H 250.57 -1.2797 3.50254 0
M  V30 2663 N 252.755 -1.56801 0.158532 0
M  V30 2664 C 253.687 -2.14488 -0.807923 0
M  V30 2665 C 254.7 -1.09721 -1.20271 0
M  V30 2666 O 255.889 -1.36956 -1.14478 0
M  V30 2667 C 252.989 -2.66217 -2.09718 0
M  V30 2668 C 252.162 -3.95507 -1.86796 0
M  V30 2669 C 251.221 -4.3243 -2.99818 0
M  V30 2670 O 250.247 -5.00543 -2.71008 0
M  V30 2671 N 251.449 -3.92947 -4.27285 0
M  V30 2672 H 254.214 -2.98042 -0.314816 0
M  V30 2673 H 251.775 -1.61881 -0.0246692 0
M  V30 2674 H 253.767 -2.87924 -2.84398 0
M  V30 2675 H 252.337 -1.87324 -2.50257 0
M  V30 2676 H 251.557 -3.82309 -0.96089 0
M  V30 2677 H 252.845 -4.79972 -1.68833 0
M  V30 2678 H 252.243 -3.38087 -4.53557 0
M  V30 2679 H 250.8 -4.19681 -4.9871 0
M  V30 2680 N 254.233 0.115231 -1.57178 0
M  V30 2681 C 255.463 0.835224 -1.88964 0
M  V30 2682 C 255.871 1.73774 -0.74829 0
M  V30 2683 O 255.214 1.81401 0.289739 0
M  V30 2684 C 255.276 1.7178 -3.15804 0
M  V30 2685 C 254.94 0.989198 -4.46166 0
M  V30 2686 C 255.937 0.328263 -5.18863 0
M  V30 2687 C 253.622 0.969256 -4.9286 0
M  V30 2688 C 255.616 -0.342873 -6.36477 0
M  V30 2689 C 253.303 0.294324 -6.10391 0
M  V30 2690 C 254.301 -0.360582 -6.82048 0
M  V30 2691 O 253.989 -1.02474 -7.97342 0
M  V30 2692 H 253.721 0.245197 -0.629964 0
M  V30 2693 H 256.275 0.10303 -2.05141 0
M  V30 2694 H 254.505 2.49173 -2.95719 0
M  V30 2695 H 256.194 2.31255 -3.33581 0
M  V30 2696 H 256.96 0.335263 -4.8384 0
M  V30 2697 H 252.839 1.46844 -4.36987 0
M  V30 2698 H 256.383 -0.854629 -6.92345 0
M  V30 2699 H 252.28 0.285099 -6.4487 0
M  V30 2700 H 253.048 -0.929594 -8.13204 0
M  V30 2701 N 255.711 1.52812 0.385517 0
M  V30 2702 C 256.951 1.69716 1.13911 0
M  V30 2703 C 257.315 0.42962 1.87132 0
M  V30 2704 O 258.516 0.475071 2.64569 0
M  V30 2705 C 256.787 2.90021 2.0886 0
M  V30 2706 S 258.346 3.27531 2.92009 0
M  V30 2707 H 255.164 0.59739 0.385547 0
M  V30 2708 H 257.766 1.90868 0.423061 0
M  V30 2709 H 256.47 3.80493 1.53797 0
M  V30 2710 H 256.001 2.71213 2.84969 0
M  V30 2711 H 258.016 2.77989 4.11019 0
M  V30 2712 N 257.189 -0.644168 1.43834 0
M  V30 2713 C 258.414 -1.43642 1.49605 0
M  V30 2714 C 258.839 -1.8773 0.117913 0
M  V30 2715 O 258.197 -1.57938 -0.890239 0
M  V30 2716 C 258.245 -2.6416 2.45463 0
M  V30 2717 O 257.349 -3.63538 1.94714 0
M  V30 2718 H 256.69 -0.430329 0.50568 0
M  V30 2719 H 259.22 -0.787448 1.8884 0
M  V30 2720 H 259.23 -3.11864 2.63068 0
M  V30 2721 H 257.905 -2.31414 3.45572 0
M  V30 2722 H 256.482 -3.2273 1.86814 0
M  V30 2723 N 258.668 -1.30515 -0.883378 0
M  V30 2724 C 260.079 -1.17509 -1.45081 0
M  V30 2725 C 260.43 0.223605 -1.94922 0
M  V30 2726 O 259.555 1.12041 -1.85137 0
M  V30 2727 C 260.15 -2.12715 -2.63701 0
M  V30 2728 C 258.709 -2.03682 -3.16529 0
M  V30 2729 C 257.856 -2.02706 -1.89224 0
M  V30 2730 H 260.807 -1.42762 -0.693165 0
M  V30 2731 H 260.828 -1.70891 -3.39965 0
M  V30 2732 H 260.34 -3.14505 -2.27395 0
M  V30 2733 H 258.441 -1.05039 -3.57488 0
M  V30 2734 H 258.554 -2.92146 -3.7972 0
M  V30 2735 H 256.918 -1.4753 -2.07622 0
M  V30 2736 H 257.701 -3.06229 -1.55174 0
M  V30 2737 N 260.146 1.09593 -1.13257 0
M  V30 2738 C 261.392 1.82003 -0.89458 0
M  V30 2739 C 261.725 1.85402 0.577906 0
M  V30 2740 O 261 1.32099 1.42759 0
M  V30 2741 C 261.283 3.28237 -1.48096 0
M  V30 2742 C 261.136 3.3312 -3.02244 0
M  V30 2743 C 262.455 4.24871 -1.14774 0
M  V30 2744 H 259.574 0.66077 -0.326424 0
M  V30 2745 H 262.216 1.28389 -1.40058 0
M  V30 2746 H 260.366 3.74024 -1.05062 0
M  V30 2747 H 262.038 2.95748 -3.54021 0
M  V30 2748 H 260.281 2.72756 -3.37323 0
M  V30 2749 H 260.952 4.3613 -3.38371 0
M  V30 2750 H 263.428 3.87361 -1.51957 0
M  V30 2751 H 262.304 5.25532 -1.58452 0
M  V30 2752 H 262.565 4.42058 -0.0611849 0
M  V30 2753 N 261.624 0.925811 1.2754 0
M  V30 2754 C 262.87 0.566092 1.94739 0
M  V30 2755 C 263.203 -0.890057 1.72603 0
M  V30 2756 O 262.478 -1.63467 1.05399 0
M  V30 2757 C 262.761 0.89054 3.48915 0
M  V30 2758 C 262.614 2.4003 3.80402 0
M  V30 2759 C 263.933 0.395101 4.38323 0
M  V30 2760 H 261.052 0.20714 0.707292 0
M  V30 2761 H 263.694 1.15725 1.50691 0
M  V30 2762 H 261.844 0.387452 3.86563 0
M  V30 2763 H 263.516 2.97494 3.52555 0
M  V30 2764 H 261.759 2.85028 3.2702 0
M  V30 2765 H 262.43 2.57785 4.8811 0
M  V30 2766 H 264.906 0.826241 4.07814 0
M  V30 2767 H 263.782 0.651086 5.45025 0
M  V30 2768 H 264.043 -0.704798 4.36446 0
M  V30 2769 N 263.102 -1.41638 0.69111 0
M  V30 2770 C 264.032 -2.3347 0.037248 0
M  V30 2771 C 265.013 -1.51575 -0.771947 0
M  V30 2772 O 266.198 -1.80126 -0.72582 0
M  V30 2773 C 263.328 -3.35354 -0.903064 0
M  V30 2774 C 262.282 -4.27526 -0.201288 0
M  V30 2775 C 261.608 -5.19747 -1.25565 0
M  V30 2776 C 262.908 -5.13959 0.929689 0
M  V30 2777 H 264.602 -2.88397 0.804227 0
M  V30 2778 H 262.148 -1.38669 0.388189 0
M  V30 2779 H 264.101 -3.98519 -1.36969 0
M  V30 2780 H 262.825 -2.78767 -1.70166 0
M  V30 2781 H 261.484 -3.65779 0.245265 0
M  V30 2782 H 261.132 -4.59479 -2.04666 0
M  V30 2783 H 260.832 -5.8225 -0.791128 0
M  V30 2784 H 262.356 -5.85789 -1.72288 0
M  V30 2785 H 263.77 -5.70718 0.543546 0
M  V30 2786 H 262.167 -5.85379 1.32103 0
M  V30 2787 H 263.237 -4.51389 1.77133 0
M  V30 2788 N 264.58 -0.43555 -1.51462 0
M  V30 2789 C 265.51 0.367376 -2.30592 0
M  V30 2790 C 266.491 1.02263 -1.35928 0
M  V30 2791 O 267.676 1.02661 -1.64847 0
M  V30 2792 C 264.806 1.46983 -3.14664 0
M  V30 2793 C 263.76 0.938161 -4.17591 0
M  V30 2794 C 263.086 2.13622 -4.90173 0
M  V30 2795 C 264.386 -0.0261621 -5.22293 0
M  V30 2796 H 266.08 -0.292969 -2.97963 0
M  V30 2797 H 263.626 -0.14234 -1.43295 0
M  V30 2798 H 265.579 2.03873 -3.688 0
M  V30 2799 H 264.303 2.15843 -2.4511 0
M  V30 2800 H 262.962 0.391481 -3.64504 0
M  V30 2801 H 262.61 2.81098 -4.17124 0
M  V30 2802 H 262.31 1.78688 -5.59772 0
M  V30 2803 H 263.834 2.7107 -5.47132 0
M  V30 2804 H 265.248 0.452384 -5.71512 0
M  V30 2805 H 263.645 -0.287992 -5.99409 0
M  V30 2806 H 264.715 -0.963391 -4.75233 0
M  V30 2807 N 266.058 1.56714 -0.166846 0
M  V30 2808 C 266.988 2.20754 0.760913 0
M  V30 2809 C 267.969 1.16178 1.24244 0
M  V30 2810 O 269.154 1.44592 1.29641 0
M  V30 2811 C 266.284 2.84478 1.99223 0
M  V30 2812 C 265.238 3.95053 1.64672 0
M  V30 2813 C 264.564 4.45805 2.95232 0
M  V30 2814 C 265.864 5.14865 0.878155 0
M  V30 2815 H 267.558 2.98537 0.22713 0
M  V30 2816 H 265.104 1.43596 0.107805 0
M  V30 2817 H 267.057 3.27951 2.64624 0
M  V30 2818 H 265.781 2.04056 2.55007 0
M  V30 2819 H 264.44 3.52228 1.01641 0
M  V30 2820 H 264.088 3.62181 3.49047 0
M  V30 2821 H 263.788 5.204 2.7287 0
M  V30 2822 H 265.312 4.91962 3.6167 0
M  V30 2823 H 266.726 5.55059 1.43466 0
M  V30 2824 H 265.123 5.95348 0.753738 0
M  V30 2825 H 266.193 4.84735 -0.126377 0
M  V30 2826 N 267.536 -0.106894 1.57237 0
M  V30 2827 C 268.466 -1.13148 2.04254 0
M  V30 2828 C 269.447 -1.42476 0.929224 0
M  V30 2829 O 270.632 -1.52709 1.19973 0
M  V30 2830 C 267.762 -2.4545 2.45706 0
M  V30 2831 C 266.716 -2.30558 3.60592 0
M  V30 2832 C 266.042 -3.67931 3.87983 0
M  V30 2833 C 267.342 -1.75597 4.91897 0
M  V30 2834 H 269.036 -0.740374 2.90101 0
M  V30 2835 H 266.582 -0.354696 1.39563 0
M  V30 2836 H 268.535 -3.17389 2.77205 0
M  V30 2837 H 267.259 -2.86475 1.56843 0
M  V30 2838 H 265.918 -1.61067 3.29322 0
M  V30 2839 H 265.566 -4.06462 2.96306 0
M  V30 2840 H 265.266 -3.58817 4.65322 0
M  V30 2841 H 266.79 -4.41356 4.21945 0
M  V30 2842 H 268.204 -2.37364 5.21854 0
M  V30 2843 H 266.601 -1.77272 5.73319 0
M  V30 2844 H 267.671 -0.714451 4.79608 0
M  V30 2845 N 269.014 -1.53014 -0.377408 0
M  V30 2846 C 270.26 -1.68872 -1.12294 0
M  V30 2847 C 270.593 -0.433224 -1.89306 0
M  V30 2848 O 269.868 0.569258 -1.85983 0
M  V30 2849 C 270.151 -2.93115 -2.09179 0
M  V30 2850 C 270.004 -4.28794 -1.35853 0
M  V30 2851 C 271.323 -3.12928 -3.09458 0
M  V30 2852 H 268.442 -0.614518 -0.406862 0
M  V30 2853 H 271.084 -1.85633 -0.40503 0
M  V30 2854 H 269.234 -2.78956 -2.70399 0
M  V30 2855 H 270.906 -4.54742 -0.775082 0
M  V30 2856 H 269.149 -4.28744 -0.660364 0
M  V30 2857 H 269.82 -5.11837 -2.06706 0
M  V30 2858 H 272.296 -3.26194 -2.58334 0
M  V30 2859 H 271.172 -4.01316 -3.74482 0
M  V30 2860 H 271.433 -2.27669 -3.78971 0
M  V30 2861 N 270.492 0.636531 -1.44174 0
M  V30 2862 C 271.455 1.73063 -1.50273 0
M  V30 2863 C 272.455 1.56113 -0.385397 0
M  V30 2864 O 273.645 1.61707 -0.64781 0
M  V30 2865 C 270.777 3.12096 -1.37145 0
M  V30 2866 H 271.97 1.69031 -2.47727 0
M  V30 2867 H 269.523 0.849706 -1.31186 0
M  V30 2868 H 270.258 3.21728 -0.407636 0
M  V30 2869 H 270.043 3.25805 -2.18159 0
M  V30 2870 H 271.533 3.91846 -1.44382 0
M  V30 2871 N 271.97 1.30982 0.876444 0
M  V30 2872 C 272.933 1.18054 1.96459 0
M  V30 2873 C 273.933 0.109399 1.60427 0
M  V30 2874 O 275.123 0.358173 1.70478 0
M  V30 2875 C 272.255 0.810616 3.31122 0
M  V30 2876 H 273.448 2.14735 2.09354 0
M  V30 2877 H 271.001 1.145 1.06392 0
M  V30 2878 H 271.736 -0.155322 3.23928 0
M  V30 2879 H 271.521 1.58481 3.58645 0
M  V30 2880 H 273.011 0.743876 4.10921 0
M  V30 2881 N 273.449 -1.08991 1.13837 0
M  V30 2882 C 274.695 -1.81526 0.90422 0
M  V30 2883 C 275.028 -1.85706 -0.568066 0
M  V30 2884 O 274.303 -1.32855 -1.42056 0
M  V30 2885 C 274.586 -3.27447 1.49835 0
M  V30 2886 C 274.439 -3.31512 3.04006 0
M  V30 2887 C 275.758 -4.24256 1.17025 0
M  V30 2888 H 272.877 -0.659029 0.329923 0
M  V30 2889 H 275.519 -1.27644 1.40737 0
M  V30 2890 H 273.669 -3.73462 1.07044 0
M  V30 2891 H 275.341 -2.93867 3.55584 0
M  V30 2892 H 273.584 -2.70963 3.38765 0
M  V30 2893 H 274.255 -4.34329 3.40679 0
M  V30 2894 H 276.731 -3.86549 1.54009 0
M  V30 2895 H 275.607 -5.24684 1.61237 0
M  V30 2896 H 275.868 -4.42019 0.0846274 0
M  V30 2897 N 274.927 -0.932562 -1.27047 0
M  V30 2898 C 275.89 -0.440064 -2.24936 0
M  V30 2899 C 276.89 0.444071 -1.54547 0
M  V30 2900 O 278.08 0.244465 -1.72476 0
M  V30 2901 C 275.212 0.36678 -3.38921 0
M  V30 2902 H 276.405 -1.305 -2.70018 0
M  V30 2903 H 273.958 -0.713707 -1.39054 0
M  V30 2904 H 274.693 1.25033 -2.99228 0
M  V30 2905 H 274.478 -0.267204 -3.91188 0
M  V30 2906 H 275.968 0.701567 -4.11665 0
M  V30 2907 N 276.405 1.4127 -0.698611 0
M  V30 2908 C 277.63 2.06024 -0.238512 0
M  V30 2909 C 278.055 1.5224 1.10475 0
M  V30 2910 O 277.413 0.650623 1.69223 0
M  V30 2911 C 277.461 3.59988 -0.209952 0
M  V30 2912 O 276.565 4.04282 0.814235 0
M  V30 2913 H 275.906 0.653829 -0.115775 0
M  V30 2914 H 278.436 1.8098 -0.954326 0
M  V30 2915 H 278.446 4.07979 -0.0418436 0
M  V30 2916 H 277.121 3.98503 -1.1903 0
M  V30 2917 H 275.698 3.6779 0.615234 0
M  V30 2918 N 277.883 0.443576 1.51229 0
M  V30 2919 C 278.813 -0.355142 2.30783 0
M  V30 2920 C 279.794 -1.0154 1.36468 0
M  V30 2921 O 280.979 -1.01785 1.65389 0
M  V30 2922 C 278.109 -1.45312 3.15439 0
M  V30 2923 C 277.063 -0.916002 4.18083 0
M  V30 2924 C 276.389 -2.1102 4.91299 0
M  V30 2925 C 277.689 0.0538602 5.22272 0
M  V30 2926 H 279.383 0.308767 2.97804 0
M  V30 2927 H 276.929 0.149937 1.43217 0
M  V30 2928 H 278.882 -2.01914 3.69876 0
M  V30 2929 H 277.606 -2.14541 2.46252 0
M  V30 2930 H 276.265 -0.372145 3.64706 0
M  V30 2931 H 275.913 -2.78882 4.18609 0
M  V30 2932 H 275.613 -1.75717 5.60712 0
M  V30 2933 H 277.137 -2.68164 5.48562 0
M  V30 2934 H 278.551 -0.422069 5.71744 0
M  V30 2935 H 276.948 0.319776 5.99247 0
M  V30 2936 H 278.018 0.98858 4.74716 0
M  V30 2937 N 279.361 -1.56624 0.175154 0
M  V30 2938 C 280.324 -2.16934 -0.739738 0
M  V30 2939 C 281.324 -1.11842 -1.15533 0
M  V30 2940 O 282.514 -1.37335 -1.07167 0
M  V30 2941 C 279.646 -2.75531 -2.00738 0
M  V30 2942 H 280.839 -2.99131 -0.214639 0
M  V30 2943 H 278.392 -1.56123 -0.0744197 0
M  V30 2944 H 279.127 -1.97078 -2.57548 0
M  V30 2945 H 278.912 -3.52444 -1.71831 0
M  V30 2946 H 280.402 -3.21904 -2.66021 0
M  V30 2947 N 280.839 0.0985539 -1.57292 0
M  V30 2948 C 281.769 1.12064 -2.04851 0
M  V30 2949 C 282.75 1.41981 -0.936767 0
M  V30 2950 O 283.935 1.52071 -1.20781 0
M  V30 2951 C 281.065 2.44144 -2.47004 0
M  V30 2952 C 280.019 2.28643 -3.6181 0
M  V30 2953 C 279.345 3.65869 -3.89929 0
M  V30 2954 C 280.645 1.72986 -4.92822 0
M  V30 2955 H 282.339 0.724979 -2.9049 0
M  V30 2956 H 279.885 0.34729 -1.39749 0
M  V30 2957 H 281.838 3.15914 -2.78884 0
M  V30 2958 H 280.562 2.85639 -1.5836 0
M  V30 2959 H 279.221 1.59318 -3.30172 0
M  V30 2960 H 278.869 4.04885 -2.98458 0
M  V30 2961 H 278.569 3.56344 -4.67218 0
M  V30 2962 H 280.093 4.39112 -4.2428 0
M  V30 2963 H 281.507 2.34593 -5.23105 0
M  V30 2964 H 279.904 1.74229 -5.74251 0
M  V30 2965 H 280.974 0.689007 -4.7998 0
M  V30 2966 N 282.317 1.53212 0.369288 0
M  V30 2967 C 283.265 1.80054 1.47253 0
M  V30 2968 C 284.259 0.669456 1.55611 0
M  V30 2969 O 285.465 0.852328 1.58541 0
M  V30 2970 H 281.84 0.570034 0.490475 0
M  V30 2971 H 283.811 2.72403 1.21817 0
M  V30 2972 C 282.56 2.00403 2.84137 0
M  V30 2973 H 281.883 2.86876 2.78464 0
M  V30 2974 H 283.323 2.23164 3.60519 0
M  V30 2975 C 281.782 0.782081 3.27697 0
M  V30 2976 O 282.312 -0.0310205 4.01688 0
M  V30 2977 N 280.518 0.606573 2.84199 0
M  V30 2978 H 280.065 1.26939 2.24152 0
M  V30 2979 H 280.023 -0.20962 3.137 0
M  V30 2980 N 283.795 -0.628877 1.44509 0
M  V30 2981 C 284.705 -1.7694 1.54044 0
M  V30 2982 C 285.721 -1.68705 0.425987 0
M  V30 2983 O 286.897 -1.89442 0.683656 0
M  V30 2984 C 283.962 -3.13332 1.48405 0
M  V30 2985 C 283.023 -3.33181 2.70719 0
M  V30 2986 C 282.256 -4.63067 2.6534 0
M  V30 2987 O 282.479 -5.44017 1.71469 0
M  V30 2988 O 281.413 -4.85167 3.56226 0
M  V30 2989 H 285.239 -1.71848 2.50403 0
M  V30 2990 H 282.824 -0.790378 1.26781 0
M  V30 2991 H 284.706 -3.94634 1.47791 0
M  V30 2992 H 283.381 -3.1896 0.551898 0
M  V30 2993 H 282.288 -2.51549 2.769 0
M  V30 2994 H 283.621 -3.32416 3.62988 0
M  V30 2995 N 285.273 -1.31445 -0.869486 0
M  V30 2996 C 286.519 -1.21337 -1.62496 0
M  V30 2997 C 286.852 0.227872 -1.92858 0
M  V30 2998 O 286.127 1.16094 -1.56053 0
M  V30 2999 C 286.41 -2.05814 -2.95487 0
M  V30 3000 C 286.263 -3.5824 -2.72 0
M  V30 3001 C 287.582 -1.9079 -3.96594 0
M  V30 3002 H 284.701 -0.442135 -0.589649 0
M  V30 3003 H 287.343 -1.6124 -1.00507 0
M  V30 3004 H 285.493 -1.71913 -3.48394 0
M  V30 3005 H 287.165 -4.0228 -2.25762 0
M  V30 3006 H 285.408 -3.81647 -2.06224 0
M  V30 3007 H 286.079 -4.12657 -3.66631 0
M  V30 3008 H 288.555 -2.20459 -3.52898 0
M  V30 3009 H 287.431 -2.52199 -4.87531 0
M  V30 3010 H 287.692 -0.871341 -4.33428 0
M  V30 3011 N 286.751 1.08385 -1.14413 0
M  V30 3012 C 287.997 1.81044 -0.913834 0
M  V30 3013 C 288.33 1.86004 0.558209 0
M  V30 3014 O 287.605 1.33606 1.4135 0
M  V30 3015 C 287.888 3.26648 -1.51569 0
M  V30 3016 C 287.741 3.29895 -3.0576 0
M  V30 3017 C 289.06 4.23629 -1.19273 0
M  V30 3018 H 286.179 0.65727 -0.333414 0
M  V30 3019 H 288.821 1.26896 -1.41412 0
M  V30 3020 H 286.971 3.72889 -1.09023 0
M  V30 3021 H 288.643 2.91977 -3.57137 0
M  V30 3022 H 286.886 2.69163 -3.40197 0
M  V30 3023 H 287.557 4.32516 -3.42977 0
M  V30 3024 H 290.033 3.85727 -1.56057 0
M  V30 3025 H 288.909 5.23822 -1.64017 0
M  V30 3026 H 289.17 4.41968 -0.108068 0
M  V30 3027 N 288.23 0.939286 1.26551 0
M  V30 3028 C 289.14 0.453432 2.30176 0
M  V30 3029 C 290.156 -0.471649 1.67486 0
M  V30 3030 O 291.332 -0.35164 1.98306 0
M  V30 3031 C 288.397 -0.275326 3.45605 0
M  V30 3032 C 287.458 0.686084 4.23782 0
M  V30 3033 C 286.691 -0.00798994 5.33699 0
M  V30 3034 O 286.914 -1.22528 5.57085 0
M  V30 3035 O 285.848 0.669746 5.98162 0
M  V30 3036 H 289.674 1.31416 2.73795 0
M  V30 3037 H 287.259 0.705095 1.31715 0
M  V30 3038 H 289.141 -0.685911 4.1578 0
M  V30 3039 H 287.816 -1.11147 3.0402 0
M  V30 3040 H 286.723 1.14658 3.56096 0
M  V30 3041 H 288.056 1.48979 4.69112 0
M  V30 3042 N 289.708 -1.40897 0.706093 0
M  V30 3043 C 290.956 -2.00657 0.241054 0
M  V30 3044 C 291.277 -1.56241 -1.16678 0
M  V30 3045 O 290.547 -0.79765 -1.78926 0
M  V30 3046 H 289.127 -0.742018 0.0861308 0
M  V30 3047 H 291.789 -1.72372 0.909604 0
M  V30 3048 H 290.885 -3.10958 0.266705 0
M  V30 3049 N 291.186 -0.45159 -1.50991 0
M  V30 3050 C 292.432 0.110237 -2.025 0
M  V30 3051 C 292.765 1.41109 -1.33424 0
M  V30 3052 O 292.04 1.89135 -0.453659 0
M  V30 3053 C 292.323 0.314271 -3.58726 0
M  V30 3054 C 292.176 -1.00623 -4.38401 0
M  V30 3055 C 293.495 1.07767 -4.26702 0
M  V30 3056 H 290.614 0.0385897 -0.735989 0
M  V30 3057 H 293.256 -0.593374 -1.80497 0
M  V30 3058 H 291.406 0.913601 -3.77605 0
M  V30 3059 H 293.078 -1.64064 -4.31139 0
M  V30 3060 H 291.321 -1.6075 -4.02917 0
M  V30 3061 H 291.992 -0.817341 -5.45915 0
M  V30 3062 H 294.468 0.56986 -4.12179 0
M  V30 3063 H 293.344 1.18921 -5.35863 0
M  V30 3064 H 293.605 2.10939 -3.88532 0
M  V30 3065 N 292.664 1.56529 -0.183458 0
M  V30 3066 C 293.627 2.17324 0.728223 0
M  V30 3067 C 294.627 1.12453 1.14939 0
M  V30 3068 O 295.817 1.37902 1.06437 0
M  V30 3069 C 292.949 2.76591 1.99274 0
M  V30 3070 H 294.142 2.99241 0.198772 0
M  V30 3071 H 291.695 1.5616 0.0661391 0
M  V30 3072 H 292.43 1.98441 2.56499 0
M  V30 3073 H 292.215 3.5335 1.69959 0
M  V30 3074 H 293.705 3.23311 2.6431 0
M  V30 3075 N 294.142 -0.090211 1.57342 0
M  V30 3076 C 295.391 -0.791531 1.8552 0
M  V30 3077 C 295.704 -1.79659 0.773441 0
M  V30 3078 O 296.91 -2.54616 0.942497 0
M  V30 3079 C 295.366 -1.45856 3.2902 0
M  V30 3080 C 294.974 -0.493017 4.45279 0
M  V30 3081 C 296.718 -2.14332 3.66418 0
M  V30 3082 C 294.625 -1.16491 5.79814 0
M  V30 3083 H 293.555 -0.299356 0.692027 0
M  V30 3084 H 296.206 -0.0445343 1.83446 0
M  V30 3085 H 294.588 -2.25318 3.2565 0
M  V30 3086 H 295.762 0.270464 4.60006 0
M  V30 3087 H 294.077 0.0863061 4.16311 0
M  V30 3088 H 296.674 -2.65344 4.64216 0
M  V30 3089 H 297.017 -2.93447 2.95287 0
M  V30 3090 H 297.55 -1.41724 3.71698 0
M  V30 3091 H 294.289 -0.41447 6.54188 0
M  V30 3092 H 293.809 -1.8997 5.68921 0
M  V30 3093 H 295.488 -1.69001 6.24538 0
M  V30 3094 N 295.62 -1.53406 -0.361157 0
M  V30 3095 C 296.869 -1.69022 -1.10066 0
M  V30 3096 C 297.182 -0.450838 -1.90333 0
M  V30 3097 O 298.388 -0.487617 -2.67085 0
M  V30 3098 C 296.844 -2.98812 -2.00598 0
M  V30 3099 C 296.452 -4.30027 -1.25621 0
M  V30 3100 C 298.196 -3.23795 -2.74513 0
M  V30 3101 C 296.103 -5.50903 -2.1508 0
M  V30 3102 H 295.033 -0.629776 -0.414606 0
M  V30 3103 H 297.684 -1.79907 -0.361348 0
M  V30 3104 H 296.066 -2.8174 -2.78278 0
M  V30 3105 H 297.24 -4.57745 -0.529739 0
M  V30 3106 H 295.555 -4.11522 -0.635496 0
M  V30 3107 H 298.152 -4.11289 -3.41681 0
M  V30 3108 H 298.495 -2.40045 -3.40123 0
M  V30 3109 H 299.028 -3.41561 -2.03914 0
M  V30 3110 H 295.767 -6.37143 -1.54041 0
M  V30 3111 H 295.287 -5.27459 -2.85565 0
M  V30 3112 H 296.966 -5.85865 -2.74538 0
M  V30 3113 N 297.098 0.621204 -1.44841 0
M  V30 3114 C 298.323 1.41244 -1.51871 0
M  V30 3115 C 298.748 1.87519 -0.147764 0
M  V30 3116 O 298.106 1.59334 0.865 0
M  V30 3117 C 298.154 2.60221 -2.49634 0
M  V30 3118 O 297.258 3.60395 -2.00473 0
M  V30 3119 H 296.599 0.42223 -0.512463 0
M  V30 3120 H 299.129 0.757305 -1.90069 0
M  V30 3121 H 299.139 3.0764 -2.67996 0
M  V30 3122 H 297.814 2.25887 -3.4921 0
M  V30 3123 H 296.391 3.19717 -1.91925 0
M  V30 3124 N 298.576 1.31904 0.862503 0
M  V30 3125 C 299.825 1.21373 1.61094 0
M  V30 3126 C 300.138 -0.22504 1.94301 0
M  V30 3127 O 301.344 -0.452121 2.67709 0
M  V30 3128 C 299.8 2.12525 2.9045 0
M  V30 3129 C 299.408 3.61441 2.64697 0
M  V30 3130 C 301.152 2.10813 3.68454 0
M  V30 3131 C 299.059 4.44578 3.90006 0
M  V30 3132 H 297.989 0.450705 0.604468 0
M  V30 3133 H 300.64 1.56811 0.953027 0
M  V30 3134 H 299.022 1.69994 3.57656 0
M  V30 3135 H 300.196 4.12264 2.05851 0
M  V30 3136 H 298.511 3.65205 2.00036 0
M  V30 3137 H 301.108 2.70167 4.61426 0
M  V30 3138 H 301.451 1.09713 4.01583 0
M  V30 3139 H 301.984 2.51583 3.08141 0
M  V30 3140 H 298.723 5.46461 3.62023 0
M  V30 3141 H 298.243 3.98508 4.48276 0
M  V30 3142 H 299.922 4.57176 4.5782 0
M  V30 3143 N 300.054 -1.07777 1.14986 0
M  V30 3144 C 301.3 -1.80557 0.923422 0
M  V30 3145 C 301.633 -1.86298 -0.548337 0
M  V30 3146 O 300.908 -1.34354 -1.40639 0
M  V30 3147 C 301.191 -3.25839 1.53299 0
M  V30 3148 C 301.044 -3.28269 3.07505 0
M  V30 3149 C 302.363 -4.22991 1.21518 0
M  V30 3150 H 299.482 -0.655493 0.336894 0
M  V30 3151 H 302.124 -1.26144 1.42083 0
M  V30 3152 H 300.274 -3.72306 1.10999 0
M  V30 3153 H 301.946 -2.90079 3.58681 0
M  V30 3154 H 300.189 -2.67355 3.4162 0
M  V30 3155 H 300.86 -4.30691 3.45266 0
M  V30 3156 H 303.336 -3.84894 1.581 0
M  V30 3157 H 302.212 -5.22945 1.66793 0
M  V30 3158 H 302.473 -4.41904 0.131505 0
M  V30 3159 N 301.532 -0.945985 -1.26051 0
M  V30 3160 C 302.76 -0.613025 -1.9761 0
M  V30 3161 C 303.175 0.813035 -1.70397 0
M  V30 3162 O 302.532 1.54274 -0.974979 0
M  V30 3163 C 302.583 -0.85159 -3.51326 0
M  V30 3164 O 302.304 -2.22157 -3.77595 0
M  V30 3165 C 303.805 -0.529831 -4.40122 0
M  V30 3166 H 301.025 -0.230593 -0.630133 0
M  V30 3167 H 303.569 -1.268 -1.60443 0
M  V30 3168 H 301.724 -0.243151 -3.86636 0
M  V30 3169 H 302.138 -2.2852 -4.721 0
M  V30 3170 H 303.612 -0.747348 -5.46917 0
M  V30 3171 H 304.089 0.535341 -4.35925 0
M  V30 3172 H 304.695 -1.11721 -4.10364 0
M  V30 3173 N 303.011 1.40521 -0.713556 0
M  V30 3174 C 303.941 2.33381 -0.0743864 0
M  V30 3175 C 304.922 1.52784 0.747735 0
M  V30 3176 O 306.107 1.81258 0.697071 0
M  V30 3177 C 303.237 3.36748 0.849598 0
M  V30 3178 C 302.191 4.27793 0.133247 0
M  V30 3179 C 301.517 5.21679 1.17281 0
M  V30 3180 C 302.817 5.12415 -1.01134 0
M  V30 3181 H 304.511 2.87081 -0.850007 0
M  V30 3182 H 302.057 1.38034 -0.410201 0
M  V30 3183 H 304.01 4.00648 1.30612 0
M  V30 3184 H 302.734 2.81439 1.65709 0
M  V30 3185 H 301.393 3.65342 -0.303426 0
M  V30 3186 H 301.041 4.62677 1.9733 0
M  V30 3187 H 300.741 5.83435 0.698397 0
M  V30 3188 H 302.265 5.88456 1.62947 0
M  V30 3189 H 303.679 5.69781 -0.634274 0
M  V30 3190 H 302.076 5.83203 -1.41399 0
M  V30 3191 H 303.146 4.48514 -1.84292 0
M  V30 3192 N 304.489 0.459591 1.5075 0
M  V30 3193 C 305.437 -0.354678 2.2988 0
M  V30 3194 C 306.431 -1.00086 1.36672 0
M  V30 3195 O 307.637 -0.933277 1.53915 0
M  V30 3196 H 304.012 -0.13321 0.740107 0
M  V30 3197 H 305.983 0.333269 2.96533 0
M  V30 3198 C 304.732 -1.43073 3.169 0
M  V30 3199 H 304.055 -0.942882 3.88523 0
M  V30 3200 H 305.495 -1.97328 3.75284 0
M  V30 3201 C 303.954 -2.42633 2.33732 0
M  V30 3202 O 304.484 -3.47658 2.01238 0
M  V30 3203 N 302.69 -2.14066 1.9653 0
M  V30 3204 H 302.237 -1.28685 2.23155 0
M  V30 3205 H 302.195 -2.80917 1.41185 0
M  V30 3206 N 305.967 -1.56429 0.191757 0
M  V30 3207 C 306.93 -2.17707 -0.716688 0
M  V30 3208 C 307.93 -1.13061 -1.14341 0
M  V30 3209 O 309.12 -1.38464 -1.05704 0
M  V30 3210 C 306.252 -2.77644 -1.97804 0
M  V30 3211 H 307.445 -2.99342 -0.1829 0
M  V30 3212 H 304.998 -1.56193 -0.0578566 0
M  V30 3213 H 305.733 -1.99799 -2.55443 0
M  V30 3214 H 305.518 -3.54246 -1.68083 0
M  V30 3215 H 307.008 -3.24708 -2.62592 0
M  V30 3216 N 307.445 0.0818655 -1.57387 0
M  V30 3217 C 308.685 0.788375 -1.88584 0
M  V30 3218 C 309.049 1.75248 -0.784351 0
M  V30 3219 O 310.25 2.50334 -0.979105 0
M  V30 3220 C 308.521 1.48654 -3.25018 0
M  V30 3221 S 310.08 2.22951 -3.7794 0
M  V30 3222 H 306.898 0.262383 -0.660815 0
M  V30 3223 H 309.5 0.0448995 -1.95448 0
M  V30 3224 H 308.204 0.770919 -4.03094 0
M  V30 3225 H 307.735 2.26965 -3.21326 0
M  V30 3226 H 309.75 3.49309 -3.52417 0
M  V30 3227 N 308.923 1.53595 0.353017 0
M  V30 3228 C 309.853 1.83902 1.43883 0
M  V30 3229 C 310.834 0.693421 1.55324 0
M  V30 3230 O 312.019 0.944452 1.69687 0
M  V30 3231 C 309.149 2.04016 2.8106 0
M  V30 3232 C 308.103 3.19814 2.84434 0
M  V30 3233 C 307.429 3.25244 4.24406 0
M  V30 3234 C 308.729 4.58133 2.50822 0
M  V30 3235 H 310.423 2.74835 1.1877 0
M  V30 3236 H 307.969 1.32242 0.569917 0
M  V30 3237 H 309.922 2.238 3.57059 0
M  V30 3238 H 308.646 1.09804 3.07588 0
M  V30 3239 H 307.305 2.9987 2.10887 0
M  V30 3240 H 306.953 2.28646 4.48029 0
M  V30 3241 H 306.653 4.03054 4.27576 0
M  V30 3242 H 308.177 3.47228 5.0226 0
M  V30 3243 H 309.591 4.77995 3.16534 0
M  V30 3244 H 307.988 5.38276 2.6529 0
M  V30 3245 H 309.058 4.62387 1.46034 0
M  V30 3246 N 310.401 -0.613514 1.45168 0
M  V30 3247 C 311.364 -1.7065 1.53007 0
M  V30 3248 C 312.364 -1.5548 0.410184 0
M  V30 3249 O 313.554 -1.60656 0.673455 0
M  V30 3250 C 310.686 -3.09875 1.42093 0
M  V30 3251 H 311.879 -1.65068 2.50385 0
M  V30 3252 H 309.432 -0.828728 1.32521 0
M  V30 3253 H 310.167 -3.21039 0.458769 0
M  V30 3254 H 309.952 -3.22293 2.23315 0
M  V30 3255 H 311.442 -3.895 1.50598 0
M  V30 3256 N 311.879 -1.3236 -0.855495 0
M  V30 3257 C 313.107 -1.2587 -1.64208 0
M  V30 3258 C 313.522 0.173457 -1.88002 0
M  V30 3259 O 312.879 1.11027 -1.44842 0
M  V30 3260 C 312.93 -2.01424 -3.00184 0
M  V30 3261 O 312.651 -3.39051 -2.77445 0
M  V30 3262 C 314.152 -2.01948 -3.94629 0
M  V30 3263 H 311.372 -0.434318 -0.511477 0
M  V30 3264 H 313.916 -1.74469 -1.0668 0
M  V30 3265 H 312.071 -1.56549 -3.5436 0
M  V30 3266 H 312.485 -3.77711 -3.63916 0
M  V30 3267 H 313.959 -2.59297 -4.87308 0
M  V30 3268 H 314.436 -1.00554 -4.27534 0
M  V30 3269 H 315.042 -2.46767 -3.4639 0
M  V30 3270 N 313.357 1.07166 -1.15556 0
M  V30 3271 C 314.587 1.83248 -0.954133 0
M  V30 3272 C 314.995 1.82449 0.500911 0
M  V30 3273 O 314.338 1.23575 1.35923 0
M  V30 3274 C 314.4 3.31393 -1.39351 0
M  V30 3275 C 314.064 3.5591 -2.86666 0
M  V30 3276 C 315.061 3.49695 -3.8472 0
M  V30 3277 C 312.746 3.83515 -3.24379 0
M  V30 3278 C 314.74 3.70737 -5.18491 0
M  V30 3279 C 312.427 4.04209 -4.58321 0
M  V30 3280 C 313.425 3.97815 -5.55186 0
M  V30 3281 O 313.113 4.17954 -6.86709 0
M  V30 3282 H 312.845 0.584941 -0.338851 0
M  V30 3283 H 315.399 1.36169 -1.53777 0
M  V30 3284 H 313.629 3.79292 -0.75329 0
M  V30 3285 H 315.318 3.88945 -1.16089 0
M  V30 3286 H 316.084 3.28368 -3.56931 0
M  V30 3287 H 311.963 3.87605 -2.49567 0
M  V30 3288 H 315.507 3.65663 -5.94085 0
M  V30 3289 H 311.404 4.25023 -4.85825 0
M  V30 3290 H 312.172 4.35291 -6.93155 0
M  V30 3291 N 314.835 0.952656 1.25548 0
M  V30 3292 C 315.768 0.415525 2.24385 0
M  V30 3293 C 316.746 -0.502046 1.54655 0
M  V30 3294 O 317.93 -0.436875 1.83368 0
M  V30 3295 C 315.057 -0.401734 3.36309 0
M  V30 3296 C 314.103 0.455949 4.24056 0
M  V30 3297 S 314.936 1.88698 5.01152 0
M  V30 3298 C 316.092 1.07809 6.16545 0
M  V30 3299 H 316.325 1.25315 2.69599 0
M  V30 3300 H 313.858 0.756587 1.34592 0
M  V30 3301 H 315.816 -0.867329 4.01233 0
M  V30 3302 H 314.477 -1.21416 2.89684 0
M  V30 3303 H 313.67 -0.170776 5.03711 0
M  V30 3304 H 313.272 0.856675 3.64056 0
M  V30 3305 H 315.564 0.325816 6.76716 0
M  V30 3306 H 316.507 1.84849 6.83547 0
M  V30 3307 H 316.915 0.60909 5.61204 0
M  V30 3308 N 316.313 -1.40141 0.720998 0
M  V30 3309 C 317.223 -2.34486 0.0731031 0
M  V30 3310 C 318.239 -1.57587 -0.737723 0
M  V30 3311 O 319.415 -1.89949 -0.669429 0
M  V30 3312 C 316.48 -3.36528 -0.833656 0
M  V30 3313 C 315.541 -4.29298 -0.0121673 0
M  V30 3314 C 314.774 -5.26466 -0.875742 0
M  V30 3315 O 314.997 -5.29745 -2.11485 0
M  V30 3316 O 313.931 -6.01092 -0.31185 0
M  V30 3317 H 317.757 -2.9152 0.851444 0
M  V30 3318 H 315.342 -1.41427 0.481527 0
M  V30 3319 H 317.224 -3.99093 -1.35289 0
M  V30 3320 H 315.899 -2.81899 -1.59105 0
M  V30 3321 H 314.806 -3.70001 0.552262 0
M  V30 3322 H 316.139 -4.87094 0.707129 0
M  V30 3323 N 317.792 -0.46758 -1.50504 0
M  V30 3324 C 318.739 0.328413 -2.28452 0
M  V30 3325 C 319.709 0.990313 -1.33349 0
M  V30 3326 O 320.894 1.00343 -1.62284 0
M  V30 3327 C 318.034 1.40648 -3.15138 0
M  V30 3328 C 317.147 0.759709 -4.25267 0
M  V30 3329 C 316.282 1.81537 -4.99217 0
M  V30 3330 C 315.321 1.14866 -6.01226 0
M  V30 3331 N 314.458 2.14702 -6.68467 0
M  V30 3332 H 319.298 -0.342603 -2.96024 0
M  V30 3333 H 316.835 -0.180801 -1.45985 0
M  V30 3334 H 318.793 2.04315 -3.63746 0
M  V30 3335 H 317.423 2.04671 -2.49619 0
M  V30 3336 H 316.475 0.0105671 -3.80399 0
M  V30 3337 H 317.787 0.233243 -4.98254 0
M  V30 3338 H 316.941 2.52793 -5.51526 0
M  V30 3339 H 315.68 2.37564 -4.25928 0
M  V30 3340 H 314.685 0.42171 -5.4818 0
M  V30 3341 H 315.91 0.595334 -6.76485 0
M  V30 3342 H 313.856 2.69752 -5.97972 0
M  V30 3343 H 313.773 1.6703 -7.37317 0
M  V30 3344 H 315.041 2.85348 -7.25394 0
M  V30 3345 N 319.27 1.56325 -0.20005 0
M  V30 3346 C 320.495 2.02548 0.44597 0
M  V30 3347 C 320.92 1.07922 1.5406 0
M  V30 3348 O 320.278 0.0635775 1.81188 0
M  V30 3349 C 320.326 3.47175 0.974761 0
M  V30 3350 O 319.43 3.55671 2.08739 0
M  V30 3351 H 318.771 0.655862 0.103638 0
M  V30 3352 H 321.301 2.02201 -0.312381 0
M  V30 3353 H 321.311 3.87067 1.2901 0
M  V30 3354 H 319.986 4.15538 0.17347 0
M  V30 3355 H 318.563 3.27657 1.78032 0
M  V30 3356 N 320.748 -0.0735177 1.57428 0
M  V30 3357 C 321.973 -0.789787 1.91774 0
M  V30 3358 C 322.398 -1.70413 0.796306 0
M  V30 3359 O 321.756 -1.79555 -0.250961 0
M  V30 3360 C 321.804 -1.5609 3.25067 0
M  V30 3361 O 320.908 -2.67144 3.14178 0
M  V30 3362 H 320.249 -0.215582 0.628029 0
M  V30 3363 H 322.779 -0.0422781 2.04556 0
M  V30 3364 H 322.789 -1.94052 3.58898 0
M  V30 3365 H 321.464 -0.890015 4.06265 0
M  V30 3366 H 320.041 -2.32052 2.91901 0
M  V30 3367 N 322.226 -1.5378 -0.344866 0
M  V30 3368 C 323.474 -1.70625 -1.08311 0
M  V30 3369 C 323.795 -0.471447 -1.89215 0
M  V30 3370 O 323.065 0.514616 -1.8902 0
M  V30 3371 H 321.645 -0.629058 -0.402859 0
M  V30 3372 H 324.307 -1.9103 -0.386459 0
M  V30 3373 H 323.403 -2.57656 -1.76124 0
M  V30 3374 N 323.704 0.605807 -1.45491 0
M  V30 3375 C 324.981 1.36522 -1.40075 0
M  V30 3376 C 325.361 2.10976 -0.0722744 0
M  V30 3377 O 324.709 2.08007 0.945808 0
M  V30 3378 C 324.919 2.31056 -2.61561 0
M  V30 3379 C 326.267 2.93608 -3.06724 0
M  V30 3380 O 327.291 2.41376 -2.61946 0
M  V30 3381 O 326.15 3.88421 -3.84437 0
M  V30 3382 H 323.244 0.612248 -0.555951 0
M  V30 3383 H 325.79 0.628747 -1.57623 0
M  V30 3384 H 324.562 1.75311 -3.49831 0
M  V30 3385 H 324.185 3.12081 -2.46356 0
M  V30 3386 N 325.182 1.32811 0.848464 0
M  V30 3387 C 326.145 1.22194 1.9391 0
M  V30 3388 C 327.145 0.143404 1.60159 0
M  V30 3389 O 328.335 0.394253 1.6968 0
M  V30 3390 C 325.467 0.88067 3.29328 0
M  V30 3391 H 326.66 2.19127 2.04752 0
M  V30 3392 H 324.213 1.16731 1.0394 0
M  V30 3393 H 324.948 -0.0865776 3.24184 0
M  V30 3394 H 324.733 1.66052 3.55203 0
M  V30 3395 H 326.223 0.830871 4.09251 0
M  V30 3396 N 326.66 -1.06551 1.16123 0
M  V30 3397 C 327.909 -1.78687 0.935622 0
M  V30 3398 C 328.222 -1.88056 -0.538001 0
M  V30 3399 O 329.428 -2.56794 -0.88143 0
M  V30 3400 C 327.884 -3.21143 1.62466 0
M  V30 3401 C 327.492 -3.19949 3.13587 0
M  V30 3402 C 329.236 -3.9783 1.48092 0
M  V30 3403 C 327.143 -4.57108 3.75241 0
M  V30 3404 H 326.073 -0.669712 0.346412 0
M  V30 3405 H 328.724 -1.19534 1.39226 0
M  V30 3406 H 327.106 -3.80539 1.09572 0
M  V30 3407 H 328.28 -2.70151 3.73303 0
M  V30 3408 H 326.595 -2.5676 3.27816 0
M  V30 3409 H 329.192 -4.99217 1.91538 0
M  V30 3410 H 329.535 -4.14078 0.429507 0
M  V30 3411 H 330.068 -3.4495 1.98127 0
M  V30 3412 H 326.807 -4.46065 4.80319 0
M  V30 3413 H 326.327 -5.07111 3.20309 0
M  V30 3414 H 328.006 -5.26069 3.76644 0
M  V30 3415 N 328.138 -0.959301 -1.25041 0
M  V30 3416 C 329.386 -0.615393 -1.92503 0
M  V30 3417 C 329.707 0.850969 -1.75452 0
M  V30 3418 O 328.977 1.60658 -1.12098 0
M  V30 3419 H 327.557 -0.224613 -0.712431 0
M  V30 3420 H 330.219 -1.21855 -1.5211 0
M  V30 3421 H 329.315 -0.848738 -3.00338 0
M  V30 3422 N 329.616 1.39756 -0.72842 0
M  V30 3423 C 330.563 2.30647 -0.0841519 0
M  V30 3424 C 331.533 1.48869 0.7367 0
M  V30 3425 O 332.718 1.77574 0.698015 0
M  V30 3426 C 329.858 3.35165 0.822091 0
M  V30 3427 C 328.971 4.31999 -0.0106663 0
M  V30 3428 C 328.106 5.23585 0.896241 0
M  V30 3429 C 327.145 6.12072 0.0583381 0
M  V30 3430 N 326.282 6.96035 0.920818 0
M  V30 3431 H 331.122 2.85173 -0.864891 0
M  V30 3432 H 328.659 1.40422 -0.438179 0
M  V30 3433 H 330.617 3.94345 1.36189 0
M  V30 3434 H 329.247 2.8211 1.56888 0
M  V30 3435 H 328.299 3.74492 -0.66781 0
M  V30 3436 H 329.611 4.9443 -0.658825 0
M  V30 3437 H 328.765 5.87759 1.50412 0
M  V30 3438 H 327.504 4.61459 1.57819 0
M  V30 3439 H 326.509 5.46916 -0.562389 0
M  V30 3440 H 327.734 6.76261 -0.6203 0
M  V30 3441 H 325.68 6.36485 1.58818 0
M  V30 3442 H 325.597 7.55284 0.32899 0
M  V30 3443 H 326.865 7.64646 1.51447 0
M  V30 3444 N 331.094 0.475555 1.50254 0
M  V30 3445 C 332.024 -0.30611 2.31485 0
M  V30 3446 C 333.005 -0.986228 1.38591 0
M  V30 3447 O 334.19 -0.982541 1.67511 0
M  V30 3448 C 331.32 -1.38588 3.1845 0
M  V30 3449 C 330.274 -0.827115 4.19932 0
M  V30 3450 C 329.6 -2.00551 4.95665 0
M  V30 3451 C 330.9 0.16463 5.2204 0
M  V30 3452 H 332.594 0.371866 2.97082 0
M  V30 3453 H 330.14 0.180282 1.42867 0
M  V30 3454 H 332.093 -1.94023 3.74076 0
M  V30 3455 H 330.817 -2.09269 2.50747 0
M  V30 3456 H 329.476 -0.294702 3.65414 0
M  V30 3457 H 329.124 -2.6994 4.2443 0
M  V30 3458 H 328.824 -1.63784 5.64313 0
M  V30 3459 H 330.348 -2.56468 5.54127 0
M  V30 3460 H 331.762 -0.300699 5.72511 0
M  V30 3461 H 330.159 0.446813 5.98434 0
M  V30 3462 H 331.229 1.08905 4.72512 0
M  V30 3463 N 332.573 -1.56217 0.208337 0
M  V30 3464 C 333.536 -2.18455 -0.693557 0
M  V30 3465 C 334.536 -1.14268 -1.13135 0
M  V30 3466 O 335.726 -1.39577 -1.0423 0
M  V30 3467 C 332.858 -2.79727 -1.94848 0
M  V30 3468 H 334.051 -2.99519 -0.15114 0
M  V30 3469 H 331.604 -1.56245 -0.041287 0
M  V30 3470 H 332.339 -2.02497 -2.53309 0
M  V30 3471 H 332.124 -3.56009 -1.64316 0
M  V30 3472 H 333.614 -3.27475 -2.59133 0
M  V30 3473 N 334.051 0.0651679 -1.57465 0
M  V30 3474 C 334.961 1.09448 -2.07505 0
M  V30 3475 C 335.977 1.41974 -1.00595 0
M  V30 3476 O 337.153 1.52018 -1.32107 0
M  V30 3477 C 334.218 2.38689 -2.51453 0
M  V30 3478 C 333.279 2.13073 -3.72691 0
M  V30 3479 C 332.512 3.36152 -4.14533 0
M  V30 3480 O 332.735 4.45517 -3.56189 0
M  V30 3481 O 331.669 3.23974 -5.07272 0
M  V30 3482 H 335.495 0.69935 -2.95538 0
M  V30 3483 H 333.08 0.279752 -1.46757 0
M  V30 3484 H 334.962 3.14736 -2.80212 0
M  V30 3485 H 333.637 2.77568 -1.66546 0
M  V30 3486 H 332.544 1.34709 -3.49005 0
M  V30 3487 H 333.877 1.79071 -4.5847 0
M  V30 3488 N 335.529 1.53961 0.336706 0
M  V30 3489 C 336.462 1.77255 1.43722 0
M  V30 3490 C 337.44 0.62193 1.50236 0
M  V30 3491 O 338.624 0.857874 1.67847 0
M  V30 3492 C 335.751 1.87733 2.81912 0
M  V30 3493 C 334.797 3.09933 2.92991 0
M  V30 3494 S 335.63 4.68836 2.58753 0
M  V30 3495 C 336.786 4.82202 3.99039 0
M  V30 3496 H 337.019 2.70322 1.23748 0
M  V30 3497 H 334.552 1.44917 0.532777 0
M  V30 3498 H 336.51 1.94455 3.61521 0
M  V30 3499 H 335.171 0.956666 2.99177 0
M  V30 3500 H 334.364 3.1396 3.94265 0
M  V30 3501 H 333.966 3.01472 2.21338 0
M  V30 3502 H 336.258 4.64032 4.9364 0
M  V30 3503 H 337.201 5.84298 4.00002 0
M  V30 3504 H 337.609 4.10604 3.87382 0
M  V30 3505 N 337.007 -0.598083 1.45811 0
M  V30 3506 C 337.97 -1.69018 1.54808 0
M  V30 3507 C 338.97 -1.55037 0.426652 0
M  V30 3508 O 340.16 -1.59932 0.690456 0
M  V30 3509 C 337.292 -3.0835 1.45371 0
M  V30 3510 H 338.485 -1.62403 2.52121 0
M  V30 3511 H 336.038 -0.814626 1.33392 0
M  V30 3512 H 336.773 -3.20534 0.492793 0
M  V30 3513 H 336.558 -3.19907 2.26721 0
M  V30 3514 H 338.048 -3.8788 1.54721 0
M  V30 3515 N 338.485 -1.33259 -0.841409 0
M  V30 3516 C 339.71 -1.2775 -1.63385 0
M  V30 3517 C 340.135 0.149188 -1.87507 0
M  V30 3518 O 339.493 1.10498 -1.43736 0
M  V30 3519 C 339.541 -2.05571 -2.96265 0
M  V30 3520 O 338.645 -1.41257 -3.87453 0
M  V30 3521 H 337.986 -0.439627 -0.497618 0
M  V30 3522 H 340.516 -1.75782 -1.04699 0
M  V30 3523 H 340.526 -2.16241 -3.45982 0
M  V30 3524 H 339.201 -3.09309 -2.7803 0
M  V30 3525 H 337.778 -1.39217 -3.45938 0
M  V30 3526 N 339.963 1.05934 -1.16686 0
M  V30 3527 C 341.374 1.60263 -0.957745 0
M  V30 3528 C 341.725 1.89789 0.49745 0
M  V30 3529 O 340.85 1.67401 1.37135 0
M  V30 3530 C 341.445 2.91172 -1.73218 0
M  V30 3531 C 340.004 3.42188 -1.56794 0
M  V30 3532 C 339.151 2.16028 -1.73859 0
M  V30 3533 H 342.102 0.888392 -1.31504 0
M  V30 3534 H 342.123 3.60744 -1.21014 0
M  V30 3535 H 341.635 2.6965 -2.79124 0
M  V30 3536 H 339.736 3.68762 -0.533437 0
M  V30 3537 H 339.849 4.17273 -2.35414 0
M  V30 3538 H 338.213 2.26426 -1.16633 0
M  V30 3539 H 338.996 1.96985 -2.81161 0
M  V30 3540 N 341.441 0.965919 1.2453 0
M  V30 3541 C 342.373 0.452465 2.2469 0
M  V30 3542 C 343.386 -0.437821 1.56802 0
M  V30 3543 O 344.575 -0.244283 1.76821 0
M  V30 3544 C 341.675 -0.366258 3.36915 0
M  V30 3545 C 340.848 0.513701 4.34373 0
M  V30 3546 C 339.907 -0.248716 5.25612 0
M  V30 3547 O 338.933 0.356745 5.68081 0
M  V30 3548 N 340.135 -1.53877 5.59734 0
M  V30 3549 H 342.9 1.31361 2.69378 0
M  V30 3550 H 340.461 0.837541 1.38553 0
M  V30 3551 H 342.453 -0.884297 3.94921 0
M  V30 3552 H 341.023 -1.12832 2.91526 0
M  V30 3553 H 340.243 1.21273 3.75082 0
M  V30 3554 H 341.531 1.11391 4.96457 0
M  V30 3555 H 340.929 -2.05243 5.27154 0
M  V30 3556 H 339.486 -2.00254 6.20275 0
M  V30 3557 N 342.919 -1.39368 0.735821 0
M  V30 3558 C 344.159 -2.02349 0.288813 0
M  V30 3559 C 344.523 -1.57127 -1.10341 0
M  V30 3560 O 345.724 -2.12312 -1.64854 0
M  V30 3561 C 343.995 -3.55288 0.387986 0
M  V30 3562 S 345.554 -4.38795 0.0209408 0
M  V30 3563 H 342.372 -0.701944 0.113115 0
M  V30 3564 H 344.974 -1.70164 0.962518 0
M  V30 3565 H 343.678 -3.85691 1.40252 0
M  V30 3566 H 343.209 -3.92227 -0.303512 0
M  V30 3567 H 345.224 -4.81595 -1.19503 0
M  V30 3568 N 344.397 -0.483516 -1.5 0
M  V30 3569 C 345.625 0.0644831 -2.06799 0
M  V30 3570 C 346.04 1.32399 -1.34596 0
M  V30 3571 O 345.397 1.77626 -0.418946 0
M  V30 3572 C 345.448 0.339927 -3.59898 0
M  V30 3573 O 345.169 -0.869635 -4.29382 0
M  V30 3574 C 346.67 0.933515 -4.33359 0
M  V30 3575 H 343.89 -0.0126333 -0.670881 0
M  V30 3576 H 346.434 -0.675864 -1.93009 0
M  V30 3577 H 344.589 1.03022 -3.7345 0
M  V30 3578 H 345.003 -0.62179 -5.20801 0
M  V30 3579 H 346.477 1.07593 -5.41413 0
M  V30 3580 H 346.954 1.92685 -3.94676 0
M  V30 3581 H 347.56 0.281221 -4.24369 0
M  V30 3582 N 345.875 1.56104 -0.216619 0
M  V30 3583 C 347.121 1.98466 0.417033 0
M  V30 3584 C 347.454 1.10403 1.59765 0
M  V30 3585 O 346.729 0.160632 1.93836 0
M  V30 3586 C 347.012 3.49769 0.85637 0
M  V30 3587 C 346.865 4.48606 -0.327546 0
M  V30 3588 C 348.184 4.05339 1.7143 0
M  V30 3589 H 345.303 0.721551 0.150112 0
M  V30 3590 H 347.945 1.87423 -0.311864 0
M  V30 3591 H 346.095 3.5931 1.47745 0
M  V30 3592 H 347.767 4.5108 -0.965618 0
M  V30 3593 H 346.01 4.22682 -0.975805 0
M  V30 3594 H 346.681 5.51995 0.0227149 0
M  V30 3595 H 349.157 3.98712 1.19031 0
M  V30 3596 H 348.033 5.11533 1.99061 0
M  V30 3597 H 348.294 3.51918 2.67593 0
M  V30 3598 N 347.353 -0.0568162 1.57498 0
M  V30 3599 C 348.283 -1.06593 2.0775 0
M  V30 3600 C 349.264 -1.39448 0.974082 0
M  V30 3601 O 350.449 -1.48815 1.24771 0
M  V30 3602 C 347.579 -2.37509 2.5339 0
M  V30 3603 C 346.533 -2.1897 3.67745 0
M  V30 3604 C 345.859 -3.55402 3.99492 0
M  V30 3605 C 347.159 -1.59859 4.97235 0
M  V30 3606 H 348.853 -0.647706 2.9231 0
M  V30 3607 H 346.399 -0.310116 1.40621 0
M  V30 3608 H 348.352 -3.08409 2.87162 0
M  V30 3609 H 347.076 -2.8134 1.65878 0
M  V30 3610 H 345.735 -1.50508 3.3428 0
M  V30 3611 H 345.383 -3.9683 3.09088 0
M  V30 3612 H 345.083 -3.43831 4.76502 0
M  V30 3613 H 346.607 -4.27708 4.35773 0
M  V30 3614 H 348.021 -2.20642 5.29141 0
M  V30 3615 H 346.418 -1.58942 5.78669 0
M  V30 3616 H 347.488 -0.561506 4.81638 0
M  V30 3617 N 348.832 -1.54138 -0.328536 0
M  V30 3618 C 350.248 -1.44736 -0.672574 0
M  V30 3619 C 350.448 -0.616217 -1.91846 0
M  V30 3620 O 349.504 -0.113067 -2.52247 0
M  V30 3621 C 350.817 -2.884 -0.851217 0
M  V30 3622 C 352.365 -2.98271 -0.948877 0
M  V30 3623 C 352.84 -4.43074 -1.15973 0
M  V30 3624 N 354.331 -4.46665 -1.22658 0
M  V30 3625 C 355.066 -5.55857 -1.40751 0
M  V30 3626 N 354.562 -6.75026 -1.5592 0
M  V30 3627 N 356.355 -5.43495 -1.4342 0
M  V30 3628 H 348.506 -2.06661 0.490421 0
M  V30 3629 H 350.769 -0.934812 0.157579 0
M  V30 3630 H 350.475 -3.51699 -0.00704236 0
M  V30 3631 H 350.349 -3.34225 -1.74853 0
M  V30 3632 H 352.736 -2.35102 -1.78356 0
M  V30 3633 H 352.817 -2.55785 -0.0281435 0
M  V30 3634 H 352.461 -5.06827 -0.329915 0
M  V30 3635 H 352.391 -4.83165 -2.09426 0
M  V30 3636 H 354.882 -3.60797 -1.124 0
M  V30 3637 H 355.195 -7.54004 -1.69404 0
M  V30 3638 H 353.54 -6.77944 -1.53027 0
M  V30 3639 H 356.731 -4.49349 -1.31162 0
M  V30 3640 H 356.904 -6.28649 -1.57178 0
M  V30 3641 N 350.31 0.590341 -1.46126 0
M  V30 3642 C 351.258 1.72105 -1.5647 0
M  V30 3643 C 352.252 1.63756 -0.433612 0
M  V30 3644 O 353.458 1.69342 -0.610194 0
M  V30 3645 H 349.833 0.568889 -0.491802 0
M  V30 3646 H 351.804 1.6051 -2.51553 0
M  V30 3647 C 350.553 3.10493 -1.56491 0
M  V30 3648 H 349.876 3.17583 -2.4286 0
M  V30 3649 H 351.316 3.8939 -1.67785 0
M  V30 3650 C 349.775 3.3563 -0.292231 0
M  V30 3651 O 350.305 3.96875 0.620739 0
M  V30 3652 N 348.511 2.90026 -0.182523 0
M  V30 3653 H 348.058 2.40367 -0.926356 0
M  V30 3654 H 348.016 3.07218 0.668152 0
M  V30 3655 N 351.788 1.33704 0.83433 0
M  V30 3656 C 353.036 1.25169 1.58673 0
M  V30 3657 C 353.357 -0.18127 1.94156 0
M  V30 3658 O 352.627 -1.11113 1.6134 0
M  V30 3659 H 351.207 0.4603 0.58833 0
M  V30 3660 H 353.869 1.67478 0.996847 0
M  V30 3661 H 352.965 1.84856 2.51465 0
M  V30 3662 N 353.266 -1.05314 1.17247 0
M  V30 3663 C 354.198 -2.13023 0.845812 0
M  V30 3664 C 355.211 -1.62096 -0.151246 0
M  V30 3665 O 356.4 -1.78343 0.0748818 0
M  V30 3666 C 353.5 -3.38047 0.240292 0
M  V30 3667 C 352.673 -4.18255 1.27991 0
M  V30 3668 C 351.732 -5.21625 0.692375 0
M  V30 3669 O 350.758 -5.52619 1.36385 0
M  V30 3670 N 351.96 -5.78201 -0.516178 0
M  V30 3671 H 354.725 -2.41642 1.77283 0
M  V30 3672 H 352.286 -1.21401 1.07115 0
M  V30 3673 H 354.278 -4.04359 -0.16603 0
M  V30 3674 H 352.848 -3.06972 -0.590487 0
M  V30 3675 H 352.068 -3.47451 1.86203 0
M  V30 3676 H 353.356 -4.68643 1.98119 0
M  V30 3677 H 352.754 -5.55301 -1.07969 0
M  V30 3678 H 351.311 -6.4604 -0.86458 0
M  V30 3679 N 354.744 -0.972509 -1.24016 0
M  V30 3680 C 355.691 -0.505969 -2.25186 0
M  V30 3681 C 356.661 0.451009 -1.5986 0
M  V30 3682 O 357.846 0.360307 -1.87367 0
M  V30 3683 C 354.986 0.193089 -3.44559 0
M  V30 3684 C 354.099 -0.803222 -4.24467 0
M  V30 3685 C 353.234 -0.0797793 -5.3114 0
M  V30 3686 C 352.273 -1.06583 -6.02749 0
M  V30 3687 N 351.41 -0.372074 -7.01113 0
M  V30 3688 H 356.25 -1.37351 -2.64459 0
M  V30 3689 H 353.787 -0.688419 -1.29997 0
M  V30 3690 H 355.745 0.615125 -4.1264 0
M  V30 3691 H 354.375 1.02455 -3.06109 0
M  V30 3692 H 353.427 -1.34368 -3.55878 0
M  V30 3693 H 354.739 -1.55494 -4.73944 0
M  V30 3694 H 353.893 0.400015 -6.0538 0
M  V30 3695 H 352.632 0.704597 -4.82583 0
M  V30 3696 H 351.637 -1.55645 -5.27309 0
M  V30 3697 H 352.862 -1.85074 -6.53395 0
M  V30 3698 H 350.808 0.393238 -6.5482 0
M  V30 3699 H 350.725 -1.06258 -7.48495 0
M  V30 3700 H 351.993 0.0855932 -7.79453 0
M  V30 3701 N 356.222 1.38976 -0.743202 0
M  V30 3702 C 357.468 2.0064 -0.295189 0
M  V30 3703 C 357.801 1.5885 1.11716 0
M  V30 3704 O 357.076 0.821181 1.76315 0
M  V30 3705 C 357.359 3.578 -0.406318 0
M  V30 3706 C 357.212 4.09586 -1.85903 0
M  V30 3707 C 358.531 4.39616 0.206439 0
M  V30 3708 H 355.65 0.728935 -0.108733 0
M  V30 3709 H 358.292 1.65067 -0.940897 0
M  V30 3710 H 356.442 3.88235 0.143419 0
M  V30 3711 H 358.114 3.89837 -2.46627 0
M  V30 3712 H 356.357 3.6284 -2.3776 0
M  V30 3713 H 357.028 5.18708 -1.888 0
M  V30 3714 H 359.504 4.15273 -0.262283 0
M  V30 3715 H 358.38 5.48812 0.0983819 0
M  V30 3716 H 358.641 4.22754 1.2935 0
M  V30 3717 N 357.7 0.491464 1.49741 0
M  V30 3718 C 358.946 -0.0565092 2.02721 0
M  V30 3719 C 359.279 -1.37522 1.37118 0
M  V30 3720 O 358.554 -1.87866 0.503645 0
M  V30 3721 C 358.837 -0.219051 3.59433 0
M  V30 3722 C 358.69 1.12211 4.35579 0
M  V30 3723 C 360.009 -0.964157 4.29409 0
M  V30 3724 H 357.128 -0.0190627 0.736753 0
M  V30 3725 H 359.77 0.641021 1.7886 0
M  V30 3726 H 357.92 -0.813165 3.79895 0
M  V30 3727 H 359.592 1.75437 4.26637 0
M  V30 3728 H 357.835 1.71377 3.98513 0
M  V30 3729 H 358.506 0.961794 5.43556 0
M  V30 3730 H 360.982 -0.460378 4.13545 0
M  V30 3731 H 359.858 -1.04671 5.38828 0
M  V30 3732 H 360.119 -2.00563 3.93988 0
M  V30 3733 N 359.178 -1.55987 0.224894 0
M  V30 3734 C 360.427 -1.97566 -0.406273 0
M  V30 3735 C 360.74 -1.11569 -1.6066 0
M  V30 3736 O 361.946 -1.43062 -2.3075 0
M  V30 3737 C 360.402 -3.51474 -0.774207 0
M  V30 3738 C 360.01 -4.46179 0.403496 0
M  V30 3739 C 361.754 -4.01758 -1.37079 0
M  V30 3740 C 359.661 -5.91399 0.0129412 0
M  V30 3741 H 358.591 -0.737777 -0.155565 0
M  V30 3742 H 361.242 -1.80659 0.321635 0
M  V30 3743 H 359.624 -3.63994 -1.55963 0
M  V30 3744 H 360.798 -4.45409 1.18101 0
M  V30 3745 H 359.113 -4.06255 0.913536 0
M  V30 3746 H 361.71 -5.07756 -1.67596 0
M  V30 3747 H 362.053 -3.47805 -2.28773 0
M  V30 3748 H 362.586 -3.92475 -0.648733 0
M  V30 3749 H 359.325 -6.49341 0.896451 0
M  V30 3750 H 358.845 -5.95356 -0.728821 0
M  V30 3751 H 360.524 -6.45683 -0.412582 0
M  V30 3752 N 360.656 0.0484629 -1.57525 0
M  V30 3753 C 362.067 0.597486 -1.76881 0
M  V30 3754 C 362.418 1.76664 -0.853475 0
M  V30 3755 O 361.543 2.16357 -0.0433656 0
M  V30 3756 C 362.138 1.09066 -3.20765 0
M  V30 3757 C 360.697 1.58535 -3.41385 0
M  V30 3758 C 359.844 0.514868 -2.72478 0
M  V30 3759 H 362.795 -0.177758 -1.57701 0
M  V30 3760 H 362.816 1.95875 -3.2621 0
M  V30 3761 H 362.328 0.239521 -3.8736 0
M  V30 3762 H 360.429 2.45898 -2.79937 0
M  V30 3763 H 360.542 1.64622 -4.49929 0
M  V30 3764 H 358.906 0.965407 -2.35695 0
M  V30 3765 H 359.689 -0.32648 -3.41744 0
M  V30 3766 N 362.134 1.5431 0.320358 0
M  V30 3767 C 363.359 1.76954 1.08175 0
M  V30 3768 C 363.784 0.518193 1.80821 0
M  V30 3769 O 363.142 -0.530411 1.73368 0
M  V30 3770 C 363.19 2.96451 2.05303 0
M  V30 3771 O 362.294 2.68221 3.13259 0
M  V30 3772 H 361.635 0.586275 0.311733 0
M  V30 3773 H 364.165 2.01342 0.363676 0
M  V30 3774 H 364.175 3.23887 2.48116 0
M  V30 3775 H 362.85 3.87196 1.51829 0
M  V30 3776 H 361.427 2.51744 2.75099 0
M  V30 3777 N 363.613 -0.582584 1.46437 0
M  V30 3778 C 365.029 -0.905962 1.31394 0
M  V30 3779 C 365.229 -1.99468 0.285476 0
M  V30 3780 O 364.285 -2.50566 -0.311914 0
M  V30 3781 C 365.598 -1.3232 2.70022 0
M  V30 3782 C 367.146 -1.43604 2.78113 0
M  V30 3783 C 367.621 -1.88694 4.17323 0
M  V30 3784 N 369.112 -1.95887 4.19741 0
M  V30 3785 C 369.847 -2.32051 5.24347 0
M  V30 3786 N 369.343 -2.67006 6.39281 0
M  V30 3787 N 371.136 -2.32606 5.11713 0
M  V30 3788 H 363.287 0.1366 2.1196 0
M  V30 3789 H 365.55 -0.00155736 0.947999 0
M  V30 3790 H 365.256 -0.597242 3.46592 0
M  V30 3791 H 365.13 -2.28469 3.00136 0
M  V30 3792 H 367.517 -2.15286 2.01832 0
M  V30 3793 H 367.598 -0.457059 2.51684 0
M  V30 3794 H 367.242 -1.1759 4.941 0
M  V30 3795 H 367.172 -2.8755 4.4116 0
M  V30 3796 H 369.663 -1.71362 3.36814 0
M  V30 3797 H 369.976 -2.93554 7.14875 0
M  V30 3798 H 368.321 -2.64644 6.42642 0
M  V30 3799 H 371.512 -2.04721 4.2096 0
M  V30 3800 H 371.685 -2.60462 5.93349 0
M  V30 3801 N 365.091 -1.34144 -0.827227 0
M  V30 3802 C 366.001 -1.27428 -1.96975 0
M  V30 3803 C 367.017 -0.182728 -1.73038 0
M  V30 3804 O 368.193 -0.408426 -1.97215 0
M  V30 3805 C 365.258 -1.02526 -3.31194 0
M  V30 3806 C 364.319 -2.20796 -3.68168 0
M  V30 3807 C 363.552 -1.97073 -4.95982 0
M  V30 3808 O 363.775 -0.926822 -5.6282 0
M  V30 3809 O 362.709 -2.83912 -5.30733 0
M  V30 3810 H 366.535 -2.23537 -2.05584 0
M  V30 3811 H 364.12 -1.14307 -0.961989 0
M  V30 3812 H 366.002 -0.904026 -4.11589 0
M  V30 3813 H 364.677 -0.0945389 -3.23562 0
M  V30 3814 H 363.584 -2.38477 -2.88235 0
M  V30 3815 H 364.917 -3.12243 -3.8048 0
M  V30 3816 N 366.569 1.04691 -1.17803 0
M  V30 3817 C 367.815 1.78045 -0.970969 0
M  V30 3818 C 368.148 1.87686 0.498751 0
M  V30 3819 O 367.423 1.38035 1.37027 0
M  V30 3820 C 367.706 3.2166 -1.61884 0
M  V30 3821 C 367.559 3.20001 -3.161 0
M  V30 3822 C 368.878 4.1962 -1.3269 0
M  V30 3823 H 365.997 0.64633 -0.354155 0
M  V30 3824 H 368.639 1.22333 -1.45378 0
M  V30 3825 H 366.789 3.69232 -1.20831 0
M  V30 3826 H 368.461 2.80467 -3.66246 0
M  V30 3827 H 366.704 2.58203 -3.48588 0
M  V30 3828 H 367.375 4.21386 -3.56564 0
M  V30 3829 H 369.851 3.80567 -1.68249 0
M  V30 3830 H 368.727 5.18339 -1.80599 0
M  V30 3831 H 368.988 4.414 -0.248622 0
M  V30 3832 N 368.047 0.979072 1.23499 0
M  V30 3833 C 369.293 0.648178 1.92163 0
M  V30 3834 C 369.626 -0.816049 1.76222 0
M  V30 3835 O 368.901 -1.58849 1.12237 0
M  V30 3836 C 369.184 1.03773 3.44824 0
M  V30 3837 C 369.037 2.55948 3.69879 0
M  V30 3838 C 370.356 0.580653 4.36253 0
M  V30 3839 H 367.475 0.236952 0.69787 0
M  V30 3840 H 370.117 1.22012 1.45647 0
M  V30 3841 H 368.267 0.551058 3.84572 0
M  V30 3842 H 369.939 3.12179 3.3962 0
M  V30 3843 H 368.182 2.98641 3.14636 0
M  V30 3844 H 368.853 2.78255 4.76737 0
M  V30 3845 H 371.329 0.998465 4.03943 0
M  V30 3846 H 370.205 0.881663 5.41773 0
M  V30 3847 H 370.466 -0.519052 4.39042 0
M  V30 3848 N 369.525 -1.3858 0.750561 0
M  V30 3849 C 370.771 -2.00481 0.305825 0
M  V30 3850 C 371.104 -1.5944 -1.10872 0
M  V30 3851 O 370.379 -0.83052 -1.75877 0
M  V30 3852 C 370.662 -3.5758 0.425287 0
M  V30 3853 C 370.515 -4.08594 1.88072 0
M  V30 3854 C 371.834 -4.39719 -0.183122 0
M  V30 3855 H 368.953 -0.728348 0.112598 0
M  V30 3856 H 371.595 -1.64566 0.949638 0
M  V30 3857 H 369.745 -3.88306 -0.122828 0
M  V30 3858 H 371.417 -3.88523 2.48691 0
M  V30 3859 H 369.66 -3.61574 2.39681 0
M  V30 3860 H 370.331 -5.177 1.91548 0
M  V30 3861 H 372.807 -4.15128 0.284303 0
M  V30 3862 H 371.683 -5.48856 -0.0692757 0
M  V30 3863 H 371.944 -4.23434 -1.27106 0
M  V30 3864 N 371.003 -0.499398 -1.49478 0
M  V30 3865 C 372.251 0.0455996 -2.02049 0
M  V30 3866 C 372.572 1.37633 -1.38138 0
M  V30 3867 O 371.842 1.8842 -0.536166 0
M  V30 3868 H 370.422 0.0198416 -0.746736 0
M  V30 3869 H 373.084 -0.656274 -1.83519 0
M  V30 3870 H 372.18 0.176445 -3.11601 0
M  V30 3871 N 372.481 1.55866 -0.233164 0
M  V30 3872 C 373.758 1.90471 0.444988 0
M  V30 3873 C 374.138 1.15209 1.7689 0
M  V30 3874 O 373.486 0.265119 2.26957 0
M  V30 3875 C 373.696 3.4333 0.626559 0
M  V30 3876 C 375.044 4.14319 0.92871 0
M  V30 3877 O 376.068 3.48993 0.712926 0
M  V30 3878 O 374.927 5.29846 1.33887 0
M  V30 3879 H 372.021 0.792347 0.236885 0
M  V30 3880 H 374.567 1.67437 -0.276211 0
M  V30 3881 H 373.339 3.90095 -0.306822 0
M  V30 3882 H 372.962 3.72181 1.39881 0
M  V30 3883 N 373.959 -0.0401083 1.57549 0
M  V30 3884 C 375.205 -0.734211 1.89043 0
M  V30 3885 C 375.538 -1.75591 0.829535 0
M  V30 3886 O 374.813 -1.93868 -0.156706 0
M  V30 3887 C 375.096 -1.41374 3.31188 0
M  V30 3888 C 374.949 -0.406299 4.47961 0
M  V30 3889 C 376.268 -2.35061 3.72068 0
M  V30 3890 H 373.387 -0.265447 0.687537 0
M  V30 3891 H 376.029 0.00294087 1.9 0
M  V30 3892 H 374.179 -2.04206 3.30503 0
M  V30 3893 H 375.851 0.219255 4.60779 0
M  V30 3894 H 374.094 0.275485 4.32924 0
M  V30 3895 H 374.765 -0.920022 5.44279 0
M  V30 3896 H 377.241 -1.82282 3.74049 0
M  V30 3897 H 376.117 -2.79593 4.72355 0
M  V30 3898 H 376.378 -3.21258 3.0372 0
M  V30 3899 N 375.437 -1.54477 -0.31217 0
M  V30 3900 C 376.683 -1.73483 -1.0503 0
M  V30 3901 C 377.016 -0.513125 -1.87298 0
M  V30 3902 O 376.291 0.489864 -1.8823 0
M  V30 3903 C 376.574 -3.01723 -1.96558 0
M  V30 3904 C 376.427 -4.3417 -1.17545 0
M  V30 3905 C 377.746 -3.25772 -2.95907 0
M  V30 3906 H 374.865 -0.631222 -0.380432 0
M  V30 3907 H 377.507 -1.87184 -0.325932 0
M  V30 3908 H 375.657 -2.90174 -2.58324 0
M  V30 3909 H 377.329 -4.5762 -0.581513 0
M  V30 3910 H 375.572 -4.31159 -0.477925 0
M  V30 3911 H 376.243 -5.20143 -1.84811 0
M  V30 3912 H 378.719 -3.36857 -2.44267 0
M  V30 3913 H 377.595 -4.16838 -3.57123 0
M  V30 3914 H 377.856 -2.43537 -3.68974 0
M  V30 3915 N 376.915 0.57481 -1.46744 0
M  V30 3916 C 377.845 1.69337 -1.60771 0
M  V30 3917 C 378.826 1.63825 -0.457736 0
M  V30 3918 O 380.011 1.8172 -0.684947 0
M  V30 3919 C 377.141 3.0798 -1.60517 0
M  V30 3920 C 376.095 3.28327 -2.74564 0
M  V30 3921 C 375.421 4.67578 -2.59373 0
M  V30 3922 C 376.721 3.15398 -4.16319 0
M  V30 3923 H 378.415 1.57853 -2.54407 0
M  V30 3924 H 375.961 0.75799 -1.22436 0
M  V30 3925 H 377.914 3.86061 -1.68923 0
M  V30 3926 H 376.638 3.20381 -0.634305 0
M  V30 3927 H 375.297 2.52649 -2.65639 0
M  V30 3928 H 374.945 4.76755 -1.60353 0
M  V30 3929 H 374.645 4.82144 -3.35873 0
M  V30 3930 H 376.169 5.47817 -2.69682 0
M  V30 3931 H 377.583 3.83315 -4.26313 0
M  V30 3932 H 375.98 3.41482 -4.93468 0
M  V30 3933 H 377.05 2.12372 -4.3592 0
M  V30 3934 N 378.394 1.34581 0.820102 0
M  V30 3935 C 379.643 1.26437 1.57151 0
M  V30 3936 C 379.956 -0.163111 1.94919 0
M  V30 3937 O 381.162 -0.366722 2.69012 0
M  V30 3938 C 379.618 2.21658 2.83541 0
M  V30 3939 C 379.226 3.69679 2.53065 0
M  V30 3940 C 380.97 2.22428 3.61561 0
M  V30 3941 C 378.877 4.56761 3.75664 0
M  V30 3942 H 377.807 0.469707 0.589823 0
M  V30 3943 H 380.458 1.59763 0.902656 0
M  V30 3944 H 378.84 1.81287 3.52067 0
M  V30 3945 H 380.014 4.18605 1.92631 0
M  V30 3946 H 378.329 3.71384 1.88316 0
M  V30 3947 H 380.926 2.8471 4.52597 0
M  V30 3948 H 381.269 1.22434 3.97889 0
M  V30 3949 H 381.802 2.61259 2.99981 0
M  V30 3950 H 378.541 5.57702 3.44454 0
M  V30 3951 H 378.061 4.12568 4.35371 0
M  V30 3952 H 379.74 4.71509 4.43044 0
M  V30 3953 N 379.872 -1.04064 1.18357 0
M  V30 3954 C 380.82 -2.14187 0.907007 0
M  V30 3955 C 381.814 -1.68879 -0.132725 0
M  V30 3956 O 383.02 -1.79993 0.0154248 0
M  V30 3957 H 379.395 -0.699585 0.275835 0
M  V30 3958 H 381.366 -2.34711 1.84264 0
M  V30 3959 C 380.115 -3.44785 0.449254 0
M  V30 3960 H 379.438 -3.80058 1.24081 0
M  V30 3961 H 380.878 -4.22974 0.294737 0
M  V30 3962 C 379.337 -3.26391 -0.834909 0
M  V30 3963 O 379.867 -3.53973 -1.89911 0
M  V30 3964 N 378.073 -2.79726 -0.787523 0
M  V30 3965 H 377.62 -2.5748 0.0787347 0
M  V30 3966 H 377.578 -2.67798 -1.64716 0
M  V30 3967 N 381.35 -0.985608 -1.22978 0
M  V30 3968 C 382.578 -0.675582 -1.95559 0
M  V30 3969 C 382.993 0.758413 -1.72897 0
M  V30 3970 O 382.35 1.51094 -1.02357 0
M  V30 3971 C 382.401 -0.96293 -3.48439 0
M  V30 3972 O 382.122 -2.34057 -3.70336 0
M  V30 3973 C 383.623 -0.669585 -4.38214 0
M  V30 3974 H 380.843 -0.250523 -0.622478 0
M  V30 3975 H 383.387 -1.3184 -1.56328 0
M  V30 3976 H 381.542 -0.366033 -3.85667 0
M  V30 3977 H 381.956 -2.43424 -4.64591 0
M  V30 3978 H 383.43 -0.920967 -5.44263 0
M  V30 3979 H 383.907 0.396383 -4.37408 0
M  V30 3980 H 384.513 -1.2472 -4.06602 0
M  V30 3981 N 382.828 1.3818 -0.7579 0
M  V30 3982 C 384.076 1.99624 -0.315361 0
M  V30 3983 C 384.397 1.60464 1.10799 0
M  V30 3984 O 383.667 0.863507 1.75842 0
M  V30 3985 H 382.247 0.73831 -0.113611 0
M  V30 3986 H 384.909 1.68878 -0.972952 0
M  V30 3987 H 384.005 3.09754 -0.381931 0
M  V30 3988 N 384.306 0.507319 1.49211 0
M  V30 3989 C 385.583 -0.0982702 1.95353 0
M  V30 3990 C 385.963 -1.53516 1.449 0
M  V30 3991 O 385.311 -2.18594 0.66551 0
M  V30 3992 C 385.521 -0.00440283 3.49 0
M  V30 3993 C 386.869 -0.175147 4.24239 0
M  V30 3994 O 387.893 -0.0792891 3.56112 0
M  V30 3995 O 386.752 -0.37276 5.45227 0
M  V30 3996 H 383.846 -0.0918236 0.821887 0
M  V30 3997 H 386.392 0.570307 1.5983 0
M  V30 3998 H 385.164 0.997402 3.78375 0
M  V30 3999 H 384.787 -0.712845 3.91158 0
M  V30 4000 N 385.784 -1.5574 0.241426 0
M  V30 4001 C 387.009 -2.0366 -0.392111 0
M  V30 4002 C 387.434 -1.11969 -1.51144 0
M  V30 4003 O 386.792 -0.111594 -1.80956 0
M  V30 4004 C 386.84 -3.49638 -0.882371 0
M  V30 4005 O 385.944 -3.6108 -1.99235 0
M  V30 4006 H 385.285 -0.658379 -0.0862122 0
M  V30 4007 H 387.815 -2.01302 0.365881 0
M  V30 4008 H 387.825 -3.90351 -1.18702 0
M  V30 4009 H 386.5 -4.15852 -0.0632361 0
M  V30 4010 H 385.077 -3.32262 -1.69282 0
M  V30 4011 N 387.262 0.0317525 -1.57568 0
M  V30 4012 C 388.511 0.722131 -1.8833 0
M  V30 4013 C 388.824 1.76664 -0.839587 0
M  V30 4014 O 390.03 2.50942 -1.03635 0
M  V30 4015 C 388.486 1.33544 -3.34207 0
M  V30 4016 C 388.094 0.327415 -4.46802 0
M  V30 4017 C 389.838 2.00585 -3.7412 0
M  V30 4018 C 387.745 0.948915 -5.83738 0
M  V30 4019 H 386.675 0.273466 -0.702661 0
M  V30 4020 H 389.326 -0.0235811 -1.83485 0
M  V30 4021 H 387.708 2.13077 -3.33788 0
M  V30 4022 H 388.882 -0.441006 -4.58685 0
M  V30 4023 H 387.197 -0.240758 -4.15703 0
M  V30 4024 H 389.794 2.47932 -4.73744 0
M  V30 4025 H 390.137 2.82285 -3.05975 0
M  V30 4026 H 390.67 1.27831 -3.76702 0
M  V30 4027 H 387.409 0.171387 -6.55276 0
M  V30 4028 H 386.929 1.68724 -5.7558 0
M  V30 4029 H 388.608 1.45705 -6.3038 0
M  V30 4030 N 388.74 1.54641 0.303973 0
M  V30 4031 C 389.965 1.78092 1.06292 0
M  V30 4032 C 390.39 0.537342 1.80262 0
M  V30 4033 O 389.748 -0.511993 1.7392 0
M  V30 4034 C 389.796 2.98612 2.02147 0
M  V30 4035 O 388.9 2.71528 3.10397 0
M  V30 4036 H 388.241 0.589548 0.305497 0
M  V30 4037 H 390.771 2.01716 0.3423 0
M  V30 4038 H 390.781 3.265 2.44667 0
M  V30 4039 H 389.456 3.88785 1.47714 0
M  V30 4040 H 388.033 2.54648 2.72413 0
M  V30 4041 N 390.218 -0.567019 1.47046 0
M  V30 4042 C 391.181 -1.65696 1.58359 0
M  V30 4043 C 392.181 -1.54097 0.459441 0
M  V30 4044 O 393.371 -1.58432 0.724225 0
M  V30 4045 C 390.503 -3.05197 1.51879 0
M  V30 4046 H 391.696 -1.57019 2.5551 0
M  V30 4047 H 389.249 -0.786148 1.3509 0
M  V30 4048 H 389.984 -3.19417 0.560673 0
M  V30 4049 H 389.769 -3.15025 2.33455 0
M  V30 4050 H 391.259 -3.84511 1.62913 0
M  V30 4051 N 391.696 -1.35014 -0.812953 0
M  V30 4052 C 392.973 -1.18502 -1.55617 0
M  V30 4053 C 393.353 0.238421 -2.09749 0
M  V30 4054 O 392.701 1.2411 -1.91857 0
M  V30 4055 C 392.911 -2.24783 -2.66971 0
M  V30 4056 C 394.259 -2.60268 -3.35478 0
M  V30 4057 O 395.283 -2.23648 -2.77236 0
M  V30 4058 O 394.142 -3.2321 -4.40678 0
M  V30 4059 H 391.236 -0.459984 -0.687272 0
M  V30 4060 H 393.782 -1.46677 -0.853464 0
M  V30 4061 H 392.554 -3.20284 -2.24798 0
M  V30 4062 H 392.177 -1.97841 -3.44884 0
M  V30 4063 N 393.175 1.03435 -1.18907 0
M  V30 4064 C 394.105 2.13503 -0.945448 0
M  V30 4065 C 395.086 1.69682 0.119189 0
M  V30 4066 O 396.271 1.94169 -0.034707 0
M  V30 4067 C 393.401 3.44004 -0.477316 0
M  V30 4068 C 392.355 4.0148 -1.48316 0
M  V30 4069 C 391.681 5.27537 -0.872311 0
M  V30 4070 C 392.981 4.36921 -2.86177 0
M  V30 4071 H 394.675 2.34141 -1.86597 0
M  V30 4072 H 392.221 1.12523 -0.898584 0
M  V30 4073 H 394.174 4.20372 -0.294204 0
M  V30 4074 H 392.898 3.23072 0.478786 0
M  V30 4075 H 391.557 3.27201 -1.65332 0
M  V30 4076 H 391.205 5.02917 0.0911752 0
M  V30 4077 H 390.905 5.66954 -1.54393 0
M  V30 4078 H 392.429 6.06576 -0.699871 0
M  V30 4079 H 393.843 5.04248 -2.72776 0
M  V30 4080 H 392.24 4.87405 -3.50081 0
M  V30 4081 H 393.31 3.46466 -3.39248 0
M  V30 4082 N 394.653 0.992116 1.22453 0
M  V30 4083 C 396.069 0.702713 1.43297 0
M  V30 4084 C 396.269 -0.726909 1.87932 0
M  V30 4085 O 395.325 -1.49792 2.0327 0
M  V30 4086 C 396.638 1.70762 2.47509 0
M  V30 4087 C 398.186 1.72298 2.61309 0
M  V30 4088 C 398.661 2.71649 3.68742 0
M  V30 4089 N 400.152 2.70239 3.76199 0
M  V30 4090 C 400.887 3.43778 4.58917 0
M  V30 4091 N 400.383 4.26914 5.45633 0
M  V30 4092 N 402.176 3.32487 4.5322 0
M  V30 4093 H 394.327 1.91543 0.917871 0
M  V30 4094 H 396.59 0.826031 0.465162 0
M  V30 4095 H 396.296 2.73059 2.21657 0
M  V30 4096 H 396.17 1.49985 3.46099 0
M  V30 4097 H 398.557 0.706989 2.86506 0
M  V30 4098 H 398.638 1.97143 1.62997 0
M  V30 4099 H 398.282 3.73397 3.44292 0
M  V30 4100 H 398.212 2.44074 4.66622 0
M  V30 4101 H 400.703 2.09912 3.14237 0
M  V30 4102 H 401.016 4.79855 6.05771 0
M  V30 4103 H 399.361 4.31002 5.45218 0
M  V30 4104 H 402.552 2.6698 3.84499 0
M  V30 4105 H 402.725 3.90058 5.17454 0
M  V30 4106 N 396.131 -1.37776 0.765217 0
M  V30 4107 C 397.061 -2.32945 0.160953 0
M  V30 4108 C 398.042 -1.55454 -0.690516 0
M  V30 4109 O 399.227 -1.83721 -0.629318 0
M  V30 4110 C 396.357 -3.39669 -0.724031 0
M  V30 4111 C 395.311 -4.27992 0.0256173 0
M  V30 4112 C 394.637 -5.25673 -0.978383 0
M  V30 4113 C 395.937 -5.08309 1.20082 0
M  V30 4114 H 397.631 -2.83728 0.955969 0
M  V30 4115 H 395.177 -1.36416 0.461149 0
M  V30 4116 H 397.13 -4.05219 -1.15652 0
M  V30 4117 H 395.854 -2.87396 -1.5515 0
M  V30 4118 H 394.513 -3.63964 0.438812 0
M  V30 4119 H 394.161 -4.69682 -1.80022 0
M  V30 4120 H 393.861 -5.85625 -0.481378 0
M  V30 4121 H 395.385 -5.94098 -1.40995 0
M  V30 4122 H 396.799 -5.67034 0.845307 0
M  V30 4123 H 395.196 -5.77554 1.62947 0
M  V30 4124 H 396.266 -4.41365 2.00811 0
M  V30 4125 N 397.609 -0.515225 -1.4894 0
M  V30 4126 C 398.856 0.024215 -2.02486 0
M  V30 4127 C 399.184 1.35671 -1.39368 0
M  V30 4128 O 398.439 1.88566 -0.523574 0
M  V30 4129 C 398.738 0.210595 -3.56779 0
M  V30 4130 C 398.404 -1.04569 -4.38607 0
M  V30 4131 C 397.066 -1.39002 -4.60686 0
M  V30 4132 C 399.418 -1.88008 -4.86109 0
M  V30 4133 C 396.746 -2.568 -5.27514 0
M  V30 4134 C 399.098 -3.04972 -5.54234 0
M  V30 4135 C 397.762 -3.39768 -5.74555 0
M  V30 4136 H 397.032 0.00886088 -0.740947 0
M  V30 4137 H 399.679 -0.678263 -1.79086 0
M  V30 4138 H 397.984 0.99572 -3.78936 0
M  V30 4139 H 399.681 0.642659 -3.95817 0
M  V30 4140 H 396.271 -0.767497 -4.21672 0
M  V30 4141 H 400.455 -1.62719 -4.68867 0
M  V30 4142 H 395.711 -2.8398 -5.41447 0
M  V30 4143 H 399.885 -3.69943 -5.90013 0
M  V30 4144 H 397.512 -4.31148 -6.26112 0
M  V30 4145 N 399.087 1.5561 -0.249682 0
M  V30 4146 C 400.364 1.90932 0.424761 0
M  V30 4147 C 400.744 1.17078 1.75658 0
M  V30 4148 O 400.092 0.289176 2.26663 0
M  V30 4149 C 400.302 3.43975 0.590109 0
M  V30 4150 C 401.65 4.15281 0.884714 0
M  V30 4151 O 402.674 3.49729 0.67587 0
M  V30 4152 O 401.533 5.31236 1.28259 0
M  V30 4153 H 398.627 0.794815 0.228468 0
M  V30 4154 H 401.173 1.67135 -0.293954 0
M  V30 4155 H 399.945 3.89748 -0.34818 0
M  V30 4156 H 399.568 3.73644 1.35926 0
M  V30 4157 N 400.565 -0.0233959 1.57583 0
M  V30 4158 C 401.811 -0.714119 1.89811 0
M  V30 4159 C 402.144 -1.74702 0.848113 0
M  V30 4160 O 401.419 -1.94023 -0.136135 0
M  V30 4161 C 401.702 -1.37853 3.32669 0
M  V30 4162 C 401.555 -0.358764 4.48367 0
M  V30 4163 C 402.874 -2.31101 3.7454 0
M  V30 4164 H 399.993 -0.25814 0.690314 0
M  V30 4165 H 402.635 0.0230927 1.89986 0
M  V30 4166 H 400.785 -2.00689 3.3265 0
M  V30 4167 H 402.457 0.268115 4.6052 0
M  V30 4168 H 400.7 0.321387 4.32608 0
M  V30 4169 H 401.371 -0.862242 5.45224 0
M  V30 4170 H 403.847 -1.78304 3.75961 0
M  V30 4171 H 402.723 -2.74567 4.75294 0
M  V30 4172 H 402.984 -3.18018 3.0711 0
M  V30 4173 N 402.043 -1.548 -0.295768 0
M  V30 4174 C 403.292 -1.73538 -1.02798 0
M  V30 4175 C 403.605 -0.531159 -1.8825 0
M  V30 4176 O 404.811 -0.600458 -2.64777 0
M  V30 4177 C 403.267 -3.07051 -1.87744 0
M  V30 4178 C 402.875 -4.34968 -1.07269 0
M  V30 4179 C 404.619 -3.35146 -2.60533 0
M  V30 4180 C 402.526 -5.5953 -1.91521 0
M  V30 4181 H 401.456 -0.646794 -0.387522 0
M  V30 4182 H 404.107 -1.81278 -0.284718 0
M  V30 4183 H 402.489 -2.93289 -2.66078 0
M  V30 4184 H 403.663 -4.5958 -0.335117 0
M  V30 4185 H 401.978 -4.13847 -0.460384 0
M  V30 4186 H 404.575 -4.2541 -3.23929 0
M  V30 4187 H 404.918 -2.54255 -3.29636 0
M  V30 4188 H 405.451 -3.49902 -1.89244 0
M  V30 4189 H 402.19 -6.43103 -1.26878 0
M  V30 4190 H 401.71 -5.39096 -2.62937 0
M  V30 4191 H 403.389 -5.96982 -2.49442 0
M  V30 4192 N 403.521 0.559213 -1.47345 0
M  V30 4193 C 404.431 1.69388 -1.62311 0
M  V30 4194 C 405.447 1.6648 -0.505993 0
M  V30 4195 O 406.623 1.85964 -0.773262 0
M  V30 4196 C 403.688 3.05894 -1.63185 0
M  V30 4197 C 402.749 3.19885 -2.86307 0
M  V30 4198 C 401.982 4.49879 -2.87131 0
M  V30 4199 O 402.205 5.35217 -1.97229 0
M  V30 4200 O 401.139 4.67618 -3.78968 0
M  V30 4201 H 404.965 1.59706 -2.58317 0
M  V30 4202 H 402.55 0.728989 -1.30407 0
M  V30 4203 H 404.432 3.87133 -1.66451 0
M  V30 4204 H 403.107 3.15964 -0.70345 0
M  V30 4205 H 402.014 2.38052 -2.88587 0
M  V30 4206 H 403.347 3.14718 -3.78435 0
M  V30 4207 N 404.999 1.35443 0.805782 0
M  V30 4208 C 405.929 1.31095 1.93226 0
M  V30 4209 C 406.91 0.185244 1.69088 0
M  V30 4210 O 408.095 0.380332 1.90439 0
M  V30 4211 C 405.225 1.08299 3.29983 0
M  V30 4212 C 404.179 2.17519 3.68605 0
M  V30 4213 C 403.505 1.79887 5.03532 0
M  V30 4214 C 404.805 3.5949 3.78898 0
M  V30 4215 H 406.499 2.25352 1.97122 0
M  V30 4216 H 404.045 1.0848 0.946996 0
M  V30 4217 H 405.998 1.03897 4.08391 0
M  V30 4218 H 404.722 0.104885 3.26432 0
M  V30 4219 H 403.381 2.2102 2.92482 0
M  V30 4220 H 403.029 0.80693 4.96485 0
M  V30 4221 H 402.729 2.53001 5.30344 0
M  V30 4222 H 404.253 1.77011 5.84379 0
M  V30 4223 H 405.667 3.58307 4.47536 0
M  V30 4224 H 404.064 4.31371 4.1718 0
M  V30 4225 H 405.134 3.95584 2.80431 0
M  V30 4226 N 406.477 -1.02803 1.19454 0
M  V30 4227 C 407.424 -2.11099 0.933046 0
M  V30 4228 C 408.394 -1.65571 -0.132447 0
M  V30 4229 O 409.579 -1.90797 0.00987576 0
M  V30 4230 C 406.719 -3.41763 0.478747 0
M  V30 4231 C 405.832 -4.00833 1.6111 0
M  V30 4232 C 404.967 -5.19511 1.10825 0
M  V30 4233 C 404.006 -5.70639 2.21445 0
M  V30 4234 N 403.143 -6.80589 1.72461 0
M  V30 4235 H 407.983 -2.32804 1.86028 0
M  V30 4236 H 405.52 -1.14179 0.927441 0
M  V30 4237 H 407.478 -4.16736 0.196745 0
M  V30 4238 H 406.108 -3.20166 -0.411493 0
M  V30 4239 H 405.16 -3.23066 2.00829 0
M  V30 4240 H 406.472 -4.34794 2.4445 0
M  V30 4241 H 405.626 -6.01645 0.781533 0
M  V30 4242 H 404.365 -4.87086 0.244606 0
M  V30 4243 H 403.37 -4.87116 2.54947 0
M  V30 4244 H 404.595 -6.05102 3.08267 0
M  V30 4245 H 402.541 -6.50016 0.884056 0
M  V30 4246 H 402.458 -7.13681 2.49389 0
M  V30 4247 H 403.726 -7.66317 1.42755 0
M  V30 4248 N 407.956 -0.998596 -1.21925 0
M  V30 4249 C 409.184 -0.696286 -1.94832 0
M  V30 4250 C 409.599 0.740032 -1.73692 0
M  V30 4251 O 408.956 1.5 -1.03953 0
M  V30 4252 C 409.007 -0.999833 -3.47398 0
M  V30 4253 O 408.728 -2.37972 -3.67833 0
M  V30 4254 C 410.229 -0.716025 -4.37479 0
M  V30 4255 H 407.449 -0.257111 -0.619786 0
M  V30 4256 H 409.993 -1.33491 -1.54921 0
M  V30 4257 H 408.148 -0.406918 -3.85257 0
M  V30 4258 H 408.562 -2.48338 -4.61983 0
M  V30 4259 H 410.036 -0.978642 -5.43256 0
M  V30 4260 H 410.513 0.349968 -4.37803 0
M  V30 4261 H 411.119 -1.29025 -4.05256 0
M  V30 4262 N 409.434 1.37368 -0.772513 0
M  V30 4263 C 410.382 2.32134 -0.147111 0
M  V30 4264 C 411.376 1.54972 0.684106 0
M  V30 4265 O 412.582 1.70363 0.581083 0
M  V30 4266 H 408.957 0.751449 -0.028786 0
M  V30 4267 H 410.928 2.82464 -0.962112 0
M  V30 4268 C 409.677 3.40226 0.71703 0
M  V30 4269 H 409 3.99706 0.0867951 0
M  V30 4270 H 410.44 4.08897 1.12159 0
M  V30 4271 C 408.899 2.80372 1.86797 0
M  V30 4272 O 409.429 2.71183 2.96349 0
M  V30 4273 N 407.635 2.37904 1.66883 0
M  V30 4274 H 407.182 2.45578 0.777759 0
M  V30 4275 H 407.14 1.98202 2.44056 0
M  V30 4276 N 410.912 0.523116 1.48665 0
M  V30 4277 C 411.822 -0.247406 2.33292 0
M  V30 4278 C 412.838 -0.945769 1.46052 0
M  V30 4279 O 414.014 -0.922253 1.79043 0
M  V30 4280 C 411.079 -1.28487 3.22012 0
M  V30 4281 C 410.14 -0.597592 4.2512 0
M  V30 4282 C 409.373 -1.58563 5.09601 0
M  V30 4283 O 409.596 -2.81763 4.95949 0
M  V30 4284 O 408.53 -1.12879 5.91221 0
M  V30 4285 H 412.356 0.445869 3.00409 0
M  V30 4286 H 409.941 0.284128 1.46673 0
M  V30 4287 H 411.823 -1.88459 3.7691 0
M  V30 4288 H 410.498 -1.96068 2.57564 0
M  V30 4289 H 409.405 0.0424407 3.74076 0
M  V30 4290 H 410.738 0.0361517 4.92187 0
M  V30 4291 N 412.39 -1.55475 0.257931 0
M  V30 4292 C 413.615 -2.04064 -0.370488 0
M  V30 4293 C 414.04 -1.13565 -1.49948 0
M  V30 4294 O 413.398 -0.130781 -1.80828 0
M  V30 4295 C 413.446 -3.50554 -0.845237 0
M  V30 4296 O 412.55 -3.63173 -1.95394 0
M  V30 4297 H 411.891 -0.659257 -0.0792243 0
M  V30 4298 H 414.421 -2.00903 0.387212 0
M  V30 4299 H 414.431 -3.91588 -1.14555 0
M  V30 4300 H 413.106 -4.15896 -0.0191259 0
M  V30 4301 H 411.683 -3.34039 -1.65748 0
M  V30 4302 N 413.868 0.0150385 -1.57593 0
M  V30 4303 C 414.798 1.01047 -2.10503 0
M  V30 4304 C 415.779 1.36816 -1.01071 0
M  V30 4305 O 416.964 1.45455 -1.28672 0
M  V30 4306 C 414.094 2.30708 -2.59598 0
M  V30 4307 C 413.048 2.09142 -3.73421 0
M  V30 4308 C 412.374 3.44685 -4.08774 0
M  V30 4309 C 413.674 1.46619 -5.01298 0
M  V30 4310 H 415.368 0.569978 -2.93925 0
M  V30 4311 H 412.914 0.272724 -1.41394 0
M  V30 4312 H 414.867 3.00687 -2.95238 0
M  V30 4313 H 413.591 2.76843 -1.73279 0
M  V30 4314 H 412.25 1.41592 -3.38153 0
M  V30 4315 H 411.898 3.88495 -3.195 0
M  V30 4316 H 411.598 3.31077 -4.8545 0
M  V30 4317 H 413.122 4.16004 -4.4696 0
M  V30 4318 H 414.536 2.06535 -5.34805 0
M  V30 4319 H 412.933 1.43544 -5.82679 0
M  V30 4320 H 414.003 0.433611 -4.82957 0
M  V30 4321 N 415.346 1.54954 0.287554 0
M  V30 4322 C 416.276 1.89839 1.35954 0
M  V30 4323 C 417.257 0.758675 1.52244 0
M  V30 4324 O 418.442 1.01557 1.65529 0
M  V30 4325 C 415.572 2.15753 2.72154 0
M  V30 4326 C 414.526 3.3159 2.70614 0
M  V30 4327 C 413.852 3.42952 4.10229 0
M  V30 4328 C 415.152 4.68359 2.31165 0
M  V30 4329 H 416.846 2.79625 1.07007 0
M  V30 4330 H 414.392 1.3454 0.513316 0
M  V30 4331 H 416.345 2.38743 3.47246 0
M  V30 4332 H 415.069 1.22752 3.02654 0
M  V30 4333 H 413.728 3.08545 1.97979 0
M  V30 4334 H 413.376 2.47443 4.37928 0
M  V30 4335 H 413.076 4.20826 4.10097 0
M  V30 4336 H 414.6 3.68218 4.87081 0
M  V30 4337 H 416.014 4.9099 2.95976 0
M  V30 4338 H 414.411 5.49044 2.42221 0
M  V30 4339 H 415.481 4.68165 1.26291 0
M  V30 4340 N 416.824 -0.551391 1.4764 0
M  V30 4341 C 418.052 -1.33357 1.58189 0
M  V30 4342 C 418.467 -1.87342 0.234199 0
M  V30 4343 O 417.824 -1.65301 -0.77343 0
M  V30 4344 C 417.875 -2.49942 2.61173 0
M  V30 4345 O 417.596 -1.98187 3.90709 0
M  V30 4346 C 419.097 -3.42072 2.8196 0
M  V30 4347 H 416.317 -0.40631 0.533998 0
M  V30 4348 H 418.861 -0.667367 1.93304 0
M  V30 4349 H 417.016 -3.12489 2.28975 0
M  V30 4350 H 417.43 -2.74342 4.47031 0
M  V30 4351 H 418.904 -4.20278 3.57869 0
M  V30 4352 H 419.381 -3.95978 1.89995 0
M  V30 4353 H 419.987 -2.85336 3.15378 0
M  V30 4354 N 418.302 -1.35869 -0.798587 0
M  V30 4355 C 419.55 -1.29332 -1.55298 0
M  V30 4356 C 419.871 0.129729 -1.94568 0
M  V30 4357 O 419.141 1.06796 -1.6423 0
M  V30 4358 H 417.721 -0.475737 -0.57592 0
M  V30 4359 H 420.383 -1.70062 -0.952093 0
M  V30 4360 H 419.479 -1.91458 -2.46476 0
M  V30 4361 N 419.78 1.02168 -1.19998 0
M  V30 4362 C 420.69 2.14069 -0.959774 0
M  V30 4363 C 421.706 1.73804 0.082655 0
M  V30 4364 O 422.882 2.01133 -0.103633 0
M  V30 4365 C 419.947 3.42936 -0.509459 0
M  V30 4366 C 419.008 3.97474 -1.62213 0
M  V30 4367 C 418.241 5.2019 -1.19321 0
M  V30 4368 O 418.464 5.70369 -0.0597726 0
M  V30 4369 O 417.398 5.67749 -1.99863 0
M  V30 4370 H 421.224 2.37199 -1.89658 0
M  V30 4371 H 418.809 1.12469 -0.983411 0
M  V30 4372 H 420.691 4.20551 -0.267322 0
M  V30 4373 H 419.366 3.21234 0.398821 0
M  V30 4374 H 418.273 3.21161 -1.9185 0
M  V30 4375 H 419.606 4.23555 -2.50723 0
M  V30 4376 N 421.258 1.00505 1.21394 0
M  V30 4377 C 422.483 0.706367 1.95001 0
M  V30 4378 C 422.908 -0.72463 1.73582 0
M  V30 4379 O 422.266 -1.49702 1.0227 0
M  V30 4380 C 422.314 1.03299 3.45487 0
M  V30 4381 O 421.418 0.138275 4.12168 0
M  V30 4382 H 420.759 0.263175 0.609619 0
M  V30 4383 H 423.289 1.34531 1.54151 0
M  V30 4384 H 423.299 0.979872 3.96059 0
M  V30 4385 H 421.974 2.07567 3.60401 0
M  V30 4386 H 420.551 0.247928 3.72075 0
M  V30 4387 N 422.737 -1.36956 0.779787 0
M  V30 4388 C 423.647 -2.33965 0.172491 0
M  V30 4389 C 424.663 -1.60574 -0.670222 0
M  V30 4390 O 425.839 -1.92617 -0.588263 0
M  V30 4391 C 422.904 -3.39761 -0.690173 0
M  V30 4392 C 421.965 -4.28964 0.169924 0
M  V30 4393 C 421.198 -5.29707 -0.651662 0
M  V30 4394 O 421.421 -5.38238 -1.88827 0
M  V30 4395 O 420.355 -6.01873 -0.0566264 0
M  V30 4396 H 424.181 -2.87647 0.974321 0
M  V30 4397 H 421.766 -1.39258 0.541078 0
M  V30 4398 H 423.648 -4.04471 -1.1824 0
M  V30 4399 H 422.323 -2.88394 -1.47006 0
M  V30 4400 H 421.23 -3.67326 0.708696 0
M  V30 4401 H 422.563 -4.83656 0.913085 0
M  V30 4402 N 424.215 -0.530993 -1.48385 0
M  V30 4403 C 425.492 0.0671788 -1.95485 0
M  V30 4404 C 425.872 1.51191 -1.47324 0
M  V30 4405 O 425.22 2.17507 -0.700202 0
M  V30 4406 C 425.43 -0.0511206 -3.48963 0
M  V30 4407 C 426.778 0.107632 -4.24464 0
M  V30 4408 O 427.802 0.0226248 -3.56193 0
M  V30 4409 O 426.661 0.285972 -5.45751 0
M  V30 4410 H 423.755 0.0787365 -0.823243 0
M  V30 4411 H 426.301 -0.595662 -1.58902 0
M  V30 4412 H 425.073 -1.05747 -3.7674 0
M  V30 4413 H 424.696 0.650525 -3.92242 0
M  V30 4414 N 425.693 1.55336 -0.266172 0
M  V30 4415 C 426.942 1.98574 0.353749 0
M  V30 4416 C 427.255 1.15789 1.57646 0
M  V30 4417 O 428.461 1.49129 2.26876 0
M  V30 4418 C 426.917 3.53403 0.680747 0
M  V30 4419 C 426.525 4.44953 -0.52165 0
M  V30 4420 C 428.269 4.05251 1.26379 0
M  V30 4421 C 426.176 5.91156 -0.169736 0
M  V30 4422 H 425.106 0.741643 0.135949 0
M  V30 4423 H 427.757 1.79743 -0.369421 0
M  V30 4424 H 426.139 3.68001 1.46257 0
M  V30 4425 H 427.313 4.42121 -1.29869 0
M  V30 4426 H 425.628 4.03691 -1.02093 0
M  V30 4427 H 428.225 5.12021 1.54074 0
M  V30 4428 H 428.568 3.53749 2.19471 0
M  V30 4429 H 429.101 3.94057 0.544447 0
M  V30 4430 H 425.84 6.46736 -1.0683 0
M  V30 4431 H 425.36 5.97079 0.570717 0
M  V30 4432 H 427.039 6.4655 0.241245 0
M  V30 4433 N 427.171 -0.0066808 1.57599 0
M  V30 4434 C 428.118 -1.00024 2.08 0
M  V30 4435 C 429.088 -1.34549 0.973943 0
M  V30 4436 O 430.273 -1.44502 1.24595 0
M  V30 4437 C 427.413 -2.2891 2.58252 0
M  V30 4438 C 426.526 -2.00346 3.82734 0
M  V30 4439 C 425.661 -3.23265 4.21513 0
M  V30 4440 C 424.7 -2.90357 5.3885 0
M  V30 4441 N 423.837 -4.05793 5.72954 0
M  V30 4442 H 428.677 -0.563499 2.92624 0
M  V30 4443 H 426.214 -0.266592 1.44664 0
M  V30 4444 H 428.172 -3.04247 2.85464 0
M  V30 4445 H 426.802 -2.70265 1.76512 0
M  V30 4446 H 425.854 -1.15406 3.62471 0
M  V30 4447 H 427.166 -1.72086 4.68175 0
M  V30 4448 H 426.32 -4.06953 4.49971 0
M  V30 4449 H 425.059 -3.54657 3.34768 0
M  V30 4450 H 424.064 -2.05075 5.10122 0
M  V30 4451 H 425.289 -2.60219 6.27266 0
M  V30 4452 H 423.235 -4.37094 4.89167 0
M  V30 4453 H 423.152 -3.81034 6.52954 0
M  V30 4454 H 424.42 -4.90289 6.06001 0
M  V30 4455 N 428.649 -1.55105 -0.279332 0
M  V30 4456 C 429.596 -1.8755 -1.34513 0
M  V30 4457 C 430.566 -0.726384 -1.49375 0
M  V30 4458 O 431.751 -0.977063 -1.63884 0
M  V30 4459 C 428.891 -2.14738 -2.70151 0
M  V30 4460 C 428.004 -3.42285 -2.63562 0
M  V30 4461 C 427.139 -3.59206 -3.91337 0
M  V30 4462 C 426.178 -4.80467 -3.79233 0
M  V30 4463 N 425.315 -4.94079 -4.98829 0
M  V30 4464 H 430.155 -2.78456 -1.06143 0
M  V30 4465 H 427.692 -1.37867 -0.512936 0
M  V30 4466 H 429.65 -2.28501 -3.49061 0
M  V30 4467 H 428.28 -1.27075 -2.96735 0
M  V30 4468 H 427.332 -3.37029 -1.76397 0
M  V30 4469 H 428.644 -4.31328 -2.50515 0
M  V30 4470 H 427.798 -3.72751 -4.78687 0
M  V30 4471 H 426.537 -2.68337 -4.07243 0
M  V30 4472 H 425.542 -4.66932 -2.90266 0
M  V30 4473 H 426.767 -5.72765 -3.64852 0
M  V30 4474 H 424.713 -4.06139 -5.15158 0
M  V30 4475 H 424.63 -5.77156 -4.8829 0
M  V30 4476 H 425.898 -5.12003 -5.8777 0
M  V30 4477 N 430.127 0.543554 -1.4793 0
M  V30 4478 C 431.355 1.32516 -1.58894 0
M  V30 4479 C 431.77 1.87215 -0.244131 0
M  V30 4480 O 431.127 1.65709 0.764652 0
M  V30 4481 C 431.178 2.48554 -2.62494 0
M  V30 4482 O 430.899 1.96112 -3.91755 0
M  V30 4483 C 432.4 3.40572 -2.8377 0
M  V30 4484 H 429.62 0.403472 -0.536145 0
M  V30 4485 H 432.164 0.657106 -1.93655 0
M  V30 4486 H 430.319 3.1127 -2.30629 0
M  V30 4487 H 430.733 2.71967 -4.4848 0
M  V30 4488 H 432.207 4.18375 -3.60093 0
M  V30 4489 H 432.684 3.94965 -1.92092 0
M  V30 4490 H 433.29 2.8366 -3.16887 0
M  V30 4491 N 431.605 1.3629 0.791371 0
M  V30 4492 C 432.854 1.29742 1.54434 0
M  V30 4493 C 433.167 -0.121729 1.95221 0
M  V30 4494 O 434.373 -0.309579 2.69729 0
M  V30 4495 C 432.829 2.27623 2.78776 0
M  V30 4496 C 432.437 3.74963 2.45166 0
M  V30 4497 C 434.181 2.30047 3.56761 0
M  V30 4498 C 432.088 4.64626 3.65891 0
M  V30 4499 H 431.018 0.482113 0.579727 0
M  V30 4500 H 433.669 1.61642 0.868565 0
M  V30 4501 H 432.051 1.88714 3.48142 0
M  V30 4502 H 433.225 4.22596 1.83709 0
M  V30 4503 H 431.54 3.75295 1.80396 0
M  V30 4504 H 434.137 2.94247 4.46456 0
M  V30 4505 H 434.48 1.30846 3.95203 0
M  V30 4506 H 435.013 2.67563 2.94372 0
M  V30 4507 H 431.752 5.64883 3.32547 0
M  V30 4508 H 431.272 4.2171 4.26521 0
M  V30 4509 H 432.951 4.80801 4.32943 0
M  V30 4510 N 433.083 -1.0153 1.20538 0
M  V30 4511 C 434.329 -1.75408 1.01783 0
M  V30 4512 C 434.662 -1.88943 -0.448814 0
M  V30 4513 O 433.937 -1.4162 -1.33319 0
M  V30 4514 C 434.22 -3.17255 1.70356 0
M  V30 4515 C 434.073 -3.11508 3.24473 0
M  V30 4516 C 435.392 -4.15955 1.43769 0
M  V30 4517 H 432.511 -0.636713 0.371167 0
M  V30 4518 H 435.153 -1.18436 1.4857 0
M  V30 4519 H 433.303 -3.65898 1.30578 0
M  V30 4520 H 434.975 -2.70658 3.73553 0
M  V30 4521 H 433.218 -2.4887 3.55311 0
M  V30 4522 H 433.889 -4.11784 3.67611 0
M  V30 4523 H 436.365 -3.75973 1.7828 0
M  V30 4524 H 435.241 -5.13368 1.94279 0
M  V30 4525 H 435.502 -4.40586 0.365564 0
M  V30 4526 N 434.561 -1.01147 -1.20859 0
M  V30 4527 C 435.524 -0.582224 -2.21682 0
M  V30 4528 C 436.524 0.344887 -1.57058 0
M  V30 4529 O 437.714 0.134281 -1.73682 0
M  V30 4530 C 434.846 0.150496 -3.40568 0
M  V30 4531 H 436.039 -1.47408 -2.61172 0
M  V30 4532 H 433.592 -0.800695 -1.34233 0
M  V30 4533 H 434.327 1.0575 -3.06574 0
M  V30 4534 H 434.112 -0.515444 -3.88697 0
M  V30 4535 H 435.602 0.438344 -4.15293 0
M  V30 4536 N 436.039 1.36541 -0.78704 0
M  V30 4537 C 437.316 1.9355 -0.282424 0
M  V30 4538 C 437.696 1.71919 1.22503 0
M  V30 4539 O 437.044 1.07677 2.01539 0
M  V30 4540 C 437.254 3.4246 -0.672462 0
M  V30 4541 C 438.602 4.19582 -0.650863 0
M  V30 4542 O 439.626 3.50889 -0.612789 0
M  V30 4543 O 438.485 5.42106 -0.691623 0
M  V30 4544 H 435.579 0.824091 -0.0693 0
M  V30 4545 H 438.125 1.45736 -0.869423 0
M  V30 4546 H 436.897 3.51851 -1.71221 0
M  V30 4547 H 436.52 3.97556 -0.0592211 0
M  V30 4548 N 437.518 0.538854 1.48102 0
M  V30 4549 C 438.466 -0.232325 2.31437 0
M  V30 4550 C 439.46 -0.927004 1.41785 0
M  V30 4551 O 440.666 -0.850378 1.58646 0
M  V30 4552 H 437.041 -0.0937916 0.746128 0
M  V30 4553 H 439.012 0.489986 2.9435 0
M  V30 4554 C 437.761 -1.26074 3.24038 0
M  V30 4555 H 437.084 -0.735609 3.92974 0
M  V30 4556 H 438.524 -1.77157 3.85216 0
M  V30 4557 C 436.983 -2.29902 2.46265 0
M  V30 4558 O 437.513 -3.36502 2.19384 0
M  V30 4559 N 435.719 -2.03348 2.07601 0
M  V30 4560 H 435.266 -1.16675 2.29662 0
M  V30 4561 H 435.224 -2.73038 1.55877 0
M  V30 4562 N 438.996 -1.55193 0.274407 0
M  V30 4563 C 439.926 -2.25471 -0.607032 0
M  V30 4564 C 440.907 -1.24461 -1.15946 0
M  V30 4565 O 442.092 -1.53179 -1.19373 0
M  V30 4566 C 439.222 -2.97526 -1.79153 0
M  V30 4567 C 438.176 -4.05459 -1.37067 0
M  V30 4568 C 437.502 -4.65084 -2.6382 0
M  V30 4569 C 438.802 -5.19691 -0.521389 0
M  V30 4570 H 440.496 -2.99393 -0.0209343 0
M  V30 4571 H 438.042 -1.43997 -0.00862866 0
M  V30 4572 H 439.995 -3.45402 -2.41404 0
M  V30 4573 H 438.719 -2.21138 -2.40344 0
M  V30 4574 H 437.378 -3.58393 -0.771355 0
M  V30 4575 H 437.026 -3.85365 -3.23268 0
M  V30 4576 H 436.726 -5.37961 -2.36372 0
M  V30 4577 H 438.25 -5.15708 -3.26921 0
M  V30 4578 H 439.664 -5.63623 -1.04889 0
M  V30 4579 H 438.061 -5.99126 -0.341825 0
M  V30 4580 H 439.131 -4.82713 0.46 0
M  V30 4581 N 440.474 -0.00167713 -1.576 0
M  V30 4582 C 441.699 0.69739 -1.95323 0
M  V30 4583 C 442.124 1.6642 -0.876706 0
M  V30 4584 O 441.482 1.80548 0.165007 0
M  V30 4585 C 441.53 1.40403 -3.32144 0
M  V30 4586 O 440.634 2.5185 -3.26566 0
M  V30 4587 H 439.975 0.185373 -0.637599 0
M  V30 4588 H 442.505 -0.0553665 -2.04525 0
M  V30 4589 H 442.515 1.76707 -3.67748 0
M  V30 4590 H 441.19 0.695167 -4.10049 0
M  V30 4591 H 439.767 2.17861 -3.0264 0
M  V30 4592 N 441.952 1.55251 0.271103 0
M  V30 4593 C 443.18 1.79974 1.02064 0
M  V30 4594 C 443.595 0.574003 1.79863 0
M  V30 4595 O 442.952 -0.456962 1.76686 0
M  V30 4596 C 443.003 3.02603 1.97772 0
M  V30 4597 O 442.724 4.20443 1.23124 0
M  V30 4598 C 444.225 3.39944 2.84522 0
M  V30 4599 H 441.445 0.599489 0.301419 0
M  V30 4600 H 443.989 2.02268 0.301313 0
M  V30 4601 H 442.144 2.8243 2.65165 0
M  V30 4602 H 442.558 4.89783 1.87651 0
M  V30 4603 H 444.032 4.28915 3.47471 0
M  V30 4604 H 444.509 2.59432 3.54389 0
M  V30 4605 H 445.115 3.62383 2.22618 0
M  V30 4606 N 443.43 -0.535701 1.48216 0
M  V30 4607 C 444.841 -1.11769 1.49548 0
M  V30 4608 C 445.192 -1.94442 0.26207 0
M  V30 4609 O 444.317 -2.06987 -0.631287 0
M  V30 4610 C 444.912 -2.03367 2.70975 0
M  V30 4611 C 443.471 -2.56795 2.75196 0
M  V30 4612 C 442.618 -1.33631 2.42977 0
M  V30 4613 H 445.569 -0.321232 1.55415 0
M  V30 4614 H 445.59 -2.87569 2.49167 0
M  V30 4615 H 445.102 -1.43169 3.60727 0
M  V30 4616 H 443.203 -3.20731 1.89638 0
M  V30 4617 H 443.316 -2.9632 3.76472 0
M  V30 4618 H 441.68 -1.6502 1.94012 0
M  V30 4619 H 442.463 -0.75194 3.34964 0
M  V30 4620 N 444.908 -1.36708 -0.784132 0
M  V30 4621 C 446.155 -1.31231 -1.54222 0
M  V30 4622 C 446.483 0.106864 -1.94206 0
M  V30 4623 O 445.738 1.07734 -1.63376 0
M  V30 4624 C 446.037 -2.18571 -2.82774 0
M  V30 4625 C 445.703 -3.67039 -2.61903 0
M  V30 4626 C 444.365 -4.07503 -2.55919 0
M  V30 4627 C 446.717 -4.61149 -2.4288 0
M  V30 4628 C 444.045 -5.40211 -2.28886 0
M  V30 4629 C 446.397 -5.94081 -2.17373 0
M  V30 4630 C 445.061 -6.33664 -2.09825 0
M  V30 4631 H 444.331 -0.48021 -0.56434 0
M  V30 4632 H 446.978 -1.68807 -0.904233 0
M  V30 4633 H 445.283 -1.73949 -3.51068 0
M  V30 4634 H 446.98 -2.11655 -3.40592 0
M  V30 4635 H 443.57 -3.34941 -2.67418 0
M  V30 4636 H 447.754 -4.30756 -2.46501 0
M  V30 4637 H 443.01 -5.69855 -2.21529 0
M  V30 4638 H 447.184 -6.66566 -2.01649 0
M  V30 4639 H 444.811 -7.36423 -1.88641 0
M  V30 4640 N 446.386 1.0089 -1.21074 0
M  V30 4641 C 447.349 2.0775 -0.968129 0
M  V30 4642 C 448.349 1.6069 0.0593445 0
M  V30 4643 O 449.539 1.73293 -0.177525 0
M  V30 4644 C 446.671 3.37794 -0.459108 0
M  V30 4645 H 447.864 2.30707 -1.9161 0
M  V30 4646 H 445.417 1.17807 -1.02719 0
M  V30 4647 H 446.152 3.20516 0.49397 0
M  V30 4648 H 445.937 3.7328 -1.20019 0
M  V30 4649 H 447.427 4.16454 -0.309099 0
M  V30 4650 N 447.864 1.01787 1.20321 0
M  V30 4651 C 449.092 0.727194 1.937 0
M  V30 4652 C 449.507 -0.712305 1.74848 0
M  V30 4653 O 448.864 -1.48327 1.06327 0
M  V30 4654 C 448.915 1.05497 3.45764 0
M  V30 4655 O 448.636 2.43794 3.64 0
M  V30 4656 C 450.137 0.785534 4.36285 0
M  V30 4657 H 447.357 0.266939 0.615617 0
M  V30 4658 H 449.901 1.35939 1.52777 0
M  V30 4659 H 448.056 0.468158 3.84561 0
M  V30 4660 H 448.47 2.55656 4.57974 0
M  V30 4661 H 449.944 1.06495 5.4163 0
M  V30 4662 H 450.421 -0.280273 4.38305 0
M  V30 4663 H 451.027 1.35456 4.03152 0
M  V30 4664 N 449.342 -1.36122 0.79427 0
M  V30 4665 C 450.29 -2.31871 0.184023 0
M  V30 4666 C 451.284 -1.56041 -0.659365 0
M  V30 4667 O 452.49 -1.71266 -0.553906 0
M  V30 4668 H 448.865 -0.750896 0.0407373 0
M  V30 4669 H 450.836 -2.80898 1.00693 0
M  V30 4670 C 449.585 -3.41324 -0.662813 0
M  V30 4671 H 448.908 -3.99793 -0.0231944 0
M  V30 4672 H 450.348 -4.10629 -1.05639 0
M  V30 4673 C 448.807 -2.83308 -1.82313 0
M  V30 4674 O 449.337 -2.75863 -2.91997 0
M  V30 4675 N 447.543 -2.40529 -1.63077 0
M  V30 4676 H 447.09 -2.46785 -0.738591 0
M  V30 4677 H 447.048 -2.02059 -2.40872 0
M  V30 4678 N 450.82 -0.546701 -1.47814 0
M  V30 4679 C 451.75 0.195317 -2.32682 0
M  V30 4680 C 452.731 0.918981 -1.43139 0
M  V30 4681 O 453.916 0.901501 -1.72008 0
M  V30 4682 C 451.046 1.23237 -3.247 0
M  V30 4683 C 450 0.625818 -4.234 0
M  V30 4684 C 449.326 1.76674 -5.04669 0
M  V30 4685 C 450.626 -0.413515 -5.2066 0
M  V30 4686 H 452.32 -0.513184 -2.94969 0
M  V30 4687 H 449.866 -0.248241 -1.41844 0
M  V30 4688 H 451.819 1.75955 -3.82907 0
M  V30 4689 H 450.543 1.97067 -2.60446 0
M  V30 4690 H 449.202 0.120023 -3.66403 0
M  V30 4691 H 448.85 2.49383 -4.36826 0
M  V30 4692 H 448.55 1.36673 -5.71484 0
M  V30 4693 H 450.074 2.29738 -5.65732 0
M  V30 4694 H 451.488 0.0272042 -5.73294 0
M  V30 4695 H 449.885 -0.731825 -5.95621 0
M  V30 4696 H 450.955 -1.31325 -4.66778 0
M  V30 4697 N 452.299 1.55045 -0.282633 0
M  V30 4698 C 453.539 2.01668 0.333088 0
M  V30 4699 C 453.903 1.1667 1.52486 0
M  V30 4700 O 455.104 1.52907 2.21072 0
M  V30 4701 C 453.375 3.50509 0.698442 0
M  V30 4702 S 454.934 4.19112 1.29963 0
M  V30 4703 H 451.752 0.703468 0.103219 0
M  V30 4704 H 454.354 1.91233 -0.406222 0
M  V30 4705 H 453.058 4.10015 -0.177693 0
M  V30 4706 H 452.589 3.64943 1.46902 0
M  V30 4707 H 454.604 4.23362 2.58803 0
M  V30 4708 N 453.777 0.010035 1.57597 0
M  V30 4709 C 455.024 -0.6727 1.91 0
M  V30 4710 C 455.352 -1.73219 0.884614 0
M  V30 4711 O 454.607 -1.95395 -0.109215 0
M  V30 4712 C 454.906 -1.34434 3.31153 0
M  V30 4713 C 454.572 -0.417083 4.48967 0
M  V30 4714 C 453.234 -0.161809 4.80928 0
M  V30 4715 C 455.586 0.220753 5.20732 0
M  V30 4716 C 452.914 0.739426 5.82022 0
M  V30 4717 C 455.266 1.10993 6.22787 0
M  V30 4718 C 453.93 1.37428 6.532 0
M  V30 4719 H 453.2 -0.246158 0.698918 0
M  V30 4720 H 455.847 0.0677145 1.9138 0
M  V30 4721 H 454.152 -2.15905 3.26944 0
M  V30 4722 H 455.849 -1.87883 3.54261 0
M  V30 4723 H 452.439 -0.626217 4.24001 0
M  V30 4724 H 456.623 0.0365643 4.96287 0
M  V30 4725 H 451.879 0.952139 6.03941 0
M  V30 4726 H 456.053 1.61046 6.77523 0
M  V30 4727 H 453.68 2.0743 7.31353 0
M  V30 4728 N 455.255 -1.55392 -0.262866 0
M  V30 4729 C 456.218 -1.88181 -1.30846 0
M  V30 4730 C 457.218 -0.757079 -1.41862 0
M  V30 4731 O 458.408 -1.02519 -1.40838 0
M  V30 4732 C 455.54 -2.09609 -2.68844 0
M  V30 4733 H 456.733 -2.81659 -1.02997 0
M  V30 4734 H 454.286 -1.48039 -0.501414 0
M  V30 4735 H 455.021 -1.18547 -3.01856 0
M  V30 4736 H 454.806 -2.91508 -2.62231 0
M  V30 4737 H 456.296 -2.36215 -3.44372 0
M  V30 4738 N 456.733 0.527833 -1.48498 0
M  V30 4739 C 457.961 1.30823 -1.6029 0
M  V30 4740 C 458.376 1.86945 -0.263974 0
M  V30 4741 O 457.733 1.6651 0.747034 0
M  V30 4742 C 457.784 2.45756 -2.65116 0
M  V30 4743 O 457.505 1.91946 -3.93813 0
M  V30 4744 C 459.006 3.37543 -2.87367 0
M  V30 4745 H 456.226 0.397763 -0.540394 0
M  V30 4746 H 458.77 0.636529 -1.94341 0
M  V30 4747 H 456.925 3.08806 -2.33917 0
M  V30 4748 H 457.339 2.67195 -4.51339 0
M  V30 4749 H 458.813 4.14532 -3.6451 0
M  V30 4750 H 459.29 3.92905 -1.9627 0
M  V30 4751 H 459.896 2.80283 -3.19878 0
M  V30 4752 N 458.211 1.37122 0.776871 0
M  V30 4753 C 459.439 1.3523 1.5659 0
M  V30 4754 C 459.854 -0.0635518 1.88693 0
M  V30 4755 O 459.211 -1.02394 1.51069 0
M  V30 4756 C 459.262 2.18583 2.8793 0
M  V30 4757 O 458.983 3.5465 2.57206 0
M  V30 4758 C 460.484 2.24612 3.82183 0
M  V30 4759 H 457.704 0.4634 0.485285 0
M  V30 4760 H 460.248 1.80392 0.963266 0
M  V30 4761 H 458.403 1.76943 3.4463 0
M  V30 4762 H 458.817 3.98286 3.41275 0
M  V30 4763 H 460.291 2.87267 4.71361 0
M  V30 4764 H 460.768 1.25309 4.20944 0
M  V30 4765 H 461.374 2.66543 3.31414 0
M  V30 4766 N 459.689 -1.00246 1.21608 0
M  V30 4767 C 460.914 -1.78167 1.06167 0
M  V30 4768 C 461.339 -1.84138 -0.384035 0
M  V30 4769 O 460.697 -1.28683 -1.27712 0
M  V30 4770 C 460.745 -3.19786 1.66642 0
M  V30 4771 O 459.849 -4.02153 0.913613 0
M  V30 4772 H 459.19 -0.549 0.37349 0
M  V30 4773 H 461.72 -1.25994 1.61204 0
M  V30 4774 H 461.73 -3.70451 1.70969 0
M  V30 4775 H 460.405 -3.14754 2.7185 0
M  V30 4776 H 458.982 -3.60711 0.945635 0
M  V30 4777 N 461.167 -1.02423 -1.1978 0
M  V30 4778 C 462.413 -0.719051 -1.89625 0
M  V30 4779 C 462.746 0.750083 -1.7913 0
M  V30 4780 O 462.021 1.54574 -1.18056 0
M  V30 4781 C 462.304 -1.16499 -3.40735 0
M  V30 4782 C 462.157 -2.695 -3.60125 0
M  V30 4783 C 463.476 -0.742166 -4.33797 0
M  V30 4784 H 460.595 -0.26269 -0.688595 0
M  V30 4785 H 463.237 -1.27333 -1.41018 0
M  V30 4786 H 461.387 -0.69341 -3.82262 0
M  V30 4787 H 463.059 -3.24569 -3.278 0
M  V30 4788 H 461.302 -3.10113 -3.03336 0
M  V30 4789 H 461.973 -2.95757 -4.66081 0
M  V30 4790 H 464.449 -1.1477 -3.99959 0
M  V30 4791 H 463.325 -1.08213 -5.38127 0
M  V30 4792 H 463.586 0.355747 -4.40666 0
M  V30 4793 N 462.645 1.35699 -0.801477 0
M  V30 4794 C 463.873 2.03157 -0.391768 0
M  V30 4795 C 464.288 1.60412 0.995668 0
M  V30 4796 O 463.645 0.799228 1.64069 0
M  V30 4797 C 463.696 3.58566 -0.459671 0
M  V30 4798 O 463.417 3.99756 -1.7924 0
M  V30 4799 C 464.918 4.4328 -0.0421205 0
M  V30 4800 H 462.138 0.651688 -0.159825 0
M  V30 4801 H 464.682 1.73426 -1.08368 0
M  V30 4802 H 462.837 3.86963 0.183939 0
M  V30 4803 H 463.251 4.94387 -1.75162 0
M  V30 4804 H 464.725 5.51821 -0.140754 0
M  V30 4805 H 465.202 4.27383 1.01196 0
M  V30 4806 H 465.808 4.20168 -0.658687 0
M  V30 4807 N 464.123 0.554532 1.47522 0
M  V30 4808 C 465.348 0.0322661 2.07375 0
M  V30 4809 C 465.773 -1.25079 1.40488 0
M  V30 4810 O 465.131 -1.74859 0.47896 0
M  V30 4811 C 465.179 -0.149397 3.6029 0
M  V30 4812 O 464.283 -1.21259 3.9417 0
M  V30 4813 H 463.624 0.0501228 0.662106 0
M  V30 4814 H 466.154 0.769452 1.8958 0
M  V30 4815 H 466.164 -0.364437 4.06369 0
M  V30 4816 H 464.839 0.787743 4.08372 0
M  V30 4817 H 463.416 -0.97825 3.5984 0
M  V30 4818 N 465.601 -1.54893 0.290851 0
M  V30 4819 C 466.849 -1.99538 -0.320756 0
M  V30 4820 C 467.17 -1.18075 -1.55188 0
M  V30 4821 O 466.44 -0.274162 -1.93972 0
M  V30 4822 H 465.02 -0.737052 -0.121507 0
M  V30 4823 H 467.682 -1.90755 0.399832 0
M  V30 4824 H 466.778 -3.06282 -0.599802 0
M  V30 4825 N 467.08 -0.0183926 -1.57589 0
M  V30 4826 C 468.305 0.676634 -1.96052 0
M  V30 4827 C 468.73 1.6548 -0.894307 0
M  V30 4828 O 468.088 1.80712 0.145849 0
M  V30 4829 C 468.136 1.36872 -3.33614 0
M  V30 4830 O 467.24 2.48372 -3.29219 0
M  V30 4831 H 466.581 0.1786 -0.63953 0
M  V30 4832 H 469.111 -0.077056 -2.04455 0
M  V30 4833 H 469.121 1.72797 -3.69601 0
M  V30 4834 H 467.796 0.651636 -4.10763 0
M  V30 4835 H 466.373 2.14639 -3.04934 0
M  V30 4836 N 468.558 1.5553 0.254621 0
M  V30 4837 C 469.806 1.7665 0.981793 0
M  V30 4838 C 470.127 0.580963 1.86145 0
M  V30 4839 O 469.397 -0.403537 1.91699 0
M  V30 4840 H 467.977 0.651475 0.365498 0
M  V30 4841 H 470.639 1.92958 0.274426 0
M  V30 4842 H 469.735 2.67486 1.60802 0
M  V30 4843 N 470.036 -0.519951 1.48776 0
M  V30 4844 C 470.983 -1.62352 1.64044 0
M  V30 4845 C 471.953 -1.58945 0.482251 0
M  V30 4846 O 473.138 -1.77219 0.706971 0
M  V30 4847 C 470.278 -3.00579 1.69547 0
M  V30 4848 C 469.391 -3.14145 2.96541 0
M  V30 4849 C 468.526 -4.42991 2.93142 0
M  V30 4850 C 467.565 -4.50122 4.14797 0
M  V30 4851 N 466.702 -5.7037 4.09418 0
M  V30 4852 H 471.542 -1.48643 2.58281 0
M  V30 4853 H 469.079 -0.723516 1.28077 0
M  V30 4854 H 471.037 -3.80671 1.70719 0
M  V30 4855 H 469.667 -3.13036 0.787918 0
M  V30 4856 H 468.719 -2.27239 3.05068 0
M  V30 4857 H 470.031 -3.15275 3.86527 0
M  V30 4858 H 469.185 -5.31385 2.92772 0
M  V30 4859 H 467.924 -4.44398 2.00902 0
M  V30 4860 H 466.929 -3.60133 4.15433 0
M  V30 4861 H 468.154 -4.50445 5.08208 0
M  V30 4862 H 466.1 -5.72655 3.20004 0
M  V30 4863 H 466.017 -5.73036 4.93119 0
M  V30 4864 H 467.285 -6.61023 4.13121 0
M  V30 4865 N 471.514 -1.37532 -0.769588 0
M  V30 4866 C 472.762 -1.32597 -1.5252 0
M  V30 4867 C 473.083 0.0884294 -1.94799 0
M  V30 4868 O 472.353 1.03289 -1.66458 0
M  V30 4869 H 470.933 -0.487846 -0.565699 0
M  V30 4870 H 473.595 -1.72044 -0.915806 0
M  V30 4871 H 472.691 -1.96643 -2.42359 0
M  V30 4872 N 472.992 0.995999 -1.22138 0
M  V30 4873 C 474.241 1.72928 -1.03821 0
M  V30 4874 C 474.554 1.90872 0.427444 0
M  V30 4875 O 475.76 2.61496 0.730212 0
M  V30 4876 C 474.216 3.11124 -1.80913 0
M  V30 4877 C 473.824 3.01122 -3.31707 0
M  V30 4878 C 475.568 3.8852 -1.71035 0
M  V30 4879 C 473.475 4.34453 -4.01253 0
M  V30 4880 H 472.405 0.648376 -0.384869 0
M  V30 4881 H 475.056 1.11213 -1.45959 0
M  V30 4882 H 473.438 3.73503 -1.31573 0
M  V30 4883 H 474.612 2.47926 -3.88419 0
M  V30 4884 H 472.927 2.3721 -3.42228 0
M  V30 4885 H 475.524 4.872 -2.20318 0
M  V30 4886 H 475.867 4.1087 -0.670196 0
M  V30 4887 H 476.4 3.32812 -2.17902 0
M  V30 4888 H 473.139 4.17303 -5.05508 0
M  V30 4889 H 472.659 4.87574 -3.49331 0
M  V30 4890 H 474.338 5.03215 -4.06674 0
M  V30 4891 N 474.47 1.03057 1.19235 0
M  V30 4892 C 475.716 0.729098 1.89241 0
M  V30 4893 C 476.049 -0.740573 1.79525 0
M  V30 4894 O 475.324 -1.53946 1.18874 0
M  V30 4895 C 475.607 1.18304 3.40112 0
M  V30 4896 C 475.46 2.71406 3.5869 0
M  V30 4897 C 476.779 0.765161 4.33397 0
M  V30 4898 H 473.898 0.266338 0.687192 0
M  V30 4899 H 476.54 1.28079 1.40341 0
M  V30 4900 H 474.69 0.713672 3.81889 0
M  V30 4901 H 476.362 3.26303 3.26074 0
M  V30 4902 H 474.605 3.11717 3.01687 0
M  V30 4903 H 475.276 2.98225 4.64506 0
M  V30 4904 H 477.752 1.16889 3.99345 0
M  V30 4905 H 476.628 1.11065 5.37546 0
M  V30 4906 H 476.889 -0.332372 4.40849 0
M  V30 4907 N 475.948 -1.35272 0.808662 0
M  V30 4908 C 477.197 -1.97963 0.386483 0
M  V30 4909 C 477.51 -1.64866 -1.05255 0
M  V30 4910 O 478.716 -2.20937 -1.57794 0
M  V30 4911 C 477.172 -3.54162 0.640096 0
M  V30 4912 C 476.78 -3.96166 2.0918 0
M  V30 4913 C 478.524 -4.23553 0.283376 0
M  V30 4914 C 476.431 -5.4522 2.29106 0
M  V30 4915 H 475.361 -0.740742 0.140774 0
M  V30 4916 H 478.012 -1.5431 0.993012 0
M  V30 4917 H 476.394 -3.95983 -0.0364117 0
M  V30 4918 H 477.568 -3.65491 2.80629 0
M  V30 4919 H 475.883 -3.3967 2.40859 0
M  V30 4920 H 478.48 -5.33124 0.410273 0
M  V30 4921 H 478.823 -4.09105 -0.770659 0
M  V30 4922 H 479.356 -3.8716 0.913884 0
M  V30 4923 H 476.095 -5.64638 3.32962 0
M  V30 4924 H 475.615 -5.77457 1.62184 0
M  V30 4925 H 477.294 -6.1171 2.1076 0
M  V30 4926 N 477.426 -0.562348 -1.47226 0
M  V30 4927 C 478.651 -0.0432632 -2.07355 0
M  V30 4928 C 479.076 1.24332 -1.41149 0
M  V30 4929 O 478.434 1.74603 -0.488226 0
M  V30 4930 C 478.482 0.130288 -3.60365 0
M  V30 4931 O 477.586 1.19166 -3.94808 0
M  V30 4932 H 476.927 -0.0536334 -0.66183 0
M  V30 4933 H 479.457 -0.779495 -1.89169 0
M  V30 4934 H 479.467 0.342881 -4.06557 0
M  V30 4935 H 478.142 -0.809389 -4.07948 0
M  V30 4936 H 476.719 0.959153 -3.60354 0
M  V30 4937 N 478.904 1.54736 -0.299062 0
M  V30 4938 C 480.132 2.04512 0.313447 0
M  V30 4939 C 480.547 1.17643 1.47667 0
M  V30 4940 O 479.904 0.20164 1.81383 0
M  V30 4941 C 479.955 3.53171 0.771542 0
M  V30 4942 O 479.676 4.36736 -0.345379 0
M  V30 4943 C 481.177 4.18936 1.4494 0
M  V30 4944 H 478.397 0.667507 0.0683784 0
M  V30 4945 H 480.941 1.99752 -0.438129 0
M  V30 4946 H 479.096 3.58298 1.47314 0
M  V30 4947 H 479.51 5.24499 0.0109219 0
M  V30 4948 H 480.984 5.24482 1.72111 0
M  V30 4949 H 481.461 3.68554 2.38883 0
M  V30 4950 H 482.067 4.17879 0.791028 0
M  V30 4951 N 480.382 0.0267497 1.57577 0
M  V30 4952 C 481.63 -0.651116 1.91324 0
M  V30 4953 C 481.951 -1.72804 0.90353 0
M  V30 4954 O 481.221 -1.95822 -0.0552946 0
M  V30 4955 H 479.801 -0.243491 0.706202 0
M  V30 4956 H 482.463 0.0739935 1.94759 0
M  V30 4957 H 481.559 -1.10536 2.9187 0
M  V30 4958 N 481.861 -1.55662 -0.24637 0
M  V30 4959 C 482.791 -1.93377 -1.30873 0
M  V30 4960 C 483.772 -0.798773 -1.50179 0
M  V30 4961 O 484.957 -1.0591 -1.62778 0
M  V30 4962 C 482.087 -2.22893 -2.66338 0
M  V30 4963 C 481.041 -3.38649 -2.61727 0
M  V30 4964 C 480.367 -3.53708 -4.00992 0
M  V30 4965 C 481.667 -4.74323 -2.18666 0
M  V30 4966 H 483.361 -2.82363 -0.995552 0
M  V30 4967 H 480.907 -1.35854 -0.477464 0
M  V30 4968 H 482.86 -2.47866 -3.40794 0
M  V30 4969 H 481.584 -1.30733 -2.99293 0
M  V30 4970 H 480.243 -3.13685 -1.89729 0
M  V30 4971 H 479.891 -2.58967 -4.31214 0
M  V30 4972 H 479.591 -4.31551 -3.98795 0
M  V30 4973 H 481.115 -3.81003 -4.77147 0
M  V30 4974 H 482.529 -4.98665 -2.82854 0
M  V30 4975 H 480.926 -5.55273 -2.27579 0
M  V30 4976 H 481.996 -4.71349 -1.13834 0
M  V30 4977 N 483.339 0.512053 -1.4905 0
M  V30 4978 C 484.616 1.27337 -1.48474 0
M  V30 4979 C 484.996 2.1009 -0.206301 0
M  V30 4980 O 484.344 2.136 0.811609 0
M  V30 4981 C 484.554 2.13954 -2.75726 0
M  V30 4982 C 485.902 2.73507 -3.24776 0
M  V30 4983 O 486.926 2.24229 -2.76767 0
M  V30 4984 O 485.785 3.63186 -4.08361 0
M  V30 4985 H 482.879 0.575652 -0.593762 0
M  V30 4986 H 485.425 0.527232 -1.61302 0
M  V30 4987 H 484.197 1.52709 -3.60272 0
M  V30 4988 H 483.82 2.95782 -2.65705 0
M  V30 4989 N 484.817 1.37938 0.762283 0
M  V30 4990 C 486.045 1.36883 1.55147 0
M  V30 4991 C 486.46 -0.0435348 1.8875 0
M  V30 4992 O 485.817 -1.00786 1.52146 0
M  V30 4993 C 485.868 2.21624 2.85596 0
M  V30 4994 O 485.589 3.57358 2.5343 0
M  V30 4995 C 487.09 2.28653 3.7978 0
M  V30 4996 H 484.31 0.468521 0.480343 0
M  V30 4997 H 486.854 1.81404 0.944079 0
M  V30 4998 H 485.009 1.80588 3.42734 0
M  V30 4999 H 485.423 4.01883 3.37032 0
M  V30 5000 H 486.897 2.9225 4.68288 0
M  V30 5001 H 487.374 1.29767 4.19592 0
M  V30 5002 H 487.98 2.70043 3.28568 0
M  V30 5003 N 486.295 -0.989507 1.22664 0
M  V30 5004 C 487.227 -2.0824 0.957542 0
M  V30 5005 C 488.24 -1.6267 -0.0651098 0
M  V30 5006 O 489.429 -1.77695 0.169312 0
M  V30 5007 C 486.529 -3.36298 0.419145 0
M  V30 5008 C 485.702 -4.10882 1.49982 0
M  V30 5009 C 484.761 -5.17221 0.967904 0
M  V30 5010 O 483.787 -5.44613 1.65487 0
M  V30 5011 N 484.989 -5.80124 -0.20896 0
M  V30 5012 H 487.754 -2.31904 1.89843 0
M  V30 5013 H 485.315 -1.15552 1.13399 0
M  V30 5014 H 487.307 -4.04671 0.0485451 0
M  V30 5015 H 485.877 -3.09671 -0.426937 0
M  V30 5016 H 485.097 -3.37092 2.04359 0
M  V30 5017 H 486.385 -4.57482 2.22682 0
M  V30 5018 H 485.783 -5.60244 -0.783818 0
M  V30 5019 H 484.34 -6.49715 -0.520913 0
M  V30 5020 N 487.773 -1.03688 -1.18687 0
M  V30 5021 C 489.019 -0.739123 -1.88851 0
M  V30 5022 C 489.352 0.731042 -1.79915 0
M  V30 5023 O 488.627 1.53313 -1.19688 0
M  V30 5024 C 488.91 -1.20106 -3.3948 0
M  V30 5025 C 488.763 -2.73304 -3.57246 0
M  V30 5026 C 490.082 -0.788134 -4.32986 0
M  V30 5027 H 487.201 -0.269978 -0.68577 0
M  V30 5028 H 489.843 -1.28822 -1.3966 0
M  V30 5029 H 487.993 -0.733915 -3.81505 0
M  V30 5030 H 489.665 -3.28027 -3.24339 0
M  V30 5031 H 487.908 -3.13313 -3.00029 0
M  V30 5032 H 488.579 -3.00684 -4.62918 0
M  V30 5033 H 491.055 -1.19005 -3.98719 0
M  V30 5034 H 489.931 -1.13915 -5.36949 0
M  V30 5035 H 490.192 0.308988 -4.41019 0
M  V30 5036 N 489.251 1.34841 -0.815825 0
M  V30 5037 C 490.499 1.98107 -0.399744 0
M  V30 5038 C 490.82 1.65019 1.03894 0
M  V30 5039 O 490.09 0.937311 1.72021 0
M  V30 5040 H 488.67 0.732827 -0.144823 0
M  V30 5041 H 491.332 1.64599 -1.0437 0
M  V30 5042 H 490.428 3.07856 -0.512965 0
M  V30 5043 N 490.729 0.570148 1.46925 0
M  V30 5044 C 491.676 -0.170257 2.30171 0
M  V30 5045 C 492.646 -0.896099 1.39855 0
M  V30 5046 O 493.831 -0.889248 1.68811 0
M  V30 5047 C 490.971 -1.18605 3.24079 0
M  V30 5048 C 490.084 -0.464947 4.29491 0
M  V30 5049 C 489.219 -1.46716 5.10537 0
M  V30 5050 C 488.258 -0.731758 6.0771 0
M  V30 5051 N 487.395 -1.68142 6.81669 0
M  V30 5052 H 492.235 0.545713 2.92961 0
M  V30 5053 H 489.772 0.280938 1.44392 0
M  V30 5054 H 491.73 -1.78771 3.76957 0
M  V30 5055 H 490.36 -1.86989 2.63125 0
M  V30 5056 H 489.412 0.251506 3.79568 0
M  V30 5057 H 490.724 0.110548 4.98677 0
M  V30 5058 H 489.878 -2.14199 5.6763 0
M  V30 5059 H 488.617 -2.07658 4.41282 0
M  V30 5060 H 487.622 -0.0430787 5.49783 0
M  V30 5061 H 488.847 -0.127904 6.7898 0
M  V30 5062 H 486.793 -2.27918 6.15134 0
M  V30 5063 H 486.71 -1.15841 7.47072 0
M  V30 5064 H 487.978 -2.347 7.43328 0
M  V30 5065 N 492.207 -1.54576 0.307264 0
M  V30 5066 C 493.456 -1.99442 -0.300976 0
M  V30 5067 C 493.769 -1.19928 -1.5452 0
M  V30 5068 O 494.975 -1.55092 -2.22842 0
M  V30 5069 C 493.431 -3.55084 -0.586809 0
M  V30 5070 C 493.039 -4.43413 0.639438 0
M  V30 5071 C 494.783 -4.0846 -1.1559 0
M  V30 5072 C 492.69 -5.90499 0.326411 0
M  V30 5073 H 491.62 -0.744986 -0.116238 0
M  V30 5074 H 494.271 -1.787 0.416947 0
M  V30 5075 H 492.653 -3.71749 -1.36449 0
M  V30 5076 H 493.827 -4.38522 1.41545 0
M  V30 5077 H 492.142 -4.00842 1.1276 0
M  V30 5078 H 494.739 -5.15926 -1.40445 0
M  V30 5079 H 495.082 -3.59443 -2.10015 0
M  V30 5080 H 495.615 -3.95362 -0.439778 0
M  V30 5081 H 492.354 -6.43676 1.23939 0
M  V30 5082 H 491.874 -5.98382 -0.412212 0
M  V30 5083 H 493.553 -6.46962 -0.0697393 0
M  V30 5084 N 493.685 -0.035106 -1.57561 0
M  V30 5085 C 494.648 0.929819 -2.09492 0
M  V30 5086 C 495.648 1.25026 -1.01119 0
M  V30 5087 O 496.838 1.18961 -1.27255 0
M  V30 5088 C 493.97 2.24457 -2.56577 0
M  V30 5089 H 495.163 0.479935 -2.96035 0
M  V30 5090 H 492.716 0.213033 -1.54841 0
M  V30 5091 H 493.451 2.74061 -1.73382 0
M  V30 5092 H 493.236 2.02508 -3.35757 0
M  V30 5093 H 494.726 2.93607 -2.96959 0
M  V30 5094 N 495.163 1.55791 0.238111 0
M  V30 5095 C 496.388 1.8244 0.986432 0
M  V30 5096 C 496.813 0.613314 1.7782 0
M  V30 5097 O 496.171 -0.437767 1.75935 0
M  V30 5098 C 496.219 3.06917 1.893 0
M  V30 5099 O 495.323 2.84449 2.98601 0
M  V30 5100 H 494.664 0.601975 0.280218 0
M  V30 5101 H 497.194 2.02987 0.256437 0
M  V30 5102 H 497.204 3.36583 2.30598 0
M  V30 5103 H 495.879 3.947 1.31091 0
M  V30 5104 H 494.456 2.65972 2.61368 0
M  V30 5105 N 496.642 -0.504142 1.49319 0
M  V30 5106 C 497.574 -1.62265 1.61872 0
M  V30 5107 C 498.587 -1.54881 0.501573 0
M  V30 5108 O 499.776 -1.6087 0.773497 0
M  V30 5109 C 496.876 -3.01042 1.55651 0
M  V30 5110 C 496.049 -3.33642 2.82845 0
M  V30 5111 C 495.108 -4.51816 2.69719 0
M  V30 5112 O 494.134 -4.53755 3.4365 0
M  V30 5113 N 495.336 -5.51543 1.81055 0
M  V30 5114 H 498.101 -1.51924 2.58339 0
M  V30 5115 H 495.662 -0.691954 1.46368 0
M  V30 5116 H 497.654 -3.78013 1.44528 0
M  V30 5117 H 496.224 -3.05323 0.670546 0
M  V30 5118 H 495.444 -2.45598 3.08343 0
M  V30 5119 H 496.732 -3.5222 3.67177 0
M  V30 5120 H 496.13 -5.52774 1.20241 0
M  V30 5121 H 494.687 -6.27629 1.75856 0
M  V30 5122 N 498.12 -1.38341 -0.754957 0
M  V30 5123 C 499.05 -1.38176 -1.88227 0
M  V30 5124 C 500.031 -0.247873 -1.68284 0
M  V30 5125 O 501.216 -0.45075 -1.88896 0
M  V30 5126 C 498.346 -1.20471 -3.25736 0
M  V30 5127 C 497.3 -2.3105 -3.60278 0
M  V30 5128 C 496.626 -1.98452 -4.96509 0
M  V30 5129 C 497.926 -3.73305 -3.65295 0
M  V30 5130 H 499.62 -2.32512 -1.88622 0
M  V30 5131 H 497.166 -1.1192 -0.906082 0
M  V30 5132 H 499.119 -1.18982 -4.04254 0
M  V30 5133 H 497.843 -0.225965 -3.25817 0
M  V30 5134 H 496.502 -2.31723 -2.84078 0
M  V30 5135 H 496.15 -0.990641 -4.93148 0
M  V30 5136 H 495.85 -2.7251 -5.20588 0
M  V30 5137 H 497.374 -1.98578 -5.77407 0
M  V30 5138 H 498.788 -3.7467 -4.3393 0
M  V30 5139 H 497.185 -4.46557 -4.00883 0
M  V30 5140 H 498.255 -4.05719 -2.65556 0
M  V30 5141 N 499.598 0.982988 -1.23187 0
M  V30 5142 C 500.545 2.07491 -1.01075 0
M  V30 5143 C 501.515 1.65949 0.070905 0
M  V30 5144 O 502.7 1.90629 -0.0806822 0
M  V30 5145 C 499.84 3.39751 -0.605261 0
M  V30 5146 C 498.953 3.94578 -1.75876 0
M  V30 5147 C 498.088 5.15039 -1.3003 0
M  V30 5148 C 497.127 5.62027 -2.42472 0
M  V30 5149 N 496.264 6.73719 -1.97602 0
M  V30 5150 H 501.104 2.25739 -1.9454 0
M  V30 5151 H 498.641 1.10659 -0.969179 0
M  V30 5152 H 500.599 4.15719 -0.351279 0
M  V30 5153 H 499.229 3.21473 0.292382 0
M  V30 5154 H 498.281 3.1539 -2.12681 0
M  V30 5155 H 499.593 4.25422 -2.60418 0
M  V30 5156 H 498.747 5.9833 -1.00429 0
M  V30 5157 H 497.486 4.85843 -0.425216 0
M  V30 5158 H 496.491 4.77318 -2.7285 0
M  V30 5159 H 497.716 5.93244 -3.30512 0
M  V30 5160 H 495.662 6.46287 -1.1247 0
M  V30 5161 H 495.579 7.03934 -2.75705 0
M  V30 5162 H 496.847 7.6049 -1.71098 0
M  V30 5163 N 501.076 1.04316 1.18135 0
M  V30 5164 C 502.023 0.636398 2.21853 0
M  V30 5165 C 502.993 -0.357039 1.62217 0
M  V30 5166 O 504.178 -0.250453 1.89149 0
M  V30 5167 C 501.318 0.00812779 3.45099 0
M  V30 5168 C 500.431 1.04933 4.19062 0
M  V30 5169 C 499.566 0.389313 5.29771 0
M  V30 5170 C 498.605 1.41544 5.9551 0
M  V30 5171 N 497.742 0.78021 6.97751 0
M  V30 5172 H 502.582 1.52536 2.56002 0
M  V30 5173 H 500.119 0.76304 1.25762 0
M  V30 5174 H 502.077 -0.373497 4.15525 0
M  V30 5175 H 500.707 -0.844336 3.11562 0
M  V30 5176 H 499.759 1.54888 3.47439 0
M  V30 5177 H 501.071 1.82862 4.64072 0
M  V30 5178 H 500.225 -0.0463805 6.06682 0
M  V30 5179 H 498.964 -0.422038 4.8587 0
M  V30 5180 H 497.969 1.86124 5.17337 0
M  V30 5181 H 499.194 2.22854 6.41493 0
M  V30 5182 H 497.14 -0.0107899 6.55999 0
M  V30 5183 H 497.057 1.49716 7.41027 0
M  V30 5184 H 498.325 0.368996 7.78626 0
M  V30 5185 N 502.554 -1.34406 0.822964 0
M  V30 5186 C 503.779 -2.0304 0.423034 0
M  V30 5187 C 504.204 -1.61568 -0.963196 0
M  V30 5188 O 503.562 -0.800339 -1.62678 0
M  V30 5189 C 503.61 -3.56636 0.53321 0
M  V30 5190 O 502.714 -4.09971 -0.446939 0
M  V30 5191 H 502.055 -0.64075 0.174171 0
M  V30 5192 H 504.585 -1.71653 1.11339 0
M  V30 5193 H 504.595 -4.05945 0.408991 0
M  V30 5194 H 503.27 -3.86168 1.54425 0
M  V30 5195 H 501.847 -3.71835 -0.281601 0
M  V30 5196 N 504.032 -0.577932 -1.46621 0
M  V30 5197 C 505.257 -0.0652536 -2.07297 0
M  V30 5198 C 505.682 1.22828 -1.4246 0
M  V30 5199 O 505.04 1.74075 -0.506718 0
M  V30 5200 C 505.088 0.0920589 -3.60482 0
M  V30 5201 O 504.192 1.14972 -3.96049 0
M  V30 5202 H 503.533 -0.06065 -0.661224 0
M  V30 5203 H 506.063 -0.799515 -1.88332 0
M  V30 5204 H 506.073 0.299741 -4.06897 0
M  V30 5205 H 504.748 -0.852612 -4.07067 0
M  V30 5206 H 503.325 0.920879 -3.61351 0
M  V30 5207 N 505.51 1.54411 -0.315457 0
M  V30 5208 C 506.457 2.24048 0.554166 0
M  V30 5209 C 507.427 1.2283 1.11812 0
M  V30 5210 O 508.612 1.51491 1.15997 0
M  V30 5211 C 505.752 2.99574 1.71316 0
M  V30 5212 C 504.865 4.15594 1.17922 0
M  V30 5213 C 504 4.78669 2.30324 0
M  V30 5214 C 503.039 5.86807 1.74137 0
M  V30 5215 N 502.176 6.43777 2.8017 0
M  V30 5216 H 507.016 2.97964 -0.0462602 0
M  V30 5217 H 504.553 1.47059 -0.0346009 0
M  V30 5218 H 506.511 3.41604 2.39505 0
M  V30 5219 H 505.141 2.28008 2.285 0
M  V30 5220 H 504.193 3.78404 0.389136 0
M  V30 5221 H 505.505 4.93459 0.728012 0
M  V30 5222 H 504.659 5.23626 3.06433 0
M  V30 5223 H 503.398 4.00168 2.78778 0
M  V30 5224 H 502.403 5.41261 0.965236 0
M  V30 5225 H 503.628 6.67201 1.2657 0
M  V30 5226 H 501.574 5.68153 3.2793 0
M  V30 5227 H 501.491 7.17031 2.39588 0
M  V30 5228 H 502.759 6.9339 3.56132 0
M  V30 5229 N 506.988 0.0434614 1.5754 0
M  V30 5230 C 508.236 -0.630786 1.92004 0
M  V30 5231 C 508.557 -1.71836 0.921807 0
M  V30 5232 O 507.827 -1.9587 -0.034522 0
M  V30 5233 H 506.407 -0.235988 0.708745 0
M  V30 5234 H 509.069 0.0946462 1.9467 0
M  V30 5235 H 508.165 -1.07434 2.93026 0
M  V30 5236 N 508.466 -1.55915 -0.229846 0
M  V30 5237 C 509.691 -1.8296 -0.976743 0
M  V30 5238 C 510.116 -0.622735 -1.77493 0
M  V30 5239 O 509.474 0.428431 -1.76165 0
M  V30 5240 C 509.522 -3.07916 -1.8767 0
M  V30 5241 O 508.626 -2.86028 -2.97088 0
M  V30 5242 H 507.967 -0.603453 -0.277021 0
M  V30 5243 H 510.497 -2.0312 -0.245669 0
M  V30 5244 H 510.507 -3.37802 -2.2881 0
M  V30 5245 H 509.182 -3.95389 -1.28996 0
M  V30 5246 H 507.759 -2.67355 -2.59954 0
M  V30 5247 N 509.944 0.496216 -1.49584 0
M  V30 5248 C 510.891 1.59722 -1.66606 0
M  V30 5249 C 511.861 1.58158 -0.507477 0
M  V30 5250 O 513.046 1.76072 -0.735076 0
M  V30 5251 C 510.186 2.97844 -1.74308 0
M  V30 5252 C 509.299 3.09388 -3.01502 0
M  V30 5253 C 508.434 4.38271 -3.00153 0
M  V30 5254 C 507.473 4.43466 -4.21906 0
M  V30 5255 N 506.61 5.63784 -4.1844 0
M  V30 5256 H 511.45 1.44515 -2.60613 0
M  V30 5257 H 508.987 0.703048 -1.29212 0
M  V30 5258 H 510.945 3.77907 -1.76754 0
M  V30 5259 H 509.575 3.11743 -0.837619 0
M  V30 5260 H 508.627 2.22357 -3.08645 0
M  V30 5261 H 509.939 3.09085 -3.91494 0
M  V30 5262 H 509.093 5.2666 -3.01188 0
M  V30 5263 H 507.832 4.41146 -2.07947 0
M  V30 5264 H 506.837 3.53478 -4.21109 0
M  V30 5265 H 508.062 4.42303 -5.1531 0
M  V30 5266 H 506.008 5.67491 -3.29074 0
M  V30 5267 H 505.925 5.65118 -5.02173 0
M  V30 5268 H 507.193 6.54367 -4.23585 0
M  V30 5269 N 511.423 1.38739 0.74761 0
M  V30 5270 C 512.353 1.39173 1.87492 0
M  V30 5271 C 513.334 0.256794 1.6815 0
M  V30 5272 O 514.519 0.460762 1.88655 0
M  V30 5273 C 511.649 1.22197 3.25093 0
M  V30 5274 C 510.603 2.32957 3.59047 0
M  V30 5275 C 509.929 2.01082 4.95449 0
M  V30 5276 C 511.229 3.75237 3.6331 0
M  V30 5277 H 512.923 2.3351 1.87386 0
M  V30 5278 H 510.469 1.12399 0.900134 0
M  V30 5279 H 512.422 1.21124 4.03617 0
M  V30 5280 H 511.146 0.243241 3.25693 0
M  V30 5281 H 509.805 2.33226 2.82845 0
M  V30 5282 H 509.453 1.01678 4.92616 0
M  V30 5283 H 509.153 2.75267 5.19136 0
M  V30 5284 H 510.677 2.01638 5.76346 0
M  V30 5285 H 512.091 3.76966 4.31937 0
M  V30 5286 H 510.488 4.48677 3.98509 0
M  V30 5287 H 511.558 4.07122 2.634 0
M  V30 5288 N 512.901 -0.976442 1.23707 0
M  V30 5289 C 514.129 -1.75341 1.09833 0
M  V30 5290 C 514.544 -1.8553 -0.349885 0
M  V30 5291 O 513.901 -1.33732 -1.24185 0
M  V30 5292 C 513.952 -3.17833 1.72233 0
M  V30 5293 O 513.673 -3.08167 3.11391 0
M  V30 5294 C 515.174 -4.11906 1.63853 0
M  V30 5295 H 512.394 -0.550137 0.384175 0
M  V30 5296 H 514.938 -1.2265 1.63638 0
M  V30 5297 H 513.093 -3.67538 1.22452 0
M  V30 5298 H 513.507 -3.97897 3.41729 0
M  V30 5299 H 514.981 -5.09579 2.12211 0
M  V30 5300 H 515.458 -4.35109 0.598092 0
M  V30 5301 H 516.064 -3.68107 2.13019 0
M  V30 5302 N 514.379 -1.04941 -1.1758 0
M  V30 5303 C 515.79 -0.784501 -1.69418 0
M  V30 5304 C 516.141 0.693625 -1.8353 0
M  V30 5305 O 515.266 1.53925 -1.52106 0
M  V30 5306 C 515.861 -1.41746 -3.07723 0
M  V30 5307 C 514.42 -1.20066 -3.56737 0
M  V30 5308 C 513.567 -1.5026 -2.33061 0
M  V30 5309 H 516.518 -1.21469 -1.02133 0
M  V30 5310 H 516.539 -0.825381 -3.7144 0
M  V30 5311 H 516.051 -2.49325 -2.9742 0
M  V30 5312 H 514.152 -0.144006 -3.72322 0
M  V30 5313 H 514.265 -1.90384 -4.39648 0
M  V30 5314 H 512.629 -0.922598 -2.37403 0
M  V30 5315 H 513.412 -2.58967 -2.25368 0
M  V30 5316 N 515.857 1.33968 -0.830081 0
M  V30 5317 C 516.787 2.31911 -0.271911 0
M  V30 5318 C 517.768 1.58571 0.61556 0
M  V30 5319 O 518.953 1.86514 0.540946 0
M  V30 5320 C 516.083 3.42737 0.561146 0
M  V30 5321 C 515.037 4.27383 -0.229789 0
M  V30 5322 C 514.363 5.29742 0.726463 0
M  V30 5323 C 515.663 5.02 -1.44197 0
M  V30 5324 H 517.357 2.78844 -1.09025 0
M  V30 5325 H 514.903 1.34061 -0.52571 0
M  V30 5326 H 516.856 4.10276 0.961867 0
M  V30 5327 H 515.58 2.94471 1.41261 0
M  V30 5328 H 514.239 3.61456 -0.611964 0
M  V30 5329 H 513.887 4.77736 1.57408 0
M  V30 5330 H 513.587 5.87255 0.20142 0
M  V30 5331 H 515.111 6.00149 1.12489 0
M  V30 5332 H 516.525 5.62355 -1.11488 0
M  V30 5333 H 514.922 5.69122 -1.90317 0
M  V30 5334 H 515.992 4.31281 -2.2164 0
M  V30 5335 N 517.335 0.585699 1.46312 0
M  V30 5336 C 518.267 -0.183687 2.28463 0
M  V30 5337 C 519.28 -0.85264 1.38686 0
M  V30 5338 O 520.469 -0.721701 1.6326 0
M  V30 5339 C 517.569 -1.27977 3.13808 0
M  V30 5340 C 516.742 -0.702164 4.31727 0
M  V30 5341 C 515.801 -1.68633 4.98447 0
M  V30 5342 O 514.827 -1.22121 5.55945 0
M  V30 5343 N 516.029 -3.02047 4.95729 0
M  V30 5344 H 518.794 0.521127 2.95134 0
M  V30 5345 H 516.355 0.423673 1.56258 0
M  V30 5346 H 518.347 -1.9375 3.55307 0
M  V30 5347 H 516.917 -1.8874 2.4919 0
M  V30 5348 H 516.137 0.1331 3.93975 0
M  V30 5349 H 517.425 -0.296101 5.07938 0
M  V30 5350 H 516.823 -3.42457 4.50266 0
M  V30 5351 H 515.38 -3.63301 5.41161 0
M  V30 5352 N 518.813 -1.54241 0.323641 0
M  V30 5353 C 520.059 -2.00867 -0.279323 0
M  V30 5354 C 520.392 -1.21146 -1.5178 0
M  V30 5355 O 519.667 -0.29378 -1.92269 0
M  V30 5356 C 519.95 -3.54837 -0.613387 0
M  V30 5357 C 519.803 -4.45284 0.635803 0
M  V30 5358 C 521.122 -4.16186 -1.43099 0
M  V30 5359 H 518.241 -0.730177 -0.100049 0
M  V30 5360 H 520.883 -1.84829 0.440235 0
M  V30 5361 H 519.033 -3.68634 -1.22641 0
M  V30 5362 H 520.705 -4.43357 1.27406 0
M  V30 5363 H 518.948 -4.14956 1.26466 0
M  V30 5364 H 519.619 -5.5084 0.357597 0
M  V30 5365 H 522.095 -4.05964 -0.912814 0
M  V30 5366 H 520.971 -5.24031 -1.6335 0
M  V30 5367 H 521.232 -3.69516 -2.42715 0
M  V30 5368 N 520.291 -0.0518155 -1.57515 0
M  V30 5369 C 521.254 0.907547 -2.10467 0
M  V30 5370 C 522.254 1.23947 -1.02439 0
M  V30 5371 O 523.444 1.17604 -1.2851 0
M  V30 5372 C 520.576 2.21723 -2.58944 0
M  V30 5373 H 521.769 0.44851 -2.96527 0
M  V30 5374 H 519.322 0.196598 -1.55059 0
M  V30 5375 H 520.057 2.72206 -1.76279 0
M  V30 5376 H 519.842 1.98935 -3.37886 0
M  V30 5377 H 521.332 2.90441 -3.00056 0
M  V30 5378 N 521.769 1.56035 0.221574 0
M  V30 5379 C 522.699 1.95434 1.2778 0
M  V30 5380 C 523.68 0.822564 1.48889 0
M  V30 5381 O 524.865 1.08486 1.61072 0
M  V30 5382 C 521.995 2.27102 2.62759 0
M  V30 5383 C 520.949 3.4277 2.56306 0
M  V30 5384 C 520.275 3.60043 3.95314 0
M  V30 5385 C 521.575 4.77742 2.11093 0
M  V30 5386 H 523.269 2.83912 0.950504 0
M  V30 5387 H 520.815 1.36596 0.455791 0
M  V30 5388 H 522.768 2.53256 3.36807 0
M  V30 5389 H 521.492 1.35478 2.97176 0
M  V30 5390 H 520.151 3.16664 1.84715 0
M  V30 5391 H 519.799 2.65794 4.27039 0
M  V30 5392 H 519.499 4.37841 3.91879 0
M  V30 5393 H 521.023 3.88545 4.71025 0
M  V30 5394 H 522.437 5.03102 2.74885 0
M  V30 5395 H 520.834 5.58823 2.18716 0
M  V30 5396 H 521.904 4.731 1.06321 0
M  V30 5397 N 523.247 -0.488276 1.49845 0
M  V30 5398 C 524.195 -1.60917 1.67954 0
M  V30 5399 C 525.189 -1.6038 0.54539 0
M  V30 5400 O 526.395 -1.64736 0.7254 0
M  V30 5401 H 522.77 -0.533658 0.529824 0
M  V30 5402 H 524.741 -1.428 2.62013 0
M  V30 5403 C 523.49 -2.98975 1.77509 0
M  V30 5404 H 522.813 -3.00099 2.6416 0
M  V30 5405 H 524.253 -3.76906 1.9421 0
M  V30 5406 C 522.712 -3.3282 0.522745 0
M  V30 5407 O 523.242 -4.00208 -0.345866 0
M  V30 5408 N 521.448 -2.8808 0.381882 0
M  V30 5409 H 520.995 -2.33415 1.08974 0
M  V30 5410 H 520.953 -3.11091 -0.454929 0
M  V30 5411 N 524.725 -1.39134 -0.740242 0
M  V30 5412 C 525.672 -1.37434 -1.8542 0
M  V30 5413 C 526.642 -0.234822 -1.64432 0
M  V30 5414 O 527.827 -0.429125 -1.85912 0
M  V30 5415 C 524.967 -1.21844 -3.22875 0
M  V30 5416 C 524.08 -2.45296 -3.55603 0
M  V30 5417 C 523.215 -2.22334 -4.82432 0
M  V30 5418 C 522.254 -3.41488 -5.07988 0
M  V30 5419 N 521.391 -3.17877 -6.26018 0
M  V30 5420 H 526.231 -2.3266 -1.86207 0
M  V30 5421 H 523.768 -1.15578 -0.909946 0
M  V30 5422 H 525.726 -1.10818 -4.02213 0
M  V30 5423 H 524.356 -0.3025 -3.21379 0
M  V30 5424 H 523.408 -2.66945 -2.71006 0
M  V30 5425 H 524.72 -3.34063 -3.7041 0
M  V30 5426 H 523.874 -2.0852 -5.69741 0
M  V30 5427 H 522.613 -1.30954 -4.6979 0
M  V30 5428 H 521.618 -3.55807 -4.19144 0
M  V30 5429 H 522.843 -4.33763 -5.22519 0
M  V30 5430 H 520.789 -2.29156 -6.14673 0
M  V30 5431 H 520.706 -4.00198 -6.41387 0
M  V30 5432 H 521.974 -3.07746 -7.16179 0
M  V30 5433 N 526.204 0.969867 -1.24223 0
M  V30 5434 C 527.134 2.08191 -1.05729 0
M  V30 5435 C 528.115 1.70075 0.0290765 0
M  V30 5436 O 529.3 1.93712 -0.137583 0
M  V30 5437 C 526.43 3.40991 -0.658995 0
M  V30 5438 C 525.384 3.93054 -1.69389 0
M  V30 5439 C 524.71 5.22171 -1.15072 0
M  V30 5440 C 526.01 4.21137 -3.08935 0
M  V30 5441 H 527.704 2.23921 -1.98746 0
M  V30 5442 H 525.25 1.07602 -0.956967 0
M  V30 5443 H 527.203 4.18221 -0.51662 0
M  V30 5444 H 525.927 3.25155 0.30686 0
M  V30 5445 H 524.586 3.17977 -1.82444 0
M  V30 5446 H 524.234 5.02694 -0.175539 0
M  V30 5447 H 523.934 5.57973 -1.84229 0
M  V30 5448 H 525.458 6.02013 -1.02042 0
M  V30 5449 H 526.872 4.8908 -2.99121 0
M  V30 5450 H 525.269 4.68163 -3.75425 0
M  V30 5451 H 526.339 3.27996 -3.57137 0
M  V30 5452 N 527.682 1.05563 1.17022 0
M  V30 5453 C 528.93 0.76642 1.87004 0
M  V30 5454 C 529.251 -0.708854 1.8166 0
M  V30 5455 O 528.521 -1.51242 1.2451 0
M  V30 5456 H 527.101 0.280516 0.692329 0
M  V30 5457 H 529.763 1.33557 1.41945 0
M  V30 5458 H 528.859 1.08472 2.92644 0
M  V30 5459 N 529.16 -1.33526 0.837174 0
M  V30 5460 C 530.408 -1.97446 0.431211 0
M  V30 5461 C 530.729 -1.6665 -1.01255 0
M  V30 5462 O 529.999 -0.964559 -1.70508 0
M  V30 5463 H 528.579 -0.73043 0.156463 0
M  V30 5464 H 531.241 -1.62918 1.06976 0
M  V30 5465 H 530.337 -3.07001 0.561877 0
M  V30 5466 N 530.638 -0.59345 -1.46 0
M  V30 5467 C 531.568 0.121192 -2.33185 0
M  V30 5468 C 532.549 0.872977 -1.4599 0
M  V30 5469 O 533.734 0.846321 -1.74789 0
M  V30 5470 C 530.864 1.12844 -3.28456 0
M  V30 5471 C 529.818 0.4908 -4.25177 0
M  V30 5472 C 529.144 1.60529 -5.10034 0
M  V30 5473 C 530.444 -0.578949 -5.19081 0
M  V30 5474 H 532.138 -0.606767 -2.93187 0
M  V30 5475 H 529.684 -0.293242 -1.40983 0
M  V30 5476 H 531.637 1.63684 -3.88311 0
M  V30 5477 H 530.361 1.88681 -2.66584 0
M  V30 5478 H 529.02 0.00339328 -3.666 0
M  V30 5479 H 528.668 2.35359 -4.44539 0
M  V30 5480 H 528.368 1.18422 -5.75543 0
M  V30 5481 H 529.892 2.11623 -5.72755 0
M  V30 5482 H 531.306 -0.155199 -5.7309 0
M  V30 5483 H 529.703 -0.920947 -5.92991 0
M  V30 5484 H 530.773 -1.46109 -4.62364 0
M  V30 5485 N 532.116 1.54067 -0.331816 0
M  V30 5486 C 533.365 1.99895 0.269209 0
M  V30 5487 C 533.678 1.22371 1.52593 0
M  V30 5488 O 534.884 1.58618 2.20347 0
M  V30 5489 C 533.34 3.55972 0.530244 0
M  V30 5490 C 532.948 4.4234 -0.709901 0
M  V30 5491 C 534.692 4.10247 1.09077 0
M  V30 5492 C 532.599 5.89905 -0.420312 0
M  V30 5493 H 531.529 0.746741 0.104371 0
M  V30 5494 H 534.18 1.78014 -0.445324 0
M  V30 5495 H 532.562 3.73873 1.30518 0
M  V30 5496 H 533.736 4.36215 -1.48504 0
M  V30 5497 H 532.051 3.98997 -1.19123 0
M  V30 5498 H 534.648 5.18095 1.32219 0
M  V30 5499 H 534.991 3.62739 2.0427 0
M  V30 5500 H 535.524 3.96011 0.376824 0
M  V30 5501 H 532.263 6.41623 -1.34164 0
M  V30 5502 H 531.783 5.98962 0.316962 0
M  V30 5503 H 533.462 6.46991 -0.0331956 0
M  V30 5504 N 533.594 0.0601682 1.57485 0
M  V30 5505 C 534.842 -0.610386 1.92662 0
M  V30 5506 C 535.163 -1.70849 0.939981 0
M  V30 5507 O 534.433 -1.95895 -0.0137455 0
M  V30 5508 H 533.013 -0.228457 0.711208 0
M  V30 5509 H 535.675 0.115288 1.94559 0
M  V30 5510 H 534.771 -1.0432 2.94149 0
M  V30 5511 N 535.072 -1.5615 -0.213296 0
M  V30 5512 C 536.002 -1.96109 -1.26742 0
M  V30 5513 C 536.983 -0.830448 -1.48451 0
M  V30 5514 O 538.168 -1.09339 -1.60495 0
M  V30 5515 C 535.298 -2.28492 -2.61551 0
M  V30 5516 C 534.252 -3.44124 -2.54485 0
M  V30 5517 C 533.578 -3.62134 -3.93399 0
M  V30 5518 C 534.878 -4.78855 -2.08556 0
M  V30 5519 H 536.572 -2.84412 -0.935434 0
M  V30 5520 H 534.118 -1.36836 -0.44854 0
M  V30 5521 H 536.071 -2.55039 -3.3546 0
M  V30 5522 H 534.795 -1.37052 -2.96453 0
M  V30 5523 H 533.454 -3.17639 -1.83033 0
M  V30 5524 H 533.102 -2.68055 -4.25623 0
M  V30 5525 H 532.802 -4.39913 -3.89551 0
M  V30 5526 H 534.326 -3.91038 -4.68958 0
M  V30 5527 H 535.74 -5.04552 -2.72213 0
M  V30 5528 H 534.137 -5.59975 -2.1575 0
M  V30 5529 H 535.207 -4.73657 -1.03811 0
M  V30 5530 N 536.55 0.480323 -1.50102 0
M  V30 5531 C 537.799 1.22979 -1.59872 0
M  V30 5532 C 538.112 1.93282 -0.30022 0
M  V30 5533 O 539.318 2.70086 -0.276709 0
M  V30 5534 C 537.774 2.23408 -2.82164 0
M  V30 5535 C 537.382 1.5895 -4.18854 0
M  V30 5536 C 539.126 2.99055 -3.01275 0
M  V30 5537 C 537.033 2.57611 -5.32344 0
M  V30 5538 H 535.963 0.462707 -0.59533 0
M  V30 5539 H 538.614 0.501291 -1.7652 0
M  V30 5540 H 536.996 2.99511 -2.59055 0
M  V30 5541 H 538.17 0.887 -4.52182 0
M  V30 5542 H 536.485 0.956191 -4.05273 0
M  V30 5543 H 539.082 3.72876 -3.83233 0
M  V30 5544 H 539.425 3.57897 -2.12639 0
M  V30 5545 H 539.958 2.30066 -3.24522 0
M  V30 5546 H 536.697 2.03521 -6.23105 0
M  V30 5547 H 536.217 3.26041 -5.03445 0
M  V30 5548 H 537.896 3.19627 -5.62537 0
M  V30 5549 N 538.028 1.39524 0.732853 0
M  V30 5550 C 538.991 1.38189 1.82857 0
M  V30 5551 C 539.991 0.278624 1.58368 0
M  V30 5552 O 541.181 0.536639 1.65728 0
M  V30 5553 C 538.313 1.15661 3.2068 0
M  V30 5554 H 539.506 2.35692 1.85444 0
M  V30 5555 H 537.059 1.2512 0.936728 0
M  V30 5556 H 537.794 0.188482 3.23752 0
M  V30 5557 H 537.579 1.95559 3.39852 0
M  V30 5558 H 539.069 1.17472 4.00737 0
M  V30 5559 N 539.506 -0.963266 1.24736 0
M  V30 5560 C 540.755 -1.70115 1.08369 0
M  V30 5561 C 541.068 -1.91939 -0.376688 0
M  V30 5562 O 542.274 -2.6334 -0.660624 0
M  V30 5563 C 540.73 -3.06218 1.89099 0
M  V30 5564 C 540.338 -2.92221 3.39574 0
M  V30 5565 C 542.082 -3.83848 1.81275 0
M  V30 5566 C 539.989 -4.23662 4.12631 0
M  V30 5567 H 538.919 -0.637944 0.401924 0
M  V30 5568 H 541.57 -1.07304 1.48856 0
M  V30 5569 H 539.952 -3.69884 1.41429 0
M  V30 5570 H 541.126 -2.37541 3.94856 0
M  V30 5571 H 539.441 -2.28054 3.48397 0
M  V30 5572 H 542.038 -4.81188 2.33158 0
M  V30 5573 H 542.381 -4.08949 0.778895 0
M  V30 5574 H 542.914 -3.26918 2.26649 0
M  V30 5575 H 539.653 -4.03753 5.16395 0
M  V30 5576 H 539.173 -4.78141 3.62135 0
M  V30 5577 H 540.852 -4.92256 4.19873 0
M  V30 5578 N 540.985 -1.06182 -1.16461 0
M  V30 5579 C 542.234 -0.772927 -1.86303 0
M  V30 5580 C 542.547 0.703187 -1.82523 0
M  V30 5581 O 543.753 1.10641 -2.47933 0
M  V30 5582 C 542.209 -1.33249 -3.34324 0
M  V30 5583 C 541.817 -2.83876 -3.46581 0
M  V30 5584 C 543.561 -1.12108 -4.09429 0
M  V30 5585 C 541.468 -3.33082 -4.88682 0
M  V30 5586 H 540.398 -0.285452 -0.697878 0
M  V30 5587 H 543.049 -1.28039 -1.31447 0
M  V30 5588 H 541.431 -0.7528 -3.88779 0
M  V30 5589 H 542.605 -3.47786 -3.02293 0
M  V30 5590 H 540.92 -3.03671 -2.84909 0
M  V30 5591 H 543.517 -1.46361 -5.14279 0
M  V30 5592 H 543.86 -0.0593832 -4.16258 0
M  V30 5593 H 544.393 -1.6665 -3.6121 0
M  V30 5594 H 541.132 -4.38726 -4.87032 0
M  V30 5595 H 540.652 -2.73919 -5.33599 0
M  V30 5596 H 542.331 -3.28344 -5.57494 0
M  V30 5597 N 542.463 1.3308 -0.844243 0
M  V30 5598 C 543.709 1.97898 -0.443206 0
M  V30 5599 C 544.042 1.66699 0.99625 0
M  V30 5600 O 543.317 0.949704 1.69738 0
M  V30 5601 C 543.6 3.53801 -0.670606 0
M  V30 5602 C 543.453 3.94667 -2.15772 0
M  V30 5603 C 544.772 4.39936 -0.120226 0
M  V30 5604 H 541.891 0.718861 -0.162504 0
M  V30 5605 H 544.533 1.57633 -1.06075 0
M  V30 5606 H 542.683 3.88229 -0.14496 0
M  V30 5607 H 544.355 3.70469 -2.74865 0
M  V30 5608 H 542.598 3.44203 -2.6402 0
M  V30 5609 H 543.269 5.03275 -2.26757 0
M  V30 5610 H 545.745 4.12183 -0.5696 0
M  V30 5611 H 544.621 5.4803 -0.308984 0
M  V30 5612 H 544.882 4.31184 0.976347 0
M  V30 5613 N 543.941 0.601185 1.45683 0
M  V30 5614 C 544.871 -0.108824 2.33246 0
M  V30 5615 C 545.852 -0.865223 1.46451 0
M  V30 5616 O 547.037 -0.83704 1.75235 0
M  V30 5617 C 544.167 -1.11101 3.2905 0
M  V30 5618 C 543.121 -0.468244 4.25431 0
M  V30 5619 C 542.447 -1.57822 5.10878 0
M  V30 5620 C 543.747 0.606469 5.18767 0
M  V30 5621 H 545.441 0.622306 2.92861 0
M  V30 5622 H 542.987 0.300714 1.40825 0
M  V30 5623 H 544.94 -1.61622 3.89174 0
M  V30 5624 H 543.664 -1.87265 2.67581 0
M  V30 5625 H 542.323 0.0160484 3.66596 0
M  V30 5626 H 541.971 -2.32998 4.45781 0
M  V30 5627 H 541.671 -1.15369 5.76163 0
M  V30 5628 H 543.195 -2.08583 5.73869 0
M  V30 5629 H 544.609 0.185589 5.73 0
M  V30 5630 H 543.006 0.952381 5.92494 0
M  V30 5631 H 544.076 1.48559 4.61582 0
M  V30 5632 N 545.419 -1.53889 0.339982 0
M  V30 5633 C 546.665 -2.01152 -0.258003 0
M  V30 5634 C 546.998 -1.22749 -1.50487 0
M  V30 5635 O 546.273 -0.314156 -1.91946 0
M  V30 5636 C 546.556 -3.55468 -0.575717 0
M  V30 5637 C 546.409 -4.44584 0.682996 0
M  V30 5638 C 547.728 -4.1768 -1.38677 0
M  V30 5639 H 544.847 -0.731198 -0.0922992 0
M  V30 5640 H 547.489 -1.84352 0.459814 0
M  V30 5641 H 545.639 -3.69914 -1.18725 0
M  V30 5642 H 547.311 -4.41981 1.32102 0
M  V30 5643 H 545.554 -4.13592 1.3086 0
M  V30 5644 H 546.225 -5.5043 0.416001 0
M  V30 5645 H 548.701 -4.0691 -0.869705 0
M  V30 5646 H 547.577 -5.25734 -1.57783 0
M  V30 5647 H 547.838 -3.72069 -2.38782 0
M  V30 5648 N 546.897 -0.0685191 -1.57451 0
M  V30 5649 C 548.143 0.602239 -1.93652 0
M  V30 5650 C 548.476 1.6946 -0.948526 0
M  V30 5651 O 547.751 1.94487 0.022782 0
M  V30 5652 C 548.034 1.18223 -3.4014 0
M  V30 5653 C 547.887 0.0967431 -4.49696 0
M  V30 5654 C 549.206 2.08872 -3.87377 0
M  V30 5655 H 546.325 0.217453 -0.70419 0
M  V30 5656 H 548.967 -0.133821 -1.89528 0
M  V30 5657 H 547.117 1.80953 -3.43785 0
M  V30 5658 H 548.789 -0.536155 -4.58174 0
M  V30 5659 H 547.032 -0.573063 -4.29998 0
M  V30 5660 H 547.703 0.542894 -5.49324 0
M  V30 5661 H 550.179 1.56081 -3.85717 0
M  V30 5662 H 549.055 2.46389 -4.90493 0
M  V30 5663 H 549.316 2.99572 -3.25129 0
M  V30 5664 N 548.375 1.56261 0.205012 0
M  V30 5665 C 549.624 1.79236 0.925058 0
M  V30 5666 C 549.937 0.640011 1.84833 0
M  V30 5667 O 551.143 0.753809 2.60826 0
M  V30 5668 C 549.599 3.17475 1.69522 0
M  V30 5669 C 549.207 4.40482 0.817269 0
M  V30 5670 C 550.951 3.49766 2.4055 0
M  V30 5671 C 548.858 5.69744 1.58573 0
M  V30 5672 H 547.788 0.668287 0.349153 0
M  V30 5673 H 550.439 1.82629 0.178544 0
M  V30 5674 H 548.821 3.08304 2.48526 0
M  V30 5675 H 549.995 4.60752 0.0665988 0
M  V30 5676 H 548.31 4.15827 0.218316 0
M  V30 5677 H 550.907 4.43573 2.98575 0
M  V30 5678 H 551.25 2.73041 3.14252 0
M  V30 5679 H 551.783 3.60341 1.68522 0
M  V30 5680 H 548.522 6.49407 0.891679 0
M  V30 5681 H 548.042 5.53509 2.31059 0
M  V30 5682 H 549.721 6.1051 2.14212 0
M  V30 5683 N 549.853 -0.472356 1.50355 0
M  V30 5684 C 551.102 -1.2213 1.60522 0
M  V30 5685 C 551.415 -1.9312 0.310466 0
M  V30 5686 O 552.621 -2.69936 0.291029 0
M  V30 5687 C 551.077 -2.21909 2.83345 0
M  V30 5688 C 550.685 -1.56727 4.19691 0
M  V30 5689 C 552.429 -2.97453 3.02856 0
M  V30 5690 C 550.336 -2.54785 5.33703 0
M  V30 5691 H 549.266 -0.459543 0.597776 0
M  V30 5692 H 551.917 -0.491922 1.76783 0
M  V30 5693 H 550.299 -2.98133 2.60639 0
M  V30 5694 H 551.473 -0.863007 4.52646 0
M  V30 5695 H 549.788 -0.934685 4.05774 0
M  V30 5696 H 552.385 -3.70838 3.85205 0
M  V30 5697 H 552.728 -3.56764 2.14534 0
M  V30 5698 H 553.261 -2.28342 3.25737 0
M  V30 5699 H 550 -2.00214 6.24175 0
M  V30 5700 H 549.52 -3.23367 5.05167 0
M  V30 5701 H 551.199 -3.16639 5.64224 0
M  V30 5702 N 551.331 -1.39911 -0.725443 0
M  V30 5703 C 552.556 -1.41137 -1.5197 0
M  V30 5704 C 552.981 -0.010262 -1.88097 0
M  V30 5705 O 552.339 0.979184 -1.52583 0
M  V30 5706 C 552.387 -2.2994 -2.77777 0
M  V30 5707 O 551.491 -1.73586 -3.74088 0
M  V30 5708 H 550.832 -0.480219 -0.458569 0
M  V30 5709 H 553.362 -1.84023 -0.894249 0
M  V30 5710 H 553.372 -2.44785 -3.26411 0
M  V30 5711 H 552.047 -3.31759 -2.50816 0
M  V30 5712 H 550.624 -1.68035 -3.32894 0
M  V30 5713 N 552.809 0.956637 -1.25245 0
M  V30 5714 C 553.739 2.07058 -1.07931 0
M  V30 5715 C 554.72 1.70096 0.0110361 0
M  V30 5716 O 555.905 1.93555 -0.158121 0
M  V30 5717 C 553.035 3.40272 -0.695124 0
M  V30 5718 C 551.989 3.91235 -1.73549 0
M  V30 5719 C 551.315 5.20921 -1.20604 0
M  V30 5720 C 552.615 4.17837 -3.13385 0
M  V30 5721 H 554.309 2.218 -2.01109 0
M  V30 5722 H 551.855 1.06581 -0.968326 0
M  V30 5723 H 553.808 4.1765 -0.560949 0
M  V30 5724 H 552.532 3.25462 0.272355 0
M  V30 5725 H 551.191 3.16025 -1.85807 0
M  V30 5726 H 550.839 5.02479 -0.228846 0
M  V30 5727 H 550.539 5.55987 -1.90136 0
M  V30 5728 H 552.063 6.00897 -1.08421 0
M  V30 5729 H 553.477 4.8588 -3.04292 0
M  V30 5730 H 551.874 4.64154 -3.80369 0
M  V30 5731 H 552.944 3.2419 -3.60595 0
M  V30 5732 N 554.287 1.06798 1.15896 0
M  V30 5733 C 555.25 0.687328 2.18651 0
M  V30 5734 C 556.25 -0.269559 1.58524 0
M  V30 5735 O 557.44 -0.0512627 1.74125 0
M  V30 5736 C 554.572 0.0121642 3.40898 0
M  V30 5737 H 555.765 1.59701 2.53842 0
M  V30 5738 H 553.318 0.863828 1.3026 0
M  V30 5739 H 554.053 -0.910025 3.1127 0
M  V30 5740 H 553.838 0.700309 3.85795 0
M  V30 5741 H 555.328 -0.239703 4.16911 0
M  V30 5742 N 555.766 -1.3263 0.851289 0
M  V30 5743 C 557.012 -1.9766 0.453694 0
M  V30 5744 C 557.345 -1.67225 -0.987396 0
M  V30 5745 O 556.62 -0.958693 -1.69232 0
M  V30 5746 C 556.903 -3.5344 0.68936 0
M  V30 5747 C 556.756 -3.93517 2.17862 0
M  V30 5748 C 558.075 -4.39866 0.143555 0
M  V30 5749 H 555.194 -0.717989 0.166314 0
M  V30 5750 H 557.836 -1.57068 1.06909 0
M  V30 5751 H 555.986 -3.88147 0.165546 0
M  V30 5752 H 557.658 -3.69006 2.76826 0
M  V30 5753 H 555.901 -3.42798 2.65841 0
M  V30 5754 H 556.572 -5.02065 2.29422 0
M  V30 5755 H 559.048 -4.11875 0.591451 0
M  V30 5756 H 557.924 -5.47858 0.338043 0
M  V30 5757 H 558.185 -4.31696 -0.953466 0
M  V30 5758 N 557.244 -0.608902 -1.45362 0
M  V30 5759 C 558.493 -0.10218 -2.01441 0
M  V30 5760 C 558.806 1.27546 -1.48295 0
M  V30 5761 O 560.012 1.87498 -1.96359 0
M  V30 5762 C 558.468 -0.131985 -3.59658 0
M  V30 5763 C 558.076 -1.50956 -4.21801 0
M  V30 5764 C 559.82 0.319427 -4.23296 0
M  V30 5765 C 557.727 -1.49568 -5.72174 0
M  V30 5766 H 556.657 -0.0344314 -0.753213 0
M  V30 5767 H 559.308 -0.764426 -1.6682 0
M  V30 5768 H 557.69 0.596939 -3.91475 0
M  V30 5769 H 558.864 -2.26029 -4.01556 0
M  V30 5770 H 557.179 -1.90318 -3.70362 0
M  V30 5771 H 559.776 0.349013 -5.3356 0
M  V30 5772 H 560.119 1.34237 -3.94064 0
M  V30 5773 H 560.652 -0.356273 -3.96201 0
M  V30 5774 H 557.391 -2.49626 -6.06108 0
M  V30 5775 H 556.911 -0.787542 -5.94607 0
M  V30 5776 H 558.59 -1.21989 -6.35396 0
M  V30 5777 N 558.722 1.53707 -0.348139 0
M  V30 5778 C 559.971 2.0017 0.247992 0
M  V30 5779 C 560.284 1.23983 1.51286 0
M  V30 5780 O 561.49 1.60946 2.18652 0
M  V30 5781 C 559.946 3.56515 0.492459 0
M  V30 5782 C 559.554 4.41562 -0.756777 0
M  V30 5783 C 561.298 4.11381 1.0472 0
M  V30 5784 C 559.205 5.89426 -0.482856 0
M  V30 5785 H 558.135 0.747806 0.0964452 0
M  V30 5786 H 560.786 1.77532 -0.464179 0
M  V30 5787 H 559.168 3.75236 1.26545 0
M  V30 5788 H 560.342 4.34615 -1.53122 0
M  V30 5789 H 558.657 3.97711 -1.23348 0
M  V30 5790 H 561.254 5.19468 1.26717 0
M  V30 5791 H 561.597 3.64885 2.00411 0
M  V30 5792 H 562.13 3.96389 0.334801 0
M  V30 5793 H 558.869 6.40164 -1.40962 0
M  V30 5794 H 558.389 5.99264 0.253416 0
M  V30 5795 H 560.068 6.4692 -0.101816 0
M  V30 5796 N 560.2 0.0768682 1.57412 0
M  V30 5797 C 561.147 -0.888577 2.13009 0
M  V30 5798 C 562.117 -1.29198 1.0439 0
M  V30 5799 O 563.302 -1.37694 1.3208 0
M  V30 5800 C 560.442 -2.14899 2.70023 0
M  V30 5801 C 559.555 -1.79777 3.92816 0
M  V30 5802 C 558.69 -3.00467 4.38056 0
M  V30 5803 C 557.729 -2.61385 5.53484 0
M  V30 5804 N 556.866 -3.74851 5.93659 0
M  V30 5805 H 561.706 -0.407593 2.95199 0
M  V30 5806 H 559.243 -0.189534 1.45874 0
M  V30 5807 H 561.201 -2.88688 3.0119 0
M  V30 5808 H 559.831 -2.60529 1.9059 0
M  V30 5809 H 558.883 -0.960301 3.68079 0
M  V30 5810 H 560.195 -1.47027 4.76639 0
M  V30 5811 H 559.349 -3.82529 4.7091 0
M  V30 5812 H 558.088 -3.36413 3.53097 0
M  V30 5813 H 557.093 -1.77746 5.20275 0
M  V30 5814 H 558.318 -2.26603 6.40178 0
M  V30 5815 H 556.264 -4.1055 5.11649 0
M  V30 5816 H 556.181 -3.45887 6.72234 0
M  V30 5817 H 557.449 -4.57477 6.31138 0
M  V30 5818 N 561.678 -1.56367 -0.196722 0
M  V30 5819 C 562.908 -1.84371 -0.932254 0
M  V30 5820 C 563.316 -0.657013 -1.77426 0
M  V30 5821 O 562.659 0.383576 -1.79651 0
M  V30 5822 C 562.721 -3.06454 -1.87952 0
M  V30 5823 C 562.385 -4.40425 -1.21962 0
M  V30 5824 C 563.382 -5.16457 -0.597343 0
M  V30 5825 C 561.067 -4.8716 -1.22396 0
M  V30 5826 C 563.061 -6.37399 0.0117913 0
M  V30 5827 C 560.748 -6.08038 -0.610995 0
M  V30 5828 C 561.746 -6.83 0.00580487 0
M  V30 5829 O 561.434 -8.01589 0.609173 0
M  V30 5830 H 561.166 -0.616377 -0.277589 0
M  V30 5831 H 563.72 -2.04329 -0.209452 0
M  V30 5832 H 561.95 -2.82377 -2.64197 0
M  V30 5833 H 563.639 -3.21118 -2.48271 0
M  V30 5834 H 564.405 -4.81445 -0.586142 0
M  V30 5835 H 560.284 -4.2877 -1.69345 0
M  V30 5836 H 563.828 -6.9585 0.493836 0
M  V30 5837 H 559.725 -6.42519 -0.619693 0
M  V30 5838 H 560.493 -8.16935 0.505919 0
M  V30 5839 N 563.156 0.464375 -1.50603 0
M  V30 5840 C 564.572 0.798684 -1.38178 0
M  V30 5841 C 564.772 1.96568 -0.44308 0
M  V30 5842 O 563.828 2.52252 0.111814 0
M  V30 5843 C 565.141 1.10444 -2.79683 0
M  V30 5844 C 566.689 1.2105 -2.88645 0
M  V30 5845 C 567.164 1.54934 -4.30998 0
M  V30 5846 N 568.655 1.61913 -4.3398 0
M  V30 5847 C 569.39 1.8965 -5.41129 0
M  V30 5848 N 568.886 2.15361 -6.58477 0
M  V30 5849 N 570.679 1.91207 -5.28579 0
M  V30 5850 H 562.83 -0.304603 -2.10204 0
M  V30 5851 H 565.093 -0.0737804 -0.945125 0
M  V30 5852 H 564.799 0.319934 -3.50242 0
M  V30 5853 H 564.673 2.03896 -3.17342 0
M  V30 5854 H 567.06 1.98567 -2.18301 0
M  V30 5855 H 567.141 0.255613 -2.5452 0
M  V30 5856 H 566.785 0.779549 -5.01882 0
M  V30 5857 H 566.715 2.51584 -4.62615 0
M  V30 5858 H 569.206 1.44055 -3.49366 0
M  V30 5859 H 569.519 2.35818 -7.35941 0
M  V30 5860 H 567.864 2.1274 -6.6164 0
M  V30 5861 H 571.055 1.70622 -4.35897 0
M  V30 5862 H 571.228 2.12488 -6.12171 0
M  V30 5863 N 564.634 1.40294 0.718013 0
M  V30 5864 C 565.911 1.2894 1.47084 0
M  V30 5865 C 566.291 -0.0933625 2.10893 0
M  V30 5866 O 565.639 -1.10598 1.99951 0
M  V30 5867 C 565.849 2.4264 2.50852 0
M  V30 5868 C 567.197 2.8276 3.16752 0
M  V30 5869 O 568.221 2.42215 2.61171 0
M  V30 5870 O 567.08 3.528 4.17366 0
M  V30 5871 H 564.174 0.506236 0.653952 0
M  V30 5872 H 566.72 1.52208 0.750394 0
M  V30 5873 H 565.492 3.35009 2.022 0
M  V30 5874 H 565.115 2.21129 3.30435 0
M  V30 5875 N 566.112 -0.949982 1.2575 0
M  V30 5876 C 567.523 -1.50989 1.09815 0
M  V30 5877 C 567.874 -1.93497 -0.324556 0
M  V30 5878 O 566.999 -1.79068 -1.21506 0
M  V30 5879 C 567.594 -2.74394 1.98729 0
M  V30 5880 C 566.153 -3.26682 1.86965 0
M  V30 5881 C 565.3 -1.99498 1.92603 0
M  V30 5882 H 568.251 -0.766387 1.38968 0
M  V30 5883 H 568.272 -3.48383 1.53001 0
M  V30 5884 H 567.784 -2.43425 3.02268 0
M  V30 5885 H 565.885 -3.62461 0.863279 0
M  V30 5886 H 565.998 -3.94383 2.72027 0
M  V30 5887 H 564.362 -2.15005 1.36546 0
M  V30 5888 H 565.145 -1.70871 2.97755 0
M  V30 5889 N 567.59 -1.07411 -1.15328 0
M  V30 5890 C 568.553 -0.698914 -2.18284 0
M  V30 5891 C 569.553 0.261149 -1.58665 0
M  V30 5892 O 570.743 0.0420277 -1.74149 0
M  V30 5893 C 567.875 -0.0302427 -3.40887 0
M  V30 5894 H 569.068 -1.61045 -2.52991 0
M  V30 5895 H 566.621 -0.870724 -1.298 0
M  V30 5896 H 567.356 0.893505 -3.11748 0
M  V30 5897 H 567.141 -0.720759 -3.85419 0
M  V30 5898 H 568.631 0.21759 -4.17033 0
M  V30 5899 N 569.068 1.32177 -0.85831 0
M  V30 5900 C 570.018 2.26307 -0.277307 0
M  V30 5901 C 571.002 1.50123 0.578946 0
M  V30 5902 O 572.194 1.71754 0.427731 0
M  V30 5903 C 569.323 3.39181 0.530232 0
M  V30 5904 C 568.409 4.22746 -0.338613 0
M  V30 5905 N 568.8 4.85265 -1.4266 0
M  V30 5906 C 567.098 4.45813 -0.129 0
M  V30 5907 C 567.799 5.47634 -1.96142 0
M  V30 5908 N 566.775 5.28794 -1.26007 0
M  V30 5909 H 570.577 2.72173 -1.10902 0
M  V30 5910 H 568.091 1.46308 -0.704816 0
M  V30 5911 H 570.088 4.05628 0.962904 0
M  V30 5912 H 568.748 2.9486 1.35969 0
M  V30 5913 H 569.759 4.85259 -1.80953 0
M  V30 5914 H 566.436 4.12163 0.665451 0
M  V30 5915 H 567.826 6.0735 -2.8736 0
M  V30 5916 N 570.547 0.616602 1.45037 0
M  V30 5917 C 571.51 -0.0871112 2.29034 0
M  V30 5918 C 572.51 -0.786414 1.40258 0
M  V30 5919 O 573.7 -0.633207 1.62284 0
M  V30 5920 C 570.832 -1.13369 3.21497 0
M  V30 5921 H 572.025 0.651497 2.92738 0
M  V30 5922 H 569.578 0.376058 1.51709 0
M  V30 5923 H 570.313 -1.90277 2.62612 0
M  V30 5924 H 570.098 -0.636358 3.86902 0
M  V30 5925 H 571.588 -1.62627 3.84633 0
M  V30 5926 N 572.025 -1.5352 0.356285 0
M  V30 5927 C 573.302 -1.93405 -0.292223 0
M  V30 5928 C 573.682 -1.28901 -1.67176 0
M  V30 5929 O 573.03 -0.444632 -2.24132 0
M  V30 5930 C 573.24 -3.47223 -0.35175 0
M  V30 5931 C 574.588 -4.20389 -0.596534 0
M  V30 5932 O 575.612 -3.53554 -0.433344 0
M  V30 5933 O 574.471 -5.3881 -0.913589 0
M  V30 5934 H 571.565 -0.808666 -0.173172 0
M  V30 5935 H 574.111 -1.64713 0.408391 0
M  V30 5936 H 572.883 -3.86423 0.615841 0
M  V30 5937 H 572.506 -3.8212 -1.09864 0
M  V30 5938 N 573.503 -0.0852151 -1.57369 0
M  V30 5939 C 574.45 0.877268 -2.13478 0
M  V30 5940 C 575.42 1.28642 -1.05073 0
M  V30 5941 O 576.605 1.36992 -1.32808 0
M  V30 5942 C 573.745 2.13464 -2.71159 0
M  V30 5943 C 572.858 1.77691 -3.93764 0
M  V30 5944 C 571.993 2.98139 -4.39643 0
M  V30 5945 C 571.032 2.58447 -5.54862 0
M  V30 5946 N 570.169 3.71698 -5.95639 0
M  V30 5947 H 575.009 0.391933 -2.95411 0
M  V30 5948 H 572.546 0.181796 -1.45972 0
M  V30 5949 H 574.504 2.87086 -3.02717 0
M  V30 5950 H 573.134 2.59514 -1.91969 0
M  V30 5951 H 572.186 0.940768 -3.68583 0
M  V30 5952 H 573.498 1.44497 -4.77412 0
M  V30 5953 H 572.652 3.80026 -4.72933 0
M  V30 5954 H 571.391 3.34536 -3.54876 0
M  V30 5955 H 570.396 1.74984 -5.21211 0
M  V30 5956 H 571.621 2.23205 -6.41371 0
M  V30 5957 H 569.567 4.07831 -5.13819 0
M  V30 5958 H 569.484 3.42317 -6.74059 0
M  V30 5959 H 570.752 4.54123 -6.33555 0
M  V30 5960 N 574.981 1.5647 0.188427 0
M  V30 5961 C 576.258 1.71857 0.934058 0
M  V30 5962 C 576.638 0.641867 2.01105 0
M  V30 5963 O 575.986 -0.346098 2.25864 0
M  V30 5964 C 576.196 3.14431 1.5144 0
M  V30 5965 C 577.544 3.74869 1.99396 0
M  V30 5966 O 578.568 3.17601 1.61269 0
M  V30 5967 O 577.427 4.75387 2.69573 0
M  V30 5968 H 574.521 0.701186 0.438483 0
M  V30 5969 H 577.067 1.68768 0.177599 0
M  V30 5970 H 575.839 3.8427 0.738416 0
M  V30 5971 H 575.462 3.21775 2.33552 0
M  V30 5972 N 576.459 -0.456382 1.50847 0
M  V30 5973 C 577.87 -1.03685 1.55262 0
M  V30 5974 C 578.221 -1.92779 0.364771 0
M  V30 5975 O 577.346 -2.10043 -0.52068 0
M  V30 5976 C 577.941 -1.88718 2.81374 0
M  V30 5977 C 576.5 -2.41847 2.88422 0
M  V30 5978 C 575.647 -1.20564 2.49719 0
M  V30 5979 H 578.598 -0.238399 1.56899 0
M  V30 5980 H 578.619 -2.73957 2.6406 0
M  V30 5981 H 578.131 -1.23847 3.67809 0
M  V30 5982 H 576.232 -3.10228 2.06372 0
M  V30 5983 H 576.345 -2.75947 3.9165 0
M  V30 5984 H 574.709 -1.54504 2.02486 0
M  V30 5985 H 575.492 -0.573326 3.38479 0
M  V30 5986 N 577.937 -1.40673 -0.710563 0
M  V30 5987 C 579.165 -1.42547 -1.4996 0
M  V30 5988 C 579.58 -0.0265485 -1.88781 0
M  V30 5989 O 578.937 0.950694 -1.55782 0
M  V30 5990 C 578.988 -2.32071 -2.77173 0
M  V30 5991 O 578.709 -3.66518 -2.39992 0
M  V30 5992 C 580.21 -2.42591 -3.71032 0
M  V30 5993 H 577.43 -0.486025 -0.462623 0
M  V30 5994 H 579.974 -1.84783 -0.876102 0
M  V30 5995 H 578.129 -1.93184 -3.35795 0
M  V30 5996 H 578.543 -4.14115 -3.21884 0
M  V30 5997 H 580.017 -3.09429 -4.57119 0
M  V30 5998 H 580.494 -1.4525 -4.14486 0
M  V30 5999 H 581.1 -2.82051 -3.18319 0
M  V30 6000 N 579.415 0.9433 -1.26252 0
M  V30 6001 C 580.662 1.68925 -1.11672 0
M  V30 6002 C 580.99 1.91499 0.340329 0
M  V30 6003 O 580.245 1.49189 1.26653 0
M  V30 6004 C 580.544 3.07073 -1.82868 0
M  V30 6005 C 580.21 3.04262 -3.32769 0
M  V30 6006 C 578.872 3.03203 -3.7366 0
M  V30 6007 C 581.224 2.96729 -4.28487 0
M  V30 6008 C 578.552 2.92373 -5.0866 0
M  V30 6009 C 580.904 2.87442 -5.63525 0
M  V30 6010 C 579.568 2.84724 -6.03729 0
M  V30 6011 H 578.838 0.618141 -0.408635 0
M  V30 6012 H 581.485 1.10124 -1.56668 0
M  V30 6013 H 579.79 3.69486 -1.30335 0
M  V30 6014 H 581.487 3.63635 -1.69029 0
M  V30 6015 H 578.077 3.05865 -3.00241 0
M  V30 6016 H 582.261 2.96658 -3.97879 0
M  V30 6017 H 577.517 2.88645 -5.38975 0
M  V30 6018 H 581.691 2.80576 -6.37377 0
M  V30 6019 H 579.318 2.76089 -7.08293 0
M  V30 6020 N 580.893 1.08022 1.14757 0
M  V30 6021 C 582.139 0.808705 1.85978 0
M  V30 6022 C 582.472 -0.663764 1.82504 0
M  V30 6023 O 581.747 -1.48765 1.25296 0
M  V30 6024 C 582.03 1.32623 3.34788 0
M  V30 6025 C 581.883 2.86375 3.46856 0
M  V30 6026 C 583.202 0.948291 4.29762 0
M  V30 6027 H 580.321 0.295244 0.675278 0
M  V30 6028 H 582.963 1.33917 1.34783 0
M  V30 6029 H 581.113 0.875002 3.78518 0
M  V30 6030 H 582.785 3.39839 3.11941 0
M  V30 6031 H 581.028 3.24232 2.88194 0
M  V30 6032 H 581.699 3.17658 4.51439 0
M  V30 6033 H 584.175 1.33722 3.94028 0
M  V30 6034 H 583.051 1.33765 5.32352 0
M  V30 6035 H 583.312 -0.145094 4.41862 0
M  V30 6036 N 582.371 -1.3172 0.865308 0
M  V30 6037 C 583.62 -1.96145 0.470098 0
M  V30 6038 C 583.933 -1.69182 -0.981674 0
M  V30 6039 O 585.139 -2.27431 -1.48281 0
M  V30 6040 C 583.595 -3.51129 0.789732 0
M  V30 6041 C 583.203 -3.86938 2.25795 0
M  V30 6042 C 584.947 -4.2197 0.462765 0
M  V30 6043 C 582.854 -5.35012 2.52024 0
M  V30 6044 H 581.784 -0.734105 0.172065 0
M  V30 6045 H 584.435 -1.49959 1.05757 0
M  V30 6046 H 582.817 -3.95781 0.131571 0
M  V30 6047 H 583.991 -3.5326 2.95879 0
M  V30 6048 H 582.306 -3.29149 2.55049 0
M  V30 6049 H 584.903 -5.30904 0.636019 0
M  V30 6050 H 585.246 -4.12005 -0.59645 0
M  V30 6051 H 585.779 -3.82936 1.07727 0
M  V30 6052 H 582.518 -5.50008 3.56611 0
M  V30 6053 H 582.038 -5.70058 1.8653 0
M  V30 6054 H 583.717 -6.0222 2.36515 0
M  V30 6055 N 583.85 -0.624285 -1.44708 0
M  V30 6056 C 585.099 -0.123539 -2.01321 0
M  V30 6057 C 585.412 1.25966 -1.49639 0
M  V30 6058 O 586.618 1.85405 -1.98336 0
M  V30 6059 C 585.074 -0.170124 -3.59498 0
M  V30 6060 C 584.682 -1.55421 -4.20176 0
M  V30 6061 C 586.426 0.274513 -4.23611 0
M  V30 6062 C 584.332 -1.55628 -5.70556 0
M  V30 6063 H 583.263 -0.0424183 -0.752806 0
M  V30 6064 H 585.913 -0.782076 -1.65999 0
M  V30 6065 H 584.296 0.555385 -3.92086 0
M  V30 6066 H 585.47 -2.30276 -3.99136 0
M  V30 6067 H 583.784 -1.94235 -3.68323 0
M  V30 6068 H 586.382 0.292402 -5.339 0
M  V30 6069 H 586.725 1.3005 -3.95465 0
M  V30 6070 H 587.258 -0.398275 -3.95801 0
M  V30 6071 H 583.997 -2.56041 -6.03426 0
M  V30 6072 H 583.517 -0.850563 -5.93739 0
M  V30 6073 H 585.196 -1.28721 -6.34066 0
M  V30 6074 N 585.328 1.53329 -0.364422 0
M  V30 6075 C 586.577 2.00421 0.226747 0
M  V30 6076 C 586.89 1.25581 1.49963 0
M  V30 6077 O 588.096 1.63256 2.16933 0
M  V30 6078 C 586.552 3.57017 0.454618 0
M  V30 6079 C 586.16 4.40734 -0.803568 0
M  V30 6080 C 587.904 4.12468 1.00351 0
M  V30 6081 C 585.811 5.8888 -0.545345 0
M  V30 6082 H 584.741 0.748787 0.0885082 0
M  V30 6083 H 587.392 1.7703 -0.482983 0
M  V30 6084 H 585.774 3.76558 1.22558 0
M  V30 6085 H 586.948 4.32967 -1.57723 0
M  V30 6086 H 585.263 3.96381 -1.27559 0
M  V30 6087 H 587.86 5.20783 1.212 0
M  V30 6088 H 588.203 3.6699 1.9653 0
M  V30 6089 H 588.736 3.96721 0.29274 0
M  V30 6090 H 585.475 6.38633 -1.47743 0
M  V30 6091 H 584.995 5.99499 0.189842 0
M  V30 6092 H 586.674 6.46776 -0.170425 0
M  V30 6093 N 586.806 0.0935595 1.57322 0
M  V30 6094 C 588.055 -0.570191 1.93473 0
M  V30 6095 C 588.368 -1.69434 0.977318 0
M  V30 6096 O 589.574 -2.41914 1.23248 0
M  V30 6097 C 588.03 -1.06564 3.43762 0
M  V30 6098 C 587.638 0.0286723 4.47991 0
M  V30 6099 C 589.382 -1.70221 3.88877 0
M  V30 6100 C 587.289 -0.482046 5.89432 0
M  V30 6101 H 586.219 -0.216764 0.72217 0
M  V30 6102 H 588.87 0.169313 1.82717 0
M  V30 6103 H 587.252 -1.85878 3.49664 0
M  V30 6104 H 588.426 0.804106 4.5373 0
M  V30 6105 H 586.741 0.570336 4.12476 0
M  V30 6106 H 589.338 -2.09502 4.91948 0
M  V30 6107 H 589.681 -2.57078 3.27439 0
M  V30 6108 H 590.214 -0.974919 3.85668 0
M  V30 6109 H 586.953 0.349871 6.54566 0
M  V30 6110 H 586.473 -1.22452 5.87167 0
M  V30 6111 H 588.152 -0.951508 6.39965 0
M  V30 6112 N 588.284 -1.56567 -0.180126 0
M  V30 6113 C 589.532 -1.81133 -0.896392 0
M  V30 6114 C 589.853 -0.669114 -1.83161 0
M  V30 6115 O 589.123 0.311616 -1.93406 0
M  V30 6116 H 587.703 -0.668172 -0.333999 0
M  V30 6117 H 590.365 -1.94048 -0.182051 0
M  V30 6118 H 589.461 -2.74854 -1.47857 0
M  V30 6119 N 589.762 0.448376 -1.51087 0
M  V30 6120 C 591.008 1.20049 -1.6345 0
M  V30 6121 C 591.341 1.91121 -0.344444 0
M  V30 6122 O 590.616 1.83125 0.655396 0
M  V30 6123 C 590.899 2.22624 -2.83038 0
M  V30 6124 C 590.752 1.55708 -4.21989 0
M  V30 6125 C 592.071 3.23718 -2.98152 0
M  V30 6126 H 589.19 0.435085 -0.59487 0
M  V30 6127 H 591.832 0.491183 -1.83541 0
M  V30 6128 H 589.982 2.83117 -2.66039 0
M  V30 6129 H 591.654 0.986367 -4.50631 0
M  V30 6130 H 589.897 0.859647 -4.25197 0
M  V30 6131 H 590.568 2.30357 -5.01637 0
M  V30 6132 H 593.044 2.73269 -3.13788 0
M  V30 6133 H 591.92 3.92795 -3.83411 0
M  V30 6134 H 592.181 3.89179 -2.09743 0
M  V30 6135 N 591.24 1.41047 0.703093 0
M  V30 6136 C 592.488 1.39723 1.4602 0
M  V30 6137 C 592.809 0.00461257 1.94999 0
M  V30 6138 O 592.079 -0.952292 1.71196 0
M  V30 6139 H 590.659 0.514281 0.541779 0
M  V30 6140 H 593.321 1.76217 0.832678 0
M  V30 6141 H 592.417 2.07982 2.32701 0
M  V30 6142 N 592.718 -0.936591 1.26751 0
M  V30 6143 C 593.965 -1.68331 1.12566 0
M  V30 6144 C 594.293 -1.91677 -0.330168 0
M  V30 6145 O 593.548 -1.49859 -1.2586 0
M  V30 6146 C 593.847 -3.06099 1.84494 0
M  V30 6147 C 593.513 -3.02493 3.34378 0
M  V30 6148 C 592.175 -3.01217 3.75262 0
M  V30 6149 C 594.527 -2.94453 4.30055 0
M  V30 6150 C 591.855 -2.89672 5.10203 0
M  V30 6151 C 594.207 -2.84449 5.65041 0
M  V30 6152 C 592.871 -2.81518 6.0523 0
M  V30 6153 H 592.141 -0.615965 0.411907 0
M  V30 6154 H 594.788 -1.09292 1.5725 0
M  V30 6155 H 593.093 -3.6879 1.32292 0
M  V30 6156 H 594.79 -3.62733 1.70955 0
M  V30 6157 H 591.38 -3.04269 3.01858 0
M  V30 6158 H 595.564 -2.94544 3.99447 0
M  V30 6159 H 590.82 -2.85783 5.40498 0
M  V30 6160 H 594.994 -2.77192 6.38856 0
M  V30 6161 H 592.621 -2.72329 7.09747 0
M  V30 6162 N 594.196 -1.08629 -1.14182 0
M  V30 6163 C 595.159 -0.722027 -2.1753 0
M  V30 6164 C 596.159 0.244305 -1.58933 0
M  V30 6165 O 597.349 0.0235545 -1.74184 0
M  V30 6166 C 594.481 -0.0663966 -3.40835 0
M  V30 6167 H 595.674 -1.63719 -2.51269 0
M  V30 6168 H 593.227 -0.884442 -1.28869 0
M  V30 6169 H 593.962 0.860389 -3.12678 0
M  V30 6170 H 593.747 -0.761598 -3.84632 0
M  V30 6171 H 595.237 0.173346 -4.1724 0
M  V30 6172 N 595.674 1.31259 -0.872281 0
M  V30 6173 C 596.92 1.96913 -0.485083 0
M  V30 6174 C 597.253 1.68774 0.960667 0
M  V30 6175 O 596.528 0.985495 1.67685 0
M  V30 6176 C 596.811 3.52299 -0.745502 0
M  V30 6177 C 596.664 3.90002 -2.24095 0
M  V30 6178 C 597.983 4.39582 -0.213516 0
M  V30 6179 H 595.102 0.715252 -0.177716 0
M  V30 6180 H 597.744 1.55347 -1.09395 0
M  V30 6181 H 595.894 3.87835 -0.227276 0
M  V30 6182 H 597.566 3.64555 -2.82661 0
M  V30 6183 H 595.809 3.38526 -2.71261 0
M  V30 6184 H 596.48 4.98352 -2.37381 0
M  V30 6185 H 598.956 4.10882 -0.656902 0
M  V30 6186 H 597.832 5.47251 -0.42516 0
M  V30 6187 H 598.093 4.33158 0.884666 0
M  V30 6188 N 597.152 0.631951 1.44375 0
M  V30 6189 C 598.377 0.142146 2.06912 0
M  V30 6190 C 598.802 -1.17456 1.4692 0
M  V30 6191 O 598.16 -1.72074 0.570975 0
M  V30 6192 C 598.208 0.0417952 3.60576 0
M  V30 6193 O 597.312 -1.00194 4.00044 0
M  V30 6194 H 596.653 0.0851491 0.658518 0
M  V30 6195 H 599.183 0.868863 1.85235 0
M  V30 6196 H 599.193 -0.148517 4.0773 0
M  V30 6197 H 597.868 1.0031 4.03622 0
M  V30 6198 H 596.445 -0.786131 3.64519 0
M  V30 6199 N 598.631 -1.53133 0.372548 0
M  V30 6200 C 599.856 -2.0625 -0.218098 0
M  V30 6201 C 600.281 -1.24375 -1.41111 0
M  V30 6202 O 599.639 -0.264554 -1.79359 0
M  V30 6203 C 599.687 -3.55858 -0.582876 0
M  V30 6204 O 598.791 -3.76667 -1.67917 0
M  V30 6205 H 598.132 -0.663317 -0.030104 0
M  V30 6206 H 600.662 -1.97477 0.535169 0
M  V30 6207 H 600.672 -3.99007 -0.851925 0
M  V30 6208 H 599.347 -4.14892 0.289428 0
M  V30 6209 H 597.924 -3.45413 -1.40513 0
M  V30 6210 N 600.109 -0.101901 -1.5727 0
M  V30 6211 C 601.358 0.559922 -1.93772 0
M  V30 6212 C 601.671 1.68913 -0.98629 0
M  V30 6213 O 602.877 2.41256 -1.24529 0
M  V30 6214 C 601.333 1.04739 -3.44322 0
M  V30 6215 C 600.941 -0.05243 -4.47969 0
M  V30 6216 C 602.685 1.68157 -3.89774 0
M  V30 6217 C 600.592 0.450781 -5.8968 0
M  V30 6218 H 599.522 0.212931 -0.723309 0
M  V30 6219 H 602.173 -0.179001 -1.82625 0
M  V30 6220 H 600.555 1.84021 -3.50645 0
M  V30 6221 H 601.729 -0.828157 -4.53297 0
M  V30 6222 H 600.044 -0.592202 -4.12167 0
M  V30 6223 H 602.641 2.0689 -4.93052 0
M  V30 6224 H 602.984 2.55338 -3.28798 0
M  V30 6225 H 603.517 0.954453 -3.8618 0
M  V30 6226 H 600.256 -0.38458 -6.54371 0
M  V30 6227 H 599.776 1.19336 -5.87809 0
M  V30 6228 H 601.455 0.917555 -6.40461 0
M  V30 6229 N 601.587 1.56661 0.17182 0
M  V30 6230 C 602.998 1.71652 0.734329 0
M  V30 6231 C 603.349 0.712335 1.82812 0
M  V30 6232 O 602.474 -0.126401 2.16031 0
M  V30 6233 C 603.069 3.11226 1.3388 0
M  V30 6234 C 601.628 3.27904 1.84813 0
M  V30 6235 C 600.775 2.67603 0.726917 0
M  V30 6236 H 603.726 1.5861 -0.0535665 0
M  V30 6237 H 603.747 3.09849 2.20849 0
M  V30 6238 H 603.259 3.8429 0.54249 0
M  V30 6239 H 601.36 2.59796 2.6709 0
M  V30 6240 H 601.473 4.35637 1.99392 0
M  V30 6241 H 599.837 2.274 1.14723 0
M  V30 6242 H 600.62 3.43252 -0.0575334 0
M  V30 6243 N 603.065 -0.440357 1.51323 0
M  V30 6244 C 603.975 -1.55955 1.75258 0
M  V30 6245 C 604.991 -1.61933 0.636687 0
M  V30 6246 O 606.167 -1.79231 0.918593 0
M  V30 6247 C 603.232 -2.9196 1.86977 0
M  V30 6248 C 602.293 -2.96122 3.10822 0
M  V30 6249 C 601.526 -4.2564 3.21973 0
M  V30 6250 O 601.749 -5.17851 2.39137 0
M  V30 6251 O 600.683 -4.36025 4.14929 0
M  V30 6252 H 604.509 -1.38673 2.70191 0
M  V30 6253 H 602.094 -0.623055 1.35788 0
M  V30 6254 H 603.976 -3.72682 1.96688 0
M  V30 6255 H 602.651 -3.09375 0.952307 0
M  V30 6256 H 601.558 -2.14366 3.06591 0
M  V30 6257 H 602.891 -2.83651 4.02247 0
M  V30 6258 N 604.543 -1.41418 -0.695603 0
M  V30 6259 C 605.791 -1.40496 -1.45277 0
M  V30 6260 C 606.112 -0.0149538 -1.94994 0
M  V30 6261 O 605.382 0.9432 -1.71699 0
M  V30 6262 H 603.962 -0.517147 -0.539044 0
M  V30 6263 H 606.624 -1.76656 -0.823321 0
M  V30 6264 H 605.72 -2.09214 -2.31595 0
M  V30 6265 N 606.021 0.929856 -1.27246 0
M  V30 6266 C 606.951 2.04722 -1.12299 0
M  V30 6267 C 607.932 1.70082 -0.0250464 0
M  V30 6268 O 609.117 1.93176 -0.199141 0
M  V30 6269 C 606.247 3.38721 -0.767145 0
M  V30 6270 C 605.201 3.87466 -1.81808 0
M  V30 6271 C 604.527 5.18246 -1.31626 0
M  V30 6272 C 605.827 4.11095 -3.22177 0
M  V30 6273 H 607.521 2.17485 -2.05769 0
M  V30 6274 H 605.067 1.04503 -0.990715 0
M  V30 6275 H 607.02 4.16366 -0.649413 0
M  V30 6276 H 605.744 3.25967 0.203259 0
M  V30 6277 H 604.403 3.12012 -1.92468 0
M  V30 6278 H 604.051 5.01881 -0.335378 0
M  V30 6279 H 603.751 5.51829 -2.01887 0
M  V30 6280 H 605.275 5.98462 -1.21143 0
M  V30 6281 H 606.689 4.79316 -3.1453 0
M  V30 6282 H 605.086 4.55982 -3.90129 0
M  V30 6283 H 606.156 3.16468 -3.67391 0
M  V30 6284 N 607.499 1.09233 1.13605 0
M  V30 6285 C 608.91 0.846839 1.6639 0
M  V30 6286 C 609.261 -0.625031 1.85978 0
M  V30 6287 O 608.386 -1.48173 1.57714 0
M  V30 6288 C 608.981 1.5307 3.0225 0
M  V30 6289 C 607.54 1.33223 3.52035 0
M  V30 6290 C 606.687 1.58806 2.27323 0
M  V30 6291 H 609.638 1.25175 0.975541 0
M  V30 6292 H 609.659 0.96267 3.68121 0
M  V30 6293 H 609.171 2.60192 2.87961 0
M  V30 6294 H 607.272 0.282091 3.71531 0
M  V30 6295 H 607.385 2.0657 4.32279 0
M  V30 6296 H 605.749 1.01007 2.33815 0
M  V30 6297 H 606.532 2.67153 2.15602 0
M  V30 6298 N 608.977 -1.30795 0.87923 0
M  V30 6299 C 609.91 -2.26396 0.286404 0
M  V30 6300 C 610.888 -1.51528 -0.589748 0
M  V30 6301 O 612.072 -1.80566 -0.541119 0
M  V30 6302 C 609.199 -3.33458 -0.593581 0
M  V30 6303 C 608.245 -4.2597 0.21247 0
M  V30 6304 S 609.078 -5.11132 1.59702 0
M  V30 6305 C 610.234 -6.21705 0.723408 0
M  V30 6306 H 610.467 -2.7633 1.09677 0
M  V30 6307 H 608 -1.38703 0.678305 0
M  V30 6308 H 609.958 -3.9561 -1.09557 0
M  V30 6309 H 608.619 -2.82259 -1.37799 0
M  V30 6310 H 607.812 -5.01907 -0.458822 0
M  V30 6311 H 607.414 -3.68363 0.646883 0
M  V30 6312 H 609.706 -6.77472 -0.0620739 0
M  V30 6313 H 610.649 -6.93007 1.4542 0
M  V30 6314 H 611.057 -5.63771 0.286855 0
M  V30 6315 N 610.455 -0.639598 -1.44038 0
M  V30 6316 C 611.701 -0.147698 -2.02261 0
M  V30 6317 C 612.034 1.23031 -1.50256 0
M  V30 6318 O 611.309 1.81847 -0.690068 0
M  V30 6319 C 611.592 -0.14362 -3.59813 0
M  V30 6320 C 611.445 -1.55458 -4.22082 0
M  V30 6321 C 612.764 0.527317 -4.36929 0
M  V30 6322 H 609.883 -0.0551453 -0.734934 0
M  V30 6323 H 612.525 -0.817688 -1.71505 0
M  V30 6324 H 610.675 0.426898 -3.86147 0
M  V30 6325 H 612.347 -2.17464 -4.06826 0
M  V30 6326 H 610.59 -2.10594 -3.79253 0
M  V30 6327 H 611.261 -1.50369 -5.31124 0
M  V30 6328 H 613.737 0.0420504 -4.16079 0
M  V30 6329 H 612.613 0.499389 -5.46624 0
M  V30 6330 H 612.874 1.59914 -4.12165 0
M  V30 6331 N 611.933 1.52934 -0.380664 0
M  V30 6332 C 613.179 2.01765 0.20458 0
M  V30 6333 C 613.512 1.26696 1.47179 0
M  V30 6334 O 612.787 0.364936 1.91046 0
M  V30 6335 C 613.07 3.56869 0.481269 0
M  V30 6336 C 612.923 4.42617 -0.800629 0
M  V30 6337 C 614.242 4.2121 1.27554 0
M  V30 6338 H 611.361 0.733388 0.0728803 0
M  V30 6339 H 614.003 1.83068 -0.50853 0
M  V30 6340 H 612.153 3.72932 1.08875 0
M  V30 6341 H 613.825 4.38323 -1.43773 0
M  V30 6342 H 612.068 4.09977 -1.4178 0
M  V30 6343 H 612.739 5.49134 -0.561791 0
M  V30 6344 H 615.215 4.09072 0.761514 0
M  V30 6345 H 614.091 5.29732 1.43788 0
M  V30 6346 H 614.352 3.78269 2.28833 0
M  V30 6347 N 613.412 0.11024 1.57214 0
M  V30 6348 C 614.64 -0.557834 1.99238 0
M  V30 6349 C 615.055 -1.60778 0.989734 0
M  V30 6350 O 614.412 -1.82491 -0.0186092 0
M  V30 6351 C 614.463 -1.19189 3.41286 0
M  V30 6352 O 614.184 -0.183919 4.37714 0
M  V30 6353 C 615.685 -1.94413 3.98395 0
M  V30 6354 H 612.905 -0.148392 0.654386 0
M  V30 6355 H 615.449 0.193996 2.03578 0
M  V30 6356 H 613.604 -1.89456 3.37913 0
M  V30 6357 H 614.018 -0.643475 5.20538 0
M  V30 6358 H 615.492 -2.34116 4.99894 0
M  V30 6359 H 615.969 -2.81592 3.3705 0
M  V30 6360 H 616.575 -1.28928 4.05287 0
M  V30 6361 N 614.89 -1.56749 -0.16351 0
M  V30 6362 C 616.139 -1.81626 -0.877211 0
M  V30 6363 C 616.452 -0.688791 -1.83071 0
M  V30 6364 O 617.658 -0.822697 -2.58735 0
M  V30 6365 C 616.114 -3.21858 -1.61045 0
M  V30 6366 C 615.722 -4.42494 -0.700195 0
M  V30 6367 C 617.466 -3.56021 -2.31192 0
M  V30 6368 C 615.373 -5.73748 -1.43412 0
M  V30 6369 H 614.303 -0.67731 -0.331312 0
M  V30 6370 H 616.954 -1.83039 -0.13006 0
M  V30 6371 H 615.336 -3.14784 -2.40264 0
M  V30 6372 H 616.51 -4.60766 0.0555849 0
M  V30 6373 H 614.825 -4.1626 -0.10799 0
M  V30 6374 H 617.422 -4.51333 -2.8671 0
M  V30 6375 H 617.765 -2.81277 -3.06902 0
M  V30 6376 H 618.298 -3.64682 -1.58909 0
M  V30 6377 H 615.037 -6.51543 -0.719186 0
M  V30 6378 H 614.557 -5.5944 -2.16302 0
M  V30 6379 H 616.236 -6.15975 -1.9795 0
M  V30 6380 N 616.368 0.432326 -1.51554 0
M  V30 6381 C 617.596 1.20364 -1.68286 0
M  V30 6382 C 618.011 1.84888 -0.38233 0
M  V30 6383 O 617.368 1.70924 0.639627 0
M  V30 6384 C 617.419 2.28398 -2.80208 0
M  V30 6385 O 617.14 1.66512 -4.05223 0
M  V30 6386 C 618.641 3.18584 -3.08251 0
M  V30 6387 H 615.861 0.36259 -0.564596 0
M  V30 6388 H 618.405 0.511647 -1.97996 0
M  V30 6389 H 616.56 2.93305 -2.53083 0
M  V30 6390 H 616.974 2.37951 -4.67418 0
M  V30 6391 H 618.448 3.90511 -3.90135 0
M  V30 6392 H 618.925 3.79628 -2.2086 0
M  V30 6393 H 619.531 2.59372 -3.37055 0
M  V30 6394 N 617.846 1.41785 0.688094 0
M  V30 6395 C 618.776 1.47 1.8142 0
M  V30 6396 C 619.757 0.327881 1.6691 0
M  V30 6397 O 620.942 0.540362 1.86531 0
M  V30 6398 C 618.072 1.35876 3.19617 0
M  V30 6399 C 617.026 2.47976 3.48844 0
M  V30 6400 C 616.352 2.21915 4.86475 0
M  V30 6401 C 617.652 3.90309 3.47068 0
M  V30 6402 H 619.346 2.41247 1.77314 0
M  V30 6403 H 616.892 1.16116 0.851651 0
M  V30 6404 H 618.845 1.38134 3.98117 0
M  V30 6405 H 617.569 0.38116 3.24368 0
M  V30 6406 H 616.228 2.45013 2.72698 0
M  V30 6407 H 615.876 1.2248 4.8786 0
M  V30 6408 H 615.576 2.97037 5.06994 0
M  V30 6409 H 617.1 2.25901 5.67275 0
M  V30 6410 H 618.514 3.94947 4.1556 0
M  V30 6411 H 616.911 4.65175 3.7912 0
M  V30 6412 H 617.981 4.17927 2.45896 0
M  V30 6413 N 619.324 -0.923095 1.27737 0
M  V30 6414 C 620.549 -1.71054 1.17283 0
M  V30 6415 C 620.974 -1.86208 -0.266153 0
M  V30 6416 O 620.332 -1.36545 -1.1927 0
M  V30 6417 C 620.38 -3.0854 1.86642 0
M  V30 6418 O 619.484 -3.95528 1.16752 0
M  V30 6419 H 618.825 -0.524136 0.407649 0
M  V30 6420 H 621.355 -1.15487 1.6889 0
M  V30 6421 H 621.365 -3.58828 1.94182 0
M  V30 6422 H 620.04 -2.96828 2.91317 0
M  V30 6423 H 618.617 -3.53967 1.17312 0
M  V30 6424 N 620.802 -1.09834 -1.13024 0
M  V30 6425 C 621.765 -0.745058 -2.16752 0
M  V30 6426 C 622.765 0.227435 -1.59183 0
M  V30 6427 O 623.955 0.0050786 -1.74199 0
M  V30 6428 C 621.087 -0.102543 -3.40746 0
M  V30 6429 H 622.28 -1.66375 -2.49518 0
M  V30 6430 H 619.833 -0.898061 -1.27924 0
M  V30 6431 H 620.568 0.827177 -3.13573 0
M  V30 6432 H 620.353 -0.80235 -3.83803 0
M  V30 6433 H 621.843 0.129082 -4.174 0
M  V30 6434 N 622.28 1.30327 -0.886154 0
M  V30 6435 C 623.528 1.9571 -0.504195 0
M  V30 6436 C 623.849 1.70294 0.950003 0
M  V30 6437 O 623.119 1.02718 1.66811 0
M  V30 6438 H 621.699 0.72412 -0.183465 0
M  V30 6439 H 624.361 1.58835 -1.12949 0
M  V30 6440 H 623.457 3.04704 -0.675431 0
M  V30 6441 N 623.758 0.647228 1.43697 0
M  V30 6442 C 624.721 -0.0385101 2.29168 0
M  V30 6443 C 625.721 -0.756487 1.41894 0
M  V30 6444 O 626.911 -0.598641 1.63591 0
M  V30 6445 C 624.043 -1.06524 3.23829 0
M  V30 6446 H 625.236 0.713445 2.9129 0
M  V30 6447 H 622.789 0.408153 1.50877 0
M  V30 6448 H 623.524 -1.84664 2.66589 0
M  V30 6449 H 623.309 -0.554147 3.88164 0
M  V30 6450 H 624.799 -1.54432 3.87996 0
M  V30 6451 N 625.236 -1.5273 0.388769 0
M  V30 6452 C 626.183 -2.26437 -0.446639 0
M  V30 6453 C 627.153 -1.28025 -1.05824 0
M  V30 6454 O 628.338 -1.56852 -1.08637 0
M  V30 6455 C 625.478 -3.07407 -1.56828 0
M  V30 6456 C 624.591 -4.20747 -0.979589 0
M  V30 6457 C 623.726 -4.89113 -2.07224 0
M  V30 6458 C 622.765 -5.94447 -1.45942 0
M  V30 6459 N 621.902 -6.56411 -2.49135 0
M  V30 6460 H 626.742 -2.97404 0.18837 0
M  V30 6461 H 624.279 -1.46727 0.104725 0
M  V30 6462 H 626.237 -3.52642 -2.22934 0
M  V30 6463 H 624.867 -2.3865 -2.17361 0
M  V30 6464 H 623.919 -3.7983 -0.208151 0
M  V30 6465 H 625.231 -4.9637 -0.491747 0
M  V30 6466 H 624.385 -5.3765 -2.81101 0
M  V30 6467 H 623.124 -4.13013 -2.59368 0
M  V30 6468 H 622.129 -5.4525 -0.705894 0
M  V30 6469 H 623.354 -6.7248 -0.945932 0
M  V30 6470 H 621.3 -5.83152 -3.00449 0
M  V30 6471 H 621.217 -7.27645 -2.05105 0
M  V30 6472 H 622.485 -7.09592 -3.22644 0
M  V30 6473 N 626.714 -0.118576 -1.57153 0
M  V30 6474 C 627.991 0.583062 -1.86708 0
M  V30 6475 C 628.371 1.84841 -1.01967 0
M  V30 6476 O 627.719 2.28288 -0.0984673 0
M  V30 6477 C 627.929 0.875912 -3.3783 0
M  V30 6478 C 629.277 1.22916 -4.0642 0
M  V30 6479 O 630.301 0.966188 -3.42846 0
M  V30 6480 O 629.16 1.72269 -5.18638 0
M  V30 6481 H 626.254 0.294185 -0.772906 0
M  V30 6482 H 628.8 -0.153048 -1.69008 0
M  V30 6483 H 627.572 -0.0207776 -3.91294 0
M  V30 6484 H 627.195 1.66719 -3.60958 0
M  V30 6485 N 628.193 1.56834 0.155195 0
M  V30 6486 C 629.126 1.9278 1.22111 0
M  V30 6487 C 630.104 0.792588 1.41975 0
M  V30 6488 O 631.288 1.04743 1.5672 0
M  V30 6489 C 628.415 2.19273 2.58142 0
M  V30 6490 C 627.461 3.41932 2.54921 0
M  V30 6491 S 628.294 4.95769 2.02418 0
M  V30 6492 C 629.45 5.25375 3.40194 0
M  V30 6493 H 629.683 2.82889 0.914393 0
M  V30 6494 H 627.216 1.50133 0.360461 0
M  V30 6495 H 629.174 2.35217 3.36427 0
M  V30 6496 H 627.835 1.29843 2.86007 0
M  V30 6497 H 627.028 3.57721 3.55038 0
M  V30 6498 H 626.63 3.25188 1.8474 0
M  V30 6499 H 628.922 5.1834 4.36268 0
M  V30 6500 H 629.865 6.26889 3.29266 0
M  V30 6501 H 630.273 4.52906 3.36951 0
M  V30 6502 N 629.671 -0.424282 1.51781 0
M  V30 6503 C 630.917 -1.17434 1.6534 0
M  V30 6504 C 631.25 -1.90549 0.374806 0
M  V30 6505 O 630.525 -1.84145 -0.626179 0
M  V30 6506 C 630.808 -2.18093 2.86544 0
M  V30 6507 C 630.661 -1.48975 4.24413 0
M  V30 6508 C 631.98 -3.18934 3.03264 0
M  V30 6509 H 629.099 -0.425566 0.601716 0
M  V30 6510 H 631.741 -0.461921 1.84299 0
M  V30 6511 H 629.891 -2.78849 2.7051 0
M  V30 6512 H 631.563 -0.914551 4.52143 0
M  V30 6513 H 629.806 -0.791893 4.26511 0
M  V30 6514 H 630.477 -2.22347 5.05238 0
M  V30 6515 H 632.953 -2.68243 3.18096 0
M  V30 6516 H 631.829 -3.86645 3.89611 0
M  V30 6517 H 632.09 -3.85793 2.15908 0
M  V30 6518 N 631.149 -1.42148 -0.680565 0
M  V30 6519 C 632.096 -1.45175 -1.79424 0
M  V30 6520 C 633.066 -0.304352 -1.63288 0
M  V30 6521 O 634.251 -0.507591 -1.83924 0
M  V30 6522 C 631.391 -1.35429 -3.17416 0
M  V30 6523 C 630.504 -2.60158 -3.4488 0
M  V30 6524 C 629.639 -2.42596 -4.72568 0
M  V30 6525 C 628.678 -3.62727 -4.93047 0
M  V30 6526 N 627.815 -3.44143 -6.11973 0
M  V30 6527 H 632.655 -2.40349 -1.76172 0
M  V30 6528 H 630.192 -1.19334 -0.860107 0
M  V30 6529 H 632.15 -1.27777 -3.97151 0
M  V30 6530 H 630.78 -0.438536 -3.19807 0
M  V30 6531 H 629.832 -2.78199 -2.5944 0
M  V30 6532 H 631.144 -3.49473 -3.55908 0
M  V30 6533 H 630.298 -2.32497 -5.60384 0
M  V30 6534 H 629.037 -1.50761 -4.63813 0
M  V30 6535 H 628.042 -3.73264 -4.03676 0
M  V30 6536 H 629.267 -4.55534 -5.03652 0
M  V30 6537 H 627.213 -2.5502 -6.04401 0
M  V30 6538 H 627.13 -4.27041 -6.23836 0
M  V30 6539 H 628.398 -3.37845 -7.02482 0
M  V30 6540 N 632.627 0.916307 -1.28225 0
M  V30 6541 C 633.574 2.01841 -1.11932 0
M  V30 6542 C 634.544 1.66091 -0.0171604 0
M  V30 6543 O 635.729 1.89934 -0.181617 0
M  V30 6544 C 632.869 3.36065 -0.784504 0
M  V30 6545 C 631.982 3.847 -1.96544 0
M  V30 6546 C 631.117 5.07423 -1.57149 0
M  V30 6547 C 630.156 5.48384 -2.71922 0
M  V30 6548 N 629.293 6.62298 -2.33037 0
M  V30 6549 H 634.133 2.1511 -2.06232 0
M  V30 6550 H 631.67 1.05366 -1.02647 0
M  V30 6551 H 633.628 4.13272 -0.571148 0
M  V30 6552 H 632.258 3.22571 0.121565 0
M  V30 6553 H 631.31 3.03673 -2.291 0
M  V30 6554 H 632.622 4.1102 -2.82603 0
M  V30 6555 H 631.776 5.92165 -1.32004 0
M  V30 6556 H 630.515 4.82906 -0.682153 0
M  V30 6557 H 629.52 4.62184 -2.97768 0
M  V30 6558 H 630.745 5.7489 -3.61494 0
M  V30 6559 H 628.691 6.39416 -1.4657 0
M  V30 6560 H 628.608 6.8833 -3.12631 0
M  V30 6561 H 629.876 7.50352 -2.11169 0
M  V30 6562 N 634.105 1.10431 1.1244 0
M  V30 6563 C 635.053 0.747974 2.20246 0
M  V30 6564 C 636.047 -0.255848 1.67457 0
M  V30 6565 O 637.253 -0.116221 1.79624 0
M  V30 6566 H 633.628 0.223946 0.71788 0
M  V30 6567 H 635.599 1.6661 2.47556 0
M  V30 6568 C 634.348 0.195957 3.47147 0
M  V30 6569 H 633.671 0.959606 3.88113 0
M  V30 6570 H 635.111 -0.0153154 4.23997 0
M  V30 6571 C 633.57 -1.07132 3.19413 0
M  V30 6572 O 634.1 -2.15284 3.3914 0
M  V30 6573 N 632.306 -0.98994 2.73219 0
M  V30 6574 H 631.853 -0.109736 2.57366 0
M  V30 6575 H 631.811 -1.83856 2.55038 0
M  V30 6576 N 635.583 -1.29855 0.893053 0
M  V30 6577 C 636.546 -2.26183 0.370687 0
M  V30 6578 C 637.546 -1.53108 -0.491385 0
M  V30 6579 O 638.736 -1.71643 -0.297386 0
M  V30 6580 C 635.868 -3.37633 -0.470827 0
M  V30 6581 H 637.061 -2.73903 1.22135 0
M  V30 6582 H 634.614 -1.41183 0.67061 0
M  V30 6583 H 635.349 -2.95241 -1.34175 0
M  V30 6584 H 635.134 -3.91825 0.146784 0
M  V30 6585 H 636.624 -4.09313 -0.827825 0
M  V30 6586 N 637.061 -0.65484 -1.43351 0
M  V30 6587 C 638.009 0.0476784 -2.32551 0
M  V30 6588 C 639.003 0.811403 -1.48703 0
M  V30 6589 O 640.209 0.721621 -1.64902 0
M  V30 6590 H 636.584 0.0342038 -0.751222 0
M  V30 6591 H 638.555 -0.722342 -2.89525 0
M  V30 6592 C 637.304 0.999251 -3.33032 0
M  V30 6593 H 636.627 0.421005 -3.97577 0
M  V30 6594 H 638.067 1.45986 -3.98076 0
M  V30 6595 C 636.526 2.09606 -2.63756 0
M  V30 6596 O 637.056 3.18004 -2.4543 0
M  V30 6597 N 635.262 1.86207 -2.23103 0
M  V30 6598 H 634.809 0.980555 -2.38208 0
M  V30 6599 H 634.767 2.59787 -1.77081 0
M  V30 6600 N 638.539 1.52521 -0.396863 0
M  V30 6601 C 639.785 2.01971 0.183169 0
M  V30 6602 C 640.118 1.2825 1.45827 0
M  V30 6603 O 639.393 0.385179 1.90648 0
M  V30 6604 C 639.676 3.5736 0.443391 0
M  V30 6605 C 639.529 4.41743 -0.84753 0
M  V30 6606 C 640.848 4.22539 1.2308 0
M  V30 6607 H 637.967 0.734119 0.0650976 0
M  V30 6608 H 640.609 1.82519 -0.527918 0
M  V30 6609 H 638.759 3.74066 1.04914 0
M  V30 6610 H 640.431 4.36773 -1.48414 0
M  V30 6611 H 638.674 4.0845 -1.4612 0
M  V30 6612 H 639.345 5.48507 -0.620003 0
M  V30 6613 H 641.821 4.09857 0.718084 0
M  V30 6614 H 640.697 5.31227 1.38162 0
M  V30 6615 H 640.958 3.80675 2.24808 0
M  V30 6616 N 640.017 0.126909 1.57088 0
M  V30 6617 C 641.433 -0.229641 1.57939 0
M  V30 6618 C 641.633 -1.66145 1.1401 0
M  V30 6619 O 640.689 -2.3843 0.831119 0
M  V30 6620 C 642.002 0.0108648 3.00698 0
M  V30 6621 C 643.55 -0.054418 3.12953 0
M  V30 6622 C 644.025 0.158497 4.57726 0
M  V30 6623 N 645.516 0.104735 4.63082 0
M  V30 6624 C 646.251 0.24427 5.72879 0
M  V30 6625 N 645.747 0.440415 6.91399 0
M  V30 6626 N 647.54 0.183286 5.61801 0
M  V30 6627 H 639.691 1.06203 1.83942 0
M  V30 6628 H 641.954 0.418834 0.85046 0
M  V30 6629 H 641.66 1.00102 3.37154 0
M  V30 6630 H 641.534 -0.717512 3.70313 0
M  V30 6631 H 643.921 -1.0351 2.7635 0
M  V30 6632 H 644.002 0.705967 2.45865 0
M  V30 6633 H 643.646 1.13619 4.95028 0
M  V30 6634 H 643.576 -0.62197 5.22914 0
M  V30 6635 H 646.067 -0.0430298 3.77876 0
M  V30 6636 H 646.38 0.537536 7.70928 0
M  V30 6637 H 644.725 0.476488 6.93365 0
M  V30 6638 H 647.916 0.0309561 4.6809 0
M  V30 6639 H 648.089 0.295471 6.47326 0
M  V30 6640 N 641.495 -1.56914 -0.146875 0
M  V30 6641 C 642.442 -1.98275 -1.18134 0
M  V30 6642 C 643.412 -0.850367 -1.42681 0
M  V30 6643 O 644.597 -1.11244 -1.55014 0
M  V30 6644 C 641.737 -2.36861 -2.5098 0
M  V30 6645 C 640.85 -3.63391 -2.33605 0
M  V30 6646 C 639.985 -3.91079 -3.59486 0
M  V30 6647 C 639.024 -5.10879 -3.37149 0
M  V30 6648 N 638.161 -5.34577 -4.55161 0
M  V30 6649 H 643.001 -2.8645 -0.821622 0
M  V30 6650 H 640.538 -1.41718 -0.394248 0
M  V30 6651 H 642.496 -2.57262 -3.28439 0
M  V30 6652 H 641.126 -1.51766 -2.84898 0
M  V30 6653 H 640.178 -3.50766 -1.47199 0
M  V30 6654 H 641.49 -4.51007 -2.13059 0
M  V30 6655 H 640.644 -4.11979 -4.45374 0
M  V30 6656 H 639.383 -3.01885 -3.83036 0
M  V30 6657 H 638.388 -4.89853 -2.49649 0
M  V30 6658 H 639.613 -6.01626 -3.14997 0
M  V30 6659 H 637.559 -4.48337 -4.78884 0
M  V30 6660 H 637.476 -6.16463 -4.37618 0
M  V30 6661 H 638.744 -5.59975 -5.42263 0
M  V30 6662 N 642.974 0.416227 -1.52004 0
M  V30 6663 C 643.904 1.51365 -1.77795 0
M  V30 6664 C 644.885 1.58059 -0.628601 0
M  V30 6665 O 646.07 1.73447 -0.873478 0
M  V30 6666 C 643.2 2.89256 -1.92219 0
M  V30 6667 C 642.154 2.97415 -3.0778 0
M  V30 6668 C 641.48 4.37492 -3.07417 0
M  V30 6669 C 642.78 2.69551 -4.47369 0
M  V30 6670 H 644.474 1.30033 -2.69688 0
M  V30 6671 H 642.02 0.624112 -1.29772 0
M  V30 6672 H 643.973 3.66008 -2.08845 0
M  V30 6673 H 642.697 3.11866 -0.969917 0
M  V30 6674 H 641.356 2.23107 -2.90893 0
M  V30 6675 H 641.004 4.571 -2.09925 0
M  V30 6676 H 640.704 4.43877 -3.85029 0
M  V30 6677 H 642.228 5.16188 -3.26162 0
M  V30 6678 H 643.642 3.36028 -4.64497 0
M  V30 6679 H 642.039 2.87321 -5.26846 0
M  V30 6680 H 643.109 1.65029 -4.55953 0
M  V30 6681 N 644.452 1.42507 0.673017 0
M  V30 6682 C 645.863 1.38347 1.25367 0
M  V30 6683 C 646.214 0.0776327 1.96046 0
M  V30 6684 O 645.339 -0.823571 2.00116 0
M  V30 6685 C 645.934 2.506 2.28002 0
M  V30 6686 C 644.493 2.49767 2.81591 0
M  V30 6687 C 643.64 2.293 1.55938 0
M  V30 6688 H 646.591 1.51695 0.466288 0
M  V30 6689 H 646.612 2.20953 3.09774 0
M  V30 6690 H 646.124 3.45627 1.76532 0
M  V30 6691 H 644.225 1.58563 3.37177 0
M  V30 6692 H 644.338 3.46867 3.30485 0
M  V30 6693 H 642.702 1.77594 1.82572 0
M  V30 6694 H 643.485 3.26385 1.06431 0
M  V30 6695 N 645.93 -0.909495 1.28709 0
M  V30 6696 C 646.893 -1.99399 1.13016 0
M  V30 6697 C 647.893 -1.60654 0.068536 0
M  V30 6698 O 649.083 -1.71334 0.314671 0
M  V30 6699 C 646.215 -3.33078 0.726085 0
M  V30 6700 H 647.408 -2.14751 2.09338 0
M  V30 6701 H 644.961 -1.09272 1.11756 0
M  V30 6702 H 645.696 -3.23428 -0.23771 0
M  V30 6703 H 645.481 -3.62562 1.49302 0
M  V30 6704 H 646.971 -4.12681 0.639058 0
M  V30 6705 N 647.408 -1.11026 -1.11852 0
M  V30 6706 C 648.654 -0.857729 -1.83768 0
M  V30 6707 C 648.987 0.615143 -1.842 0
M  V30 6708 O 648.262 1.45391 -1.29196 0
M  V30 6709 C 648.545 -1.41453 -3.31154 0
M  V30 6710 C 648.398 -2.95471 -3.39142 0
M  V30 6711 C 649.717 -1.0619 -4.27097 0
M  V30 6712 H 646.836 -0.313044 -0.667212 0
M  V30 6713 H 649.478 -1.37443 -1.31185 0
M  V30 6714 H 647.628 -0.975052 -3.76065 0
M  V30 6715 H 649.3 -3.4799 -3.02821 0
M  V30 6716 H 647.543 -3.31759 -2.79497 0
M  V30 6717 H 648.214 -3.29515 -4.42859 0
M  V30 6718 H 650.69 -1.44122 -3.90344 0
M  V30 6719 H 649.566 -1.47832 -5.28618 0
M  V30 6720 H 649.827 0.0278912 -4.42091 0
M  V30 6721 N 648.886 1.2938 -0.899927 0
M  V30 6722 C 649.796 2.31462 -0.382437 0
M  V30 6723 C 650.812 1.65956 0.522929 0
M  V30 6724 O 651.988 1.97131 0.412454 0
M  V30 6725 C 649.053 3.44595 0.381472 0
M  V30 6726 C 648.114 4.25692 -0.555444 0
M  V30 6727 C 647.347 5.33422 0.172102 0
M  V30 6728 O 647.57 5.53053 1.396 0
M  V30 6729 O 646.504 5.99939 -0.485491 0
M  V30 6730 H 650.33 2.77706 -1.22934 0
M  V30 6731 H 647.915 1.33821 -0.664259 0
M  V30 6732 H 649.797 4.13474 0.813442 0
M  V30 6733 H 648.472 3.00458 1.20443 0
M  V30 6734 H 647.379 3.59453 -1.03653 0
M  V30 6735 H 648.712 4.73471 -1.34483 0
M  V30 6736 N 650.364 0.662433 1.43002 0
M  V30 6737 C 651.592 0.187615 2.06048 0
M  V30 6738 C 652.007 -1.15039 1.49705 0
M  V30 6739 O 651.364 -1.71209 0.631956 0
M  V30 6740 C 651.415 0.100498 3.6136 0
M  V30 6741 O 651.136 1.38562 4.15611 0
M  V30 6742 C 652.637 -0.399298 4.41498 0
M  V30 6743 H 649.857 0.0941675 0.664359 0
M  V30 6744 H 652.401 0.905681 1.83351 0
M  V30 6745 H 650.556 -0.568181 3.83211 0
M  V30 6746 H 650.97 1.25084 5.09366 0
M  V30 6747 H 652.444 -0.409187 5.50481 0
M  V30 6748 H 652.921 -1.43232 4.15188 0
M  V30 6749 H 653.527 0.23721 4.24638 0
M  V30 6750 N 651.842 -1.52309 0.404946 0
M  V30 6751 C 652.772 -2.29805 -0.41376 0
M  V30 6752 C 653.753 -1.3384 -1.0498 0
M  V30 6753 O 654.938 -1.62745 -1.05961 0
M  V30 6754 C 652.068 -3.11639 -1.53292 0
M  V30 6755 C 651.022 -4.15616 -1.02211 0
M  V30 6756 C 650.348 -4.8577 -2.23455 0
M  V30 6757 C 651.648 -5.2224 -0.0790725 0
M  V30 6758 H 653.342 -2.98493 0.232878 0
M  V30 6759 H 650.888 -1.43552 0.113441 0
M  V30 6760 H 652.841 -3.64618 -2.11262 0
M  V30 6761 H 651.565 -2.40712 -2.20738 0
M  V30 6762 H 650.224 -3.63641 -0.46484 0
M  V30 6763 H 649.872 -4.11376 -2.89445 0
M  V30 6764 H 649.572 -5.56058 -1.89929 0
M  V30 6765 H 651.096 -5.4156 -2.82038 0
M  V30 6766 H 652.51 -5.70485 -0.567438 0
M  V30 6767 H 650.907 -5.99867 0.167167 0
M  V30 6768 H 651.977 -4.77078 0.867447 0
M  V30 6769 N 653.32 -0.135238 -1.57019 0
M  V30 6770 C 654.568 0.51777 -1.95355 0
M  V30 6771 C 654.889 1.6617 -1.02042 0
M  V30 6772 O 654.159 1.95738 -0.0797343 0
M  V30 6773 H 652.739 0.194264 -0.721298 0
M  V30 6774 H 655.401 -0.207983 -1.93787 0
M  V30 6775 H 654.497 0.901675 -2.98791 0
M  V30 6776 N 654.798 1.5699 0.138552 0
M  V30 6777 C 656.038 1.85619 0.855849 0
M  V30 6778 C 656.402 0.720663 1.77962 0
M  V30 6779 O 657.603 0.888221 2.53701 0
M  V30 6780 C 655.874 3.19447 1.60275 0
M  V30 6781 S 657.433 3.69656 2.36431 0
M  V30 6782 H 654.251 0.650926 0.286035 0
M  V30 6783 H 656.853 1.9516 0.115331 0
M  V30 6784 H 655.557 4.00053 0.915737 0
M  V30 6785 H 655.088 3.12935 2.38402 0
M  V30 6786 H 657.103 3.39595 3.61787 0
M  V30 6787 N 656.276 -0.40816 1.52223 0
M  V30 6788 C 657.516 -1.16418 1.68006 0
M  V30 6789 C 657.88 -1.87749 0.401793 0
M  V30 6790 O 659.081 -2.65245 0.435743 0
M  V30 6791 C 657.352 -2.13143 2.86889 0
M  V30 6792 S 658.911 -2.96839 3.2316 0
M  V30 6793 H 655.729 -0.394373 0.5916 0
M  V30 6794 H 658.331 -0.451349 1.90219 0
M  V30 6795 H 657.035 -1.59428 3.78168 0
M  V30 6796 H 656.566 -2.88963 2.66953 0
M  V30 6797 H 658.581 -4.151 2.71857 0
M  V30 6798 N 657.755 -1.42862 -0.66545 0
M  V30 6799 C 658.98 -1.47456 -1.45848 0
M  V30 6800 C 659.405 -0.0900312 -1.87884 0
M  V30 6801 O 658.763 0.913587 -1.56599 0
M  V30 6802 C 658.811 -2.41514 -2.67774 0
M  V30 6803 O 657.915 -1.89296 -3.66389 0
M  V30 6804 H 657.256 -0.499236 -0.437789 0
M  V30 6805 H 659.786 -1.8765 -0.815394 0
M  V30 6806 H 659.796 -2.58409 -3.15735 0
M  V30 6807 H 658.471 -3.42099 -2.36519 0
M  V30 6808 H 657.048 -1.82003 -3.25468 0
M  V30 6809 N 659.233 0.902656 -1.29189 0
M  V30 6810 C 660.479 1.65532 -1.17163 0
M  V30 6811 C 660.812 1.92216 0.276879 0
M  V30 6812 O 660.087 1.53048 1.20027 0
M  V30 6813 C 660.37 3.00629 -1.98228 0
M  V30 6814 C 660.223 2.81029 -3.51202 0
M  V30 6815 C 661.542 4.01321 -1.80635 0
M  V30 6816 H 658.661 0.60071 -0.426985 0
M  V30 6817 H 661.303 1.04578 -1.5863 0
M  V30 6818 H 659.453 3.52656 -1.62991 0
M  V30 6819 H 661.125 2.35927 -3.96404 0
M  V30 6820 H 659.368 2.1587 -3.76275 0
M  V30 6821 H 660.039 3.77014 -4.03192 0
M  V30 6822 H 662.515 3.58394 -2.11406 0
M  V30 6823 H 661.391 4.93792 -2.3971 0
M  V30 6824 H 661.652 4.35505 -0.760754 0
M  V30 6825 N 660.711 1.11618 1.11262 0
M  V30 6826 C 661.96 0.860934 1.82403 0
M  V30 6827 C 662.273 -0.615303 1.8567 0
M  V30 6828 O 663.479 -0.986861 2.52929 0
M  V30 6829 C 661.935 1.49048 3.27586 0
M  V30 6830 C 661.543 3.00089 3.32642 0
M  V30 6831 C 663.287 1.31515 4.03614 0
M  V30 6832 C 661.194 3.56019 4.72234 0
M  V30 6833 H 660.124 0.318423 0.683464 0
M  V30 6834 H 662.775 1.34165 1.25188 0
M  V30 6835 H 661.157 0.937434 3.84744 0
M  V30 6836 H 662.331 3.61813 2.85356 0
M  V30 6837 H 660.646 3.16919 2.70096 0
M  V30 6838 H 663.243 1.70732 5.0671 0
M  V30 6839 H 663.586 0.257917 4.155 0
M  V30 6840 H 664.119 1.83694 3.52848 0
M  V30 6841 H 660.858 4.61463 4.65545 0
M  V30 6842 H 660.378 2.99066 5.19923 0
M  V30 6843 H 662.057 3.54568 5.41193 0
M  V30 6844 N 662.189 -1.289 0.906776 0
M  V30 6845 C 663.429 -1.97046 0.543329 0
M  V30 6846 C 663.793 -1.69862 -0.895034 0
M  V30 6847 O 664.994 -2.31521 -1.36571 0
M  V30 6848 C 663.265 -3.47489 0.835833 0
M  V30 6849 S 664.824 -4.3498 0.577756 0
M  V30 6850 H 661.642 -0.681908 0.201302 0
M  V30 6851 H 664.244 -1.5657 1.17073 0
M  V30 6852 H 662.948 -3.64768 1.88075 0
M  V30 6853 H 662.479 -3.92907 0.196817 0
M  V30 6854 H 664.494 -4.92868 -0.574052 0
M  V30 6855 N 663.667 -0.670007 -1.42649 0
M  V30 6856 C 664.892 -0.196955 -2.06463 0
M  V30 6857 C 665.317 1.1352 -1.49983 0
M  V30 6858 O 664.675 1.705 -0.616397 0
M  V30 6859 C 664.723 -0.137381 -3.60338 0
M  V30 6860 O 663.827 0.895523 -4.02559 0
M  V30 6861 H 663.168 -0.102579 -0.656029 0
M  V30 6862 H 665.698 -0.917669 -1.82866 0
M  V30 6863 H 665.708 0.0403625 -4.0798 0
M  V30 6864 H 664.383 -1.10977 -4.0082 0
M  V30 6865 H 662.96 0.689209 -3.66476 0
M  V30 6866 N 665.145 1.52092 -0.413018 0
M  V30 6867 C 666.422 1.94356 0.22024 0
M  V30 6868 C 666.802 1.35017 1.62277 0
M  V30 6869 O 666.15 0.527511 2.22328 0
M  V30 6870 C 666.36 3.48289 0.222638 0
M  V30 6871 C 667.708 4.22313 0.440098 0
M  V30 6872 O 668.732 3.54919 0.301826 0
M  V30 6873 O 667.591 5.41829 0.712984 0
M  V30 6874 H 664.685 0.814536 0.14304 0
M  V30 6875 H 667.231 1.63083 -0.469242 0
M  V30 6876 H 666.003 3.83872 -0.758836 0
M  V30 6877 H 665.626 3.85934 0.956057 0
M  V30 6878 N 666.623 0.143563 1.56945 0
M  V30 6879 C 667.57 -0.797433 2.16586 0
M  V30 6880 C 668.54 -1.24654 1.09775 0
M  V30 6881 O 669.725 -1.31968 1.37801 0
M  V30 6882 C 666.865 -2.03253 2.78895 0
M  V30 6883 C 665.978 -1.62954 4.00087 0
M  V30 6884 C 665.113 -2.81617 4.50406 0
M  V30 6885 C 664.152 -2.37675 5.64072 0
M  V30 6886 N 663.289 -3.49335 6.09023 0
M  V30 6887 H 668.129 -0.282023 2.96662 0
M  V30 6888 H 665.666 -0.127494 1.46546 0
M  V30 6889 H 667.624 -2.75653 3.13163 0
M  V30 6890 H 666.254 -2.52211 2.01469 0
M  V30 6891 H 665.306 -0.803322 3.71821 0
M  V30 6892 H 666.618 -1.26679 4.82446 0
M  V30 6893 H 665.772 -3.62212 4.86711 0
M  V30 6894 H 664.511 -3.21134 3.67048 0
M  V30 6895 H 663.516 -1.55519 5.27346 0
M  V30 6896 H 664.741 -1.99247 6.49213 0
M  V30 6897 H 662.687 -3.8848 5.28601 0
M  V30 6898 H 662.604 -3.17064 6.86299 0
M  V30 6899 H 663.872 -4.30297 6.49973 0
M  V30 6900 N 668.101 -1.57061 -0.130224 0
M  V30 6901 C 669.329 -1.88432 -0.854456 0
M  V30 6902 C 669.744 -0.733608 -1.73964 0
M  V30 6903 O 669.101 0.296029 -1.80083 0
M  V30 6904 C 669.152 -3.1918 -1.69724 0
M  V30 6905 O 668.873 -4.2982 -0.847705 0
M  V30 6906 C 670.374 -3.6418 -2.5276 0
M  V30 6907 H 667.594 -0.624193 -0.246221 0
M  V30 6908 H 670.138 -2.04159 -0.11798 0
M  V30 6909 H 668.293 -3.05156 -2.3866 0
M  V30 6910 H 668.707 -5.04689 -1.42792 0
M  V30 6911 H 670.181 -4.58457 -3.07443 0
M  V30 6912 H 670.658 -2.90285 -3.29592 0
M  V30 6913 H 671.264 -3.80954 -1.89087 0
M  V30 6914 N 669.579 0.400081 -1.52437 0
M  V30 6915 C 670.827 1.14392 -1.6661 0
M  V30 6916 C 671.148 1.90792 -0.402927 0
M  V30 6917 O 670.418 1.87042 0.582425 0
M  V30 6918 H 668.998 0.425275 -0.614125 0
M  V30 6919 H 671.66 0.455076 -1.89513 0
M  V30 6920 H 670.756 1.85298 -2.51139 0
M  V30 6921 N 671.057 1.43213 0.657864 0
M  V30 6922 C 672.285 1.48015 1.44566 0
M  V30 6923 C 672.7 0.0965951 1.88553 0
M  V30 6924 O 672.057 -0.892221 1.59203 0
M  V30 6925 C 672.108 2.42199 2.68369 0
M  V30 6926 O 671.829 3.75173 2.26223 0
M  V30 6927 C 673.33 2.56195 3.61772 0
M  V30 6928 H 670.55 0.502861 0.444266 0
M  V30 6929 H 673.094 1.87907 0.806917 0
M  V30 6930 H 671.249 2.05514 3.28394 0
M  V30 6931 H 671.663 4.25776 3.06293 0
M  V30 6932 H 673.137 3.26182 4.4532 0
M  V30 6933 H 673.614 1.60534 4.0881 0
M  V30 6934 H 674.22 2.93671 3.07632 0
M  V30 6935 N 672.536 -0.895792 1.29666 0
M  V30 6936 C 673.466 -2.01673 1.17688 0
M  V30 6937 C 674.447 -1.69955 0.0701317 0
M  V30 6938 O 675.632 -1.9258 0.250289 0
M  V30 6939 C 672.762 -3.36568 0.856681 0
M  V30 6940 C 671.716 -3.82509 1.92017 0
M  V30 6941 C 671.042 -5.14574 1.4532 0
M  V30 6942 C 672.342 -4.02409 3.32963 0
M  V30 6943 H 674.036 -2.11953 2.11463 0
M  V30 6944 H 671.582 -1.01839 1.01807 0
M  V30 6945 H 673.535 -4.14498 0.759577 0
M  V30 6946 H 672.259 -3.26391 -0.116763 0
M  V30 6947 H 670.918 -3.068 2.00673 0
M  V30 6948 H 670.566 -5.00815 0.468325 0
M  V30 6949 H 670.266 -5.46283 2.16447 0
M  V30 6950 H 671.79 -5.9504 1.36968 0
M  V30 6951 H 673.204 -4.70808 3.27127 0
M  V30 6952 H 671.601 -4.45478 4.02082 0
M  V30 6953 H 672.671 -3.06616 3.75652 0
M  V30 6954 N 674.014 -1.12206 -1.10668 0
M  V30 6955 C 675.242 -0.898635 -1.86366 0
M  V30 6956 C 675.657 0.551991 -1.80551 0
M  V30 6957 O 675.014 1.38152 -1.19249 0
M  V30 6958 C 675.065 -1.36199 -3.34861 0
M  V30 6959 O 674.786 -2.75576 -3.40573 0
M  V30 6960 C 676.287 -1.17515 -4.2744 0
M  V30 6961 H 673.507 -0.321281 -0.589084 0
M  V30 6962 H 676.051 -1.49142 -1.39918 0
M  V30 6963 H 674.206 -0.81249 -3.78784 0
M  V30 6964 H 674.62 -2.95851 -4.33096 0
M  V30 6965 H 676.094 -1.54827 -5.29842 0
M  V30 6966 H 676.571 -0.115486 -4.39048 0
M  V30 6967 H 677.177 -1.71203 -3.89319 0
M  V30 6968 N 675.492 1.28418 -0.913599 0
M  V30 6969 C 676.402 2.31043 -0.406965 0
M  V30 6970 C 677.418 1.66501 0.505298 0
M  V30 6971 O 678.594 1.97558 0.391522 0
M  V30 6972 C 675.659 3.4498 0.344901 0
M  V30 6973 C 674.72 4.25078 -0.600563 0
M  V30 6974 C 673.953 5.33575 0.115516 0
M  V30 6975 O 674.176 5.54503 1.33727 0
M  V30 6976 O 673.11 5.9939 -0.549095 0
M  V30 6977 H 676.936 2.76387 -1.25873 0
M  V30 6978 H 674.521 1.33109 -0.678415 0
M  V30 6979 H 676.403 4.14314 0.769542 0
M  V30 6980 H 675.078 3.01719 1.1725 0
M  V30 6981 H 673.985 3.58334 -1.0746 0
M  V30 6982 H 675.318 4.72018 -1.39497 0
M  V30 6983 N 676.97 0.677563 1.42291 0
M  V30 6984 C 678.218 0.200578 2.01102 0
M  V30 6985 C 678.539 -1.19803 1.53858 0
M  V30 6986 O 677.809 -1.80496 0.761439 0
M  V30 6987 H 676.389 0.0711634 0.743603 0
M  V30 6988 H 679.051 0.874691 1.7417 0
M  V30 6989 H 678.147 0.204 3.11433 0
M  V30 6990 N 678.448 -1.51871 0.421078 0
M  V30 6991 C 679.395 -2.27334 -0.398508 0
M  V30 6992 C 680.365 -1.30241 -1.03085 0
M  V30 6993 O 681.55 -1.59121 -1.05285 0
M  V30 6994 C 678.69 -3.10664 -1.50272 0
M  V30 6995 C 677.803 -4.2273 -0.890122 0
M  V30 6996 C 676.938 -4.93399 -1.96803 0
M  V30 6997 C 675.977 -5.97409 -1.333 0
M  V30 6998 N 675.114 -6.61548 -2.35156 0
M  V30 6999 H 679.954 -2.96938 0.251411 0
M  V30 7000 H 677.491 -1.46472 0.135825 0
M  V30 7001 H 679.449 -3.57292 -2.15403 0
M  V30 7002 H 678.079 -2.43207 -2.1225 0
M  V30 7003 H 677.131 -3.80186 -0.127537 0
M  V30 7004 H 678.443 -4.97302 -0.386349 0
M  V30 7005 H 677.597 -5.43491 -2.69633 0
M  V30 7006 H 676.336 -4.18421 -2.50549 0
M  V30 7007 H 675.341 -5.46624 -0.59008 0
M  V30 7008 H 676.566 -6.74335 -0.803076 0
M  V30 7009 H 674.512 -5.89394 -2.88012 0
M  V30 7010 H 674.429 -7.31832 -1.89624 0
M  V30 7011 H 675.697 -7.16276 -3.0752 0
M  V30 7012 N 679.926 -0.151884 -1.56866 0
M  V30 7013 C 680.859 0.824094 -2.128 0
M  V30 7014 C 681.837 1.2391 -1.05286 0
M  V30 7015 O 683.021 1.33433 -1.33146 0
M  V30 7016 C 680.148 2.1072 -2.65169 0
M  V30 7017 C 679.194 1.83774 -3.84876 0
M  V30 7018 S 680.027 1.02436 -5.25611 0
M  V30 7019 C 681.183 2.31855 -5.81373 0
M  V30 7020 H 681.416 0.348456 -2.95251 0
M  V30 7021 H 678.949 0.0624794 -1.54274 0
M  V30 7022 H 680.907 2.84428 -2.95992 0
M  V30 7023 H 679.568 2.55398 -1.8284 0
M  V30 7024 H 678.761 2.78929 -4.19779 0
M  V30 7025 H 678.363 1.18172 -3.5484 0
M  V30 7026 H 680.655 3.27469 -5.93102 0
M  V30 7027 H 681.598 2.01449 -6.7884 0
M  V30 7028 H 682.006 2.42727 -5.09651 0
M  V30 7029 N 681.404 1.57128 0.121893 0
M  V30 7030 C 682.632 1.88883 0.844451 0
M  V30 7031 C 683.047 0.742824 1.73573 0
M  V30 7032 O 682.404 -0.286475 1.80238 0
M  V30 7033 C 682.455 3.20076 1.68029 0
M  V30 7034 O 682.176 4.30264 0.824898 0
M  V30 7035 C 683.677 3.65515 2.50826 0
M  V30 7036 H 680.897 0.62549 0.242907 0
M  V30 7037 H 683.441 2.04219 0.107151 0
M  V30 7038 H 681.596 3.06418 2.37038 0
M  V30 7039 H 682.01 5.05439 1.40113 0
M  V30 7040 H 683.484 4.60081 3.05008 0
M  V30 7041 H 683.961 2.92029 3.28048 0
M  V30 7042 H 684.567 3.81952 1.87064 0
M  V30 7043 N 682.882 -0.391992 1.52647 0
M  V30 7044 C 683.845 -1.46135 1.7657 0
M  V30 7045 C 684.845 -1.47701 0.635698 0
M  V30 7046 O 686.035 -1.48924 0.903728 0
M  V30 7047 C 683.167 -2.85443 1.86374 0
M  V30 7048 H 684.36 -1.26208 2.72051 0
M  V30 7049 H 681.913 -0.623549 1.43323 0
M  V30 7050 H 682.648 -3.10718 0.928685 0
M  V30 7051 H 682.433 -2.85708 2.68539 0
M  V30 7052 H 683.923 -3.62933 2.06566 0
M  V30 7053 N 684.36 -1.4356 -0.65026 0
M  V30 7054 C 685.609 -1.44619 -1.406 0
M  V30 7055 C 685.922 -0.0752645 -1.95455 0
M  V30 7056 O 687.128 0.0366832 -2.71475 0
M  V30 7057 C 685.584 -2.54511 -2.54465 0
M  V30 7058 C 685.192 -3.97723 -2.06204 0
M  V30 7059 C 686.936 -2.64768 -3.31811 0
M  V30 7060 C 684.843 -4.99075 -3.17298 0
M  V30 7061 H 683.773 -0.537983 -0.52829 0
M  V30 7062 H 686.424 -1.69559 -0.701561 0
M  V30 7063 H 684.806 -2.22777 -3.27393 0
M  V30 7064 H 685.98 -4.38932 -1.40267 0
M  V30 7065 H 684.295 -3.91538 -1.41729 0
M  V30 7066 H 686.892 -3.37664 -4.14593 0
M  V30 7067 H 687.235 -1.69936 -3.80036 0
M  V30 7068 H 687.768 -2.95817 -2.65964 0
M  V30 7069 H 684.507 -5.95469 -2.74038 0
M  V30 7070 H 684.027 -4.62476 -3.81937 0
M  V30 7071 H 685.706 -5.21913 -3.82382 0
M  V30 7072 N 685.838 0.888903 -1.30139 0
M  V30 7073 C 686.786 2.0156 -1.16088 0
M  V30 7074 C 687.78 1.69239 -0.0737413 0
M  V30 7075 O 688.986 1.78468 -0.234313 0
M  V30 7076 H 685.361 0.660825 -0.358907 0
M  V30 7077 H 687.332 2.10547 -2.11453 0
M  V30 7078 C 686.081 3.36758 -0.865426 0
M  V30 7079 H 685.404 3.62137 -1.69402 0
M  V30 7080 H 686.844 4.16246 -0.807192 0
M  V30 7081 C 685.303 3.34124 0.431577 0
M  V30 7082 O 685.833 3.7445 1.45431 0
M  V30 7083 N 684.039 2.87229 0.441321 0
M  V30 7084 H 683.586 2.54609 -0.391433 0
M  V30 7085 H 683.544 2.8585 1.30909 0
M  V30 7086 N 687.317 1.12792 1.10072 0
M  V30 7087 C 688.28 0.802264 2.14701 0
M  V30 7088 C 689.28 -0.18515 1.59731 0
M  V30 7089 O 690.47 0.041109 1.74151 0
M  V30 7090 C 687.602 0.19285 3.40354 0
M  V30 7091 H 688.795 1.72932 2.45019 0
M  V30 7092 H 686.348 0.931662 1.25498 0
M  V30 7093 H 687.083 -0.743748 3.15656 0
M  V30 7094 H 686.868 0.903827 3.81541 0
M  V30 7095 H 688.358 -0.0183704 4.17596 0
M  V30 7096 N 688.795 -1.27931 0.920396 0
M  V30 7097 C 690.041 -1.94977 0.557832 0
M  V30 7098 C 690.374 -1.72224 -0.897365 0
M  V30 7099 O 689.649 -1.04705 -1.63912 0
M  V30 7100 C 689.932 -3.49289 0.875741 0
M  V30 7101 C 689.785 -3.81416 2.38416 0
M  V30 7102 C 691.104 -4.38486 0.376517 0
M  V30 7103 H 688.223 -0.708164 0.20414 0
M  V30 7104 H 690.865 -1.5118 1.15085 0
M  V30 7105 H 689.015 -3.86724 0.371062 0
M  V30 7106 H 690.687 -3.53813 2.95997 0
M  V30 7107 H 688.93 -3.28225 2.83639 0
M  V30 7108 H 689.601 -4.89198 2.55713 0
M  V30 7109 H 692.077 -4.08161 0.808945 0
M  V30 7110 H 690.953 -5.45296 0.627976 0
M  V30 7111 H 691.214 -4.36143 -0.723293 0
M  V30 7112 N 690.273 -0.685099 -1.4193 0
M  V30 7113 C 691.501 -0.220372 -2.05723 0
M  V30 7114 C 691.916 1.12642 -1.51516 0
M  V30 7115 O 691.273 1.70182 -0.659114 0
M  V30 7116 C 691.324 -0.157974 -3.61155 0
M  V30 7117 O 691.045 -1.45156 -4.13354 0
M  V30 7118 C 692.546 0.329009 -4.42077 0
M  V30 7119 H 689.766 -0.104725 -0.662777 0
M  V30 7120 H 692.31 -0.934736 -1.81887 0
M  V30 7121 H 690.465 0.507144 -3.84066 0
M  V30 7122 H 690.879 -1.33172 -5.07312 0
M  V30 7123 H 692.353 0.321559 -5.51063 0
M  V30 7124 H 692.83 1.36608 -4.17414 0
M  V30 7125 H 693.436 -0.304737 -4.24207 0
M  V30 7126 N 691.751 1.51645 -0.429126 0
M  V30 7127 C 693 2.01203 0.141538 0
M  V30 7128 C 693.313 1.31828 1.44502 0
M  V30 7129 O 694.519 1.7231 2.09813 0
M  V30 7130 C 692.975 3.58624 0.302786 0
M  V30 7131 C 692.583 4.3693 -0.989775 0
M  V30 7132 C 694.327 4.16353 0.827661 0
M  V30 7133 C 692.234 5.86037 -0.794619 0
M  V30 7134 H 691.164 0.751867 0.05667 0
M  V30 7135 H 693.815 1.74822 -0.557633 0
M  V30 7136 H 692.197 3.81417 1.06476 0
M  V30 7137 H 693.371 4.25887 -1.75945 0
M  V30 7138 H 691.686 3.90614 -1.44256 0
M  V30 7139 H 694.283 5.25455 0.990026 0
M  V30 7140 H 694.626 3.74995 1.80787 0
M  V30 7141 H 695.159 3.97606 0.124213 0
M  V30 7142 H 691.898 6.31792 -1.74697 0
M  V30 7143 H 691.418 5.99765 -0.0645968 0
M  V30 7144 H 693.097 6.45471 -0.444591 0
M  V30 7145 N 693.229 0.160201 1.56784 0
M  V30 7146 C 694.469 -0.490179 1.98435 0
M  V30 7147 C 694.833 -1.61164 1.04355 0
M  V30 7148 O 696.034 -2.3238 1.35103 0
M  V30 7149 C 694.305 -0.971106 3.43954 0
M  V30 7150 S 695.864 -1.62423 4.07632 0
M  V30 7151 H 692.682 -0.158056 0.693209 0
M  V30 7152 H 695.284 0.255036 1.93829 0
M  V30 7153 H 693.988 -0.144323 4.10146 0
M  V30 7154 H 693.519 -1.75063 3.52302 0
M  V30 7155 H 695.534 -2.91199 4.01768 0
M  V30 7156 N 694.707 -1.5719 -0.113559 0
M  V30 7157 C 695.654 -2.00736 -1.13901 0
M  V30 7158 C 696.624 -0.88044 -1.40846 0
M  V30 7159 O 697.809 -1.14507 -1.5262 0
M  V30 7160 C 694.949 -2.42132 -2.45899 0
M  V30 7161 C 694.062 -3.68264 -2.25844 0
M  V30 7162 C 693.197 -3.98617 -3.5111 0
M  V30 7163 C 692.236 -5.17915 -3.26236 0
M  V30 7164 N 691.373 -5.44111 -4.4372 0
M  V30 7165 H 696.213 -2.88128 -0.760677 0
M  V30 7166 H 693.75 -1.42523 -0.364099 0
M  V30 7167 H 695.708 -2.6417 -3.22908 0
M  V30 7168 H 694.338 -1.57775 -2.81615 0
M  V30 7169 H 693.39 -3.53809 -1.39726 0
M  V30 7170 H 694.702 -4.55425 -2.03444 0
M  V30 7171 H 693.856 -4.21333 -4.36536 0
M  V30 7172 H 692.595 -3.09942 -3.76546 0
M  V30 7173 H 691.6 -4.95038 -2.39202 0
M  V30 7174 H 692.825 -6.08172 -3.02165 0
M  V30 7175 H 690.771 -4.58394 -4.69266 0
M  V30 7176 H 690.688 -6.25606 -4.24444 0
M  V30 7177 H 691.956 -5.71351 -5.30263 0
M  V30 7178 N 696.185 0.383891 -1.52853 0
M  V30 7179 C 697.133 1.48965 -1.7864 0
M  V30 7180 C 698.127 1.56242 -0.654577 0
M  V30 7181 O 699.333 1.59347 -0.83716 0
M  V30 7182 H 695.708 0.495892 -0.565328 0
M  V30 7183 H 697.679 1.24411 -2.71228 0
M  V30 7184 C 696.428 2.86036 -1.97683 0
M  V30 7185 H 695.751 2.81188 -2.84206 0
M  V30 7186 H 697.191 3.62632 -2.19713 0
M  V30 7187 C 695.65 3.28428 -0.750776 0
M  V30 7188 O 696.18 4.0164 0.0693491 0
M  V30 7189 N 694.386 2.84765 -0.579427 0
M  V30 7190 H 693.933 2.25353 -1.24795 0
M  V30 7191 H 693.891 3.13486 0.239544 0
M  V30 7192 N 697.663 1.43903 0.642637 0
M  V30 7193 C 698.888 1.49758 1.43483 0
M  V30 7194 C 699.313 0.119911 1.87717 0
M  V30 7195 O 698.671 -0.888558 1.58033 0
M  V30 7196 C 698.719 2.45744 2.63898 0
M  V30 7197 O 697.823 1.95101 3.63331 0
M  V30 7198 H 697.164 0.506138 0.429791 0
M  V30 7199 H 699.694 1.88923 0.785438 0
M  V30 7200 H 699.704 2.63399 3.11584 0
M  V30 7201 H 698.379 3.45818 2.31046 0
M  V30 7202 H 696.956 1.87158 3.22531 0
M  V30 7203 N 699.141 -0.881989 1.30609 0
M  V30 7204 C 700.366 -1.67236 1.22665 0
M  V30 7205 C 700.791 -1.8696 -0.206777 0
M  V30 7206 O 700.149 -1.4027 -1.14865 0
M  V30 7207 C 700.197 -3.02446 1.96363 0
M  V30 7208 O 699.301 -3.91614 1.29276 0
M  V30 7209 H 698.642 -0.510902 0.424117 0
M  V30 7210 H 701.172 -1.10055 1.72479 0
M  V30 7211 H 701.182 -3.52468 2.055 0
M  V30 7212 H 699.857 -2.8741 3.00613 0
M  V30 7213 H 698.434 -3.50055 1.28514 0
M  V30 7214 N 700.619 -1.13374 -1.09472 0
M  V30 7215 C 701.549 -0.833268 -2.18126 0
M  V30 7216 C 702.53 0.207169 -1.68834 0
M  V30 7217 O 703.715 0.0662012 -1.94087 0
M  V30 7218 C 700.845 -0.297979 -3.46019 0
M  V30 7219 C 699.799 -1.27261 -4.08642 0
M  V30 7220 C 699.125 -0.597104 -5.31356 0
M  V30 7221 C 700.425 -2.63095 -4.51197 0
M  V30 7222 H 702.119 -1.74182 -2.43518 0
M  V30 7223 H 699.665 -0.838921 -1.17039 0
M  V30 7224 H 701.618 -0.0754444 -4.21332 0
M  V30 7225 H 700.342 0.645959 -3.20148 0
M  V30 7226 H 699.001 -1.48113 -3.35348 0
M  V30 7227 H 698.649 0.352293 -5.01765 0
M  V30 7228 H 698.349 -1.24734 -5.74208 0
M  V30 7229 H 699.873 -0.38384 -6.09392 0
M  V30 7230 H 701.287 -2.46214 -5.17737 0
M  V30 7231 H 699.684 -3.2429 -5.04932 0
M  V30 7232 H 700.754 -3.20793 -3.6362 0
M  V30 7233 N 702.098 1.27442 -0.927168 0
M  V30 7234 C 703.323 1.99036 -0.583042 0
M  V30 7235 C 703.748 1.68711 0.83176 0
M  V30 7236 O 703.106 0.927081 1.55804 0
M  V30 7237 C 703.154 3.51271 -0.814925 0
M  V30 7238 O 702.258 4.12226 0.119742 0
M  V30 7239 H 701.599 0.624883 -0.224538 0
M  V30 7240 H 704.129 1.62263 -1.24628 0
M  V30 7241 H 704.139 4.01411 -0.730282 0
M  V30 7242 H 702.814 3.72676 -1.84623 0
M  V30 7243 H 701.391 3.72897 -0.0147688 0
M  V30 7244 N 703.576 0.692616 1.41565 0
M  V30 7245 C 704.853 0.150496 1.9502 0
M  V30 7246 C 705.233 -1.33881 1.63215 0
M  V30 7247 O 704.581 -2.08378 0.937598 0
M  V30 7248 C 704.791 0.438636 3.46233 0
M  V30 7249 C 706.139 0.364777 4.2303 0
M  V30 7250 O 707.163 0.373383 3.54238 0
M  V30 7251 O 706.022 0.32234 5.45549 0
M  V30 7252 H 703.116 0.0132454 0.826894 0
M  V30 7253 H 705.662 0.768574 1.51298 0
M  V30 7254 H 704.434 1.46962 3.62654 0
M  V30 7255 H 704.057 -0.210562 3.97042 0
M  V30 7256 N 705.054 -1.51416 0.437162 0
M  V30 7257 C 705.964 -2.31493 -0.380537 0
M  V30 7258 C 706.98 -1.40399 -1.02782 0
M  V30 7259 O 708.156 -1.73471 -1.02323 0
M  V30 7260 C 705.221 -3.1413 -1.46709 0
M  V30 7261 C 704.282 -4.21003 -0.839953 0
M  V30 7262 C 703.515 -4.9969 -1.87473 0
M  V30 7263 O 703.738 -4.79008 -3.09689 0
M  V30 7264 O 702.672 -5.8379 -1.46536 0
M  V30 7265 H 706.498 -3.02469 0.273183 0
M  V30 7266 H 704.083 -1.48059 0.199706 0
M  V30 7267 H 705.965 -3.65505 -2.09724 0
M  V30 7268 H 704.64 -2.45919 -2.10489 0
M  V30 7269 H 703.547 -3.73706 -0.171752 0
M  V30 7270 H 704.88 -4.91587 -0.245638 0
M  V30 7271 N 706.532 -0.168513 -1.56696 0
M  V30 7272 C 707.48 0.779791 -2.19139 0
M  V30 7273 C 708.474 1.23957 -1.1546 0
M  V30 7274 O 709.68 1.20555 -1.33666 0
M  V30 7275 H 706.055 0.269739 -0.701958 0
M  V30 7276 H 708.026 0.229156 -2.97519 0
M  V30 7277 C 706.775 2.00003 -2.84419 0
M  V30 7278 H 706.098 1.65527 -3.63924 0
M  V30 7279 H 707.538 2.64251 -3.31583 0
M  V30 7280 C 705.997 2.82187 -1.84044 0
M  V30 7281 O 706.527 3.79247 -1.32418 0
M  V30 7282 N 704.733 2.47145 -1.52864 0
M  V30 7283 H 704.28 1.68277 -1.9504 0
M  V30 7284 H 704.238 3.02422 -0.859569 0
M  V30 7285 N 708.01 1.57248 0.105221 0
M  V30 7286 C 708.958 2.02337 1.14728 0
M  V30 7287 C 709.952 0.922652 1.42069 0
M  V30 7288 O 711.158 1.10785 1.41869 0
M  V30 7289 H 707.533 0.644682 0.387155 0
M  V30 7290 H 709.504 2.89063 0.740607 0
M  V30 7291 C 708.253 2.45513 2.46209 0
M  V30 7292 H 707.576 3.29785 2.26013 0
M  V30 7293 H 709.016 2.80846 3.1765 0
M  V30 7294 C 707.475 1.3243 3.09781 0
M  V30 7295 O 708.005 0.647841 3.96442 0
M  V30 7296 N 706.211 1.07785 2.69872 0
M  V30 7297 H 705.758 1.62973 1.99493 0
M  V30 7298 H 705.716 0.323204 3.12734 0
M  V30 7299 N 709.488 -0.375779 1.53054 0
M  V30 7300 C 710.435 -1.45978 1.78771 0
M  V30 7301 C 711.405 -1.53625 0.631552 0
M  V30 7302 O 712.59 -1.69674 0.872667 0
M  V30 7303 C 709.73 -2.8305 1.97425 0
M  V30 7304 C 708.843 -2.84451 3.25134 0
M  V30 7305 C 707.978 -4.13034 3.34031 0
M  V30 7306 C 707.017 -4.08536 4.55812 0
M  V30 7307 N 706.154 -5.2875 4.61918 0
M  V30 7308 H 710.994 -1.23349 2.71273 0
M  V30 7309 H 708.531 -0.598147 1.3439 0
M  V30 7310 H 710.489 -3.62666 2.06225 0
M  V30 7311 H 709.119 -3.04101 1.0827 0
M  V30 7312 H 708.171 -1.97127 3.25338 0
M  V30 7313 H 709.483 -2.76998 4.14818 0
M  V30 7314 H 708.637 -5.0106 3.42087 0
M  V30 7315 H 707.376 -4.23226 2.42345 0
M  V30 7316 H 706.381 -3.18897 4.47867 0
M  V30 7317 H 707.606 -3.99955 5.48828 0
M  V30 7318 H 705.552 -5.39547 3.73129 0
M  V30 7319 H 705.469 -5.23426 5.45492 0
M  V30 7320 H 706.737 -6.18637 4.74245 0
M  V30 7321 N 710.966 -1.44241 -0.634997 0
M  V30 7322 C 711.896 -1.53632 -1.7584 0
M  V30 7323 C 712.877 -0.389603 -1.65578 0
M  V30 7324 O 714.062 -0.609219 -1.84397 0
M  V30 7325 C 711.192 -1.47644 -3.14354 0
M  V30 7326 C 710.146 -2.60752 -3.394 0
M  V30 7327 C 709.472 -2.39817 -4.77904 0
M  V30 7328 C 710.772 -4.02921 -3.32343 0
M  V30 7329 H 712.466 -2.47662 -1.68238 0
M  V30 7330 H 710.012 -1.19197 -0.807969 0
M  V30 7331 H 711.965 -1.52815 -3.92716 0
M  V30 7332 H 710.689 -0.501284 -3.2273 0
M  V30 7333 H 709.348 -2.54965 -2.63417 0
M  V30 7334 H 708.996 -1.40502 -4.82978 0
M  V30 7335 H 708.696 -3.15649 -4.9562 0
M  V30 7336 H 710.22 -2.46799 -5.585 0
M  V30 7337 H 711.634 -4.10098 -4.00615 0
M  V30 7338 H 710.031 -4.78925 -3.61595 0
M  V30 7339 H 711.101 -4.26766 -2.30215 0
M  V30 7340 N 712.444 0.87505 -1.31075 0
M  V30 7341 C 713.672 1.66058 -1.23419 0
M  V30 7342 C 714.087 1.87723 0.201347 0
M  V30 7343 O 713.444 1.43178 1.13165 0
M  V30 7344 C 713.495 3.03142 -1.96945 0
M  V30 7345 O 713.216 2.82448 -3.34895 0
M  V30 7346 C 714.717 3.97583 -1.96067 0
M  V30 7347 H 711.937 0.517868 -0.426677 0
M  V30 7348 H 714.481 1.09258 -1.72867 0
M  V30 7349 H 712.636 3.56645 -1.51271 0
M  V30 7350 H 713.05 3.69483 -3.72267 0
M  V30 7351 H 714.524 4.91104 -2.52034 0
M  V30 7352 H 715.001 4.2898 -0.941961 0
M  V30 7353 H 715.607 3.50015 -2.41597 0
M  V30 7354 N 713.922 1.13953 1.08869 0
M  V30 7355 C 714.869 0.82213 2.15661 0
M  V30 7356 C 715.839 -0.218274 1.6466 0
M  V30 7357 O 717.024 -0.0892475 1.90591 0
M  V30 7358 C 714.164 0.300572 3.43789 0
M  V30 7359 C 713.277 1.40071 4.08661 0
M  V30 7360 C 712.412 0.836897 5.24566 0
M  V30 7361 C 711.451 1.91504 5.81371 0
M  V30 7362 N 710.588 1.36875 6.88629 0
M  V30 7363 H 715.428 1.73683 2.42153 0
M  V30 7364 H 712.965 0.866879 1.18843 0
M  V30 7365 H 714.923 -0.0199943 4.17195 0
M  V30 7366 H 713.553 -0.577248 3.17597 0
M  V30 7367 H 712.605 1.83776 3.33062 0
M  V30 7368 H 713.917 2.21534 4.46905 0
M  V30 7369 H 713.071 0.467953 6.04893 0
M  V30 7370 H 711.81 -0.00874207 4.87699 0
M  V30 7371 H 710.815 2.29299 4.99702 0
M  V30 7372 H 712.04 2.76419 6.20298 0
M  V30 7373 H 709.986 0.545211 6.5373 0
M  V30 7374 H 709.903 2.1198 7.25672 0
M  V30 7375 H 711.171 1.02756 7.72698 0
M  V30 7376 N 715.4 -1.26948 0.933913 0
M  V30 7377 C 716.628 -1.98186 0.59414 0
M  V30 7378 C 717.043 -1.69614 -0.829257 0
M  V30 7379 O 716.4 -0.960213 -1.55197 0
M  V30 7380 C 716.451 -3.52123 0.818026 0
M  V30 7381 O 716.172 -3.79698 2.18543 0
M  V30 7382 C 717.673 -4.40608 0.48781 0
M  V30 7383 H 714.893 -0.632305 0.224569 0
M  V30 7384 H 717.437 -1.61646 1.25263 0
M  V30 7385 H 715.592 -3.86851 0.206246 0
M  V30 7386 H 716.006 -4.7426 2.24005 0
M  V30 7387 H 717.48 -5.47606 0.695126 0
M  V30 7388 H 717.957 -4.35394 -0.576913 0
M  V30 7389 H 718.563 -4.11411 1.078 0
M  V30 7390 N 716.879 -0.700114 -1.41195 0
M  V30 7391 C 718.126 -0.233006 -2.01155 0
M  V30 7392 C 718.454 1.16883 -1.55462 0
M  V30 7393 O 717.709 1.80395 -0.758695 0
M  V30 7394 C 718.008 -0.243986 -3.56566 0
M  V30 7395 C 717.674 -1.59397 -4.21786 0
M  V30 7396 C 716.336 -1.96355 -4.39316 0
M  V30 7397 C 718.688 -2.48192 -4.58312 0
M  V30 7398 C 716.016 -3.21683 -4.9065 0
M  V30 7399 C 718.368 -3.72857 -5.11039 0
M  V30 7400 C 717.032 -4.09951 -5.26779 0
M  V30 7401 H 716.302 -0.085263 -0.736078 0
M  V30 7402 H 718.949 -0.9001 -1.69028 0
M  V30 7403 H 717.254 0.506663 -3.8851 0
M  V30 7404 H 718.951 0.135031 -4.00773 0
M  V30 7405 H 715.541 -1.29654 -4.08519 0
M  V30 7406 H 719.725 -2.20918 -4.4442 0
M  V30 7407 H 714.981 -3.50412 -5.01021 0
M  V30 7408 H 719.155 -4.41844 -5.38282 0
M  V30 7409 H 716.782 -5.07136 -5.66319 0
M  V30 7410 N 718.357 1.51182 -0.445186 0
M  V30 7411 C 719.634 1.9478 0.178965 0
M  V30 7412 C 720.014 1.38428 1.59376 0
M  V30 7413 O 719.362 0.574552 2.21159 0
M  V30 7414 C 719.572 3.48683 0.148711 0
M  V30 7415 C 720.92 4.23152 0.35042 0
M  V30 7416 O 721.944 3.55479 0.226474 0
M  V30 7417 O 720.803 5.4322 0.597893 0
M  V30 7418 H 717.897 0.817387 0.12573 0
M  V30 7419 H 720.443 1.62051 -0.503729 0
M  V30 7420 H 719.215 3.82176 -0.84009 0
M  V30 7421 H 718.838 3.87875 0.873979 0
M  V30 7422 N 719.835 0.176821 1.56605 0
M  V30 7423 C 721.082 -0.466715 1.97048 0
M  V30 7424 C 721.41 -1.6288 1.06302 0
M  V30 7425 O 720.665 -1.95453 0.0982571 0
M  V30 7426 C 720.964 -0.986208 3.43524 0
M  V30 7427 C 720.63 0.0605667 4.50859 0
M  V30 7428 C 719.292 0.348242 4.79938 0
M  V30 7429 C 721.644 0.770794 5.15469 0
M  V30 7430 C 718.972 1.35144 5.70923 0
M  V30 7431 C 721.324 1.76301 6.07537 0
M  V30 7432 C 719.988 2.05808 6.3498 0
M  V30 7433 H 719.258 -0.170783 0.721051 0
M  V30 7434 H 721.905 0.269942 1.89588 0
M  V30 7435 H 720.21 -1.80079 3.47964 0
M  V30 7436 H 721.907 -1.49323 3.72161 0
M  V30 7437 H 718.497 -0.173823 4.28247 0
M  V30 7438 H 722.681 0.56176 4.9311 0
M  V30 7439 H 717.937 1.58616 5.90467 0
M  V30 7440 H 722.111 2.31868 6.56666 0
M  V30 7441 H 719.738 2.8369 7.05283 0
M  V30 7442 N 721.313 -1.57302 -0.09688 0
M  V30 7443 C 722.543 -1.89926 -0.813114 0
M  V30 7444 C 722.951 -0.76852 -1.72888 0
M  V30 7445 O 722.294 0.268549 -1.81726 0
M  V30 7446 C 722.356 -3.17787 -1.68082 0
M  V30 7447 C 722.02 -4.4729 -0.937061 0
M  V30 7448 C 723.017 -5.1921 -0.267687 0
M  V30 7449 C 720.702 -4.93957 -0.911671 0
M  V30 7450 C 722.696 -6.36034 0.417129 0
M  V30 7451 C 720.383 -6.10693 -0.223068 0
M  V30 7452 C 721.381 -6.8158 0.440155 0
M  V30 7453 O 721.069 -7.96092 1.11772 0
M  V30 7454 H 720.801 -0.632783 -0.237828 0
M  V30 7455 H 723.355 -2.05248 -0.0790818 0
M  V30 7456 H 721.585 -2.98607 -2.45705 0
M  V30 7457 H 723.274 -3.36257 -2.27346 0
M  V30 7458 H 724.04 -4.84198 -0.278774 0
M  V30 7459 H 719.919 -4.38671 -1.41734 0
M  V30 7460 H 723.463 -6.91301 0.93537 0
M  V30 7461 H 719.36 -6.45159 -0.209821 0
M  V30 7462 H 720.128 -8.12064 1.02443 0
M  V30 7463 N 722.791 0.367657 -1.53252 0
M  V30 7464 C 724.202 0.944563 -1.61043 0
M  V30 7465 C 724.553 1.90325 -0.476546 0
M  V30 7466 O 723.678 2.12721 0.397333 0
M  V30 7467 C 724.273 1.71992 -2.91898 0
M  V30 7468 C 722.832 2.2462 -3.02031 0
M  V30 7469 C 721.979 1.05799 -2.56324 0
M  V30 7470 H 724.93 0.146516 -1.58022 0
M  V30 7471 H 724.951 2.58095 -2.79584 0
M  V30 7472 H 724.463 1.02192 -3.74404 0
M  V30 7473 H 722.564 2.97668 -2.24108 0
M  V30 7474 H 722.677 2.52644 -4.07073 0
M  V30 7475 H 721.041 1.42435 -2.1115 0
M  V30 7476 H 721.824 0.375008 -3.41246 0
M  V30 7477 N 724.269 1.44576 0.627338 0
M  V30 7478 C 725.497 1.51048 1.41394 0
M  V30 7479 C 725.912 0.136568 1.88305 0
M  V30 7480 O 725.269 -0.858251 1.6106 0
M  V30 7481 C 725.32 2.47837 2.63172 0
M  V30 7482 O 725.041 3.79887 2.18215 0
M  V30 7483 C 726.542 2.63811 3.56257 0
M  V30 7484 H 723.762 0.512171 0.4335 0
M  V30 7485 H 726.306 1.89576 0.766878 0
M  V30 7486 H 724.461 2.12433 3.23961 0
M  V30 7487 H 724.875 4.32177 2.97192 0
M  V30 7488 H 726.349 3.35554 4.38301 0
M  V30 7489 H 726.826 1.69169 4.05313 0
M  V30 7490 H 727.432 3.0013 3.01333 0
M  V30 7491 N 725.747 -0.868086 1.31537 0
M  V30 7492 C 726.694 -1.97548 1.19346 0
M  V30 7493 C 727.664 -1.65913 0.0787922 0
M  V30 7494 O 728.849 -1.89129 0.251985 0
M  V30 7495 C 725.989 -3.32922 0.908692 0
M  V30 7496 C 725.102 -3.77141 2.10687 0
M  V30 7497 C 724.237 -5.01241 1.75873 0
M  V30 7498 C 723.276 -5.37914 2.92088 0
M  V30 7499 N 722.413 -6.53192 2.57457 0
M  V30 7500 H 727.253 -2.07307 2.14074 0
M  V30 7501 H 724.79 -1.01483 1.06487 0
M  V30 7502 H 726.748 -4.10867 0.724138 0
M  V30 7503 H 725.378 -3.228 -0.0017611 0
M  V30 7504 H 724.43 -2.94961 2.40213 0
M  V30 7505 H 725.742 -4.00248 2.97663 0
M  V30 7506 H 724.896 -5.86858 1.53891 0
M  V30 7507 H 723.635 -4.80041 0.86091 0
M  V30 7508 H 722.64 -4.50814 3.14717 0
M  V30 7509 H 723.865 -5.61077 3.82582 0
M  V30 7510 H 721.811 -6.33536 1.702 0
M  V30 7511 H 721.728 -6.76252 3.37963 0
M  V30 7512 H 722.996 -7.41997 2.38873 0
M  V30 7513 N 727.225 -1.14528 -1.08264 0
M  V30 7514 C 728.473 -0.912599 -1.80322 0
M  V30 7515 C 728.794 0.562256 -1.86718 0
M  V30 7516 O 728.064 1.40869 -1.36135 0
M  V30 7517 H 726.644 -0.334645 -0.667849 0
M  V30 7518 H 729.306 -1.44415 -1.30883 0
M  V30 7519 H 728.402 -1.31384 -2.83098 0
M  V30 7520 N 728.703 1.26451 -0.940633 0
M  V30 7521 C 729.95 1.93778 -0.587909 0
M  V30 7522 C 730.278 1.73811 0.872935 0
M  V30 7523 O 729.533 1.06816 1.63978 0
M  V30 7524 C 729.832 3.46503 -0.875794 0
M  V30 7525 C 729.498 3.86609 -2.32043 0
M  V30 7526 C 728.16 3.97269 -2.71534 0
M  V30 7527 C 730.512 4.0672 -3.25927 0
M  V30 7528 C 727.84 4.25436 -4.04006 0
M  V30 7529 C 730.192 4.36375 -4.57995 0
M  V30 7530 C 728.856 4.45249 -4.97302 0
M  V30 7531 H 728.126 0.709084 -0.215131 0
M  V30 7532 H 730.773 1.50272 -1.18704 0
M  V30 7533 H 729.078 3.91319 -0.194124 0
M  V30 7534 H 730.775 3.96759 -0.581665 0
M  V30 7535 H 727.365 3.78858 -2.00411 0
M  V30 7536 H 731.549 3.97912 -2.96614 0
M  V30 7537 H 726.805 4.30519 -4.34124 0
M  V30 7538 H 730.979 4.50882 -5.30734 0
M  V30 7539 H 728.606 4.66829 -5.99979 0
M  V30 7540 N 730.181 0.707592 1.40822 0
M  V30 7541 C 731.091 0.0507246 2.34545 0
M  V30 7542 C 732.107 -0.752727 1.56876 0
M  V30 7543 O 733.283 -0.687524 1.89302 0
M  V30 7544 C 730.348 -0.865731 3.35717 0
M  V30 7545 C 729.409 -0.0531313 4.29267 0
M  V30 7546 C 728.642 -0.925939 5.25606 0
M  V30 7547 O 728.865 -2.16531 5.27703 0
M  V30 7548 O 727.799 -0.369194 6.00767 0
M  V30 7549 H 731.625 0.823587 2.9232 0
M  V30 7550 H 729.21 0.46801 1.4188 0
M  V30 7551 H 731.092 -1.39091 3.97783 0
M  V30 7552 H 729.767 -1.61788 2.80368 0
M  V30 7553 H 728.674 0.516931 3.70511 0
M  V30 7554 H 730.007 0.660617 4.87747 0
M  V30 7555 N 731.66 -1.50943 0.453197 0
M  V30 7556 C 733.071 -1.86699 -0.00619892 0
M  V30 7557 C 733.422 -1.3693 -1.40515 0
M  V30 7558 O 732.547 -0.726715 -2.03833 0
M  V30 7559 C 733.142 -3.38795 -0.018025 0
M  V30 7560 C 731.701 -3.74028 -0.421885 0
M  V30 7561 C 730.848 -2.74752 0.375087 0
M  V30 7562 H 733.799 -1.43942 0.668317 0
M  V30 7563 H 733.82 -3.71468 -0.824125 0
M  V30 7564 H 733.332 -3.74988 1.00028 0
M  V30 7565 H 731.433 -3.43431 -1.44521 0
M  V30 7566 H 731.546 -4.78908 -0.135664 0
M  V30 7567 H 729.91 -2.5414 -0.168794 0
M  V30 7568 H 730.693 -3.13787 1.39256 0
M  V30 7569 N 733.138 -0.185124 -1.56509 0
M  V30 7570 C 734.378 0.458547 -1.9919 0
M  V30 7571 C 734.742 1.59484 -1.06906 0
M  V30 7572 O 735.943 2.30201 -1.38783 0
M  V30 7573 C 734.214 0.916263 -3.45455 0
M  V30 7574 S 735.773 1.55918 -4.10165 0
M  V30 7575 H 732.591 0.147008 -0.695636 0
M  V30 7576 H 735.193 -0.285841 -1.93399 0
M  V30 7577 H 733.897 0.0790543 -4.10324 0
M  V30 7578 H 733.428 1.69436 -3.55042 0
M  V30 7579 H 735.443 2.84771 -4.0635 0
M  V30 7580 N 734.616 1.57351 0.0885366 0
M  V30 7581 C 735.864 1.86051 0.789262 0
M  V30 7582 C 736.185 0.774763 1.78948 0
M  V30 7583 O 735.455 -0.198324 1.94894 0
M  V30 7584 H 734.035 0.686508 0.294475 0
M  V30 7585 H 736.697 1.94779 0.0686055 0
M  V30 7586 H 735.793 2.83007 1.31581 0
M  V30 7587 N 736.094 -0.359525 1.53444 0
M  V30 7588 C 737.342 -1.09935 1.69584 0
M  V30 7589 C 737.663 -1.89656 0.453371 0
M  V30 7590 O 736.933 -1.8852 -0.53263 0
M  V30 7591 H 735.513 -0.408843 0.625185 0
M  V30 7592 H 738.175 -0.40467 1.90653 0
M  V30 7593 H 737.271 -1.78575 2.55964 0
M  V30 7594 N 737.572 -1.44907 -0.619662 0
M  V30 7595 C 738.502 -1.55488 -1.742 0
M  V30 7596 C 739.483 -0.407143 -1.65156 0
M  V30 7597 O 740.668 -0.628743 -1.8374 0
M  V30 7598 C 737.798 -1.5097 -3.1277 0
M  V30 7599 C 736.752 -2.64337 -3.36615 0
M  V30 7600 C 736.078 -2.44872 -4.75333 0
M  V30 7601 C 737.378 -4.06423 -3.28051 0
M  V30 7602 H 739.072 -2.49432 -1.65602 0
M  V30 7603 H 736.618 -1.20047 -0.795281 0
M  V30 7604 H 738.571 -1.56971 -3.91073 0
M  V30 7605 H 737.295 -0.535486 -3.2218 0
M  V30 7606 H 735.954 -2.57744 -2.60698 0
M  V30 7607 H 735.602 -1.45617 -4.81461 0
M  V30 7608 H 735.302 -3.20888 -4.92244 0
M  V30 7609 H 736.826 -2.52709 -5.55851 0
M  V30 7610 H 738.24 -4.14324 -3.96243 0
M  V30 7611 H 736.637 -4.82733 -3.56495 0
M  V30 7612 H 737.707 -4.29183 -2.25676 0
M  V30 7613 N 739.05 0.861098 -1.31996 0
M  V30 7614 C 740.297 1.61481 -1.22188 0
M  V30 7615 C 740.625 1.93276 0.217853 0
M  V30 7616 O 739.88 1.56942 1.16909 0
M  V30 7617 C 740.179 2.94822 -2.02027 0
M  V30 7618 C 739.845 2.82483 -3.51446 0
M  V30 7619 C 738.507 2.78825 -3.92186 0
M  V30 7620 C 740.859 2.68878 -4.46491 0
M  V30 7621 C 738.187 2.59433 -5.26224 0
M  V30 7622 C 740.539 2.51022 -5.80664 0
M  V30 7623 C 739.203 2.45753 -6.20614 0
M  V30 7624 H 738.473 0.590902 -0.447119 0
M  V30 7625 H 741.12 0.999376 -1.63355 0
M  V30 7626 H 739.425 3.6045 -1.53569 0
M  V30 7627 H 741.122 3.52149 -1.91812 0
M  V30 7628 H 737.712 2.86152 -3.19085 0
M  V30 7629 H 741.896 2.70754 -4.1594 0
M  V30 7630 H 737.152 2.53784 -5.5624 0
M  V30 7631 H 741.326 2.39473 -6.53931 0
M  V30 7632 H 738.953 2.30485 -7.24417 0
M  V30 7633 N 740.528 1.15101 1.07655 0
M  V30 7634 C 741.805 0.834578 1.76902 0
M  V30 7635 C 742.185 -0.670431 2.00171 0
M  V30 7636 O 741.533 -1.61378 1.6177 0
M  V30 7637 C 741.743 1.64191 3.07965 0
M  V30 7638 C 743.091 1.84615 3.82364 0
M  V30 7639 O 744.115 1.60941 3.17768 0
M  V30 7640 O 742.974 2.24244 4.98374 0
M  V30 7641 H 740.068 0.306608 0.768063 0
M  V30 7642 H 742.614 1.25663 1.14048 0
M  V30 7643 H 741.386 2.66386 2.86626 0
M  V30 7644 H 741.009 1.216 3.78549 0
M  V30 7645 N 742.006 -1.2595 0.947325 0
M  V30 7646 C 743.231 -1.98083 0.614633 0
M  V30 7647 C 743.656 -1.70013 -0.804815 0
M  V30 7648 O 743.014 -0.95175 -1.54309 0
M  V30 7649 C 743.062 -3.4993 0.870706 0
M  V30 7650 O 742.166 -4.12364 -0.0541451 0
M  V30 7651 H 741.507 -0.621232 0.234451 0
M  V30 7652 H 744.037 -1.60259 1.27193 0
M  V30 7653 H 744.047 -4.00198 0.794051 0
M  V30 7654 H 742.722 -3.69691 1.90529 0
M  V30 7655 H 741.299 -3.72826 0.0740917 0
M  V30 7656 N 743.484 -0.715051 -1.40445 0
M  V30 7657 C 744.432 -0.0509974 -2.32544 0
M  V30 7658 C 745.426 0.747602 -1.52011 0
M  V30 7659 O 746.632 0.651031 -1.67814 0
M  V30 7660 H 743.007 0.00231113 -0.751996 0
M  V30 7661 H 744.978 -0.84449 -2.86201 0
M  V30 7662 C 743.727 0.857101 -3.3697 0
M  V30 7663 H 743.05 0.252 -3.99005 0
M  V30 7664 H 744.49 1.28971 -4.03909 0
M  V30 7665 C 742.949 1.98231 -2.72408 0
M  V30 7666 O 743.479 3.07309 -2.58697 0
M  V30 7667 N 741.685 1.76577 -2.308 0
M  V30 7668 H 741.232 0.878641 -2.42152 0
M  V30 7669 H 741.19 2.52043 -1.87941 0
M  V30 7670 N 744.962 1.50701 -0.461195 0
M  V30 7671 C 745.872 2.32069 0.343661 0
M  V30 7672 C 746.888 1.42016 1.00535 0
M  V30 7673 O 748.064 1.75077 0.995498 0
M  V30 7674 C 745.129 3.16424 1.41692 0
M  V30 7675 C 744.19 4.22286 0.772869 0
M  V30 7676 C 743.423 5.02609 1.79499 0
M  V30 7677 O 743.646 4.83874 3.0203 0
M  V30 7678 O 742.58 5.86047 1.3723 0
M  V30 7679 H 746.406 3.01996 -0.321268 0
M  V30 7680 H 743.991 1.47723 -0.223235 0
M  V30 7681 H 745.873 3.68795 2.03883 0
M  V30 7682 H 744.548 2.49236 2.0655 0
M  V30 7683 H 743.455 3.73931 0.112277 0
M  V30 7684 H 744.788 4.91915 0.167399 0
M  V30 7685 N 746.441 0.193421 1.56409 0
M  V30 7686 C 747.371 -0.723334 2.22014 0
M  V30 7687 C 748.352 -1.22254 1.1827 0
M  V30 7688 O 749.537 -1.27168 1.46771 0
M  V30 7689 C 746.667 -1.94366 2.87818 0
M  V30 7690 C 745.621 -1.57943 3.97791 0
M  V30 7691 C 744.947 -2.87623 4.50752 0
M  V30 7692 C 746.247 -0.790639 5.16281 0
M  V30 7693 H 747.941 -0.176426 2.9888 0
M  V30 7694 H 745.487 -0.0834166 1.43758 0
M  V30 7695 H 747.44 -2.5902 3.32396 0
M  V30 7696 H 746.164 -2.51507 2.08355 0
M  V30 7697 H 744.823 -0.956482 3.53903 0
M  V30 7698 H 744.471 -3.4285 3.68053 0
M  V30 7699 H 744.171 -2.63998 5.24956 0
M  V30 7700 H 745.695 -3.53268 4.9803 0
M  V30 7701 H 747.109 -1.34024 5.57414 0
M  V30 7702 H 745.506 -0.65258 5.96541 0
M  V30 7703 H 746.576 0.208633 4.84451 0
M  V30 7704 N 747.919 -1.57396 -0.0801906 0
M  V30 7705 C 749.147 -1.91055 -0.794075 0
M  V30 7706 C 749.562 -0.788583 -1.71542 0
M  V30 7707 O 748.919 0.238587 -1.80934 0
M  V30 7708 C 748.97 -3.24418 -1.59484 0
M  V30 7709 O 748.691 -4.323 -0.710532 0
M  V30 7710 C 750.192 -3.72037 -2.41046 0
M  V30 7711 H 747.412 -0.63171 -0.226238 0
M  V30 7712 H 749.956 -2.04431 -0.0529685 0
M  V30 7713 H 748.111 -3.12595 -2.2883 0
M  V30 7714 H 748.525 -5.08976 -1.26663 0
M  V30 7715 H 749.999 -4.68006 -2.92702 0
M  V30 7716 H 750.476 -3.00624 -3.2019 0
M  V30 7717 H 751.082 -3.86777 -1.76871 0
M  V30 7718 N 749.397 0.351382 -1.53633 0
M  V30 7719 C 750.622 1.11718 -1.74739 0
M  V30 7720 C 751.047 1.81829 -0.481657 0
M  V30 7721 O 750.405 1.72264 0.565233 0
M  V30 7722 C 750.453 2.11234 -2.92254 0
M  V30 7723 O 749.557 3.186 -2.61855 0
M  V30 7724 H 748.898 0.323482 -0.579875 0
M  V30 7725 H 751.428 0.404167 -2.00568 0
M  V30 7726 H 751.438 2.54591 -3.18822 0
M  V30 7727 H 750.113 1.59599 -3.84058 0
M  V30 7728 H 748.69 2.80115 -2.4615 0
M  V30 7729 N 750.875 1.45233 0.611969 0
M  V30 7730 C 751.785 1.56098 1.7513 0
M  V30 7731 C 752.801 0.445646 1.68196 0
M  V30 7732 O 753.977 0.705718 1.88631 0
M  V30 7733 C 751.042 1.52052 3.11579 0
M  V30 7734 C 750.103 2.74589 3.29999 0
M  V30 7735 C 749.336 2.70726 4.59938 0
M  V30 7736 O 749.559 1.77806 5.41979 0
M  V30 7737 O 748.493 3.61864 4.80976 0
M  V30 7738 H 752.319 2.52392 1.68914 0
M  V30 7739 H 749.904 1.27695 0.775528 0
M  V30 7740 H 751.786 1.52387 3.92882 0
M  V30 7741 H 750.461 0.589085 3.18295 0
M  V30 7742 H 749.368 2.79817 2.48301 0
M  V30 7743 H 750.701 3.66843 3.28157 0
M  V30 7744 N 752.353 -0.854086 1.3245 0
M  V30 7745 C 753.3 -1.96271 1.21434 0
M  V30 7746 C 754.27 -1.6582 0.0963851 0
M  V30 7747 O 755.455 -1.88851 0.27203 0
M  V30 7748 C 752.595 -3.31939 0.943952 0
M  V30 7749 C 751.708 -3.74885 2.14675 0
M  V30 7750 C 750.843 -4.99347 1.81179 0
M  V30 7751 C 749.882 -5.34785 2.97777 0
M  V30 7752 N 749.019 -6.50425 2.6437 0
M  V30 7753 H 753.859 -2.05025 2.16261 0
M  V30 7754 H 751.396 -1.00348 1.07558 0
M  V30 7755 H 753.354 -4.10076 0.767675 0
M  V30 7756 H 751.984 -3.22784 0.0324763 0
M  V30 7757 H 751.036 -2.92396 2.43328 0
M  V30 7758 H 752.348 -3.97068 3.01891 0
M  V30 7759 H 751.502 -5.85193 1.60107 0
M  V30 7760 H 750.241 -4.79101 0.911777 0
M  V30 7761 H 749.246 -4.47451 3.1948 0
M  V30 7762 H 750.471 -5.56988 3.88511 0
M  V30 7763 H 748.417 -6.31695 1.7691 0
M  V30 7764 H 748.334 -6.7263 3.45116 0
M  V30 7765 H 749.602 -7.39422 2.46729 0
M  V30 7766 N 753.831 -1.1567 -1.07043 0
M  V30 7767 C 754.778 -0.856336 -2.14326 0
M  V30 7768 C 755.748 0.192051 -1.64986 0
M  V30 7769 O 756.933 0.0589148 -1.90709 0
M  V30 7770 C 754.073 -0.355227 -3.43267 0
M  V30 7771 C 753.186 -1.46555 -4.06381 0
M  V30 7772 C 752.321 -0.920245 -5.23168 0
M  V30 7773 C 751.36 -2.00729 -5.78251 0
M  V30 7774 N 750.497 -1.47813 -6.86364 0
M  V30 7775 H 755.337 -1.77514 -2.39359 0
M  V30 7776 H 752.874 -0.885676 -1.17449 0
M  V30 7777 H 754.832 -0.0463804 -4.17174 0
M  V30 7778 H 753.462 0.526649 -3.18475 0
M  V30 7779 H 752.514 -1.89052 -3.30096 0
M  V30 7780 H 753.826 -2.28616 -4.43324 0
M  V30 7781 H 752.98 -0.564127 -6.04072 0
M  V30 7782 H 751.719 -0.0688477 -4.87651 0
M  V30 7783 H 750.724 -2.3722 -4.95991 0
M  V30 7784 H 751.949 -2.86252 -6.15822 0
M  V30 7785 H 749.895 -0.649145 -6.5278 0
M  V30 7786 H 749.812 -2.23498 -7.22208 0
M  V30 7787 H 751.08 -1.15036 -7.70965 0
M  V30 7788 N 755.309 1.25446 -0.953992 0
M  V30 7789 C 756.256 2.25912 -0.472485 0
M  V30 7790 C 757.226 1.59173 0.47469 0
M  V30 7791 O 758.411 1.86812 0.388082 0
M  V30 7792 C 755.551 3.44235 0.244218 0
M  V30 7793 C 754.664 4.25613 -0.740121 0
M  V30 7794 C 753.799 5.312 -0.000922267 0
M  V30 7795 C 752.838 6.04265 -0.976236 0
M  V30 7796 N 751.975 7.01589 -0.267952 0
M  V30 7797 H 756.815 2.66469 -1.3341 0
M  V30 7798 H 754.352 1.31005 -0.669045 0
M  V30 7799 H 756.31 4.11682 0.676314 0
M  V30 7800 H 754.94 3.04554 1.06988 0
M  V30 7801 H 753.992 3.57834 -1.2907 0
M  V30 7802 H 755.304 4.762 -1.48441 0
M  V30 7803 H 754.458 6.04719 0.48984 0
M  V30 7804 H 753.197 4.81484 0.776159 0
M  V30 7805 H 752.202 5.29561 -1.478 0
M  V30 7806 H 753.427 6.5607 -1.75354 0
M  V30 7807 H 751.373 6.54164 0.490403 0
M  V30 7808 H 751.29 7.4999 -0.951344 0
M  V30 7809 H 752.558 7.7924 0.201294 0
M  V30 7810 N 756.787 0.722489 1.40064 0
M  V30 7811 C 757.697 0.0755984 2.34478 0
M  V30 7812 C 758.713 -0.736046 1.57665 0
M  V30 7813 O 759.889 -0.667407 1.9002 0
M  V30 7814 C 756.954 -0.830075 3.36616 0
M  V30 7815 C 756.015 -0.00759884 4.29299 0
M  V30 7816 C 755.248 -0.870139 5.26559 0
M  V30 7817 O 755.471 -2.10921 5.2997 0
M  V30 7818 O 754.405 -0.305454 6.01124 0
M  V30 7819 H 758.231 0.854545 2.9143 0
M  V30 7820 H 755.816 0.483032 1.41376 0
M  V30 7821 H 757.698 -1.34864 3.99236 0
M  V30 7822 H 756.373 -1.58805 2.82069 0
M  V30 7823 H 755.28 0.556199 3.69942 0
M  V30 7824 H 756.613 0.712312 4.87018 0
M  V30 7825 N 758.265 -1.50454 0.469181 0
M  V30 7826 C 759.514 -2.01507 -0.0881425 0
M  V30 7827 C 759.827 -1.35613 -1.40956 0
M  V30 7828 O 761.033 -1.77812 -2.05171 0
M  V30 7829 C 759.489 -3.59301 -0.207596 0
M  V30 7830 C 759.097 -4.34152 1.10527 0
M  V30 7831 C 760.841 -4.18401 -0.716981 0
M  V30 7832 C 758.748 -5.83725 0.949717 0
M  V30 7833 H 757.678 -0.753106 -0.0367156 0
M  V30 7834 H 760.329 -1.73282 0.603788 0
M  V30 7835 H 758.711 -3.84106 -0.963265 0
M  V30 7836 H 759.885 -4.21073 1.87175 0
M  V30 7837 H 758.2 -3.86652 1.54562 0
M  V30 7838 H 760.797 -5.27895 -0.850363 0
M  V30 7839 H 761.14 -3.79657 -1.70782 0
M  V30 7840 H 761.673 -3.97796 -0.0187511 0
M  V30 7841 H 758.412 -6.26938 1.91387 0
M  V30 7842 H 757.932 -5.99383 0.223591 0
M  V30 7843 H 759.611 -6.44065 0.61557 0
M  V30 7844 N 759.743 -0.201713 -1.56304 0
M  V30 7845 C 760.989 0.435952 -1.98059 0
M  V30 7846 C 761.322 1.60811 -1.08873 0
M  V30 7847 O 760.597 1.9398 -0.142128 0
M  V30 7848 C 760.88 0.889706 -3.48936 0
M  V30 7849 C 760.733 -0.284725 -4.48898 0
M  V30 7850 C 762.052 1.7529 -4.03685 0
M  V30 7851 H 759.171 0.15699 -0.720085 0
M  V30 7852 H 761.813 -0.293965 -1.87712 0
M  V30 7853 H 759.963 1.51166 -3.57884 0
M  V30 7854 H 761.635 -0.922531 -4.51981 0
M  V30 7855 H 759.878 -0.935427 -4.23594 0
M  V30 7856 H 760.549 0.0753865 -5.51949 0
M  V30 7857 H 763.025 1.2283 -3.97558 0
M  V30 7858 H 761.901 2.03933 -5.0961 0
M  V30 7859 H 762.162 2.70939 -3.49348 0
M  V30 7860 N 761.222 1.57436 0.0718424 0
M  V30 7861 C 762.471 1.86431 0.769826 0
M  V30 7862 C 762.784 0.794355 1.78744 0
M  V30 7863 O 763.99 0.972148 2.53499 0
M  V30 7864 C 762.446 3.307 1.42006 0
M  V30 7865 C 762.054 4.45824 0.441017 0
M  V30 7866 C 763.798 3.68894 2.10041 0
M  V30 7867 C 761.705 5.81134 1.09717 0
M  V30 7868 H 760.635 0.695474 0.291259 0
M  V30 7869 H 763.286 1.83485 0.0231224 0
M  V30 7870 H 761.668 3.28257 2.21502 0
M  V30 7871 H 762.842 4.59659 -0.32413 0
M  V30 7872 H 761.157 4.16181 -0.134886 0
M  V30 7873 H 763.754 4.67281 2.59908 0
M  V30 7874 H 764.097 2.98692 2.89981 0
M  V30 7875 H 764.63 3.73326 1.37376 0
M  V30 7876 H 761.369 6.54628 0.338095 0
M  V30 7877 H 760.889 5.711 1.83317 0
M  V30 7878 H 762.568 6.26468 1.617 0
M  V30 7879 N 762.7 -0.34323 1.53817 0
M  V30 7880 C 763.663 -1.40444 1.8113 0
M  V30 7881 C 764.663 -1.45604 0.682366 0
M  V30 7882 O 765.853 -1.45974 0.950649 0
M  V30 7883 C 762.985 -2.79369 1.95361 0
M  V30 7884 H 764.178 -1.17489 2.75928 0
M  V30 7885 H 761.731 -0.577636 1.45234 0
M  V30 7886 H 762.466 -3.07607 1.02707 0
M  V30 7887 H 762.251 -2.7702 2.77493 0
M  V30 7888 H 763.741 -3.56178 2.18008 0
M  V30 7889 N 764.178 -1.45556 -0.604258 0
M  V30 7890 C 765.125 -1.54482 -1.71476 0
M  V30 7891 C 766.095 -0.390479 -1.61445 0
M  V30 7892 O 767.28 -0.604371 -1.80975 0
M  V30 7893 C 764.42 -1.52064 -3.09791 0
M  V30 7894 C 763.533 -2.78073 -3.30604 0
M  V30 7895 C 762.668 -2.67304 -4.59044 0
M  V30 7896 C 761.707 -3.88352 -4.73127 0
M  V30 7897 N 760.844 -3.76098 -5.9287 0
M  V30 7898 H 765.684 -2.49349 -1.63184 0
M  V30 7899 H 763.221 -1.23725 -0.795641 0
M  V30 7900 H 765.179 -1.48649 -3.89819 0
M  V30 7901 H 763.809 -0.607442 -3.17033 0
M  V30 7902 H 762.861 -2.91561 -2.44329 0
M  V30 7903 H 764.173 -3.67847 -3.36883 0
M  V30 7904 H 763.327 -2.61875 -5.47272 0
M  V30 7905 H 762.066 -1.75135 -4.55169 0
M  V30 7906 H 761.071 -3.94137 -3.83322 0
M  V30 7907 H 762.296 -4.81591 -4.78797 0
M  V30 7908 H 760.242 -2.867 -5.90033 0
M  V30 7909 H 760.159 -4.59509 -6.00323 0
M  V30 7910 H 761.427 -3.74607 -6.83586 0
M  V30 7911 N 765.656 0.84705 -1.32902 0
M  V30 7912 C 766.604 1.97765 -1.22441 0
M  V30 7913 C 767.598 1.68919 -0.127546 0
M  V30 7914 O 768.804 1.77633 -0.290973 0
M  V30 7915 H 765.179 0.649072 -0.379748 0
M  V30 7916 H 767.15 2.03713 -2.18044 0
M  V30 7917 C 765.899 3.33834 -0.972125 0
M  V30 7918 H 765.222 3.56564 -1.80837 0
M  V30 7919 H 766.662 4.13467 -0.939209 0
M  V30 7920 C 765.121 3.35328 0.325059 0
M  V30 7921 O 765.651 3.78887 1.33445 0
M  V30 7922 N 763.857 2.88488 0.349718 0
M  V30 7923 H 763.404 2.53234 -0.472236 0
M  V30 7924 H 763.362 2.8987 1.21748 0
M  V30 7925 N 767.134 1.16236 1.06428 0
M  V30 7926 C 768.066 0.825446 2.1382 0
M  V30 7927 C 769.079 -0.166707 1.61944 0
M  V30 7928 O 770.268 0.0578606 1.78406 0
M  V30 7929 C 767.368 0.208023 3.38261 0
M  V30 7930 C 766.541 1.23994 4.19457 0
M  V30 7931 C 765.6 0.642569 5.22262 0
M  V30 7932 O 764.626 1.31106 5.53895 0
M  V30 7933 N 765.828 -0.571327 5.77682 0
M  V30 7934 H 768.593 1.7497 2.43322 0
M  V30 7935 H 766.154 1.05951 1.22417 0
M  V30 7936 H 768.146 -0.204608 4.04182 0
M  V30 7937 H 766.716 -0.619752 3.06395 0
M  V30 7938 H 765.936 1.82879 3.49212 0
M  V30 7939 H 767.224 1.93638 4.70512 0
M  V30 7940 H 766.622 -1.13263 5.54245 0
M  V30 7941 H 765.179 -0.926187 6.45186 0
M  V30 7942 N 768.612 -1.24939 0.960631 0
M  V30 7943 C 769.56 -2.27659 0.47686 0
M  V30 7944 C 770.554 -1.63148 -0.455961 0
M  V30 7945 O 771.76 -1.76911 -0.332029 0
M  V30 7946 H 768.135 -0.739651 0.135723 0
M  V30 7947 H 770.106 -2.65844 1.35534 0
M  V30 7948 C 768.855 -3.46976 -0.224191 0
M  V30 7949 H 768.178 -3.96854 0.484471 0
M  V30 7950 H 769.618 -4.20717 -0.526615 0
M  V30 7951 C 768.077 -3.04159 -1.44876 0
M  V30 7952 O 768.607 -3.10697 -2.54618 0
M  V30 7953 N 766.813 -2.59284 -1.31226 0
M  V30 7954 H 766.36 -2.54164 -0.419361 0
M  V30 7955 H 766.318 -2.31 -2.13275 0
M  V30 7956 N 770.09 -0.729906 -1.39679 0
M  V30 7957 C 771.318 -0.285709 -2.04918 0
M  V30 7958 C 771.733 1.07765 -1.55023 0
M  V30 7959 O 771.09 1.67999 -0.712923 0
M  V30 7960 C 771.141 -0.272793 -3.60469 0
M  V30 7961 O 770.862 -1.58233 -4.08527 0
M  V30 7962 C 772.363 0.188199 -4.429 0
M  V30 7963 H 769.583 -0.125758 -0.65911 0
M  V30 7964 H 772.127 -0.992129 -1.78821 0
M  V30 7965 H 770.282 0.384699 -3.85485 0
M  V30 7966 H 770.696 -1.49245 -5.02818 0
M  V30 7967 H 772.17 0.14608 -5.51807 0
M  V30 7968 H 772.647 1.2326 -4.21549 0
M  V30 7969 H 773.253 -0.439541 -4.23023 0
M  V30 7970 N 771.568 1.50203 -0.477153 0
M  V30 7971 C 772.793 2.07263 0.0754986 0
M  V30 7972 C 773.218 1.33801 1.32208 0
M  V30 7973 O 772.576 0.387482 1.77111 0
M  V30 7974 C 772.624 3.59028 0.336348 0
M  V30 7975 O 771.728 3.87339 1.4157 0
M  V30 7976 H 771.069 0.663815 -0.015662 0
M  V30 7977 H 773.599 1.93321 -0.669936 0
M  V30 7978 H 773.609 4.03927 0.575034 0
M  V30 7979 H 772.284 4.11912 -0.574551 0
M  V30 7980 H 770.861 3.54272 1.16385 0
M  V30 7981 N 773.046 0.209999 1.56195 0
M  V30 7982 C 774.276 -0.429373 2.02089 0
M  V30 7983 C 774.684 -1.54703 1.0892 0
M  V30 7984 O 774.027 -1.83485 0.0889535 0
M  V30 7985 C 774.089 -1.03266 3.44349 0
M  V30 7986 C 773.753 -0.0518873 4.56971 0
M  V30 7987 C 774.75 0.744249 5.14545 0
M  V30 7988 C 772.435 0.0635185 5.0226 0
M  V30 7989 C 774.429 1.64261 6.15871 0
M  V30 7990 C 772.116 0.965423 6.03426 0
M  V30 7991 C 773.114 1.75352 6.60106 0
M  V30 7992 O 772.802 2.64029 7.59305 0
M  V30 7993 H 772.534 -0.110604 0.66689 0
M  V30 7994 H 775.088 0.320436 2.02885 0
M  V30 7995 H 773.318 -1.83134 3.40586 0
M  V30 7996 H 775.007 -1.57823 3.73961 0
M  V30 7997 H 775.773 0.665476 4.80413 0
M  V30 7998 H 771.652 -0.539762 4.57829 0
M  V30 7999 H 775.196 2.25819 6.60039 0
M  V30 8000 H 771.093 1.04526 6.36981 0
M  V30 8001 H 771.861 2.57974 7.76783 0
M  V30 8002 N 774.524 -1.57472 -0.0634922 0
M  V30 8003 C 775.801 -1.78736 -0.794538 0
M  V30 8004 C 776.181 -0.799645 -1.95369 0
M  V30 8005 O 775.529 0.165521 -2.279 0
M  V30 8006 C 775.739 -3.25471 -1.25975 0
M  V30 8007 C 777.087 -3.89528 -1.68976 0
M  V30 8008 O 778.111 -3.29412 -1.35521 0
M  V30 8009 O 776.97 -4.95305 -2.30944 0
M  V30 8010 H 774.064 -0.733813 -0.381376 0
M  V30 8011 H 776.61 -1.69646 -0.0429258 0
M  V30 8012 H 775.382 -3.88922 -0.430721 0
M  V30 8013 H 775.005 -3.39317 -2.07243 0
M  V30 8014 N 776.003 0.335068 -1.53997 0
M  V30 8015 C 776.95 1.41187 -1.82579 0
M  V30 8016 C 777.92 1.51897 -0.672061 0
M  V30 8017 O 779.105 1.673 -0.917346 0
M  V30 8018 C 776.245 2.77717 -2.0486 0
M  V30 8019 C 775.358 2.7573 -3.32561 0
M  V30 8020 C 774.493 4.04032 -3.44864 0
M  V30 8021 C 773.532 3.96308 -4.66483 0
M  V30 8022 N 772.669 5.16317 -4.75774 0
M  V30 8023 H 777.509 1.16113 -2.74448 0
M  V30 8024 H 775.046 0.562305 -1.35928 0
M  V30 8025 H 777.004 3.57071 -2.15768 0
M  V30 8026 H 775.634 3.01124 -1.16294 0
M  V30 8027 H 774.686 1.88432 -3.3045 0
M  V30 8028 H 775.998 2.65902 -4.22016 0
M  V30 8029 H 775.152 4.91814 -3.55251 0
M  V30 8030 H 773.891 4.16652 -2.53481 0
M  V30 8031 H 772.896 3.06911 -4.56164 0
M  V30 8032 H 774.121 3.85263 -5.5924 0
M  V30 8033 H 772.067 5.29464 -3.87303 0
M  V30 8034 H 771.984 5.08779 -5.59178 0
M  V30 8035 H 773.252 6.05846 -4.9048 0
M  V30 8036 N 777.481 1.45874 0.596531 0
M  V30 8037 C 778.727 1.5069 1.35722 0
M  V30 8038 C 779.06 0.152506 1.936 0
M  V30 8039 O 778.335 -0.834411 1.75692 0
M  V30 8040 C 778.618 2.59474 2.4969 0
M  V30 8041 C 778.471 4.04396 1.96937 0
M  V30 8042 C 779.79 2.64451 3.51787 0
M  V30 8043 H 776.909 0.548611 0.492133 0
M  V30 8044 H 779.551 1.77741 0.671428 0
M  V30 8045 H 777.701 2.36539 3.08191 0
M  V30 8046 H 779.373 4.38576 1.43 0
M  V30 8047 H 777.616 4.14529 1.27859 0
M  V30 8048 H 778.287 4.76218 2.79143 0
M  V30 8049 H 780.763 2.85031 3.03145 0
M  V30 8050 H 779.639 3.42411 4.29006 0
M  V30 8051 H 779.9 1.69965 4.08123 0
M  V30 8052 N 778.959 -0.83999 1.33349 0
M  V30 8053 C 779.889 -1.965 1.26135 0
M  V30 8054 C 780.87 -1.69505 0.142152 0
M  V30 8055 O 782.055 -1.91346 0.331743 0
M  V30 8056 C 779.185 -3.32632 0.99866 0
M  V30 8057 C 778.139 -3.74021 2.08068 0
M  V30 8058 C 777.465 -5.07947 1.67014 0
M  V30 8059 C 778.765 -3.87925 3.49731 0
M  V30 8060 H 780.459 -2.02793 2.20262 0
M  V30 8061 H 778.005 -0.974297 1.06035 0
M  V30 8062 H 779.958 -4.10903 0.934696 0
M  V30 8063 H 778.682 -3.26593 0.0217759 0
M  V30 8064 H 777.341 -2.98012 2.13505 0
M  V30 8065 H 776.989 -4.98378 0.680316 0
M  V30 8066 H 776.689 -5.36611 2.39422 0
M  V30 8067 H 778.213 -5.88695 1.62082 0
M  V30 8068 H 779.627 -4.5651 3.46802 0
M  V30 8069 H 778.024 -4.28023 4.20614 0
M  V30 8070 H 779.094 -2.90407 3.88319 0
M  V30 8071 N 780.437 -1.16799 -1.0581 0
M  V30 8072 C 781.667 -0.975454 -1.82122 0
M  V30 8073 C 782.075 0.479584 -1.83021 0
M  V30 8074 O 781.418 1.34471 -1.25153 0
M  V30 8075 C 781.48 -1.43209 -3.29744 0
M  V30 8076 C 781.144 -2.908 -3.5254 0
M  V30 8077 C 782.141 -3.88775 -3.45181 0
M  V30 8078 C 779.826 -3.28832 -3.79703 0
M  V30 8079 C 781.82 -5.22782 -3.64661 0
M  V30 8080 C 779.507 -4.63007 -3.98832 0
M  V30 8081 C 780.505 -5.59791 -3.91309 0
M  V30 8082 O 780.193 -6.9154 -4.09911 0
M  V30 8083 H 779.925 -0.345655 -0.580947 0
M  V30 8084 H 782.479 -1.55355 -1.34365 0
M  V30 8085 H 780.709 -0.797504 -3.78387 0
M  V30 8086 H 782.398 -1.2062 -3.87564 0
M  V30 8087 H 783.164 -3.60738 -3.2418 0
M  V30 8088 H 779.043 -2.54073 -3.84666 0
M  V30 8089 H 782.587 -5.98312 -3.58705 0
M  V30 8090 H 778.484 -4.90752 -4.19324 0
M  V30 8091 H 779.252 -6.98188 -4.27172 0
M  V30 8092 N 781.915 1.24427 -0.967243 0
M  V30 8093 C 782.863 2.27403 -0.488927 0
M  V30 8094 C 783.857 1.63388 0.447302 0
M  V30 8095 O 785.063 1.77085 0.322643 0
M  V30 8096 H 781.438 0.738921 -0.139643 0
M  V30 8097 H 783.409 2.65122 -1.36942 0
M  V30 8098 C 782.158 3.4709 0.205787 0
M  V30 8099 H 781.481 3.96591 -0.50551 0
M  V30 8100 H 782.921 4.2099 0.504296 0
M  V30 8101 C 781.38 3.04923 1.43261 0
M  V30 8102 O 781.91 3.12043 2.52967 0
M  V30 8103 N 780.116 2.59976 1.29849 0
M  V30 8104 H 779.663 2.54382 0.405876 0
M  V30 8105 H 779.621 2.32128 2.12047 0
M  V30 8106 N 783.393 0.737304 1.3929 0
M  V30 8107 C 784.623 0.296143 2.04467 0
M  V30 8108 C 785.031 -1.0748 1.55707 0
M  V30 8109 O 784.374 -1.69082 0.718123 0
M  V30 8110 C 784.436 0.222161 3.58813 0
M  V30 8111 C 784.1 1.53195 4.30558 0
M  V30 8112 C 785.097 2.47809 4.57041 0
M  V30 8113 C 782.782 1.79688 4.6906 0
M  V30 8114 C 784.776 3.67147 5.21039 0
M  V30 8115 C 782.463 2.99304 5.32785 0
M  V30 8116 C 783.461 3.92855 5.58708 0
M  V30 8117 O 783.149 5.1037 6.2111 0
M  V30 8118 H 782.881 0.126896 0.663983 0
M  V30 8119 H 785.435 1.00242 1.79278 0
M  V30 8120 H 783.665 -0.540239 3.82908 0
M  V30 8121 H 785.354 -0.187311 4.05468 0
M  V30 8122 H 786.12 2.28611 4.2774 0
M  V30 8123 H 781.999 1.07716 4.48239 0
M  V30 8124 H 785.543 4.40183 5.41188 0
M  V30 8125 H 781.44 3.18401 5.61508 0
M  V30 8126 H 782.208 5.10735 6.39603 0
M  V30 8127 N 784.871 -1.49948 0.485112 0
M  V30 8128 C 786.119 -2.01996 -0.0648775 0
M  V30 8129 C 786.44 -1.36819 -1.38945 0
M  V30 8130 O 785.71 -0.518163 -1.88923 0
M  V30 8131 H 784.29 -0.746513 -0.0269662 0
M  V30 8132 H 786.952 -1.84136 0.638733 0
M  V30 8133 H 786.048 -3.11418 -0.20617 0
M  V30 8134 N 786.349 -0.21828 -1.56081 0
M  V30 8135 C 787.297 0.709679 -2.21509 0
M  V30 8136 C 788.291 1.20221 -1.19346 0
M  V30 8137 O 789.497 1.16241 -1.37433 0
M  V30 8138 H 785.872 0.247271 -0.710184 0
M  V30 8139 H 787.843 0.134386 -2.98097 0
M  V30 8140 C 786.592 1.90853 -2.90638 0
M  V30 8141 H 785.915 1.53865 -3.69006 0
M  V30 8142 H 787.355 2.53568 -3.39822 0
M  V30 8143 C 785.814 2.76189 -1.92929 0
M  V30 8144 O 786.344 3.74842 -1.44416 0
M  V30 8145 N 784.55 2.42157 -1.6065 0
M  V30 8146 H 784.097 1.61987 -2.00294 0
M  V30 8147 H 784.055 2.99534 -0.955347 0
M  V30 8148 N 787.827 1.57504 0.0551401 0
M  V30 8149 C 789.238 1.76626 0.604979 0
M  V30 8150 C 789.589 0.845978 1.77024 0
M  V30 8151 O 788.714 0.0341936 2.16373 0
M  V30 8152 C 789.309 3.203 1.10425 0
M  V30 8153 C 787.868 3.4071 1.59981 0
M  V30 8154 C 787.015 2.72258 0.526414 0
M  V30 8155 H 789.966 1.57775 -0.171072 0
M  V30 8156 H 789.987 3.25377 1.97256 0
M  V30 8157 H 789.499 3.87255 0.255939 0
M  V30 8158 H 787.6 2.78892 2.47083 0
M  V30 8159 H 787.713 4.49227 1.66528 0
M  V30 8160 H 786.077 2.35283 0.97539 0
M  V30 8161 H 786.86 3.41879 -0.311991 0
M  V30 8162 N 789.305 -0.326896 1.54172 0
M  V30 8163 C 790.53 -1.08924 1.76494 0
M  V30 8164 C 790.955 -1.81039 0.510523 0
M  V30 8165 O 790.313 -1.73141 -0.537756 0
M  V30 8166 C 790.361 -2.06558 2.95578 0
M  V30 8167 O 789.465 -3.14394 2.6689 0
M  V30 8168 H 788.806 -0.314216 0.584948 0
M  V30 8169 H 791.336 -0.372207 2.01186 0
M  V30 8170 H 791.346 -2.49487 3.22832 0
M  V30 8171 H 790.021 -1.53469 3.86549 0
M  V30 8172 H 788.598 -2.76164 2.50576 0
M  V30 8173 N 790.784 -1.46188 -0.588786 0
M  V30 8174 C 791.732 -1.56653 -1.71938 0
M  V30 8175 C 792.726 -0.435354 -1.6371 0
M  V30 8176 O 793.932 -0.611996 -1.69277 0
M  V30 8177 H 790.307 -0.492408 -0.568365 0
M  V30 8178 H 792.278 -2.51724 -1.60242 0
M  V30 8179 C 791.027 -1.56822 -3.10326 0
M  V30 8180 H 790.35 -2.43198 -3.17325 0
M  V30 8181 H 791.79 -1.68199 -3.89211 0
M  V30 8182 C 790.249 -0.295802 -3.35599 0
M  V30 8183 O 790.779 0.616515 -3.96941 0
M  V30 8184 N 788.985 -0.185609 -2.90007 0
M  V30 8185 H 788.532 -0.928914 -2.40269 0
M  V30 8186 H 788.49 0.664883 -3.07289 0
M  V30 8187 N 792.262 0.832906 -1.33792 0
M  V30 8188 C 793.209 1.94314 -1.24541 0
M  V30 8189 C 794.179 1.65646 -0.122753 0
M  V30 8190 O 795.364 1.88394 -0.30204 0
M  V30 8191 C 792.504 3.30395 -0.996641 0
M  V30 8192 C 791.617 3.71422 -2.20612 0
M  V30 8193 C 790.752 4.96401 -1.89101 0
M  V30 8194 C 789.791 5.2998 -3.06247 0
M  V30 8195 N 788.928 6.46137 -2.74685 0
M  V30 8196 H 793.768 2.01559 -2.19495 0
M  V30 8197 H 791.305 0.986243 -1.09141 0
M  V30 8198 H 793.263 4.08803 -0.832817 0
M  V30 8199 H 791.893 3.22691 -0.0838242 0
M  V30 8200 H 790.945 2.88488 -2.47949 0
M  V30 8201 H 792.257 3.92215 -3.0817 0
M  V30 8202 H 791.411 5.82572 -1.69396 0
M  V30 8203 H 790.15 4.7759 -0.987882 0
M  V30 8204 H 789.155 4.42312 -3.26559 0
M  V30 8205 H 790.38 5.50737 -3.97323 0
M  V30 8206 H 788.326 6.28801 -1.86938 0
M  V30 8207 H 788.243 6.67054 -3.55774 0
M  V30 8208 H 789.511 7.35403 -2.58461 0
M  V30 8209 N 793.74 1.17359 1.05189 0
M  V30 8210 C 794.965 0.98709 1.82404 0
M  V30 8211 C 795.39 -0.459848 1.82392 0
M  V30 8212 O 794.748 -1.32924 1.23292 0
M  V30 8213 C 794.796 1.53276 3.26403 0
M  V30 8214 O 793.9 0.746541 4.05587 0
M  V30 8215 H 793.241 0.35047 0.563974 0
M  V30 8216 H 795.771 1.55856 1.32552 0
M  V30 8217 H 795.781 1.55504 3.77203 0
M  V30 8218 H 794.456 2.58603 3.25726 0
M  V30 8219 H 793.033 0.795671 3.64312 0
M  V30 8220 N 795.218 -1.23913 0.973828 0
M  V30 8221 C 796.464 -1.92436 0.640026 0
M  V30 8222 C 796.797 -1.75875 -0.823512 0
M  V30 8223 O 796.072 -1.11563 -1.59323 0
M  V30 8224 C 796.355 -3.4526 1.0231 0
M  V30 8225 C 796.208 -3.70961 2.54378 0
M  V30 8226 C 797.527 -4.36495 0.562155 0
M  V30 8227 H 794.646 -0.698868 0.233992 0
M  V30 8228 H 797.288 -1.46163 1.21393 0
M  V30 8229 H 795.438 -3.84802 0.534751 0
M  V30 8230 H 797.11 -3.40941 3.10737 0
M  V30 8231 H 795.353 -3.15899 2.97305 0
M  V30 8232 H 796.024 -4.77912 2.76232 0
M  V30 8233 H 798.5 -4.04363 0.981333 0
M  V30 8234 H 797.376 -5.42142 0.858689 0
M  V30 8235 H 797.637 -4.38818 -0.537659 0
M  V30 8236 N 796.696 -0.74468 -1.38897 0
M  V30 8237 C 797.945 -0.293716 -1.9955 0
M  V30 8238 C 798.258 1.12831 -1.59777 0
M  V30 8239 O 799.464 1.67929 -2.13336 0
M  V30 8240 C 797.92 -0.474188 -3.56762 0
M  V30 8241 C 797.528 -1.90472 -4.05493 0
M  V30 8242 C 799.272 -0.0854875 -4.24414 0
M  V30 8243 C 797.179 -2.03423 -5.55314 0
M  V30 8244 H 796.109 -0.106066 -0.746502 0
M  V30 8245 H 798.76 -0.919948 -1.58774 0
M  V30 8246 H 797.142 0.221092 -3.95382 0
M  V30 8247 H 798.316 -2.63274 -3.78184 0
M  V30 8248 H 796.631 -2.24752 -3.50536 0
M  V30 8249 H 799.228 -0.161133 -5.34457 0
M  V30 8250 H 799.571 0.96066 -4.05064 0
M  V30 8251 H 800.104 -0.732286 -3.91002 0
M  V30 8252 H 796.843 -3.0626 -5.79556 0
M  V30 8253 H 796.363 -1.3507 -5.84394 0
M  V30 8254 H 798.042 -1.81996 -6.20876 0
M  V30 8255 N 798.174 1.49689 -0.493057 0
M  V30 8256 C 799.42 2.02727 0.0543518 0
M  V30 8257 C 799.753 1.37264 1.37376 0
M  V30 8258 O 799.028 0.505644 1.87812 0
M  V30 8259 C 799.311 3.59456 0.215226 0
M  V30 8260 C 799.164 4.35459 -1.12675 0
M  V30 8261 C 800.483 4.29511 0.959586 0
M  V30 8262 H 797.602 0.736773 0.0182786 0
M  V30 8263 H 800.244 1.78792 -0.642924 0
M  V30 8264 H 798.394 3.79981 0.809122 0
M  V30 8265 H 800.066 4.2645 -1.75891 0
M  V30 8266 H 798.309 3.9833 -1.71801 0
M  V30 8267 H 798.98 5.43454 -0.967578 0
M  V30 8268 H 801.456 4.13594 0.455977 0
M  V30 8269 H 800.332 5.38939 1.04098 0
M  V30 8270 H 800.593 3.94202 2.00144 0
M  V30 8271 N 799.652 0.226554 1.55963 0
M  V30 8272 C 800.929 -0.453058 1.90281 0
M  V30 8273 C 801.309 -1.77377 1.14458 0
M  V30 8274 O 800.657 -2.27067 0.255496 0
M  V30 8275 C 800.867 -0.641108 3.43061 0
M  V30 8276 C 802.215 -0.946265 4.13921 0
M  V30 8277 O 803.239 -0.727713 3.48687 0
M  V30 8278 O 802.098 -1.36131 5.29274 0
M  V30 8279 H 799.192 -0.240242 0.791336 0
M  V30 8280 H 801.738 0.26911 1.67553 0
M  V30 8281 H 800.51 0.290283 3.90222 0
M  V30 8282 H 800.133 -1.41458 3.71585 0
M  V30 8283 N 801.13 -1.57531 -0.0467866 0
M  V30 8284 C 802.077 -2.05387 -1.05285 0
M  V30 8285 C 803.047 -0.939385 -1.36985 0
M  V30 8286 O 804.232 -1.20877 -1.47626 0
M  V30 8287 C 801.372 -2.52343 -2.35408 0
M  V30 8288 C 800.485 -3.77512 -2.10022 0
M  V30 8289 C 799.62 -4.1315 -3.33887 0
M  V30 8290 C 798.659 -5.31286 -3.03976 0
M  V30 8291 N 797.796 -5.62441 -4.20243 0
M  V30 8292 H 802.636 -2.91095 -0.637788 0
M  V30 8293 H 800.173 -1.43939 -0.303322 0
M  V30 8294 H 802.131 -2.77628 -3.11413 0
M  V30 8295 H 800.761 -1.69577 -2.7467 0
M  V30 8296 H 799.813 -3.59417 -1.24594 0
M  V30 8297 H 801.125 -4.63644 -1.83945 0
M  V30 8298 H 800.279 -4.39469 -4.18273 0
M  V30 8299 H 799.018 -3.25634 -3.63062 0
M  V30 8300 H 798.023 -5.04738 -2.17991 0
M  V30 8301 H 799.248 -6.20441 -2.76098 0
M  V30 8302 H 797.194 -4.77885 -4.49402 0
M  V30 8303 H 797.111 -6.43046 -3.97528 0
M  V30 8304 H 798.379 -5.93327 -5.05553 0
M  V30 8305 N 802.608 0.318715 -1.54344 0
M  V30 8306 C 803.836 1.0755 -1.7675 0
M  V30 8307 C 804.251 1.81543 -0.518422 0
M  V30 8308 O 803.608 1.75198 0.511078 0
M  V30 8309 C 803.659 2.06983 -2.96378 0
M  V30 8310 O 803.38 1.35995 -4.16458 0
M  V30 8311 C 804.881 2.94841 -3.31034 0
M  V30 8312 H 802.101 0.319711 -0.589937 0
M  V30 8313 H 804.645 0.363369 -2.01246 0
M  V30 8314 H 802.8 2.73724 -2.74142 0
M  V30 8315 H 803.214 2.02623 -4.83781 0
M  V30 8316 H 804.688 3.60496 -4.18027 0
M  V30 8317 H 805.165 3.62199 -2.48412 0
M  V30 8318 H 805.771 2.33656 -3.55366 0
M  V30 8319 N 804.086 1.46499 0.581025 0
M  V30 8320 C 805.502 1.31491 0.904563 0
M  V30 8321 C 805.702 0.287598 1.99437 0
M  V30 8322 O 804.758 -0.309247 2.50599 0
M  V30 8323 C 806.071 2.70163 1.32032 0
M  V30 8324 C 807.619 2.78266 1.43308 0
M  V30 8325 C 808.094 4.17524 1.8825 0
M  V30 8326 N 809.585 4.19949 1.9544 0
M  V30 8327 C 810.32 5.24594 2.31493 0
M  V30 8328 N 809.816 6.39564 2.66326 0
M  V30 8329 N 811.609 5.11961 2.32062 0
M  V30 8330 H 803.76 2.11946 -0.138856 0
M  V30 8331 H 806.023 0.948 0.000548528 0
M  V30 8332 H 805.729 3.46655 0.593554 0
M  V30 8333 H 805.603 3.00379 2.2815 0
M  V30 8334 H 807.99 2.02061 2.15071 0
M  V30 8335 H 808.071 2.51732 0.45438 0
M  V30 8336 H 807.715 4.94225 1.17065 0
M  V30 8337 H 807.645 4.41466 2.87081 0
M  V30 8338 H 810.136 3.36996 1.71004 0
M  V30 8339 H 810.449 7.15187 2.92793 0
M  V30 8340 H 808.794 6.42923 2.6396 0
M  V30 8341 H 811.985 4.21177 2.04272 0
M  V30 8342 H 812.158 5.93626 2.5983 0
M  V30 8343 N 805.565 -0.825799 1.34232 0
M  V30 8344 C 806.79 -1.61883 1.29648 0
M  V30 8345 C 807.215 -1.87669 -0.127295 0
M  V30 8346 O 806.573 -1.45016 -1.08813 0
M  V30 8347 C 806.621 -2.93846 2.09014 0
M  V30 8348 O 805.725 -3.85778 1.4577 0
M  V30 8349 H 805.066 -0.492454 0.445405 0
M  V30 8350 H 807.596 -1.02641 1.76992 0
M  V30 8351 H 807.606 -3.43435 2.20264 0
M  V30 8352 H 806.281 -2.74401 3.12533 0
M  V30 8353 H 804.858 -3.4429 1.43245 0
M  V30 8354 N 807.043 -1.17915 -1.04565 0
M  V30 8355 C 807.973 -0.925033 -2.14395 0
M  V30 8356 C 808.954 0.135375 -1.6956 0
M  V30 8357 O 810.139 -0.0161774 -1.94193 0
M  V30 8358 C 807.269 -0.444469 -3.44444 0
M  V30 8359 C 806.223 -1.44478 -4.02877 0
M  V30 8360 C 805.549 -0.821933 -5.28345 0
M  V30 8361 C 806.849 -2.81995 -4.39632 0
M  V30 8362 H 808.543 -1.84354 -2.35911 0
M  V30 8363 H 806.089 -0.887806 -1.13375 0
M  V30 8364 H 808.042 -0.254078 -4.20633 0
M  V30 8365 H 806.766 0.509592 -3.226 0
M  V30 8366 H 805.425 -1.62203 -3.28764 0
M  V30 8367 H 805.073 0.139161 -5.02807 0
M  V30 8368 H 804.773 -1.48976 -5.68401 0
M  V30 8369 H 806.297 -0.641959 -6.07216 0
M  V30 8370 H 807.711 -2.67952 -5.06828 0
M  V30 8371 H 806.108 -3.45414 -4.90723 0
M  V30 8372 H 807.178 -3.35927 -3.49687 0
M  V30 8373 N 808.521 1.23394 -0.980386 0
M  V30 8374 C 809.454 2.23404 -0.465404 0
M  V30 8375 C 810.432 1.55735 0.467471 0
M  V30 8376 O 811.616 1.84295 0.395921 0
M  V30 8377 C 808.743 3.3712 0.32672 0
M  V30 8378 C 807.789 4.22935 -0.550296 0
M  V30 8379 S 808.622 4.96824 -1.99814 0
M  V30 8380 C 809.778 6.13991 -1.21516 0
M  V30 8381 H 810.011 2.6674 -1.31289 0
M  V30 8382 H 807.544 1.32874 -0.78638 0
M  V30 8383 H 809.502 4.03065 0.777738 0
M  V30 8384 H 808.163 2.92317 1.14933 0
M  V30 8385 H 807.356 5.03966 0.0585298 0
M  V30 8386 H 806.958 3.62058 -0.937558 0
M  V30 8387 H 809.25 6.75822 -0.476476 0
M  V30 8388 H 810.193 6.7926 -2.0003 0
M  V30 8389 H 810.601 5.59708 -0.733949 0
M  V30 8390 N 809.999 0.752036 1.385 0
M  V30 8391 C 811.246 0.307503 2.00152 0
M  V30 8392 C 811.574 -1.11033 1.59693 0
M  V30 8393 O 810.829 -1.77455 0.825125 0
M  V30 8394 C 811.128 0.376155 3.55415 0
M  V30 8395 C 810.794 1.74942 4.15579 0
M  V30 8396 C 809.456 2.12525 4.31725 0
M  V30 8397 C 811.808 2.65031 4.48785 0
M  V30 8398 C 809.136 3.39671 4.78373 0
M  V30 8399 C 811.488 3.91567 4.96848 0
M  V30 8400 C 810.152 4.2922 5.11201 0
M  V30 8401 H 809.422 0.112523 0.732407 0
M  V30 8402 H 812.069 0.962213 1.65571 0
M  V30 8403 H 810.374 -0.362121 3.90123 0
M  V30 8404 H 812.071 0.0138065 4.00998 0
M  V30 8405 H 808.661 1.44726 4.03426 0
M  V30 8406 H 812.845 2.3726 4.35914 0
M  V30 8407 H 808.101 3.68765 4.8767 0
M  V30 8408 H 812.275 4.61517 5.21512 0
M  V30 8409 H 809.902 5.27805 5.47107 0
M  V30 8410 N 811.477 -1.49425 0.500989 0
M  V30 8411 C 812.44 -2.27646 -0.266416 0
M  V30 8412 C 813.44 -1.3366 -0.893961 0
M  V30 8413 O 814.63 -1.5682 -0.758495 0
M  V30 8414 C 811.762 -3.11618 -1.38227 0
M  V30 8415 H 812.955 -2.96945 0.419973 0
M  V30 8416 H 810.508 -1.5419 0.255954 0
M  V30 8417 H 811.243 -2.46885 -2.10281 0
M  V30 8418 H 811.028 -3.80721 -0.937746 0
M  V30 8419 H 812.518 -3.70698 -1.92283 0
M  V30 8420 N 812.955 -0.234822 -1.55841 0
M  V30 8421 C 813.918 0.656378 -2.196 0
M  V30 8422 C 814.918 1.11179 -1.16171 0
M  V30 8423 O 816.108 1.01845 -1.41326 0
M  V30 8424 C 813.24 1.90072 -2.82993 0
M  V30 8425 H 814.433 0.100281 -2.99732 0
M  V30 8426 H 811.986 0.0147613 -1.56293 0
M  V30 8427 H 812.721 2.49836 -2.06767 0
M  V30 8428 H 812.506 1.5825 -3.58747 0
M  V30 8429 H 813.996 2.53538 -3.31826 0
M  V30 8430 N 814.433 1.57553 0.0384317 0
M  V30 8431 C 815.663 1.92813 0.742064 0
M  V30 8432 C 816.071 0.832157 1.69917 0
M  V30 8433 O 815.414 -0.200917 1.82598 0
M  V30 8434 C 815.476 3.23806 1.56172 0
M  V30 8435 C 815.14 4.50459 0.770407 0
M  V30 8436 C 816.137 5.19846 0.0748006 0
M  V30 8437 C 813.822 4.97001 0.727714 0
M  V30 8438 C 815.816 6.34047 -0.652902 0
M  V30 8439 C 813.503 6.111 -0.00373992 0
M  V30 8440 C 814.501 6.79477 -0.692816 0
M  V30 8441 O 814.189 7.91395 -1.41241 0
M  V30 8442 H 813.921 0.641174 0.214179 0
M  V30 8443 H 816.475 2.054 0.00285095 0
M  V30 8444 H 814.705 3.0752 2.34453 0
M  V30 8445 H 816.394 3.44463 2.14709 0
M  V30 8446 H 817.16 4.84899 0.098875 0
M  V30 8447 H 813.039 4.43629 1.25355 0
M  V30 8448 H 816.583 6.87353 -1.1913 0
M  V30 8449 H 812.48 6.45493 -0.0297703 0
M  V30 8450 H 813.248 8.07702 -1.32512 0
M  V30 8451 N 815.911 -0.310526 1.54511 0
M  V30 8452 C 816.841 -1.38757 1.878 0
M  V30 8453 C 817.822 -1.53353 0.735991 0
M  V30 8454 O 819.007 -1.67018 0.990887 0
M  V30 8455 C 816.137 -2.75327 2.11689 0
M  V30 8456 C 815.091 -2.75506 3.27537 0
M  V30 8457 C 814.417 -4.15275 3.36824 0
M  V30 8458 C 815.717 -2.38093 4.64875 0
M  V30 8459 H 817.411 -1.11146 2.78005 0
M  V30 8460 H 814.957 -0.533232 1.33763 0
M  V30 8461 H 816.91 -3.50752 2.33562 0
M  V30 8462 H 815.634 -3.04443 1.18245 0
M  V30 8463 H 814.293 -2.02538 3.05572 0
M  V30 8464 H 813.941 -4.41553 2.40915 0
M  V30 8465 H 813.641 -4.16299 4.14692 0
M  V30 8466 H 815.165 -4.92493 3.60947 0
M  V30 8467 H 816.579 -3.03232 4.86542 0
M  V30 8468 H 814.976 -2.50345 5.45387 0
M  V30 8469 H 816.046 -1.33227 4.66239 0
M  V30 8470 N 817.389 -1.46805 -0.573248 0
M  V30 8471 C 818.337 -1.58468 -1.70267 0
M  V30 8472 C 819.331 -0.452694 -1.63239 0
M  V30 8473 O 820.537 -0.629915 -1.68618 0
M  V30 8474 H 816.912 -0.498408 -0.56311 0
M  V30 8475 H 818.883 -2.5341 -1.57563 0
M  V30 8476 C 817.632 -1.60104 -3.08645 0
M  V30 8477 H 816.955 -2.4655 -3.14727 0
M  V30 8478 H 818.395 -1.72318 -3.87405 0
M  V30 8479 C 816.854 -0.33138 -3.35266 0
M  V30 8480 O 817.384 0.57438 -3.97572 0
M  V30 8481 N 815.59 -0.216358 -2.89793 0
M  V30 8482 H 815.137 -0.954345 -2.3927 0
M  V30 8483 H 815.095 0.632253 -3.07977 0
M  V30 8484 N 818.867 0.818669 -1.34668 0
M  V30 8485 C 820.092 1.61193 -1.30505 0
M  V30 8486 C 820.517 1.87734 0.117341 0
M  V30 8487 O 819.875 1.45591 1.08042 0
M  V30 8488 C 819.923 2.92733 -2.1057 0
M  V30 8489 O 819.027 3.85 -1.47813 0
M  V30 8490 H 818.368 0.490085 -0.44801 0
M  V30 8491 H 820.898 1.01701 -1.77534 0
M  V30 8492 H 820.908 3.42262 -2.22082 0
M  V30 8493 H 819.583 2.7274 -3.13984 0
M  V30 8494 H 818.16 3.43525 -1.45069 0
M  V30 8495 N 820.346 1.18468 1.03938 0
M  V30 8496 C 821.576 1.0043 1.80547 0
M  V30 8497 C 821.984 -0.450407 1.83761 0
M  V30 8498 O 821.327 -1.32463 1.27276 0
M  V30 8499 C 821.389 1.48437 3.27424 0
M  V30 8500 C 821.053 2.96372 3.47869 0
M  V30 8501 C 822.05 3.94217 3.38953 0
M  V30 8502 C 819.735 3.34831 3.74424 0
M  V30 8503 C 821.729 5.28517 3.56298 0
M  V30 8504 C 819.416 4.69294 3.91416 0
M  V30 8505 C 820.414 5.65946 3.82354 0
M  V30 8506 O 820.102 6.97974 3.98858 0
M  V30 8507 H 819.834 0.354853 0.575374 0
M  V30 8508 H 822.388 1.57473 1.31876 0
M  V30 8509 H 820.618 0.857601 3.7707 0
M  V30 8510 H 822.307 1.2677 3.85596 0
M  V30 8511 H 823.073 3.6585 3.184 0
M  V30 8512 H 818.952 2.60161 3.80575 0
M  V30 8513 H 822.496 6.03943 3.49141 0
M  V30 8514 H 818.393 4.97361 4.11463 0
M  V30 8515 H 819.161 7.04895 4.1601 0
M  V30 8516 N 821.824 -1.22873 0.986916 0
M  V30 8517 C 823.101 -1.86939 0.575589 0
M  V30 8518 C 823.481 -1.88656 -0.947205 0
M  V30 8519 O 822.829 -1.3728 -1.82665 0
M  V30 8520 C 823.039 -3.28117 1.18914 0
M  V30 8521 C 824.387 -4.04659 1.28593 0
M  V30 8522 O 825.411 -3.3736 1.14308 0
M  V30 8523 O 824.27 -5.25112 1.51391 0
M  V30 8524 H 821.364 -0.803748 0.194724 0
M  V30 8525 H 823.91 -1.30698 1.08241 0
M  V30 8526 H 822.682 -3.21468 2.231 0
M  V30 8527 H 822.305 -3.91956 0.667535 0
M  V30 8528 N 823.302 -0.75937 -1.38099 0
M  V30 8529 C 824.53 -0.329111 -2.04266 0
M  V30 8530 C 824.945 1.04453 -1.57274 0
M  V30 8531 O 824.302 1.66449 -0.748397 0
M  V30 8532 C 824.353 -0.349192 -3.5981 0
M  V30 8533 O 824.074 -1.66863 -4.05078 0
M  V30 8534 C 825.575 0.0942106 -4.432 0
M  V30 8535 H 822.795 -0.13971 -0.656294 0
M  V30 8536 H 825.339 -1.02984 -1.76677 0
M  V30 8537 H 823.494 0.302846 -3.86214 0
M  V30 8538 H 823.908 -1.59877 -4.9954 0
M  V30 8539 H 825.382 0.0290004 -5.51992 0
M  V30 8540 H 825.859 1.1429 -4.24069 0
M  V30 8541 H 826.465 -0.529171 -4.21995 0
M  V30 8542 N 824.78 1.49157 -0.508906 0
M  V30 8543 C 826.008 2.06879 0.0293734 0
M  V30 8544 C 826.423 1.36823 1.30095 0
M  V30 8545 O 825.78 0.449034 1.7689 0
M  V30 8546 C 825.831 3.60423 0.278791 0
M  V30 8547 O 825.552 4.27844 -0.942389 0
M  V30 8548 C 827.053 4.34881 0.859825 0
M  V30 8549 H 824.273 0.67057 -0.0240184 0
M  V30 8550 H 826.817 1.91834 -0.708526 0
M  V30 8551 H 824.972 3.75145 0.966689 0
M  V30 8552 H 825.386 5.19671 -0.710097 0
M  V30 8553 H 826.86 5.43161 0.983884 0
M  V30 8554 H 827.337 3.9789 1.85958 0
M  V30 8555 H 827.943 4.24785 0.209152 0
M  V30 8556 N 826.258 0.243083 1.55714 0
M  V30 8557 C 827.188 -0.652336 2.24203 0
M  V30 8558 C 828.169 -1.1843 1.221 0
M  V30 8559 O 829.354 -1.22435 1.50743 0
M  V30 8560 C 826.484 -1.85111 2.93856 0
M  V30 8561 C 825.438 -1.45208 4.02615 0
M  V30 8562 C 824.764 -2.73137 4.59674 0
M  V30 8563 C 826.064 -0.625988 5.18535 0
M  V30 8564 H 827.758 -0.0812504 2.9929 0
M  V30 8565 H 825.304 -0.0376388 1.43951 0
M  V30 8566 H 827.257 -2.48314 3.40468 0
M  V30 8567 H 825.981 -2.44751 2.16251 0
M  V30 8568 H 824.64 -0.843406 3.56766 0
M  V30 8569 H 824.288 -3.30967 3.78774 0
M  V30 8570 H 823.988 -2.47163 5.33089 0
M  V30 8571 H 825.512 -3.37245 5.09017 0
M  V30 8572 H 826.926 -1.16223 5.61396 0
M  V30 8573 H 825.323 -0.462465 5.98315 0
M  V30 8574 H 826.393 0.362652 4.83542 0
M  V30 8575 N 827.736 -1.57571 -0.0300757 0
M  V30 8576 C 828.961 -1.93879 -0.736601 0
M  V30 8577 C 829.386 -0.842998 -1.68152 0
M  V30 8578 O 828.744 0.20135 -1.80178 0
M  V30 8579 C 828.792 -3.29247 -1.47066 0
M  V30 8580 O 827.896 -3.21426 -2.58378 0
M  V30 8581 H 827.237 -0.633735 -0.198181 0
M  V30 8582 H 829.767 -2.04595 0.0141485 0
M  V30 8583 H 829.777 -3.64113 -1.84081 0
M  V30 8584 H 828.452 -4.08565 -0.77764 0
M  V30 8585 H 827.029 -2.98189 -2.23914 0
M  V30 8586 N 829.214 0.302327 -1.54673 0
M  V30 8587 C 830.63 0.647911 -1.45857 0
M  V30 8588 C 830.83 1.90773 -0.64869 0
M  V30 8589 O 829.886 2.52018 -0.155865 0
M  V30 8590 C 831.199 0.802144 -2.89804 0
M  V30 8591 C 832.747 0.898114 -2.99838 0
M  V30 8592 C 833.222 1.08436 -4.44978 0
M  V30 8593 N 834.713 1.15059 -4.48682 0
M  V30 8594 C 835.448 1.31296 -5.58166 0
M  V30 8595 N 834.944 1.4444 -6.77576 0
M  V30 8596 N 836.737 1.34174 -5.45851 0
M  V30 8597 H 828.888 -0.525428 -2.05798 0
M  V30 8598 H 831.151 -0.173423 -0.932002 0
M  V30 8599 H 830.857 -0.0526531 -3.51661 0
M  V30 8600 H 830.731 1.69155 -3.37145 0
M  V30 8601 H 833.118 1.7434 -2.38096 0
M  V30 8602 H 833.199 -0.0152752 -2.55795 0
M  V30 8603 H 832.843 0.243843 -5.07314 0
M  V30 8604 H 832.773 2.01195 -4.8665 0
M  V30 8605 H 835.264 1.0626 -3.62653 0
M  V30 8606 H 835.577 1.56582 -7.56771 0
M  V30 8607 H 833.922 1.41499 -6.80443 0
M  V30 8608 H 837.113 1.23516 -4.5151 0
M  V30 8609 H 837.286 1.46485 -6.31226 0
M  V30 8610 N 830.692 1.47107 0.565454 0
M  V30 8611 C 831.969 1.43787 1.32607 0
M  V30 8612 C 832.349 0.130428 2.10697 0
M  V30 8613 O 831.697 -0.888086 2.10536 0
M  V30 8614 C 831.907 2.67833 2.23755 0
M  V30 8615 C 833.255 3.14704 2.85037 0
M  V30 8616 O 834.279 2.68503 2.34061 0
M  V30 8617 O 833.138 3.95002 3.77671 0
M  V30 8618 H 830.232 0.572623 0.596684 0
M  V30 8619 H 832.778 1.59296 0.58504 0
M  V30 8620 H 831.55 3.54532 1.65597 0
M  V30 8621 H 831.173 2.54869 3.05168 0
M  V30 8622 N 832.17 -0.811516 1.35101 0
M  V30 8623 C 833.581 -1.38515 1.25182 0
M  V30 8624 C 833.932 -1.95846 -0.117883 0
M  V30 8625 O 833.057 -1.90925 -1.01866 0
M  V30 8626 C 833.652 -2.51813 2.26662 0
M  V30 8627 C 832.211 -3.05052 2.20499 0
M  V30 8628 C 831.358 -1.77987 2.12641 0
M  V30 8629 H 834.309 -0.614959 1.46301 0
M  V30 8630 H 834.33 -3.30228 1.89023 0
M  V30 8631 H 833.842 -2.10057 3.2634 0
M  V30 8632 H 831.943 -3.51285 1.24215 0
M  V30 8633 H 832.056 -3.63368 3.1225 0
M  V30 8634 H 830.42 -1.99342 1.5854 0
M  V30 8635 H 831.203 -1.38389 3.14171 0
M  V30 8636 N 833.648 -1.19017 -1.03309 0
M  V30 8637 C 834.595 -0.924088 -2.11493 0
M  V30 8638 C 835.565 0.139464 -1.65513 0
M  V30 8639 O 836.75 -0.00178761 -1.908 0
M  V30 8640 C 833.89 -0.464255 -3.41963 0
M  V30 8641 C 833.003 -1.5941 -4.01513 0
M  V30 8642 C 832.138 -1.08622 -5.19976 0
M  V30 8643 C 831.177 -2.19024 -5.71572 0
M  V30 8644 N 830.314 -1.69575 -6.81314 0
M  V30 8645 H 835.154 -1.85039 -2.33591 0
M  V30 8646 H 832.691 -0.922593 -1.14572 0
M  V30 8647 H 834.649 -0.179078 -4.16815 0
M  V30 8648 H 833.279 0.425062 -3.19989 0
M  V30 8649 H 832.331 -1.99458 -3.23915 0
M  V30 8650 H 833.643 -2.42604 -4.35826 0
M  V30 8651 H 832.797 -0.756022 -6.01971 0
M  V30 8652 H 831.536 -0.223955 -4.87186 0
M  V30 8653 H 830.541 -2.5288 -4.88193 0
M  V30 8654 H 831.766 -3.05699 -6.06403 0
M  V30 8655 H 829.712 -0.856494 -6.50385 0
M  V30 8656 H 829.629 -2.46361 -7.14732 0
M  V30 8657 H 830.897 -1.39505 -7.66915 0
M  V30 8658 N 835.127 1.22348 -0.993418 0
M  V30 8659 C 836.355 1.95125 -0.688021 0
M  V30 8660 C 836.77 1.73377 0.747388 0
M  V30 8661 O 836.127 1.03317 1.50439 0
M  V30 8662 C 836.178 3.47819 -0.985097 0
M  V30 8663 O 835.899 3.68838 -2.3641 0
M  V30 8664 C 837.4 4.37779 -0.697474 0
M  V30 8665 H 834.62 0.62087 -0.254481 0
M  V30 8666 H 837.164 1.55485 -1.32833 0
M  V30 8667 H 835.319 3.85426 -0.390583 0
M  V30 8668 H 835.733 4.63032 -2.46377 0
M  V30 8669 H 837.207 5.43666 -0.955604 0
M  V30 8670 H 837.684 4.37651 0.368524 0
M  V30 8671 H 838.29 4.05799 -1.27306 0
M  V30 8672 N 836.605 0.766683 1.37694 0
M  V30 8673 C 837.535 0.163432 2.32927 0
M  V30 8674 C 838.516 -0.688861 1.55527 0
M  V30 8675 O 839.701 -0.627363 1.83787 0
M  V30 8676 C 836.831 -0.720416 3.39746 0
M  V30 8677 C 835.785 0.0301718 4.27989 0
M  V30 8678 C 835.111 -0.972788 5.25776 0
M  V30 8679 C 836.411 1.20623 5.0818 0
M  V30 8680 H 838.105 0.958988 2.83626 0
M  V30 8681 H 835.651 0.462601 1.36367 0
M  V30 8682 H 837.604 -1.15221 4.05342 0
M  V30 8683 H 836.328 -1.54844 2.8756 0
M  V30 8684 H 834.987 0.442685 3.63917 0
M  V30 8685 H 834.635 -1.79522 4.69873 0
M  V30 8686 H 834.335 -0.475145 5.85676 0
M  V30 8687 H 835.859 -1.40362 5.94248 0
M  V30 8688 H 837.273 0.851341 5.66944 0
M  V30 8689 H 835.67 1.63561 5.7738 0
M  V30 8690 H 836.74 2.01281 4.41151 0
M  V30 8691 N 838.083 -1.48885 0.516809 0
M  V30 8692 C 839.03 -2.29408 -0.253125 0
M  V30 8693 C 840 -1.36533 -0.945935 0
M  V30 8694 O 841.185 -1.65495 -0.949527 0
M  V30 8695 C 838.325 -3.19592 -1.30211 0
M  V30 8696 C 837.438 -4.27535 -0.61948 0
M  V30 8697 C 836.573 -5.04916 -1.65026 0
M  V30 8698 C 835.612 -6.04677 -0.950368 0
M  V30 8699 N 834.749 -6.75164 -1.92608 0
M  V30 8700 H 839.589 -2.94738 0.439744 0
M  V30 8701 H 837.126 -1.45311 0.2287 0
M  V30 8702 H 839.084 -3.70267 -1.92245 0
M  V30 8703 H 837.714 -2.56213 -1.96353 0
M  V30 8704 H 836.766 -3.80228 0.114505 0
M  V30 8705 H 838.078 -4.98752 -0.0693016 0
M  V30 8706 H 837.232 -5.59539 -2.34523 0
M  V30 8707 H 835.971 -4.33508 -2.23432 0
M  V30 8708 H 834.976 -5.4927 -0.241252 0
M  V30 8709 H 836.201 -6.78077 -0.372599 0
M  V30 8710 H 834.147 -6.06517 -2.49946 0
M  V30 8711 H 834.064 -7.4241 -1.42699 0
M  V30 8712 H 835.332 -7.34384 -2.61345 0
M  V30 8713 N 839.561 -0.251338 -1.55583 0
M  V30 8714 C 840.807 0.365823 -2.00083 0
M  V30 8715 C 841.162 1.55242 -1.13656 0
M  V30 8716 O 840.455 1.90624 -0.193108 0
M  V30 8717 C 840.649 0.821186 -3.47838 0
M  V30 8718 C 840.478 -0.319746 -4.48562 0
M  V30 8719 C 839.248 -0.795866 -4.98993 0
M  V30 8720 C 841.446 -1.14825 -5.01318 0
M  V30 8721 N 839.428 -1.90875 -5.83472 0
M  V30 8722 C 840.799 -2.10943 -5.83012 0
M  V30 8723 C 842.854 -1.18431 -4.8361 0
M  V30 8724 C 841.557 -3.10383 -6.48888 0
M  V30 8725 C 843.583 -2.16703 -5.50267 0
M  V30 8726 C 842.945 -3.11557 -6.31753 0
M  V30 8727 H 839.044 0.0996971 -0.775619 0
M  V30 8728 H 841.628 -0.36993 -1.91153 0
M  V30 8729 H 839.799 1.52622 -3.57157 0
M  V30 8730 H 841.531 1.41367 -3.79206 0
M  V30 8731 H 838.286 -0.379242 -4.72079 0
M  V30 8732 H 838.71 -2.46808 -6.30408 0
M  V30 8733 H 843.352 -0.464824 -4.20237 0
M  V30 8734 H 841.07 -3.83277 -7.11424 0
M  V30 8735 H 844.656 -2.20204 -5.38518 0
M  V30 8736 H 843.536 -3.86357 -6.82421 0
M  V30 8737 N 841.039 1.57585 0.0217189 0
M  V30 8738 C 842.287 1.89231 0.709641 0
M  V30 8739 C 842.608 0.849964 1.75501 0
M  V30 8740 O 841.878 -0.115485 1.95559 0
M  V30 8741 H 840.458 0.69838 0.265092 0
M  V30 8742 H 843.12 1.94895 -0.0140688 0
M  V30 8743 H 842.216 2.88333 1.19459 0
M  V30 8744 N 842.517 -0.29412 1.54831 0
M  V30 8745 C 843.766 -1.02614 1.73647 0
M  V30 8746 C 844.079 -1.88193 0.533162 0
M  V30 8747 O 845.285 -2.64713 0.603275 0
M  V30 8748 C 843.741 -1.87417 3.07251 0
M  V30 8749 C 843.349 -1.06806 4.35082 0
M  V30 8750 C 845.093 -2.60176 3.35423 0
M  V30 8751 C 843 -1.90926 5.59733 0
M  V30 8752 H 841.93 -0.386834 0.647206 0
M  V30 8753 H 844.581 -0.282789 1.81308 0
M  V30 8754 H 842.963 -2.65765 2.93572 0
M  V30 8755 H 844.137 -0.330226 4.59615 0
M  V30 8756 H 842.452 -0.455979 4.13896 0
M  V30 8757 H 845.049 -3.23476 4.25755 0
M  V30 8758 H 845.392 -3.29365 2.54606 0
M  V30 8759 H 845.925 -1.88871 3.50103 0
M  V30 8760 H 842.664 -1.26194 6.43238 0
M  V30 8761 H 842.184 -2.62363 5.39375 0
M  V30 8762 H 843.863 -2.48807 5.97247 0
M  V30 8763 N 843.995 -1.47404 -0.557645 0
M  V30 8764 C 844.945 -1.56267 -1.66026 0
M  V30 8765 C 845.929 -0.42161 -1.55278 0
M  V30 8766 O 847.121 -0.671505 -1.63768 0
M  V30 8767 C 844.25 -1.57958 -3.04802 0
M  V30 8768 C 843.336 -2.77447 -3.20755 0
M  V30 8769 N 843.727 -4.02148 -3.06775 0
M  V30 8770 C 842.025 -2.74199 -3.51754 0
M  V30 8771 C 842.726 -4.82168 -3.25406 0
M  V30 8772 N 841.702 -4.14481 -3.5172 0
M  V30 8773 H 845.504 -2.50454 -1.53785 0
M  V30 8774 H 843.018 -1.43392 -0.762388 0
M  V30 8775 H 845.015 -1.62397 -3.8397 0
M  V30 8776 H 843.675 -0.648667 -3.18155 0
M  V30 8777 H 844.686 -4.33014 -2.84111 0
M  V30 8778 H 841.363 -1.90243 -3.71637 0
M  V30 8779 H 842.753 -5.91037 -3.19569 0
M  V30 8780 N 845.473 0.80434 -1.35529 0
M  V30 8781 C 846.721 1.55845 -1.28673 0
M  V30 8782 C 847.042 1.94511 0.137976 0
M  V30 8783 O 846.312 1.63775 1.07492 0
M  V30 8784 H 844.892 0.577931 -0.473291 0
M  V30 8785 H 847.554 0.959293 -1.69657 0
M  V30 8786 H 846.65 2.47285 -1.90411 0
M  V30 8787 N 846.951 1.19563 1.02676 0
M  V30 8788 C 847.899 0.931942 2.13114 0
M  V30 8789 C 848.893 -0.113007 1.69023 0
M  V30 8790 O 850.099 0.0364298 1.79963 0
M  V30 8791 H 846.474 0.283981 0.696318 0
M  V30 8792 H 848.445 1.86991 2.32545 0
M  V30 8793 C 847.194 0.489461 3.44238 0
M  V30 8794 H 846.517 1.28508 3.78584 0
M  V30 8795 H 847.957 0.34408 4.22602 0
M  V30 8796 C 846.416 -0.796761 3.27343 0
M  V30 8797 O 846.946 -1.85767 3.56165 0
M  V30 8798 N 845.152 -0.754824 2.80626 0
M  V30 8799 H 844.699 0.108778 2.5737 0
M  V30 8800 H 844.657 -1.6158 2.69702 0
M  V30 8801 N 848.429 -1.21819 0.999893 0
M  V30 8802 C 849.362 -2.22635 0.500887 0
M  V30 8803 C 850.34 -1.56459 -0.442636 0
M  V30 8804 O 851.524 -1.84902 -0.366551 0
M  V30 8805 C 848.651 -3.37598 -0.273046 0
M  V30 8806 C 847.697 -4.22006 0.617511 0
M  V30 8807 S 848.53 -4.93583 2.07693 0
M  V30 8808 C 849.686 -6.1198 1.31269 0
M  V30 8809 H 849.919 -2.64618 1.35516 0
M  V30 8810 H 847.452 -1.31606 0.807419 0
M  V30 8811 H 849.41 -4.04251 -0.713515 0
M  V30 8812 H 848.071 -2.94108 -1.10268 0
M  V30 8813 H 847.264 -5.03995 0.0216543 0
M  V30 8814 H 846.866 -3.6052 0.99504 0
M  V30 8815 H 849.158 -6.74979 0.583933 0
M  V30 8816 H 850.101 -6.75991 2.10811 0
M  V30 8817 H 850.509 -5.5847 0.822901 0
M  V30 8818 N 849.908 -0.773975 -1.37286 0
M  V30 8819 C 851.133 -0.349561 -2.04433 0
M  V30 8820 C 851.558 1.02082 -1.5799 0
M  V30 8821 O 850.916 1.65458 -0.741172 0
M  V30 8822 C 850.964 -0.404292 -3.58326 0
M  V30 8823 O 850.068 0.594447 -4.08093 0
M  V30 8824 H 849.409 -0.150959 -0.646612 0
M  V30 8825 H 851.939 -1.05079 -1.75555 0
M  V30 8826 H 851.949 -0.262378 -4.07155 0
M  V30 8827 H 850.624 -1.40403 -3.91484 0
M  V30 8828 H 849.201 0.415468 -3.70578 0
M  V30 8829 N 851.386 1.48609 -0.524698 0
M  V30 8830 C 852.296 2.33318 0.244923 0
M  V30 8831 C 853.312 1.46153 0.944214 0
M  V30 8832 O 854.488 1.79141 0.920347 0
M  V30 8833 C 851.553 3.22149 1.28144 0
M  V30 8834 C 850.614 4.25184 0.593068 0
M  V30 8835 C 849.847 5.0977 1.5802 0
M  V30 8836 O 850.07 4.96249 2.81235 0
M  V30 8837 O 849.004 5.9134 1.1225 0
M  V30 8838 H 852.83 3.00362 -0.449066 0
M  V30 8839 H 850.415 1.46643 -0.285689 0
M  V30 8840 H 852.297 3.77111 1.88057 0
M  V30 8841 H 850.972 2.57772 1.95793 0
M  V30 8842 H 849.879 3.74071 -0.0464214 0
M  V30 8843 H 851.212 4.92183 -0.0413893 0
M  V30 8844 N 852.864 0.259585 1.55447 0
M  V30 8845 C 854.112 -0.360893 1.98852 0
M  V30 8846 C 854.433 -1.57535 1.14924 0
M  V30 8847 O 853.703 -1.94485 0.235025 0
M  V30 8848 H 852.283 -0.136332 0.734454 0
M  V30 8849 H 854.945 0.361319 1.91522 0
M  V30 8850 H 854.041 -0.661388 3.05012 0
M  V30 8851 N 854.342 -1.57594 -0.0133615 0
M  V30 8852 C 855.753 -1.78168 -0.557937 0
M  V30 8853 C 856.104 -0.892616 -1.74719 0
M  V30 8854 O 855.229 -0.0915491 -2.16206 0
M  V30 8855 C 855.824 -3.23115 -1.01894 0
M  V30 8856 C 854.383 -3.44831 -1.50892 0
M  V30 8857 C 853.53 -2.73558 -0.454044 0
M  V30 8858 H 856.481 -1.57266 0.212843 0
M  V30 8859 H 856.502 -3.30493 -1.8856 0
M  V30 8860 H 856.014 -3.87798 -0.153175 0
M  V30 8861 H 854.115 -2.85345 -2.39602 0
M  V30 8862 H 854.228 -4.53485 -1.54559 0
M  V30 8863 H 852.592 -2.37787 -0.912666 0
M  V30 8864 H 853.375 -3.40932 0.402524 0
M  V30 8865 N 855.82 0.285905 -1.54985 0
M  V30 8866 C 857.069 1.01691 -1.74189 0
M  V30 8867 C 857.382 1.87908 -0.543135 0
M  V30 8868 O 858.588 2.64389 -0.617305 0
M  V30 8869 C 857.044 1.85785 -3.0824 0
M  V30 8870 C 856.652 1.04497 -4.35642 0
M  V30 8871 C 858.396 2.58393 -3.36798 0
M  V30 8872 C 856.303 1.87955 -5.60738 0
M  V30 8873 H 855.233 0.383396 -0.649248 0
M  V30 8874 H 857.884 0.27317 -1.81455 0
M  V30 8875 H 856.266 2.64205 -2.94978 0
M  V30 8876 H 857.44 0.305847 -4.59784 0
M  V30 8877 H 855.755 0.434023 -4.14132 0
M  V30 8878 H 858.352 3.21214 -4.27464 0
M  V30 8879 H 858.695 3.28011 -2.56349 0
M  V30 8880 H 859.228 1.87012 -3.511 0
M  V30 8881 H 855.967 1.22781 -6.43898 0
M  V30 8882 H 855.487 2.59499 -5.40759 0
M  V30 8883 H 857.166 2.45636 -5.98558 0
M  V30 8884 N 857.298 1.47698 0.54982 0
M  V30 8885 C 858.544 1.54931 1.30859 0
M  V30 8886 C 858.877 0.214021 1.93017 0
M  V30 8887 O 858.152 -0.778093 1.78258 0
M  V30 8888 C 858.435 2.67286 2.41309 0
M  V30 8889 C 858.288 4.10457 1.83971 0
M  V30 8890 C 859.607 2.75509 3.43195 0
M  V30 8891 H 856.726 0.56399 0.474431 0
M  V30 8892 H 859.368 1.79787 0.614541 0
M  V30 8893 H 857.518 2.46224 3.0051 0
M  V30 8894 H 859.19 4.42903 1.28974 0
M  V30 8895 H 857.433 4.18387 1.14606 0
M  V30 8896 H 858.104 4.84857 2.63851 0
M  V30 8897 H 860.58 2.94531 2.93923 0
M  V30 8898 H 859.456 3.55886 4.17895 0
M  V30 8899 H 859.717 1.82863 4.02509 0
M  V30 8900 N 858.776 -0.797141 1.35954 0
M  V30 8901 C 860.022 -1.55698 1.29946 0
M  V30 8902 C 860.355 -1.93808 -0.123259 0
M  V30 8903 O 859.63 -1.62102 -1.07486 0
M  V30 8904 C 859.913 -2.83926 2.2149 0
M  V30 8905 C 859.766 -2.52232 3.72423 0
M  V30 8906 C 861.085 -3.85698 2.11955 0
M  V30 8907 H 858.204 -0.56488 0.47337 0
M  V30 8908 H 860.846 -0.916421 1.66438 0
M  V30 8909 H 858.996 -3.38588 1.905 0
M  V30 8910 H 860.668 -2.0368 4.13899 0
M  V30 8911 H 858.911 -1.85286 3.92239 0
M  V30 8912 H 859.582 -3.43782 4.31877 0
M  V30 8913 H 862.058 -3.40462 2.39218 0
M  V30 8914 H 860.934 -4.73182 2.78191 0
M  V30 8915 H 861.195 -4.28083 1.10442 0
M  V30 8916 N 860.254 -1.20106 -1.0204 0
M  V30 8917 C 861.217 -0.948261 -2.08664 0
M  V30 8918 C 862.217 0.0746753 -1.60627 0
M  V30 8919 O 863.407 -0.160981 -1.73455 0
M  V30 8920 C 860.539 -0.426854 -3.38217 0
M  V30 8921 H 861.732 -1.894 -2.32524 0
M  V30 8922 H 859.285 -1.0159 -1.18782 0
M  V30 8923 H 860.02 0.524532 -3.2003 0
M  V30 8924 H 859.805 -1.16451 -3.74408 0
M  V30 8925 H 861.295 -0.269346 -4.1673 0
M  V30 8926 N 861.732 1.21287 -1.00634 0
M  V30 8927 C 862.695 2.21927 -0.572821 0
M  V30 8928 C 863.695 1.5691 0.351541 0
M  V30 8929 O 864.885 1.73623 0.141643 0
M  V30 8930 C 862.017 3.40501 0.164932 0
M  V30 8931 H 863.21 2.61795 -1.463 0
M  V30 8932 H 860.763 1.34571 -0.794998 0
M  V30 8933 H 861.498 3.06123 1.07049 0
M  V30 8934 H 861.283 3.88912 -0.498962 0
M  V30 8935 H 862.773 4.15103 0.455945 0
M  V30 8936 N 863.21 0.781244 1.36873 0
M  V30 8937 C 864.173 0.180094 2.28491 0
M  V30 8938 C 865.173 -0.617798 1.48458 0
M  V30 8939 O 866.363 -0.439991 1.68552 0
M  V30 8940 C 863.495 -0.751741 3.32508 0
M  V30 8941 H 864.688 0.987837 2.83164 0
M  V30 8942 H 862.241 0.550102 1.463 0
M  V30 8943 H 862.976 -1.58413 2.82977 0
M  V30 8944 H 862.761 -0.181649 3.91679 0
M  V30 8945 H 864.251 -1.16748 4.00949 0
M  V30 8946 N 864.689 -1.48329 0.532571 0
M  V30 8947 C 865.636 -2.29663 -0.228779 0
M  V30 8948 C 866.606 -1.37529 -0.931401 0
M  V30 8949 O 867.791 -1.66493 -0.931921 0
M  V30 8950 C 864.931 -3.20955 -1.26814 0
M  V30 8951 C 864.044 -4.28168 -0.574099 0
M  V30 8952 C 863.179 -5.06638 -1.59661 0
M  V30 8953 C 862.218 -6.05651 -0.88618 0
M  V30 8954 N 861.355 -6.77169 -1.85436 0
M  V30 8955 H 866.195 -2.94255 0.47098 0
M  V30 8956 H 863.732 -1.45061 0.2441 0
M  V30 8957 H 865.69 -3.72285 -1.88307 0
M  V30 8958 H 864.32 -2.58281 -1.93625 0
M  V30 8959 H 863.372 -3.80085 0.154827 0
M  V30 8960 H 864.684 -4.98797 -0.0163984 0
M  V30 8961 H 863.838 -5.61995 -2.28576 0
M  V30 8962 H 862.577 -4.35854 -2.18821 0
M  V30 8963 H 861.582 -5.49495 -0.182981 0
M  V30 8964 H 862.807 -6.78434 -0.300659 0
M  V30 8965 H 860.753 -6.09134 -2.43499 0
M  V30 8966 H 860.67 -7.43882 -1.34816 0
M  V30 8967 H 861.938 -7.37114 -2.53541 0
M  V30 8968 N 866.167 -0.267825 -1.55308 0
M  V30 8969 C 867.413 0.351556 -1.9973 0
M  V30 8970 C 867.746 1.56049 -1.15596 0
M  V30 8971 O 867.021 1.93203 -0.224274 0
M  V30 8972 C 867.304 0.74091 -3.52395 0
M  V30 8973 C 867.157 -0.474861 -4.47286 0
M  V30 8974 C 868.476 1.5801 -4.10756 0
M  V30 8975 H 865.595 0.126308 -0.726096 0
M  V30 8976 H 868.237 -0.373316 -1.86296 0
M  V30 8977 H 866.387 1.35851 -3.63973 0
M  V30 8978 H 868.059 -1.1134 -4.47662 0
M  V30 8979 H 866.302 -1.11425 -4.19246 0
M  V30 8980 H 866.973 -0.158782 -5.51772 0
M  V30 8981 H 869.449 1.05857 -4.0241 0
M  V30 8982 H 868.325 1.82135 -5.17801 0
M  V30 8983 H 868.586 2.55878 -3.60526 0
M  V30 8984 N 867.645 1.57599 0.00500368 0
M  V30 8985 C 868.893 1.89973 0.68953 0
M  V30 8986 C 869.214 0.868531 1.7459 0
M  V30 8987 O 868.484 -0.0947367 1.95671 0
M  V30 8988 H 867.064 0.701153 0.25767 0
M  V30 8989 H 869.726 1.94869 -0.0347392 0
M  V30 8990 H 868.822 2.89584 1.16394 0
M  V30 8991 N 869.123 -0.277682 1.55134 0
M  V30 8992 C 870.353 -1.02677 1.79279 0
M  V30 8993 C 870.761 -1.80599 0.563962 0
M  V30 8994 O 870.104 -1.77416 -0.476378 0
M  V30 8995 C 870.166 -2.03617 2.96277 0
M  V30 8996 C 869.83 -1.44676 4.33495 0
M  V30 8997 C 870.827 -0.864811 5.12657 0
M  V30 8998 C 868.512 -1.47537 4.80144 0
M  V30 8999 C 870.506 -0.319322 6.366 0
M  V30 9000 C 868.193 -0.926016 6.04043 0
M  V30 9001 C 869.191 -0.348988 6.82108 0
M  V30 9002 O 868.879 0.191964 8.03671 0
M  V30 9003 H 868.611 -0.309232 0.601125 0
M  V30 9004 H 871.165 -0.315308 2.02965 0
M  V30 9005 H 869.395 -2.78509 2.68272 0
M  V30 9006 H 871.084 -2.64616 3.07788 0
M  V30 9007 H 871.85 -0.835438 4.7775 0
M  V30 9008 H 867.729 -1.91389 4.19394 0
M  V30 9009 H 871.273 0.131709 6.97476 0
M  V30 9010 H 867.17 -0.952613 6.38432 0
M  V30 9011 H 867.938 0.0808779 8.1846 0
M  V30 9012 N 870.601 -1.47988 -0.541979 0
M  V30 9013 C 871.826 -1.59286 -1.32826 0
M  V30 9014 C 872.251 -0.24894 -1.86445 0
M  V30 9015 O 871.609 0.777581 -1.63778 0
M  V30 9016 C 871.657 -2.6334 -2.46343 0
M  V30 9017 O 870.761 -2.19667 -3.49028 0
M  V30 9018 H 870.102 -0.534543 -0.393903 0
M  V30 9019 H 872.632 -1.93885 -0.653427 0
M  V30 9020 H 872.642 -2.84238 -2.92699 0
M  V30 9021 H 871.317 -3.60913 -2.06675 0
M  V30 9022 H 869.894 -2.08932 -3.08872 0
M  V30 9023 N 872.079 0.78992 -1.36375 0
M  V30 9024 C 873.326 1.54777 -1.30576 0
M  V30 9025 C 873.654 1.94159 0.115095 0
M  V30 9026 O 872.909 1.62918 1.08426 0
M  V30 9027 C 873.208 2.83698 -2.17371 0
M  V30 9028 C 872.874 2.63457 -3.65925 0
M  V30 9029 C 871.536 2.57645 -4.06415 0
M  V30 9030 C 873.888 2.44833 -4.60115 0
M  V30 9031 C 871.216 2.31174 -5.39236 0
M  V30 9032 C 873.568 2.19889 -5.93154 0
M  V30 9033 C 872.232 2.1251 -6.32768 0
M  V30 9034 H 871.502 0.566371 -0.477813 0
M  V30 9035 H 874.149 0.91138 -1.68422 0
M  V30 9036 H 872.454 3.51802 -1.72459 0
M  V30 9037 H 874.151 3.41487 -2.10209 0
M  V30 9038 H 870.741 2.68836 -3.33804 0
M  V30 9039 H 874.925 2.48325 -4.29707 0
M  V30 9040 H 870.181 2.23942 -5.68911 0
M  V30 9041 H 874.355 2.04473 -6.65705 0
M  V30 9042 H 871.982 1.91761 -7.35616 0
M  V30 9043 N 873.557 1.20646 1.01402 0
M  V30 9044 C 874.806 1.01242 1.7445 0
M  V30 9045 C 875.119 -0.455732 1.90217 0
M  V30 9046 O 876.325 -0.768951 2.60383 0
M  V30 9047 C 874.781 1.76275 3.13776 0
M  V30 9048 C 874.389 3.27201 3.06013 0
M  V30 9049 C 876.133 1.65248 3.91016 0
M  V30 9050 C 874.04 3.9476 4.40362 0
M  V30 9051 H 872.97 0.375202 0.654018 0
M  V30 9052 H 875.621 1.44292 1.13367 0
M  V30 9053 H 874.003 1.26013 3.75415 0
M  V30 9054 H 875.177 3.84695 2.53665 0
M  V30 9055 H 873.492 3.38669 2.42265 0
M  V30 9056 H 876.089 2.13061 4.90417 0
M  V30 9057 H 876.432 0.609128 4.1182 0
M  V30 9058 H 876.965 2.12937 3.3601 0
M  V30 9059 H 873.704 4.99258 4.24761 0
M  V30 9060 H 873.224 3.42054 4.92706 0
M  V30 9061 H 874.903 3.99159 5.09196 0
M  V30 9062 N 875.035 -1.20752 1.01276 0
M  V30 9063 C 875.983 -2.25432 0.572989 0
M  V30 9064 C 876.977 -1.64935 -0.386354 0
M  V30 9065 O 878.183 -1.7816 -0.256696 0
M  V30 9066 H 874.558 -0.733229 0.166972 0
M  V30 9067 H 876.529 -2.59856 1.46687 0
M  V30 9068 C 875.278 -3.47615 -0.0768249 0
M  V30 9069 H 874.601 -3.94442 0.652354 0
M  V30 9070 H 876.041 -4.22572 -0.3477 0
M  V30 9071 C 874.5 -3.1003 -1.31845 0
M  V30 9072 O 875.03 -3.21216 -2.41211 0
M  V30 9073 N 873.236 -2.64616 -1.20111 0
M  V30 9074 H 872.783 -2.55714 -0.311184 0
M  V30 9075 H 872.741 -2.39838 -2.03286 0
M  V30 9076 N 876.513 -0.788492 -1.36457 0
M  V30 9077 C 877.461 -0.174192 -2.31947 0
M  V30 9078 C 878.455 0.665974 -1.5576 0
M  V30 9079 O 879.661 0.561161 -1.71029 0
M  V30 9080 H 876.036 -0.0375538 -0.751062 0
M  V30 9081 H 878.007 -0.995011 -2.81322 0
M  V30 9082 C 876.756 0.677276 -3.4104 0
M  V30 9083 H 876.079 0.0401418 -3.9978 0
M  V30 9084 H 877.519 1.07379 -4.10178 0
M  V30 9085 C 875.978 1.83512 -2.82533 0
M  V30 9086 O 876.508 2.93164 -2.74623 0
M  V30 9087 N 874.714 1.64095 -2.39836 0
M  V30 9088 H 874.261 0.749046 -2.46469 0
M  V30 9089 H 874.219 2.41726 -2.01037 0
M  V30 9090 N 877.991 1.48044 -0.54043 0
M  V30 9091 C 879.402 1.86418 -0.102662 0
M  V30 9092 C 879.753 1.4489 1.32293 0
M  V30 9093 O 878.878 0.844319 1.99249 0
M  V30 9094 C 879.473 3.38324 -0.179533 0
M  V30 9095 C 878.032 3.75852 0.203098 0
M  V30 9096 C 877.179 2.72097 -0.534637 0
M  V30 9097 H 880.13 1.398 -0.751103 0
M  V30 9098 H 880.151 3.75641 0.606147 0
M  V30 9099 H 879.663 3.68518 -1.21721 0
M  V30 9100 H 877.764 3.51272 1.24252 0
M  V30 9101 H 877.877 4.78884 -0.143784 0
M  V30 9102 H 876.241 2.54692 0.0203358 0
M  V30 9103 H 877.024 3.05135 -1.57314 0
M  V30 9104 N 879.47 0.276058 1.55163 0
M  V30 9105 C 880.418 -0.626978 2.2399 0
M  V30 9106 C 881.412 -1.15708 1.23725 0
M  V30 9107 O 882.618 -1.1106 1.41653 0
M  V30 9108 H 878.993 -0.220742 0.718872 0
M  V30 9109 H 880.964 -0.0236569 2.98391 0
M  V30 9110 C 879.713 -1.79935 2.97521 0
M  V30 9111 H 879.036 -1.40064 3.74463 0
M  V30 9112 H 880.476 -2.40781 3.48999 0
M  V30 9113 C 878.935 -2.68838 2.03046 0
M  V30 9114 O 879.465 -3.69224 1.58229 0
M  V30 9115 N 877.671 -2.36028 1.69527 0
M  V30 9116 H 877.218 -1.54442 2.06169 0
M  V30 9117 H 877.176 -2.95782 1.06586 0
M  V30 9118 N 880.948 -1.576 0.00335426 0
M  V30 9119 C 881.898 -2.05116 -0.995562 0
M  V30 9120 C 882.882 -0.946535 -1.30113 0
M  V30 9121 O 884.074 -1.21028 -1.29156 0
M  V30 9122 C 881.203 -2.56077 -2.28648 0
M  V30 9123 C 880.289 -3.73422 -2.0104 0
M  V30 9124 N 880.68 -4.84986 -1.43603 0
M  V30 9125 C 878.978 -3.81416 -2.31166 0
M  V30 9126 C 879.679 -5.66399 -1.32542 0
M  V30 9127 N 878.655 -5.12505 -1.81218 0
M  V30 9128 H 882.457 -2.88783 -0.546025 0
M  V30 9129 H 879.971 -1.61135 -0.202265 0
M  V30 9130 H 881.968 -2.88395 -3.01055 0
M  V30 9131 H 880.628 -1.73829 -2.74251 0
M  V30 9132 H 881.639 -5.05768 -1.11439 0
M  V30 9133 H 878.316 -3.1003 -2.7962 0
M  V30 9134 H 879.706 -6.66066 -0.88348 0
M  V30 9135 N 882.426 0.269451 -1.5528 0
M  V30 9136 C 883.373 1.33316 -1.88403 0
M  V30 9137 C 884.343 1.48909 -0.735881 0
M  V30 9138 O 885.528 1.63259 -0.987479 0
M  V30 9139 C 882.668 2.68778 -2.16454 0
M  V30 9140 C 881.781 2.61377 -3.43956 0
M  V30 9141 C 880.916 3.89042 -3.6169 0
M  V30 9142 C 879.955 3.76166 -4.82872 0
M  V30 9143 N 879.092 4.95673 -4.97245 0
M  V30 9144 H 883.932 1.04368 -2.79126 0
M  V30 9145 H 881.469 0.504147 -1.38191 0
M  V30 9146 H 883.427 3.47599 -2.30719 0
M  V30 9147 H 882.057 2.9592 -1.28961 0
M  V30 9148 H 881.109 1.74247 -3.38145 0
M  V30 9149 H 882.421 2.47764 -4.32914 0
M  V30 9150 H 881.575 4.76304 -3.75791 0
M  V30 9151 H 880.314 4.05526 -2.70924 0
M  V30 9152 H 879.319 2.87287 -4.68771 0
M  V30 9153 H 880.544 3.61198 -5.75077 0
M  V30 9154 H 878.49 5.12561 -4.09411 0
M  V30 9155 H 878.407 4.84605 -5.80254 0
M  V30 9156 H 879.675 5.84498 -5.15735 0
M  V30 9157 N 883.904 1.48273 0.534124 0
M  V30 9158 C 885.129 1.59988 1.31979 0
M  V30 9159 C 885.554 0.258824 1.86311 0
M  V30 9160 O 884.912 -0.768885 1.64188 0
M  V30 9161 C 884.96 2.64642 2.44943 0
M  V30 9162 O 884.064 2.21515 3.47858 0
M  V30 9163 H 883.405 0.536625 0.391063 0
M  V30 9164 H 885.935 1.94229 0.643135 0
M  V30 9165 H 885.945 2.85786 2.91187 0
M  V30 9166 H 884.62 3.62004 2.04758 0
M  V30 9167 H 883.197 2.10567 3.0776 0
M  V30 9168 N 885.382 -0.782676 1.36792 0
M  V30 9169 C 886.612 -1.56934 1.3437 0
M  V30 9170 C 887.02 -1.89049 -0.0754828 0
M  V30 9171 O 886.363 -1.51103 -1.04467 0
M  V30 9172 C 886.425 -2.91311 2.10661 0
M  V30 9173 C 886.089 -2.81889 3.59705 0
M  V30 9174 C 887.086 -2.53668 4.53815 0
M  V30 9175 C 884.771 -3.00254 4.02682 0
M  V30 9176 C 886.765 -2.43925 5.8888 0
M  V30 9177 C 884.452 -2.90132 5.37835 0
M  V30 9178 C 885.45 -2.62006 6.30747 0
M  V30 9179 O 885.138 -2.5189 7.63418 0
M  V30 9180 H 884.87 -0.493194 0.462316 0
M  V30 9181 H 887.424 -0.978791 1.80579 0
M  V30 9182 H 885.654 -3.52443 1.59125 0
M  V30 9183 H 887.343 -3.52632 2.01012 0
M  V30 9184 H 888.109 -2.39176 4.21924 0
M  V30 9185 H 883.988 -3.21151 3.30731 0
M  V30 9186 H 887.532 -2.21892 6.6137 0
M  V30 9187 H 883.429 -3.04189 5.69332 0
M  V30 9188 H 884.197 -2.67321 7.73616 0
M  V30 9189 N 886.86 -1.21182 -1.00761 0
M  V30 9190 C 887.79 -0.992773 -2.11344 0
M  V30 9191 C 888.771 0.0813618 -1.69905 0
M  V30 9192 O 889.956 -0.0779503 -1.94043 0
M  V30 9193 C 887.086 -0.553826 -3.42856 0
M  V30 9194 C 886.04 -1.57223 -3.98077 0
M  V30 9195 C 885.366 -0.989605 -5.25463 0
M  V30 9196 C 886.666 -2.95839 -4.30438 0
M  V30 9197 H 888.36 -1.91766 -2.29927 0
M  V30 9198 H 885.906 -0.923426 -1.10494 0
M  V30 9199 H 887.859 -0.387771 -4.19612 0
M  V30 9200 H 886.583 0.406702 -3.24058 0
M  V30 9201 H 885.242 -1.7258 -3.23437 0
M  V30 9202 H 884.89 -0.0208743 -5.02996 0
M  V30 9203 H 884.59 -1.66984 -5.63374 0
M  V30 9204 H 886.114 -0.834815 -6.04866 0
M  V30 9205 H 887.528 -2.8394 -4.98047 0
M  V30 9206 H 885.925 -3.60851 -4.79486 0
M  V30 9207 H 886.995 -3.46882 -3.38823 0
M  V30 9208 N 888.338 1.20213 -1.01915 0
M  V30 9209 C 889.615 1.85348 -0.62495 0
M  V30 9210 C 889.995 1.91101 0.896854 0
M  V30 9211 O 889.343 1.42075 1.78961 0
M  V30 9212 C 889.553 3.24849 -1.27571 0
M  V30 9213 C 890.901 4.01107 -1.39277 0
M  V30 9214 O 891.925 3.34211 -1.23212 0
M  V30 9215 O 890.784 5.20914 -1.6526 0
M  V30 9216 H 887.878 0.798303 -0.215965 0
M  V30 9217 H 890.424 1.27782 -1.11669 0
M  V30 9218 H 889.196 3.1544 -2.31545 0
M  V30 9219 H 888.819 3.90049 -0.77122 0
M  V30 9220 N 889.816 0.795718 1.36037 0
M  V30 9221 C 890.764 0.18649 2.31851 0
M  V30 9222 C 891.758 -0.657704 1.56111 0
M  V30 9223 O 892.964 -0.552083 1.71324 0
M  V30 9224 H 889.339 0.0415363 0.750852 0
M  V30 9225 H 891.31 1.00992 2.8079 0
M  V30 9226 C 890.059 -0.65918 3.41394 0
M  V30 9227 H 889.382 -0.01894 3.99796 0
M  V30 9228 H 890.822 -1.05202 4.10741 0
M  V30 9229 C 889.281 -1.82011 2.83502 0
M  V30 9230 O 889.811 -2.91703 2.76174 0
M  V30 9231 N 888.017 -1.62821 2.40703 0
M  V30 9232 H 887.564 -0.735965 2.46863 0
M  V30 9233 H 887.522 -2.40657 2.02316 0
M  V30 9234 N 891.294 -1.47756 0.548274 0
M  V30 9235 C 892.541 -2.02489 0.0208955 0
M  V30 9236 C 892.869 -1.42356 -1.32533 0
M  V30 9237 O 892.124 -0.565448 -1.87353 0
M  V30 9238 C 892.423 -3.5716 -0.131069 0
M  V30 9239 C 892.089 -4.36169 1.14313 0
M  V30 9240 C 890.751 -4.57476 1.4923 0
M  V30 9241 C 893.103 -4.81801 1.9879 0
M  V30 9242 C 890.431 -5.21662 2.68487 0
M  V30 9243 C 892.783 -5.47303 3.17242 0
M  V30 9244 C 891.447 -5.66844 3.52483 0
M  V30 9245 H 890.717 -0.740961 0.00764621 0
M  V30 9246 H 893.364 -1.77531 0.717987 0
M  V30 9247 H 891.669 -3.8106 -0.911063 0
M  V30 9248 H 893.366 -3.9715 -0.55433 0
M  V30 9249 H 889.956 -4.19858 0.861235 0
M  V30 9250 H 894.14 -4.65126 1.73123 0
M  V30 9251 H 889.396 -5.34987 2.95971 0
M  V30 9252 H 893.57 -5.81626 3.82994 0
M  V30 9253 H 891.197 -6.16352 4.44988 0
M  V30 9254 N 892.772 -0.284283 -1.55015 0
M  V30 9255 C 893.704 0.63258 -2.20298 0
M  V30 9256 C 894.717 1.11045 -1.1905 0
M  V30 9257 O 895.906 1.03078 -1.4573 0
M  V30 9258 C 893.006 1.87599 -2.82241 0
M  V30 9259 C 892.179 1.5434 -4.09265 0
M  V30 9260 C 891.238 2.64023 -4.55169 0
M  V30 9261 O 890.264 2.29821 -5.20741 0
M  V30 9262 N 891.466 3.94255 -4.26079 0
M  V30 9263 H 894.231 0.0737928 -2.99609 0
M  V30 9264 H 891.792 -0.105767 -1.61554 0
M  V30 9265 H 893.784 2.60289 -3.0989 0
M  V30 9266 H 892.354 2.3436 -2.06868 0
M  V30 9267 H 891.574 0.649912 -3.88806 0
M  V30 9268 H 892.862 1.29634 -4.92009 0
M  V30 9269 H 892.26 4.24859 -3.73512 0
M  V30 9270 H 890.817 4.63295 -4.58477 0
M  V30 9271 N 894.251 1.57596 -0.0117121 0
M  V30 9272 C 895.667 1.55837 0.344506 0
M  V30 9273 C 895.867 1.01557 1.74036 0
M  V30 9274 O 894.923 0.654563 2.43868 0
M  V30 9275 C 896.236 2.99973 0.209023 0
M  V30 9276 C 897.784 3.11717 0.283092 0
M  V30 9277 C 898.259 4.57659 0.176599 0
M  V30 9278 N 899.75 4.62608 0.234133 0
M  V30 9279 C 900.485 5.73132 0.175252 0
M  V30 9280 N 899.981 6.92768 0.0662888 0
M  V30 9281 N 901.774 5.61638 0.227972 0
M  V30 9282 H 893.925 1.91215 -0.924692 0
M  V30 9283 H 896.188 0.878807 -0.355531 0
M  V30 9284 H 895.894 3.4357 -0.751826 0
M  V30 9285 H 895.768 3.64075 0.98635 0
M  V30 9286 H 898.155 2.68043 1.23439 0
M  V30 9287 H 898.236 2.50369 -0.52431 0
M  V30 9288 H 897.88 5.02011 -0.771205 0
M  V30 9289 H 897.81 5.16967 1.00264 0
M  V30 9290 H 900.301 3.76549 0.319203 0
M  V30 9291 H 900.614 7.72795 0.0275765 0
M  V30 9292 H 898.959 6.94993 0.0317502 0
M  V30 9293 H 902.15 4.67063 0.311377 0
M  V30 9294 H 902.323 6.47754 0.178621 0
M  V30 9295 N 895.729 -0.261212 1.5542 0
M  V30 9296 C 896.659 -1.32712 1.92119 0
M  V30 9297 C 897.64 -1.50934 0.784406 0
M  V30 9298 O 898.825 -1.63781 1.04352 0
M  V30 9299 C 895.955 -2.68453 2.20341 0
M  V30 9300 C 894.909 -2.64947 3.36136 0
M  V30 9301 C 894.235 -4.04349 3.49865 0
M  V30 9302 C 895.535 -2.23182 4.72215 0
M  V30 9303 H 897.229 -1.02245 2.81401 0
M  V30 9304 H 894.775 -0.490406 1.35392 0
M  V30 9305 H 896.728 -3.43144 2.44603 0
M  V30 9306 H 895.452 -3.00527 1.27871 0
M  V30 9307 H 894.111 -1.92714 3.11861 0
M  V30 9308 H 893.759 -4.33665 2.5484 0
M  V30 9309 H 893.459 -4.02895 4.27726 0
M  V30 9310 H 894.983 -4.80761 3.76432 0
M  V30 9311 H 896.397 -2.87599 4.95943 0
M  V30 9312 H 894.794 -2.32867 5.53076 0
M  V30 9313 H 895.864 -1.18327 4.70241 0
M  V30 9314 N 897.207 -1.48554 -0.526253 0
M  V30 9315 C 898.484 -1.47252 -1.28748 0
M  V30 9316 C 898.864 -0.186245 -2.10277 0
M  V30 9317 O 898.212 0.831954 -2.12816 0
M  V30 9318 C 898.422 -2.73672 -2.16575 0
M  V30 9319 C 899.77 -3.22151 -2.76593 0
M  V30 9320 O 900.794 -2.74614 -2.2686 0
M  V30 9321 O 899.653 -4.04877 -3.67066 0
M  V30 9322 H 896.747 -0.588242 -0.581292 0
M  V30 9323 H 899.293 -1.60792 -0.5426 0
M  V30 9324 H 898.065 -3.58798 -1.56139 0
M  V30 9325 H 897.688 -2.6287 -2.98304 0
M  V30 9326 N 898.685 0.775411 -1.37205 0
M  V30 9327 C 899.962 1.5229 -1.22748 0
M  V30 9328 C 900.342 2.10327 0.180487 0
M  V30 9329 O 899.69 1.95206 1.18772 0
M  V30 9330 C 899.9 2.60671 -2.3206 0
M  V30 9331 C 901.248 3.28173 -2.6942 0
M  V30 9332 O 902.272 2.70963 -2.31208 0
M  V30 9333 O 901.131 4.31598 -3.3524 0
M  V30 9334 H 898.225 0.674326 -0.478762 0
M  V30 9335 H 900.771 0.812691 -1.48975 0
M  V30 9336 H 899.543 2.1588 -3.26361 0
M  V30 9337 H 899.166 3.39296 -2.07277 0
M  V30 9338 N 900.163 1.21714 1.00117 0
M  V30 9339 C 901.093 1.00397 2.10815 0
M  V30 9340 C 902.074 -0.0723502 1.69946 0
M  V30 9341 O 903.259 0.0882398 1.93999 0
M  V30 9342 C 900.389 0.572001 3.42557 0
M  V30 9343 C 899.343 1.59331 3.97237 0
M  V30 9344 C 898.669 1.01746 5.2493 0
M  V30 9345 C 899.969 2.98117 4.28863 0
M  V30 9346 H 901.663 1.92983 2.28906 0
M  V30 9347 H 899.209 0.929273 1.10002 0
M  V30 9348 H 901.162 0.410018 4.19401 0
M  V30 9349 H 899.886 -0.38951 3.24269 0
M  V30 9350 H 898.545 1.74293 3.22518 0
M  V30 9351 H 898.193 0.0475491 5.02978 0
M  V30 9352 H 897.893 1.69969 5.62481 0
M  V30 9353 H 899.417 0.866881 6.04415 0
M  V30 9354 H 900.831 2.86578 4.96534 0
M  V30 9355 H 899.228 3.63389 4.77565 0
M  V30 9356 H 900.298 3.48674 3.36979 0
M  V30 9357 N 901.641 -1.19671 1.02551 0
M  V30 9358 C 902.551 -2.26441 0.613329 0
M  V30 9359 C 903.567 -1.70375 -0.353339 0
M  V30 9360 O 904.743 -2.0028 -0.212064 0
M  V30 9361 C 901.808 -3.46684 -0.0329028 0
M  V30 9362 C 900.869 -4.17945 0.980837 0
M  V30 9363 C 900.102 -5.32448 0.36535 0
M  V30 9364 O 900.325 -5.64291 -0.832596 0
M  V30 9365 O 899.259 -5.92012 1.08652 0
M  V30 9366 H 903.085 -2.63932 1.50246 0
M  V30 9367 H 900.67 -1.2646 0.795502 0
M  V30 9368 H 902.552 -4.1956 -0.393395 0
M  V30 9369 H 901.227 -3.1105 -0.896089 0
M  V30 9370 H 900.134 -3.47204 1.39286 0
M  V30 9371 H 901.467 -4.57542 1.81428 0
M  V30 9372 N 903.119 -0.802921 -1.35613 0
M  V30 9373 C 904.365 -0.382141 -1.99167 0
M  V30 9374 C 904.698 1.04704 -1.63556 0
M  V30 9375 O 903.973 1.72578 -0.89706 0
M  V30 9376 C 904.256 -0.561493 -3.55695 0
M  V30 9377 C 904.109 -2.03534 -4.01116 0
M  V30 9378 C 905.428 0.0151135 -4.40097 0
M  V30 9379 H 902.547 -0.140322 -0.723518 0
M  V30 9380 H 905.189 -1.01177 -1.6082 0
M  V30 9381 H 903.339 -0.0255083 -3.88492 0
M  V30 9382 H 905.011 -2.63343 -3.78746 0
M  V30 9383 H 903.254 -2.5331 -3.52159 0
M  V30 9384 H 903.925 -2.11173 -5.1001 0
M  V30 9385 H 906.401 -0.442582 -4.1374 0
M  V30 9386 H 905.277 -0.140316 -5.48721 0
M  V30 9387 H 905.538 1.10848 -4.27978 0
M  V30 9388 N 904.597 1.47463 -0.556102 0
M  V30 9389 C 905.825 2.06868 -0.0364585 0
M  V30 9390 C 906.24 1.40893 1.25677 0
M  V30 9391 O 905.597 0.505083 1.75371 0
M  V30 9392 C 905.648 3.61128 0.163984 0
M  V30 9393 O 905.369 4.24629 -1.07803 0
M  V30 9394 C 906.87 4.37397 0.721036 0
M  V30 9395 H 904.09 0.669466 -0.0453399 0
M  V30 9396 H 906.634 1.89482 -0.769198 0
M  V30 9397 H 904.789 3.78031 0.84685 0
M  V30 9398 H 905.203 5.17149 -0.875067 0
M  V30 9399 H 906.677 5.46016 0.810584 0
M  V30 9400 H 907.154 4.03604 1.73206 0
M  V30 9401 H 907.76 4.25236 0.073904 0
M  V30 9402 N 906.075 0.2925 1.54862 0
M  V30 9403 C 907.322 -0.319263 1.99967 0
M  V30 9404 C 907.65 -1.54547 1.18092 0
M  V30 9405 O 906.905 -1.94186 0.242969 0
M  V30 9406 C 907.204 -0.728674 3.49893 0
M  V30 9407 C 906.87 0.394836 4.49168 0
M  V30 9408 C 905.532 0.703289 4.76033 0
M  V30 9409 C 907.884 1.15103 5.08331 0
M  V30 9410 C 905.212 1.77121 5.59325 0
M  V30 9411 C 907.564 2.20881 5.92785 0
M  V30 9412 C 906.228 2.52342 6.17964 0
M  V30 9413 H 905.498 -0.116827 0.731733 0
M  V30 9414 H 908.145 0.40983 1.87063 0
M  V30 9415 H 906.45 -1.53772 3.60363 0
M  V30 9416 H 908.147 -1.21305 3.82212 0
M  V30 9417 H 904.737 0.144319 4.28357 0
M  V30 9418 H 908.921 0.92599 4.87585 0
M  V30 9419 H 904.177 2.01978 5.77074 0
M  V30 9420 H 908.351 2.79939 6.37657 0
M  V30 9421 H 905.978 3.35225 6.82296 0
M  V30 9422 N 907.553 -1.57587 0.0200696 0
M  V30 9423 C 908.501 -2.10814 -0.982868 0
M  V30 9424 C 909.495 -1.03263 -1.34287 0
M  V30 9425 O 910.701 -1.21708 -1.32617 0
M  V30 9426 H 907.076 -0.673409 -0.334701 0
M  V30 9427 H 909.047 -2.94034 -0.50856 0
M  V30 9428 C 907.796 -2.64301 -2.25921 0
M  V30 9429 H 907.119 -3.46703 -1.99091 0
M  V30 9430 H 908.559 -3.052 -2.94328 0
M  V30 9431 C 907.018 -1.56628 -2.98277 0
M  V30 9432 O 907.548 -0.960825 -3.9004 0
M  V30 9433 N 905.754 -1.28889 -2.60453 0
M  V30 9434 H 905.301 -1.7831 -1.85912 0
M  V30 9435 H 905.259 -0.570697 -3.09177 0
M  V30 9436 N 909.032 0.252966 -1.55557 0
M  V30 9437 C 910.257 1.0038 -1.8149 0
M  V30 9438 C 910.682 1.78397 -0.596318 0
M  V30 9439 O 910.04 1.7551 0.454535 0
M  V30 9440 C 910.088 1.9222 -3.05096 0
M  V30 9441 O 909.192 3.01302 -2.81587 0
M  V30 9442 H 908.533 0.285949 -0.599274 0
M  V30 9443 H 911.063 0.275795 -2.02733 0
M  V30 9444 H 911.073 2.338 -3.34368 0
M  V30 9445 H 909.748 1.34852 -3.93431 0
M  V30 9446 H 908.325 2.63894 -2.63466 0
M  V30 9447 N 910.51 1.48831 0.518367 0
M  V30 9448 C 911.735 1.61379 1.30275 0
M  V30 9449 C 912.16 0.278571 1.86026 0
M  V30 9450 O 911.518 -0.751427 1.64995 0
M  V30 9451 C 911.566 2.67225 2.42122 0
M  V30 9452 O 910.67 2.25192 3.45489 0
M  V30 9453 H 910.011 0.540742 0.385349 0
M  V30 9454 H 912.541 1.949 0.622498 0
M  V30 9455 H 912.551 2.88859 2.8814 0
M  V30 9456 H 911.226 3.64155 2.00907 0
M  V30 9457 H 909.803 2.13819 3.05509 0
M  V30 9458 N 911.988 -0.768124 1.37614 0
M  V30 9459 C 913.404 -1.06919 1.18493 0
M  V30 9460 C 913.604 -2.01486 0.0235753 0
M  V30 9461 O 912.66 -2.4438 -0.635209 0
M  V30 9462 C 913.973 -1.66321 2.50515 0
M  V30 9463 C 915.521 -1.78562 2.57069 0
M  V30 9464 C 915.996 -2.41377 3.89231 0
M  V30 9465 N 917.487 -2.48824 3.90693 0
M  V30 9466 C 918.222 -2.98288 4.89706 0
M  V30 9467 N 917.718 -3.47897 5.99115 0
M  V30 9468 N 919.511 -2.97196 4.77107 0
M  V30 9469 H 911.662 -0.140286 2.11936 0
M  V30 9470 H 913.925 -0.124863 0.939741 0
M  V30 9471 H 913.631 -1.04303 3.35878 0
M  V30 9472 H 913.505 -2.65571 2.67866 0
M  V30 9473 H 915.892 -2.39712 1.72111 0
M  V30 9474 H 915.973 -0.780574 2.43599 0
M  V30 9475 H 915.617 -1.80866 4.74605 0
M  V30 9476 H 915.547 -3.42495 4.00006 0
M  V30 9477 H 918.038 -2.1372 3.1166 0
M  V30 9478 H 918.351 -3.84053 6.70614 0
M  V30 9479 H 916.696 -3.45993 6.02755 0
M  V30 9480 H 919.887 -2.57741 3.90752 0
M  V30 9481 H 920.06 -3.35434 5.54426 0
M  V30 9482 N 913.466 -1.22244 -0.994698 0
M  V30 9483 C 914.413 -0.990906 -2.08446 0
M  V30 9484 C 915.383 0.086737 -1.65873 0
M  V30 9485 O 916.568 -0.0624882 -1.90698 0
M  V30 9486 C 913.708 -0.572813 -3.40313 0
M  V30 9487 C 912.821 -1.72103 -3.96238 0
M  V30 9488 C 911.956 -1.2511 -5.16257 0
M  V30 9489 C 910.995 -2.37098 -5.64315 0
M  V30 9490 N 910.132 -1.91164 -6.75574 0
M  V30 9491 H 914.972 -1.92377 -2.27585 0
M  V30 9492 H 912.509 -0.958576 -1.11578 0
M  V30 9493 H 914.467 -0.311594 -4.16035 0
M  V30 9494 H 913.097 0.323044 -3.21179 0
M  V30 9495 H 912.149 -2.09662 -3.17405 0
M  V30 9496 H 913.461 -2.56347 -4.27888 0
M  V30 9497 H 912.615 -0.947152 -5.99261 0
M  V30 9498 H 911.354 -0.378836 -4.86226 0
M  V30 9499 H 910.359 -2.68283 -4.799 0
M  V30 9500 H 911.584 -3.24837 -5.96371 0
M  V30 9501 H 909.53 -1.06298 -6.47331 0
M  V30 9502 H 909.447 -2.68975 -7.06533 0
M  V30 9503 H 910.715 -1.63833 -7.62088 0
M  V30 9504 N 914.944 1.19125 -1.03184 0
M  V30 9505 C 915.877 2.21229 -0.559739 0
M  V30 9506 C 916.855 1.57578 0.400998 0
M  V30 9507 O 918.039 1.85809 0.317399 0
M  V30 9508 C 915.166 3.38203 0.183442 0
M  V30 9509 C 914.212 4.2022 -0.729182 0
M  V30 9510 S 915.045 4.87903 -2.20706 0
M  V30 9511 C 916.201 6.08284 -1.47448 0
M  V30 9512 H 916.434 2.60932 -1.42484 0
M  V30 9513 H 913.967 1.29419 -0.842028 0
M  V30 9514 H 915.925 4.06001 0.606084 0
M  V30 9515 H 914.586 2.96929 1.02432 0
M  V30 9516 H 913.779 5.03761 -0.155272 0
M  V30 9517 H 913.381 3.57755 -1.09028 0
M  V30 9518 H 915.673 6.73193 -0.762687 0
M  V30 9519 H 916.616 6.70165 -2.28659 0
M  V30 9520 H 917.024 5.56092 -0.97068 0
M  V30 9521 N 916.422 0.810101 1.35185 0
M  V30 9522 C 917.369 0.220927 2.2974 0
M  V30 9523 C 918.339 -0.647024 1.5298 0
M  V30 9524 O 919.524 -0.591367 1.81404 0
M  V30 9525 C 916.664 -0.62167 3.39454 0
M  V30 9526 C 915.777 0.267104 4.31173 0
M  V30 9527 C 914.912 -0.583833 5.27982 0
M  V30 9528 C 913.951 0.305123 6.11339 0
M  V30 9529 N 913.088 -0.505992 7.00274 0
M  V30 9530 H 917.928 1.03266 2.79536 0
M  V30 9531 H 915.465 0.520768 1.37573 0
M  V30 9532 H 917.423 -1.12539 4.01735 0
M  V30 9533 H 916.053 -1.39863 2.90926 0
M  V30 9534 H 915.105 0.88895 3.69867 0
M  V30 9535 H 916.417 0.951182 4.89647 0
M  V30 9536 H 915.571 -1.15254 5.95652 0
M  V30 9537 H 914.31 -1.30146 4.70014 0
M  V30 9538 H 913.315 0.886075 5.42613 0
M  V30 9539 H 914.54 1.02067 6.71386 0
M  V30 9540 H 912.486 -1.20753 6.4479 0
M  V30 9541 H 912.403 0.119966 7.55905 0
M  V30 9542 H 913.671 -1.05787 7.72288 0
M  V30 9543 N 917.9 -1.47166 0.563914 0
M  V30 9544 C 919.149 -2.0166 0.0401871 0
M  V30 9545 C 919.462 -1.44303 -1.32046 0
M  V30 9546 O 920.668 -1.905 -1.93448 0
M  V30 9547 C 919.124 -3.59894 0.0213257 0
M  V30 9548 C 918.732 -4.26244 1.37914 0
M  V30 9549 C 920.476 -4.22114 -0.449442 0
M  V30 9550 C 918.383 -5.76503 1.31902 0
M  V30 9551 H 917.313 -0.753916 0.0112534 0
M  V30 9552 H 919.964 -1.69091 0.712766 0
M  V30 9553 H 918.346 -3.89454 -0.717038 0
M  V30 9554 H 919.52 -4.08317 2.13574 0
M  V30 9555 H 917.835 -3.76039 1.78839 0
M  V30 9556 H 920.432 -5.32234 -0.51292 0
M  V30 9557 H 920.775 -3.89749 -1.46291 0
M  V30 9558 H 921.308 -3.9711 0.23427 0
M  V30 9559 H 918.047 -6.13498 2.3087 0
M  V30 9560 H 917.567 -5.96748 0.604324 0
M  V30 9561 H 919.246 -6.38846 1.02392 0
M  V30 9562 N 919.378 -0.300708 -1.54705 0
M  V30 9563 C 920.606 0.31127 -2.04545 0
M  V30 9564 C 921.021 1.47542 -1.178 0
M  V30 9565 O 920.378 1.81361 -0.203571 0
M  V30 9566 C 920.429 0.767783 -3.53253 0
M  V30 9567 O 920.15 -0.350027 -4.36699 0
M  V30 9568 C 921.651 1.44494 -4.1909 0
M  V30 9569 H 918.871 0.067668 -0.667579 0
M  V30 9570 H 921.415 -0.440254 -1.99705 0
M  V30 9571 H 919.57 1.46933 -3.58454 0
M  V30 9572 H 919.984 0.00534038 -5.245 0
M  V30 9573 H 921.458 1.71553 -5.24665 0
M  V30 9574 H 921.935 2.3849 -3.68808 0
M  V30 9575 H 922.541 0.786581 -4.17963 0
M  V30 9576 N 920.856 1.57574 -0.0284266 0
M  V30 9577 C 922.103 1.91772 0.650364 0
M  V30 9578 C 922.431 0.904769 1.72175 0
M  V30 9579 O 921.686 -0.0864038 1.95509 0
M  V30 9580 C 921.985 3.32699 1.3056 0
M  V30 9581 C 921.651 4.49423 0.364658 0
M  V30 9582 C 920.313 4.81084 0.105672 0
M  V30 9583 C 922.665 5.20439 -0.28151 0
M  V30 9584 C 919.993 5.81119 -0.8073 0
M  V30 9585 C 922.345 6.21449 -1.18253 0
M  V30 9586 C 921.009 6.51551 -1.45042 0
M  V30 9587 H 920.279 0.701744 0.237985 0
M  V30 9588 H 922.926 1.91288 -0.0900448 0
M  V30 9589 H 921.231 3.29441 2.12075 0
M  V30 9590 H 922.928 3.5643 1.83736 0
M  V30 9591 H 919.518 4.24703 0.576692 0
M  V30 9592 H 923.702 4.9621 -0.0944806 0
M  V30 9593 H 918.958 6.02788 -1.02256 0
M  V30 9594 H 923.132 6.75597 -1.68942 0
M  V30 9595 H 920.759 7.28882 -2.15951 0
M  V30 9596 N 922.334 -0.244713 1.55689 0
M  V30 9597 C 923.564 -0.988508 1.81417 0
M  V30 9598 C 923.972 -1.79362 0.602143 0
M  V30 9599 O 923.315 -1.78386 -0.438639 0
M  V30 9600 C 923.377 -1.97287 3.0053 0
M  V30 9601 C 923.041 -1.35448 4.36466 0
M  V30 9602 C 924.038 -0.755874 5.14376 0
M  V30 9603 C 921.723 -1.37319 4.83165 0
M  V30 9604 C 923.717 -0.184218 6.37134 0
M  V30 9605 C 921.404 -0.797681 6.05871 0
M  V30 9606 C 922.402 -0.204224 6.82695 0
M  V30 9607 O 922.09 0.362392 8.03083 0
M  V30 9608 H 921.822 -0.296412 0.607549 0
M  V30 9609 H 924.376 -0.272185 2.03589 0
M  V30 9610 H 922.606 -2.72756 2.74119 0
M  V30 9611 H 924.295 -2.58028 3.13331 0
M  V30 9612 H 925.061 -0.733912 4.79415 0
M  V30 9613 H 920.94 -1.8245 4.23359 0
M  V30 9614 H 924.484 0.279624 6.97039 0
M  V30 9615 H 920.381 -0.816978 6.40309 0
M  V30 9616 H 921.149 0.254467 8.18104 0
M  V30 9617 N 923.813 -1.49104 -0.510467 0
M  V30 9618 C 924.76 -1.65074 -1.61305 0
M  V30 9619 C 925.73 -0.492362 -1.58635 0
M  V30 9620 O 926.915 -0.718241 -1.76765 0
M  V30 9621 C 924.055 -1.71457 -2.99493 0
M  V30 9622 C 923.168 -2.98536 -3.12251 0
M  V30 9623 C 922.303 -2.95957 -4.41116 0
M  V30 9624 C 921.342 -4.17655 -4.47471 0
M  V30 9625 N 920.479 -4.13041 -5.67751 0
M  V30 9626 H 925.319 -2.59222 -1.46996 0
M  V30 9627 H 922.856 -1.28535 -0.715346 0
M  V30 9628 H 924.814 -1.7314 -3.79577 0
M  V30 9629 H 923.444 -0.807834 -3.12528 0
M  V30 9630 H 922.496 -3.06509 -2.25292 0
M  V30 9631 H 923.808 -3.88527 -3.12807 0
M  V30 9632 H 922.962 -2.96149 -5.2951 0
M  V30 9633 H 921.701 -2.03728 -4.4311 0
M  V30 9634 H 920.706 -4.17717 -3.57481 0
M  V30 9635 H 921.931 -5.11066 -4.472 0
M  V30 9636 H 919.877 -3.23643 -5.70606 0
M  V30 9637 H 919.794 -4.96757 -5.69884 0
M  V30 9638 H 921.062 -4.17322 -6.58379 0
M  V30 9639 N 925.291 0.760815 -1.38019 0
M  V30 9640 C 926.221 1.88811 -1.37377 0
M  V30 9641 C 927.202 1.68388 -0.240737 0
M  V30 9642 O 928.387 1.89086 -0.442739 0
M  V30 9643 C 925.517 3.26244 -1.1909 0
M  V30 9644 C 924.471 3.61254 -2.29521 0
M  V30 9645 C 923.797 4.97346 -1.96345 0
M  V30 9646 C 925.097 3.66874 -3.71753 0
M  V30 9647 H 926.791 1.89606 -2.31711 0
M  V30 9648 H 924.337 0.910818 -1.11535 0
M  V30 9649 H 926.29 4.04755 -1.17267 0
M  V30 9650 H 925.014 3.2591 -0.212152 0
M  V30 9651 H 923.673 2.85057 -2.30517 0
M  V30 9652 H 923.321 4.93564 -0.969728 0
M  V30 9653 H 923.021 5.21739 -2.703 0
M  V30 9654 H 924.545 5.78244 -1.96129 0
M  V30 9655 H 925.959 4.35514 -3.72828 0
M  V30 9656 H 924.356 4.02772 -4.44853 0
M  V30 9657 H 925.426 2.67273 -4.0459 0
M  V30 9658 N 926.769 1.22769 0.988202 0
M  V30 9659 C 927.716 1.00195 2.07917 0
M  V30 9660 C 928.686 -0.0779391 1.65917 0
M  V30 9661 O 929.871 0.0726005 1.90662 0
M  V30 9662 C 927.011 0.590853 3.40004 0
M  V30 9663 C 926.124 1.74202 3.9532 0
M  V30 9664 C 925.259 1.27846 5.15586 0
M  V30 9665 C 924.298 2.40087 5.63049 0
M  V30 9666 N 923.435 1.94744 6.74551 0
M  V30 9667 H 928.275 1.93581 2.26562 0
M  V30 9668 H 925.812 0.96448 1.11068 0
M  V30 9669 H 927.77 0.333653 4.15864 0
M  V30 9670 H 926.4 -0.306007 3.21346 0
M  V30 9671 H 925.452 2.11342 3.16289 0
M  V30 9672 H 926.764 2.58612 4.26522 0
M  V30 9673 H 925.918 0.978919 5.9875 0
M  V30 9674 H 924.657 0.404617 4.86019 0
M  V30 9675 H 923.662 2.70824 4.78471 0
M  V30 9676 H 924.887 3.27995 5.9464 0
M  V30 9677 H 922.833 1.09729 6.46758 0
M  V30 9678 H 922.75 2.72718 7.05096 0
M  V30 9679 H 924.018 1.67873 7.61209 0
M  V30 9680 N 928.247 -1.18576 1.03814 0
M  V30 9681 C 929.475 -1.92437 0.759966 0
M  V30 9682 C 929.89 -1.76031 -0.682526 0
M  V30 9683 O 929.247 -1.08829 -1.46501 0
M  V30 9684 C 929.298 -3.43923 1.11351 0
M  V30 9685 O 929.019 -3.5981 2.49937 0
M  V30 9686 C 930.52 -4.34888 0.859472 0
M  V30 9687 H 927.74 -0.610998 0.277349 0
M  V30 9688 H 930.284 -1.50448 1.38512 0
M  V30 9689 H 928.439 -3.83711 0.533362 0
M  V30 9690 H 928.853 -4.53569 2.63393 0
M  V30 9691 H 930.327 -5.39744 1.15672 0
M  V30 9692 H 930.804 -4.38717 -0.205839 0
M  V30 9693 H 931.41 -4.00795 1.42279 0
M  V30 9694 N 929.725 -0.817259 -1.34754 0
M  V30 9695 C 930.971 -0.403244 -1.98751 0
M  V30 9696 C 931.304 1.02963 -1.64658 0
M  V30 9697 O 930.579 1.71617 -0.915314 0
M  V30 9698 C 930.862 -0.599188 -3.5508 0
M  V30 9699 C 930.715 -2.07777 -3.98934 0
M  V30 9700 C 932.034 -0.0315656 -4.40089 0
M  V30 9701 H 929.153 -0.147988 -0.721989 0
M  V30 9702 H 931.795 -1.02877 -1.59738 0
M  V30 9703 H 929.945 -0.0667116 -3.88443 0
M  V30 9704 H 931.617 -2.67345 -3.75931 0
M  V30 9705 H 929.86 -2.57031 -3.49453 0
M  V30 9706 H 930.531 -2.16571 -5.07741 0
M  V30 9707 H 933.007 -0.48644 -4.13247 0
M  V30 9708 H 931.883 -0.198507 -5.48541 0
M  V30 9709 H 932.144 1.06302 -4.2913 0
M  V30 9710 N 931.203 1.46865 -0.571711 0
M  V30 9711 C 932.151 2.31897 0.180714 0
M  V30 9712 C 933.145 1.43815 0.895191 0
M  V30 9713 O 934.351 1.60501 0.814828 0
M  V30 9714 H 930.726 0.748032 0.077148 0
M  V30 9715 H 932.697 2.93185 -0.555432 0
M  V30 9716 C 931.446 3.26766 1.18824 0
M  V30 9717 H 930.769 3.94515 0.64789 0
M  V30 9718 H 932.209 3.89067 1.68532 0
M  V30 9719 C 930.668 2.51325 2.2436 0
M  V30 9720 O 931.198 2.26825 3.31532 0
M  V30 9721 N 929.404 2.12079 1.98673 0
M  V30 9722 H 928.951 2.32204 1.1153 0
M  V30 9723 H 928.909 1.61921 2.69498 0
M  V30 9724 N 932.681 0.308908 1.54543 0
M  V30 9725 C 933.927 -0.298478 2.00592 0
M  V30 9726 C 934.26 -1.52929 1.19692 0
M  V30 9727 O 933.535 -1.9254 0.27542 0
M  V30 9728 C 933.818 -0.647218 3.54236 0
M  V30 9729 C 933.671 0.593284 4.4587 0
M  V30 9730 C 934.99 -1.47064 4.14801 0
M  V30 9731 H 932.109 -0.107012 0.72919 0
M  V30 9732 H 934.751 0.422578 1.85241 0
M  V30 9733 H 932.901 -1.26153 3.67447 0
M  V30 9734 H 934.573 1.2317 4.44552 0
M  V30 9735 H 932.816 1.22501 4.16144 0
M  V30 9736 H 933.487 0.305018 5.51157 0
M  V30 9737 H 935.963 -0.951511 4.05075 0
M  V30 9738 H 934.839 -1.68343 5.22448 0
M  V30 9739 H 935.1 -2.4623 3.67183 0
M  V30 9740 N 934.159 -1.57557 0.0367827 0
M  V30 9741 C 935.406 -1.92114 -0.640185 0
M  V30 9742 C 935.734 -0.913887 -1.71693 0
M  V30 9743 O 934.989 0.0760343 -1.95552 0
M  V30 9744 C 935.288 -3.33387 -1.28794 0
M  V30 9745 C 934.954 -4.4961 -0.340819 0
M  V30 9746 C 933.616 -4.81133 -0.0801574 0
M  V30 9747 C 935.968 -5.20283 0.309106 0
M  V30 9748 C 933.296 -5.80683 0.838107 0
M  V30 9749 C 935.648 -6.20813 1.21547 0
M  V30 9750 C 934.312 -6.50773 1.48495 0
M  V30 9751 H 933.582 -0.702996 -0.23426 0
M  V30 9752 H 936.229 -1.91238 0.100188 0
M  V30 9753 H 934.534 -3.30561 -2.10324 0
M  V30 9754 H 936.231 -3.57399 -1.81843 0
M  V30 9755 H 932.821 -4.25002 -0.554161 0
M  V30 9756 H 937.005 -4.96153 0.120794 0
M  V30 9757 H 932.261 -6.02238 1.05451 0
M  V30 9758 H 936.435 -6.74692 1.72522 0
M  V30 9759 H 934.062 -7.27727 2.19814 0
M  V30 9760 N 935.637 0.236453 -1.55816 0
M  V30 9761 C 936.547 1.31418 -1.94336 0
M  V30 9762 C 937.563 1.52095 -0.845164 0
M  V30 9763 O 938.739 1.65515 -1.14746 0
M  V30 9764 C 935.804 2.6468 -2.23932 0
M  V30 9765 C 934.865 2.52435 -3.47239 0
M  V30 9766 C 934.098 3.79342 -3.75414 0
M  V30 9767 O 934.321 4.81694 -3.05495 0
M  V30 9768 O 933.255 3.77347 -4.68927 0
M  V30 9769 H 937.081 1.01739 -2.86152 0
M  V30 9770 H 934.666 0.438084 -1.42833 0
M  V30 9771 H 936.548 3.4341 -2.44228 0
M  V30 9772 H 935.223 2.94071 -1.35292 0
M  V30 9773 H 934.13 1.71955 -3.32238 0
M  V30 9774 H 935.463 2.27987 -4.36214 0
M  V30 9775 N 937.115 1.49373 0.502552 0
M  V30 9776 C 938.063 1.66411 1.62512 0
M  V30 9777 C 939.057 0.530062 1.60893 0
M  V30 9778 O 940.263 0.709648 1.65421 0
M  V30 9779 H 936.638 0.524707 0.538689 0
M  V30 9780 H 938.609 2.60639 1.45293 0
M  V30 9781 C 937.358 1.74648 3.00655 0
M  V30 9782 H 936.681 2.61285 3.02606 0
M  V30 9783 H 938.121 1.90605 3.78742 0
M  V30 9784 C 936.58 0.490963 3.33303 0
M  V30 9785 O 937.11 -0.384039 3.9986 0
M  V30 9786 N 935.316 0.354375 2.88431 0
M  V30 9787 H 934.863 1.06742 2.34444 0
M  V30 9788 H 934.821 -0.484593 3.10643 0
M  V30 9789 N 938.594 -0.753485 1.38421 0
M  V30 9790 C 939.84 -1.51485 1.34834 0
M  V30 9791 C 940.173 -1.94102 -0.0615381 0
M  V30 9792 O 939.448 -1.65439 -1.02274 0
M  V30 9793 C 939.731 -2.76736 2.30411 0
M  V30 9794 C 939.584 -2.40256 3.80259 0
M  V30 9795 C 940.903 -3.7876 2.24119 0
M  V30 9796 H 938.022 -0.549534 0.491102 0
M  V30 9797 H 940.664 -0.863006 1.6927 0
M  V30 9798 H 938.814 -3.32357 2.01175 0
M  V30 9799 H 940.486 -1.90409 4.20169 0
M  V30 9800 H 938.729 -1.72714 3.97935 0
M  V30 9801 H 939.4 -3.29869 4.42595 0
M  V30 9802 H 941.876 -3.32679 2.49928 0
M  V30 9803 H 940.752 -4.64092 2.93104 0
M  V30 9804 H 941.013 -4.24352 1.24006 0
M  V30 9805 N 940.072 -1.23292 -0.981677 0
M  V30 9806 C 941.302 -1.0893 -1.7555 0
M  V30 9807 C 941.71 0.362219 -1.857 0
M  V30 9808 O 941.053 1.2624 -1.33451 0
M  V30 9809 C 941.115 -1.6389 -3.19969 0
M  V30 9810 C 940.779 -3.12632 -3.33332 0
M  V30 9811 C 941.776 -4.0994 -3.19758 0
M  V30 9812 C 939.461 -3.52314 -3.58022 0
M  V30 9813 C 941.455 -5.44915 -3.30676 0
M  V30 9814 C 939.142 -4.87434 -3.6858 0
M  V30 9815 C 940.14 -5.83544 -3.54916 0
M  V30 9816 O 939.828 -7.16209 -3.65102 0
M  V30 9817 H 939.56 -0.381901 -0.557788 0
M  V30 9818 H 942.114 -1.63586 -1.24213 0
M  V30 9819 H 940.344 -1.03653 -3.72549 0
M  V30 9820 H 942.033 -1.45023 -3.79108 0
M  V30 9821 H 942.799 -3.80625 -3.00582 0
M  V30 9822 H 938.678 -2.78022 -3.67729 0
M  V30 9823 H 942.222 -6.19913 -3.19928 0
M  V30 9824 H 938.119 -5.16426 -3.87265 0
M  V30 9825 H 938.887 -7.23941 -3.81905 0
M  V30 9826 N 941.55 1.18024 -1.04442 0
M  V30 9827 C 942.48 2.23988 -0.659683 0
M  V30 9828 C 943.461 1.6669 0.338904 0
M  V30 9829 O 944.646 1.92971 0.21817 0
M  V30 9830 C 941.776 3.4729 -0.0257672 0
M  V30 9831 C 940.73 4.17362 -0.948299 0
M  V30 9832 C 940.056 5.34401 -0.17866 0
M  V30 9833 C 941.356 4.70435 -2.26909 0
M  V30 9834 H 943.05 2.56425 -1.54553 0
M  V30 9835 H 940.596 1.23256 -0.744575 0
M  V30 9836 H 942.549 4.20627 0.255131 0
M  V30 9837 H 941.273 3.14098 0.894981 0
M  V30 9838 H 939.932 3.45928 -1.21364 0
M  V30 9839 H 939.58 4.97458 0.744614 0
M  V30 9840 H 939.28 5.8222 -0.793294 0
M  V30 9841 H 940.804 6.10526 0.0951315 0
M  V30 9842 H 942.218 5.35447 -2.04864 0
M  V30 9843 H 940.615 5.28803 -2.83703 0
M  V30 9844 H 941.685 3.87653 -2.91296 0
M  V30 9845 N 943.028 0.824394 1.34319 0
M  V30 9846 C 944.305 0.335692 1.92698 0
M  V30 9847 C 944.685 -1.17715 1.75232 0
M  V30 9848 O 944.033 -1.98493 1.13194 0
M  V30 9849 C 944.243 0.766647 3.40475 0
M  V30 9850 C 945.591 0.766323 4.17627 0
M  V30 9851 O 946.615 0.709321 3.49066 0
M  V30 9852 O 945.474 0.840856 5.39992 0
M  V30 9853 H 942.568 0.0919996 0.821867 0
M  V30 9854 H 945.114 0.909282 1.43283 0
M  V30 9855 H 943.886 1.80859 3.46995 0
M  V30 9856 H 943.509 0.168833 3.97241 0
M  V30 9857 N 944.506 -1.46559 0.579492 0
M  V30 9858 C 945.453 -2.30275 -0.155598 0
M  V30 9859 C 946.423 -1.40422 -0.887175 0
M  V30 9860 O 947.608 -1.69373 -0.878481 0
M  V30 9861 C 944.748 -3.24827 -1.16539 0
M  V30 9862 C 943.861 -4.29778 -0.43759 0
M  V30 9863 C 942.996 -5.11461 -1.43462 0
M  V30 9864 C 942.035 -6.08164 -0.693048 0
M  V30 9865 N 941.172 -6.82726 -1.63799 0
M  V30 9866 H 946.012 -2.92607 0.564356 0
M  V30 9867 H 943.549 -1.44211 0.290126 0
M  V30 9868 H 945.507 -3.78088 -1.76368 0
M  V30 9869 H 944.137 -2.64311 -1.8531 0
M  V30 9870 H 943.189 -3.794 0.27567 0
M  V30 9871 H 944.501 -4.98597 0.142298 0
M  V30 9872 H 943.655 -5.68982 -2.1058 0
M  V30 9873 H 942.394 -4.42595 -2.04844 0
M  V30 9874 H 941.399 -5.49799 -0.00807093 0
M  V30 9875 H 942.624 -6.79047 -0.0846678 0
M  V30 9876 H 940.57 -6.16572 -2.23997 0
M  V30 9877 H 940.487 -7.47795 -1.11082 0
M  V30 9878 H 941.755 -7.44807 -2.29962 0
M  V30 9879 N 945.984 -0.3171 -1.54377 0
M  V30 9880 C 947.395 0.172287 -1.85903 0
M  V30 9881 C 947.746 1.52141 -1.23885 0
M  V30 9882 O 946.871 2.0949 -0.542476 0
M  V30 9883 C 947.466 0.319392 -3.37291 0
M  V30 9884 C 946.025 0.752998 -3.68791 0
M  V30 9885 C 945.172 -0.129143 -2.76999 0
M  V30 9886 H 948.123 -0.537597 -1.49317 0
M  V30 9887 H 948.144 1.15137 -3.62662 0
M  V30 9888 H 947.656 -0.662671 -3.82401 0
M  V30 9889 H 945.757 1.74504 -3.2921 0
M  V30 9890 H 945.87 0.561228 -4.75801 0
M  V30 9891 H 944.234 0.394242 -2.5163 0
M  V30 9892 H 945.017 -1.10785 -3.24933 0
M  V30 9893 N 947.462 1.57535 -0.0451378 0
M  V30 9894 C 948.71 1.92071 0.628743 0
M  V30 9895 C 949.031 0.923635 1.71738 0
M  V30 9896 O 948.301 -0.0324376 1.95873 0
M  V30 9897 H 946.881 0.708995 0.235233 0
M  V30 9898 H 949.543 1.9466 -0.0967177 0
M  V30 9899 H 948.639 2.9314 1.07123 0
M  V30 9900 N 948.94 -0.228186 1.55939 0
M  V30 9901 C 949.887 -1.28274 1.91871 0
M  V30 9902 C 950.857 -1.46906 0.775103 0
M  V30 9903 O 952.042 -1.60583 1.03042 0
M  V30 9904 C 949.182 -2.62945 2.23504 0
M  V30 9905 C 948.295 -2.52166 3.50766 0
M  V30 9906 C 947.43 -3.79316 3.71878 0
M  V30 9907 C 946.469 -3.63231 4.92676 0
M  V30 9908 N 945.606 -4.82315 5.10212 0
M  V30 9909 H 950.446 -0.96931 2.81795 0
M  V30 9910 H 947.983 -0.467331 1.39479 0
M  V30 9911 H 949.941 -3.41359 2.39854 0
M  V30 9912 H 948.571 -2.92397 1.36762 0
M  V30 9913 H 947.623 -1.65221 3.42646 0
M  V30 9914 H 948.935 -2.36199 4.39331 0
M  V30 9915 H 948.089 -4.66173 3.88288 0
M  V30 9916 H 946.828 -3.982 2.81581 0
M  V30 9917 H 945.833 -2.74757 4.76223 0
M  V30 9918 H 947.058 -3.45823 5.84451 0
M  V30 9919 H 945.004 -5.01526 4.22856 0
M  V30 9920 H 944.921 -4.6905 5.92898 0
M  V30 9921 H 946.189 -5.70618 5.31051 0
M  V30 9922 N 950.418 -1.49637 -0.494624 0
M  V30 9923 C 951.664 -1.59681 -1.25019 0
M  V30 9924 C 951.997 -0.285511 -1.9209 0
M  V30 9925 O 951.272 0.711398 -1.81023 0
M  V30 9926 C 951.555 -2.76058 -2.31222 0
M  V30 9927 C 951.408 -4.17002 -1.68611 0
M  V30 9928 C 952.727 -2.88056 -3.32734 0
M  V30 9929 H 949.846 -0.581209 -0.453172 0
M  V30 9930 H 952.488 -1.81944 -0.547391 0
M  V30 9931 H 950.638 -2.57207 -2.91164 0
M  V30 9932 H 952.31 -4.47385 -1.12447 0
M  V30 9933 H 950.553 -4.22352 -0.989991 0
M  V30 9934 H 951.224 -4.94316 -2.45674 0
M  V30 9935 H 953.7 -3.05237 -2.82789 0
M  V30 9936 H 952.576 -3.71151 -4.04399 0
M  V30 9937 H 952.837 -1.97676 -3.95445 0
M  V30 9938 N 951.896 0.746133 -1.38819 0
M  V30 9939 C 953.126 1.53316 -1.38484 0
M  V30 9940 C 953.534 1.89183 0.0253332 0
M  V30 9941 O 952.877 1.5382 1.00424 0
M  V30 9942 C 952.939 2.85623 -2.18311 0
M  V30 9943 C 952.603 2.72253 -3.67052 0
M  V30 9944 C 953.6 2.41547 -4.60381 0
M  V30 9945 C 951.285 2.89472 -4.10501 0
M  V30 9946 C 953.279 2.28226 -5.9514 0
M  V30 9947 C 950.966 2.7577 -5.45338 0
M  V30 9948 C 951.964 2.45191 -6.37472 0
M  V30 9949 O 951.652 2.31561 -7.69828 0
M  V30 9950 H 951.384 0.480763 -0.475229 0
M  V30 9951 H 953.938 0.93057 -1.83111 0
M  V30 9952 H 952.168 3.481 -1.68414 0
M  V30 9953 H 953.857 3.47178 -2.10291 0
M  V30 9954 H 954.623 2.27905 -4.28117 0
M  V30 9955 H 950.502 3.12269 -3.3913 0
M  V30 9956 H 954.046 2.04279 -6.6702 0
M  V30 9957 H 949.943 2.88987 -5.77197 0
M  V30 9958 H 950.711 2.46716 -7.80432 0
M  V30 9959 N 953.375 1.23811 0.975125 0
M  V30 9960 C 954.603 1.10019 1.75224 0
M  V30 9961 C 955.018 -0.34791 1.85567 0
M  V30 9962 O 954.375 -1.24043 1.33864 0
M  V30 9963 C 954.426 1.72572 3.1765 0
M  V30 9964 O 954.147 3.11719 3.07836 0
M  V30 9965 C 955.648 1.64292 4.11732 0
M  V30 9966 H 952.868 0.38476 0.549728 0
M  V30 9967 H 955.412 1.63768 1.22476 0
M  V30 9968 H 953.567 1.22843 3.67408 0
M  V30 9969 H 953.981 3.42152 3.97533 0
M  V30 9970 H 955.455 2.12754 5.09352 0
M  V30 9971 H 955.932 0.602722 4.35045 0
M  V30 9972 H 956.538 2.13411 3.6788 0
M  V30 9973 N 954.853 -1.17469 1.05066 0
M  V30 9974 C 955.803 -2.19388 0.620713 0
M  V30 9975 C 956.787 -1.5722 -0.34214 0
M  V30 9976 O 957.979 -1.76279 -0.159574 0
M  V30 9977 C 955.108 -3.433 -0.00438518 0
M  V30 9978 C 954.194 -4.12569 0.982218 0
M  V30 9979 N 954.585 -4.57683 2.15313 0
M  V30 9980 C 952.883 -4.38575 0.810416 0
M  V30 9981 C 953.584 -5.11124 2.77719 0
M  V30 9982 N 952.56 -5.0325 2.05525 0
M  V30 9983 H 956.362 -2.51971 1.51287 0
M  V30 9984 H 953.876 -1.33784 0.920625 0
M  V30 9985 H 955.873 -4.15591 -0.330161 0
M  V30 9986 H 954.533 -3.12209 -0.89195 0
M  V30 9987 H 955.544 -4.51812 2.53154 0
M  V30 9988 H 952.221 -4.17492 -0.0262078 0
M  V30 9989 H 953.611 -5.56161 3.77008 0
M  V30 9990 N 956.331 -0.831506 -1.3388 0
M  V30 9991 C 957.577 -0.424302 -1.98312 0
M  V30 9992 C 957.91 1.01211 -1.65741 0
M  V30 9993 O 957.185 1.70636 -0.933464 0
M  V30 9994 C 957.468 -0.636815 -3.54424 0
M  V30 9995 C 957.321 -2.11997 -3.96708 0
M  V30 9996 C 958.64 -0.0782411 -4.4003 0
M  V30 9997 H 955.759 -0.155637 -0.720379 0
M  V30 9998 H 958.401 -1.04566 -1.58638 0
M  V30 9999 H 956.551 -0.107907 -3.8835 0
M  V30 10000 H 958.223 -2.71317 -3.73075 0
M  V30 10001 H 956.466 -2.60723 -3.46707 0
M  V30 10002 H 957.137 -2.21944 -5.05416 0
M  V30 10003 H 959.613 -0.530243 -4.12708 0
M  V30 10004 H 958.489 -0.256676 -5.483 0
M  V30 10005 H 958.75 1.01745 -4.30233 0
M  V30 10006 N 957.809 1.4625 -0.587256 0
M  V30 10007 C 958.772 2.28812 0.133238 0
M  V30 10008 C 959.772 1.38645 0.814513 0
M  V30 10009 O 960.962 1.60975 0.665774 0
M  V30 10010 C 958.094 3.19147 1.19824 0
M  V30 10011 H 959.287 2.93991 -0.592386 0
M  V30 10012 H 956.84 1.52435 -0.345416 0
M  V30 10013 H 957.575 2.58725 1.95529 0
M  V30 10014 H 957.36 3.85541 0.71418 0
M  V30 10015 H 958.85 3.81278 1.70344 0
M  V30 10016 N 959.287 0.325282 1.54207 0
M  V30 10017 C 960.217 -0.532574 2.27345 0
M  V30 10018 C 961.198 -1.11791 1.28206 0
M  V30 10019 O 962.383 -1.14272 1.57021 0
M  V30 10020 C 959.513 -1.69274 3.03255 0
M  V30 10021 C 958.467 -1.23662 4.09746 0
M  V30 10022 C 957.793 -2.48386 4.73506 0
M  V30 10023 C 959.093 -0.350244 5.21124 0
M  V30 10024 H 960.787 0.0775108 2.993 0
M  V30 10025 H 958.333 0.0387193 1.43948 0
M  V30 10026 H 960.286 -2.29917 3.53152 0
M  V30 10027 H 959.01 -2.32944 2.28921 0
M  V30 10028 H 957.669 -0.653106 3.60735 0
M  V30 10029 H 957.317 -3.10424 3.95786 0
M  V30 10030 H 957.017 -2.18558 5.45441 0
M  V30 10031 H 958.541 -3.09789 5.26178 0
M  V30 10032 H 959.955 -0.863011 5.66767 0
M  V30 10033 H 958.352 -0.14466 5.99926 0
M  V30 10034 H 959.422 0.618457 4.8094 0
M  V30 10035 N 960.765 -1.57509 0.0534917 0
M  V30 10036 C 962.014 -1.91959 -0.619244 0
M  V30 10037 C 962.327 -0.933882 -1.71866 0
M  V30 10038 O 963.533 -1.17052 -2.44972 0
M  V30 10039 C 961.989 -3.40938 -1.15278 0
M  V30 10040 C 961.597 -4.47919 -0.085348 0
M  V30 10041 C 963.341 -3.84419 -1.80063 0
M  V30 10042 C 961.248 -5.88014 -0.631897 0
M  V30 10043 H 960.178 -0.71642 -0.235072 0
M  V30 10044 H 962.829 -1.83089 0.122758 0
M  V30 10045 H 961.211 -3.44821 -1.94717 0
M  V30 10046 H 962.385 -4.55629 0.688374 0
M  V30 10047 H 960.7 -4.13793 0.465178 0
M  V30 10048 H 963.297 -4.86457 -2.21954 0
M  V30 10049 H 963.64 -3.20791 -2.65328 0
M  V30 10050 H 964.173 -3.83062 -1.07275 0
M  V30 10051 H 960.912 -6.55244 0.183175 0
M  V30 10052 H 960.432 -5.83861 -1.37355 0
M  V30 10053 H 962.111 -6.37336 -1.11407 0
M  V30 10054 N 962.243 0.219913 -1.56058 0
M  V30 10055 C 963.19 1.27254 -1.92549 0
M  V30 10056 C 964.16 1.46493 -0.782883 0
M  V30 10057 O 965.345 1.60035 -1.03892 0
M  V30 10058 C 962.485 2.61756 -2.24896 0
M  V30 10059 C 961.598 2.50302 -3.52098 0
M  V30 10060 C 960.733 3.77338 -3.73884 0
M  V30 10061 C 959.772 3.60613 -4.94595 0
M  V30 10062 N 958.909 4.79603 -5.12763 0
M  V30 10063 H 963.749 0.954352 -2.82305 0
M  V30 10064 H 961.286 0.459928 -1.39725 0
M  V30 10065 H 963.244 3.40082 -2.4166 0
M  V30 10066 H 961.874 2.91668 -1.38311 0
M  V30 10067 H 960.926 1.63401 -3.43517 0
M  V30 10068 H 962.238 2.33866 -4.40577 0
M  V30 10069 H 961.392 4.64108 -3.90754 0
M  V30 10070 H 960.131 3.96702 -2.83689 0
M  V30 10071 H 959.136 2.72228 -4.77674 0
M  V30 10072 H 960.361 3.42719 -5.86277 0
M  V30 10073 H 958.307 4.99277 -4.2551 0
M  V30 10074 H 958.224 4.65899 -5.95377 0
M  V30 10075 H 959.492 5.67794 -5.34069 0
M  V30 10076 N 963.721 1.49897 0.486681 0
M  V30 10077 C 964.969 1.59789 1.23742 0
M  V30 10078 C 965.29 0.293056 1.92785 0
M  V30 10079 O 964.56 -0.688534 1.83401 0
M  V30 10080 H 963.14 0.588775 0.459731 0
M  V30 10081 H 965.802 1.86597 0.562808 0
M  V30 10082 H 964.898 2.40121 1.9937 0
M  V30 10083 N 965.199 -0.738761 1.39212 0
M  V30 10084 C 966.162 -1.83441 1.37412 0
M  V30 10085 C 967.162 -1.58484 0.271908 0
M  V30 10086 O 968.352 -1.65954 0.529609 0
M  V30 10087 C 965.484 -3.21167 1.143 0
M  V30 10088 H 966.677 -1.86441 2.34904 0
M  V30 10089 H 964.23 -0.942023 1.24722 0
M  V30 10090 H 964.965 -3.23829 0.174756 0
M  V30 10091 H 964.75 -3.40678 1.94116 0
M  V30 10092 H 966.24 -4.01231 1.15773 0
M  V30 10093 N 966.677 -1.24326 -0.968545 0
M  V30 10094 C 968.088 -1.07561 -1.52603 0
M  V30 10095 C 968.439 0.353245 -1.92994 0
M  V30 10096 O 967.564 1.24151 -1.77244 0
M  V30 10097 C 968.159 -1.94634 -2.77314 0
M  V30 10098 C 966.718 -1.82095 -3.29421 0
M  V30 10099 C 965.865 -1.8962 -2.02335 0
M  V30 10100 H 968.816 -1.37815 -0.786932 0
M  V30 10101 H 968.837 -1.47812 -3.50616 0
M  V30 10102 H 968.349 -2.98621 -2.47885 0
M  V30 10103 H 966.45 -0.809376 -3.63703 0
M  V30 10104 H 966.563 -2.66142 -3.98378 0
M  V30 10105 H 964.927 -1.33339 -2.17009 0
M  V30 10106 H 965.71 -2.95185 -1.75273 0
M  V30 10107 N 968.156 1.1691 -1.05688 0
M  V30 10108 C 969.433 1.83266 -0.683601 0
M  V30 10109 C 969.813 1.93858 0.835602 0
M  V30 10110 O 969.161 1.47696 1.7435 0
M  V30 10111 C 969.371 3.20625 -1.37842 0
M  V30 10112 C 970.719 3.96473 -1.51967 0
M  V30 10113 O 971.743 3.30122 -1.33783 0
M  V30 10114 O 970.602 5.15393 -1.81749 0
M  V30 10115 H 967.696 0.791028 -0.241254 0
M  V30 10116 H 970.242 1.24165 -1.15677 0
M  V30 10117 H 969.014 3.07914 -2.41463 0
M  V30 10118 H 968.637 3.87398 -0.894921 0
M  V30 10119 N 969.634 0.838594 1.33437 0
M  V30 10120 C 971.05 0.526347 1.50671 0
M  V30 10121 C 971.25 -0.946387 1.77893 0
M  V30 10122 O 970.306 -1.7302 1.83903 0
M  V30 10123 C 971.619 1.39945 2.6615 0
M  V30 10124 C 973.167 1.3982 2.80035 0
M  V30 10125 C 973.642 2.25614 3.98576 0
M  V30 10126 N 975.133 2.23322 4.0581 0
M  V30 10127 C 975.868 2.86443 4.96727 0
M  V30 10128 N 975.364 3.58616 5.92762 0
M  V30 10129 N 977.157 2.75915 4.89722 0
M  V30 10130 H 969.308 1.79195 1.1403 0
M  V30 10131 H 971.571 0.764491 0.560586 0
M  V30 10132 H 971.277 2.44599 2.52714 0
M  V30 10133 H 971.151 1.07529 3.61548 0
M  V30 10134 H 973.538 0.35937 2.92904 0
M  V30 10135 H 973.619 1.76241 1.85399 0
M  V30 10136 H 973.263 3.29555 3.86466 0
M  V30 10137 H 973.193 1.86533 4.92456 0
M  V30 10138 H 975.684 1.70836 3.37081 0
M  V30 10139 H 975.997 4.03987 6.58798 0
M  V30 10140 H 974.342 3.62724 5.92838 0
M  V30 10141 H 977.533 2.19094 4.13661 0
M  V30 10142 H 977.706 3.25393 5.60378 0
M  V30 10143 N 971.112 -1.45937 0.595003 0
M  V30 10144 C 972.042 -2.33198 -0.11871 0
M  V30 10145 C 973.023 -1.46083 -0.871423 0
M  V30 10146 O 974.208 -1.74879 -0.844461 0
M  V30 10147 C 971.338 -3.28576 -1.12495 0
M  V30 10148 C 970.292 -4.25229 -0.486275 0
M  V30 10149 C 969.618 -5.10204 -1.59986 0
M  V30 10150 C 970.918 -5.19019 0.584473 0
M  V30 10151 H 972.612 -2.93122 0.609886 0
M  V30 10152 H 970.158 -1.40951 0.294742 0
M  V30 10153 H 972.111 -3.88485 -1.6327 0
M  V30 10154 H 970.835 -2.66784 -1.88398 0
M  V30 10155 H 969.494 -3.666 0.000507962 0
M  V30 10156 H 969.142 -4.44789 -2.34886 0
M  V30 10157 H 968.842 -5.75669 -1.1781 0
M  V30 10158 H 970.366 -5.7298 -2.11014 0
M  V30 10159 H 971.78 -5.73073 0.161297 0
M  V30 10160 H 970.177 -5.92893 0.927256 0
M  V30 10161 H 971.247 -4.62208 1.46601 0
M  V30 10162 N 972.59 -0.333456 -1.54032 0
M  V30 10163 C 973.52 0.52051 -2.27625 0
M  V30 10164 C 974.501 1.1111 -1.28797 0
M  V30 10165 O 975.686 1.13438 -1.57625 0
M  V30 10166 C 972.816 1.67663 -3.04149 0
M  V30 10167 C 971.77 1.21487 -4.10396 0
M  V30 10168 C 971.096 2.45872 -4.74817 0
M  V30 10169 C 972.396 0.322603 -5.21303 0
M  V30 10170 H 974.09 -0.0933823 -2.99254 0
M  V30 10171 H 971.636 -0.0463526 -1.43925 0
M  V30 10172 H 973.589 2.28041 -3.54366 0
M  V30 10173 H 972.313 2.31727 -2.30153 0
M  V30 10174 H 970.972 0.633966 -3.61077 0
M  V30 10175 H 970.62 3.0832 -3.97426 0
M  V30 10176 H 970.32 2.15662 -5.46593 0
M  V30 10177 H 971.844 3.06994 -5.27814 0
M  V30 10178 H 973.258 0.832942 -5.67217 0
M  V30 10179 H 971.655 0.112843 -5.99994 0
M  V30 10180 H 972.725 -0.643954 -4.80605 0
M  V30 10181 N 974.068 1.57479 -0.061844 0
M  V30 10182 C 975.345 1.84484 0.649993 0
M  V30 10183 C 975.725 0.952366 1.88396 0
M  V30 10184 O 975.073 0.0161035 2.28494 0
M  V30 10185 C 975.283 3.34452 0.997133 0
M  V30 10186 C 976.631 4.01724 1.37488 0
M  V30 10187 O 977.655 3.3914 1.08916 0
M  V30 10188 O 976.514 5.12091 1.90854 0
M  V30 10189 H 973.608 0.761798 0.321858 0
M  V30 10190 H 976.154 1.6945 -0.0920192 0
M  V30 10191 H 974.926 3.91115 0.120301 0
M  V30 10192 H 974.549 3.54713 1.79624 0
M  V30 10193 N 975.546 -0.211634 1.56173 0
M  V30 10194 C 976.962 -0.56177 1.49386 0
M  V30 10195 C 977.162 -1.86666 0.758813 0
M  V30 10196 O 976.218 -2.50681 0.302534 0
M  V30 10197 C 977.531 -0.631815 2.93987 0
M  V30 10198 C 979.079 -0.721773 3.04564 0
M  V30 10199 C 979.554 -0.823075 4.50544 0
M  V30 10200 N 981.045 -0.887038 4.54627 0
M  V30 10201 C 981.78 -0.985304 5.64871 0
M  V30 10202 N 981.276 -1.0469 6.84844 0
M  V30 10203 N 983.069 -1.02121 5.52746 0
M  V30 10204 H 975.22 0.64452 2.02385 0
M  V30 10205 H 977.483 0.227466 0.920306 0
M  V30 10206 H 977.189 0.257592 3.50755 0
M  V30 10207 H 977.063 -1.4921 3.46433 0
M  V30 10208 H 979.45 -1.60162 2.47855 0
M  V30 10209 H 979.531 0.164385 2.55271 0
M  V30 10210 H 979.175 0.0523511 5.07873 0
M  V30 10211 H 979.105 -1.72479 4.97552 0
M  V30 10212 H 981.596 -0.849352 3.68231 0
M  V30 10213 H 981.909 -1.12193 7.64613 0
M  V30 10214 H 980.254 -1.01586 6.87536 0
M  V30 10215 H 983.445 -0.969814 4.57943 0
M  V30 10216 H 983.618 -1.09434 6.38693 0
M  V30 10217 N 977.024 -1.50153 -0.478725 0
M  V30 10218 C 978.249 -1.64776 -1.2595 0
M  V30 10219 C 978.674 -0.327794 -1.85222 0
M  V30 10220 O 978.032 0.707418 -1.66929 0
M  V30 10221 C 978.08 -2.73551 -2.34952 0
M  V30 10222 O 977.184 -2.34273 -3.39397 0
M  V30 10223 H 976.525 -0.550769 -0.370877 0
M  V30 10224 H 979.055 -1.96482 -0.570605 0
M  V30 10225 H 979.065 -2.96397 -2.8038 0
M  V30 10226 H 977.74 -3.69354 -1.91181 0
M  V30 10227 H 976.317 -2.21844 -2.99733 0
M  V30 10228 N 978.502 0.731368 -1.39602 0
M  V30 10229 C 979.73 1.52059 -1.40305 0
M  V30 10230 C 980.145 1.888 0.00147921 0
M  V30 10231 O 979.502 1.54354 0.973715 0
M  V30 10232 C 979.553 2.80588 -2.27931 0
M  V30 10233 O 979.274 2.45406 -3.62915 0
M  V30 10234 C 980.775 3.74592 -2.37056 0
M  V30 10235 H 977.995 0.469787 -0.479104 0
M  V30 10236 H 980.539 0.903436 -1.83462 0
M  V30 10237 H 978.694 3.38626 -1.88178 0
M  V30 10238 H 979.108 3.27996 -4.09291 0
M  V30 10239 H 980.582 4.61662 -3.02609 0
M  V30 10240 H 981.059 4.16597 -1.39081 0
M  V30 10241 H 981.665 3.22471 -2.77295 0
M  V30 10242 N 979.98 1.24838 0.961938 0
M  V30 10243 C 980.93 1.01276 2.04272 0
M  V30 10244 C 981.914 -0.0478239 1.60829 0
M  V30 10245 O 983.106 0.166616 1.76214 0
M  V30 10246 C 980.235 0.625659 3.37551 0
M  V30 10247 C 979.321 1.72262 3.87539 0
M  V30 10248 N 979.712 2.95644 4.104 0
M  V30 10249 C 978.01 1.60146 4.16256 0
M  V30 10250 C 978.711 3.66796 4.51482 0
M  V30 10251 N 977.687 2.94383 4.56989 0
M  V30 10252 H 981.489 1.94956 2.19931 0
M  V30 10253 H 979.003 1.15049 1.14619 0
M  V30 10254 H 981 0.438072 4.14592 0
M  V30 10255 H 979.66 -0.303887 3.23275 0
M  V30 10256 H 980.671 3.31764 3.97685 0
M  V30 10257 H 977.348 0.740353 4.10883 0
M  V30 10258 H 978.738 4.72664 4.77534 0
M  V30 10259 N 981.458 -1.16348 1.06306 0
M  V30 10260 C 982.388 -2.2291 0.695234 0
M  V30 10261 C 983.369 -1.67208 -0.312343 0
M  V30 10262 O 984.554 -1.93293 -0.187442 0
M  V30 10263 C 981.684 -3.47205 0.0810149 0
M  V30 10264 C 980.638 -4.15801 1.01458 0
M  V30 10265 C 979.964 -5.3405 0.263656 0
M  V30 10266 C 981.264 -4.66766 2.34365 0
M  V30 10267 H 982.958 -2.53934 1.58613 0
M  V30 10268 H 980.504 -1.22056 0.76409 0
M  V30 10269 H 982.457 -4.2098 -0.18818 0
M  V30 10270 H 981.181 -3.15482 -0.844897 0
M  V30 10271 H 979.84 -3.43954 1.26852 0
M  V30 10272 H 979.488 -4.9858 -0.665378 0
M  V30 10273 H 979.188 -5.80885 0.88582 0
M  V30 10274 H 980.712 -6.106 0.00200994 0
M  V30 10275 H 982.126 -5.3212 2.13356 0
M  V30 10276 H 980.523 -5.24223 2.9208 0
M  V30 10277 H 981.593 -3.82969 2.97426 0
M  V30 10278 N 982.937 -0.845659 -1.3299 0
M  V30 10279 C 983.867 -0.298957 -2.31578 0
M  V30 10280 C 984.848 0.597012 -1.59279 0
M  V30 10281 O 986.033 0.519142 -1.87132 0
M  V30 10282 C 983.163 0.521109 -3.43368 0
M  V30 10283 C 982.117 -0.279651 -4.27085 0
M  V30 10284 C 981.443 0.664591 -5.30554 0
M  V30 10285 C 982.743 -1.50046 -5.00283 0
M  V30 10286 H 984.437 -1.12272 -2.77552 0
M  V30 10287 H 981.983 -0.54132 -1.33438 0
M  V30 10288 H 983.936 0.913921 -4.1137 0
M  V30 10289 H 982.66 1.37815 -2.96099 0
M  V30 10290 H 981.319 -0.654106 -3.60717 0
M  V30 10291 H 980.967 1.51822 -4.79541 0
M  V30 10292 H 980.667 0.132871 -5.8745 0
M  V30 10293 H 982.191 1.05477 -6.01421 0
M  V30 10294 H 983.605 -1.18044 -5.61016 0
M  V30 10295 H 982.002 -1.96946 -5.66862 0
M  V30 10296 H 983.072 -2.26659 -4.28665 0
M  V30 10297 N 984.415 1.45619 -0.602734 0
M  V30 10298 C 985.325 2.34288 0.120902 0
M  V30 10299 C 986.341 1.50952 0.865414 0
M  V30 10300 O 987.517 1.83768 0.824094 0
M  V30 10301 C 984.582 3.28489 1.10888 0
M  V30 10302 C 983.643 4.2773 0.366853 0
M  V30 10303 C 982.876 5.17429 1.30776 0
M  V30 10304 O 983.099 5.10459 2.54535 0
M  V30 10305 O 982.033 5.96459 0.807464 0
M  V30 10306 H 985.859 2.97559 -0.60765 0
M  V30 10307 H 983.444 1.44922 -0.363019 0
M  V30 10308 H 985.326 3.86549 1.67803 0
M  V30 10309 H 984.001 2.67789 1.81854 0
M  V30 10310 H 982.908 3.73299 -0.244643 0
M  V30 10311 H 984.241 4.91271 -0.302226 0
M  V30 10312 N 985.893 0.34162 1.53853 0
M  V30 10313 C 986.803 -0.524555 2.2866 0
M  V30 10314 C 987.819 -1.1136 1.33697 0
M  V30 10315 O 988.995 -1.1297 1.66732 0
M  V30 10316 C 986.06 -1.66065 3.04341 0
M  V30 10317 C 985.121 -1.10158 4.14926 0
M  V30 10318 C 984.354 -2.18353 4.86988 0
M  V30 10319 O 984.577 -3.39038 4.58704 0
M  V30 10320 O 983.511 -1.82756 5.73484 0
M  V30 10321 H 987.337 0.0835014 3.03585 0
M  V30 10322 H 984.922 0.106727 1.49018 0
M  V30 10323 H 986.804 -2.3217 3.51674 0
M  V30 10324 H 985.479 -2.25456 2.32275 0
M  V30 10325 H 984.386 -0.405109 3.719 0
M  V30 10326 H 985.719 -0.552567 4.89088 0
M  V30 10327 N 987.371 -1.57444 0.0701946 0
M  V30 10328 C 988.599 -1.97754 -0.608358 0
M  V30 10329 C 989.014 -0.948496 -1.63245 0
M  V30 10330 O 988.371 0.065046 -1.82384 0
M  V30 10331 C 988.422 -3.38142 -1.27836 0
M  V30 10332 O 988.143 -4.37104 -0.295255 0
M  V30 10333 C 989.644 -3.93318 -2.04489 0
M  V30 10334 H 986.864 -0.650398 -0.164997 0
M  V30 10335 H 989.408 -2.04006 0.142124 0
M  V30 10336 H 987.563 -3.32982 -1.97994 0
M  V30 10337 H 987.977 -5.18732 -0.77574 0
M  V30 10338 H 989.451 -4.93774 -2.46762 0
M  V30 10339 H 989.928 -3.29774 -2.90079 0
M  V30 10340 H 990.534 -4.01875 -1.39201 0
M  V30 10341 N 988.849 0.203349 -1.56283 0
M  V30 10342 C 990.074 0.945548 -1.84592 0
M  V30 10343 C 990.499 1.7641 -0.652772 0
M  V30 10344 O 989.857 1.76867 0.398468 0
M  V30 10345 C 989.905 1.82416 -3.11057 0
M  V30 10346 O 989.009 2.92191 -2.9103 0
M  V30 10347 H 988.35 0.266739 -0.608068 0
M  V30 10348 H 990.88 0.211158 -2.03507 0
M  V30 10349 H 990.89 2.23044 -3.41636 0
M  V30 10350 H 989.565 1.22267 -3.97522 0
M  V30 10351 H 988.142 2.55378 -2.71728 0
M  V30 10352 N 990.327 1.50405 0.470755 0
M  V30 10353 C 991.26 1.63933 1.58749 0
M  V30 10354 C 992.238 0.487444 1.55122 0
M  V30 10355 O 993.422 0.706992 1.74739 0
M  V30 10356 C 990.549 1.62222 2.97324 0
M  V30 10357 C 989.595 2.82975 3.19104 0
M  V30 10358 S 990.428 4.44272 2.98969 0
M  V30 10359 C 991.584 4.45254 4.39886 0
M  V30 10360 H 991.817 2.58396 1.47034 0
M  V30 10361 H 989.35 1.39672 0.658115 0
M  V30 10362 H 991.308 1.6192 3.77217 0
M  V30 10363 H 989.969 0.689944 3.06429 0
M  V30 10364 H 989.162 2.78083 4.2034 0
M  V30 10365 H 988.764 2.80846 2.46984 0
M  V30 10366 H 991.056 4.18837 5.32524 0
M  V30 10367 H 991.999 5.4687 4.49821 0
M  V30 10368 H 992.407 3.74958 4.2198 0
M  V30 10369 N 991.805 -0.723954 1.39988 0
M  V30 10370 C 992.752 -1.83803 1.39589 0
M  V30 10371 C 993.722 -1.64146 0.253996 0
M  V30 10372 O 994.907 -1.85398 0.450793 0
M  V30 10373 C 992.047 -3.21431 1.25604 0
M  V30 10374 C 991.16 -3.52717 2.49429 0
M  V30 10375 C 990.295 -4.79805 2.27949 0
M  V30 10376 C 989.334 -5.03968 3.47394 0
M  V30 10377 N 988.471 -6.22266 3.25161 0
M  V30 10378 H 993.311 -1.83479 2.34818 0
M  V30 10379 H 990.848 -0.896396 1.16633 0
M  V30 10380 H 992.806 -4.00892 1.15504 0
M  V30 10381 H 991.436 -3.21005 0.339986 0
M  V30 10382 H 990.488 -2.67872 2.7009 0
M  V30 10383 H 991.8 -3.66486 3.38363 0
M  V30 10384 H 990.954 -5.67268 2.15155 0
M  V30 10385 H 989.693 -4.68229 1.36428 0
M  V30 10386 H 988.698 -4.14963 3.60674 0
M  V30 10387 H 989.923 -5.17422 4.39831 0
M  V30 10388 H 987.869 -6.11957 2.36314 0
M  V30 10389 H 987.786 -6.36673 4.07656 0
M  V30 10390 H 989.054 -7.12539 3.16083 0
M  V30 10391 N 993.283 -1.25346 -0.955304 0
M  V30 10392 C 994.23 -1.05672 -2.05188 0
M  V30 10393 C 995.2 0.0339217 -1.66065 0
M  V30 10394 O 996.385 -0.123126 -1.90402 0
M  V30 10395 C 993.525 -0.680791 -3.38318 0
M  V30 10396 C 992.638 -1.84622 -3.90562 0
M  V30 10397 C 991.773 -1.41471 -5.12015 0
M  V30 10398 C 990.812 -2.54931 -5.56486 0
M  V30 10399 N 989.949 -2.1256 -6.69151 0
M  V30 10400 H 994.789 -1.9952 -2.2135 0
M  V30 10401 H 992.326 -0.993588 -1.08472 0
M  V30 10402 H 994.284 -0.443794 -4.14833 0
M  V30 10403 H 992.914 0.2207 -3.22045 0
M  V30 10404 H 991.966 -2.19654 -3.10574 0
M  V30 10405 H 993.278 -2.6983 -4.19515 0
M  V30 10406 H 992.432 -1.13732 -5.95945 0
M  V30 10407 H 991.171 -0.533334 -4.84775 0
M  V30 10408 H 990.176 -2.83415 -4.71122 0
M  V30 10409 H 991.401 -3.43645 -5.85734 0
M  V30 10410 H 989.347 -1.26838 -6.43621 0
M  V30 10411 H 989.264 -2.91317 -6.97618 0
M  V30 10412 H 990.532 -1.87996 -7.5649 0
M  V30 10413 N 994.761 1.15782 -1.06922 0
M  V30 10414 C 996.007 1.86741 -0.790922 0
M  V30 10415 C 996.34 1.81863 0.681149 0
M  V30 10416 O 995.615 1.23871 1.49954 0
M  V30 10417 C 995.898 3.36038 -1.29422 0
M  V30 10418 C 995.751 3.49573 -2.83052 0
M  V30 10419 C 997.07 4.30647 -0.907239 0
M  V30 10420 H 994.189 0.678064 -0.288787 0
M  V30 10421 H 996.831 1.36054 -1.32624 0
M  V30 10422 H 994.981 3.79336 -0.838843 0
M  V30 10423 H 996.653 3.1517 -3.36847 0
M  V30 10424 H 994.896 2.91275 -3.21467 0
M  V30 10425 H 995.567 4.5445 -3.13335 0
M  V30 10426 H 998.043 3.95286 -1.29956 0
M  V30 10427 H 996.919 5.33604 -1.28679 0
M  V30 10428 H 997.18 4.41703 0.187251 0
M  V30 10429 N 996.239 0.8527 1.3254 0
M  V30 10430 C 997.171 0.253181 2.27797 0
M  V30 10431 C 998.184 -0.573977 1.52346 0
M  V30 10432 O 999.373 -0.398786 1.73988 0
M  V30 10433 C 996.473 -0.661034 3.32391 0
M  V30 10434 C 995.646 0.12984 4.37207 0
M  V30 10435 C 994.705 -0.709837 5.2139 0
M  V30 10436 O 993.731 -0.144056 5.69018 0
M  V30 10437 N 994.933 -2.0249 5.44039 0
M  V30 10438 H 997.698 1.07171 2.79883 0
M  V30 10439 H 995.259 0.712491 1.45379 0
M  V30 10440 H 997.251 -1.22806 3.85617 0
M  V30 10441 H 995.821 -1.38025 2.80478 0
M  V30 10442 H 995.041 0.878289 3.84291 0
M  V30 10443 H 996.329 0.673141 5.04328 0
M  V30 10444 H 995.727 -2.50792 5.0707 0
M  V30 10445 H 994.284 -2.5401 6.00269 0
M  V30 10446 N 997.718 -1.45297 0.610449 0
M  V30 10447 C 998.964 -2.02518 0.106917 0
M  V30 10448 C 999.297 -1.47747 -1.26034 0
M  V30 10449 O 998.572 -0.65329 -1.832 0
M  V30 10450 C 998.855 -3.6003 0.0710975 0
M  V30 10451 C 998.708 -4.25128 1.46922 0
M  V30 10452 C 1000.03 -4.35778 -0.61524 0
M  V30 10453 H 997.146 -0.735896 0.040327 0
M  V30 10454 H 999.788 -1.73117 0.782968 0
M  V30 10455 H 997.938 -3.85209 -0.504611 0
M  V30 10456 H 999.61 -4.11125 2.09223 0
M  V30 10457 H 997.853 -3.83418 2.02911 0
M  V30 10458 H 998.524 -5.34046 1.39637 0
M  V30 10459 H 1001 -4.1591 -0.125871 0
M  V30 10460 H 999.876 -5.45506 -0.609419 0
M  V30 10461 H 1000.14 -4.08859 -1.68186 0
M  V30 10462 N 999.196 -0.349774 -1.5367 0
M  V30 10463 C 1000.42 0.248692 -2.05904 0
M  V30 10464 C 1000.85 1.42942 -1.22267 0
M  V30 10465 O 1000.2 1.79732 -0.237899 0
M  V30 10466 C 1000.25 0.635639 -3.54953 0
M  V30 10467 O 999.356 1.7349 -3.74132 0
M  V30 10468 H 998.697 0.0399477 -0.662797 0
M  V30 10469 H 1001.23 -0.505795 -1.9825 0
M  V30 10470 H 1001.24 0.911064 -3.97698 0
M  V30 10471 H 999.912 -0.227805 -4.15276 0
M  V30 10472 H 998.489 1.45626 -3.43289 0
M  V30 10473 N 1000.67 1.57404 -0.0785433 0
M  V30 10474 C 1001.92 1.9484 0.583853 0
M  V30 10475 C 1002.27 0.958758 1.6681 0
M  V30 10476 O 1001.57 -0.0179065 1.91592 0
M  V30 10477 C 1001.76 3.36684 1.1991 0
M  V30 10478 C 1001.59 4.49356 0.175978 0
M  V30 10479 C 1000.36 5.04721 -0.241733 0
M  V30 10480 C 1002.56 5.10911 -0.589415 0
M  V30 10481 N 1000.54 6.00938 -1.25485 0
M  V30 10482 C 1001.91 6.0269 -1.45483 0
M  V30 10483 C 1003.97 4.93708 -0.644746 0
M  V30 10484 C 1002.67 6.79111 -2.37066 0
M  V30 10485 C 1004.7 5.70778 -1.54812 0
M  V30 10486 C 1004.06 6.6221 -2.40119 0
M  V30 10487 H 1000.16 0.75993 0.184472 0
M  V30 10488 H 1002.74 1.94064 -0.157259 0
M  V30 10489 H 1000.91 3.38186 1.91011 0
M  V30 10490 H 1002.64 3.6134 1.82251 0
M  V30 10491 H 999.399 4.73385 0.142732 0
M  V30 10492 H 999.823 6.53746 -1.75912 0
M  V30 10493 H 1004.46 4.228 0.000601434 0
M  V30 10494 H 1002.18 7.49292 -3.02634 0
M  V30 10495 H 1005.77 5.59485 -1.59586 0
M  V30 10496 H 1004.65 7.20804 -3.08887 0
M  V30 10497 N 1002.15 -0.195058 1.56388 0
M  V30 10498 C 1003.1 -1.26122 1.95438 0
M  V30 10499 C 1004.09 -1.47117 0.839818 0
M  V30 10500 O 1005.3 -1.47978 1.02482 0
M  V30 10501 H 1001.67 -0.423422 0.621464 0
M  V30 10502 H 1003.65 -0.904854 2.8435 0
M  V30 10503 C 1002.39 -2.59858 2.31017 0
M  V30 10504 H 1001.72 -2.44519 3.16308 0
M  V30 10505 H 1003.16 -3.33205 2.62203 0
M  V30 10506 C 1001.62 -3.16853 1.14481 0
M  V30 10507 O 1002.15 -3.995 0.419853 0
M  V30 10508 N 1000.35 -2.75599 0.921604 0
M  V30 10509 H 999.9 -2.08495 1.51287 0
M  V30 10510 H 999.858 -3.14072 0.143663 0
M  V30 10511 N 1003.63 -1.50653 -0.462772 0
M  V30 10512 C 1004.85 -1.66103 -1.24196 0
M  V30 10513 C 1005.28 -0.347421 -1.84864 0
M  V30 10514 O 1004.64 0.689673 -1.6767 0
M  V30 10515 C 1004.69 -2.76027 -2.32037 0
M  V30 10516 O 1003.79 -2.37859 -3.36893 0
M  V30 10517 H 1003.13 -0.554672 -0.365014 0
M  V30 10518 H 1005.66 -1.97076 -0.549734 0
M  V30 10519 H 1005.67 -2.99354 -2.77221 0
M  V30 10520 H 1004.35 -3.71361 -1.87253 0
M  V30 10521 H 1002.92 -2.2501 -2.97363 0
M  V30 10522 N 1005.11 0.71652 -1.4037 0
M  V30 10523 C 1006.34 1.50563 -1.4191 0
M  V30 10524 C 1006.75 1.88791 -0.0185456 0
M  V30 10525 O 1006.11 1.55378 0.957289 0
M  V30 10526 C 1006.16 2.78155 -2.30894 0
M  V30 10527 O 1005.88 2.41543 -3.65497 0
M  V30 10528 C 1007.38 3.72057 -2.41016 0
M  V30 10529 H 1004.6 0.464679 -0.48406 0
M  V30 10530 H 1007.15 0.883927 -1.8441 0
M  V30 10531 H 1005.3 3.36611 -1.91759 0
M  V30 10532 H 1005.71 3.23636 -4.12747 0
M  V30 10533 H 1007.19 4.58426 -3.07489 0
M  V30 10534 H 1007.67 4.15098 -1.43492 0
M  V30 10535 H 1008.27 3.19512 -2.80699 0
M  V30 10536 N 1006.59 1.25851 0.948643 0
M  V30 10537 C 1007.84 1.10347 1.68838 0
M  V30 10538 C 1008.15 -0.354262 1.92365 0
M  V30 10539 O 1009.35 -0.629847 2.64093 0
M  V30 10540 C 1007.81 1.92659 3.03991 0
M  V30 10541 C 1007.42 3.42962 2.88238 0
M  V30 10542 C 1009.16 1.85743 3.81707 0
M  V30 10543 C 1007.07 4.17547 4.18818 0
M  V30 10544 H 1006 0.409342 0.63321 0
M  V30 10545 H 1008.65 1.50098 1.05559 0
M  V30 10546 H 1007.03 1.45736 3.68208 0
M  V30 10547 H 1008.21 3.97601 2.32917 0
M  V30 10548 H 1006.52 3.51035 2.23972 0
M  V30 10549 H 1009.12 2.38758 4.78434 0
M  V30 10550 H 1009.46 0.826568 4.08012 0
M  V30 10551 H 1009.99 2.30449 3.2425 0
M  V30 10552 H 1006.73 5.21072 3.97699 0
M  V30 10553 H 1006.25 3.6769 4.73882 0
M  V30 10554 H 1007.93 4.25589 4.87322 0
M  V30 10555 N 1008.06 -1.15214 1.07534 0
M  V30 10556 C 1009.29 -1.89922 0.820804 0
M  V30 10557 C 1009.71 -1.78114 -0.626177 0
M  V30 10558 O 1009.06 -1.13435 -1.42964 0
M  V30 10559 C 1009.12 -3.40207 1.22236 0
M  V30 10560 O 1008.84 -3.51676 2.61257 0
M  V30 10561 C 1010.34 -4.31934 0.997393 0
M  V30 10562 H 1007.56 -0.601865 0.296647 0
M  V30 10563 H 1010.1 -1.45965 1.43229 0
M  V30 10564 H 1008.26 -3.8182 0.655167 0
M  V30 10565 H 1008.67 -4.44959 2.77689 0
M  V30 10566 H 1010.14 -5.35791 1.32785 0
M  V30 10567 H 1010.62 -4.3915 -0.0661599 0
M  V30 10568 H 1011.23 -3.96066 1.54958 0
M  V30 10569 N 1009.54 -0.859717 -1.32086 0
M  V30 10570 C 1010.47 -0.265258 -2.2766 0
M  V30 10571 C 1011.49 0.565889 -1.52648 0
M  V30 10572 O 1012.68 0.389554 -1.74197 0
M  V30 10573 C 1009.78 0.643397 -3.32737 0
M  V30 10574 C 1008.95 -0.153024 -4.37132 0
M  V30 10575 C 1008.01 0.682176 -5.21759 0
M  V30 10576 O 1007.03 0.113878 -5.69086 0
M  V30 10577 N 1008.24 1.99602 -5.45105 0
M  V30 10578 H 1011 -1.08653 -2.79311 0
M  V30 10579 H 1008.56 -0.720191 -1.45 0
M  V30 10580 H 1010.55 1.20759 -3.86263 0
M  V30 10581 H 1009.12 1.36535 -2.81206 0
M  V30 10582 H 1008.34 -0.898657 -3.8382 0
M  V30 10583 H 1009.63 -0.699877 -5.03963 0
M  V30 10584 H 1009.03 2.481 -5.08393 0
M  V30 10585 H 1007.59 2.50823 -6.01607 0
M  V30 10586 N 1011.02 1.44971 -0.618145 0
M  V30 10587 C 1011.93 2.34403 0.0960457 0
M  V30 10588 C 1012.95 1.51862 0.849355 0
M  V30 10589 O 1014.12 1.84632 0.804557 0
M  V30 10590 C 1011.19 3.29646 1.07397 0
M  V30 10591 C 1010.25 4.28095 0.321466 0
M  V30 10592 C 1009.48 5.18787 1.25281 0
M  V30 10593 O 1009.7 5.1313 2.49106 0
M  V30 10594 O 1008.64 5.97282 0.744156 0
M  V30 10595 H 1012.46 2.96898 -0.639176 0
M  V30 10596 H 1010.05 1.44529 -0.37837 0
M  V30 10597 H 1011.93 3.88307 1.63694 0
M  V30 10598 H 1010.61 2.69702 1.79004 0
M  V30 10599 H 1009.51 3.73019 -0.284223 0
M  V30 10600 H 1010.85 4.90923 -0.354315 0
M  V30 10601 N 1012.5 0.357919 1.53482 0
M  V30 10602 C 1013.41 -0.500273 2.29204 0
M  V30 10603 C 1014.42 -1.09936 1.3487 0
M  V30 10604 O 1015.6 -1.11195 1.67921 0
M  V30 10605 C 1012.67 -1.62828 3.06085 0
M  V30 10606 C 1011.73 -1.05751 4.16071 0
M  V30 10607 C 1010.96 -2.13176 4.89277 0
M  V30 10608 O 1011.18 -3.34153 4.62274 0
M  V30 10609 O 1010.12 -1.76663 5.7539 0
M  V30 10610 H 1013.94 0.115696 3.0348 0
M  V30 10611 H 1011.53 0.122527 1.48897 0
M  V30 10612 H 1013.41 -2.28427 3.54117 0
M  V30 10613 H 1012.08 -2.22979 2.34653 0
M  V30 10614 H 1010.99 -0.365642 3.72309 0
M  V30 10615 H 1012.32 -0.500661 4.89647 0
M  V30 10616 N 1013.98 -1.5736 0.0868897 0
M  V30 10617 C 1015.39 -1.57304 -0.269762 0
M  V30 10618 C 1015.59 -1.09745 -1.68992 0
M  V30 10619 O 1014.65 -0.77017 -2.40468 0
M  V30 10620 C 1015.96 -3.00628 -0.0656646 0
M  V30 10621 C 1017.51 -3.12713 -0.134045 0
M  V30 10622 C 1017.98 -4.57981 0.0419569 0
M  V30 10623 N 1019.48 -4.63198 -0.0131501 0
M  V30 10624 C 1020.21 -5.73316 0.0983964 0
M  V30 10625 N 1019.71 -6.92296 0.264315 0
M  V30 10626 N 1021.5 -5.62086 0.0402517 0
M  V30 10627 H 1013.65 -1.86585 1.01487 0
M  V30 10628 H 1015.91 -0.860843 0.397055 0
M  V30 10629 H 1015.62 -3.39592 0.914891 0
M  V30 10630 H 1015.49 -3.68367 -0.811522 0
M  V30 10631 H 1017.88 -2.73627 -1.1051 0
M  V30 10632 H 1017.96 -2.47582 0.643167 0
M  V30 10633 H 1017.61 -4.9776 1.00984 0
M  V30 10634 H 1017.54 -5.21162 -0.754847 0
M  V30 10635 H 1020.03 -3.77644 -0.139183 0
M  V30 10636 H 1020.34 -7.72047 0.341165 0
M  V30 10637 H 1018.68 -6.94353 0.299876 0
M  V30 10638 H 1021.88 -4.68017 -0.0881801 0
M  V30 10639 H 1022.05 -6.47868 0.130635 0
M  V30 10640 N 1015.45 0.186762 -1.56489 0
M  V30 10641 C 1016.4 1.25084 -1.96104 0
M  V30 10642 C 1017.4 1.4667 -0.847609 0
M  V30 10643 O 1018.6 1.47432 -1.03266 0
M  V30 10644 H 1014.98 0.420121 -0.623701 0
M  V30 10645 H 1016.95 0.889761 -2.84826 0
M  V30 10646 C 1015.7 2.5863 -2.32392 0
M  V30 10647 H 1015.02 2.42838 -3.176 0
M  V30 10648 H 1016.46 3.3181 -2.63967 0
M  V30 10649 C 1014.92 3.16241 -1.16159 0
M  V30 10650 O 1015.45 3.99272 -0.441034 0
M  V30 10651 N 1013.66 2.75106 -0.936206 0
M  V30 10652 H 1013.2 2.0769 -1.5239 0
M  V30 10653 H 1013.16 3.13991 -0.160317 0
M  V30 10654 N 1016.93 1.50896 0.454776 0
M  V30 10655 C 1018.18 1.6294 1.20741 0
M  V30 10656 C 1018.51 0.336339 1.91265 0
M  V30 10657 O 1017.79 -0.663153 1.82846 0
M  V30 10658 C 1018.07 2.82092 2.23822 0
M  V30 10659 C 1017.92 4.21326 1.57495 0
M  V30 10660 C 1019.24 2.96777 3.24979 0
M  V30 10661 H 1016.36 0.59302 0.437603 0
M  V30 10662 H 1019 1.83331 0.498959 0
M  V30 10663 H 1017.15 2.64837 2.84243 0
M  V30 10664 H 1018.82 4.50209 1.00546 0
M  V30 10665 H 1017.07 4.24829 0.877664 0
M  V30 10666 H 1017.74 5.00656 2.32482 0
M  V30 10667 H 1020.21 3.12627 2.74597 0
M  V30 10668 H 1019.09 3.81742 3.94416 0
M  V30 10669 H 1019.35 2.08091 3.90065 0
M  V30 10670 N 1018.41 -0.709066 1.40748 0
M  V30 10671 C 1019.34 -1.83583 1.4429 0
M  V30 10672 C 1020.32 -1.67378 0.303067 0
M  V30 10673 O 1021.51 -1.87312 0.512612 0
M  V30 10674 C 1018.64 -3.21599 1.31116 0
M  V30 10675 C 1017.59 -3.52486 2.4277 0
M  V30 10676 C 1016.92 -4.89716 2.14668 0
M  V30 10677 C 1018.22 -3.52824 3.85113 0
M  V30 10678 H 1019.91 -1.80876 2.38588 0
M  V30 10679 H 1017.46 -0.868795 1.14839 0
M  V30 10680 H 1019.41 -4.00123 1.32209 0
M  V30 10681 H 1018.13 -3.24898 0.332965 0
M  V30 10682 H 1016.79 -2.76305 2.40937 0
M  V30 10683 H 1016.44 -4.89625 1.15224 0
M  V30 10684 H 1016.14 -5.11347 2.89478 0
M  V30 10685 H 1017.66 -5.70566 2.17455 0
M  V30 10686 H 1019.08 -4.21377 3.88734 0
M  V30 10687 H 1017.48 -3.85984 4.59496 0
M  V30 10688 H 1018.55 -2.52073 4.14231 0
M  V30 10689 N 1019.89 -1.26353 -0.941956 0
M  V30 10690 C 1021.14 -1.11241 -1.68251 0
M  V30 10691 C 1021.45 0.344055 -1.9255 0
M  V30 10692 O 1022.66 0.615832 -2.64423 0
M  V30 10693 C 1021.11 -1.94269 -3.02965 0
M  V30 10694 C 1020.72 -3.44485 -2.86415 0
M  V30 10695 C 1022.47 -1.87764 -3.80716 0
M  V30 10696 C 1020.37 -4.19763 -4.16597 0
M  V30 10697 H 1019.3 -0.412694 -0.63103 0
M  V30 10698 H 1021.95 -1.50656 -1.04762 0
M  V30 10699 H 1020.34 -1.47687 -3.6743 0
M  V30 10700 H 1021.51 -3.9883 -2.30805 0
M  V30 10701 H 1019.82 -3.52218 -2.22107 0
M  V30 10702 H 1022.42 -2.41292 -4.77161 0
M  V30 10703 H 1022.76 -0.848195 -4.07568 0
M  V30 10704 H 1023.3 -2.32165 -3.23024 0
M  V30 10705 H 1020.04 -5.23173 -3.9493 0
M  V30 10706 H 1019.56 -3.70198 -4.71925 0
M  V30 10707 H 1021.24 -4.28168 -4.85058 0
M  V30 10708 N 1021.37 1.14642 -1.08144 0
M  V30 10709 C 1022.31 2.1964 -0.708995 0
M  V30 10710 C 1023.28 1.63303 0.303512 0
M  V30 10711 O 1024.47 1.8987 0.18813 0
M  V30 10712 C 1021.61 3.44886 -0.121585 0
M  V30 10713 C 1020.72 4.15386 -1.18654 0
M  V30 10714 C 1019.86 5.28205 -0.56328 0
M  V30 10715 C 1018.9 5.90534 -1.61046 0
M  V30 10716 N 1018.03 6.94809 -1.00919 0
M  V30 10717 H 1022.87 2.50848 -1.6087 0
M  V30 10718 H 1020.41 1.23185 -0.803975 0
M  V30 10719 H 1022.37 4.16528 0.23668 0
M  V30 10720 H 1021 3.14169 0.741445 0
M  V30 10721 H 1020.05 3.42159 -1.66227 0
M  V30 10722 H 1021.36 4.57809 -1.9802 0
M  V30 10723 H 1020.52 6.06507 -0.153109 0
M  V30 10724 H 1019.26 4.86995 0.262066 0
M  V30 10725 H 1018.26 5.10938 -2.03033 0
M  V30 10726 H 1019.49 6.33819 -2.43824 0
M  V30 10727 H 1017.43 6.5568 -0.204894 0
M  V30 10728 H 1017.35 7.35704 -1.73999 0
M  V30 10729 H 1018.62 7.76992 -0.624792 0
M  V30 10730 N 1022.85 0.866709 1.31628 0
M  V30 10731 C 1023.79 0.318169 2.28596 0
M  V30 10732 C 1024.76 -0.581558 1.55586 0
M  V30 10733 O 1025.95 -0.513895 1.83749 0
M  V30 10734 C 1023.09 -0.477137 3.41786 0
M  V30 10735 C 1022.2 0.449739 4.29653 0
M  V30 10736 C 1021.34 -0.359373 5.29983 0
M  V30 10737 C 1020.37 0.564138 6.09495 0
M  V30 10738 N 1019.51 -0.208526 7.0179 0
M  V30 10739 H 1024.35 1.15029 2.74904 0
M  V30 10740 H 1021.89 0.578649 1.35241 0
M  V30 10741 H 1023.85 -0.953985 4.06146 0
M  V30 10742 H 1022.48 -1.27398 2.96597 0
M  V30 10743 H 1021.53 1.04502 3.65764 0
M  V30 10744 H 1022.84 1.158 4.85172 0
M  V30 10745 H 1021.99 -0.89887 6.00004 0
M  V30 10746 H 1020.73 -1.10094 4.75111 0
M  V30 10747 H 1019.74 1.11542 5.38366 0
M  V30 10748 H 1020.96 1.30451 6.66453 0
M  V30 10749 H 1018.91 -0.932969 6.49332 0
M  V30 10750 H 1018.83 0.440463 7.54716 0
M  V30 10751 H 1020.09 -0.72936 7.7608 0
M  V30 10752 N 1024.32 -1.44642 0.625825 0
M  V30 10753 C 1025.27 -2.32408 -0.0945221 0
M  V30 10754 C 1026.27 -1.47038 -0.841198 0
M  V30 10755 O 1027.47 -1.63415 -0.754698 0
M  V30 10756 H 1023.85 -0.75038 -0.0493321 0
M  V30 10757 H 1025.82 -2.90922 0.663863 0
M  V30 10758 C 1024.57 -3.30951 -1.06615 0
M  V30 10759 H 1023.89 -3.96648 -0.501021 0
M  V30 10760 H 1025.33 -3.95054 -1.53976 0
M  V30 10761 C 1023.79 -2.59479 -2.14877 0
M  V30 10762 O 1024.32 -2.38974 -3.22885 0
M  V30 10763 N 1022.52 -2.19307 -1.90665 0
M  V30 10764 H 1022.07 -2.36184 -1.02835 0
M  V30 10765 H 1022.03 -1.71811 -2.63303 0
M  V30 10766 N 1025.8 -0.366053 -1.5329 0
M  V30 10767 C 1026.73 0.47211 -2.28677 0
M  V30 10768 C 1027.71 1.08353 -1.31125 0
M  V30 10769 O 1028.9 1.10069 -1.59995 0
M  V30 10770 C 1026.03 1.61174 -3.07637 0
M  V30 10771 C 1024.98 1.12755 -4.12881 0
M  V30 10772 C 1024.31 2.35745 -4.79925 0
M  V30 10773 C 1025.61 0.211954 -5.2187 0
M  V30 10774 H 1027.3 -0.156838 -2.98989 0
M  V30 10775 H 1024.85 -0.0768709 -1.43795 0
M  V30 10776 H 1026.8 2.20473 -3.59123 0
M  V30 10777 H 1025.52 2.26793 -2.35016 0
M  V30 10778 H 1024.18 0.557234 -3.6234 0
M  V30 10779 H 1023.83 2.99821 -4.03877 0
M  V30 10780 H 1023.53 2.04019 -5.51044 0
M  V30 10781 H 1025.06 2.95729 -5.34207 0
M  V30 10782 H 1026.47 0.71244 -5.68856 0
M  V30 10783 H 1024.87 -0.0144501 -6.00098 0
M  V30 10784 H 1025.94 -0.745753 -4.79131 0
M  V30 10785 N 1027.28 1.57312 -0.0952337 0
M  V30 10786 C 1028.19 2.17556 0.877877 0
M  V30 10787 C 1029.21 1.14505 1.31014 0
M  V30 10788 O 1030.38 1.46876 1.37802 0
M  V30 10789 C 1027.45 2.74413 2.11892 0
M  V30 10790 C 1026.51 3.92419 1.74085 0
M  V30 10791 C 1025.74 4.46556 2.92273 0
M  V30 10792 O 1025.96 3.99631 4.07002 0
M  V30 10793 O 1024.9 5.37576 2.70732 0
M  V30 10794 H 1028.72 3.01116 0.395312 0
M  V30 10795 H 1026.31 1.48841 0.129123 0
M  V30 10796 H 1028.19 3.10754 2.84622 0
M  V30 10797 H 1026.87 1.93899 2.59201 0
M  V30 10798 H 1025.77 3.6089 0.985346 0
M  V30 10799 H 1027.11 4.74298 1.31539 0
M  V30 10800 N 1028.76 -0.17846 1.56586 0
M  V30 10801 C 1029.69 -1.22342 1.98884 0
M  V30 10802 C 1030.67 -1.46564 0.86331 0
M  V30 10803 O 1031.85 -1.58019 1.12887 0
M  V30 10804 C 1028.98 -2.56396 2.34261 0
M  V30 10805 C 1027.94 -2.46756 3.49708 0
M  V30 10806 C 1027.26 -3.85235 3.70807 0
M  V30 10807 C 1028.56 -1.97838 4.83381 0
M  V30 10808 H 1030.26 -0.871848 2.86425 0
M  V30 10809 H 1027.8 -0.417948 1.37801 0
M  V30 10810 H 1029.76 -3.29695 2.62448 0
M  V30 10811 H 1028.48 -2.93327 1.43621 0
M  V30 10812 H 1027.14 -1.75912 3.21637 0
M  V30 10813 H 1026.79 -4.19547 2.7747 0
M  V30 10814 H 1026.49 -3.79655 4.48481 0
M  V30 10815 H 1028.01 -4.60131 4.01387 0
M  V30 10816 H 1029.43 -2.60906 5.10491 0
M  V30 10817 H 1027.82 -2.03223 5.64642 0
M  V30 10818 H 1028.89 -0.932339 4.75852 0
M  V30 10819 N 1030.24 -1.51135 -0.446768 0
M  V30 10820 C 1031.46 -1.67411 -1.22427 0
M  V30 10821 C 1031.89 -0.367009 -1.84485 0
M  V30 10822 O 1031.24 0.67185 -1.68392 0
M  V30 10823 C 1031.29 -2.78473 -2.29096 0
M  V30 10824 O 1030.4 -2.41419 -3.34351 0
M  V30 10825 H 1029.74 -0.558512 -0.359111 0
M  V30 10826 H 1032.27 -1.97648 -0.5288 0
M  V30 10827 H 1032.28 -3.02277 -2.7403 0
M  V30 10828 H 1030.95 -3.73326 -1.83304 0
M  V30 10829 H 1029.53 -2.28152 -2.9496 0
M  V30 10830 N 1031.71 0.701592 -1.41122 0
M  V30 10831 C 1032.65 1.8268 -1.38422 0
M  V30 10832 C 1033.66 1.60244 -0.287342 0
M  V30 10833 O 1034.85 1.69859 -0.548658 0
M  V30 10834 C 1031.95 3.19338 -1.13475 0
M  V30 10835 C 1031.12 3.68853 -2.35088 0
M  V30 10836 C 1030.18 4.84163 -2.06089 0
M  V30 10837 O 1029.21 4.9609 -2.79077 0
M  V30 10838 N 1030.41 5.70972 -1.04743 0
M  V30 10839 H 1033.17 1.8549 -2.35401 0
M  V30 10840 H 1030.73 0.883682 -1.35656 0
M  V30 10841 H 1032.73 3.94095 -0.920377 0
M  V30 10842 H 1031.3 3.11589 -0.251152 0
M  V30 10843 H 1030.52 2.8507 -2.72266 0
M  V30 10844 H 1031.8 3.98673 -3.16129 0
M  V30 10845 H 1031.2 5.63961 -0.443221 0
M  V30 10846 H 1029.76 6.45654 -0.892949 0
M  V30 10847 N 1033.19 1.2685 0.935242 0
M  V30 10848 C 1034.14 1.08923 2.03481 0
M  V30 10849 C 1035.11 -0.00749786 1.66098 0
M  V30 10850 O 1036.29 0.153401 1.90182 0
M  V30 10851 C 1033.43 0.734529 3.37192 0
M  V30 10852 C 1032.55 1.90812 3.87576 0
M  V30 10853 C 1031.68 1.49599 5.097 0
M  V30 10854 C 1030.72 2.63752 5.5236 0
M  V30 10855 N 1029.86 2.23179 6.65684 0
M  V30 10856 H 1034.7 2.03016 2.18148 0
M  V30 10857 H 1032.23 1.01072 1.06878 0
M  V30 10858 H 1034.19 0.509734 4.14074 0
M  V30 10859 H 1032.82 -0.169438 3.22355 0
M  V30 10860 H 1031.87 2.24567 3.0704 0
M  V30 10861 H 1033.19 2.7647 4.1517 0
M  V30 10862 H 1032.34 1.23199 5.9406 0
M  V30 10863 H 1031.08 0.61039 4.83865 0
M  V30 10864 H 1030.08 2.90874 4.66554 0
M  V30 10865 H 1031.31 3.5292 5.80193 0
M  V30 10866 H 1029.26 1.37061 6.41522 0
M  V30 10867 H 1029.17 3.02379 6.92895 0
M  V30 10868 H 1030.44 2.00007 7.53404 0
M  V30 10869 N 1034.67 -1.14067 1.0875 0
M  V30 10870 C 1035.63 -2.17453 0.724341 0
M  V30 10871 C 1036.63 -1.58959 -0.242614 0
M  V30 10872 O 1037.82 -1.74186 -0.0217008 0
M  V30 10873 C 1034.96 -3.40828 0.0700236 0
M  V30 10874 H 1036.15 -2.51094 1.63987 0
M  V30 10875 H 1033.7 -1.28775 0.885813 0
M  V30 10876 H 1034.44 -3.1277 -0.857061 0
M  V30 10877 H 1034.22 -3.84551 0.76569 0
M  V30 10878 H 1035.71 -4.17258 -0.168905 0
M  V30 10879 N 1036.15 -0.873678 -1.31166 0
M  V30 10880 C 1037.08 -0.348011 -2.30892 0
M  V30 10881 C 1038.06 0.563092 -1.60509 0
M  V30 10882 O 1039.24 0.479332 -1.88192 0
M  V30 10883 C 1036.37 0.448158 -3.44396 0
M  V30 10884 C 1035.33 -0.370179 -4.26396 0
M  V30 10885 C 1034.65 0.551903 -5.31844 0
M  V30 10886 C 1035.95 -1.60624 -4.96988 0
M  V30 10887 H 1037.65 -1.18134 -2.75109 0
M  V30 10888 H 1035.19 -0.569502 -1.3226 0
M  V30 10889 H 1037.15 0.826458 -4.13216 0
M  V30 10890 H 1035.87 1.31503 -2.98956 0
M  V30 10891 H 1034.53 -0.730472 -3.59249 0
M  V30 10892 H 1034.18 1.41616 -4.82653 0
M  V30 10893 H 1033.88 0.00823478 -5.87599 0
M  V30 10894 H 1035.4 0.926965 -6.03523 0
M  V30 10895 H 1036.82 -1.29917 -5.58386 0
M  V30 10896 H 1035.21 -2.08926 -5.62557 0
M  V30 10897 H 1036.28 -2.357 -4.23761 0
M  V30 10898 N 1037.63 1.44308 -0.633487 0
M  V30 10899 C 1039.04 1.56768 -0.29931 0
M  V30 10900 C 1039.24 1.62061 1.19743 0
M  V30 10901 O 1038.3 1.56492 1.98158 0
M  V30 10902 C 1039.61 2.8382 -0.993307 0
M  V30 10903 C 1041.16 2.97536 -0.971674 0
M  V30 10904 C 1041.63 4.27393 -1.64618 0
M  V30 10905 N 1043.13 4.34212 -1.61288 0
M  V30 10906 C 1043.86 5.33415 -2.1037 0
M  V30 10907 N 1043.36 6.3901 -2.67653 0
M  V30 10908 N 1045.15 5.24939 -2.00985 0
M  V30 10909 H 1037.3 1.39115 -1.60501 0
M  V30 10910 H 1039.56 0.666804 -0.673852 0
M  V30 10911 H 1039.27 2.85902 -2.04823 0
M  V30 10912 H 1039.14 3.73422 -0.532537 0
M  V30 10913 H 1041.53 2.95005 0.0747854 0
M  V30 10914 H 1041.61 2.09276 -1.47096 0
M  V30 10915 H 1041.26 4.30683 -2.6921 0
M  V30 10916 H 1041.19 5.14515 -1.12171 0
M  V30 10917 H 1043.68 3.58519 -1.19468 0
M  V30 10918 H 1043.99 7.10994 -3.02831 0
M  V30 10919 H 1042.33 6.39689 -2.71705 0
M  V30 10920 H 1045.53 4.41357 -1.55953 0
M  V30 10921 H 1045.7 6.02097 -2.39547 0
M  V30 10922 N 1039.1 0.374177 1.53094 0
M  V30 10923 C 1040.35 -0.213131 2.01677 0
M  V30 10924 C 1040.68 -1.47715 1.26071 0
M  V30 10925 O 1039.96 -1.91199 0.356834 0
M  V30 10926 C 1040.24 -0.496392 3.56662 0
M  V30 10927 C 1040.09 0.781859 4.42953 0
M  V30 10928 C 1041.41 -1.29339 4.20666 0
M  V30 10929 H 1038.53 -0.0759885 0.733072 0
M  V30 10930 H 1041.17 0.500765 1.83282 0
M  V30 10931 H 1039.32 -1.10455 3.72467 0
M  V30 10932 H 1041 1.41914 4.38928 0
M  V30 10933 H 1039.24 1.40041 4.10574 0
M  V30 10934 H 1039.91 0.538508 5.49367 0
M  V30 10935 H 1042.39 -0.778848 4.08746 0
M  V30 10936 H 1041.26 -1.46033 5.29118 0
M  V30 10937 H 1041.52 -2.30435 3.77296 0
M  V30 10938 N 1040.58 -1.57259 0.103575 0
M  V30 10939 C 1041.51 -2.17509 -0.84923 0
M  V30 10940 C 1042.49 -1.11079 -1.28824 0
M  V30 10941 O 1043.68 -1.39252 -1.35361 0
M  V30 10942 C 1040.81 -2.76221 -2.10522 0
M  V30 10943 C 1039.76 -3.88098 -1.80454 0
M  V30 10944 C 1039.09 -4.33549 -3.12952 0
M  V30 10945 C 1040.39 -5.10909 -1.08486 0
M  V30 10946 H 1042.08 -2.9738 -0.347217 0
M  V30 10947 H 1039.63 -1.43045 -0.165568 0
M  V30 10948 H 1041.58 -3.17024 -2.77621 0
M  V30 10949 H 1040.31 -1.93617 -2.63021 0
M  V30 10950 H 1038.96 -3.47847 -1.15749 0
M  V30 10951 H 1038.61 -3.47825 -3.63355 0
M  V30 10952 H 1038.31 -5.08984 -2.93614 0
M  V30 10953 H 1039.84 -4.76992 -3.81196 0
M  V30 10954 H 1041.25 -5.48828 -1.65711 0
M  V30 10955 H 1039.65 -5.91828 -0.992973 0
M  V30 10956 H 1040.72 -4.84851 -0.0690108 0
M  V30 10957 N 1042.06 0.170153 -1.56679 0
M  V30 10958 C 1043.29 0.90618 -1.86556 0
M  V30 10959 C 1043.71 1.74986 -0.690044 0
M  V30 10960 O 1043.07 1.77672 0.360862 0
M  V30 10961 C 1043.12 1.75777 -3.14857 0
M  V30 10962 O 1042.22 2.85952 -2.97162 0
M  V30 10963 H 1041.56 0.253781 -0.613589 0
M  V30 10964 H 1044.09 0.167943 -2.0391 0
M  V30 10965 H 1044.1 2.15747 -3.46291 0
M  V30 10966 H 1042.78 1.13807 -4.00026 0
M  V30 10967 H 1041.35 2.49557 -2.77084 0
M  V30 10968 N 1043.54 1.5137 0.438746 0
M  V30 10969 C 1044.79 1.63202 1.18524 0
M  V30 10970 C 1045.1 0.353408 1.92381 0
M  V30 10971 O 1046.31 0.351086 2.6922 0
M  V30 10972 C 1044.76 2.88218 2.15542 0
M  V30 10973 C 1044.37 4.23078 1.47339 0
M  V30 10974 C 1046.11 3.09407 2.90633 0
M  V30 10975 C 1044.02 5.39246 2.42833 0
M  V30 10976 H 1042.95 0.607864 0.446114 0
M  V30 10977 H 1045.6 1.77835 0.452421 0
M  V30 10978 H 1043.98 2.67216 2.92253 0
M  V30 10979 H 1045.16 4.54457 0.761964 0
M  V30 10980 H 1043.47 4.07755 0.844065 0
M  V30 10981 H 1046.07 3.9337 3.62165 0
M  V30 10982 H 1046.41 2.22428 3.51897 0
M  V30 10983 H 1046.95 3.30743 2.21029 0
M  V30 10984 H 1043.69 6.2848 1.8626 0
M  V30 10985 H 1043.21 5.12245 3.12034 0
M  V30 10986 H 1044.88 5.71137 3.03992 0
M  V30 10987 N 1045.02 -0.694098 1.41492 0
M  V30 10988 C 1046.26 -1.46637 1.42398 0
M  V30 10989 C 1046.62 -1.91973 0.0321256 0
M  V30 10990 O 1047.82 -2.68669 -0.0840324 0
M  V30 10991 C 1046.09 -2.64474 2.40392 0
M  V30 10992 S 1047.65 -3.53595 2.59838 0
M  V30 10993 H 1044.47 -0.501074 0.504427 0
M  V30 10994 H 1047.07 -0.809761 1.77941 0
M  V30 10995 H 1045.78 -2.29374 3.40317 0
M  V30 10996 H 1045.31 -3.35026 2.06206 0
M  V30 10997 H 1047.32 -4.59741 1.86689 0
M  V30 10998 N 1046.49 -1.27344 -0.928501 0
M  V30 10999 C 1047.74 -1.13019 -1.67061 0
M  V30 11000 C 1048.06 0.323614 -1.92904 0
M  V30 11001 O 1049.26 0.587752 -2.65062 0
M  V30 11002 C 1047.72 -1.97471 -3.00887 0
M  V30 11003 C 1047.33 -3.47504 -2.82746 0
M  V30 11004 C 1049.07 -1.91792 -3.78703 0
M  V30 11005 C 1046.98 -4.24158 -4.12122 0
M  V30 11006 H 1045.91 -0.419364 -0.626618 0
M  V30 11007 H 1048.56 -1.51759 -1.03158 0
M  V30 11008 H 1046.94 -1.51576 -3.65843 0
M  V30 11009 H 1048.11 -4.01256 -2.26562 0
M  V30 11010 H 1046.43 -3.54554 -2.18359 0
M  V30 11011 H 1049.03 -2.46339 -4.74575 0
M  V30 11012 H 1049.37 -0.891375 -4.06645 0
M  V30 11013 H 1049.9 -2.35578 -3.20543 0
M  V30 11014 H 1046.64 -5.27333 -3.89359 0
M  V30 11015 H 1046.16 -3.75183 -4.67972 0
M  V30 11016 H 1047.84 -4.33288 -4.80489 0
M  V30 11017 N 1047.97 1.13488 -1.09353 0
M  V30 11018 C 1048.92 2.18876 -0.732251 0
M  V30 11019 C 1049.89 1.63616 0.286175 0
M  V30 11020 O 1051.07 1.90059 0.167981 0
M  V30 11021 C 1048.21 3.44737 -0.158157 0
M  V30 11022 C 1047.33 4.14104 -1.23053 0
M  V30 11023 C 1046.46 5.27578 -0.619272 0
M  V30 11024 C 1045.5 5.88793 -1.67301 0
M  V30 11025 N 1044.64 6.937 -1.08283 0
M  V30 11026 H 1049.48 2.49128 -1.63522 0
M  V30 11027 H 1047.02 1.22326 -0.816995 0
M  V30 11028 H 1048.97 4.16756 0.192488 0
M  V30 11029 H 1047.6 3.14938 0.708082 0
M  V30 11030 H 1046.66 3.40376 -1.69847 0
M  V30 11031 H 1047.97 4.55683 -2.02865 0
M  V30 11032 H 1047.12 6.0631 -0.217428 0
M  V30 11033 H 1045.86 4.87246 0.210399 0
M  V30 11034 H 1044.87 5.08756 -2.0844 0
M  V30 11035 H 1046.09 6.31197 -2.50533 0
M  V30 11036 H 1044.04 6.55426 -0.274426 0
M  V30 11037 H 1043.95 7.33817 -1.81792 0
M  V30 11038 H 1045.22 7.76286 -0.707167 0
M  V30 11039 N 1049.45 0.880621 1.30701 0
M  V30 11040 C 1050.86 0.547993 1.78477 0
M  V30 11041 C 1051.21 -0.935633 1.72454 0
M  V30 11042 O 1050.34 -1.73094 1.29874 0
M  V30 11043 C 1050.93 0.98795 3.24076 0
M  V30 11044 C 1049.49 0.706805 3.69704 0
M  V30 11045 C 1048.64 1.17335 2.51252 0
M  V30 11046 H 1051.59 1.06528 1.17633 0
M  V30 11047 H 1051.61 0.31508 3.79193 0
M  V30 11048 H 1051.12 2.06778 3.28427 0
M  V30 11049 H 1049.22 -0.36122 3.70845 0
M  V30 11050 H 1049.34 1.2913 4.6137 0
M  V30 11051 H 1047.7 0.592808 2.47705 0
M  V30 11052 H 1048.48 2.26083 2.58343 0
M  V30 11053 N 1050.93 -1.4397 0.641131 0
M  V30 11054 C 1051.86 -2.33458 -0.04446 0
M  V30 11055 C 1052.84 -1.48781 -0.824507 0
M  V30 11056 O 1054.03 -1.77477 -0.788397 0
M  V30 11057 C 1051.16 -3.31989 -1.01984 0
M  V30 11058 C 1050.11 -4.2656 -0.350745 0
M  V30 11059 C 1049.44 -5.15036 -1.43673 0
M  V30 11060 C 1050.74 -5.16897 0.749299 0
M  V30 11061 H 1052.43 -2.91034 0.702832 0
M  V30 11062 H 1049.98 -1.39942 0.339435 0
M  V30 11063 H 1051.93 -3.93483 -1.50828 0
M  V30 11064 H 1050.65 -2.72643 -1.79815 0
M  V30 11065 H 1049.31 -3.66413 0.117139 0
M  V30 11066 H 1048.96 -4.52037 -2.20617 0
M  V30 11067 H 1048.66 -5.79125 -0.994358 0
M  V30 11068 H 1050.18 -5.79403 -1.92678 0
M  V30 11069 H 1051.6 -5.7227 0.343534 0
M  V30 11070 H 1049.99 -5.89643 1.11541 0
M  V30 11071 H 1051.06 -4.5731 1.61232 0
M  V30 11072 N 1052.41 -0.382291 -1.52893 0
M  V30 11073 C 1053.64 0.202408 -2.05908 0
M  V30 11074 C 1054.05 1.4109 -1.25456 0
M  V30 11075 O 1053.41 1.80027 -0.29942 0
M  V30 11076 C 1053.46 0.579452 -3.56826 0
M  V30 11077 O 1053.18 -0.58102 -4.3423 0
M  V30 11078 C 1054.68 1.22076 -4.2616 0
M  V30 11079 H 1051.9 0.0321859 -0.670228 0
M  V30 11080 H 1054.44 -0.545494 -1.9709 0
M  V30 11081 H 1052.6 1.27726 -3.65739 0
M  V30 11082 H 1053.01 -0.272693 -5.23791 0
M  V30 11083 H 1054.49 1.435 -5.33021 0
M  V30 11084 H 1054.96 2.18605 -3.80931 0
M  V30 11085 H 1055.57 0.563922 -4.21545 0
M  V30 11086 N 1053.89 1.57202 -0.111913 0
M  V30 11087 C 1055.16 1.86459 0.590972 0
M  V30 11088 C 1055.54 1.01182 1.85271 0
M  V30 11089 O 1054.89 0.0887891 2.28327 0
M  V30 11090 C 1055.1 3.37455 0.890225 0
M  V30 11091 C 1056.45 4.05895 1.24638 0
M  V30 11092 O 1057.47 3.42433 0.980713 0
M  V30 11093 O 1056.33 5.17903 1.74466 0
M  V30 11094 H 1053.43 0.771652 0.297459 0
M  V30 11095 H 1055.97 1.69072 -0.145882 0
M  V30 11096 H 1054.74 3.913 -0.00419012 0
M  V30 11097 H 1054.37 3.60248 1.68248 0
M  V30 11098 N 1055.36 -0.161842 1.56767 0
M  V30 11099 C 1056.3 -1.22499 1.93718 0
M  V30 11100 C 1057.31 -1.39975 0.831314 0
M  V30 11101 O 1058.5 -1.3981 1.10975 0
M  V30 11102 C 1055.6 -2.59222 2.18306 0
M  V30 11103 C 1054.77 -2.6292 3.4956 0
M  V30 11104 C 1053.83 -3.81074 3.62863 0
M  V30 11105 O 1052.86 -3.66633 4.35395 0
M  V30 11106 N 1054.06 -4.97923 2.98418 0
M  V30 11107 H 1056.82 -0.911043 2.85517 0
M  V30 11108 H 1054.38 -0.351533 1.58038 0
M  V30 11109 H 1056.38 -3.36749 2.24461 0
M  V30 11110 H 1054.95 -2.82969 1.32844 0
M  V30 11111 H 1054.17 -1.71418 3.54978 0
M  V30 11112 H 1055.45 -2.62409 4.35911 0
M  V30 11113 H 1054.85 -5.12557 2.39378 0
M  V30 11114 H 1053.41 -5.73277 3.10155 0
M  V30 11115 N 1056.84 -1.516 -0.430713 0
M  V30 11116 C 1057.79 -1.73975 -1.54387 0
M  V30 11117 C 1058.78 -0.606222 -1.58181 0
M  V30 11118 O 1059.99 -0.787764 -1.61846 0
M  V30 11119 H 1056.36 -0.549811 -0.513041 0
M  V30 11120 H 1058.34 -2.67274 -1.32692 0
M  V30 11121 C 1057.08 -1.88794 -2.9198 0
M  V30 11122 H 1056.41 -2.75425 -2.89795 0
M  V30 11123 H 1057.85 -2.08458 -3.69217 0
M  V30 11124 C 1056.31 -0.649427 -3.30581 0
M  V30 11125 O 1056.84 0.192823 -4.01237 0
M  V30 11126 N 1055.04 -0.491586 -2.86412 0
M  V30 11127 H 1054.59 -1.17806 -2.29084 0
M  V30 11128 H 1054.55 0.33583 -3.12601 0
M  V30 11129 N 1058.32 0.686584 -1.41858 0
M  V30 11130 C 1059.57 1.44235 -1.40994 0
M  V30 11131 C 1059.88 1.95583 -0.0254979 0
M  V30 11132 O 1061.09 2.71294 0.10576 0
M  V30 11133 C 1059.54 2.6086 -2.47952 0
M  V30 11134 C 1059.15 2.16259 -3.92347 0
M  V30 11135 C 1060.9 3.38441 -2.56237 0
M  V30 11136 C 1058.8 3.29896 -4.90838 0
M  V30 11137 H 1057.73 0.54181 -0.524364 0
M  V30 11138 H 1060.38 0.744486 -1.67719 0
M  V30 11139 H 1058.77 3.32957 -2.14373 0
M  V30 11140 H 1059.94 1.51392 -4.35221 0
M  V30 11141 H 1058.25 1.51648 -3.87804 0
M  V30 11142 H 1060.85 4.23052 -3.27003 0
M  V30 11143 H 1061.19 3.84238 -1.6021 0
M  V30 11144 H 1061.73 2.73406 -2.88953 0
M  V30 11145 H 1058.47 2.89104 -5.88302 0
M  V30 11146 H 1057.99 3.93584 -4.52606 0
M  V30 11147 H 1059.67 3.95541 -5.12012 0
M  V30 11148 N 1059.8 1.27835 0.921735 0
M  V30 11149 C 1060.71 1.12904 2.05645 0
M  V30 11150 C 1061.72 0.0575704 1.73905 0
M  V30 11151 O 1062.9 0.265261 1.99645 0
M  V30 11152 C 1059.96 0.783957 3.3772 0
M  V30 11153 C 1059.03 1.93694 3.8312 0
M  V30 11154 C 1058.26 1.60823 5.08893 0
M  V30 11155 O 1058.48 0.518873 5.68035 0
M  V30 11156 O 1057.42 2.44932 5.49811 0
M  V30 11157 H 1061.24 2.08143 2.21157 0
M  V30 11158 H 1058.83 1.07078 1.04185 0
M  V30 11159 H 1060.71 0.605107 4.17033 0
M  V30 11160 H 1059.38 -0.138849 3.23402 0
M  V30 11161 H 1058.29 2.17089 3.04669 0
M  V30 11162 H 1059.62 2.84016 4.0199 0
M  V30 11163 N 1061.28 -1.12907 1.09954 0
M  V30 11164 C 1062.19 -2.22082 0.756095 0
M  V30 11165 C 1063.2 -1.72277 -0.244272 0
M  V30 11166 O 1064.38 -2.01224 -0.0842637 0
M  V30 11167 C 1061.44 -3.46192 0.187642 0
M  V30 11168 C 1060.5 -4.10861 1.24465 0
M  V30 11169 C 1059.74 -5.29047 0.703227 0
M  V30 11170 O 1059.96 -5.68443 -0.472043 0
M  V30 11171 O 1058.89 -5.83904 1.46082 0
M  V30 11172 H 1062.72 -2.53842 1.66727 0
M  V30 11173 H 1060.3 -1.21145 0.874316 0
M  V30 11174 H 1062.19 -4.21212 -0.125774 0
M  V30 11175 H 1060.86 -3.16119 -0.696459 0
M  V30 11176 H 1059.77 -3.37643 1.61085 0
M  V30 11177 H 1061.1 -4.45078 2.10159 0
M  V30 11178 N 1062.75 -0.88754 -1.30232 0
M  V30 11179 C 1063.68 -0.372481 -2.3051 0
M  V30 11180 C 1064.66 0.546037 -1.61098 0
M  V30 11181 O 1065.85 0.459345 -1.88689 0
M  V30 11182 C 1062.98 0.411605 -3.44852 0
M  V30 11183 C 1061.93 -0.415383 -4.2598 0
M  V30 11184 C 1061.26 0.495463 -5.324 0
M  V30 11185 C 1062.56 -1.65886 -4.95257 0
M  V30 11186 H 1064.25 -1.21045 -2.7384 0
M  V30 11187 H 1061.8 -0.583498 -1.31648 0
M  V30 11188 H 1063.75 0.782584 -4.1407 0
M  V30 11189 H 1062.48 1.28325 -3.00334 0
M  V30 11190 H 1061.14 -0.768534 -3.58454 0
M  V30 11191 H 1060.78 1.36489 -4.84128 0
M  V30 11192 H 1060.48 -0.0540885 -5.87575 0
M  V30 11193 H 1062.01 0.862901 -6.04472 0
M  V30 11194 H 1063.42 -1.35832 -5.56976 0
M  V30 11195 H 1061.82 -2.14881 -5.60309 0
M  V30 11196 H 1062.89 -2.40181 -4.21237 0
M  V30 11197 N 1064.23 1.43628 -0.648757 0
M  V30 11198 C 1065.18 2.30755 0.0455536 0
M  V30 11199 C 1066.15 1.44495 0.819168 0
M  V30 11200 O 1067.33 1.73372 0.79667 0
M  V30 11201 C 1064.47 3.30017 1.00908 0
M  V30 11202 C 1063.59 4.31376 0.232039 0
M  V30 11203 C 1062.72 5.17723 1.18897 0
M  V30 11204 C 1061.76 6.10778 0.402096 0
M  V30 11205 N 1060.9 6.89763 1.31038 0
M  V30 11206 H 1065.74 2.89581 -0.70332 0
M  V30 11207 H 1063.28 1.42662 -0.3586 0
M  V30 11208 H 1065.23 3.86072 1.58128 0
M  V30 11209 H 1063.86 2.72851 1.72488 0
M  V30 11210 H 1062.92 3.77652 -0.456373 0
M  V30 11211 H 1064.23 4.9735 -0.380023 0
M  V30 11212 H 1063.38 5.78381 1.83194 0
M  V30 11213 H 1062.12 4.51864 1.83494 0
M  V30 11214 H 1061.13 5.49212 -0.254255 0
M  V30 11215 H 1062.35 6.78678 -0.239411 0
M  V30 11216 H 1060.3 6.26557 1.94324 0
M  V30 11217 H 1060.21 7.52243 0.752774 0
M  V30 11218 H 1061.48 7.54931 1.94164 0
M  V30 11219 N 1065.71 0.390394 1.52688 0
M  V30 11220 C 1066.66 -0.444229 2.26485 0
M  V30 11221 C 1067.63 -1.05688 1.28138 0
M  V30 11222 O 1068.81 -1.0847 1.56968 0
M  V30 11223 C 1065.95 -1.56501 3.07574 0
M  V30 11224 C 1065.07 -0.975111 4.20851 0
M  V30 11225 C 1064.2 -2.06704 4.89333 0
M  V30 11226 C 1063.24 -1.45309 5.94602 0
M  V30 11227 N 1062.38 -2.48437 6.56676 0
M  V30 11228 H 1067.22 0.191535 2.97384 0
M  V30 11229 H 1064.75 0.106287 1.46716 0
M  V30 11230 H 1066.71 -2.22558 3.52879 0
M  V30 11231 H 1065.34 -2.17107 2.38881 0
M  V30 11232 H 1064.39 -0.204109 3.79852 0
M  V30 11233 H 1065.71 -0.486465 4.96422 0
M  V30 11234 H 1064.86 -2.80528 5.37949 0
M  V30 11235 H 1063.6 -2.58928 4.13289 0
M  V30 11236 H 1062.6 -0.700091 5.45324 0
M  V30 11237 H 1063.83 -0.938775 6.7258 0
M  V30 11238 H 1061.77 -2.99829 5.83471 0
M  V30 11239 H 1061.69 -2.04331 7.27863 0
M  V30 11240 H 1062.96 -3.21888 7.09935 0
M  V30 11241 N 1067.19 -1.57141 0.120249 0
M  V30 11242 C 1068.12 -2.18398 -0.826112 0
M  V30 11243 C 1069.1 -1.12439 -1.27638 0
M  V30 11244 O 1070.28 -1.40679 -1.33877 0
M  V30 11245 C 1067.41 -2.78438 -2.0758 0
M  V30 11246 C 1066.37 -3.89991 -1.76327 0
M  V30 11247 C 1065.69 -4.36844 -3.08336 0
M  V30 11248 C 1066.99 -5.12031 -1.03062 0
M  V30 11249 H 1068.69 -2.97731 -0.315656 0
M  V30 11250 H 1066.23 -1.43213 -0.150387 0
M  V30 11251 H 1068.19 -3.19951 -2.74243 0
M  V30 11252 H 1066.91 -1.96396 -2.60953 0
M  V30 11253 H 1065.57 -3.49055 -1.12053 0
M  V30 11254 H 1065.22 -3.51659 -3.59646 0
M  V30 11255 H 1064.92 -5.1207 -2.88199 0
M  V30 11256 H 1066.44 -4.81009 -3.76116 0
M  V30 11257 H 1067.86 -5.50555 -1.59881 0
M  V30 11258 H 1066.25 -5.92848 -0.930146 0
M  V30 11259 H 1067.32 -4.84897 -0.017582 0
M  V30 11260 N 1068.67 0.153526 -1.5685 0
M  V30 11261 C 1069.58 1.20932 -2.01029 0
M  V30 11262 C 1070.59 1.47401 -0.924598 0
M  V30 11263 O 1071.77 1.592 -1.23359 0
M  V30 11264 C 1068.83 2.52438 -2.37647 0
M  V30 11265 C 1067.89 2.33673 -3.60132 0
M  V30 11266 C 1067.13 3.58909 -3.94994 0
M  V30 11267 O 1067.35 4.64823 -3.30599 0
M  V30 11268 O 1066.28 3.5196 -4.8827 0
M  V30 11269 H 1070.11 0.864273 -2.91143 0
M  V30 11270 H 1067.7 0.361755 -1.44954 0
M  V30 11271 H 1069.58 3.29981 -2.62088 0
M  V30 11272 H 1068.25 2.86486 -1.5069 0
M  V30 11273 H 1067.16 1.54102 -3.40886 0
M  V30 11274 H 1068.49 2.04544 -4.47686 0
M  V30 11275 N 1070.14 1.51827 0.422667 0
M  V30 11276 C 1071.42 1.55772 1.18299 0
M  V30 11277 C 1071.8 0.330657 2.08494 0
M  V30 11278 O 1071.15 -0.683373 2.18042 0
M  V30 11279 C 1071.36 2.87941 1.97208 0
M  V30 11280 C 1072.71 3.4044 2.53744 0
M  V30 11281 O 1073.73 2.8959 2.07403 0
M  V30 11282 O 1072.59 4.29201 3.38303 0
M  V30 11283 H 1069.68 0.626889 0.539388 0
M  V30 11284 H 1072.23 1.64147 0.430545 0
M  V30 11285 H 1071 3.68702 1.31052 0
M  V30 11286 H 1070.63 2.82795 2.79486 0
M  V30 11287 N 1071.62 -0.679052 1.4222 0
M  V30 11288 C 1072.59 -1.77448 1.45069 0
M  V30 11289 C 1073.59 -1.57189 0.338882 0
M  V30 11290 O 1074.78 -1.63559 0.599519 0
M  V30 11291 C 1071.91 -3.1603 1.27819 0
M  V30 11292 H 1073.1 -1.7631 2.426 0
M  V30 11293 H 1070.65 -0.888277 1.28605 0
M  V30 11294 H 1071.39 -3.22796 0.311946 0
M  V30 11295 H 1071.17 -3.32138 2.08391 0
M  V30 11296 H 1072.66 -3.9596 1.32686 0
M  V30 11297 N 1073.1 -1.28322 -0.914942 0
M  V30 11298 C 1074.38 -1.06111 -1.64316 0
M  V30 11299 C 1074.76 0.399934 -2.07277 0
M  V30 11300 O 1074.11 1.38577 -1.81683 0
M  V30 11301 C 1074.32 -2.03461 -2.83557 0
M  V30 11302 C 1075.66 -2.33541 -3.54604 0
M  V30 11303 O 1076.69 -2.01536 -2.93704 0
M  V30 11304 O 1075.55 -2.88158 -4.64357 0
M  V30 11305 H 1072.64 -0.405451 -0.72079 0
M  V30 11306 H 1075.19 -1.39636 -0.964352 0
M  V30 11307 H 1073.96 -3.01938 -2.48896 0
M  V30 11308 H 1073.58 -1.70574 -3.59152 0
M  V30 11309 N 1074.58 1.12322 -1.10551 0
M  V30 11310 C 1075.49 2.21678 -0.767862 0
M  V30 11311 C 1076.5 1.72404 0.235132 0
M  V30 11312 O 1077.68 2.01266 0.0735912 0
M  V30 11313 C 1074.75 3.46087 -0.205999 0
M  V30 11314 C 1073.81 4.10195 -1.26642 0
M  V30 11315 C 1073.04 5.28666 -0.731274 0
M  V30 11316 O 1073.26 5.68686 0.44189 0
M  V30 11317 O 1072.2 5.83121 -1.49176 0
M  V30 11318 H 1076.02 2.52955 -1.6807 0
M  V30 11319 H 1073.61 1.2068 -0.880728 0
M  V30 11320 H 1075.49 4.21273 0.103435 0
M  V30 11321 H 1074.16 3.16484 0.679685 0
M  V30 11322 H 1073.07 3.36784 -1.62873 0
M  V30 11323 H 1074.4 4.43957 -2.12516 0
M  V30 11324 N 1076.06 0.894434 1.2976 0
M  V30 11325 C 1077.47 0.589778 1.48303 0
M  V30 11326 C 1077.67 -0.870085 1.81746 0
M  V30 11327 O 1076.73 -1.65065 1.91076 0
M  V30 11328 C 1078.04 1.51107 2.59975 0
M  V30 11329 C 1079.59 1.51571 2.73853 0
M  V30 11330 C 1080.06 2.42316 3.88648 0
M  V30 11331 N 1081.56 2.40333 3.95973 0
M  V30 11332 C 1082.29 3.07254 4.84131 0
M  V30 11333 N 1081.79 3.83435 5.77018 0
M  V30 11334 N 1083.58 2.96438 4.77578 0
M  V30 11335 H 1075.73 1.83871 1.06327 0
M  V30 11336 H 1077.99 0.78758 0.527657 0
M  V30 11337 H 1077.7 2.55097 2.42112 0
M  V30 11338 H 1077.57 1.22767 3.56662 0
M  V30 11339 H 1079.96 0.483277 2.91116 0
M  V30 11340 H 1080.04 1.83946 1.77757 0
M  V30 11341 H 1079.69 3.4565 3.72141 0
M  V30 11342 H 1079.62 2.07252 4.84101 0
M  V30 11343 H 1082.11 1.84979 3.29532 0
M  V30 11344 H 1082.42 4.31565 6.4107 0
M  V30 11345 H 1080.76 3.87542 5.7692 0
M  V30 11346 H 1083.96 2.36442 4.03996 0
M  V30 11347 H 1084.13 3.48867 5.46073 0
M  V30 11348 N 1077.53 -1.43282 0.656365 0
M  V30 11349 C 1078.46 -2.33492 -0.0196962 0
M  V30 11350 C 1079.45 -1.49647 -0.80868 0
M  V30 11351 O 1080.63 -1.78303 -0.769529 0
M  V30 11352 C 1077.76 -3.33052 -0.984574 0
M  V30 11353 C 1076.71 -4.26908 -0.305483 0
M  V30 11354 C 1076.04 -5.16531 -1.38202 0
M  V30 11355 C 1077.34 -5.16073 0.804081 0
M  V30 11356 H 1079.03 -2.90272 0.733661 0
M  V30 11357 H 1076.58 -1.39574 0.354259 0
M  V30 11358 H 1078.53 -3.9506 -1.46647 0
M  V30 11359 H 1077.26 -2.74535 -1.76913 0
M  V30 11360 H 1075.92 -3.66268 0.155995 0
M  V30 11361 H 1075.56 -4.54351 -2.1581 0
M  V30 11362 H 1075.26 -5.80148 -0.932878 0
M  V30 11363 H 1076.79 -5.81414 -1.86522 0
M  V30 11364 H 1078.2 -5.71873 0.404212 0
M  V30 11365 H 1076.6 -5.88427 1.17789 0
M  V30 11366 H 1077.67 -4.55574 1.66073 0
M  V30 11367 N 1079.01 -0.398486 -1.52479 0
M  V30 11368 C 1079.96 0.432212 -2.26717 0
M  V30 11369 C 1080.93 1.05007 -1.28696 0
M  V30 11370 O 1082.12 1.07636 -1.57541 0
M  V30 11371 C 1079.26 1.54868 -3.08399 0
M  V30 11372 C 1078.37 0.952779 -4.21362 0
M  V30 11373 C 1077.5 2.04106 -4.90423 0
M  V30 11374 C 1076.54 1.42153 -5.95364 0
M  V30 11375 N 1075.68 2.44951 -6.57984 0
M  V30 11376 H 1080.52 -0.207303 -2.97278 0
M  V30 11377 H 1078.06 -0.114066 -1.46657 0
M  V30 11378 H 1080.01 2.20684 -3.54054 0
M  V30 11379 H 1078.64 2.15837 -2.4003 0
M  V30 11380 H 1077.7 0.183962 -3.79955 0
M  V30 11381 H 1079.01 0.460131 -4.96673 0
M  V30 11382 H 1078.16 2.77672 -5.39429 0
M  V30 11383 H 1076.9 2.56733 -4.14656 0
M  V30 11384 H 1075.91 0.671161 -5.45688 0
M  V30 11385 H 1077.13 0.903093 -6.73068 0
M  V30 11386 H 1075.08 2.9673 -5.85053 0
M  V30 11387 H 1074.99 2.00468 -7.28937 0
M  V30 11388 H 1076.26 3.18119 -7.11632 0
M  V30 11389 N 1080.49 1.57075 -0.12858 0
M  V30 11390 C 1081.72 1.99586 0.533769 0
M  V30 11391 C 1082.13 1.00737 1.60152 0
M  V30 11392 O 1081.47 -0.00647783 1.83699 0
M  V30 11393 C 1081.53 3.3852 1.21014 0
M  V30 11394 C 1081.2 4.56084 0.289191 0
M  V30 11395 C 1082.2 5.17717 -0.475963 0
M  V30 11396 C 1079.88 5.01912 0.197467 0
M  V30 11397 C 1081.87 6.23572 -1.32048 0
M  V30 11398 C 1079.56 6.07626 -0.65067 0
M  V30 11399 C 1080.56 6.68324 -1.40826 0
M  V30 11400 O 1080.25 7.71995 -2.2423 0
M  V30 11401 H 1079.98 0.660245 0.145096 0
M  V30 11402 H 1082.53 2.04276 -0.214615 0
M  V30 11403 H 1080.76 3.30613 2.00579 0
M  V30 11404 H 1082.45 3.65258 1.77036 0
M  V30 11405 H 1083.22 4.83221 -0.415027 0
M  V30 11406 H 1079.1 4.54407 0.776853 0
M  V30 11407 H 1082.64 6.70878 -1.91228 0
M  V30 11408 H 1078.54 6.41551 -0.712965 0
M  V30 11409 H 1079.31 7.89135 -2.17276 0
M  V30 11410 N 1081.97 -0.145205 1.5693 0
M  V30 11411 C 1083.22 -0.858786 1.83719 0
M  V30 11412 C 1083.55 -1.80738 0.710452 0
M  V30 11413 O 1082.82 -1.92389 -0.285791 0
M  V30 11414 C 1083.11 -1.6317 3.2101 0
M  V30 11415 C 1082.96 -0.704472 4.44249 0
M  V30 11416 C 1084.28 -2.59377 3.55544 0
M  V30 11417 H 1081.4 -0.310757 0.66828 0
M  V30 11418 H 1084.04 -0.123918 1.89595 0
M  V30 11419 H 1082.19 -2.25816 3.16132 0
M  V30 11420 H 1083.86 -0.08887 4.61214 0
M  V30 11421 H 1082.1 -0.0141693 4.33798 0
M  V30 11422 H 1082.78 -1.28135 5.36922 0
M  V30 11423 H 1085.25 -2.06848 3.61044 0
M  V30 11424 H 1084.13 -3.10506 4.52634 0
M  V30 11425 H 1084.39 -3.40819 2.81594 0
M  V30 11426 N 1083.45 -1.52049 -0.414609 0
M  V30 11427 C 1084.4 -1.75603 -1.52533 0
M  V30 11428 C 1085.39 -0.622965 -1.57529 0
M  V30 11429 O 1086.6 -0.804886 -1.61002 0
M  V30 11430 H 1082.97 -0.555222 -0.507181 0
M  V30 11431 H 1084.94 -2.68666 -1.2985 0
M  V30 11432 C 1083.69 -1.9188 -2.89961 0
M  V30 11433 H 1083.01 -2.78483 -2.86857 0
M  V30 11434 H 1084.45 -2.12363 -3.66985 0
M  V30 11435 C 1082.91 -0.684453 -3.29874 0
M  V30 11436 O 1083.44 0.150256 -4.01419 0
M  V30 11437 N 1081.65 -0.521936 -2.85874 0
M  V30 11438 H 1081.2 -1.20229 -2.27822 0
M  V30 11439 H 1081.15 0.302655 -3.1294 0
M  V30 11440 N 1084.93 0.6715 -1.42579 0
M  V30 11441 C 1086.16 1.4576 -1.46416 0
M  V30 11442 C 1086.56 1.89051 -0.0749843 0
M  V30 11443 O 1085.91 1.58927 0.921296 0
M  V30 11444 C 1085.97 2.7365 -2.33144 0
M  V30 11445 C 1085.63 2.52414 -3.80968 0
M  V30 11446 C 1086.63 2.16804 -4.72538 0
M  V30 11447 C 1084.31 2.67306 -4.25268 0
M  V30 11448 C 1086.31 1.96358 -6.06401 0
M  V30 11449 C 1084 2.46475 -5.5919 0
M  V30 11450 C 1084.99 2.11055 -6.49573 0
M  V30 11451 O 1084.68 1.90428 -7.8102 0
M  V30 11452 H 1084.41 0.454896 -0.500045 0
M  V30 11453 H 1086.97 0.832198 -1.87786 0
M  V30 11454 H 1085.2 3.38684 -1.86629 0
M  V30 11455 H 1086.89 3.35543 -2.28398 0
M  V30 11456 H 1087.65 2.04891 -4.39596 0
M  V30 11457 H 1083.53 2.93854 -3.55206 0
M  V30 11458 H 1087.08 1.68634 -6.76911 0
M  V30 11459 H 1082.97 2.57985 -5.91704 0
M  V30 11460 H 1083.74 2.05 -7.92412 0
M  V30 11461 N 1086.4 1.28806 0.908124 0
M  V30 11462 C 1087.68 1.06981 1.63751 0
M  V30 11463 C 1088.06 -0.388936 2.07486 0
M  V30 11464 O 1087.41 -1.37611 1.82415 0
M  V30 11465 C 1087.62 2.04962 2.82474 0
M  V30 11466 C 1088.97 2.35418 3.5336 0
M  V30 11467 O 1089.99 2.03091 2.92631 0
M  V30 11468 O 1088.85 2.90617 4.62822 0
M  V30 11469 H 1085.94 0.409267 0.71863 0
M  V30 11470 H 1088.49 1.40146 0.956934 0
M  V30 11471 H 1087.26 3.03254 2.47291 0
M  V30 11472 H 1086.88 1.72476 3.58242 0
M  V30 11473 N 1087.88 -1.11734 1.11145 0
M  V30 11474 C 1088.79 -2.21267 0.779607 0
M  V30 11475 C 1089.81 -1.72526 -0.225986 0
M  V30 11476 O 1090.98 -2.01302 -0.0629166 0
M  V30 11477 C 1088.05 -3.45973 0.22435 0
M  V30 11478 C 1087.11 -4.09518 1.28816 0
M  V30 11479 C 1086.34 -5.28271 0.7593 0
M  V30 11480 O 1086.57 -5.68912 -0.411725 0
M  V30 11481 O 1085.5 -5.82322 1.52266 0
M  V30 11482 H 1089.33 -2.5206 1.6941 0
M  V30 11483 H 1086.91 -1.20211 0.887115 0
M  V30 11484 H 1088.79 -4.21322 -0.0810921 0
M  V30 11485 H 1087.47 -3.1684 -0.662891 0
M  V30 11486 H 1086.37 -3.35915 1.64657 0
M  V30 11487 H 1087.71 -4.42824 2.14868 0
M  V30 11488 N 1089.36 -0.901303 -1.29284 0
M  V30 11489 C 1090.31 -0.370142 -2.29636 0
M  V30 11490 C 1091.3 0.53157 -1.60844 0
M  V30 11491 O 1092.51 0.414194 -1.7517 0
M  V30 11492 H 1088.88 -0.101072 -0.745177 0
M  V30 11493 H 1090.85 -1.22985 -2.71877 0
M  V30 11494 C 1089.6 0.385806 -3.45553 0
M  V30 11495 H 1088.93 -0.298818 -3.98682 0
M  V30 11496 H 1090.37 0.722299 -4.17802 0
M  V30 11497 C 1088.82 1.58907 -2.97069 0
M  V30 11498 O 1089.35 2.68835 -2.98481 0
M  V30 11499 N 1087.56 1.43178 -2.5288 0
M  V30 11500 H 1087.11 0.537467 -2.51931 0
M  V30 11501 H 1087.07 2.23819 -2.208 0
M  V30 11502 N 1090.84 1.42931 -0.663954 0
M  V30 11503 C 1092.09 2.01284 -0.181379 0
M  V30 11504 C 1092.41 1.52708 1.21265 0
M  V30 11505 O 1091.68 0.744181 1.81215 0
M  V30 11506 H 1090.26 0.744248 -0.0640646 0
M  V30 11507 H 1092.92 1.74997 -0.858031 0
M  V30 11508 H 1092.01 3.11613 -0.174273 0
M  V30 11509 N 1092.32 0.406567 1.52266 0
M  V30 11510 C 1093.56 -0.169717 2.01386 0
M  V30 11511 C 1093.88 -1.45864 1.29417 0
M  V30 11512 O 1093.15 -1.9136 0.419327 0
M  V30 11513 H 1091.73 -0.0657075 0.744105 0
M  V30 11514 H 1094.4 0.542221 1.87206 0
M  V30 11515 H 1093.49 -0.367659 3.09927 0
M  V30 11516 N 1093.79 -1.57004 0.136909 0
M  V30 11517 C 1095.04 -1.95797 -0.516711 0
M  V30 11518 C 1095.37 -1.02123 -1.65533 0
M  V30 11519 O 1094.62 -0.0484835 -1.9564 0
M  V30 11520 C 1094.92 -3.40903 -1.07331 0
M  V30 11521 C 1094.59 -4.50867 -0.0541941 0
M  V30 11522 C 1093.25 -4.80669 0.225988 0
M  V30 11523 C 1095.6 -5.17264 0.639361 0
M  V30 11524 C 1092.93 -5.74177 1.2057 0
M  V30 11525 C 1095.28 -6.11827 1.60783 0
M  V30 11526 C 1093.95 -6.40012 1.89581 0
M  V30 11527 H 1093.22 -0.716471 -0.189078 0
M  V30 11528 H 1095.86 -1.90213 0.221605 0
M  V30 11529 H 1094.17 -3.43268 -1.88876 0
M  V30 11530 H 1095.87 -3.6824 -1.58745 0
M  V30 11531 H 1092.46 -4.27666 -0.282754 0
M  V30 11532 H 1096.64 -4.9438 0.436085 0
M  V30 11533 H 1091.9 -5.94312 1.43538 0
M  V30 11534 H 1096.07 -6.62354 2.15081 0
M  V30 11535 H 1093.7 -7.12274 2.65649 0
M  V30 11536 N 1095.27 0.136881 -1.57004 0
M  V30 11537 C 1096.52 0.846257 -1.83088 0
M  V30 11538 C 1096.83 1.81876 -0.719765 0
M  V30 11539 O 1098.04 2.57302 -0.866494 0
M  V30 11540 C 1096.5 1.55559 -3.24545 0
M  V30 11541 C 1096.1 0.624989 -4.43619 0
M  V30 11542 C 1097.85 2.25115 -3.59893 0
M  V30 11543 C 1095.76 1.33653 -5.761 0
M  V30 11544 H 1094.69 0.319768 -0.682836 0
M  V30 11545 H 1097.34 0.0989741 -1.83233 0
M  V30 11546 H 1095.72 2.34887 -3.18817 0
M  V30 11547 H 1096.89 -0.133783 -4.60606 0
M  V30 11548 H 1095.21 0.0373216 -4.16383 0
M  V30 11549 H 1097.8 2.79008 -4.56134 0
M  V30 11550 H 1098.15 3.02084 -2.86446 0
M  V30 11551 H 1098.68 1.52696 -3.67327 0
M  V30 11552 H 1095.42 0.608495 -6.5267 0
M  V30 11553 H 1094.94 2.06776 -5.63031 0
M  V30 11554 H 1096.62 1.87467 -6.19246 0
M  V30 11555 N 1096.75 1.52266 0.40654 0
M  V30 11556 C 1098.16 1.58587 0.985241 0
M  V30 11557 C 1098.51 0.427955 1.91476 0
M  V30 11558 O 1097.64 -0.451341 2.11641 0
M  V30 11559 C 1098.23 2.87426 1.79365 0
M  V30 11560 C 1096.79 2.96217 2.32233 0
M  V30 11561 C 1095.94 2.53548 1.12288 0
M  V30 11562 H 1098.89 1.57598 0.186685 0
M  V30 11563 H 1098.91 2.72925 2.65127 0
M  V30 11564 H 1098.42 3.71682 1.11687 0
M  V30 11565 H 1096.52 2.1646 3.03275 0
M  V30 11566 H 1096.64 4.00511 2.62922 0
M  V30 11567 H 1095 2.07457 1.47763 0
M  V30 11568 H 1095.78 3.40181 0.461731 0
M  V30 11569 N 1098.23 -0.663929 1.42933 0
M  V30 11570 C 1099.16 -1.78876 1.41699 0
M  V30 11571 C 1100.14 -1.60174 0.27981 0
M  V30 11572 O 1101.32 -1.82502 0.471735 0
M  V30 11573 C 1098.45 -3.1603 1.2183 0
M  V30 11574 C 1097.5 -3.53457 2.38685 0
M  V30 11575 S 1098.33 -3.54648 4.01229 0
M  V30 11576 C 1099.49 -4.94477 3.83723 0
M  V30 11577 H 1099.72 -1.7965 2.36882 0
M  V30 11578 H 1097.25 -0.835596 1.29835 0
M  V30 11579 H 1099.21 -3.95193 1.11054 0
M  V30 11580 H 1097.87 -3.1283 0.282139 0
M  V30 11581 H 1097.06 -4.53178 2.20559 0
M  V30 11582 H 1096.67 -2.81681 2.46032 0
M  V30 11583 H 1098.96 -5.82851 3.45386 0
M  V30 11584 H 1099.9 -5.17652 4.83158 0
M  V30 11585 H 1100.31 -4.67507 3.16382 0
M  V30 11586 N 1099.71 -1.29285 -0.901281 0
M  V30 11587 C 1100.95 -1.16934 -1.64836 0
M  V30 11588 C 1101.28 0.279826 -1.92982 0
M  V30 11589 O 1100.55 1.19179 -1.55478 0
M  V30 11590 H 1099.13 -0.429768 -0.61099 0
M  V30 11591 H 1101.79 -1.62189 -1.08077 0
M  V30 11592 H 1100.88 -1.71821 -2.60545 0
M  V30 11593 N 1101.18 1.11143 -1.11736 0
M  V30 11594 C 1102.41 1.86474 -0.889435 0
M  V30 11595 C 1102.82 1.80584 0.564438 0
M  V30 11596 O 1102.17 1.18743 1.40163 0
M  V30 11597 C 1102.23 3.36066 -1.27671 0
M  V30 11598 C 1101.89 3.65721 -2.74038 0
M  V30 11599 C 1102.89 3.62941 -3.7225 0
M  V30 11600 C 1100.57 3.94629 -3.10762 0
M  V30 11601 C 1102.57 3.88651 -5.05202 0
M  V30 11602 C 1100.25 4.19997 -4.43899 0
M  V30 11603 C 1101.25 4.16996 -5.40928 0
M  V30 11604 O 1100.94 4.41724 -6.71666 0
M  V30 11605 H 1100.67 0.596438 -0.318178 0
M  V30 11606 H 1103.23 1.41465 -1.48918 0
M  V30 11607 H 1101.46 3.81695 -0.620124 0
M  V30 11608 H 1103.15 3.92769 -1.02409 0
M  V30 11609 H 1103.91 3.40655 -3.45223 0
M  V30 11610 H 1099.79 3.96099 -2.35853 0
M  V30 11611 H 1103.33 3.86224 -5.80927 0
M  V30 11612 H 1099.23 4.4176 -4.70657 0
M  V30 11613 H 1100 4.59276 -6.77501 0
M  V30 11614 N 1102.66 0.908147 1.28804 0
M  V30 11615 C 1103.91 0.539201 1.95501 0
M  V30 11616 C 1104.24 -0.913759 1.7136 0
M  V30 11617 O 1103.52 -1.64904 1.03136 0
M  V30 11618 C 1103.8 0.842372 3.50109 0
M  V30 11619 C 1103.65 2.34765 3.83673 0
M  V30 11620 C 1104.97 0.334658 4.38826 0
M  V30 11621 H 1102.09 0.197373 0.71008 0
M  V30 11622 H 1104.73 1.13637 1.52272 0
M  V30 11623 H 1102.88 0.334143 3.8706 0
M  V30 11624 H 1104.55 2.92607 3.56621 0
M  V30 11625 H 1102.8 2.80494 3.30916 0
M  V30 11626 H 1103.47 2.51034 4.91616 0
M  V30 11627 H 1105.94 0.769961 4.08914 0
M  V30 11628 H 1104.82 0.575914 5.4587 0
M  V30 11629 H 1105.08 -0.764878 4.35433 0
M  V30 11630 N 1104.14 -1.42577 0.671525 0
M  V30 11631 C 1105.1 -2.292 0.000392482 0
M  V30 11632 C 1106.1 -1.43158 -0.732294 0
M  V30 11633 O 1107.29 -1.64583 -0.570789 0
M  V30 11634 C 1104.43 -3.25591 -1.01013 0
M  V30 11635 H 1105.62 -2.90037 0.762783 0
M  V30 11636 H 1103.17 -1.50162 0.433703 0
M  V30 11637 H 1103.91 -2.69685 -1.80112 0
M  V30 11638 H 1103.69 -3.89049 -0.488183 0
M  V30 11639 H 1105.18 -3.90561 -1.47824 0
M  V30 11640 N 1105.62 -0.414636 -1.52048 0
M  V30 11641 C 1106.84 0.161137 -2.06773 0
M  V30 11642 C 1107.27 1.37628 -1.2822 0
M  V30 11643 O 1106.63 1.78562 -0.313915 0
M  V30 11644 C 1106.67 0.48452 -3.5733 0
M  V30 11645 O 1105.78 1.57466 -3.81154 0
M  V30 11646 H 1105.12 0.0118003 -0.663895 0
M  V30 11647 H 1107.65 -0.589424 -1.95926 0
M  V30 11648 H 1107.66 0.741567 -4.01204 0
M  V30 11649 H 1106.33 -0.403733 -4.13936 0
M  V30 11650 H 1104.91 1.30935 -3.49157 0
M  V30 11651 N 1107.1 1.56929 -0.145233 0
M  V30 11652 C 1108.34 1.96068 0.50632 0
M  V30 11653 C 1108.67 1.02999 1.64989 0
M  V30 11654 O 1107.93 0.0588581 1.95611 0
M  V30 11655 C 1108.23 3.41467 1.05522 0
M  V30 11656 C 1107.89 4.5089 0.0302827 0
M  V30 11657 C 1106.55 4.80542 -0.251475 0
M  V30 11658 C 1108.91 5.16917 -0.666783 0
M  V30 11659 C 1106.23 5.7353 -1.23614 0
M  V30 11660 C 1108.59 6.10965 -1.64025 0
M  V30 11661 C 1107.25 6.38998 -1.92973 0
M  V30 11662 H 1106.52 0.717464 0.185276 0
M  V30 11663 H 1109.17 1.90093 -0.23169 0
M  V30 11664 H 1107.47 3.44265 1.87053 0
M  V30 11665 H 1109.17 3.69077 1.5679 0
M  V30 11666 H 1105.76 4.2781 0.260069 0
M  V30 11667 H 1109.94 4.94142 -0.462297 0
M  V30 11668 H 1105.2 5.93543 -1.46687 0
M  V30 11669 H 1109.37 6.61204 -2.18591 0
M  V30 11670 H 1107 7.10855 -2.69423 0
M  V30 11671 N 1108.58 -0.128553 1.57075 0
M  V30 11672 C 1109.85 -0.867766 1.75297 0
M  V30 11673 C 1110.23 -1.98508 0.718176 0
M  V30 11674 O 1109.58 -2.2702 -0.259616 0
M  V30 11675 C 1109.79 -1.39326 3.19983 0
M  V30 11676 C 1111.14 -1.84939 3.82208 0
M  V30 11677 O 1112.16 -1.49027 3.23527 0
M  V30 11678 O 1111.02 -2.51227 4.85332 0
M  V30 11679 H 1108.12 -0.411393 0.717415 0
M  V30 11680 H 1110.66 -0.113038 1.69323 0
M  V30 11681 H 1109.43 -0.591172 3.86809 0
M  V30 11682 H 1109.06 -2.21097 3.30457 0
M  V30 11683 N 1110.05 -1.5248 -0.398459 0
M  V30 11684 C 1111.46 -1.59107 -0.976817 0
M  V30 11685 C 1111.82 -0.438104 -1.91246 0
M  V30 11686 O 1110.94 0.440111 -2.11877 0
M  V30 11687 C 1111.54 -2.88373 -1.77838 0
M  V30 11688 C 1110.09 -2.97445 -2.30659 0
M  V30 11689 C 1109.24 -2.5414 -1.10942 0
M  V30 11690 H 1112.19 -1.57695 -0.178324 0
M  V30 11691 H 1112.21 -2.74327 -2.63676 0
M  V30 11692 H 1111.73 -3.72269 -1.09714 0
M  V30 11693 H 1109.83 -2.18066 -3.02123 0
M  V30 11694 H 1109.94 -4.019 -2.60794 0
M  V30 11695 H 1108.3 -2.08237 -1.46661 0
M  V30 11696 H 1109.09 -3.40421 -0.443684 0
M  V30 11697 N 1111.53 0.65634 -1.43283 0
M  V30 11698 C 1112.94 1.23744 -1.39801 0
M  V30 11699 C 1113.29 1.95942 -0.100507 0
M  V30 11700 O 1112.42 2.01063 0.800161 0
M  V30 11701 C 1113.01 2.25062 -2.53244 0
M  V30 11702 C 1111.57 2.78657 -2.53036 0
M  V30 11703 C 1110.72 1.53251 -2.31105 0
M  V30 11704 H 1113.67 0.448553 -1.52229 0
M  V30 11705 H 1113.69 3.07174 -2.24553 0
M  V30 11706 H 1113.2 1.72487 -3.47664 0
M  V30 11707 H 1111.3 3.35304 -1.62487 0
M  V30 11708 H 1111.42 3.26414 -3.507 0
M  V30 11709 H 1109.78 1.80487 -1.79713 0
M  V30 11710 H 1110.56 1.02615 -3.27605 0
M  V30 11711 N 1113.01 1.29761 0.894412 0
M  V30 11712 C 1114.43 1.07888 1.17611 0
M  V30 11713 C 1114.63 -0.16644 2.00811 0
M  V30 11714 O 1113.68 -0.86272 2.37304 0
M  V30 11715 C 1114.99 2.33723 1.89193 0
M  V30 11716 C 1116.54 2.39095 2.01997 0
M  V30 11717 C 1117.02 3.64747 2.7699 0
M  V30 11718 N 1118.51 3.65501 2.84541 0
M  V30 11719 C 1119.24 4.59411 3.43117 0
M  V30 11720 N 1118.74 5.63657 4.02818 0
M  V30 11721 N 1120.53 4.46971 3.40842 0
M  V30 11722 H 1112.68 2.0967 0.339421 0
M  V30 11723 H 1114.95 0.923788 0.212882 0
M  V30 11724 H 1114.65 3.24551 1.35496 0
M  V30 11725 H 1114.53 2.41642 2.89636 0
M  V30 11726 H 1116.91 1.48751 2.54867 0
M  V30 11727 H 1116.99 2.35158 1.0067 0
M  V30 11728 H 1116.64 4.55445 2.24794 0
M  V30 11729 H 1116.57 3.65944 3.78672 0
M  V30 11730 H 1119.06 2.90129 2.42144 0
M  V30 11731 H 1119.37 6.31429 4.45552 0
M  V30 11732 H 1117.72 5.67461 4.01265 0
M  V30 11733 H 1120.91 3.64719 2.93424 0
M  V30 11734 H 1121.08 5.20341 3.86198 0
M  V30 11735 N 1114.49 -1.10549 1.12324 0
M  V30 11736 C 1115.9 -1.63991 0.892402 0
M  V30 11737 C 1116.25 -1.87631 -0.573506 0
M  V30 11738 O 1115.37 -1.6174 -1.43768 0
M  V30 11739 C 1115.97 -2.97914 1.61347 0
M  V30 11740 C 1114.53 -3.48227 1.42881 0
M  V30 11741 C 1113.68 -2.22857 1.65015 0
M  V30 11742 H 1116.63 -0.94065 1.27818 0
M  V30 11743 H 1116.65 -3.65326 1.06382 0
M  V30 11744 H 1116.16 -2.80677 2.68034 0
M  V30 11745 H 1114.26 -3.70611 0.384441 0
M  V30 11746 H 1114.37 -4.26419 2.18413 0
M  V30 11747 H 1112.74 -2.30941 1.07417 0
M  V30 11748 H 1113.52 -2.08152 2.72997 0
M  V30 11749 N 1115.97 -0.914965 -1.28321 0
M  V30 11750 C 1117.21 -0.547665 -1.94538 0
M  V30 11751 C 1117.53 0.911834 -1.72368 0
M  V30 11752 O 1116.8 1.64481 -1.06408 0
M  V30 11753 H 1115.38 -0.199549 -0.719853 0
M  V30 11754 H 1118.05 -1.16459 -1.5628 0
M  V30 11755 H 1117.14 -0.743138 -3.03124 0
M  V30 11756 N 1117.44 1.42219 -0.679077 0
M  V30 11757 C 1118.69 2.01777 -0.20342 0
M  V30 11758 C 1119.02 1.53592 1.18841 0
M  V30 11759 O 1118.3 0.739954 1.79875 0
M  V30 11760 C 1118.58 3.59281 -0.242791 0
M  V30 11761 C 1118.43 4.17634 -1.67038 0
M  V30 11762 C 1119.75 4.38218 0.406624 0
M  V30 11763 H 1116.87 0.733134 -0.0753916 0
M  V30 11764 H 1119.51 1.69185 -0.864673 0
M  V30 11765 H 1117.66 3.87178 0.320248 0
M  V30 11766 H 1119.34 4.00674 -2.286 0
M  V30 11767 H 1117.58 3.73301 -2.20973 0
M  V30 11768 H 1118.25 5.26776 -1.64958 0
M  V30 11769 H 1120.73 4.16036 -0.0727077 0
M  V30 11770 H 1119.6 5.47793 0.348457 0
M  V30 11771 H 1119.86 4.16418 1.48487 0
M  V30 11772 N 1118.92 0.422693 1.51826 0
M  V30 11773 C 1119.87 -0.396088 2.27376 0
M  V30 11774 C 1120.84 -1.02946 1.30351 0
M  V30 11775 O 1122.02 -1.05116 1.59233 0
M  V30 11776 C 1119.16 -1.49942 3.10824 0
M  V30 11777 C 1118.28 -0.885623 4.22825 0
M  V30 11778 C 1117.41 -1.96278 4.93608 0
M  V30 11779 C 1116.45 -1.32664 5.97551 0
M  V30 11780 N 1115.59 -2.34452 6.61798 0
M  V30 11781 H 1120.43 0.254571 2.96911 0
M  V30 11782 H 1117.96 0.137383 1.46457 0
M  V30 11783 H 1119.92 -2.15023 3.57521 0
M  V30 11784 H 1118.55 -2.11991 2.43433 0
M  V30 11785 H 1117.6 -0.123491 3.80199 0
M  V30 11786 H 1118.92 -0.381057 4.97342 0
M  V30 11787 H 1118.07 -2.69055 5.43778 0
M  V30 11788 H 1116.81 -2.50103 4.18688 0
M  V30 11789 H 1115.81 -0.584262 5.46687 0
M  V30 11790 H 1117.04 -0.7959 6.7442 0
M  V30 11791 H 1114.99 -2.87385 5.897 0
M  V30 11792 H 1114.9 -1.88845 7.32034 0
M  V30 11793 H 1116.17 -3.06757 7.16603 0
M  V30 11794 N 1120.4 -1.5685 0.153553 0
M  V30 11795 C 1121.31 -2.20664 -0.796528 0
M  V30 11796 C 1122.33 -1.19289 -1.26674 0
M  V30 11797 O 1123.5 -1.51889 -1.32256 0
M  V30 11798 C 1120.57 -2.82088 -2.01561 0
M  V30 11799 C 1119.63 -3.9861 -1.59401 0
M  V30 11800 C 1118.86 -4.57096 -2.75498 0
M  V30 11801 O 1119.08 -4.14462 -3.9189 0
M  V30 11802 O 1118.02 -5.47254 -2.50593 0
M  V30 11803 H 1121.84 -3.02376 -0.283282 0
M  V30 11804 H 1119.43 -1.49218 -0.0737927 0
M  V30 11805 H 1121.31 -3.21103 -2.72893 0
M  V30 11806 H 1119.99 -2.03385 -2.51826 0
M  V30 11807 H 1118.89 -3.64299 -0.850725 0
M  V30 11808 H 1120.23 -4.78853 -1.13845 0
M  V30 11809 N 1121.88 0.120221 -1.57141 0
M  V30 11810 C 1122.84 1.13159 -1.99318 0
M  V30 11811 C 1123.84 1.34376 -0.883158 0
M  V30 11812 O 1125.03 1.30914 -1.14922 0
M  V30 11813 C 1122.16 2.48632 -2.33227 0
M  V30 11814 H 1123.36 0.769119 -2.8987 0
M  V30 11815 H 1120.91 0.364475 -1.51991 0
M  V30 11816 H 1121.64 2.89802 -1.45551 0
M  V30 11817 H 1121.43 2.34587 -3.14184 0
M  V30 11818 H 1122.92 3.21423 -2.66603 0
M  V30 11819 N 1123.36 1.52689 0.390367 0
M  V30 11820 C 1124.61 1.6689 1.13272 0
M  V30 11821 C 1124.92 0.414433 1.91159 0
M  V30 11822 O 1126.12 0.436559 2.67967 0
M  V30 11823 C 1124.58 2.94929 2.06264 0
M  V30 11824 C 1124.19 4.27551 1.33805 0
M  V30 11825 C 1125.93 3.18497 2.80642 0
M  V30 11826 C 1123.84 5.46698 2.25554 0
M  V30 11827 H 1122.77 0.621749 0.426549 0
M  V30 11828 H 1125.42 1.79185 0.395615 0
M  V30 11829 H 1123.8 2.76378 2.83604 0
M  V30 11830 H 1124.98 4.56651 0.616997 0
M  V30 11831 H 1123.29 4.10234 0.713913 0
M  V30 11832 H 1125.89 4.04693 3.49467 0
M  V30 11833 H 1126.23 2.33511 3.44642 0
M  V30 11834 H 1126.76 3.37607 2.10395 0
M  V30 11835 H 1123.5 6.34088 1.66171 0
M  V30 11836 H 1123.02 5.21913 2.95579 0
M  V30 11837 H 1124.7 5.80519 2.85668 0
M  V30 11838 N 1124.83 -0.648732 1.43629 0
M  V30 11839 C 1125.77 -1.77417 1.45107 0
M  V30 11840 C 1126.78 -1.59067 0.346618 0
M  V30 11841 O 1127.97 -1.67705 0.611322 0
M  V30 11842 C 1125.07 -3.14906 1.25249 0
M  V30 11843 C 1124.24 -3.59874 2.48616 0
M  V30 11844 C 1123.3 -4.76181 2.23916 0
M  V30 11845 O 1122.33 -4.8539 2.97296 0
M  V30 11846 N 1123.53 -5.66691 1.25862 0
M  V30 11847 H 1126.29 -1.76626 2.42123 0
M  V30 11848 H 1123.85 -0.832725 1.38843 0
M  V30 11849 H 1125.85 -3.90408 1.06601 0
M  V30 11850 H 1124.42 -3.10443 0.366623 0
M  V30 11851 H 1123.64 -2.74768 2.82659 0
M  V30 11852 H 1124.92 -3.86665 3.30708 0
M  V30 11853 H 1124.32 -5.61927 0.652227 0
M  V30 11854 H 1122.88 -6.41895 1.13196 0
M  V30 11855 N 1126.31 -1.30234 -0.887518 0
M  V30 11856 C 1127.54 -1.21829 -1.67229 0
M  V30 11857 C 1127.96 0.219251 -1.87523 0
M  V30 11858 O 1127.31 1.14526 -1.42091 0
M  V30 11859 C 1127.36 -1.94044 -3.05007 0
M  V30 11860 O 1127.08 -3.32185 -2.85631 0
M  V30 11861 C 1128.59 -1.92265 -3.99436 0
M  V30 11862 H 1125.81 -0.421716 -0.521916 0
M  V30 11863 H 1128.35 -1.71816 -1.10903 0
M  V30 11864 H 1126.5 -1.47861 -3.58072 0
M  V30 11865 H 1126.92 -3.68724 -3.73018 0
M  V30 11866 H 1128.39 -2.47336 -4.93486 0
M  V30 11867 H 1128.87 -0.900984 -4.29859 0
M  V30 11868 H 1129.48 -2.38247 -3.52305 0
M  V30 11869 N 1127.79 1.09952 -1.12909 0
M  V30 11870 C 1129.03 1.83635 -0.897646 0
M  V30 11871 C 1129.39 1.83462 0.566179 0
M  V30 11872 O 1130.6 2.52748 0.914977 0
M  V30 11873 C 1128.87 3.26095 -1.46277 0
M  V30 11874 S 1130.43 4.16846 -1.37059 0
M  V30 11875 H 1127.24 0.633045 -0.32369 0
M  V30 11876 H 1129.85 1.32275 -1.43957 0
M  V30 11877 H 1128.55 3.23793 -2.52163 0
M  V30 11878 H 1128.08 3.82526 -0.918549 0
M  V30 11879 H 1130.1 4.94996 -0.345399 0
M  V30 11880 N 1129.27 0.921757 1.27833 0
M  V30 11881 C 1130.68 0.621102 1.47019 0
M  V30 11882 C 1130.88 -0.831338 1.83551 0
M  V30 11883 O 1129.94 -1.60974 1.94534 0
M  V30 11884 C 1131.25 1.56588 2.56712 0
M  V30 11885 C 1132.8 1.57346 2.70576 0
M  V30 11886 C 1133.28 2.50505 3.8342 0
M  V30 11887 N 1134.77 2.48678 3.90786 0
M  V30 11888 C 1135.5 3.17454 4.77505 0
M  V30 11889 N 1135 3.95588 5.68755 0
M  V30 11890 N 1136.79 3.06501 4.71183 0
M  V30 11891 H 1128.94 1.86085 1.02403 0
M  V30 11892 H 1131.21 0.798595 0.510833 0
M  V30 11893 H 1130.91 2.60175 2.36647 0
M  V30 11894 H 1130.79 1.30305 3.53978 0
M  V30 11895 H 1133.17 0.544919 2.90025 0
M  V30 11896 H 1133.25 1.87675 1.73815 0
M  V30 11897 H 1132.9 3.53466 3.64725 0
M  V30 11898 H 1132.83 2.17474 4.79596 0
M  V30 11899 H 1135.32 1.91928 3.25534 0
M  V30 11900 H 1135.63 4.45066 6.31772 0
M  V30 11901 H 1133.98 3.99692 5.6857 0
M  V30 11902 H 1137.17 2.44958 3.9889 0
M  V30 11903 H 1137.34 3.60372 5.3855 0
M  V30 11904 N 1130.75 -1.41857 0.686609 0
M  V30 11905 C 1131.66 -2.34595 0.0159005 0
M  V30 11906 C 1132.67 -1.55741 -0.775933 0
M  V30 11907 O 1133.85 -1.8826 -0.71555 0
M  V30 11908 C 1130.91 -3.34395 -0.915473 0
M  V30 11909 C 1129.97 -4.29141 -0.116851 0
M  V30 11910 C 1129.21 -5.24174 -1.00386 0
M  V30 11911 O 1129.43 -5.24431 -2.2434 0
M  V30 11912 O 1128.36 -6.00152 -0.458337 0
M  V30 11913 H 1132.19 -2.9351 0.780101 0
M  V30 11914 H 1129.78 -1.42559 0.446896 0
M  V30 11915 H 1131.66 -3.95675 -1.44981 0
M  V30 11916 H 1130.33 -2.77936 -1.65932 0
M  V30 11917 H 1129.24 -3.71238 0.461871 0
M  V30 11918 H 1130.57 -4.88673 0.588138 0
M  V30 11919 N 1132.22 -0.430739 -1.51599 0
M  V30 11920 C 1133.19 0.372319 -2.26156 0
M  V30 11921 C 1134.19 0.955338 -1.29344 0
M  V30 11922 O 1135.38 0.830823 -1.53111 0
M  V30 11923 C 1132.51 1.52613 -3.04831 0
M  V30 11924 H 1133.7 -0.280996 -2.98581 0
M  V30 11925 H 1131.26 -0.183749 -1.55216 0
M  V30 11926 H 1131.99 2.21569 -2.36807 0
M  V30 11927 H 1131.78 1.11433 -3.75932 0
M  V30 11928 H 1133.27 2.09366 -3.61325 0
M  V30 11929 N 1133.7 1.56767 -0.161869 0
M  V30 11930 C 1134.63 2.1466 0.803356 0
M  V30 11931 C 1135.65 1.09977 1.20037 0
M  V30 11932 O 1136.84 1.37199 1.14187 0
M  V30 11933 C 1133.94 2.66663 2.09151 0
M  V30 11934 C 1133.11 3.95904 1.85953 0
M  V30 11935 C 1132.17 4.33067 2.98897 0
M  V30 11936 O 1131.19 5.01119 2.69942 0
M  V30 11937 N 1132.4 3.93856 4.26448 0
M  V30 11938 H 1135.16 2.98108 0.308472 0
M  V30 11939 H 1132.72 1.61886 0.0212238 0
M  V30 11940 H 1134.71 2.88528 2.83784 0
M  V30 11941 H 1133.28 1.87856 2.49857 0
M  V30 11942 H 1132.5 3.82513 0.952751 0
M  V30 11943 H 1133.79 4.8033 1.67811 0
M  V30 11944 H 1133.19 3.39051 4.52836 0
M  V30 11945 H 1131.75 4.20741 4.97815 0
M  V30 11946 N 1135.18 -0.111886 1.57202 0
M  V30 11947 C 1136.43 -0.819623 1.85499 0
M  V30 11948 C 1136.76 -1.7919 0.748629 0
M  V30 11949 O 1136.03 -1.92952 -0.244918 0
M  V30 11950 C 1136.32 -1.56324 3.24399 0
M  V30 11951 C 1136.17 -0.610081 4.45643 0
M  V30 11952 C 1137.49 -2.51777 3.60966 0
M  V30 11953 H 1134.61 -0.296512 0.674722 0
M  V30 11954 H 1137.25 -0.0836741 1.89816 0
M  V30 11955 H 1135.4 -2.1906 3.2085 0
M  V30 11956 H 1137.07 0.00898038 4.61299 0
M  V30 11957 H 1135.32 0.0778488 4.3373 0
M  V30 11958 H 1135.99 -1.16718 5.39519 0
M  V30 11959 H 1138.46 -1.99143 3.65351 0
M  V30 11960 H 1137.34 -3.00835 4.59118 0
M  V30 11961 H 1137.6 -3.34769 2.8876 0
M  V30 11962 N 1136.66 -1.52894 -0.382264 0
M  V30 11963 C 1137.61 -1.78151 -1.46734 0
M  V30 11964 C 1138.58 -0.625034 -1.53891 0
M  V30 11965 O 1139.76 -0.865467 -1.70042 0
M  V30 11966 C 1136.9 -1.96223 -2.83885 0
M  V30 11967 C 1136.01 -3.23925 -2.85826 0
M  V30 11968 C 1135.15 -3.32277 -4.14446 0
M  V30 11969 C 1134.19 -4.54076 -4.10465 0
M  V30 11970 N 1133.32 -4.59672 -5.30703 0
M  V30 11971 H 1138.16 -2.70748 -1.24497 0
M  V30 11972 H 1135.7 -1.34135 -0.603838 0
M  V30 11973 H 1137.66 -2.04686 -3.63537 0
M  V30 11974 H 1136.29 -1.0698 -3.04557 0
M  V30 11975 H 1135.34 -3.245 -1.98505 0
M  V30 11976 H 1136.65 -4.1364 -2.78754 0
M  V30 11977 H 1135.81 -3.3996 -5.02506 0
M  V30 11978 H 1134.55 -2.40548 -4.2425 0
M  V30 11979 H 1133.55 -4.46511 -3.20793 0
M  V30 11980 H 1134.78 -5.47128 -4.02278 0
M  V30 11981 H 1132.72 -3.70838 -5.41124 0
M  V30 11982 H 1132.64 -5.43268 -5.25734 0
M  V30 11983 H 1133.91 -4.71618 -6.20642 0
M  V30 11984 N 1138.14 0.641106 -1.43971 0
M  V30 11985 C 1139.38 1.40291 -1.46445 0
M  V30 11986 C 1139.72 1.93978 -0.0929004 0
M  V30 11987 O 1138.99 1.73043 0.888043 0
M  V30 11988 C 1139.27 2.57551 -2.51673 0
M  V30 11989 C 1139.13 2.09279 -3.98149 0
M  V30 11990 C 1140.45 3.59752 -2.53508 0
M  V30 11991 H 1137.57 0.508771 -0.533218 0
M  V30 11992 H 1140.21 0.725767 -1.75592 0
M  V30 11993 H 1138.36 3.15319 -2.2695 0
M  V30 11994 H 1140.03 1.56418 -4.33971 0
M  V30 11995 H 1138.27 1.40545 -4.10402 0
M  V30 11996 H 1138.94 2.93655 -4.67409 0
M  V30 11997 H 1141.42 3.11766 -2.75574 0
M  V30 11998 H 1140.3 4.39332 -3.29057 0
M  V30 11999 H 1140.56 4.13156 -1.57335 0
M  V30 12000 N 1139.62 1.30703 0.880598 0
M  V30 12001 C 1140.86 1.19142 1.62752 0
M  V30 12002 C 1141.18 -0.251795 1.93973 0
M  V30 12003 O 1142.38 -0.488971 2.67061 0
M  V30 12004 C 1140.84 2.08503 2.93351 0
M  V30 12005 C 1140.45 3.57758 2.69653 0
M  V30 12006 C 1142.19 2.05715 3.71324 0
M  V30 12007 C 1140.1 4.39161 3.96096 0
M  V30 12008 H 1139.03 0.442332 0.610622 0
M  V30 12009 H 1141.68 1.55483 0.974547 0
M  V30 12010 H 1140.06 1.65049 3.59965 0
M  V30 12011 H 1141.24 4.09388 2.11513 0
M  V30 12012 H 1139.55 3.62414 2.0505 0
M  V30 12013 H 1142.15 2.63783 4.65105 0
M  V30 12014 H 1142.49 1.04168 4.03057 0
M  V30 12015 H 1143.02 2.47313 3.11579 0
M  V30 12016 H 1139.76 5.4142 3.69519 0
M  V30 12017 H 1139.28 3.92293 4.53725 0
M  V30 12018 H 1140.96 4.50823 4.64077 0
M  V30 12019 N 1141.09 -1.09351 1.1349 0
M  V30 12020 C 1142.03 -2.15291 0.756645 0
M  V30 12021 C 1143 -1.60548 -0.257497 0
M  V30 12022 O 1144.19 -1.87912 -0.14882 0
M  V30 12023 C 1141.32 -3.38481 0.121799 0
M  V30 12024 C 1140.36 -4.11949 1.10456 0
M  V30 12025 S 1141.19 -4.6605 2.63738 0
M  V30 12026 C 1142.35 -5.92539 2.01615 0
M  V30 12027 H 1142.58 -2.47044 1.65398 0
M  V30 12028 H 1140.12 -1.21312 0.955129 0
M  V30 12029 H 1142.07 -4.09809 -0.238086 0
M  V30 12030 H 1140.74 -3.04945 -0.752821 0
M  V30 12031 H 1139.93 -5.00317 0.608195 0
M  V30 12032 H 1139.53 -3.46486 1.40795 0
M  V30 12033 H 1141.82 -6.63593 1.36569 0
M  V30 12034 H 1142.77 -6.46856 2.88068 0
M  V30 12035 H 1143.17 -5.45094 1.46741 0
M  V30 12036 N 1142.57 -0.928524 -1.27343 0
M  V30 12037 C 1143.82 -0.565207 -1.93619 0
M  V30 12038 C 1144.13 0.897988 -1.73769 0
M  V30 12039 O 1145.34 1.37012 -2.34393 0
M  V30 12040 C 1143.8 -0.960052 -3.46859 0
M  V30 12041 C 1143.4 -2.44399 -3.75464 0
M  V30 12042 C 1145.15 -0.668026 -4.19211 0
M  V30 12043 C 1143.05 -2.77819 -5.22083 0
M  V30 12044 H 1141.98 -0.207665 -0.724839 0
M  V30 12045 H 1144.64 -1.12945 -1.44623 0
M  V30 12046 H 1143.02 -0.324454 -3.94669 0
M  V30 12047 H 1144.19 -3.12756 -3.38408 0
M  V30 12048 H 1142.51 -2.70799 -3.16317 0
M  V30 12049 H 1145.1 -0.894207 -5.2717 0
M  V30 12050 H 1145.45 0.394788 -4.14424 0
M  V30 12051 H 1145.98 -1.26276 -3.77226 0
M  V30 12052 H 1142.72 -3.83013 -5.3196 0
M  V30 12053 H 1142.24 -2.14112 -5.60282 0
M  V30 12054 H 1143.92 -2.65607 -5.89968 0
M  V30 12055 N 1144.05 1.41491 -0.694123 0
M  V30 12056 C 1145.28 2.05579 -0.233466 0
M  V30 12057 C 1145.69 1.5223 1.11675 0
M  V30 12058 O 1145.05 0.669937 1.69759 0
M  V30 12059 C 1145.1 3.61047 -0.180967 0
M  V30 12060 O 1144.82 4.12421 -1.47785 0
M  V30 12061 C 1146.32 4.42278 0.300853 0
M  V30 12062 H 1143.54 0.662097 -0.108943 0
M  V30 12063 H 1146.09 1.81288 -0.946299 0
M  V30 12064 H 1144.24 3.84381 0.482678 0
M  V30 12065 H 1144.66 5.06454 -1.364 0
M  V30 12066 H 1146.13 5.51256 0.286464 0
M  V30 12067 H 1146.61 4.18276 1.33948 0
M  V30 12068 H 1147.21 4.24004 -0.331741 0
M  V30 12069 N 1145.53 0.438773 1.51369 0
M  V30 12070 C 1146.78 -0.126962 2.01701 0
M  V30 12071 C 1147.1 -1.43086 1.32481 0
M  V30 12072 O 1146.37 -1.90427 0.459823 0
M  V30 12073 H 1144.95 -0.0499092 0.745331 0
M  V30 12074 H 1147.61 0.581808 1.86013 0
M  V30 12075 H 1146.7 -0.301836 3.10637 0
M  V30 12076 N 1147.01 -1.56678 0.170181 0
M  V30 12077 C 1148.28 -1.88524 -0.521362 0
M  V30 12078 C 1148.66 -1.07989 -1.81388 0
M  V30 12079 O 1148.01 -0.17347 -2.27841 0
M  V30 12080 C 1148.22 -3.40527 -0.764367 0
M  V30 12081 C 1149.57 -4.10241 -1.09487 0
M  V30 12082 O 1150.59 -3.45837 -0.852945 0
M  V30 12083 O 1149.45 -5.24022 -1.55124 0
M  V30 12084 H 1146.55 -0.782161 -0.268614 0
M  V30 12085 H 1149.09 -1.68414 0.208531 0
M  V30 12086 H 1147.86 -3.91015 0.149416 0
M  V30 12087 H 1147.49 -3.66244 -1.54762 0
M  V30 12088 N 1148.48 0.103547 -1.57259 0
M  V30 12089 C 1149.42 1.15225 -1.98131 0
M  V30 12090 C 1150.43 1.36793 -0.882692 0
M  V30 12091 O 1151.62 1.35595 -1.16088 0
M  V30 12092 C 1148.72 2.50941 -2.27776 0
M  V30 12093 C 1147.89 2.49765 -3.59077 0
M  V30 12094 C 1146.95 3.67344 -3.76756 0
M  V30 12095 O 1145.98 3.50221 -4.48702 0
M  V30 12096 N 1147.18 4.86504 -3.16692 0
M  V30 12097 H 1149.94 0.804448 -2.88702 0
M  V30 12098 H 1147.5 0.292636 -1.59233 0
M  V30 12099 H 1149.5 3.28186 -2.36804 0
M  V30 12100 H 1148.07 2.77843 -1.43255 0
M  V30 12101 H 1147.29 1.58125 -3.61096 0
M  V30 12102 H 1148.57 2.4605 -4.4535 0
M  V30 12103 H 1147.97 5.03319 -2.58236 0
M  V30 12104 H 1146.53 5.61371 -3.31218 0
M  V30 12105 N 1149.96 1.53094 0.37415 0
M  V30 12106 C 1150.91 1.78927 1.45787 0
M  V30 12107 C 1151.88 0.633187 1.53558 0
M  V30 12108 O 1153.06 0.874472 1.69581 0
M  V30 12109 C 1150.2 1.97726 2.8284 0
M  V30 12110 C 1149.32 3.25436 2.84104 0
M  V30 12111 C 1148.45 3.3447 4.12678 0
M  V30 12112 C 1147.49 4.56246 4.08051 0
M  V30 12113 N 1146.63 4.6248 5.28258 0
M  V30 12114 H 1151.47 2.71404 1.2306 0
M  V30 12115 H 1149 1.34453 0.596716 0
M  V30 12116 H 1150.96 2.06611 3.62447 0
M  V30 12117 H 1149.59 1.08593 3.03986 0
M  V30 12118 H 1148.64 3.25548 1.96781 0
M  V30 12119 H 1149.96 4.15112 2.76556 0
M  V30 12120 H 1149.11 3.4262 5.00696 0
M  V30 12121 H 1147.85 2.42795 4.22968 0
M  V30 12122 H 1146.85 4.48206 3.1842 0
M  V30 12123 H 1148.08 5.49254 3.99371 0
M  V30 12124 H 1146.03 3.73703 5.3915 0
M  V30 12125 H 1145.94 5.46049 5.22845 0
M  V30 12126 H 1147.21 4.74903 6.18132 0
M  V30 12127 N 1151.44 -0.633461 1.44309 0
M  V30 12128 C 1152.85 -1.21504 1.41752 0
M  V30 12129 C 1153.2 -1.95758 0.131667 0
M  V30 12130 O 1152.33 -2.02311 -0.768072 0
M  V30 12131 C 1152.92 -2.21005 2.56792 0
M  V30 12132 C 1151.48 -2.74596 2.57438 0
M  V30 12133 C 1150.63 -1.49555 2.33513 0
M  V30 12134 H 1153.58 -0.424277 1.52923 0
M  V30 12135 H 1153.6 -3.03563 2.29412 0
M  V30 12136 H 1153.11 -1.66934 3.50364 0
M  V30 12137 H 1151.21 -3.32676 1.67801 0
M  V30 12138 H 1151.33 -3.20794 3.55849 0
M  V30 12139 H 1149.69 -1.77605 1.82561 0
M  V30 12140 H 1150.47 -0.973899 3.29196 0
M  V30 12141 N 1152.92 -1.31168 -0.873655 0
M  V30 12142 C 1154.15 -1.23595 -1.65927 0
M  V30 12143 C 1154.56 0.199349 -1.87745 0
M  V30 12144 O 1153.92 1.13013 -1.43298 0
M  V30 12145 C 1153.97 -1.97268 -3.02932 0
M  V30 12146 O 1153.69 -3.35196 -2.82091 0
M  V30 12147 C 1155.19 -1.9649 -3.97374 0
M  V30 12148 H 1152.41 -0.427228 -0.517414 0
M  V30 12149 H 1154.96 -1.72983 -1.09074 0
M  V30 12150 H 1153.11 -1.51651 -3.56484 0
M  V30 12151 H 1153.52 -3.7266 -3.69087 0
M  V30 12152 H 1155 -2.52557 -4.90835 0
M  V30 12153 H 1155.48 -0.946525 -4.28879 0
M  V30 12154 H 1156.08 -2.4197 -3.49758 0
M  V30 12155 N 1154.4 1.08748 -1.14068 0
M  V30 12156 C 1155.36 2.1375 -0.827266 0
M  V30 12157 C 1156.36 1.59936 0.166496 0
M  V30 12158 O 1157.55 1.74092 -0.0614305 0
M  V30 12159 C 1154.68 3.40106 -0.232557 0
M  V30 12160 H 1155.87 2.42985 -1.7578 0
M  V30 12161 H 1153.43 1.24402 -0.946244 0
M  V30 12162 H 1154.16 3.16503 0.706859 0
M  V30 12163 H 1153.95 3.8046 -0.948293 0
M  V30 12164 H 1155.44 4.17589 -0.0303662 0
M  V30 12165 N 1155.87 0.935264 1.26849 0
M  V30 12166 C 1157.12 0.580548 1.94313 0
M  V30 12167 C 1157.45 -0.877205 1.73259 0
M  V30 12168 O 1156.73 -1.62679 1.06611 0
M  V30 12169 C 1157.01 0.916445 3.48243 0
M  V30 12170 C 1156.86 2.42851 3.78607 0
M  V30 12171 C 1158.18 0.427665 4.38017 0
M  V30 12172 H 1155.3 0.21239 0.705733 0
M  V30 12173 H 1157.94 1.16841 1.49827 0
M  V30 12174 H 1156.09 0.416169 3.86265 0
M  V30 12175 H 1157.77 3.00106 3.50335 0
M  V30 12176 H 1156.01 2.8745 3.24892 0
M  V30 12177 H 1156.68 2.61405 4.8618 0
M  V30 12178 H 1159.16 0.856525 4.07189 0
M  V30 12179 H 1158.03 0.691571 5.44526 0
M  V30 12180 H 1158.29 -0.672344 4.36958 0
M  V30 12181 N 1157.35 -1.41121 0.701616 0
M  V30 12182 C 1158.32 -2.29148 0.0490091 0
M  V30 12183 C 1159.32 -1.44679 -0.701763 0
M  V30 12184 O 1160.51 -1.65757 -0.53575 0
M  V30 12185 C 1157.64 -3.2766 -0.940837 0
M  V30 12186 H 1158.83 -2.88354 0.824133 0
M  V30 12187 H 1156.38 -1.49209 0.465457 0
M  V30 12188 H 1157.12 -2.73445 -1.74351 0
M  V30 12189 H 1156.9 -3.89997 -0.405551 0
M  V30 12190 H 1158.39 -3.93609 -1.39507 0
M  V30 12191 N 1158.83 -0.446794 -1.51134 0
M  V30 12192 C 1160.08 0.118047 -2.01354 0
M  V30 12193 C 1160.39 1.42953 -1.33505 0
M  V30 12194 O 1161.6 2.07788 -1.74747 0
M  V30 12195 C 1160.05 0.260912 -3.58953 0
M  V30 12196 C 1159.66 -1.0407 -4.35745 0
M  V30 12197 C 1161.41 0.779014 -4.17291 0
M  V30 12198 C 1159.31 -0.862958 -5.8507 0
M  V30 12199 H 1158.24 0.0478915 -0.752478 0
M  V30 12200 H 1160.89 -0.577997 -1.74159 0
M  V30 12201 H 1159.28 1.02018 -3.82633 0
M  V30 12202 H 1160.45 -1.80903 -4.23805 0
M  V30 12203 H 1158.77 -1.48805 -3.88904 0
M  V30 12204 H 1161.36 0.928636 -5.26574 0
M  V30 12205 H 1161.71 1.76399 -3.7708 0
M  V30 12206 H 1162.24 0.0778022 -3.97724 0
M  V30 12207 H 1158.98 -1.82059 -6.2971 0
M  V30 12208 H 1158.5 -0.134588 -5.99649 0
M  V30 12209 H 1160.18 -0.51989 -6.44908 0
M  V30 12210 N 1160.31 1.56586 -0.178487 0
M  V30 12211 C 1161.56 1.96709 0.4637 0
M  V30 12212 C 1161.88 1.06586 1.63292 0
M  V30 12213 O 1161.15 0.133683 1.95443 0
M  V30 12214 H 1159.73 0.726381 0.174299 0
M  V30 12215 H 1162.39 1.9314 -0.261345 0
M  V30 12216 H 1161.49 3.01164 0.818934 0
M  V30 12217 N 1161.79 -0.095206 1.57312 0
M  V30 12218 C 1162.73 -1.11551 2.02052 0
M  V30 12219 C 1163.7 -1.39808 0.896818 0
M  V30 12220 O 1164.89 -1.51273 1.1628 0
M  V30 12221 C 1162.03 -2.43056 2.44985 0
M  V30 12222 C 1161.14 -2.21531 3.70875 0
M  V30 12223 C 1160.28 -3.46434 4.02687 0
M  V30 12224 C 1159.32 -3.2017 5.21687 0
M  V30 12225 N 1158.45 -4.37339 5.49253 0
M  V30 12226 H 1163.29 -0.727 2.88996 0
M  V30 12227 H 1160.83 -0.347441 1.42938 0
M  V30 12228 H 1162.79 -3.19803 2.67921 0
M  V30 12229 H 1161.42 -2.79754 1.61051 0
M  V30 12230 H 1160.47 -1.35587 3.55416 0
M  V30 12231 H 1161.78 -1.98116 4.57768 0
M  V30 12232 H 1160.94 -4.31589 4.26399 0
M  V30 12233 H 1159.67 -3.72904 3.14315 0
M  V30 12234 H 1158.68 -2.33409 4.97796 0
M  V30 12235 H 1159.9 -2.95047 6.11657 0
M  V30 12236 H 1157.85 -4.63885 4.6384 0
M  V30 12237 H 1157.77 -4.17114 6.30517 0
M  V30 12238 H 1159.04 -5.23559 5.775 0
M  V30 12239 N 1163.26 -1.53291 -0.366026 0
M  V30 12240 C 1164.19 -1.82675 -1.45437 0
M  V30 12241 C 1165.18 -0.680227 -1.55907 0
M  V30 12242 O 1166.36 -0.930032 -1.70482 0
M  V30 12243 C 1163.49 -2.01626 -2.8278 0
M  V30 12244 C 1162.44 -3.17391 -2.87135 0
M  V30 12245 C 1161.77 -3.21634 -4.27148 0
M  V30 12246 C 1163.07 -4.5599 -2.54697 0
M  V30 12247 H 1164.76 -2.73818 -1.21096 0
M  V30 12248 H 1162.31 -1.31754 -0.581108 0
M  V30 12249 H 1164.26 -2.20765 -3.58944 0
M  V30 12250 H 1162.99 -1.07193 -3.08508 0
M  V30 12251 H 1161.65 -2.98071 -2.13422 0
M  V30 12252 H 1161.29 -2.2484 -4.49951 0
M  V30 12253 H 1160.99 -3.99414 -4.30978 0
M  V30 12254 H 1162.52 -3.42957 -5.05186 0
M  V30 12255 H 1163.93 -4.75294 -3.20575 0
M  V30 12256 H 1162.33 -5.36008 -2.69844 0
M  V30 12257 H 1163.4 -4.61133 -1.49949 0
M  V30 12258 N 1164.74 0.6258 -1.44643 0
M  V30 12259 C 1165.99 1.38125 -1.46984 0
M  V30 12260 C 1166.3 1.95299 -0.108429 0
M  V30 12261 O 1167.51 2.71498 -0.00940005 0
M  V30 12262 C 1165.97 2.50108 -2.58793 0
M  V30 12263 C 1165.57 1.99424 -4.01166 0
M  V30 12264 C 1167.32 3.27269 -2.70361 0
M  V30 12265 C 1165.23 3.08781 -5.04389 0
M  V30 12266 H 1164.16 0.519083 -0.546872 0
M  V30 12267 H 1166.81 0.67268 -1.70726 0
M  V30 12268 H 1165.19 3.23565 -2.28302 0
M  V30 12269 H 1166.36 1.32797 -4.4125 0
M  V30 12270 H 1164.68 1.35063 -3.93887 0
M  V30 12271 H 1167.27 4.08802 -3.44652 0
M  V30 12272 H 1167.62 3.77097 -1.76362 0
M  V30 12273 H 1168.15 2.60905 -3.00289 0
M  V30 12274 H 1164.89 2.63891 -6.00035 0
M  V30 12275 H 1164.41 3.74033 -4.68892 0
M  V30 12276 H 1166.09 3.73469 -5.28328 0
M  V30 12277 N 1166.22 1.31629 0.866686 0
M  V30 12278 C 1167.47 1.21263 1.61678 0
M  V30 12279 C 1167.79 -0.228562 1.93656 0
M  V30 12280 O 1167.06 -1.15014 1.58583 0
M  V30 12281 H 1165.64 0.445817 0.59938 0
M  V30 12282 H 1168.3 1.64998 1.03739 0
M  V30 12283 H 1167.4 1.78669 2.55898 0
M  V30 12284 N 1167.7 -1.08142 1.14644 0
M  V30 12285 C 1168.63 -2.17139 0.858667 0
M  V30 12286 C 1169.61 -1.69064 -0.187452 0
M  V30 12287 O 1170.8 -1.94151 -0.0435458 0
M  V30 12288 C 1167.93 -3.45648 0.33834 0
M  V30 12289 C 1166.88 -4.07129 1.32021 0
M  V30 12290 C 1166.21 -5.30623 0.659075 0
M  V30 12291 C 1167.51 -4.48095 2.68343 0
M  V30 12292 H 1169.2 -2.41468 1.77012 0
M  V30 12293 H 1166.75 -1.16052 0.852523 0
M  V30 12294 H 1168.7 -4.21216 0.124611 0
M  V30 12295 H 1167.42 -3.2088 -0.608553 0
M  V30 12296 H 1166.08 -3.33596 1.52016 0
M  V30 12297 H 1165.73 -5.02142 -0.293711 0
M  V30 12298 H 1165.43 -5.72714 1.31427 0
M  V30 12299 H 1166.95 -6.08903 0.454933 0
M  V30 12300 H 1168.37 -5.14828 2.5224 0
M  V30 12301 H 1166.76 -5.01113 3.30161 0
M  V30 12302 H 1167.83 -3.59852 3.25015 0
M  V30 12303 N 1169.18 -0.941978 -1.26351 0
M  V30 12304 C 1170.43 -0.585711 -1.93009 0
M  V30 12305 C 1170.74 0.879507 -1.74711 0
M  V30 12306 O 1171.95 1.34518 -2.35833 0
M  V30 12307 C 1170.4 -0.996787 -3.45821 0
M  V30 12308 C 1170.01 -2.48367 -3.72851 0
M  V30 12309 C 1171.75 -0.712452 -4.18479 0
M  V30 12310 C 1169.66 -2.83341 -5.19107 0
M  V30 12311 H 1168.59 -0.215342 -0.722595 0
M  V30 12312 H 1171.24 -1.14472 -1.43417 0
M  V30 12313 H 1169.62 -0.366295 -3.94302 0
M  V30 12314 H 1170.8 -3.16328 -3.35072 0
M  V30 12315 H 1169.11 -2.74139 -3.13427 0
M  V30 12316 H 1171.71 -0.95007 -5.26192 0
M  V30 12317 H 1172.05 0.350811 -4.14819 0
M  V30 12318 H 1172.59 -1.3027 -3.75865 0
M  V30 12319 H 1169.32 -3.88633 -5.27868 0
M  V30 12320 H 1168.84 -2.20043 -5.5798 0
M  V30 12321 H 1170.52 -2.71849 -5.87118 0
M  V30 12322 N 1170.66 1.40747 -0.709091 0
M  V30 12323 C 1171.57 2.3454 -0.0532205 0
M  V30 12324 C 1172.58 1.56956 0.751057 0
M  V30 12325 O 1173.76 1.89375 0.685509 0
M  V30 12326 C 1170.82 3.35809 0.862157 0
M  V30 12327 C 1169.88 4.29273 0.0485632 0
M  V30 12328 C 1169.12 5.25705 0.920345 0
M  V30 12329 O 1169.34 5.27933 2.15969 0
M  V30 12330 O 1168.27 6.00806 0.3628 0
M  V30 12331 H 1172.1 2.92232 -0.826698 0
M  V30 12332 H 1169.68 1.4183 -0.469519 0
M  V30 12333 H 1171.57 3.97931 1.38668 0
M  V30 12334 H 1170.24 2.8054 1.61489 0
M  V30 12335 H 1169.15 3.70456 -0.520873 0
M  V30 12336 H 1170.48 4.87676 -0.665807 0
M  V30 12337 N 1172.13 0.454803 1.50895 0
M  V30 12338 C 1173.04 -0.353495 2.31921 0
M  V30 12339 C 1174.06 -1.01136 1.41589 0
M  V30 12340 O 1175.24 -1.00291 1.74653 0
M  V30 12341 C 1172.3 -1.43032 3.15821 0
M  V30 12342 C 1171.36 -0.790763 4.21954 0
M  V30 12343 C 1170.59 -1.81628 5.01843 0
M  V30 12344 O 1170.82 -3.04078 4.8259 0
M  V30 12345 O 1169.75 -1.39713 5.8546 0
M  V30 12346 H 1173.58 0.308463 3.02129 0
M  V30 12347 H 1171.16 0.216971 1.47816 0
M  V30 12348 H 1173.04 -2.05444 3.67927 0
M  V30 12349 H 1171.72 -2.07605 2.48358 0
M  V30 12350 H 1170.63 -0.128127 3.73881 0
M  V30 12351 H 1171.96 -0.188251 4.9184 0
M  V30 12352 N 1173.61 -1.56489 0.186789 0
M  V30 12353 C 1174.56 -2.18703 -0.737402 0
M  V30 12354 C 1175.53 -1.13171 -1.21579 0
M  V30 12355 O 1176.71 -1.41388 -1.28118 0
M  V30 12356 C 1173.85 -2.84394 -1.95484 0
M  V30 12357 C 1172.97 -4.04429 -1.51859 0
M  V30 12358 C 1172.1 -4.58001 -2.69089 0
M  V30 12359 C 1171.14 -5.70412 -2.22029 0
M  V30 12360 N 1170.28 -6.18425 -3.32407 0
M  V30 12361 H 1175.12 -2.97327 -0.200105 0
M  V30 12362 H 1172.65 -1.46842 -0.087032 0
M  V30 12363 H 1174.61 -3.20646 -2.66912 0
M  V30 12364 H 1173.24 -2.08347 -2.46559 0
M  V30 12365 H 1172.29 -3.73895 -0.70048 0
M  V30 12366 H 1173.61 -4.85756 -1.13327 0
M  V30 12367 H 1172.76 -4.96515 -3.48652 0
M  V30 12368 H 1171.5 -3.75764 -3.1089 0
M  V30 12369 H 1170.5 -5.31434 -1.40918 0
M  V30 12370 H 1171.73 -6.54461 -1.81268 0
M  V30 12371 H 1169.68 -5.39113 -3.73755 0
M  V30 12372 H 1169.59 -6.94782 -2.98017 0
M  V30 12373 H 1170.86 -6.61592 -4.12209 0
M  V30 12374 N 1175.09 0.086862 -1.5736 0
M  V30 12375 C 1176.31 0.806017 -1.91097 0
M  V30 12376 C 1176.74 1.71082 -0.78183 0
M  V30 12377 O 1176.1 1.79335 0.266175 0
M  V30 12378 C 1176.15 1.5884 -3.23732 0
M  V30 12379 O 1175.25 2.69798 -3.11902 0
M  V30 12380 H 1174.59 0.220899 -0.626179 0
M  V30 12381 H 1177.12 0.059619 -2.04513 0
M  V30 12382 H 1177.13 1.97088 -3.5724 0
M  V30 12383 H 1175.81 0.924426 -4.05496 0
M  V30 12384 H 1174.38 2.34519 -2.89923 0
M  V30 12385 N 1176.57 1.53483 0.357892 0
M  V30 12386 C 1177.48 1.83434 1.4625 0
M  V30 12387 C 1178.49 0.723313 1.58254 0
M  V30 12388 O 1179.67 1.01416 1.74002 0
M  V30 12389 C 1176.73 2.0249 2.81423 0
M  V30 12390 C 1175.8 3.26378 2.78883 0
M  V30 12391 C 1175.03 3.44516 4.07608 0
M  V30 12392 O 1175.25 2.66787 5.04163 0
M  V30 12393 O 1174.19 4.37898 4.12952 0
M  V30 12394 H 1178.01 2.77294 1.23861 0
M  V30 12395 H 1175.6 1.38958 0.548722 0
M  V30 12396 H 1177.48 2.16552 3.61501 0
M  V30 12397 H 1176.15 1.11819 3.03773 0
M  V30 12398 H 1175.06 3.17733 1.97475 0
M  V30 12399 H 1176.39 4.16996 2.61486 0
M  V30 12400 N 1178.05 -0.61812 1.44973 0
M  V30 12401 C 1178.98 -1.74299 1.48837 0
M  V30 12402 C 1179.99 -1.58296 0.38028 0
M  V30 12403 O 1181.18 -1.66371 0.646757 0
M  V30 12404 C 1178.28 -3.12179 1.31901 0
M  V30 12405 C 1177.45 -3.54519 2.56193 0
M  V30 12406 C 1176.51 -4.71324 2.33966 0
M  V30 12407 O 1175.54 -4.78975 3.07525 0
M  V30 12408 N 1176.74 -5.63894 1.37854 0
M  V30 12409 H 1179.5 -1.7145 2.45815 0
M  V30 12410 H 1177.07 -0.803087 1.40578 0
M  V30 12411 H 1179.06 -3.88059 1.14858 0
M  V30 12412 H 1177.63 -3.09595 0.43239 0
M  V30 12413 H 1176.85 -2.68711 2.88423 0
M  V30 12414 H 1178.14 -3.79563 3.38835 0
M  V30 12415 H 1177.53 -5.60418 0.771273 0
M  V30 12416 H 1176.09 -6.3935 1.26787 0
M  V30 12417 N 1179.52 -1.32087 -0.859693 0
M  V30 12418 C 1180.77 -1.22542 -1.6159 0
M  V30 12419 C 1181.1 0.213533 -1.93022 0
M  V30 12420 O 1180.38 1.14931 -1.56911 0
M  V30 12421 C 1180.66 -2.08004 -2.93949 0
M  V30 12422 C 1180.51 -3.60252 -2.6933 0
M  V30 12423 C 1181.83 -1.93732 -3.95166 0
M  V30 12424 H 1178.95 -0.446504 -0.586347 0
M  V30 12425 H 1181.59 -1.61982 -0.993064 0
M  V30 12426 H 1179.74 -1.74498 -3.47106 0
M  V30 12427 H 1181.42 -4.03947 -2.22766 0
M  V30 12428 H 1179.66 -3.83169 -2.03382 0
M  V30 12429 H 1180.33 -4.1537 -3.63555 0
M  V30 12430 H 1182.81 -2.23075 -3.5125 0
M  V30 12431 H 1181.68 -2.55815 -4.85644 0
M  V30 12432 H 1181.94 -0.903528 -4.32769 0
M  V30 12433 N 1181 1.07532 -1.15215 0
M  V30 12434 C 1181.91 2.18222 -0.861192 0
M  V30 12435 C 1182.93 1.73246 0.161798 0
M  V30 12436 O 1184.1 2.01397 -0.0118386 0
M  V30 12437 C 1181.17 3.44902 -0.352601 0
M  V30 12438 C 1180.23 4.04455 -1.43926 0
M  V30 12439 C 1179.46 5.25089 -0.954841 0
M  V30 12440 O 1179.69 5.70048 0.200294 0
M  V30 12441 O 1178.62 5.76269 -1.73774 0
M  V30 12442 H 1182.45 2.45599 -1.78648 0
M  V30 12443 H 1180.03 1.16835 -0.93112 0
M  V30 12444 H 1181.91 4.21333 -0.0753347 0
M  V30 12445 H 1180.59 3.19082 0.544841 0
M  V30 12446 H 1179.49 3.29573 -1.7701 0
M  V30 12447 H 1180.83 4.34544 -2.31155 0
M  V30 12448 N 1182.48 0.948665 1.2585 0
M  V30 12449 C 1183.76 0.517832 1.88621 0
M  V30 12450 C 1184.14 -1.00477 1.85654 0
M  V30 12451 O 1183.49 -1.868 1.31598 0
M  V30 12452 C 1183.7 1.08768 3.31618 0
M  V30 12453 C 1185.04 1.16089 4.08422 0
M  V30 12454 O 1186.07 1.0388 3.40716 0
M  V30 12455 O 1184.93 1.35172 5.29519 0
M  V30 12456 H 1182.02 0.169916 0.809356 0
M  V30 12457 H 1184.57 1.04171 1.33964 0
M  V30 12458 H 1183.34 2.13109 3.28177 0
M  V30 12459 H 1182.96 0.54669 3.93824 0
M  V30 12460 N 1183.96 -1.40369 0.716545 0
M  V30 12461 C 1185.21 -2.00101 0.253452 0
M  V30 12462 C 1185.52 -1.57471 -1.16027 0
M  V30 12463 O 1186.73 -2.09909 -1.72193 0
M  V30 12464 C 1185.18 -3.57645 0.402213 0
M  V30 12465 C 1184.79 -4.09248 1.82264 0
M  V30 12466 C 1186.53 -4.245 -3.88526e-05 0
M  V30 12467 C 1184.44 -5.59299 1.92193 0
M  V30 12468 H 1183.37 -0.748488 0.0910047 0
M  V30 12469 H 1186.02 -1.60595 0.887772 0
M  V30 12470 H 1184.4 -3.94857 -0.300706 0
M  V30 12471 H 1185.58 -3.83412 2.55601 0
M  V30 12472 H 1183.89 -3.54993 2.17644 0
M  V30 12473 H 1186.49 -5.34673 0.0534202 0
M  V30 12474 H 1186.83 -4.03046 -1.04208 0
M  V30 12475 H 1187.37 -3.92398 0.65336 0
M  V30 12476 H 1184.11 -5.85608 2.94522 0
M  V30 12477 H 1183.63 -5.86997 1.23268 0
M  V30 12478 H 1185.3 -6.24416 1.6945 0
M  V30 12479 N 1185.44 -0.462799 -1.50652 0
M  V30 12480 C 1186.38 0.349784 -2.29955 0
M  V30 12481 C 1187.38 0.997947 -1.36885 0
M  V30 12482 O 1188.58 0.93 -1.54114 0
M  V30 12483 H 1184.96 0.131635 -0.740389 0
M  V30 12484 H 1186.93 -0.33958 -2.96461 0
M  V30 12485 C 1185.68 1.42398 -3.17204 0
M  V30 12486 H 1185 0.934611 -3.88722 0
M  V30 12487 H 1186.44 1.96528 -3.75703 0
M  V30 12488 C 1184.9 2.42135 -2.34248 0
M  V30 12489 O 1185.43 3.47229 -2.01978 0
M  V30 12490 N 1183.64 2.13647 -1.96985 0
M  V30 12491 H 1183.18 1.28209 -2.23428 0
M  V30 12492 H 1183.14 2.80615 -1.41783 0
M  V30 12493 N 1186.91 1.56388 -0.195085 0
M  V30 12494 C 1188.14 2.02406 0.452399 0
M  V30 12495 C 1188.56 1.07432 1.54402 0
M  V30 12496 O 1187.92 0.0578246 1.81208 0
M  V30 12497 C 1187.97 3.46864 0.985778 0
M  V30 12498 O 1187.07 3.55007 2.09867 0
M  V30 12499 H 1186.42 0.65553 0.105719 0
M  V30 12500 H 1188.95 2.02299 -0.30596 0
M  V30 12501 H 1188.96 3.86655 1.30238 0
M  V30 12502 H 1187.63 4.15481 0.186662 0
M  V30 12503 H 1186.21 3.2709 1.79071 0
M  V30 12504 N 1188.39 -0.0785156 1.57404 0
M  V30 12505 C 1189.32 -1.09446 2.06262 0
M  V30 12506 C 1190.3 -1.40777 0.954772 0
M  V30 12507 O 1191.49 -1.5052 1.22708 0
M  V30 12508 C 1188.62 -2.40979 2.50093 0
M  V30 12509 C 1187.57 -2.24017 3.64692 0
M  V30 12510 C 1186.9 -3.60873 3.94556 0
M  V30 12511 C 1188.2 -1.66696 4.94985 0
M  V30 12512 H 1189.89 -0.687928 2.9139 0
M  V30 12513 H 1187.44 -0.329466 1.4018 0
M  V30 12514 H 1189.39 -3.12337 2.82884 0
M  V30 12515 H 1188.12 -2.83599 1.61985 0
M  V30 12516 H 1186.77 -1.55101 3.32174 0
M  V30 12517 H 1186.42 -4.01051 3.0359 0
M  V30 12518 H 1186.12 -3.50365 4.71718 0
M  V30 12519 H 1187.65 -4.33673 4.29837 0
M  V30 12520 H 1189.06 -2.27913 5.2605 0
M  V30 12521 H 1187.46 -1.66902 5.76423 0
M  V30 12522 H 1188.53 -0.627827 4.80818 0
M  V30 12523 N 1189.87 -1.5367 -0.349747 0
M  V30 12524 C 1190.83 -1.80533 -1.41211 0
M  V30 12525 C 1191.83 -0.676188 -1.45892 0
M  V30 12526 O 1193.02 -0.944453 -1.46375 0
M  V30 12527 C 1190.16 -1.94175 -2.80195 0
M  V30 12528 H 1191.35 -2.75428 -1.18658 0
M  V30 12529 H 1188.9 -1.44988 -0.583787 0
M  V30 12530 H 1189.64 -1.01402 -3.08039 0
M  V30 12531 H 1189.42 -2.76316 -2.78194 0
M  V30 12532 H 1190.91 -2.16496 -3.57098 0
M  V30 12533 N 1191.35 0.610423 -1.45298 0
M  V30 12534 C 1192.6 1.36558 -1.48441 0
M  V30 12535 C 1192.91 1.95173 -0.129137 0
M  V30 12536 O 1194.12 2.71473 -0.0381956 0
M  V30 12537 C 1192.57 2.47349 -2.61431 0
M  V30 12538 C 1192.18 1.95158 -4.03258 0
M  V30 12539 C 1193.92 3.24383 -2.73817 0
M  V30 12540 C 1191.83 3.03414 -5.07635 0
M  V30 12541 H 1190.76 0.513253 -0.552347 0
M  V30 12542 H 1193.41 0.654535 -1.7143 0
M  V30 12543 H 1191.79 3.21125 -2.31721 0
M  V30 12544 H 1192.97 1.2811 -4.42634 0
M  V30 12545 H 1191.28 1.30878 -3.95297 0
M  V30 12546 H 1193.88 4.05123 -3.48969 0
M  V30 12547 H 1194.22 3.75205 -1.80352 0
M  V30 12548 H 1194.76 2.57705 -3.03039 0
M  V30 12549 H 1191.5 2.57512 -6.028 0
M  V30 12550 H 1191.02 3.69039 -4.72833 0
M  V30 12551 H 1192.69 3.67844 -5.32259 0
M  V30 12552 N 1192.83 1.32541 0.852676 0
M  V30 12553 C 1193.74 1.23646 1.99371 0
M  V30 12554 C 1194.75 0.149673 1.73355 0
M  V30 12555 O 1195.93 0.370716 1.97959 0
M  V30 12556 C 1192.99 0.961873 3.3309 0
M  V30 12557 C 1192.05 2.1373 3.72315 0
M  V30 12558 C 1191.29 1.87572 4.99652 0
M  V30 12559 O 1191.51 0.819247 5.64486 0
M  V30 12560 O 1190.44 2.73732 5.36054 0
M  V30 12561 H 1194.27 2.19573 2.09813 0
M  V30 12562 H 1191.86 1.12451 0.983627 0
M  V30 12563 H 1193.74 0.825316 4.13239 0
M  V30 12564 H 1192.41 0.0327745 3.23683 0
M  V30 12565 H 1191.32 2.32933 2.92733 0
M  V30 12566 H 1192.65 3.04925 3.86369 0
M  V30 12567 N 1194.3 -1.0692 1.15784 0
M  V30 12568 C 1195.54 -1.8119 0.946018 0
M  V30 12569 C 1195.91 -1.84899 -0.517338 0
M  V30 12570 O 1197.11 -2.55085 -0.847643 0
M  V30 12571 C 1195.38 -3.22102 1.54871 0
M  V30 12572 S 1196.94 -4.13065 1.48063 0
M  V30 12573 H 1193.76 -0.62424 0.340361 0
M  V30 12574 H 1196.36 -1.28411 1.47414 0
M  V30 12575 H 1195.06 -3.16994 2.60659 0
M  V30 12576 H 1194.59 -3.79956 1.01965 0
M  V30 12577 H 1196.61 -4.93907 0.476517 0
M  V30 12578 N 1195.78 -0.955326 -1.25345 0
M  V30 12579 C 1197.01 -0.627233 -1.97688 0
M  V30 12580 C 1197.43 0.793973 -1.70522 0
M  V30 12581 O 1196.79 1.537 -0.961556 0
M  V30 12582 C 1196.84 -0.892969 -3.49369 0
M  V30 12583 O 1195.94 0.0278871 -4.12391 0
M  V30 12584 H 1195.28 -0.238402 -0.619726 0
M  V30 12585 H 1197.81 -1.28211 -1.59446 0
M  V30 12586 H 1197.82 -0.819517 -3.99685 0
M  V30 12587 H 1196.5 -1.92879 -3.6847 0
M  V30 12588 H 1195.08 -0.0978295 -3.72772 0
M  V30 12589 N 1197.26 1.39987 -0.723979 0
M  V30 12590 C 1198.17 2.3447 -0.0780936 0
M  V30 12591 C 1199.19 1.57744 0.734368 0
M  V30 12592 O 1200.36 1.90091 0.665385 0
M  V30 12593 C 1197.43 3.36705 0.826492 0
M  V30 12594 C 1196.49 4.293 0.00303036 0
M  V30 12595 C 1195.72 5.26651 0.864535 0
M  V30 12596 O 1195.95 5.30194 2.10357 0
M  V30 12597 O 1194.88 6.01157 0.299057 0
M  V30 12598 H 1198.71 2.91338 -0.857646 0
M  V30 12599 H 1196.29 1.41324 -0.484536 0
M  V30 12600 H 1198.17 3.9938 1.34439 0
M  V30 12601 H 1196.85 2.82237 1.58505 0
M  V30 12602 H 1195.75 3.69883 -0.560136 0
M  V30 12603 H 1197.09 4.86942 -0.717494 0
M  V30 12604 N 1198.74 0.470782 1.50404 0
M  V30 12605 C 1199.67 -0.313458 2.31386 0
M  V30 12606 C 1200.65 -0.990623 1.38278 0
M  V30 12607 O 1201.84 -0.987854 1.67198 0
M  V30 12608 C 1198.97 -1.39599 3.18009 0
M  V30 12609 C 1197.92 -0.840443 4.19667 0
M  V30 12610 C 1197.25 -2.02124 4.95025 0
M  V30 12611 C 1198.55 0.148055 5.2209 0
M  V30 12612 H 1200.24 0.362432 2.97198 0
M  V30 12613 H 1197.79 0.175745 1.42924 0
M  V30 12614 H 1199.74 -1.9521 3.73458 0
M  V30 12615 H 1198.46 -2.10064 2.50081 0
M  V30 12616 H 1197.12 -0.306302 3.65318 0
M  V30 12617 H 1196.77 -2.71286 4.23571 0
M  V30 12618 H 1196.47 -1.65574 5.6379 0
M  V30 12619 H 1197.99 -2.58226 5.5331 0
M  V30 12620 H 1199.41 -0.318874 5.72413 0
M  V30 12621 H 1197.8 0.427811 5.98573 0
M  V30 12622 H 1198.87 1.07404 4.72855 0
M  V30 12623 N 1200.22 -1.56282 0.203376 0
M  V30 12624 C 1201.17 -2.16094 -0.727145 0
M  V30 12625 C 1202.15 -1.10404 -1.17046 0
M  V30 12626 O 1203.34 -1.36444 -1.12748 0
M  V30 12627 C 1200.47 -2.83029 -1.94293 0
M  V30 12628 C 1199.56 -3.9592 -1.52013 0
M  V30 12629 N 1199.95 -4.99292 -0.808794 0
M  V30 12630 C 1198.25 -4.07674 -1.80881 0
M  V30 12631 C 1198.95 -5.78641 -0.595738 0
M  V30 12632 N 1197.92 -5.31362 -1.14697 0
M  V30 12633 H 1201.73 -2.93378 -0.175041 0
M  V30 12634 H 1199.24 -1.624 0.00390859 0
M  V30 12635 H 1201.24 -3.24277 -2.62012 0
M  V30 12636 H 1199.9 -2.07235 -2.49968 0
M  V30 12637 H 1200.91 -5.15823 -0.463383 0
M  V30 12638 H 1197.59 -3.43016 -2.38005 0
M  V30 12639 H 1198.98 -6.71893 -0.0308618 0
M  V30 12640 N 1201.7 0.070167 -1.57444 0
M  V30 12641 C 1202.94 0.767842 -1.86513 0
M  V30 12642 C 1203.26 1.78659 -0.796257 0
M  V30 12643 O 1204.46 2.53395 -0.974845 0
M  V30 12644 C 1202.92 1.41654 -3.30851 0
M  V30 12645 C 1202.53 0.436273 -4.45871 0
M  V30 12646 C 1204.27 2.09649 -3.69117 0
M  V30 12647 C 1202.18 1.09098 -5.8125 0
M  V30 12648 H 1201.11 0.290519 -0.695784 0
M  V30 12649 H 1203.76 0.0211697 -1.83488 0
M  V30 12650 H 1202.14 2.21153 -3.28493 0
M  V30 12651 H 1203.32 -0.329022 -4.59624 0
M  V30 12652 H 1201.63 -0.139314 -4.16167 0
M  V30 12653 H 1204.23 2.59411 -4.67558 0
M  V30 12654 H 1204.57 2.89663 -2.99 0
M  V30 12655 H 1205.1 1.36979 -3.73472 0
M  V30 12656 H 1201.84 0.331128 -6.54663 0
M  V30 12657 H 1201.36 1.8271 -5.71294 0
M  V30 12658 H 1203.04 1.61034 -6.2664 0
M  V30 12659 N 1203.17 1.53854 0.341593 0
M  V30 12660 C 1204.12 1.8268 1.43982 0
M  V30 12661 C 1205.12 0.697415 1.54378 0
M  V30 12662 O 1206.32 0.880785 1.56978 0
M  V30 12663 H 1202.7 0.578788 0.480113 0
M  V30 12664 H 1204.67 2.74556 1.16884 0
M  V30 12665 C 1203.42 2.05496 2.80476 0
M  V30 12666 H 1202.74 2.91852 2.73244 0
M  V30 12667 H 1204.18 2.2963 3.56435 0
M  V30 12668 C 1202.64 0.841061 3.26233 0
M  V30 12669 O 1203.17 0.0414376 4.01679 0
M  V30 12670 N 1201.37 0.657736 2.83059 0
M  V30 12671 H 1200.92 1.30962 2.21826 0
M  V30 12672 H 1200.88 -0.153003 3.14027 0
M  V30 12673 N 1204.65 -0.602709 1.4562 0
M  V30 12674 C 1205.6 -1.71312 1.54664 0
M  V30 12675 C 1206.57 -1.61403 0.392197 0
M  V30 12676 O 1207.75 -1.80911 0.606297 0
M  V30 12677 C 1204.89 -3.09629 1.52393 0
M  V30 12678 C 1204.01 -3.30308 2.78425 0
M  V30 12679 C 1203.14 -4.5876 2.67793 0
M  V30 12680 C 1202.18 -4.72713 3.88855 0
M  V30 12681 N 1201.32 -5.92469 3.76729 0
M  V30 12682 H 1206.16 -1.62918 2.49523 0
M  V30 12683 H 1203.69 -0.794324 1.2381 0
M  V30 12684 H 1205.65 -3.89661 1.49064 0
M  V30 12685 H 1204.28 -3.16968 0.610816 0
M  V30 12686 H 1203.33 -2.44018 2.9182 0
M  V30 12687 H 1204.65 -3.36491 3.68205 0
M  V30 12688 H 1203.8 -5.46993 2.62457 0
M  V30 12689 H 1202.54 -4.54983 1.75619 0
M  V30 12690 H 1201.54 -3.82903 3.94545 0
M  V30 12691 H 1202.77 -4.78284 4.82101 0
M  V30 12692 H 1200.72 -5.89728 2.87328 0
M  V30 12693 H 1200.63 -5.99833 4.60148 0
M  V30 12694 H 1201.9 -6.83187 3.75334 0
M  V30 12695 N 1206.13 -1.32992 -0.845635 0
M  V30 12696 C 1207.08 -1.22652 -1.97634 0
M  V30 12697 C 1208.07 -0.129344 -1.68905 0
M  V30 12698 O 1209.28 -0.292863 -1.77602 0
M  V30 12699 H 1205.65 -0.380439 -0.648668 0
M  V30 12700 H 1207.62 -2.18261 -2.03481 0
M  V30 12701 C 1206.37 -0.975677 -3.3373 0
M  V30 12702 H 1205.7 -1.81217 -3.56371 0
M  V30 12703 H 1207.14 -0.943608 -4.13367 0
M  V30 12704 C 1205.59 0.321491 -3.35363 0
M  V30 12705 O 1206.12 1.33042 -3.79029 0
M  V30 12706 N 1204.33 0.346648 -2.88525 0
M  V30 12707 H 1203.88 -0.474931 -2.53184 0
M  V30 12708 H 1203.84 1.2144 -2.9 0
M  V30 12709 N 1207.61 1.06304 -1.1635 0
M  V30 12710 C 1209.02 1.60566 -0.952652 0
M  V30 12711 C 1209.37 1.8963 0.503473 0
M  V30 12712 O 1208.49 1.66964 1.37666 0
M  V30 12713 C 1209.09 2.9172 -1.72292 0
M  V30 12714 C 1207.65 3.42684 -1.55707 0
M  V30 12715 C 1206.8 2.16579 -1.73172 0
M  V30 12716 H 1209.75 0.892563 -1.31221 0
M  V30 12717 H 1209.77 3.61126 -1.19868 0
M  V30 12718 H 1209.28 2.70535 -2.78267 0
M  V30 12719 H 1207.38 3.68929 -0.521726 0
M  V30 12720 H 1207.49 4.18018 -2.34088 0
M  V30 12721 H 1205.86 2.26795 -1.15914 0
M  V30 12722 H 1206.64 1.97877 -2.80535 0
M  V30 12723 N 1209.09 0.96196 1.24836 0
M  V30 12724 C 1210.03 0.479282 2.27609 0
M  V30 12725 C 1211.03 -0.454224 1.63197 0
M  V30 12726 O 1212.23 -0.330146 1.76946 0
M  V30 12727 H 1208.61 0.13651 0.739506 0
M  V30 12728 H 1210.58 1.35817 2.657 0
M  V30 12729 C 1209.33 -0.220499 3.47 0
M  V30 12730 H 1208.65 0.488694 3.96802 0
M  V30 12731 H 1210.09 -0.522137 4.20773 0
M  V30 12732 C 1208.55 -1.44552 3.04313 0
M  V30 12733 O 1209.08 -2.54287 3.10967 0
M  V30 12734 N 1207.29 -1.3095 2.59423 0
M  V30 12735 H 1206.83 -0.416656 2.54208 0
M  V30 12736 H 1206.79 -2.13029 2.31227 0
M  V30 12737 N 1210.56 -1.39601 0.731392 0
M  V30 12738 C 1211.47 -2.34425 0.090527 0
M  V30 12739 C 1212.49 -1.58131 -0.725992 0
M  V30 12740 O 1213.67 -1.90441 -0.655294 0
M  V30 12741 C 1210.73 -3.37138 -0.808624 0
M  V30 12742 C 1209.79 -4.29295 0.0197365 0
M  V30 12743 C 1209.02 -5.27102 -0.836593 0
M  V30 12744 O 1209.25 -5.31302 -2.07543 0
M  V30 12745 O 1208.18 -6.01307 -0.267172 0
M  V30 12746 H 1212.01 -2.9088 0.873084 0
M  V30 12747 H 1209.59 -1.41066 0.492024 0
M  V30 12748 H 1211.47 -4.00087 -1.32319 0
M  V30 12749 H 1210.15 -2.83074 -1.57006 0
M  V30 12750 H 1209.06 -3.69581 0.579744 0
M  V30 12751 H 1210.39 -4.86555 0.743308 0
M  V30 12752 N 1212.04 -0.478751 -1.50152 0
M  V30 12753 C 1213.45 -0.0254907 -1.86683 0
M  V30 12754 C 1213.8 1.38171 -1.39295 0
M  V30 12755 O 1212.93 2.0257 -0.761207 0
M  V30 12756 C 1213.52 -0.0394819 -3.38777 0
M  V30 12757 C 1212.08 0.35834 -3.7469 0
M  V30 12758 C 1211.23 -0.421667 -2.74075 0
M  V30 12759 H 1214.18 -0.692653 -1.42787 0
M  V30 12760 H 1214.2 0.760957 -3.72813 0
M  V30 12761 H 1213.71 -1.06378 -3.73236 0
M  V30 12762 H 1211.82 1.38671 -3.45834 0
M  V30 12763 H 1211.93 0.0543589 -4.79069 0
M  V30 12764 H 1210.29 0.125634 -2.5439 0
M  V30 12765 H 1211.08 -1.44562 -3.11379 0
M  V30 12766 N 1213.52 1.56172 -0.211661 0
M  V30 12767 C 1214.77 1.97214 0.423008 0
M  V30 12768 C 1215.08 1.10203 1.616 0
M  V30 12769 O 1216.29 1.411 2.31955 0
M  V30 12770 C 1214.74 3.50805 0.803977 0
M  V30 12771 C 1214.35 4.46505 -0.365654 0
M  V30 12772 C 1216.1 4.00582 1.4048 0
M  V30 12773 C 1214 5.91388 0.0371986 0
M  V30 12774 H 1212.93 0.736432 0.161814 0
M  V30 12775 H 1215.58 1.80925 -0.306307 0
M  V30 12776 H 1213.97 3.62659 1.59043 0
M  V30 12777 H 1215.14 4.46394 -1.14321 0
M  V30 12778 H 1213.46 4.07015 -0.879061 0
M  V30 12779 H 1216.05 5.06317 1.71894 0
M  V30 12780 H 1216.4 3.45853 2.31713 0
M  V30 12781 H 1216.93 3.9191 0.681984 0
M  V30 12782 H 1213.67 6.50078 -0.841367 0
M  V30 12783 H 1213.19 5.94716 0.77927 0
M  V30 12784 H 1214.87 6.4531 0.467309 0
M  V30 12785 N 1215 -0.0618163 1.57479 0
M  V30 12786 C 1215.93 -1.07252 2.07411 0
M  V30 12787 C 1216.91 -1.39756 0.969649 0
M  V30 12788 O 1218.09 -1.4921 1.24298 0
M  V30 12789 C 1215.22 -2.38313 2.52635 0
M  V30 12790 C 1214.18 -2.20136 3.67048 0
M  V30 12791 C 1213.5 -3.56668 3.98361 0
M  V30 12792 C 1214.8 -1.61437 4.96725 0
M  V30 12793 H 1216.5 -0.656983 2.92103 0
M  V30 12794 H 1214.04 -0.314579 1.40522 0
M  V30 12795 H 1216 -3.09319 2.86181 0
M  V30 12796 H 1214.72 -2.81865 1.64984 0
M  V30 12797 H 1213.38 -1.51569 3.338 0
M  V30 12798 H 1213.03 -3.97809 3.07826 0
M  V30 12799 H 1212.73 -3.45342 4.75408 0
M  V30 12800 H 1214.25 -4.2909 4.34413 0
M  V30 12801 H 1215.67 -2.2232 5.28438 0
M  V30 12802 H 1214.06 -1.60779 5.78161 0
M  V30 12803 H 1215.13 -0.576795 4.81457 0
M  V30 12804 N 1216.48 -1.54033 -0.333429 0
M  V30 12805 C 1217.89 -1.63107 -0.908455 0
M  V30 12806 C 1218.24 -0.518823 -1.89216 0
M  V30 12807 O 1217.36 0.34985 -2.13553 0
M  V30 12808 C 1217.96 -2.95657 -1.65447 0
M  V30 12809 C 1216.52 -3.0696 -2.17836 0
M  V30 12810 C 1215.66 -2.58617 -1.00063 0
M  V30 12811 H 1218.62 -1.58309 -0.11128 0
M  V30 12812 H 1218.64 -2.85263 -2.51804 0
M  V30 12813 H 1218.15 -3.76588 -0.938263 0
M  V30 12814 H 1216.25 -2.30683 -2.92602 0
M  V30 12815 H 1216.36 -4.12599 -2.43513 0
M  V30 12816 H 1214.73 -2.1427 -1.37697 0
M  V30 12817 H 1215.51 -3.41996 -0.298901 0
M  V30 12818 N 1217.95 0.594978 -1.45938 0
M  V30 12819 C 1218.9 1.726 -1.55923 0
M  V30 12820 C 1219.9 1.63893 -0.428411 0
M  V30 12821 O 1221.1 1.69535 -0.604815 0
M  V30 12822 H 1217.48 0.570447 -0.489994 0
M  V30 12823 H 1219.45 1.61308 -2.51043 0
M  V30 12824 C 1218.2 3.10988 -1.55505 0
M  V30 12825 H 1217.52 3.18353 -2.4185 0
M  V30 12826 H 1218.96 3.8992 -1.66548 0
M  V30 12827 C 1217.42 3.35721 -0.281573 0
M  V30 12828 O 1217.95 3.96676 0.633336 0
M  V30 12829 N 1216.16 2.90083 -0.173314 0
M  V30 12830 H 1215.7 2.4066 -0.91872 0
M  V30 12831 H 1215.66 3.07005 0.677903 0
M  V30 12832 N 1219.43 1.33438 0.838571 0
M  V30 12833 C 1220.71 1.1551 1.5785 0
M  V30 12834 C 1221.09 -0.278405 2.09256 0
M  V30 12835 O 1220.44 -1.27748 1.89453 0
M  V30 12836 C 1220.65 2.19647 2.71212 0
M  V30 12837 C 1222 2.53818 3.40384 0
M  V30 12838 O 1223.02 2.18317 2.81454 0
M  V30 12839 O 1221.88 3.14741 4.46766 0
M  V30 12840 H 1218.97 0.446785 0.695925 0
M  V30 12841 H 1221.52 1.45021 0.8813 0
M  V30 12842 H 1220.29 3.15936 2.30869 0
M  V30 12843 H 1219.91 1.91224 3.48596 0
M  V30 12844 N 1220.91 -1.05686 1.16912 0
M  V30 12845 C 1221.84 -2.1329 0.839044 0
M  V30 12846 C 1222.86 -1.62047 -0.156392 0
M  V30 12847 O 1224.04 -1.78366 0.0692192 0
M  V30 12848 C 1221.14 -3.38122 0.229558 0
M  V30 12849 C 1220.32 -4.18659 1.26662 0
M  V30 12850 C 1219.38 -5.21842 0.675811 0
M  V30 12851 O 1218.4 -5.53049 1.3463 0
M  V30 12852 N 1219.6 -5.78034 -0.534532 0
M  V30 12853 H 1222.37 -2.42203 1.76515 0
M  V30 12854 H 1219.93 -1.2174 1.06729 0
M  V30 12855 H 1221.92 -4.04305 -0.178868 0
M  V30 12856 H 1220.49 -3.06783 -0.60023 0
M  V30 12857 H 1219.71 -3.4804 1.85099 0
M  V30 12858 H 1221 -4.6927 1.9663 0
M  V30 12859 H 1220.4 -5.54955 -1.09731 0
M  V30 12860 H 1218.96 -6.45763 -0.885087 0
M  V30 12861 N 1222.39 -0.968567 -1.24324 0
M  V30 12862 C 1223.32 -0.518323 -2.27674 0
M  V30 12863 C 1224.3 0.442479 -1.64244 0
M  V30 12864 O 1225.48 0.338416 -1.91229 0
M  V30 12865 C 1222.61 0.191459 -3.46772 0
M  V30 12866 C 1221.57 -0.685449 -4.22476 0
M  V30 12867 C 1220.89 0.155873 -5.34473 0
M  V30 12868 C 1222.19 -1.97047 -4.83704 0
M  V30 12869 H 1223.89 -1.38215 -2.65588 0
M  V30 12870 H 1221.43 -0.66604 -1.27671 0
M  V30 12871 H 1223.39 0.517667 -4.18208 0
M  V30 12872 H 1222.11 1.08965 -3.07887 0
M  V30 12873 H 1220.77 -0.994942 -3.52841 0
M  V30 12874 H 1220.42 1.05424 -4.91828 0
M  V30 12875 H 1220.12 -0.427655 -5.86042 0
M  V30 12876 H 1221.64 0.476733 -6.08736 0
M  V30 12877 H 1223.06 -1.70979 -5.4721 0
M  V30 12878 H 1221.45 -2.50079 -5.45509 0
M  V30 12879 H 1222.52 -2.66484 -4.0511 0
M  V30 12880 N 1223.87 1.39211 -0.738786 0
M  V30 12881 C 1225.14 1.9442 -0.214533 0
M  V30 12882 C 1225.52 1.67528 1.28443 0
M  V30 12883 O 1224.87 1.0056 2.05183 0
M  V30 12884 C 1225.08 3.44603 -0.552232 0
M  V30 12885 C 1226.43 4.21602 -0.503663 0
M  V30 12886 O 1227.45 3.52819 -0.489647 0
M  V30 12887 O 1226.31 5.44194 -0.50153 0
M  V30 12888 H 1223.41 0.826011 -0.0404247 0
M  V30 12889 H 1225.95 1.48689 -0.817902 0
M  V30 12890 H 1224.72 3.57626 -1.58806 0
M  V30 12891 H 1224.35 3.9752 0.0799096 0
M  V30 12892 N 1225.34 0.486708 1.49896 0
M  V30 12893 C 1226.25 -0.304222 2.32619 0
M  V30 12894 C 1227.27 -0.981103 1.43702 0
M  V30 12895 O 1228.45 -0.965639 1.76741 0
M  V30 12896 C 1225.51 -1.36301 3.18783 0
M  V30 12897 C 1224.57 -0.701082 4.23537 0
M  V30 12898 C 1223.81 -1.70943 5.05583 0
M  V30 12899 O 1224.03 -2.93773 4.88931 0
M  V30 12900 O 1222.96 -1.27263 5.88292 0
M  V30 12901 H 1226.79 0.37248 3.01407 0
M  V30 12902 H 1224.37 0.248277 1.47323 0
M  V30 12903 H 1226.26 -1.97594 3.72202 0
M  V30 12904 H 1224.93 -2.0229 2.52706 0
M  V30 12905 H 1223.84 -0.0487926 3.74068 0
M  V30 12906 H 1225.17 -0.0838817 4.92129 0
M  V30 12907 N 1226.82 -1.56058 0.219941 0
M  V30 12908 C 1228.07 -1.9826 -0.412197 0
M  V30 12909 C 1228.4 -1.10754 -1.59887 0
M  V30 12910 O 1227.65 -0.15212 -1.95108 0
M  V30 12911 C 1227.95 -3.46113 -0.8911 0
M  V30 12912 C 1227.62 -4.50521 0.184877 0
M  V30 12913 C 1226.28 -4.78795 0.480462 0
M  V30 12914 C 1228.63 -5.13147 0.912652 0
M  V30 12915 C 1225.96 -5.66979 1.50837 0
M  V30 12916 C 1228.31 -6.02444 1.92988 0
M  V30 12917 C 1226.98 -6.29063 2.2324 0
M  V30 12918 H 1226.25 -0.725486 -0.150834 0
M  V30 12919 H 1228.89 -1.88771 0.322122 0
M  V30 12920 H 1227.2 -3.52797 -1.70415 0
M  V30 12921 H 1228.9 -3.76137 -1.39003 0
M  V30 12922 H 1225.49 -4.28564 -0.0556594 0
M  V30 12923 H 1229.67 -4.91374 0.697532 0
M  V30 12924 H 1224.93 -5.85868 1.74839 0
M  V30 12925 H 1229.1 -6.50022 2.49889 0
M  V30 12926 H 1226.73 -6.97191 3.03032 0
M  V30 12927 N 1228.3 0.053464 -1.57509 0
M  V30 12928 C 1229.53 0.761533 -1.92375 0
M  V30 12929 C 1229.94 1.70179 -0.817585 0
M  V30 12930 O 1229.3 1.81313 0.207843 0
M  V30 12931 C 1229.35 1.53954 -3.27078 0
M  V30 12932 O 1229.07 0.637054 -4.33443 0
M  V30 12933 C 1230.57 2.34697 -3.76075 0
M  V30 12934 H 1227.79 0.215483 -0.635459 0
M  V30 12935 H 1230.34 0.0182624 -2.04492 0
M  V30 12936 H 1228.49 2.23492 -3.16434 0
M  V30 12937 H 1228.91 1.18006 -5.11053 0
M  V30 12938 H 1230.38 2.84716 -4.72906 0
M  V30 12939 H 1230.86 3.15041 -3.06016 0
M  V30 12940 H 1231.46 1.70281 -3.89724 0
M  V30 12941 N 1229.78 1.54207 0.325255 0
M  V30 12942 C 1231.06 1.6298 1.08153 0
M  V30 12943 C 1231.44 0.462583 2.05969 0
M  V30 12944 O 1230.78 -0.543323 2.21947 0
M  V30 12945 C 1230.99 2.999 1.78497 0
M  V30 12946 C 1232.34 3.55888 2.3158 0
M  V30 12947 O 1233.37 3.02194 1.88566 0
M  V30 12948 O 1232.23 4.49847 3.10322 0
M  V30 12949 H 1229.32 0.659923 0.498429 0
M  V30 12950 H 1231.87 1.66553 0.325282 0
M  V30 12951 H 1230.64 3.7629 1.07338 0
M  V30 12952 H 1230.26 2.99997 2.60936 0
M  V30 12953 N 1231.26 -0.58723 1.46251 0
M  V30 12954 C 1232.2 -1.69662 1.56472 0
M  V30 12955 C 1233.17 -1.60978 0.409294 0
M  V30 12956 O 1234.36 -1.80257 0.625451 0
M  V30 12957 C 1231.5 -3.07996 1.55669 0
M  V30 12958 C 1230.61 -3.27337 2.81913 0
M  V30 12959 C 1229.75 -4.55894 2.72644 0
M  V30 12960 C 1228.79 -4.68562 3.93847 0
M  V30 12961 N 1227.92 -5.8844 3.82991 0
M  V30 12962 H 1232.76 -1.60262 2.51237 0
M  V30 12963 H 1230.3 -0.781148 1.24645 0
M  V30 12964 H 1232.26 -3.88058 1.53189 0
M  V30 12965 H 1230.89 -3.16303 0.6444 0
M  V30 12966 H 1229.94 -2.4091 2.94392 0
M  V30 12967 H 1231.25 -3.32567 3.71754 0
M  V30 12968 H 1230.41 -5.44178 2.68244 0
M  V30 12969 H 1229.15 -4.53094 1.80435 0
M  V30 12970 H 1228.15 -3.78696 3.98584 0
M  V30 12971 H 1229.38 -4.73144 4.87146 0
M  V30 12972 H 1227.32 -5.86647 2.93566 0
M  V30 12973 H 1227.24 -5.94919 4.66484 0
M  V30 12974 H 1228.51 -6.79168 3.82559 0
M  V30 12975 N 1232.74 -1.33881 -0.831482 0
M  V30 12976 C 1233.98 -1.251 -1.58218 0
M  V30 12977 C 1234.3 0.17963 -1.94773 0
M  V30 12978 O 1235.5 0.389516 -2.68691 0
M  V30 12979 C 1233.96 -2.19246 -2.8541 0
M  V30 12980 C 1233.57 -3.6752 -2.5619 0
M  V30 12981 C 1235.31 -2.19355 -3.63433 0
M  V30 12982 C 1233.22 -4.53559 -3.79523 0
M  V30 12983 H 1232.15 -0.46469 -0.593784 0
M  V30 12984 H 1234.8 -1.58992 -0.916169 0
M  V30 12985 H 1233.18 -1.78295 -3.53591 0
M  V30 12986 H 1234.36 -4.16956 -1.96173 0
M  V30 12987 H 1232.67 -3.69774 -1.91458 0
M  V30 12988 H 1235.27 -2.80863 -4.54995 0
M  V30 12989 H 1235.61 -1.19056 -3.98913 0
M  V30 12990 H 1236.14 -2.58706 -3.02185 0
M  V30 12991 H 1232.88 -5.54762 -3.4917 0
M  V30 12992 H 1232.4 -4.08862 -4.38853 0
M  V30 12993 H 1234.08 -4.67736 -4.47025 0
M  V30 12994 N 1234.21 1.05064 -1.1747 0
M  V30 12995 C 1235.14 2.14786 -0.915936 0
M  V30 12996 C 1236.12 1.69502 0.142561 0
M  V30 12997 O 1237.31 1.94198 -0.00794522 0
M  V30 12998 C 1234.44 3.44629 -0.429864 0
M  V30 12999 C 1233.39 4.03486 -1.42769 0
M  V30 13000 C 1232.72 5.28689 -0.799528 0
M  V30 13001 C 1234.02 4.40823 -2.80129 0
M  V30 13002 H 1235.71 2.3669 -1.83352 0
M  V30 13003 H 1233.26 1.13751 -0.882992 0
M  V30 13004 H 1235.21 4.20737 -0.236245 0
M  V30 13005 H 1233.94 3.22381 0.523263 0
M  V30 13006 H 1232.6 3.29449 -1.60808 0
M  V30 13007 H 1232.24 5.02744 0.160474 0
M  V30 13008 H 1231.94 5.69028 -1.46565 0
M  V30 13009 H 1233.47 6.07483 -0.616212 0
M  V30 13010 H 1234.88 5.07959 -2.65801 0
M  V30 13011 H 1233.28 4.92183 -3.43331 0
M  V30 13012 H 1234.35 3.51108 -3.34441 0
M  V30 13013 N 1235.69 0.975146 1.23809 0
M  V30 13014 C 1236.94 0.636678 1.91388 0
M  V30 13015 C 1237.25 -0.832876 1.76982 0
M  V30 13016 O 1238.46 -1.28218 2.39316 0
M  V30 13017 C 1236.92 1.08813 3.43057 0
M  V30 13018 C 1236.52 2.58165 3.66135 0
M  V30 13019 C 1238.27 0.823154 4.16443 0
M  V30 13020 C 1236.17 2.97004 5.11412 0
M  V30 13021 H 1235.1 0.234424 0.716632 0
M  V30 13022 H 1237.76 1.18235 1.40331 0
M  V30 13023 H 1236.14 0.470709 3.93192 0
M  V30 13024 H 1237.31 3.25101 3.26567 0
M  V30 13025 H 1235.63 2.82353 3.06049 0
M  V30 13026 H 1238.22 1.08925 5.23488 0
M  V30 13027 H 1238.57 -0.240705 4.15604 0
M  V30 13028 H 1239.1 1.4019 3.72279 0
M  V30 13029 H 1235.84 4.02492 5.17378 0
M  V30 13030 H 1235.36 2.34759 5.51949 0
M  V30 13031 H 1237.04 2.8732 5.79704 0
M  V30 13032 N 1237.17 -1.38817 0.746158 0
M  V30 13033 C 1238.4 -2.04274 0.309156 0
M  V30 13034 C 1238.81 -1.56389 -1.06486 0
M  V30 13035 O 1238.15 -0.728875 -1.68621 0
M  V30 13036 C 1238.21 -3.58664 0.245003 0
M  V30 13037 C 1237.88 -4.29574 1.55933 0
M  V30 13038 C 1238.87 -4.55454 2.50714 0
M  V30 13039 C 1236.56 -4.67907 1.82671 0
M  V30 13040 C 1238.55 -5.18691 3.70458 0
M  V30 13041 C 1236.24 -5.30869 3.0269 0
M  V30 13042 C 1237.24 -5.56195 3.96404 0
M  V30 13043 O 1236.93 -6.17848 5.14314 0
M  V30 13044 H 1236.66 -0.663162 0.131121 0
M  V30 13045 H 1239.21 -1.78636 1.01382 0
M  V30 13046 H 1237.44 -3.83244 -0.515847 0
M  V30 13047 H 1239.13 -4.05579 -0.16149 0
M  V30 13048 H 1239.9 -4.26276 2.3133 0
M  V30 13049 H 1235.78 -4.47544 1.10568 0
M  V30 13050 H 1239.32 -5.38375 4.4362 0
M  V30 13051 H 1235.22 -5.59469 3.2197 0
M  V30 13052 H 1235.98 -6.36338 5.14797 0
M  V30 13053 N 1238.65 -0.49465 -1.49636 0
M  V30 13054 C 1239.87 0.051305 -2.07337 0
M  V30 13055 C 1240.3 1.30637 -1.35335 0
M  V30 13056 O 1239.66 1.76647 -0.408126 0
M  V30 13057 C 1239.7 0.294425 -3.59396 0
M  V30 13058 O 1238.81 1.3704 -3.88965 0
M  V30 13059 H 1238.15 -0.023408 -0.663587 0
M  V30 13060 H 1240.68 -0.692451 -1.92526 0
M  V30 13061 H 1240.69 0.527854 -4.04571 0
M  V30 13062 H 1239.36 -0.622583 -4.11214 0
M  V30 13063 H 1237.94 1.12242 -3.55607 0
M  V30 13064 N 1240.13 1.55939 -0.228214 0
M  V30 13065 C 1241.54 1.59094 0.12704 0
M  V30 13066 C 1241.74 1.24514 1.58425 0
M  V30 13067 O 1240.8 0.983544 2.32557 0
M  V30 13068 C 1242.11 2.99999 -0.205268 0
M  V30 13069 C 1243.66 3.1265 -0.148046 0
M  V30 13070 C 1244.13 4.55743 -0.454122 0
M  V30 13071 N 1245.62 4.61435 -0.403937 0
M  V30 13072 C 1246.36 5.70101 -0.614173 0
M  V30 13073 N 1245.86 6.87104 -0.88654 0
M  V30 13074 N 1247.65 5.5944 -0.546153 0
M  V30 13075 H 1239.8 1.7669 -1.17874 0
M  V30 13076 H 1242.06 0.821599 -0.472947 0
M  V30 13077 H 1241.77 3.29976 -1.21692 0
M  V30 13078 H 1241.64 3.74177 0.476573 0
M  V30 13079 H 1244.03 2.82465 0.854255 0
M  V30 13080 H 1244.11 2.40786 -0.863462 0
M  V30 13081 H 1243.75 4.86646 -1.45389 0
M  V30 13082 H 1243.68 5.25841 0.282561 0
M  V30 13083 H 1246.18 3.77363 -0.201388 0
M  V30 13084 H 1246.49 7.65839 -1.03488 0
M  V30 13085 H 1244.83 6.88833 -0.923808 0
M  V30 13086 H 1248.02 4.6691 -0.33355 0
M  V30 13087 H 1248.2 6.44061 -0.713402 0
M  V30 13088 N 1241.6 -0.0451101 1.57535 0
M  V30 13089 C 1242.57 -1.03521 2.0449 0
M  V30 13090 C 1243.57 -1.30009 0.946265 0
M  V30 13091 O 1244.76 -1.25282 1.21038 0
M  V30 13092 C 1241.89 -2.37221 2.44824 0
M  V30 13093 H 1243.08 -0.629943 2.93209 0
M  V30 13094 H 1240.64 -0.291544 1.53557 0
M  V30 13095 H 1241.37 -2.82528 1.59212 0
M  V30 13096 H 1241.16 -2.19329 3.25018 0
M  V30 13097 H 1242.65 -3.08337 2.81635 0
M  V30 13098 N 1243.08 -1.54377 -0.317073 0
M  V30 13099 C 1244.01 -1.80563 -1.41172 0
M  V30 13100 C 1245.03 -0.687865 -1.47554 0
M  V30 13101 O 1246.22 -0.965084 -1.50161 0
M  V30 13102 C 1243.32 -1.9142 -2.79663 0
M  V30 13103 C 1242.49 -3.21655 -2.96407 0
M  V30 13104 C 1241.55 -3.23131 -4.15298 0
M  V30 13105 O 1240.57 -3.96741 -4.08149 0
M  V30 13106 N 1241.78 -2.47376 -5.25153 0
M  V30 13107 H 1244.54 -2.75032 -1.1907 0
M  V30 13108 H 1242.1 -1.53754 -0.507086 0
M  V30 13109 H 1244.09 -1.89828 -3.57418 0
M  V30 13110 H 1242.66 -1.0402 -2.94786 0
M  V30 13111 H 1241.88 -3.36154 -2.05899 0
M  V30 13112 H 1243.17 -4.07629 -3.04494 0
M  V30 13113 H 1242.57 -1.87173 -5.33838 0
M  V30 13114 H 1241.13 -2.51555 -6.01301 0
M  V30 13115 N 1244.56 0.579466 -1.4656 0
M  V30 13116 C 1245.97 1.1616 -1.46164 0
M  V30 13117 C 1246.32 1.95134 -0.20423 0
M  V30 13118 O 1245.45 2.05022 0.692457 0
M  V30 13119 C 1246.04 2.11322 -2.64818 0
M  V30 13120 C 1244.6 2.64852 -2.67452 0
M  V30 13121 C 1243.75 1.40786 -2.38903 0
M  V30 13122 H 1246.7 0.367229 -1.54393 0
M  V30 13123 H 1246.72 2.94839 -2.4052 0
M  V30 13124 H 1246.23 1.53815 -3.56318 0
M  V30 13125 H 1244.33 3.26219 -1.80032 0
M  V30 13126 H 1244.45 3.07366 -3.67509 0
M  V30 13127 H 1242.81 1.70707 -1.89027 0
M  V30 13128 H 1243.59 0.851049 -3.32584 0
M  V30 13129 N 1246.04 1.3432 0.824371 0
M  V30 13130 C 1246.95 1.27847 1.96704 0
M  V30 13131 C 1247.96 0.18641 1.72999 0
M  V30 13132 O 1249.14 0.412623 1.97128 0
M  V30 13133 C 1246.21 1.03231 3.30975 0
M  V30 13134 C 1245.27 2.21579 3.67697 0
M  V30 13135 C 1244.5 1.98128 4.95561 0
M  V30 13136 O 1244.72 0.938798 5.62621 0
M  V30 13137 O 1243.66 2.85041 5.30128 0
M  V30 13138 H 1247.48 2.23974 2.05108 0
M  V30 13139 H 1245.07 1.14512 0.959554 0
M  V30 13140 H 1246.95 0.912784 4.11395 0
M  V30 13141 H 1245.62 0.101425 3.23541 0
M  V30 13142 H 1244.53 2.3909 2.87727 0
M  V30 13143 H 1245.86 3.13052 3.79815 0
M  V30 13144 N 1247.52 -1.0444 1.18026 0
M  V30 13145 C 1248.79 -1.74533 0.883045 0
M  V30 13146 C 1249.17 -2.01944 -0.614975 0
M  V30 13147 O 1248.52 -1.66158 -1.56855 0
M  V30 13148 C 1248.73 -3.0332 1.72621 0
M  V30 13149 C 1250.08 -3.77128 1.9509 0
M  V30 13150 O 1251.1 -3.13209 1.69643 0
M  V30 13151 O 1249.96 -4.92001 2.37903 0
M  V30 13152 H 1247.06 -0.759315 0.327673 0
M  V30 13153 H 1249.6 -1.10539 1.2876 0
M  V30 13154 H 1248.37 -2.79171 2.74188 0
M  V30 13155 H 1248 -3.75052 1.31993 0
M  V30 13156 N 1248.99 -0.981699 -1.2329 0
M  V30 13157 C 1249.94 -0.52269 -2.24803 0
M  V30 13158 C 1250.91 0.439116 -1.6019 0
M  V30 13159 O 1252.1 0.346372 -1.8763 0
M  V30 13160 C 1249.24 0.167477 -3.44693 0
M  V30 13161 C 1248.35 -0.834744 -4.23858 0
M  V30 13162 C 1247.48 -0.119249 -5.31066 0
M  V30 13163 C 1246.52 -1.1106 -6.0194 0
M  V30 13164 N 1245.66 -0.424167 -7.00818 0
M  V30 13165 H 1250.5 -1.39312 -2.63431 0
M  V30 13166 H 1248.04 -0.698061 -1.29482 0
M  V30 13167 H 1250 0.584442 -4.13086 0
M  V30 13168 H 1248.63 1.00177 -3.06862 0
M  V30 13169 H 1247.68 -1.37009 -3.5487 0
M  V30 13170 H 1248.99 -1.59012 -4.72776 0
M  V30 13171 H 1248.14 0.355015 -6.0566 0
M  V30 13172 H 1246.88 0.668714 -4.83094 0
M  V30 13173 H 1245.89 -1.5956 -5.26138 0
M  V30 13174 H 1247.11 -1.89924 -6.52001 0
M  V30 13175 H 1245.06 0.344564 -6.55094 0
M  V30 13176 H 1244.98 -1.11817 -7.47685 0
M  V30 13177 H 1246.24 0.0276655 -7.79495 0
M  V30 13178 N 1250.47 1.3842 -0.753509 0
M  V30 13179 C 1251.72 1.99359 -0.306416 0
M  V30 13180 C 1252.03 1.60492 1.11811 0
M  V30 13181 O 1253.24 2.14401 1.66567 0
M  V30 13182 C 1251.7 3.56453 -0.496895 0
M  V30 13183 C 1251.3 4.04272 -1.9305 0
M  V30 13184 C 1253.05 4.24351 -0.11251 0
M  V30 13185 C 1250.96 5.54007 -2.06955 0
M  V30 13186 H 1249.89 0.745812 -0.110818 0
M  V30 13187 H 1252.54 1.58185 -0.930039 0
M  V30 13188 H 1250.92 3.95515 0.195912 0
M  V30 13189 H 1252.09 3.765 -2.65677 0
M  V30 13190 H 1250.41 3.49098 -2.26979 0
M  V30 13191 H 1253 5.34344 -0.195161 0
M  V30 13192 H 1253.35 4.05668 0.934849 0
M  V30 13193 H 1253.88 3.90528 -0.757168 0
M  V30 13194 H 1250.62 5.77594 -3.09944 0
M  V30 13195 H 1250.14 5.83522 -1.38788 0
M  V30 13196 H 1251.82 6.19704 -1.85945 0
M  V30 13197 N 1251.95 0.502579 1.49372 0
M  V30 13198 C 1253.18 -0.0381429 2.06865 0
M  V30 13199 C 1253.59 -1.30674 1.36271 0
M  V30 13200 O 1252.95 -1.77078 0.441532 0
M  V30 13201 C 1253 -0.294068 3.60302 0
M  V30 13202 O 1252.72 0.924244 4.2824 0
M  V30 13203 C 1254.22 -0.878253 4.34513 0
M  V30 13204 H 1251.44 0.0211756 0.670666 0
M  V30 13205 H 1253.99 0.700387 1.92132 0
M  V30 13206 H 1252.14 -0.982583 3.74732 0
M  V30 13207 H 1252.56 0.688062 5.19967 0
M  V30 13208 H 1254.03 -1.0069 5.42739 0
M  V30 13209 H 1254.51 -1.87643 3.97098 0
M  V30 13210 H 1255.11 -0.227157 4.24693 0
M  V30 13211 N 1253.43 -1.55816 0.23648 0
M  V30 13212 C 1254.68 -1.97862 -0.391579 0
M  V30 13213 C 1254.99 -1.1276 -1.59827 0
M  V30 13214 O 1256.2 -1.44772 -2.29681 0
M  V30 13215 C 1254.65 -3.5204 -0.748065 0
M  V30 13216 C 1254.26 -4.45867 0.436643 0
M  V30 13217 C 1256 -4.02766 -1.3409 0
M  V30 13218 C 1253.91 -5.91373 0.0568909 0
M  V30 13219 H 1252.84 -0.738913 -0.150078 0
M  V30 13220 H 1255.49 -1.80415 0.335052 0
M  V30 13221 H 1253.87 -3.65143 -1.53254 0
M  V30 13222 H 1255.05 -4.44519 1.21408 0
M  V30 13223 H 1253.36 -4.05565 0.943702 0
M  V30 13224 H 1255.96 -5.08987 -1.63817 0
M  V30 13225 H 1256.3 -3.49496 -2.26182 0
M  V30 13226 H 1256.84 -3.92946 -0.619548 0
M  V30 13227 H 1253.58 -6.48657 0.944682 0
M  V30 13228 H 1253.1 -5.95881 -0.684557 0
M  V30 13229 H 1254.77 -6.45972 -0.364586 0
M  V30 13230 N 1254.91 0.036755 -1.57557 0
M  V30 13231 C 1256.15 0.730186 -1.89199 0
M  V30 13232 C 1256.49 1.75414 -0.833271 0
M  V30 13233 O 1255.76 1.93901 0.152579 0
M  V30 13234 C 1256.04 1.40669 -3.31488 0
M  V30 13235 C 1255.9 0.396764 -4.48047 0
M  V30 13236 C 1257.22 2.34268 -3.72567 0
M  V30 13237 H 1254.33 0.263983 -0.6881 0
M  V30 13238 H 1256.98 -0.0069847 -1.89999 0
M  V30 13239 H 1255.13 2.03502 -3.30937 0
M  V30 13240 H 1256.8 -0.229062 -4.60731 0
M  V30 13241 H 1255.04 -0.284698 -4.32865 0
M  V30 13242 H 1255.71 0.908436 -5.44474 0
M  V30 13243 H 1258.19 1.81485 -3.74436 0
M  V30 13244 H 1257.06 2.78587 -4.72949 0
M  V30 13245 H 1257.33 3.20611 -3.04403 0
M  V30 13246 N 1256.39 1.54543 0.308881 0
M  V30 13247 C 1257.32 1.81309 1.40212 0
M  V30 13248 C 1258.33 0.69568 1.47187 0
M  V30 13249 O 1259.52 0.973034 1.49647 0
M  V30 13250 C 1256.62 1.92901 2.78644 0
M  V30 13251 C 1255.79 3.23222 2.94697 0
M  V30 13252 C 1254.85 3.25329 4.13579 0
M  V30 13253 O 1253.88 3.989 4.06039 0
M  V30 13254 N 1255.08 2.50158 5.23833 0
M  V30 13255 H 1257.84 2.75659 1.1761 0
M  V30 13256 H 1255.41 1.54021 0.498925 0
M  V30 13257 H 1257.4 1.91721 3.56406 0
M  V30 13258 H 1255.97 1.05582 2.9423 0
M  V30 13259 H 1255.19 3.37241 2.04113 0
M  V30 13260 H 1256.48 4.09238 3.02328 0
M  V30 13261 H 1255.87 1.90002 5.32838 0
M  V30 13262 H 1254.43 2.5474 5.99959 0
M  V30 13263 N 1257.86 -0.571685 1.46866 0
M  V30 13264 C 1259.09 -1.36008 1.56578 0
M  V30 13265 C 1259.51 -1.86909 0.211326 0
M  V30 13266 O 1258.87 -1.62179 -0.810421 0
M  V30 13267 C 1258.92 -2.51598 2.58323 0
M  V30 13268 O 1258.02 -3.53383 2.1259 0
M  V30 13269 H 1257.36 -0.404593 0.526498 0
M  V30 13270 H 1259.89 -0.692357 1.92529 0
M  V30 13271 H 1259.9 -2.98366 2.78283 0
M  V30 13272 H 1258.58 -2.13904 3.56676 0
M  V30 13273 H 1257.16 -3.13019 2.02666 0
M  V30 13274 N 1259.34 -1.34755 -0.817236 0
M  V30 13275 C 1260.27 -1.29452 -1.94331 0
M  V30 13276 C 1261.25 -0.170902 -1.69239 0
M  V30 13277 O 1262.44 -0.364173 -1.90755 0
M  V30 13278 C 1259.57 -1.05497 -3.30889 0
M  V30 13279 C 1258.52 -2.14386 -3.70436 0
M  V30 13280 C 1257.85 -1.75612 -5.05039 0
M  V30 13281 C 1259.15 -3.56265 -3.81933 0
M  V30 13282 H 1260.84 -2.23672 -1.99025 0
M  V30 13283 H 1258.39 -1.07674 -0.956159 0
M  V30 13284 H 1260.34 -1.0043 -4.09257 0
M  V30 13285 H 1259.06 -0.0772059 -3.26509 0
M  V30 13286 H 1257.72 -2.18532 -2.94345 0
M  V30 13287 H 1257.37 -0.764809 -4.97152 0
M  V30 13288 H 1257.07 -2.48495 -5.3247 0
M  V30 13289 H 1258.6 -1.72051 -5.85859 0
M  V30 13290 H 1260.01 -3.545 -4.50558 0
M  V30 13291 H 1258.41 -4.27818 -4.20822 0
M  V30 13292 H 1259.48 -3.93192 -2.83775 0
M  V30 13293 N 1260.82 1.03812 -1.18578 0
M  V30 13294 C 1261.77 2.11883 -0.915115 0
M  V30 13295 C 1262.74 1.65453 0.146479 0
M  V30 13296 O 1263.92 1.90799 0.00630058 0
M  V30 13297 C 1261.06 3.42157 -0.449755 0
M  V30 13298 C 1260.17 4.02185 -1.57706 0
M  V30 13299 C 1259.31 5.20431 -1.06417 0
M  V30 13300 C 1258.35 5.72496 -2.16599 0
M  V30 13301 N 1257.49 6.82027 -1.66685 0
M  V30 13302 H 1262.33 2.34373 -1.84047 0
M  V30 13303 H 1259.86 1.14962 -0.917728 0
M  V30 13304 H 1261.82 4.16888 -0.161407 0
M  V30 13305 H 1260.45 3.19806 0.438622 0
M  V30 13306 H 1259.5 3.24757 -1.98083 0
M  V30 13307 H 1260.81 4.36851 -2.40754 0
M  V30 13308 H 1259.97 6.02286 -0.730497 0
M  V30 13309 H 1258.71 4.87276 -0.203301 0
M  V30 13310 H 1257.71 4.8926 -2.50808 0
M  V30 13311 H 1258.94 6.07694 -3.03126 0
M  V30 13312 H 1256.88 6.50742 -0.828916 0
M  V30 13313 H 1256.8 7.1577 -2.43329 0
M  V30 13314 H 1258.07 7.67499 -1.36253 0
M  V30 13315 N 1262.3 0.988223 1.22768 0
M  V30 13316 C 1263.71 0.69816 1.4352 0
M  V30 13317 C 1263.91 -0.732872 1.877 0
M  V30 13318 O 1262.97 -1.50436 2.02793 0
M  V30 13319 C 1264.28 1.69975 2.4805 0
M  V30 13320 C 1265.83 1.71467 2.61855 0
M  V30 13321 C 1266.31 2.70477 3.69603 0
M  V30 13322 N 1267.8 2.69043 3.77055 0
M  V30 13323 C 1268.53 3.42319 4.60006 0
M  V30 13324 N 1268.03 4.2518 5.46986 0
M  V30 13325 N 1269.82 3.31047 4.54274 0
M  V30 13326 H 1261.97 1.91251 0.923948 0
M  V30 13327 H 1264.23 0.82455 0.467783 0
M  V30 13328 H 1263.94 2.72354 2.22523 0
M  V30 13329 H 1263.81 1.48885 3.46573 0
M  V30 13330 H 1266.2 0.697889 2.86729 0
M  V30 13331 H 1266.28 1.96625 1.63622 0
M  V30 13332 H 1265.93 3.72302 3.45476 0
M  V30 13333 H 1265.86 2.42591 4.67394 0
M  V30 13334 H 1268.35 2.08914 3.14902 0
M  V30 13335 H 1268.66 4.77929 6.07292 0
M  V30 13336 H 1267.01 4.29268 5.46584 0
M  V30 13337 H 1270.2 2.65758 3.85345 0
M  V30 13338 H 1270.37 3.88413 5.1869 0
M  V30 13339 N 1263.78 -1.38018 0.760839 0
M  V30 13340 C 1264.72 -2.30387 0.13796 0
M  V30 13341 C 1265.69 -1.50548 -0.701754 0
M  V30 13342 O 1266.88 -1.79154 -0.656381 0
M  V30 13343 C 1264.02 -3.36993 -0.743642 0
M  V30 13344 C 1263.13 -4.31856 0.111489 0
M  V30 13345 C 1262.27 -5.25534 -0.773796 0
M  V30 13346 C 1261.3 -6.12042 0.0845311 0
M  V30 13347 N 1260.44 -6.97995 -0.758118 0
M  V30 13348 H 1265.28 -2.83077 0.931212 0
M  V30 13349 H 1262.82 -1.39361 0.470833 0
M  V30 13350 H 1264.78 -3.97417 -1.26948 0
M  V30 13351 H 1263.41 -2.85695 -1.50261 0
M  V30 13352 H 1262.46 -3.72832 0.755031 0
M  V30 13353 H 1263.77 -4.92758 0.774042 0
M  V30 13354 H 1262.92 -5.9111 -1.36653 0
M  V30 13355 H 1261.66 -4.65017 -1.47006 0
M  V30 13356 H 1260.67 -5.45455 0.689883 0
M  V30 13357 H 1261.89 -6.74629 0.777966 0
M  V30 13358 H 1259.84 -6.40018 -1.4392 0
M  V30 13359 H 1259.76 -7.55846 -0.152623 0
M  V30 13360 H 1261.02 -7.67973 -1.33559 0
M  V30 13361 N 1265.25 -0.510493 -1.49103 0
M  V30 13362 C 1266.5 0.0305831 -2.02077 0
M  V30 13363 C 1266.82 1.36602 -1.39157 0
M  V30 13364 O 1266.09 1.88016 -0.550154 0
M  V30 13365 H 1264.67 0.0142916 -0.746863 0
M  V30 13366 H 1267.33 -0.669895 -1.83026 0
M  V30 13367 H 1266.43 0.153283 -3.11723 0
M  V30 13368 N 1266.73 1.55688 -0.24474 0
M  V30 13369 C 1267.96 2.02995 0.38425 0
M  V30 13370 C 1268.37 1.12339 1.52239 0
M  V30 13371 O 1267.71 0.129803 1.83241 0
M  V30 13372 C 1267.77 3.46564 0.955701 0
M  V30 13373 C 1267.44 4.56973 -0.0499176 0
M  V30 13374 C 1268.44 5.1276 -0.858682 0
M  V30 13375 C 1266.12 5.01994 -0.175383 0
M  V30 13376 C 1268.11 6.12059 -1.77939 0
M  V30 13377 C 1265.8 6.01126 -1.0996 0
M  V30 13378 C 1266.8 6.56037 -1.90013 0
M  V30 13379 O 1266.49 7.53235 -2.80877 0
M  V30 13380 H 1266.22 0.669189 0.0957212 0
M  V30 13381 H 1268.77 2.02121 -0.36555 0
M  V30 13382 H 1267 3.44581 1.75502 0
M  V30 13383 H 1268.69 3.77383 1.49454 0
M  V30 13384 H 1269.46 4.78811 -0.772325 0
M  V30 13385 H 1265.34 4.58918 0.437644 0
M  V30 13386 H 1268.88 6.54845 -2.40465 0
M  V30 13387 H 1264.78 6.34494 -1.18689 0
M  V30 13388 H 1265.55 7.70844 -2.75214 0
M  V30 13389 N 1268.21 -0.0283989 1.57574 0
M  V30 13390 C 1269.14 -1.02828 2.09639 0
M  V30 13391 C 1270.12 -1.37668 0.999076 0
M  V30 13392 O 1271.31 -1.4654 1.27435 0
M  V30 13393 C 1268.44 -2.329 2.57633 0
M  V30 13394 C 1267.39 -2.12301 3.71635 0
M  V30 13395 C 1266.72 -3.48138 4.05837 0
M  V30 13396 C 1268.02 -1.50864 5.00037 0
M  V30 13397 H 1269.71 -0.594876 2.93431 0
M  V30 13398 H 1267.26 -0.284701 1.41158 0
M  V30 13399 H 1269.21 -3.03179 2.92678 0
M  V30 13400 H 1267.93 -2.78302 1.70926 0
M  V30 13401 H 1266.59 -1.44454 3.3694 0
M  V30 13402 H 1266.24 -3.9119 3.16195 0
M  V30 13403 H 1265.94 -3.3518 4.82626 0
M  V30 13404 H 1267.46 -4.19779 4.43417 0
M  V30 13405 H 1268.88 -2.11062 5.33035 0
M  V30 13406 H 1267.27 -1.48479 5.81441 0
M  V30 13407 H 1268.34 -0.474541 4.82572 0
M  V30 13408 N 1269.69 -1.54705 -0.300681 0
M  V30 13409 C 1270.93 -1.74259 -1.03738 0
M  V30 13410 C 1271.27 -0.52703 -1.86912 0
M  V30 13411 O 1270.54 0.475862 -1.88589 0
M  V30 13412 C 1270.82 -3.03175 -1.94311 0
M  V30 13413 C 1270.68 -4.35031 -1.14315 0
M  V30 13414 C 1272 -3.27962 -2.93478 0
M  V30 13415 H 1269.12 -0.634031 -0.37573 0
M  V30 13416 H 1271.76 -1.87421 -0.312012 0
M  V30 13417 H 1269.91 -2.92086 -2.5616 0
M  V30 13418 H 1271.58 -4.5804 -0.547489 0
M  V30 13419 H 1269.82 -4.31503 -0.44587 0
M  V30 13420 H 1270.49 -5.21502 -1.80941 0
M  V30 13421 H 1272.97 -3.38663 -2.41757 0
M  V30 13422 H 1271.85 -4.19481 -3.54016 0
M  V30 13423 H 1272.11 -2.46273 -3.67154 0
M  V30 13424 N 1271.17 0.563888 -1.47167 0
M  V30 13425 C 1272.13 1.65359 -1.58711 0
M  V30 13426 C 1273.13 1.53999 -0.46272 0
M  V30 13427 O 1274.32 1.58277 -0.727595 0
M  V30 13428 C 1271.45 3.04874 -1.52529 0
M  V30 13429 H 1272.64 1.56475 -2.55843 0
M  V30 13430 H 1270.2 0.783271 -1.35257 0
M  V30 13431 H 1270.93 3.19297 -0.56747 0
M  V30 13432 H 1270.72 3.14528 -2.34125 0
M  V30 13433 H 1272.21 3.84164 -1.63731 0
M  V30 13434 N 1272.64 1.35187 0.810078 0
M  V30 13435 C 1273.58 1.22171 1.92742 0
M  V30 13436 C 1274.56 0.110393 1.62225 0
M  V30 13437 O 1275.74 0.27786 1.86441 0
M  V30 13438 C 1272.87 0.880367 3.27058 0
M  V30 13439 C 1271.91 2.00325 3.76527 0
M  V30 13440 S 1272.75 3.6185 3.94747 0
M  V30 13441 C 1273.9 3.29784 5.31971 0
M  V30 13442 H 1274.13 2.16749 2.03488 0
M  V30 13443 H 1271.67 1.20362 0.967072 0
M  V30 13444 H 1273.63 0.690224 4.04656 0
M  V30 13445 H 1272.29 -0.0472868 3.14064 0
M  V30 13446 H 1271.48 1.71847 4.73798 0
M  V30 13447 H 1271.08 2.15154 3.05916 0
M  V30 13448 H 1273.37 2.82396 6.1584 0
M  V30 13449 H 1274.32 4.26243 5.6544 0
M  V30 13450 H 1274.72 2.65641 4.98092 0
M  V30 13451 N 1274.12 -1.03182 1.19127 0
M  V30 13452 C 1275.35 -1.80165 1.01726 0
M  V30 13453 C 1275.77 -1.83742 -0.434095 0
M  V30 13454 O 1275.12 -1.27932 -1.30152 0
M  V30 13455 C 1275.17 -3.25354 1.57566 0
M  V30 13456 O 1274.89 -3.22042 2.9702 0
M  V30 13457 C 1276.4 -4.18948 1.44906 0
M  V30 13458 H 1273.62 -0.567078 0.358698 0
M  V30 13459 H 1276.16 -1.29982 1.57877 0
M  V30 13460 H 1274.31 -3.72738 1.0557 0
M  V30 13461 H 1274.73 -4.13061 3.23235 0
M  V30 13462 H 1276.2 -5.18723 1.88762 0
M  V30 13463 H 1276.68 -4.37383 0.399125 0
M  V30 13464 H 1277.29 -3.77435 1.96018 0
M  V30 13465 N 1275.6 -0.99472 -1.22242 0
M  V30 13466 C 1276.85 -0.670275 -1.90661 0
M  V30 13467 C 1277.17 0.800369 -1.77818 0
M  V30 13468 O 1276.44 1.57381 -1.16653 0
M  V30 13469 H 1275.02 -0.244925 -0.705706 0
M  V30 13470 H 1277.68 -1.26162 -1.48557 0
M  V30 13471 H 1276.78 -0.934408 -2.97784 0
M  V30 13472 N 1277.08 1.37613 -0.768148 0
M  V30 13473 C 1278.36 1.93921 -0.255724 0
M  V30 13474 C 1278.74 1.70215 1.2486 0
M  V30 13475 O 1278.08 1.0489 2.03003 0
M  V30 13476 C 1278.29 3.43354 -0.625204 0
M  V30 13477 C 1279.64 4.20439 -0.592978 0
M  V30 13478 O 1280.67 3.51701 -0.564375 0
M  V30 13479 O 1279.52 5.43008 -0.616849 0
M  V30 13480 H 1276.62 0.824968 -0.0579366 0
M  V30 13481 H 1279.16 1.46921 -0.849257 0
M  V30 13482 H 1277.94 3.54177 -1.66356 0
M  V30 13483 H 1277.56 3.976 -0.00442816 0
M  V30 13484 N 1278.56 0.518393 1.4883 0
M  V30 13485 C 1279.8 -0.019866 2.0209 0
M  V30 13486 C 1280.13 -1.35863 1.3988 0
M  V30 13487 O 1279.4 -1.87722 0.560117 0
M  V30 13488 H 1277.98 -0.0103306 0.746929 0
M  V30 13489 H 1280.64 0.679591 1.82668 0
M  V30 13490 H 1279.73 -0.136749 3.118 0
M  V30 13491 N 1280.03 -1.55556 0.252993 0
M  V30 13492 C 1281.28 -1.99385 -0.370599 0
M  V30 13493 C 1281.61 -1.14101 -1.57145 0
M  V30 13494 O 1280.89 -0.205828 -1.93408 0
M  V30 13495 C 1281.17 -3.51672 -0.774503 0
M  V30 13496 C 1281.02 -4.47719 0.432159 0
M  V30 13497 C 1282.34 -4.0923 -1.61923 0
M  V30 13498 H 1279.46 -0.724858 -0.133231 0
M  V30 13499 H 1282.1 -1.86644 0.355522 0
M  V30 13500 H 1280.25 -3.62661 -1.39318 0
M  V30 13501 H 1281.93 -4.48704 1.07063 0
M  V30 13502 H 1280.17 -4.2029 1.07419 0
M  V30 13503 H 1280.84 -5.51898 0.106123 0
M  V30 13504 H 1283.32 -4.01381 -1.09693 0
M  V30 13505 H 1282.19 -5.16039 -1.87068 0
M  V30 13506 H 1282.45 -3.58067 -2.59307 0
M  V30 13507 N 1281.51 0.0200419 -1.57587 0
M  V30 13508 C 1282.46 1.0362 -2.08244 0
M  V30 13509 C 1283.45 1.36872 -0.998119 0
M  V30 13510 O 1284.66 1.35671 -1.18293 0
M  V30 13511 H 1281.04 0.351731 -0.664673 0
M  V30 13512 H 1283.01 0.583226 -2.92645 0
M  V30 13513 C 1281.76 2.32574 -2.58466 0
M  V30 13514 H 1281.08 2.0785 -3.41523 0
M  V30 13515 H 1282.52 3.02 -2.97611 0
M  V30 13516 C 1280.98 3.02167 -1.48986 0
M  V30 13517 O 1281.51 3.92359 -0.861251 0
M  V30 13518 N 1279.71 2.63649 -1.22219 0
M  V30 13519 H 1279.26 1.90389 -1.73521 0
M  V30 13520 H 1279.22 3.10529 -0.491828 0
M  V30 13521 N 1282.99 1.54862 0.292472 0
M  V30 13522 C 1284.27 1.65237 1.04671 0
M  V30 13523 C 1284.65 0.506168 2.04942 0
M  V30 13524 O 1284 -0.496123 2.23049 0
M  V30 13525 C 1284.21 3.03618 1.72095 0
M  V30 13526 C 1285.55 3.6072 2.23979 0
M  V30 13527 O 1286.58 3.06126 1.82114 0
M  V30 13528 O 1285.44 4.56328 3.0071 0
M  V30 13529 H 1282.53 0.670347 0.484319 0
M  V30 13530 H 1285.08 1.67206 0.28988 0
M  V30 13531 H 1283.85 3.78482 0.993324 0
M  V30 13532 H 1283.47 3.05464 2.54514 0
M  V30 13533 N 1284.47 -0.556076 1.47464 0
M  V30 13534 C 1285.43 -1.64515 1.59586 0
M  V30 13535 C 1286.43 -1.53751 0.470881 0
M  V30 13536 O 1287.62 -1.57889 0.735979 0
M  V30 13537 C 1284.75 -3.0406 1.54143 0
M  V30 13538 H 1285.95 -1.55116 2.56669 0
M  V30 13539 H 1283.5 -0.776087 1.35671 0
M  V30 13540 H 1284.23 -3.18991 0.584395 0
M  V30 13541 H 1284.02 -3.13282 2.3579 0
M  V30 13542 H 1285.51 -3.8329 1.65766 0
M  V30 13543 N 1285.95 -1.35615 -0.802897 0
M  V30 13544 C 1287.36 -1.26062 -1.37715 0
M  V30 13545 C 1287.71 0.105411 -1.95917 0
M  V30 13546 O 1286.83 1.00648 -1.91569 0
M  V30 13547 C 1287.43 -2.28261 -2.50365 0
M  V30 13548 C 1285.99 -2.22437 -3.03642 0
M  V30 13549 C 1285.14 -2.1377 -1.76629 0
M  V30 13550 H 1288.09 -1.46689 -0.605631 0
M  V30 13551 H 1288.11 -1.91122 -3.29017 0
M  V30 13552 H 1287.62 -3.27671 -2.07975 0
M  V30 13553 H 1285.72 -1.2645 -3.50487 0
M  V30 13554 H 1285.83 -3.14558 -3.61373 0
M  V30 13555 H 1284.2 -1.59806 -1.98328 0
M  V30 13556 H 1284.98 -3.15046 -1.36385 0
M  V30 13557 N 1287.43 1.02549 -1.19673 0
M  V30 13558 C 1288.39 2.09064 -0.939407 0
M  V30 13559 C 1289.39 1.60593 0.0814837 0
M  V30 13560 O 1290.58 1.73521 -0.153626 0
M  V30 13561 C 1287.71 3.38395 -0.412513 0
M  V30 13562 H 1288.9 2.33325 -1.88413 0
M  V30 13563 H 1286.46 1.19211 -1.01086 0
M  V30 13564 H 1287.19 3.19805 0.538094 0
M  V30 13565 H 1286.98 3.74898 -1.14863 0
M  V30 13566 H 1288.47 4.16841 -0.251678 0
M  V30 13567 N 1288.9 1.00119 1.21713 0
M  V30 13568 C 1289.83 0.578504 2.2622 0
M  V30 13569 C 1290.81 -0.398777 1.6536 0
M  V30 13570 O 1292 -0.287596 1.92059 0
M  V30 13571 C 1289.13 -0.0994508 3.47158 0
M  V30 13572 C 1288.08 0.79722 4.2051 0
M  V30 13573 C 1287.41 -0.0141125 5.34698 0
M  V30 13574 C 1288.71 2.09802 4.7831 0
M  V30 13575 H 1290.4 1.45208 2.6183 0
M  V30 13576 H 1287.95 0.699656 1.2586 0
M  V30 13577 H 1289.9 -0.406605 4.19434 0
M  V30 13578 H 1288.63 -1.00763 3.10667 0
M  V30 13579 H 1287.29 1.08814 3.50079 0
M  V30 13580 H 1286.93 -0.923468 4.9445 0
M  V30 13581 H 1286.63 0.582883 5.84702 0
M  V30 13582 H 1288.16 -0.31517 6.09786 0
M  V30 13583 H 1289.57 1.85427 5.42485 0
M  V30 13584 H 1287.97 2.64455 5.38687 0
M  V30 13585 H 1289.04 2.77132 3.97902 0
M  V30 13586 N 1290.38 -1.37203 0.775435 0
M  V30 13587 C 1291.33 -2.30228 0.162388 0
M  V30 13588 C 1292.3 -1.51284 -0.685747 0
M  V30 13589 O 1293.48 -1.7984 -0.637342 0
M  V30 13590 C 1290.62 -3.37762 -0.707858 0
M  V30 13591 C 1289.74 -4.31714 0.157287 0
M  V30 13592 C 1288.87 -5.26325 -0.718012 0
M  V30 13593 C 1287.91 -6.11918 0.149442 0
M  V30 13594 N 1287.05 -6.9876 -0.684043 0
M  V30 13595 H 1291.89 -2.82073 0.961184 0
M  V30 13596 H 1289.42 -1.38854 0.485587 0
M  V30 13597 H 1291.38 -3.98741 -1.22726 0
M  V30 13598 H 1290.01 -2.87273 -1.47222 0
M  V30 13599 H 1289.06 -3.7201 0.794533 0
M  V30 13600 H 1290.38 -4.91909 0.826262 0
M  V30 13601 H 1289.53 -5.92526 -1.30376 0
M  V30 13602 H 1288.27 -4.6655 -1.42066 0
M  V30 13603 H 1287.27 -5.44692 0.747697 0
M  V30 13604 H 1288.5 -6.73766 0.849476 0
M  V30 13605 H 1286.45 -6.41508 -1.37124 0
M  V30 13606 H 1286.36 -7.55965 -0.0724464 0
M  V30 13607 H 1287.63 -7.69346 -1.25407 0
M  V30 13608 N 1291.86 -0.526279 -1.48553 0
M  V30 13609 C 1292.82 0.227739 -2.28066 0
M  V30 13610 C 1293.82 0.871146 -1.35158 0
M  V30 13611 O 1295.01 0.731769 -1.58085 0
M  V30 13612 C 1292.14 1.32918 -3.1392 0
M  V30 13613 H 1293.34 -0.470313 -2.96189 0
M  V30 13614 H 1290.89 -0.282089 -1.53733 0
M  V30 13615 H 1291.63 2.0606 -2.50419 0
M  V30 13616 H 1291.41 0.872991 -3.82258 0
M  V30 13617 H 1292.9 1.85964 -3.73908 0
M  V30 13618 N 1293.34 1.5542 -0.261239 0
M  V30 13619 C 1294.3 2.20683 0.619011 0
M  V30 13620 C 1295.3 1.18042 1.09192 0
M  V30 13621 O 1296.49 1.43035 0.99432 0
M  V30 13622 C 1293.62 2.86179 1.85242 0
M  V30 13623 H 1294.82 2.99859 0.0493924 0
M  V30 13624 H 1292.37 1.56296 -0.0117687 0
M  V30 13625 H 1293.1 2.10978 2.4629 0
M  V30 13626 H 1292.89 3.61381 1.52138 0
M  V30 13627 H 1294.38 3.36081 2.47869 0
M  V30 13628 N 1294.82 -0.0116844 1.57596 0
M  V30 13629 C 1296.09 -0.735344 1.81251 0
M  V30 13630 C 1296.47 -1.92634 0.863446 0
M  V30 13631 O 1295.82 -2.28321 -0.0905028 0
M  V30 13632 C 1296.03 -1.15206 3.29437 0
M  V30 13633 C 1297.38 -1.56078 3.94873 0
M  V30 13634 O 1298.4 -1.24618 3.3369 0
M  V30 13635 O 1297.26 -2.14534 5.0263 0
M  V30 13636 H 1294.36 -0.357044 0.745955 0
M  V30 13637 H 1296.9 0.0128733 1.69695 0
M  V30 13638 H 1295.67 -0.302619 3.90128 0
M  V30 13639 H 1295.3 -1.95975 3.45947 0
M  V30 13640 N 1296.29 -1.55015 -0.284256 0
M  V30 13641 C 1297.54 -1.74297 -1.01506 0
M  V30 13642 C 1297.86 -0.545134 -1.8785 0
M  V30 13643 O 1299.06 -0.620118 -2.64323 0
M  V30 13644 C 1297.52 -3.08438 -1.85456 0
M  V30 13645 C 1297.13 -4.35753 -1.04034 0
M  V30 13646 C 1298.87 -3.37073 -2.58035 0
M  V30 13647 C 1296.78 -5.60938 -1.87358 0
M  V30 13648 H 1295.71 -0.649656 -0.382705 0
M  V30 13649 H 1298.36 -1.81484 -0.271239 0
M  V30 13650 H 1296.74 -2.95259 -2.63891 0
M  V30 13651 H 1297.91 -4.59816 -0.300954 0
M  V30 13652 H 1296.23 -4.14178 -0.429616 0
M  V30 13653 H 1298.83 -4.27806 -3.20759 0
M  V30 13654 H 1299.17 -2.56698 -3.27738 0
M  V30 13655 H 1299.7 -3.51299 -1.86638 0
M  V30 13656 H 1296.44 -6.44029 -1.22096 0
M  V30 13657 H 1295.96 -5.41035 -2.58923 0
M  V30 13658 H 1297.64 -5.98819 -2.44999 0
M  V30 13659 N 1297.77 0.548248 -1.47757 0
M  V30 13660 C 1299.02 1.30243 -1.54535 0
M  V30 13661 C 1299.34 1.93832 -0.213089 0
M  V30 13662 O 1298.61 1.80397 0.763782 0
M  V30 13663 H 1297.19 0.483684 -0.569262 0
M  V30 13664 H 1299.85 0.639485 -1.8411 0
M  V30 13665 H 1298.95 2.09128 -2.31672 0
M  V30 13666 N 1299.25 1.36039 0.795694 0
M  V30 13667 C 1300.5 1.30112 1.5556 0
M  V30 13668 C 1300.83 -0.121197 1.93821 0
M  V30 13669 O 1300.1 -1.07313 1.62216 0
M  V30 13670 C 1300.39 2.21792 2.8369 0
M  V30 13671 C 1300.24 3.72691 2.51836 0
M  V30 13672 C 1301.56 2.12365 3.85472 0
M  V30 13673 H 1298.68 0.473971 0.564376 0
M  V30 13674 H 1301.32 1.66536 0.91465 0
M  V30 13675 H 1299.47 1.9086 3.38386 0
M  V30 13676 H 1301.14 4.14115 2.0324 0
M  V30 13677 H 1299.38 3.92436 1.84869 0
M  V30 13678 H 1300.06 4.32242 3.43323 0
M  V30 13679 H 1302.53 2.3958 3.40207 0
M  V30 13680 H 1301.41 2.78695 4.72885 0
M  V30 13681 H 1301.67 1.10898 4.27965 0
M  V30 13682 N 1300.73 -1.01913 1.20215 0
M  V30 13683 C 1301.69 -2.08563 0.950481 0
M  V30 13684 C 1302.69 -1.60634 -0.0729659 0
M  V30 13685 O 1303.88 -1.73437 0.162826 0
M  V30 13686 C 1301.01 -3.38171 0.430453 0
M  V30 13687 H 1302.21 -2.32323 1.89647 0
M  V30 13688 H 1299.76 -1.18674 1.01716 0
M  V30 13689 H 1300.49 -3.20086 -0.521126 0
M  V30 13690 H 1300.28 -3.74284 1.1685 0
M  V30 13691 H 1301.77 -4.16702 0.273781 0
M  V30 13692 N 1302.21 -1.00763 -1.2118 0
M  V30 13693 C 1303.14 -0.515053 -2.22312 0
M  V30 13694 C 1304.12 0.432665 -1.56738 0
M  V30 13695 O 1305.3 0.35477 -1.85131 0
M  V30 13696 C 1302.43 0.251544 -3.37765 0
M  V30 13697 C 1301.47 -0.64437 -4.21604 0
M  V30 13698 S 1302.31 -2.10832 -4.9225 0
M  V30 13699 C 1303.46 -1.35163 -6.11132 0
M  V30 13700 H 1303.7 -1.37198 -2.6375 0
M  V30 13701 H 1301.23 -0.815783 -1.31089 0
M  V30 13702 H 1303.19 0.687761 -4.04698 0
M  V30 13703 H 1301.85 1.08393 -2.94805 0
M  V30 13704 H 1301.04 -0.0537452 -5.03971 0
M  V30 13705 H 1300.64 -1.01798 -3.5988 0
M  V30 13706 H 1302.94 -0.6269 -6.74593 0
M  V30 13707 H 1303.88 -2.15111 -6.74635 0
M  V30 13708 H 1304.29 -0.858444 -5.57935 0
M  V30 13709 N 1303.68 1.3679 -0.7827 0
M  V30 13710 C 1304.93 1.99023 -0.351316 0
M  V30 13711 C 1305.25 1.62436 1.07887 0
M  V30 13712 O 1304.52 0.895084 1.74256 0
M  V30 13713 H 1303.1 0.736141 -0.126909 0
M  V30 13714 H 1305.77 1.67095 -1.00325 0
M  V30 13715 H 1304.86 3.09015 -0.43774 0
M  V30 13716 N 1305.16 0.53415 1.48272 0
M  V30 13717 C 1306.41 -0.000450626 2.017 0
M  V30 13718 C 1306.72 -1.34926 1.41613 0
M  V30 13719 O 1307.93 -1.97246 1.86564 0
M  V30 13720 C 1306.39 -0.0511883 3.59864 0
M  V30 13721 C 1305.99 1.29298 4.28936 0
M  V30 13722 C 1307.74 -0.534397 4.21123 0
M  V30 13723 C 1305.65 1.2026 5.79044 0
M  V30 13724 H 1304.58 -0.00393844 0.75399 0
M  V30 13725 H 1307.23 0.678554 1.70493 0
M  V30 13726 H 1305.61 -0.795358 3.8793 0
M  V30 13727 H 1306.78 2.05305 4.12537 0
M  V30 13728 H 1305.1 1.71226 3.79566 0
M  V30 13729 H 1307.69 -0.620048 5.31093 0
M  V30 13730 H 1308.04 -1.54114 3.86723 0
M  V30 13731 H 1308.57 0.154215 3.97501 0
M  V30 13732 H 1305.31 2.18463 6.18025 0
M  V30 13733 H 1304.83 0.483971 5.97844 0
M  V30 13734 H 1306.51 0.895005 6.4078 0
M  V30 13735 N 1306.64 -1.55279 0.269478 0
M  V30 13736 C 1307.59 -2.23723 -0.636468 0
M  V30 13737 C 1308.58 -1.23234 -1.16232 0
M  V30 13738 O 1309.79 -1.41181 -1.1166 0
M  V30 13739 H 1306.16 -0.71793 -0.223788 0
M  V30 13740 H 1308.13 -2.98378 -0.0363057 0
M  V30 13741 C 1306.88 -2.96755 -1.81195 0
M  V30 13742 H 1306.21 -3.73865 -1.4165 0
M  V30 13743 H 1307.65 -3.47975 -2.42258 0
M  V30 13744 C 1306.11 -2.01905 -2.69696 0
M  V30 13745 O 1306.64 -1.56662 -3.69892 0
M  V30 13746 N 1304.84 -1.68524 -2.36744 0
M  V30 13747 H 1304.39 -2.05512 -1.55314 0
M  V30 13748 H 1304.35 -1.05331 -2.96231 0
M  V30 13749 N 1308.12 0.00332656 -1.576 0
M  V30 13750 C 1309.37 0.687508 -1.90047 0
M  V30 13751 C 1309.69 1.74497 -0.870388 0
M  V30 13752 O 1308.96 1.95681 0.0926544 0
M  V30 13753 H 1307.54 0.256924 -0.701426 0
M  V30 13754 H 1310.2 -0.0368129 -1.94865 0
M  V30 13755 H 1309.3 1.16086 -2.89707 0
M  V30 13756 N 1309.6 1.55164 0.276031 0
M  V30 13757 C 1310.82 1.79649 1.02635 0
M  V30 13758 C 1311.24 0.568289 1.80044 0
M  V30 13759 O 1310.6 -0.462569 1.7654 0
M  V30 13760 C 1310.65 3.01974 1.98731 0
M  V30 13761 O 1310.37 4.2005 1.24459 0
M  V30 13762 C 1311.87 3.39039 2.856 0
M  V30 13763 H 1309.09 0.598529 0.303321 0
M  V30 13764 H 1311.63 2.02171 0.307733 0
M  V30 13765 H 1309.79 2.81586 2.6606 0
M  V30 13766 H 1310.2 4.89185 1.89205 0
M  V30 13767 H 1311.68 4.27809 3.48831 0
M  V30 13768 H 1312.15 2.58306 3.55211 0
M  V30 13769 H 1312.76 3.61674 2.23767 0
M  V30 13770 N 1311.07 -0.540404 1.48045 0
M  V30 13771 C 1311.98 -1.67308 1.64455 0
M  V30 13772 C 1313 -1.65823 0.527152 0
M  V30 13773 O 1314.18 -1.84964 0.796881 0
M  V30 13774 C 1311.24 -3.03792 1.67068 0
M  V30 13775 C 1310.3 -3.16213 2.90358 0
M  V30 13776 C 1309.54 -4.46187 2.92837 0
M  V30 13777 O 1309.76 -5.32662 2.04029 0
M  V30 13778 O 1308.69 -4.62754 3.84892 0
M  V30 13779 H 1312.52 -1.56403 2.6033 0
M  V30 13780 H 1310.1 -0.712323 1.31325 0
M  V30 13781 H 1311.99 -3.84982 1.71368 0
M  V30 13782 H 1310.66 -3.15043 0.74363 0
M  V30 13783 H 1309.57 -2.34357 2.91595 0
M  V30 13784 H 1310.9 -3.09874 3.82412 0
M  V30 13785 N 1312.55 -1.36459 -0.788468 0
M  V30 13786 C 1313.8 -1.30935 -1.54867 0
M  V30 13787 C 1314.13 0.110916 -1.93883 0
M  V30 13788 O 1313.41 1.06452 -1.62783 0
M  V30 13789 C 1313.69 -2.23294 -2.8251 0
M  V30 13790 C 1313.54 -3.74022 -2.49856 0
M  V30 13791 C 1314.86 -2.14407 -3.84341 0
M  V30 13792 H 1311.98 -0.476958 -0.561854 0
M  V30 13793 H 1314.62 -1.67018 -0.905805 0
M  V30 13794 H 1312.77 -1.92652 -3.37369 0
M  V30 13795 H 1314.44 -4.15187 -2.01041 0
M  V30 13796 H 1312.69 -3.93411 -1.82785 0
M  V30 13797 H 1313.36 -4.34057 -3.41026 0
M  V30 13798 H 1315.83 -2.41381 -3.38932 0
M  V30 13799 H 1314.71 -2.81199 -4.71401 0
M  V30 13800 H 1314.97 -1.13166 -4.27371 0
M  V30 13801 N 1314.03 1.01274 -1.20754 0
M  V30 13802 C 1314.99 2.08056 -0.961528 0
M  V30 13803 C 1315.99 1.60671 0.0644461 0
M  V30 13804 O 1317.18 1.73349 -0.172022 0
M  V30 13805 C 1314.32 3.37938 -0.448381 0
M  V30 13806 H 1315.51 2.31314 -1.90877 0
M  V30 13807 H 1313.06 1.18133 -1.02344 0
M  V30 13808 H 1313.8 3.20357 0.504144 0
M  V30 13809 H 1313.58 3.73659 -1.18833 0
M  V30 13810 H 1315.07 4.16551 -0.295876 0
M  V30 13811 N 1315.51 1.01404 1.20644 0
M  V30 13812 C 1316.46 0.582109 2.23339 0
M  V30 13813 C 1317.43 -0.39649 1.61298 0
M  V30 13814 O 1318.61 -0.296504 1.88482 0
M  V30 13815 C 1315.75 -0.076029 3.45016 0
M  V30 13816 C 1314.86 0.946829 4.21496 0
M  V30 13817 C 1314 0.26001 5.30563 0
M  V30 13818 C 1313.04 1.2698 5.98784 0
M  V30 13819 N 1312.18 0.609827 6.99447 0
M  V30 13820 H 1317.02 1.46248 2.59645 0
M  V30 13821 H 1314.55 0.732145 1.27585 0
M  V30 13822 H 1316.51 -0.474714 4.1449 0
M  V30 13823 H 1315.14 -0.920062 3.0941 0
M  V30 13824 H 1314.19 1.4637 3.51113 0
M  V30 13825 H 1315.5 1.71491 4.68393 0
M  V30 13826 H 1314.66 -0.19431 6.06389 0
M  V30 13827 H 1313.4 -0.540395 4.84697 0
M  V30 13828 H 1312.4 1.73453 5.21722 0
M  V30 13829 H 1313.63 2.07144 6.46737 0
M  V30 13830 H 1311.57 -0.170756 6.55778 0
M  V30 13831 H 1311.49 1.31601 7.44458 0
M  V30 13832 H 1312.76 0.179014 7.79294 0
M  V30 13833 N 1316.99 -1.36373 0.789944 0
M  V30 13834 C 1318.24 -1.98834 0.361866 0
M  V30 13835 C 1318.56 -1.63006 -1.07024 0
M  V30 13836 O 1317.83 -0.904312 -1.73779 0
M  V30 13837 H 1316.41 -0.735457 0.130812 0
M  V30 13838 H 1319.07 -1.66561 1.0121 0
M  V30 13839 H 1318.16 -3.08778 0.454122 0
M  V30 13840 N 1318.47 -0.542005 -1.47987 0
M  V30 13841 C 1319.43 0.203537 -2.28294 0
M  V30 13842 C 1320.43 0.856762 -1.36074 0
M  V30 13843 O 1321.62 0.71496 -1.58852 0
M  V30 13844 C 1318.75 1.29581 -3.15312 0
M  V30 13845 H 1319.94 -0.501701 -2.95674 0
M  V30 13846 H 1317.5 -0.298378 -1.53426 0
M  V30 13847 H 1318.23 2.03393 -2.5259 0
M  V30 13848 H 1318.02 0.832398 -3.83163 0
M  V30 13849 H 1319.51 1.81988 -3.75859 0
M  V30 13850 N 1319.94 1.55134 -0.277709 0
M  V30 13851 C 1321.17 2.04519 0.344472 0
M  V30 13852 C 1321.59 1.15466 1.4849 0
M  V30 13853 O 1320.95 0.153798 1.80646 0
M  V30 13854 C 1321 3.51602 0.800527 0
M  V30 13855 O 1320.1 3.65632 1.90754 0
M  V30 13856 H 1319.44 0.660212 0.0708226 0
M  V30 13857 H 1321.97 2.00393 -0.412764 0
M  V30 13858 H 1321.98 3.93015 1.09559 0
M  V30 13859 H 1320.66 4.15886 -0.033838 0
M  V30 13860 H 1319.24 3.36122 1.61481 0
M  V30 13861 N 1321.42 0.00503138 1.57599 0
M  V30 13862 C 1322.33 -1.00097 2.12174 0
M  V30 13863 C 1323.35 -1.37353 1.06818 0
M  V30 13864 O 1324.52 -1.45984 1.38747 0
M  V30 13865 C 1321.59 -2.27252 2.61835 0
M  V30 13866 C 1320.65 -1.96262 3.81811 0
M  V30 13867 C 1319.88 -3.17355 4.29094 0
M  V30 13868 O 1320.11 -4.2921 3.75679 0
M  V30 13869 O 1319.04 -3.01059 5.21198 0
M  V30 13870 H 1322.87 -0.567024 2.9836 0
M  V30 13871 H 1320.45 -0.214109 1.47858 0
M  V30 13872 H 1322.33 -3.01944 2.93952 0
M  V30 13873 H 1321.01 -2.69875 1.78744 0
M  V30 13874 H 1319.91 -1.19031 3.54658 0
M  V30 13875 H 1321.25 -1.58473 4.65991 0
M  V30 13876 N 1322.9 -1.55308 -0.267798 0
M  V30 13877 C 1323.83 -1.8348 -1.35685 0
M  V30 13878 C 1324.81 -0.688228 -1.47317 0
M  V30 13879 O 1325.99 -0.931781 -1.6386 0
M  V30 13880 C 1323.12 -2.00103 -2.7327 0
M  V30 13881 C 1322.17 -3.22675 -2.78896 0
M  V30 13882 S 1323 -4.79895 -2.37615 0
M  V30 13883 C 1324.16 -4.99497 -3.77165 0
M  V30 13884 H 1324.39 -2.75565 -1.11585 0
M  V30 13885 H 1321.92 -1.47146 -0.467703 0
M  V30 13886 H 1323.88 -2.10364 -3.52501 0
M  V30 13887 H 1322.54 -1.08897 -2.94619 0
M  V30 13888 H 1321.73 -3.31209 -3.7989 0
M  V30 13889 H 1321.34 -3.11031 -2.07691 0
M  V30 13890 H 1323.63 -4.85558 -4.72483 0
M  V30 13891 H 1324.57 -6.01534 -3.73581 0
M  V30 13892 H 1324.98 -4.2745 -3.68709 0
M  V30 13893 N 1324.38 0.532545 -1.4833 0
M  V30 13894 C 1325.63 1.28498 -1.55471 0
M  V30 13895 C 1325.94 1.94214 -0.232412 0
M  V30 13896 O 1327.15 2.70889 -0.182044 0
M  V30 13897 C 1325.6 2.33144 -2.74175 0
M  V30 13898 C 1325.21 1.73508 -4.13036 0
M  V30 13899 C 1326.95 3.09413 -2.90627 0
M  V30 13900 C 1324.86 2.76079 -5.23005 0
M  V30 13901 H 1323.79 0.483253 -0.578777 0
M  V30 13902 H 1326.44 0.562744 -1.74658 0
M  V30 13903 H 1324.82 3.08391 -2.48417 0
M  V30 13904 H 1326 1.04466 -4.48802 0
M  V30 13905 H 1324.31 1.0974 -4.01679 0
M  V30 13906 H 1326.91 3.86056 -3.69953 0
M  V30 13907 H 1327.25 3.65118 -1.99987 0
M  V30 13908 H 1327.79 2.4128 -3.16274 0
M  V30 13909 H 1324.52 2.25197 -6.15602 0
M  V30 13910 H 1324.04 3.43456 -4.9173 0
M  V30 13911 H 1325.72 3.39113 -5.51009 0
M  V30 13912 N 1325.86 1.36875 0.78122 0
M  V30 13913 C 1326.79 1.34559 1.9083 0
M  V30 13914 C 1327.77 0.215713 1.68727 0
M  V30 13915 O 1328.95 0.41462 1.89722 0
M  V30 13916 C 1326.08 1.14233 3.27976 0
M  V30 13917 C 1325.04 2.24132 3.64621 0
M  V30 13918 C 1324.36 1.8894 5.00206 0
M  V30 13919 C 1325.66 3.66266 3.72353 0
M  V30 13920 H 1327.36 2.28871 1.93025 0
M  V30 13921 H 1324.9 1.10171 0.927275 0
M  V30 13922 H 1326.85 1.11246 4.06451 0
M  V30 13923 H 1325.58 0.163747 3.26189 0
M  V30 13924 H 1324.24 2.26259 2.88448 0
M  V30 13925 H 1323.89 0.896351 4.94949 0
M  V30 13926 H 1323.59 2.62525 5.25694 0
M  V30 13927 H 1325.11 1.87523 5.81092 0
M  V30 13928 H 1326.52 3.66321 4.41001 0
M  V30 13929 H 1324.92 4.38825 4.09332 0
M  V30 13930 H 1325.99 4.00578 2.7325 0
M  V30 13931 N 1327.33 -1.00632 1.21289 0
M  V30 13932 C 1328.58 -1.73802 1.02351 0
M  V30 13933 C 1328.9 -1.90503 -0.443611 0
M  V30 13934 O 1330.1 -2.60868 -0.752356 0
M  V30 13935 C 1328.56 -3.12647 1.78269 0
M  V30 13936 C 1328.17 -3.03923 3.29142 0
M  V30 13937 C 1329.91 -3.89956 1.67735 0
M  V30 13938 C 1327.82 -4.3784 3.97556 0
M  V30 13939 H 1326.75 -0.651616 0.379358 0
M  V30 13940 H 1329.4 -1.12446 1.45011 0
M  V30 13941 H 1327.78 -3.74605 1.28401 0
M  V30 13942 H 1328.95 -2.51211 3.86303 0
M  V30 13943 H 1327.27 -2.40103 3.40205 0
M  V30 13944 H 1329.87 -4.89051 2.1618 0
M  V30 13945 H 1330.21 -4.11423 0.635338 0
M  V30 13946 H 1330.74 -3.34647 2.15072 0
M  V30 13947 H 1327.48 -4.21573 5.01952 0
M  V30 13948 H 1327 -4.90518 3.45184 0
M  V30 13949 H 1328.68 -5.06644 4.02393 0
M  V30 13950 N 1328.81 -1.02043 -1.20104 0
M  V30 13951 C 1330.09 -0.626922 -1.85281 0
M  V30 13952 C 1330.47 0.894819 -1.91197 0
M  V30 13953 O 1329.82 1.7881 -1.42265 0
M  V30 13954 C 1330.03 -1.27917 -3.24713 0
M  V30 13955 C 1331.37 -1.39704 -4.00959 0
M  V30 13956 O 1332.4 -1.23568 -3.3408 0
M  V30 13957 O 1331.26 -1.65814 -5.20738 0
M  V30 13958 H 1328.35 -0.216815 -0.798073 0
M  V30 13959 H 1330.9 -1.11804 -1.27663 0
M  V30 13960 H 1329.67 -2.3188 -3.15194 0
M  V30 13961 H 1329.29 -0.775371 -3.89966 0
M  V30 13962 N 1330.29 1.35952 -0.797165 0
M  V30 13963 C 1331.57 1.93335 -0.2968 0
M  V30 13964 C 1331.95 1.72825 1.21222 0
M  V30 13965 O 1331.3 1.09172 2.00733 0
M  V30 13966 C 1331.51 3.41951 -0.697894 0
M  V30 13967 C 1332.85 4.19087 -0.682026 0
M  V30 13968 O 1333.88 3.50424 -0.638849 0
M  V30 13969 O 1332.74 5.41577 -0.73189 0
M  V30 13970 H 1329.83 0.823554 -0.0754223 0
M  V30 13971 H 1332.38 1.45086 -0.88023 0
M  V30 13972 H 1331.15 3.50569 -1.73831 0
M  V30 13973 H 1330.77 3.97501 -0.088764 0
M  V30 13974 N 1331.77 0.549846 1.47697 0
M  V30 13975 C 1332.72 -0.215119 2.31603 0
M  V30 13976 C 1333.71 -0.916441 1.4247 0
M  V30 13977 O 1334.92 -0.838565 1.59274 0
M  V30 13978 H 1331.29 -0.0882441 0.746805 0
M  V30 13979 H 1333.26 0.511847 2.93977 0
M  V30 13980 C 1332.01 -1.23662 3.24966 0
M  V30 13981 H 1331.33 -0.706384 3.9351 0
M  V30 13982 H 1332.77 -1.7429 3.86522 0
M  V30 13983 C 1331.23 -2.28066 2.47967 0
M  V30 13984 O 1331.76 -3.34862 2.21879 0
M  V30 13985 N 1329.97 -2.01799 2.09106 0
M  V30 13986 H 1329.52 -1.14965 2.30523 0
M  V30 13987 H 1329.47 -2.71872 1.57902 0
M  V30 13988 N 1333.25 -1.54984 0.285932 0
M  V30 13989 C 1334.49 -1.9983 -0.327737 0
M  V30 13990 C 1334.82 -1.17435 -1.55046 0
M  V30 13991 O 1334.08 -0.234735 -1.94287 0
M  V30 13992 C 1334.38 -3.49581 -0.7435 0
M  V30 13993 C 1334.04 -4.49331 0.375792 0
M  V30 13994 C 1332.7 -4.76327 0.683103 0
M  V30 13995 C 1335.06 -5.08815 1.12947 0
M  V30 13996 C 1332.38 -5.60071 1.74748 0
M  V30 13997 C 1334.74 -5.93716 2.18366 0
M  V30 13998 C 1333.4 -6.19028 2.4972 0
M  V30 13999 H 1332.67 -0.731231 -0.119928 0
M  V30 14000 H 1335.32 -1.87235 0.401896 0
M  V30 14001 H 1333.62 -3.59708 -1.55298 0
M  V30 14002 H 1335.32 -3.81694 -1.22924 0
M  V30 14003 H 1331.91 -4.28414 0.126159 0
M  V30 14004 H 1336.09 -4.87973 0.905313 0
M  V30 14005 H 1331.35 -5.77925 1.9953 0
M  V30 14006 H 1335.52 -6.38838 2.77233 0
M  V30 14007 H 1333.15 -6.83711 3.3233 0
M  V30 14008 N 1334.72 -0.0133892 -1.57594 0
M  V30 14009 C 1335.96 0.672977 -1.93004 0
M  V30 14010 C 1336.33 1.70188 -0.888816 0
M  V30 14011 O 1337.53 2.4396 -1.12859 0
M  V30 14012 C 1335.8 1.28743 -3.33407 0
M  V30 14013 S 1337.36 1.99706 -3.90721 0
M  V30 14014 H 1334.18 0.221972 -0.675462 0
M  V30 14015 H 1336.78 -0.0732871 -1.95363 0
M  V30 14016 H 1335.48 0.525931 -4.07016 0
M  V30 14017 H 1335.01 2.07134 -3.34454 0
M  V30 14018 H 1337.03 3.27375 -3.72881 0
M  V30 14019 N 1336.2 1.55448 0.259558 0
M  V30 14020 C 1337.43 1.80727 1.00723 0
M  V30 14021 C 1337.85 0.587354 1.79431 0
M  V30 14022 O 1337.2 -0.443819 1.77021 0
M  V30 14023 C 1337.25 3.04064 1.95517 0
M  V30 14024 O 1336.97 4.21346 1.19996 0
M  V30 14025 C 1338.48 3.42049 2.81988 0
M  V30 14026 H 1335.7 0.601713 0.296956 0
M  V30 14027 H 1338.24 2.02486 0.286273 0
M  V30 14028 H 1336.39 2.84392 2.63058 0
M  V30 14029 H 1336.81 4.91164 1.84006 0
M  V30 14030 H 1338.28 4.31485 3.44274 0
M  V30 14031 H 1338.76 2.62059 3.52451 0
M  V30 14032 H 1339.37 3.64027 2.19918 0
M  V30 14033 N 1337.68 -0.524672 1.4861 0
M  V30 14034 C 1338.93 -1.28211 1.5713 0
M  V30 14035 C 1339.26 -1.92626 0.246751 0
M  V30 14036 O 1338.53 -1.79553 -0.747725 0
M  V30 14037 C 1338.82 -2.36737 2.71344 0
M  V30 14038 C 1338.67 -1.76978 4.1352 0
M  V30 14039 C 1339.99 -3.3847 2.81294 0
M  V30 14040 H 1337.11 -0.46479 0.571961 0
M  V30 14041 H 1339.75 -0.583937 1.80804 0
M  V30 14042 H 1337.9 -2.96287 2.51289 0
M  V30 14043 H 1339.57 -1.21438 4.45029 0
M  V30 14044 H 1337.82 -1.07488 4.20272 0
M  V30 14045 H 1338.49 -2.55583 4.89266 0
M  V30 14046 H 1340.96 -2.88882 2.99477 0
M  V30 14047 H 1339.84 -4.11795 3.62928 0
M  V30 14048 H 1340.1 -3.99347 1.89669 0
M  V30 14049 N 1339.16 -1.37287 -0.77395 0
M  V30 14050 C 1340.4 -1.3257 -1.5347 0
M  V30 14051 C 1340.74 0.090346 -1.9399 0
M  V30 14052 O 1340.01 1.04719 -1.63903 0
M  V30 14053 C 1340.3 -2.26277 -2.80126 0
M  V30 14054 C 1340.15 -3.76651 -2.45874 0
M  V30 14055 C 1341.47 -2.18471 -3.82045 0
M  V30 14056 H 1338.59 -0.48289 -0.556764 0
M  V30 14057 H 1341.23 -1.6797 -0.888039 0
M  V30 14058 H 1339.38 -1.96219 -3.35306 0
M  V30 14059 H 1341.05 -4.17296 -1.96626 0
M  V30 14060 H 1339.29 -3.95327 -1.78602 0
M  V30 14061 H 1339.96 -4.3765 -3.36403 0
M  V30 14062 H 1342.44 -2.44962 -3.36352 0
M  V30 14063 H 1341.32 -2.86183 -4.68392 0
M  V30 14064 H 1341.58 -1.17692 -4.26147 0
M  V30 14065 N 1340.64 0.999871 -1.21821 0
M  V30 14066 C 1341.86 1.7794 -1.06546 0
M  V30 14067 C 1342.29 1.84219 0.380115 0
M  V30 14068 O 1341.64 1.28955 1.27438 0
M  V30 14069 C 1341.69 3.1943 -1.67322 0
M  V30 14070 O 1340.8 4.01957 -0.922171 0
M  V30 14071 H 1340.14 0.548204 -0.374658 0
M  V30 14072 H 1342.67 1.2565 -1.61472 0
M  V30 14073 H 1342.68 3.70086 -1.71757 0
M  V30 14074 H 1341.35 3.14175 -2.7252 0
M  V30 14075 H 1339.93 3.60509 -0.95331 0
M  V30 14076 N 1342.11 1.02678 1.19562 0
M  V30 14077 C 1343.08 0.610407 2.20922 0
M  V30 14078 C 1344.08 -0.324858 1.57484 0
M  V30 14079 O 1345.27 -0.112153 1.73839 0
M  V30 14080 C 1342.4 -0.107115 3.40732 0
M  V30 14081 H 1343.59 1.50722 2.59274 0
M  V30 14082 H 1341.15 0.817725 1.33203 0
M  V30 14083 H 1341.88 -1.01837 3.07896 0
M  V30 14084 H 1341.67 0.564901 3.88009 0
M  V30 14085 H 1343.16 -0.385423 4.15818 0
M  V30 14086 N 1343.59 -1.35528 0.804364 0
M  V30 14087 C 1344.84 -1.98084 0.380196 0
M  V30 14088 C 1345.15 -1.64531 -1.05778 0
M  V30 14089 O 1346.36 -2.20435 -1.58495 0
M  V30 14090 C 1344.82 -3.54364 0.628848 0
M  V30 14091 C 1344.42 -3.96828 2.07921 0
M  V30 14092 C 1346.17 -4.23641 0.269927 0
M  V30 14093 C 1344.08 -5.45944 2.27374 0
M  V30 14094 H 1343.01 -0.741185 0.138422 0
M  V30 14095 H 1345.66 -1.54624 0.988107 0
M  V30 14096 H 1344.04 -3.9597 -0.0489837 0
M  V30 14097 H 1345.21 -3.6638 2.79467 0
M  V30 14098 H 1343.53 -3.40433 2.39779 0
M  V30 14099 H 1346.12 -5.33251 0.393344 0
M  V30 14100 H 1346.47 -4.08858 -0.783644 0
M  V30 14101 H 1347 -3.87448 0.901588 0
M  V30 14102 H 1343.74 -5.65693 3.31168 0
M  V30 14103 H 1343.26 -5.77969 1.6035 0
M  V30 14104 H 1344.94 -6.12376 2.08817 0
M  V30 14105 N 1345.07 -0.557671 -1.47404 0
M  V30 14106 C 1346.35 0.031908 -1.95574 0
M  V30 14107 C 1346.73 1.48509 -1.50027 0
M  V30 14108 O 1346.08 2.16209 -0.73932 0
M  V30 14109 C 1346.29 -0.114055 -3.48814 0
M  V30 14110 C 1347.63 0.0310533 -4.24589 0
M  V30 14111 O 1348.66 -0.041626 -3.56176 0
M  V30 14112 O 1347.52 0.187487 -5.46178 0
M  V30 14113 H 1344.61 0.0638747 -0.82453 0
M  V30 14114 H 1347.16 -0.624227 -1.57802 0
M  V30 14115 H 1345.93 -1.12525 -3.74772 0
M  V30 14116 H 1345.55 0.57967 -3.93352 0
M  V30 14117 N 1346.55 1.54831 -0.294147 0
M  V30 14118 C 1347.8 2.00298 0.317605 0
M  V30 14119 C 1348.13 1.18228 1.54064 0
M  V30 14120 O 1347.4 0.257034 1.92794 0
M  V30 14121 C 1347.69 3.53602 0.680991 0
M  V30 14122 C 1347.54 4.46416 -0.550711 0
M  V30 14123 C 1348.86 4.13379 1.51016 0
M  V30 14124 H 1345.98 0.728135 0.113965 0
M  V30 14125 H 1348.62 1.85636 -0.404883 0
M  V30 14126 H 1346.77 3.66227 1.29654 0
M  V30 14127 H 1348.44 4.45707 -1.18922 0
M  V30 14128 H 1346.68 4.17294 -1.18524 0
M  V30 14129 H 1347.36 5.51423 -0.252412 0
M  V30 14130 H 1349.83 4.04148 0.99012 0
M  V30 14131 H 1348.71 5.20818 1.73321 0
M  V30 14132 H 1348.97 3.64817 2.49722 0
M  V30 14133 N 1348.03 0.0217466 1.57585 0
M  V30 14134 C 1349.28 -0.657187 1.91116 0
M  V30 14135 C 1349.6 -1.7309 0.898039 0
M  V30 14136 O 1348.87 -1.95803 -0.0615116 0
M  V30 14137 H 1347.45 -0.245732 0.705425 0
M  V30 14138 H 1350.11 0.0678096 1.94782 0
M  V30 14139 H 1349.2 -1.11462 2.91518 0
M  V30 14140 N 1349.51 -1.55583 -0.251311 0
M  V30 14141 C 1350.92 -1.47908 -0.599606 0
M  V30 14142 C 1351.12 -0.711061 -1.88537 0
M  V30 14143 O 1350.18 -0.238639 -2.5137 0
M  V30 14144 C 1351.49 -2.92284 -0.706429 0
M  V30 14145 C 1353.04 -3.02629 -0.799049 0
M  V30 14146 C 1353.51 -4.48303 -0.93747 0
M  V30 14147 N 1355 -4.52222 -1.00245 0
M  V30 14148 C 1355.74 -5.62181 -1.12874 0
M  V30 14149 N 1355.24 -6.81958 -1.22085 0
M  V30 14150 N 1357.03 -5.49968 -1.16155 0
M  V30 14151 H 1349.18 -2.0396 0.592806 0
M  V30 14152 H 1351.44 -0.925797 0.203971 0
M  V30 14153 H 1351.15 -3.51297 0.168243 0
M  V30 14154 H 1351.02 -3.42524 -1.57979 0
M  V30 14155 H 1353.41 -2.43699 -1.66418 0
M  V30 14156 H 1353.49 -2.55607 0.099367 0
M  V30 14157 H 1353.13 -5.07842 -0.0769166 0
M  V30 14158 H 1353.06 -4.93002 -1.85086 0
M  V30 14159 H 1355.56 -3.65951 -0.94279 0
M  V30 14160 H 1355.87 -7.6151 -1.31616 0
M  V30 14161 H 1354.21 -6.84728 -1.1905 0
M  V30 14162 H 1357.4 -4.55327 -1.08604 0
M  V30 14163 H 1357.58 -6.35701 -1.25653 0
M  V30 14164 N 1350.98 0.516783 -1.48886 0
M  V30 14165 C 1352.21 1.29628 -1.61258 0
M  V30 14166 C 1352.63 1.86744 -0.27786 0
M  V30 14167 O 1351.98 1.67061 0.734639 0
M  V30 14168 C 1352.03 2.43779 -2.66935 0
M  V30 14169 O 1351.76 1.89014 -3.95228 0
M  V30 14170 C 1353.26 3.35398 -2.89867 0
M  V30 14171 H 1350.48 0.393736 -0.543335 0
M  V30 14172 H 1353.02 0.622069 -1.94809 0
M  V30 14173 H 1351.18 3.0706 -2.36206 0
M  V30 14174 H 1351.59 2.63833 -4.53312 0
M  V30 14175 H 1353.06 4.11812 -3.6758 0
M  V30 14176 H 1353.54 3.91436 -1.99185 0
M  V30 14177 H 1354.15 2.77898 -3.21952 0
M  V30 14178 N 1352.46 1.37696 0.766659 0
M  V30 14179 C 1353.71 1.32507 1.52069 0
M  V30 14180 C 1354.02 -0.0864967 1.95409 0
M  V30 14181 O 1355.23 -0.260877 2.70244 0
M  V30 14182 C 1353.69 2.32614 2.74625 0
M  V30 14183 C 1353.29 3.79325 2.38363 0
M  V30 14184 C 1355.04 2.36445 3.52554 0
M  V30 14185 C 1352.94 4.7115 3.57451 0
M  V30 14186 H 1351.87 0.492491 0.570937 0
M  V30 14187 H 1354.53 1.63183 0.839268 0
M  V30 14188 H 1352.91 1.94963 3.44682 0
M  V30 14189 H 1354.08 4.25841 1.76056 0
M  V30 14190 H 1352.4 3.78488 1.73597 0
M  V30 14191 H 1354.99 3.02252 4.41076 0
M  V30 14192 H 1355.34 1.37953 3.92778 0
M  V30 14193 H 1355.87 2.72829 2.89498 0
M  V30 14194 H 1352.61 5.70789 3.22304 0
M  V30 14195 H 1352.13 4.29335 4.18846 0
M  V30 14196 H 1353.81 4.88532 4.242 0
M  V30 14197 N 1353.94 -0.993397 1.22349 0
M  V30 14198 C 1355.19 -1.73287 1.04775 0
M  V30 14199 C 1355.51 -1.89973 -0.417201 0
M  V30 14200 O 1354.77 -1.43966 -1.32561 0
M  V30 14201 C 1355.07 -3.14191 1.70349 0
M  V30 14202 C 1354.73 -3.17421 3.20241 0
M  V30 14203 C 1353.4 -3.1801 3.61141 0
M  V30 14204 C 1355.75 -3.13751 4.16185 0
M  V30 14205 C 1353.08 -3.12628 4.96468 0
M  V30 14206 C 1355.43 -3.09911 5.51487 0
M  V30 14207 C 1354.09 -3.08815 5.91768 0
M  V30 14208 H 1353.36 -0.634102 0.3834 0
M  V30 14209 H 1356.01 -1.16346 1.52105 0
M  V30 14210 H 1354.31 -3.74437 1.15343 0
M  V30 14211 H 1356.01 -3.70149 1.54242 0
M  V30 14212 H 1352.6 -3.17713 2.87674 0
M  V30 14213 H 1356.79 -3.12446 3.85605 0
M  V30 14214 H 1352.04 -3.10125 5.26909 0
M  V30 14215 H 1356.22 -3.06026 6.25556 0
M  V30 14216 H 1353.84 -3.044 6.96595 0
M  V30 14217 N 1355.42 -1.03311 -1.19015 0
M  V30 14218 C 1356.64 -0.751686 -1.93299 0
M  V30 14219 C 1357.07 0.68392 -1.75226 0
M  V30 14220 O 1356.43 1.47274 -1.05736 0
M  V30 14221 C 1356.47 -1.11335 -3.42982 0
M  V30 14222 O 1355.58 -0.234434 -4.11733 0
M  V30 14223 H 1354.92 -0.277331 -0.60331 0
M  V30 14224 H 1357.45 -1.38092 -1.5097 0
M  V30 14225 H 1357.46 -1.07204 -3.93664 0
M  V30 14226 H 1356.13 -2.15922 -3.55458 0
M  V30 14227 H 1354.71 -0.3347 -3.71395 0
M  V30 14228 N 1356.9 1.35099 -0.81154 0
M  V30 14229 C 1357.84 2.31618 -0.213536 0
M  V30 14230 C 1358.84 1.56868 0.63944 0
M  V30 14231 O 1360.04 1.71957 0.532051 0
M  V30 14232 H 1356.42 0.750316 -0.0502963 0
M  V30 14233 H 1358.39 2.79593 -1.04262 0
M  V30 14234 C 1357.14 3.4214 0.619293 0
M  V30 14235 H 1356.46 3.9979 -0.0277192 0
M  V30 14236 H 1357.9 4.11941 1.00401 0
M  V30 14237 C 1356.36 2.85607 1.7869 0
M  V30 14238 O 1356.89 2.7956 2.8846 0
M  V30 14239 N 1355.1 2.42587 1.6 0
M  V30 14240 H 1354.64 2.47705 0.707105 0
M  V30 14241 H 1354.6 2.0511 2.38279 0
M  V30 14242 N 1358.37 0.56548 1.47106 0
M  V30 14243 C 1359.62 0.042333 2.01656 0
M  V30 14244 C 1359.94 -1.31892 1.44443 0
M  V30 14245 O 1361.14 -1.93245 1.90706 0
M  V30 14246 C 1359.6 0.0251556 3.59891 0
M  V30 14247 C 1359.21 1.38367 4.26097 0
M  V30 14248 C 1360.95 -0.44495 4.22162 0
M  V30 14249 C 1358.86 1.32516 5.76362 0
M  V30 14250 H 1357.79 0.0120557 0.753904 0
M  V30 14251 H 1360.44 0.714565 1.69015 0
M  V30 14252 H 1358.82 -0.712893 3.8953 0
M  V30 14253 H 1359.99 2.14009 4.08089 0
M  V30 14254 H 1358.31 1.79239 3.75849 0
M  V30 14255 H 1360.91 -0.507256 5.32288 0
M  V30 14256 H 1361.25 -1.45876 3.89905 0
M  V30 14257 H 1361.78 0.238496 3.97084 0
M  V30 14258 H 1358.52 2.31523 6.13252 0
M  V30 14259 H 1358.04 0.610674 5.96683 0
M  V30 14260 H 1359.72 1.03072 6.38737 0
M  V30 14261 N 1359.85 -1.54672 0.302354 0
M  V30 14262 C 1360.78 -2.21021 -0.606828 0
M  V30 14263 C 1361.8 -1.20337 -1.09648 0
M  V30 14264 O 1362.99 -1.46923 -1.0137 0
M  V30 14265 C 1360.09 -2.84411 -1.84293 0
M  V30 14266 C 1359.26 -4.11038 -1.49554 0
M  V30 14267 C 1358.32 -4.58219 -2.58693 0
M  V30 14268 O 1357.34 -5.23387 -2.23728 0
M  V30 14269 N 1358.55 -4.30651 -3.89256 0
M  V30 14270 H 1361.31 -2.99675 -0.0388221 0
M  V30 14271 H 1358.87 -1.6142 0.124614 0
M  V30 14272 H 1360.86 -3.12906 -2.56655 0
M  V30 14273 H 1359.43 -2.09589 -2.31929 0
M  V30 14274 H 1358.65 -3.89538 -0.604492 0
M  V30 14275 H 1359.94 -4.93488 -1.23884 0
M  V30 14276 H 1359.34 -3.78445 -4.20471 0
M  V30 14277 H 1357.9 -4.63853 -4.57913 0
M  V30 14278 N 1361.33 -0.0301034 -1.57571 0
M  V30 14279 C 1362.28 0.951421 -2.10277 0
M  V30 14280 C 1363.25 1.3224 -1.00508 0
M  V30 14281 O 1364.43 1.41554 -1.27934 0
M  V30 14282 C 1361.57 2.2282 -2.63525 0
M  V30 14283 C 1360.69 1.91359 -3.87306 0
M  V30 14284 C 1359.82 3.13339 -4.28943 0
M  V30 14285 C 1358.86 2.77701 -5.4548 0
M  V30 14286 N 1358 3.9231 -5.82269 0
M  V30 14287 H 1362.84 0.495049 -2.93859 0
M  V30 14288 H 1360.37 0.232756 -1.45247 0
M  V30 14289 H 1362.33 2.97502 -2.92487 0
M  V30 14290 H 1360.96 2.66072 -1.82772 0
M  V30 14291 H 1360.01 1.06915 -3.65066 0
M  V30 14292 H 1361.33 1.61112 -4.72064 0
M  V30 14293 H 1360.48 3.9634 -4.59347 0
M  V30 14294 H 1359.22 3.46747 -3.42954 0
M  V30 14295 H 1358.22 1.93113 -5.14769 0
M  V30 14296 H 1359.45 2.45508 -6.33169 0
M  V30 14297 H 1357.39 4.25559 -4.99235 0
M  V30 14298 H 1357.31 3.65691 -6.61669 0
M  V30 14299 H 1358.58 4.76012 -6.17279 0
M  V30 14300 N 1362.81 1.55714 0.243056 0
M  V30 14301 C 1364.06 1.77726 0.970555 0
M  V30 14302 C 1364.38 0.595108 1.85172 0
M  V30 14303 O 1363.64 -0.42143 1.91108 0
M  V30 14304 C 1363.94 3.05281 1.85845 0
M  V30 14305 C 1363.6 4.36451 1.13232 0
M  V30 14306 C 1362.27 4.72095 0.931656 0
M  V30 14307 C 1364.62 5.17524 0.617944 0
M  V30 14308 C 1361.95 5.86344 0.204373 0
M  V30 14309 C 1364.3 6.32527 -0.0958899 0
M  V30 14310 C 1362.96 6.66789 -0.308 0
M  V30 14311 H 1362.23 0.650345 0.355151 0
M  V30 14312 H 1364.88 1.89986 0.240351 0
M  V30 14313 H 1363.18 2.8805 2.65584 0
M  V30 14314 H 1364.88 3.19511 2.4231 0
M  V30 14315 H 1361.47 4.08451 1.29867 0
M  V30 14316 H 1365.65 4.90439 0.760507 0
M  V30 14317 H 1360.91 6.11393 0.0296 0
M  V30 14318 H 1365.08 6.94588 -0.502077 0
M  V30 14319 H 1362.71 7.55165 -0.873502 0
M  V30 14320 N 1364.29 -0.50888 1.49158 0
M  V30 14321 C 1365.53 -1.26537 1.58481 0
M  V30 14322 C 1365.87 -1.92353 0.267168 0
M  V30 14323 O 1365.14 -1.80336 -0.728639 0
M  V30 14324 C 1365.42 -2.33846 2.73839 0
M  V30 14325 C 1365.28 -1.72582 4.15374 0
M  V30 14326 C 1366.6 -3.35467 2.84868 0
M  V30 14327 H 1363.71 -0.458697 0.576859 0
M  V30 14328 H 1366.36 -0.564728 1.81413 0
M  V30 14329 H 1364.51 -2.93605 2.54417 0
M  V30 14330 H 1366.18 -1.16711 4.46292 0
M  V30 14331 H 1364.42 -1.03025 4.21389 0
M  V30 14332 H 1365.09 -2.5038 4.91949 0
M  V30 14333 H 1367.57 -2.85689 3.02524 0
M  V30 14334 H 1366.44 -4.07922 3.67275 0
M  V30 14335 H 1366.71 -3.97313 1.93894 0
M  V30 14336 N 1365.76 -1.381 -0.759346 0
M  V30 14337 C 1367 -1.35402 -1.5312 0
M  V30 14338 C 1367.37 0.0574616 -1.91914 0
M  V30 14339 O 1368.57 0.20927 -2.67984 0
M  V30 14340 C 1366.84 -2.27793 -2.754 0
M  V30 14341 S 1368.4 -2.43061 -3.65331 0
M  V30 14342 H 1365.22 -0.480503 -0.524059 0
M  V30 14343 H 1367.82 -1.7397 -0.891886 0
M  V30 14344 H 1366.52 -3.29247 -2.45 0
M  V30 14345 H 1366.05 -1.90353 -3.44281 0
M  V30 14346 H 1368.07 -1.6504 -4.67949 0
M  V30 14347 N 1367.24 0.986894 -1.22875 0
M  V30 14348 C 1368.49 1.72729 -1.05693 0
M  V30 14349 C 1368.82 1.90191 0.407121 0
M  V30 14350 O 1368.07 1.44667 1.31796 0
M  V30 14351 C 1368.37 3.13283 -1.72012 0
M  V30 14352 C 1368.04 3.15719 -3.2192 0
M  V30 14353 C 1366.7 3.1609 -3.62823 0
M  V30 14354 C 1369.05 3.11539 -4.17843 0
M  V30 14355 C 1366.38 3.09991 -4.98119 0
M  V30 14356 C 1368.73 3.06982 -5.53123 0
M  V30 14357 C 1367.4 3.05672 -5.93397 0
M  V30 14358 H 1366.67 0.63206 -0.386758 0
M  V30 14359 H 1369.31 1.15538 -1.52719 0
M  V30 14360 H 1367.62 3.7382 -1.17327 0
M  V30 14361 H 1369.31 3.69326 -1.56203 0
M  V30 14362 H 1365.9 3.16183 -2.89355 0
M  V30 14363 H 1370.09 3.10397 -3.87256 0
M  V30 14364 H 1365.34 3.07326 -5.28546 0
M  V30 14365 H 1369.52 3.02705 -6.27171 0
M  V30 14366 H 1367.15 3.00701 -6.982 0
M  V30 14367 N 1368.72 1.0394 1.18466 0
M  V30 14368 C 1369.65 0.650182 2.24265 0
M  V30 14369 C 1370.63 -0.345968 1.66545 0
M  V30 14370 O 1371.82 -0.226348 1.92876 0
M  V30 14371 C 1368.95 0.0110451 3.47298 0
M  V30 14372 C 1367.9 0.930599 4.17761 0
M  V30 14373 C 1367.23 0.156005 5.34472 0
M  V30 14374 C 1368.53 2.24913 4.71393 0
M  V30 14375 H 1370.22 1.53465 2.57078 0
M  V30 14376 H 1367.77 0.739343 1.23571 0
M  V30 14377 H 1369.72 -0.272959 4.20515 0
M  V30 14378 H 1368.44 -0.908288 3.13716 0
M  V30 14379 H 1367.1 1.19897 3.4644 0
M  V30 14380 H 1366.75 -0.765695 4.97138 0
M  V30 14381 H 1366.45 0.768606 5.82551 0
M  V30 14382 H 1367.97 -0.121011 6.1048 0
M  V30 14383 H 1369.39 2.02592 5.36311 0
M  V30 14384 H 1367.79 2.81459 5.30001 0
M  V30 14385 H 1368.86 2.8965 3.88884 0
M  V30 14386 N 1370.2 -1.34667 0.818693 0
M  V30 14387 C 1371.13 -2.32134 0.252239 0
M  V30 14388 C 1372.11 -1.58044 -0.628982 0
M  V30 14389 O 1373.29 -1.86049 -0.55674 0
M  V30 14390 C 1370.42 -3.42249 -0.590183 0
M  V30 14391 C 1369.38 -4.27562 0.193547 0
M  V30 14392 C 1368.7 -5.29107 -0.771349 0
M  V30 14393 C 1370 -5.03205 1.39936 0
M  V30 14394 H 1371.7 -2.79758 1.06657 0
M  V30 14395 H 1369.24 -1.34502 0.514325 0
M  V30 14396 H 1371.2 -4.09445 -0.996616 0
M  V30 14397 H 1369.92 -2.93262 -1.43752 0
M  V30 14398 H 1368.58 -3.61962 0.581297 0
M  V30 14399 H 1368.23 -4.76384 -1.61453 0
M  V30 14400 H 1367.93 -5.87063 -0.251201 0
M  V30 14401 H 1369.45 -5.99174 -1.17573 0
M  V30 14402 H 1370.87 -5.6328 1.06717 0
M  V30 14403 H 1369.26 -5.70715 1.85485 0
M  V30 14404 H 1370.33 -4.33145 2.17976 0
M  V30 14405 N 1371.68 -0.573274 -1.46804 0
M  V30 14406 C 1372.92 -0.0551522 -2.02025 0
M  V30 14407 C 1373.25 1.30577 -1.44826 0
M  V30 14408 O 1372.52 1.85514 -0.629403 0
M  V30 14409 H 1371.1 -0.0173982 -0.746797 0
M  V30 14410 H 1373.76 -0.746919 -1.8002 0
M  V30 14411 H 1372.85 0.0209326 -3.12093 0
M  V30 14412 N 1373.15 1.5451 -0.310553 0
M  V30 14413 C 1374.38 2.04739 0.29824 0
M  V30 14414 C 1374.8 1.18737 1.46788 0
M  V30 14415 O 1374.15 0.215114 1.81228 0
M  V30 14416 C 1374.21 3.53734 0.745274 0
M  V30 14417 O 1373.93 4.36468 -0.377826 0
M  V30 14418 C 1375.43 4.20001 1.41823 0
M  V30 14419 H 1372.65 0.667997 0.0634159 0
M  V30 14420 H 1375.19 1.9942 -0.452961 0
M  V30 14421 H 1373.35 3.59383 1.44648 0
M  V30 14422 H 1373.76 5.24492 -0.0280567 0
M  V30 14423 H 1375.23 5.25747 1.68209 0
M  V30 14424 H 1375.71 3.70319 2.36137 0
M  V30 14425 H 1376.32 4.18455 0.759951 0
M  V30 14426 N 1374.63 0.0384594 1.57553 0
M  V30 14427 C 1375.58 -0.958199 2.11946 0
M  V30 14428 C 1376.58 -1.33073 1.04823 0
M  V30 14429 O 1377.78 -1.31187 1.23247 0
M  V30 14430 H 1374.16 -0.326819 0.677269 0
M  V30 14431 H 1376.13 -0.474211 2.94608 0
M  V30 14432 C 1374.88 -2.22821 2.6692 0
M  V30 14433 H 1374.2 -1.95032 3.49002 0
M  V30 14434 H 1375.64 -2.90746 3.08614 0
M  V30 14435 C 1374.1 -2.96429 1.60098 0
M  V30 14436 O 1374.63 -3.88892 1.00628 0
M  V30 14437 N 1372.83 -2.58931 1.3192 0
M  V30 14438 H 1372.38 -1.83818 1.80468 0
M  V30 14439 H 1372.34 -3.0849 0.60674 0
M  V30 14440 N 1376.11 -1.55841 -0.234795 0
M  V30 14441 C 1377.36 -1.77438 -0.959094 0
M  V30 14442 C 1377.67 -0.604621 -1.86021 0
M  V30 14443 O 1378.88 -0.703897 -2.62217 0
M  V30 14444 C 1377.34 -3.14182 -1.7555 0
M  V30 14445 C 1376.94 -4.38843 -0.90118 0
M  V30 14446 C 1378.69 -3.45112 -2.47181 0
M  V30 14447 C 1376.59 -5.66614 -1.69417 0
M  V30 14448 H 1375.52 -0.661503 -0.361843 0
M  V30 14449 H 1378.18 -1.82255 -0.213364 0
M  V30 14450 H 1376.56 -3.03505 -2.54364 0
M  V30 14451 H 1377.73 -4.60541 -0.154515 0
M  V30 14452 H 1376.05 -4.15335 -0.297631 0
M  V30 14453 H 1378.64 -4.37794 -3.06986 0
M  V30 14454 H 1378.99 -2.66995 -3.19405 0
M  V30 14455 H 1379.52 -3.57059 -1.75368 0
M  V30 14456 H 1376.26 -6.47587 -1.01545 0
M  V30 14457 H 1375.78 -5.48998 -2.4158 0
M  V30 14458 H 1377.46 -6.06311 -2.25824 0
M  V30 14459 N 1377.59 0.500963 -1.49426 0
M  V30 14460 C 1378.84 1.25261 -1.58601 0
M  V30 14461 C 1379.16 1.93056 -0.274647 0
M  V30 14462 O 1378.43 1.82736 0.706003 0
M  V30 14463 H 1377.01 0.465328 -0.584362 0
M  V30 14464 H 1379.67 0.580588 -1.86052 0
M  V30 14465 H 1378.77 2.01652 -2.38208 0
M  V30 14466 N 1379.07 1.38501 0.752011 0
M  V30 14467 C 1379.98 1.38094 1.8965 0
M  V30 14468 C 1380.99 0.277851 1.71767 0
M  V30 14469 O 1382.17 0.516536 1.94663 0
M  V30 14470 C 1379.23 1.2063 3.25037 0
M  V30 14471 C 1378.3 2.40758 3.55435 0
M  V30 14472 C 1377.53 2.24118 4.84362 0
M  V30 14473 O 1377.75 1.23571 5.56854 0
M  V30 14474 O 1376.69 3.12741 5.14273 0
M  V30 14475 H 1380.51 2.34532 1.92947 0
M  V30 14476 H 1378.1 1.19437 0.897504 0
M  V30 14477 H 1379.98 1.12957 4.05979 0
M  V30 14478 H 1378.65 0.272785 3.22549 0
M  V30 14479 H 1377.56 2.54006 2.74648 0
M  V30 14480 H 1378.89 3.32745 3.62686 0
M  V30 14481 N 1380.55 -0.980364 1.23396 0
M  V30 14482 C 1381.79 -1.71592 1.06015 0
M  V30 14483 C 1382.11 -1.91401 -0.403103 0
M  V30 14484 O 1383.31 -2.62405 -0.696853 0
M  V30 14485 C 1381.77 -3.08795 1.84861 0
M  V30 14486 C 1381.38 -2.96873 3.35515 0
M  V30 14487 C 1383.12 -3.8631 1.75968 0
M  V30 14488 C 1381.03 -4.29308 4.06753 0
M  V30 14489 H 1379.96 -0.643423 0.393095 0
M  V30 14490 H 1382.61 -1.09345 1.47363 0
M  V30 14491 H 1380.99 -3.71797 1.36318 0
M  V30 14492 H 1382.17 -2.4296 3.91544 0
M  V30 14493 H 1380.48 -2.32833 3.45221 0
M  V30 14494 H 1383.08 -4.84355 2.26504 0
M  V30 14495 H 1383.42 -4.09983 0.722464 0
M  V30 14496 H 1383.95 -3.3001 2.22122 0
M  V30 14497 H 1380.69 -4.10831 5.10782 0
M  V30 14498 H 1380.21 -4.83086 3.55511 0
M  V30 14499 H 1381.89 -4.97995 4.1305 0
M  V30 14500 N 1382.02 -1.04567 -1.17913 0
M  V30 14501 C 1383.27 -0.747179 -1.8735 0
M  V30 14502 C 1383.59 0.728274 -1.81537 0
M  V30 14503 O 1384.79 1.14048 -2.46385 0
M  V30 14504 C 1383.25 -1.28629 -3.36129 0
M  V30 14505 C 1382.86 -2.79073 -3.5046 0
M  V30 14506 C 1384.6 -1.06455 -4.10935 0
M  V30 14507 C 1382.51 -3.26316 -4.93226 0
M  V30 14508 H 1381.44 -0.275807 -0.701745 0
M  V30 14509 H 1384.09 -1.26215 -1.33199 0
M  V30 14510 H 1382.47 -0.699151 -3.89779 0
M  V30 14511 H 1383.64 -3.43587 -3.07057 0
M  V30 14512 H 1381.96 -2.99716 -2.89066 0
M  V30 14513 H 1384.56 -1.3926 -5.16247 0
M  V30 14514 H 1384.9 -0.00201298 -4.163 0
M  V30 14515 H 1385.43 -1.61656 -3.63472 0
M  V30 14516 H 1382.17 -4.31972 -4.93032 0
M  V30 14517 H 1381.69 -2.6654 -5.37323 0
M  V30 14518 H 1383.37 -3.2063 -5.61966 0
M  V30 14519 N 1383.5 1.34231 -0.825823 0
M  V30 14520 C 1384.73 2.02124 -0.427727 0
M  V30 14521 C 1385.14 1.62331 0.971869 0
M  V30 14522 O 1384.48 0.825946 1.64085 0
M  V30 14523 C 1384.54 3.56626 -0.453698 0
M  V30 14524 C 1384.21 4.19752 -1.80713 0
M  V30 14525 C 1385.21 4.40062 -2.76842 0
M  V30 14526 C 1382.89 4.5646 -2.09641 0
M  V30 14527 C 1384.88 4.9621 -4.00069 0
M  V30 14528 C 1382.57 5.12318 -3.33127 0
M  V30 14529 C 1383.57 5.32137 -4.28158 0
M  V30 14530 O 1383.26 5.86811 -5.49462 0
M  V30 14531 H 1382.99 0.654389 -0.169563 0
M  V30 14532 H 1385.54 1.72421 -1.11624 0
M  V30 14533 H 1383.77 3.856 0.291527 0
M  V30 14534 H 1385.46 4.0583 -0.075249 0
M  V30 14535 H 1386.23 4.12064 -2.5579 0
M  V30 14536 H 1382.11 4.40337 -1.36473 0
M  V30 14537 H 1385.65 5.11594 -4.74254 0
M  V30 14538 H 1381.55 5.39746 -3.54041 0
M  V30 14539 H 1382.32 6.05242 -5.51022 0
M  V30 14540 N 1384.98 0.581051 1.46498 0
M  V30 14541 C 1385.91 -0.140957 2.33074 0
M  V30 14542 C 1386.89 -0.885323 1.45245 0
M  V30 14543 O 1388.08 -0.86111 1.74065 0
M  V30 14544 C 1385.21 -1.15625 3.27488 0
M  V30 14545 C 1384.16 -0.526829 4.24745 0
M  V30 14546 C 1383.49 -1.64847 5.08655 0
M  V30 14547 C 1384.79 0.53492 5.19554 0
M  V30 14548 H 1386.48 0.581888 2.93691 0
M  V30 14549 H 1384.03 0.281278 1.41226 0
M  V30 14550 H 1385.98 -1.6697 3.8691 0
M  V30 14551 H 1384.7 -1.90935 2.64974 0
M  V30 14552 H 1383.36 -0.0344738 3.66584 0
M  V30 14553 H 1383.01 -2.3912 4.42528 0
M  V30 14554 H 1382.71 -1.23298 5.74518 0
M  V30 14555 H 1384.23 -2.16472 5.7094 0
M  V30 14556 H 1385.65 0.106606 5.73201 0
M  V30 14557 H 1384.04 0.870639 5.93751 0
M  V30 14558 H 1385.11 1.42184 4.63586 0
M  V30 14559 N 1386.46 -1.54343 0.318742 0
M  V30 14560 C 1387.68 -2.05361 -0.290126 0
M  V30 14561 C 1388.11 -1.19362 -1.45376 0
M  V30 14562 O 1387.47 -0.201639 -1.80175 0
M  V30 14563 C 1387.51 -3.53601 -0.707025 0
M  V30 14564 O 1386.62 -3.70561 -1.80992 0
M  V30 14565 H 1385.96 -0.661858 -0.0532933 0
M  V30 14566 H 1388.49 -1.99228 0.46575 0
M  V30 14567 H 1388.5 -3.95782 -0.991005 0
M  V30 14568 H 1387.17 -4.1565 0.144091 0
M  V30 14569 H 1385.75 -3.40286 -1.52513 0
M  V30 14570 N 1387.94 -0.0468143 -1.5753 0
M  V30 14571 C 1389.18 0.628869 -1.92803 0
M  V30 14572 C 1389.51 1.70751 -0.925083 0
M  V30 14573 O 1388.79 1.94437 0.0495821 0
M  V30 14574 C 1389.07 1.22899 -3.38479 0
M  V30 14575 C 1388.93 0.158707 -4.4952 0
M  V30 14576 C 1390.24 2.1419 -3.84461 0
M  V30 14577 H 1387.36 0.227137 -0.701126 0
M  V30 14578 H 1390.01 -0.107689 -1.89695 0
M  V30 14579 H 1388.16 1.85674 -3.41259 0
M  V30 14580 H 1389.83 -0.472963 -4.58869 0
M  V30 14581 H 1388.07 -0.51375 -4.30747 0
M  V30 14582 H 1388.74 0.618545 -5.48523 0
M  V30 14583 H 1391.22 1.61382 -3.8353 0
M  V30 14584 H 1390.09 2.53125 -4.87051 0
M  V30 14585 H 1390.35 3.04024 -3.2097 0
M  V30 14586 N 1389.41 1.55964 0.226527 0
M  V30 14587 C 1390.38 1.91184 1.26418 0
M  V30 14588 C 1391.38 0.789982 1.40057 0
M  V30 14589 O 1392.57 1.05778 1.38407 0
M  V30 14590 C 1389.7 2.15826 2.63878 0
M  V30 14591 H 1390.89 2.83986 0.963956 0
M  V30 14592 H 1388.45 1.49169 0.466726 0
M  V30 14593 H 1389.18 1.2556 2.99007 0
M  V30 14594 H 1388.97 2.97549 2.55356 0
M  V30 14595 H 1390.46 2.44188 3.38765 0
M  V30 14596 N 1390.89 -0.493031 1.4969 0
M  V30 14597 C 1392.14 -1.2433 1.58823 0
M  V30 14598 C 1392.45 -1.9353 0.283823 0
M  V30 14599 O 1393.66 -2.70311 0.253801 0
M  V30 14600 C 1392.12 -2.25792 2.8026 0
M  V30 14601 C 1391.72 -1.62496 4.17491 0
M  V30 14602 C 1393.47 -3.01598 2.98729 0
M  V30 14603 C 1391.38 -2.62115 5.30141 0
M  V30 14604 H 1390.31 -0.467738 0.591386 0
M  V30 14605 H 1392.96 -0.516238 1.76089 0
M  V30 14606 H 1391.34 -3.01696 2.56506 0
M  V30 14607 H 1392.51 -0.925305 4.51414 0
M  V30 14608 H 1390.83 -0.990516 4.04447 0
M  V30 14609 H 1393.42 -3.76111 3.80058 0
M  V30 14610 H 1393.77 -3.59687 2.09597 0
M  V30 14611 H 1394.3 -2.32809 3.2256 0
M  V30 14612 H 1391.04 -2.08797 6.21357 0
M  V30 14613 H 1390.56 -3.30298 5.00663 0
M  V30 14614 H 1392.24 -3.24385 5.59807 0
M  V30 14615 N 1392.37 -1.38898 -0.744656 0
M  V30 14616 C 1393.62 -1.35795 -1.50623 0
M  V30 14617 C 1393.95 0.0491775 -1.94138 0
M  V30 14618 O 1393.22 1.01219 -1.66087 0
M  V30 14619 C 1393.51 -2.32168 -2.75263 0
M  V30 14620 C 1393.36 -3.81781 -2.3783 0
M  V30 14621 C 1394.68 -2.26526 -3.77325 0
M  V30 14622 H 1391.8 -0.494591 -0.546396 0
M  V30 14623 H 1394.44 -1.69816 -0.852211 0
M  V30 14624 H 1392.59 -2.03287 -3.31069 0
M  V30 14625 H 1394.26 -4.21373 -1.8773 0
M  V30 14626 H 1392.51 -3.99027 -1.70176 0
M  V30 14627 H 1393.18 -4.44687 -3.27044 0
M  V30 14628 H 1395.65 -2.52041 -3.31081 0
M  V30 14629 H 1394.53 -2.96053 -4.62216 0
M  V30 14630 H 1394.79 -1.26705 -4.23554 0
M  V30 14631 N 1393.85 0.973806 -1.23914 0
M  V30 14632 C 1394.81 2.04892 -1.02723 0
M  V30 14633 C 1395.81 1.60795 0.0132972 0
M  V30 14634 O 1397 1.72714 -0.227084 0
M  V30 14635 C 1394.13 3.36341 -0.555667 0
M  V30 14636 H 1395.33 2.25124 -1.98139 0
M  V30 14637 H 1392.88 1.14817 -1.06051 0
M  V30 14638 H 1393.61 3.21799 0.40197 0
M  V30 14639 H 1393.4 3.69689 -1.30661 0
M  V30 14640 H 1394.89 4.15398 -0.428248 0
M  V30 14641 N 1395.33 1.05191 1.17357 0
M  V30 14642 C 1396.26 0.610878 2.20909 0
M  V30 14643 C 1397.27 -0.325369 1.59515 0
M  V30 14644 O 1398.46 -0.118104 1.78109 0
M  V30 14645 C 1395.56 -0.126086 3.38665 0
M  V30 14646 C 1394.73 0.820857 4.29629 0
M  V30 14647 C 1393.79 0.125154 5.26051 0
M  V30 14648 O 1392.82 0.759245 5.64114 0
M  V30 14649 N 1394.02 -1.13742 5.69248 0
M  V30 14650 H 1396.79 1.50158 2.5937 0
M  V30 14651 H 1394.35 0.933814 1.32256 0
M  V30 14652 H 1396.34 -0.601627 4.00203 0
M  V30 14653 H 1394.91 -0.918459 2.98803 0
M  V30 14654 H 1394.13 1.47602 3.65523 0
M  V30 14655 H 1395.42 1.46363 4.87294 0
M  V30 14656 H 1394.81 -1.67291 5.40398 0
M  V30 14657 H 1393.37 -1.55703 6.3293 0
M  V30 14658 N 1396.8 -1.33791 0.83293 0
M  V30 14659 C 1397.74 -2.27259 0.207019 0
M  V30 14660 C 1398.72 -1.49372 -0.642403 0
M  V30 14661 O 1399.9 -1.78562 -0.603963 0
M  V30 14662 C 1397.03 -3.31177 -0.709885 0
M  V30 14663 C 1396.07 -4.26453 0.0633036 0
M  V30 14664 S 1396.91 -5.16406 1.41721 0
M  V30 14665 C 1398.06 -6.23856 0.505446 0
M  V30 14666 H 1398.29 -2.79998 0.999422 0
M  V30 14667 H 1395.83 -1.40991 0.629361 0
M  V30 14668 H 1397.79 -3.91535 -1.23332 0
M  V30 14669 H 1396.45 -2.77265 -1.4759 0
M  V30 14670 H 1395.64 -4.99995 -0.634145 0
M  V30 14671 H 1395.24 -3.70401 0.517607 0
M  V30 14672 H 1397.53 -6.7684 -0.299066 0
M  V30 14673 H 1398.48 -6.97671 1.21084 0
M  V30 14674 H 1398.88 -5.64429 0.0894308 0
M  V30 14675 N 1398.28 -0.588812 -1.46187 0
M  V30 14676 C 1399.69 -0.163897 -1.85979 0
M  V30 14677 C 1400.04 1.27458 -1.49161 0
M  V30 14678 O 1399.17 1.96365 -0.909372 0
M  V30 14679 C 1399.76 -0.29067 -3.37551 0
M  V30 14680 C 1398.32 0.0794165 -3.76316 0
M  V30 14681 C 1397.47 -0.623807 -2.70192 0
M  V30 14682 H 1400.42 -0.79666 -1.37255 0
M  V30 14683 H 1400.44 0.482316 -3.77431 0
M  V30 14684 H 1399.95 -1.33771 -3.64317 0
M  V30 14685 H 1398.06 1.12636 -3.55168 0
M  V30 14686 H 1398.17 -0.301153 -4.78153 0
M  V30 14687 H 1396.53 -0.0634124 -2.54621 0
M  V30 14688 H 1397.32 -1.67261 -2.99797 0
M  V30 14689 N 1399.76 1.54172 -0.326923 0
M  V30 14690 C 1401.01 2.00629 0.274641 0
M  V30 14691 C 1401.34 1.21505 1.51878 0
M  V30 14692 O 1400.59 0.286164 1.93596 0
M  V30 14693 C 1400.89 3.51429 0.650553 0
M  V30 14694 C 1400.56 4.48177 -0.494792 0
M  V30 14695 C 1399.22 4.74348 -0.809153 0
M  V30 14696 C 1401.57 5.05641 -1.26398 0
M  V30 14697 C 1398.9 5.55241 -1.89536 0
M  V30 14698 C 1401.25 5.87718 -2.34031 0
M  V30 14699 C 1399.91 6.1219 -2.66045 0
M  V30 14700 H 1399.18 0.734153 0.100498 0
M  V30 14701 H 1401.83 1.86104 -0.451397 0
M  V30 14702 H 1400.14 3.63699 1.45706 0
M  V30 14703 H 1401.83 3.84819 1.12761 0
M  V30 14704 H 1398.42 4.27929 -0.239701 0
M  V30 14705 H 1402.61 4.85401 -1.03437 0
M  V30 14706 H 1397.86 5.72432 -2.14783 0
M  V30 14707 H 1402.04 6.31264 -2.94074 0
M  V30 14708 H 1399.66 6.7466 -3.5034 0
M  V30 14709 N 1401.24 0.0551678 1.57503 0
M  V30 14710 C 1402.65 -0.479948 1.80426 0
M  V30 14711 C 1403 -1.70673 0.967733 0
M  V30 14712 O 1402.13 -2.15604 0.185462 0
M  V30 14713 C 1402.72 -0.877496 3.27239 0
M  V30 14714 C 1401.28 -1.35757 3.51066 0
M  V30 14715 C 1400.43 -0.334681 2.75273 0
M  V30 14716 H 1403.38 0.281016 1.56192 0
M  V30 14717 H 1403.4 -1.74013 3.38378 0
M  V30 14718 H 1402.91 0.015571 3.88097 0
M  V30 14719 H 1401.01 -2.26969 2.95492 0
M  V30 14720 H 1401.12 -1.34697 4.59776 0
M  V30 14721 H 1399.49 -0.808421 2.4153 0
M  V30 14722 H 1400.27 0.550369 3.3886 0
M  V30 14723 N 1402.72 -1.56081 -0.218252 0
M  V30 14724 C 1403.65 -1.95706 -1.27364 0
M  V30 14725 C 1404.63 -0.825731 -1.48713 0
M  V30 14726 O 1405.81 -1.08829 -1.60841 0
M  V30 14727 C 1402.94 -2.2766 -2.62275 0
M  V30 14728 C 1401.9 -3.43314 -2.55576 0
M  V30 14729 C 1401.22 -3.60883 -3.94547 0
M  V30 14730 C 1402.52 -4.7819 -2.10075 0
M  V30 14731 H 1404.22 -2.84113 -0.944459 0
M  V30 14732 H 1401.76 -1.36693 -0.452882 0
M  V30 14733 H 1403.72 -2.53973 -3.36268 0
M  V30 14734 H 1402.44 -1.3611 -2.96887 0
M  V30 14735 H 1401.1 -3.17056 -1.8404 0
M  V30 14736 H 1400.75 -2.66703 -4.26472 0
M  V30 14737 H 1400.45 -4.38674 -3.90946 0
M  V30 14738 H 1401.97 -3.89547 -4.70197 0
M  V30 14739 H 1403.38 -5.03686 -2.73813 0
M  V30 14740 H 1401.78 -5.59287 -2.17527 0
M  V30 14741 H 1402.85 -4.73325 -1.05314 0
M  V30 14742 N 1404.2 0.485086 -1.49949 0
M  V30 14743 C 1405.11 1.61089 -1.70551 0
M  V30 14744 C 1406.12 1.63752 -0.588333 0
M  V30 14745 O 1407.3 1.81879 -0.86498 0
M  V30 14746 C 1404.36 2.97382 -1.78227 0
M  V30 14747 C 1403.42 3.05219 -3.01894 0
M  V30 14748 C 1402.66 4.35011 -3.09195 0
M  V30 14749 O 1402.88 5.24722 -2.23658 0
M  V30 14750 O 1401.81 4.48151 -4.01802 0
M  V30 14751 H 1405.64 1.46633 -2.65956 0
M  V30 14752 H 1403.22 0.663091 -1.33879 0
M  V30 14753 H 1405.11 3.78356 -1.85538 0
M  V30 14754 H 1403.78 3.12066 -0.860043 0
M  V30 14755 H 1402.69 2.23373 -3.00092 0
M  V30 14756 H 1404.02 2.95467 -3.93649 0
M  V30 14757 N 1405.67 1.39291 0.737279 0
M  V30 14758 C 1406.64 1.37607 1.83294 0
M  V30 14759 C 1407.64 0.273594 1.58455 0
M  V30 14760 O 1408.83 0.531375 1.65898 0
M  V30 14761 C 1405.96 1.14642 3.21045 0
M  V30 14762 H 1407.15 2.35102 1.86191 0
M  V30 14763 H 1404.7 1.24822 0.940696 0
M  V30 14764 H 1405.44 0.178202 3.2381 0
M  V30 14765 H 1405.22 1.94479 3.40471 0
M  V30 14766 H 1406.71 1.162 4.01108 0
M  V30 14767 N 1407.15 -0.967221 1.24429 0
M  V30 14768 C 1408.08 -2.07966 1.06172 0
M  V30 14769 C 1409.06 -1.70081 -0.0254566 0
M  V30 14770 O 1410.25 -1.93682 0.141705 0
M  V30 14771 C 1407.38 -3.4085 0.666251 0
M  V30 14772 C 1406.33 -3.92692 1.70225 0
M  V30 14773 C 1405.66 -5.21925 1.16183 0
M  V30 14774 C 1406.96 -4.20478 3.09831 0
M  V30 14775 H 1408.65 -2.23497 1.99222 0
M  V30 14776 H 1406.2 -1.07398 0.959255 0
M  V30 14777 H 1408.15 -4.1811 0.52552 0
M  V30 14778 H 1406.87 -3.2522 -0.299939 0
M  V30 14779 H 1405.53 -3.17588 1.83121 0
M  V30 14780 H 1405.18 -5.02655 0.186237 0
M  V30 14781 H 1404.88 -5.57579 1.85416 0
M  V30 14782 H 1406.41 -6.01795 1.03323 0
M  V30 14783 H 1407.82 -4.88442 3.00162 0
M  V30 14784 H 1406.22 -4.67362 3.7642 0
M  V30 14785 H 1407.29 -3.27235 3.57834 0
M  V30 14786 N 1408.63 -1.05812 -1.16797 0
M  V30 14787 C 1409.56 -0.622584 -2.20582 0
M  V30 14788 C 1410.57 0.316905 -1.59686 0
M  V30 14789 O 1411.76 0.108657 -1.78169 0
M  V30 14790 C 1408.86 0.108124 -3.38727 0
M  V30 14791 C 1408.04 -0.84363 -4.29187 0
M  V30 14792 C 1407.1 -0.15305 -5.25977 0
M  V30 14793 O 1406.12 -0.78915 -5.63703 0
M  V30 14794 N 1407.32 1.10721 -5.69843 0
M  V30 14795 H 1410.09 -1.51532 -2.5857 0
M  V30 14796 H 1407.65 -0.940815 -1.31758 0
M  V30 14797 H 1409.64 0.580395 -4.00517 0
M  V30 14798 H 1408.21 0.902599 -2.99286 0
M  V30 14799 H 1407.43 -1.49538 -3.64735 0
M  V30 14800 H 1408.72 -1.48946 -4.86511 0
M  V30 14801 H 1408.12 1.64423 -5.41278 0
M  V30 14802 H 1406.67 1.52344 -6.33746 0
M  V30 14803 N 1410.11 1.33347 -0.840014 0
M  V30 14804 C 1411.36 1.97007 -0.432581 0
M  V30 14805 C 1411.67 1.67278 1.01378 0
M  V30 14806 O 1412.88 2.2456 1.52595 0
M  V30 14807 C 1411.33 3.52572 -0.72258 0
M  V30 14808 C 1410.94 3.91176 -2.1837 0
M  V30 14809 C 1412.68 4.22776 -0.382153 0
M  V30 14810 C 1410.59 5.39724 -2.41768 0
M  V30 14811 H 1409.52 0.737255 -0.158024 0
M  V30 14812 H 1412.17 1.5195 -1.02876 0
M  V30 14813 H 1410.55 3.9596 -0.0560179 0
M  V30 14814 H 1411.73 3.58842 -2.89083 0
M  V30 14815 H 1410.04 3.33956 -2.48721 0
M  V30 14816 H 1412.64 5.32021 -0.534588 0
M  V30 14817 H 1412.98 4.10792 0.674967 0
M  V30 14818 H 1413.52 3.84922 -1.004 0
M  V30 14819 H 1410.25 5.56713 -3.4605 0
M  V30 14820 H 1409.77 5.73514 -1.75617 0
M  V30 14821 H 1411.45 6.06624 -2.2498 0
M  V30 14822 N 1411.59 0.596556 1.45873 0
M  V30 14823 C 1412.52 -0.116229 2.33211 0
M  V30 14824 C 1413.5 -0.869868 1.46176 0
M  V30 14825 O 1414.68 -0.842599 1.74968 0
M  V30 14826 C 1411.81 -1.12145 3.28696 0
M  V30 14827 C 1410.77 -0.481749 4.2528 0
M  V30 14828 C 1410.09 -1.59443 5.10374 0
M  V30 14829 C 1411.39 0.589996 5.18957 0
M  V30 14830 H 1413.09 0.613005 2.93057 0
M  V30 14831 H 1410.63 0.296242 1.4092 0
M  V30 14832 H 1412.58 -1.62857 3.88659 0
M  V30 14833 H 1411.31 -1.88114 2.66985 0
M  V30 14834 H 1409.97 0.0044092 3.666 0
M  V30 14835 H 1409.62 -2.34413 4.45039 0
M  V30 14836 H 1409.32 -1.17197 5.75794 0
M  V30 14837 H 1410.84 -2.10404 5.73204 0
M  V30 14838 H 1412.25 0.167395 5.73056 0
M  V30 14839 H 1410.65 0.933565 5.92794 0
M  V30 14840 H 1411.72 1.47093 4.62052 0
M  V30 14841 N 1413.06 -1.53996 0.335095 0
M  V30 14842 C 1414.31 -2.00772 -0.263997 0
M  V30 14843 C 1414.64 -1.22309 -1.51231 0
M  V30 14844 O 1413.89 -0.296427 -1.93442 0
M  V30 14845 C 1414.19 -3.51769 -0.631907 0
M  V30 14846 C 1413.86 -4.47908 0.518553 0
M  V30 14847 C 1412.52 -4.73912 0.834297 0
M  V30 14848 C 1414.87 -5.04964 1.29078 0
M  V30 14849 C 1412.2 -5.54228 1.92478 0
M  V30 14850 C 1414.55 -5.86469 2.37144 0
M  V30 14851 C 1413.22 -6.1077 2.69288 0
M  V30 14852 H 1412.49 -0.734676 -0.0966033 0
M  V30 14853 H 1415.13 -1.85862 0.46126 0
M  V30 14854 H 1413.44 -3.64466 -1.43776 0
M  V30 14855 H 1415.14 -3.85412 -1.10719 0
M  V30 14856 H 1411.73 -4.27796 0.262392 0
M  V30 14857 H 1415.91 -4.84846 1.0601 0
M  V30 14858 H 1411.17 -5.71285 2.17816 0
M  V30 14859 H 1415.34 -6.29695 2.97417 0
M  V30 14860 H 1412.97 -6.72792 3.53913 0
M  V30 14861 N 1414.54 -0.0635198 -1.57472 0
M  V30 14862 C 1415.47 0.90431 -2.15278 0
M  V30 14863 C 1416.45 1.31609 -1.07764 0
M  V30 14864 O 1417.64 1.38861 -1.35762 0
M  V30 14865 C 1414.77 2.17483 -2.70774 0
M  V30 14866 C 1413.72 1.90272 -3.8338 0
M  V30 14867 C 1413.05 3.23885 -4.25444 0
M  V30 14868 C 1414.35 1.21454 -5.07983 0
M  V30 14869 H 1416.04 0.422786 -2.964 0
M  V30 14870 H 1413.59 0.201918 -1.42577 0
M  V30 14871 H 1415.54 2.856 -3.09856 0
M  V30 14872 H 1414.26 2.67863 -1.86861 0
M  V30 14873 H 1412.92 1.24564 -3.44789 0
M  V30 14874 H 1412.57 3.72089 -3.38465 0
M  V30 14875 H 1412.27 3.06472 -5.01347 0
M  V30 14876 H 1413.8 3.93212 -4.67137 0
M  V30 14877 H 1415.21 1.79625 -5.44433 0
M  V30 14878 H 1413.61 1.14327 -5.89109 0
M  V30 14879 H 1414.68 0.19238 -4.84518 0
M  V30 14880 N 1416.02 1.56195 0.209972 0
M  V30 14881 C 1416.97 1.94226 1.27981 0
M  V30 14882 C 1417.96 0.825742 1.47912 0
M  V30 14883 O 1419.17 1.01066 1.48949 0
M  V30 14884 H 1415.54 0.617395 0.429333 0
M  V30 14885 H 1417.51 2.83474 0.931946 0
M  V30 14886 C 1416.26 2.28527 2.62051 0
M  V30 14887 H 1415.59 3.1396 2.47526 0
M  V30 14888 H 1417.03 2.59012 3.35692 0
M  V30 14889 C 1415.48 1.11452 3.17931 0
M  V30 14890 O 1416.01 0.381713 3.99882 0
M  V30 14891 N 1414.22 0.895263 2.76466 0
M  V30 14892 H 1413.77 1.4929 2.09929 0
M  V30 14893 H 1413.73 0.113688 3.14194 0
M  V30 14894 N 1417.5 -0.477127 1.50204 0
M  V30 14895 C 1418.43 -1.58405 1.71552 0
M  V30 14896 C 1419.41 -1.60463 0.564413 0
M  V30 14897 O 1420.59 -1.76826 0.802893 0
M  V30 14898 C 1417.72 -2.96765 1.8041 0
M  V30 14899 C 1416.68 -3.09573 2.95548 0
M  V30 14900 C 1416 -4.49522 2.89542 0
M  V30 14901 C 1417.3 -2.87356 4.36147 0
M  V30 14902 H 1419 -1.40792 2.64231 0
M  V30 14903 H 1416.54 -0.675886 1.27153 0
M  V30 14904 H 1418.5 -3.74125 1.9393 0
M  V30 14905 H 1417.22 -3.1552 0.843489 0
M  V30 14906 H 1415.88 -2.34645 2.81669 0
M  V30 14907 H 1415.53 -4.65186 1.91339 0
M  V30 14908 H 1415.23 -4.59028 3.66834 0
M  V30 14909 H 1416.75 -5.28909 3.05102 0
M  V30 14910 H 1418.17 -3.54469 4.50583 0
M  V30 14911 H 1416.56 -3.08313 5.14843 0
M  V30 14912 H 1417.63 -1.83264 4.48935 0
M  V30 14913 N 1418.98 -1.3968 -0.729882 0
M  V30 14914 C 1419.91 -1.33201 -1.85291 0
M  V30 14915 C 1420.89 -0.204787 -1.61305 0
M  V30 14916 O 1422.07 -0.386087 -1.84504 0
M  V30 14917 C 1419.2 -1.06955 -3.21369 0
M  V30 14918 C 1418.24 -2.21937 -3.64207 0
M  V30 14919 S 1419.08 -3.84249 -3.72979 0
M  V30 14920 C 1420.23 -3.60239 -5.11839 0
M  V30 14921 H 1420.47 -2.28244 -1.90504 0
M  V30 14922 H 1418 -1.25796 -0.895252 0
M  V30 14923 H 1419.96 -0.924975 -3.99943 0
M  V30 14924 H 1418.62 -0.135902 -3.13806 0
M  V30 14925 H 1417.81 -1.99179 -4.62973 0
M  V30 14926 H 1417.41 -2.32624 -2.92852 0
M  V30 14927 H 1419.71 -3.17821 -5.98328 0
M  V30 14928 H 1420.65 -4.58485 -5.39627 0
M  V30 14929 H 1421.06 -2.94229 -4.81757 0
M  V30 14930 N 1420.45 0.960609 -1.2494 0
M  V30 14931 C 1421.68 1.73928 -1.12057 0
M  V30 14932 C 1422.1 1.8596 0.32623 0
M  V30 14933 O 1421.45 1.35303 1.22472 0
M  V30 14934 C 1421.51 3.15614 -1.76267 0
M  V30 14935 O 1421.23 3.04177 -3.15291 0
M  V30 14936 C 1422.73 4.09786 -1.69086 0
M  V30 14937 H 1419.95 0.5452 -0.39115 0
M  V30 14938 H 1422.49 1.20556 -1.65186 0
M  V30 14939 H 1420.65 3.65949 -1.27123 0
M  V30 14940 H 1421.06 3.93513 -3.46768 0
M  V30 14941 H 1422.53 5.06835 -2.18683 0
M  V30 14942 H 1423.01 4.34312 -0.653453 0
M  V30 14943 H 1423.62 3.65365 -2.1769 0
M  V30 14944 N 1421.93 1.0643 1.16234 0
M  V30 14945 C 1423.21 0.695256 1.82827 0
M  V30 14946 C 1423.59 -0.823242 1.94386 0
M  V30 14947 O 1422.94 -1.73406 1.48804 0
M  V30 14948 C 1423.15 1.3988 3.19741 0
M  V30 14949 C 1424.5 1.54489 3.95498 0
M  V30 14950 O 1425.52 1.35882 3.29264 0
M  V30 14951 O 1424.38 1.85027 5.14225 0
M  V30 14952 H 1421.47 0.246285 0.789476 0
M  V30 14953 H 1424.02 1.16466 1.23426 0
M  V30 14954 H 1422.79 2.43419 3.06371 0
M  V30 14955 H 1422.41 0.91957 3.8682 0
M  V30 14956 N 1423.41 -1.329 0.847073 0
M  V30 14957 C 1424.66 -1.9712 0.445872 0
M  V30 14958 C 1424.98 -1.67398 -1.00014 0
M  V30 14959 O 1424.25 -0.977204 -1.69787 0
M  V30 14960 H 1422.83 -0.729247 0.161887 0
M  V30 14961 H 1425.49 -1.62118 1.08184 0
M  V30 14962 H 1424.59 -3.06575 0.584676 0
M  V30 14963 N 1424.89 -0.604284 -1.45555 0
M  V30 14964 C 1426.13 -0.101149 -2.0415 0
M  V30 14965 C 1426.49 1.24348 -1.46292 0
M  V30 14966 O 1427.69 1.83714 -1.9622 0
M  V30 14967 C 1425.96 -0.0589898 -3.57351 0
M  V30 14968 S 1427.52 0.383434 -4.37122 0
M  V30 14969 H 1424.34 -0.0479603 -0.709381 0
M  V30 14970 H 1426.94 -0.801643 -1.78309 0
M  V30 14971 H 1425.65 -1.04119 -3.96973 0
M  V30 14972 H 1425.18 0.663601 -3.87763 0
M  V30 14973 H 1427.19 1.63367 -4.68536 0
M  V30 14974 N 1426.37 1.53816 -0.343257 0
M  V30 14975 C 1427.78 1.86169 0.140709 0
M  V30 14976 C 1428.13 1.26449 1.50017 0
M  V30 14977 O 1427.25 0.577955 2.08539 0
M  V30 14978 C 1427.85 3.37785 0.262097 0
M  V30 14979 C 1426.41 3.70016 0.690294 0
M  V30 14980 C 1425.55 2.7674 -0.17614 0
M  V30 14981 H 1428.51 1.48383 -0.562863 0
M  V30 14982 H 1428.53 3.64564 1.08964 0
M  V30 14983 H 1428.04 3.81221 -0.727481 0
M  V30 14984 H 1426.14 3.32124 1.68891 0
M  V30 14985 H 1426.25 4.76686 0.480388 0
M  V30 14986 H 1424.62 2.52263 0.351476 0
M  V30 14987 H 1425.4 3.23006 -1.16285 0
M  V30 14988 N 1427.84 0.0718701 1.57436 0
M  V30 14989 C 1428.81 -0.880671 2.11605 0
M  V30 14990 C 1429.81 -1.22632 1.0401 0
M  V30 14991 O 1431 -1.15958 1.29997 0
M  V30 14992 C 1428.13 -2.18407 2.61746 0
M  V30 14993 H 1429.32 -0.410712 2.97074 0
M  V30 14994 H 1426.88 -0.176836 1.55296 0
M  V30 14995 H 1427.61 -2.6994 1.79731 0
M  V30 14996 H 1427.4 -1.94616 3.40392 0
M  V30 14997 H 1428.89 -2.86596 3.03731 0
M  V30 14998 N 1429.32 -1.56304 -0.201686 0
M  V30 14999 C 1430.57 -1.80504 -0.92446 0
M  V30 15000 C 1430.9 -0.644832 -1.83182 0
M  V30 15001 O 1430.18 0.354963 -1.91234 0
M  V30 15002 C 1430.46 -3.14919 -1.74636 0
M  V30 15003 C 1430.31 -4.41421 -0.864169 0
M  V30 15004 C 1431.63 -3.45962 -2.72026 0
M  V30 15005 H 1428.75 -0.656643 -0.334648 0
M  V30 15006 H 1431.39 -1.89025 -0.192188 0
M  V30 15007 H 1429.54 -3.07785 -2.37066 0
M  V30 15008 H 1431.21 -4.60594 -0.255084 0
M  V30 15009 H 1429.46 -4.33465 -0.170548 0
M  V30 15010 H 1430.13 -5.31954 -1.47409 0
M  V30 15011 H 1432.6 -3.53353 -2.1973 0
M  V30 15012 H 1431.48 -4.41146 -3.26622 0
M  V30 15013 H 1431.74 -2.69124 -3.50749 0
M  V30 15014 N 1430.8 0.469154 -1.50455 0
M  V30 15015 C 1431.76 1.5493 -1.68906 0
M  V30 15016 C 1432.76 1.50744 -0.559721 0
M  V30 15017 O 1433.95 1.5333 -0.826781 0
M  V30 15018 C 1431.09 2.94556 -1.71609 0
M  V30 15019 H 1432.28 1.39887 -2.65276 0
M  V30 15020 H 1429.83 0.695667 -1.39965 0
M  V30 15021 H 1430.57 3.15041 -0.769382 0
M  V30 15022 H 1430.35 2.99002 -2.53654 0
M  V30 15023 H 1431.84 3.72973 -1.87831 0
M  V30 15024 N 1432.28 1.40065 0.722464 0
M  V30 15025 C 1433.21 1.42532 1.84951 0
M  V30 15026 C 1434.19 0.287082 1.6766 0
M  V30 15027 O 1435.37 0.494715 1.87793 0
M  V30 15028 C 1432.5 1.28041 3.22836 0
M  V30 15029 C 1431.46 2.39396 3.54787 0
M  V30 15030 C 1430.78 2.09986 4.91742 0
M  V30 15031 C 1432.08 3.81729 3.56483 0
M  V30 15032 H 1433.78 2.36851 1.83144 0
M  V30 15033 H 1431.32 1.14005 0.879714 0
M  V30 15034 H 1433.28 1.28385 4.01367 0
M  V30 15035 H 1432 0.301947 3.25201 0
M  V30 15036 H 1430.66 2.3829 2.78592 0
M  V30 15037 H 1430.31 1.10547 4.90702 0
M  V30 15038 H 1430.01 2.84586 5.14086 0
M  V30 15039 H 1431.53 2.12 5.72615 0
M  V30 15040 H 1432.95 3.84696 4.25067 0
M  V30 15041 H 1431.34 4.55791 3.90351 0
M  V30 15042 H 1432.41 4.11807 2.56014 0
M  V30 15043 N 1433.76 -0.95397 1.25448 0
M  V30 15044 C 1434.98 -1.73863 1.13077 0
M  V30 15045 C 1435.41 -1.85503 -0.311481 0
M  V30 15046 O 1434.77 -1.33596 -1.22564 0
M  V30 15047 C 1434.81 -3.13 1.79062 0
M  V30 15048 O 1433.92 -3.98258 1.07072 0
M  V30 15049 H 1433.26 -0.533921 0.394746 0
M  V30 15050 H 1435.79 -1.19571 1.66024 0
M  V30 15051 H 1435.8 -3.63456 1.85374 0
M  V30 15052 H 1434.47 -3.03844 2.83992 0
M  V30 15053 H 1433.05 -3.56722 1.08645 0
M  V30 15054 N 1435.24 -1.07045 -1.15668 0
M  V30 15055 C 1436.65 -0.795369 -1.38369 0
M  V30 15056 C 1436.85 0.601829 -1.92303 0
M  V30 15057 O 1435.91 1.36109 -2.12675 0
M  V30 15058 C 1437.22 -1.86659 -2.35752 0
M  V30 15059 C 1438.77 -1.89098 -2.49421 0
M  V30 15060 C 1439.24 -2.95296 -3.50092 0
M  V30 15061 N 1440.73 -2.94378 -3.57625 0
M  V30 15062 C 1441.47 -3.73194 -4.35331 0
M  V30 15063 N 1440.97 -4.61851 -5.16397 0
M  V30 15064 N 1442.76 -3.61554 -4.30389 0
M  V30 15065 H 1434.91 -1.97162 -0.790004 0
M  V30 15066 H 1437.17 -0.854816 -0.40987 0
M  V30 15067 H 1436.88 -2.87036 -2.03232 0
M  V30 15068 H 1436.75 -1.72406 -3.35494 0
M  V30 15069 H 1439.14 -0.893752 -2.8124 0
M  V30 15070 H 1439.22 -2.07429 -1.49689 0
M  V30 15071 H 1438.86 -3.95217 -3.19008 0
M  V30 15072 H 1438.79 -2.74212 -4.49572 0
M  V30 15073 H 1441.29 -2.3011 -2.99763 0
M  V30 15074 H 1441.6 -5.18629 -5.72926 0
M  V30 15075 H 1439.94 -4.65902 -5.15714 0
M  V30 15076 H 1443.13 -2.91672 -3.66122 0
M  V30 15077 H 1443.31 -4.23221 -4.90701 0
M  V30 15078 N 1436.71 1.32449 -0.85411 0
M  V30 15079 C 1437.62 2.32658 -0.301221 0
M  V30 15080 C 1438.64 1.64025 0.580673 0
M  V30 15081 O 1439.82 1.95568 0.481172 0
M  V30 15082 C 1436.88 3.43049 0.501803 0
M  V30 15083 C 1435.94 4.27374 -0.406166 0
M  V30 15084 C 1435.17 5.32494 0.358627 0
M  V30 15085 O 1435.4 5.4783 1.58865 0
M  V30 15086 O 1434.33 6.0127 -0.275291 0
M  V30 15087 H 1438.16 2.81838 -1.13143 0
M  V30 15088 H 1435.74 1.36063 -0.617032 0
M  V30 15089 H 1437.62 4.10375 0.957608 0
M  V30 15090 H 1436.3 2.9606 1.30882 0
M  V30 15091 H 1435.21 3.6286 -0.910136 0
M  V30 15092 H 1436.54 4.77887 -1.17835 0
M  V30 15093 N 1438.19 0.611994 1.45232 0
M  V30 15094 C 1439.6 0.193464 1.85695 0
M  V30 15095 C 1439.95 -1.25069 1.5117 0
M  V30 15096 O 1439.08 -1.94894 0.940497 0
M  V30 15097 C 1439.67 0.344334 3.37046 0
M  V30 15098 C 1438.23 -0.0195378 3.76395 0
M  V30 15099 C 1437.38 0.666714 2.69166 0
M  V30 15100 H 1440.33 0.818395 1.35971 0
M  V30 15101 H 1440.35 -0.422209 3.7815 0
M  V30 15102 H 1439.86 1.3955 3.62143 0
M  V30 15103 H 1437.96 -1.06971 3.56915 0
M  V30 15104 H 1438.08 0.377184 4.77613 0
M  V30 15105 H 1436.44 0.103912 2.54488 0
M  V30 15106 H 1437.22 1.7201 2.97099 0
M  V30 15107 N 1439.67 -1.53632 0.351409 0
M  V30 15108 C 1441.08 -1.86241 -0.130834 0
M  V30 15109 C 1441.43 -1.27243 -1.49344 0
M  V30 15110 O 1440.56 -0.589006 -2.0823 0
M  V30 15111 C 1441.15 -3.37919 -0.244179 0
M  V30 15112 C 1439.71 -3.70377 -0.670662 0
M  V30 15113 C 1438.86 -2.76643 0.190813 0
M  V30 15114 H 1441.81 -1.48083 0.570724 0
M  V30 15115 H 1441.83 -3.65137 -1.07029 0
M  V30 15116 H 1441.34 -3.8083 0.747688 0
M  V30 15117 H 1439.44 -3.33015 -1.67127 0
M  V30 15118 H 1439.56 -4.76934 -0.455102 0
M  V30 15119 H 1437.92 -2.52446 -0.338092 0
M  V30 15120 H 1438.7 -3.22385 1.17996 0
M  V30 15121 N 1441.15 -0.0802183 -1.57396 0
M  V30 15122 C 1442.1 0.901668 -2.14412 0
M  V30 15123 C 1443.09 1.30247 -1.08314 0
M  V30 15124 O 1444.3 1.27873 -1.26682 0
M  V30 15125 H 1440.67 0.308748 -0.685696 0
M  V30 15126 H 1442.64 0.395934 -2.95762 0
M  V30 15127 C 1441.39 2.15665 -2.72734 0
M  V30 15128 H 1440.71 1.8571 -3.54051 0
M  V30 15129 H 1442.15 2.82461 -3.16214 0
M  V30 15130 C 1440.61 2.9208 -1.67901 0
M  V30 15131 O 1441.14 3.86087 -1.10903 0
M  V30 15132 N 1439.35 2.55343 -1.38739 0
M  V30 15133 H 1438.9 1.78969 -1.85278 0
M  V30 15134 H 1438.85 3.06773 -0.688317 0
M  V30 15135 N 1442.63 1.56409 0.193394 0
M  V30 15136 C 1443.9 1.71559 0.93951 0
M  V30 15137 C 1444.28 0.635478 2.01308 0
M  V30 15138 O 1443.63 -0.353267 2.25753 0
M  V30 15139 C 1443.84 3.13948 1.52438 0
M  V30 15140 C 1445.19 3.74234 2.00585 0
M  V30 15141 O 1446.21 3.17088 1.62277 0
M  V30 15142 O 1445.07 4.74529 2.71081 0
M  V30 15143 H 1442.17 0.69979 0.440707 0
M  V30 15144 H 1444.71 1.68711 0.182957 0
M  V30 15145 H 1443.48 3.84033 0.750613 0
M  V30 15146 H 1443.11 3.21032 2.34572 0
M  V30 15147 N 1444.1 -0.461169 1.50702 0
M  V30 15148 C 1445.38 -1.22225 1.52711 0
M  V30 15149 C 1445.76 -2.09268 0.27749 0
M  V30 15150 O 1445.11 -2.16232 -0.738642 0
M  V30 15151 C 1445.32 -2.04472 2.82829 0
M  V30 15152 C 1446.67 -2.62326 3.33872 0
M  V30 15153 O 1447.69 -2.14706 2.84218 0
M  V30 15154 O 1446.55 -3.49116 4.20453 0
M  V30 15155 H 1443.64 -0.555168 0.612958 0
M  V30 15156 H 1446.19 -0.47218 1.62999 0
M  V30 15157 H 1444.96 -1.40392 3.65247 0
M  V30 15158 H 1444.58 -2.86593 2.75591 0
M  V30 15159 N 1445.58 -1.40446 -0.715026 0
M  V30 15160 C 1446.53 -1.40931 -1.85044 0
M  V30 15161 C 1447.52 -0.289745 -1.66904 0
M  V30 15162 O 1448.73 -0.460809 -1.74002 0
M  V30 15163 H 1445.1 -0.440534 -0.609454 0
M  V30 15164 H 1447.08 -2.36662 -1.81752 0
M  V30 15165 C 1445.82 -1.28933 -3.22911 0
M  V30 15166 H 1445.15 -2.14359 -3.37476 0
M  V30 15167 H 1446.59 -1.33331 -4.02491 0
M  V30 15168 C 1445.05 0.000379936 -3.369 0
M  V30 15169 O 1445.58 0.963093 -3.89984 0
M  V30 15170 N 1443.78 0.0700649 -2.90516 0
M  V30 15171 H 1443.33 -0.714088 -2.47505 0
M  V30 15172 H 1443.29 0.932457 -3.00254 0
M  V30 15173 N 1447.06 0.947303 -1.25952 0
M  V30 15174 C 1447.99 2.04485 -1.01297 0
M  V30 15175 C 1448.97 1.62488 0.06024 0
M  V30 15176 O 1450.15 1.88326 -0.0809237 0
M  V30 15177 C 1447.28 3.34484 -0.532733 0
M  V30 15178 C 1446.33 3.95449 -1.59758 0
M  V30 15179 S 1447.16 4.30498 -3.18484 0
M  V30 15180 C 1448.32 5.63605 -2.72213 0
M  V30 15181 H 1448.55 2.25084 -1.94228 0
M  V30 15182 H 1446.08 1.0879 -1.09564 0
M  V30 15183 H 1448.04 4.09661 -0.262309 0
M  V30 15184 H 1446.7 3.11839 0.376192 0
M  V30 15185 H 1445.89 4.892 -1.21243 0
M  V30 15186 H 1445.5 3.26781 -1.81907 0
M  V30 15187 H 1447.79 6.42046 -2.16295 0
M  V30 15188 H 1448.73 6.07 -3.64633 0
M  V30 15189 H 1449.14 5.2319 -2.11974 0
M  V30 15190 N 1448.54 1.07657 1.15099 0
M  V30 15191 C 1449.49 0.699678 2.19939 0
M  V30 15192 C 1450.46 -0.310432 1.63173 0
M  V30 15193 O 1451.64 -0.196177 1.89789 0
M  V30 15194 C 1448.78 0.106963 3.44934 0
M  V30 15195 C 1447.89 1.16892 4.15885 0
M  V30 15196 C 1447.03 0.540884 5.28439 0
M  V30 15197 C 1446.07 1.58542 5.91211 0
M  V30 15198 N 1445.2 0.979731 6.95231 0
M  V30 15199 H 1450.04 1.59805 2.51528 0
M  V30 15200 H 1447.58 0.798746 1.23525 0
M  V30 15201 H 1449.54 -0.254335 4.16424 0
M  V30 15202 H 1448.17 -0.754756 3.13852 0
M  V30 15203 H 1447.22 1.64775 3.4286 0
M  V30 15204 H 1448.53 1.96078 4.58645 0
M  V30 15205 H 1447.69 0.127397 6.06566 0
M  V30 15206 H 1446.43 -0.282708 4.8688 0
M  V30 15207 H 1445.43 2.00865 5.11794 0
M  V30 15208 H 1446.66 2.41135 6.34847 0
M  V30 15209 H 1444.6 0.177098 6.55761 0
M  V30 15210 H 1444.52 1.70878 7.36435 0
M  V30 15211 H 1445.79 0.591849 7.7725 0
M  V30 15212 N 1450.02 -1.31994 0.861122 0
M  V30 15213 C 1451.24 -2.01211 0.481865 0
M  V30 15214 C 1451.66 -1.64687 -0.923233 0
M  V30 15215 O 1451.02 -0.87151 -1.60346 0
M  V30 15216 C 1451.07 -3.56162 0.618919 0
M  V30 15217 O 1450.79 -3.91376 1.96868 0
M  V30 15218 C 1452.29 -4.42652 0.239514 0
M  V30 15219 H 1449.51 -0.643922 0.188693 0
M  V30 15220 H 1452.05 -1.68427 1.15985 0
M  V30 15221 H 1450.21 -3.87398 -0.0114042 0
M  V30 15222 H 1450.62 -4.86095 1.97008 0
M  V30 15223 H 1452.1 -5.50646 0.386394 0
M  V30 15224 H 1452.57 -4.31466 -0.820598 0
M  V30 15225 H 1453.18 -4.16818 0.845175 0
M  V30 15226 N 1451.49 -0.619688 -1.44906 0
M  V30 15227 C 1452.91 -0.203309 -1.8559 0
M  V30 15228 C 1453.26 1.24265 -1.51831 0
M  V30 15229 O 1452.38 1.94392 -0.950819 0
M  V30 15230 C 1452.98 -0.362204 -3.36858 0
M  V30 15231 C 1451.54 -0.000423575 -3.764 0
M  V30 15232 C 1450.68 -0.680979 -2.68808 0
M  V30 15233 H 1453.63 -0.825595 -1.35535 0
M  V30 15234 H 1453.65 0.402149 -3.78369 0
M  V30 15235 H 1453.17 -1.41468 -3.61398 0
M  V30 15236 H 1451.27 1.05077 -3.57477 0
M  V30 15237 H 1451.38 -0.402508 -4.77406 0
M  V30 15238 H 1449.74 -0.117407 -2.54429 0
M  V30 15239 H 1450.53 -1.73583 -2.96182 0
M  V30 15240 N 1452.97 1.53444 -0.359552 0
M  V30 15241 C 1454.38 1.86308 0.120955 0
M  V30 15242 C 1454.73 1.28033 1.48667 0
M  V30 15243 O 1453.86 0.600041 2.07915 0
M  V30 15244 C 1454.45 3.38044 0.226255 0
M  V30 15245 C 1453.01 3.70727 0.65101 0
M  V30 15246 C 1452.16 2.76538 -0.205482 0
M  V30 15247 H 1455.11 1.47778 -0.578569 0
M  V30 15248 H 1455.13 3.65699 1.05092 0
M  V30 15249 H 1454.64 3.80428 -0.767874 0
M  V30 15250 H 1452.75 3.33897 1.65359 0
M  V30 15251 H 1452.86 4.77168 0.429802 0
M  V30 15252 H 1451.22 2.52622 0.3247 0
M  V30 15253 H 1452.01 3.21754 -1.19704 0
M  V30 15254 N 1454.45 0.0885642 1.57351 0
M  V30 15255 C 1455.87 -0.268088 1.57332 0
M  V30 15256 C 1456.07 -1.68875 1.09924 0
M  V30 15257 O 1455.12 -2.40385 0.772729 0
M  V30 15258 C 1456.44 -0.0624654 3.00635 0
M  V30 15259 C 1457.98 -0.130717 3.12727 0
M  V30 15260 C 1458.46 0.0468305 4.57976 0
M  V30 15261 N 1459.95 -0.00822093 4.63199 0
M  V30 15262 C 1460.68 0.104497 5.73305 0
M  V30 15263 N 1460.18 0.271682 6.92267 0
M  V30 15264 N 1461.97 0.0462333 5.62081 0
M  V30 15265 H 1454.12 1.01686 1.86477 0
M  V30 15266 H 1456.39 0.397971 0.86042 0
M  V30 15267 H 1456.09 0.918505 3.39494 0
M  V30 15268 H 1455.97 -0.807602 3.68453 0
M  V30 15269 H 1458.35 -1.10219 2.73744 0
M  V30 15270 H 1458.44 0.645801 2.47514 0
M  V30 15271 H 1458.08 1.01514 4.97652 0
M  V30 15272 H 1458.01 -0.7493 5.21242 0
M  V30 15273 H 1460.5 -0.135164 3.77658 0
M  V30 15274 H 1460.81 0.349381 7.7201 0
M  V30 15275 H 1459.16 0.307265 6.9432 0
M  V30 15276 H 1462.35 -0.0831995 4.68026 0
M  V30 15277 H 1462.52 0.137529 6.47854 0
M  V30 15278 N 1455.93 -1.56509 -0.185096 0
M  V30 15279 C 1457.34 -1.71024 -0.748856 0
M  V30 15280 C 1457.69 -0.69681 -1.83409 0
M  V30 15281 O 1456.82 0.144711 -2.15916 0
M  V30 15282 C 1457.41 -3.1008 -1.36513 0
M  V30 15283 C 1455.97 -3.26325 -1.87587 0
M  V30 15284 C 1455.12 -2.66977 -0.749579 0
M  V30 15285 H 1458.07 -1.58649 0.0401175 0
M  V30 15286 H 1458.09 -3.07965 -2.23468 0
M  V30 15287 H 1457.6 -3.83816 -0.575051 0
M  V30 15288 H 1455.7 -2.57522 -2.69283 0
M  V30 15289 H 1455.81 -4.33931 -2.03078 0
M  V30 15290 H 1454.18 -2.26419 -1.16647 0
M  V30 15291 H 1454.96 -3.43288 0.0284301 0
M  V30 15292 N 1457.41 0.45317 -1.50944 0
M  V30 15293 C 1458.35 1.54885 -1.71112 0
M  V30 15294 C 1459.32 1.56639 -0.552566 0
M  V30 15295 O 1460.51 1.73894 -0.785203 0
M  V30 15296 C 1457.65 2.92729 -1.82766 0
M  V30 15297 C 1456.76 3.00626 -3.10239 0
M  V30 15298 C 1455.9 4.29495 -3.12582 0
M  V30 15299 C 1454.94 4.312 -4.34434 0
M  V30 15300 N 1454.07 5.51568 -4.34415 0
M  V30 15301 H 1458.91 1.36992 -2.64645 0
M  V30 15302 H 1456.45 0.665753 -1.31172 0
M  V30 15303 H 1458.41 3.7269 -1.87505 0
M  V30 15304 H 1457.04 3.09216 -0.926561 0
M  V30 15305 H 1456.09 2.13426 -3.14886 0
M  V30 15306 H 1457.4 2.97746 -4.00186 0
M  V30 15307 H 1456.56 5.17817 -3.16149 0
M  V30 15308 H 1455.29 4.35009 -2.20496 0
M  V30 15309 H 1454.3 3.41272 -4.3106 0
M  V30 15310 H 1455.52 4.27363 -5.27767 0
M  V30 15311 H 1453.47 5.57834 -3.45192 0
M  V30 15312 H 1453.39 5.50504 -5.18152 0
M  V30 15313 H 1454.66 6.41966 -4.42153 0
M  V30 15314 N 1458.88 1.40823 0.707568 0
M  V30 15315 C 1459.83 1.41724 1.82162 0
M  V30 15316 C 1460.8 0.273135 1.63839 0
M  V30 15317 O 1461.99 0.472399 1.84859 0
M  V30 15318 C 1459.13 1.29347 3.19943 0
M  V30 15319 C 1458.24 2.53529 3.49782 0
M  V30 15320 C 1457.37 2.33533 4.77112 0
M  V30 15321 C 1456.41 3.53252 4.9988 0
M  V30 15322 N 1455.55 3.32401 6.18429 0
M  V30 15323 H 1460.39 2.36943 1.80726 0
M  V30 15324 H 1457.93 1.17671 0.882723 0
M  V30 15325 H 1459.89 1.20175 3.99517 0
M  V30 15326 H 1458.52 0.377426 3.20586 0
M  V30 15327 H 1457.57 2.73198 2.64702 0
M  V30 15328 H 1458.88 3.42617 3.62512 0
M  V30 15329 H 1458.03 2.2176 5.64719 0
M  V30 15330 H 1456.77 1.41883 4.66605 0
M  V30 15331 H 1455.78 3.65492 4.10725 0
M  V30 15332 H 1457 4.4584 5.12253 0
M  V30 15333 H 1454.95 2.4344 6.09158 0
M  V30 15334 H 1454.87 4.15059 6.31872 0
M  V30 15335 H 1456.13 3.24377 7.08802 0
M  V30 15336 N 1460.36 -0.94061 1.26453 0
M  V30 15337 C 1461.29 -2.04322 1.03852 0
M  V30 15338 C 1462.31 -1.628 -0.00122618 0
M  V30 15339 O 1463.5 -1.76894 0.238911 0
M  V30 15340 C 1460.6 -3.34394 0.550789 0
M  V30 15341 C 1459.77 -4.0468 1.6599 0
M  V30 15342 C 1458.83 -5.13025 1.17012 0
M  V30 15343 O 1457.85 -5.37699 1.8673 0
M  V30 15344 N 1459.06 -5.80497 0.0188478 0
M  V30 15345 H 1461.82 -2.24276 1.98797 0
M  V30 15346 H 1459.38 -1.11013 1.17846 0
M  V30 15347 H 1461.37 -4.04169 0.207305 0
M  V30 15348 H 1459.94 -3.11108 -0.30509 0
M  V30 15349 H 1459.16 -3.28813 2.17429 0
M  V30 15350 H 1460.45 -4.48392 2.40463 0
M  V30 15351 H 1459.85 -5.62888 -0.563368 0
M  V30 15352 H 1458.41 -6.51259 -0.265556 0
M  V30 15353 N 1461.84 -1.08266 -1.14527 0
M  V30 15354 C 1463.25 -0.832702 -1.67102 0
M  V30 15355 C 1463.6 0.640776 -1.85441 0
M  V30 15356 O 1462.73 1.49505 -1.56452 0
M  V30 15357 C 1463.32 -1.50502 -3.03537 0
M  V30 15358 C 1461.88 -1.30234 -3.53152 0
M  V30 15359 C 1461.03 -1.56873 -2.28661 0
M  V30 15360 H 1463.98 -1.24344 -0.986118 0
M  V30 15361 H 1464 -0.931426 -3.68924 0
M  V30 15362 H 1463.51 -2.57741 -2.90157 0
M  V30 15363 H 1461.61 -0.250582 -3.71756 0
M  V30 15364 H 1461.73 -2.02898 -4.34015 0
M  V30 15365 H 1460.09 -0.990214 -2.34663 0
M  V30 15366 H 1460.87 -2.65316 -2.17859 0
M  V30 15367 N 1463.32 1.31536 -0.86811 0
M  V30 15368 C 1464.57 1.96045 -0.474271 0
M  V30 15369 C 1464.88 1.6939 0.978071 0
M  V30 15370 O 1466.09 2.27746 1.47797 0
M  V30 15371 C 1464.54 3.5096 -0.797203 0
M  V30 15372 C 1464.15 3.86456 -2.26618 0
M  V30 15373 C 1465.9 4.21871 -0.471745 0
M  V30 15374 C 1463.8 5.34474 -2.53162 0
M  V30 15375 H 1462.73 0.733737 -0.173627 0
M  V30 15376 H 1465.38 1.49734 -1.06076 0
M  V30 15377 H 1463.77 3.95752 -0.139994 0
M  V30 15378 H 1464.94 3.52629 -2.9663 0
M  V30 15379 H 1463.25 3.28605 -2.55749 0
M  V30 15380 H 1465.85 5.30767 -0.647317 0
M  V30 15381 H 1466.19 4.12131 0.58768 0
M  V30 15382 H 1466.73 3.82706 -1.08542 0
M  V30 15383 H 1463.47 5.49248 -3.57781 0
M  V30 15384 H 1462.99 5.6966 -1.87743 0
M  V30 15385 H 1464.67 6.01716 -2.37797 0
M  V30 15386 N 1464.8 0.627364 1.44575 0
M  V30 15387 C 1465.73 -0.129056 2.27835 0
M  V30 15388 C 1466.71 -0.854852 1.38315 0
M  V30 15389 O 1467.89 -0.859709 1.67754 0
M  V30 15390 C 1465.02 -1.18866 3.17157 0
M  V30 15391 C 1464.07 -0.563816 4.22757 0
M  V30 15392 S 1464.9 0.643269 5.31622 0
M  V30 15393 C 1466.05 -0.416443 6.24513 0
M  V30 15394 H 1466.29 0.577281 2.91641 0
M  V30 15395 H 1463.82 0.415427 1.48706 0
M  V30 15396 H 1465.78 -1.79508 3.69171 0
M  V30 15397 H 1464.44 -1.86717 2.52578 0
M  V30 15398 H 1463.63 -1.36173 4.85256 0
M  V30 15399 H 1463.23 -0.0321045 3.73986 0
M  V30 15400 H 1465.53 -1.29006 6.65104 0
M  V30 15401 H 1466.47 0.172871 7.07889 0
M  V30 15402 H 1466.88 -0.740651 5.5962 0
M  V30 15403 N 1466.28 -1.53251 0.367684 0
M  V30 15404 C 1467.5 -2.05705 -0.222047 0
M  V30 15405 C 1467.92 -1.24104 -1.4228 0
M  V30 15406 O 1467.28 -0.282228 -1.80305 0
M  V30 15407 C 1467.33 -3.56257 -0.613475 0
M  V30 15408 O 1467.05 -4.34765 0.539558 0
M  V30 15409 C 1468.55 -4.24976 -1.26137 0
M  V30 15410 H 1465.77 -0.66989 -0.0385799 0
M  V30 15411 H 1468.31 -1.97602 0.526663 0
M  V30 15412 H 1466.47 -3.64503 -1.3121 0
M  V30 15413 H 1466.88 -5.24027 0.222699 0
M  V30 15414 H 1468.36 -5.31628 -1.4858 0
M  V30 15415 H 1468.83 -3.78828 -2.2223 0
M  V30 15416 H 1469.44 -4.20987 -0.604121 0
M  V30 15417 N 1467.75 -0.0969077 -1.57302 0
M  V30 15418 C 1468.7 0.861379 -2.14124 0
M  V30 15419 C 1469.67 1.27858 -1.06026 0
M  V30 15420 O 1470.86 1.36001 -1.33822 0
M  V30 15421 C 1468 2.11443 -2.72738 0
M  V30 15422 C 1467.11 1.7476 -3.95074 0
M  V30 15423 C 1466.24 2.94864 -4.41847 0
M  V30 15424 C 1465.28 2.54316 -5.56767 0
M  V30 15425 N 1464.42 3.67261 -5.98384 0
M  V30 15426 H 1469.26 0.369968 -2.95694 0
M  V30 15427 H 1466.8 0.170943 -1.46103 0
M  V30 15428 H 1468.75 2.84829 -3.04842 0
M  V30 15429 H 1467.38 2.5808 -1.93893 0
M  V30 15430 H 1466.44 0.91335 -3.69272 0
M  V30 15431 H 1467.75 1.40946 -4.78472 0
M  V30 15432 H 1466.9 3.76501 -4.75744 0
M  V30 15433 H 1465.64 3.31889 -3.57352 0
M  V30 15434 H 1464.65 1.71106 -5.22497 0
M  V30 15435 H 1465.87 2.18432 -6.43012 0
M  V30 15436 H 1463.82 4.04001 -5.16836 0
M  V30 15437 H 1463.73 3.37298 -6.76584 0
M  V30 15438 H 1465 4.49403 -6.36912 0
M  V30 15439 N 1469.23 1.56605 0.176793 0
M  V30 15440 C 1470.65 1.50601 0.528354 0
M  V30 15441 C 1470.85 0.800205 1.8493 0
M  V30 15442 O 1469.9 0.358299 2.49945 0
M  V30 15443 C 1471.22 2.95322 0.566172 0
M  V30 15444 C 1472.76 3.06097 0.653751 0
M  V30 15445 C 1473.24 4.52265 0.722511 0
M  V30 15446 N 1474.73 4.5649 0.785548 0
M  V30 15447 C 1475.47 5.66926 0.859232 0
M  V30 15448 N 1474.96 6.87006 0.894088 0
M  V30 15449 N 1476.75 5.54883 0.897832 0
M  V30 15450 H 1468.91 2.00899 -0.689442 0
M  V30 15451 H 1471.17 0.915011 -0.24791 0
M  V30 15452 H 1470.87 3.50095 -0.33566 0
M  V30 15453 H 1470.75 3.49671 1.41456 0
M  V30 15454 H 1473.14 2.51361 1.54601 0
M  V30 15455 H 1473.22 2.54842 -0.221207 0
M  V30 15456 H 1472.86 5.0763 -0.165469 0
M  V30 15457 H 1472.79 5.01271 1.61353 0
M  V30 15458 H 1475.28 3.70032 0.767117 0
M  V30 15459 H 1475.59 7.66922 0.951333 0
M  V30 15460 H 1473.94 6.89628 0.862457 0
M  V30 15461 H 1477.13 4.5999 0.867564 0
M  V30 15462 H 1477.3 6.40972 0.951795 0
M  V30 15463 N 1470.71 -0.445159 1.51182 0
M  V30 15464 C 1471.96 -1.19398 1.64669 0
M  V30 15465 C 1472.31 -1.89101 0.35474 0
M  V30 15466 O 1471.6 -1.80274 -0.648999 0
M  V30 15467 C 1471.8 -2.24274 2.78273 0
M  V30 15468 C 1471.63 -1.64863 4.1839 0
M  V30 15469 C 1470.4 -1.43697 4.84437 0
M  V30 15470 C 1472.59 -1.12917 5.01751 0
M  V30 15471 N 1470.58 -0.798009 6.08691 0
M  V30 15472 C 1471.95 -0.615012 6.16942 0
M  V30 15473 C 1474 -1.02018 4.87336 0
M  V30 15474 C 1472.71 -0.00258151 7.193 0
M  V30 15475 C 1474.73 -0.421658 5.89895 0
M  V30 15476 C 1474.09 0.0819981 7.04352 0
M  V30 15477 H 1470.19 -0.424858 0.656521 0
M  V30 15478 H 1472.78 -0.491798 1.88386 0
M  V30 15479 H 1470.95 -2.91889 2.56233 0
M  V30 15480 H 1472.68 -2.91259 2.8098 0
M  V30 15481 H 1469.43 -1.69652 4.42171 0
M  V30 15482 H 1469.86 -0.496194 6.75179 0
M  V30 15483 H 1474.5 -1.39546 3.99107 0
M  V30 15484 H 1472.22 0.384842 8.07183 0
M  V30 15485 H 1475.8 -0.339339 5.8081 0
M  V30 15486 H 1474.68 0.537861 7.82353 0
M  V30 15487 N 1472.19 -1.41197 -0.700089 0
M  V30 15488 C 1473.43 -1.4152 -1.46095 0
M  V30 15489 C 1473.79 -0.0221135 -1.92387 0
M  V30 15490 O 1473.08 0.951201 -1.66321 0
M  V30 15491 C 1473.28 -2.35259 -2.6905 0
M  V30 15492 C 1473.1 -3.83544 -2.34785 0
M  V30 15493 C 1471.87 -4.52258 -2.25369 0
M  V30 15494 C 1474.07 -4.74637 -1.9805 0
M  V30 15495 N 1472.05 -5.85695 -1.83942 0
M  V30 15496 C 1473.43 -5.96989 -1.67346 0
M  V30 15497 C 1475.48 -4.62326 -1.84821 0
M  V30 15498 C 1474.18 -7.08401 -1.24742 0
M  V30 15499 C 1476.21 -5.73696 -1.43621 0
M  V30 15500 C 1475.57 -6.95143 -1.13825 0
M  V30 15501 H 1471.67 -0.573085 -0.53207 0
M  V30 15502 H 1474.25 -1.77032 -0.810413 0
M  V30 15503 H 1472.43 -2.01849 -3.3183 0
M  V30 15504 H 1474.16 -2.26333 -3.35493 0
M  V30 15505 H 1470.91 -4.06137 -2.43618 0
M  V30 15506 H 1471.34 -6.56403 -1.65722 0
M  V30 15507 H 1475.98 -3.68934 -2.06513 0
M  V30 15508 H 1473.7 -8.01663 -1.01794 0
M  V30 15509 H 1477.28 -5.66172 -1.33941 0
M  V30 15510 H 1476.16 -7.79856 -0.824257 0
M  V30 15511 N 1473.67 0.933891 -1.2695 0
M  V30 15512 C 1474.91 1.68091 -1.12924 0
M  V30 15513 C 1475.24 1.91747 0.326088 0
M  V30 15514 O 1474.5 1.50126 1.25541 0
M  V30 15515 C 1474.79 3.05706 -1.85145 0
M  V30 15516 C 1474.46 3.01781 -3.35021 0
M  V30 15517 C 1473.12 3.00417 -3.75903 0
M  V30 15518 C 1475.47 2.93537 -4.3068 0
M  V30 15519 C 1472.8 2.88585 -5.10818 0
M  V30 15520 C 1475.15 2.83246 -5.65645 0
M  V30 15521 C 1473.82 2.80229 -6.05828 0
M  V30 15522 H 1473.09 0.615087 -0.413217 0
M  V30 15523 H 1475.74 1.08957 -1.57482 0
M  V30 15524 H 1474.04 3.68508 -1.33077 0
M  V30 15525 H 1475.74 3.62369 -1.71726 0
M  V30 15526 H 1472.33 3.03626 -3.02505 0
M  V30 15527 H 1476.51 2.93693 -4.00073 0
M  V30 15528 H 1471.77 2.84632 -5.41105 0
M  V30 15529 H 1475.94 2.75832 -6.39445 0
M  V30 15530 H 1473.57 2.70818 -7.10325 0
M  V30 15531 N 1475.14 1.08871 1.13951 0
M  V30 15532 C 1476.37 0.841691 1.88677 0
M  V30 15533 C 1476.78 -0.610213 1.79089 0
M  V30 15534 O 1476.12 -1.4314 1.15138 0
M  V30 15535 C 1476.19 1.19077 3.39206 0
M  V30 15536 C 1475.85 2.64642 3.72577 0
M  V30 15537 C 1476.85 3.62892 3.72297 0
M  V30 15538 C 1474.53 3.00618 4.0241 0
M  V30 15539 C 1476.53 4.95148 4.01382 0
M  V30 15540 C 1474.21 4.33066 4.31158 0
M  V30 15541 C 1475.21 5.3014 4.30628 0
M  V30 15542 O 1474.9 6.60207 4.58675 0
M  V30 15543 H 1474.63 0.302896 0.604343 0
M  V30 15544 H 1477.19 1.4527 1.45209 0
M  V30 15545 H 1475.42 0.522784 3.8315 0
M  V30 15546 H 1477.1 0.923805 3.95248 0
M  V30 15547 H 1477.87 3.36442 3.4933 0
M  V30 15548 H 1473.75 2.25696 4.01973 0
M  V30 15549 H 1477.29 5.7091 4.00884 0
M  V30 15550 H 1473.19 4.59262 4.53595 0
M  V30 15551 H 1473.96 6.65593 4.7637 0
M  V30 15552 N 1476.62 -1.31073 0.875073 0
M  V30 15553 C 1477.87 -1.9613 0.487584 0
M  V30 15554 C 1478.19 -1.69482 -0.964407 0
M  V30 15555 O 1477.46 -1.013 -1.67676 0
M  V30 15556 H 1476.04 -0.725649 0.177319 0
M  V30 15557 H 1478.7 -1.59787 1.11598 0
M  V30 15558 H 1477.8 -3.05265 0.649574 0
M  V30 15559 N 1478.1 -0.635022 -1.4424 0
M  V30 15560 C 1479.35 -0.138497 -2.01224 0
M  V30 15561 C 1479.66 1.2485 -1.50571 0
M  V30 15562 O 1480.87 1.83926 -1.99709 0
M  V30 15563 C 1479.32 -0.196836 -3.59361 0
M  V30 15564 C 1478.93 -1.58539 -4.1901 0
M  V30 15565 C 1480.68 0.243025 -4.23804 0
M  V30 15566 C 1478.58 -1.59864 -5.69384 0
M  V30 15567 H 1477.51 -0.0480117 -0.75247 0
M  V30 15568 H 1480.16 -0.794391 -1.65414 0
M  V30 15569 H 1478.55 0.526231 -3.92488 0
M  V30 15570 H 1479.72 -2.33236 -3.97414 0
M  V30 15571 H 1478.04 -1.96967 -3.66869 0
M  V30 15572 H 1480.63 0.252717 -5.34102 0
M  V30 15573 H 1480.98 1.27107 -3.96421 0
M  V30 15574 H 1481.51 -0.427678 -3.95494 0
M  V30 15575 H 1478.25 -2.60518 -6.01507 0
M  V30 15576 H 1477.77 -0.894664 -5.9309 0
M  V30 15577 H 1479.45 -1.3343 -6.33092 0
M  V30 15578 N 1479.58 1.53054 -0.375806 0
M  V30 15579 C 1480.51 2.28973 0.45754 0
M  V30 15580 C 1481.49 1.31812 1.07516 0
M  V30 15581 O 1482.67 1.60693 1.09048 0
M  V30 15582 C 1479.8 3.08657 1.59212 0
M  V30 15583 C 1478.76 4.1359 1.10123 0
M  V30 15584 C 1478.08 4.81417 2.32684 0
M  V30 15585 C 1479.38 5.21994 0.17872 0
M  V30 15586 H 1481.08 2.98883 -0.175872 0
M  V30 15587 H 1478.62 1.43743 -0.0860253 0
M  V30 15588 H 1480.58 3.6052 2.18182 0
M  V30 15589 H 1479.3 2.36456 2.25291 0
M  V30 15590 H 1477.96 3.62688 0.534151 0
M  V30 15591 H 1477.61 4.05778 2.97243 0
M  V30 15592 H 1477.31 5.52332 2.00506 0
M  V30 15593 H 1478.83 5.36079 2.92322 0
M  V30 15594 H 1480.25 5.69298 0.676204 0
M  V30 15595 H 1478.64 6.00077 -0.0526605 0
M  V30 15596 H 1479.71 4.78646 -0.776246 0
M  V30 15597 N 1481.06 0.105248 1.57248 0
M  V30 15598 C 1482.47 -0.422304 1.81861 0
M  V30 15599 C 1482.82 -1.67508 1.02154 0
M  V30 15600 O 1481.94 -2.14905 0.253961 0
M  V30 15601 C 1482.54 -0.772943 3.29865 0
M  V30 15602 C 1481.1 -1.24519 3.55207 0
M  V30 15603 C 1480.24 -0.246936 2.76198 0
M  V30 15604 H 1483.2 0.330565 1.55219 0
M  V30 15605 H 1483.22 -1.6316 3.43743 0
M  V30 15606 H 1482.73 0.139033 3.87851 0
M  V30 15607 H 1480.83 -2.17453 3.02564 0
M  V30 15608 H 1480.94 -1.20001 4.63828 0
M  V30 15609 H 1479.31 -0.731171 2.43979 0
M  V30 15610 H 1480.09 0.657896 3.36937 0
M  V30 15611 N 1482.53 -1.56697 -0.168486 0
M  V30 15612 C 1483.48 -1.93039 -1.21325 0
M  V30 15613 C 1484.47 -0.799039 -1.39657 0
M  V30 15614 O 1485.66 -1.06226 -1.41581 0
M  V30 15615 C 1482.79 -2.29622 -2.55203 0
M  V30 15616 C 1481.88 -3.49278 -2.40553 0
M  V30 15617 N 1482.27 -4.6644 -1.95622 0
M  V30 15618 C 1480.56 -3.53941 -2.71371 0
M  V30 15619 C 1481.27 -5.48572 -1.93502 0
M  V30 15620 N 1480.24 -4.89693 -2.36012 0
M  V30 15621 H 1484.04 -2.81109 -0.857611 0
M  V30 15622 H 1481.56 -1.5797 -0.376734 0
M  V30 15623 H 1483.55 -2.53854 -3.30702 0
M  V30 15624 H 1482.21 -1.42893 -2.91568 0
M  V30 15625 H 1483.23 -4.90604 -1.65916 0
M  V30 15626 H 1479.9 -2.77697 -3.11754 0
M  V30 15627 H 1481.29 -6.52464 -1.60438 0
M  V30 15628 N 1484.01 0.437135 -1.51416 0
M  V30 15629 C 1485.24 1.20898 -1.67903 0
M  V30 15630 C 1485.66 1.85009 -0.376458 0
M  V30 15631 O 1485.01 1.7072 0.645051 0
M  V30 15632 C 1485.06 2.29286 -2.79482 0
M  V30 15633 O 1484.78 1.67798 -4.04692 0
M  V30 15634 C 1486.29 3.19561 -3.07238 0
M  V30 15635 H 1483.51 0.364381 -0.563442 0
M  V30 15636 H 1486.05 0.517931 -1.97833 0
M  V30 15637 H 1484.2 2.94107 -2.5215 0
M  V30 15638 H 1484.62 2.39433 -4.6666 0
M  V30 15639 H 1486.09 3.91748 -3.88893 0
M  V30 15640 H 1486.57 3.80327 -2.19654 0
M  V30 15641 H 1487.18 2.60441 -3.3623 0
M  V30 15642 N 1485.49 1.41566 0.692592 0
M  V30 15643 C 1486.74 1.40381 1.44831 0
M  V30 15644 C 1487.05 0.0172068 1.95592 0
M  V30 15645 O 1488.26 -0.11726 2.71247 0
M  V30 15646 C 1486.71 2.46844 2.61908 0
M  V30 15647 C 1486.32 3.91426 2.17921 0
M  V30 15648 C 1488.07 2.548 3.39525 0
M  V30 15649 C 1485.97 4.89436 3.31974 0
M  V30 15650 H 1484.9 0.522062 0.544028 0
M  V30 15651 H 1487.55 1.67402 0.751589 0
M  V30 15652 H 1485.94 2.12959 3.33863 0
M  V30 15653 H 1487.11 4.34575 1.53236 0
M  V30 15654 H 1485.43 3.87158 1.5329 0
M  V30 15655 H 1488.02 3.25207 4.24434 0
M  V30 15656 H 1488.37 1.58579 3.84913 0
M  V30 15657 H 1488.9 2.87791 2.74629 0
M  V30 15658 H 1485.64 5.87071 2.91595 0
M  V30 15659 H 1485.16 4.50933 3.95499 0
M  V30 15660 H 1486.84 5.10331 3.97708 0
M  V30 15661 N 1486.97 -0.927146 1.27443 0
M  V30 15662 C 1488.22 -1.67489 1.13814 0
M  V30 15663 C 1488.54 -1.91917 -0.315914 0
M  V30 15664 O 1487.8 -1.5079 -1.24743 0
M  V30 15665 C 1488.1 -3.0472 1.86764 0
M  V30 15666 C 1487.76 -3 3.36617 0
M  V30 15667 C 1486.43 -2.9842 3.77491 0
M  V30 15668 C 1488.78 -2.91249 4.32231 0
M  V30 15669 C 1486.11 -2.85872 5.12342 0
M  V30 15670 C 1488.46 -2.80242 5.67139 0
M  V30 15671 C 1487.12 -2.77013 6.07306 0
M  V30 15672 H 1486.39 -0.612887 0.416474 0
M  V30 15673 H 1489.04 -1.0812 1.58058 0
M  V30 15674 H 1487.34 -3.67797 1.35029 0
M  V30 15675 H 1489.04 -3.61453 1.73646 0
M  V30 15676 H 1485.63 -3.02017 3.04111 0
M  V30 15677 H 1489.81 -2.91567 4.01625 0
M  V30 15678 H 1485.07 -2.81758 5.42607 0
M  V30 15679 H 1489.24 -2.72437 6.40899 0
M  V30 15680 H 1486.87 -2.67047 7.11751 0
M  V30 15681 N 1488.45 -1.09474 -1.13372 0
M  V30 15682 C 1489.36 -0.746674 -2.224 0
M  V30 15683 C 1490.37 0.251572 -1.72172 0
M  V30 15684 O 1491.55 0.092793 -2.01186 0
M  V30 15685 C 1488.61 -0.172965 -3.46268 0
M  V30 15686 C 1487.67 -1.22722 -4.11385 0
M  V30 15687 C 1486.91 -0.680794 -5.2934 0
M  V30 15688 O 1487.13 0.496135 -5.68238 0
M  V30 15689 O 1486.06 -1.43605 -5.84518 0
M  V30 15690 H 1489.89 -1.65649 -2.54547 0
M  V30 15691 H 1487.48 -0.869172 -1.21514 0
M  V30 15692 H 1489.36 0.143629 -4.21155 0
M  V30 15693 H 1488.03 0.709853 -3.15821 0
M  V30 15694 H 1486.94 -1.59652 -3.38323 0
M  V30 15695 H 1488.27 -2.0827 -4.45965 0
M  V30 15696 N 1489.92 1.30607 -0.882012 0
M  V30 15697 C 1490.89 2.26489 -0.351498 0
M  V30 15698 C 1491.89 1.52686 0.504348 0
M  V30 15699 O 1493.08 1.71385 0.311928 0
M  V30 15700 C 1490.21 3.37222 0.499435 0
M  V30 15701 H 1491.4 2.74929 -1.19809 0
M  V30 15702 H 1488.96 1.41746 -0.658616 0
M  V30 15703 H 1489.69 2.94093 1.36673 0
M  V30 15704 H 1489.48 3.91936 -0.11356 0
M  V30 15705 H 1490.97 4.08596 0.862497 0
M  V30 15706 N 1491.4 0.642663 1.43901 0
M  V30 15707 C 1492.33 -0.0419756 2.33462 0
M  V30 15708 C 1493.31 -0.822923 1.48869 0
M  V30 15709 O 1494.5 -0.786508 1.7756 0
M  V30 15710 C 1491.63 -1.01631 3.32097 0
M  V30 15711 C 1490.58 -0.346206 4.26597 0
M  V30 15712 C 1489.91 -1.43125 5.15189 0
M  V30 15713 C 1491.21 0.754799 5.16817 0
M  V30 15714 H 1492.9 0.705929 2.90959 0
M  V30 15715 H 1490.45 0.340924 1.39906 0
M  V30 15716 H 1492.4 -1.5041 3.93643 0
M  V30 15717 H 1491.13 -1.79525 2.72834 0
M  V30 15718 H 1489.78 0.121038 3.664 0
M  V30 15719 H 1489.43 -2.20135 4.52271 0
M  V30 15720 H 1489.13 -0.988194 5.79231 0
M  V30 15721 H 1490.66 -1.92061 5.79607 0
M  V30 15722 H 1492.07 0.349624 5.72233 0
M  V30 15723 H 1490.47 1.12169 5.89524 0
M  V30 15724 H 1491.54 1.61718 4.57138 0
M  V30 15725 N 1492.88 -1.52852 0.383918 0
M  V30 15726 C 1494.12 -2.03421 -0.199832 0
M  V30 15727 C 1494.49 -1.26439 -1.44489 0
M  V30 15728 O 1495.69 -1.67105 -2.10545 0
M  V30 15729 C 1493.96 -3.54341 -0.466577 0
M  V30 15730 S 1495.52 -4.26747 -1.02138 0
M  V30 15731 H 1492.33 -0.70873 -0.0567636 0
M  V30 15732 H 1494.94 -1.8815 0.531022 0
M  V30 15733 H 1493.64 -4.07961 0.446772 0
M  V30 15734 H 1493.17 -3.73808 -1.226 0
M  V30 15735 H 1495.19 -4.39456 -2.3042 0
M  V30 15736 N 1494.36 -0.113586 -1.5719 0
M  V30 15737 C 1495.61 0.546529 -1.95297 0
M  V30 15738 C 1495.94 1.66674 -0.996671 0
M  V30 15739 O 1495.21 1.94472 -0.0329298 0
M  V30 15740 C 1495.5 1.08433 -3.43387 0
M  V30 15741 C 1495.35 -0.0320929 -4.49789 0
M  V30 15742 C 1496.67 1.97691 -3.932 0
M  V30 15743 H 1493.79 0.197195 -0.710129 0
M  V30 15744 H 1496.43 -0.188048 -1.89067 0
M  V30 15745 H 1494.58 1.71033 -3.48827 0
M  V30 15746 H 1496.25 -0.66716 -4.5645 0
M  V30 15747 H 1494.49 -0.695983 -4.2818 0
M  V30 15748 H 1495.17 0.385341 -5.50653 0
M  V30 15749 H 1497.64 1.4497 -3.90029 0
M  V30 15750 H 1496.52 2.3224 -4.97349 0
M  V30 15751 H 1496.78 2.90137 -3.33576 0
M  V30 15752 N 1495.84 1.56784 0.160173 0
M  V30 15753 C 1496.77 2.00298 1.20012 0
M  V30 15754 C 1497.75 0.880356 1.45546 0
M  V30 15755 O 1498.93 1.14724 1.56691 0
M  V30 15756 C 1496.06 2.37238 2.53645 0
M  V30 15757 C 1495.02 3.52563 2.42658 0
M  V30 15758 C 1494.34 3.75278 3.80881 0
M  V30 15759 C 1495.64 4.85657 1.92183 0
M  V30 15760 H 1497.34 2.87423 0.838362 0
M  V30 15761 H 1494.88 1.3828 0.401838 0
M  V30 15762 H 1496.84 2.66278 3.2661 0
M  V30 15763 H 1495.56 1.47035 2.9163 0
M  V30 15764 H 1494.22 3.23669 1.72146 0
M  V30 15765 H 1493.87 2.82347 4.1628 0
M  V30 15766 H 1493.57 4.52882 3.74396 0
M  V30 15767 H 1495.09 4.0673 4.55415 0
M  V30 15768 H 1496.51 5.13501 2.54931 0
M  V30 15769 H 1494.9 5.66975 1.96619 0
M  V30 15770 H 1495.97 4.76908 0.876742 0
M  V30 15771 N 1497.32 -0.429099 1.51646 0
M  V30 15772 C 1498.25 -1.52867 1.76505 0
M  V30 15773 C 1499.23 -1.58586 0.615178 0
M  V30 15774 O 1500.41 -1.74182 0.858742 0
M  V30 15775 C 1497.54 -2.90875 1.8976 0
M  V30 15776 C 1496.5 -3.00014 3.05247 0
M  V30 15777 C 1495.82 -4.40082 3.03696 0
M  V30 15778 C 1497.12 -2.73334 4.45068 0
M  V30 15779 H 1498.82 -1.32315 2.68576 0
M  V30 15780 H 1496.36 -0.635091 1.29238 0
M  V30 15781 H 1498.31 -3.67765 2.05734 0
M  V30 15782 H 1497.04 -3.12677 0.943442 0
M  V30 15783 H 1495.7 -2.25565 2.88991 0
M  V30 15784 H 1495.35 -4.58864 2.06042 0
M  V30 15785 H 1495.05 -4.47125 3.81252 0
M  V30 15786 H 1496.57 -5.18935 3.21774 0
M  V30 15787 H 1497.98 -3.39954 4.61632 0
M  V30 15788 H 1496.38 -2.91777 5.24391 0
M  V30 15789 H 1497.45 -1.68889 4.54538 0
M  V30 15790 N 1498.79 -1.41931 -0.685074 0
M  V30 15791 C 1500.02 -1.45432 -1.47866 0
M  V30 15792 C 1500.44 -0.0641302 -1.87991 0
M  V30 15793 O 1499.8 0.935081 -1.55325 0
M  V30 15794 C 1499.85 -2.37801 -2.71077 0
M  V30 15795 O 1498.95 -1.84229 -3.68963 0
M  V30 15796 H 1498.29 -0.493156 -0.444627 0
M  V30 15797 H 1500.82 -1.86508 -0.841177 0
M  V30 15798 H 1500.83 -2.54033 -3.19266 0
M  V30 15799 H 1499.51 -3.38807 -2.41211 0
M  V30 15800 H 1498.09 -1.775 -3.27945 0
M  V30 15801 N 1500.27 0.920374 -1.27933 0
M  V30 15802 C 1501.2 2.03882 -1.13817 0
M  V30 15803 C 1502.18 1.70058 -0.0376853 0
M  V30 15804 O 1503.37 1.93023 -0.213492 0
M  V30 15805 C 1500.5 3.38142 -0.792296 0
M  V30 15806 C 1499.45 3.86104 -1.84683 0
M  V30 15807 C 1498.78 5.17253 -1.35474 0
M  V30 15808 C 1500.08 4.0869 -3.25223 0
M  V30 15809 H 1501.77 2.15949 -2.07379 0
M  V30 15810 H 1499.32 1.03764 -0.998454 0
M  V30 15811 H 1501.27 4.15872 -0.680337 0
M  V30 15812 H 1499.99 3.26109 0.179029 0
M  V30 15813 H 1498.65 3.10573 -1.94782 0
M  V30 15814 H 1498.3 5.01618 -0.372666 0
M  V30 15815 H 1498 5.50314 -2.05982 0
M  V30 15816 H 1499.53 5.97545 -1.25587 0
M  V30 15817 H 1500.94 4.76965 -3.18083 0
M  V30 15818 H 1499.34 4.5307 -3.93507 0
M  V30 15819 H 1500.41 3.13729 -3.69733 0
M  V30 15820 N 1501.75 1.10074 1.1279 0
M  V30 15821 C 1502.71 0.74967 2.16593 0
M  V30 15822 C 1503.71 -0.224046 1.59232 0
M  V30 15823 O 1504.9 -0.00137104 1.742 0
M  V30 15824 C 1502.03 0.109795 3.40723 0
M  V30 15825 H 1503.23 1.66906 2.49164 0
M  V30 15826 H 1500.78 0.900781 1.27733 0
M  V30 15827 H 1501.52 -0.820501 3.13749 0
M  V30 15828 H 1501.3 0.810517 3.83631 0
M  V30 15829 H 1502.79 -0.120198 4.17427 0
M  V30 15830 N 1503.23 -1.30138 0.888926 0
M  V30 15831 C 1504.47 -1.95989 0.509365 0
M  V30 15832 C 1504.8 -1.70153 -0.942249 0
M  V30 15833 O 1504.06 -1.00123 -1.68148 0
M  V30 15834 C 1504.36 -3.4975 0.735488 0
M  V30 15835 C 1504.02 -3.95644 2.1628 0
M  V30 15836 C 1502.68 -4.07886 2.55309 0
M  V30 15837 C 1505.04 -4.1952 3.09277 0
M  V30 15838 C 1502.36 -4.41367 3.86539 0
M  V30 15839 C 1504.72 -4.54472 4.40043 0
M  V30 15840 C 1503.38 -4.64923 4.7896 0
M  V30 15841 H 1502.65 -0.717175 0.18639 0
M  V30 15842 H 1505.3 -1.54932 1.12553 0
M  V30 15843 H 1503.6 -3.91783 0.0363165 0
M  V30 15844 H 1505.3 -3.9878 0.421351 0
M  V30 15845 H 1501.89 -3.86624 1.84985 0
M  V30 15846 H 1506.07 -4.09539 2.80342 0
M  V30 15847 H 1501.33 -4.47659 4.16427 0
M  V30 15848 H 1505.5 -4.71897 5.12138 0
M  V30 15849 H 1503.13 -4.90622 5.80685 0
M  V30 15850 N 1504.71 -0.650285 -1.43559 0
M  V30 15851 C 1505.93 -0.168483 -2.06715 0
M  V30 15852 C 1506.36 1.15576 -1.48404 0
M  V30 15853 O 1505.71 1.71333 -0.592842 0
M  V30 15854 C 1505.76 -0.0877095 -3.60493 0
M  V30 15855 O 1504.87 0.950915 -4.01287 0
M  V30 15856 H 1504.21 -0.0935281 -0.65738 0
M  V30 15857 H 1506.74 -0.892381 -1.84113 0
M  V30 15858 H 1506.75 0.0965825 -4.07886 0
M  V30 15859 H 1505.42 -1.05442 -4.02312 0
M  V30 15860 H 1504 0.739648 -3.65491 0
M  V30 15861 N 1506.18 1.52647 -0.392018 0
M  V30 15862 C 1507.11 2.29446 0.433228 0
M  V30 15863 C 1508.09 1.32945 1.06111 0
M  V30 15864 O 1509.28 1.61841 1.07337 0
M  V30 15865 C 1506.41 3.10328 1.55929 0
M  V30 15866 C 1505.36 4.14735 1.05731 0
M  V30 15867 C 1504.69 4.83858 2.27565 0
M  V30 15868 C 1505.99 5.22154 0.123346 0
M  V30 15869 H 1507.68 2.9868 -0.207563 0
M  V30 15870 H 1505.23 1.43643 -0.101266 0
M  V30 15871 H 1507.18 3.62814 2.14346 0
M  V30 15872 H 1505.91 2.38832 2.22771 0
M  V30 15873 H 1504.57 3.63234 0.495653 0
M  V30 15874 H 1504.21 4.08907 2.92923 0
M  V30 15875 H 1503.91 5.54428 1.94637 0
M  V30 15876 H 1505.44 5.39149 2.86619 0
M  V30 15877 H 1506.85 5.69983 0.615784 0
M  V30 15878 H 1505.25 5.99987 -0.116304 0
M  V30 15879 H 1506.32 4.77796 -0.826969 0
M  V30 15880 N 1507.66 0.121921 1.57128 0
M  V30 15881 C 1508.89 -0.542225 1.99358 0
M  V30 15882 C 1509.3 -1.60578 1.00057 0
M  V30 15883 O 1508.64 -1.83694 -0.0142649 0
M  V30 15884 C 1508.71 -1.22448 3.38004 0
M  V30 15885 C 1508.37 -0.308522 4.55957 0
M  V30 15886 C 1509.37 0.454012 5.17914 0
M  V30 15887 C 1507.05 -0.218741 5.01823 0
M  V30 15888 C 1509.05 1.29403 6.24126 0
M  V30 15889 C 1506.73 0.624906 6.07896 0
M  V30 15890 C 1507.73 1.37992 6.68915 0
M  V30 15891 O 1507.42 2.20955 7.72938 0
M  V30 15892 H 1507.15 -0.147894 0.659624 0
M  V30 15893 H 1509.7 0.205954 2.04365 0
M  V30 15894 H 1507.93 -2.01979 3.2976 0
M  V30 15895 H 1509.62 -1.78583 3.64504 0
M  V30 15896 H 1510.39 0.394539 4.83393 0
M  V30 15897 H 1506.27 -0.796109 4.54074 0
M  V30 15898 H 1509.81 1.88382 6.71683 0
M  V30 15899 H 1505.71 0.685762 6.41847 0
M  V30 15900 H 1506.48 2.13929 7.90049 0
M  V30 15901 N 1509.14 -1.56867 -0.151857 0
M  V30 15902 C 1510.39 -1.82273 -0.863689 0
M  V30 15903 C 1510.7 -0.702377 -1.82554 0
M  V30 15904 O 1511.91 -0.841903 -2.58117 0
M  V30 15905 C 1510.36 -3.23046 -1.58649 0
M  V30 15906 C 1509.97 -4.43003 -0.667292 0
M  V30 15907 C 1511.72 -3.57729 -2.28539 0
M  V30 15908 C 1509.62 -5.74798 -1.39144 0
M  V30 15909 H 1508.55 -0.679753 -0.326269 0
M  V30 15910 H 1511.2 -1.8313 -0.116454 0
M  V30 15911 H 1509.59 -3.16561 -2.37918 0
M  V30 15912 H 1510.76 -4.60712 0.0898254 0
M  V30 15913 H 1509.08 -4.16329 -0.0770521 0
M  V30 15914 H 1511.67 -4.53451 -2.83348 0
M  V30 15915 H 1512.02 -2.8355 -3.04803 0
M  V30 15916 H 1512.55 -3.65853 -1.56194 0
M  V30 15917 H 1509.29 -6.52059 -0.670747 0
M  V30 15918 H 1508.81 -5.61032 -2.12139 0
M  V30 15919 H 1510.49 -6.17429 -1.93367 0
M  V30 15920 N 1510.62 0.421051 -1.51871 0
M  V30 15921 C 1511.86 1.17838 -1.67013 0
M  V30 15922 C 1512.22 1.88083 -0.385861 0
M  V30 15923 O 1513.42 2.65605 -0.41324 0
M  V30 15924 C 1511.69 2.15567 -2.85071 0
M  V30 15925 S 1513.25 2.99568 -3.20631 0
M  V30 15926 H 1510.07 0.399375 -0.588235 0
M  V30 15927 H 1512.67 0.46746 -1.89829 0
M  V30 15928 H 1511.38 1.62629 -3.76802 0
M  V30 15929 H 1510.91 2.91216 -2.64493 0
M  V30 15930 H 1512.92 4.1739 -2.68328 0
M  V30 15931 N 1512.1 1.42293 0.677538 0
M  V30 15932 C 1513.32 1.46008 1.46592 0
M  V30 15933 C 1513.74 0.0706015 1.88668 0
M  V30 15934 O 1513.1 -0.914076 1.57959 0
M  V30 15935 C 1513.15 2.38477 2.71682 0
M  V30 15936 O 1512.87 3.72019 2.31372 0
M  V30 15937 C 1514.37 2.51185 3.65269 0
M  V30 15938 H 1511.59 0.49669 0.451154 0
M  V30 15939 H 1514.13 1.86777 0.832736 0
M  V30 15940 H 1512.29 2.00969 3.31195 0
M  V30 15941 H 1512.7 4.21514 3.12131 0
M  V30 15942 H 1514.18 3.20014 4.49772 0
M  V30 15943 H 1514.65 1.54885 4.10983 0
M  V30 15944 H 1515.26 2.89404 3.1165 0
M  V30 15945 N 1513.57 -0.913576 1.28419 0
M  V30 15946 C 1514.82 -1.65944 1.15355 0
M  V30 15947 C 1515.14 -1.92706 -0.298228 0
M  V30 15948 O 1514.41 -1.54333 -1.20657 0
M  V30 15949 H 1512.99 -0.615063 0.423919 0
M  V30 15950 H 1515.66 -1.0962 1.6115 0
M  V30 15951 H 1514.75 -2.62173 1.69327 0
M  V30 15952 N 1515.05 -1.1067 -1.12204 0
M  V30 15953 C 1516.3 -0.85063 -1.83768 0
M  V30 15954 C 1516.63 0.62379 -1.84226 0
M  V30 15955 O 1515.88 1.47603 -1.28498 0
M  V30 15956 C 1516.18 -1.34727 -3.31034 0
M  V30 15957 C 1515.85 -2.83353 -3.50745 0
M  V30 15958 C 1514.51 -3.2394 -3.55832 0
M  V30 15959 C 1516.86 -3.79118 -3.57658 0
M  V30 15960 C 1514.19 -4.59036 -3.6538 0
M  V30 15961 C 1516.54 -5.1402 -3.68736 0
M  V30 15962 C 1515.21 -5.54177 -3.72081 0
M  V30 15963 H 1514.48 -0.311268 -0.672453 0
M  V30 15964 H 1517.12 -1.38373 -1.32383 0
M  V30 15965 H 1515.43 -0.73424 -3.84859 0
M  V30 15966 H 1517.12 -1.12558 -3.84879 0
M  V30 15967 H 1513.71 -2.50952 -3.47449 0
M  V30 15968 H 1517.9 -3.48867 -3.52995 0
M  V30 15969 H 1513.15 -4.89568 -3.66243 0
M  V30 15970 H 1517.33 -5.88067 -3.73028 0
M  V30 15971 H 1514.96 -6.58853 -3.79232 0
M  V30 15972 N 1516.53 1.29665 -0.895815 0
M  V30 15973 C 1517.76 1.99572 -0.534267 0
M  V30 15974 C 1518.17 1.67254 0.884455 0
M  V30 15975 O 1517.51 0.911762 1.59476 0
M  V30 15976 C 1517.57 3.53719 -0.642099 0
M  V30 15977 C 1517.24 4.09583 -2.02709 0
M  V30 15978 C 1518.23 4.24769 -2.99779 0
M  V30 15979 C 1515.92 4.44706 -2.33542 0
M  V30 15980 C 1517.91 4.74305 -4.25809 0
M  V30 15981 C 1515.6 4.93939 -3.59815 0
M  V30 15982 C 1516.6 5.08693 -4.55763 0
M  V30 15983 O 1516.29 5.5686 -5.79795 0
M  V30 15984 H 1516.02 0.644481 -0.204012 0
M  V30 15985 H 1518.57 1.66262 -1.20607 0
M  V30 15986 H 1516.8 3.86603 0.0867197 0
M  V30 15987 H 1518.49 4.04861 -0.290265 0
M  V30 15988 H 1519.26 3.97925 -2.77273 0
M  V30 15989 H 1515.14 4.32483 -1.59622 0
M  V30 15990 H 1518.68 4.85736 -5.00706 0
M  V30 15991 H 1514.58 5.2022 -3.82154 0
M  V30 15992 H 1515.35 5.75182 -5.82329 0
M  V30 15993 N 1518.01 0.657889 1.43212 0
M  V30 15994 C 1518.96 -0.0427288 2.32561 0
M  V30 15995 C 1519.95 -0.808236 1.48875 0
M  V30 15996 O 1521.16 -0.718109 1.65055 0
M  V30 15997 H 1517.53 -0.0326049 0.751293 0
M  V30 15998 H 1519.5 0.728503 2.89371 0
M  V30 15999 C 1518.25 -0.99216 3.33244 0
M  V30 16000 H 1517.57 -0.412542 3.97666 0
M  V30 16001 H 1519.01 -1.45138 3.98385 0
M  V30 16002 C 1517.47 -2.09044 2.64201 0
M  V30 16003 O 1518 -3.17481 2.46107 0
M  V30 16004 N 1516.21 -1.85732 2.23499 0
M  V30 16005 H 1515.76 -0.975483 2.38416 0
M  V30 16006 H 1515.71 -2.5941 1.77634 0
M  V30 16007 N 1519.49 -1.52437 0.400108 0
M  V30 16008 C 1520.42 -2.29672 -0.421054 0
M  V30 16009 C 1521.4 -1.33506 -1.05405 0
M  V30 16010 O 1522.58 -1.62408 -1.06477 0
M  V30 16011 C 1519.71 -3.1115 -1.54281 0
M  V30 16012 C 1518.67 -4.1529 -1.0353 0
M  V30 16013 C 1517.99 -4.85058 -2.24996 0
M  V30 16014 C 1519.29 -5.22212 -0.0956529 0
M  V30 16015 H 1520.99 -2.98565 0.2234 0
M  V30 16016 H 1518.53 -1.43588 0.108883 0
M  V30 16017 H 1520.49 -3.63945 -2.12419 0
M  V30 16018 H 1519.21 -2.4001 -2.21501 0
M  V30 16019 H 1517.87 -3.63492 -0.476383 0
M  V30 16020 H 1517.52 -4.10455 -2.9075 0
M  V30 16021 H 1517.22 -5.55452 -1.91694 0
M  V30 16022 H 1518.74 -5.40661 -2.83756 0
M  V30 16023 H 1520.15 -5.70302 -0.585548 0
M  V30 16024 H 1518.55 -5.99917 0.148121 0
M  V30 16025 H 1519.62 -4.77351 0.852296 0
M  V30 16026 N 1520.96 -0.130252 -1.57061 0
M  V30 16027 C 1521.91 0.832998 -2.17173 0
M  V30 16028 C 1522.91 1.26735 -1.12403 0
M  V30 16029 O 1524.11 1.23778 -1.30686 0
M  V30 16030 H 1520.49 0.286777 -0.695171 0
M  V30 16031 H 1522.46 0.301639 -2.96872 0
M  V30 16032 C 1521.21 2.06879 -2.79457 0
M  V30 16033 H 1520.53 1.74352 -3.5978 0
M  V30 16034 H 1521.97 2.72258 -3.25041 0
M  V30 16035 C 1520.43 2.86591 -1.77108 0
M  V30 16036 O 1520.96 3.82363 -1.2313 0
M  V30 16037 N 1519.17 2.508 -1.46792 0
M  V30 16038 H 1518.71 1.72984 -1.90878 0
M  V30 16039 H 1518.67 3.04428 -0.785566 0
M  V30 16040 N 1522.44 1.56945 0.143535 0
M  V30 16041 C 1523.69 1.83176 0.853873 0
M  V30 16042 C 1524.01 0.71168 1.81549 0
M  V30 16043 O 1523.28 -0.266391 1.9408 0
M  V30 16044 H 1521.86 0.675785 0.318313 0
M  V30 16045 H 1524.52 1.9442 0.136712 0
M  V30 16046 H 1523.62 2.7823 1.41402 0
M  V30 16047 N 1523.92 -0.412991 1.52093 0
M  V30 16048 C 1525.17 -1.15737 1.65191 0
M  V30 16049 C 1525.48 -1.91753 0.38601 0
M  V30 16050 O 1526.69 -2.68586 0.396731 0
M  V30 16051 C 1525.15 -2.10619 2.91835 0
M  V30 16052 C 1524.75 -1.40137 4.25518 0
M  V30 16053 C 1526.5 -2.85339 3.14296 0
M  V30 16054 C 1524.4 -2.33645 5.4329 0
M  V30 16055 H 1523.33 -0.435732 0.615348 0
M  V30 16056 H 1525.99 -0.422172 1.78578 0
M  V30 16057 H 1524.37 -2.87675 2.72138 0
M  V30 16058 H 1525.54 -0.684719 4.55684 0
M  V30 16059 H 1523.86 -0.774734 4.09129 0
M  V30 16060 H 1526.45 -3.55437 3.99461 0
M  V30 16061 H 1526.8 -3.48071 2.28369 0
M  V30 16062 H 1527.33 -2.15384 3.34447 0
M  V30 16063 H 1524.07 -1.75566 6.31551 0
M  V30 16064 H 1523.59 -3.03294 5.17467 0
M  V30 16065 H 1525.27 -2.94255 5.76215 0
M  V30 16066 N 1525.4 -1.4265 -0.669982 0
M  V30 16067 C 1526.35 -1.42958 -1.77615 0
M  V30 16068 C 1527.33 -0.30025 -1.58074 0
M  V30 16069 O 1528.53 -0.54283 -1.68471 0
M  V30 16070 C 1525.65 -1.33911 -3.16106 0
M  V30 16071 C 1524.74 -2.51808 -3.41253 0
M  V30 16072 N 1525.13 -3.77216 -3.36959 0
M  V30 16073 C 1523.43 -2.46172 -3.71908 0
M  V30 16074 C 1524.13 -4.55555 -3.61724 0
M  V30 16075 N 1523.11 -3.86036 -3.82724 0
M  V30 16076 H 1526.91 -2.3781 -1.72696 0
M  V30 16077 H 1524.42 -1.37066 -0.871009 0
M  V30 16078 H 1526.42 -1.32214 -3.9538 0
M  V30 16079 H 1525.08 -0.400652 -3.22219 0
M  V30 16080 H 1526.09 -4.09743 -3.16751 0
M  V30 16081 H 1522.77 -1.6093 -3.85237 0
M  V30 16082 H 1524.16 -5.6455 -3.64325 0
M  V30 16083 N 1526.88 0.906753 -1.28902 0
M  V30 16084 C 1527.83 2.03141 -1.13299 0
M  V30 16085 C 1528.82 1.69325 -0.0504114 0
M  V30 16086 O 1530.03 1.78774 -0.209696 0
M  V30 16087 H 1526.4 0.665709 -0.349766 0
M  V30 16088 H 1528.37 2.13441 -2.08531 0
M  V30 16089 C 1527.12 3.37918 -0.818935 0
M  V30 16090 H 1526.44 3.64437 -1.64395 0
M  V30 16091 H 1527.88 4.17318 -0.749753 0
M  V30 16092 C 1526.34 3.33498 0.477582 0
M  V30 16093 O 1526.87 3.7241 1.50578 0
M  V30 16094 N 1525.08 2.86594 0.480862 0
M  V30 16095 H 1524.63 2.55124 -0.356308 0
M  V30 16096 H 1524.58 2.84019 1.34835 0
M  V30 16097 N 1528.36 1.11264 1.11616 0
M  V30 16098 C 1529.29 0.79149 2.19676 0
M  V30 16099 C 1530.27 -0.239351 1.68408 0
M  V30 16100 O 1531.45 -0.103228 1.93925 0
M  V30 16101 C 1528.58 0.231891 3.46525 0
M  V30 16102 C 1527.54 1.19439 4.10997 0
M  V30 16103 C 1526.86 0.495593 5.32398 0
M  V30 16104 C 1528.16 2.54437 4.56135 0
M  V30 16105 H 1529.86 1.69503 2.46797 0
M  V30 16106 H 1527.4 0.816433 1.18619 0
M  V30 16107 H 1529.35 -0.00497468 4.214 0
M  V30 16108 H 1528.08 -0.706938 3.18857 0
M  V30 16109 H 1526.74 1.41686 3.38113 0
M  V30 16110 H 1526.39 -0.447984 5.01001 0
M  V30 16111 H 1526.09 1.13753 5.76484 0
M  V30 16112 H 1527.61 0.267476 6.10014 0
M  V30 16113 H 1529.02 2.36289 5.22341 0
M  V30 16114 H 1527.42 3.14595 5.11028 0
M  V30 16115 H 1528.49 3.13795 3.69676 0
M  V30 16116 N 1529.83 -1.29188 0.902679 0
M  V30 16117 C 1531.07 -1.97218 0.53707 0
M  V30 16118 C 1531.44 -1.69577 -0.900422 0
M  V30 16119 O 1532.64 -2.31086 -1.37305 0
M  V30 16120 C 1530.91 -3.47753 0.824796 0
M  V30 16121 S 1532.47 -4.35161 0.563943 0
M  V30 16122 H 1529.29 -0.682544 0.199136 0
M  V30 16123 H 1531.89 -1.56941 1.16575 0
M  V30 16124 H 1530.59 -3.65364 1.86916 0
M  V30 16125 H 1530.12 -3.92968 0.184342 0
M  V30 16126 H 1532.14 -4.92683 -0.589697 0
M  V30 16127 N 1531.31 -0.665475 -1.42861 0
M  V30 16128 C 1532.26 0.0186204 -2.30792 0
M  V30 16129 C 1533.23 0.802249 -1.45441 0
M  V30 16130 O 1534.41 0.776383 -1.7429 0
M  V30 16131 C 1531.55 0.970499 -3.31173 0
M  V30 16132 C 1530.67 0.18168 -4.31618 0
M  V30 16133 C 1529.8 1.12846 -5.19075 0
M  V30 16134 C 1528.84 0.330788 -6.11206 0
M  V30 16135 N 1527.98 1.2298 -6.91246 0
M  V30 16136 H 1532.82 -0.737068 -2.88741 0
M  V30 16137 H 1530.35 -0.375225 -1.42234 0
M  V30 16138 H 1532.31 1.53611 -3.87891 0
M  V30 16139 H 1530.94 1.69292 -2.74845 0
M  V30 16140 H 1529.99 -0.500415 -3.77094 0
M  V30 16141 H 1531.31 -0.438041 -4.96873 0
M  V30 16142 H 1530.46 1.76431 -5.8048 0
M  V30 16143 H 1529.2 1.78208 -4.53975 0
M  V30 16144 H 1528.2 -0.318333 -5.48878 0
M  V30 16145 H 1529.43 -0.318599 -6.78352 0
M  V30 16146 H 1527.38 1.86999 -6.28783 0
M  V30 16147 H 1527.29 0.664933 -7.5307 0
M  V30 16148 H 1528.56 1.85341 -7.57145 0
M  V30 16149 N 1532.79 1.52222 -0.408187 0
M  V30 16150 C 1534.02 2.06221 0.16743 0
M  V30 16151 C 1534.43 1.27832 1.3894 0
M  V30 16152 O 1533.79 0.329933 1.79493 0
M  V30 16153 C 1533.84 3.57758 0.518804 0
M  V30 16154 O 1533.56 4.33181 -0.654639 0
M  V30 16155 C 1535.06 4.28171 1.14825 0
M  V30 16156 H 1532.28 0.670677 0.0208054 0
M  V30 16157 H 1534.83 1.96136 -0.578868 0
M  V30 16158 H 1532.98 3.67854 1.215 0
M  V30 16159 H 1533.4 5.23252 -0.361558 0
M  V30 16160 H 1534.87 5.3538 1.34433 0
M  V30 16161 H 1535.35 3.84586 2.12108 0
M  V30 16162 H 1535.95 4.22441 0.492291 0
M  V30 16163 N 1534.27 0.138579 1.5699 0
M  V30 16164 C 1535.51 -0.51539 1.96142 0
M  V30 16165 C 1535.85 -1.65067 1.02306 0
M  V30 16166 O 1535.12 -1.94395 0.0638645 0
M  V30 16167 C 1535.4 -1.02956 3.45068 0
M  V30 16168 C 1535.26 0.103646 4.49681 0
M  V30 16169 C 1536.58 -1.91411 3.96295 0
M  V30 16170 H 1533.7 -0.185873 0.713176 0
M  V30 16171 H 1536.34 0.218103 1.88744 0
M  V30 16172 H 1534.49 -1.65462 3.51503 0
M  V30 16173 H 1536.16 0.739693 4.55331 0
M  V30 16174 H 1534.4 0.764014 4.27019 0
M  V30 16175 H 1535.07 -0.297688 5.51197 0
M  V30 16176 H 1537.55 -1.38746 3.92286 0
M  V30 16177 H 1536.43 -2.24298 5.0098 0
M  V30 16178 H 1536.69 -2.84793 3.38149 0
M  V30 16179 N 1535.75 -1.57019 -0.13521 0
M  V30 16180 C 1536.69 -2.0011 -1.18569 0
M  V30 16181 C 1537.69 -0.895372 -1.43804 0
M  V30 16182 O 1538.89 -1.08057 -1.43957 0
M  V30 16183 H 1535.27 -0.637176 -0.399388 0
M  V30 16184 H 1537.24 -2.87597 -0.795636 0
M  V30 16185 C 1535.99 -2.40769 -2.50849 0
M  V30 16186 H 1535.31 -3.25412 -2.32265 0
M  V30 16187 H 1536.75 -2.74733 -3.22951 0
M  V30 16188 C 1535.21 -1.26494 -3.12251 0
M  V30 16189 O 1535.74 -0.572067 -3.97606 0
M  V30 16190 N 1533.95 -1.02615 -2.7188 0
M  V30 16191 H 1533.49 -1.59136 -2.02567 0
M  V30 16192 H 1533.45 -0.263464 -3.13294 0
M  V30 16193 N 1537.22 0.404919 -1.52309 0
M  V30 16194 C 1538.15 1.50039 -1.78915 0
M  V30 16195 C 1539.14 1.57587 -0.640329 0
M  V30 16196 O 1540.32 1.72793 -0.886344 0
M  V30 16197 C 1537.45 2.87819 -1.94364 0
M  V30 16198 C 1536.4 2.9512 -3.09981 0
M  V30 16199 C 1535.73 4.35195 -3.10659 0
M  V30 16200 C 1537.03 2.66219 -4.4936 0
M  V30 16201 H 1538.72 1.28025 -2.70647 0
M  V30 16202 H 1536.27 0.61445 -1.30233 0
M  V30 16203 H 1538.22 3.64446 -2.11559 0
M  V30 16204 H 1536.95 3.11136 -0.993067 0
M  V30 16205 H 1535.61 2.20939 -2.92543 0
M  V30 16206 H 1535.25 4.55528 -2.13316 0
M  V30 16207 H 1534.95 4.41003 -3.88317 0
M  V30 16208 H 1536.48 5.1375 -3.29989 0
M  V30 16209 H 1537.89 3.32567 -4.66982 0
M  V30 16210 H 1536.29 2.83398 -5.28967 0
M  V30 16211 H 1537.36 1.61636 -4.57167 0
M  V30 16212 N 1538.7 1.43003 0.662408 0
M  V30 16213 C 1539.95 1.44346 1.4245 0
M  V30 16214 C 1540.28 0.064094 1.94094 0
M  V30 16215 O 1539.56 -0.913633 1.71706 0
M  V30 16216 C 1539.84 2.47822 2.61259 0
M  V30 16217 C 1539.69 3.94998 2.15166 0
M  V30 16218 C 1541.01 2.48139 3.63476 0
M  V30 16219 H 1538.13 0.525606 0.51663 0
M  V30 16220 H 1540.77 1.74495 0.751754 0
M  V30 16221 H 1538.92 2.22244 3.18653 0
M  V30 16222 H 1540.59 4.31601 1.62843 0
M  V30 16223 H 1538.84 4.0827 1.46622 0
M  V30 16224 H 1539.51 4.62998 3.00561 0
M  V30 16225 H 1541.98 2.70916 3.15823 0
M  V30 16226 H 1540.86 3.22498 4.44169 0
M  V30 16227 H 1541.12 1.51184 4.15447 0
M  V30 16228 N 1540.18 -0.899904 1.29381 0
M  V30 16229 C 1541.46 -1.63067 1.08021 0
M  V30 16230 C 1541.84 -2.0773 -0.375716 0
M  V30 16231 O 1541.19 -1.83288 -1.36447 0
M  V30 16232 C 1541.4 -2.81163 2.06757 0
M  V30 16233 C 1542.74 -3.51854 2.37664 0
M  V30 16234 O 1543.77 -2.91332 2.0495 0
M  V30 16235 O 1542.63 -4.60962 2.93558 0
M  V30 16236 H 1539.72 -0.71601 0.413835 0
M  V30 16237 H 1542.27 -0.947991 1.40752 0
M  V30 16238 H 1541.04 -2.45355 3.04822 0
M  V30 16239 H 1540.66 -3.57137 1.74754 0
M  V30 16240 N 1541.66 -1.11854 -1.11024 0
M  V30 16241 C 1542.9 -0.871362 -1.83126 0
M  V30 16242 C 1543.24 0.601437 -1.84652 0
M  V30 16243 O 1542.51 1.44427 -1.30273 0
M  V30 16244 C 1542.8 -1.4391 -3.30094 0
M  V30 16245 C 1542.65 -2.97983 -3.36937 0
M  V30 16246 C 1543.97 -1.09361 -4.26296 0
M  V30 16247 H 1541.09 -0.317994 -0.664867 0
M  V30 16248 H 1543.73 -1.38414 -1.3016 0
M  V30 16249 H 1541.88 -1.00297 -3.7533 0
M  V30 16250 H 1543.55 -3.50231 -3.00227 0
M  V30 16251 H 1541.79 -3.33827 -2.77023 0
M  V30 16252 H 1542.46 -3.32797 -4.40398 0
M  V30 16253 H 1544.94 -1.47018 -3.89262 0
M  V30 16254 H 1543.82 -1.51756 -5.27505 0
M  V30 16255 H 1544.08 -0.0049637 -4.421 0
M  V30 16256 N 1543.14 1.28707 -0.909517 0
M  V30 16257 C 1544.08 2.29396 -0.384756 0
M  V30 16258 C 1545.08 1.61179 0.521318 0
M  V30 16259 O 1546.28 1.7543 0.403032 0
M  V30 16260 H 1542.66 0.744518 -0.105814 0
M  V30 16261 H 1544.63 2.71089 -1.24714 0
M  V30 16262 C 1543.38 3.45792 0.363795 0
M  V30 16263 H 1542.7 3.98483 -0.324198 0
M  V30 16264 H 1544.14 4.18254 0.695681 0
M  V30 16265 C 1542.6 2.98075 1.57012 0
M  V30 16266 O 1543.13 3.00187 2.66929 0
M  V30 16267 N 1541.34 2.53787 1.41565 0
M  V30 16268 H 1540.88 2.52268 0.521415 0
M  V30 16269 H 1540.84 2.2222 2.22408 0
M  V30 16270 N 1544.61 0.673042 1.42506 0
M  V30 16271 C 1545.89 0.123606 1.95209 0
M  V30 16272 C 1546.27 -1.36118 1.61354 0
M  V30 16273 O 1545.62 -2.0965 0.908793 0
M  V30 16274 C 1545.83 0.39088 3.46804 0
M  V30 16275 C 1547.18 0.306445 4.23493 0
M  V30 16276 O 1548.2 0.32453 3.54719 0
M  V30 16277 O 1547.06 0.247127 5.45941 0
M  V30 16278 H 1544.15 0.00184868 0.826998 0
M  V30 16279 H 1546.7 0.74765 1.52343 0
M  V30 16280 H 1545.47 1.41951 3.64645 0
M  V30 16281 H 1545.1 -0.265259 3.96714 0
M  V30 16282 N 1546.09 -1.52004 0.416254 0
M  V30 16283 C 1547.06 -2.2579 -0.393882 0
M  V30 16284 C 1548.06 -1.28427 -0.967637 0
M  V30 16285 O 1549.25 -1.52311 -0.845396 0
M  V30 16286 C 1546.38 -3.03361 -1.55515 0
M  V30 16287 H 1547.57 -2.98835 0.252492 0
M  V30 16288 H 1545.12 -1.55384 0.168929 0
M  V30 16289 H 1545.86 -2.34682 -2.23818 0
M  V30 16290 H 1545.64 -3.74852 -1.15015 0
M  V30 16291 H 1547.13 -3.5931 -2.12805 0
M  V30 16292 N 1547.57 -0.146903 -1.56914 0
M  V30 16293 C 1548.52 0.809917 -2.18044 0
M  V30 16294 C 1549.51 1.25536 -1.13741 0
M  V30 16295 O 1550.72 1.22385 -1.31992 0
M  V30 16296 H 1547.09 0.279387 -0.698174 0
M  V30 16297 H 1549.06 0.270135 -2.97175 0
M  V30 16298 C 1547.81 2.03904 -2.81635 0
M  V30 16299 H 1547.14 1.70526 -3.61609 0
M  V30 16300 H 1548.58 2.68795 -3.2791 0
M  V30 16301 C 1547.04 2.84696 -1.80138 0
M  V30 16302 O 1547.57 3.81036 -1.27179 0
M  V30 16303 N 1545.77 2.49229 -1.49444 0
M  V30 16304 H 1545.32 1.70949 -1.92702 0
M  V30 16305 H 1545.28 3.03577 -0.817811 0
M  V30 16306 N 1549.05 1.57088 0.126881 0
M  V30 16307 C 1550.29 1.84709 0.837287 0
M  V30 16308 C 1550.63 0.731496 1.79897 0
M  V30 16309 O 1549.9 -0.263319 1.92709 0
M  V30 16310 C 1550.19 3.22893 1.59412 0
M  V30 16311 C 1550.04 4.45041 0.652578 0
M  V30 16312 C 1551.36 3.58547 2.5521 0
M  V30 16313 H 1548.48 0.671862 0.302937 0
M  V30 16314 H 1551.12 1.89727 0.101783 0
M  V30 16315 H 1549.27 3.18746 2.22112 0
M  V30 16316 H 1550.94 4.61287 0.0350382 0
M  V30 16317 H 1549.18 4.33785 -0.0364578 0
M  V30 16318 H 1549.85 5.38381 1.21861 0
M  V30 16319 H 1552.33 3.63434 2.0262 0
M  V30 16320 H 1551.21 4.56227 3.05202 0
M  V30 16321 H 1551.47 2.85552 3.37509 0
M  V30 16322 N 1550.53 -0.396836 1.52522 0
M  V30 16323 C 1551.76 -1.16235 1.70801 0
M  V30 16324 C 1552.16 -1.8442 0.422591 0
M  V30 16325 O 1551.51 -1.732 -0.612171 0
M  V30 16326 C 1551.57 -2.25922 2.79642 0
M  V30 16327 C 1551.23 -1.7777 4.21007 0
M  V30 16328 C 1552.23 -1.25873 5.04432 0
M  V30 16329 C 1549.92 -1.84231 4.67295 0
M  V30 16330 C 1551.91 -0.810733 6.32223 0
M  V30 16331 C 1549.6 -1.39043 5.95072 0
M  V30 16332 C 1550.59 -0.875508 6.77365 0
M  V30 16333 O 1550.28 -0.430197 8.02748 0
M  V30 16334 H 1550.01 -0.354799 0.575407 0
M  V30 16335 H 1552.57 -0.471344 1.99919 0
M  V30 16336 H 1550.8 -2.98424 2.45927 0
M  V30 16337 H 1552.49 -2.87629 2.86399 0
M  V30 16338 H 1553.25 -1.20244 4.69858 0
M  V30 16339 H 1549.13 -2.23253 4.03335 0
M  V30 16340 H 1552.68 -0.408137 6.96405 0
M  V30 16341 H 1548.57 -1.44354 6.29152 0
M  V30 16342 H 1549.34 -0.552389 8.16634 0
M  V30 16343 N 1552.01 -1.43353 -0.654814 0
M  V30 16344 C 1552.96 -1.44834 -1.76089 0
M  V30 16345 C 1553.94 -0.316999 -1.57746 0
M  V30 16346 O 1555.13 -0.560668 -1.67885 0
M  V30 16347 C 1552.26 -1.37256 -3.14668 0
M  V30 16348 C 1551.35 -2.55413 -3.38563 0
M  V30 16349 N 1551.74 -3.80769 -3.3294 0
M  V30 16350 C 1550.04 -2.50103 -3.69276 0
M  V30 16351 C 1550.74 -4.59366 -3.56872 0
M  V30 16352 N 1549.71 -3.90073 -3.78608 0
M  V30 16353 H 1553.51 -2.39628 -1.70164 0
M  V30 16354 H 1551.03 -1.37982 -0.856422 0
M  V30 16355 H 1553.03 -1.364 -3.93955 0
M  V30 16356 H 1551.69 -0.434805 -3.21776 0
M  V30 16357 H 1552.7 -4.13079 -3.12387 0
M  V30 16358 H 1549.37 -1.65007 -3.83509 0
M  V30 16359 H 1550.76 -5.68383 -3.58316 0
M  V30 16360 N 1553.48 0.89303 -1.29857 0
M  V30 16361 C 1554.39 2.03079 -1.17457 0
M  V30 16362 C 1555.41 1.73733 -0.0962941 0
M  V30 16363 O 1556.59 1.99005 -0.309667 0
M  V30 16364 C 1553.65 3.3589 -0.858991 0
M  V30 16365 C 1552.71 3.78711 -2.0218 0
M  V30 16366 C 1551.94 5.05184 -1.72118 0
M  V30 16367 O 1552.17 5.66738 -0.645276 0
M  V30 16368 O 1551.1 5.44218 -2.57119 0
M  V30 16369 H 1554.93 2.16465 -2.13017 0
M  V30 16370 H 1552.51 1.01774 -1.09373 0
M  V30 16371 H 1554.39 4.15582 -0.697852 0
M  V30 16372 H 1553.07 3.23631 0.0667756 0
M  V30 16373 H 1551.98 2.99758 -2.23822 0
M  V30 16374 H 1553.31 3.95563 -2.929 0
M  V30 16375 N 1554.96 1.12442 1.10429 0
M  V30 16376 C 1556.19 0.901291 1.85904 0
M  V30 16377 C 1556.6 -0.552928 1.8094 0
M  V30 16378 O 1555.94 -1.39404 1.19633 0
M  V30 16379 C 1556 1.29808 3.35246 0
M  V30 16380 C 1555.67 2.76361 3.63969 0
M  V30 16381 C 1556.67 3.74553 3.60564 0
M  V30 16382 C 1554.35 3.13268 3.92643 0
M  V30 16383 C 1556.34 5.07667 3.85426 0
M  V30 16384 C 1554.03 4.46564 4.17162 0
M  V30 16385 C 1555.03 5.43572 4.13544 0
M  V30 16386 O 1554.72 6.74465 4.37439 0
M  V30 16387 H 1554.45 0.321969 0.5944 0
M  V30 16388 H 1557 1.49816 1.40514 0
M  V30 16389 H 1555.23 0.644416 3.81293 0
M  V30 16390 H 1556.92 1.04908 3.92108 0
M  V30 16391 H 1557.69 3.47385 3.3845 0
M  V30 16392 H 1553.57 2.3837 3.94589 0
M  V30 16393 H 1557.11 5.83375 3.82518 0
M  V30 16394 H 1553.01 4.73461 4.38754 0
M  V30 16395 H 1553.78 6.80412 4.54953 0
M  V30 16396 N 1556.44 -1.28223 0.91633 0
M  V30 16397 C 1557.39 -2.27215 0.40521 0
M  V30 16398 C 1558.36 -1.57693 -0.521734 0
M  V30 16399 O 1559.54 -1.85577 -0.443369 0
M  V30 16400 C 1556.68 -3.43358 -0.346303 0
M  V30 16401 C 1555.79 -4.27622 0.613443 0
M  V30 16402 C 1554.93 -5.30969 -0.156775 0
M  V30 16403 C 1553.97 -6.06897 0.796418 0
M  V30 16404 N 1553.11 -7.02075 0.0595539 0
M  V30 16405 H 1557.95 -2.70312 1.2544 0
M  V30 16406 H 1555.48 -1.32933 0.629859 0
M  V30 16407 H 1557.44 -4.09492 -0.798231 0
M  V30 16408 H 1556.07 -3.01244 -1.15982 0
M  V30 16409 H 1555.12 -3.61508 1.1839 0
M  V30 16410 H 1556.43 -4.80397 1.34239 0
M  V30 16411 H 1555.59 -6.02999 -0.669146 0
M  V30 16412 H 1554.33 -4.78968 -0.918755 0
M  V30 16413 H 1553.33 -5.33716 1.32014 0
M  V30 16414 H 1554.56 -6.60987 1.558 0
M  V30 16415 H 1552.5 -6.5242 -0.684388 0
M  V30 16416 H 1552.42 -7.52484 0.728275 0
M  V30 16417 H 1553.69 -7.78299 -0.432538 0
M  V30 16418 N 1557.92 -0.68059 -1.42147 0
M  V30 16419 C 1559.15 -0.213529 -2.05494 0
M  V30 16420 C 1559.56 1.13665 -1.51251 0
M  V30 16421 O 1558.9 1.71838 -0.649422 0
M  V30 16422 C 1558.96 -0.0774256 -3.59417 0
M  V30 16423 C 1558.62 -1.35724 -4.3638 0
M  V30 16424 C 1559.62 -2.29195 -4.66654 0
M  V30 16425 C 1557.31 -1.60645 -4.75918 0
M  V30 16426 C 1559.3 -3.45858 -5.35407 0
M  V30 16427 C 1556.99 -2.77597 -5.44411 0
M  V30 16428 C 1557.99 -3.70027 -5.74081 0
M  V30 16429 O 1557.67 -4.84933 -6.41167 0
M  V30 16430 H 1557.41 -0.100043 -0.668556 0
M  V30 16431 H 1559.96 -0.929384 -1.83171 0
M  V30 16432 H 1558.19 0.694062 -3.8042 0
M  V30 16433 H 1559.88 0.350509 -4.04384 0
M  V30 16434 H 1560.64 -2.11194 -4.36603 0
M  V30 16435 H 1556.52 -0.8957 -4.52215 0
M  V30 16436 H 1560.07 -4.18023 -5.58483 0
M  V30 16437 H 1555.96 -2.95521 -5.73879 0
M  V30 16438 H 1556.73 -4.84552 -6.5966 0
M  V30 16439 N 1559.4 1.51781 -0.424309 0
M  V30 16440 C 1560.64 2.01969 0.146492 0
M  V30 16441 C 1560.97 1.30918 1.43843 0
M  V30 16442 O 1560.23 0.408705 1.91385 0
M  V30 16443 C 1560.52 3.54855 0.42574 0
M  V30 16444 C 1560.19 4.44123 -0.778814 0
M  V30 16445 C 1558.85 4.68242 -1.10918 0
M  V30 16446 C 1561.2 4.96579 -1.58299 0
M  V30 16447 C 1558.53 5.42063 -2.24464 0
M  V30 16448 C 1560.88 5.71645 -2.70934 0
M  V30 16449 C 1559.55 5.94031 -3.04439 0
M  V30 16450 H 1558.82 0.739059 0.0536052 0
M  V30 16451 H 1561.47 1.82856 -0.568838 0
M  V30 16452 H 1559.77 3.72229 1.22282 0
M  V30 16453 H 1561.47 3.91212 0.880598 0
M  V30 16454 H 1558.06 4.25539 -0.511363 0
M  V30 16455 H 1562.24 4.77841 -1.34098 0
M  V30 16456 H 1557.5 5.57614 -2.50753 0
M  V30 16457 H 1561.67 6.11284 -3.33624 0
M  V30 16458 H 1559.3 6.51014 -3.92537 0
M  V30 16459 N 1560.87 0.155222 1.56834 0
M  V30 16460 C 1562.11 -0.496476 1.98279 0
M  V30 16461 C 1562.48 -1.61495 1.03843 0
M  V30 16462 O 1563.68 -2.32808 1.34365 0
M  V30 16463 C 1561.95 -0.982022 3.43644 0
M  V30 16464 S 1563.51 -1.63717 4.07115 0
M  V30 16465 H 1560.33 -0.160256 0.692704 0
M  V30 16466 H 1562.93 0.248881 1.93909 0
M  V30 16467 H 1561.63 -0.157344 4.10098 0
M  V30 16468 H 1561.16 -1.7618 3.51744 0
M  V30 16469 H 1563.18 -2.92473 4.00841 0
M  V30 16470 N 1562.35 -1.57153 -0.118549 0
M  V30 16471 C 1563.58 -1.89434 -0.844355 0
M  V30 16472 C 1564 -0.747203 -1.72622 0
M  V30 16473 O 1563.36 0.302252 -1.78763 0
M  V30 16474 C 1563.41 -3.20466 -1.65331 0
M  V30 16475 O 1562.51 -3.06403 -2.76027 0
M  V30 16476 H 1561.85 -0.621601 -0.23347 0
M  V30 16477 H 1564.38 -2.04351 -0.100811 0
M  V30 16478 H 1564.39 -3.53197 -2.04245 0
M  V30 16479 H 1563.07 -4.03551 -1.00594 0
M  V30 16480 H 1561.64 -2.85139 -2.40312 0
M  V30 16481 N 1563.83 0.388742 -1.5273 0
M  V30 16482 C 1565.05 1.15946 -1.71963 0
M  V30 16483 C 1565.48 1.82949 -0.437173 0
M  V30 16484 O 1564.84 1.70834 0.607072 0
M  V30 16485 C 1564.89 2.18298 -2.87016 0
M  V30 16486 O 1563.99 3.24891 -2.54008 0
M  V30 16487 H 1563.33 0.337526 -0.571815 0
M  V30 16488 H 1565.86 0.452957 -1.99523 0
M  V30 16489 H 1565.87 2.6229 -3.12519 0
M  V30 16490 H 1564.55 1.68917 -3.80052 0
M  V30 16491 H 1563.12 2.86034 -2.39246 0
M  V30 16492 N 1565.31 1.43698 0.647203 0
M  V30 16493 C 1566.54 1.48869 1.43254 0
M  V30 16494 C 1566.95 0.107061 1.88897 0
M  V30 16495 O 1566.29 -0.894189 1.60468 0
M  V30 16496 C 1566.35 2.37755 2.69653 0
M  V30 16497 C 1566.01 3.85197 2.45911 0
M  V30 16498 C 1567.01 4.7615 2.08752 0
M  V30 16499 C 1564.7 4.29744 2.60049 0
M  V30 16500 C 1566.69 6.09647 1.86037 0
M  V30 16501 C 1564.38 5.63293 2.36949 0
M  V30 16502 C 1565.38 6.53061 1.99999 0
M  V30 16503 O 1565.06 7.8414 1.77144 0
M  V30 16504 H 1564.8 0.507694 0.446343 0
M  V30 16505 H 1567.35 1.89172 0.800205 0
M  V30 16506 H 1565.58 1.9235 3.35467 0
M  V30 16507 H 1567.27 2.3406 3.31618 0
M  V30 16508 H 1568.03 4.4301 1.974 0
M  V30 16509 H 1563.91 3.60142 2.87782 0
M  V30 16510 H 1567.46 6.79676 1.57121 0
M  V30 16511 H 1563.35 5.95998 2.47905 0
M  V30 16512 H 1564.12 7.95778 1.91521 0
M  V30 16513 N 1566.79 -0.886131 1.30328 0
M  V30 16514 C 1567.7 -2.02453 1.18532 0
M  V30 16515 C 1568.71 -1.7368 0.105506 0
M  V30 16516 O 1569.89 -1.98838 0.320217 0
M  V30 16517 C 1566.95 -3.3543 0.876792 0
M  V30 16518 C 1566.01 -3.77633 2.04185 0
M  V30 16519 C 1565.25 -5.04264 1.74795 0
M  V30 16520 O 1565.47 -5.66388 0.675323 0
M  V30 16521 O 1564.4 -5.42847 2.60001 0
M  V30 16522 H 1568.23 -2.15333 2.14162 0
M  V30 16523 H 1565.82 -1.01193 1.09911 0
M  V30 16524 H 1567.7 -4.15206 0.719882 0
M  V30 16525 H 1566.37 -3.23662 -0.0496117 0
M  V30 16526 H 1565.28 -2.98567 2.25408 0
M  V30 16527 H 1566.61 -3.94004 2.94994 0
M  V30 16528 N 1568.26 -1.13026 -1.09832 0
M  V30 16529 C 1569.49 -0.911137 -1.85423 0
M  V30 16530 C 1569.9 0.543325 -1.81231 0
M  V30 16531 O 1569.25 1.38768 -1.20371 0
M  V30 16532 C 1569.31 -1.31584 -3.34553 0
M  V30 16533 C 1568.97 -2.78288 -3.62498 0
M  V30 16534 C 1569.97 -3.7646 -3.58572 0
M  V30 16535 C 1567.65 -3.15346 -3.90976 0
M  V30 16536 C 1569.65 -5.09703 -3.82729 0
M  V30 16537 C 1567.33 -4.4877 -4.14788 0
M  V30 16538 C 1568.33 -5.45758 -4.10655 0
M  V30 16539 O 1568.02 -6.76775 -4.33856 0
M  V30 16540 H 1567.75 -0.325117 -0.592684 0
M  V30 16541 H 1570.31 -1.50559 -1.39718 0
M  V30 16542 H 1568.54 -0.664628 -3.80946 0
M  V30 16543 H 1570.23 -1.06986 -3.91547 0
M  V30 16544 H 1570.99 -3.49175 -3.36603 0
M  V30 16545 H 1566.87 -2.40459 -3.9332 0
M  V30 16546 H 1570.41 -5.85395 -3.79418 0
M  V30 16547 H 1566.31 -4.75781 -4.36237 0
M  V30 16548 H 1567.08 -6.82815 -4.51338 0
M  V30 16549 N 1569.74 1.27735 -0.923117 0
M  V30 16550 C 1571.16 1.46952 -0.622666 0
M  V30 16551 C 1571.36 1.8364 0.829384 0
M  V30 16552 O 1570.41 1.94705 1.60767 0
M  V30 16553 C 1571.73 2.56545 -1.56861 0
M  V30 16554 C 1573.28 2.70408 -1.57634 0
M  V30 16555 C 1573.75 3.83154 -2.50913 0
M  V30 16556 N 1575.24 3.90521 -2.49093 0
M  V30 16557 C 1575.98 4.77167 -3.17962 0
M  V30 16558 N 1575.47 5.68334 -3.96193 0
M  V30 16559 N 1577.27 4.70857 -3.07002 0
M  V30 16560 H 1569.42 1.02205 -1.86193 0
M  V30 16561 H 1571.68 0.509982 -0.799138 0
M  V30 16562 H 1571.39 2.3637 -2.60427 0
M  V30 16563 H 1571.26 3.53839 -1.30681 0
M  V30 16564 H 1573.65 2.89967 -0.548005 0
M  V30 16565 H 1573.73 1.73615 -1.8786 0
M  V30 16566 H 1573.37 3.64349 -3.53853 0
M  V30 16567 H 1573.3 4.79365 -2.17984 0
M  V30 16568 H 1575.79 3.25329 -1.92274 0
M  V30 16569 H 1576.11 6.31298 -4.45738 0
M  V30 16570 H 1574.45 5.68144 -4.00297 0
M  V30 16571 H 1577.64 3.98629 -2.45382 0
M  V30 16572 H 1577.81 5.38166 -3.60945 0
M  V30 16573 N 1571.22 0.688118 1.41784 0
M  V30 16574 C 1572.47 0.213085 2.00571 0
M  V30 16575 C 1572.78 -1.19176 1.55101 0
M  V30 16576 O 1573.99 -1.76387 2.06397 0
M  V30 16577 C 1572.44 0.330075 3.58383 0
M  V30 16578 C 1572.05 1.73981 4.12837 0
M  V30 16579 C 1573.8 -0.0855651 4.24414 0
M  V30 16580 C 1571.7 1.80886 5.63058 0
M  V30 16581 H 1570.63 0.075906 0.750169 0
M  V30 16582 H 1573.28 0.855236 1.62351 0
M  V30 16583 H 1571.67 -0.380199 3.94171 0
M  V30 16584 H 1572.84 2.47825 3.88484 0
M  V30 16585 H 1571.16 2.10447 3.59306 0
M  V30 16586 H 1573.75 -0.0543142 5.34672 0
M  V30 16587 H 1574.1 -1.12307 4.00865 0
M  V30 16588 H 1574.63 0.574169 3.93635 0
M  V30 16589 H 1571.37 2.82663 5.91424 0
M  V30 16590 H 1570.89 1.11417 5.89361 0
M  V30 16591 H 1572.57 1.56835 6.27704 0
M  V30 16592 N 1572.7 -1.51554 0.432352 0
M  V30 16593 C 1573.92 -2.06947 -0.136995 0
M  V30 16594 C 1574.35 -1.29817 -1.36122 0
M  V30 16595 O 1573.71 -0.334733 -1.78183 0
M  V30 16596 C 1573.75 -3.57871 -0.442785 0
M  V30 16597 O 1572.86 -3.82966 -1.53007 0
M  V30 16598 H 1572.2 -0.663988 -0.00405152 0
M  V30 16599 H 1574.73 -1.95225 0.612249 0
M  V30 16600 H 1574.74 -4.02042 -0.694694 0
M  V30 16601 H 1573.41 -4.13436 0.452013 0
M  V30 16602 H 1571.99 -3.50661 -1.26851 0
M  V30 16603 N 1574.18 -0.163538 -1.56749 0
M  V30 16604 C 1575.4 0.489888 -2.01017 0
M  V30 16605 C 1575.82 1.57327 -1.04373 0
M  V30 16606 O 1575.18 1.82449 -0.0433414 0
M  V30 16607 C 1575.23 1.07537 -3.45135 0
M  V30 16608 O 1574.95 0.0352465 -4.38086 0
M  V30 16609 C 1576.45 1.80779 -4.04764 0
M  V30 16610 H 1573.67 0.126095 -0.659046 0
M  V30 16611 H 1576.21 -0.262982 -2.02802 0
M  V30 16612 H 1574.37 1.77877 -3.44149 0
M  V30 16613 H 1574.78 0.466426 -5.22422 0
M  V30 16614 H 1576.26 2.17014 -5.07552 0
M  V30 16615 H 1576.73 2.6999 -3.46413 0
M  V30 16616 H 1577.34 1.15098 -4.09429 0
M  V30 16617 N 1575.65 1.57214 0.110213 0
M  V30 16618 C 1576.93 1.76298 0.847249 0
M  V30 16619 C 1577.31 0.741294 1.97656 0
M  V30 16620 O 1576.66 -0.233104 2.27308 0
M  V30 16621 C 1576.87 3.21588 1.35582 0
M  V30 16622 C 1578.22 3.8434 1.80465 0
M  V30 16623 O 1579.24 3.25244 1.45241 0
M  V30 16624 O 1578.1 4.88231 2.45546 0
M  V30 16625 H 1575.19 0.722167 0.402993 0
M  V30 16626 H 1577.74 1.69443 0.0932694 0
M  V30 16627 H 1576.51 3.87472 0.54599 0
M  V30 16628 H 1576.14 3.33015 2.17225 0
M  V30 16629 N 1577.13 -0.380637 1.52934 0
M  V30 16630 C 1578.36 -1.14417 1.72024 0
M  V30 16631 C 1578.77 -1.83962 0.442128 0
M  V30 16632 O 1578.11 -1.73839 -0.593766 0
M  V30 16633 C 1578.18 -2.22944 2.82022 0
M  V30 16634 C 1577.84 -1.73295 4.22869 0
M  V30 16635 C 1578.84 -1.20515 5.05739 0
M  V30 16636 C 1576.52 -1.79264 4.69222 0
M  V30 16637 C 1578.52 -0.743632 6.33047 0
M  V30 16638 C 1576.2 -1.32724 5.96513 0
M  V30 16639 C 1577.2 -0.803615 6.78256 0
M  V30 16640 O 1576.89 -0.34503 8.03159 0
M  V30 16641 H 1576.62 -0.348676 0.579138 0
M  V30 16642 H 1579.17 -0.450113 2.00407 0
M  V30 16643 H 1577.4 -2.95798 2.49079 0
M  V30 16644 H 1579.09 -2.84575 2.89434 0
M  V30 16645 H 1579.86 -1.15254 4.71107 0
M  V30 16646 H 1575.74 -2.18962 4.0568 0
M  V30 16647 H 1579.28 -0.334251 6.96799 0
M  V30 16648 H 1575.18 -1.37673 6.30648 0
M  V30 16649 H 1575.95 -0.465743 8.17174 0
M  V30 16650 N 1578.61 -1.44039 -0.639573 0
M  V30 16651 C 1579.86 -1.46594 -1.40136 0
M  V30 16652 C 1580.19 -0.0949646 -1.93968 0
M  V30 16653 O 1579.46 0.886201 -1.73138 0
M  V30 16654 C 1579.75 -2.51947 -2.57283 0
M  V30 16655 C 1579.6 -3.98371 -2.08855 0
M  V30 16656 C 1580.92 -2.53891 -3.59482 0
M  V30 16657 H 1578.04 -0.533759 -0.508203 0
M  V30 16658 H 1580.68 -1.75669 -0.723898 0
M  V30 16659 H 1578.83 -2.27285 -3.15077 0
M  V30 16660 H 1580.5 -4.34137 -1.55956 0
M  V30 16661 H 1578.75 -4.10551 -1.40109 0
M  V30 16662 H 1579.42 -4.67721 -2.93157 0
M  V30 16663 H 1581.89 -2.75906 -3.11473 0
M  V30 16664 H 1580.77 -3.29524 -4.38982 0
M  V30 16665 H 1581.03 -1.57774 -4.12989 0
M  V30 16666 N 1580.09 0.879207 -1.30796 0
M  V30 16667 C 1581.34 1.62828 -1.19715 0
M  V30 16668 C 1581.66 1.93429 0.247031 0
M  V30 16669 O 1580.93 1.57478 1.16522 0
M  V30 16670 H 1579.51 0.603607 -0.440077 0
M  V30 16671 H 1582.17 1.05309 -1.64 0
M  V30 16672 H 1581.27 2.57591 -1.76219 0
M  V30 16673 N 1581.57 1.13606 1.09231 0
M  V30 16674 C 1582.81 0.910333 1.81891 0
M  V30 16675 C 1583.17 -0.557482 1.84146 0
M  V30 16676 O 1582.46 -1.40735 1.30016 0
M  V30 16677 C 1582.66 1.43456 3.27345 0
M  V30 16678 C 1582.48 2.95182 3.39261 0
M  V30 16679 C 1581.25 3.63546 3.50945 0
M  V30 16680 C 1583.45 3.93105 3.31621 0
M  V30 16681 N 1581.43 5.03265 3.51564 0
M  V30 16682 C 1582.81 5.19026 3.39133 0
M  V30 16683 C 1584.86 3.85343 3.15302 0
M  V30 16684 C 1583.56 6.38094 3.32007 0
M  V30 16685 C 1585.59 5.03947 3.09502 0
M  V30 16686 C 1584.95 6.28733 3.17608 0
M  V30 16687 H 1581.05 0.386545 0.679785 0
M  V30 16688 H 1583.63 1.44465 1.30529 0
M  V30 16689 H 1581.81 0.927132 3.77172 0
M  V30 16690 H 1583.54 1.14962 3.88028 0
M  V30 16691 H 1580.29 3.14072 3.54479 0
M  V30 16692 H 1580.72 5.76179 3.55453 0
M  V30 16693 H 1585.36 2.8975 3.07904 0
M  V30 16694 H 1583.08 7.3394 3.38168 0
M  V30 16695 H 1586.66 4.99683 2.98008 0
M  V30 16696 H 1585.54 7.18967 3.13139 0
M  V30 16697 N 1583.05 -1.27244 0.929878 0
M  V30 16698 C 1584.29 -1.94557 0.572306 0
M  V30 16699 C 1584.62 -1.72886 -0.884542 0
M  V30 16700 O 1583.9 -1.0592 -1.63129 0
M  V30 16701 C 1584.18 -3.48629 0.901675 0
M  V30 16702 C 1584.04 -3.79633 2.41244 0
M  V30 16703 C 1585.35 -4.38195 0.409093 0
M  V30 16704 H 1582.47 -0.706627 0.209397 0
M  V30 16705 H 1585.12 -1.50321 1.16205 0
M  V30 16706 H 1583.27 -3.86437 0.399791 0
M  V30 16707 H 1584.94 -3.51604 2.98618 0
M  V30 16708 H 1583.18 -3.26108 2.8607 0
M  V30 16709 H 1583.85 -4.87284 2.59342 0
M  V30 16710 H 1586.33 -4.07548 0.839256 0
M  V30 16711 H 1585.2 -5.44814 0.668482 0
M  V30 16712 H 1585.46 -4.36669 -0.690861 0
M  V30 16713 N 1584.52 -0.695628 -1.41417 0
M  V30 16714 C 1585.75 -0.235654 -2.05554 0
M  V30 16715 C 1586.17 1.11513 -1.52349 0
M  V30 16716 O 1585.52 1.69688 -0.671743 0
M  V30 16717 C 1585.57 -0.184809 -3.61027 0
M  V30 16718 O 1585.3 -1.48224 -4.12264 0
M  V30 16719 C 1586.8 0.296147 -4.4231 0
M  V30 16720 H 1584.02 -0.109648 -0.661981 0
M  V30 16721 H 1586.56 -0.948227 -1.81187 0
M  V30 16722 H 1584.72 0.478588 -3.84432 0
M  V30 16723 H 1585.13 -1.36939 -5.06308 0
M  V30 16724 H 1586.6 0.280597 -5.51286 0
M  V30 16725 H 1587.08 1.33503 -4.18418 0
M  V30 16726 H 1587.69 -0.336253 -4.23969 0
M  V30 16727 N 1586 1.51322 -0.440383 0
M  V30 16728 C 1586.95 2.2941 0.383883 0
M  V30 16729 C 1587.94 1.35388 1.01816 0
M  V30 16730 O 1589.15 1.52716 0.952775 0
M  V30 16731 H 1585.52 0.738354 0.142611 0
M  V30 16732 H 1587.5 2.96933 -0.295532 0
M  V30 16733 C 1586.24 3.15055 1.47091 0
M  V30 16734 H 1585.57 3.87292 0.992214 0
M  V30 16735 H 1587.01 3.72744 2.02084 0
M  V30 16736 C 1585.47 2.30628 2.45586 0
M  V30 16737 O 1586 1.96801 3.50189 0
M  V30 16738 N 1584.2 1.93792 2.16548 0
M  V30 16739 H 1583.75 2.215 1.31512 0
M  V30 16740 H 1583.71 1.37601 2.82689 0
M  V30 16741 N 1587.48 0.171848 1.5666 0
M  V30 16742 C 1588.73 -0.473669 1.97191 0
M  V30 16743 C 1589.06 -1.6286 1.05784 0
M  V30 16744 O 1588.33 -1.94216 0.105084 0
M  V30 16745 C 1588.62 -0.956134 3.47174 0
M  V30 16746 C 1588.47 0.199007 4.4936 0
M  V30 16747 C 1589.79 -1.82962 4.00266 0
M  V30 16748 H 1586.91 -0.170704 0.716958 0
M  V30 16749 H 1589.55 0.25809 1.88239 0
M  V30 16750 H 1587.7 -1.57969 3.54934 0
M  V30 16751 H 1589.37 0.836109 4.53659 0
M  V30 16752 H 1587.61 0.85442 4.25302 0
M  V30 16753 H 1588.29 -0.180704 5.51704 0
M  V30 16754 H 1590.76 -1.30394 3.95141 0
M  V30 16755 H 1589.64 -2.13621 5.05625 0
M  V30 16756 H 1589.9 -2.77557 3.44114 0
M  V30 16757 N 1588.96 -1.5727 -0.101874 0
M  V30 16758 C 1590.18 -1.90319 -0.824215 0
M  V30 16759 C 1590.61 -0.765469 -1.7182 0
M  V30 16760 O 1589.97 0.283275 -1.79073 0
M  V30 16761 C 1590.01 -3.22201 -1.61922 0
M  V30 16762 O 1589.12 -3.09313 -2.72762 0
M  V30 16763 H 1588.46 -0.624042 -0.226864 0
M  V30 16764 H 1590.99 -2.04447 -0.0791314 0
M  V30 16765 H 1591 -3.55343 -2.00487 0
M  V30 16766 H 1589.67 -4.04596 -0.963078 0
M  V30 16767 H 1588.25 -2.87672 -2.37274 0
M  V30 16768 N 1590.44 0.372521 -1.53134 0
M  V30 16769 C 1591.68 1.11589 -1.6898 0
M  V30 16770 C 1592.01 1.89503 -0.438049 0
M  V30 16771 O 1591.27 1.86911 0.579891 0
M  V30 16772 C 1591.56 2.10742 -2.88656 0
M  V30 16773 C 1591.23 1.49361 -4.25443 0
M  V30 16774 C 1589.89 1.32348 -4.62642 0
M  V30 16775 C 1592.24 1.04889 -5.10537 0
M  V30 16776 C 1589.57 0.694368 -5.82577 0
M  V30 16777 C 1591.92 0.433809 -6.31111 0
M  V30 16778 C 1590.59 0.251118 -6.67027 0
M  V30 16779 H 1589.86 0.408333 -0.618341 0
M  V30 16780 H 1592.51 0.398507 -1.87308 0
M  V30 16781 H 1590.81 2.88759 -2.64812 0
M  V30 16782 H 1592.51 2.682 -2.98111 0
M  V30 16783 H 1589.1 1.63594 -3.9615 0
M  V30 16784 H 1593.28 1.16829 -4.82353 0
M  V30 16785 H 1588.54 0.541171 -6.09 0
M  V30 16786 H 1592.71 0.0809859 -6.96353 0
M  V30 16787 H 1590.34 -0.23844 -7.59826 0
M  V30 16788 N 1591.91 1.44376 0.631925 0
M  V30 16789 C 1593.16 1.48329 1.39176 0
M  V30 16790 C 1593.51 0.113879 1.92063 0
M  V30 16791 O 1592.81 -0.870764 1.7067 0
M  V30 16792 C 1593 2.47828 2.57519 0
M  V30 16793 C 1592.83 3.94309 2.16218 0
M  V30 16794 C 1591.6 4.62495 2.03534 0
M  V30 16795 C 1593.8 4.83546 1.75179 0
M  V30 16796 N 1591.78 5.93804 1.55788 0
M  V30 16797 C 1593.15 6.04293 1.38672 0
M  V30 16798 C 1595.21 4.70618 1.62553 0
M  V30 16799 C 1593.91 7.13546 0.908012 0
M  V30 16800 C 1595.94 5.79895 1.16086 0
M  V30 16801 C 1595.3 6.99782 0.805289 0
M  V30 16802 H 1591.4 0.597818 0.504121 0
M  V30 16803 H 1593.98 1.80697 0.725026 0
M  V30 16804 H 1592.15 2.17452 3.21822 0
M  V30 16805 H 1593.88 2.42082 3.24312 0
M  V30 16806 H 1590.64 4.17298 2.23963 0
M  V30 16807 H 1591.06 6.63562 1.34216 0
M  V30 16808 H 1595.7 3.78367 1.88675 0
M  V30 16809 H 1593.42 8.05607 0.634297 0
M  V30 16810 H 1597.01 5.71918 1.06776 0
M  V30 16811 H 1595.89 7.82901 0.451239 0
M  V30 16812 N 1593.39 -0.872258 1.31261 0
M  V30 16813 C 1594.67 -1.60739 1.11456 0
M  V30 16814 C 1595.05 -2.0848 -0.331569 0
M  V30 16815 O 1594.4 -1.86141 -1.32528 0
M  V30 16816 C 1594.61 -2.76714 2.12674 0
M  V30 16817 C 1595.95 -3.46734 2.45074 0
M  V30 16818 O 1596.98 -2.86919 2.11083 0
M  V30 16819 O 1595.84 -4.54632 3.0327 0
M  V30 16820 H 1592.93 -0.70707 0.428929 0
M  V30 16821 H 1595.48 -0.917922 1.42732 0
M  V30 16822 H 1594.25 -2.38834 3.09958 0
M  V30 16823 H 1593.87 -3.5335 1.8229 0
M  V30 16824 N 1594.87 -1.14184 -1.08627 0
M  V30 16825 C 1596.28 -0.920108 -1.62453 0
M  V30 16826 C 1596.63 0.541577 -1.88577 0
M  V30 16827 O 1595.76 1.41002 -1.64157 0
M  V30 16828 C 1596.35 -1.6638 -2.95132 0
M  V30 16829 C 1594.91 -1.48771 -3.45752 0
M  V30 16830 C 1594.06 -1.68774 -2.20024 0
M  V30 16831 H 1597.01 -1.29396 -0.91882 0
M  V30 16832 H 1597.03 -1.12568 -3.63468 0
M  V30 16833 H 1596.54 -2.72759 -2.76087 0
M  V30 16834 H 1594.64 -0.44729 -3.69905 0
M  V30 16835 H 1594.76 -2.25619 -4.2265 0
M  V30 16836 H 1593.12 -1.11321 -2.29084 0
M  V30 16837 H 1593.9 -2.76491 -2.03489 0
M  V30 16838 N 1596.35 1.26749 -0.936613 0
M  V30 16839 C 1597.28 2.25684 -0.399941 0
M  V30 16840 C 1598.29 1.55739 0.474271 0
M  V30 16841 O 1599.48 1.76203 0.285454 0
M  V30 16842 C 1596.58 3.35969 0.444733 0
M  V30 16843 C 1595.76 4.35453 -0.412258 0
M  V30 16844 C 1594.81 5.24889 0.37123 0
M  V30 16845 O 1593.84 5.68758 -0.224162 0
M  V30 16846 N 1595.04 5.55993 1.66889 0
M  V30 16847 H 1597.81 2.72368 -1.25043 0
M  V30 16848 H 1595.37 1.40468 -0.805 0
M  V30 16849 H 1597.36 3.92751 0.976159 0
M  V30 16850 H 1595.93 2.88816 1.196 0
M  V30 16851 H 1595.15 3.77808 -1.12493 0
M  V30 16852 H 1596.44 4.9892 -0.997822 0
M  V30 16853 H 1595.84 5.22224 2.17481 0
M  V30 16854 H 1594.39 6.15436 2.14666 0
M  V30 16855 N 1597.83 0.703118 1.41046 0
M  V30 16856 C 1598.77 0.0312802 2.32579 0
M  V30 16857 C 1599.77 -0.760463 1.51371 0
M  V30 16858 O 1600.97 -0.665235 1.67256 0
M  V30 16859 H 1597.35 -0.00868655 0.75195 0
M  V30 16860 H 1599.32 0.820195 2.86907 0
M  V30 16861 C 1598.07 -0.885639 3.36232 0
M  V30 16862 H 1597.39 -0.285819 3.98777 0
M  V30 16863 H 1598.83 -1.3239 4.02801 0
M  V30 16864 C 1597.29 -2.00533 2.70718 0
M  V30 16865 O 1597.82 -3.09491 2.56082 0
M  V30 16866 N 1596.03 -1.78528 2.29295 0
M  V30 16867 H 1595.57 -0.899139 2.41399 0
M  V30 16868 H 1595.53 -2.53627 1.85797 0
M  V30 16869 N 1599.3 -1.51086 0.448402 0
M  V30 16870 C 1600.25 -2.29611 -0.371711 0
M  V30 16871 C 1601.25 -1.35926 -1.01096 0
M  V30 16872 O 1602.45 -1.53219 -0.944663 0
M  V30 16873 H 1598.83 -0.739099 -0.138694 0
M  V30 16874 H 1600.8 -2.96772 0.311275 0
M  V30 16875 C 1599.55 -3.1583 -1.45418 0
M  V30 16876 H 1598.87 -3.87813 -0.971661 0
M  V30 16877 H 1600.31 -3.7381 -2.00105 0
M  V30 16878 C 1598.77 -2.31927 -2.44359 0
M  V30 16879 O 1599.3 -1.98655 -3.4914 0
M  V30 16880 N 1597.51 -1.94938 -2.15517 0
M  V30 16881 H 1597.05 -2.22195 -1.30335 0
M  V30 16882 H 1597.01 -1.39098 -2.81956 0
M  V30 16883 N 1600.78 -0.180154 -1.56567 0
M  V30 16884 C 1601.69 0.758959 -2.21984 0
M  V30 16885 C 1602.71 1.24631 -1.21422 0
M  V30 16886 O 1603.88 1.29659 -1.54112 0
M  V30 16887 C 1600.95 1.96744 -2.85469 0
M  V30 16888 C 1600.01 1.52612 -4.01258 0
M  V30 16889 C 1599.24 2.677 -4.61706 0
M  V30 16890 O 1599.47 3.84799 -4.21054 0
M  V30 16891 O 1598.4 2.41269 -5.51428 0
M  V30 16892 H 1602.23 0.231919 -3.02813 0
M  V30 16893 H 1599.81 0.0484552 -1.49321 0
M  V30 16894 H 1601.69 2.67404 -3.25689 0
M  V30 16895 H 1600.37 2.48337 -2.0763 0
M  V30 16896 H 1599.28 0.78877 -3.6569 0
M  V30 16897 H 1600.61 1.05701 -4.80716 0
M  V30 16898 N 1602.26 1.57322 0.0935319 0
M  V30 16899 C 1603.22 2.0121 1.0976 0
M  V30 16900 C 1604.22 0.905839 1.32858 0
M  V30 16901 O 1605.41 1.17128 1.28945 0
M  V30 16902 C 1602.55 2.37414 2.44638 0
M  V30 16903 H 1603.74 2.91134 0.719809 0
M  V30 16904 H 1601.29 1.52588 0.338625 0
M  V30 16905 H 1602.03 1.50449 2.8729 0
M  V30 16906 H 1601.81 3.1812 2.2922 0
M  V30 16907 H 1603.3 2.7202 3.16851 0
M  V30 16908 N 1603.74 -0.364395 1.53329 0
M  V30 16909 C 1604.98 -1.10855 1.6982 0
M  V30 16910 C 1605.32 -1.88931 0.449291 0
M  V30 16911 O 1604.59 -1.8646 -0.553437 0
M  V30 16912 C 1604.88 -2.06681 2.94881 0
M  V30 16913 C 1604.73 -1.32206 4.29932 0
M  V30 16914 C 1606.05 -3.06788 3.15546 0
M  V30 16915 H 1603.17 -0.401626 0.617953 0
M  V30 16916 H 1605.81 -0.389244 1.8597 0
M  V30 16917 H 1603.96 -2.68019 2.81244 0
M  V30 16918 H 1605.63 -0.73642 4.55384 0
M  V30 16919 H 1603.87 -0.623916 4.2929 0
M  V30 16920 H 1604.54 -2.0235 5.13574 0
M  V30 16921 H 1607.02 -2.55554 3.28377 0
M  V30 16922 H 1605.9 -3.71059 4.04483 0
M  V30 16923 H 1606.16 -3.77023 2.3088 0
M  V30 16924 N 1605.22 -1.44709 -0.62426 0
M  V30 16925 C 1606.16 -1.52413 -1.75707 0
M  V30 16926 C 1607.16 -0.395303 -1.64723 0
M  V30 16927 O 1608.36 -0.570535 -1.70719 0
M  V30 16928 H 1604.74 -0.478401 -0.580204 0
M  V30 16929 H 1606.71 -2.47742 -1.66333 0
M  V30 16930 C 1605.46 -1.49208 -3.14058 0
M  V30 16931 H 1604.78 -2.35387 -3.23161 0
M  V30 16932 H 1606.22 -1.58658 -3.93197 0
M  V30 16933 C 1604.68 -0.213877 -3.3622 0
M  V30 16934 O 1605.21 0.713128 -3.95319 0
M  V30 16935 N 1603.42 -0.114834 -2.90373 0
M  V30 16936 H 1602.96 -0.870047 -2.42462 0
M  V30 16937 H 1602.92 0.739619 -3.05576 0
M  V30 16938 N 1606.69 0.865285 -1.31722 0
M  V30 16939 C 1607.94 1.61868 -1.21675 0
M  V30 16940 C 1608.27 1.93206 0.223988 0
M  V30 16941 O 1607.52 1.5657 1.17407 0
M  V30 16942 C 1607.82 2.95462 -2.0109 0
M  V30 16943 C 1607.49 2.83598 -3.50547 0
M  V30 16944 C 1606.15 2.80069 -3.91299 0
M  V30 16945 C 1608.5 2.70295 -4.45635 0
M  V30 16946 C 1605.83 2.61102 -5.25398 0
M  V30 16947 C 1608.18 2.52864 -5.79864 0
M  V30 16948 C 1606.85 2.47722 -6.19831 0
M  V30 16949 H 1606.12 0.592319 -0.445241 0
M  V30 16950 H 1608.76 1.00456 -1.63036 0
M  V30 16951 H 1607.07 3.60935 -1.52424 0
M  V30 16952 H 1608.77 3.52756 -1.90693 0
M  V30 16953 H 1605.36 2.87164 -3.18175 0
M  V30 16954 H 1609.54 2.72073 -4.15078 0
M  V30 16955 H 1604.8 2.55549 -5.55432 0
M  V30 16956 H 1608.97 2.41548 -6.53167 0
M  V30 16957 H 1606.6 2.32784 -7.23682 0
M  V30 16958 N 1608.17 1.14759 1.0802 0
M  V30 16959 C 1609.42 0.929574 1.80916 0
M  V30 16960 C 1609.77 -0.53792 1.84727 0
M  V30 16961 O 1609.07 -1.39348 1.31501 0
M  V30 16962 C 1609.26 1.4692 3.25805 0
M  V30 16963 C 1609.09 2.98763 3.36111 0
M  V30 16964 C 1607.86 3.67248 3.47069 0
M  V30 16965 C 1610.06 3.966 3.27433 0
M  V30 16966 N 1608.04 5.06965 3.46207 0
M  V30 16967 C 1609.41 5.22594 3.33609 0
M  V30 16968 C 1611.47 3.88665 3.11197 0
M  V30 16969 C 1610.17 6.41579 3.25221 0
M  V30 16970 C 1612.19 5.07201 3.0414 0
M  V30 16971 C 1611.56 6.32066 3.10921 0
M  V30 16972 H 1607.66 0.393733 0.675647 0
M  V30 16973 H 1610.24 1.45842 1.2899 0
M  V30 16974 H 1608.41 0.967084 3.76168 0
M  V30 16975 H 1610.14 1.19071 3.86787 0
M  V30 16976 H 1606.9 3.17815 3.51128 0
M  V30 16977 H 1607.32 5.79917 3.49322 0
M  V30 16978 H 1611.96 2.93 3.04813 0
M  V30 16979 H 1609.68 7.37485 3.30365 0
M  V30 16980 H 1613.27 5.02815 2.92691 0
M  V30 16981 H 1612.15 7.22248 3.05495 0
M  V30 16982 N 1609.65 -1.26251 0.943322 0
M  V30 16983 C 1610.9 -1.9327 0.590863 0
M  V30 16984 C 1611.22 -1.74356 -0.873212 0
M  V30 16985 O 1610.49 -1.10046 -1.6207 0
M  V30 16986 H 1609.07 -0.71523 0.215535 0
M  V30 16987 H 1611.73 -1.53647 1.19911 0
M  V30 16988 H 1610.83 -3.01393 0.810475 0
M  V30 16989 N 1611.13 -0.710588 -1.40671 0
M  V30 16990 C 1612.09 -0.0635988 -2.29112 0
M  V30 16991 C 1613.09 0.692537 -1.45123 0
M  V30 16992 O 1614.28 0.525184 -1.66095 0
M  V30 16993 C 1611.41 0.919955 -3.28252 0
M  V30 16994 H 1612.61 -0.842477 -2.87823 0
M  V30 16995 H 1610.16 -0.474948 -1.48909 0
M  V30 16996 H 1610.9 1.72607 -2.7455 0
M  V30 16997 H 1610.68 0.38071 -3.90247 0
M  V30 16998 H 1612.17 1.36997 -3.94489 0
M  V30 16999 N 1612.61 1.50847 -0.456408 0
M  V30 17000 C 1613.57 2.26755 0.33388 0
M  V30 17001 C 1614.57 1.30947 0.933247 0
M  V30 17002 O 1615.76 1.54499 0.804716 0
M  V30 17003 C 1612.89 3.07378 1.47417 0
M  V30 17004 H 1614.09 2.98061 -0.331634 0
M  V30 17005 H 1611.64 1.54882 -0.210067 0
M  V30 17006 H 1612.37 2.40534 2.17518 0
M  V30 17007 H 1612.16 3.7777 1.05036 0
M  V30 17008 H 1613.65 3.64826 2.03204 0
M  V30 17009 N 1614.09 0.188454 1.56469 0
M  V30 17010 C 1615.03 -0.735074 2.18781 0
M  V30 17011 C 1616 -1.21459 1.133 0
M  V30 17012 O 1617.19 -1.27967 1.41524 0
M  V30 17013 C 1614.33 -1.95181 2.84602 0
M  V30 17014 C 1613.44 -1.51428 4.0459 0
M  V30 17015 C 1612.58 -2.68601 4.58287 0
M  V30 17016 C 1611.61 -2.21422 5.70648 0
M  V30 17017 N 1610.75 -3.31749 6.18779 0
M  V30 17018 H 1615.59 -0.19694 2.97349 0
M  V30 17019 H 1613.13 -0.0854693 1.46851 0
M  V30 17020 H 1615.09 -2.66571 3.2093 0
M  V30 17021 H 1613.72 -2.46337 2.0861 0
M  V30 17022 H 1612.77 -0.6965 3.73969 0
M  V30 17023 H 1614.08 -1.1281 4.85876 0
M  V30 17024 H 1613.23 -3.48123 4.96885 0
M  V30 17025 H 1611.97 -3.1049 3.76095 0
M  V30 17026 H 1610.98 -1.40352 5.31584 0
M  V30 17027 H 1612.2 -1.80572 6.54653 0
M  V30 17028 H 1610.15 -3.73181 5.39511 0
M  V30 17029 H 1610.07 -2.97277 6.95099 0
M  V30 17030 H 1611.33 -4.11504 6.62031 0
M  V30 17031 N 1615.56 -1.5737 -0.0851874 0
M  V30 17032 C 1616.81 -1.86219 -0.7853 0
M  V30 17033 C 1617.13 -0.77857 -1.78783 0
M  V30 17034 O 1616.4 0.194176 -1.94935 0
M  V30 17035 H 1614.98 -0.687134 -0.293013 0
M  V30 17036 H 1617.64 -1.94793 -0.0644597 0
M  V30 17037 H 1616.74 -2.83286 -1.30978 0
M  V30 17038 N 1617.04 0.356258 -1.53521 0
M  V30 17039 C 1617.99 1.43689 -1.80616 0
M  V30 17040 C 1618.96 1.52808 -0.651064 0
M  V30 17041 O 1620.14 1.68549 -0.894203 0
M  V30 17042 C 1617.28 2.80513 -2.01013 0
M  V30 17043 C 1616.4 2.80287 -3.2873 0
M  V30 17044 C 1615.53 4.08747 -3.39263 0
M  V30 17045 C 1614.57 4.02699 -4.60977 0
M  V30 17046 N 1613.71 5.22825 -4.68614 0
M  V30 17047 H 1618.55 1.19884 -2.72822 0
M  V30 17048 H 1616.08 0.580984 -1.35141 0
M  V30 17049 H 1618.04 3.60011 -2.10827 0
M  V30 17050 H 1616.67 3.02698 -1.12134 0
M  V30 17051 H 1615.72 1.92968 -3.27822 0
M  V30 17052 H 1617.04 2.71693 -4.18311 0
M  V30 17053 H 1616.19 4.96663 -3.4844 0
M  V30 17054 H 1614.93 4.20106 -2.47715 0
M  V30 17055 H 1613.93 3.13168 -4.51892 0
M  V30 17056 H 1615.16 3.92934 -5.53877 0
M  V30 17057 H 1613.11 5.34752 -3.79969 0
M  V30 17058 H 1613.02 5.16437 -5.52113 0
M  V30 17059 H 1614.29 6.12548 -4.82085 0
M  V30 17060 N 1618.52 1.45038 0.616577 0
M  V30 17061 C 1619.77 1.48805 1.37786 0
M  V30 17062 C 1620.1 0.125811 1.93792 0
M  V30 17063 O 1619.37 -0.858544 1.74526 0
M  V30 17064 C 1619.66 2.56008 2.53242 0
M  V30 17065 C 1619.51 4.01643 2.02491 0
M  V30 17066 C 1620.83 2.59578 3.55398 0
M  V30 17067 H 1617.95 0.541776 0.499647 0
M  V30 17068 H 1620.59 1.76799 0.695859 0
M  V30 17069 H 1618.74 2.32269 3.11422 0
M  V30 17070 H 1620.41 4.36564 1.4903 0
M  V30 17071 H 1618.65 4.12728 1.33559 0
M  V30 17072 H 1619.33 4.72326 2.85679 0
M  V30 17073 H 1621.8 2.80826 3.07044 0
M  V30 17074 H 1620.68 3.36466 4.33684 0
M  V30 17075 H 1620.94 1.64325 4.10426 0
M  V30 17076 N 1620 -0.858287 1.32179 0
M  V30 17077 C 1620.91 -1.99894 1.228 0
M  V30 17078 C 1621.92 -1.73417 0.142323 0
M  V30 17079 O 1623.1 -1.98114 0.362321 0
M  V30 17080 C 1620.16 -3.33495 0.947745 0
M  V30 17081 C 1619.23 -3.73217 2.12149 0
M  V30 17082 C 1618.46 -5.00443 1.85452 0
M  V30 17083 O 1618.68 -5.64828 0.79531 0
M  V30 17084 O 1617.62 -5.3721 2.71457 0
M  V30 17085 H 1621.44 -2.10742 2.18682 0
M  V30 17086 H 1619.03 -0.988385 1.12033 0
M  V30 17087 H 1620.91 -4.13585 0.807791 0
M  V30 17088 H 1619.58 -3.23694 0.019053 0
M  V30 17089 H 1618.49 -2.93718 2.3169 0
M  V30 17090 H 1619.82 -3.87659 3.03285 0
M  V30 17091 N 1621.48 -1.1533 -1.07409 0
M  V30 17092 C 1622.42 -0.845328 -2.16696 0
M  V30 17093 C 1623.42 0.181009 -1.6843 0
M  V30 17094 O 1624.62 0.0361013 -1.79964 0
M  V30 17095 H 1621 -0.255698 -0.707193 0
M  V30 17096 H 1622.97 -1.7747 -2.39889 0
M  V30 17097 C 1621.72 -0.350381 -3.4593 0
M  V30 17098 H 1621.04 -1.13152 -3.83454 0
M  V30 17099 H 1622.48 -0.173547 -4.23645 0
M  V30 17100 C 1620.94 0.927991 -3.23867 0
M  V30 17101 O 1621.47 1.99965 -3.48392 0
M  V30 17102 N 1619.68 0.867266 -2.77357 0
M  V30 17103 H 1619.22 -0.00500352 -2.576 0
M  V30 17104 H 1619.18 1.72314 -2.62974 0
M  V30 17105 N 1622.95 1.25748 -0.950004 0
M  V30 17106 C 1624.2 1.92632 -0.597988 0
M  V30 17107 C 1624.52 1.75268 0.868365 0
M  V30 17108 O 1625.72 2.36684 1.33014 0
M  V30 17109 C 1624.18 3.45179 -1.01879 0
M  V30 17110 C 1623.79 3.71262 -2.50736 0
M  V30 17111 C 1625.53 4.18017 -0.739084 0
M  V30 17112 C 1623.44 5.17292 -2.8664 0
M  V30 17113 H 1622.37 0.72121 -0.219938 0
M  V30 17114 H 1625.02 1.42685 -1.15383 0
M  V30 17115 H 1623.4 3.94061 -0.391395 0
M  V30 17116 H 1624.57 3.33051 -3.18455 0
M  V30 17117 H 1622.89 3.11676 -2.76129 0
M  V30 17118 H 1625.49 5.25576 -0.983555 0
M  V30 17119 H 1625.83 4.15034 0.32439 0
M  V30 17120 H 1626.36 3.75028 -1.32661 0
M  V30 17121 H 1623.1 5.25383 -3.91987 0
M  V30 17122 H 1622.62 5.56567 -2.23591 0
M  V30 17123 H 1624.3 5.85375 -2.75582 0
M  V30 17124 N 1624.43 0.718038 1.40292 0
M  V30 17125 C 1625.38 0.0559466 2.32533 0
M  V30 17126 C 1626.37 -0.744365 1.5217 0
M  V30 17127 O 1627.58 -0.647458 1.67952 0
M  V30 17128 H 1623.95 -0.000710627 0.752 0
M  V30 17129 H 1625.93 0.850579 2.8602 0
M  V30 17130 C 1624.67 -0.849927 3.37152 0
M  V30 17131 H 1624 -0.243507 3.99058 0
M  V30 17132 H 1625.44 -1.28111 4.04183 0
M  V30 17133 C 1623.9 -1.9765 2.7283 0
M  V30 17134 O 1624.43 -3.06757 2.59351 0
M  V30 17135 N 1622.63 -1.76086 2.31176 0
M  V30 17136 H 1622.18 -0.873485 2.42339 0
M  V30 17137 H 1622.14 -2.51643 1.88477 0
M  V30 17138 N 1625.91 -1.50602 0.464402 0
M  V30 17139 C 1627.32 -1.86698 0.00767586 0
M  V30 17140 C 1627.67 -1.37971 -1.39494 0
M  V30 17141 O 1626.8 -0.741843 -2.03287 0
M  V30 17142 C 1627.39 -3.38799 0.00715323 0
M  V30 17143 C 1625.95 -3.74331 -0.394077 0
M  V30 17144 C 1625.1 -2.74465 0.395495 0
M  V30 17145 H 1628.05 -1.43441 0.678996 0
M  V30 17146 H 1628.07 -3.7207 -0.796497 0
M  V30 17147 H 1627.58 -3.74234 1.02812 0
M  V30 17148 H 1625.68 -3.44495 -1.41964 0
M  V30 17149 H 1625.8 -4.78995 -0.10007 0
M  V30 17150 H 1624.16 -2.54258 -0.149903 0
M  V30 17151 H 1624.94 -3.12744 1.41585 0
M  V30 17152 N 1627.39 -0.19675 -1.56367 0
M  V30 17153 C 1628.32 0.718607 -2.22167 0
M  V30 17154 C 1629.3 1.22002 -1.1853 0
M  V30 17155 O 1630.48 1.26856 -1.47042 0
M  V30 17156 C 1627.61 1.93753 -2.88231 0
M  V30 17157 C 1626.57 1.57096 -3.98127 0
M  V30 17158 C 1625.89 2.86663 -4.51363 0
M  V30 17159 C 1627.19 0.779649 -5.16448 0
M  V30 17160 H 1628.89 0.170064 -2.98917 0
M  V30 17161 H 1626.43 0.0803568 -1.43776 0
M  V30 17162 H 1628.39 2.58312 -3.32946 0
M  V30 17163 H 1627.11 2.51063 -2.0889 0
M  V30 17164 H 1625.77 0.948947 -3.54105 0
M  V30 17165 H 1625.42 3.42066 -3.68782 0
M  V30 17166 H 1625.12 2.6288 -5.25517 0
M  V30 17167 H 1626.64 3.52207 -4.98781 0
M  V30 17168 H 1628.06 1.32838 -5.57698 0
M  V30 17169 H 1626.45 0.639882 -5.96679 0
M  V30 17170 H 1627.52 -0.218944 -4.84405 0
M  V30 17171 N 1628.87 1.57413 0.0768405 0
M  V30 17172 C 1630.09 1.91607 0.793833 0
M  V30 17173 C 1630.52 0.792708 1.70581 0
M  V30 17174 O 1629.87 -0.25475 1.79501 0
M  V30 17175 C 1629.92 3.24736 1.56776 0
M  V30 17176 O 1629.03 3.13613 2.67807 0
M  V30 17177 H 1628.37 0.627572 0.216908 0
M  V30 17178 H 1630.9 2.04547 0.0465957 0
M  V30 17179 H 1630.91 3.58488 1.94809 0
M  V30 17180 H 1629.58 4.06077 0.898588 0
M  V30 17181 H 1628.16 2.91411 2.32668 0
M  V30 17182 N 1630.34 -0.348112 1.53707 0
M  V30 17183 C 1631.62 -1.1056 1.61356 0
M  V30 17184 C 1632 -2.06633 0.431955 0
M  V30 17185 O 1631.35 -2.21115 -0.576211 0
M  V30 17186 C 1631.56 -1.82929 2.97217 0
M  V30 17187 C 1632.91 -2.36837 3.52411 0
M  V30 17188 O 1633.93 -1.93032 2.99361 0
M  V30 17189 O 1632.79 -3.16966 4.45191 0
M  V30 17190 H 1629.88 -0.50817 0.652451 0
M  V30 17191 H 1632.43 -0.349971 1.66052 0
M  V30 17192 H 1631.2 -1.12912 3.74655 0
M  V30 17193 H 1630.83 -2.65361 2.9609 0
M  V30 17194 N 1631.82 -1.45363 -0.608876 0
M  V30 17195 C 1633.07 -1.48586 -1.364 0
M  V30 17196 C 1633.38 -0.131213 -1.95159 0
M  V30 17197 O 1634.59 -0.0410845 -2.71469 0
M  V30 17198 C 1633.05 -2.61694 -2.47071 0
M  V30 17199 C 1632.65 -4.03466 -1.94729 0
M  V30 17200 C 1634.4 -2.74162 -3.24091 0
M  V30 17201 C 1632.31 -5.07958 -3.02874 0
M  V30 17202 H 1631.24 -0.552893 -0.512665 0
M  V30 17203 H 1633.89 -1.71499 -0.65271 0
M  V30 17204 H 1632.27 -2.32062 -3.20879 0
M  V30 17205 H 1633.44 -4.4277 -1.27638 0
M  V30 17206 H 1631.76 -3.95436 -1.30457 0
M  V30 17207 H 1634.35 -3.494 -4.04752 0
M  V30 17208 H 1634.7 -1.80751 -3.75013 0
M  V30 17209 H 1635.23 -3.03313 -2.57383 0
M  V30 17210 H 1631.97 -6.03073 -2.56871 0
M  V30 17211 H 1631.49 -4.73225 -3.68535 0
M  V30 17212 H 1633.17 -5.3265 -3.67277 0
M  V30 17213 N 1633.3 0.851265 -1.32632 0
M  V30 17214 C 1634.55 1.60807 -1.23568 0
M  V30 17215 C 1634.88 1.93155 0.201238 0
M  V30 17216 O 1634.15 1.5764 1.13929 0
M  V30 17217 C 1634.44 2.92619 -2.09872 0
M  V30 17218 C 1634.29 2.67031 -3.61959 0
M  V30 17219 C 1635.61 3.93924 -1.96244 0
M  V30 17220 H 1632.73 0.583492 -0.450229 0
M  V30 17221 H 1635.37 0.98273 -1.62611 0
M  V30 17222 H 1633.52 3.45988 -1.76704 0
M  V30 17223 H 1635.19 2.2019 -4.05357 0
M  V30 17224 H 1633.44 2.00938 -3.84456 0
M  V30 17225 H 1634.11 3.60902 -4.17676 0
M  V30 17226 H 1636.58 3.49823 -2.25307 0
M  V30 17227 H 1635.46 4.84005 -2.58902 0
M  V30 17228 H 1635.72 4.32185 -0.931065 0
M  V30 17229 N 1634.78 1.15898 1.06796 0
M  V30 17230 C 1635.73 0.829255 2.12385 0
M  V30 17231 C 1636.71 -0.189029 1.59786 0
M  V30 17232 O 1637.9 0.0110547 1.76997 0
M  V30 17233 C 1635.03 0.326484 3.41744 0
M  V30 17234 C 1634.12 1.37525 4.01183 0
M  V30 17235 N 1634.51 2.58419 4.34802 0
M  V30 17236 C 1632.81 1.22931 4.28724 0
M  V30 17237 C 1633.51 3.25684 4.8198 0
M  V30 17238 N 1632.49 2.53068 4.811 0
M  V30 17239 H 1636.29 1.74866 2.36218 0
M  V30 17240 H 1633.8 1.04527 1.24289 0
M  V30 17241 H 1635.8 0.0718935 4.16838 0
M  V30 17242 H 1634.46 -0.586913 3.19352 0
M  V30 17243 H 1635.47 2.95518 4.25311 0
M  V30 17244 H 1632.15 0.376264 4.15801 0
M  V30 17245 H 1633.54 4.28852 5.17238 0
M  V30 17246 N 1636.26 -1.25243 0.956659 0
M  V30 17247 C 1637.67 -1.74909 0.652979 0
M  V30 17248 C 1638.02 -1.77704 -0.831605 0
M  V30 17249 O 1637.14 -1.39921 -1.65079 0
M  V30 17250 C 1637.74 -3.17639 1.1786 0
M  V30 17251 C 1636.3 -3.64856 0.925034 0
M  V30 17252 C 1635.44 -2.43844 1.32044 0
M  V30 17253 H 1638.4 -1.11101 1.13324 0
M  V30 17254 H 1638.42 -3.76654 0.539633 0
M  V30 17255 H 1637.93 -3.15572 2.25911 0
M  V30 17256 H 1636.03 -3.72335 -0.14043 0
M  V30 17257 H 1636.14 -4.5289 1.56292 0
M  V30 17258 H 1634.51 -2.43749 0.738813 0
M  V30 17259 H 1635.29 -2.44466 2.41021 0
M  V30 17260 N 1637.73 -0.725468 -1.3991 0
M  V30 17261 C 1638.64 -0.0805887 -2.34462 0
M  V30 17262 C 1639.66 0.732689 -1.57822 0
M  V30 17263 O 1640.84 0.663362 -1.90162 0
M  V30 17264 C 1637.9 0.822908 -3.36792 0
M  V30 17265 C 1636.96 -0.00153812 -4.293 0
M  V30 17266 C 1636.2 0.85893 -5.26743 0
M  V30 17267 O 1636.42 2.09793 -5.30418 0
M  V30 17268 O 1635.35 0.292659 -6.01188 0
M  V30 17269 H 1639.18 -0.860746 -2.91247 0
M  V30 17270 H 1636.76 -0.48604 -1.41273 0
M  V30 17271 H 1638.65 1.34014 -3.99522 0
M  V30 17272 H 1637.32 1.58204 -2.82406 0
M  V30 17273 H 1636.23 -0.564072 -3.69823 0
M  V30 17274 H 1637.56 -0.722675 -4.86866 0
M  V30 17275 N 1639.21 1.50354 -0.472382 0
M  V30 17276 C 1640.14 2.3142 0.310995 0
M  V30 17277 C 1641.12 1.38383 0.989151 0
M  V30 17278 O 1642.31 1.67303 0.986074 0
M  V30 17279 C 1639.44 3.18157 1.3926 0
M  V30 17280 C 1638.39 4.19756 0.835977 0
M  V30 17281 C 1637.72 4.9524 2.01597 0
M  V30 17282 C 1639.02 5.22074 -0.15361 0
M  V30 17283 H 1640.71 2.97159 -0.365595 0
M  V30 17284 H 1638.26 1.42905 -0.177266 0
M  V30 17285 H 1640.21 3.73666 1.94813 0
M  V30 17286 H 1638.94 2.50305 2.09798 0
M  V30 17287 H 1637.59 3.65351 0.302414 0
M  V30 17288 H 1637.24 4.2386 2.70836 0
M  V30 17289 H 1636.94 5.63966 1.64974 0
M  V30 17290 H 1638.47 5.53584 2.57637 0
M  V30 17291 H 1639.88 5.72446 0.312783 0
M  V30 17292 H 1638.28 5.98527 -0.43418 0
M  V30 17293 H 1639.35 4.72741 -1.07908 0
M  V30 17294 N 1640.69 0.205039 1.56261 0
M  V30 17295 C 1642.11 -0.150644 1.58887 0
M  V30 17296 C 1642.31 -1.60256 1.22148 0
M  V30 17297 O 1641.36 -2.33991 0.948912 0
M  V30 17298 C 1642.68 0.160711 3.0027 0
M  V30 17299 C 1644.22 0.101616 3.12835 0
M  V30 17300 C 1644.7 0.386417 4.56367 0
M  V30 17301 N 1646.19 0.335392 4.61984 0
M  V30 17302 C 1646.93 0.529473 5.7095 0
M  V30 17303 N 1646.42 0.784441 6.88345 0
M  V30 17304 N 1648.21 0.463044 5.6019 0
M  V30 17305 H 1640.37 1.15238 1.78421 0
M  V30 17306 H 1642.63 0.460698 0.82853 0
M  V30 17307 H 1642.33 1.1678 3.31746 0
M  V30 17308 H 1642.21 -0.532067 3.73429 0
M  V30 17309 H 1644.6 -0.896093 2.81166 0
M  V30 17310 H 1644.68 0.827622 2.42041 0
M  V30 17311 H 1644.32 1.38149 4.88751 0
M  V30 17312 H 1644.25 -0.360592 5.25364 0
M  V30 17313 H 1646.74 0.145346 3.7762 0
M  V30 17314 H 1647.05 0.921077 7.67291 0
M  V30 17315 H 1645.4 0.821448 6.90128 0
M  V30 17316 H 1648.59 0.2642 4.67354 0
M  V30 17317 H 1648.76 0.617712 6.45049 0
M  V30 17318 N 1642.17 -1.57451 -0.0684915 0
M  V30 17319 C 1643.1 -2.06954 -1.0813 0
M  V30 17320 C 1644.08 -0.963716 -1.40166 0
M  V30 17321 O 1645.27 -1.23664 -1.49736 0
M  V30 17322 C 1642.4 -2.51622 -2.39381 0
M  V30 17323 C 1641.35 -3.66111 -2.2169 0
M  V30 17324 C 1640.68 -3.96846 -3.58354 0
M  V30 17325 C 1641.98 -4.96036 -1.63541 0
M  V30 17326 H 1643.67 -2.91822 -0.66936 0
M  V30 17327 H 1641.22 -1.40387 -0.320533 0
M  V30 17328 H 1643.17 -2.84867 -3.1053 0
M  V30 17329 H 1641.89 -1.63788 -2.82562 0
M  V30 17330 H 1640.55 -3.33155 -1.52982 0
M  V30 17331 H 1640.2 -3.06137 -3.9911 0
M  V30 17332 H 1639.9 -4.73939 -3.47354 0
M  V30 17333 H 1641.42 -4.3259 -4.30927 0
M  V30 17334 H 1642.84 -5.27491 -2.24559 0
M  V30 17335 H 1641.23 -5.77474 -1.63228 0
M  V30 17336 H 1642.3 -4.81208 -0.597199 0
M  V30 17337 N 1643.65 0.339955 -1.5389 0
M  V30 17338 C 1645.06 0.683287 -1.44234 0
M  V30 17339 C 1645.26 1.92298 -0.601976 0
M  V30 17340 O 1644.32 2.52324 -0.0943623 0
M  V30 17341 C 1645.63 0.872576 -2.87761 0
M  V30 17342 C 1647.18 0.970965 -2.97559 0
M  V30 17343 C 1647.66 1.19254 -4.42202 0
M  V30 17344 N 1649.15 1.25966 -4.45743 0
M  V30 17345 C 1649.88 1.44869 -5.54798 0
M  V30 17346 N 1649.38 1.6092 -6.73852 0
M  V30 17347 N 1651.17 1.47445 -5.42417 0
M  V30 17348 H 1643.32 -0.475086 -2.07019 0
M  V30 17349 H 1645.58 -0.150644 -0.935954 0
M  V30 17350 H 1645.29 0.033117 -3.51684 0
M  V30 17351 H 1645.16 1.77326 -3.32919 0
M  V30 17352 H 1647.55 1.80094 -2.33774 0
M  V30 17353 H 1647.63 0.0471065 -2.55757 0
M  V30 17354 H 1647.28 0.367482 -5.06569 0
M  V30 17355 H 1647.21 2.13002 -4.81599 0
M  V30 17356 H 1649.7 1.15072 -3.59954 0
M  V30 17357 H 1650.01 1.74989 -7.52727 0
M  V30 17358 H 1648.36 1.58049 -6.7679 0
M  V30 17359 H 1651.55 1.34489 -4.48364 0
M  V30 17360 H 1651.72 1.61834 -6.27466 0
M  V30 17361 N 1645.13 1.45684 0.601159 0
M  V30 17362 C 1646.06 1.49342 1.72546 0
M  V30 17363 C 1647.04 0.349184 1.58806 0
M  V30 17364 O 1648.22 0.550634 1.80278 0
M  V30 17365 C 1645.35 1.35455 3.10435 0
M  V30 17366 C 1644.39 2.53826 3.42746 0
M  V30 17367 S 1645.23 4.16269 3.36869 0
M  V30 17368 C 1646.38 4.04858 4.77326 0
M  V30 17369 H 1646.62 2.44469 1.69181 0
M  V30 17370 H 1644.15 1.33345 0.778358 0
M  V30 17371 H 1646.11 1.2813 3.89991 0
M  V30 17372 H 1644.77 0.417881 3.11308 0
M  V30 17373 H 1643.96 2.40053 4.4316 0
M  V30 17374 H 1643.56 2.58046 2.70718 0
M  V30 17375 H 1645.85 3.704 5.67283 0
M  V30 17376 H 1646.8 5.05207 4.96157 0
M  V30 17377 H 1647.21 3.36408 4.5331 0
M  V30 17378 N 1646.6 -0.84422 1.33082 0
M  V30 17379 C 1647.54 -1.96055 1.18722 0
M  V30 17380 C 1648.55 -1.62361 0.119538 0
M  V30 17381 O 1649.74 -1.74634 0.369469 0
M  V30 17382 C 1646.84 -3.29387 0.797318 0
M  V30 17383 C 1646.01 -3.91253 1.95551 0
M  V30 17384 C 1645.07 -5.02932 1.54745 0
M  V30 17385 O 1644.1 -5.22367 2.26101 0
M  V30 17386 N 1645.3 -5.78758 0.449394 0
M  V30 17387 H 1648.06 -2.08912 2.14886 0
M  V30 17388 H 1645.62 -1.01966 1.25756 0
M  V30 17389 H 1647.62 -4.01517 0.506536 0
M  V30 17390 H 1646.19 -3.12514 -0.0734775 0
M  V30 17391 H 1645.41 -3.11779 2.41221 0
M  V30 17392 H 1646.69 -4.2932 2.73061 0
M  V30 17393 H 1646.09 -5.65516 -0.14428 0
M  V30 17394 H 1644.65 -6.51434 0.218264 0
M  V30 17395 N 1648.08 -1.16463 -1.0618 0
M  V30 17396 C 1649.36 -0.857038 -1.75824 0
M  V30 17397 C 1649.74 0.644886 -2.01009 0
M  V30 17398 O 1649.09 1.59305 -1.63812 0
M  V30 17399 C 1649.3 -1.681 -3.05849 0
M  V30 17400 C 1650.64 -1.8947 -3.79982 0
M  V30 17401 O 1651.67 -1.64975 -3.15692 0
M  V30 17402 O 1650.53 -2.30573 -4.95478 0
M  V30 17403 H 1647.62 -0.316364 -0.764096 0
M  V30 17404 H 1650.17 -1.27105 -1.12438 0
M  V30 17405 H 1648.94 -2.70014 -2.8321 0
M  V30 17406 H 1648.56 -1.2641 -3.7697 0
M  V30 17407 N 1649.56 1.24734 -0.963288 0
M  V30 17408 C 1650.81 1.92305 -0.621536 0
M  V30 17409 C 1651.13 1.75723 0.845363 0
M  V30 17410 O 1650.4 1.1261 1.60299 0
M  V30 17411 H 1648.98 0.71171 -0.226886 0
M  V30 17412 H 1651.64 1.5172 -1.2234 0
M  V30 17413 H 1650.74 3.00065 -0.858322 0
M  V30 17414 N 1651.04 0.732878 1.39523 0
M  V30 17415 C 1652.28 0.284541 2.0241 0
M  V30 17416 C 1652.64 -1.10672 1.56894 0
M  V30 17417 O 1653.84 -1.65302 2.11964 0
M  V30 17418 C 1652.11 0.380486 3.55369 0
M  V30 17419 S 1653.67 0.0116789 4.38798 0
M  V30 17420 H 1650.49 0.111634 0.702182 0
M  V30 17421 H 1653.09 0.958924 1.70367 0
M  V30 17422 H 1651.8 1.39437 3.85986 0
M  V30 17423 H 1651.33 -0.31179 3.92163 0
M  V30 17424 H 1653.34 -1.20519 4.81341 0
M  V30 17425 N 1652.52 -1.50101 0.480349 0
M  V30 17426 C 1653.74 -2.07278 -0.0710872 0
M  V30 17427 C 1654.17 -1.34082 -1.31923 0
M  V30 17428 O 1653.52 -0.391251 -1.77028 0
M  V30 17429 C 1653.57 -3.59099 -0.328706 0
M  V30 17430 O 1652.68 -3.8764 -1.40745 0
M  V30 17431 H 1652.02 -0.66378 0.0170748 0
M  V30 17432 H 1654.55 -1.93178 0.674049 0
M  V30 17433 H 1654.56 -4.04049 -0.566435 0
M  V30 17434 H 1653.23 -4.11789 0.583316 0
M  V30 17435 H 1651.81 -3.54519 -1.15631 0
M  V30 17436 N 1653.99 -0.213323 -1.5615 0
M  V30 17437 C 1655.24 0.419767 -1.97693 0
M  V30 17438 C 1655.56 1.60878 -1.10197 0
M  V30 17439 O 1654.83 1.95097 -0.177185 0
M  V30 17440 H 1653.41 0.158075 -0.730083 0
M  V30 17441 H 1656.07 -0.304303 -1.9251 0
M  V30 17442 H 1655.17 0.751645 -3.02914 0
M  V30 17443 N 1655.47 1.57485 0.0601405 0
M  V30 17444 C 1656.75 1.78904 0.790732 0
M  V30 17445 C 1657.13 0.803802 1.95198 0
M  V30 17446 O 1656.48 -0.16067 2.27934 0
M  V30 17447 C 1656.69 3.25738 1.25282 0
M  V30 17448 C 1658.04 3.89887 1.68147 0
M  V30 17449 O 1659.06 3.297 1.3482 0
M  V30 17450 O 1657.92 4.95796 2.29889 0
M  V30 17451 H 1655.01 0.734623 0.379814 0
M  V30 17452 H 1657.56 1.69654 0.0393151 0
M  V30 17453 H 1656.33 3.89013 0.422442 0
M  V30 17454 H 1655.95 3.39757 2.06521 0
M  V30 17455 N 1656.95 -0.331789 1.54068 0
M  V30 17456 C 1657.88 -1.41332 1.8587 0
M  V30 17457 C 1658.86 -1.54353 0.714787 0
M  V30 17458 O 1660.05 -1.68368 0.967777 0
M  V30 17459 C 1657.18 -2.78218 2.07875 0
M  V30 17460 C 1656.13 -2.79994 3.23709 0
M  V30 17461 C 1655.46 -4.19878 3.31069 0
M  V30 17462 C 1656.76 -2.44476 4.6155 0
M  V30 17463 H 1658.45 -1.14966 2.76447 0
M  V30 17464 H 1656 -0.551615 1.33016 0
M  V30 17465 H 1657.95 -3.53937 2.28706 0
M  V30 17466 H 1656.67 -3.06044 1.14038 0
M  V30 17467 H 1655.33 -2.0673 3.02751 0
M  V30 17468 H 1654.98 -4.44831 2.34807 0
M  V30 17469 H 1654.68 -4.21974 4.08915 0
M  V30 17470 H 1656.2 -4.97421 3.54125 0
M  V30 17471 H 1657.62 -3.09908 4.82317 0
M  V30 17472 H 1656.02 -2.57837 5.41886 0
M  V30 17473 H 1657.09 -1.3964 4.64358 0
M  V30 17474 N 1658.43 -1.46001 -0.593424 0
M  V30 17475 C 1659.66 -1.54307 -1.3783 0
M  V30 17476 C 1660.07 -0.18048 -1.87935 0
M  V30 17477 O 1659.43 0.820427 -1.63019 0
M  V30 17478 C 1659.48 -2.53911 -2.57316 0
M  V30 17479 O 1659.2 -3.84876 -2.09289 0
M  V30 17480 C 1660.7 -2.72054 -3.50002 0
M  V30 17481 H 1657.92 -0.522149 -0.421428 0
M  V30 17482 H 1660.47 -1.91315 -0.722423 0
M  V30 17483 H 1658.62 -2.19937 -3.18915 0
M  V30 17484 H 1659.03 -4.38996 -2.87025 0
M  V30 17485 H 1660.51 -3.45692 -4.3035 0
M  V30 17486 H 1660.99 -1.78583 -4.01254 0
M  V30 17487 H 1661.59 -3.07082 -2.94246 0
M  V30 17488 N 1659.91 0.83715 -1.33527 0
M  V30 17489 C 1660.84 1.96231 -1.26553 0
M  V30 17490 C 1661.82 1.69474 -0.14576 0
M  V30 17491 O 1663 1.91274 -0.335815 0
M  V30 17492 C 1660.13 3.32419 -1.00574 0
M  V30 17493 C 1659.09 3.73577 -2.08864 0
M  V30 17494 C 1658.41 5.07591 -1.68095 0
M  V30 17495 C 1659.71 3.87179 -3.50556 0
M  V30 17496 H 1661.41 2.02324 -2.20693 0
M  V30 17497 H 1658.95 0.972038 -1.06242 0
M  V30 17498 H 1660.91 4.10703 -0.943439 0
M  V30 17499 H 1659.63 3.26587 -0.0287268 0
M  V30 17500 H 1658.29 2.97557 -2.14139 0
M  V30 17501 H 1657.94 4.98232 -0.690922 0
M  V30 17502 H 1657.64 5.361 -2.40563 0
M  V30 17503 H 1659.16 5.88349 -1.63334 0
M  V30 17504 H 1660.57 4.55771 -3.47772 0
M  V30 17505 H 1658.97 4.27127 -4.21524 0
M  V30 17506 H 1660.04 2.8958 -3.88936 0
M  V30 17507 N 1661.38 1.17024 1.05561 0
M  V30 17508 C 1662.66 0.86635 1.75367 0
M  V30 17509 C 1663.04 -0.634217 2.01348 0
M  V30 17510 O 1662.39 -1.58434 1.64654 0
M  V30 17511 C 1662.6 1.69719 3.04953 0
M  V30 17512 C 1663.95 1.91482 3.78972 0
M  V30 17513 O 1664.97 1.66647 3.14813 0
M  V30 17514 O 1663.83 2.33197 4.94248 0
M  V30 17515 H 1660.92 0.320412 0.762407 0
M  V30 17516 H 1663.47 1.277 1.11763 0
M  V30 17517 H 1662.24 2.71512 2.81775 0
M  V30 17518 H 1661.87 1.28408 3.76294 0
M  V30 17519 N 1662.86 -1.24221 0.969889 0
M  V30 17520 C 1663.77 -2.29001 0.509467 0
M  V30 17521 C 1664.79 -1.68587 -0.430637 0
M  V30 17522 O 1665.96 -1.99106 -0.303142 0
M  V30 17523 C 1663.03 -3.46174 -0.190906 0
M  V30 17524 C 1662.09 -4.21982 0.789296 0
M  V30 17525 C 1661.32 -5.3356 0.122252 0
M  V30 17526 O 1661.55 -5.59909 -1.08896 0
M  V30 17527 O 1660.48 -5.9635 0.815517 0
M  V30 17528 H 1664.31 -2.70506 1.38058 0
M  V30 17529 H 1661.89 -1.29955 0.737028 0
M  V30 17530 H 1663.77 -4.1733 -0.584244 0
M  V30 17531 H 1662.45 -3.06642 -1.03695 0
M  V30 17532 H 1661.36 -3.53192 1.23313 0
M  V30 17533 H 1662.69 -4.65337 1.60382 0
M  V30 17534 N 1664.34 -0.740267 -1.39132 0
M  V30 17535 C 1665.29 -0.0929334 -2.32414 0
M  V30 17536 C 1666.28 0.720062 -1.53334 0
M  V30 17537 O 1667.49 0.620656 -1.68961 0
M  V30 17538 H 1663.86 -0.0112531 -0.751916 0
M  V30 17539 H 1665.83 -0.895975 -2.84631 0
M  V30 17540 C 1664.58 0.796182 -3.38462 0
M  V30 17541 H 1663.91 0.17999 -3.99395 0
M  V30 17542 H 1665.35 1.21664 -4.0617 0
M  V30 17543 C 1663.81 1.93285 -2.75939 0
M  V30 17544 O 1664.34 3.02593 -2.64198 0
M  V30 17545 N 1662.54 1.72386 -2.33948 0
M  V30 17546 H 1662.09 0.834821 -2.43698 0
M  V30 17547 H 1662.05 2.48612 -1.92456 0
M  V30 17548 N 1665.82 1.49844 -0.488302 0
M  V30 17549 C 1667.07 2.02009 0.0605782 0
M  V30 17550 C 1667.39 1.37114 1.38653 0
M  V30 17551 O 1666.66 0.522182 1.88812 0
M  V30 17552 H 1665.24 0.746569 0.0253773 0
M  V30 17553 H 1667.9 1.84 -0.64265 0
M  V30 17554 H 1667 3.11461 0.199542 0
M  V30 17555 N 1667.3 0.221601 1.56034 0
M  V30 17556 C 1668.54 -0.403939 1.99349 0
M  V30 17557 C 1668.9 -1.57383 1.10672 0
M  V30 17558 O 1668.19 -1.90958 0.156695 0
M  V30 17559 C 1668.38 -0.887416 3.46208 0
M  V30 17560 C 1668.21 0.234087 4.4909 0
M  V30 17561 C 1666.98 0.700495 5.00421 0
M  V30 17562 C 1669.18 1.05237 5.03418 0
M  V30 17563 N 1667.16 1.79705 5.87009 0
M  V30 17564 C 1668.53 1.99779 5.86931 0
M  V30 17565 C 1670.59 1.0918 4.85782 0
M  V30 17566 C 1669.29 2.97943 6.54693 0
M  V30 17567 C 1671.32 2.06162 5.54302 0
M  V30 17568 C 1670.68 2.99444 6.37584 0
M  V30 17569 H 1666.78 -0.114481 0.773575 0
M  V30 17570 H 1669.36 0.333384 1.91825 0
M  V30 17571 H 1667.53 -1.5941 3.54179 0
M  V30 17572 H 1669.27 -1.48578 3.7644 0
M  V30 17573 H 1666.02 0.289083 4.72717 0
M  V30 17574 H 1666.45 2.34733 6.35003 0
M  V30 17575 H 1671.09 0.384543 4.21048 0
M  V30 17576 H 1668.81 3.69631 7.18609 0
M  V30 17577 H 1672.39 2.09887 5.42622 0
M  V30 17578 H 1671.27 3.73263 6.8967 0
M  V30 17579 N 1668.77 -1.57515 -0.0517878 0
M  V30 17580 C 1670.01 -1.90056 -0.752209 0
M  V30 17581 C 1670.38 -0.817682 -1.73718 0
M  V30 17582 O 1671.58 -1.02674 -2.48418 0
M  V30 17583 C 1669.85 -3.27798 -1.42419 0
M  V30 17584 S 1671.41 -3.82129 -2.15691 0
M  V30 17585 H 1668.23 -0.665706 -0.249712 0
M  V30 17586 H 1670.83 -1.95499 -0.0075584 0
M  V30 17587 H 1669.53 -4.04493 -0.693783 0
M  V30 17588 H 1669.06 -3.25602 -2.20786 0
M  V30 17589 H 1671.08 -3.59025 -3.42513 0
M  V30 17590 N 1670.25 0.323614 -1.54242 0
M  V30 17591 C 1671.67 0.66795 -1.4495 0
M  V30 17592 C 1671.87 1.91649 -0.622338 0
M  V30 17593 O 1670.93 2.52209 -0.121119 0
M  V30 17594 C 1672.24 0.842006 -2.88671 0
M  V30 17595 C 1673.79 0.93935 -2.98572 0
M  V30 17596 C 1674.26 1.14557 -4.43442 0
M  V30 17597 N 1675.75 1.21231 -4.47054 0
M  V30 17598 C 1676.49 1.38976 -5.56303 0
M  V30 17599 N 1675.98 1.53764 -6.75521 0
M  V30 17600 N 1677.78 1.41684 -5.4395 0
M  V30 17601 H 1669.93 -0.497017 -2.06503 0
M  V30 17602 H 1672.19 -0.160563 -0.934304 0
M  V30 17603 H 1671.9 -0.00418568 -3.517 0
M  V30 17604 H 1671.77 1.73785 -3.34782 0
M  V30 17605 H 1674.16 1.77605 -2.35671 0
M  V30 17606 H 1674.24 0.0199775 -2.55792 0
M  V30 17607 H 1673.88 0.313732 -5.0693 0
M  V30 17608 H 1673.81 2.07882 -4.83831 0
M  V30 17609 H 1676.3 1.11247 -3.61154 0
M  V30 17610 H 1676.62 1.66996 -7.54541 0
M  V30 17611 H 1674.96 1.50862 -6.78429 0
M  V30 17612 H 1678.15 1.29726 -4.49765 0
M  V30 17613 H 1678.33 1.5517 -6.29147 0
M  V30 17614 N 1671.73 1.46313 0.585673 0
M  V30 17615 C 1673.14 1.4567 1.16778 0
M  V30 17616 C 1673.49 0.195957 1.95219 0
M  V30 17617 O 1672.62 -0.701142 2.04727 0
M  V30 17618 C 1673.21 2.6392 2.12443 0
M  V30 17619 C 1671.77 2.66327 2.65983 0
M  V30 17620 C 1670.92 2.38304 1.41797 0
M  V30 17621 H 1673.87 1.54236 0.37377 0
M  V30 17622 H 1673.89 2.39268 2.95856 0
M  V30 17623 H 1673.4 3.55663 1.55324 0
M  V30 17624 H 1671.5 1.78648 3.2698 0
M  V30 17625 H 1671.62 3.66203 3.08921 0
M  V30 17626 H 1669.98 1.88302 1.71507 0
M  V30 17627 H 1670.76 3.3222 0.86514 0
M  V30 17628 N 1673.21 -0.830057 1.33969 0
M  V30 17629 C 1674.16 -1.94049 1.24955 0
M  V30 17630 C 1675.13 -1.65619 0.126279 0
M  V30 17631 O 1676.31 -1.88329 0.306049 0
M  V30 17632 C 1673.45 -3.30182 1.00367 0
M  V30 17633 C 1672.56 -3.70952 2.21402 0
M  V30 17634 C 1671.7 -4.95998 1.90157 0
M  V30 17635 C 1670.74 -5.29327 3.07374 0
M  V30 17636 N 1669.88 -6.45551 2.76059 0
M  V30 17637 H 1674.72 -2.01091 2.19923 0
M  V30 17638 H 1672.25 -0.983918 1.0935 0
M  V30 17639 H 1674.21 -4.08625 0.841516 0
M  V30 17640 H 1672.84 -3.22673 0.090692 0
M  V30 17641 H 1671.89 -2.8796 2.48563 0
M  V30 17642 H 1673.2 -3.91558 3.09004 0
M  V30 17643 H 1672.36 -5.8221 1.70636 0
M  V30 17644 H 1671.1 -4.77379 0.998045 0
M  V30 17645 H 1670.1 -4.41616 3.27499 0
M  V30 17646 H 1671.33 -5.4989 3.98495 0
M  V30 17647 H 1669.27 -6.28401 1.88275 0
M  V30 17648 H 1669.19 -6.66295 3.57193 0
M  V30 17649 H 1670.46 -7.34851 2.60026 0
M  V30 17650 N 1674.69 -1.17582 -1.04939 0
M  V30 17651 C 1675.96 -0.875638 -1.74906 0
M  V30 17652 C 1676.34 0.62353 -2.01681 0
M  V30 17653 O 1675.69 1.57558 -1.65492 0
M  V30 17654 C 1675.9 -1.71334 -3.04049 0
M  V30 17655 C 1677.25 -1.93489 -3.77951 0
M  V30 17656 O 1678.27 -1.68314 -3.13925 0
M  V30 17657 O 1677.13 -2.35815 -4.93005 0
M  V30 17658 H 1674.23 -0.324451 -0.760697 0
M  V30 17659 H 1676.77 -1.2829 -1.11084 0
M  V30 17660 H 1675.55 -2.73003 -2.80331 0
M  V30 17661 H 1675.17 -1.30401 -3.75608 0
M  V30 17662 N 1676.17 1.23705 -0.976463 0
M  V30 17663 C 1677.11 2.27034 -0.505813 0
M  V30 17664 C 1678.11 1.63716 0.435148 0
M  V30 17665 O 1679.31 1.7732 0.309474 0
M  V30 17666 H 1675.69 0.737862 -0.145131 0
M  V30 17667 H 1677.66 2.64097 -1.38908 0
M  V30 17668 C 1676.41 3.47234 0.179987 0
M  V30 17669 H 1675.73 3.96205 -0.534969 0
M  V30 17670 H 1677.17 4.21353 0.472996 0
M  V30 17671 C 1675.63 3.05979 1.40991 0
M  V30 17672 O 1676.16 3.13914 2.50641 0
M  V30 17673 N 1674.37 2.60934 1.27913 0
M  V30 17674 H 1673.91 2.54677 0.38696 0
M  V30 17675 H 1673.87 2.33697 2.10316 0
M  V30 17676 N 1677.64 0.747635 1.38738 0
M  V30 17677 C 1678.59 0.11597 2.30508 0
M  V30 17678 C 1679.56 -0.716088 1.49871 0
M  V30 17679 O 1680.75 -0.673446 1.7852 0
M  V30 17680 C 1677.89 -0.775765 3.36268 0
M  V30 17681 C 1677 0.070275 4.31943 0
M  V30 17682 C 1676.13 -0.823908 5.24772 0
M  V30 17683 C 1675.17 0.0261249 6.12094 0
M  V30 17684 N 1674.31 -0.824688 6.9724 0
M  V30 17685 H 1679.15 0.904158 2.83952 0
M  V30 17686 H 1676.69 0.457513 1.39804 0
M  V30 17687 H 1678.64 -1.30735 3.96187 0
M  V30 17688 H 1677.27 -1.5298 2.84248 0
M  V30 17689 H 1676.33 0.719421 3.73535 0
M  V30 17690 H 1677.64 0.726987 4.93474 0
M  V30 17691 H 1676.79 -1.42287 5.89779 0
M  V30 17692 H 1675.53 -1.51437 4.63593 0
M  V30 17693 H 1674.54 0.637803 5.46088 0
M  V30 17694 H 1675.76 0.713556 6.75341 0
M  V30 17695 H 1673.71 -1.50021 6.38616 0
M  V30 17696 H 1673.62 -0.22474 7.55666 0
M  V30 17697 H 1674.89 -1.40882 7.66663 0
M  V30 17698 N 1679.12 -1.49583 0.496242 0
M  V30 17699 C 1680.35 -2.06847 -0.0469118 0
M  V30 17700 C 1680.76 -1.35715 -1.31251 0
M  V30 17701 O 1680.12 -0.434021 -1.77264 0
M  V30 17702 C 1680.17 -3.60174 -0.309338 0
M  V30 17703 O 1679.89 -4.28628 0.906082 0
M  V30 17704 C 1681.39 -4.34137 -0.896664 0
M  V30 17705 H 1678.61 -0.67075 0.0183324 0
M  V30 17706 H 1681.16 -1.92427 0.692237 0
M  V30 17707 H 1679.31 -3.74312 -0.998459 0
M  V30 17708 H 1679.73 -5.20254 0.666014 0
M  V30 17709 H 1681.2 -5.42307 -1.0299 0
M  V30 17710 H 1681.68 -3.96299 -1.89325 0
M  V30 17711 H 1682.28 -4.24593 -0.245158 0
M  V30 17712 N 1680.6 -0.229873 -1.55915 0
M  V30 17713 C 1681.82 0.4072 -2.03363 0
M  V30 17714 C 1682.25 1.5197 -1.10845 0
M  V30 17715 O 1681.61 1.81034 -0.098175 0
M  V30 17716 C 1681.66 0.908268 -3.48974 0
M  V30 17717 O 1680.76 2.01907 -3.59593 0
M  V30 17718 H 1680.1 0.091091 -0.657722 0
M  V30 17719 H 1682.63 -0.350947 -2.01568 0
M  V30 17720 H 1682.64 1.21593 -3.8946 0
M  V30 17721 H 1681.32 0.0940655 -4.15794 0
M  V30 17722 H 1679.89 1.71741 -3.30998 0
M  V30 17723 N 1682.08 1.5754 0.0434337 0
M  V30 17724 C 1683.35 1.79733 0.771713 0
M  V30 17725 C 1683.73 0.82446 1.94334 0
M  V30 17726 O 1683.08 -0.136485 2.28092 0
M  V30 17727 C 1683.29 3.27049 1.2182 0
M  V30 17728 C 1684.64 3.91648 1.64002 0
M  V30 17729 O 1685.66 3.31111 1.31315 0
M  V30 17730 O 1684.52 4.98206 2.24618 0
M  V30 17731 H 1681.62 0.73861 0.372001 0
M  V30 17732 H 1684.16 1.69687 0.0213187 0
M  V30 17733 H 1682.94 3.89439 0.381158 0
M  V30 17734 H 1682.56 3.41929 2.02905 0
M  V30 17735 N 1683.56 -0.31543 1.54411 0
M  V30 17736 C 1684.8 -1.05033 1.72663 0
M  V30 17737 C 1685.12 -1.8828 0.507504 0
M  V30 17738 O 1684.39 -1.89968 -0.478418 0
M  V30 17739 H 1682.97 -0.39077 0.636638 0
M  V30 17740 H 1685.64 -0.3499 1.91733 0
M  V30 17741 H 1684.73 -1.71171 2.60973 0
M  V30 17742 N 1685.03 -1.46622 -0.577906 0
M  V30 17743 C 1686.26 -1.55534 -1.35988 0
M  V30 17744 C 1686.67 -0.197065 -1.88171 0
M  V30 17745 O 1686.02 0.816609 -1.64551 0
M  V30 17746 C 1686.08 -2.5035 -2.58002 0
M  V30 17747 C 1685.74 -3.96491 -2.27253 0
M  V30 17748 C 1686.74 -4.85567 -1.85797 0
M  V30 17749 C 1684.42 -4.41662 -2.39249 0
M  V30 17750 C 1686.42 -6.17828 -1.56738 0
M  V30 17751 C 1684.1 -5.73956 -2.09803 0
M  V30 17752 C 1685.1 -6.6186 -1.68613 0
M  V30 17753 O 1684.79 -7.91698 -1.3953 0
M  V30 17754 H 1684.52 -0.528412 -0.421612 0
M  V30 17755 H 1687.08 -1.92774 -0.709038 0
M  V30 17756 H 1685.31 -2.08137 -3.25908 0
M  V30 17757 H 1687 -2.49616 -3.20073 0
M  V30 17758 H 1687.76 -4.51924 -1.76039 0
M  V30 17759 H 1683.64 -3.73462 -2.70272 0
M  V30 17760 H 1687.18 -6.86398 -1.24514 0
M  V30 17761 H 1683.08 -6.07147 -2.19187 0
M  V30 17762 H 1683.85 -8.04009 -1.53335 0
M  V30 17763 N 1686.51 0.822941 -1.34408 0
M  V30 17764 C 1687.46 1.95524 -1.25988 0
M  V30 17765 C 1688.45 1.68662 -0.157994 0
M  V30 17766 O 1689.66 1.77079 -0.322966 0
M  V30 17767 H 1686.04 0.642117 -0.391394 0
M  V30 17768 H 1688.01 1.99747 -2.21683 0
M  V30 17769 C 1686.76 3.32026 -1.03218 0
M  V30 17770 H 1686.08 3.53244 -1.87239 0
M  V30 17771 H 1687.52 4.11706 -1.01363 0
M  V30 17772 C 1685.98 3.3586 0.264523 0
M  V30 17773 O 1686.51 3.81232 1.26589 0
M  V30 17774 N 1684.71 2.89072 0.297626 0
M  V30 17775 H 1684.26 2.52341 -0.517836 0
M  V30 17776 H 1684.22 2.92019 1.165 0
M  V30 17777 N 1687.99 1.18137 1.04314 0
M  V30 17778 C 1689.27 0.884901 1.74439 0
M  V30 17779 C 1689.65 -0.612825 2.02009 0
M  V30 17780 O 1689 -1.56679 1.66325 0
M  V30 17781 C 1689.21 1.72944 3.03136 0
M  V30 17782 C 1690.55 1.95491 3.7692 0
M  V30 17783 O 1691.58 1.69976 3.13028 0
M  V30 17784 O 1690.44 2.38426 4.91747 0
M  V30 17785 H 1687.53 0.328481 0.758966 0
M  V30 17786 H 1690.08 1.28878 1.10402 0
M  V30 17787 H 1688.85 2.74485 2.78879 0
M  V30 17788 H 1688.47 1.32392 3.74911 0
M  V30 17789 N 1689.47 -1.23186 0.98301 0
M  V30 17790 C 1690.38 -2.28448 0.533727 0
M  V30 17791 C 1691.39 -1.69034 -0.412732 0
M  V30 17792 O 1692.57 -1.99416 -0.282007 0
M  V30 17793 C 1689.64 -3.46357 -0.154179 0
M  V30 17794 C 1688.7 -4.21121 0.834009 0
M  V30 17795 C 1687.93 -5.334 0.178836 0
M  V30 17796 O 1688.15 -5.61032 -1.02952 0
M  V30 17797 O 1687.09 -5.95451 0.878722 0
M  V30 17798 H 1690.91 -2.69027 1.40919 0
M  V30 17799 H 1688.5 -1.29166 0.75077 0
M  V30 17800 H 1690.38 -4.17926 -0.539947 0
M  V30 17801 H 1689.05 -3.07724 -1.00437 0
M  V30 17802 H 1687.96 -3.51864 1.27053 0
M  V30 17803 H 1689.29 -4.6361 1.65309 0
M  V30 17804 N 1690.95 -0.754982 -1.38339 0
M  V30 17805 C 1691.88 -0.143678 -2.33058 0
M  V30 17806 C 1692.86 0.702022 -1.54938 0
M  V30 17807 O 1694.04 0.642922 -1.83249 0
M  V30 17808 C 1691.17 0.749194 -3.39123 0
M  V30 17809 C 1690.13 0.00611459 -4.28 0
M  V30 17810 C 1689.45 1.01733 -5.24933 0
M  V30 17811 C 1690.75 -1.1631 -5.09185 0
M  V30 17812 H 1692.45 -0.934907 -2.84429 0
M  V30 17813 H 1689.99 -0.451023 -1.36754 0
M  V30 17814 H 1691.95 1.18653 -4.04351 0
M  V30 17815 H 1690.67 1.57276 -2.86237 0
M  V30 17816 H 1689.33 -0.411816 -3.6428 0
M  V30 17817 H 1688.98 1.83499 -4.68334 0
M  V30 17818 H 1688.68 0.524783 -5.85252 0
M  V30 17819 H 1690.2 1.45395 -5.93037 0
M  V30 17820 H 1691.61 -0.803244 -5.67645 0
M  V30 17821 H 1690.01 -1.5866 -5.78746 0
M  V30 17822 H 1691.08 -1.97533 -4.42842 0
M  V30 17823 N 1692.42 1.49318 -0.504168 0
M  V30 17824 C 1693.33 2.32958 0.277053 0
M  V30 17825 C 1694.35 1.44838 0.964266 0
M  V30 17826 O 1695.53 1.77856 0.944947 0
M  V30 17827 C 1692.59 3.20352 1.32572 0
M  V30 17828 C 1691.65 4.24326 0.651606 0
M  V30 17829 C 1690.89 5.07544 1.65031 0
M  V30 17830 O 1691.11 4.92326 2.88047 0
M  V30 17831 O 1690.04 5.89737 1.20388 0
M  V30 17832 H 1693.87 3.00952 -0.40763 0
M  V30 17833 H 1691.45 1.47023 -0.265453 0
M  V30 17834 H 1693.34 3.74483 1.93237 0
M  V30 17835 H 1692.01 2.5505 1.99327 0
M  V30 17836 H 1690.92 3.741 0.00513384 0
M  V30 17837 H 1692.25 4.92193 0.0264424 0
M  V30 17838 N 1693.9 0.238138 1.5579 0
M  V30 17839 C 1695.15 -0.388263 1.98335 0
M  V30 17840 C 1695.47 -1.59104 1.12743 0
M  V30 17841 O 1694.74 -1.9479 0.208201 0
M  V30 17842 H 1693.32 -0.14644 0.732505 0
M  V30 17843 H 1695.98 0.334891 1.92001 0
M  V30 17844 H 1695.08 -0.703359 3.04071 0
M  V30 17845 N 1695.38 -1.57561 -0.0350783 0
M  V30 17846 C 1696.63 -1.88177 -0.726105 0
M  V30 17847 C 1696.94 -0.835856 -1.76841 0
M  V30 17848 O 1698.15 -1.03105 -2.51161 0
M  V30 17849 C 1696.6 -3.33924 -1.34249 0
M  V30 17850 C 1696.21 -4.46732 -0.336845 0
M  V30 17851 C 1697.96 -3.73696 -2.01374 0
M  V30 17852 C 1695.86 -5.83536 -0.961234 0
M  V30 17853 H 1694.79 -0.702082 -0.274948 0
M  V30 17854 H 1697.44 -1.83489 0.0197081 0
M  V30 17855 H 1695.83 -3.33337 -2.13781 0
M  V30 17856 H 1697 -4.58777 0.431323 0
M  V30 17857 H 1695.32 -4.15753 0.231983 0
M  V30 17858 H 1697.91 -4.7322 -2.48931 0
M  V30 17859 H 1698.26 -3.05379 -2.8293 0
M  V30 17860 H 1698.79 -3.76431 -1.28626 0
M  V30 17861 H 1695.53 -6.55238 -0.185217 0
M  V30 17862 H 1695.05 -5.75223 -1.69938 0
M  V30 17863 H 1696.73 -6.30071 -1.47035 0
M  V30 17864 N 1696.86 0.307236 -1.54576 0
M  V30 17865 C 1697.79 1.38357 -1.88095 0
M  V30 17866 C 1698.77 1.53196 -0.739253 0
M  V30 17867 O 1699.95 1.66807 -0.99444 0
M  V30 17868 C 1697.08 2.74876 -2.12274 0
M  V30 17869 C 1696.04 2.74809 -3.28122 0
M  V30 17870 C 1695.36 4.14557 -3.37707 0
M  V30 17871 C 1696.66 2.37103 -4.65381 0
M  V30 17872 H 1698.36 1.10554 -2.78241 0
M  V30 17873 H 1695.9 0.530383 -1.33877 0
M  V30 17874 H 1697.86 3.50254 -2.34308 0
M  V30 17875 H 1696.58 3.04191 -1.18893 0
M  V30 17876 H 1695.24 2.01887 -3.06002 0
M  V30 17877 H 1694.89 4.41039 -2.41854 0
M  V30 17878 H 1694.59 4.15415 -4.15577 0
M  V30 17879 H 1696.11 4.91724 -3.61994 0
M  V30 17880 H 1697.53 3.02196 -4.87186 0
M  V30 17881 H 1695.92 2.49184 -5.45919 0
M  V30 17882 H 1696.99 1.32235 -4.66521 0
M  V30 17883 N 1698.34 1.46926 0.570122 0
M  V30 17884 C 1699.28 1.58442 1.67824 0
M  V30 17885 C 1700.25 0.428053 1.6049 0
M  V30 17886 O 1701.44 0.646445 1.79515 0
M  V30 17887 C 1698.58 1.59253 3.06158 0
M  V30 17888 C 1697.69 2.85714 3.24024 0
M  V30 17889 C 1696.83 2.77945 4.52681 0
M  V30 17890 C 1695.87 3.99289 4.63934 0
M  V30 17891 N 1695 3.89833 5.83931 0
M  V30 17892 H 1699.84 2.5309 1.5732 0
M  V30 17893 H 1697.38 1.25549 0.766548 0
M  V30 17894 H 1699.34 1.57707 3.86244 0
M  V30 17895 H 1697.97 0.68127 3.15529 0
M  V30 17896 H 1697.02 2.97184 2.37458 0
M  V30 17897 H 1698.33 3.7561 3.28206 0
M  V30 17898 H 1697.49 2.74576 5.41011 0
M  V30 17899 H 1696.22 1.85711 4.50958 0
M  V30 17900 H 1695.23 4.02976 3.74019 0
M  V30 17901 H 1696.45 4.92635 4.67427 0
M  V30 17902 H 1694.4 3.00393 5.83181 0
M  V30 17903 H 1694.32 4.73395 5.89434 0
M  V30 17904 H 1695.59 3.90459 6.74657 0
M  V30 17905 N 1699.82 -0.815801 1.34842 0
M  V30 17906 C 1700.76 -1.92713 1.27006 0
M  V30 17907 C 1701.73 -1.65476 0.143838 0
M  V30 17908 O 1702.92 -1.87994 0.326007 0
M  V30 17909 C 1700.06 -3.29099 1.03863 0
M  V30 17910 C 1699.17 -3.68583 2.25324 0
M  V30 17911 C 1698.31 -4.93953 1.95407 0
M  V30 17912 C 1697.34 -5.26037 3.12971 0
M  V30 17913 N 1696.48 -6.42586 2.82891 0
M  V30 17914 H 1701.32 -1.98747 2.22044 0
M  V30 17915 H 1698.86 -0.972265 1.10388 0
M  V30 17916 H 1700.82 -4.07709 0.884809 0
M  V30 17917 H 1699.45 -3.22558 0.124911 0
M  V30 17918 H 1698.5 -2.85307 2.51603 0
M  V30 17919 H 1699.81 -3.88259 3.1314 0
M  V30 17920 H 1698.96 -5.80367 1.76801 0
M  V30 17921 H 1697.7 -4.76293 1.04862 0
M  V30 17922 H 1696.71 -4.38117 3.32165 0
M  V30 17923 H 1697.93 -5.45632 4.04305 0
M  V30 17924 H 1695.88 -6.26369 1.9493 0
M  V30 17925 H 1695.8 -6.62469 3.64239 0
M  V30 17926 H 1697.06 -7.32052 2.67805 0
M  V30 17927 N 1701.29 -1.18689 -1.03686 0
M  V30 17928 C 1702.54 -0.982656 -1.76602 0
M  V30 17929 C 1702.86 0.488553 -1.88781 0
M  V30 17930 O 1702.13 1.35419 -1.41558 0
M  V30 17931 H 1700.71 -0.360595 -0.654202 0
M  V30 17932 H 1703.37 -1.49439 -1.25115 0
M  V30 17933 H 1702.47 -1.42392 -2.77725 0
M  V30 17934 N 1702.77 1.22662 -0.989529 0
M  V30 17935 C 1704.02 1.91322 -0.663497 0
M  V30 17936 C 1704.35 1.77102 0.804057 0
M  V30 17937 O 1703.6 1.13169 1.5966 0
M  V30 17938 C 1703.9 3.428 -1.01109 0
M  V30 17939 C 1703.57 3.77206 -2.47035 0
M  V30 17940 C 1702.23 3.86308 -2.86914 0
M  V30 17941 C 1704.58 3.93617 -3.41636 0
M  V30 17942 C 1701.91 4.09255 -4.20389 0
M  V30 17943 C 1704.26 4.18067 -4.74766 0
M  V30 17944 C 1702.92 4.25392 -5.14391 0
M  V30 17945 H 1702.19 0.700095 -0.242791 0
M  V30 17946 H 1704.84 1.45498 -1.24509 0
M  V30 17947 H 1703.15 3.90256 -0.347533 0
M  V30 17948 H 1704.84 3.94171 -0.736909 0
M  V30 17949 H 1701.43 3.70702 -2.15123 0
M  V30 17950 H 1705.62 3.85966 -3.12 0
M  V30 17951 H 1700.87 4.13152 -4.50683 0
M  V30 17952 H 1705.05 4.29708 -5.48018 0
M  V30 17953 H 1702.67 4.42926 -6.17835 0
M  V30 17954 N 1704.25 0.762308 1.37937 0
M  V30 17955 C 1705.16 0.142724 2.34165 0
M  V30 17956 C 1706.18 -0.690588 1.59709 0
M  V30 17957 O 1707.35 -0.61271 1.91854 0
M  V30 17958 C 1704.42 -0.733325 3.38856 0
M  V30 17959 C 1703.48 0.115359 4.29145 0
M  V30 17960 C 1702.71 -0.718972 5.28835 0
M  V30 17961 O 1702.93 -1.95656 5.35794 0
M  V30 17962 O 1701.87 -0.133162 6.01753 0
M  V30 17963 H 1705.69 0.937662 2.88863 0
M  V30 17964 H 1703.28 0.523325 1.39935 0
M  V30 17965 H 1705.16 -1.23374 4.02935 0
M  V30 17966 H 1703.84 -1.50661 2.86501 0
M  V30 17967 H 1702.74 0.661926 3.68197 0
M  V30 17968 H 1704.08 0.851505 4.84779 0
M  V30 17969 N 1705.73 -1.49049 0.51208 0
M  V30 17970 C 1707 -1.95383 -0.0920331 0
M  V30 17971 C 1707.38 -1.4539 -1.53053 0
M  V30 17972 O 1706.73 -0.672485 -2.1838 0
M  V30 17973 C 1706.94 -3.48999 0.00673901 0
M  V30 17974 C 1708.29 -4.24292 -0.161602 0
M  V30 17975 O 1709.31 -3.56135 -0.0679198 0
M  V30 17976 O 1708.17 -5.45343 -0.355351 0
M  V30 17977 H 1705.27 -0.822175 -0.0891992 0
M  V30 17978 H 1707.81 -1.59647 0.575406 0
M  V30 17979 H 1706.59 -3.78055 1.00948 0
M  V30 17980 H 1706.21 -3.91383 -0.700353 0
M  V30 17981 N 1707.21 -0.246397 -1.55662 0
M  V30 17982 C 1708.45 0.379047 -1.99226 0
M  V30 17983 C 1708.78 1.57627 -1.13434 0
M  V30 17984 O 1708.06 1.93493 -0.197627 0
M  V30 17985 C 1708.34 0.789403 -3.51341 0
M  V30 17986 C 1708.2 -0.413176 -4.47898 0
M  V30 17987 C 1709.51 1.63656 -4.0854 0
M  V30 17988 H 1706.63 0.136302 -0.724286 0
M  V30 17989 H 1709.28 -0.347607 -1.86793 0
M  V30 17990 H 1707.43 1.40854 -3.62067 0
M  V30 17991 H 1709.1 -1.0516 -4.49154 0
M  V30 17992 H 1707.34 -1.05636 -4.20741 0
M  V30 17993 H 1708.01 -0.0827267 -5.51938 0
M  V30 17994 H 1710.49 1.11393 -4.00912 0
M  V30 17995 H 1709.36 1.89254 -5.15242 0
M  V30 17996 H 1709.62 2.60823 -3.56965 0
M  V30 17997 N 1708.68 1.57577 0.026722 0
M  V30 17998 C 1709.91 1.9364 0.728771 0
M  V30 17999 C 1710.33 0.846352 1.68767 0
M  V30 18000 O 1709.68 -0.177038 1.81639 0
M  V30 18001 C 1709.73 3.29644 1.48381 0
M  V30 18002 O 1709.46 4.34462 0.563393 0
M  V30 18003 C 1710.96 3.80004 2.2828 0
M  V30 18004 H 1708.18 0.639025 0.204666 0
M  V30 18005 H 1710.72 2.04493 -0.016449 0
M  V30 18006 H 1708.88 3.20181 2.18089 0
M  V30 18007 H 1709.29 5.12982 1.09315 0
M  V30 18008 H 1710.76 4.77671 2.76649 0
M  V30 18009 H 1711.24 3.11319 3.09802 0
M  V30 18010 H 1711.85 3.92558 1.63642 0
M  V30 18011 N 1710.16 -0.299034 1.54737 0
M  V30 18012 C 1711.12 -1.35199 1.85078 0
M  V30 18013 C 1712.12 -1.4359 0.723788 0
M  V30 18014 O 1713.31 -1.43191 0.992067 0
M  V30 18015 C 1710.45 -2.73659 2.03282 0
M  V30 18016 H 1711.64 -1.09538 2.7918 0
M  V30 18017 H 1709.19 -0.535803 1.46829 0
M  V30 18018 H 1709.93 -3.04539 1.11475 0
M  V30 18019 H 1709.71 -2.68959 2.85313 0
M  V30 18020 H 1711.2 -3.49787 2.28119 0
M  V30 18021 N 1711.64 -1.47227 -0.562322 0
M  V30 18022 C 1712.59 -1.59329 -1.66981 0
M  V30 18023 C 1713.56 -0.436558 -1.6026 0
M  V30 18024 O 1714.74 -0.655956 -1.7917 0
M  V30 18025 C 1711.88 -1.60874 -3.05309 0
M  V30 18026 C 1710.99 -2.87428 -3.22505 0
M  V30 18027 C 1710.13 -2.80342 -4.512 0
M  V30 18028 C 1709.17 -4.01744 -4.6181 0
M  V30 18029 N 1708.31 -3.92924 -5.81855 0
M  V30 18030 H 1713.15 -2.53921 -1.55975 0
M  V30 18031 H 1710.68 -1.25953 -0.759879 0
M  V30 18032 H 1712.64 -1.59753 -3.85402 0
M  V30 18033 H 1711.27 -0.697994 -3.15163 0
M  V30 18034 H 1710.32 -2.98439 -2.35878 0
M  V30 18035 H 1711.63 -3.77345 -3.26209 0
M  V30 18036 H 1710.79 -2.77442 -5.39547 0
M  V30 18037 H 1709.53 -1.881 -4.49966 0
M  V30 18038 H 1708.53 -4.04954 -3.71877 0
M  V30 18039 H 1709.76 -4.95107 -4.64807 0
M  V30 18040 H 1707.7 -3.03481 -5.8158 0
M  V30 18041 H 1707.62 -4.76514 -5.86916 0
M  V30 18042 H 1708.89 -3.94031 -6.72577 0
M  V30 18043 N 1713.12 0.808639 -1.35273 0
M  V30 18044 C 1714.37 1.56253 -1.28177 0
M  V30 18045 C 1714.69 1.94466 0.144151 0
M  V30 18046 O 1713.96 1.63433 1.08011 0
M  V30 18047 H 1712.54 0.579431 -0.471454 0
M  V30 18048 H 1715.2 0.964675 -1.69352 0
M  V30 18049 H 1714.29 2.47888 -1.89625 0
M  V30 18050 N 1714.6 1.19237 1.03055 0
M  V30 18051 C 1715.82 1.01983 1.80594 0
M  V30 18052 C 1716.25 -0.426875 1.83192 0
M  V30 18053 O 1715.6 -1.30678 1.2567 0
M  V30 18054 C 1715.65 1.59139 3.23585 0
M  V30 18055 O 1714.76 0.819576 4.04174 0
M  V30 18056 H 1714.1 0.360585 0.557561 0
M  V30 18057 H 1716.63 1.58222 1.29719 0
M  V30 18058 H 1716.64 1.62283 3.74337 0
M  V30 18059 H 1715.31 2.64436 3.21009 0
M  V30 18060 H 1713.89 0.861253 3.62818 0
M  V30 18061 N 1716.07 -1.22136 0.99602 0
M  V30 18062 C 1717.02 -2.24178 0.54889 0
M  V30 18063 C 1717.99 -1.60692 -0.420391 0
M  V30 18064 O 1719.18 -1.88021 -0.324452 0
M  V30 18065 C 1716.32 -3.44865 -0.127239 0
M  V30 18066 C 1715.43 -4.22855 0.884153 0
M  V30 18067 C 1714.56 -5.30891 0.181219 0
M  V30 18068 C 1713.6 -6.00603 1.18077 0
M  V30 18069 N 1712.74 -7.00275 0.505927 0
M  V30 18070 H 1717.58 -2.61788 1.42377 0
M  V30 18071 H 1715.12 -1.28658 0.713124 0
M  V30 18072 H 1717.08 -4.1374 -0.536194 0
M  V30 18073 H 1715.71 -3.0801 -0.965892 0
M  V30 18074 H 1714.76 -3.53247 1.41141 0
M  V30 18075 H 1716.07 -4.70888 1.64518 0
M  V30 18076 H 1715.22 -6.06033 -0.284307 0
M  V30 18077 H 1713.96 -4.83841 -0.612289 0
M  V30 18078 H 1712.97 -5.2424 1.65689 0
M  V30 18079 H 1714.19 -6.4974 1.9752 0
M  V30 18080 H 1712.14 -6.55452 -0.268088 0
M  V30 18081 H 1712.06 -7.46329 1.20535 0
M  V30 18082 H 1713.32 -7.79474 0.0633069 0
M  V30 18083 N 1717.55 -0.769612 -1.37531 0
M  V30 18084 C 1718.97 -0.449 -1.53154 0
M  V30 18085 C 1719.17 1.03568 -1.72847 0
M  V30 18086 O 1718.22 1.82154 -1.74861 0
M  V30 18087 C 1719.54 -1.26221 -2.72926 0
M  V30 18088 C 1721.09 -1.2539 -2.86786 0
M  V30 18089 C 1721.56 -2.05041 -4.09539 0
M  V30 18090 N 1723.05 -2.02384 -4.16647 0
M  V30 18091 C 1723.79 -2.60798 -5.10658 0
M  V30 18092 N 1723.28 -3.27991 -6.10241 0
M  V30 18093 N 1725.08 -2.5064 -5.03126 0
M  V30 18094 H 1717.23 -1.73161 -1.23 0
M  V30 18095 H 1719.49 -0.734977 -0.598759 0
M  V30 18096 H 1719.2 -2.31423 -2.64832 0
M  V30 18097 H 1719.07 -0.889937 -3.66551 0
M  V30 18098 H 1721.46 -0.209869 -2.94353 0
M  V30 18099 H 1721.54 -1.6658 -1.94126 0
M  V30 18100 H 1721.18 -3.09464 -4.02734 0
M  V30 18101 H 1721.11 -1.61234 -5.01309 0
M  V30 18102 H 1723.6 -1.53464 -3.45337 0
M  V30 18103 H 1723.92 -3.69942 -6.785 0
M  V30 18104 H 1722.26 -3.32089 -6.10526 0
M  V30 18105 H 1725.45 -1.97762 -4.24273 0
M  V30 18106 H 1725.62 -2.96458 -5.76209 0
M  V30 18107 N 1719.03 1.48775 -0.519977 0
M  V30 18108 C 1720.28 2.02092 0.0177154 0
M  V30 18109 C 1720.6 1.40024 1.35714 0
M  V30 18110 O 1719.87 0.562115 1.87662 0
M  V30 18111 H 1718.45 0.746939 0.00953578 0
M  V30 18112 H 1721.11 1.82595 -0.681535 0
M  V30 18113 H 1720.21 3.11815 0.133431 0
M  V30 18114 N 1720.51 0.254649 1.55529 0
M  V30 18115 C 1721.92 -0.100019 1.59286 0
M  V30 18116 C 1722.12 -1.56289 1.27185 0
M  V30 18117 O 1721.18 -2.30854 1.02287 0
M  V30 18118 C 1722.49 0.256158 2.99607 0
M  V30 18119 C 1724.04 0.201091 3.12353 0
M  V30 18120 C 1724.52 0.531411 4.54907 0
M  V30 18121 N 1726.01 0.482199 4.60683 0
M  V30 18122 C 1726.74 0.710848 5.68977 0
M  V30 18123 N 1726.24 1.00304 6.85501 0
M  V30 18124 N 1728.03 0.641029 5.58433 0
M  V30 18125 H 1720.18 1.20856 1.74664 0
M  V30 18126 H 1722.45 0.486824 0.813453 0
M  V30 18127 H 1722.15 1.27275 3.27863 0
M  V30 18128 H 1722.03 -0.412994 3.74932 0
M  V30 18129 H 1724.41 -0.806189 2.83874 0
M  V30 18130 H 1724.49 0.904206 2.39286 0
M  V30 18131 H 1724.14 1.53628 4.84108 0
M  V30 18132 H 1724.07 -0.193269 5.26245 0
M  V30 18133 H 1726.56 0.265409 3.76967 0
M  V30 18134 H 1726.87 1.16472 7.63973 0
M  V30 18135 H 1725.22 1.04059 6.87166 0
M  V30 18136 H 1728.41 0.412751 4.66277 0
M  V30 18137 H 1728.58 0.822617 6.42757 0
M  V30 18138 N 1721.99 -1.57589 -0.0183649 0
M  V30 18139 C 1723.21 -1.94024 -0.718491 0
M  V30 18140 C 1723.63 -0.85529 -1.68316 0
M  V30 18141 O 1722.99 0.167403 -1.81731 0
M  V30 18142 C 1723.04 -3.30427 -1.4663 0
M  V30 18143 O 1722.76 -4.34755 -0.540345 0
M  V30 18144 C 1724.26 -3.81209 -2.26262 0
M  V30 18145 H 1721.48 -0.640101 -0.201275 0
M  V30 18146 H 1724.02 -2.04482 0.0272935 0
M  V30 18147 H 1722.18 -3.21333 -2.16388 0
M  V30 18148 H 1722.59 -5.13554 -1.06593 0
M  V30 18149 H 1724.07 -4.79131 -2.74112 0
M  V30 18150 H 1724.54 -3.12957 -3.08147 0
M  V30 18151 H 1725.15 -3.9342 -1.61558 0
M  V30 18152 N 1723.46 0.290824 -1.54893 0
M  V30 18153 C 1724.4 1.38393 -1.81446 0
M  V30 18154 C 1725.38 1.48322 -0.666282 0
M  V30 18155 O 1726.56 1.65225 -0.907354 0
M  V30 18156 C 1723.69 2.76211 -1.96024 0
M  V30 18157 C 1722.73 2.83655 -3.18499 0
M  V30 18158 S 1723.57 2.44713 -4.76315 0
M  V30 18159 C 1724.72 3.84539 -4.93843 0
M  V30 18160 H 1724.95 1.15664 -2.73878 0
M  V30 18161 H 1722.49 0.489495 -1.46435 0
M  V30 18162 H 1724.45 3.55585 -2.05108 0
M  V30 18163 H 1723.11 2.96203 -1.04511 0
M  V30 18164 H 1722.3 3.84765 -3.25533 0
M  V30 18165 H 1721.9 2.12285 -3.07914 0
M  V30 18166 H 1724.19 4.79639 -4.7849 0
M  V30 18167 H 1725.14 3.82469 -5.95922 0
M  V30 18168 H 1725.54 3.75014 -4.2193 0
M  V30 18169 N 1724.94 1.47523 0.554506 0
M  V30 18170 C 1725.91 1.59761 1.64345 0
M  V30 18171 C 1726.91 0.472516 1.53701 0
M  V30 18172 O 1728.1 0.737659 1.57811 0
M  V30 18173 C 1725.23 1.54467 3.03896 0
M  V30 18174 H 1726.42 2.56834 1.54842 0
M  V30 18175 H 1723.97 1.35753 0.774643 0
M  V30 18176 H 1724.71 0.587789 3.18929 0
M  V30 18177 H 1724.49 2.36123 3.13031 0
M  V30 18178 H 1725.98 1.66174 3.83113 0
M  V30 18179 N 1726.42 -0.801453 1.357 0
M  V30 18180 C 1727.67 -1.55879 1.2926 0
M  V30 18181 C 1728 -1.94055 -0.131552 0
M  V30 18182 O 1727.25 -1.61993 -1.09803 0
M  V30 18183 C 1727.55 -2.85531 2.14957 0
M  V30 18184 C 1727.22 -2.6655 3.63679 0
M  V30 18185 C 1725.88 -2.61081 4.04216 0
M  V30 18186 C 1728.23 -2.48725 4.58023 0
M  V30 18187 C 1725.56 -2.35737 5.37257 0
M  V30 18188 C 1727.91 -2.2491 5.91268 0
M  V30 18189 C 1726.57 -2.17867 6.30944 0
M  V30 18190 H 1725.84 -0.570401 0.472994 0
M  V30 18191 H 1728.49 -0.925627 1.67644 0
M  V30 18192 H 1726.8 -3.53252 1.69471 0
M  V30 18193 H 1728.49 -3.43256 2.07307 0
M  V30 18194 H 1725.08 -2.71656 3.31513 0
M  V30 18195 H 1729.27 -2.51959 4.27587 0
M  V30 18196 H 1724.52 -2.28758 5.66992 0
M  V30 18197 H 1728.7 -2.1011 6.63948 0
M  V30 18198 H 1726.32 -1.97991 7.33964 0
M  V30 18199 N 1727.9 -1.19782 -1.02421 0
M  V30 18200 C 1729.15 -0.997598 -1.75302 0
M  V30 18201 C 1729.46 0.471843 -1.89824 0
M  V30 18202 O 1730.67 0.790999 -2.59722 0
M  V30 18203 C 1729.12 -1.73608 -3.15259 0
M  V30 18204 C 1728.73 -3.24594 -3.08776 0
M  V30 18205 C 1730.47 -1.61927 -3.92403 0
M  V30 18206 C 1728.38 -3.91012 -4.43693 0
M  V30 18207 H 1727.31 -0.369643 -0.657176 0
M  V30 18208 H 1729.96 -1.43325 -1.14587 0
M  V30 18209 H 1728.34 -1.22826 -3.7647 0
M  V30 18210 H 1729.52 -3.82531 -2.56918 0
M  V30 18211 H 1727.83 -3.36603 -2.45127 0
M  V30 18212 H 1730.43 -2.08896 -4.92206 0
M  V30 18213 H 1730.77 -0.574192 -4.12321 0
M  V30 18214 H 1731.31 -2.10081 -3.37803 0
M  V30 18215 H 1728.05 -4.95639 -4.28979 0
M  V30 18216 H 1727.57 -3.37864 -4.95588 0
M  V30 18217 H 1729.24 -3.94828 -5.12562 0
M  V30 18218 N 1729.38 1.21606 -1.00248 0
M  V30 18219 C 1730.6 1.95149 -0.702249 0
M  V30 18220 C 1731.03 1.73429 0.728293 0
M  V30 18221 O 1730.39 1.01953 1.49917 0
M  V30 18222 C 1730.43 3.45705 -1.0257 0
M  V30 18223 O 1729.54 4.12196 -0.129575 0
M  V30 18224 H 1728.88 0.610173 -0.261888 0
M  V30 18225 H 1731.41 1.54435 -1.34205 0
M  V30 18226 H 1731.42 3.96265 -0.97151 0
M  V30 18227 H 1730.09 3.60838 -2.06806 0
M  V30 18228 H 1728.67 3.72126 -0.240074 0
M  V30 18229 N 1730.86 0.776895 1.37121 0
M  V30 18230 C 1731.82 0.172839 2.28547 0
M  V30 18231 C 1732.82 -0.622508 1.48262 0
M  V30 18232 O 1734.01 -0.44534 1.68411 0
M  V30 18233 C 1731.14 -0.762294 3.32268 0
M  V30 18234 H 1732.33 0.978842 2.83476 0
M  V30 18235 H 1729.89 0.545454 1.46474 0
M  V30 18236 H 1730.62 -1.59311 2.82472 0
M  V30 18237 H 1730.41 -0.194084 3.91619 0
M  V30 18238 H 1731.9 -1.1802 4.00576 0
M  V30 18239 N 1732.33 -1.48497 0.527859 0
M  V30 18240 C 1733.58 -2.02799 -0.00702196 0
M  V30 18241 C 1733.91 -1.40433 -1.34135 0
M  V30 18242 O 1733.19 -0.54934 -1.86581 0
M  V30 18243 C 1733.47 -3.59861 -0.131272 0
M  V30 18244 C 1733.32 -4.32711 1.22807 0
M  V30 18245 C 1734.64 -4.31634 -0.85908 0
M  V30 18246 H 1731.76 -0.736999 -0.00107787 0
M  V30 18247 H 1734.4 -1.77242 0.684478 0
M  V30 18248 H 1732.55 -3.81766 -0.720216 0
M  V30 18249 H 1734.23 -4.22229 1.85796 0
M  V30 18250 H 1732.47 -3.94212 1.8105 0
M  V30 18251 H 1733.14 -5.41047 1.09415 0
M  V30 18252 H 1735.62 -4.14546 -0.359322 0
M  V30 18253 H 1734.49 -5.41221 -0.914911 0
M  V30 18254 H 1734.75 -3.98765 -1.90889 0
M  V30 18255 N 1733.81 -0.262893 -1.55392 0
M  V30 18256 C 1735.06 0.350943 -2.0035 0
M  V30 18257 C 1735.41 1.54393 -1.14806 0
M  V30 18258 O 1734.71 1.90476 -0.207269 0
M  V30 18259 C 1734.9 0.795313 -3.48439 0
M  V30 18260 C 1734.73 -0.353073 -4.48312 0
M  V30 18261 C 1733.5 -0.832927 -4.98388 0
M  V30 18262 C 1735.7 -1.18547 -5.00451 0
M  V30 18263 N 1733.68 -1.95205 -5.82038 0
M  V30 18264 C 1735.05 -2.1527 -5.81428 0
M  V30 18265 C 1737.1 -1.22021 -4.82716 0
M  V30 18266 C 1735.81 -3.15196 -6.46563 0
M  V30 18267 C 1737.83 -2.20786 -5.48641 0
M  V30 18268 C 1737.2 -3.16243 -6.2942 0
M  V30 18269 H 1733.29 0.0939303 -0.776338 0
M  V30 18270 H 1735.88 -0.384126 -1.90873 0
M  V30 18271 H 1734.05 1.49963 -3.58281 0
M  V30 18272 H 1735.78 1.38545 -3.80246 0
M  V30 18273 H 1732.54 -0.414314 -4.71784 0
M  V30 18274 H 1732.96 -2.51486 -6.28557 0
M  V30 18275 H 1737.6 -0.496042 -4.1988 0
M  V30 18276 H 1735.32 -3.88554 -7.08556 0
M  V30 18277 H 1738.91 -2.242 -5.36866 0
M  V30 18278 H 1737.79 -3.91417 -6.79531 0
M  V30 18279 N 1735.29 1.57597 0.0100073 0
M  V30 18280 C 1736.53 1.91983 0.701555 0
M  V30 18281 C 1736.89 0.863453 1.71489 0
M  V30 18282 O 1738.09 1.09225 2.45608 0
M  V30 18283 C 1736.37 3.31459 1.33678 0
M  V30 18284 S 1737.92 3.87714 2.05484 0
M  V30 18285 H 1734.74 0.672093 0.231975 0
M  V30 18286 H 1737.34 1.9545 -0.0442772 0
M  V30 18287 H 1736.05 4.06191 0.586295 0
M  V30 18288 H 1735.58 3.31342 2.12076 0
M  V30 18289 H 1737.59 3.6798 3.32874 0
M  V30 18290 N 1736.77 -0.282606 1.55045 0
M  V30 18291 C 1737.68 -1.37129 1.90349 0
M  V30 18292 C 1738.69 -1.54537 0.799639 0
M  V30 18293 O 1739.87 -1.68849 1.09782 0
M  V30 18294 C 1736.93 -2.71211 2.15975 0
M  V30 18295 C 1736 -2.62632 3.39592 0
M  V30 18296 C 1735.23 -3.90319 3.63987 0
M  V30 18297 O 1735.45 -4.90551 2.9106 0
M  V30 18298 O 1734.39 -3.91102 4.57518 0
M  V30 18299 H 1738.21 -1.10189 2.83006 0
M  V30 18300 H 1735.8 -0.480293 1.41469 0
M  V30 18301 H 1737.68 -3.50509 2.33926 0
M  V30 18302 H 1736.35 -2.97958 1.26503 0
M  V30 18303 H 1735.26 -1.81743 3.26987 0
M  V30 18304 H 1736.59 -2.40836 4.29254 0
M  V30 18305 N 1738.25 -1.47815 -0.546675 0
M  V30 18306 C 1739.18 -1.55643 -1.66884 0
M  V30 18307 C 1740.16 -0.407884 -1.57401 0
M  V30 18308 O 1741.34 -0.617164 -1.7811 0
M  V30 18309 C 1738.47 -1.46883 -3.05193 0
M  V30 18310 C 1737.51 -2.66372 -3.33089 0
M  V30 18311 S 1738.35 -4.28485 -3.21187 0
M  V30 18312 C 1739.5 -4.22295 -4.61971 0
M  V30 18313 H 1739.74 -2.5058 -1.59991 0
M  V30 18314 H 1737.27 -1.36142 -0.728331 0
M  V30 18315 H 1739.23 -1.42516 -3.84967 0
M  V30 18316 H 1737.89 -0.533133 -3.09542 0
M  V30 18317 H 1737.08 -2.56335 -4.33945 0
M  V30 18318 H 1736.68 -2.67915 -2.60955 0
M  V30 18319 H 1738.97 -3.91199 -5.53145 0
M  V30 18320 H 1739.92 -5.23274 -4.77064 0
M  V30 18321 H 1740.33 -3.53001 -4.40512 0
M  V30 18322 N 1739.72 0.794246 -1.36123 0
M  V30 18323 C 1740.65 1.92105 -1.32732 0
M  V30 18324 C 1741.63 1.68925 -0.199603 0
M  V30 18325 O 1742.82 1.90109 -0.396498 0
M  V30 18326 C 1739.95 3.29051 -1.11098 0
M  V30 18327 C 1738.9 3.66743 -2.20643 0
M  V30 18328 C 1738.23 5.01986 -1.84159 0
M  V30 18329 C 1739.53 3.75831 -3.62696 0
M  V30 18330 H 1741.22 1.952 -2.27018 0
M  V30 18331 H 1738.77 0.937746 -1.09281 0
M  V30 18332 H 1740.72 4.07494 -1.07362 0
M  V30 18333 H 1739.45 3.26331 -0.132614 0
M  V30 18334 H 1738.11 2.90594 -2.23497 0
M  V30 18335 H 1737.75 4.95782 -0.849081 0
M  V30 18336 H 1737.45 5.28175 -2.57497 0
M  V30 18337 H 1738.98 5.82855 -1.8197 0
M  V30 18338 H 1740.39 4.44476 -3.62096 0
M  V30 18339 H 1738.79 4.135 -4.34899 0
M  V30 18340 H 1739.86 2.7706 -3.97952 0
M  V30 18341 N 1741.2 1.20323 1.01785 0
M  V30 18342 C 1742.62 0.957818 1.27664 0
M  V30 18343 C 1742.82 -0.363377 1.98196 0
M  V30 18344 O 1741.87 -1.09221 2.27656 0
M  V30 18345 C 1743.19 2.13957 2.11289 0
M  V30 18346 C 1744.73 2.18041 2.2456 0
M  V30 18347 C 1745.21 3.35698 3.11562 0
M  V30 18348 N 1746.7 3.35704 3.1915 0
M  V30 18349 C 1747.44 4.2339 3.86689 0
M  V30 18350 N 1746.93 5.21251 4.56366 0
M  V30 18351 N 1748.72 4.11235 3.832 0
M  V30 18352 H 1740.88 2.05309 0.544242 0
M  V30 18353 H 1743.14 0.898335 0.302817 0
M  V30 18354 H 1742.84 3.09631 1.66798 0
M  V30 18355 H 1742.72 2.11946 3.12024 0
M  V30 18356 H 1745.11 1.22931 2.68276 0
M  V30 18357 H 1745.19 2.24101 1.23338 0
M  V30 18358 H 1744.83 4.31095 2.68551 0
M  V30 18359 H 1744.76 3.26876 4.12868 0
M  V30 18360 H 1747.25 2.64874 2.69537 0
M  V30 18361 H 1747.56 5.84485 5.05566 0
M  V30 18362 H 1745.91 5.25189 4.55195 0
M  V30 18363 H 1749.1 3.34052 3.27913 0
M  V30 18364 H 1749.27 4.79782 4.35561 0
M  V30 18365 N 1742.68 -1.21073 1.00892 0
M  V30 18366 C 1743.64 -2.21804 0.577543 0
M  V30 18367 C 1744.64 -1.56985 -0.348201 0
M  V30 18368 O 1745.83 -1.73653 -0.137947 0
M  V30 18369 C 1742.96 -3.40535 -0.157685 0
M  V30 18370 H 1744.16 -2.61483 1.46856 0
M  V30 18371 H 1741.71 -1.34402 0.79786 0
M  V30 18372 H 1742.45 -3.0635 -1.06397 0
M  V30 18373 H 1742.23 -3.88805 0.507238 0
M  V30 18374 H 1743.72 -4.152 -0.447109 0
M  V30 18375 N 1744.16 -0.784156 -1.36707 0
M  V30 18376 C 1745.39 -0.365371 -2.03344 0
M  V30 18377 C 1745.8 1.02133 -1.59266 0
M  V30 18378 O 1745.14 1.66547 -0.775098 0
M  V30 18379 C 1745.2 -0.343819 -3.57852 0
M  V30 18380 C 1744.87 -1.6772 -4.25111 0
M  V30 18381 C 1745.86 -2.63179 -4.48367 0
M  V30 18382 C 1743.55 -1.95505 -4.62691 0
M  V30 18383 C 1745.54 -3.84621 -5.08277 0
M  V30 18384 C 1743.23 -3.17215 -5.2232 0
M  V30 18385 C 1744.23 -4.11592 -5.45052 0
M  V30 18386 O 1743.91 -5.31157 -6.0343 0
M  V30 18387 H 1743.65 -0.14936 -0.659293 0
M  V30 18388 H 1746.2 -1.06269 -1.75772 0
M  V30 18389 H 1744.43 0.409964 -3.84521 0
M  V30 18390 H 1746.12 0.0495818 -4.0587 0
M  V30 18391 H 1746.89 -2.42998 -4.19735 0
M  V30 18392 H 1742.76 -1.22867 -4.44325 0
M  V30 18393 H 1746.31 -4.58298 -5.25936 0
M  V30 18394 H 1742.21 -3.37276 -5.50377 0
M  V30 18395 H 1742.97 -5.32149 -6.219 0
M  V30 18396 N 1745.64 1.48215 -0.535727 0
M  V30 18397 C 1746.86 2.06898 -0.0079465 0
M  V30 18398 C 1747.28 1.39148 1.27606 0
M  V30 18399 O 1746.64 0.480867 1.76051 0
M  V30 18400 C 1746.69 3.60868 0.213736 0
M  V30 18401 O 1746.41 4.26075 -1.01941 0
M  V30 18402 C 1747.91 4.36362 0.781245 0
M  V30 18403 H 1745.13 0.670028 -0.0361097 0
M  V30 18404 H 1747.67 1.90524 -0.743012 0
M  V30 18405 H 1745.83 3.76828 0.898866 0
M  V30 18406 H 1746.24 5.18306 -0.803716 0
M  V30 18407 H 1747.72 5.44847 0.885753 0
M  V30 18408 H 1748.19 4.01179 1.78751 0
M  V30 18409 H 1748.8 4.25094 0.132499 0
M  V30 18410 N 1747.11 0.27113 1.5525 0
M  V30 18411 C 1748.36 -0.347304 1.99804 0
M  V30 18412 C 1748.69 -1.55803 1.15928 0
M  V30 18413 O 1747.97 -1.93154 0.228386 0
M  V30 18414 C 1748.25 -0.733408 3.52552 0
M  V30 18415 C 1748.1 0.48438 4.47184 0
M  V30 18416 C 1749.42 -1.57136 4.11092 0
M  V30 18417 H 1746.54 -0.124762 0.726363 0
M  V30 18418 H 1749.18 0.37728 1.86217 0
M  V30 18419 H 1747.33 -1.35076 3.64262 0
M  V30 18420 H 1749.01 1.12293 4.47424 0
M  V30 18421 H 1747.25 1.12317 4.19008 0
M  V30 18422 H 1747.92 0.170525 5.51737 0
M  V30 18423 H 1750.4 -1.05001 4.02634 0
M  V30 18424 H 1749.27 -1.81033 5.18187 0
M  V30 18425 H 1749.53 -2.55111 3.61069 0
M  V30 18426 N 1748.59 -1.576 -0.00164943 0
M  V30 18427 C 1750.01 -1.5554 -0.357706 0
M  V30 18428 C 1750.21 -1.00078 -1.74891 0
M  V30 18429 O 1749.26 -0.633864 -2.44414 0
M  V30 18430 C 1750.58 -2.99785 -0.234448 0
M  V30 18431 C 1752.13 -3.11466 -0.309509 0
M  V30 18432 C 1752.6 -4.57493 -0.215394 0
M  V30 18433 N 1754.09 -4.62393 -0.273345 0
M  V30 18434 C 1754.83 -5.72963 -0.223836 0
M  V30 18435 N 1754.32 -6.92687 -0.12502 0
M  V30 18436 N 1756.12 -5.61424 -0.27558 0
M  V30 18437 H 1748.27 -1.91992 0.908448 0
M  V30 18438 H 1750.53 -0.88179 0.348067 0
M  V30 18439 H 1750.24 -3.44195 0.722671 0
M  V30 18440 H 1750.11 -3.63226 -1.01718 0
M  V30 18441 H 1752.5 -2.66986 -1.25707 0
M  V30 18442 H 1752.58 -2.50805 0.503064 0
M  V30 18443 H 1752.22 -5.02647 0.728617 0
M  V30 18444 H 1752.15 -5.16098 -1.04643 0
M  V30 18445 H 1754.64 -3.76265 -0.351116 0
M  V30 18446 H 1754.96 -7.72744 -0.0930938 0
M  V30 18447 H 1753.3 -6.94941 -0.0906712 0
M  V30 18448 H 1756.49 -4.66782 -0.350963 0
M  V30 18449 H 1756.66 -6.47579 -0.233531 0
M  V30 18450 N 1750.07 0.274379 -1.55193 0
M  V30 18451 C 1751.3 1.02871 -1.8009 0
M  V30 18452 C 1751.72 1.79202 -0.571676 0
M  V30 18453 O 1751.08 1.74867 0.478679 0
M  V30 18454 C 1751.13 1.96406 -3.02418 0
M  V30 18455 O 1750.23 3.05154 -2.77408 0
M  V30 18456 H 1749.57 0.294181 -0.595276 0
M  V30 18457 H 1752.1 0.303708 -2.02333 0
M  V30 18458 H 1752.11 2.38385 -3.31114 0
M  V30 18459 H 1750.79 1.40261 -3.91535 0
M  V30 18460 H 1749.36 2.675 -2.59805 0
M  V30 18461 N 1751.55 1.48103 0.538828 0
M  V30 18462 C 1752.79 1.5688 1.29461 0
M  V30 18463 C 1753.15 0.235793 1.9095 0
M  V30 18464 O 1752.44 -0.760462 1.75862 0
M  V30 18465 C 1752.64 2.63703 2.41237 0
M  V30 18466 C 1752.47 4.07262 1.90704 0
M  V30 18467 C 1751.24 4.74503 1.73709 0
M  V30 18468 C 1753.43 4.93708 1.44073 0
M  V30 18469 N 1751.42 6.0251 1.17709 0
M  V30 18470 C 1752.79 6.11889 0.999608 0
M  V30 18471 C 1754.84 4.80003 1.32294 0
M  V30 18472 C 1753.54 7.17876 0.452385 0
M  V30 18473 C 1755.57 5.86104 0.789719 0
M  V30 18474 C 1754.93 7.03486 0.358624 0
M  V30 18475 H 1751.03 0.628668 0.465081 0
M  V30 18476 H 1753.62 1.84942 0.608641 0
M  V30 18477 H 1751.79 2.37478 3.07341 0
M  V30 18478 H 1753.52 2.62217 3.0826 0
M  V30 18479 H 1750.27 4.30696 1.96971 0
M  V30 18480 H 1750.7 6.70755 0.917441 0
M  V30 18481 H 1755.34 3.896 1.64231 0
M  V30 18482 H 1753.06 8.0801 0.120677 0
M  V30 18483 H 1756.64 5.77551 0.70188 0
M  V30 18484 H 1755.52 7.84186 -0.0475698 0
M  V30 18485 N 1753.03 -0.787016 1.36542 0
M  V30 18486 C 1753.94 -1.93103 1.33223 0
M  V30 18487 C 1754.95 -1.72419 0.234047 0
M  V30 18488 O 1756.13 -1.95915 0.466828 0
M  V30 18489 C 1753.19 -3.28002 1.12319 0
M  V30 18490 C 1752.25 -3.61447 2.31635 0
M  V30 18491 C 1751.49 -4.89909 2.11719 0
M  V30 18492 O 1751.71 -5.59818 1.0936 0
M  V30 18493 O 1750.64 -5.22065 2.99552 0
M  V30 18494 H 1754.47 -1.98853 2.29545 0
M  V30 18495 H 1752.06 -0.92761 1.17114 0
M  V30 18496 H 1753.94 -4.08722 1.02589 0
M  V30 18497 H 1752.61 -3.23138 0.19061 0
M  V30 18498 H 1751.52 -2.81024 2.46934 0
M  V30 18499 H 1752.85 -3.71037 3.23407 0
M  V30 18500 N 1754.5 -1.20861 -1.01145 0
M  V30 18501 C 1755.92 -1.02156 -1.56272 0
M  V30 18502 C 1756.27 0.420552 -1.9164 0
M  V30 18503 O 1755.39 1.30277 -1.72792 0
M  V30 18504 C 1755.99 -1.84812 -2.83954 0
M  V30 18505 C 1754.55 -1.70458 -3.35591 0
M  V30 18506 C 1753.69 -1.82425 -2.08846 0
M  V30 18507 H 1756.64 -1.34978 -0.834669 0
M  V30 18508 H 1756.66 -1.35455 -3.55573 0
M  V30 18509 H 1756.18 -2.89765 -2.58181 0
M  V30 18510 H 1754.28 -0.681631 -3.66312 0
M  V30 18511 H 1754.39 -2.52041 -4.07446 0
M  V30 18512 H 1752.75 -1.25665 -2.21541 0
M  V30 18513 H 1753.54 -2.88872 -1.85493 0
M  V30 18514 N 1755.98 1.20536 -1.01532 0
M  V30 18515 C 1757.23 1.89871 -0.70393 0
M  V30 18516 C 1757.56 1.78768 0.76631 0
M  V30 18517 O 1756.81 1.1653 1.57224 0
M  V30 18518 C 1757.11 3.40578 -1.08358 0
M  V30 18519 C 1756.78 3.71881 -2.54981 0
M  V30 18520 C 1755.44 3.80135 -2.95044 0
M  V30 18521 C 1757.79 3.86282 -3.49909 0
M  V30 18522 C 1755.12 4.00246 -4.28976 0
M  V30 18523 C 1757.47 4.07902 -4.83527 0
M  V30 18524 C 1756.14 4.14385 -5.23298 0
M  V30 18525 H 1755.41 0.694788 -0.257586 0
M  V30 18526 H 1758.05 1.42825 -1.27567 0
M  V30 18527 H 1756.36 3.89431 -0.430234 0
M  V30 18528 H 1758.05 3.92519 -0.820353 0
M  V30 18529 H 1754.64 3.66055 -2.22938 0
M  V30 18530 H 1758.83 3.79261 -3.20117 0
M  V30 18531 H 1754.08 4.03499 -4.59345 0
M  V30 18532 H 1758.26 4.17987 -5.5701 0
M  V30 18533 H 1755.89 4.29721 -6.27092 0
M  V30 18534 N 1757.46 0.791395 1.36289 0
M  V30 18535 C 1758.69 0.376149 2.03147 0
M  V30 18536 C 1759.1 -1.01287 1.59805 0
M  V30 18537 O 1758.44 -1.66134 0.78392 0
M  V30 18538 C 1758.5 0.362792 3.57665 0
M  V30 18539 C 1758.17 1.69972 4.24215 0
M  V30 18540 C 1759.16 2.65553 4.46965 0
M  V30 18541 C 1756.85 1.97956 4.61648 0
M  V30 18542 C 1758.84 3.87311 5.0623 0
M  V30 18543 C 1756.53 3.19981 5.2063 0
M  V30 18544 C 1757.53 4.14477 5.42861 0
M  V30 18545 O 1757.22 5.3435 6.00604 0
M  V30 18546 H 1756.95 0.152854 0.658492 0
M  V30 18547 H 1759.5 1.072 1.75206 0
M  V30 18548 H 1757.73 -0.389566 3.84733 0
M  V30 18549 H 1759.42 -0.0280568 4.0589 0
M  V30 18550 H 1760.19 2.4522 4.1844 0
M  V30 18551 H 1756.07 1.25222 4.43667 0
M  V30 18552 H 1759.61 4.61081 5.23498 0
M  V30 18553 H 1755.51 3.4019 5.48581 0
M  V30 18554 H 1756.28 5.3544 6.19069 0
M  V30 18555 N 1758.94 -1.47929 0.54358 0
M  V30 18556 C 1759.89 -2.29827 -0.211706 0
M  V30 18557 C 1760.86 -1.38217 -0.921154 0
M  V30 18558 O 1762.04 -1.67181 -0.919522 0
M  V30 18559 C 1759.18 -3.21889 -1.24425 0
M  V30 18560 C 1758.29 -4.28583 -0.542264 0
M  V30 18561 C 1757.43 -5.0781 -1.55892 0
M  V30 18562 C 1756.47 -6.06293 -0.841146 0
M  V30 18563 N 1755.61 -6.78528 -1.80399 0
M  V30 18564 H 1760.45 -2.93896 0.492835 0
M  V30 18565 H 1757.98 -1.44875 0.254873 0
M  V30 18566 H 1759.94 -3.73674 -1.85535 0
M  V30 18567 H 1758.57 -2.59713 -1.917 0
M  V30 18568 H 1757.62 -3.79959 0.183069 0
M  V30 18569 H 1758.93 -4.98796 0.0206703 0
M  V30 18570 H 1758.09 -5.63678 -2.24393 0
M  V30 18571 H 1756.83 -4.37468 -2.15576 0
M  V30 18572 H 1755.83 -5.49616 -0.14214 0
M  V30 18573 H 1757.06 -6.78639 -0.250232 0
M  V30 18574 H 1755 -6.10927 -2.38965 0
M  V30 18575 H 1754.92 -7.44863 -1.29285 0
M  V30 18576 H 1756.19 -7.38978 -2.48056 0
M  V30 18577 N 1760.42 -0.27936 -1.55104 0
M  V30 18578 C 1761.66 0.336703 -1.99985 0
M  V30 18579 C 1762 1.55186 -1.16752 0
M  V30 18580 O 1761.27 1.93031 -0.238626 0
M  V30 18581 C 1761.55 0.714701 -3.52936 0
M  V30 18582 C 1761.41 -0.508088 -4.46921 0
M  V30 18583 C 1762.73 1.54953 -4.11919 0
M  V30 18584 H 1759.85 0.120908 -0.727015 0
M  V30 18585 H 1762.49 -0.38715 -1.86014 0
M  V30 18586 H 1760.64 1.33143 -3.64973 0
M  V30 18587 H 1762.31 -1.14664 -4.46822 0
M  V30 18588 H 1760.55 -1.14537 -4.18406 0
M  V30 18589 H 1761.22 -0.199782 -5.51638 0
M  V30 18590 H 1763.7 1.02864 -4.03185 0
M  V30 18591 H 1762.58 1.78282 -5.1914 0
M  V30 18592 H 1762.84 2.53192 -3.62417 0
M  V30 18593 N 1761.9 1.57599 -0.0067085 0
M  V30 18594 C 1763.14 1.90858 0.67673 0
M  V30 18595 C 1763.47 0.880956 1.73405 0
M  V30 18596 O 1762.73 -0.113339 1.95372 0
M  V30 18597 C 1763.02 3.30868 1.35133 0
M  V30 18598 C 1762.69 4.48878 0.426559 0
M  V30 18599 C 1761.35 4.80893 0.17196 0
M  V30 18600 C 1763.7 5.20778 -0.209761 0
M  V30 18601 C 1761.03 5.82177 -0.727139 0
M  V30 18602 C 1763.38 6.2302 -1.09678 0
M  V30 18603 C 1762.05 6.53488 -1.36049 0
M  V30 18604 H 1761.32 0.698397 0.247633 0
M  V30 18605 H 1763.97 1.91394 -0.0636748 0
M  V30 18606 H 1762.27 3.26487 2.16594 0
M  V30 18607 H 1763.97 3.53864 1.8863 0
M  V30 18608 H 1760.56 4.23867 0.635166 0
M  V30 18609 H 1764.74 4.96293 -0.0260888 0
M  V30 18610 H 1760 6.0414 -0.939389 0
M  V30 18611 H 1764.17 6.77861 -1.59616 0
M  V30 18612 H 1761.8 7.31789 -2.05886 0
M  V30 18613 N 1763.37 -0.266145 1.55336 0
M  V30 18614 C 1764.32 -1.349 1.89485 0
M  V30 18615 C 1765.32 -1.50792 0.771882 0
M  V30 18616 O 1766.52 -1.52495 0.956302 0
M  V30 18617 H 1762.9 -0.451312 0.601516 0
M  V30 18618 H 1764.87 -1.03354 2.7993 0
M  V30 18619 C 1763.62 -2.70119 2.18931 0
M  V30 18620 H 1762.94 -2.58684 3.04832 0
M  V30 18621 H 1764.38 -3.44811 2.46742 0
M  V30 18622 C 1762.84 -3.21742 0.999177 0
M  V30 18623 O 1763.37 -4.00998 0.237304 0
M  V30 18624 N 1761.57 -2.79514 0.795013 0
M  V30 18625 H 1761.12 -2.15175 1.41625 0
M  V30 18626 H 1761.08 -3.144 0.000343733 0
M  V30 18627 N 1764.85 -1.48386 -0.530967 0
M  V30 18628 C 1766.27 -1.34485 -0.859412 0
M  V30 18629 C 1766.47 -0.355124 -1.98346 0
M  V30 18630 O 1765.52 0.224012 -2.51504 0
M  V30 18631 C 1766.84 -2.74488 -1.22787 0
M  V30 18632 C 1768.38 -2.82969 -1.33781 0
M  V30 18633 C 1768.86 -4.23673 -1.7397 0
M  V30 18634 N 1770.35 -4.26341 -1.81074 0
M  V30 18635 C 1771.09 -5.32149 -2.13554 0
M  V30 18636 N 1770.58 -6.48235 -2.44464 0
M  V30 18637 N 1772.37 -5.19542 -2.14551 0
M  V30 18638 H 1764.53 -2.11352 0.210713 0
M  V30 18639 H 1766.79 -0.947472 0.0316283 0
M  V30 18640 H 1766.49 -3.4847 -0.475552 0
M  V30 18641 H 1766.37 -3.0795 -2.17823 0
M  V30 18642 H 1768.76 -2.09244 -2.08089 0
M  V30 18643 H 1768.84 -2.53129 -0.368677 0
M  V30 18644 H 1768.48 -4.97914 -1.00222 0
M  V30 18645 H 1768.41 -4.50956 -2.71931 0
M  V30 18646 H 1770.9 -3.42606 -1.59467 0
M  V30 18647 H 1771.21 -7.24712 -2.6835 0
M  V30 18648 H 1769.56 -6.51512 -2.41986 0
M  V30 18649 H 1772.75 -4.27868 -1.89859 0
M  V30 18650 H 1772.92 -6.02103 -2.39532 0
M  V30 18651 N 1766.33 0.779763 -1.36958 0
M  V30 18652 C 1767.28 1.91417 -1.32145 0
M  V30 18653 C 1768.27 1.68074 -0.211572 0
M  V30 18654 O 1769.48 1.75962 -0.379139 0
M  V30 18655 H 1765.85 0.62934 -0.411624 0
M  V30 18656 H 1767.82 1.92594 -2.27926 0
M  V30 18657 C 1766.57 3.28574 -1.13729 0
M  V30 18658 H 1765.9 3.47109 -1.98383 0
M  V30 18659 H 1767.34 4.08272 -1.1441 0
M  V30 18660 C 1765.79 3.36531 0.157538 0
M  V30 18661 O 1766.32 3.85067 1.14397 0
M  V30 18662 N 1764.53 2.89872 0.205509 0
M  V30 18663 H 1764.08 2.50566 -0.597854 0
M  V30 18664 H 1764.04 2.95578 1.07151 0
M  V30 18665 N 1767.81 1.21396 1.00503 0
M  V30 18666 C 1768.74 0.916483 2.08988 0
M  V30 18667 C 1769.72 -0.135972 1.6203 0
M  V30 18668 O 1770.9 -0.00701537 1.88499 0
M  V30 18669 C 1768.03 0.376122 3.36605 0
M  V30 18670 C 1767.08 1.41137 4.0247 0
M  V30 18671 S 1767.91 2.98055 4.44886 0
M  V30 18672 C 1769.06 2.45626 5.7569 0
M  V30 18673 H 1769.3 1.83517 2.33899 0
M  V30 18674 H 1766.83 1.0437 1.13782 0
M  V30 18675 H 1768.79 0.0709239 4.10439 0
M  V30 18676 H 1767.45 -0.52125 3.09745 0
M  V30 18677 H 1766.64 0.982903 4.94323 0
M  V30 18678 H 1766.24 1.66465 3.34911 0
M  V30 18679 H 1768.54 1.8611 6.51436 0
M  V30 18680 H 1769.48 3.3592 6.23348 0
M  V30 18681 H 1769.89 1.87337 5.32508 0
M  V30 18682 N 1769.29 -1.19996 1.0217 0
M  V30 18683 C 1770.53 -1.90049 0.724771 0
M  V30 18684 C 1770.89 -1.77683 -0.738 0
M  V30 18685 O 1770.18 -1.15363 -1.52977 0
M  V30 18686 C 1770.37 -3.39999 1.10162 0
M  V30 18687 C 1770.2 -3.66956 2.59948 0
M  V30 18688 C 1768.97 -3.85387 3.2681 0
M  V30 18689 C 1771.17 -3.69102 3.58146 0
M  V30 18690 N 1769.15 -3.9991 4.65774 0
M  V30 18691 C 1770.52 -3.8911 4.82694 0
M  V30 18692 C 1772.58 -3.52091 3.52046 0
M  V30 18693 C 1771.28 -3.9387 6.0188 0
M  V30 18694 C 1773.31 -3.58125 4.70639 0
M  V30 18695 C 1772.67 -3.7861 5.93998 0
M  V30 18696 H 1768.77 -0.714883 0.316964 0
M  V30 18697 H 1771.35 -1.4426 1.30756 0
M  V30 18698 H 1769.52 -3.84527 0.547118 0
M  V30 18699 H 1771.26 -3.97544 0.757692 0
M  V30 18700 H 1768.01 -3.83979 2.77231 0
M  V30 18701 H 1768.43 -4.11037 5.37939 0
M  V30 18702 H 1773.08 -3.35214 2.57665 0
M  V30 18703 H 1770.79 -4.0954 6.96637 0
M  V30 18704 H 1774.38 -3.46263 4.6754 0
M  V30 18705 H 1773.26 -3.83145 6.84229 0
M  V30 18706 N 1770.76 -0.798611 -1.35867 0
M  V30 18707 C 1771.7 -0.149116 -2.27712 0
M  V30 18708 C 1772.67 0.680209 -1.47689 0
M  V30 18709 O 1773.86 0.649211 -1.76968 0
M  V30 18710 C 1770.99 0.793938 -3.29263 0
M  V30 18711 C 1770.03 0.0452467 -4.26476 0
M  V30 18712 S 1770.86 -1.28533 -5.19846 0
M  V30 18713 C 1772.02 -0.346515 -6.2494 0
M  V30 18714 H 1772.25 -0.92784 -2.82451 0
M  V30 18715 H 1769.79 -0.593276 -1.42547 0
M  V30 18716 H 1771.74 1.33256 -3.88269 0
M  V30 18717 H 1770.41 1.54598 -2.73419 0
M  V30 18718 H 1769.6 0.761186 -4.98219 0
M  V30 18719 H 1769.2 -0.423174 -3.71598 0
M  V30 18720 H 1771.49 0.47122 -6.75859 0
M  V30 18721 H 1772.44 -1.0329 -7.00526 0
M  V30 18722 H 1772.84 0.0542422 -5.64474 0
M  V30 18723 N 1772.24 1.47639 -0.551417 0
M  V30 18724 C 1773.19 2.26938 0.219798 0
M  V30 18725 C 1774.18 1.34006 0.890571 0
M  V30 18726 O 1775.37 1.584 0.789834 0
M  V30 18727 C 1772.5 3.19625 1.25279 0
M  V30 18728 C 1771.58 4.20036 0.585724 0
M  V30 18729 N 1771.97 5.0465 -0.34089 0
M  V30 18730 C 1770.27 4.38012 0.840352 0
M  V30 18731 C 1770.97 5.77129 -0.727814 0
M  V30 18732 N 1769.95 5.43535 -0.0839681 0
M  V30 18733 H 1773.75 2.8974 -0.492729 0
M  V30 18734 H 1771.26 1.58107 -0.370943 0
M  V30 18735 H 1773.26 3.75114 1.8192 0
M  V30 18736 H 1771.92 2.5838 1.96647 0
M  V30 18737 H 1772.93 5.12944 -0.71473 0
M  V30 18738 H 1769.61 3.87941 1.54298 0
M  V30 18739 H 1771 6.55196 -1.48888 0
M  V30 18740 N 1773.72 0.287581 1.54954 0
M  V30 18741 C 1774.65 -0.587855 2.25979 0
M  V30 18742 C 1775.63 -1.14884 1.25442 0
M  V30 18743 O 1776.82 -1.18067 1.54188 0
M  V30 18744 C 1773.95 -1.76618 2.99037 0
M  V30 18745 C 1772.9 -1.33617 4.06609 0
M  V30 18746 C 1772.23 -2.59859 4.67309 0
M  V30 18747 C 1773.53 -0.477219 5.20115 0
M  V30 18748 H 1775.22 0.00450183 2.994 0
M  V30 18749 H 1772.77 0.00360521 1.44 0
M  V30 18750 H 1774.72 -2.38461 3.4744 0
M  V30 18751 H 1773.44 -2.38457 2.23172 0
M  V30 18752 H 1772.1 -0.74088 3.59036 0
M  V30 18753 H 1771.75 -3.19983 3.88098 0
M  V30 18754 H 1771.45 -2.31793 5.3995 0
M  V30 18755 H 1772.97 -3.22528 5.18467 0
M  V30 18756 H 1774.39 -1.00096 5.64494 0
M  V30 18757 H 1772.79 -0.290913 5.99394 0
M  V30 18758 H 1773.86 0.500993 4.82305 0
M  V30 18759 N 1775.2 -1.57593 0.0150662 0
M  V30 18760 C 1776.16 -2.08293 -0.956385 0
M  V30 18761 C 1777.16 -0.99521 -1.26302 0
M  V30 18762 O 1778.35 -1.25732 -1.2057 0
M  V30 18763 C 1775.48 -2.53702 -2.27701 0
M  V30 18764 H 1776.68 -2.95401 -0.517543 0
M  V30 18765 H 1774.23 -1.54558 -0.232706 0
M  V30 18766 H 1774.96 -1.69882 -2.76244 0
M  V30 18767 H 1774.75 -3.33155 -2.06761 0
M  V30 18768 H 1776.24 -2.93201 -2.9736 0
M  V30 18769 N 1776.68 0.257904 -1.55475 0
M  V30 18770 C 1777.92 0.99495 -1.7855 0
M  V30 18771 C 1778.28 1.82941 -0.582809 0
M  V30 18772 O 1779.48 2.59737 -0.692104 0
M  V30 18773 C 1777.75 1.84176 -3.06291 0
M  V30 18774 S 1779.31 2.6394 -3.50544 0
M  V30 18775 H 1776.13 0.334856 -0.62721 0
M  V30 18776 H 1778.73 0.263867 -1.93711 0
M  V30 18777 H 1777.44 1.21824 -3.91902 0
M  V30 18778 H 1776.97 2.61579 -2.93837 0
M  V30 18779 H 1778.98 3.86638 -3.11008 0
M  V30 18780 N 1778.15 1.48666 0.52309 0
M  V30 18781 C 1779.38 1.60965 1.30787 0
M  V30 18782 C 1779.8 0.272663 1.86113 0
M  V30 18783 O 1779.16 -0.756662 1.64755 0
M  V30 18784 C 1779.21 2.66455 2.42969 0
M  V30 18785 O 1778.31 2.24094 3.46202 0
M  V30 18786 H 1777.66 0.539516 0.387064 0
M  V30 18787 H 1780.19 1.94702 0.628683 0
M  V30 18788 H 1780.2 2.87942 2.89056 0
M  V30 18789 H 1778.87 3.63516 2.02062 0
M  V30 18790 H 1777.45 2.12848 3.06186 0
M  V30 18791 N 1779.63 -0.772489 1.37369 0
M  V30 18792 C 1780.88 -1.52629 1.31861 0
M  V30 18793 C 1781.19 -1.9537 -0.0947795 0
M  V30 18794 O 1782.4 -2.70131 -0.27233 0
M  V30 18795 C 1780.86 -2.75608 2.31448 0
M  V30 18796 C 1780.46 -2.39969 3.78311 0
M  V30 18797 C 1782.21 -3.53553 2.34948 0
M  V30 18798 C 1780.12 -3.59445 4.69631 0
M  V30 18799 H 1779.05 -0.573019 0.490066 0
M  V30 18800 H 1781.7 -0.846178 1.62825 0
M  V30 18801 H 1780.08 -3.45505 1.935 0
M  V30 18802 H 1781.25 -1.7786 4.25091 0
M  V30 18803 H 1779.57 -1.752 3.77748 0
M  V30 18804 H 1782.16 -4.42353 3.00379 0
M  V30 18805 H 1782.51 -3.93359 1.36287 0
M  V30 18806 H 1783.04 -2.90652 2.716 0
M  V30 18807 H 1779.78 -3.24721 5.69418 0
M  V30 18808 H 1779.3 -4.20662 4.27555 0
M  V30 18809 H 1780.98 -4.26267 4.86729 0
M  V30 18810 N 1781.11 -1.21927 -0.998575 0
M  V30 18811 C 1782.34 -1.06735 -1.77827 0
M  V30 18812 C 1782.76 0.378154 -1.8426 0
M  V30 18813 O 1782.12 1.27301 -1.2909 0
M  V30 18814 C 1782.17 -1.67662 -3.19252 0
M  V30 18815 O 1781.27 -0.926448 -4.01859 0
M  V30 18816 H 1780.61 -0.375241 -0.547805 0
M  V30 18817 H 1783.14 -1.61605 -1.25478 0
M  V30 18818 H 1783.15 -1.72151 -3.69903 0
M  V30 18819 H 1781.83 -2.72854 -3.13885 0
M  V30 18820 H 1780.4 -0.957145 -3.60407 0
M  V30 18821 N 1782.59 1.19452 -1.02805 0
M  V30 18822 C 1783.55 2.20857 -0.612757 0
M  V30 18823 C 1784.55 1.57519 0.323182 0
M  V30 18824 O 1785.74 1.7385 0.110303 0
M  V30 18825 C 1782.87 3.40743 0.103488 0
M  V30 18826 H 1784.07 2.59113 -1.50998 0
M  V30 18827 H 1781.62 1.33116 -0.819142 0
M  V30 18828 H 1782.35 3.08004 1.0151 0
M  V30 18829 H 1782.14 3.87949 -0.56903 0
M  V30 18830 H 1783.63 4.15858 0.380998 0
M  V30 18831 N 1784.07 0.805805 1.35442 0
M  V30 18832 C 1785.29 0.398252 2.03031 0
M  V30 18833 C 1785.71 -0.990542 1.60729 0
M  V30 18834 O 1785.07 -1.63813 0.804461 0
M  V30 18835 C 1785.12 0.471116 3.58417 0
M  V30 18836 O 1784.84 1.80516 3.99181 0
M  V30 18837 C 1786.34 0.056272 4.43264 0
M  V30 18838 H 1783.56 0.161905 0.651174 0
M  V30 18839 H 1786.1 1.08921 1.73079 0
M  V30 18840 H 1784.26 -0.171584 3.8702 0
M  V30 18841 H 1784.67 1.76739 4.93825 0
M  V30 18842 H 1786.15 0.15837 5.51773 0
M  V30 18843 H 1786.62 -0.998308 4.27704 0
M  V30 18844 H 1787.23 0.672097 4.19956 0
M  V30 18845 N 1785.54 -1.47344 0.559239 0
M  V30 18846 C 1786.47 -2.32839 -0.175542 0
M  V30 18847 C 1787.46 -1.43914 -0.906787 0
M  V30 18848 O 1788.64 -1.72767 -0.886855 0
M  V30 18849 C 1785.77 -3.25735 -1.20474 0
M  V30 18850 C 1784.72 -4.23916 -0.589825 0
M  V30 18851 C 1784.05 -5.06151 -1.7238 0
M  V30 18852 C 1785.35 -5.2029 0.457733 0
M  V30 18853 H 1787.04 -2.94522 0.538225 0
M  V30 18854 H 1784.59 -1.41628 0.260282 0
M  V30 18855 H 1786.54 -3.84388 -1.72695 0
M  V30 18856 H 1785.27 -2.62111 -1.94847 0
M  V30 18857 H 1783.93 -3.66492 -0.0888897 0
M  V30 18858 H 1783.57 -4.38929 -2.45663 0
M  V30 18859 H 1783.27 -5.72625 -1.31813 0
M  V30 18860 H 1784.8 -5.67663 -2.24923 0
M  V30 18861 H 1786.21 -5.73296 0.0215019 0
M  V30 18862 H 1784.61 -5.94978 0.7824 0
M  V30 18863 H 1785.68 -4.65645 1.35286 0
M  V30 18864 N 1787.02 -0.295795 -1.54799 0
M  V30 18865 C 1788.25 0.317763 -2.04445 0
M  V30 18866 C 1788.67 1.47915 -1.17331 0
M  V30 18867 O 1788.02 1.81425 -0.197811 0
M  V30 18868 C 1788.07 0.778995 -3.53007 0
M  V30 18869 O 1787.79 -0.33616 -4.36808 0
M  V30 18870 C 1789.3 1.45824 -4.18629 0
M  V30 18871 H 1786.52 0.0697871 -0.667361 0
M  V30 18872 H 1789.06 -0.433911 -1.99844 0
M  V30 18873 H 1787.21 1.4807 -3.57986 0
M  V30 18874 H 1787.63 0.0219928 -5.24495 0
M  V30 18875 H 1789.1 1.73218 -5.24118 0
M  V30 18876 H 1789.58 2.3966 -3.68049 0
M  V30 18877 H 1790.19 0.799847 -4.17711 0
M  V30 18878 N 1788.5 1.57583 -0.0234236 0
M  V30 18879 C 1789.75 1.91565 0.656449 0
M  V30 18880 C 1790.08 0.899298 1.72461 0
M  V30 18881 O 1789.33 -0.0926107 1.95481 0
M  V30 18882 C 1789.63 3.32283 1.31616 0
M  V30 18883 C 1789.3 4.49305 0.378925 0
M  V30 18884 C 1787.96 4.81048 0.120945 0
M  V30 18885 C 1790.31 5.20526 -0.264985 0
M  V30 18886 C 1787.64 5.81373 -0.788846 0
M  V30 18887 C 1789.99 6.21821 -1.1628 0
M  V30 18888 C 1788.65 6.52009 -1.42972 0
M  V30 18889 H 1787.92 0.700985 0.240212 0
M  V30 18890 H 1790.57 1.91316 -0.0839711 0
M  V30 18891 H 1788.88 3.28766 2.13119 0
M  V30 18892 H 1790.57 3.55845 1.84866 0
M  V30 18893 H 1787.16 4.24517 0.590173 0
M  V30 18894 H 1791.35 4.96238 -0.0787258 0
M  V30 18895 H 1786.6 6.0311 -1.00341 0
M  V30 18896 H 1790.78 6.7613 -1.66796 0
M  V30 18897 H 1788.4 7.29564 -2.13636 0
M  V30 18898 N 1789.98 -0.249655 1.5561 0
M  V30 18899 C 1790.91 -1.31281 1.931 0
M  V30 18900 C 1791.89 -1.50347 0.795601 0
M  V30 18901 O 1793.08 -1.63001 1.05566 0
M  V30 18902 C 1790.21 -2.66808 2.2233 0
M  V30 18903 C 1789.16 -2.62441 3.38096 0
M  V30 18904 C 1788.49 -4.01738 3.52861 0
M  V30 18905 C 1789.79 -2.19667 4.7386 0
M  V30 18906 H 1791.48 -1.00151 2.82153 0
M  V30 18907 H 1789.03 -0.480331 1.35753 0
M  V30 18908 H 1790.98 -3.41316 2.47146 0
M  V30 18909 H 1789.7 -2.99569 1.30101 0
M  V30 18910 H 1788.36 -1.90391 3.13284 0
M  V30 18911 H 1788.01 -4.31759 2.58056 0
M  V30 18912 H 1787.71 -3.99705 4.30708 0
M  V30 18913 H 1789.23 -4.7795 3.79995 0
M  V30 18914 H 1790.65 -2.83906 4.98067 0
M  V30 18915 H 1789.04 -2.28751 5.54791 0
M  V30 18916 H 1790.11 -1.14829 4.71108 0
M  V30 18917 N 1791.46 -1.48941 -0.515198 0
M  V30 18918 C 1792.68 -1.61656 -1.29931 0
M  V30 18919 C 1793.11 -0.282529 -1.85966 0
M  V30 18920 O 1792.47 0.747914 -1.65154 0
M  V30 18921 C 1792.51 -2.6774 -2.41553 0
M  V30 18922 O 1791.62 -2.25926 -3.45009 0
M  V30 18923 H 1790.96 -0.541561 -0.384197 0
M  V30 18924 H 1793.49 -1.95032 -0.618349 0
M  V30 18925 H 1793.5 -2.89471 -2.87525 0
M  V30 18926 H 1792.17 -3.64582 -2.00131 0
M  V30 18927 H 1790.75 -2.14469 -3.05053 0
M  V30 18928 N 1792.94 0.765193 -1.37777 0
M  V30 18929 C 1794.16 1.55436 -1.36556 0
M  V30 18930 C 1794.58 1.8874 0.0475187 0
M  V30 18931 O 1793.94 1.51933 1.01107 0
M  V30 18932 C 1793.99 2.86063 -2.21021 0
M  V30 18933 O 1793.71 2.54183 -3.56823 0
M  V30 18934 C 1795.21 3.80261 -2.27851 0
M  V30 18935 H 1792.43 0.481331 -0.467506 0
M  V30 18936 H 1794.97 0.947906 -1.81204 0
M  V30 18937 H 1793.13 3.43114 -1.79864 0
M  V30 18938 H 1793.54 3.37879 -4.01171 0
M  V30 18939 H 1795.02 4.68904 -2.91261 0
M  V30 18940 H 1795.49 4.19865 -1.28881 0
M  V30 18941 H 1796.1 3.29137 -2.69349 0
M  V30 18942 N 1794.41 1.22455 0.992094 0
M  V30 18943 C 1795.65 1.06119 1.74694 0
M  V30 18944 C 1796.02 -0.396703 1.87857 0
M  V30 18945 O 1797.22 -0.680936 2.60032 0
M  V30 18946 C 1795.49 1.75374 3.11414 0
M  V30 18947 S 1797.05 1.74461 4.02627 0
M  V30 18948 H 1793.87 0.380011 0.600927 0
M  V30 18949 H 1796.47 1.55408 1.18611 0
M  V30 18950 H 1795.17 2.8061 2.99477 0
M  V30 18951 H 1794.7 1.26319 3.72568 0
M  V30 18952 H 1796.72 0.794871 4.89792 0
M  V30 18953 N 1795.89 -1.18905 1.03437 0
M  V30 18954 C 1797.14 -1.88055 0.729268 0
M  V30 18955 C 1797.45 -1.80833 -0.745564 0
M  V30 18956 O 1798.66 -2.45285 -1.16393 0
M  V30 18957 C 1797.12 -3.37341 1.25415 0
M  V30 18958 C 1796.72 -3.53107 2.75716 0
M  V30 18959 C 1798.47 -4.11932 1.02529 0
M  V30 18960 C 1796.37 -4.96317 3.21595 0
M  V30 18961 H 1795.3 -0.704345 0.269098 0
M  V30 18962 H 1797.96 -1.34397 1.24938 0
M  V30 18963 H 1796.34 -3.90429 0.661925 0
M  V30 18964 H 1797.51 -3.10322 3.40642 0
M  V30 18965 H 1795.83 -2.91913 2.96944 0
M  V30 18966 H 1798.42 -5.17552 1.34328 0
M  V30 18967 H 1798.77 -4.16283 -0.0377114 0
M  V30 18968 H 1799.3 -3.64998 1.5818 0
M  V30 18969 H 1796.04 -4.97131 4.27248 0
M  V30 18970 H 1795.56 -5.39842 2.61401 0
M  V30 18971 H 1797.24 -5.65 3.15253 0
M  V30 18972 N 1797.37 -0.812977 -1.35013 0
M  V30 18973 C 1798.78 -0.45647 -1.81034 0
M  V30 18974 C 1799.13 1.02217 -1.6747 0
M  V30 18975 O 1798.26 1.79478 -1.20898 0
M  V30 18976 C 1798.85 -0.821773 -3.28683 0
M  V30 18977 C 1797.41 -0.517776 -3.72822 0
M  V30 18978 C 1796.56 -1.04399 -2.56897 0
M  V30 18979 H 1799.51 -1.00405 -1.22901 0
M  V30 18980 H 1799.53 -0.12173 -3.80305 0
M  V30 18981 H 1799.04 -1.89799 -3.38523 0
M  V30 18982 H 1797.14 0.549446 -3.68527 0
M  V30 18983 H 1797.26 -1.05488 -4.67343 0
M  V30 18984 H 1795.62 -0.466002 -2.50401 0
M  V30 18985 H 1796.4 -2.12645 -2.69512 0
M  V30 18986 N 1798.85 1.47045 -0.567045 0
M  V30 18987 C 1800.1 2.02046 -0.0465877 0
M  V30 18988 C 1800.42 1.44271 1.3119 0
M  V30 18989 O 1799.69 0.621533 1.85779 0
M  V30 18990 H 1798.27 0.746864 -0.0142323 0
M  V30 18991 H 1800.93 1.80335 -0.739281 0
M  V30 18992 H 1800.02 3.12081 0.0341623 0
M  V30 18993 N 1800.33 0.304 1.5464 0
M  V30 18994 C 1801.57 -0.305185 1.99378 0
M  V30 18995 C 1801.89 -1.54773 1.19602 0
M  V30 18996 O 1803.09 -2.23169 1.54621 0
M  V30 18997 C 1801.55 -0.594303 3.54959 0
M  V30 18998 C 1801.16 0.630078 4.43547 0
M  V30 18999 C 1802.9 -1.16452 4.08215 0
M  V30 19000 C 1800.81 0.313946 5.90566 0
M  V30 19001 H 1799.74 -0.11781 0.744739 0
M  V30 19002 H 1802.39 0.413174 1.78788 0
M  V30 19003 H 1800.77 -1.37233 3.71461 0
M  V30 19004 H 1801.95 1.40619 4.3882 0
M  V30 19005 H 1800.26 1.11914 4.01079 0
M  V30 19006 H 1802.86 -1.41534 5.15628 0
M  V30 19007 H 1803.2 -2.10773 3.58999 0
M  V30 19008 H 1803.73 -0.448123 3.95268 0
M  V30 19009 H 1800.47 1.2258 6.43937 0
M  V30 19010 H 1799.99 -0.424841 5.98294 0
M  V30 19011 H 1801.67 -0.083395 6.46946 0
M  V30 19012 N 1801.8 -1.57568 0.0317802 0
M  V30 19013 C 1803.03 -1.96212 -0.656401 0
M  V30 19014 C 1803.45 -0.908406 -1.6551 0
M  V30 19015 O 1802.8 0.109502 -1.82171 0
M  V30 19016 C 1802.85 -3.34924 -1.36044 0
M  V30 19017 O 1802.58 -4.36254 -0.401757 0
M  V30 19018 C 1804.08 -3.88215 -2.14019 0
M  V30 19019 H 1801.3 -0.646181 -0.180808 0
M  V30 19020 H 1803.84 -2.04291 0.0923341 0
M  V30 19021 H 1802 -3.28055 -2.06055 0
M  V30 19022 H 1802.41 -5.16686 -0.902005 0
M  V30 19023 H 1803.88 -4.87609 -2.5873 0
M  V30 19024 H 1804.36 -3.22602 -2.98034 0
M  V30 19025 H 1804.97 -3.98361 -1.4896 0
M  V30 19026 N 1803.28 0.241399 -1.5574 0
M  V30 19027 C 1804.51 0.99028 -1.82231 0
M  V30 19028 C 1804.93 1.77949 -0.609559 0
M  V30 19029 O 1804.29 1.75843 0.44148 0
M  V30 19030 C 1804.34 1.89947 -3.06516 0
M  V30 19031 O 1803.44 2.99201 -2.83818 0
M  V30 19032 H 1802.78 0.281488 -0.601382 0
M  V30 19033 H 1805.31 0.260721 -2.02932 0
M  V30 19034 H 1805.32 2.31308 -3.36096 0
M  V30 19035 H 1804 1.31924 -3.94422 0
M  V30 19036 H 1802.58 2.61929 -2.6542 0
M  V30 19037 N 1804.76 1.49212 0.507292 0
M  V30 19038 C 1806.01 1.5763 1.2584 0
M  V30 19039 C 1806.32 0.265343 1.93792 0
M  V30 19040 O 1807.53 0.227996 2.70541 0
M  V30 19041 C 1805.98 2.78093 2.28457 0
M  V30 19042 C 1805.59 4.15922 1.66472 0
M  V30 19043 C 1807.34 2.95837 3.04435 0
M  V30 19044 C 1805.24 5.27616 2.67162 0
M  V30 19045 H 1804.17 0.586896 0.47336 0
M  V30 19046 H 1806.82 1.75588 0.533018 0
M  V30 19047 H 1805.21 2.53616 3.0413 0
M  V30 19048 H 1806.38 4.50511 0.968337 0
M  V30 19049 H 1804.7 4.03484 1.02906 0
M  V30 19050 H 1807.29 3.76452 3.79721 0
M  V30 19051 H 1807.64 2.06156 3.61671 0
M  V30 19052 H 1808.17 3.20323 2.35877 0
M  V30 19053 H 1804.91 6.19336 2.14716 0
M  V30 19054 H 1804.43 4.97488 3.3506 0
M  V30 19055 H 1806.11 5.56686 3.29712 0
M  V30 19056 N 1806.24 -0.757876 1.38181 0
M  V30 19057 C 1807.17 -1.88519 1.37779 0
M  V30 19058 C 1808.15 -1.68336 0.24432 0
M  V30 19059 O 1809.33 -1.88991 0.446762 0
M  V30 19060 C 1806.46 -3.2599 1.19784 0
M  V30 19061 C 1805.42 -3.60764 2.30289 0
M  V30 19062 C 1804.74 -4.96927 1.97403 0
M  V30 19063 C 1806.04 -3.66082 3.72533 0
M  V30 19064 H 1807.74 -1.89112 2.32114 0
M  V30 19065 H 1805.28 -0.908442 1.11729 0
M  V30 19066 H 1807.24 -4.04504 1.18129 0
M  V30 19067 H 1805.96 -3.25864 0.219088 0
M  V30 19068 H 1804.62 -2.84566 2.31123 0
M  V30 19069 H 1804.27 -4.93356 0.98023 0
M  V30 19070 H 1803.97 -5.21162 2.7141 0
M  V30 19071 H 1805.49 -5.77825 1.97359 0
M  V30 19072 H 1806.91 -4.3472 3.73754 0
M  V30 19073 H 1805.3 -4.01824 4.4571 0
M  V30 19074 H 1806.37 -2.66412 4.05158 0
M  V30 19075 N 1807.72 -1.22979 -0.985586 0
M  V30 19076 C 1808.66 -1.00374 -2.09828 0
M  V30 19077 C 1809.66 0.0555734 -1.69309 0
M  V30 19078 O 1810.86 -0.0974909 -1.79736 0
M  V30 19079 H 1807.24 -0.307451 -0.686278 0
M  V30 19080 H 1809.21 -1.94776 -2.26064 0
M  V30 19081 C 1807.96 -0.606018 -3.42378 0
M  V30 19082 H 1807.28 -1.41284 -3.74004 0
M  V30 19083 H 1808.72 -0.487318 -4.2119 0
M  V30 19084 C 1807.18 0.685197 -3.29859 0
M  V30 19085 O 1807.71 1.73572 -3.62265 0
M  V30 19086 N 1805.92 0.65914 -2.83026 0
M  V30 19087 H 1805.46 -0.196071 -2.56853 0
M  V30 19088 H 1805.42 1.52332 -2.75031 0
M  V30 19089 N 1809.19 1.18355 -1.04066 0
M  V30 19090 C 1810.42 1.92275 -0.76406 0
M  V30 19091 C 1810.84 1.76176 0.678777 0
M  V30 19092 O 1810.19 1.0914 1.46269 0
M  V30 19093 C 1810.25 3.43686 -1.12083 0
M  V30 19094 O 1809.97 3.59277 -2.50702 0
M  V30 19095 C 1811.47 4.34705 -0.868726 0
M  V30 19096 H 1808.69 0.610406 -0.278649 0
M  V30 19097 H 1811.23 1.50153 -1.38832 0
M  V30 19098 H 1809.39 3.83596 -0.541528 0
M  V30 19099 H 1809.8 4.53007 -2.64357 0
M  V30 19100 H 1811.27 5.39497 -1.16821 0
M  V30 19101 H 1811.75 4.3876 0.196501 0
M  V30 19102 H 1812.36 4.00491 -1.43132 0
M  V30 19103 N 1810.67 0.820125 1.3458 0
M  V30 19104 C 1811.9 0.419764 2.02597 0
M  V30 19105 C 1812.32 -0.973439 1.6177 0
M  V30 19106 O 1811.67 -1.6295 0.821791 0
M  V30 19107 C 1811.72 0.509104 3.57897 0
M  V30 19108 O 1811.44 1.84739 3.97244 0
M  V30 19109 C 1812.95 0.103283 4.4318 0
M  V30 19110 H 1810.17 0.168803 0.64942 0
M  V30 19111 H 1812.71 1.10751 1.71914 0
M  V30 19112 H 1810.86 -0.130526 3.8718 0
M  V30 19113 H 1811.28 1.81967 4.91923 0
M  V30 19114 H 1812.75 0.216884 5.51574 0
M  V30 19115 H 1813.23 -0.952888 4.28738 0
M  V30 19116 H 1813.84 0.716601 4.19219 0
M  V30 19117 N 1812.15 -1.46743 0.574835 0
M  V30 19118 C 1813.39 -2.04312 0.0599973 0
M  V30 19119 C 1813.75 -1.43757 -1.27271 0
M  V30 19120 O 1814.96 -1.92479 -1.87631 0
M  V30 19121 C 1813.23 -3.57398 -0.0130197 0
M  V30 19122 S 1814.79 -4.3626 -0.471425 0
M  V30 19123 H 1811.6 -0.710203 0.0336583 0
M  V30 19124 H 1814.21 -1.79887 0.765555 0
M  V30 19125 H 1812.91 -3.9899 0.961003 0
M  V30 19126 H 1812.44 -3.86347 -0.741591 0
M  V30 19127 H 1814.46 -4.65149 -1.72773 0
M  V30 19128 N 1813.63 -0.312197 -1.54477 0
M  V30 19129 C 1814.56 0.551829 -2.26886 0
M  V30 19130 C 1815.54 1.12874 -1.27254 0
M  V30 19131 O 1816.72 1.15599 -1.56046 0
M  V30 19132 C 1813.85 1.71839 -3.01809 0
M  V30 19133 C 1812.81 1.27131 -4.08683 0
M  V30 19134 C 1812.13 2.52392 -4.71384 0
M  V30 19135 C 1813.43 0.394413 -5.20809 0
M  V30 19136 H 1815.13 -0.0521331 -2.99355 0
M  V30 19137 H 1812.67 -0.0265138 -1.43976 0
M  V30 19138 H 1814.63 2.32903 -3.5119 0
M  V30 19139 H 1813.35 2.34876 -2.26938 0
M  V30 19140 H 1812.01 0.683666 -3.60169 0
M  V30 19141 H 1811.66 3.13768 -3.93139 0
M  V30 19142 H 1811.36 2.23174 -5.43569 0
M  V30 19143 H 1812.88 3.14239 -5.23533 0
M  V30 19144 H 1814.3 0.911031 -5.66015 0
M  V30 19145 H 1812.69 0.195517 -5.99781 0
M  V30 19146 H 1813.76 -0.577661 -4.81447 0
M  V30 19147 N 1815.11 1.57549 -0.040136 0
M  V30 19148 C 1816.04 2.13912 0.936168 0
M  V30 19149 C 1817.02 1.05798 1.33194 0
M  V30 19150 O 1818.2 1.33685 1.40861 0
M  V30 19151 C 1815.33 2.67515 2.21479 0
M  V30 19152 C 1814.29 3.80513 1.95943 0
M  V30 19153 C 1813.61 4.20589 3.30165 0
M  V30 19154 C 1814.91 5.06124 1.28981 0
M  V30 19155 H 1816.61 2.9574 0.46674 0
M  V30 19156 H 1814.15 1.42262 0.223062 0
M  V30 19157 H 1816.11 3.05582 2.90168 0
M  V30 19158 H 1814.83 1.82864 2.70608 0
M  V30 19159 H 1813.49 3.42902 1.29669 0
M  V30 19160 H 1813.14 3.32904 3.77073 0
M  V30 19161 H 1812.84 4.96742 3.13881 0
M  V30 19162 H 1814.36 4.61248 4.00103 0
M  V30 19163 H 1815.77 5.41707 1.87687 0
M  V30 19164 H 1814.17 5.87347 1.2306 0
M  V30 19165 H 1815.24 4.84179 0.264286 0
M  V30 19166 N 1816.58 -0.233136 1.55866 0
M  V30 19167 C 1817.83 -0.956309 1.79517 0
M  V30 19168 C 1818.19 -1.82431 0.611291 0
M  V30 19169 O 1817.48 -1.87483 -0.395056 0
M  V30 19170 C 1817.67 -1.83897 3.06458 0
M  V30 19171 C 1817.5 -1.05791 4.37079 0
M  V30 19172 C 1816.27 -0.757479 4.9959 0
M  V30 19173 C 1818.47 -0.428808 5.12509 0
M  V30 19174 N 1816.45 0.0462021 6.13883 0
M  V30 19175 C 1817.82 0.238803 6.1954 0
M  V30 19176 C 1819.88 -0.340665 4.96733 0
M  V30 19177 C 1818.58 0.98611 7.12509 0
M  V30 19178 C 1820.61 0.393145 5.90092 0
M  V30 19179 C 1819.97 1.04934 6.9654 0
M  V30 19180 H 1816.07 -0.330588 0.708686 0
M  V30 19181 H 1818.65 -0.228196 1.93358 0
M  V30 19182 H 1816.82 -2.539 2.93921 0
M  V30 19183 H 1818.55 -2.49875 3.18347 0
M  V30 19184 H 1815.31 -1.07266 4.61293 0
M  V30 19185 H 1815.73 0.436538 6.75591 0
M  V30 19186 H 1820.38 -0.833649 4.145 0
M  V30 19187 H 1818.09 1.49065 7.94232 0
M  V30 19188 H 1821.68 0.462195 5.79961 0
M  V30 19189 H 1820.56 1.60809 7.67535 0
M  V30 19190 N 1818.06 -1.49479 -0.499372 0
M  V30 19191 C 1819.31 -1.60257 -1.25256 0
M  V30 19192 C 1819.66 -0.286337 -1.90257 0
M  V30 19193 O 1818.96 0.713567 -1.77817 0
M  V30 19194 C 1819.15 -2.70007 -2.3416 0
M  V30 19195 C 1818.98 -4.12175 -1.79839 0
M  V30 19196 C 1817.75 -4.78942 -1.61068 0
M  V30 19197 C 1819.95 -4.97354 -1.30933 0
M  V30 19198 N 1817.93 -6.05419 -1.01693 0
M  V30 19199 C 1819.3 -6.14324 -0.837025 0
M  V30 19200 C 1821.36 -4.83342 -1.19521 0
M  V30 19201 C 1820.06 -7.18823 -0.261894 0
M  V30 19202 C 1822.09 -5.87991 -0.634047 0
M  V30 19203 C 1821.45 -7.0419 -0.17198 0
M  V30 19204 H 1817.55 -0.640778 -0.44825 0
M  V30 19205 H 1820.13 -1.86491 -0.559393 0
M  V30 19206 H 1818.3 -2.45543 -3.00937 0
M  V30 19207 H 1820.03 -2.70298 -3.012 0
M  V30 19208 H 1816.79 -4.35767 -1.85483 0
M  V30 19209 H 1817.21 -6.72951 -0.73928 0
M  V30 19210 H 1821.85 -3.93817 -1.53844 0
M  V30 19211 H 1819.57 -8.08046 0.0935953 0
M  V30 19212 H 1823.16 -5.79209 -0.548506 0
M  V30 19213 H 1822.04 -7.83784 0.255466 0
M  V30 19214 N 1819.54 0.750537 -1.38581 0
M  V30 19215 C 1820.47 1.87411 -1.31946 0
M  V30 19216 C 1821.49 1.61151 -0.231101 0
M  V30 19217 O 1822.68 1.71674 -0.488893 0
M  V30 19218 C 1819.78 3.23112 -1.02233 0
M  V30 19219 C 1818.95 3.76852 -2.22039 0
M  V30 19220 C 1818.01 4.91077 -1.89023 0
M  V30 19221 O 1817.03 5.0555 -2.61549 0
M  V30 19222 N 1818.24 5.74287 -0.847021 0
M  V30 19223 H 1821 1.93613 -2.28767 0
M  V30 19224 H 1818.56 0.930603 -1.32482 0
M  V30 19225 H 1820.55 3.97074 -0.78193 0
M  V30 19226 H 1819.12 3.12277 -0.141981 0
M  V30 19227 H 1818.34 2.94421 -2.62126 0
M  V30 19228 H 1819.63 4.09489 -3.01987 0
M  V30 19229 H 1819.03 5.65166 -0.245635 0
M  V30 19230 H 1817.59 6.48383 -0.666505 0
M  V30 19231 N 1821.02 1.235 0.979051 0
M  V30 19232 C 1822.25 1.09304 1.75318 0
M  V30 19233 C 1822.66 -0.358266 1.85777 0
M  V30 19234 O 1822 -1.25956 1.33719 0
M  V30 19235 C 1822.06 1.6457 3.1962 0
M  V30 19236 C 1821.73 3.1334 3.32666 0
M  V30 19237 C 1822.72 4.1062 3.18885 0
M  V30 19238 C 1820.41 3.53076 3.57271 0
M  V30 19239 C 1822.4 5.45617 3.29515 0
M  V30 19240 C 1820.09 4.88218 3.67541 0
M  V30 19241 C 1821.09 5.84298 3.53674 0
M  V30 19242 O 1820.78 7.16985 3.63577 0
M  V30 19243 H 1820.51 0.383087 0.556974 0
M  V30 19244 H 1823.06 1.6385 1.23864 0
M  V30 19245 H 1821.29 1.04446 3.72328 0
M  V30 19246 H 1822.98 1.4583 3.78799 0
M  V30 19247 H 1823.75 3.81264 2.99771 0
M  V30 19248 H 1819.63 2.78804 3.67136 0
M  V30 19249 H 1823.17 6.20592 3.18608 0
M  V30 19250 H 1819.07 5.17249 3.86165 0
M  V30 19251 H 1819.83 7.24752 3.80364 0
M  V30 19252 N 1822.5 -1.17802 1.04693 0
M  V30 19253 C 1823.43 -2.23847 0.664448 0
M  V30 19254 C 1824.41 -1.66761 -0.335356 0
M  V30 19255 O 1825.59 -1.93017 -0.214062 0
M  V30 19256 C 1822.72 -3.47284 0.0331587 0
M  V30 19257 C 1821.68 -4.1716 0.95718 0
M  V30 19258 C 1821 -5.34362 0.190034 0
M  V30 19259 C 1822.3 -4.69951 2.2791 0
M  V30 19260 H 1824 -2.56095 1.55099 0
M  V30 19261 H 1821.54 -1.23097 0.747196 0
M  V30 19262 H 1823.5 -4.2068 -0.246178 0
M  V30 19263 H 1822.22 -3.14288 -0.888294 0
M  V30 19264 H 1820.88 -3.45669 1.221 0
M  V30 19265 H 1820.53 -4.97615 -0.734025 0
M  V30 19266 H 1820.23 -5.8205 0.805684 0
M  V30 19267 H 1821.75 -6.10545 -0.0821372 0
M  V30 19268 H 1823.17 -5.3501 2.06003 0
M  V30 19269 H 1821.56 -5.28198 2.84828 0
M  V30 19270 H 1822.63 -3.87032 2.9212 0
M  V30 19271 N 1823.98 -0.827251 -1.34143 0
M  V30 19272 C 1824.91 -0.267015 -2.31968 0
M  V30 19273 C 1825.89 0.618906 -1.58441 0
M  V30 19274 O 1827.07 0.544882 -1.86399 0
M  V30 19275 C 1824.2 0.568379 -3.42617 0
M  V30 19276 C 1823.16 -0.220767 -4.2743 0
M  V30 19277 C 1822.48 0.737643 -5.29587 0
M  V30 19278 C 1823.78 -1.43137 -5.02304 0
M  V30 19279 H 1825.48 -1.08436 -2.79073 0
M  V30 19280 H 1823.02 -0.522879 -1.34171 0
M  V30 19281 H 1824.97 0.970525 -4.10072 0
M  V30 19282 H 1823.7 1.41882 -2.94172 0
M  V30 19283 H 1822.36 -0.604333 -3.61585 0
M  V30 19284 H 1822.01 1.58416 -4.77403 0
M  V30 19285 H 1821.71 0.213815 -5.87211 0
M  V30 19286 H 1823.23 1.13755 -5.9991 0
M  V30 19287 H 1824.64 -1.10301 -5.62589 0
M  V30 19288 H 1823.04 -1.89115 -5.69522 0
M  V30 19289 H 1824.11 -2.2073 -4.31748 0
M  V30 19290 N 1825.45 1.46436 -0.582609 0
M  V30 19291 C 1826.42 2.28769 0.140502 0
M  V30 19292 C 1827.42 1.38385 0.818911 0
M  V30 19293 O 1828.61 1.60763 0.670882 0
M  V30 19294 C 1825.74 3.18765 1.20836 0
M  V30 19295 H 1826.93 2.94178 -0.583049 0
M  V30 19296 H 1824.48 1.52544 -0.340575 0
M  V30 19297 H 1825.22 2.58103 1.9635 0
M  V30 19298 H 1825 3.85312 0.726417 0
M  V30 19299 H 1826.49 3.80735 1.71553 0
M  V30 19300 N 1826.93 0.320385 1.54309 0
M  V30 19301 C 1828.18 -0.284021 1.9969 0
M  V30 19302 C 1828.49 -1.53496 1.21237 0
M  V30 19303 O 1829.7 -2.21517 1.5698 0
M  V30 19304 C 1828.16 -0.556621 3.5557 0
M  V30 19305 C 1827.76 0.677086 4.42854 0
M  V30 19306 C 1829.51 -1.12116 4.09427 0
M  V30 19307 C 1827.41 0.376566 5.902 0
M  V30 19308 H 1826.34 -0.109905 0.745947 0
M  V30 19309 H 1829 0.432113 1.7834 0
M  V30 19310 H 1827.38 -1.33286 3.72895 0
M  V30 19311 H 1828.55 1.45266 4.37304 0
M  V30 19312 H 1826.87 1.16161 3.99869 0
M  V30 19313 H 1829.46 -1.36057 5.171 0
M  V30 19314 H 1829.81 -2.06954 3.61215 0
M  V30 19315 H 1830.34 -0.406174 3.95721 0
M  V30 19316 H 1827.08 1.29403 6.426 0
M  V30 19317 H 1826.6 -0.36136 5.9871 0
M  V30 19318 H 1828.28 -0.014773 6.46998 0
M  V30 19319 N 1828.41 -1.57525 0.0484906 0
M  V30 19320 C 1829.66 -1.92585 -0.62589 0
M  V30 19321 C 1829.98 -0.926621 -1.71009 0
M  V30 19322 O 1829.24 0.0614997 -1.95603 0
M  V30 19323 C 1829.54 -3.34335 -1.26313 0
M  V30 19324 C 1829.2 -4.49851 -0.307397 0
M  V30 19325 C 1827.87 -4.8118 -0.0443996 0
M  V30 19326 C 1830.22 -5.20039 0.347762 0
M  V30 19327 C 1827.55 -5.80044 0.881238 0
M  V30 19328 C 1829.9 -6.19893 1.26157 0
M  V30 19329 C 1828.56 -6.49651 1.53327 0
M  V30 19330 H 1827.83 -0.704717 -0.229029 0
M  V30 19331 H 1830.48 -1.91158 0.114397 0
M  V30 19332 H 1828.78 -3.32115 -2.07862 0
M  V30 19333 H 1830.48 -3.58741 -1.79182 0
M  V30 19334 H 1827.07 -4.25402 -0.522561 0
M  V30 19335 H 1831.26 -4.9605 0.157663 0
M  V30 19336 H 1826.51 -6.01437 1.09924 0
M  V30 19337 H 1830.69 -6.73391 1.77532 0
M  V30 19338 H 1828.31 -7.26073 2.25216 0
M  V30 19339 N 1829.89 0.224867 -1.55988 0
M  V30 19340 C 1831.13 0.946775 -1.80021 0
M  V30 19341 C 1831.49 1.82104 -0.620957 0
M  V30 19342 O 1830.78 1.8769 0.385108 0
M  V30 19343 C 1830.98 1.8227 -3.07429 0
M  V30 19344 C 1830.8 1.03472 -4.37634 0
M  V30 19345 C 1829.57 0.730974 -4.99985 0
M  V30 19346 C 1831.77 0.401622 -5.12729 0
M  V30 19347 N 1829.75 -0.0787572 -6.13849 0
M  V30 19348 C 1831.13 -0.271655 -6.19405 0
M  V30 19349 C 1833.18 0.314318 -4.96907 0
M  V30 19350 C 1831.88 -1.02388 -7.11976 0
M  V30 19351 C 1833.91 -0.424434 -5.89875 0
M  V30 19352 C 1833.27 -1.08627 -6.95974 0
M  V30 19353 H 1829.37 0.326825 -0.710429 0
M  V30 19354 H 1831.95 0.217939 -1.93476 0
M  V30 19355 H 1830.13 2.52338 -2.95263 0
M  V30 19356 H 1831.86 2.48183 -3.19668 0
M  V30 19357 H 1828.61 1.04818 -4.61855 0
M  V30 19358 H 1829.04 -0.472361 -6.7535 0
M  V30 19359 H 1833.68 0.811656 -4.14936 0
M  V30 19360 H 1831.4 -1.53275 -7.93431 0
M  V30 19361 H 1834.98 -0.492945 -5.79708 0
M  V30 19362 H 1833.86 -1.64877 -7.66672 0
M  V30 19363 N 1831.37 1.49742 0.491438 0
M  V30 19364 C 1832.33 1.66587 1.57421 0
M  V30 19365 C 1833.33 0.537281 1.51558 0
M  V30 19366 O 1834.52 0.803928 1.5454 0
M  V30 19367 C 1831.65 1.67217 2.97071 0
M  V30 19368 H 1832.84 2.63171 1.4381 0
M  V30 19369 H 1830.4 1.38917 0.716368 0
M  V30 19370 H 1831.13 0.722529 3.16149 0
M  V30 19371 H 1830.92 2.49187 3.02734 0
M  V30 19372 H 1832.41 1.82274 3.75721 0
M  V30 19373 N 1832.84 -0.743177 1.38977 0
M  V30 19374 C 1833.77 -1.87047 1.3977 0
M  V30 19375 C 1834.76 -1.68068 0.262161 0
M  V30 19376 O 1835.94 -1.88507 0.466782 0
M  V30 19377 C 1833.07 -3.24701 1.23234 0
M  V30 19378 C 1832.02 -3.58302 2.34102 0
M  V30 19379 C 1831.35 -4.94805 2.02663 0
M  V30 19380 C 1832.65 -3.62111 3.76395 0
M  V30 19381 H 1834.34 -1.8664 2.34107 0
M  V30 19382 H 1831.89 -0.896541 1.12686 0
M  V30 19383 H 1833.84 -4.03228 1.22412 0
M  V30 19384 H 1832.57 -3.25614 0.253638 0
M  V30 19385 H 1831.23 -2.82099 2.34128 0
M  V30 19386 H 1830.87 -4.92289 1.0325 0
M  V30 19387 H 1830.57 -5.18254 2.76922 0
M  V30 19388 H 1832.1 -5.75699 2.03477 0
M  V30 19389 H 1833.51 -4.30731 3.78343 0
M  V30 19390 H 1831.91 -3.97075 4.49946 0
M  V30 19391 H 1832.98 -2.62099 4.07961 0
M  V30 19392 N 1834.32 -1.24018 -0.972487 0
M  V30 19393 C 1835.25 -1.0529 -2.08414 0
M  V30 19394 C 1836.23 0.0326663 -1.70069 0
M  V30 19395 O 1837.42 -0.133494 -1.93741 0
M  V30 19396 C 1834.55 -0.651796 -3.41129 0
M  V30 19397 C 1833.5 -1.68559 -3.9341 0
M  V30 19398 C 1832.83 -1.1397 -5.22413 0
M  V30 19399 C 1834.13 -3.08046 -4.21788 0
M  V30 19400 H 1835.82 -1.98272 -2.2434 0
M  V30 19401 H 1833.37 -0.954694 -1.07804 0
M  V30 19402 H 1835.32 -0.507792 -4.18329 0
M  V30 19403 H 1834.05 0.313722 -3.2509 0
M  V30 19404 H 1832.7 -1.81773 -3.18362 0
M  V30 19405 H 1832.35 -0.164928 -5.0273 0
M  V30 19406 H 1832.05 -1.83051 -5.5836 0
M  V30 19407 H 1833.58 -1.00771 -6.02227 0
M  V30 19408 H 1834.99 -2.98088 -4.8971 0
M  V30 19409 H 1833.39 -3.74436 -4.68954 0
M  V30 19410 H 1834.46 -3.56444 -3.28749 0
M  V30 19411 N 1835.8 1.17245 -1.05316 0
M  V30 19412 C 1836.75 2.23357 -0.649174 0
M  V30 19413 C 1837.74 1.66152 0.33015 0
M  V30 19414 O 1838.95 1.78929 0.196078 0
M  V30 19415 H 1835.32 0.727139 -0.191762 0
M  V30 19416 H 1837.29 2.54728 -1.55423 0
M  V30 19417 C 1836.04 3.47676 -0.0412049 0
M  V30 19418 H 1835.37 3.92 -0.785858 0
M  V30 19419 H 1836.81 4.23509 0.204073 0
M  V30 19420 C 1835.27 3.14326 1.21247 0
M  V30 19421 O 1835.8 3.29218 2.3017 0
M  V30 19422 N 1834 2.68541 1.1106 0
M  V30 19423 H 1833.55 2.56622 0.224212 0
M  V30 19424 H 1833.51 2.466 1.95028 0
M  V30 19425 N 1837.28 0.834353 1.33702 0
M  V30 19426 C 1838.21 0.279313 2.31823 0
M  V30 19427 C 1839.19 -0.610495 1.58767 0
M  V30 19428 O 1840.37 -0.534989 1.86686 0
M  V30 19429 C 1837.5 -0.550201 3.42914 0
M  V30 19430 C 1836.46 0.243432 4.27307 0
M  V30 19431 C 1835.78 -0.709548 5.29971 0
M  V30 19432 C 1837.08 1.45799 5.01537 0
M  V30 19433 H 1838.78 1.09915 2.78494 0
M  V30 19434 H 1836.32 0.529987 1.33892 0
M  V30 19435 H 1838.28 -0.948764 4.10581 0
M  V30 19436 H 1837 -1.4032 2.9492 0
M  V30 19437 H 1835.66 0.6235 3.61259 0
M  V30 19438 H 1835.31 -1.55882 4.78236 0
M  V30 19439 H 1835.01 -0.182671 5.87316 0
M  V30 19440 H 1836.53 -1.10572 6.00505 0
M  V30 19441 H 1837.95 1.13283 5.61996 0
M  V30 19442 H 1836.34 1.92133 5.68511 0
M  V30 19443 H 1837.41 2.23016 4.30571 0
M  V30 19444 N 1838.76 -1.46125 0.590367 0
M  V30 19445 C 1840 -2.02346 0.0788814 0
M  V30 19446 C 1840.33 -1.46093 -1.28402 0
M  V30 19447 O 1839.59 -0.618875 -1.85657 0
M  V30 19448 C 1839.89 -3.57388 -0.0287217 0
M  V30 19449 C 1839.55 -4.32716 1.26758 0
M  V30 19450 C 1838.21 -4.53014 1.62271 0
M  V30 19451 C 1840.57 -4.7591 2.12507 0
M  V30 19452 C 1837.89 -5.13759 2.83318 0
M  V30 19453 C 1840.25 -5.37992 3.32787 0
M  V30 19454 C 1838.91 -5.56516 3.68573 0
M  V30 19455 H 1838.18 -0.740438 0.0288647 0
M  V30 19456 H 1840.83 -1.75402 0.768538 0
M  V30 19457 H 1839.13 -3.83513 -0.801551 0
M  V30 19458 H 1840.83 -3.98575 -0.440356 0
M  V30 19459 H 1837.42 -4.17219 0.981133 0
M  V30 19460 H 1841.6 -4.59977 1.86373 0
M  V30 19461 H 1836.86 -5.26291 3.11172 0
M  V30 19462 H 1841.03 -5.70418 3.99495 0
M  V30 19463 H 1838.66 -6.03355 4.62458 0
M  V30 19464 N 1840.23 -0.328564 -1.54137 0
M  V30 19465 C 1841.16 0.527734 -2.27458 0
M  V30 19466 C 1842.15 1.11518 -1.28444 0
M  V30 19467 O 1843.33 1.13938 -1.57264 0
M  V30 19468 C 1840.46 1.68628 -3.03615 0
M  V30 19469 C 1839.41 1.22789 -4.10008 0
M  V30 19470 C 1838.74 2.47378 -4.74034 0
M  V30 19471 C 1840.04 0.339152 -5.21198 0
M  V30 19472 H 1841.73 -0.0838808 -2.99282 0
M  V30 19473 H 1839.28 -0.0417829 -1.43939 0
M  V30 19474 H 1841.23 2.29165 -3.5364 0
M  V30 19475 H 1839.96 2.32456 -2.29416 0
M  V30 19476 H 1838.62 0.645427 -3.60874 0
M  V30 19477 H 1838.26 3.09581 -3.96445 0
M  V30 19478 H 1837.96 2.17396 -5.45905 0
M  V30 19479 H 1839.49 3.08668 -5.26836 0
M  V30 19480 H 1840.9 0.850947 -5.6695 0
M  V30 19481 H 1839.3 0.131892 -5.99955 0
M  V30 19482 H 1840.37 -0.628692 -4.80807 0
M  V30 19483 N 1841.71 1.57497 -0.0568439 0
M  V30 19484 C 1842.99 1.84277 0.655847 0
M  V30 19485 C 1843.37 0.94638 1.88698 0
M  V30 19486 O 1842.72 0.00884889 2.28498 0
M  V30 19487 C 1842.93 3.34134 1.00775 0
M  V30 19488 C 1844.28 4.01286 1.38763 0
M  V30 19489 O 1845.3 3.38792 1.09992 0
M  V30 19490 O 1844.16 5.11482 1.92479 0
M  V30 19491 H 1841.25 0.760773 0.324275 0
M  V30 19492 H 1843.8 1.69479 -0.0866388 0
M  V30 19493 H 1842.57 3.91075 0.132718 0
M  V30 19494 H 1842.19 3.5414 1.80749 0
M  V30 19495 N 1843.19 -0.216591 1.56105 0
M  V30 19496 C 1844.1 -1.28933 1.95994 0
M  V30 19497 C 1845.12 -1.51007 0.864464 0
M  V30 19498 O 1846.29 -1.6404 1.16845 0
M  V30 19499 C 1843.36 -2.61807 2.27284 0
M  V30 19500 C 1842.42 -2.47992 3.50426 0
M  V30 19501 C 1841.65 -3.7453 3.80214 0
M  V30 19502 O 1841.87 -4.77765 3.11604 0
M  V30 19503 O 1840.81 -3.71345 4.73694 0
M  V30 19504 H 1844.63 -0.980864 2.87424 0
M  V30 19505 H 1842.22 -0.419859 1.43379 0
M  V30 19506 H 1844.1 -3.40272 2.48582 0
M  V30 19507 H 1842.78 -2.92324 1.39026 0
M  V30 19508 H 1841.68 -1.67711 3.34401 0
M  V30 19509 H 1843.02 -2.22413 4.39082 0
M  V30 19510 N 1844.67 -1.5 -0.48349 0
M  V30 19511 C 1845.92 -1.59612 -1.23317 0
M  V30 19512 C 1846.23 -0.29614 -1.93345 0
M  V30 19513 O 1847.44 -0.271008 -2.70144 0
M  V30 19514 C 1845.89 -2.81692 -2.24003 0
M  V30 19515 C 1845.5 -4.18518 -1.59834 0
M  V30 19516 C 1847.24 -3.00643 -2.9969 0
M  V30 19517 C 1845.15 -5.31799 -2.58735 0
M  V30 19518 H 1844.08 -0.594352 -0.463963 0
M  V30 19519 H 1846.73 -1.76414 -0.505016 0
M  V30 19520 H 1845.11 -2.58422 -3.00057 0
M  V30 19521 H 1846.29 -4.51994 -0.896542 0
M  V30 19522 H 1844.6 -4.0507 -0.964743 0
M  V30 19523 H 1847.2 -3.82445 -3.73684 0
M  V30 19524 H 1847.54 -2.11883 -3.58345 0
M  V30 19525 H 1848.08 -3.24035 -2.30751 0
M  V30 19526 H 1844.82 -6.22674 -2.04836 0
M  V30 19527 H 1844.34 -5.02756 -3.27103 0
M  V30 19528 H 1846.01 -5.61861 -3.20814 0
M  V30 19529 N 1846.15 0.735796 -1.39369 0
M  V30 19530 C 1847.39 1.49756 -1.36752 0
M  V30 19531 C 1847.73 1.94165 0.036815 0
M  V30 19532 O 1847 1.66728 1.00159 0
M  V30 19533 C 1847.28 2.73779 -2.33916 0
M  V30 19534 C 1847.14 2.35394 -3.83288 0
M  V30 19535 C 1848.46 3.75875 -2.28924 0
M  V30 19536 H 1845.57 0.543236 -0.49806 0
M  V30 19537 H 1848.22 0.841381 -1.70355 0
M  V30 19538 H 1846.37 3.29768 -2.05391 0
M  V30 19539 H 1848.04 1.85043 -4.2256 0
M  V30 19540 H 1846.28 1.67632 -4.00102 0
M  V30 19541 H 1846.95 3.24206 -4.4676 0
M  V30 19542 H 1849.43 3.29469 -2.54144 0
M  V30 19543 H 1848.3 4.60321 -2.98991 0
M  V30 19544 H 1848.57 4.22739 -1.29399 0
M  V30 19545 N 1847.63 1.24532 0.965897 0
M  V30 19546 C 1849.04 1.07886 1.52373 0
M  V30 19547 C 1849.39 -0.349136 1.93069 0
M  V30 19548 O 1848.51 -1.23774 1.77508 0
M  V30 19549 C 1849.11 1.95224 2.76899 0
M  V30 19550 C 1847.67 1.82796 3.29033 0
M  V30 19551 C 1846.81 1.9005 2.01931 0
M  V30 19552 H 1849.76 1.37982 0.783997 0
M  V30 19553 H 1849.79 1.48558 3.50301 0
M  V30 19554 H 1849.3 2.99148 2.47249 0
M  V30 19555 H 1847.4 0.817115 3.6353 0
M  V30 19556 H 1847.51 2.66989 3.97811 0
M  V30 19557 H 1845.88 1.338 2.16725 0
M  V30 19558 H 1846.66 2.95558 1.74644 0
M  V30 19559 N 1849.1 -1.16685 1.05936 0
M  V30 19560 C 1850.05 -2.20953 0.66695 0
M  V30 19561 C 1851.02 -1.62694 -0.334621 0
M  V30 19562 O 1852.21 -1.89477 -0.22433 0
M  V30 19563 C 1849.35 -3.45055 0.0557459 0
M  V30 19564 C 1848.46 -4.17574 1.10706 0
M  V30 19565 C 1847.59 -5.29184 0.462377 0
M  V30 19566 C 1846.63 -5.935 1.49748 0
M  V30 19567 N 1845.77 -6.96608 0.876416 0
M  V30 19568 H 1850.61 -2.53872 1.56054 0
M  V30 19569 H 1848.15 -1.24697 0.780321 0
M  V30 19570 H 1850.1 -4.16001 -0.316125 0
M  V30 19571 H 1848.73 -3.12697 -0.801265 0
M  V30 19572 H 1847.79 -3.45269 1.59668 0
M  V30 19573 H 1849.1 -4.61505 1.89248 0
M  V30 19574 H 1848.25 -6.06689 0.0373376 0
M  V30 19575 H 1846.99 -4.86407 -0.354955 0
M  V30 19576 H 1846 -5.1472 1.93245 0
M  V30 19577 H 1847.22 -6.38357 2.31684 0
M  V30 19578 H 1845.17 -6.55952 0.0797299 0
M  V30 19579 H 1845.08 -7.38891 1.59927 0
M  V30 19580 H 1846.35 -7.78043 0.4764 0
M  V30 19581 N 1850.58 -0.841432 -1.33258 0
M  V30 19582 C 1851.83 -0.439027 -1.97991 0
M  V30 19583 C 1852.16 0.999767 -1.66488 0
M  V30 19584 O 1851.44 1.69938 -0.94612 0
M  V30 19585 C 1851.72 -0.663137 -3.53941 0
M  V30 19586 C 1851.57 -2.14939 -3.95122 0
M  V30 19587 C 1852.89 -0.11094 -4.3996 0
M  V30 19588 H 1850.01 -0.160987 -0.719203 0
M  V30 19589 H 1852.65 -1.05742 -1.57856 0
M  V30 19590 H 1850.8 -0.136765 -3.88259 0
M  V30 19591 H 1852.47 -2.74082 -3.71048 0
M  V30 19592 H 1850.72 -2.63293 -3.4476 0
M  V30 19593 H 1851.39 -2.25694 -5.03752 0
M  V30 19594 H 1853.86 -0.560898 -4.12302 0
M  V30 19595 H 1852.74 -0.297416 -5.48094 0
M  V30 19596 H 1853 0.985446 -4.30977 0
M  V30 19597 N 1852.06 1.4581 -0.598108 0
M  V30 19598 C 1853.31 2.01511 -0.0872421 0
M  V30 19599 C 1853.62 1.47345 1.28642 0
M  V30 19600 O 1854.83 1.94963 1.88949 0
M  V30 19601 C 1853.28 3.59746 -0.105317 0
M  V30 19602 C 1852.89 4.22909 -1.47824 0
M  V30 19603 C 1854.64 4.23048 0.350802 0
M  V30 19604 C 1852.54 5.73268 -1.45321 0
M  V30 19605 H 1851.47 0.753448 -0.0288462 0
M  V30 19606 H 1854.12 1.67382 -0.752037 0
M  V30 19607 H 1852.51 3.91022 0.625947 0
M  V30 19608 H 1853.68 4.03221 -2.23046 0
M  V30 19609 H 1851.99 3.71763 -1.87566 0
M  V30 19610 H 1854.59 5.33286 0.388561 0
M  V30 19611 H 1854.93 3.93058 1.37155 0
M  V30 19612 H 1855.47 3.96455 -0.326889 0
M  V30 19613 H 1852.21 6.07942 -2.45126 0
M  V30 19614 H 1851.73 5.95175 -0.743436 0
M  V30 19615 H 1853.41 6.36283 -1.17275 0
M  V30 19616 N 1853.54 0.336733 1.53961 0
M  V30 19617 C 1854.77 -0.263064 2.04918 0
M  V30 19618 C 1855.18 -1.45301 1.21178 0
M  V30 19619 O 1854.52 -1.82147 0.238356 0
M  V30 19620 C 1854.58 -0.748277 3.51626 0
M  V30 19621 C 1854.24 0.321112 4.5587 0
M  V30 19622 C 1855.24 1.16157 5.06758 0
M  V30 19623 C 1852.93 0.473083 5.00067 0
M  V30 19624 C 1854.92 2.1396 6.00416 0
M  V30 19625 C 1852.61 1.45452 5.93538 0
M  V30 19626 C 1853.61 2.28624 6.43599 0
M  V30 19627 O 1853.29 3.25098 7.35232 0
M  V30 19628 H 1853.03 -0.0558258 0.673691 0
M  V30 19629 H 1855.58 0.484895 1.99594 0
M  V30 19630 H 1853.81 -1.54737 3.54392 0
M  V30 19631 H 1855.5 -1.26787 3.8559 0
M  V30 19632 H 1856.26 1.05521 4.73382 0
M  V30 19633 H 1852.14 -0.164435 4.60707 0
M  V30 19634 H 1855.69 2.78916 6.39415 0
M  V30 19635 H 1851.58 1.56146 6.26329 0
M  V30 19636 H 1852.35 3.2049 7.53146 0
M  V30 19637 N 1855.02 -1.57465 0.0651956 0
M  V30 19638 C 1856.43 -1.56917 -0.291414 0
M  V30 19639 C 1856.63 -1.07405 -1.70489 0
M  V30 19640 O 1855.69 -0.736958 -2.41506 0
M  V30 19641 C 1857 -3.00509 -0.107088 0
M  V30 19642 C 1858.55 -3.12498 -0.177127 0
M  V30 19643 C 1859.02 -4.57995 -0.0211616 0
M  V30 19644 N 1860.51 -4.63136 -0.0769824 0
M  V30 19645 C 1861.25 -5.73397 0.0193783 0
M  V30 19646 N 1860.75 -6.92594 0.168885 0
M  V30 19647 N 1862.54 -5.62088 -0.0372133 0
M  V30 19648 H 1854.69 -1.87966 0.989061 0
M  V30 19649 H 1856.95 -0.866234 0.385154 0
M  V30 19650 H 1856.66 -3.4082 0.868005 0
M  V30 19651 H 1856.53 -3.67214 -0.86221 0
M  V30 19652 H 1858.92 -2.72078 -1.1427 0
M  V30 19653 H 1859 -2.48445 0.608986 0
M  V30 19654 H 1858.64 -4.99104 0.941151 0
M  V30 19655 H 1858.57 -5.20072 -0.826597 0
M  V30 19656 H 1861.07 -3.77416 -0.191213 0
M  V30 19657 H 1861.38 -7.72443 0.234737 0
M  V30 19658 H 1859.72 -6.947 0.204159 0
M  V30 19659 H 1862.91 -4.67851 -0.152669 0
M  V30 19660 H 1863.09 -6.47987 0.0413392 0
M  V30 19661 N 1856.49 0.20831 -1.56217 0
M  V30 19662 C 1857.91 0.55859 -1.49506 0
M  V30 19663 C 1858.11 1.86504 -0.762784 0
M  V30 19664 O 1857.17 2.50616 -0.307868 0
M  V30 19665 C 1858.48 0.625557 -2.94121 0
M  V30 19666 C 1860.03 0.715289 -3.04717 0
M  V30 19667 C 1860.5 0.813485 -4.50718 0
M  V30 19668 N 1861.99 0.87736 -4.54815 0
M  V30 19669 C 1862.73 0.973279 -5.65079 0
M  V30 19670 N 1862.22 1.03232 -6.85066 0
M  V30 19671 N 1864.02 1.00944 -5.52962 0
M  V30 19672 H 1856.17 -0.648826 -2.02247 0
M  V30 19673 H 1858.43 -0.229425 -0.91982 0
M  V30 19674 H 1858.14 -0.265056 -3.507 0
M  V30 19675 H 1858.01 1.48473 -3.4675 0
M  V30 19676 H 1860.4 1.59634 -2.48196 0
M  V30 19677 H 1860.48 -0.169818 -2.55236 0
M  V30 19678 H 1860.12 -0.0631602 -5.07861 0
M  V30 19679 H 1860.05 1.7142 -4.97918 0
M  V30 19680 H 1862.54 0.841513 -3.68411 0
M  V30 19681 H 1862.86 1.10566 -7.6485 0
M  V30 19682 H 1861.2 1.00122 -6.8775 0
M  V30 19683 H 1864.39 0.960065 -4.58149 0
M  V30 19684 H 1864.57 1.08074 -6.38924 0
M  V30 19685 N 1857.97 1.50255 0.475528 0
M  V30 19686 C 1858.92 1.68794 1.57408 0
M  V30 19687 C 1859.89 0.529252 1.57442 0
M  V30 19688 O 1861.07 0.759301 1.75041 0
M  V30 19689 C 1858.21 1.78401 2.9541 0
M  V30 19690 C 1857.33 3.05742 3.05198 0
M  V30 19691 C 1856.46 3.06172 4.34088 0
M  V30 19692 C 1855.5 4.27985 4.37602 0
M  V30 19693 N 1854.64 4.26179 5.57957 0
M  V30 19694 H 1859.48 2.62583 1.40905 0
M  V30 19695 H 1857.01 1.30169 0.685152 0
M  V30 19696 H 1858.97 1.81952 3.75432 0
M  V30 19697 H 1857.6 0.880556 3.10558 0
M  V30 19698 H 1856.65 3.11683 2.18077 0
M  V30 19699 H 1857.97 3.95722 3.03654 0
M  V30 19700 H 1857.12 3.08427 5.22454 0
M  V30 19701 H 1855.86 2.14014 4.38234 0
M  V30 19702 H 1854.86 4.25947 3.47634 0
M  V30 19703 H 1856.09 5.21364 4.35151 0
M  V30 19704 H 1854.04 3.36873 5.62897 0
M  V30 19705 H 1853.95 5.09923 5.58135 0
M  V30 19706 H 1855.22 4.32574 6.4846 0
M  V30 19707 N 1859.45 -0.728395 1.39758 0
M  V30 19708 C 1860.68 -1.5154 1.40425 0
M  V30 19709 C 1861.09 -1.892 -0.00123953 0
M  V30 19710 O 1860.43 -1.55086 -0.984575 0
M  V30 19711 C 1860.49 -2.8282 2.2193 0
M  V30 19712 C 1860.16 -2.67557 3.70489 0
M  V30 19713 C 1861.15 -2.35665 4.6342 0
M  V30 19714 C 1858.84 -2.84221 4.14154 0
M  V30 19715 C 1860.83 -2.20628 5.97998 0
M  V30 19716 C 1858.52 -2.68803 5.48806 0
M  V30 19717 C 1859.52 -2.37053 6.40543 0
M  V30 19718 O 1859.21 -2.21738 7.72714 0
M  V30 19719 H 1858.94 -0.474672 0.481313 0
M  V30 19720 H 1861.49 -0.907176 1.84281 0
M  V30 19721 H 1859.72 -3.45927 1.72833 0
M  V30 19722 H 1861.41 -3.44472 2.14695 0
M  V30 19723 H 1862.18 -2.22435 4.30985 0
M  V30 19724 H 1858.06 -3.07925 3.43079 0
M  V30 19725 H 1861.6 -1.95768 6.69567 0
M  V30 19726 H 1857.5 -2.81614 5.8083 0
M  V30 19727 H 1858.26 -2.36758 7.8351 0
M  V30 19728 N 1860.93 -1.25042 -0.959279 0
M  V30 19729 C 1861.86 -0.993416 -2.05442 0
M  V30 19730 C 1862.84 0.0757423 -1.62423 0
M  V30 19731 O 1864.02 -0.0629495 -1.88395 0
M  V30 19732 C 1861.15 -0.500792 -3.34977 0
M  V30 19733 C 1860.2 -1.55978 -3.96955 0
M  V30 19734 S 1861.03 -3.14361 -4.33517 0
M  V30 19735 C 1862.18 -2.66823 -5.66177 0
M  V30 19736 H 1862.42 -1.92071 -2.26927 0
M  V30 19737 H 1859.95 -1.08521 -1.0983 0
M  V30 19738 H 1861.91 -0.223207 -4.09893 0
M  V30 19739 H 1860.57 0.405931 -3.11466 0
M  V30 19740 H 1859.76 -1.16569 -4.90334 0
M  V30 19741 H 1859.36 -1.7878 -3.28502 0
M  V30 19742 H 1861.66 -2.10159 -6.4408 0
M  V30 19743 H 1862.6 -3.58824 -6.10452 0
M  V30 19744 H 1863.01 -2.06972 -5.25189 0
M  V30 19745 N 1862.41 1.16121 -1.06553 0
M  V30 19746 C 1863.63 1.90611 -0.804673 0
M  V30 19747 C 1864.05 1.77576 0.641255 0
M  V30 19748 O 1863.41 1.12218 1.43921 0
M  V30 19749 C 1863.46 3.41231 -1.19348 0
M  V30 19750 O 1863.18 3.53879 -2.58266 0
M  V30 19751 C 1864.68 4.32764 -0.960738 0
M  V30 19752 H 1861.9 0.604358 -0.291534 0
M  V30 19753 H 1864.44 1.47174 -1.41986 0
M  V30 19754 H 1862.6 3.82361 -0.622772 0
M  V30 19755 H 1863.01 4.47298 -2.73907 0
M  V30 19756 H 1864.49 5.36898 -1.28238 0
M  V30 19757 H 1864.96 4.39078 0.103389 0
M  V30 19758 H 1865.57 3.97365 -1.51595 0
M  V30 19759 N 1863.88 0.848487 1.3281 0
M  V30 19760 C 1865.13 0.445116 1.96727 0
M  V30 19761 C 1865.45 -1.00311 1.6792 0
M  V30 19762 O 1866.65 -1.51162 2.25527 0
M  V30 19763 C 1865.11 0.745015 3.52104 0
M  V30 19764 C 1864.72 2.20856 3.89778 0
M  V30 19765 C 1866.46 0.409065 4.22524 0
M  V30 19766 C 1864.37 2.452 5.38174 0
M  V30 19767 H 1863.3 0.162715 0.736233 0
M  V30 19768 H 1865.95 1.03841 1.51292 0
M  V30 19769 H 1864.33 0.0812291 3.95917 0
M  V30 19770 H 1865.5 2.91362 3.56994 0
M  V30 19771 H 1863.82 2.50842 3.32366 0
M  V30 19772 H 1866.42 0.568453 5.3167 0
M  V30 19773 H 1866.76 -0.648796 4.11213 0
M  V30 19774 H 1867.29 1.02848 3.84275 0
M  V30 19775 H 1864.03 3.49588 5.54499 0
M  V30 19776 H 1863.55 1.79265 5.72384 0
M  V30 19777 H 1865.23 2.28838 6.0518 0
M  V30 19778 N 1865.36 -1.4549 0.605832 0
M  V30 19779 C 1866.31 -2.30518 -0.114038 0
M  V30 19780 C 1867.28 -1.42 -0.861703 0
M  V30 19781 O 1868.46 -1.7093 -0.847788 0
M  V30 19782 C 1865.6 -3.26876 -1.10661 0
M  V30 19783 C 1864.72 -4.30497 -0.359999 0
M  V30 19784 C 1863.85 -5.13965 -1.34214 0
M  V30 19785 C 1862.89 -6.09315 -0.58324 0
M  V30 19786 N 1862.03 -6.85569 -1.51457 0
M  V30 19787 H 1866.87 -2.91542 0.617043 0
M  V30 19788 H 1864.41 -1.43664 0.31609 0
M  V30 19789 H 1866.36 -3.81207 -1.69519 0
M  V30 19790 H 1864.99 -2.6761 -1.80512 0
M  V30 19791 H 1864.05 -3.78841 0.344058 0
M  V30 19792 H 1865.36 -4.98259 0.232208 0
M  V30 19793 H 1864.51 -5.72688 -2.00283 0
M  V30 19794 H 1863.25 -4.46218 -1.96828 0
M  V30 19795 H 1862.26 -5.49725 0.0910986 0
M  V30 19796 H 1863.48 -6.79089 0.0378268 0
M  V30 19797 H 1861.43 -6.20512 -2.12839 0
M  V30 19798 H 1861.34 -7.49677 -0.97576 0
M  V30 19799 H 1862.61 -7.48834 -2.1649 0
M  V30 19800 N 1866.84 -0.344893 -1.5378 0
M  V30 19801 C 1867.79 0.526591 -2.26561 0
M  V30 19802 C 1868.78 1.10083 -1.28756 0
M  V30 19803 O 1869.99 1.04641 -1.46459 0
M  V30 19804 H 1866.36 0.188505 -0.72799 0
M  V30 19805 H 1868.33 -0.109269 -2.982 0
M  V30 19806 C 1867.08 1.66505 -3.0524 0
M  V30 19807 H 1866.41 1.23246 -3.80329 0
M  V30 19808 H 1867.85 2.24998 -3.59377 0
M  V30 19809 C 1866.31 2.59527 -2.14819 0
M  V30 19810 O 1866.84 3.6181 -1.74517 0
M  V30 19811 N 1865.04 2.28243 -1.79871 0
M  V30 19812 H 1864.59 1.45106 -2.12843 0
M  V30 19813 H 1864.55 2.90741 -1.19654 0
M  V30 19814 O 1868.36 1.60086 -0.213238 0
M  V30 19815 H 1869.05 1.90156 0.368819 0
M  V30 END ATOM
M  V30 BEGIN BOND
M  V30 END BOND
M  V30 END CTAB
M  END
$$$$
