drugbank_target|A0A144A2G5 Dipeptidyl aminopeptidase 1 (DB11638)
 OpenBabel12092121123D

  0  0  0     0  0            999 V3000
M  V30 BEGIN CTAB
M  V30 COUNTS 11091 11223 0 0 0
M  V30 BEGIN ATOM
M  V30 1 H -0.908 1.98254 -0.117106 0
M  V30 2 N 0 1.576 0 0
M  V30 3 C 0.933 2.03868 1.02534 0
M  V30 4 C 1.911 0.928543 1.3348 0
M  V30 5 O 3.095 1.19667 1.45644 0
M  V30 6 C 0.222 2.43627 2.35294 0
M  V30 7 C -0.732 3.65373 2.2001 0
M  V30 8 S 0.101 5.13292 1.52614 0
M  V30 9 C 1.257 5.56322 2.86805 0
M  V30 10 H 1.49 2.90518 0.631377 0
M  V30 11 H -0.977 1.52953 0.210867 0
M  V30 12 H 0.981 2.67203 3.11629 0
M  V30 13 H -0.358 1.57376 2.7183 0
M  V30 14 H -1.165 3.90944 3.18086 0
M  V30 15 H -1.563 3.418 1.51819 0
M  V30 16 H 0.729 5.58782 3.83104 0
M  V30 17 H 1.672 6.56266 2.65933 0
M  V30 18 H 2.08 4.83886 2.90714 0
M  V30 19 N 1.4781 -0.272755 1.55222 0
M  V30 20 C 2.4411 -1.32041 1.87344 0
M  V30 21 C 3.4411 -1.42342 0.74803 0
M  V30 22 O 4.6311 -1.41488 1.0162 0
M  V30 23 C 1.7631 -2.70173 2.07893 0
M  V30 24 H 2.9561 -1.04789 2.80997 0
M  V30 25 H 0.5091 -0.51083 1.47717 0
M  V30 26 H 1.2441 -3.02605 1.16622 0
M  V30 27 H 1.0291 -2.64082 2.89833 0
M  V30 28 H 2.5191 -3.45869 2.34017 0
M  V30 29 N 2.9562 -1.48159 -0.537278 0
M  V30 30 C 3.9032 -1.62138 -1.64256 0
M  V30 31 C 4.8732 -0.463668 -1.59497 0
M  V30 32 O 6.0582 -0.686241 -1.78032 0
M  V30 33 C 3.1982 -1.66028 -3.02537 0
M  V30 34 C 2.3112 -2.92855 -3.17585 0
M  V30 35 C 1.4462 -2.87952 -4.46382 0
M  V30 36 C 0.4852 -4.09516 -4.54932 0
M  V30 37 N -0.3778 -4.02733 -5.75109 0
M  V30 38 H 4.4622 -2.56529 -1.51647 0
M  V30 39 H 1.9992 -1.27224 -0.738414 0
M  V30 40 H 3.9572 -1.66265 -3.82638 0
M  V30 41 H 2.5872 -0.751331 -3.13934 0
M  V30 42 H 1.6392 -3.02395 -2.30784 0
M  V30 43 H 2.9512 -3.82822 -3.19764 0
M  V30 44 H 2.1052 -2.8655 -5.34765 0
M  V30 45 H 0.8442 -1.95702 -4.46712 0
M  V30 46 H -0.1508 -4.11201 -3.64957 0
M  V30 47 H 1.0742 -5.02917 -4.56346 0
M  V30 48 H -0.9798 -3.13299 -5.76351 0
M  V30 49 H -1.0628 -4.86397 -5.78752 0
M  V30 50 H 0.2052 -4.05379 -6.65799 0
M  V30 51 N 4.4343 0.785586 -1.36625 0
M  V30 52 C 5.8503 1.08419 -1.17122 0
M  V30 53 C 6.0503 2.015 0.00208491 0
M  V30 54 O 5.1063 2.43551 0.666278 0
M  V30 55 C 6.4193 1.69498 -2.48377 0
M  V30 56 C 7.9673 1.81821 -2.54775 0
M  V30 57 C 8.4423 2.46315 -3.86126 0
M  V30 58 N 9.9333 2.53779 -3.87492 0
M  V30 59 C 10.6683 3.045 -4.85868 0
M  V30 60 N 10.1643 3.55499 -5.94637 0
M  V30 61 N 11.9573 3.03247 -4.73284 0
M  V30 62 H 4.1083 0.167264 -2.1174 0
M  V30 63 H 6.3713 0.13682 -0.938075 0
M  V30 64 H 6.0773 1.08571 -3.34522 0
M  V30 65 H 5.9513 2.6896 -2.64462 0
M  V30 66 H 8.3383 2.41884 -1.69045 0
M  V30 67 H 8.4193 0.811532 -2.42586 0
M  V30 68 H 8.0633 1.86895 -4.72263 0
M  V30 69 H 7.9933 3.47561 -3.95612 0
M  V30 70 H 10.4843 2.17672 -3.08913 0
M  V30 71 H 10.7973 3.92562 -6.65669 0
M  V30 72 H 9.1423 3.5364 -5.98301 0
M  V30 73 H 12.3333 2.62696 -3.87438 0
M  V30 74 H 12.5063 3.42467 -5.50109 0
M  V30 75 N 5.9124 1.20967 1.01018 0
M  V30 76 C 7.1614 1.01796 1.74128 0
M  V30 77 C 7.4744 -0.449691 1.90361 0
M  V30 78 O 8.6804 -0.76068 2.60626 0
M  V30 79 C 7.1364 1.7727 3.13215 0
M  V30 80 C 6.7444 3.28171 3.04972 0
M  V30 81 C 8.4884 1.66489 3.90489 0
M  V30 82 C 6.3954 3.96156 4.39107 0
M  V30 83 H 5.3254 0.377276 0.652824 0
M  V30 84 H 7.9764 1.44651 1.12909 0
M  V30 85 H 6.3584 1.27205 3.75013 0
M  V30 86 H 7.5324 3.85499 2.52443 0
M  V30 87 H 5.8474 3.39437 2.41188 0
M  V30 88 H 8.4444 2.14617 4.89738 0
M  V30 89 H 8.7874 0.6222 4.11624 0
M  V30 90 H 9.3204 2.14003 3.35332 0
M  V30 91 H 6.0594 5.00604 4.23174 0
M  V30 92 H 5.5794 3.43617 4.91617 0
M  V30 93 H 7.2584 4.00774 5.07926 0
M  V30 94 N 7.3905 -1.2043 1.01659 0
M  V30 95 C 8.6375 -1.89797 0.705917 0
M  V30 96 C 8.9655 -1.78848 -0.764439 0
M  V30 97 O 8.2205 -1.16694 -1.57102 0
M  V30 98 C 8.5195 -3.40464 1.08714 0
M  V30 99 C 8.1855 -3.71614 2.5537 0
M  V30 100 C 6.8475 -3.79826 2.95441 0
M  V30 101 C 9.1995 -3.85915 3.50313 0
M  V30 102 C 6.5275 -3.99797 4.29394 0
M  V30 103 C 8.8795 -4.07396 4.83954 0
M  V30 104 C 7.5435 -4.13837 5.23732 0
M  V30 105 H 6.8135 -0.694518 0.258313 0
M  V30 106 H 9.4605 -1.42691 1.27717 0
M  V30 107 H 7.7655 -3.89385 0.434309 0
M  V30 108 H 9.4625 -3.92433 0.824461 0
M  V30 109 H 6.0525 -3.65822 2.23321 0
M  V30 110 H 10.2365 -3.78926 3.20513 0
M  V30 111 H 5.4925 -4.03018 4.59768 0
M  V30 112 H 9.6665 -4.17404 5.57447 0
M  V30 113 H 7.2935 -4.29064 6.27541 0
M  V30 114 N 8.8686 -0.792821 -1.36206 0
M  V30 115 C 10.0936 -0.377701 -2.03932 0
M  V30 116 C 10.5186 0.998947 -1.59382 0
M  V30 117 O 9.8766 1.64421 -0.763903 0
M  V30 118 C 9.9246 -0.453635 -3.57735 0
M  V30 119 O 9.0286 0.538151 -4.08874 0
M  V30 120 H 8.3696 -0.159855 -0.644471 0
M  V30 121 H 10.8996 -1.07488 -1.7409 0
M  V30 122 H 10.9096 -0.318464 -4.06755 0
M  V30 123 H 9.5846 -1.45784 -3.89512 0
M  V30 124 H 8.1616 0.364359 -3.71116 0
M  V30 125 N 10.3467 1.47872 -0.545128 0
M  V30 126 C 11.5927 2.02793 -0.0166104 0
M  V30 127 C 11.9257 1.41987 1.32489 0
M  V30 128 O 11.2007 0.571045 1.85928 0
M  V30 129 C 11.4837 3.59989 0.0893294 0
M  V30 130 C 11.3367 4.3125 -1.27841 0
M  V30 131 C 12.6557 4.32606 0.808724 0
M  V30 132 H 9.7747 0.736962 -0.00751035 0
M  V30 133 H 12.4167 1.76433 -0.705085 0
M  V30 134 H 10.5667 3.82579 0.675681 0
M  V30 135 H 12.2387 4.20035 -1.90704 0
M  V30 136 H 10.4817 3.92076 -1.85632 0
M  V30 137 H 11.1527 5.39736 -1.15713 0
M  V30 138 H 13.6287 4.14936 0.310992 0
M  V30 139 H 12.5047 5.42251 0.851782 0
M  V30 140 H 12.7657 4.00963 1.86229 0
M  V30 141 N 11.8248 0.280983 1.55075 0
M  V30 142 C 13.0498 -0.340154 2.04592 0
M  V30 143 C 13.4748 -1.48246 1.15779 0
M  V30 144 O 12.8328 -1.80614 0.15761 0
M  V30 145 C 12.8808 -0.793104 3.5177 0
M  V30 146 O 11.9848 -1.89981 3.66034 0
M  V30 147 H 11.3258 -0.0694289 0.66036 0
M  V30 148 H 13.8558 0.416993 2.00306 0
M  V30 149 H 13.8658 -1.08729 3.93245 0
M  V30 150 H 12.5408 0.0426163 4.15878 0
M  V30 151 H 11.1178 -1.60771 3.36463 0
M  V30 152 N 13.3029 -1.57598 0.00835791 0
M  V30 153 C 14.5499 -1.90928 -0.674732 0
M  V30 154 C 14.8779 -0.88277 -1.73313 0
M  V30 155 O 14.1329 0.111294 -1.95383 0
M  V30 156 C 14.4319 -3.3101 -1.34787 0
M  V30 157 C 14.0979 -4.48922 -0.421861 0
M  V30 158 C 12.7599 -4.8091 -0.166927 0
M  V30 159 C 15.1119 -5.20755 0.215211 0
M  V30 160 C 12.4399 -5.821 0.733232 0
M  V30 161 C 14.7919 -6.22905 1.1033 0
M  V30 162 C 13.4559 -6.53346 1.36733 0
M  V30 163 H 12.7259 -0.698656 -0.246902 0
M  V30 164 H 15.3729 -1.91387 0.0656779 0
M  V30 165 H 13.6779 -3.26714 -2.16253 0
M  V30 166 H 15.3749 -3.54061 -1.8826 0
M  V30 167 H 11.9649 -4.23934 -0.630729 0
M  V30 168 H 16.1489 -4.9629 0.0312829 0
M  V30 169 H 11.4049 -6.04042 0.945712 0
M  V30 170 H 15.5789 -6.77694 1.60325 0
M  V30 171 H 13.2059 -7.31573 2.06652 0
M  V30 172 N 14.781 0.264519 -1.55364 0
M  V30 173 C 15.711 1.33121 -1.91836 0
M  V30 174 C 16.692 1.51101 -0.781192 0
M  V30 175 O 17.877 1.64003 -1.04003 0
M  V30 176 C 15.007 2.68921 -2.19769 0
M  V30 177 C 13.961 2.65661 -3.35571 0
M  V30 178 C 13.287 4.05093 -3.49004 0
M  V30 179 C 14.587 2.24187 -4.71739 0
M  V30 180 H 16.281 1.02844 -2.81182 0
M  V30 181 H 13.827 0.493286 -1.35287 0
M  V30 182 H 15.78 3.43663 -2.43872 0
M  V30 183 H 14.504 3.00799 -1.27231 0
M  V30 184 H 13.163 1.93377 -3.1145 0
M  V30 185 H 12.811 4.34206 -2.53917 0
M  V30 186 H 12.511 4.03804 -4.26868 0
M  V30 187 H 14.035 4.81561 -3.75408 0
M  V30 188 H 15.449 2.88654 -4.9533 0
M  V30 189 H 13.846 2.34044 -5.52579 0
M  V30 190 H 14.916 1.19327 -4.69988 0
M  V30 191 N 16.2591 1.48442 0.529413 0
M  V30 192 C 17.1891 1.65902 1.64313 0
M  V30 193 C 18.1701 0.507897 1.6234 0
M  V30 194 O 19.3551 0.740503 1.79528 0
M  V30 195 C 16.4851 1.69911 3.02898 0
M  V30 196 C 15.4391 2.8453 3.19729 0
M  V30 197 C 14.7651 2.73629 4.59381 0
M  V30 198 C 16.0651 4.25821 3.02447 0
M  V30 199 H 17.7591 2.5914 1.49955 0
M  V30 200 H 15.3051 1.24709 0.719982 0
M  V30 201 H 17.2581 1.80715 3.80684 0
M  V30 202 H 15.9821 0.732524 3.18279 0
M  V30 203 H 14.6411 2.73283 2.44361 0
M  V30 204 H 14.2891 1.74938 4.71599 0
M  V30 205 H 13.9891 3.50541 4.71588 0
M  V30 206 H 15.5131 2.86401 5.39265 0
M  V30 207 H 16.9271 4.37898 3.70024 0
M  V30 208 H 15.3241 5.03735 3.26146 0
M  V30 209 H 16.3941 4.42244 1.98867 0
M  V30 210 N 17.7372 -0.778329 1.37039 0
M  V30 211 C 18.9832 -1.53892 1.32079 0
M  V30 212 C 19.3162 -1.9396 -0.0965386 0
M  V30 213 O 18.5912 -1.63568 -1.05242 0
M  V30 214 C 18.8742 -2.80847 2.25382 0
M  V30 215 C 18.7272 -2.47076 3.75864 0
M  V30 216 C 20.0462 -3.82741 2.1725 0
M  V30 217 H 17.1652 -0.558303 0.48111 0
M  V30 218 H 19.8072 -0.893397 1.67685 0
M  V30 219 H 17.9572 -3.35931 1.95148 0
M  V30 220 H 19.6292 -1.97957 4.16666 0
M  V30 221 H 17.8722 -1.79863 3.94755 0
M  V30 222 H 18.5432 -3.37798 4.36574 0
M  V30 223 H 21.0192 -3.37133 2.43887 0
M  V30 224 H 19.8952 -4.69303 2.84686 0
M  V30 225 H 20.1562 -4.2652 1.16331 0
M  V30 226 N 19.2153 -1.21501 -1.00376 0
M  V30 227 C 20.1453 -0.999478 -2.11028 0
M  V30 228 C 21.1263 0.0759671 -1.6993 0
M  V30 229 O 22.3113 -0.0841106 -1.94018 0
M  V30 230 C 19.4413 -0.564709 -3.42678 0
M  V30 231 C 18.3953 -1.58486 -3.97576 0
M  V30 232 C 17.7213 -1.00628 -5.25146 0
M  V30 233 C 19.0213 -2.97204 -4.29496 0
M  V30 234 H 20.7153 -1.92495 -2.29317 0
M  V30 235 H 18.2613 -0.92693 -1.102 0
M  V30 236 H 20.2143 -0.401091 -4.19487 0
M  V30 237 H 18.9383 0.396411 -3.24185 0
M  V30 238 H 17.5973 -1.73606 -3.22888 0
M  V30 239 H 17.2453 -0.0368439 -5.02987 0
M  V30 240 H 16.9453 -1.68771 -5.62841 0
M  V30 241 H 18.4693 -0.854015 -6.04598 0
M  V30 242 H 19.8833 -2.8552 -4.97143 0
M  V30 243 H 18.2803 -3.62372 -4.78338 0
M  V30 244 H 19.3503 -3.47956 -3.3772 0
M  V30 245 N 20.6934 1.19889 -1.02296 0
M  V30 246 C 21.6234 2.25141 -0.619174 0
M  V30 247 C 22.6044 1.66051 0.368915 0
M  V30 248 O 23.7894 1.92546 0.252941 0
M  V30 249 C 20.9194 3.4728 0.0368783 0
M  V30 250 C 19.8734 4.19005 -0.872865 0
M  V30 251 C 19.1994 5.34637 -0.0822402 0
M  V30 252 C 20.4994 4.74452 -2.18387 0
M  V30 253 H 22.1934 2.59171 -1.49903 0
M  V30 254 H 19.7394 1.24579 -0.722222 0
M  V30 255 H 21.6924 4.20098 0.330958 0
M  V30 256 H 20.4164 3.12433 0.95149 0
M  V30 257 H 19.0754 3.48061 -1.15105 0
M  V30 258 H 18.7234 4.96034 0.83422 0
M  V30 259 H 18.4234 5.83557 -0.688149 0
M  V30 260 H 19.9474 6.10255 0.205238 0
M  V30 261 H 21.3614 5.39055 -1.95172 0
M  V30 262 H 19.7584 5.33834 -2.74119 0
M  V30 263 H 20.8284 3.92844 -2.84257 0
M  V30 264 N 22.1715 0.800033 1.35784 0
M  V30 265 C 23.1195 0.193851 2.31791 0
M  V30 266 C 24.1135 -0.652744 1.56319 0
M  V30 267 O 25.3195 -0.546641 1.71499 0
M  V30 268 H 21.6945 0.04392 0.750716 0
M  V30 269 H 23.6655 1.01883 2.80468 0
M  V30 270 C 22.4145 -0.648338 3.41602 0
M  V30 271 H 21.7375 -0.00624665 3.998 0
M  V30 272 H 23.1775 -1.03898 4.11073 0
M  V30 273 C 21.6365 -1.8111 2.84079 0
M  V30 274 O 22.1665 -2.90825 2.77099 0
M  V30 275 N 20.3725 -1.62056 2.41218 0
M  V30 276 H 19.9195 -0.728123 2.47095 0
M  V30 277 H 19.8775 -2.40013 2.03079 0
M  V30 278 N 23.6496 -1.47581 0.552962 0
M  V30 279 C 24.8956 -2.02782 0.0273648 0
M  V30 280 C 25.2286 -1.42687 -1.31734 0
M  V30 281 O 24.5036 -0.580897 -1.85623 0
M  V30 282 C 24.7866 -3.60031 -0.0702371 0
M  V30 283 C 24.6396 -4.30566 1.30126 0
M  V30 284 C 25.9586 -4.33028 -0.785771 0
M  V30 285 H 23.0776 -0.736912 0.0114185 0
M  V30 286 H 25.7196 -1.76056 0.714432 0
M  V30 287 H 23.8696 -3.82932 -0.655382 0
M  V30 288 H 25.5416 -4.19018 1.92929 0
M  V30 289 H 23.7846 -3.91086 1.87709 0
M  V30 290 H 24.4556 -5.39114 1.18573 0
M  V30 291 H 26.9316 -4.15095 -0.288982 0
M  V30 292 H 25.8076 -5.42695 -0.823013 0
M  V30 293 H 26.0686 -4.01945 -1.841 0
M  V30 294 N 25.1277 -0.289203 -1.54924 0
M  V30 295 C 26.0577 0.58549 -2.2604 0
M  V30 296 C 27.0387 1.14753 -1.25562 0
M  V30 297 O 28.2237 1.17906 -1.54311 0
M  V30 298 C 25.3537 1.76305 -2.99222 0
M  V30 299 C 24.3077 1.33191 -4.06748 0
M  V30 300 C 23.6337 2.5937 -4.6758 0
M  V30 301 C 24.9337 0.471775 -5.20165 0
M  V30 302 H 26.6277 -0.00763532 -2.99399 0
M  V30 303 H 24.1737 -0.00511229 -1.43999 0
M  V30 304 H 26.1267 2.38097 -3.47689 0
M  V30 305 H 24.8507 2.38223 -2.23422 0
M  V30 306 H 23.5097 0.737121 -3.59113 0
M  V30 307 H 23.1577 3.19576 -3.88433 0
M  V30 308 H 22.8577 2.31228 -5.40192 0
M  V30 309 H 24.3817 3.21985 -5.18804 0
M  V30 310 H 25.7957 0.995056 -5.64599 0
M  V30 311 H 24.1927 0.284639 -5.99425 0
M  V30 312 H 25.2627 -0.506041 -4.82252 0
M  V30 313 N 26.6058 1.57591 -0.0167156 0
M  V30 314 C 27.5558 2.05953 0.978137 0
M  V30 315 C 28.5398 0.957532 1.29306 0
M  V30 316 O 29.7318 1.22119 1.28125 0
M  V30 317 C 26.8608 2.58006 2.26468 0
M  V30 318 C 25.9468 3.75113 1.97867 0
M  V30 319 N 26.3378 4.86187 1.39486 0
M  V30 320 C 24.6358 3.83363 2.27924 0
M  V30 321 C 25.3368 5.67502 1.27735 0
M  V30 322 N 24.3128 5.14023 1.76866 0
M  V30 323 H 28.1148 2.89236 0.521522 0
M  V30 324 H 25.6288 1.61301 0.188596 0
M  V30 325 H 27.6258 2.90937 2.98599 0
M  V30 326 H 26.2858 1.76148 2.72767 0
M  V30 327 H 27.2968 5.06695 1.07147 0
M  V30 328 H 23.9738 3.1239 2.76982 0
M  V30 329 H 25.3638 6.66791 0.826978 0
M  V30 330 N 28.0839 -0.256276 1.55502 0
M  V30 331 C 29.3329 -0.983486 1.76098 0
M  V30 332 C 29.6459 -1.86837 0.578896 0
M  V30 333 O 30.8519 -2.63163 0.667648 0
M  V30 334 C 29.3079 -1.79868 3.1173 0
M  V30 335 C 28.9159 -0.961648 4.37557 0
M  V30 336 C 30.6599 -2.51919 3.41668 0
M  V30 337 C 28.5669 -1.77219 5.64223 0
M  V30 338 H 27.4969 -0.370936 0.656447 0
M  V30 339 H 30.1479 -0.238492 1.81944 0
M  V30 340 H 28.5299 -2.58527 2.99966 0
M  V30 341 H 29.7039 -0.218048 4.60284 0
M  V30 342 H 28.0189 -0.354913 4.14885 0
M  V30 343 H 30.6159 -3.12998 4.33516 0
M  V30 344 H 30.9589 -3.23059 2.62562 0
M  V30 345 H 31.4919 -1.80278 3.54605 0
M  V30 346 H 28.2309 -1.10471 6.46124 0
M  V30 347 H 27.7509 -2.49132 5.45613 0
M  V30 348 H 29.4299 -2.34169 6.03137 0
M  V30 349 N 29.562 -1.4872 -0.521534 0
M  V30 350 C 30.802 -1.58771 -1.28729 0
M  V30 351 C 31.166 -0.259394 -1.9024 0
M  V30 352 O 32.367 -0.234942 -2.67771 0
M  V30 353 C 30.638 -2.70039 -2.34124 0
M  V30 354 S 32.197 -2.9991 -3.20312 0
M  V30 355 H 29.015 -0.560251 -0.437767 0
M  V30 356 H 31.617 -1.86283 -0.593188 0
M  V30 357 H 30.321 -3.65101 -1.87429 0
M  V30 358 H 29.852 -2.44455 -3.08229 0
M  V30 359 H 31.867 -2.39855 -4.34378 0
M  V30 360 N 31.0401 0.771051 -1.3745 0
M  V30 361 C 32.2891 1.52491 -1.3202 0
M  V30 362 C 32.6021 1.9538 0.0927347 0
M  V30 363 O 33.8081 2.70159 0.269503 0
M  V30 364 C 32.2641 2.75366 -2.31736 0
M  V30 365 C 31.8721 2.39573 -3.78562 0
M  V30 366 C 33.6161 3.53307 -2.35318 0
M  V30 367 C 31.5231 3.58954 -4.70007 0
M  V30 368 H 30.4531 0.572506 -0.490666 0
M  V30 369 H 33.1041 0.844474 -1.62914 0
M  V30 370 H 31.4861 3.45303 -1.93861 0
M  V30 371 H 32.6601 1.77415 -4.25277 0
M  V30 372 H 30.9751 1.74805 -3.77932 0
M  V30 373 H 33.5721 4.42039 -3.00842 0
M  V30 374 H 33.9151 3.93217 -1.36698 0
M  V30 375 H 34.4481 2.90367 -2.71904 0
M  V30 376 H 31.1871 3.24125 -5.69757 0
M  V30 377 H 30.7071 4.20214 -4.27996 0
M  V30 378 H 32.3861 4.25758 -4.87175 0
M  V30 379 N 32.5182 1.22032 0.997298 0
M  V30 380 C 33.4652 0.986467 2.08656 0
M  V30 381 C 34.4352 -0.0902671 1.65855 0
M  V30 382 O 35.6202 0.0584294 1.90711 0
M  V30 383 C 32.7602 0.565569 3.40434 0
M  V30 384 C 31.8732 1.71259 3.96604 0
M  V30 385 C 31.0082 1.24011 5.16522 0
M  V30 386 C 30.0472 2.35896 5.64818 0
M  V30 387 N 29.1842 1.89726 6.7598 0
M  V30 388 H 34.0242 1.91892 2.27994 0
M  V30 389 H 31.5612 0.956199 1.11782 0
M  V30 390 H 33.5192 0.302738 4.161 0
M  V30 391 H 32.1492 -0.329879 3.2111 0
M  V30 392 H 31.2012 2.08986 3.17851 0
M  V30 393 H 32.5132 2.55436 4.28432 0
M  V30 394 H 31.6672 0.934395 5.99461 0
M  V30 395 H 30.4062 0.368487 4.86306 0
M  V30 396 H 29.4112 2.67261 4.8047 0
M  V30 397 H 30.6362 3.23567 5.97061 0
M  V30 398 H 28.5822 1.0492 6.47555 0
M  V30 399 H 28.4992 2.67471 7.07103 0
M  V30 400 H 29.7672 1.62211 7.62435 0
M  V30 401 N 33.9963 -1.19345 1.0293 0
M  V30 402 C 35.2433 -1.89038 0.726008 0
M  V30 403 C 35.5713 -1.79649 -0.745427 0
M  V30 404 O 34.8263 -1.18354 -1.55855 0
M  V30 405 C 35.1253 -3.39292 1.12319 0
M  V30 406 C 34.7913 -3.68885 2.59297 0
M  V30 407 C 33.4533 -3.76671 2.99453 0
M  V30 408 C 35.8053 -3.82178 3.54386 0
M  V30 409 C 33.1333 -3.9522 4.33611 0
M  V30 410 C 35.4853 -4.0224 4.88248 0
M  V30 411 C 34.1493 -4.08259 5.28092 0
M  V30 412 H 33.4193 -0.691739 0.265665 0
M  V30 413 H 36.0663 -1.41328 1.29223 0
M  V30 414 H 34.3713 -3.88903 0.475584 0
M  V30 415 H 36.0683 -3.91536 0.866037 0
M  V30 416 H 32.6583 -3.63433 2.27189 0
M  V30 417 H 36.8423 -3.75505 3.24514 0
M  V30 418 H 32.0983 -3.98119 4.64016 0
M  V30 419 H 36.2723 -4.11468 5.61843 0
M  V30 420 H 33.8993 -4.22384 6.32057 0
M  V30 421 N 35.4744 -0.807222 -1.35358 0
M  V30 422 C 36.6994 -0.399309 -2.0352 0
M  V30 423 C 37.1244 0.981986 -1.60433 0
M  V30 424 O 36.4824 1.63601 -0.781299 0
M  V30 425 C 36.5304 -0.491552 -3.57234 0
M  V30 426 O 35.6344 0.494754 -4.09421 0
M  V30 427 H 34.9754 -0.166682 -0.642739 0
M  V30 428 H 37.5054 -1.09328 -1.72941 0
M  V30 429 H 37.5154 -0.361588 -4.06395 0
M  V30 430 H 36.1904 -1.49907 -3.87944 0
M  V30 431 H 34.7674 0.324977 -3.71481 0
M  V30 432 N 36.9525 1.47285 -0.560781 0
M  V30 433 C 38.1985 2.02764 -0.0381184 0
M  V30 434 C 38.5315 1.43384 1.30976 0
M  V30 435 O 37.8065 0.590733 1.85312 0
M  V30 436 C 38.0895 3.60064 0.0511427 0
M  V30 437 C 37.9425 4.2987 -1.32408 0
M  V30 438 C 39.2615 4.33439 0.762795 0
M  V30 439 H 36.3805 0.736841 -0.0153264 0
M  V30 440 H 39.0225 1.75675 -0.723759 0
M  V30 441 H 37.1725 3.83274 0.635065 0
M  V30 442 H 38.8445 4.17989 -1.95148 0
M  V30 443 H 37.0875 3.90085 -1.8978 0
M  V30 444 H 37.7585 5.38478 -1.21431 0
M  V30 445 H 40.2345 4.15243 0.266965 0
M  V30 446 H 39.1105 5.43124 0.794221 0
M  V30 447 H 39.3715 4.02915 1.81966 0
M  V30 448 N 38.4306 0.297415 1.54768 0
M  V30 449 C 39.3936 -0.567375 2.22066 0
M  V30 450 C 40.3936 -1.06409 1.20556 0
M  V30 451 O 41.5836 -0.960691 1.45315 0
M  V30 452 C 38.7156 -1.78517 2.90421 0
M  V30 453 H 39.9086 0.0205534 2.99893 0
M  V30 454 H 37.4616 0.0482163 1.56226 0
M  V30 455 H 38.1966 -2.41303 2.16664 0
M  V30 456 H 37.9816 -1.43669 3.64831 0
M  V30 457 H 39.4716 -2.39964 3.41771 0
M  V30 458 N 39.9087 -1.5758 0.0250728 0
M  V30 459 C 41.1857 -1.82917 -0.692873 0
M  V30 460 C 41.5657 -0.908137 -1.90568 0
M  V30 461 O 40.9137 0.0372298 -2.2847 0
M  V30 462 C 41.1237 -3.32034 -1.07492 0
M  V30 463 C 42.4717 -3.98406 -1.46826 0
M  V30 464 O 43.4957 -3.36505 -1.16801 0
M  V30 465 O 42.3547 -5.07497 -2.02754 0
M  V30 466 H 39.4487 -0.754079 -0.33955 0
M  V30 467 H 41.9947 -1.69619 0.0524456 0
M  V30 468 H 40.7667 -3.90728 -0.211552 0
M  V30 469 H 40.3897 -3.50424 -1.87854 0
M  V30 470 N 41.3868 0.248026 -1.55636 0
M  V30 471 C 42.3168 1.31079 -1.93237 0
M  V30 472 C 43.2978 1.50264 -0.797174 0
M  V30 473 O 44.4828 1.62891 -1.05737 0
M  V30 474 C 41.6128 2.66575 -2.22609 0
M  V30 475 C 40.5668 2.62087 -3.3837 0
M  V30 476 C 39.8928 4.01369 -3.53281 0
M  V30 477 C 41.1928 2.19171 -4.7409 0
M  V30 478 H 42.8868 0.998556 -2.82257 0
M  V30 479 H 40.4328 0.47891 -1.35803 0
M  V30 480 H 42.3858 3.41057 -2.47503 0
M  V30 481 H 41.1098 2.99432 -1.30414 0
M  V30 482 H 39.7688 1.90063 -3.13483 0
M  V30 483 H 39.4168 4.31489 -2.58508 0
M  V30 484 H 39.1168 3.99254 -4.31127 0
M  V30 485 H 40.6408 4.77552 -3.80495 0
M  V30 486 H 42.0548 2.83384 -4.98363 0
M  V30 487 H 40.4518 2.2817 -5.5503 0
M  V30 488 H 41.5218 1.14336 -4.71227 0
M  V30 489 N 42.8649 1.48995 0.513639 0
M  V30 490 C 44.2759 1.5119 1.09537 0
M  V30 491 C 44.6269 0.290906 1.94031 0
M  V30 492 O 43.7519 -0.60049 2.07902 0
M  V30 493 C 44.3469 2.73964 1.99322 0
M  V30 494 C 42.9059 2.78978 2.52682 0
M  V30 495 C 42.0529 2.44934 1.30009 0
M  V30 496 H 45.0039 1.55875 0.298125 0
M  V30 497 H 45.0249 2.53409 2.83838 0
M  V30 498 H 44.5369 3.62813 1.37799 0
M  V30 499 H 42.6379 1.94378 3.1788 0
M  V30 500 H 42.7509 3.8083 2.90698 0
M  V30 501 H 41.1149 1.9644 1.62122 0
M  V30 502 H 41.8979 3.36043 0.702131 0
M  V30 503 N 44.343 -0.763751 1.37857 0
M  V30 504 C 45.571 -1.55293 1.36718 0
M  V30 505 C 45.986 -1.88745 -0.0455434 0
M  V30 506 O 45.343 -1.52039 -1.00947 0
M  V30 507 C 45.394 -2.85831 2.2132 0
M  V30 508 O 45.115 -2.5381 3.57089 0
M  V30 509 C 46.616 -3.80023 2.28249 0
M  V30 510 H 43.836 -0.480841 0.468009 0
M  V30 511 H 46.38 -0.946009 1.81303 0
M  V30 512 H 44.535 -3.42926 1.80223 0
M  V30 513 H 44.949 -3.37459 4.01524 0
M  V30 514 H 46.423 -4.68599 2.91752 0
M  V30 515 H 46.9 -4.1973 1.2932 0
M  V30 516 H 47.506 -3.28855 2.69693 0
M  V30 517 N 45.8211 -1.22559 -0.990812 0
M  V30 518 C 46.7711 -0.964807 -2.0658 0
M  V30 519 C 47.7551 0.0853472 -1.60673 0
M  V30 520 O 48.9471 -0.125443 -1.76555 0
M  V30 521 C 46.0761 -0.546707 -3.38919 0
M  V30 522 C 45.1621 -1.6317 -3.91454 0
M  V30 523 N 45.5531 -2.85985 -4.17189 0
M  V30 524 C 43.8511 -1.50387 -4.19881 0
M  V30 525 C 44.5521 -3.56159 -4.59919 0
M  V30 526 N 43.5281 -2.83637 -4.63736 0
M  V30 527 H 47.3301 -1.89769 -2.24421 0
M  V30 528 H 44.8441 -1.12343 -1.17273 0
M  V30 529 H 46.8411 -0.34119 -4.15502 0
M  V30 530 H 45.5011 0.379254 -3.22478 0
M  V30 531 H 46.5121 -3.22392 -4.05319 0
M  V30 532 H 43.1891 -0.644254 -4.12499 0
M  V30 533 H 44.5791 -4.6139 -4.88435 0
M  V30 534 N 47.2992 1.18797 -1.03562 0
M  V30 535 C 48.5452 1.8893 -0.737113 0
M  V30 536 C 48.8782 1.79837 0.732956 0
M  V30 537 O 48.1532 1.19525 1.5344 0
M  V30 538 C 48.4362 3.39607 -1.19745 0
M  V30 539 C 48.2892 3.57537 -2.72924 0
M  V30 540 C 49.6082 4.33069 -0.783526 0
M  V30 541 H 46.7272 0.686057 -0.269249 0
M  V30 542 H 49.3692 1.39797 -1.28673 0
M  V30 543 H 47.5192 3.81583 -0.729855 0
M  V30 544 H 49.1912 3.24688 -3.27682 0
M  V30 545 H 47.4342 3.00363 -3.12993 0
M  V30 546 H 48.1052 4.63238 -3.00191 0
M  V30 547 H 50.5812 3.98846 -1.18581 0
M  V30 548 H 49.4572 5.3707 -1.13343 0
M  V30 549 H 49.7182 4.40986 0.313681 0
M  V30 550 N 48.7773 0.814389 1.34928 0
M  V30 551 C 49.6873 0.231978 2.3345 0
M  V30 552 C 50.7033 -0.629139 1.62228 0
M  V30 553 O 51.8793 -0.539052 1.94052 0
M  V30 554 C 48.9443 -0.603482 3.41407 0
M  V30 555 C 48.0053 0.279037 4.28392 0
M  V30 556 C 47.2383 -0.516643 5.31193 0
M  V30 557 O 47.4613 -1.75068 5.4287 0
M  V30 558 O 46.3953 0.0965652 6.01823 0
M  V30 559 H 50.2213 1.04721 2.85074 0
M  V30 560 H 47.8063 0.576343 1.37836 0
M  V30 561 H 49.6883 -1.07908 4.0735 0
M  V30 562 H 48.3633 -1.39618 2.92042 0
M  V30 563 H 47.2703 0.801948 3.65403 0
M  V30 564 H 48.6033 1.03588 4.81176 0
M  V30 565 N 50.2554 -1.46986 0.568584 0
M  V30 566 C 51.4834 -2.0683 0.0539956 0
M  V30 567 C 51.8984 -1.41953 -1.24478 0
M  V30 568 O 51.2554 -0.519933 -1.74937 0
M  V30 569 C 51.3064 -3.61254 -0.133362 0
M  V30 570 O 51.0274 -4.237 1.11399 0
M  V30 571 C 52.5284 -4.37992 -0.683927 0
M  V30 572 H 49.7484 -0.669058 0.0510141 0
M  V30 573 H 52.2924 -1.88824 0.785234 0
M  V30 574 H 50.4474 -3.78735 -0.81477 0
M  V30 575 H 50.8614 -5.16388 0.91888 0
M  V30 576 H 52.3354 -5.46684 -0.764263 0
M  V30 577 H 52.8124 -4.05058 -1.69778 0
M  V30 578 H 53.4184 -4.25283 -0.0378494 0
M  V30 579 N 51.7335 -0.305618 -1.54608 0
M  V30 580 C 52.6805 0.568421 -2.23691 0
M  V30 581 C 53.6505 1.12592 -1.22116 0
M  V30 582 O 54.8355 1.16959 -1.50749 0
M  V30 583 C 51.9755 1.7322 -2.98477 0
M  V30 584 C 51.0885 1.20566 -4.14835 0
M  V30 585 C 50.2235 2.33368 -4.77193 0
M  V30 586 C 49.2625 1.7787 -5.85686 0
M  V30 587 N 48.3995 2.84263 -6.4198 0
M  V30 588 H 53.2395 -0.0272867 -2.97988 0
M  V30 589 H 50.7765 -0.0252363 -1.47078 0
M  V30 590 H 52.7345 2.41675 -3.40072 0
M  V30 591 H 51.3645 2.29947 -2.26548 0
M  V30 592 H 50.4165 0.413223 -3.78149 0
M  V30 593 H 51.7285 0.759417 -4.92985 0
M  V30 594 H 50.8825 3.09761 -5.21664 0
M  V30 595 H 49.6215 2.8132 -3.98385 0
M  V30 596 H 48.6265 0.99968 -5.40635 0
M  V30 597 H 49.8515 1.30816 -6.66381 0
M  V30 598 H 47.7975 3.31541 -5.66053 0
M  V30 599 H 47.7145 2.44149 -7.15491 0
M  V30 600 H 48.9825 3.6054 -6.91109 0
M  V30 601 N 53.2116 1.57565 -0.0334293 0
M  V30 602 C 54.1596 2.1164 0.96496 0
M  V30 603 C 55.1536 1.04398 1.33407 0
M  V30 604 O 56.3596 1.22828 1.3158 0
M  V30 605 H 52.7346 0.676222 0.32898 0
M  V30 606 H 54.7056 2.94455 0.483614 0
M  V30 607 C 53.4546 2.66207 2.23672 0
M  V30 608 H 52.7776 3.48378 1.96145 0
M  V30 609 H 54.2176 3.07685 2.9173 0
M  V30 610 C 52.6766 1.59151 2.96939 0
M  V30 611 O 53.2066 0.993858 3.89211 0
M  V30 612 N 51.4126 1.31093 2.59351 0
M  V30 613 H 50.9596 1.7988 1.84393 0
M  V30 614 H 50.9176 0.596889 3.08682 0
M  V30 615 N 54.6897 -0.239769 1.55765 0
M  V30 616 C 55.6197 -1.30052 1.9393 0
M  V30 617 C 56.6007 -1.49839 0.805132 0
M  V30 618 O 57.7857 -1.62328 1.06599 0
M  V30 619 C 54.9157 -2.65391 2.2402 0
M  V30 620 C 53.8697 -2.60289 3.39755 0
M  V30 621 C 53.1957 -3.99489 3.55405 0
M  V30 622 C 54.4957 -2.16654 4.75246 0
M  V30 623 H 56.1897 -0.983573 2.82783 0
M  V30 624 H 53.7357 -0.471701 1.36055 0
M  V30 625 H 55.6887 -3.3974 2.49308 0
M  V30 626 H 54.4127 -2.98736 1.32 0
M  V30 627 H 53.0717 -1.88398 3.14487 0
M  V30 628 H 52.7197 -4.30112 2.60793 0
M  V30 629 H 52.4197 -3.96962 4.33238 0
M  V30 630 H 53.9437 -4.75528 3.83022 0
M  V30 631 H 55.3577 -2.80737 4.99859 0
M  V30 632 H 53.7547 -2.25223 5.56232 0
M  V30 633 H 54.8247 -1.11835 4.71827 0
M  V30 634 N 56.1678 -1.49265 -0.50573 0
M  V30 635 C 57.0978 -1.68495 -1.61653 0
M  V30 636 C 58.0788 -0.53366 -1.61512 0
M  V30 637 O 59.2638 -0.76897 -1.78327 0
M  V30 638 C 56.3938 -1.74709 -3.00157 0
M  V30 639 C 55.3478 -2.89581 -3.15162 0
M  V30 640 C 54.6738 -2.80903 -4.5497 0
M  V30 641 C 55.9738 -4.30578 -2.95634 0
M  V30 642 H 57.6678 -2.61493 -1.45814 0
M  V30 643 H 55.2138 -1.25838 -0.70005 0
M  V30 644 H 57.1668 -1.86748 -3.77761 0
M  V30 645 H 55.8908 -0.783067 -3.17074 0
M  V30 646 H 54.5498 -2.77136 -2.39982 0
M  V30 647 H 54.1978 -1.82419 -4.68756 0
M  V30 648 H 53.8978 -3.57999 -4.65951 0
M  V30 649 H 55.4218 -2.94944 -5.34641 0
M  V30 650 H 56.8358 -4.4373 -3.63011 0
M  V30 651 H 55.2328 -5.0886 -3.18091 0
M  V30 652 H 56.3028 -4.45352 -1.91806 0
M  V30 653 N 57.6459 0.756429 -1.3826 0
M  V30 654 C 58.8939 1.51248 -1.34047 0
M  V30 655 C 59.2149 1.94875 0.0698372 0
M  V30 656 O 58.4849 1.67436 1.01696 0
M  V30 657 H 57.0649 0.561018 -0.493222 0
M  V30 658 H 59.7269 0.899347 -1.7291 0
M  V30 659 H 58.8229 2.40472 -1.98947 0
M  V30 660 N 59.124 1.23083 0.984299 0
M  V30 661 C 60.071 1.00854 2.07598 0
M  V30 662 C 61.041 -0.0726709 1.65941 0
M  V30 663 O 62.226 0.0786535 1.90638 0
M  V30 664 C 59.366 0.601645 3.39815 0
M  V30 665 C 58.479 1.75456 3.94765 0
M  V30 666 C 57.614 1.29482 5.15177 0
M  V30 667 C 56.653 2.41873 5.62284 0
M  V30 668 N 55.79 1.96885 6.73929 0
M  V30 669 H 60.63 1.943 2.25946 0
M  V30 670 H 58.167 0.968001 1.10762 0
M  V30 671 H 60.125 0.346854 4.15756 0
M  V30 672 H 58.755 -0.295803 3.21442 0
M  V30 673 H 57.807 2.12346 3.15616 0
M  V30 674 H 59.119 2.59965 4.25699 0
M  V30 675 H 58.273 0.997923 5.98437 0
M  V30 676 H 57.012 0.420046 4.85888 0
M  V30 677 H 56.017 2.72342 4.77608 0
M  V30 678 H 57.242 3.29881 5.93595 0
M  V30 679 H 55.188 1.11782 6.46406 0
M  V30 680 H 55.105 2.74956 7.04227 0
M  V30 681 H 56.373 1.70289 7.60672 0
M  V30 682 N 60.6021 -1.18246 1.0419 0
M  V30 683 C 61.8481 -1.88793 0.75689 0
M  V30 684 C 62.2031 -1.78909 -0.707767 0
M  V30 685 O 61.4961 -1.1794 -1.50999 0
M  V30 686 C 61.6901 -3.38082 1.15911 0
M  V30 687 C 61.5191 -3.62496 2.66133 0
M  V30 688 C 60.2891 -3.7979 3.33298 0
M  V30 689 C 62.4871 -3.62976 3.64353 0
M  V30 690 N 60.4691 -3.91955 4.72487 0
M  V30 691 C 61.8401 -3.80869 4.89222 0
M  V30 692 C 63.8951 -3.46071 3.57965 0
M  V30 693 C 62.5981 -3.83608 6.08471 0
M  V30 694 C 64.6241 -3.50093 4.76643 0
M  V30 695 C 63.9861 -3.68484 6.00332 0
M  V30 696 H 60.0851 -0.709406 0.32904 0
M  V30 697 H 62.6691 -1.42022 1.33183 0
M  V30 698 H 60.8401 -3.83544 0.612238 0
M  V30 699 H 62.5721 -3.96202 0.824989 0
M  V30 700 H 59.3271 -3.79224 2.83701 0
M  V30 701 H 59.7511 -4.01857 5.44831 0
M  V30 702 H 64.3931 -3.30797 2.63311 0
M  V30 703 H 62.1111 -3.97669 7.0348 0
M  V30 704 H 65.6971 -3.38285 4.73344 0
M  V30 705 H 64.5771 -3.71488 6.90627 0
M  V30 706 N 62.0802 -0.821533 -1.34494 0
M  V30 707 C 63.0272 -0.240397 -2.29545 0
M  V30 708 C 63.9972 0.634031 -1.53523 0
M  V30 709 O 65.1822 0.575966 -1.81899 0
M  V30 710 C 62.3222 0.592869 -3.39969 0
M  V30 711 C 61.4352 -0.30365 -4.30932 0
M  V30 712 C 60.5702 0.539049 -5.28458 0
M  V30 713 C 59.6092 -0.356942 -6.11058 0
M  V30 714 N 58.7462 0.446603 -7.00678 0
M  V30 715 H 63.5862 -1.05632 -2.7865 0
M  V30 716 H 61.1232 -0.532413 -1.37127 0
M  V30 717 H 63.0812 1.09129 -4.02675 0
M  V30 718 H 61.7112 1.37392 -2.92102 0
M  V30 719 H 60.7632 -0.920276 -3.691 0
M  V30 720 H 62.0752 -0.992661 -4.88823 0
M  V30 721 H 61.2292 1.102 -5.96608 0
M  V30 722 H 59.9682 1.26157 -4.71101 0
M  V30 723 H 58.9732 -0.932047 -5.41842 0
M  V30 724 H 60.1982 -1.07755 -6.70497 0
M  V30 725 H 58.1442 1.15282 -6.45791 0
M  V30 726 H 58.0612 -0.184048 -7.55776 0
M  V30 727 H 59.3292 0.992352 -7.73158 0
M  V30 728 N 63.5583 1.46682 -0.576371 0
M  V30 729 C 64.8073 2.01619 -0.0572825 0
M  V30 730 C 65.1203 1.45417 1.30818 0
M  V30 731 O 66.3263 1.92133 1.91825 0
M  V30 732 C 64.7823 3.59863 -0.0518371 0
M  V30 733 C 64.3903 4.25059 -1.41523 0
M  V30 734 C 66.1343 4.2248 0.413639 0
M  V30 735 C 64.0413 5.75364 -1.36785 0
M  V30 736 H 62.9713 0.753794 -0.0176448 0
M  V30 737 H 65.6223 1.68481 -0.727076 0
M  V30 738 H 64.0043 3.90048 0.683994 0
M  V30 739 H 65.1783 4.06491 -2.17029 0
M  V30 740 H 63.4933 3.7451 -1.8202 0
M  V30 741 H 66.0903 5.3265 0.467779 0
M  V30 742 H 66.4333 3.90976 1.42982 0
M  V30 743 H 66.9663 3.96897 -0.267929 0
M  V30 744 H 63.7053 6.11518 -2.36063 0
M  V30 745 H 63.2253 5.96214 -0.654895 0
M  V30 746 H 64.9043 6.37955 -1.07805 0
M  V30 747 N 65.0364 0.313813 1.54444 0
M  V30 748 C 65.9664 -0.549454 2.26943 0
M  V30 749 C 66.9474 -1.12741 1.27372 0
M  V30 750 O 68.1324 -1.15436 1.56167 0
M  V30 751 C 65.2624 -1.71523 3.01989 0
M  V30 752 C 64.2164 -1.26703 4.08816 0
M  V30 753 C 63.5424 -2.51898 4.71647 0
M  V30 754 C 64.8424 -0.388962 5.2085 0
M  V30 755 H 66.5364 0.0552661 2.99349 0
M  V30 756 H 64.0824 0.0280207 1.43973 0
M  V30 757 H 66.0354 -2.32535 3.51433 0
M  V30 758 H 64.7594 -2.34639 2.27183 0
M  V30 759 H 63.4184 -0.679896 3.6024 0
M  V30 760 H 63.0664 -3.13356 3.93468 0
M  V30 761 H 62.7664 -2.22605 5.43802 0
M  V30 762 H 64.2904 -3.1369 5.23861 0
M  V30 763 H 65.7044 -0.905107 5.6611 0
M  V30 764 H 64.1014 -0.18924 5.99802 0
M  V30 765 H 65.1714 0.582699 4.81386 0
M  V30 766 N 66.5145 -1.57545 0.0417849 0
M  V30 767 C 67.9305 -1.56467 -0.314704 0
M  V30 768 C 68.1305 -1.04859 -1.72066 0
M  V30 769 O 67.1865 -0.700983 -2.42575 0
M  V30 770 C 68.4995 -3.00317 -0.15174 0
M  V30 771 C 70.0475 -3.12201 -0.223553 0
M  V30 772 C 70.5225 -4.57913 -0.0892295 0
M  V30 773 N 72.0135 -4.6297 -0.145808 0
M  V30 774 C 72.7485 -5.73362 -0.0658459 0
M  V30 775 N 72.2445 -6.92769 0.0659282 0
M  V30 776 N 74.0375 -5.6197 -0.12075 0
M  V30 777 H 66.1885 -1.89416 0.961014 0
M  V30 778 H 68.4515 -0.871862 0.372237 0
M  V30 779 H 68.1575 -3.42073 0.817254 0
M  V30 780 H 68.0315 -3.65892 -0.916692 0
M  V30 781 H 70.4185 -2.70349 -1.18301 0
M  V30 782 H 70.4995 -2.49323 0.571994 0
M  V30 783 H 70.1435 -5.00448 0.866867 0
M  V30 784 H 70.0735 -5.18786 -0.903802 0
M  V30 785 H 72.5645 -3.7709 -0.247286 0
M  V30 786 H 72.8775 -7.72707 0.119905 0
M  V30 787 H 71.2225 -6.94927 0.100885 0
M  V30 788 H 74.4135 -4.67572 -0.222187 0
M  V30 789 H 74.5865 -6.47977 -0.0549735 0
M  V30 790 N 67.9926 0.231505 -1.5589 0
M  V30 791 C 69.2206 0.974505 -1.82513 0
M  V30 792 C 69.6356 1.78344 -0.619591 0
M  V30 793 O 68.9926 1.77792 0.411848 0
M  V30 794 C 69.0436 1.90007 -3.07538 0
M  V30 795 O 68.7646 1.12385 -4.2344 0
M  V30 796 C 70.2656 2.75779 -3.47075 0
M  V30 797 H 67.4856 0.286065 -0.606966 0
M  V30 798 H 70.0296 0.249739 -2.02969 0
M  V30 799 H 68.1846 2.57891 -2.89086 0
M  V30 800 H 68.5986 1.75125 -4.944 0
M  V30 801 H 70.0726 3.36443 -4.37619 0
M  V30 802 H 70.5496 3.47672 -2.68367 0
M  V30 803 H 71.1556 2.13323 -3.67931 0
M  V30 804 N 69.4707 1.49531 0.497807 0
M  V30 805 C 70.4177 1.66436 1.59899 0
M  V30 806 C 71.3877 0.505793 1.58212 0
M  V30 807 O 72.5727 0.733202 1.7615 0
M  V30 808 C 69.7127 1.7399 2.98029 0
M  V30 809 C 68.8257 3.01172 3.09708 0
M  V30 810 C 67.9607 2.99686 4.38591 0
M  V30 811 C 66.9997 4.21434 4.43914 0
M  V30 812 N 66.1367 4.1784 5.64229 0
M  V30 813 H 70.9767 2.60459 1.44793 0
M  V30 814 H 68.5137 1.29137 0.704423 0
M  V30 815 H 70.4717 1.76352 3.78095 0
M  V30 816 H 69.1017 0.834301 3.11832 0
M  V30 817 H 68.1537 3.08408 2.22685 0
M  V30 818 H 69.4657 3.91165 3.09502 0
M  V30 819 H 68.6197 3.00628 5.2698 0
M  V30 820 H 67.3587 2.07477 4.41367 0
M  V30 821 H 66.3637 4.20733 3.53926 0
M  V30 822 H 67.5887 5.14839 4.42851 0
M  V30 823 H 65.5347 3.28469 5.67841 0
M  V30 824 H 65.4517 5.01571 5.65652 0
M  V30 825 H 66.7197 4.22889 6.54817 0
M  V30 826 N 70.9488 -0.749086 1.3866 0
M  V30 827 C 72.1768 -1.53834 1.38358 0
M  V30 828 C 72.5918 -1.88783 -0.0255219 0
M  V30 829 O 71.9488 -1.53101 -0.993292 0
M  V30 830 C 71.9998 -2.83468 2.2434 0
M  V30 831 O 71.7208 -2.50008 3.5976 0
M  V30 832 C 73.2218 -3.7758 2.32267 0
M  V30 833 H 70.4418 -0.47585 0.473083 0
M  V30 834 H 72.9858 -0.926726 1.82297 0
M  V30 835 H 71.1408 -3.40995 1.83851 0
M  V30 836 H 71.5548 -3.33182 4.05081 0
M  V30 837 H 73.0288 -4.65478 2.96706 0
M  V30 838 H 73.5058 -4.18334 1.33765 0
M  V30 839 H 74.1118 -3.25976 2.73166 0
M  V30 840 N 72.4269 -1.23603 -0.977757 0
M  V30 841 C 73.6519 -1.09735 -1.75991 0
M  V30 842 C 74.0769 0.346858 -1.84874 0
M  V30 843 O 73.4349 1.25093 -1.3123 0
M  V30 844 C 73.4829 -1.73051 -3.16363 0
M  V30 845 O 72.5869 -0.994452 -4.0023 0
M  V30 846 H 71.9279 -0.384476 -0.541364 0
M  V30 847 H 74.4579 -1.6371 -1.2272 0
M  V30 848 H 74.4679 -1.78398 -3.66931 0
M  V30 849 H 73.1429 -2.78137 -3.09213 0
M  V30 850 H 71.7199 -1.01812 -3.58732 0
M  V30 851 N 73.905 1.17692 -1.04816 0
M  V30 852 C 75.316 1.69501 -0.782698 0
M  V30 853 C 75.667 1.83456 0.695577 0
M  V30 854 O 74.792 1.51942 1.54086 0
M  V30 855 C 75.387 3.07874 -1.41419 0
M  V30 856 C 73.946 3.56864 -1.19686 0
M  V30 857 C 73.093 2.3322 -1.50012 0
M  V30 858 H 76.044 1.02262 -1.2136 0
M  V30 859 H 76.065 3.71528 -0.821428 0
M  V30 860 H 75.577 2.97685 -2.49009 0
M  V30 861 H 73.678 3.72337 -0.140043 0
M  V30 862 H 73.791 4.39851 -1.89916 0
M  V30 863 H 72.155 2.37501 -0.920071 0
M  V30 864 H 72.938 2.25644 -2.58727 0
M  V30 865 N 75.3831 0.828654 1.34056 0
M  V30 866 C 76.3311 0.242973 2.31327 0
M  V30 867 C 77.3251 -0.61944 1.57668 0
M  V30 868 O 78.5311 -0.51014 1.7262 0
M  V30 869 H 74.9061 0.059834 0.749616 0
M  V30 870 H 76.8771 1.07809 2.78244 0
M  V30 871 C 75.6261 -0.575733 3.429 0
M  V30 872 H 74.9491 0.0785582 3.99723 0
M  V30 873 H 76.3891 -0.951547 4.13185 0
M  V30 874 C 74.8481 -1.75044 2.87856 0
M  V30 875 O 75.3781 -2.84882 2.83205 0
M  V30 876 N 73.5841 -1.56903 2.44602 0
M  V30 877 H 73.1311 -0.675547 2.48584 0
M  V30 878 H 73.0891 -2.35652 2.08124 0
M  V30 879 N 76.8612 -1.46375 0.584142 0
M  V30 880 C 77.7912 -2.33103 -0.136037 0
M  V30 881 C 78.7722 -1.45431 -0.882255 0
M  V30 882 O 79.9572 -1.74246 -0.857434 0
M  V30 883 C 77.0872 -3.27731 -1.14933 0
M  V30 884 C 76.0412 -4.24855 -0.517862 0
M  V30 885 C 75.3672 -5.09001 -1.63773 0
M  V30 886 C 76.6672 -5.19439 0.545886 0
M  V30 887 H 78.3612 -2.93568 0.588086 0
M  V30 888 H 75.9072 -1.41166 0.284259 0
M  V30 889 H 77.8602 -3.87261 -1.66153 0
M  V30 890 H 76.5842 -2.65377 -1.90375 0
M  V30 891 H 75.2432 -3.6659 -0.0267361 0
M  V30 892 H 74.8912 -4.43031 -2.38185 0
M  V30 893 H 74.5912 -5.74777 -1.22085 0
M  V30 894 H 76.1152 -5.71396 -2.15266 0
M  V30 895 H 77.5292 -5.73177 0.118704 0
M  V30 896 H 75.9262 -5.93566 0.88317 0
M  V30 897 H 76.9962 -4.63285 1.43162 0
M  V30 898 N 78.3393 -0.321999 -1.54275 0
M  V30 899 C 79.5673 0.283052 -2.04955 0
M  V30 900 C 79.9823 1.45904 -1.19823 0
M  V30 901 O 79.3393 1.81063 -0.228545 0
M  V30 902 C 79.3903 0.719028 -3.54277 0
M  V30 903 O 79.1113 -0.410175 -4.36176 0
M  V30 904 C 80.6123 1.38705 -4.21041 0
M  V30 905 H 77.8323 0.0584616 -0.668448 0
M  V30 906 H 80.3763 -0.467734 -1.99079 0
M  V30 907 H 78.5313 1.41979 -3.60445 0
M  V30 908 H 78.9453 -0.0669416 -5.24457 0
M  V30 909 H 80.4193 1.64306 -5.2698 0
M  V30 910 H 80.8963 2.33385 -3.72059 0
M  V30 911 H 81.5023 0.728906 -4.19007 0
M  V30 912 N 79.8174 1.5752 -0.0501392 0
M  V30 913 C 81.0454 1.96963 0.633492 0
M  V30 914 C 81.4604 0.927631 1.6444 0
M  V30 915 O 80.8174 -0.0882665 1.82286 0
M  V30 916 C 80.8684 3.36487 1.32132 0
M  V30 917 O 80.5894 4.36693 0.350894 0
M  V30 918 C 82.0904 3.90682 2.09481 0
M  V30 919 H 79.3104 0.648244 0.173266 0
M  V30 920 H 81.8544 2.0417 -0.116134 0
M  V30 921 H 80.0094 3.30434 2.02218 0
M  V30 922 H 80.4234 5.17702 0.841735 0
M  V30 923 H 81.8974 4.90591 2.5303 0
M  V30 924 H 82.3744 3.26053 2.94255 0
M  V30 925 H 82.9804 4.00069 1.44307 0
M  V30 926 N 81.2955 -0.223234 1.56011 0
M  V30 927 C 82.5355 -0.954962 1.8072 0
M  V30 928 C 82.8995 -1.81598 0.623384 0
M  V30 929 O 84.1005 -2.58132 0.749745 0
M  V30 930 C 82.3715 -1.77313 3.10314 0
M  V30 931 S 83.9305 -2.56073 3.56332 0
M  V30 932 H 80.7485 -0.320812 0.634508 0
M  V30 933 H 83.3505 -0.220686 1.9425 0
M  V30 934 H 82.0545 -1.13071 3.94516 0
M  V30 935 H 81.5855 -2.54974 2.99586 0
M  V30 936 H 83.6005 -3.79619 3.19536 0
M  V30 937 N 82.7736 -1.49793 -0.48987 0
M  V30 938 C 84.0216 -1.59525 -1.24081 0
M  V30 939 C 84.3426 -0.288953 -1.92847 0
M  V30 940 O 83.6126 0.692436 -1.83254 0
M  V30 941 H 82.1926 -0.587796 -0.460983 0
M  V30 942 H 84.8546 -1.86477 -0.566778 0
M  V30 943 H 83.9506 -2.39696 -1.99881 0
M  V30 944 N 84.2517 0.741722 -1.39055 0
M  V30 945 C 85.4767 1.53607 -1.39354 0
M  V30 946 C 85.9017 1.88096 0.0116905 0
M  V30 947 O 85.2597 1.5143 0.996924 0
M  V30 948 C 85.3077 2.80441 -2.26682 0
M  V30 949 O 84.4117 3.76088 -1.69208 0
M  V30 950 H 83.7527 0.464142 -0.474835 0
M  V30 951 H 86.2827 0.915665 -1.82967 0
M  V30 952 H 86.2927 3.29246 -2.40959 0
M  V30 953 H 84.9677 2.5467 -3.2881 0
M  V30 954 H 83.5447 3.34833 -1.64138 0
M  V30 955 N 85.7298 1.2412 0.971189 0
M  V30 956 C 86.9548 1.10667 1.75407 0
M  V30 957 C 87.3798 -0.337048 1.85056 0
M  V30 958 O 86.7378 -1.24396 1.31892 0
M  V30 959 C 86.7858 1.74726 3.15441 0
M  V30 960 O 85.8898 1.01566 3.99697 0
M  V30 961 H 85.2308 0.387341 0.539317 0
M  V30 962 H 87.7608 1.64358 1.2185 0
M  V30 963 H 87.7708 1.80341 3.6598 0
M  V30 964 H 86.4458 2.79773 3.07734 0
M  V30 965 H 85.0228 1.03713 3.58187 0
M  V30 966 N 87.2079 -1.17134 1.05439 0
M  V30 967 C 88.1399 -2.2078 0.615539 0
M  V30 968 C 89.1529 -1.59584 -0.322001 0
M  V30 969 O 90.3419 -1.78133 -0.114344 0
M  V30 970 C 87.4419 -3.38691 -0.118938 0
M  V30 971 C 86.6149 -4.29454 0.829924 0
M  V30 972 C 85.6739 -5.26024 0.136258 0
M  V30 973 O 84.6999 -5.63952 0.77115 0
M  V30 974 N 85.9019 -5.69487 -1.1254 0
M  V30 975 H 88.6669 -2.59052 1.50705 0
M  V30 976 H 86.2279 -1.32058 0.936603 0
M  V30 977 H 88.2199 -4.00329 -0.593179 0
M  V30 978 H 86.7899 -2.98996 -0.91215 0
M  V30 979 H 86.0099 -3.65211 1.48373 0
M  V30 980 H 87.2979 -4.86984 1.47392 0
M  V30 981 H 86.6959 -5.4075 -1.6615 0
M  V30 982 H 85.2529 -6.33257 -1.54366 0
M  V30 983 N 88.686 -0.835752 -1.33615 0
M  V30 984 C 90.097 -0.487099 -1.80234 0
M  V30 985 C 90.448 0.993627 -1.69179 0
M  V30 986 O 89.573 1.77403 -1.23924 0
M  V30 987 C 90.168 -0.877385 -3.27242 0
M  V30 988 C 88.727 -0.580915 -3.7189 0
M  V30 989 C 87.874 -1.0874 -2.5509 0
M  V30 990 H 90.825 -1.02474 -1.2118 0
M  V30 991 H 90.846 -0.186195 -3.80044 0
M  V30 992 H 90.358 -1.95512 -3.35256 0
M  V30 993 H 88.459 0.486881 -3.69405 0
M  V30 994 H 88.572 -1.13396 -4.65487 0
M  V30 995 H 86.936 -0.508392 -2.49575 0
M  V30 996 H 87.719 -2.17184 -2.65868 0
M  V30 997 N 90.1641 1.46063 -0.591896 0
M  V30 998 C 91.1121 2.32124 0.148739 0
M  V30 999 C 92.1061 1.45035 0.875286 0
M  V30 1000 O 93.3121 1.61609 0.792632 0
M  V30 1001 H 89.6871 0.749024 0.066832 0
M  V30 1002 H 91.6581 2.92392 -0.595783 0
M  V30 1003 C 90.4071 3.28373 1.1431 0
M  V30 1004 H 89.7301 3.95371 0.59346 0
M  V30 1005 H 91.1701 3.91352 1.63155 0
M  V30 1006 C 89.6291 2.54393 2.20875 0
M  V30 1007 O 90.1591 2.31373 3.28374 0
M  V30 1008 N 88.3651 2.14797 1.95731 0
M  V30 1009 H 87.9121 2.33719 1.08319 0
M  V30 1010 H 87.8701 1.65619 2.67241 0
M  V30 1011 N 91.6422 0.330177 1.54103 0
M  V30 1012 C 92.5892 -0.532762 2.24567 0
M  V30 1013 C 93.5592 -1.10635 1.23892 0
M  V30 1014 O 94.7442 -1.14546 1.5259 0
M  V30 1015 C 91.8842 -1.6845 3.01195 0
M  V30 1016 C 90.9972 -1.13951 4.167 0
M  V30 1017 C 90.1322 -2.25746 4.80845 0
M  V30 1018 C 89.1712 -1.6853 5.88442 0
M  V30 1019 N 88.3082 -2.74014 6.46421 0
M  V30 1020 H 93.1482 0.0746905 2.97906 0
M  V30 1021 H 90.6852 0.048632 1.4702 0
M  V30 1022 H 92.6432 -2.36234 3.43874 0
M  V30 1023 H 91.2732 -2.26314 2.30178 0
M  V30 1024 H 90.3252 -0.35301 3.78758 0
M  V30 1025 H 91.6372 -0.680892 4.94131 0
M  V30 1026 H 90.7912 -3.01422 5.26526 0
M  V30 1027 H 89.5302 -2.74947 4.0281 0
M  V30 1028 H 88.5352 -0.913543 5.42157 0
M  V30 1029 H 89.7602 -1.20198 6.68378 0
M  V30 1030 H 87.7062 -3.22494 5.71256 0
M  V30 1031 H 87.6232 -2.32735 7.19285 0
M  V30 1032 H 88.8912 -3.49499 6.96757 0
M  V30 1033 N 93.1203 -1.57491 0.0584922 0
M  V30 1034 C 94.0683 -2.13148 -0.931168 0
M  V30 1035 C 95.0623 -1.06507 -1.31729 0
M  V30 1036 O 96.2683 -1.24906 -1.29609 0
M  V30 1037 H 92.6433 -0.68137 -0.31818 0
M  V30 1038 H 94.6143 -2.95187 -0.436707 0
M  V30 1039 C 93.3633 -2.69732 -2.19408 0
M  V30 1040 H 92.6863 -3.51454 -1.90578 0
M  V30 1041 H 94.1263 -3.12287 -2.86798 0
M  V30 1042 C 92.5853 -1.63855 -2.94369 0
M  V30 1043 O 93.1153 -1.05565 -3.87581 0
M  V30 1044 N 91.3213 -1.35202 -2.57233 0
M  V30 1045 H 90.8683 -1.82791 -1.81508 0
M  V30 1046 H 90.8263 -0.645922 -3.07693 0
M  V30 1047 N 94.5984 0.214957 -1.56127 0
M  V30 1048 C 95.8264 0.955092 -1.83536 0
M  V30 1049 C 96.2414 1.77677 -0.638472 0
M  V30 1050 O 95.5984 1.78219 0.392968 0
M  V30 1051 C 95.6494 1.86734 -3.09536 0
M  V30 1052 O 95.3704 1.07887 -4.24608 0
M  V30 1053 C 96.8714 2.72082 -3.4998 0
M  V30 1054 H 94.0914 0.279611 -0.609966 0
M  V30 1055 H 96.6354 0.228197 -2.03223 0
M  V30 1056 H 94.7904 2.5481 -2.91806 0
M  V30 1057 H 95.2044 1.69872 -4.9623 0
M  V30 1058 H 96.6784 3.31782 -4.41163 0
M  V30 1059 H 97.1554 3.44806 -2.7204 0
M  V30 1060 H 97.7614 2.09409 -3.70173 0
M  V30 1061 N 96.0765 1.50051 0.48192 0
M  V30 1062 C 97.3065 1.63999 1.2565 0
M  V30 1063 C 97.7145 0.318288 1.86504 0
M  V30 1064 O 97.0575 -0.708534 1.69486 0
M  V30 1065 C 97.1195 2.66504 2.4128 0
M  V30 1066 C 96.7835 4.10352 2.01148 0
M  V30 1067 C 97.7805 4.96562 1.54021 0
M  V30 1068 C 95.4655 4.56203 2.10199 0
M  V30 1069 C 97.4595 6.26668 1.16473 0
M  V30 1070 C 95.1465 5.86318 1.72264 0
M  V30 1071 C 96.1445 6.71375 1.25477 0
M  V30 1072 O 95.8325 7.99062 0.880626 0
M  V30 1073 H 95.5645 0.55456 0.386574 0
M  V30 1074 H 98.1185 1.96954 0.582944 0
M  V30 1075 H 96.3485 2.28769 3.11772 0
M  V30 1076 H 98.0375 2.69783 3.03268 0
M  V30 1077 H 98.8035 4.62358 1.46458 0
M  V30 1078 H 94.6825 3.90152 2.45566 0
M  V30 1079 H 98.2265 6.93011 0.798841 0
M  V30 1080 H 94.1235 6.20046 1.79482 0
M  V30 1081 H 94.8915 8.12239 1.01043 0
M  V30 1082 N 97.5546 -0.734337 1.39446 0
M  V30 1083 C 98.5026 -1.86971 1.38364 0
M  V30 1084 C 99.4966 -1.67288 0.266687 0
M  V30 1085 O 100.703 -1.74621 0.436755 0
M  V30 1086 H 97.0776 -0.615474 0.432082 0
M  V30 1087 H 99.0486 -1.85 2.34132 0
M  V30 1088 C 97.7976 -3.2466 1.24465 0
M  V30 1089 H 97.1206 -3.40402 2.09682 0
M  V30 1090 H 98.5606 -4.04292 1.27764 0
M  V30 1091 C 97.0196 -3.36867 -0.0468674 0
M  V30 1092 O 97.5496 -3.88618 -1.01681 0
M  V30 1093 N 95.7556 -2.90391 -0.110145 0
M  V30 1094 H 95.3026 -2.48466 0.679868 0
M  V30 1095 H 95.2606 -2.98939 -0.973799 0
M  V30 1096 N 99.0327 -1.24633 -0.964593 0
M  V30 1097 C 100.279 -1.08949 -1.71049 0
M  V30 1098 C 100.612 0.370302 -1.90637 0
M  V30 1099 O 99.8867 1.27349 -1.47011 0
M  V30 1100 C 100.17 -1.83329 -3.0994 0
M  V30 1101 C 100.023 -3.37077 -2.97824 0
M  V30 1102 C 101.342 -1.60846 -4.09654 0
M  V30 1103 H 98.4607 -0.397178 -0.620821 0
M  V30 1104 H 101.103 -1.5334 -1.12191 0
M  V30 1105 H 99.2527 -1.45597 -3.60186 0
M  V30 1106 H 100.925 -3.84425 -2.5498 0
M  V30 1107 H 99.1677 -3.65298 -2.33965 0
M  V30 1108 H 99.8387 -3.84324 -3.96231 0
M  V30 1109 H 102.315 -1.93674 -3.68279 0
M  V30 1110 H 101.191 -2.1534 -5.04896 0
M  V30 1111 H 101.452 -0.547434 -4.38698 0
M  V30 1112 N 100.511 1.16574 -1.06058 0
M  V30 1113 C 101.759 1.86677 -0.77434 0
M  V30 1114 C 102.08 1.81959 0.701147 0
M  V30 1115 O 101.35 1.2515 1.50713 0
M  V30 1116 H 99.9298 0.691134 -0.283449 0
M  V30 1117 H 102.592 1.41378 -1.34158 0
M  V30 1118 H 101.688 2.92181 -1.09711 0
M  V30 1119 N 101.989 0.842826 1.3317 0
M  V30 1120 C 103.238 0.436738 1.96915 0
M  V30 1121 C 103.551 -1.01025 1.67491 0
M  V30 1122 O 104.757 -1.5212 2.24881 0
M  V30 1123 C 103.213 0.730021 3.52418 0
M  V30 1124 C 102.821 2.19195 3.90714 0
M  V30 1125 C 104.565 0.391076 4.22695 0
M  V30 1126 C 102.472 2.42907 5.39212 0
M  V30 1127 H 101.402 0.15958 0.736919 0
M  V30 1128 H 104.053 1.03196 1.51733 0
M  V30 1129 H 102.435 0.0643755 3.95948 0
M  V30 1130 H 103.609 2.8984 3.58231 0
M  V30 1131 H 101.924 2.49425 3.33431 0
M  V30 1132 H 104.521 0.545817 5.31907 0
M  V30 1133 H 104.864 -0.666294 4.10933 0
M  V30 1134 H 105.397 1.01212 3.84709 0
M  V30 1135 H 102.136 3.47224 5.55982 0
M  V30 1136 H 101.656 1.76827 5.73142 0
M  V30 1137 H 103.335 2.2626 6.06148 0
M  V30 1138 N 103.467 -1.45747 0.599634 0
M  V30 1139 C 104.695 -2.06668 0.0978551 0
M  V30 1140 C 105.11 -1.44562 -1.21439 0
M  V30 1141 O 104.467 -0.556923 -1.73795 0
M  V30 1142 C 104.518 -3.61456 -0.0567044 0
M  V30 1143 O 104.239 -4.21242 1.20361 0
M  V30 1144 C 105.74 -4.39345 -0.590869 0
M  V30 1145 H 102.96 -0.667825 0.0651943 0
M  V30 1146 H 105.504 -1.87115 0.82511 0
M  V30 1147 H 103.659 -3.80378 -0.734251 0
M  V30 1148 H 104.073 -5.14323 1.02821 0
M  V30 1149 H 105.547 -5.48182 -0.648131 0
M  V30 1150 H 106.024 -4.08568 -1.61147 0
M  V30 1151 H 106.63 -4.25268 0.0523679 0
M  V30 1152 N 104.945 -0.338344 -1.53925 0
M  V30 1153 C 106.222 0.314774 -1.93051 0
M  V30 1154 C 106.602 1.68669 -1.26941 0
M  V30 1155 O 105.95 2.24636 -0.418445 0
M  V30 1156 C 106.16 0.392249 -3.46789 0
M  V30 1157 C 107.508 0.645554 -4.19664 0
M  V30 1158 O 108.532 0.474575 -3.53024 0
M  V30 1159 O 107.391 0.976408 -5.37707 0
M  V30 1160 H 104.485 0.182598 -0.80659 0
M  V30 1161 H 107.031 -0.389141 -1.65178 0
M  V30 1162 H 105.803 -0.570702 -3.87116 0
M  V30 1163 H 105.426 1.14316 -3.80812 0
M  V30 1164 N 106.423 1.57458 -0.0668435 0
M  V30 1165 C 107.653 1.97337 0.611677 0
M  V30 1166 C 108.061 0.943744 1.63982 0
M  V30 1167 O 107.404 -0.0785584 1.83532 0
M  V30 1168 C 107.466 3.33511 1.34205 0
M  V30 1169 C 107.13 4.54598 0.467941 0
M  V30 1170 C 108.127 5.19186 -0.272439 0
M  V30 1171 C 105.812 5.0075 0.39427 0
M  V30 1172 C 107.806 6.28274 -1.07476 0
M  V30 1173 C 105.493 6.09711 -0.411729 0
M  V30 1174 C 106.491 6.73335 -1.14492 0
M  V30 1175 O 106.179 7.80199 -1.93763 0
M  V30 1176 H 105.911 0.654042 0.170893 0
M  V30 1177 H 108.465 2.04961 -0.134289 0
M  V30 1178 H 106.695 3.22487 2.13398 0
M  V30 1179 H 108.384 3.58029 1.91233 0
M  V30 1180 H 109.15 4.84477 -0.225086 0
M  V30 1181 H 105.029 4.51009 0.954569 0
M  V30 1182 H 108.573 6.77866 -1.64755 0
M  V30 1183 H 104.47 6.43854 -0.460664 0
M  V30 1184 H 105.238 7.97053 -1.86142 0
M  V30 1185 N 107.901 -0.206675 1.56239 0
M  V30 1186 C 108.848 -1.25617 1.93621 0
M  V30 1187 C 109.818 -1.45824 0.795274 0
M  V30 1188 O 111.003 -1.59148 1.05245 0
M  V30 1189 C 108.143 -2.59839 2.27107 0
M  V30 1190 C 107.256 -2.47308 3.54207 0
M  V30 1191 C 106.391 -3.74155 3.7707 0
M  V30 1192 C 105.43 -3.56407 4.97635 0
M  V30 1193 N 104.567 -4.75238 5.1681 0
M  V30 1194 H 109.407 -0.930383 2.83104 0
M  V30 1195 H 106.944 -0.448065 1.4011 0
M  V30 1196 H 108.902 -3.38021 2.44535 0
M  V30 1197 H 107.532 -2.90485 1.40778 0
M  V30 1198 H 106.584 -1.60483 3.4489 0
M  V30 1199 H 107.896 -2.30122 4.42544 0
M  V30 1200 H 107.05 -4.60778 3.94675 0
M  V30 1201 H 105.789 -3.94282 2.87042 0
M  V30 1202 H 104.794 -2.68168 4.79964 0
M  V30 1203 H 106.019 -3.37736 5.89161 0
M  V30 1204 H 103.965 -4.95651 4.29728 0
M  V30 1205 H 103.882 -4.60835 5.99306 0
M  V30 1206 H 105.15 -5.63246 5.38864 0
M  V30 1207 N 109.379 -1.50304 -0.473955 0
M  V30 1208 C 110.326 -1.68959 -1.57231 0
M  V30 1209 C 111.296 -0.530899 -1.57387 0
M  V30 1210 O 112.481 -0.761133 -1.74961 0
M  V30 1211 C 109.621 -1.7871 -2.95223 0
M  V30 1212 C 108.734 -3.06061 -3.04878 0
M  V30 1213 C 107.869 -3.06626 -4.33767 0
M  V30 1214 C 106.908 -4.28443 -4.37154 0
M  V30 1215 N 106.045 -4.26763 -5.5751 0
M  V30 1216 H 110.885 -2.6273 -1.40631 0
M  V30 1217 H 108.422 -1.30241 -0.683789 0
M  V30 1218 H 110.38 -1.82344 -3.75242 0
M  V30 1219 H 109.01 -0.883806 -3.10465 0
M  V30 1220 H 108.062 -3.11911 -2.17751 0
M  V30 1221 H 109.374 -3.96039 -3.0324 0
M  V30 1222 H 108.528 -3.08973 -5.22131 0
M  V30 1223 H 107.267 -2.14473 -4.3801 0
M  V30 1224 H 106.272 -4.2631 -3.47188 0
M  V30 1225 H 107.497 -5.2182 -4.34605 0
M  V30 1226 H 105.443 -3.37462 -5.62544 0
M  V30 1227 H 105.36 -5.10507 -5.57601 0
M  V30 1228 H 106.628 -4.33253 -6.48006 0
M  V30 1229 N 110.857 0.726932 -1.39834 0
M  V30 1230 C 112.087 1.51393 -1.40583 0
M  V30 1231 C 112.495 1.892 -0.000740625 0
M  V30 1232 O 111.838 1.55189 0.982951 0
M  V30 1233 C 111.9 2.82588 -2.22226 0
M  V30 1234 C 111.564 2.67169 -3.70769 0
M  V30 1235 C 112.561 2.3518 -4.63666 0
M  V30 1236 C 110.246 2.83788 -4.14451 0
M  V30 1237 C 112.24 2.20002 -5.98229 0
M  V30 1238 C 109.927 2.68229 -5.49087 0
M  V30 1239 C 110.925 2.36382 -6.4079 0
M  V30 1240 O 110.613 2.2093 -7.72946 0
M  V30 1241 H 110.345 0.474168 -0.48181 0
M  V30 1242 H 112.899 0.905247 -1.84376 0
M  V30 1243 H 111.129 3.45746 -1.73195 0
M  V30 1244 H 112.818 3.44247 -2.15055 0
M  V30 1245 H 113.584 2.21984 -4.31217 0
M  V30 1246 H 109.463 3.07566 -3.43401 0
M  V30 1247 H 113.007 1.95067 -6.69772 0
M  V30 1248 H 108.904 2.81006 -5.81125 0
M  V30 1249 H 109.672 2.35937 -7.83757 0
M  V30 1250 N 112.336 1.25143 0.95797 0
M  V30 1251 C 113.266 1.07711 2.07173 0
M  V30 1252 C 114.247 -0.0128462 1.70095 0
M  V30 1253 O 115.432 0.156061 1.93572 0
M  V30 1254 C 112.562 0.691503 3.40346 0
M  V30 1255 C 111.516 1.73132 3.9142 0
M  V30 1256 C 110.842 1.20049 5.21049 0
M  V30 1257 C 112.142 3.1294 4.1817 0
M  V30 1258 H 113.836 2.00873 2.22014 0
M  V30 1259 H 111.382 0.967191 1.06684 0
M  V30 1260 H 113.335 0.556505 4.17709 0
M  V30 1261 H 112.059 -0.275819 3.25433 0
M  V30 1262 H 110.718 1.8547 3.16222 0
M  V30 1263 H 110.366 0.223499 5.02503 0
M  V30 1264 H 110.066 1.89545 5.56189 0
M  V30 1265 H 111.59 1.07782 6.01012 0
M  V30 1266 H 113.004 3.03775 4.86203 0
M  V30 1267 H 111.401 3.79875 4.64559 0
M  V30 1268 H 112.471 3.6025 3.24573 0
M  V30 1269 N 113.814 -1.1601 1.06675 0
M  V30 1270 C 114.744 -2.22688 0.702307 0
M  V30 1271 C 115.725 -1.67306 -0.307032 0
M  V30 1272 O 116.91 -1.93352 -0.181305 0
M  V30 1273 C 114.04 -3.47178 0.092038 0
M  V30 1274 C 112.994 -4.15477 1.02777 0
M  V30 1275 C 112.32 -5.33963 0.28061 0
M  V30 1276 C 113.62 -4.66019 2.35846 0
M  V30 1277 H 115.314 -2.53429 1.59419 0
M  V30 1278 H 112.86 -1.21813 0.767961 0
M  V30 1279 H 114.813 -4.21037 -0.174814 0
M  V30 1280 H 113.537 -3.15749 -0.834877 0
M  V30 1281 H 112.196 -3.43549 1.27944 0
M  V30 1282 H 111.844 -4.98788 -0.649545 0
M  V30 1283 H 111.544 -5.806 0.904258 0
M  V30 1284 H 113.068 -6.10596 0.021396 0
M  V30 1285 H 114.482 -5.3144 2.15045 0
M  V30 1286 H 112.879 -5.23293 2.93743 0
M  V30 1287 H 113.949 -3.82023 2.98641 0
M  V30 1288 N 115.292 -0.849877 -1.32721 0
M  V30 1289 C 116.202 -0.293791 -2.32753 0
M  V30 1290 C 117.218 0.585906 -1.63839 0
M  V30 1291 O 118.394 0.487413 -1.95413 0
M  V30 1292 C 115.459 0.512752 -3.42887 0
M  V30 1293 C 114.52 -0.39252 -4.27502 0
M  V30 1294 C 113.753 0.375625 -5.32377 0
M  V30 1295 O 113.976 1.60613 -5.4732 0
M  V30 1296 O 112.91 -0.256094 -6.01355 0
M  V30 1297 H 116.736 -1.12242 -2.82197 0
M  V30 1298 H 114.321 -0.612685 -1.36259 0
M  V30 1299 H 116.203 0.970704 -4.10067 0
M  V30 1300 H 114.878 1.31826 -2.95641 0
M  V30 1301 H 113.785 -0.898547 -3.63149 0
M  V30 1302 H 115.118 -1.16309 -4.7826 0
M  V30 1303 N 116.77 1.45427 -0.607355 0
M  V30 1304 C 117.718 2.32269 0.12411 0
M  V30 1305 C 118.712 1.45955 0.859854 0
M  V30 1306 O 119.918 1.6244 0.775447 0
M  V30 1307 H 116.293 0.749691 0.0588839 0
M  V30 1308 H 118.264 2.91743 -0.626762 0
M  V30 1309 C 117.013 3.29567 1.1082 0
M  V30 1310 H 116.336 3.95978 0.551492 0
M  V30 1311 H 117.776 3.93061 1.58995 0
M  V30 1312 C 116.235 2.56722 2.18164 0
M  V30 1313 O 116.765 2.34842 3.25902 0
M  V30 1314 N 114.971 2.16861 1.93442 0
M  V30 1315 H 114.518 2.34855 1.05834 0
M  V30 1316 H 114.476 1.68444 2.65469 0
M  V30 1317 N 118.248 0.346503 1.53744 0
M  V30 1318 C 119.196 -0.52422 2.26616 0
M  V30 1319 C 120.19 -1.09948 1.28871 0
M  V30 1320 O 121.396 -1.04488 1.46568 0
M  V30 1321 H 117.771 -0.187743 0.728187 0
M  V30 1322 H 119.742 0.11239 2.98188 0
M  V30 1323 C 118.491 -1.66186 3.05414 0
M  V30 1324 H 117.814 -1.22848 3.80458 0
M  V30 1325 H 119.254 -2.24622 3.59612 0
M  V30 1326 C 117.713 -2.59302 2.1509 0
M  V30 1327 O 118.243 -3.61628 1.74895 0
M  V30 1328 N 116.449 -2.28055 1.8011 0
M  V30 1329 H 115.996 -1.44883 2.12994 0
M  V30 1330 H 115.954 -2.90615 1.19958 0
M  V30 1331 N 119.726 -1.57421 0.075193 0
M  V30 1332 C 120.956 -1.97659 -0.601203 0
M  V30 1333 C 121.364 -0.952427 -1.63479 0
M  V30 1334 O 120.707 0.0688241 -1.83571 0
M  V30 1335 C 120.769 -3.34218 -1.32434 0
M  V30 1336 C 120.433 -4.5484 -0.443826 0
M  V30 1337 C 121.43 -5.19034 0.299969 0
M  V30 1338 C 119.115 -5.00952 -0.367709 0
M  V30 1339 C 121.109 -6.27695 1.10807 0
M  V30 1340 C 118.796 -6.09484 0.444058 0
M  V30 1341 C 119.794 -6.72719 1.18061 0
M  V30 1342 O 119.482 -7.79161 1.97898 0
M  V30 1343 H 119.214 -0.65494 -0.167422 0
M  V30 1344 H 121.768 -2.04886 0.145157 0
M  V30 1345 H 119.998 -3.23615 -2.11685 0
M  V30 1346 H 121.687 -3.59038 -1.89331 0
M  V30 1347 H 122.453 -4.84351 0.250776 0
M  V30 1348 H 118.332 -4.51509 -0.930638 0
M  V30 1349 H 121.876 -6.76982 1.68347 0
M  V30 1350 H 117.773 -6.43601 0.494803 0
M  V30 1351 H 118.541 -7.96055 1.90367 0
M  V30 1352 N 121.204 0.198386 -1.56346 0
M  V30 1353 C 122.114 1.2664 -1.97483 0
M  V30 1354 C 123.13 1.49989 -0.882002 0
M  V30 1355 O 124.306 1.62668 -1.18748 0
M  V30 1356 C 121.371 2.59141 -2.30319 0
M  V30 1357 C 120.432 2.43892 -3.53292 0
M  V30 1358 C 119.665 3.70074 -3.84553 0
M  V30 1359 O 119.888 4.74101 -3.1715 0
M  V30 1360 O 118.822 3.658 -4.7799 0
M  V30 1361 H 122.648 0.947304 -2.88548 0
M  V30 1362 H 120.233 0.403123 -1.43859 0
M  V30 1363 H 122.115 3.37352 -2.5253 0
M  V30 1364 H 120.79 2.90684 -1.42423 0
M  V30 1365 H 119.697 1.63803 -3.36332 0
M  V30 1366 H 121.03 2.17282 -4.41644 0
M  V30 1367 N 122.682 1.50554 0.465978 0
M  V30 1368 C 123.929 1.61798 1.21768 0
M  V30 1369 C 124.257 0.320696 1.91838 0
M  V30 1370 O 123.512 -0.693724 1.82992 0
M  V30 1371 C 123.811 2.75152 2.28093 0
M  V30 1372 C 123.477 4.15454 1.75239 0
M  V30 1373 C 122.139 4.53628 1.60546 0
M  V30 1374 C 124.491 5.03121 1.36083 0
M  V30 1375 C 121.819 5.77204 1.05128 0
M  V30 1376 C 124.171 6.27249 0.821056 0
M  V30 1377 C 122.835 6.64221 0.660795 0
M  V30 1378 H 122.105 0.592063 0.445582 0
M  V30 1379 H 124.752 1.84503 0.512927 0
M  V30 1380 H 123.057 2.46556 3.04496 0
M  V30 1381 H 124.754 2.81055 2.86023 0
M  V30 1382 H 121.344 3.85341 1.87644 0
M  V30 1383 H 125.528 4.74257 1.46267 0
M  V30 1384 H 120.784 6.0452 0.91462 0
M  V30 1385 H 124.958 6.94537 0.509018 0
M  V30 1386 H 122.585 7.59854 0.229226 0
M  V30 1387 N 124.16 -0.719506 1.40217 0
M  V30 1388 C 125.406 -1.48152 1.38488 0
M  V30 1389 C 125.739 -1.94195 -0.0141867 0
M  V30 1390 O 125.014 -1.67884 -0.982096 0
M  V30 1391 C 125.297 -2.71035 2.37091 0
M  V30 1392 C 125.15 -2.30912 3.86005 0
M  V30 1393 C 126.469 -3.73182 2.33288 0
M  V30 1394 H 123.588 -0.537395 0.504357 0
M  V30 1395 H 126.23 -0.821472 1.71324 0
M  V30 1396 H 124.38 -3.27352 2.0922 0
M  V30 1397 H 126.052 -1.80107 4.24687 0
M  V30 1398 H 124.295 -1.62958 4.02029 0
M  V30 1399 H 124.966 -3.18978 4.50508 0
M  V30 1400 H 127.442 -3.26485 2.57966 0
M  V30 1401 H 126.318 -4.56806 3.04334 0
M  V30 1402 H 126.579 -4.21202 1.34317 0
M  V30 1403 N 125.638 -1.25649 -0.95132 0
M  V30 1404 C 126.863 -1.13443 -1.73624 0
M  V30 1405 C 127.288 0.307565 -1.85568 0
M  V30 1406 O 126.646 1.22282 -1.33854 0
M  V30 1407 C 126.694 -1.79723 -3.12621 0
M  V30 1408 O 125.798 -1.07912 -3.98031 0
M  V30 1409 H 125.139 -0.395872 -0.533086 0
M  V30 1410 H 127.669 -1.66276 -1.1922 0
M  V30 1411 H 127.679 -1.86141 -3.63064 0
M  V30 1412 H 126.354 -2.84633 -3.03244 0
M  V30 1413 H 124.931 -1.09398 -3.56492 0
M  V30 1414 N 127.117 1.15442 -1.07289 0
M  V30 1415 C 128.027 2.23786 -0.704057 0
M  V30 1416 C 129.043 1.7166 0.284413 0
M  V30 1417 O 130.219 2.00972 0.131205 0
M  V30 1418 C 127.284 3.46535 -0.106792 0
M  V30 1419 C 126.345 4.13654 -1.14842 0
M  V30 1420 C 125.578 5.30544 -0.57956 0
M  V30 1421 O 125.801 5.67187 0.604585 0
M  V30 1422 O 124.735 5.87154 -1.32414 0
M  V30 1423 H 128.561 2.57664 -1.60757 0
M  V30 1424 H 126.146 1.23152 -0.845803 0
M  V30 1425 H 128.028 4.20804 0.224048 0
M  V30 1426 H 126.703 3.14407 0.770049 0
M  V30 1427 H 125.61 3.4131 -1.5316 0
M  V30 1428 H 126.943 4.49861 -1.99714 0
M  V30 1429 N 128.595 0.856903 1.32268 0
M  V30 1430 C 129.525 0.31858 2.31316 0
M  V30 1431 C 130.506 -0.583487 1.59779 0
M  V30 1432 O 131.691 -0.503259 1.87566 0
M  V30 1433 C 128.821 -0.491979 3.43798 0
M  V30 1434 C 127.775 0.315849 4.26833 0
M  V30 1435 C 127.101 -0.619586 5.31098 0
M  V30 1436 C 128.401 1.54282 4.98993 0
M  V30 1437 H 130.095 1.14621 2.76591 0
M  V30 1438 H 127.641 0.552613 1.32974 0
M  V30 1439 H 129.594 -0.879012 4.1213 0
M  V30 1440 H 128.318 -1.35299 2.97257 0
M  V30 1441 H 126.977 0.684664 3.6015 0
M  V30 1442 H 126.625 -1.47751 4.8081 0
M  V30 1443 H 126.325 -0.0830621 5.87541 0
M  V30 1444 H 127.849 -1.00375 6.02293 0
M  V30 1445 H 129.263 1.22796 5.59995 0
M  V30 1446 H 127.66 2.01745 5.65172 0
M  V30 1447 H 128.73 2.30285 4.26728 0
M  V30 1448 N 130.073 -1.45103 0.615059 0
M  V30 1449 C 131.021 -2.32331 -0.111791 0
M  V30 1450 C 132.015 -1.46409 -0.852102 0
M  V30 1451 O 133.221 -1.62849 -0.766821 0
M  V30 1452 H 129.596 -0.749993 -0.0549072 0
M  V30 1453 H 131.567 -2.91407 0.642225 0
M  V30 1454 C 130.316 -3.3015 -1.09071 0
M  V30 1455 H 129.639 -3.96265 -0.530485 0
M  V30 1456 H 131.079 -3.93898 -1.56908 0
M  V30 1457 C 129.538 -2.57875 -2.168 0
M  V30 1458 O 130.068 -2.36567 -3.24652 0
M  V30 1459 N 128.274 -2.17884 -1.92289 0
M  V30 1460 H 127.821 -2.35413 -1.04587 0
M  V30 1461 H 127.779 -1.6985 -2.64572 0
M  V30 1462 N 131.551 -0.354651 -1.53558 0
M  V30 1463 C 132.797 0.238797 -2.01389 0
M  V30 1464 C 133.13 1.49309 -1.2418 0
M  V30 1465 O 132.405 1.91638 -0.332457 0
M  V30 1466 C 132.688 0.541771 -3.56001 0
M  V30 1467 C 132.541 -0.725388 -4.43912 0
M  V30 1468 C 133.86 1.34685 -4.18984 0
M  V30 1469 H 130.979 0.0853177 -0.732045 0
M  V30 1470 H 133.621 -0.477384 -1.83905 0
M  V30 1471 H 131.771 1.15189 -3.71031 0
M  V30 1472 H 133.443 -1.36313 -4.407 0
M  V30 1473 H 131.686 -1.34801 -4.12324 0
M  V30 1474 H 132.357 -0.468505 -5.50008 0
M  V30 1475 H 134.833 0.830837 -4.07721 0
M  V30 1476 H 133.709 1.52759 -5.27215 0
M  V30 1477 H 133.97 2.35221 -3.74331 0
M  V30 1478 N 133.029 1.57378 -0.0835403 0
M  V30 1479 C 134.278 1.93106 0.582498 0
M  V30 1480 C 134.591 0.96651 1.70053 0
M  V30 1481 O 135.797 1.21705 2.42693 0
M  V30 1482 C 134.253 3.43076 1.08751 0
M  V30 1483 C 133.861 4.48 -0.000146404 0
M  V30 1484 C 135.605 3.87785 1.72694 0
M  V30 1485 C 133.512 5.89113 0.519568 0
M  V30 1486 H 132.442 0.720775 0.221358 0
M  V30 1487 H 135.093 1.82821 -0.157675 0
M  V30 1488 H 133.475 3.48474 1.88101 0
M  V30 1489 H 134.649 4.54233 -0.775199 0
M  V30 1490 H 132.964 4.1283 -0.54406 0
M  V30 1491 H 135.561 4.90604 2.1263 0
M  V30 1492 H 135.904 3.25796 2.59158 0
M  V30 1493 H 136.437 3.8504 0.999457 0
M  V30 1494 H 133.176 6.54775 -0.308186 0
M  V30 1495 H 132.696 5.86376 1.26188 0
M  V30 1496 H 134.375 6.39346 0.992237 0
M  V30 1497 N 134.507 -0.190092 1.56449 0
M  V30 1498 C 135.437 -1.23816 1.97969 0
M  V30 1499 C 136.418 -1.47201 0.852395 0
M  V30 1500 O 137.603 -1.58854 1.1171 0
M  V30 1501 C 134.733 -2.5813 2.3235 0
M  V30 1502 C 133.687 -2.49348 3.47864 0
M  V30 1503 C 133.013 -3.8798 3.67934 0
M  V30 1504 C 134.313 -2.01424 4.81898 0
M  V30 1505 H 136.007 -0.89311 2.85769 0
M  V30 1506 H 133.553 -0.428177 1.37487 0
M  V30 1507 H 135.506 -3.31637 2.59991 0
M  V30 1508 H 134.23 -2.94386 1.41438 0
M  V30 1509 H 132.889 -1.78297 3.20321 0
M  V30 1510 H 132.537 -4.21597 2.74344 0
M  V30 1511 H 132.237 -3.82978 4.45648 0
M  V30 1512 H 133.761 -4.63101 3.97957 0
M  V30 1513 H 135.175 -2.64693 5.08538 0
M  V30 1514 H 133.572 -2.07413 5.63116 0
M  V30 1515 H 134.642 -0.967677 4.75146 0
M  V30 1516 N 135.985 -1.50799 -0.457987 0
M  V30 1517 C 137.21 -1.66496 -1.23668 0
M  V30 1518 C 137.635 -0.353288 -1.84752 0
M  V30 1519 O 136.993 0.684346 -1.67888 0
M  V30 1520 C 137.041 -2.76763 -2.3116 0
M  V30 1521 O 136.145 -2.38928 -3.36136 0
M  V30 1522 H 135.486 -0.555828 -0.363252 0
M  V30 1523 H 138.016 -1.9725 -0.543474 0
M  V30 1524 H 138.026 -3.00232 -2.76269 0
M  V30 1525 H 136.701 -3.71954 -1.86073 0
M  V30 1526 H 135.278 -2.25953 -2.96647 0
M  V30 1527 N 137.463 0.71206 -1.40597 0
M  V30 1528 C 138.74 1.46536 -1.29563 0
M  V30 1529 C 139.12 2.10931 0.0844217 0
M  V30 1530 O 138.468 2.00418 1.0975 0
M  V30 1531 C 138.678 2.49821 -2.43701 0
M  V30 1532 C 140.026 3.15551 -2.841 0
M  V30 1533 O 141.05 2.60142 -2.4332 0
M  V30 1534 O 139.909 4.15867 -3.54566 0
M  V30 1535 H 137.003 0.651801 -0.509004 0
M  V30 1536 H 139.549 0.743935 -1.52524 0
M  V30 1537 H 138.321 2.00778 -3.35863 0
M  V30 1538 H 137.944 3.29495 -2.22528 0
M  V30 1539 N 138.941 1.26152 0.944643 0
M  V30 1540 C 140.218 1.02247 1.66748 0
M  V30 1541 C 140.598 -0.448202 2.06287 0
M  V30 1542 O 139.946 -1.42779 1.78399 0
M  V30 1543 C 140.156 1.96788 2.88228 0
M  V30 1544 C 141.504 2.25201 3.59958 0
M  V30 1545 O 142.528 1.94626 2.98327 0
M  V30 1546 O 141.387 2.77242 4.70956 0
M  V30 1547 H 138.481 0.388517 0.730057 0
M  V30 1548 H 141.027 1.37348 0.99668 0
M  V30 1549 H 139.799 2.96047 2.55875 0
M  V30 1550 H 139.422 1.62145 3.63035 0
M  V30 1551 N 140.419 -1.14872 1.07899 0
M  V30 1552 C 141.649 -1.89386 0.825631 0
M  V30 1553 C 142.057 -1.78565 -0.625406 0
M  V30 1554 O 141.4 -1.13918 -1.44113 0
M  V30 1555 C 141.462 -3.40206 1.16191 0
M  V30 1556 C 141.126 -3.74812 2.61467 0
M  V30 1557 C 142.123 -3.75367 3.59716 0
M  V30 1558 C 139.808 -4.0495 2.97189 0
M  V30 1559 C 141.802 -4.05574 4.9172 0
M  V30 1560 C 139.489 -4.34821 4.29388 0
M  V30 1561 C 140.487 -4.35116 5.26463 0
M  V30 1562 O 140.175 -4.64267 6.56286 0
M  V30 1563 H 139.907 -0.606894 0.297751 0
M  V30 1564 H 142.461 -1.46438 1.44031 0
M  V30 1565 H 140.691 -3.8358 0.490214 0
M  V30 1566 H 142.38 -3.96018 0.890193 0
M  V30 1567 H 143.146 -3.52176 3.33462 0
M  V30 1568 H 139.025 -4.03876 2.22273 0
M  V30 1569 H 142.569 -4.05719 5.67484 0
M  V30 1570 H 138.466 -4.5748 4.55392 0
M  V30 1571 H 139.234 -4.82007 6.61522 0
M  V30 1572 N 141.898 -0.863906 -1.31812 0
M  V30 1573 C 143.144 -0.472535 -1.97218 0
M  V30 1574 C 143.477 0.971394 -1.68159 0
M  V30 1575 O 142.752 1.68309 -0.974798 0
M  V30 1576 C 143.035 -0.723054 -3.52766 0
M  V30 1577 C 142.888 -2.21608 -3.91421 0
M  V30 1578 C 144.207 -0.185522 -4.39709 0
M  V30 1579 H 141.326 -0.173158 -0.71637 0
M  V30 1580 H 143.968 -1.08403 -1.56041 0
M  V30 1581 H 142.118 -0.202577 -3.87971 0
M  V30 1582 H 143.79 -2.80334 -3.66347 0
M  V30 1583 H 142.033 -2.691 -3.40246 0
M  V30 1584 H 142.704 -2.34203 -4.99853 0
M  V30 1585 H 145.18 -0.630726 -4.11292 0
M  V30 1586 H 144.056 -0.390306 -5.47511 0
M  V30 1587 H 144.317 0.912229 -4.32586 0
M  V30 1588 N 143.376 1.44774 -0.622745 0
M  V30 1589 C 144.306 2.33382 0.0741861 0
M  V30 1590 C 145.287 1.47719 0.843387 0
M  V30 1591 O 146.472 1.76458 0.810934 0
M  V30 1592 C 143.602 3.30663 1.06204 0
M  V30 1593 C 142.556 4.26079 0.405037 0
M  V30 1594 C 141.882 5.13165 1.5022 0
M  V30 1595 C 143.182 5.1781 -0.683414 0
M  V30 1596 H 144.876 2.91905 -0.665713 0
M  V30 1597 H 142.422 1.40363 -0.321587 0
M  V30 1598 H 144.375 3.9153 1.55827 0
M  V30 1599 H 143.099 2.70331 1.83272 0
M  V30 1600 H 141.758 3.66532 -0.0704683 0
M  V30 1601 H 141.406 4.49191 2.26355 0
M  V30 1602 H 141.106 5.77812 1.06803 0
M  V30 1603 H 142.63 5.76902 2.00041 0
M  V30 1604 H 144.044 5.72661 -0.270631 0
M  V30 1605 H 142.441 5.91015 -1.04023 0
M  V30 1606 H 143.511 4.59326 -1.55395 0
M  V30 1607 N 144.854 0.36279 1.53368 0
M  V30 1608 C 146.084 -0.228281 2.05335 0
M  V30 1609 C 146.492 -1.43226 1.23625 0
M  V30 1610 O 145.835 -1.81717 0.269206 0
M  V30 1611 C 145.897 -0.688549 3.52845 0
M  V30 1612 C 145.561 0.398362 4.5526 0
M  V30 1613 C 146.558 1.24732 5.04716 0
M  V30 1614 C 144.243 0.557805 4.99193 0
M  V30 1615 C 146.237 2.2411 5.96702 0
M  V30 1616 C 143.924 1.55495 5.90986 0
M  V30 1617 C 144.922 2.39503 6.39631 0
M  V30 1618 O 144.61 3.37517 7.29615 0
M  V30 1619 H 144.342 -0.044395 0.674541 0
M  V30 1620 H 146.896 0.518668 1.98744 0
M  V30 1621 H 145.126 -1.48706 3.56964 0
M  V30 1622 H 146.815 -1.20231 3.87685 0
M  V30 1623 H 147.581 1.13532 4.71525 0
M  V30 1624 H 143.46 -0.0862959 4.60919 0
M  V30 1625 H 147.004 2.89718 6.34594 0
M  V30 1626 H 142.901 1.66744 6.23592 0
M  V30 1627 H 143.669 3.33213 7.47604 0
M  V30 1628 N 146.332 -1.57332 0.0918853 0
M  V30 1629 C 147.58 -1.93853 -0.571446 0
M  V30 1630 C 147.901 -0.974212 -1.6892 0
M  V30 1631 O 147.171 -0.0257254 -1.95883 0
M  V30 1632 H 145.751 -0.715666 -0.214082 0
M  V30 1633 H 148.413 -1.94287 0.154464 0
M  V30 1634 H 147.509 -2.96191 -0.983729 0
M  V30 1635 N 147.81 0.181792 -1.56548 0
M  V30 1636 C 149.087 0.926765 -1.72251 0
M  V30 1637 C 149.467 2.00831 -0.650386 0
M  V30 1638 O 148.815 2.26008 0.336521 0
M  V30 1639 C 149.025 1.50106 -3.1507 0
M  V30 1640 C 150.373 1.97805 -3.75711 0
M  V30 1641 O 151.397 1.59922 -3.18282 0
M  V30 1642 O 150.256 2.67555 -4.76525 0
M  V30 1643 H 147.35 0.435506 -0.703039 0
M  V30 1644 H 149.896 0.170443 -1.68842 0
M  V30 1645 H 148.668 0.72212 -3.84579 0
M  V30 1646 H 148.291 2.32186 -3.22763 0
M  V30 1647 N 149.288 1.51039 0.449983 0
M  V30 1648 C 150.537 1.62317 1.19733 0
M  V30 1649 C 150.85 0.339101 1.92638 0
M  V30 1650 O 152.056 0.331069 2.69474 0
M  V30 1651 C 150.512 2.86608 2.17678 0
M  V30 1652 C 150.12 4.21972 1.50479 0
M  V30 1653 C 151.864 3.07239 2.92924 0
M  V30 1654 C 149.771 5.37426 2.46834 0
M  V30 1655 H 148.701 0.604532 0.450619 0
M  V30 1656 H 151.352 1.77494 0.465625 0
M  V30 1657 H 149.734 2.65037 2.94231 0
M  V30 1658 H 150.908 4.53878 0.795716 0
M  V30 1659 H 149.223 4.07117 0.874344 0
M  V30 1660 H 151.82 3.90668 3.65079 0
M  V30 1661 H 152.163 2.19807 3.5354 0
M  V30 1662 H 152.696 3.29091 2.23481 0
M  V30 1663 H 149.435 6.27079 1.90926 0
M  V30 1664 H 148.955 5.09912 3.15832 0
M  V30 1665 H 150.634 5.68862 3.08228 0
M  V30 1666 N 150.766 -0.704594 1.40972 0
M  V30 1667 C 151.996 -1.49138 1.42974 0
M  V30 1668 C 152.404 -1.89175 0.0308406 0
M  V30 1669 O 151.747 -1.56734 -0.958138 0
M  V30 1670 C 151.809 -2.79016 2.26694 0
M  V30 1671 C 151.473 -2.61236 3.74973 0
M  V30 1672 C 152.47 -2.27773 4.67349 0
M  V30 1673 C 150.155 -2.77158 4.18914 0
M  V30 1674 C 152.149 -2.10457 6.01653 0
M  V30 1675 C 149.836 -2.59459 5.53285 0
M  V30 1676 C 150.834 -2.26158 6.4447 0
M  V30 1677 O 150.522 -2.08605 7.76363 0
M  V30 1678 H 150.254 -0.466443 0.489292 0
M  V30 1679 H 152.808 -0.8758 1.85793 0
M  V30 1680 H 151.038 -3.42947 1.78673 0
M  V30 1681 H 152.727 -3.40782 2.20504 0
M  V30 1682 H 153.493 -2.15095 4.34694 0
M  V30 1683 H 149.372 -3.02064 3.48251 0
M  V30 1684 H 152.916 -1.84387 6.72791 0
M  V30 1685 H 148.813 -2.71725 5.85522 0
M  V30 1686 H 149.581 -2.23439 7.87412 0
M  V30 1687 N 152.244 -1.26651 -0.937939 0
M  V30 1688 C 153.192 -1.08308 -2.05845 0
M  V30 1689 C 154.186 -0.0090757 -1.69398 0
M  V30 1690 O 155.392 -0.166007 -1.79233 0
M  V30 1691 H 151.767 -0.333416 -0.674046 0
M  V30 1692 H 153.738 -2.03261 -2.18467 0
M  V30 1693 C 152.487 -0.736229 -3.39816 0
M  V30 1694 H 151.81 -1.55453 -3.6834 0
M  V30 1695 H 153.25 -0.64769 -4.19024 0
M  V30 1696 C 151.709 0.558824 -3.32233 0
M  V30 1697 O 152.239 1.59621 -3.68624 0
M  V30 1698 N 150.445 0.550657 -2.85335 0
M  V30 1699 H 149.992 -0.293943 -2.55917 0
M  V30 1700 H 149.95 1.41726 -2.80644 0
M  V30 1701 N 153.722 1.14298 -1.08507 0
M  V30 1702 C 154.95 1.89219 -0.836876 0
M  V30 1703 C 155.365 1.78638 0.611054 0
M  V30 1704 O 154.722 1.14643 1.41998 0
M  V30 1705 C 154.773 3.39158 -1.25116 0
M  V30 1706 O 154.494 3.49449 -2.64229 0
M  V30 1707 C 155.995 4.31073 -1.03398 0
M  V30 1708 H 153.215 0.599328 -0.301739 0
M  V30 1709 H 155.759 1.44746 -1.44461 0
M  V30 1710 H 153.914 3.81251 -0.687514 0
M  V30 1711 H 154.328 4.42589 -2.81452 0
M  V30 1712 H 155.802 5.34646 -1.37323 0
M  V30 1713 H 156.279 4.3919 0.0289259 0
M  V30 1714 H 156.885 3.94738 -1.58311 0
M  V30 1715 N 155.201 0.870884 1.31352 0
M  V30 1716 C 156.133 0.28455 2.27427 0
M  V30 1717 C 157.146 -0.552927 1.53123 0
M  V30 1718 O 158.335 -0.374771 1.74521 0
M  V30 1719 C 155.435 -0.615164 3.3327 0
M  V30 1720 C 154.608 0.190079 4.36987 0
M  V30 1721 C 153.667 -0.637917 5.22319 0
M  V30 1722 O 152.693 -0.065626 5.69162 0
M  V30 1723 N 153.895 -1.94973 5.46778 0
M  V30 1724 H 156.66 1.11017 2.7838 0
M  V30 1725 H 154.221 0.732458 1.44384 0
M  V30 1726 H 156.213 -1.1748 3.87273 0
M  V30 1727 H 154.783 -1.34146 2.82354 0
M  V30 1728 H 154.003 0.931165 3.83044 0
M  V30 1729 H 155.291 0.742579 5.03352 0
M  V30 1730 H 154.689 -2.4378 5.10478 0
M  V30 1731 H 153.246 -2.45713 6.03712 0
M  V30 1732 N 156.679 -1.44442 0.630414 0
M  V30 1733 C 157.956 -1.9549 0.0655657 0
M  V30 1734 C 158.336 -1.5724 -1.40851 0
M  V30 1735 O 157.684 -0.846116 -2.12257 0
M  V30 1736 C 157.894 -3.47812 0.287691 0
M  V30 1737 C 159.242 -4.24216 0.180513 0
M  V30 1738 O 160.266 -3.55526 0.219019 0
M  V30 1739 O 159.125 -5.46434 0.0848493 0
M  V30 1740 H 156.219 -0.826688 -0.0227177 0
M  V30 1741 H 158.765 -1.54496 0.702068 0
M  V30 1742 H 157.537 -3.687 1.31056 0
M  V30 1743 H 157.16 -3.95751 -0.382984 0
M  V30 1744 N 158.157 -0.370918 -1.53173 0
M  V30 1745 C 159.105 0.488101 -2.27421 0
M  V30 1746 C 160.099 1.07884 -1.30604 0
M  V30 1747 O 161.305 1.02143 -1.48212 0
M  V30 1748 H 157.68 0.176134 -0.731082 0
M  V30 1749 H 159.651 -0.159815 -2.97972 0
M  V30 1750 C 158.4 1.61306 -3.08019 0
M  V30 1751 H 157.723 1.1678 -3.82364 0
M  V30 1752 H 159.163 2.18872 -3.63141 0
M  V30 1753 C 157.622 2.55848 -2.19188 0
M  V30 1754 O 158.152 3.58799 -1.80626 0
M  V30 1755 N 156.358 2.2516 -1.83715 0
M  V30 1756 H 155.905 1.41476 -2.15273 0
M  V30 1757 H 155.863 2.8867 -1.24567 0
M  V30 1758 N 159.635 1.57281 -0.100228 0
M  V30 1759 C 160.545 2.17833 0.870965 0
M  V30 1760 C 161.561 1.14921 1.30649 0
M  V30 1761 O 162.737 1.47313 1.37335 0
M  V30 1762 C 159.802 2.75085 2.1102 0
M  V30 1763 C 158.863 3.9297 1.72838 0
M  V30 1764 C 158.096 4.47482 2.90854 0
M  V30 1765 O 158.319 4.00922 4.05731 0
M  V30 1766 O 157.253 5.38433 2.69023 0
M  V30 1767 H 161.079 3.0124 0.38575 0
M  V30 1768 H 158.664 1.48881 0.124397 0
M  V30 1769 H 160.546 3.11656 2.83634 0
M  V30 1770 H 159.221 1.94721 2.58584 0
M  V30 1771 H 158.128 3.61201 0.973883 0
M  V30 1772 H 159.461 4.74713 1.30033 0
M  V30 1773 N 161.113 -0.173488 1.56642 0
M  V30 1774 C 162.063 -1.21941 1.92651 0
M  V30 1775 C 163.047 -1.39912 0.794577 0
M  V30 1776 O 164.239 -1.41919 1.05773 0
M  V30 1777 C 161.368 -2.55935 2.28806 0
M  V30 1778 C 160.454 -2.41667 3.48508 0
M  V30 1779 N 160.845 -1.9711 4.65813 0
M  V30 1780 C 159.143 -2.72499 3.53072 0
M  V30 1781 C 159.844 -1.95253 5.47952 0
M  V30 1782 N 158.82 -2.37575 4.88937 0
M  V30 1783 H 162.622 -0.866581 2.80834 0
M  V30 1784 H 160.136 -0.381776 1.57849 0
M  V30 1785 H 162.133 -3.31511 2.52797 0
M  V30 1786 H 160.793 -2.92022 1.41961 0
M  V30 1787 H 161.804 -1.67481 4.90072 0
M  V30 1788 H 158.481 -3.12639 2.767 0
M  V30 1789 H 159.871 -1.6252 6.51948 0
M  V30 1790 N 162.591 -1.51276 -0.441967 0
M  V30 1791 C 164.007 -1.39349 -0.778083 0
M  V30 1792 C 164.207 -0.472212 -1.95889 0
M  V30 1793 O 163.263 0.0743551 -2.5239 0
M  V30 1794 C 164.576 -2.81292 -1.0628 0
M  V30 1795 C 166.124 -2.9041 -1.16751 0
M  V30 1796 C 166.599 -4.33251 -1.48519 0
M  V30 1797 N 168.09 -4.36336 -1.55453 0
M  V30 1798 C 168.825 -5.43885 -1.81596 0
M  V30 1799 N 168.321 -6.61601 -2.05562 0
M  V30 1800 N 170.114 -5.3136 -1.8334 0
M  V30 1801 H 162.265 -2.09729 0.335774 0
M  V30 1802 H 164.528 -0.943925 0.0878028 0
M  V30 1803 H 164.234 -3.50678 -0.267905 0
M  V30 1804 H 164.108 -3.20334 -1.99163 0
M  V30 1805 H 166.495 -2.21225 -1.95304 0
M  V30 1806 H 166.576 -2.54871 -0.217801 0
M  V30 1807 H 166.22 -5.02984 -0.704958 0
M  V30 1808 H 166.15 -4.66299 -2.44689 0
M  V30 1809 H 168.641 -3.51466 -1.38853 0
M  V30 1810 H 168.954 -7.39361 -2.24867 0
M  V30 1811 H 167.299 -6.64725 -2.02894 0
M  V30 1812 H 170.49 -4.38382 -1.64132 0
M  V30 1813 H 170.663 -6.15258 -2.03377 0
M  V30 1814 N 164.069 0.697108 -1.41344 0
M  V30 1815 C 165.294 1.49096 -1.44171 0
M  V30 1816 C 165.719 1.88038 -0.0481568 0
M  V30 1817 O 165.077 1.54525 0.948243 0
M  V30 1818 C 165.125 2.73088 -2.3549 0
M  V30 1819 O 164.229 3.70514 -1.81088 0
M  V30 1820 H 163.57 0.448801 -0.489361 0
M  V30 1821 H 166.1 0.856992 -1.85787 0
M  V30 1822 H 166.11 3.21413 -2.51312 0
M  V30 1823 H 164.785 2.44081 -3.36745 0
M  V30 1824 H 163.362 3.29441 -1.74708 0
M  V30 1825 N 165.547 1.27147 0.931209 0
M  V30 1826 C 166.494 1.09568 2.03134 0
M  V30 1827 C 167.464 -0.00222433 1.661 0
M  V30 1828 O 168.649 0.159439 1.90133 0
M  V30 1829 C 165.789 0.745231 3.36957 0
M  V30 1830 C 164.902 1.92041 3.86968 0
M  V30 1831 C 164.037 1.51216 5.09222 0
M  V30 1832 C 163.076 2.65504 5.5152 0
M  V30 1833 N 162.213 2.25291 6.64972 0
M  V30 1834 H 167.053 2.03708 2.17502 0
M  V30 1835 H 164.59 1.01411 1.06556 0
M  V30 1836 H 166.548 0.522878 4.1391 0
M  V30 1837 H 165.178 -0.159202 3.22407 0
M  V30 1838 H 164.23 2.25541 3.06326 0
M  V30 1839 H 165.542 2.77787 4.1429 0
M  V30 1840 H 164.696 1.25084 5.93666 0
M  V30 1841 H 163.435 0.625749 4.83669 0
M  V30 1842 H 162.44 2.92354 4.65628 0
M  V30 1843 H 163.665 3.54761 5.7907 0
M  V30 1844 H 161.611 1.39098 6.41083 0
M  V30 1845 H 161.528 3.04577 6.91931 0
M  V30 1846 H 162.796 2.02398 7.52765 0
M  V30 1847 N 167.025 -1.13721 1.09112 0
M  V30 1848 C 168.271 -1.85413 0.836283 0
M  V30 1849 C 168.626 -1.8175 -0.631249 0
M  V30 1850 O 167.919 -1.24238 -1.45861 0
M  V30 1851 C 168.113 -3.32861 1.30146 0
M  V30 1852 C 167.942 -3.50882 2.81268 0
M  V30 1853 C 166.712 -3.65312 3.49106 0
M  V30 1854 C 168.91 -3.47196 3.7942 0
M  V30 1855 N 166.892 -3.71563 4.88686 0
M  V30 1856 C 168.263 -3.59777 5.04936 0
M  V30 1857 C 170.318 -3.30577 3.72321 0
M  V30 1858 C 169.021 -3.57455 6.24194 0
M  V30 1859 C 171.047 -3.29562 4.91063 0
M  V30 1860 C 170.409 -3.42691 6.15421 0
M  V30 1861 H 166.508 -0.694812 0.358832 0
M  V30 1862 H 169.092 -1.36246 1.39087 0
M  V30 1863 H 167.263 -3.80602 0.774361 0
M  V30 1864 H 168.995 -3.92346 0.99229 0
M  V30 1865 H 165.75 -3.6685 2.9953 0
M  V30 1866 H 166.174 -3.78387 5.61384 0
M  V30 1867 H 170.816 -3.19332 2.77105 0
M  V30 1868 H 168.534 -3.67475 7.19714 0
M  V30 1869 H 172.12 -3.17905 4.87266 0
M  V30 1870 H 171 -3.41862 7.05762 0
M  V30 1871 N 168.503 -0.877838 -1.30888 0
M  V30 1872 C 169.45 -0.337538 -2.28318 0
M  V30 1873 C 170.42 0.568346 -1.56074 0
M  V30 1874 O 171.605 0.498298 -1.84178 0
M  V30 1875 C 168.745 0.448142 -3.42178 0
M  V30 1876 C 167.858 -0.48615 -4.29256 0
M  V30 1877 C 166.993 0.314427 -5.30269 0
M  V30 1878 C 166.032 -0.615791 -6.08995 0
M  V30 1879 N 165.169 0.14902 -7.01942 0
M  V30 1880 H 170.009 -1.17356 -2.73919 0
M  V30 1881 H 167.546 -0.590094 -1.34745 0
M  V30 1882 H 169.504 0.919517 -4.06941 0
M  V30 1883 H 168.134 1.24879 -2.97666 0
M  V30 1884 H 167.186 -1.076 -3.64865 0
M  V30 1885 H 168.498 -1.19909 -4.84173 0
M  V30 1886 H 167.652 0.847969 -6.00745 0
M  V30 1887 H 166.391 1.06062 -4.76027 0
M  V30 1888 H 165.396 -1.16102 -5.37401 0
M  V30 1889 H 166.621 -1.36097 -6.65323 0
M  V30 1890 H 164.567 0.877884 -6.50099 0
M  V30 1891 H 164.484 -0.504433 -7.54315 0
M  V30 1892 H 165.752 0.663537 -7.76671 0
M  V30 1893 N 169.982 1.44106 -0.638065 0
M  V30 1894 C 171.228 2.02277 -0.145546 0
M  V30 1895 C 171.561 1.50125 1.23191 0
M  V30 1896 O 170.836 0.688133 1.8192 0
M  V30 1897 C 171.119 3.59829 -0.139791 0
M  V30 1898 C 170.972 4.22247 -1.55008 0
M  V30 1899 C 172.291 4.36873 0.531966 0
M  V30 1900 H 169.41 0.734992 -0.0543632 0
M  V30 1901 H 172.052 1.71592 -0.815863 0
M  V30 1902 H 170.202 3.86102 0.431007 0
M  V30 1903 H 171.874 4.07057 -2.1703 0
M  V30 1904 H 170.117 3.79476 -2.10191 0
M  V30 1905 H 170.788 5.31284 -1.49804 0
M  V30 1906 H 173.264 4.16074 0.0464781 0
M  V30 1907 H 172.14 5.4657 0.505206 0
M  V30 1908 H 172.401 4.11995 1.60352 0
M  V30 1909 N 171.46 0.379036 1.52974 0
M  V30 1910 C 172.39 -0.452706 2.29069 0
M  V30 1911 C 173.371 -1.07237 1.32039 0
M  V30 1912 O 174.556 -1.08708 1.60923 0
M  V30 1913 C 171.686 -1.5856 3.08992 0
M  V30 1914 C 170.64 -1.0925 4.13822 0
M  V30 1915 C 169.966 -2.31668 4.81907 0
M  V30 1916 C 171.266 -0.167702 5.22031 0
M  V30 1917 H 172.96 0.182181 2.98845 0
M  V30 1918 H 170.506 0.0890592 1.43724 0
M  V30 1919 H 172.459 -2.1742 3.6098 0
M  V30 1920 H 171.183 -2.24792 2.36931 0
M  V30 1921 H 169.842 -0.526494 3.628 0
M  V30 1922 H 169.49 -2.96386 4.06404 0
M  V30 1923 H 169.19 -1.9934 5.52754 0
M  V30 1924 H 170.714 -2.91189 5.36695 0
M  V30 1925 H 172.128 -0.664186 5.6944 0
M  V30 1926 H 170.525 0.0653265 6.00064 0
M  V30 1927 H 171.595 0.786347 4.78482 0
M  V30 1928 N 172.938 -1.57226 0.108567 0
M  V30 1929 C 173.901 -2.13602 -0.831082 0
M  V30 1930 C 174.901 -1.06841 -1.20173 0
M  V30 1931 O 176.091 -1.32666 -1.12895 0
M  V30 1932 C 173.223 -2.66769 -2.12243 0
M  V30 1933 H 174.416 -2.97951 -0.341317 0
M  V30 1934 H 171.969 -1.55667 -0.14057 0
M  V30 1935 H 172.704 -1.85977 -2.65675 0
M  V30 1936 H 172.489 -3.44839 -1.86625 0
M  V30 1937 H 173.979 -3.10332 -2.79435 0
M  V30 1938 N 174.416 0.165178 -1.56732 0
M  V30 1939 C 175.662 0.882112 -1.82611 0
M  V30 1940 C 175.995 1.81628 -0.687378 0
M  V30 1941 O 175.27 1.92009 0.310267 0
M  V30 1942 C 175.553 1.67245 -3.18906 0
M  V30 1943 C 175.406 0.760987 -4.43316 0
M  V30 1944 C 176.725 2.63884 -3.52212 0
M  V30 1945 H 173.844 0.319242 -0.664269 0
M  V30 1946 H 176.486 0.148052 -1.89422 0
M  V30 1947 H 174.636 2.29824 -3.1323 0
M  V30 1948 H 176.308 0.147596 -4.61064 0
M  V30 1949 H 174.551 0.0694102 -4.33744 0
M  V30 1950 H 175.222 1.34962 -5.35247 0
M  V30 1951 H 177.698 2.11429 -3.58381 0
M  V30 1952 H 176.574 3.16245 -4.48643 0
M  V30 1953 H 176.835 3.44377 -2.77231 0
M  V30 1954 N 175.894 1.51508 0.433938 0
M  V30 1955 C 177.124 1.67914 1.20369 0
M  V30 1956 C 177.532 0.377461 1.85397 0
M  V30 1957 O 176.875 -0.654255 1.71654 0
M  V30 1958 C 176.937 2.74045 2.32679 0
M  V30 1959 C 176.601 4.16543 1.87991 0
M  V30 1960 C 177.598 5.01211 1.38145 0
M  V30 1961 C 175.283 4.6266 1.95579 0
M  V30 1962 C 177.277 6.30056 0.964774 0
M  V30 1963 C 174.964 5.91501 1.53523 0
M  V30 1964 C 175.962 6.75027 1.04055 0
M  V30 1965 O 175.65 8.01459 0.625964 0
M  V30 1966 H 175.382 0.566578 0.368735 0
M  V30 1967 H 177.936 1.98709 0.51999 0
M  V30 1968 H 176.166 2.38572 3.04336 0
M  V30 1969 H 177.855 2.79295 2.94532 0
M  V30 1970 H 178.621 4.66783 1.31675 0
M  V30 1971 H 174.5 3.97767 2.33029 0
M  V30 1972 H 178.044 6.95202 0.57796 0
M  V30 1973 H 173.941 6.25442 1.59665 0
M  V30 1974 H 174.709 8.15043 0.751509 0
M  V30 1975 N 177.372 -0.689602 1.41712 0
M  V30 1976 C 178.649 -1.44457 1.31877 0
M  V30 1977 C 179.029 -2.11039 -0.0508537 0
M  V30 1978 O 178.377 -2.02138 -1.06547 0
M  V30 1979 C 178.587 -2.45913 2.47645 0
M  V30 1980 C 179.935 -3.10991 2.89084 0
M  V30 1981 O 180.959 -2.56238 2.47428 0
M  V30 1982 O 179.818 -4.10174 3.61137 0
M  V30 1983 H 176.912 -0.64362 0.519309 0
M  V30 1984 H 179.458 -0.719576 1.53689 0
M  V30 1985 H 178.23 -1.95409 3.39015 0
M  V30 1986 H 177.853 -3.25913 2.27742 0
M  V30 1987 N 178.85 -1.27639 -0.924453 0
M  V30 1988 C 179.76 -1.12466 -2.05885 0
M  V30 1989 C 180.776 -0.053869 -1.73917 0
M  V30 1990 O 181.952 -0.261012 -1.99702 0
M  V30 1991 C 179.017 -0.776768 -3.37886 0
M  V30 1992 C 178.078 -1.92878 -3.83532 0
M  V30 1993 C 177.311 -1.59739 -5.09234 0
M  V30 1994 O 177.534 -0.506782 -5.68144 0
M  V30 1995 O 176.468 -2.43761 -5.50331 0
M  V30 1996 H 180.294 -2.07671 -2.21599 0
M  V30 1997 H 177.879 -1.06857 -1.04413 0
M  V30 1998 H 179.761 -0.596229 -4.17161 0
M  V30 1999 H 178.436 0.145732 -3.23372 0
M  V30 2000 H 177.343 -2.1644 -3.0513 0
M  V30 2001 H 178.676 -2.8316 -4.02593 0
M  V30 2002 N 180.328 1.1314 -1.09713 0
M  V30 2003 C 181.276 2.20717 -0.733934 0
M  V30 2004 C 182.27 1.6729 0.266506 0
M  V30 2005 O 183.476 1.79547 0.127656 0
M  V30 2006 H 179.851 0.719292 -0.21937 0
M  V30 2007 H 181.822 2.48611 -1.6503 0
M  V30 2008 C 180.571 3.47265 -0.173849 0
M  V30 2009 H 179.894 3.88716 -0.934873 0
M  V30 2010 H 181.334 4.23979 0.0423126 0
M  V30 2011 C 179.793 3.18724 1.09164 0
M  V30 2012 O 180.323 3.37762 2.17439 0
M  V30 2013 N 178.529 2.72583 1.00732 0
M  V30 2014 H 178.076 2.57291 0.126121 0
M  V30 2015 H 178.034 2.53862 1.85476 0
M  V30 2016 N 181.806 0.884767 1.30421 0
M  V30 2017 C 182.753 0.349642 2.28136 0
M  V30 2018 C 183.723 -0.560061 1.56373 0
M  V30 2019 O 184.908 -0.488524 1.8444 0
M  V30 2020 C 182.048 -0.42999 3.42411 0
M  V30 2021 C 181.161 0.508907 4.28992 0
M  V30 2022 C 180.296 -0.286301 5.30428 0
M  V30 2023 C 179.335 0.648079 6.08659 0
M  V30 2024 N 178.472 -0.111792 7.02011 0
M  V30 2025 H 183.312 1.18807 2.73293 0
M  V30 2026 H 180.849 0.597231 1.3443 0
M  V30 2027 H 182.807 -0.897923 4.07423 0
M  V30 2028 H 181.437 -1.23299 2.98324 0
M  V30 2029 H 180.489 1.09533 3.64289 0
M  V30 2030 H 181.801 1.22475 4.8353 0
M  V30 2031 H 180.955 -0.816098 6.01186 0
M  V30 2032 H 179.694 -1.03536 4.76583 0
M  V30 2033 H 178.699 1.18951 5.36778 0
M  V30 2034 H 179.924 1.39623 6.64592 0
M  V30 2035 H 177.87 -0.843395 6.50556 0
M  V30 2036 H 177.787 0.544429 7.54037 0
M  V30 2037 H 179.055 -0.622339 7.77012 0
M  V30 2038 N 183.284 -1.43765 0.645699 0
M  V30 2039 C 184.7 -1.56509 0.312591 0
M  V30 2040 C 184.9 -1.6307 -1.18365 0
M  V30 2041 O 183.956 -1.58167 -1.96824 0
M  V30 2042 C 185.269 -2.82968 1.01733 0
M  V30 2043 C 186.817 -2.96701 0.996865 0
M  V30 2044 C 187.292 -4.25982 1.68236 0
M  V30 2045 N 188.783 -4.32829 1.64964 0
M  V30 2046 C 189.518 -5.31613 2.14885 0
M  V30 2047 N 189.014 -6.36718 2.73061 0
M  V30 2048 N 190.807 -5.23217 2.05428 0
M  V30 2049 H 182.958 -1.3775 1.61675 0
M  V30 2050 H 185.221 -0.661067 0.679481 0
M  V30 2051 H 184.927 -2.84156 2.0724 0
M  V30 2052 H 184.801 -3.72957 0.564177 0
M  V30 2053 H 187.188 -2.95058 -0.0497719 0
M  V30 2054 H 187.269 -2.08022 1.48865 0
M  V30 2055 H 186.913 -4.28386 2.72852 0
M  V30 2056 H 186.843 -5.13545 1.16529 0
M  V30 2057 H 189.334 -3.57493 1.22503 0
M  V30 2058 H 189.647 -7.08401 3.08848 0
M  V30 2059 H 187.992 -6.37362 2.77118 0
M  V30 2060 H 191.183 -4.40019 1.59689 0
M  V30 2061 H 191.356 -6.00045 2.44643 0
M  V30 2062 N 184.763 -0.387143 -1.52771 0
M  V30 2063 C 186.009 0.196025 -2.0185 0
M  V30 2064 C 186.342 1.46641 -1.27319 0
M  V30 2065 O 185.617 1.90889 -0.373032 0
M  V30 2066 C 185.9 0.466136 -3.5707 0
M  V30 2067 C 185.753 -0.819385 -4.42274 0
M  V30 2068 C 187.072 1.25768 -4.21747 0
M  V30 2069 H 184.191 0.0697708 -0.73369 0
M  V30 2070 H 186.833 -0.516286 -1.82851 0
M  V30 2071 H 184.983 1.07293 -3.7339 0
M  V30 2072 H 186.655 -1.4563 -4.37709 0
M  V30 2073 H 184.898 -1.43517 -4.09372 0
M  V30 2074 H 185.569 -0.585065 -5.48891 0
M  V30 2075 H 188.045 0.744167 -4.09391 0
M  V30 2076 H 186.921 1.41541 -5.30337 0
M  V30 2077 H 187.182 2.27228 -3.79236 0
M  V30 2078 N 186.241 1.57166 -0.116904 0
M  V30 2079 C 187.49 1.94298 0.541407 0
M  V30 2080 C 187.803 1.00236 1.67964 0
M  V30 2081 O 189.009 1.26826 2.40057 0
M  V30 2082 C 187.465 3.45306 1.01449 0
M  V30 2083 C 187.073 4.47899 -0.0951738 0
M  V30 2084 C 188.817 3.91361 1.6443 0
M  V30 2085 C 186.724 5.90083 0.394491 0
M  V30 2086 H 185.654 0.725308 0.206019 0
M  V30 2087 H 188.305 1.82446 -0.196419 0
M  V30 2088 H 186.687 3.52385 1.80667 0
M  V30 2089 H 187.861 4.52486 -0.871374 0
M  V30 2090 H 186.176 4.11583 -0.631505 0
M  V30 2091 H 188.773 4.95004 2.02176 0
M  V30 2092 H 189.116 3.3122 2.52189 0
M  V30 2093 H 189.649 3.87073 0.917559 0
M  V30 2094 H 186.388 6.53974 -0.447004 0
M  V30 2095 H 185.908 5.88921 1.13722 0
M  V30 2096 H 187.587 6.41307 0.856399 0
M  V30 2097 N 187.719 -0.156864 1.56817 0
M  V30 2098 C 188.967 -0.869404 1.82444 0
M  V30 2099 C 189.288 -1.82147 0.69623 0
M  V30 2100 O 188.558 -1.93847 -0.28287 0
M  V30 2101 H 187.138 -0.324043 0.673056 0
M  V30 2102 H 189.8 -0.153224 1.94297 0
M  V30 2103 H 188.896 -1.43761 2.77019 0
M  V30 2104 N 189.197 -1.51736 -0.425897 0
M  V30 2105 C 190.425 -1.68794 -1.1965 0
M  V30 2106 C 190.84 -0.390164 -1.84725 0
M  V30 2107 O 190.197 0.632376 -1.71194 0
M  V30 2108 C 190.248 -2.81174 -2.27208 0
M  V30 2109 O 189.969 -4.05925 -1.64793 0
M  V30 2110 C 191.47 -3.09599 -3.17275 0
M  V30 2111 H 188.69 -0.566128 -0.360194 0
M  V30 2112 H 191.234 -1.98211 -0.503249 0
M  V30 2113 H 189.389 -2.54324 -2.9223 0
M  V30 2114 H 189.803 -4.68423 -2.35967 0
M  V30 2115 H 191.277 -3.91786 -3.88854 0
M  V30 2116 H 191.754 -2.22468 -3.78688 0
M  V30 2117 H 192.36 -3.38151 -2.57941 0
M  V30 2118 N 190.675 0.682077 -1.42076 0
M  V30 2119 C 191.921 1.44283 -1.43366 0
M  V30 2120 C 192.276 1.92344 -0.0465775 0
M  V30 2121 O 191.569 1.67517 0.929973 0
M  V30 2122 C 191.763 2.66036 -2.38662 0
M  V30 2123 C 191.592 2.29889 -3.86499 0
M  V30 2124 C 190.362 2.19599 -4.55087 0
M  V30 2125 C 192.56 1.91999 -4.77117 0
M  V30 2126 N 190.542 1.76478 -5.87987 0
M  V30 2127 C 191.913 1.59741 -5.99068 0
M  V30 2128 C 193.968 1.78927 -4.64639 0
M  V30 2129 C 192.671 1.15723 -7.0993 0
M  V30 2130 C 194.697 1.36314 -5.75476 0
M  V30 2131 C 194.059 1.04975 -6.96534 0
M  V30 2132 H 190.158 0.524739 -0.579805 0
M  V30 2133 H 192.742 0.787834 -1.78048 0
M  V30 2134 H 190.913 3.29237 -2.06053 0
M  V30 2135 H 192.645 3.32588 -2.30581 0
M  V30 2136 H 189.4 2.38433 -4.09202 0
M  V30 2137 H 189.824 1.57362 -6.58458 0
M  V30 2138 H 194.466 2.01805 -3.7153 0
M  V30 2139 H 192.184 0.91591 -8.02893 0
M  V30 2140 H 195.77 1.26731 -5.6783 0
M  V30 2141 H 194.65 0.725017 -7.80841 0
M  V30 2142 N 192.153 1.28127 0.917671 0
M  V30 2143 C 193.381 1.17892 1.70026 0
M  V30 2144 C 193.796 -0.262958 1.8696 0
M  V30 2145 O 193.153 -1.17811 1.3938 0
M  V30 2146 C 193.204 1.86872 3.09453 0
M  V30 2147 O 192.925 3.25428 2.93306 0
M  V30 2148 C 194.426 1.8289 4.03815 0
M  V30 2149 H 191.646 0.40942 0.531617 0
M  V30 2150 H 194.19 1.69181 1.14883 0
M  V30 2151 H 192.345 1.39464 3.61426 0
M  V30 2152 H 192.759 3.59918 3.81523 0
M  V30 2153 H 194.233 2.35751 4.99125 0
M  V30 2154 H 194.71 0.800412 4.31845 0
M  V30 2155 H 195.316 2.29959 3.57769 0
M  V30 2156 N 193.631 -1.12557 1.10312 0
M  V30 2157 C 194.859 -1.87864 0.866873 0
M  V30 2158 C 195.274 -1.79588 -0.582557 0
M  V30 2159 O 194.631 -1.16887 -1.40156 0
M  V30 2160 C 194.682 -3.37125 1.30496 0
M  V30 2161 O 194.403 -3.45201 2.69755 0
M  V30 2162 C 195.904 -4.29373 1.10243 0
M  V30 2163 H 193.124 -0.594452 0.311236 0
M  V30 2164 H 195.668 -1.42429 1.46745 0
M  V30 2165 H 193.823 -3.80109 0.748081 0
M  V30 2166 H 194.237 -4.38056 2.88457 0
M  V30 2167 H 195.711 -5.32394 1.45811 0
M  V30 2168 H 196.188 -4.39181 0.0409492 0
M  V30 2169 H 196.794 -3.92169 1.64571 0
M  V30 2170 N 195.109 -0.891671 -1.2995 0
M  V30 2171 C 196.358 -0.509521 -1.95158 0
M  V30 2172 C 196.671 0.947388 -1.71125 0
M  V30 2173 O 197.877 1.43669 -2.30372 0
M  V30 2174 C 196.333 -0.860315 -3.49466 0
M  V30 2175 C 195.941 -2.33545 -3.8231 0
M  V30 2176 C 197.685 -0.547687 -4.20952 0
M  V30 2177 C 195.592 -2.62752 -5.29826 0
M  V30 2178 H 194.522 -0.18682 -0.730489 0
M  V30 2179 H 197.173 -1.08756 -1.47798 0
M  V30 2180 H 195.555 -0.211285 -3.95436 0
M  V30 2181 H 196.729 -3.02936 -3.47227 0
M  V30 2182 H 195.044 -2.61629 -3.23944 0
M  V30 2183 H 197.641 -0.742854 -5.29515 0
M  V30 2184 H 197.984 0.51332 -4.13123 0
M  V30 2185 H 198.517 -1.1542 -3.80688 0
M  V30 2186 H 195.256 -3.6762 -5.42712 0
M  V30 2187 H 194.776 -1.97977 -5.66185 0
M  V30 2188 H 196.455 -2.48601 -5.97333 0
M  V30 2189 N 196.587 1.43421 -0.653314 0
M  V30 2190 C 197.827 2.03689 -0.170346 0
M  V30 2191 C 198.191 1.50427 1.19314 0
M  V30 2192 O 199.392 2.0234 1.76952 0
M  V30 2193 C 197.663 3.56946 -0.180183 0
M  V30 2194 S 199.222 4.38171 0.234925 0
M  V30 2195 H 196.04 0.707345 -0.0719976 0
M  V30 2196 H 198.642 1.75486 -0.86167 0
M  V30 2197 H 197.346 3.93212 -1.17526 0
M  V30 2198 H 196.877 3.89791 0.531675 0
M  V30 2199 H 198.892 4.73808 1.47378 0
M  V30 2200 N 198.065 0.39524 1.52563 0
M  V30 2201 C 199.342 -0.242908 1.94086 0
M  V30 2202 C 199.722 -1.63841 1.33114 0
M  V30 2203 O 199.07 -2.22928 0.501529 0
M  V30 2204 C 199.28 -0.26327 3.48006 0
M  V30 2205 C 200.628 -0.489354 4.21771 0
M  V30 2206 O 201.652 -0.343226 3.54543 0
M  V30 2207 O 200.511 -0.776169 5.4096 0
M  V30 2208 H 197.605 -0.152536 0.812811 0
M  V30 2209 H 200.151 0.450178 1.6362 0
M  V30 2210 H 198.923 0.713985 3.84731 0
M  V30 2211 H 198.546 -1.00103 3.84792 0
M  V30 2212 N 199.544 -1.57102 0.125237 0
M  V30 2213 C 200.454 -2.19191 -0.8362 0
M  V30 2214 C 201.47 -1.16985 -1.28805 0
M  V30 2215 O 202.646 -1.49479 -1.34974 0
M  V30 2216 C 199.711 -2.78407 -2.06617 0
M  V30 2217 C 198.772 -3.9567 -1.66565 0
M  V30 2218 C 198.005 -4.52052 -2.83698 0
M  V30 2219 O 198.228 -4.07326 -3.99302 0
M  V30 2220 O 197.162 -5.42645 -2.60423 0
M  V30 2221 H 200.988 -3.01816 -0.337776 0
M  V30 2222 H 198.573 -1.4906 -0.100695 0
M  V30 2223 H 200.455 -3.16129 -2.7864 0
M  V30 2224 H 199.13 -1.9881 -2.55453 0
M  V30 2225 H 198.037 -3.62705 -0.916296 0
M  V30 2226 H 199.37 -4.76722 -1.22464 0
M  V30 2227 N 201.022 0.148545 -1.56898 0
M  V30 2228 C 202.27 0.859717 -1.82902 0
M  V30 2229 C 202.591 1.81775 -0.70588 0
M  V30 2230 O 201.861 1.93994 0.272586 0
M  V30 2231 H 200.441 0.320469 -0.674766 0
M  V30 2232 H 203.103 0.142918 -1.94375 0
M  V30 2233 H 202.199 1.4229 -2.77777 0
M  V30 2234 N 202.5 1.5196 0.417844 0
M  V30 2235 C 203.747 1.65591 1.16559 0
M  V30 2236 C 204.075 0.381565 1.90721 0
M  V30 2237 O 203.33 -0.635156 1.85106 0
M  V30 2238 C 203.629 2.82269 2.19223 0
M  V30 2239 C 203.295 4.20819 1.61933 0
M  V30 2240 C 201.957 4.58506 1.46033 0
M  V30 2241 C 204.309 5.07196 1.20008 0
M  V30 2242 C 201.637 5.80257 0.867113 0
M  V30 2243 C 203.989 6.29544 0.621086 0
M  V30 2244 C 202.653 6.65987 0.449144 0
M  V30 2245 H 201.923 0.605939 0.42652 0
M  V30 2246 H 204.57 1.86041 0.45397 0
M  V30 2247 H 202.875 2.56118 2.96498 0
M  V30 2248 H 204.572 2.90012 2.76936 0
M  V30 2249 H 201.162 3.91116 1.7529 0
M  V30 2250 H 205.346 4.7867 1.31105 0
M  V30 2251 H 200.602 6.07124 0.721833 0
M  V30 2252 H 204.776 6.95805 0.287798 0
M  V30 2253 H 202.403 7.60199 -0.012632 0
M  V30 2254 N 203.978 -0.674533 1.42435 0
M  V30 2255 C 204.888 -1.81751 1.48337 0
M  V30 2256 C 205.904 -1.69975 0.372099 0
M  V30 2257 O 207.08 -1.91521 0.62304 0
M  V30 2258 C 204.145 -3.17895 1.38361 0
M  V30 2259 C 203.206 -3.41625 2.59982 0
M  V30 2260 C 202.439 -4.71274 2.50473 0
M  V30 2261 O 202.662 -5.49197 1.54075 0
M  V30 2262 O 201.596 -4.96254 3.4061 0
M  V30 2263 H 205.422 -1.79728 2.44809 0
M  V30 2264 H 203.007 -0.830312 1.24202 0
M  V30 2265 H 204.889 -3.99136 1.35161 0
M  V30 2266 H 203.564 -3.20555 0.450144 0
M  V30 2267 H 202.471 -2.60231 2.68757 0
M  V30 2268 H 203.804 -3.43796 3.52229 0
M  V30 2269 N 205.456 -1.28612 -0.910864 0
M  V30 2270 C 206.705 -1.15311 -1.65488 0
M  V30 2271 C 207.018 0.296999 -1.93332 0
M  V30 2272 O 208.224 0.551168 -2.65847 0
M  V30 2273 C 206.68 -2.01599 -2.98137 0
M  V30 2274 C 206.288 -3.51367 -2.7793 0
M  V30 2275 C 208.032 -1.96993 -3.76024 0
M  V30 2276 C 205.939 -4.29797 -4.06237 0
M  V30 2277 H 204.869 -0.42796 -0.620779 0
M  V30 2278 H 207.52 -1.53166 -1.01057 0
M  V30 2279 H 205.902 -1.56603 -3.63719 0
M  V30 2280 H 207.076 -4.0434 -2.21011 0
M  V30 2281 H 205.391 -3.57529 -2.13452 0
M  V30 2282 H 207.988 -2.52856 -4.71135 0
M  V30 2283 H 208.331 -0.94733 -4.05378 0
M  V30 2284 H 208.864 -2.39973 -3.17266 0
M  V30 2285 H 205.603 -5.32648 -3.82055 0
M  V30 2286 H 205.123 -3.81596 -4.62757 0
M  V30 2287 H 206.802 -4.39869 -4.74473 0
M  V30 2288 N 206.934 1.1197 -1.10907 0
M  V30 2289 C 207.881 2.17846 -0.762345 0
M  V30 2290 C 208.851 1.63995 0.263599 0
M  V30 2291 O 210.036 1.90273 0.141773 0
M  V30 2292 C 207.176 3.44487 -0.205651 0
M  V30 2293 C 206.289 4.12369 -1.28748 0
M  V30 2294 C 205.424 5.26674 -0.691919 0
M  V30 2295 C 204.463 5.86431 -1.75399 0
M  V30 2296 N 203.6 6.92142 -1.17833 0
M  V30 2297 H 208.44 2.46851 -1.6694 0
M  V30 2298 H 205.977 1.21188 -0.833776 0
M  V30 2299 H 207.935 4.16981 0.135037 0
M  V30 2300 H 206.565 3.15884 0.664613 0
M  V30 2301 H 205.617 3.38003 -1.74522 0
M  V30 2302 H 206.929 4.52844 -2.09125 0
M  V30 2303 H 206.083 6.05953 -0.300963 0
M  V30 2304 H 204.822 4.8749 0.143232 0
M  V30 2305 H 203.827 5.05835 -2.15432 0
M  V30 2306 H 205.052 6.27685 -2.59208 0
M  V30 2307 H 202.998 6.54985 -0.364725 0
M  V30 2308 H 202.915 7.31242 -1.91887 0
M  V30 2309 H 204.183 7.75237 -0.81408 0
M  V30 2310 N 208.412 0.89855 1.29475 0
M  V30 2311 C 209.661 0.519863 1.94885 0
M  V30 2312 C 209.974 -0.9383 1.71625 0
M  V30 2313 O 211.18 -1.42445 2.31131 0
M  V30 2314 C 209.636 0.878836 3.49005 0
M  V30 2315 C 209.244 2.35569 3.81066 0
M  V30 2316 C 210.988 0.570004 4.20656 0
M  V30 2317 C 208.895 2.65558 5.28425 0
M  V30 2318 H 207.825 0.190692 0.729488 0
M  V30 2319 H 210.476 1.09539 1.47219 0
M  V30 2320 H 208.858 0.232253 3.95318 0
M  V30 2321 H 210.032 3.04773 3.45616 0
M  V30 2322 H 208.347 2.63343 3.22552 0
M  V30 2323 H 210.944 0.770925 5.29113 0
M  V30 2324 H 211.287 -0.491404 4.1339 0
M  V30 2325 H 211.82 1.17438 3.8007 0
M  V30 2326 H 208.559 3.70493 5.40754 0
M  V30 2327 H 208.079 2.00977 5.65127 0
M  V30 2328 H 209.758 2.51765 5.96006 0
M  V30 2329 N 209.89 -1.43072 0.660911 0
M  V30 2330 C 211.138 -2.01323 0.177094 0
M  V30 2331 C 211.459 -1.5245 -1.2159 0
M  V30 2332 O 210.729 -0.740322 -1.81373 0
M  V30 2333 H 209.309 -0.744382 0.0624804 0
M  V30 2334 H 211.971 -1.75179 0.854305 0
M  V30 2335 H 211.067 -3.11649 0.167641 0
M  V30 2336 N 211.368 -0.403325 -1.52352 0
M  V30 2337 C 212.316 0.439752 -2.28405 0
M  V30 2338 C 213.31 1.05089 -1.32863 0
M  V30 2339 O 214.516 0.989759 -1.50345 0
M  V30 2340 H 210.891 0.160587 -0.734653 0
M  V30 2341 H 212.862 -0.222983 -2.97566 0
M  V30 2342 C 211.611 1.54736 -3.11371 0
M  V30 2343 H 210.934 1.08643 -3.84755 0
M  V30 2344 H 212.374 2.1112 -3.67701 0
M  V30 2345 C 210.833 2.51141 -2.24566 0
M  V30 2346 O 211.363 3.54887 -1.88196 0
M  V30 2347 N 209.569 2.21213 -1.8845 0
M  V30 2348 H 209.116 1.36878 -2.18225 0
M  V30 2349 H 209.074 2.85963 -1.30662 0
M  V30 2350 N 212.846 1.57033 -0.133567 0
M  V30 2351 C 213.756 2.19632 0.824564 0
M  V30 2352 C 214.772 1.17666 1.28182 0
M  V30 2353 O 215.948 1.50193 1.3418 0
M  V30 2354 C 213.013 2.79499 2.05137 0
M  V30 2355 C 212.074 3.96548 1.64464 0
M  V30 2356 C 211.307 4.5355 2.81297 0
M  V30 2357 O 211.53 4.09438 3.97136 0
M  V30 2358 O 210.464 5.44018 2.57542 0
M  V30 2359 H 214.29 3.01991 0.321766 0
M  V30 2360 H 211.875 1.49112 0.0927889 0
M  V30 2361 H 213.757 3.17602 2.7696 0
M  V30 2362 H 212.432 2.00162 2.54395 0
M  V30 2363 H 211.339 3.63186 0.897048 0
M  V30 2364 H 212.672 4.77364 1.19934 0
M  V30 2365 N 214.325 -0.140222 1.56975 0
M  V30 2366 C 215.553 -0.866437 1.87884 0
M  V30 2367 C 215.968 -1.74428 0.722517 0
M  V30 2368 O 215.325 -1.79891 -0.30749 0
M  V30 2369 C 215.376 -1.71753 3.18093 0
M  V30 2370 O 215.097 -0.875056 4.29272 0
M  V30 2371 C 216.598 -2.55074 3.62563 0
M  V30 2372 H 213.818 -0.25019 0.622612 0
M  V30 2373 H 216.362 -0.130977 2.0408 0
M  V30 2374 H 214.517 -2.40598 3.03631 0
M  V30 2375 H 214.931 -1.46002 5.03769 0
M  V30 2376 H 216.405 -3.10356 4.5649 0
M  V30 2377 H 216.882 -3.31434 2.88181 0
M  V30 2378 H 217.488 -1.91509 3.79743 0
M  V30 2379 N 215.803 -1.52179 -0.40978 0
M  V30 2380 C 217.033 -1.69807 -1.17682 0
M  V30 2381 C 217.441 -0.406908 -1.84773 0
M  V30 2382 O 216.784 0.626863 -1.72673 0
M  V30 2383 C 216.846 -2.77712 -2.2829 0
M  V30 2384 C 216.51 -4.19481 -1.81341 0
M  V30 2385 C 217.507 -5.03345 -1.30154 0
M  V30 2386 C 215.192 -4.65713 -1.88194 0
M  V30 2387 C 217.186 -6.31511 -0.864416 0
M  V30 2388 C 214.873 -5.93869 -1.44093 0
M  V30 2389 C 215.871 -6.76597 -0.933023 0
M  V30 2390 O 215.559 -8.02354 -0.49838 0
M  V30 2391 H 215.291 -0.572372 -0.359675 0
M  V30 2392 H 217.845 -1.99511 -0.488311 0
M  V30 2393 H 216.075 -2.43383 -3.00502 0
M  V30 2394 H 217.764 -2.83946 -2.90051 0
M  V30 2395 H 218.53 -4.68819 -1.24232 0
M  V30 2396 H 214.409 -4.01424 -2.26671 0
M  V30 2397 H 217.953 -6.96033 -0.467286 0
M  V30 2398 H 213.85 -6.27903 -1.49694 0
M  V30 2399 H 214.618 -8.16135 -0.621747 0
M  V30 2400 N 217.281 0.66697 -1.42791 0
M  V30 2401 C 218.244 1.76211 -1.46568 0
M  V30 2402 C 219.244 1.56896 -0.352196 0
M  V30 2403 O 220.434 1.63044 -0.613364 0
M  V30 2404 C 217.566 3.14935 -1.30494 0
M  V30 2405 H 218.759 1.74247 -2.44086 0
M  V30 2406 H 216.312 0.877342 -1.29354 0
M  V30 2407 H 217.047 3.2252 -0.339301 0
M  V30 2408 H 216.832 3.30359 -2.11199 0
M  V30 2409 H 218.322 3.94821 -1.36038 0
M  V30 2410 N 218.759 1.29093 0.90403 0
M  V30 2411 C 219.722 1.1386 1.98919 0
M  V30 2412 C 220.722 0.0753457 1.60623 0
M  V30 2413 O 221.912 0.321931 1.71199 0
M  V30 2414 C 219.044 0.740198 3.32767 0
M  V30 2415 H 220.237 2.10246 2.13861 0
M  V30 2416 H 217.79 1.12218 1.08797 0
M  V30 2417 H 218.525 -0.223997 3.23525 0
M  V30 2418 H 218.31 1.50838 3.61926 0
M  V30 2419 H 219.8 0.656546 4.12407 0
M  V30 2420 N 220.237 -1.11381 1.11499 0
M  V30 2421 C 221.167 -2.19509 0.796125 0
M  V30 2422 C 222.148 -1.68458 -0.235796 0
M  V30 2423 O 223.333 -1.93947 -0.0991344 0
M  V30 2424 C 220.463 -3.46475 0.239205 0
M  V30 2425 C 219.417 -4.10744 1.20307 0
M  V30 2426 C 218.743 -5.32293 0.50683 0
M  V30 2427 C 220.043 -4.55597 2.55399 0
M  V30 2428 H 221.737 -2.46439 1.70024 0
M  V30 2429 H 219.283 -1.18446 0.818935 0
M  V30 2430 H 221.236 -4.214 0.00392006 0
M  V30 2431 H 219.96 -3.19006 -0.700206 0
M  V30 2432 H 218.619 -3.37813 1.42399 0
M  V30 2433 H 218.267 -5.01095 -0.437408 0
M  V30 2434 H 217.967 -5.76243 1.1497 0
M  V30 2435 H 219.491 -6.09956 0.280351 0
M  V30 2436 H 220.905 -5.21841 2.37391 0
M  V30 2437 H 219.302 -5.10363 3.15673 0
M  V30 2438 H 220.372 -3.69013 3.14575 0
M  V30 2439 N 221.715 -0.905404 -1.28997 0
M  V30 2440 C 222.648 -0.331959 -2.25773 0
M  V30 2441 C 223.626 0.559099 -1.52685 0
M  V30 2442 O 224.81 0.50463 -1.8162 0
M  V30 2443 C 221.937 0.526276 -3.34586 0
M  V30 2444 C 220.983 -0.298249 -4.25456 0
M  V30 2445 S 221.816 -1.69968 -5.0781 0
M  V30 2446 C 222.972 -0.848519 -6.20122 0
M  V30 2447 H 223.205 -1.15222 -2.74064 0
M  V30 2448 H 220.738 -0.706112 -1.37308 0
M  V30 2449 H 222.696 1.01565 -3.97737 0
M  V30 2450 H 221.357 1.32084 -2.84978 0
M  V30 2451 H 220.55 0.357607 -5.0273 0
M  V30 2452 H 220.152 -0.720968 -3.66985 0
M  V30 2453 H 222.444 -0.0744325 -6.77459 0
M  V30 2454 H 223.387 -1.59353 -6.89937 0
M  V30 2455 H 223.795 -0.400383 -5.63078 0
M  V30 2456 N 223.193 1.4272 -0.668489 0
M  V30 2457 C 224.143 2.27971 0.0363806 0
M  V30 2458 C 225.127 1.40741 0.779794 0
M  V30 2459 O 226.319 1.64245 0.659745 0
M  V30 2460 C 223.448 3.28673 0.991398 0
M  V30 2461 C 222.534 4.23388 0.245658 0
M  V30 2462 N 222.925 5.00267 -0.746069 0
M  V30 2463 C 221.223 4.43355 0.484988 0
M  V30 2464 C 221.924 5.69396 -1.19009 0
M  V30 2465 N 220.9 5.41095 -0.521287 0
M  V30 2466 H 224.702 2.84833 -0.724394 0
M  V30 2467 H 222.216 1.54607 -0.497028 0
M  V30 2468 H 224.213 3.88543 1.51129 0
M  V30 2469 H 222.873 2.73373 1.75207 0
M  V30 2470 H 223.884 5.05525 -1.12537 0
M  V30 2471 H 220.561 3.99104 1.22565 0
M  V30 2472 H 221.951 6.41083 -2.01153 0
M  V30 2473 N 224.671 0.411399 1.52136 0
M  V30 2474 C 225.901 -0.16284 2.05957 0
M  V30 2475 C 226.309 -1.3922 1.28119 0
M  V30 2476 O 225.652 -1.80768 0.326881 0
M  V30 2477 C 225.714 -0.575946 3.54856 0
M  V30 2478 C 225.378 0.542998 4.53763 0
M  V30 2479 C 226.375 1.40726 5.00492 0
M  V30 2480 C 224.06 0.716337 4.97166 0
M  V30 2481 C 226.054 2.4298 5.8927 0
M  V30 2482 C 223.741 1.74218 5.8574 0
M  V30 2483 C 224.739 2.59731 6.31687 0
M  V30 2484 O 224.427 3.60558 7.18507 0
M  V30 2485 H 224.159 -0.0229125 0.675612 0
M  V30 2486 H 226.713 0.581634 1.96993 0
M  V30 2487 H 224.943 -1.37274 3.61515 0
M  V30 2488 H 226.632 -1.07836 3.91313 0
M  V30 2489 H 227.398 1.28476 4.67674 0
M  V30 2490 H 223.277 0.0603857 4.6096 0
M  V30 2491 H 226.821 3.0976 6.25055 0
M  V30 2492 H 222.718 1.86498 6.17971 0
M  V30 2493 H 223.486 3.56829 7.36624 0
M  V30 2494 N 226.149 -1.5696 0.141893 0
M  V30 2495 C 227.059 -2.20066 -0.812905 0
M  V30 2496 C 228.075 -1.18344 -1.27557 0
M  V30 2497 O 229.251 -1.50902 -1.33381 0
M  V30 2498 C 226.316 -2.80583 -2.03652 0
M  V30 2499 C 225.377 -3.97414 -1.62359 0
M  V30 2500 C 224.61 -4.55036 -2.78887 0
M  V30 2501 O 224.833 -4.11538 -3.94959 0
M  V30 2502 O 223.767 -5.45376 -2.54653 0
M  V30 2503 H 227.593 -3.02157 -0.305746 0
M  V30 2504 H 225.178 -1.49159 -0.0848799 0
M  V30 2505 H 227.06 -3.19067 -2.75272 0
M  V30 2506 H 225.735 -2.01508 -2.5333 0
M  V30 2507 H 224.642 -3.63656 -0.877775 0
M  V30 2508 H 225.975 -4.77994 -1.17401 0
M  V30 2509 N 227.627 0.131896 -1.57047 0
M  V30 2510 C 229.038 0.690407 -1.73465 0
M  V30 2511 C 229.389 1.8094 -0.758629 0
M  V30 2512 O 228.514 2.16282 0.0713813 0
M  V30 2513 C 229.109 1.25916 -3.14532 0
M  V30 2514 C 227.668 1.76409 -3.32501 0
M  V30 2515 C 226.815 0.658579 -2.69366 0
M  V30 2516 H 229.766 -0.0939144 -1.58422 0
M  V30 2517 H 229.787 2.12892 -3.15369 0
M  V30 2518 H 229.299 0.444515 -3.85546 0
M  V30 2519 H 227.4 2.60391 -2.66509 0
M  V30 2520 H 227.513 1.88241 -4.4057 0
M  V30 2521 H 225.877 1.08899 -2.30246 0
M  V30 2522 H 226.66 -0.14487 -3.42994 0
M  V30 2523 N 229.106 1.52395 0.401703 0
M  V30 2524 C 230.054 1.7689 1.51039 0
M  V30 2525 C 231.048 0.636298 1.56996 0
M  V30 2526 O 232.254 0.818507 1.60314 0
M  V30 2527 H 228.629 0.559502 0.502456 0
M  V30 2528 H 230.6 2.69757 1.27568 0
M  V30 2529 C 229.349 1.94331 2.88324 0
M  V30 2530 H 228.672 2.80905 2.84486 0
M  V30 2531 H 230.112 2.15466 3.65172 0
M  V30 2532 C 228.571 0.712396 3.29282 0
M  V30 2533 O 229.101 -0.116218 4.01532 0
M  V30 2534 N 227.307 0.546154 2.85422 0
M  V30 2535 H 226.854 1.22156 2.26794 0
M  V30 2536 H 226.812 -0.276113 3.13185 0
M  V30 2537 N 230.584 -0.659388 1.43143 0
M  V30 2538 C 231.832 -1.41654 1.44147 0
M  V30 2539 C 232.153 -1.94893 0.0645739 0
M  V30 2540 O 231.423 -1.74044 -0.899198 0
M  V30 2541 H 230.003 -0.525708 0.530697 0
M  V30 2542 H 232.665 -0.778097 1.78694 0
M  V30 2543 H 231.761 -2.26195 2.1504 0
M  V30 2544 N 232.062 -1.29571 -0.897171 0
M  V30 2545 C 233.009 -1.14916 -2.00158 0
M  V30 2546 C 233.979 -0.0418149 -1.66047 0
M  V30 2547 O 235.164 -0.209793 -1.89643 0
M  V30 2548 C 232.304 -0.834307 -3.34863 0
M  V30 2549 C 231.417 -2.02234 -3.8174 0
M  V30 2550 C 230.552 -1.64664 -5.05034 0
M  V30 2551 C 229.591 -2.80033 -5.44286 0
M  V30 2552 N 228.728 -2.42843 -6.58765 0
M  V30 2553 H 233.568 -2.09403 -2.12025 0
M  V30 2554 H 231.105 -1.042 -1.0383 0
M  V30 2555 H 233.063 -0.632436 -4.12379 0
M  V30 2556 H 231.693 0.0736656 -3.22716 0
M  V30 2557 H 230.745 -2.33583 -3.00238 0
M  V30 2558 H 232.057 -2.88673 -4.06779 0
M  V30 2559 H 231.211 -1.4078 -5.9014 0
M  V30 2560 H 229.95 -0.753766 -4.8184 0
M  V30 2561 H 228.955 -3.04596 -4.57713 0
M  V30 2562 H 230.18 -3.69989 -5.6946 0
M  V30 2563 H 228.126 -1.56046 -6.3717 0
M  V30 2564 H 228.043 -3.22815 -6.83613 0
M  V30 2565 H 229.311 -2.22285 -7.47134 0
M  V30 2566 N 233.54 1.10788 -1.12088 0
M  V30 2567 C 234.78 1.84297 -0.883974 0
M  V30 2568 C 235.144 1.83036 0.579797 0
M  V30 2569 O 236.345 2.52061 0.933734 0
M  V30 2570 C 234.616 3.27173 -1.43849 0
M  V30 2571 S 236.175 4.17853 -1.33957 0
M  V30 2572 H 232.993 0.635433 -0.318977 0
M  V30 2573 H 235.595 1.33341 -1.4297 0
M  V30 2574 H 234.299 3.25658 -2.49749 0
M  V30 2575 H 233.83 3.83198 -0.890096 0
M  V30 2576 H 235.845 4.95239 -0.308603 0
M  V30 2577 N 235.018 0.912232 1.28515 0
M  V30 2578 C 236.266 0.543523 1.94654 0
M  V30 2579 C 236.587 -0.9155 1.72173 0
M  V30 2580 O 235.857 -1.64708 1.06058 0
M  V30 2581 H 234.437 0.198017 0.720277 0
M  V30 2582 H 237.099 1.16126 1.56527 0
M  V30 2583 H 236.195 0.736684 3.03281 0
M  V30 2584 N 236.496 -1.42363 0.676048 0
M  V30 2585 C 237.907 -1.84649 0.275948 0
M  V30 2586 C 238.258 -1.56588 -1.18214 0
M  V30 2587 O 237.383 -1.02634 -1.90513 0
M  V30 2588 C 237.978 -3.35178 0.494053 0
M  V30 2589 C 236.537 -3.76109 0.148061 0
M  V30 2590 C 235.684 -2.65931 0.785891 0
M  V30 2591 H 238.635 -1.32192 0.878121 0
M  V30 2592 H 238.656 -3.79655 -0.25343 0
M  V30 2593 H 238.168 -3.55571 1.55535 0
M  V30 2594 H 236.269 -3.61323 -0.909742 0
M  V30 2595 H 236.382 -4.7546 0.589454 0
M  V30 2596 H 234.746 -2.53773 0.217113 0
M  V30 2597 H 235.529 -2.89146 1.85067 0
M  V30 2598 N 237.974 -0.419461 -1.51915 0
M  V30 2599 C 239.22 0.153166 -2.02221 0
M  V30 2600 C 239.553 1.43907 -1.30401 0
M  V30 2601 O 238.828 1.90055 -0.413438 0
M  V30 2602 C 239.111 0.390291 -3.57979 0
M  V30 2603 C 238.964 -0.913014 -4.40436 0
M  V30 2604 C 240.283 1.16794 -4.2432 0
M  V30 2605 H 237.402 0.0541924 -0.735005 0
M  V30 2606 H 240.044 -0.554955 -1.81715 0
M  V30 2607 H 238.194 0.993491 -3.75582 0
M  V30 2608 H 239.866 -1.54882 -4.34522 0
M  V30 2609 H 238.109 -1.52168 -4.06236 0
M  V30 2610 H 238.78 -0.701361 -5.47526 0
M  V30 2611 H 241.256 0.657161 -4.10878 0
M  V30 2612 H 240.132 1.3026 -5.3322 0
M  V30 2613 H 240.393 2.19132 -3.83971 0
M  V30 2614 N 239.452 1.56882 -0.150215 0
M  V30 2615 C 240.677 2.01027 0.510184 0
M  V30 2616 C 241.102 1.02966 1.57415 0
M  V30 2617 O 240.46 0.00590158 1.81299 0
M  V30 2618 C 240.508 3.43899 1.08472 0
M  V30 2619 O 239.612 3.4885 2.19948 0
M  V30 2620 H 238.953 0.652233 0.124451 0
M  V30 2621 H 241.483 2.03093 -0.247894 0
M  V30 2622 H 241.493 3.82766 1.41259 0
M  V30 2623 H 240.168 4.14776 0.305582 0
M  V30 2624 H 238.745 3.21827 1.88366 0
M  V30 2625 N 240.93 -0.123565 1.57115 0
M  V30 2626 C 242.207 -0.862196 1.75572 0
M  V30 2627 C 242.587 -1.98279 0.724475 0
M  V30 2628 O 241.935 -2.27102 -0.252407 0
M  V30 2629 C 242.145 -1.38309 3.20424 0
M  V30 2630 C 243.493 -1.83724 3.82793 0
M  V30 2631 O 244.517 -1.47999 3.23998 0
M  V30 2632 O 243.376 -2.49685 4.86127 0
M  V30 2633 H 240.47 -0.409113 0.718718 0
M  V30 2634 H 243.016 -0.107661 1.69358 0
M  V30 2635 H 241.788 -0.578889 3.86994 0
M  V30 2636 H 241.411 -2.20046 3.31158 0
M  V30 2637 N 242.408 -1.52605 -0.393616 0
M  V30 2638 C 243.318 -1.79971 -1.50492 0
M  V30 2639 C 244.334 -0.686181 -1.59899 0
M  V30 2640 O 245.51 -0.973274 -1.76322 0
M  V30 2641 C 242.575 -1.95867 -2.86072 0
M  V30 2642 C 241.636 -3.19781 -2.86424 0
M  V30 2643 C 240.869 -3.34909 -4.15538 0
M  V30 2644 O 241.092 -2.54948 -5.10253 0
M  V30 2645 O 240.026 -4.28141 -4.23059 0
M  V30 2646 H 243.852 -2.74328 -1.30299 0
M  V30 2647 H 241.437 -1.3764 -0.581005 0
M  V30 2648 H 243.319 -2.08056 -3.66457 0
M  V30 2649 H 241.994 -1.04699 -3.063 0
M  V30 2650 H 240.901 -3.13038 -2.04837 0
M  V30 2651 H 242.234 -4.1078 -2.71147 0
M  V30 2652 N 243.887 0.651787 -1.4349 0
M  V30 2653 C 245.164 1.40909 -1.35661 0
M  V30 2654 C 245.544 2.11099 -0.00511733 0
M  V30 2655 O 244.892 2.04892 1.0115 0
M  V30 2656 C 245.102 2.3926 -2.54078 0
M  V30 2657 C 246.45 3.03217 -2.97228 0
M  V30 2658 O 247.474 2.49588 -2.54135 0
M  V30 2659 O 246.333 4.00455 -3.71885 0
M  V30 2660 H 243.427 0.629625 -0.536191 0
M  V30 2661 H 245.973 0.678575 -1.55542 0
M  V30 2662 H 244.745 1.86352 -3.44076 0
M  V30 2663 H 244.368 3.1976 -2.36303 0
M  V30 2664 N 245.365 1.30045 0.890287 0
M  V30 2665 C 246.59 1.21598 1.68014 0
M  V30 2666 C 247.015 -0.218678 1.86825 0
M  V30 2667 O 246.373 -1.15756 1.39536 0
M  V30 2668 C 246.421 1.94434 3.03691 0
M  V30 2669 O 245.525 1.2678 3.92429 0
M  V30 2670 H 244.866 0.420856 0.513592 0
M  V30 2671 H 247.396 1.71775 1.11151 0
M  V30 2672 H 247.406 2.03251 3.5377 0
M  V30 2673 H 246.081 2.98777 2.89318 0
M  V30 2674 H 244.658 1.26282 3.50866 0
M  V30 2675 N 246.843 -1.10192 1.12674 0
M  V30 2676 C 247.773 -2.18652 0.819362 0
M  V30 2677 C 248.754 -1.68698 -0.217915 0
M  V30 2678 O 249.939 -1.94041 -0.0785581 0
M  V30 2679 C 247.069 -3.46202 0.27594 0
M  V30 2680 C 246.023 -4.09444 1.24656 0
M  V30 2681 C 245.349 -5.31725 0.563258 0
M  V30 2682 C 246.649 -4.52863 2.60217 0
M  V30 2683 H 248.343 -2.44622 1.72628 0
M  V30 2684 H 245.889 -1.17571 0.831451 0
M  V30 2685 H 247.842 -4.21372 0.0486149 0
M  V30 2686 H 246.566 -3.1973 -0.666331 0
M  V30 2687 H 245.225 -3.36284 1.45974 0
M  V30 2688 H 244.873 -5.0153 -0.384235 0
M  V30 2689 H 244.573 -5.74991 1.21075 0
M  V30 2690 H 246.097 -6.09624 0.34503 0
M  V30 2691 H 247.511 -5.19294 2.42913 0
M  V30 2692 H 245.908 -5.06986 3.21068 0
M  V30 2693 H 246.978 -3.65656 3.18471 0
M  V30 2694 N 248.321 -0.919034 -1.28029 0
M  V30 2695 C 249.598 -0.473668 -1.89778 0
M  V30 2696 C 249.978 1.04783 -1.83259 0
M  V30 2697 O 249.326 1.8982 -1.27202 0
M  V30 2698 C 249.536 -1.00998 -3.34066 0
M  V30 2699 C 250.884 -1.06525 -4.1102 0
M  V30 2700 O 251.908 -0.958996 -3.43048 0
M  V30 2701 O 250.767 -1.22776 -5.3253 0
M  V30 2702 H 247.861 -0.15098 -0.813101 0
M  V30 2703 H 250.407 -1.01016 -1.36359 0
M  V30 2704 H 249.179 -2.05392 -3.33061 0
M  V30 2705 H 248.802 -0.454626 -3.94992 0
M  V30 2706 N 249.799 1.42003 -0.683588 0
M  V30 2707 C 251.024 2.06265 -0.216647 0
M  V30 2708 C 251.449 1.51059 1.12083 0
M  V30 2709 O 250.807 0.632638 1.69904 0
M  V30 2710 C 250.855 3.60191 -0.171759 0
M  V30 2711 O 249.959 4.03396 0.857069 0
M  V30 2712 H 249.3 0.65502 -0.108834 0
M  V30 2713 H 251.83 1.81982 -0.935077 0
M  V30 2714 H 251.84 4.08 0.0014303 0
M  V30 2715 H 250.515 3.99743 -1.14796 0
M  V30 2716 H 249.092 3.67117 0.654208 0
M  V30 2717 N 251.277 0.427512 1.51691 0
M  V30 2718 C 252.225 -0.403359 2.29076 0
M  V30 2719 C 253.219 -1.02962 1.34518 0
M  V30 2720 O 254.425 -0.965715 1.51901 0
M  V30 2721 H 250.8 -0.148879 0.737115 0
M  V30 2722 H 252.771 0.270295 2.97173 0
M  V30 2723 C 251.52 -1.49763 3.13794 0
M  V30 2724 H 250.843 -1.02508 3.86435 0
M  V30 2725 H 252.283 -2.05244 3.71014 0
M  V30 2726 C 250.742 -2.47536 2.28533 0
M  V30 2727 O 251.272 -3.51848 1.93819 0
M  V30 2728 N 249.478 -2.18187 1.91945 0
M  V30 2729 H 249.025 -1.33389 2.20375 0
M  V30 2730 H 248.983 -2.83848 1.35195 0
M  V30 2731 N 252.755 -1.56801 0.158532 0
M  V30 2732 C 254.003 -1.96102 -0.488712 0
M  V30 2733 C 254.324 -1.04498 -1.64636 0
M  V30 2734 O 253.594 -0.108783 -1.95598 0
M  V30 2735 H 252.174 -0.724102 -0.183535 0
M  V30 2736 H 254.836 -1.93457 0.236728 0
M  V30 2737 H 253.932 -3.00097 -0.857219 0
M  V30 2738 N 254.233 0.115231 -1.57178 0
M  V30 2739 C 255.51 0.852873 -1.76027 0
M  V30 2740 C 255.89 1.97892 -0.73498 0
M  V30 2741 O 255.238 2.27232 0.24036 0
M  V30 2742 C 255.448 1.36608 -3.21153 0
M  V30 2743 C 256.796 1.81692 -3.83762 0
M  V30 2744 O 257.82 1.46278 -3.24779 0
M  V30 2745 O 256.679 2.47104 -4.87444 0
M  V30 2746 H 253.773 0.405296 -0.720877 0
M  V30 2747 H 256.319 0.0986785 -1.69413 0
M  V30 2748 H 255.091 0.558357 -3.87296 0
M  V30 2749 H 254.714 2.18287 -3.3232 0
M  V30 2750 N 255.711 1.52812 0.385517 0
M  V30 2751 C 256.939 1.71907 1.15133 0
M  V30 2752 C 257.354 0.439004 1.83625 0
M  V30 2753 O 256.711 -0.586765 1.7281 0
M  V30 2754 C 256.762 2.87099 2.19673 0
M  V30 2755 O 256.483 4.10151 1.53973 0
M  V30 2756 C 257.984 3.17902 3.08955 0
M  V30 2757 H 255.204 0.575479 0.345057 0
M  V30 2758 H 257.748 1.99476 0.45052 0
M  V30 2759 H 255.903 2.61982 2.85384 0
M  V30 2760 H 256.317 4.74514 2.23465 0
M  V30 2761 H 257.791 4.01959 3.7833 0
M  V30 2762 H 258.268 2.3243 3.72657 0
M  V30 2763 H 258.874 3.44871 2.48885 0
M  V30 2764 N 257.189 -0.644168 1.43834 0
M  V30 2765 C 258.466 -1.40188 1.36406 0
M  V30 2766 C 258.846 -2.11094 0.0163124 0
M  V30 2767 O 258.194 -2.05426 -1.00062 0
M  V30 2768 C 258.404 -2.3791 2.55343 0
M  V30 2769 C 259.752 -3.01637 2.98832 0
M  V30 2770 O 260.776 -2.48237 2.55455 0
M  V30 2771 O 259.635 -3.98477 3.74003 0
M  V30 2772 H 256.729 -0.626773 0.539523 0
M  V30 2773 H 259.275 -0.670317 1.559 0
M  V30 2774 H 258.047 -1.84525 3.4506 0
M  V30 2775 H 257.67 -3.18503 2.37995 0
M  V30 2776 N 258.668 -1.30515 -0.883378 0
M  V30 2777 C 259.908 -1.20716 -1.64946 0
M  V30 2778 C 260.272 0.234072 -1.90568 0
M  V30 2779 O 261.473 0.455335 -2.64915 0
M  V30 2780 C 259.744 -2.01444 -2.9522 0
M  V30 2781 S 261.303 -2.0836 -3.86175 0
M  V30 2782 H 258.121 -0.430165 -0.566109 0
M  V30 2783 H 260.723 -1.65011 -1.04841 0
M  V30 2784 H 259.427 -3.05268 -2.74298 0
M  V30 2785 H 258.958 -1.57817 -3.60357 0
M  V30 2786 H 260.973 -1.21215 -4.81167 0
M  V30 2787 N 260.146 1.09593 -1.13257 0
M  V30 2788 C 261.376 1.85231 -0.915049 0
M  V30 2789 C 261.784 1.81345 0.539498 0
M  V30 2790 O 261.127 1.20664 1.38513 0
M  V30 2791 C 261.189 3.34275 -1.3229 0
M  V30 2792 C 260.853 3.6191 -2.79052 0
M  V30 2793 C 261.85 3.57777 -3.77216 0
M  V30 2794 C 259.535 3.90309 -3.16171 0
M  V30 2795 C 261.529 3.81652 -5.1051 0
M  V30 2796 C 259.216 4.13839 -4.49644 0
M  V30 2797 C 260.214 4.09502 -5.46623 0
M  V30 2798 O 259.902 4.32426 -6.77689 0
M  V30 2799 H 259.634 0.591997 -0.326367 0
M  V30 2800 H 262.188 1.394 -1.50854 0
M  V30 2801 H 260.418 3.80805 -0.672667 0
M  V30 2802 H 262.107 3.9132 -1.07812 0
M  V30 2803 H 262.873 3.35865 -3.49885 0
M  V30 2804 H 258.752 3.92811 -2.41289 0
M  V30 2805 H 262.296 3.78182 -5.86195 0
M  V30 2806 H 258.193 4.35232 -4.767 0
M  V30 2807 H 258.961 4.49896 -6.83766 0
M  V30 2808 N 261.624 0.925811 1.2754 0
M  V30 2809 C 262.852 0.581509 1.9856 0
M  V30 2810 C 263.267 -0.840041 1.69082 0
M  V30 2811 O 262.624 -1.55805 0.950312 0
M  V30 2812 C 262.675 0.795589 3.52637 0
M  V30 2813 O 262.396 2.16121 3.81082 0
M  V30 2814 C 263.897 0.459744 4.4091 0
M  V30 2815 H 261.117 0.220538 0.633722 0
M  V30 2816 H 263.661 1.24232 1.6244 0
M  V30 2817 H 261.816 0.18161 3.86974 0
M  V30 2818 H 262.23 2.2098 4.75676 0
M  V30 2819 H 263.704 0.660244 5.48037 0
M  V30 2820 H 264.181 -0.604625 4.35018 0
M  V30 2821 H 264.787 1.05178 4.12089 0
M  V30 2822 N 263.102 -1.41638 0.69111 0
M  V30 2823 C 264.33 -2.05628 0.22909 0
M  V30 2824 C 264.745 -1.51992 -1.11999 0
M  V30 2825 O 264.102 -0.666322 -1.69901 0
M  V30 2826 C 264.153 -3.61084 0.173283 0
M  V30 2827 O 263.874 -4.12735 1.46907 0
M  V30 2828 C 265.375 -4.42213 -0.310266 0
M  V30 2829 H 262.595 -0.662327 0.107534 0
M  V30 2830 H 265.139 -1.81489 0.942438 0
M  V30 2831 H 263.294 -3.84278 -0.490858 0
M  V30 2832 H 263.708 -5.06743 1.35322 0
M  V30 2833 H 265.182 -5.51194 -0.298196 0
M  V30 2834 H 265.659 -4.1799 -1.34838 0
M  V30 2835 H 266.265 -4.24074 0.322716 0
M  V30 2836 N 264.58 -0.43555 -1.51462 0
M  V30 2837 C 265.805 0.132627 -2.06976 0
M  V30 2838 C 266.23 1.35848 -1.30104 0
M  V30 2839 O 265.588 1.78112 -0.338493 0
M  V30 2840 C 265.636 0.43523 -3.57964 0
M  V30 2841 O 264.74 1.52198 -3.83288 0
M  V30 2842 H 264.081 0.00265 -0.663995 0
M  V30 2843 H 266.611 -0.616369 -1.95095 0
M  V30 2844 H 266.621 0.686206 -4.02188 0
M  V30 2845 H 265.296 -0.460739 -4.1334 0
M  V30 2846 H 263.873 1.2611 -3.50928 0
M  V30 2847 N 266.058 1.56714 -0.166846 0
M  V30 2848 C 267.305 1.96747 0.479252 0
M  V30 2849 C 267.633 1.05263 1.63554 0
M  V30 2850 O 266.888 0.0858098 1.95512 0
M  V30 2851 C 267.187 3.42889 1.00806 0
M  V30 2852 C 266.853 4.50889 -0.0318574 0
M  V30 2853 C 265.515 4.8015 -0.317675 0
M  V30 2854 C 267.867 5.15949 -0.737956 0
M  V30 2855 C 265.195 5.71772 -1.31506 0
M  V30 2856 C 267.547 6.08647 -1.72429 0
M  V30 2857 C 266.211 6.36277 -2.0176 0
M  V30 2858 H 265.481 0.719949 0.175371 0
M  V30 2859 H 268.128 1.89756 -0.257864 0
M  V30 2860 H 266.433 3.4681 1.82291 0
M  V30 2861 H 268.13 3.71203 1.51689 0
M  V30 2862 H 264.72 4.28128 0.201088 0
M  V30 2863 H 268.904 4.93458 -0.530351 0
M  V30 2864 H 264.16 5.91465 -1.54853 0
M  V30 2865 H 268.334 6.58129 -2.27682 0
M  V30 2866 H 265.961 7.07075 -2.79194 0
M  V30 2867 N 267.536 -0.106894 1.57237 0
M  V30 2868 C 268.761 -0.830287 1.90055 0
M  V30 2869 C 269.186 -1.72064 0.75998 0
M  V30 2870 O 268.544 -1.78982 -0.288991 0
M  V30 2871 C 268.592 -1.6295 3.21683 0
M  V30 2872 O 267.696 -2.73748 3.08441 0
M  V30 2873 H 267.037 -0.228855 0.623315 0
M  V30 2874 H 269.567 -0.085658 2.04421 0
M  V30 2875 H 269.577 -2.01621 3.54701 0
M  V30 2876 H 268.252 -0.975989 4.04286 0
M  V30 2877 H 266.829 -2.38192 2.86913 0
M  V30 2878 N 269.014 -1.53014 -0.377408 0
M  V30 2879 C 269.961 -1.78616 -1.46168 0
M  V30 2880 C 270.931 -0.629917 -1.53692 0
M  V30 2881 O 272.116 -0.870861 -1.69766 0
M  V30 2882 C 269.256 -1.97123 -2.8326 0
M  V30 2883 C 268.369 -3.24831 -2.84796 0
M  V30 2884 C 267.504 -3.33591 -4.13389 0
M  V30 2885 C 266.543 -4.55377 -4.09021 0
M  V30 2886 N 265.68 -4.61355 -5.29241 0
M  V30 2887 H 270.52 -2.71142 -1.23637 0
M  V30 2888 H 268.057 -1.34326 -0.599577 0
M  V30 2889 H 270.015 -2.05839 -3.62886 0
M  V30 2890 H 268.645 -1.07946 -3.04216 0
M  V30 2891 H 267.697 -3.25128 -1.97474 0
M  V30 2892 H 269.009 -4.14523 -2.77439 0
M  V30 2893 H 268.163 -3.41554 -5.01424 0
M  V30 2894 H 266.902 -2.41894 -4.23484 0
M  V30 2895 H 265.907 -4.47527 -3.19373 0
M  V30 2896 H 267.132 -5.48402 -4.00539 0
M  V30 2897 H 265.078 -3.72554 -5.39944 0
M  V30 2898 H 264.995 -5.44935 -5.24006 0
M  V30 2899 H 266.263 -4.73586 -6.19141 0
M  V30 2900 N 270.492 0.636531 -1.44174 0
M  V30 2901 C 271.741 1.39213 -1.45954 0
M  V30 2902 C 272.054 1.95374 -0.0939119 0
M  V30 2903 O 273.26 2.71498 0.0107767 0
M  V30 2904 C 271.716 2.52025 -2.56927 0
M  V30 2905 C 271.324 2.024 -3.99673 0
M  V30 2906 C 273.068 3.29269 -2.67922 0
M  V30 2907 C 270.975 3.12521 -5.0208 0
M  V30 2908 H 269.905 0.523132 -0.542999 0
M  V30 2909 H 272.556 0.685349 -1.70221 0
M  V30 2910 H 270.938 3.25253 -2.25891 0
M  V30 2911 H 272.112 1.36073 -4.40251 0
M  V30 2912 H 270.427 1.37987 -3.92872 0
M  V30 2913 H 273.024 4.11352 -3.41605 0
M  V30 2914 H 273.367 3.78397 -1.73555 0
M  V30 2915 H 273.9 2.63129 -2.98342 0
M  V30 2916 H 270.639 2.68343 -5.98057 0
M  V30 2917 H 270.159 3.77507 -4.66099 0
M  V30 2918 H 271.838 3.77385 -5.25538 0
M  V30 2919 N 271.97 1.30982 0.876444 0
M  V30 2920 C 273.386 1.09498 1.16113 0
M  V30 2921 C 273.586 -0.13875 2.01022 0
M  V30 2922 O 272.642 -0.829935 2.38471 0
M  V30 2923 C 273.955 2.36308 1.85954 0
M  V30 2924 C 275.503 2.41856 1.98683 0
M  V30 2925 C 275.978 3.6853 2.71937 0
M  V30 2926 N 277.469 3.69387 2.79477 0
M  V30 2927 C 278.204 4.64096 3.36753 0
M  V30 2928 N 277.7 5.69155 3.95012 0
M  V30 2929 N 279.493 4.51626 3.3465 0
M  V30 2930 H 271.644 2.10118 0.310494 0
M  V30 2931 H 273.907 0.926634 0.200131 0
M  V30 2932 H 273.613 3.26388 1.31011 0
M  V30 2933 H 273.487 2.4561 2.86278 0
M  V30 2934 H 275.874 1.52249 2.52793 0
M  V30 2935 H 275.955 2.36523 0.9742 0
M  V30 2936 H 275.599 4.58499 2.18496 0
M  V30 2937 H 275.529 3.71127 3.73593 0
M  V30 2938 H 278.02 2.93438 2.38123 0
M  V30 2939 H 278.333 6.3751 4.36808 0
M  V30 2940 H 276.678 5.72937 3.93406 0
M  V30 2941 H 279.869 3.68728 2.8837 0
M  V30 2942 H 280.042 5.25614 3.7899 0
M  V30 2943 N 273.449 -1.08991 1.13837 0
M  V30 2944 C 274.679 -1.84743 0.924859 0
M  V30 2945 C 275.087 -1.81629 -0.529874 0
M  V30 2946 O 274.43 -1.21397 -1.37872 0
M  V30 2947 C 274.492 -3.33568 1.34061 0
M  V30 2948 C 274.156 -3.60425 2.80968 0
M  V30 2949 C 275.153 -3.55771 3.79108 0
M  V30 2950 C 272.838 -3.88627 3.18236 0
M  V30 2951 C 274.832 -3.78939 5.12527 0
M  V30 2952 C 272.519 -4.11449 4.51833 0
M  V30 2953 C 273.517 -4.06598 5.48787 0
M  V30 2954 O 273.205 -4.28826 6.79973 0
M  V30 2955 H 272.937 -0.590258 0.329502 0
M  V30 2956 H 275.491 -1.38598 1.51591 0
M  V30 2957 H 273.721 -3.80442 0.692853 0
M  V30 2958 H 275.41 -3.90743 1.09886 0
M  V30 2959 H 276.176 -3.34005 3.51661 0
M  V30 2960 H 272.055 -3.91526 2.43369 0
M  V30 2961 H 275.599 -3.75068 5.88192 0
M  V30 2962 H 271.496 -4.32698 4.79002 0
M  V30 2963 H 272.264 -4.46264 6.86142 0
M  V30 2964 N 274.927 -0.932562 -1.27047 0
M  V30 2965 C 276.175 -0.574422 -1.93765 0
M  V30 2966 C 276.496 0.887993 -1.73608 0
M  V30 2967 O 275.766 1.62999 -1.08665 0
M  V30 2968 H 274.346 -0.209451 -0.717035 0
M  V30 2969 H 277.008 -1.18601 -1.5466 0
M  V30 2970 H 276.104 -0.784841 -3.02071 0
M  V30 2971 N 276.405 1.4127 -0.698611 0
M  V30 2972 C 277.651 2.01979 -0.239972 0
M  V30 2973 C 278.006 1.54353 1.14861 0
M  V30 2974 O 277.299 0.746218 1.76471 0
M  V30 2975 C 277.493 3.56592 -0.240192 0
M  V30 2976 C 277.322 4.19226 -1.62726 0
M  V30 2977 C 276.092 4.53389 -2.23084 0
M  V30 2978 C 278.29 4.45228 -2.57443 0
M  V30 2979 N 276.272 5.01327 -3.54323 0
M  V30 2980 C 277.643 4.94973 -3.73365 0
M  V30 2981 C 279.698 4.27243 -2.55671 0
M  V30 2982 C 278.401 5.28624 -4.878 0
M  V30 2983 C 280.427 4.61985 -3.69221 0
M  V30 2984 C 279.789 5.11904 -4.83873 0
M  V30 2985 H 275.888 0.770561 -0.133269 0
M  V30 2986 H 278.472 1.71767 -0.916748 0
M  V30 2987 H 276.643 3.86271 0.406082 0
M  V30 2988 H 278.375 4.04025 0.23356 0
M  V30 2989 H 275.13 4.39946 -1.75341 0
M  V30 2990 H 275.554 5.29697 -4.21604 0
M  V30 2991 H 280.196 3.87884 -1.68243 0
M  V30 2992 H 277.914 5.66905 -5.75885 0
M  V30 2993 H 281.5 4.49725 -3.69105 0
M  V30 2994 H 280.38 5.38282 -5.70282 0
M  V30 2995 N 277.883 0.443576 1.51229 0
M  V30 2996 C 278.813 -0.355142 2.30783 0
M  V30 2997 C 279.794 -1.0154 1.36468 0
M  V30 2998 O 280.979 -1.01785 1.65389 0
M  V30 2999 C 278.109 -1.45312 3.15439 0
M  V30 3000 C 277.063 -0.916002 4.18083 0
M  V30 3001 C 276.389 -2.1102 4.91299 0
M  V30 3002 C 277.689 0.0538602 5.22272 0
M  V30 3003 H 279.383 0.308767 2.97804 0
M  V30 3004 H 276.929 0.149937 1.43217 0
M  V30 3005 H 278.882 -2.01914 3.69876 0
M  V30 3006 H 277.606 -2.14541 2.46252 0
M  V30 3007 H 276.265 -0.372145 3.64706 0
M  V30 3008 H 275.913 -2.78882 4.18609 0
M  V30 3009 H 275.613 -1.75717 5.60712 0
M  V30 3010 H 277.137 -2.68164 5.48562 0
M  V30 3011 H 278.551 -0.422069 5.71744 0
M  V30 3012 H 276.948 0.319776 5.99247 0
M  V30 3013 H 278.018 0.98858 4.74716 0
M  V30 3014 N 279.361 -1.56624 0.175154 0
M  V30 3015 C 280.638 -1.88688 -0.515373 0
M  V30 3016 C 281.018 -1.08564 -1.81044 0
M  V30 3017 O 280.366 -0.180703 -2.27784 0
M  V30 3018 C 280.576 -3.40768 -0.753552 0
M  V30 3019 C 281.924 -4.10587 -1.08184 0
M  V30 3020 O 282.948 -3.46106 -0.841961 0
M  V30 3021 O 281.807 -5.24512 -1.53459 0
M  V30 3022 H 278.901 -0.78301 -0.26613 0
M  V30 3023 H 281.447 -1.68347 0.213877 0
M  V30 3024 H 280.219 -3.90965 0.161829 0
M  V30 3025 H 279.842 -3.66733 -1.53598 0
M  V30 3026 N 280.839 0.0985539 -1.57292 0
M  V30 3027 C 282.085 0.803867 -1.86188 0
M  V30 3028 C 282.418 1.78549 -0.763794 0
M  V30 3029 O 281.693 1.93153 0.22855 0
M  V30 3030 C 281.976 1.53568 -3.25713 0
M  V30 3031 C 281.829 0.572277 -4.46145 0
M  V30 3032 C 283.148 2.48708 -3.63087 0
M  V30 3033 H 280.267 0.290781 -0.677211 0
M  V30 3034 H 282.909 0.0675783 -1.8988 0
M  V30 3035 H 281.059 2.16332 -3.22696 0
M  V30 3036 H 282.731 -0.0480894 -4.61275 0
M  V30 3037 H 280.974 -0.114618 -4.33649 0
M  V30 3038 H 281.645 1.12139 -5.40489 0
M  V30 3039 H 284.121 1.96039 -3.67026 0
M  V30 3040 H 282.997 2.96932 -4.61652 0
M  V30 3041 H 283.258 3.32309 -2.91588 0
M  V30 3042 N 282.317 1.53212 0.369288 0
M  V30 3043 C 283.227 1.82342 1.47609 0
M  V30 3044 C 284.243 0.711532 1.58787 0
M  V30 3045 O 285.419 1.0012 1.74751 0
M  V30 3046 C 282.484 2.00393 2.8292 0
M  V30 3047 C 281.545 3.24297 2.81301 0
M  V30 3048 C 280.778 3.41478 4.10157 0
M  V30 3049 O 281.001 2.63033 5.06132 0
M  V30 3050 O 279.935 4.34817 4.16194 0
M  V30 3051 H 283.761 2.76366 1.25918 0
M  V30 3052 H 281.346 1.38547 0.559034 0
M  V30 3053 H 283.228 2.13859 3.63101 0
M  V30 3054 H 281.903 1.09559 3.04596 0
M  V30 3055 H 280.81 3.16257 1.99831 0
M  V30 3056 H 282.143 4.15041 2.64578 0
M  V30 3057 N 283.795 -0.628877 1.44509 0
M  V30 3058 C 284.743 -1.76193 1.51852 0
M  V30 3059 C 285.737 -1.64849 0.390042 0
M  V30 3060 O 286.943 -1.709 0.565082 0
M  V30 3061 H 283.318 -0.581728 0.476547 0
M  V30 3062 H 285.289 -1.67123 2.47209 0
M  V30 3063 C 284.038 -3.14533 1.48204 0
M  V30 3064 H 283.361 -3.23911 2.34354 0
M  V30 3065 H 284.801 -3.93701 1.57402 0
M  V30 3066 C 283.26 -3.36287 0.203142 0
M  V30 3067 O 283.79 -3.9509 -0.725745 0
M  V30 3068 N 281.996 -2.90408 0.105563 0
M  V30 3069 H 281.543 -2.42739 0.862301 0
M  V30 3070 H 281.501 -3.05339 -0.749371 0
M  V30 3071 N 285.273 -1.31445 -0.869486 0
M  V30 3072 C 286.183 -1.21097 -2.0093 0
M  V30 3073 C 287.199 -0.127584 -1.73532 0
M  V30 3074 O 288.375 -0.345477 -1.98415 0
M  V30 3075 C 285.44 -0.919378 -3.34288 0
M  V30 3076 C 284.501 -2.08971 -3.75006 0
M  V30 3077 C 283.734 -1.81194 -5.02001 0
M  V30 3078 O 283.957 -0.747296 -5.65484 0
M  V30 3079 O 282.891 -2.66883 -5.39497 0
M  V30 3080 H 286.717 -2.16883 -2.12592 0
M  V30 3081 H 284.302 -1.11189 -0.997868 0
M  V30 3082 H 286.184 -0.772625 -4.14257 0
M  V30 3083 H 284.859 0.00844772 -3.23699 0
M  V30 3084 H 283.766 -2.29187 -2.95676 0
M  V30 3085 H 285.099 -2.9998 -3.90221 0
M  V30 3086 N 286.751 1.08385 -1.14413 0
M  V30 3087 C 287.698 2.15311 -0.831265 0
M  V30 3088 C 288.668 1.64751 0.211292 0
M  V30 3089 O 289.853 1.90627 0.0811674 0
M  V30 3090 C 286.993 3.43658 -0.315143 0
M  V30 3091 C 286.106 4.08064 -1.41802 0
M  V30 3092 C 285.241 5.24207 -0.859126 0
M  V30 3093 C 284.28 5.80554 -1.93967 0
M  V30 3094 N 283.417 6.88042 -1.39793 0
M  V30 3095 H 288.257 2.41415 -1.74708 0
M  V30 3096 H 285.794 1.18474 -0.871909 0
M  V30 3097 H 287.752 4.172 0.00230884 0
M  V30 3098 H 286.382 3.17839 0.56378 0
M  V30 3099 H 285.434 3.3228 -1.85187 0
M  V30 3100 H 286.746 4.45962 -2.23427 0
M  V30 3101 H 285.9 6.04689 -0.49359 0
M  V30 3102 H 284.639 4.87699 -0.011932 0
M  V30 3103 H 283.644 4.98725 -2.31415 0
M  V30 3104 H 284.869 6.19121 -2.79046 0
M  V30 3105 H 282.815 6.53493 -0.572919 0
M  V30 3106 H 282.732 7.24767 -2.15054 0
M  V30 3107 H 284 7.72255 -1.0603 0
M  V30 3108 N 288.23 0.939286 1.26551 0
M  V30 3109 C 289.178 0.43815 2.28436 0
M  V30 3110 C 290.172 -0.483587 1.62351 0
M  V30 3111 O 291.378 -0.362009 1.76322 0
M  V30 3112 H 287.753 0.123149 0.741848 0
M  V30 3113 H 289.724 1.31002 2.68106 0
M  V30 3114 C 288.473 -0.283052 3.46546 0
M  V30 3115 H 287.796 0.417043 3.97619 0
M  V30 3116 H 289.236 -0.597948 4.19763 0
M  V30 3117 C 287.695 -1.50018 3.01656 0
M  V30 3118 O 288.225 -2.59855 3.0633 0
M  V30 3119 N 286.431 -1.35608 2.57019 0
M  V30 3120 H 285.978 -0.46244 2.53415 0
M  V30 3121 H 285.936 -2.17165 2.27347 0
M  V30 3122 N 289.708 -1.40897 0.706093 0
M  V30 3123 C 290.618 -2.3455 0.0482286 0
M  V30 3124 C 291.634 -1.56796 -0.754396 0
M  V30 3125 O 292.81 -1.89228 -0.689538 0
M  V30 3126 C 289.875 -3.35625 -0.869303 0
M  V30 3127 C 288.936 -4.29261 -0.0576994 0
M  V30 3128 C 288.169 -5.25508 -0.931531 0
M  V30 3129 O 288.392 -5.27472 -2.17092 0
M  V30 3130 O 287.326 -6.00727 -0.375587 0
M  V30 3131 H 291.152 -2.92407 0.820476 0
M  V30 3132 H 288.737 -1.4193 0.4665 0
M  V30 3133 H 290.619 -3.97635 -1.39514 0
M  V30 3134 H 289.294 -2.80196 -1.62086 0
M  V30 3135 H 288.201 -3.70566 0.512988 0
M  V30 3136 H 289.534 -4.87817 0.655426 0
M  V30 3137 N 291.186 -0.45159 -1.50991 0
M  V30 3138 C 292.136 0.370861 -2.24964 0
M  V30 3139 C 293.12 0.978074 -1.2776 0
M  V30 3140 O 294.312 0.893854 -1.52772 0
M  V30 3141 C 291.441 1.46344 -3.10545 0
M  V30 3142 C 290.527 0.864924 -4.15187 0
M  V30 3143 N 290.918 -0.00311354 -5.058 0
M  V30 3144 C 289.216 1.13099 -4.31422 0
M  V30 3145 C 289.917 -0.340772 -5.80701 0
M  V30 3146 N 288.893 0.279203 -5.42883 0
M  V30 3147 H 292.695 -0.298134 -2.92384 0
M  V30 3148 H 290.209 -0.264528 -1.60231 0
M  V30 3149 H 292.206 2.06565 -3.62128 0
M  V30 3150 H 290.866 2.13463 -2.4467 0
M  V30 3151 H 291.877 -0.37058 -5.16572 0
M  V30 3152 H 288.554 1.79861 -3.76771 0
M  V30 3153 H 289.944 -1.048 -6.63677 0
M  V30 3154 N 292.664 1.56529 -0.183458 0
M  V30 3155 C 293.594 2.21549 0.737456 0
M  V30 3156 C 294.575 1.17489 1.23005 0
M  V30 3157 O 295.76 1.45959 1.281 0
M  V30 3158 C 292.89 2.86575 1.96194 0
M  V30 3159 C 291.844 3.96778 1.60473 0
M  V30 3160 C 291.17 4.48911 2.90487 0
M  V30 3161 C 292.47 5.15767 0.823497 0
M  V30 3162 H 294.164 2.98761 0.195453 0
M  V30 3163 H 291.71 1.43702 0.0925686 0
M  V30 3164 H 293.663 3.30739 2.61131 0
M  V30 3165 H 292.387 2.06749 2.52828 0
M  V30 3166 H 291.046 3.53286 0.978997 0
M  V30 3167 H 290.694 3.65862 3.45186 0
M  V30 3168 H 290.394 5.23265 2.67335 0
M  V30 3169 H 291.918 4.95771 3.56432 0
M  V30 3170 H 293.332 5.56549 1.37571 0
M  V30 3171 H 291.729 5.96114 0.690551 0
M  V30 3172 H 292.799 4.84574 -0.177782 0
M  V30 3173 N 294.142 -0.090211 1.57342 0
M  V30 3174 C 295.092 -1.11557 1.98844 0
M  V30 3175 C 296.076 -1.35503 0.867624 0
M  V30 3176 O 297.268 -1.36113 1.13148 0
M  V30 3177 C 294.397 -2.43446 2.42051 0
M  V30 3178 C 293.483 -2.22853 3.60828 0
M  V30 3179 N 293.874 -1.72141 4.75606 0
M  V30 3180 C 292.172 -2.53401 3.67021 0
M  V30 3181 C 292.873 -1.65932 5.57531 0
M  V30 3182 N 291.849 -2.11323 5.00843 0
M  V30 3183 H 295.651 -0.716499 2.85032 0
M  V30 3184 H 293.165 -0.297567 1.59651 0
M  V30 3185 H 295.162 -3.17644 2.70014 0
M  V30 3186 H 293.822 -2.84087 1.57241 0
M  V30 3187 H 294.833 -1.41268 4.98261 0
M  V30 3188 H 291.51 -2.97532 2.92884 0
M  V30 3189 H 292.9 -1.27733 6.59647 0
M  V30 3190 N 295.62 -1.53406 -0.361157 0
M  V30 3191 C 296.868 -1.69467 -1.10115 0
M  V30 3192 C 297.189 -0.451352 -1.89705 0
M  V30 3193 O 296.459 0.534636 -1.88463 0
M  V30 3194 H 295.039 -0.624749 -0.409508 0
M  V30 3195 H 297.701 -1.90609 -0.406699 0
M  V30 3196 H 296.797 -2.55774 -1.78847 0
M  V30 3197 N 297.098 0.621204 -1.44841 0
M  V30 3198 C 298.338 1.39201 -1.49674 0
M  V30 3199 C 298.702 1.91561 -0.129764 0
M  V30 3200 O 299.903 2.68748 -0.0527814 0
M  V30 3201 C 298.174 2.519 -2.53537 0
M  V30 3202 S 299.733 3.39916 -2.77494 0
M  V30 3203 H 296.551 0.474758 -0.529269 0
M  V30 3204 H 299.153 0.718171 -1.81831 0
M  V30 3205 H 297.857 2.11761 -3.51547 0
M  V30 3206 H 297.388 3.241 -2.22986 0
M  V30 3207 H 299.403 4.49646 -2.0984 0
M  V30 3208 N 298.576 1.31904 0.862503 0
M  V30 3209 C 299.823 1.22017 1.61611 0
M  V30 3210 C 300.151 -0.21991 1.93253 0
M  V30 3211 O 299.406 -1.17076 1.56817 0
M  V30 3212 C 299.705 2.01713 2.95037 0
M  V30 3213 C 299.371 3.51145 2.82857 0
M  V30 3214 C 298.033 3.91889 2.79243 0
M  V30 3215 C 300.385 4.46204 2.69353 0
M  V30 3216 C 297.713 5.25947 2.59993 0
M  V30 3217 C 300.065 5.80397 2.5164 0
M  V30 3218 C 298.729 6.20352 2.46413 0
M  V30 3219 H 297.999 0.44649 0.591378 0
M  V30 3220 H 300.646 1.63248 1.00111 0
M  V30 3221 H 298.951 1.53185 3.60613 0
M  V30 3222 H 300.648 1.91437 3.52353 0
M  V30 3223 H 297.238 3.1878 2.86491 0
M  V30 3224 H 301.422 4.15652 2.71196 0
M  V30 3225 H 296.678 5.5597 2.54376 0
M  V30 3226 H 300.852 6.53676 2.40169 0
M  V30 3227 H 298.479 7.24172 2.31256 0
M  V30 3228 N 300.054 -1.07777 1.14986 0
M  V30 3229 C 301.284 -1.83752 0.944402 0
M  V30 3230 C 301.692 -1.8218 -0.51058 0
M  V30 3231 O 301.035 -1.22852 -1.36576 0
M  V30 3232 C 301.097 -3.32128 1.37592 0
M  V30 3233 C 300.761 -3.57425 2.84775 0
M  V30 3234 C 301.758 -3.5173 3.8286 0
M  V30 3235 C 299.443 -3.8523 3.2234 0
M  V30 3236 C 301.437 -3.73482 5.16517 0
M  V30 3237 C 299.124 -4.06634 4.56171 0
M  V30 3238 C 300.122 -4.00754 5.53069 0
M  V30 3239 O 299.81 -4.2159 6.84483 0
M  V30 3240 H 299.542 -0.58673 0.335744 0
M  V30 3241 H 302.096 -1.36982 1.53052 0
M  V30 3242 H 300.326 -3.79686 0.733165 0
M  V30 3243 H 302.015 -3.89555 1.14024 0
M  V30 3244 H 302.781 -3.30256 3.55184 0
M  V30 3245 H 298.66 -3.88923 2.47508 0
M  V30 3246 H 302.204 -3.68808 5.92137 0
M  V30 3247 H 298.101 -4.27593 4.83564 0
M  V30 3248 H 298.869 -4.38961 6.90837 0
M  V30 3249 N 301.532 -0.945985 -1.26051 0
M  V30 3250 C 302.495 -0.463897 -2.24456 0
M  V30 3251 C 303.495 0.427655 -1.55009 0
M  V30 3252 O 304.685 0.226157 -1.72726 0
M  V30 3253 C 301.817 0.330812 -3.39291 0
M  V30 3254 H 303.01 -1.33357 -2.68619 0
M  V30 3255 H 300.563 -0.728416 -1.38289 0
M  V30 3256 H 301.298 1.21852 -3.00537 0
M  V30 3257 H 301.083 -0.308679 -3.90883 0
M  V30 3258 H 302.573 0.657865 -4.12386 0
M  V30 3259 N 303.011 1.40521 -0.713556 0
M  V30 3260 C 303.921 2.34522 -0.0606667 0
M  V30 3261 C 304.937 1.57193 0.74607 0
M  V30 3262 O 306.113 1.89591 0.679493 0
M  V30 3263 C 303.178 3.36081 0.851491 0
M  V30 3264 C 302.239 4.29286 0.0349339 0
M  V30 3265 C 301.472 5.25994 0.903649 0
M  V30 3266 O 301.695 5.28616 2.14292 0
M  V30 3267 O 300.629 6.00918 0.343723 0
M  V30 3268 H 304.455 2.91968 -0.835972 0
M  V30 3269 H 302.04 1.41681 -0.47402 0
M  V30 3270 H 303.922 3.98369 1.37404 0
M  V30 3271 H 302.597 2.81052 1.60598 0
M  V30 3272 H 301.504 3.70289 -0.532633 0
M  V30 3273 H 302.837 4.87462 -0.681287 0
M  V30 3274 N 304.489 0.459591 1.5075 0
M  V30 3275 C 305.905 0.113092 1.59199 0
M  V30 3276 C 306.105 -1.37951 1.46874 0
M  V30 3277 O 305.161 -2.15168 1.32132 0
M  V30 3278 C 306.474 0.653043 2.93523 0
M  V30 3279 C 308.022 0.615449 3.0689 0
M  V30 3280 C 308.497 1.13275 4.43771 0
M  V30 3281 N 309.988 1.09167 4.50152 0
M  V30 3282 C 310.723 1.46256 5.54434 0
M  V30 3283 N 310.219 1.90739 6.66026 0
M  V30 3284 N 312.012 1.37932 5.44914 0
M  V30 3285 H 304.163 1.43049 1.57005 0
M  V30 3286 H 306.426 0.590861 0.741341 0
M  V30 3287 H 306.132 1.69822 3.07983 0
M  V30 3288 H 306.006 0.0902132 3.77092 0
M  V30 3289 H 308.393 -0.420793 2.92084 0
M  V30 3290 H 308.474 1.21495 2.25106 0
M  V30 3291 H 308.118 2.16757 4.59324 0
M  V30 3292 H 308.048 0.509576 5.24129 0
M  V30 3293 H 310.539 0.76528 3.7007 0
M  V30 3294 H 310.852 2.17218 7.41644 0
M  V30 3295 H 309.197 1.94683 6.67176 0
M  V30 3296 H 312.388 1.0303 4.56621 0
M  V30 3297 H 312.561 1.67164 6.26067 0
M  V30 3298 N 305.967 -1.56429 0.191757 0
M  V30 3299 C 307.216 -1.9666 -0.448088 0
M  V30 3300 C 307.529 -1.08136 -1.62991 0
M  V30 3301 O 308.735 -1.38135 -2.33733 0
M  V30 3302 C 307.191 -3.49753 -0.848585 0
M  V30 3303 C 306.799 -4.46935 0.308764 0
M  V30 3304 C 308.543 -3.9876 -1.4557 0
M  V30 3305 C 306.45 -5.91293 -0.112506 0
M  V30 3306 H 305.38 -0.734312 -0.171179 0
M  V30 3307 H 308.031 -1.81301 0.283242 0
M  V30 3308 H 306.413 -3.60604 -1.63649 0
M  V30 3309 H 307.587 -4.47813 1.08627 0
M  V30 3310 H 305.902 -4.08102 0.827158 0
M  V30 3311 H 308.499 -5.04086 -1.78328 0
M  V30 3312 H 308.842 -3.42875 -2.36099 0
M  V30 3313 H 309.375 -3.9101 -0.731836 0
M  V30 3314 H 306.114 -6.51097 0.758514 0
M  V30 3315 H 305.634 -5.93676 -0.854941 0
M  V30 3316 H 307.313 -6.44663 -0.549448 0
M  V30 3317 N 307.445 0.0818655 -1.57387 0
M  V30 3318 C 308.692 0.782914 -1.86753 0
M  V30 3319 C 309.02 1.78082 -0.782118 0
M  V30 3320 O 308.275 1.94426 0.22295 0
M  V30 3321 C 308.574 1.53513 -3.22752 0
M  V30 3322 C 308.24 0.678134 -4.45771 0
M  V30 3323 C 306.902 0.441929 -4.79166 0
M  V30 3324 C 309.254 0.0832243 -5.21134 0
M  V30 3325 C 306.582 -0.398833 -5.85343 0
M  V30 3326 C 308.934 -0.744935 -6.28199 0
M  V30 3327 C 307.598 -0.991107 -6.60101 0
M  V30 3328 H 306.868 0.286489 -0.683378 0
M  V30 3329 H 309.515 0.0439808 -1.91449 0
M  V30 3330 H 307.82 2.34599 -3.138 0
M  V30 3331 H 309.517 2.08218 -3.42705 0
M  V30 3332 H 306.107 0.872357 -4.19628 0
M  V30 3333 H 310.291 0.252847 -4.95655 0
M  V30 3334 H 305.547 -0.598405 -6.08465 0
M  V30 3335 H 309.721 -1.21271 -6.8576 0
M  V30 3336 H 307.348 -1.64437 -7.42202 0
M  V30 3337 N 308.923 1.53595 0.353017 0
M  V30 3338 C 310.2 1.61002 1.11075 0
M  V30 3339 C 310.58 0.425356 2.0677 0
M  V30 3340 O 309.928 -0.583267 2.2093 0
M  V30 3341 C 310.138 2.96631 1.83877 0
M  V30 3342 C 311.486 3.51653 2.37961 0
M  V30 3343 O 312.51 2.98743 1.93987 0
M  V30 3344 O 311.369 4.44177 3.18386 0
M  V30 3345 H 308.463 0.650825 0.510251 0
M  V30 3346 H 311.009 1.6594 0.35527 0
M  V30 3347 H 309.781 3.74293 1.14108 0
M  V30 3348 H 309.404 2.95242 2.66304 0
M  V30 3349 N 310.401 -0.613514 1.45168 0
M  V30 3350 C 311.349 -1.74572 1.53712 0
M  V30 3351 C 312.343 -1.64426 0.407505 0
M  V30 3352 O 313.549 -1.70291 0.583176 0
M  V30 3353 H 309.924 -0.576641 0.48269 0
M  V30 3354 H 311.895 -1.64492 2.48968 0
M  V30 3355 C 310.644 -3.12943 1.51532 0
M  V30 3356 H 309.967 -3.21407 2.37776 0
M  V30 3357 H 311.407 -3.9201 1.61569 0
M  V30 3358 C 309.866 -3.36053 0.238798 0
M  V30 3359 O 310.396 -3.95837 -0.6838 0
M  V30 3360 N 308.602 -2.9028 0.136359 0
M  V30 3361 H 308.149 -2.41811 0.887999 0
M  V30 3362 H 308.107 -3.06116 -0.716944 0
M  V30 3363 N 311.879 -1.3236 -0.855495 0
M  V30 3364 C 313.125 -1.23054 -1.612 0
M  V30 3365 C 313.458 0.207404 -1.93089 0
M  V30 3366 O 312.733 1.14432 -1.57275 0
M  V30 3367 C 313.016 -2.08937 -2.93287 0
M  V30 3368 C 312.869 -3.61105 -2.68185 0
M  V30 3369 C 314.188 -1.94986 -3.94549 0
M  V30 3370 H 311.307 -0.448364 -0.584926 0
M  V30 3371 H 313.949 -1.62297 -0.987917 0
M  V30 3372 H 312.099 -1.75599 -3.46551 0
M  V30 3373 H 313.771 -4.04652 -2.21483 0
M  V30 3374 H 312.014 -3.83813 -2.02164 0
M  V30 3375 H 312.685 -4.16522 -3.62234 0
M  V30 3376 H 315.161 -2.24189 -3.5054 0
M  V30 3377 H 314.037 -2.57356 -4.84829 0
M  V30 3378 H 314.298 -0.917263 -4.3248 0
M  V30 3379 N 313.357 1.07166 -1.15556 0
M  V30 3380 C 314.305 2.16517 -0.8499 0
M  V30 3381 C 315.299 1.68468 0.177454 0
M  V30 3382 O 316.505 1.79971 0.0323026 0
M  V30 3383 H 312.88 0.706652 -0.25719 0
M  V30 3384 H 314.851 2.39514 -1.77976 0
M  V30 3385 C 313.6 3.45855 -0.357682 0
M  V30 3386 H 312.923 3.83214 -1.13961 0
M  V30 3387 H 314.363 4.23607 -0.182489 0
M  V30 3388 C 312.822 3.24062 0.921152 0
M  V30 3389 O 313.352 3.48813 1.9923 0
M  V30 3390 N 311.558 2.77539 0.86141 0
M  V30 3391 H 311.105 2.57598 -0.0104408 0
M  V30 3392 H 311.063 2.63337 1.71758 0
M  V30 3393 N 314.835 0.952656 1.25548 0
M  V30 3394 C 315.745 0.47782 2.29682 0
M  V30 3395 C 316.761 -0.453859 1.67977 0
M  V30 3396 O 317.937 -0.330587 1.98668 0
M  V30 3397 C 315.002 -0.238655 3.45878 0
M  V30 3398 C 314.063 0.730994 4.23031 0
M  V30 3399 C 313.296 0.0486165 5.33678 0
M  V30 3400 O 313.519 -1.16612 5.58353 0
M  V30 3401 O 312.453 0.733152 5.97418 0
M  V30 3402 H 316.279 1.34312 2.72386 0
M  V30 3403 H 313.864 0.719026 1.30959 0
M  V30 3404 H 315.746 -0.641774 4.16484 0
M  V30 3405 H 314.421 -1.07916 3.05181 0
M  V30 3406 H 313.328 1.18428 3.5486 0
M  V30 3407 H 314.661 1.53946 4.67506 0
M  V30 3408 N 316.313 -1.40141 0.720998 0
M  V30 3409 C 317.562 -2.0002 0.259804 0
M  V30 3410 C 317.875 -1.57839 -1.15526 0
M  V30 3411 O 319.081 -2.10455 -1.71525 0
M  V30 3412 C 317.537 -3.57516 0.413566 0
M  V30 3413 C 317.145 -4.08667 1.83562 0
M  V30 3414 C 318.889 -4.24498 0.0134387 0
M  V30 3415 C 316.796 -5.58686 1.93968 0
M  V30 3416 H 315.726 -0.748195 0.0933806 0
M  V30 3417 H 318.377 -1.60313 0.892866 0
M  V30 3418 H 316.759 -3.9495 -0.288169 0
M  V30 3419 H 317.933 -3.82598 2.56817 0
M  V30 3420 H 316.248 -3.543 2.1877 0
M  V30 3421 H 318.845 -5.34654 0.0703954 0
M  V30 3422 H 319.188 -4.03375 -1.02927 0
M  V30 3423 H 319.721 -3.92188 0.665815 0
M  V30 3424 H 316.46 -5.8467 2.96379 0
M  V30 3425 H 315.98 -5.86602 1.25131 0
M  V30 3426 H 317.659 -6.23875 1.71431 0
M  V30 3427 N 317.792 -0.46758 -1.50504 0
M  V30 3428 C 318.739 0.328413 -2.28452 0
M  V30 3429 C 319.709 0.990313 -1.33349 0
M  V30 3430 O 320.894 1.00343 -1.62284 0
M  V30 3431 C 318.034 1.40648 -3.15138 0
M  V30 3432 C 317.147 0.759709 -4.25267 0
M  V30 3433 C 316.282 1.81537 -4.99217 0
M  V30 3434 C 315.321 1.14866 -6.01226 0
M  V30 3435 N 314.458 2.14702 -6.68467 0
M  V30 3436 H 319.298 -0.342603 -2.96024 0
M  V30 3437 H 316.835 -0.180801 -1.45985 0
M  V30 3438 H 318.793 2.04315 -3.63746 0
M  V30 3439 H 317.423 2.04671 -2.49619 0
M  V30 3440 H 316.475 0.0105671 -3.80399 0
M  V30 3441 H 317.787 0.233243 -4.98254 0
M  V30 3442 H 316.941 2.52793 -5.51526 0
M  V30 3443 H 315.68 2.37564 -4.25928 0
M  V30 3444 H 314.685 0.42171 -5.4818 0
M  V30 3445 H 315.91 0.595334 -6.76485 0
M  V30 3446 H 313.856 2.69752 -5.97972 0
M  V30 3447 H 313.773 1.6703 -7.37317 0
M  V30 3448 H 315.041 2.85348 -7.25394 0
M  V30 3449 N 319.27 1.56325 -0.20005 0
M  V30 3450 C 320.22 2.15939 0.731743 0
M  V30 3451 C 321.204 1.10154 1.17281 0
M  V30 3452 O 322.396 1.36203 1.13038 0
M  V30 3453 C 319.525 2.82614 1.94895 0
M  V30 3454 C 318.611 3.95596 1.52855 0
M  V30 3455 N 319.002 4.99118 0.819418 0
M  V30 3456 C 317.3 4.07288 1.81748 0
M  V30 3457 C 318.001 5.78513 0.608053 0
M  V30 3458 N 316.977 5.31117 1.15828 0
M  V30 3459 H 320.779 2.9334 0.181285 0
M  V30 3460 H 318.293 1.624 -0.000452172 0
M  V30 3461 H 320.29 3.23718 2.62702 0
M  V30 3462 H 318.95 2.06702 2.50408 0
M  V30 3463 H 319.961 5.15723 0.47436 0
M  V30 3464 H 316.638 3.42509 2.38734 0
M  V30 3465 H 318.028 6.71885 0.0451619 0
M  V30 3466 N 320.748 -0.0735177 1.57428 0
M  V30 3467 C 321.678 -1.0879 2.06608 0
M  V30 3468 C 322.659 -1.40473 0.959237 0
M  V30 3469 O 323.844 -1.5013 1.23185 0
M  V30 3470 C 320.974 -2.40183 2.50857 0
M  V30 3471 C 319.928 -2.22858 3.65402 0
M  V30 3472 C 319.254 -3.59619 3.957 0
M  V30 3473 C 320.554 -1.65123 4.95511 0
M  V30 3474 H 322.248 -0.678673 2.91607 0
M  V30 3475 H 319.794 -0.325013 1.40284 0
M  V30 3476 H 321.747 -3.11437 2.83874 0
M  V30 3477 H 320.471 -2.83083 1.62885 0
M  V30 3478 H 319.13 -1.54045 3.32664 0
M  V30 3479 H 318.778 -4.00086 3.04861 0
M  V30 3480 H 318.478 -3.48866 4.72828 0
M  V30 3481 H 320.002 -4.32306 4.31212 0
M  V30 3482 H 321.416 -2.26241 5.26771 0
M  V30 3483 H 319.813 -1.65071 5.7695 0
M  V30 3484 H 320.883 -0.612559 4.81015 0
M  V30 3485 N 322.226 -1.5378 -0.344866 0
M  V30 3486 C 323.503 -1.61589 -1.10219 0
M  V30 3487 C 323.883 -0.436316 -2.06542 0
M  V30 3488 O 323.231 0.571543 -2.21237 0
M  V30 3489 C 323.441 -2.97602 -1.82301 0
M  V30 3490 C 324.789 -3.5291 -2.36093 0
M  V30 3491 O 325.813 -2.99768 -1.924 0
M  V30 3492 O 324.672 -4.45859 -3.16026 0
M  V30 3493 H 321.766 -0.653522 -0.506792 0
M  V30 3494 H 324.312 -1.66126 -0.346465 0
M  V30 3495 H 323.084 -3.74893 -1.12121 0
M  V30 3496 H 322.707 -2.9665 -2.64735 0
M  V30 3497 N 323.704 0.605807 -1.45491 0
M  V30 3498 C 324.929 1.39625 -1.53361 0
M  V30 3499 C 325.354 1.87351 -0.167645 0
M  V30 3500 O 324.712 1.60243 0.848051 0
M  V30 3501 C 324.76 2.57559 -2.5238 0
M  V30 3502 O 323.864 3.58248 -2.04285 0
M  V30 3503 H 323.205 0.416771 -0.516912 0
M  V30 3504 H 325.735 0.737103 -1.90861 0
M  V30 3505 H 325.745 3.0478 -2.71244 0
M  V30 3506 H 324.42 2.22171 -3.51586 0
M  V30 3507 H 322.997 3.17664 -1.95305 0
M  V30 3508 N 325.182 1.32811 0.848464 0
M  V30 3509 C 326.429 1.23724 1.60308 0
M  V30 3510 C 326.757 -0.1994 1.93475 0
M  V30 3511 O 326.012 -1.15406 1.5805 0
M  V30 3512 C 326.311 2.04831 2.92881 0
M  V30 3513 C 325.977 3.54125 2.79117 0
M  V30 3514 C 324.639 3.94829 2.7507 0
M  V30 3515 C 326.991 4.49036 2.64606 0
M  V30 3516 C 324.319 5.28675 2.544 0
M  V30 3517 C 326.671 5.83033 2.4547 0
M  V30 3518 C 325.335 6.22931 2.39819 0
M  V30 3519 H 324.605 0.452737 0.586609 0
M  V30 3520 H 327.252 1.64301 0.983743 0
M  V30 3521 H 325.557 1.57001 3.58968 0
M  V30 3522 H 327.254 1.95164 3.50303 0
M  V30 3523 H 323.844 3.21801 2.83094 0
M  V30 3524 H 328.028 4.18505 2.66772 0
M  V30 3525 H 323.284 5.58637 2.48465 0
M  V30 3526 H 327.458 6.56186 2.33222 0
M  V30 3527 H 325.085 7.26584 2.23562 0
M  V30 3528 N 326.66 -1.06551 1.16123 0
M  V30 3529 C 327.888 -1.83005 0.965237 0
M  V30 3530 C 328.303 -1.82423 -0.486542 0
M  V30 3531 O 327.66 -1.24152 -1.33763 0
M  V30 3532 C 327.711 -3.29733 1.48183 0
M  V30 3533 O 327.432 -3.30416 2.87674 0
M  V30 3534 C 328.933 -4.22926 1.32848 0
M  V30 3535 H 326.153 -0.577118 0.342309 0
M  V30 3536 H 328.697 -1.3445 1.54089 0
M  V30 3537 H 326.852 -3.75609 0.948517 0
M  V30 3538 H 327.266 -4.22149 3.11272 0
M  V30 3539 H 328.74 -5.23916 1.73827 0
M  V30 3540 H 329.217 -4.38346 0.273692 0
M  V30 3541 H 329.823 -3.82894 1.85127 0
M  V30 3542 N 328.138 -0.959301 -1.25041 0
M  V30 3543 C 329.387 -0.612254 -1.92183 0
M  V30 3544 C 329.7 0.855347 -1.75907 0
M  V30 3545 O 330.906 1.31256 -2.37664 0
M  V30 3546 C 329.362 -1.04435 -3.44414 0
M  V30 3547 C 328.97 -2.53482 -3.69393 0
M  V30 3548 C 330.714 -0.770055 -4.17457 0
M  V30 3549 C 328.621 -2.90468 -5.15153 0
M  V30 3550 H 327.551 -0.225279 -0.719559 0
M  V30 3551 H 330.202 -1.16438 -1.41825 0
M  V30 3552 H 328.584 -0.4206 -3.9376 0
M  V30 3553 H 329.758 -3.20916 -3.30681 0
M  V30 3554 H 328.073 -2.78432 -3.0962 0
M  V30 3555 H 330.67 -1.02249 -5.24832 0
M  V30 3556 H 331.013 0.293611 -4.15263 0
M  V30 3557 H 331.546 -1.35437 -3.74034 0
M  V30 3558 H 328.285 -3.95871 -5.22462 0
M  V30 3559 H 327.805 -2.27711 -5.54894 0
M  V30 3560 H 329.484 -2.79914 -5.83315 0
M  V30 3561 N 329.616 1.39756 -0.72842 0
M  V30 3562 C 330.893 1.94574 -0.200079 0
M  V30 3563 C 331.273 1.66569 1.29684 0
M  V30 3564 O 330.621 0.990326 2.05924 0
M  V30 3565 C 330.831 3.45004 -0.526608 0
M  V30 3566 C 332.179 4.21965 -0.472318 0
M  V30 3567 O 333.203 3.53173 -0.463413 0
M  V30 3568 O 332.062 5.44552 -0.461075 0
M  V30 3569 H 329.156 0.826289 -0.0342851 0
M  V30 3570 H 331.702 1.49293 -0.806829 0
M  V30 3571 H 330.474 3.58796 -1.56144 0
M  V30 3572 H 330.097 3.97449 0.109449 0
M  V30 3573 N 331.094 0.475555 1.50254 0
M  V30 3574 C 332.041 -0.316293 2.28622 0
M  V30 3575 C 333.011 -0.983227 1.33873 0
M  V30 3576 O 334.196 -0.994805 1.62814 0
M  V30 3577 C 331.336 -1.38975 3.1588 0
M  V30 3578 C 330.449 -0.737146 4.25664 0
M  V30 3579 C 329.584 -1.78887 5.00173 0
M  V30 3580 C 328.623 -1.11676 6.01826 0
M  V30 3581 N 327.76 -2.11154 6.69596 0
M  V30 3582 H 332.6 0.358297 2.95838 0
M  V30 3583 H 330.137 0.188541 1.45887 0
M  V30 3584 H 332.095 -2.02383 3.64825 0
M  V30 3585 H 330.725 -2.03344 2.50701 0
M  V30 3586 H 329.777 0.0096065 3.80399 0
M  V30 3587 H 331.089 -0.206816 4.98371 0
M  V30 3588 H 330.243 -2.49865 5.52859 0
M  V30 3589 H 328.982 -2.35302 4.27182 0
M  V30 3590 H 327.987 -0.392633 5.48396 0
M  V30 3591 H 329.212 -0.55945 6.76792 0
M  V30 3592 H 327.158 -2.66577 5.99394 0
M  V30 3593 H 327.075 -1.63118 7.38193 0
M  V30 3594 H 328.343 -2.81497 7.26897 0
M  V30 3595 N 332.573 -1.56217 0.208337 0
M  V30 3596 C 333.85 -1.89739 -0.475234 0
M  V30 3597 C 334.23 -1.1238 -1.78701 0
M  V30 3598 O 333.578 -0.228979 -2.2735 0
M  V30 3599 C 333.788 -3.42289 -0.681101 0
M  V30 3600 C 335.136 -4.12789 -0.994507 0
M  V30 3601 O 336.16 -3.47814 -0.768357 0
M  V30 3602 O 335.019 -5.27649 -1.42299 0
M  V30 3603 H 332.113 -0.788478 -0.249461 0
M  V30 3604 H 334.659 -1.67855 0.249538 0
M  V30 3605 H 333.431 -3.90534 0.244722 0
M  V30 3606 H 333.054 -3.69909 -1.45785 0
M  V30 3607 N 334.051 0.0651679 -1.57465 0
M  V30 3608 C 335.276 0.779605 -1.9219 0
M  V30 3609 C 335.701 1.69988 -0.805333 0
M  V30 3610 O 335.059 1.79685 0.241435 0
M  V30 3611 C 335.107 1.54364 -3.2589 0
M  V30 3612 O 334.211 2.65474 -3.1559 0
M  V30 3613 H 333.552 0.212249 -0.629163 0
M  V30 3614 H 336.082 0.0314294 -2.04576 0
M  V30 3615 H 336.092 1.92146 -3.59922 0
M  V30 3616 H 334.767 0.868457 -4.06732 0
M  V30 3617 H 333.344 2.30501 -2.93128 0
M  V30 3618 N 335.529 1.53961 0.336706 0
M  V30 3619 C 336.461 1.78751 1.4346 0
M  V30 3620 C 337.474 0.669019 1.48418 0
M  V30 3621 O 338.663 0.945884 1.51378 0
M  V30 3622 C 335.763 1.87844 2.82078 0
M  V30 3623 C 334.936 3.17854 3.00479 0
M  V30 3624 C 333.995 3.17816 4.19379 0
M  V30 3625 O 333.021 3.91511 4.13168 0
M  V30 3626 N 334.223 2.40669 5.2826 0
M  V30 3627 H 336.988 2.73493 1.22563 0
M  V30 3628 H 334.549 1.53096 0.526625 0
M  V30 3629 H 336.541 1.85261 3.59806 0
M  V30 3630 H 335.111 1.00257 2.96086 0
M  V30 3631 H 334.331 3.33504 2.10163 0
M  V30 3632 H 335.619 4.03718 3.0966 0
M  V30 3633 H 335.017 1.8036 5.36178 0
M  V30 3634 H 333.574 2.43877 6.04456 0
M  V30 3635 N 337.007 -0.598083 1.45811 0
M  V30 3636 C 337.955 -1.72932 1.55555 0
M  V30 3637 C 338.949 -1.63984 0.424921 0
M  V30 3638 O 340.155 -1.69663 0.601205 0
M  V30 3639 H 336.53 -0.571489 0.488779 0
M  V30 3640 H 338.501 -1.61842 2.50699 0
M  V30 3641 C 337.25 -3.11318 1.54843 0
M  V30 3642 H 336.573 -3.18867 2.41172 0
M  V30 3643 H 338.013 -3.90274 1.65717 0
M  V30 3644 C 336.472 -3.3578 0.274427 0
M  V30 3645 O 337.002 -3.9654 -0.641778 0
M  V30 3646 N 335.208 -2.90119 0.167139 0
M  V30 3647 H 334.755 -2.40855 0.913596 0
M  V30 3648 H 334.713 -3.0686 -0.684435 0
M  V30 3649 N 338.485 -1.33259 -0.841409 0
M  V30 3650 C 339.731 -1.24757 -1.59886 0
M  V30 3651 C 340.064 0.186913 -1.93298 0
M  V30 3652 O 339.339 1.12757 -1.5848 0
M  V30 3653 C 339.622 -2.12036 -2.91055 0
M  V30 3654 C 339.475 -3.63929 -2.6434 0
M  V30 3655 C 340.794 -1.9916 -3.92458 0
M  V30 3656 H 337.913 -0.454542 -0.580138 0
M  V30 3657 H 340.555 -1.63335 -0.970647 0
M  V30 3658 H 338.705 -1.79265 -3.44669 0
M  V30 3659 H 340.377 -4.06978 -2.17178 0
M  V30 3660 H 338.62 -3.85935 -1.98082 0
M  V30 3661 H 339.291 -4.20341 -3.57796 0
M  V30 3662 H 341.767 -2.27895 -3.48143 0
M  V30 3663 H 340.643 -2.62484 -4.82072 0
M  V30 3664 H 340.904 -0.963082 -4.31482 0
M  V30 3665 N 339.963 1.05934 -1.16686 0
M  V30 3666 C 340.893 2.1546 -0.899949 0
M  V30 3667 C 341.874 1.69391 0.155154 0
M  V30 3668 O 343.059 1.94199 0.00648693 0
M  V30 3669 C 340.189 3.44939 -0.404241 0
M  V30 3670 C 339.143 4.04536 -1.39767 0
M  V30 3671 C 338.469 5.29268 -0.760216 0
M  V30 3672 C 339.769 4.42893 -2.76845 0
M  V30 3673 H 341.463 2.38046 -1.81588 0
M  V30 3674 H 339.009 1.14404 -0.874514 0
M  V30 3675 H 340.962 4.20901 -0.204971 0
M  V30 3676 H 339.686 3.21983 0.547206 0
M  V30 3677 H 338.345 3.30635 -1.58355 0
M  V30 3678 H 337.993 5.02611 0.197831 0
M  V30 3679 H 337.693 5.70101 -1.42332 0
M  V30 3680 H 339.217 6.07924 -0.57105 0
M  V30 3681 H 340.631 5.09921 -2.62019 0
M  V30 3682 H 339.028 4.94721 -3.39663 0
M  V30 3683 H 340.098 3.53584 -3.31823 0
M  V30 3684 N 341.441 0.965919 1.2453 0
M  V30 3685 C 342.373 0.452465 2.2469 0
M  V30 3686 C 343.386 -0.437821 1.56802 0
M  V30 3687 O 344.575 -0.244283 1.76821 0
M  V30 3688 C 341.675 -0.366258 3.36915 0
M  V30 3689 C 340.848 0.513701 4.34373 0
M  V30 3690 C 339.907 -0.248716 5.25612 0
M  V30 3691 O 338.933 0.356745 5.68081 0
M  V30 3692 N 340.135 -1.53877 5.59734 0
M  V30 3693 H 342.9 1.31361 2.69378 0
M  V30 3694 H 340.461 0.837541 1.38553 0
M  V30 3695 H 342.453 -0.884297 3.94921 0
M  V30 3696 H 341.023 -1.12832 2.91526 0
M  V30 3697 H 340.243 1.21273 3.75082 0
M  V30 3698 H 341.531 1.11391 4.96457 0
M  V30 3699 H 340.929 -2.05243 5.27154 0
M  V30 3700 H 339.486 -2.00254 6.20275 0
M  V30 3701 N 342.919 -1.39368 0.735821 0
M  V30 3702 C 344.147 -2.04795 0.294393 0
M  V30 3703 C 344.562 -1.55478 -1.07107 0
M  V30 3704 O 343.919 -0.720038 -1.67695 0
M  V30 3705 C 343.97 -3.6035 0.288071 0
M  V30 3706 O 343.691 -4.07852 1.59963 0
M  V30 3707 C 345.192 -4.42976 -0.169422 0
M  V30 3708 H 342.412 -0.658571 0.128551 0
M  V30 3709 H 344.956 -1.78399 0.999701 0
M  V30 3710 H 343.111 -3.85645 -0.368355 0
M  V30 3711 H 343.525 -5.02181 1.51375 0
M  V30 3712 H 344.999 -5.51864 -0.122687 0
M  V30 3713 H 345.476 -4.22068 -1.21472 0
M  V30 3714 H 346.082 -4.22832 0.457469 0
M  V30 3715 N 344.397 -0.483516 -1.5 0
M  V30 3716 C 345.644 0.0671597 -2.02389 0
M  V30 3717 C 345.972 1.38597 -1.36459 0
M  V30 3718 O 345.227 1.89634 -0.483458 0
M  V30 3719 C 345.526 0.286226 -3.56252 0
M  V30 3720 C 345.192 -0.952416 -4.40726 0
M  V30 3721 C 343.854 -1.29199 -4.63531 0
M  V30 3722 C 346.206 -1.77655 -4.89988 0
M  V30 3723 C 343.534 -2.45553 -5.32842 0
M  V30 3724 C 345.886 -2.93147 -5.60578 0
M  V30 3725 C 344.55 -3.27505 -5.81633 0
M  V30 3726 H 343.82 0.0245755 -0.740592 0
M  V30 3727 H 346.467 -0.640124 -1.80485 0
M  V30 3728 H 344.772 1.07587 -3.76739 0
M  V30 3729 H 346.469 0.726473 -3.94365 0
M  V30 3730 H 343.059 -0.677881 -4.23205 0
M  V30 3731 H 347.243 -1.52737 -4.72213 0
M  V30 3732 H 342.499 -2.72431 -5.47349 0
M  V30 3733 H 346.673 -3.57344 -5.97727 0
M  V30 3734 H 344.3 -4.1777 -6.35116 0
M  V30 3735 N 345.875 1.56104 -0.216619 0
M  V30 3736 C 347.103 2.02563 0.421413 0
M  V30 3737 C 347.518 1.0965 1.53695 0
M  V30 3738 O 346.875 0.10521 1.82196 0
M  V30 3739 C 346.926 3.48584 0.957665 0
M  V30 3740 O 346.647 4.37953 -0.113389 0
M  V30 3741 C 348.148 4.10664 1.66943 0
M  V30 3742 H 345.368 0.662944 0.103665 0
M  V30 3743 H 347.912 2.01793 -0.331629 0
M  V30 3744 H 346.067 3.49985 1.661 0
M  V30 3745 H 346.481 5.23704 0.288932 0
M  V30 3746 H 347.955 5.14622 1.99671 0
M  V30 3747 H 348.432 3.55373 2.58083 0
M  V30 3748 H 349.038 4.13098 1.01142 0
M  V30 3749 N 347.353 -0.0568162 1.57498 0
M  V30 3750 C 348.583 -0.764515 1.91934 0
M  V30 3751 C 348.991 -1.70877 0.81227 0
M  V30 3752 O 348.334 -1.82351 -0.222213 0
M  V30 3753 C 348.396 -1.5994 3.21962 0
M  V30 3754 C 348.06 -0.822925 4.4953 0
M  V30 3755 C 349.057 -0.135464 5.19723 0
M  V30 3756 C 346.742 -0.785666 4.96117 0
M  V30 3757 C 348.736 0.578861 6.34766 0
M  V30 3758 C 346.423 -0.0675784 6.11063 0
M  V30 3759 C 347.421 0.613471 6.80239 0
M  V30 3760 O 347.109 1.31996 7.92989 0
M  V30 3761 H 346.841 -0.221647 0.63863 0
M  V30 3762 H 349.395 -0.0268218 2.05382 0
M  V30 3763 H 347.625 -2.38026 3.04763 0
M  V30 3764 H 349.314 -2.18715 3.41934 0
M  V30 3765 H 350.08 -0.155458 4.84751 0
M  V30 3766 H 345.959 -1.30524 4.42136 0
M  V30 3767 H 349.503 1.111 6.88696 0
M  V30 3768 H 345.4 -0.0455636 6.45484 0
M  V30 3769 H 346.168 1.23077 8.09194 0
M  V30 3770 N 348.832 -1.54138 -0.328536 0
M  V30 3771 C 350.109 -1.62749 -1.08499 0
M  V30 3772 C 350.489 -0.458198 -2.06067 0
M  V30 3773 O 349.837 0.548046 -2.2183 0
M  V30 3774 C 350.047 -2.99519 -1.79135 0
M  V30 3775 C 351.395 -3.55394 -2.32337 0
M  V30 3776 O 352.419 -3.01792 -1.89209 0
M  V30 3777 O 351.278 -4.49186 -3.11279 0
M  V30 3778 H 348.372 -0.65886 -0.499832 0
M  V30 3779 H 350.918 -1.66484 -0.328826 0
M  V30 3780 H 349.69 -3.76061 -1.08139 0
M  V30 3781 H 349.313 -2.99441 -2.61574 0
M  V30 3782 N 350.31 0.590341 -1.46126 0
M  V30 3783 C 351.538 1.37504 -1.54597 0
M  V30 3784 C 351.953 1.87897 -0.184447 0
M  V30 3785 O 351.31 1.63192 0.816984 0
M  V30 3786 C 351.361 2.56779 -2.54454 0
M  V30 3787 O 351.082 2.08476 -3.85317 0
M  V30 3788 C 352.583 3.49427 -2.72792 0
M  V30 3789 H 349.803 0.420325 -0.523037 0
M  V30 3790 H 352.347 0.718383 -1.91467 0
M  V30 3791 H 350.502 3.1845 -2.20609 0
M  V30 3792 H 350.916 2.86097 -4.396 0
M  V30 3793 H 352.39 4.29619 -3.466 0
M  V30 3794 H 352.867 4.00876 -1.79429 0
M  V30 3795 H 353.473 2.93598 -3.07702 0
M  V30 3796 N 351.788 1.33704 0.83433 0
M  V30 3797 C 352.735 1.24335 1.94447 0
M  V30 3798 C 353.705 0.120991 1.65659 0
M  V30 3799 O 354.89 0.300035 1.88426 0
M  V30 3800 C 352.03 0.993124 3.30501 0
M  V30 3801 C 351.143 2.20217 3.71657 0
M  V30 3802 C 350.278 1.88572 4.96602 0
M  V30 3803 C 349.317 3.05683 5.30306 0
M  V30 3804 N 348.454 2.73997 6.46429 0
M  V30 3805 H 353.294 2.1928 2.01792 0
M  V30 3806 H 350.831 1.09035 0.987404 0
M  V30 3807 H 352.789 0.828467 4.08892 0
M  V30 3808 H 351.419 0.0803902 3.227 0
M  V30 3809 H 350.471 2.47642 2.88752 0
M  V30 3810 H 351.783 3.07752 3.92543 0
M  V30 3811 H 350.937 1.68776 5.82752 0
M  V30 3812 H 349.676 0.982799 4.77695 0
M  V30 3813 H 348.681 3.26088 4.42659 0
M  V30 3814 H 349.906 3.96737 5.51159 0
M  V30 3815 H 347.852 1.86268 6.28999 0
M  V30 3816 H 347.769 3.55064 6.67432 0
M  V30 3817 H 349.037 2.57679 7.35678 0
M  V30 3818 N 353.266 -1.05314 1.17247 0
M  V30 3819 C 354.196 -2.1498 0.911362 0
M  V30 3820 C 355.177 -1.69471 -0.146169 0
M  V30 3821 O 356.362 -1.942 0.003812 0
M  V30 3822 C 353.492 -3.4472 0.422528 0
M  V30 3823 C 352.446 -4.03789 1.4191 0
M  V30 3824 C 351.772 -5.28858 0.788274 0
M  V30 3825 C 353.072 -4.41418 2.7919 0
M  V30 3826 H 354.766 -2.3708 1.82848 0
M  V30 3827 H 352.312 -1.13938 0.880569 0
M  V30 3828 H 354.265 -4.20787 0.227289 0
M  V30 3829 H 352.989 -3.22269 -0.530123 0
M  V30 3830 H 351.648 -3.2979 1.60106 0
M  V30 3831 H 351.296 -5.02709 -0.171173 0
M  V30 3832 H 350.996 -5.69338 1.45353 0
M  V30 3833 H 352.52 -6.07612 0.603282 0
M  V30 3834 H 353.934 -5.08524 2.64719 0
M  V30 3835 H 352.331 -4.92913 3.42282 0
M  V30 3836 H 353.401 -3.51819 3.33693 0
M  V30 3837 N 354.744 -0.972509 -1.24016 0
M  V30 3838 C 355.692 -0.498562 -2.27194 0
M  V30 3839 C 356.686 0.440372 -1.63576 0
M  V30 3840 O 357.892 0.315133 -1.7722 0
M  V30 3841 H 354.267 -0.142775 -0.738322 0
M  V30 3842 H 356.238 -1.38065 -2.64539 0
M  V30 3843 C 354.987 0.191072 -3.47175 0
M  V30 3844 H 354.31 -0.522318 -3.96373 0
M  V30 3845 H 355.75 0.486445 -4.212 0
M  V30 3846 C 354.209 1.41967 -3.05527 0
M  V30 3847 O 354.739 2.51642 -3.13112 0
M  V30 3848 N 352.945 1.28746 -2.60524 0
M  V30 3849 H 352.492 0.395089 -2.54552 0
M  V30 3850 H 352.45 2.11061 -2.33025 0
M  V30 3851 N 356.222 1.38976 -0.743202 0
M  V30 3852 C 357.17 2.32394 -0.0978389 0
M  V30 3853 C 358.164 1.53486 0.716824 0
M  V30 3854 O 359.37 1.69092 0.617088 0
M  V30 3855 H 355.745 0.75189 -0.0128402 0
M  V30 3856 H 357.716 2.84441 -0.901981 0
M  V30 3857 C 356.465 3.38629 0.789036 0
M  V30 3858 H 355.788 3.99432 0.171559 0
M  V30 3859 H 357.228 4.06426 1.20807 0
M  V30 3860 C 355.687 2.76347 1.92702 0
M  V30 3861 O 356.217 2.64836 3.02034 0
M  V30 3862 N 354.423 2.34311 1.71891 0
M  V30 3863 H 353.97 2.43873 0.829675 0
M  V30 3864 H 353.928 1.9298 2.48205 0
M  V30 3865 N 357.7 0.491464 1.49741 0
M  V30 3866 C 358.949 -0.0582189 2.01616 0
M  V30 3867 C 359.262 -1.38927 1.3769 0
M  V30 3868 O 360.468 -2.02509 1.80838 0
M  V30 3869 C 358.924 -0.154235 3.59569 0
M  V30 3870 C 358.532 1.1696 4.32463 0
M  V30 3871 C 360.276 -0.65479 4.1942 0
M  V30 3872 C 358.183 1.03627 5.8225 0
M  V30 3873 H 357.113 -0.0255317 0.753568 0
M  V30 3874 H 359.764 0.629445 1.72367 0
M  V30 3875 H 358.146 -0.906138 3.85493 0
M  V30 3876 H 359.32 1.93405 4.18248 0
M  V30 3877 H 357.635 1.60285 3.84315 0
M  V30 3878 H 360.232 -0.771903 5.29099 0
M  V30 3879 H 360.575 -1.65127 3.8215 0
M  V30 3880 H 361.108 0.040304 3.9778 0
M  V30 3881 H 357.847 2.00672 6.24028 0
M  V30 3882 H 357.367 0.312546 5.98985 0
M  V30 3883 H 359.046 0.711114 6.4308 0
M  V30 3884 N 359.178 -1.55987 0.224894 0
M  V30 3885 C 360.108 -2.23426 -0.678457 0
M  V30 3886 C 361.089 -1.20709 -1.19847 0
M  V30 3887 O 362.274 -1.49304 -1.24186 0
M  V30 3888 C 359.404 -2.91676 -1.88527 0
M  V30 3889 C 358.358 -4.00893 -1.49896 0
M  V30 3890 C 357.684 -4.56455 -2.78483 0
M  V30 3891 C 358.984 -5.17769 -0.686461 0
M  V30 3892 H 360.678 -2.99175 -0.116173 0
M  V30 3893 H 358.224 -1.43897 -0.054436 0
M  V30 3894 H 360.177 -3.37547 -2.5227 0
M  V30 3895 H 358.901 -2.1338 -2.47258 0
M  V30 3896 H 357.56 -3.55758 -0.884985 0
M  V30 3897 H 357.208 -3.74886 -3.35365 0
M  V30 3898 H 356.908 -5.30169 -2.53368 0
M  V30 3899 H 358.432 -5.05047 -3.43162 0
M  V30 3900 H 359.846 -5.60001 -1.22767 0
M  V30 3901 H 358.243 -5.97735 -0.532259 0
M  V30 3902 H 359.313 -4.83932 0.306196 0
M  V30 3903 N 360.656 0.0484629 -1.57525 0
M  V30 3904 C 361.604 1.07359 -2.06341 0
M  V30 3905 C 362.598 1.3865 -0.973269 0
M  V30 3906 O 363.804 1.37783 -1.15827 0
M  V30 3907 H 360.179 0.363662 -0.65822 0
M  V30 3908 H 362.15 0.635916 -2.91545 0
M  V30 3909 C 360.899 2.37198 -2.54229 0
M  V30 3910 H 360.222 2.13977 -3.37719 0
M  V30 3911 H 361.662 3.07319 -2.92115 0
M  V30 3912 C 360.121 3.04805 -1.43511 0
M  V30 3913 O 360.651 3.93848 -0.79034 0
M  V30 3914 N 358.857 2.65811 -1.17444 0
M  V30 3915 H 358.404 1.93488 -1.70059 0
M  V30 3916 H 358.362 3.11366 -0.435737 0
M  V30 3917 N 362.134 1.5431 0.320358 0
M  V30 3918 C 363.359 1.76954 1.08175 0
M  V30 3919 C 363.784 0.518193 1.80821 0
M  V30 3920 O 363.142 -0.530411 1.73368 0
M  V30 3921 C 363.19 2.96451 2.05303 0
M  V30 3922 O 362.294 2.68221 3.13259 0
M  V30 3923 H 361.635 0.586275 0.311733 0
M  V30 3924 H 364.165 2.01342 0.363676 0
M  V30 3925 H 364.175 3.23887 2.48116 0
M  V30 3926 H 362.85 3.87196 1.51829 0
M  V30 3927 H 361.427 2.51744 2.75099 0
M  V30 3928 N 363.613 -0.582584 1.46437 0
M  V30 3929 C 364.561 -1.71272 1.5738 0
M  V30 3930 C 365.555 -1.63524 0.44229 0
M  V30 3931 O 366.761 -1.69016 0.619166 0
M  V30 3932 H 363.136 -0.566273 0.494813 0
M  V30 3933 H 365.107 -1.59174 2.52401 0
M  V30 3934 C 363.856 -3.09658 1.58136 0
M  V30 3935 H 363.179 -3.16291 2.44541 0
M  V30 3936 H 364.619 -3.88494 1.69847 0
M  V30 3937 C 363.078 -3.3547 0.310026 0
M  V30 3938 O 363.608 -3.97199 -0.599683 0
M  V30 3939 N 361.814 -2.89925 0.197901 0
M  V30 3940 H 361.361 -2.39873 0.93909 0
M  V30 3941 H 361.319 -3.07568 -0.65185 0
M  V30 3942 N 365.091 -1.34144 -0.827227 0
M  V30 3943 C 366.039 -1.25364 -1.95925 0
M  V30 3944 C 367.033 -0.152608 -1.68711 0
M  V30 3945 O 368.239 -0.317311 -1.77181 0
M  V30 3946 H 364.614 -0.389342 -0.643364 0
M  V30 3947 H 366.585 -2.21045 -2.00454 0
M  V30 3948 C 365.334 -1.02158 -3.32354 0
M  V30 3949 H 364.657 -1.86111 -3.5384 0
M  V30 3950 H 366.097 -1.00048 -4.12027 0
M  V30 3951 C 364.556 0.275244 -3.35774 0
M  V30 3952 O 365.086 1.27806 -3.80826 0
M  V30 3953 N 363.292 0.306853 -2.88975 0
M  V30 3954 H 362.839 -0.509777 -2.52506 0
M  V30 3955 H 362.797 1.17432 -2.91646 0
M  V30 3956 N 366.569 1.04691 -1.17803 0
M  V30 3957 C 367.502 2.12068 -0.842765 0
M  V30 3958 C 368.48 1.61455 0.192608 0
M  V30 3959 O 369.664 1.88359 0.072995 0
M  V30 3960 C 366.791 3.37715 -0.258063 0
M  V30 3961 C 365.837 4.07164 -1.26962 0
M  V30 3962 S 366.67 4.55047 -2.82299 0
M  V30 3963 C 367.826 5.83935 -2.25323 0
M  V30 3964 H 368.059 2.4018 -1.75217 0
M  V30 3965 H 365.592 1.17366 -1.00323 0
M  V30 3966 H 367.55 4.10435 0.0727935 0
M  V30 3967 H 366.211 3.0773 0.629357 0
M  V30 3968 H 365.404 4.9746 -0.809263 0
M  V30 3969 H 365.006 3.40533 -1.54639 0
M  V30 3970 H 367.298 6.57552 -1.63192 0
M  V30 3971 H 368.241 6.34725 -3.13894 0
M  V30 3972 H 368.649 5.3874 -1.68582 0
M  V30 3973 N 368.047 0.979072 1.23499 0
M  V30 3974 C 368.977 0.537606 2.27227 0
M  V30 3975 C 369.958 -0.428539 1.64613 0
M  V30 3976 O 371.143 -0.322191 1.91509 0
M  V30 3977 C 368.273 -0.162052 3.46922 0
M  V30 3978 C 367.227 0.721242 4.21879 0
M  V30 3979 C 366.553 -0.110555 5.34586 0
M  V30 3980 C 367.853 2.01141 4.82016 0
M  V30 3981 H 369.547 1.40462 2.64406 0
M  V30 3982 H 367.093 0.67684 1.27102 0
M  V30 3983 H 369.046 -0.482192 4.18632 0
M  V30 3984 H 367.77 -1.06351 3.08799 0
M  V30 3985 H 366.429 1.02482 3.51984 0
M  V30 3986 H 366.077 -1.0125 4.92704 0
M  V30 3987 H 365.777 0.477325 5.85658 0
M  V30 3988 H 367.301 -0.425107 6.09118 0
M  V30 3989 H 368.715 1.75612 5.45741 0
M  V30 3990 H 367.112 2.54695 5.43369 0
M  V30 3991 H 368.182 2.69909 4.02836 0
M  V30 3992 N 369.525 -1.3858 0.750561 0
M  V30 3993 C 370.755 -2.04175 0.31564 0
M  V30 3994 C 371.163 -1.56726 -1.05989 0
M  V30 3995 O 370.506 -0.734225 -1.68389 0
M  V30 3996 C 370.568 -3.58585 0.256389 0
M  V30 3997 C 370.232 -4.29077 1.57296 0
M  V30 3998 C 371.229 -4.54656 2.52159 0
M  V30 3999 C 368.914 -4.67324 1.84156 0
M  V30 4000 C 370.908 -5.17512 3.72103 0
M  V30 4001 C 368.595 -5.29905 3.04374 0
M  V30 4002 C 369.593 -5.54933 3.98168 0
M  V30 4003 O 369.281 -6.16212 5.16273 0
M  V30 4004 H 369.013 -0.662742 0.133226 0
M  V30 4005 H 371.567 -1.78313 1.01948 0
M  V30 4006 H 369.797 -3.83406 -0.503677 0
M  V30 4007 H 371.486 -4.05628 -0.148612 0
M  V30 4008 H 372.252 -4.25539 2.32683 0
M  V30 4009 H 368.131 -4.47191 1.11988 0
M  V30 4010 H 371.675 -5.36963 4.45327 0
M  V30 4011 H 367.572 -5.58444 3.23745 0
M  V30 4012 H 368.34 -6.34701 5.16815 0
M  V30 4013 N 371.003 -0.499398 -1.49478 0
M  V30 4014 C 371.95 0.279881 -2.29097 0
M  V30 4015 C 372.92 0.961805 -1.3542 0
M  V30 4016 O 374.105 0.968777 -1.64376 0
M  V30 4017 C 371.245 1.33932 -3.18051 0
M  V30 4018 C 370.358 0.669333 -4.26783 0
M  V30 4019 C 369.493 1.70907 -5.02955 0
M  V30 4020 C 368.532 1.02087 -6.03527 0
M  V30 4021 N 367.669 2.00474 -6.7287 0
M  V30 4022 H 372.509 -0.405317 -2.95231 0
M  V30 4023 H 370.046 -0.211726 -1.45568 0
M  V30 4024 H 372.004 1.96553 -3.67998 0
M  V30 4025 H 370.634 1.9933 -2.53904 0
M  V30 4026 H 369.686 -0.0701234 -3.80335 0
M  V30 4027 H 370.998 0.127503 -4.98637 0
M  V30 4028 H 370.152 2.41037 -5.56764 0
M  V30 4029 H 368.891 2.28476 -4.30871 0
M  V30 4030 H 367.896 0.305338 -5.48951 0
M  V30 4031 H 369.121 0.451708 -6.77596 0
M  V30 4032 H 367.067 2.57007 -6.03559 0
M  V30 4033 H 366.984 1.51353 -7.40694 0
M  V30 4034 H 368.252 2.69897 -7.31284 0
M  V30 4035 N 372.481 1.55866 -0.233164 0
M  V30 4036 C 373.728 1.98603 0.395374 0
M  V30 4037 C 374.056 1.12105 1.58942 0
M  V30 4038 O 373.311 0.168656 1.94972 0
M  V30 4039 C 373.61 3.46856 0.861724 0
M  V30 4040 C 373.276 4.50348 -0.223066 0
M  V30 4041 C 371.938 4.78371 -0.521038 0
M  V30 4042 C 374.29 5.12355 -0.956124 0
M  V30 4043 C 371.618 5.6568 -1.55638 0
M  V30 4044 C 373.97 6.00786 -1.98089 0
M  V30 4045 C 372.634 6.27148 -2.28565 0
M  V30 4046 H 371.904 0.726739 0.144677 0
M  V30 4047 H 374.551 1.88491 -0.338114 0
M  V30 4048 H 372.856 3.5423 1.67418 0
M  V30 4049 H 374.553 3.77302 1.35809 0
M  V30 4050 H 371.143 4.28596 0.0193234 0
M  V30 4051 H 375.327 4.90765 -0.739166 0
M  V30 4052 H 370.583 5.84365 -1.798 0
M  V30 4053 H 374.757 6.4788 -2.55391 0
M  V30 4054 H 372.384 6.94597 -3.08932 0
M  V30 4055 N 373.959 -0.0401083 1.57549 0
M  V30 4056 C 375.207 -0.731677 1.8839 0
M  V30 4057 C 375.528 -1.76481 0.829425 0
M  V30 4058 O 374.798 -1.95411 -0.1383 0
M  V30 4059 H 373.378 -0.273225 0.695239 0
M  V30 4060 H 376.04 -0.00867725 1.94898 0
M  V30 4061 H 375.136 -1.22816 2.86919 0
M  V30 4062 N 375.437 -1.54477 -0.31217 0
M  V30 4063 C 376.385 -1.85395 -1.40469 0
M  V30 4064 C 377.379 -0.726749 -1.53019 0
M  V30 4065 O 378.585 -0.910582 -1.55269 0
M  V30 4066 H 374.96 -0.587845 -0.46898 0
M  V30 4067 H 376.931 -2.76736 -1.11623 0
M  V30 4068 C 375.68 -2.10811 -2.76503 0
M  V30 4069 H 375.003 -2.97014 -2.67625 0
M  V30 4070 H 376.443 -2.3639 -3.51988 0
M  V30 4071 C 374.902 -0.903165 -3.24568 0
M  V30 4072 O 375.432 -0.118085 -4.01526 0
M  V30 4073 N 373.638 -0.711634 -2.81752 0
M  V30 4074 H 373.185 -1.35171 -2.19286 0
M  V30 4075 H 373.143 0.0930473 -3.14262 0
M  V30 4076 N 376.915 0.57481 -1.46744 0
M  V30 4077 C 377.845 1.69337 -1.60771 0
M  V30 4078 C 378.826 1.63825 -0.457736 0
M  V30 4079 O 380.011 1.8172 -0.684947 0
M  V30 4080 C 377.141 3.0798 -1.60517 0
M  V30 4081 C 376.095 3.28327 -2.74564 0
M  V30 4082 C 375.421 4.67578 -2.59373 0
M  V30 4083 C 376.721 3.15398 -4.16319 0
M  V30 4084 H 378.415 1.57853 -2.54407 0
M  V30 4085 H 375.961 0.75799 -1.22436 0
M  V30 4086 H 377.914 3.86061 -1.68923 0
M  V30 4087 H 376.638 3.20381 -0.634305 0
M  V30 4088 H 375.297 2.52649 -2.65639 0
M  V30 4089 H 374.945 4.76755 -1.60353 0
M  V30 4090 H 374.645 4.82144 -3.35873 0
M  V30 4091 H 376.169 5.47817 -2.69682 0
M  V30 4092 H 377.583 3.83315 -4.26313 0
M  V30 4093 H 375.98 3.41482 -4.93468 0
M  V30 4094 H 377.05 2.12372 -4.3592 0
M  V30 4095 N 378.394 1.34581 0.820102 0
M  V30 4096 C 379.326 1.22236 1.93884 0
M  V30 4097 C 380.339 0.148776 1.62119 0
M  V30 4098 O 381.528 0.400877 1.7394 0
M  V30 4099 C 378.628 0.856542 3.27897 0
M  V30 4100 C 377.801 2.02569 3.87666 0
M  V30 4101 C 376.86 1.63782 5.00062 0
M  V30 4102 O 375.886 2.35477 5.18208 0
M  V30 4103 N 377.088 0.553611 5.77854 0
M  V30 4104 H 379.853 2.18615 2.05006 0
M  V30 4105 H 377.414 1.27573 0.99683 0
M  V30 4106 H 379.406 0.578806 4.0054 0
M  V30 4107 H 377.976 -0.0171518 3.12595 0
M  V30 4108 H 377.196 2.468 3.07382 0
M  V30 4109 H 378.484 2.80752 4.24329 0
M  V30 4110 H 377.882 -0.0423528 5.65684 0
M  V30 4111 H 376.439 0.335614 6.50935 0
M  V30 4112 N 379.872 -1.04064 1.18357 0
M  V30 4113 C 380.819 -2.12077 0.910603 0
M  V30 4114 C 381.789 -1.65421 -0.15 0
M  V30 4115 O 382.974 -1.90797 -0.0103614 0
M  V30 4116 C 380.114 -3.42252 0.442472 0
M  V30 4117 C 379.227 -4.0252 1.5685 0
M  V30 4118 C 378.362 -5.20657 1.05309 0
M  V30 4119 C 377.401 -5.72955 2.1538 0
M  V30 4120 N 376.538 -6.8238 1.65233 0
M  V30 4121 H 381.378 -2.34764 1.83548 0
M  V30 4122 H 378.915 -1.15157 0.915279 0
M  V30 4123 H 380.873 -4.16921 0.152534 0
M  V30 4124 H 379.503 -3.19712 -0.445428 0
M  V30 4125 H 378.555 -3.25178 1.97391 0
M  V30 4126 H 379.867 -4.37362 2.39824 0
M  V30 4127 H 379.021 -6.0244 0.717677 0
M  V30 4128 H 377.76 -4.87318 0.19293 0
M  V30 4129 H 376.765 -4.89793 2.49766 0
M  V30 4130 H 377.99 -6.08337 3.01832 0
M  V30 4131 H 375.936 -6.50917 0.815064 0
M  V30 4132 H 375.853 -7.16286 2.41805 0
M  V30 4133 H 377.121 -7.67788 1.34619 0
M  V30 4134 N 381.35 -0.985608 -1.22978 0
M  V30 4135 C 382.761 -0.693593 -1.73338 0
M  V30 4136 C 383.112 0.789935 -1.79595 0
M  V30 4137 O 382.237 1.61771 -1.43733 0
M  V30 4138 C 382.832 -1.25235 -3.14804 0
M  V30 4139 C 381.391 -1.00987 -3.626 0
M  V30 4140 C 380.538 -1.37695 -2.40698 0
M  V30 4141 H 383.489 -1.15884 -1.08428 0
M  V30 4142 H 383.51 -0.627329 -3.75293 0
M  V30 4143 H 383.022 -2.33209 -3.10218 0
M  V30 4144 H 381.123 0.0535565 -3.72562 0
M  V30 4145 H 381.236 -1.66812 -4.49122 0
M  V30 4146 H 379.6 -0.795459 -2.4196 0
M  V30 4147 H 380.383 -2.46657 -2.38779 0
M  V30 4148 N 382.828 1.3818 -0.7579 0
M  V30 4149 C 384.056 2.04301 -0.326937 0
M  V30 4150 C 384.471 1.57163 1.0462 0
M  V30 4151 O 383.828 0.746626 1.66529 0
M  V30 4152 C 383.879 3.59846 -0.345363 0
M  V30 4153 O 383.6 4.05256 -1.66432 0
M  V30 4154 C 385.101 4.4319 0.098927 0
M  V30 4155 H 382.321 0.656443 -0.139012 0
M  V30 4156 H 384.865 1.76786 -1.02796 0
M  V30 4157 H 383.02 3.86182 0.306955 0
M  V30 4158 H 383.434 4.99709 -1.59345 0
M  V30 4159 H 384.908 5.51989 0.0348745 0
M  V30 4160 H 385.385 4.23947 1.14741 0
M  V30 4161 H 385.991 4.22051 -0.52468 0
M  V30 4162 N 384.306 0.507319 1.49211 0
M  V30 4163 C 385.553 -0.0349529 2.0247 0
M  V30 4164 C 385.881 -1.36409 1.38647 0
M  V30 4165 O 385.136 -1.88841 0.513566 0
M  V30 4166 C 385.435 -0.229513 3.56662 0
M  V30 4167 C 385.101 1.02241 4.39156 0
M  V30 4168 C 383.763 1.36557 4.61417 0
M  V30 4169 C 386.115 1.85428 4.871 0
M  V30 4170 C 383.443 2.53999 5.28868 0
M  V30 4171 C 385.795 3.02028 5.55843 0
M  V30 4172 C 384.459 3.36717 5.76349 0
M  V30 4173 H 383.729 -0.0127902 0.74089 0
M  V30 4174 H 386.376 0.668756 1.79443 0
M  V30 4175 H 384.681 -1.0158 3.78403 0
M  V30 4176 H 386.378 -0.663641 3.9547 0
M  V30 4177 H 382.968 0.745124 4.22073 0
M  V30 4178 H 387.152 1.6023 4.69723 0
M  V30 4179 H 382.408 2.81105 5.42946 0
M  V30 4180 H 386.582 3.66808 5.91967 0
M  V30 4181 H 384.209 4.27821 6.28389 0
M  V30 4182 N 385.784 -1.5574 0.241426 0
M  V30 4183 C 387.012 -2.03208 -0.389134 0
M  V30 4184 C 387.427 -1.12082 -1.51931 0
M  V30 4185 O 386.784 -0.134183 -1.82006 0
M  V30 4186 C 386.835 -3.50064 -0.902087 0
M  V30 4187 O 386.556 -4.37717 0.18305 0
M  V30 4188 C 388.057 -4.13268 -1.60389 0
M  V30 4189 H 385.277 -0.664509 -0.0931053 0
M  V30 4190 H 387.821 -2.0124 0.36369 0
M  V30 4191 H 385.976 -3.52583 -1.60511 0
M  V30 4192 H 386.39 -5.24097 -0.205579 0
M  V30 4193 H 387.864 -5.17733 -1.91458 0
M  V30 4194 H 388.341 -3.59434 -2.52397 0
M  V30 4195 H 388.947 -4.14655 -0.945576 0
M  V30 4196 N 387.262 0.0317525 -1.57568 0
M  V30 4197 C 388.209 1.0332 -2.06382 0
M  V30 4198 C 389.179 1.36082 -0.952414 0
M  V30 4199 O 390.364 1.46466 -1.2228 0
M  V30 4200 C 387.504 2.32989 -2.54578 0
M  V30 4201 C 386.617 2.0641 -3.79498 0
M  V30 4202 C 385.752 3.2993 -4.16317 0
M  V30 4203 C 384.791 2.98893 -5.34162 0
M  V30 4204 N 383.928 4.14857 -5.66426 0
M  V30 4205 H 388.768 0.609982 -2.9169 0
M  V30 4206 H 386.305 0.289573 -1.44222 0
M  V30 4207 H 388.263 3.0875 -2.80587 0
M  V30 4208 H 386.893 2.73039 -1.7219 0
M  V30 4209 H 385.945 1.21158 -3.6059 0
M  V30 4210 H 387.257 1.79513 -4.65378 0
M  V30 4211 H 386.411 4.1406 -4.4344 0
M  V30 4212 H 385.15 3.59938 -3.29083 0
M  V30 4213 H 384.155 2.13164 -5.06795 0
M  V30 4214 H 385.38 2.70165 -6.23047 0
M  V30 4215 H 383.326 4.44821 -4.82151 0
M  V30 4216 H 383.243 3.91374 -6.4681 0
M  V30 4217 H 384.511 4.99868 -5.98124 0
M  V30 4218 N 388.74 1.54641 0.303973 0
M  V30 4219 C 390.156 1.45788 0.649463 0
M  V30 4220 C 390.356 0.64666 1.90842 0
M  V30 4221 O 389.412 0.153183 2.52035 0
M  V30 4222 C 390.725 2.89718 0.805227 0
M  V30 4223 C 392.273 2.99742 0.901305 0
M  V30 4224 C 392.748 4.44863 1.08909 0
M  V30 4225 N 394.239 4.48559 1.15536 0
M  V30 4226 C 394.974 5.58026 1.3189 0
M  V30 4227 N 394.47 6.77422 1.45161 0
M  V30 4228 N 396.263 5.45708 1.34755 0
M  V30 4229 H 388.414 2.05854 -0.523237 0
M  V30 4230 H 390.677 0.932186 -0.172431 0
M  V30 4231 H 390.383 3.51666 -0.0489108 0
M  V30 4232 H 390.257 3.36964 1.69513 0
M  V30 4233 H 392.644 2.3791 1.74593 0
M  V30 4234 H 392.725 2.55797 -0.0125531 0
M  V30 4235 H 392.369 5.07288 0.249241 0
M  V30 4236 H 392.299 4.86436 2.01713 0
M  V30 4237 H 394.79 3.6254 1.06646 0
M  V30 4238 H 395.103 7.56604 1.57387 0
M  V30 4239 H 393.448 6.80292 1.42223 0
M  V30 4240 H 396.639 4.51378 1.23996 0
M  V30 4241 H 396.812 6.3107 1.47157 0
M  V30 4242 N 390.218 -0.567019 1.47046 0
M  V30 4243 C 391.166 -1.69593 1.59188 0
M  V30 4244 C 392.16 -1.63046 0.459609 0
M  V30 4245 O 393.366 -1.6835 0.637058 0
M  V30 4246 H 389.741 -0.560993 0.500791 0
M  V30 4247 H 391.712 -1.56488 2.54075 0
M  V30 4248 C 390.461 -3.07964 1.61411 0
M  V30 4249 H 389.784 -3.13679 2.47881 0
M  V30 4250 H 391.224 -3.86671 1.73958 0
M  V30 4251 C 389.683 -3.35123 0.34559 0
M  V30 4252 O 390.213 -3.97812 -0.557521 0
M  V30 4253 N 388.419 -2.89699 0.22864 0
M  V30 4254 H 387.966 -2.38863 0.964479 0
M  V30 4255 H 387.924 -3.08242 -0.619192 0
M  V30 4256 N 391.696 -1.35014 -0.812953 0
M  V30 4257 C 392.644 -1.27435 -1.94585 0
M  V30 4258 C 393.638 -0.170494 -1.6854 0
M  V30 4259 O 394.844 -0.336085 -1.76835 0
M  V30 4260 H 391.219 -0.396144 -0.639198 0
M  V30 4261 H 393.19 -2.23158 -1.98098 0
M  V30 4262 C 391.939 -1.05677 -3.31252 0
M  V30 4263 H 391.262 -1.89853 -3.51846 0
M  V30 4264 H 392.702 -1.04413 -4.10943 0
M  V30 4265 C 391.161 0.239615 -3.36047 0
M  V30 4266 O 391.691 1.23759 -3.8216 0
M  V30 4267 N 389.897 0.276186 -2.89285 0
M  V30 4268 H 389.444 -0.53653 -2.51951 0
M  V30 4269 H 389.402 1.14332 -2.92875 0
M  V30 4270 N 393.175 1.03435 -1.18907 0
M  V30 4271 C 394.403 1.80381 -1.01342 0
M  V30 4272 C 394.818 1.83649 0.438005 0
M  V30 4273 O 394.175 1.27655 1.30424 0
M  V30 4274 C 394.226 3.25689 -1.56873 0
M  V30 4275 O 393.947 3.22673 -2.96334 0
M  V30 4276 C 395.448 4.19255 -1.44014 0
M  V30 4277 H 392.668 0.56784 -0.35749 0
M  V30 4278 H 395.212 1.30317 -1.576 0
M  V30 4279 H 393.367 3.72962 -1.04777 0
M  V30 4280 H 393.781 4.13748 -3.22355 0
M  V30 4281 H 395.255 5.19123 -1.87657 0
M  V30 4282 H 395.732 4.37467 -0.389815 0
M  V30 4283 H 396.338 3.77851 -1.95214 0
M  V30 4284 N 394.653 0.992116 1.22453 0
M  V30 4285 C 395.601 0.534644 2.26372 0
M  V30 4286 C 396.595 -0.414293 1.64256 0
M  V30 4287 O 397.801 -0.286899 1.77699 0
M  V30 4288 H 394.176 0.154502 0.735957 0
M  V30 4289 H 396.147 1.42256 2.62309 0
M  V30 4290 C 394.896 -0.135815 3.47435 0
M  V30 4291 H 394.219 0.585311 3.95492 0
M  V30 4292 H 395.659 -0.419374 4.21921 0
M  V30 4293 C 394.118 -1.37089 3.07747 0
M  V30 4294 O 394.648 -2.46629 3.17076 0
M  V30 4295 N 392.854 -1.24585 2.62539 0
M  V30 4296 H 392.401 -0.354542 2.55149 0
M  V30 4297 H 392.359 -2.07327 2.36353 0
M  V30 4298 N 396.131 -1.37776 0.765217 0
M  V30 4299 C 397.377 -2.00145 0.327072 0
M  V30 4300 C 397.71 -1.60607 -1.09175 0
M  V30 4301 O 396.985 -0.849127 -1.74986 0
M  V30 4302 C 397.268 -3.57109 0.46319 0
M  V30 4303 C 397.121 -4.06576 1.92395 0
M  V30 4304 C 398.44 -4.39888 -0.136473 0
M  V30 4305 H 395.559 -0.727113 0.120316 0
M  V30 4306 H 398.201 -1.63549 0.967039 0
M  V30 4307 H 396.351 -3.88414 -0.0816358 0
M  V30 4308 H 398.023 -3.85864 2.52798 0
M  V30 4309 H 396.266 -3.59011 2.43503 0
M  V30 4310 H 396.937 -5.15639 1.97028 0
M  V30 4311 H 399.413 -4.14803 0.328317 0
M  V30 4312 H 398.289 -5.48899 -0.0110582 0
M  V30 4313 H 398.55 -4.24758 -1.22608 0
M  V30 4314 N 397.609 -0.515225 -1.4894 0
M  V30 4315 C 398.541 0.292481 -2.27326 0
M  V30 4316 C 399.554 0.917838 -1.3446 0
M  V30 4317 O 400.743 0.798772 -1.5963 0
M  V30 4318 C 397.843 1.42803 -3.07344 0
M  V30 4319 C 397.016 0.907347 -4.27885 0
M  V30 4320 C 396.075 1.92222 -4.89834 0
M  V30 4321 O 395.101 1.48506 -5.49486 0
M  V30 4322 N 396.303 3.25355 -4.80754 0
M  V30 4323 H 399.068 -0.379721 -2.97285 0
M  V30 4324 H 396.629 -0.348638 -1.58102 0
M  V30 4325 H 398.621 2.10481 -3.45658 0
M  V30 4326 H 397.191 2.00414 -2.39902 0
M  V30 4327 H 396.411 0.0550218 -3.94162 0
M  V30 4328 H 397.699 0.538108 -5.05946 0
M  V30 4329 H 397.097 3.6355 -4.33414 0
M  V30 4330 H 395.654 3.88707 -5.23211 0
M  V30 4331 N 399.087 1.5561 -0.249682 0
M  V30 4332 C 400.334 1.99011 0.374287 0
M  V30 4333 C 400.662 1.13785 1.57744 0
M  V30 4334 O 399.917 0.189326 1.94782 0
M  V30 4335 C 400.216 3.4775 0.824887 0
M  V30 4336 C 399.882 4.50086 -0.270819 0
M  V30 4337 C 398.544 4.77791 -0.571746 0
M  V30 4338 C 400.896 5.11312 -1.01041 0
M  V30 4339 C 398.224 5.63997 -1.61629 0
M  V30 4340 C 400.576 5.98651 -2.0445 0
M  V30 4341 C 399.24 6.24688 -2.35204 0
M  V30 4342 H 398.51 0.728233 0.136961 0
M  V30 4343 H 401.157 1.88122 -0.358087 0
M  V30 4344 H 399.462 3.55985 1.63651 0
M  V30 4345 H 401.159 3.78721 1.31799 0
M  V30 4346 H 397.749 4.28592 -0.026136 0
M  V30 4347 H 401.933 4.89953 -0.791177 0
M  V30 4348 H 397.189 5.82425 -1.85988 0
M  V30 4349 H 401.363 6.45135 -2.62248 0
M  V30 4350 H 398.99 6.91281 -3.16282 0
M  V30 4351 N 400.565 -0.0233959 1.57583 0
M  V30 4352 C 401.513 -1.04063 2.08023 0
M  V30 4353 C 402.507 -1.37084 0.995204 0
M  V30 4354 O 403.713 -1.35923 1.18004 0
M  V30 4355 H 400.088 -0.353144 0.663922 0
M  V30 4356 H 402.059 -0.589453 2.9252 0
M  V30 4357 C 400.808 -2.33123 2.57971 0
M  V30 4358 H 400.131 -2.08577 3.4108 0
M  V30 4359 H 401.571 -3.02632 2.96967 0
M  V30 4360 C 400.03 -3.02483 1.48342 0
M  V30 4361 O 400.56 -3.92541 0.852898 0
M  V30 4362 N 398.766 -2.63909 1.21658 0
M  V30 4363 H 398.313 -1.90758 1.73116 0
M  V30 4364 H 398.271 -3.10633 0.485218 0
M  V30 4365 N 402.043 -1.548 -0.295768 0
M  V30 4366 C 403.268 -1.78653 -1.05346 0
M  V30 4367 C 403.693 -0.546894 -1.79974 0
M  V30 4368 O 403.051 0.502763 -1.7419 0
M  V30 4369 C 403.099 -2.99679 -2.00561 0
M  V30 4370 O 402.203 -2.7317 -3.08953 0
M  V30 4371 H 401.544 -0.59116 -0.302367 0
M  V30 4372 H 404.074 -2.01895 -0.331598 0
M  V30 4373 H 404.084 -3.27793 -2.42932 0
M  V30 4374 H 402.759 -3.89562 -1.4565 0
M  V30 4375 H 401.336 -2.56089 -2.71059 0
M  V30 4376 N 403.521 0.559213 -1.47345 0
M  V30 4377 C 404.431 1.69388 -1.62311 0
M  V30 4378 C 405.447 1.6648 -0.505993 0
M  V30 4379 O 406.623 1.85964 -0.773262 0
M  V30 4380 C 403.688 3.05894 -1.63185 0
M  V30 4381 C 402.749 3.19885 -2.86307 0
M  V30 4382 C 401.982 4.49879 -2.87131 0
M  V30 4383 O 402.205 5.35217 -1.97229 0
M  V30 4384 O 401.139 4.67618 -3.78968 0
M  V30 4385 H 404.965 1.59706 -2.58317 0
M  V30 4386 H 402.55 0.728989 -1.30407 0
M  V30 4387 H 404.432 3.87133 -1.66451 0
M  V30 4388 H 403.107 3.15964 -0.70345 0
M  V30 4389 H 402.014 2.38052 -2.88587 0
M  V30 4390 H 403.347 3.14718 -3.78435 0
M  V30 4391 N 404.999 1.35443 0.805782 0
M  V30 4392 C 405.929 1.31095 1.93226 0
M  V30 4393 C 406.91 0.185244 1.69088 0
M  V30 4394 O 408.095 0.380332 1.90439 0
M  V30 4395 C 405.225 1.08299 3.29983 0
M  V30 4396 C 404.179 2.17519 3.68605 0
M  V30 4397 C 403.505 1.79887 5.03532 0
M  V30 4398 C 404.805 3.5949 3.78898 0
M  V30 4399 H 406.499 2.25352 1.97122 0
M  V30 4400 H 404.045 1.0848 0.946996 0
M  V30 4401 H 405.998 1.03897 4.08391 0
M  V30 4402 H 404.722 0.104885 3.26432 0
M  V30 4403 H 403.381 2.2102 2.92482 0
M  V30 4404 H 403.029 0.80693 4.96485 0
M  V30 4405 H 402.729 2.53001 5.30344 0
M  V30 4406 H 404.253 1.77011 5.84379 0
M  V30 4407 H 405.667 3.58307 4.47536 0
M  V30 4408 H 404.064 4.31371 4.1718 0
M  V30 4409 H 405.134 3.95584 2.80431 0
M  V30 4410 N 406.477 -1.02803 1.19454 0
M  V30 4411 C 407.425 -2.13213 0.929673 0
M  V30 4412 C 408.419 -1.69011 -0.114806 0
M  V30 4413 O 409.625 -1.79967 0.0345147 0
M  V30 4414 H 406 -0.69662 0.28324 0
M  V30 4415 H 407.971 -2.32744 1.86743 0
M  V30 4416 C 406.72 -3.4429 0.485797 0
M  V30 4417 H 406.043 -3.7872 1.28105 0
M  V30 4418 H 407.483 -4.22638 0.339582 0
M  V30 4419 C 405.942 -3.27258 -0.800244 0
M  V30 4420 O 406.472 -3.55967 -1.86146 0
M  V30 4421 N 404.678 -2.80545 -0.75781 0
M  V30 4422 H 404.225 -2.57382 0.106039 0
M  V30 4423 H 404.183 -2.6953 -1.61867 0
M  V30 4424 N 407.956 -0.998596 -1.21925 0
M  V30 4425 C 409.202 -0.688337 -1.91399 0
M  V30 4426 C 409.557 0.771805 -1.76241 0
M  V30 4427 O 408.85 1.55153 -1.1242 0
M  V30 4428 C 409.044 -1.03648 -3.42041 0
M  V30 4429 C 408.873 -2.52892 -3.71855 0
M  V30 4430 C 407.643 -3.19389 -3.91559 0
M  V30 4431 C 409.841 -3.5103 -3.75875 0
M  V30 4432 N 407.823 -4.5805 -4.08734 0
M  V30 4433 C 409.194 -4.75174 -3.98259 0
M  V30 4434 C 411.249 -3.45257 -3.58751 0
M  V30 4435 C 409.952 -5.94247 -4.05294 0
M  V30 4436 C 411.978 -4.63712 -3.67049 0
M  V30 4437 C 411.34 -5.86658 -3.89887 0
M  V30 4438 H 407.439 -0.303251 -0.720807 0
M  V30 4439 H 410.023 -1.27977 -1.46731 0
M  V30 4440 H 408.194 -0.473569 -3.85502 0
M  V30 4441 H 409.926 -0.681619 -3.98919 0
M  V30 4442 H 406.681 -2.69846 -3.89205 0
M  V30 4443 H 407.105 -5.29989 -4.21237 0
M  V30 4444 H 411.747 -2.51215 -3.40075 0
M  V30 4445 H 409.465 -6.88687 -4.22772 0
M  V30 4446 H 413.051 -4.6084 -3.5513 0
M  V30 4447 H 411.931 -6.76786 -3.96144 0
M  V30 4448 N 409.434 1.37368 -0.772513 0
M  V30 4449 C 410.384 2.27613 -0.132823 0
M  V30 4450 C 411.368 1.46138 0.673247 0
M  V30 4451 O 412.56 1.68686 0.536095 0
M  V30 4452 C 409.689 3.35122 0.744864 0
M  V30 4453 C 408.775 4.24044 -0.0690771 0
M  V30 4454 N 409.166 4.93355 -1.1151 0
M  V30 4455 C 407.464 4.45731 0.154782 0
M  V30 4456 C 408.165 5.59 -1.60917 0
M  V30 4457 N 407.141 5.35737 -0.921222 0
M  V30 4458 H 410.943 2.78675 -0.933681 0
M  V30 4459 H 408.457 1.50494 -0.610342 0
M  V30 4460 H 410.454 3.98683 1.21892 0
M  V30 4461 H 409.114 2.85616 1.54446 0
M  V30 4462 H 410.125 4.95785 -1.49726 0
M  V30 4463 H 406.802 4.07096 0.926224 0
M  V30 4464 H 408.192 6.24395 -2.48153 0
M  V30 4465 N 410.912 0.523116 1.48665 0
M  V30 4466 C 412.328 0.180511 1.58576 0
M  V30 4467 C 412.528 -1.31597 1.52592 0
M  V30 4468 O 411.584 -2.0937 1.4114 0
M  V30 4469 C 412.897 0.776949 2.90489 0
M  V30 4470 C 414.445 0.745058 3.04003 0
M  V30 4471 C 414.92 1.31995 4.38567 0
M  V30 4472 N 416.411 1.28162 4.45117 0
M  V30 4473 C 417.146 1.6964 5.47731 0
M  V30 4474 N 416.642 2.18816 6.57337 0
M  V30 4475 N 418.435 1.6092 5.38573 0
M  V30 4476 H 410.586 1.4958 1.50797 0
M  V30 4477 H 412.849 0.621772 0.715614 0
M  V30 4478 H 412.555 1.82732 3.00503 0
M  V30 4479 H 412.429 0.25007 3.7637 0
M  V30 4480 H 414.816 -0.296532 2.93606 0
M  V30 4481 H 414.897 1.30933 2.1975 0
M  V30 4482 H 414.541 2.36043 4.49718 0
M  V30 4483 H 414.471 0.731418 5.21496 0
M  V30 4484 H 416.962 0.92155 3.66491 0
M  V30 4485 H 417.275 2.48478 7.31764 0
M  V30 4486 H 415.62 2.22805 6.58318 0
M  V30 4487 H 418.811 1.22304 4.5184 0
M  V30 4488 H 418.984 1.93567 6.18414 0
M  V30 4489 N 412.39 -1.55475 0.257931 0
M  V30 4490 C 413.323 -2.179 -0.677862 0
M  V30 4491 C 414.301 -1.13448 -1.16483 0
M  V30 4492 O 415.485 -1.41889 -1.24095 0
M  V30 4493 C 412.612 -2.78851 -1.92249 0
M  V30 4494 C 411.658 -3.96454 -1.57246 0
M  V30 4495 S 412.491 -5.31349 -0.665501 0
M  V30 4496 C 413.647 -5.9576 -1.91889 0
M  V30 4497 H 413.88 -2.96934 -0.147396 0
M  V30 4498 H 411.413 -1.54342 0.0423023 0
M  V30 4499 H 413.371 -3.14602 -2.63697 0
M  V30 4500 H 412.032 -1.99742 -2.42409 0
M  V30 4501 H 411.225 -4.37731 -2.49814 0
M  V30 4502 H 410.827 -3.62038 -0.938325 0
M  V30 4503 H 413.119 -6.13947 -2.86487 0
M  V30 4504 H 414.062 -6.9094 -1.54942 0
M  V30 4505 H 414.47 -5.2494 -2.076 0
M  V30 4506 N 413.868 0.0150385 -1.57593 0
M  V30 4507 C 414.815 1.01126 -2.07466 0
M  V30 4508 C 415.785 1.35064 -0.966794 0
M  V30 4509 O 416.97 1.4516 -1.23827 0
M  V30 4510 C 414.11 2.30276 -2.57035 0
M  V30 4511 C 413.223 2.02373 -3.81666 0
M  V30 4512 C 412.358 3.25496 -4.19793 0
M  V30 4513 C 411.397 2.93211 -5.37303 0
M  V30 4514 N 410.534 4.08826 -5.70794 0
M  V30 4515 H 415.374 0.57901 -2.92321 0
M  V30 4516 H 412.911 0.27426 -1.44521 0
M  V30 4517 H 414.869 3.05757 -2.83846 0
M  V30 4518 H 413.499 2.71197 -1.75077 0
M  V30 4519 H 412.551 1.17327 -3.61854 0
M  V30 4520 H 413.863 1.74567 -4.67256 0
M  V30 4521 H 413.017 4.09333 -4.47807 0
M  V30 4522 H 411.756 3.56428 -3.32882 0
M  V30 4523 H 410.761 2.07777 -5.09027 0
M  V30 4524 H 411.986 2.63542 -6.25877 0
M  V30 4525 H 409.932 4.39682 -4.86842 0
M  V30 4526 H 409.849 3.84491 -6.50924 0
M  V30 4527 H 411.117 4.93496 -6.03392 0
M  V30 4528 N 415.346 1.54954 0.287554 0
M  V30 4529 C 416.296 1.8322 1.357 0
M  V30 4530 C 417.28 0.690152 1.45347 0
M  V30 4531 O 418.472 0.951137 1.49273 0
M  V30 4532 C 415.601 2.09481 2.71979 0
M  V30 4533 C 414.687 3.29906 2.66502 0
M  V30 4534 N 415.078 4.50154 2.30641 0
M  V30 4535 C 413.376 3.32203 2.97585 0
M  V30 4536 C 414.077 5.32209 2.34794 0
M  V30 4537 N 413.053 4.70258 2.72688 0
M  V30 4538 H 416.855 2.73746 1.0696 0
M  V30 4539 H 414.369 1.54635 0.496167 0
M  V30 4540 H 416.366 2.27882 3.49107 0
M  V30 4541 H 415.026 1.2023 3.0162 0
M  V30 4542 H 416.037 4.76515 2.02865 0
M  V30 4543 H 412.714 2.53101 3.32034 0
M  V30 4544 H 414.104 6.38321 2.09753 0
M  V30 4545 N 416.824 -0.551391 1.4764 0
M  V30 4546 C 417.774 -1.65362 1.56969 0
M  V30 4547 C 418.758 -1.55098 0.428189 0
M  V30 4548 O 419.95 -1.63481 0.678441 0
M  V30 4549 C 417.079 -3.04129 1.59249 0
M  V30 4550 C 416.165 -3.19576 2.78804 0
M  V30 4551 N 416.556 -3.05067 4.03445 0
M  V30 4552 C 414.854 -3.50588 2.75688 0
M  V30 4553 C 415.555 -3.2336 4.83543 0
M  V30 4554 N 414.531 -3.4996 4.15968 0
M  V30 4555 H 418.333 -1.52722 2.51104 0
M  V30 4556 H 415.847 -0.756303 1.43714 0
M  V30 4557 H 417.844 -3.83278 1.64024 0
M  V30 4558 H 416.504 -3.17877 0.662148 0
M  V30 4559 H 417.515 -2.82273 4.34215 0
M  V30 4560 H 414.192 -3.70827 1.91817 0
M  V30 4561 H 415.582 -3.17061 5.92387 0
M  V30 4562 N 418.302 -1.35869 -0.798587 0
M  V30 4563 C 419.55 -1.29332 -1.55298 0
M  V30 4564 C 419.871 0.129729 -1.94568 0
M  V30 4565 O 419.141 1.06796 -1.6423 0
M  V30 4566 H 417.721 -0.475737 -0.57592 0
M  V30 4567 H 420.383 -1.70062 -0.952093 0
M  V30 4568 H 419.479 -1.91458 -2.46476 0
M  V30 4569 N 419.78 1.02168 -1.19998 0
M  V30 4570 C 420.727 2.10601 -0.944228 0
M  V30 4571 C 421.697 1.65639 0.123664 0
M  V30 4572 O 422.882 1.9079 -0.0199941 0
M  V30 4573 C 420.022 3.41504 -0.496865 0
M  V30 4574 C 419.135 3.99973 -1.63234 0
M  V30 4575 C 418.27 5.18915 -1.13579 0
M  V30 4576 C 417.309 5.69456 -2.24468 0
M  V30 4577 N 416.446 6.79665 -1.76068 0
M  V30 4578 H 421.286 2.31814 -1.8726 0
M  V30 4579 H 418.823 1.13686 -0.933483 0
M  V30 4580 H 420.781 4.16626 -0.218843 0
M  V30 4581 H 419.411 3.2038 0.394508 0
M  V30 4582 H 418.463 3.21997 -2.0254 0
M  V30 4583 H 419.775 4.33492 -2.46752 0
M  V30 4584 H 418.929 6.01222 -0.813429 0
M  V30 4585 H 417.668 4.8695 -0.270434 0
M  V30 4586 H 416.673 4.85757 -2.57526 0
M  V30 4587 H 417.898 6.03459 -3.11472 0
M  V30 4588 H 415.844 6.49538 -0.918516 0
M  V30 4589 H 415.761 7.12349 -2.5317 0
M  V30 4590 H 417.029 7.65549 -1.46817 0
M  V30 4591 N 421.258 1.00505 1.21394 0
M  V30 4592 C 422.205 0.565496 2.23765 0
M  V30 4593 C 423.175 -0.408466 1.60999 0
M  V30 4594 O 424.36 -0.310503 1.88257 0
M  V30 4595 C 421.5 -0.101667 3.4495 0
M  V30 4596 C 420.613 0.915479 4.22188 0
M  V30 4597 C 419.748 0.220574 5.30742 0
M  V30 4598 C 418.787 1.22527 5.99711 0
M  V30 4599 N 417.924 0.557831 6.9988 0
M  V30 4600 H 422.764 1.44314 2.60725 0
M  V30 4601 H 420.301 0.722643 1.28126 0
M  V30 4602 H 422.259 -0.505504 4.14126 0
M  V30 4603 H 420.889 -0.94303 3.08718 0
M  V30 4604 H 419.941 1.43756 3.52191 0
M  V30 4605 H 421.253 1.68005 4.69655 0
M  V30 4606 H 420.407 -0.239368 6.06228 0
M  V30 4607 H 419.146 -0.576401 4.84282 0
M  V30 4608 H 418.151 1.69571 5.22997 0
M  V30 4609 H 419.376 2.02332 6.48258 0
M  V30 4610 H 417.322 -0.219486 6.55633 0
M  V30 4611 H 417.239 1.26065 7.45415 0
M  V30 4612 H 418.507 0.121095 7.79406 0
M  V30 4613 N 422.737 -1.36956 0.779787 0
M  V30 4614 C 423.684 -2.30175 0.169697 0
M  V30 4615 C 424.654 -1.51501 -0.68094 0
M  V30 4616 O 425.839 -1.80042 -0.631629 0
M  V30 4617 C 422.979 -3.37985 -0.697131 0
M  V30 4618 C 422.092 -4.31661 0.170992 0
M  V30 4619 C 421.227 -5.2655 -0.701298 0
M  V30 4620 C 420.266 -6.11867 0.168869 0
M  V30 4621 N 419.403 -6.98973 -0.661855 0
M  V30 4622 H 424.243 -2.81767 0.970135 0
M  V30 4623 H 421.78 -1.38699 0.489994 0
M  V30 4624 H 423.738 -3.99128 -1.2146 0
M  V30 4625 H 422.368 -2.87739 -1.46309 0
M  V30 4626 H 421.42 -3.71756 0.80634 0
M  V30 4627 H 422.732 -4.91644 0.841875 0
M  V30 4628 H 421.886 -5.92937 -1.28494 0
M  V30 4629 H 420.625 -4.66998 -1.40584 0
M  V30 4630 H 419.63 -5.44452 0.764986 0
M  V30 4631 H 420.855 -6.73493 0.870863 0
M  V30 4632 H 418.801 -6.41941 -1.35086 0
M  V30 4633 H 418.718 -7.55984 -0.0484447 0
M  V30 4634 H 419.986 -7.6974 -1.22963 0
M  V30 4635 N 424.215 -0.530993 -1.48385 0
M  V30 4636 C 425.626 -0.0907905 -1.86479 0
M  V30 4637 C 425.977 1.33213 -1.44044 0
M  V30 4638 O 425.102 1.99783 -0.831615 0
M  V30 4639 C 425.697 -0.157987 -3.38431 0
M  V30 4640 C 424.256 0.227026 -3.75715 0
M  V30 4641 C 423.403 -0.5173 -2.72432 0
M  V30 4642 H 426.354 -0.742186 -1.40276 0
M  V30 4643 H 426.375 0.630053 -3.75247 0
M  V30 4644 H 425.887 -1.19372 -3.69286 0
M  V30 4645 H 423.988 1.26486 -3.50474 0
M  V30 4646 H 424.101 -0.113288 -4.78966 0
M  V30 4647 H 422.465 0.0365527 -2.54674 0
M  V30 4648 H 423.248 -1.55368 -3.0613 0
M  V30 4649 N 425.693 1.55336 -0.266172 0
M  V30 4650 C 426.623 2.25146 0.618981 0
M  V30 4651 C 427.604 1.23845 1.16604 0
M  V30 4652 O 428.789 1.52544 1.20183 0
M  V30 4653 C 425.919 2.96572 1.80728 0
M  V30 4654 C 424.873 4.04726 1.39215 0
M  V30 4655 C 424.199 4.63678 2.66283 0
M  V30 4656 C 425.499 5.19407 0.548942 0
M  V30 4657 H 427.193 2.99377 0.0368116 0
M  V30 4658 H 424.739 1.43991 0.0162651 0
M  V30 4659 H 426.692 3.44116 2.43232 0
M  V30 4660 H 425.416 2.19861 2.41514 0
M  V30 4661 H 424.075 3.57979 0.790351 0
M  V30 4662 H 423.723 3.83646 3.25308 0
M  V30 4663 H 423.423 5.367 2.39222 0
M  V30 4664 H 424.947 5.13967 3.29651 0
M  V30 4665 H 426.361 5.63059 1.07876 0
M  V30 4666 H 424.758 5.98936 0.373593 0
M  V30 4667 H 425.828 4.8295 -0.434394 0
M  V30 4668 N 427.171 -0.0066808 1.57599 0
M  V30 4669 C 428.118 -1.00024 2.08 0
M  V30 4670 C 429.088 -1.34549 0.973943 0
M  V30 4671 O 430.273 -1.44502 1.24595 0
M  V30 4672 C 427.413 -2.2891 2.58252 0
M  V30 4673 C 426.526 -2.00346 3.82734 0
M  V30 4674 C 425.661 -3.23265 4.21513 0
M  V30 4675 C 424.7 -2.90357 5.3885 0
M  V30 4676 N 423.837 -4.05793 5.72954 0
M  V30 4677 H 428.677 -0.563499 2.92624 0
M  V30 4678 H 426.214 -0.266592 1.44664 0
M  V30 4679 H 428.172 -3.04247 2.85464 0
M  V30 4680 H 426.802 -2.70265 1.76512 0
M  V30 4681 H 425.854 -1.15406 3.62471 0
M  V30 4682 H 427.166 -1.72086 4.68175 0
M  V30 4683 H 426.32 -4.06953 4.49971 0
M  V30 4684 H 425.059 -3.54657 3.34768 0
M  V30 4685 H 424.064 -2.05075 5.10122 0
M  V30 4686 H 425.289 -2.60219 6.27266 0
M  V30 4687 H 423.235 -4.37094 4.89167 0
M  V30 4688 H 423.152 -3.81034 6.52954 0
M  V30 4689 H 424.42 -4.90289 6.06001 0
M  V30 4690 N 428.649 -1.55105 -0.279332 0
M  V30 4691 C 429.596 -1.8755 -1.34513 0
M  V30 4692 C 430.566 -0.726384 -1.49375 0
M  V30 4693 O 431.751 -0.977063 -1.63884 0
M  V30 4694 C 428.891 -2.14738 -2.70151 0
M  V30 4695 C 428.004 -3.42285 -2.63562 0
M  V30 4696 C 427.139 -3.59206 -3.91337 0
M  V30 4697 C 426.178 -4.80467 -3.79233 0
M  V30 4698 N 425.315 -4.94079 -4.98829 0
M  V30 4699 H 430.155 -2.78456 -1.06143 0
M  V30 4700 H 427.692 -1.37867 -0.512936 0
M  V30 4701 H 429.65 -2.28501 -3.49061 0
M  V30 4702 H 428.28 -1.27075 -2.96735 0
M  V30 4703 H 427.332 -3.37029 -1.76397 0
M  V30 4704 H 428.644 -4.31328 -2.50515 0
M  V30 4705 H 427.798 -3.72751 -4.78687 0
M  V30 4706 H 426.537 -2.68337 -4.07243 0
M  V30 4707 H 425.542 -4.66932 -2.90266 0
M  V30 4708 H 426.767 -5.72765 -3.64852 0
M  V30 4709 H 424.713 -4.06139 -5.15158 0
M  V30 4710 H 424.63 -5.77156 -4.8829 0
M  V30 4711 H 425.898 -5.12003 -5.8777 0
M  V30 4712 N 430.127 0.543554 -1.4793 0
M  V30 4713 C 431.352 1.32995 -1.59145 0
M  V30 4714 C 431.777 1.86472 -0.246956 0
M  V30 4715 O 431.135 1.63696 0.779324 0
M  V30 4716 C 431.183 2.46623 -2.63077 0
M  V30 4717 O 430.287 3.49261 -2.19295 0
M  V30 4718 H 429.628 0.394472 -0.534124 0
M  V30 4719 H 432.158 0.655489 -1.93816 0
M  V30 4720 H 432.168 2.93001 -2.83926 0
M  V30 4721 H 430.843 2.07059 -3.60693 0
M  V30 4722 H 429.42 3.09094 -2.08603 0
M  V30 4723 N 431.605 1.3629 0.791371 0
M  V30 4724 C 432.538 1.24816 1.9104 0
M  V30 4725 C 433.516 0.132739 1.62057 0
M  V30 4726 O 434.7 0.303527 1.8604 0
M  V30 4727 C 431.827 0.925355 3.25814 0
M  V30 4728 C 430.873 2.05495 3.7373 0
M  V30 4729 S 431.706 3.67255 3.89723 0
M  V30 4730 C 432.862 3.37084 5.27376 0
M  V30 4731 H 433.095 2.19533 2.00481 0
M  V30 4732 H 430.628 1.21684 0.950393 0
M  V30 4733 H 432.586 0.745924 4.03666 0
M  V30 4734 H 431.247 -0.00400098 3.141 0
M  V30 4735 H 430.44 1.7836 4.71385 0
M  V30 4736 H 430.042 2.1935 3.02922 0
M  V30 4737 H 432.334 2.90856 6.1189 0
M  V30 4738 H 433.277 4.33995 5.59512 0
M  V30 4739 H 433.685 2.7248 4.94383 0
M  V30 4740 N 433.083 -1.0153 1.20538 0
M  V30 4741 C 434.013 -2.11972 0.979295 0
M  V30 4742 C 434.994 -1.6985 -0.0921787 0
M  V30 4743 O 436.179 -1.94089 0.0655932 0
M  V30 4744 C 433.309 -3.43201 0.531984 0
M  V30 4745 C 432.263 -3.9907 1.54685 0
M  V30 4746 C 431.589 -5.26082 0.956127 0
M  V30 4747 C 432.889 -4.32313 2.93092 0
M  V30 4748 H 434.583 -2.31143 1.90298 0
M  V30 4749 H 432.129 -1.11079 0.916372 0
M  V30 4750 H 434.082 -4.1985 0.361044 0
M  V30 4751 H 432.806 -3.23792 -0.427327 0
M  V30 4752 H 431.465 -3.2453 1.70517 0
M  V30 4753 H 431.113 -5.02999 -0.0111538 0
M  V30 4754 H 430.813 -5.64426 1.63393 0
M  V30 4755 H 432.337 -6.05386 0.796284 0
M  V30 4756 H 433.751 -4.99845 2.80763 0
M  V30 4757 H 432.148 -4.81774 3.57791 0
M  V30 4758 H 433.218 -3.41025 3.44717 0
M  V30 4759 N 434.561 -1.01147 -1.20859 0
M  V30 4760 C 435.838 -0.613136 -1.85742 0
M  V30 4761 C 436.218 0.909004 -1.90526 0
M  V30 4762 O 435.566 1.79862 -1.40932 0
M  V30 4763 C 435.776 -1.255 -3.25654 0
M  V30 4764 C 437.124 -1.3672 -4.01986 0
M  V30 4765 O 438.148 -1.21082 -3.34989 0
M  V30 4766 O 437.007 -1.6194 -5.21956 0
M  V30 4767 H 434.101 -0.210878 -0.799662 0
M  V30 4768 H 436.647 -1.10853 -1.2849 0
M  V30 4769 H 435.419 -2.29532 -3.16908 0
M  V30 4770 H 435.042 -0.746369 -3.90532 0
M  V30 4771 N 436.039 1.36541 -0.78704 0
M  V30 4772 C 437.002 2.28413 -0.189778 0
M  V30 4773 C 438.002 1.48719 0.611499 0
M  V30 4774 O 439.192 1.68737 0.432842 0
M  V30 4775 C 436.324 3.32824 0.737638 0
M  V30 4776 H 437.517 2.82743 -0.999831 0
M  V30 4777 H 435.07 1.46065 -0.556298 0
M  V30 4778 H 435.805 2.83646 1.57212 0
M  V30 4779 H 435.59 3.91752 0.165044 0
M  V30 4780 H 437.08 4.0144 1.15047 0
M  V30 4781 N 437.518 0.538854 1.48102 0
M  V30 4782 C 438.743 0.0102694 2.07397 0
M  V30 4783 C 439.168 -1.26562 1.39153 0
M  V30 4784 O 438.526 -1.75357 0.460387 0
M  V30 4785 C 438.574 -0.187602 3.60112 0
M  V30 4786 O 437.678 -1.25432 3.92862 0
M  V30 4787 H 437.019 0.0430975 0.6626 0
M  V30 4788 H 439.549 0.749301 1.90385 0
M  V30 4789 H 439.559 -0.407517 4.0596 0
M  V30 4790 H 438.234 0.744386 4.09184 0
M  V30 4791 H 436.811 -1.01636 3.58782 0
M  V30 4792 N 438.996 -1.55193 0.274407 0
M  V30 4793 C 440.412 -1.59401 -0.0797543 0
M  V30 4794 C 440.612 -1.29162 -1.54659 0
M  V30 4795 O 439.668 -1.05215 -2.29534 0
M  V30 4796 C 440.981 -2.99257 0.294238 0
M  V30 4797 C 442.529 -3.12072 0.240796 0
M  V30 4798 C 443.004 -4.54194 0.589218 0
M  V30 4799 N 444.495 -4.60033 0.540744 0
M  V30 4800 C 445.23 -5.68027 0.783147 0
M  V30 4801 N 444.726 -6.8417 1.09013 0
M  V30 4802 N 446.519 -5.57572 0.711993 0
M  V30 4803 H 438.67 -1.73113 1.23067 0
M  V30 4804 H 440.933 -0.807197 0.497129 0
M  V30 4805 H 440.639 -3.26217 1.31435 0
M  V30 4806 H 440.513 -3.75427 -0.365281 0
M  V30 4807 H 442.9 -2.84877 -0.770024 0
M  V30 4808 H 442.981 -2.38117 0.934563 0
M  V30 4809 H 442.625 -4.82115 1.59772 0
M  V30 4810 H 442.555 -5.26448 -0.126331 0
M  V30 4811 H 445.046 -3.76599 0.313327 0
M  V30 4812 H 445.359 -7.6243 1.26178 0
M  V30 4813 H 443.704 -6.85787 1.12789 0
M  V30 4814 H 446.895 -4.65714 0.472014 0
M  V30 4815 H 447.068 -6.41659 0.90429 0
M  V30 4816 N 440.474 -0.00167713 -1.576 0
M  V30 4817 C 441.406 1.0174 -2.05382 0
M  V30 4818 C 442.419 1.30595 -0.972052 0
M  V30 4819 O 443.608 1.27542 -1.24882 0
M  V30 4820 C 440.708 2.35174 -2.44022 0
M  V30 4821 C 439.881 2.25234 -3.74951 0
M  V30 4822 C 438.94 3.4137 -4.00441 0
M  V30 4823 O 437.966 3.19483 -4.71083 0
M  V30 4824 N 439.168 4.64275 -3.48467 0
M  V30 4825 H 441.933 0.609902 -2.93428 0
M  V30 4826 H 439.494 0.185672 -1.60832 0
M  V30 4827 H 441.486 3.11643 -2.58187 0
M  V30 4828 H 440.056 2.67659 -1.61485 0
M  V30 4829 H 439.276 1.33664 -3.70847 0
M  V30 4830 H 440.564 2.15767 -4.60784 0
M  V30 4831 H 439.962 4.84955 -2.91264 0
M  V30 4832 H 438.519 5.38005 -3.67959 0
M  V30 4833 N 441.952 1.55251 0.271103 0
M  V30 4834 C 443.18 1.79974 1.02064 0
M  V30 4835 C 443.595 0.574003 1.79863 0
M  V30 4836 O 442.952 -0.456962 1.76686 0
M  V30 4837 C 443.003 3.02603 1.97772 0
M  V30 4838 O 442.724 4.20443 1.23124 0
M  V30 4839 C 444.225 3.39944 2.84522 0
M  V30 4840 H 441.445 0.599489 0.301419 0
M  V30 4841 H 443.989 2.02268 0.301313 0
M  V30 4842 H 442.144 2.8243 2.65165 0
M  V30 4843 H 442.558 4.89783 1.87651 0
M  V30 4844 H 444.032 4.28915 3.47471 0
M  V30 4845 H 444.509 2.59432 3.54389 0
M  V30 4846 H 445.115 3.62383 2.22618 0
M  V30 4847 N 443.43 -0.535701 1.48216 0
M  V30 4848 C 444.66 -1.3148 1.59363 0
M  V30 4849 C 445.068 -1.8753 0.250844 0
M  V30 4850 O 444.411 -1.66821 -0.769174 0
M  V30 4851 C 444.473 -2.50731 2.57632 0
M  V30 4852 C 444.137 -2.15811 4.02833 0
M  V30 4853 C 445.134 -1.71822 4.90686 0
M  V30 4854 C 442.819 -2.26509 4.48329 0
M  V30 4855 C 444.813 -1.3899 6.22062 0
M  V30 4856 C 442.5 -1.93289 5.79726 0
M  V30 4857 C 443.498 -1.49599 6.66415 0
M  V30 4858 O 443.186 -1.16812 7.95368 0
M  V30 4859 H 442.918 -0.406315 0.540263 0
M  V30 4860 H 445.472 -0.653569 1.94725 0
M  V30 4861 H 443.702 -3.19817 2.1738 0
M  V30 4862 H 445.391 -3.12797 2.58675 0
M  V30 4863 H 446.157 -1.63031 4.56778 0
M  V30 4864 H 442.036 -2.59471 3.81045 0
M  V30 4865 H 445.58 -1.04816 6.89681 0
M  V30 4866 H 441.477 -2.01718 6.13172 0
M  V30 4867 H 442.245 -1.30259 8.08069 0
M  V30 4868 N 444.908 -1.36708 -0.784132 0
M  V30 4869 C 445.871 -1.31307 -1.87859 0
M  V30 4870 C 446.871 -0.219654 -1.59293 0
M  V30 4871 O 448.061 -0.47476 -1.67606 0
M  V30 4872 C 445.193 -1.03679 -3.24751 0
M  V30 4873 H 446.386 -2.28647 -1.94064 0
M  V30 4874 H 443.939 -1.21558 -0.98252 0
M  V30 4875 H 444.674 -0.0681936 -3.24228 0
M  V30 4876 H 444.459 -1.82811 -3.46876 0
M  V30 4877 H 445.949 -1.02518 -4.04821 0
M  V30 4878 N 446.386 1.0089 -1.21074 0
M  V30 4879 C 447.626 1.76142 -1.03699 0
M  V30 4880 C 447.99 1.87292 0.422587 0
M  V30 4881 O 449.191 2.59068 0.716752 0
M  V30 4882 C 447.462 3.13805 -1.7106 0
M  V30 4883 S 449.021 4.04996 -1.68889 0
M  V30 4884 H 445.839 0.606113 -0.371683 0
M  V30 4885 H 448.441 1.20744 -1.53756 0
M  V30 4886 H 447.145 3.0332 -2.76451 0
M  V30 4887 H 446.676 3.74276 -1.21166 0
M  V30 4888 H 448.691 4.90842 -0.727211 0
M  V30 4889 N 447.864 1.01787 1.20321 0
M  V30 4890 C 449.275 0.739307 1.71438 0
M  V30 4891 C 449.626 -0.742041 1.81627 0
M  V30 4892 O 448.751 -1.57903 1.47971 0
M  V30 4893 C 449.346 1.33538 3.11373 0
M  V30 4894 C 447.905 1.10566 3.59795 0
M  V30 4895 C 447.052 1.44028 2.36962 0
M  V30 4896 H 450.003 1.18718 1.05317 0
M  V30 4897 H 450.024 0.726611 3.73498 0
M  V30 4898 H 449.536 2.41352 3.03926 0
M  V30 4899 H 447.637 0.0452405 3.72573 0
M  V30 4900 H 447.75 1.78661 4.44542 0
M  V30 4901 H 446.114 0.85933 2.39766 0
M  V30 4902 H 446.897 2.52901 2.32155 0
M  V30 4903 N 449.342 -1.36122 0.79427 0
M  V30 4904 C 450.582 -2.00942 0.374376 0
M  V30 4905 C 450.946 -1.61666 -1.03577 0
M  V30 4906 O 452.147 -2.19113 -1.55701 0
M  V30 4907 C 450.418 -3.53323 0.538327 0
M  V30 4908 S 451.977 -4.38311 0.20703 0
M  V30 4909 H 448.795 -0.696515 0.142785 0
M  V30 4910 H 451.397 -1.65929 1.03382 0
M  V30 4911 H 450.101 -3.79395 1.56484 0
M  V30 4912 H 449.632 -3.93162 -0.136882 0
M  V30 4913 H 451.647 -4.8623 -0.989695 0
M  V30 4914 N 450.82 -0.546701 -1.47814 0
M  V30 4915 C 451.768 0.220048 -2.31557 0
M  V30 4916 C 452.762 0.919472 -1.42275 0
M  V30 4917 O 453.968 0.841953 -1.59095 0
M  V30 4918 H 450.343 0.0898334 -0.746615 0
M  V30 4919 H 452.314 -0.505589 -2.94086 0
M  V30 4920 C 451.063 1.24353 -3.24702 0
M  V30 4921 H 450.386 0.714758 -3.93359 0
M  V30 4922 H 451.826 1.75112 -3.8615 0
M  V30 4923 C 450.285 2.28593 -2.47481 0
M  V30 4924 O 450.815 3.35334 -2.21165 0
M  V30 4925 N 449.021 2.02244 -2.08676 0
M  V30 4926 H 448.568 1.15455 -2.30278 0
M  V30 4927 H 448.526 2.72207 -1.57323 0
M  V30 4928 N 452.299 1.55045 -0.282633 0
M  V30 4929 C 453.262 2.21515 0.588539 0
M  V30 4930 C 454.262 1.19535 1.07554 0
M  V30 4931 O 455.452 1.44391 0.974514 0
M  V30 4932 C 452.584 2.88704 1.8128 0
M  V30 4933 H 453.777 2.99899 0.00806397 0
M  V30 4934 H 451.33 1.56265 -0.0333067 0
M  V30 4935 H 452.065 2.14352 2.43359 0
M  V30 4936 H 451.85 3.63443 1.47144 0
M  V30 4937 H 453.34 3.39465 2.43214 0
M  V30 4938 N 453.777 0.010035 1.57597 0
M  V30 4939 C 454.725 -0.996272 2.10184 0
M  V30 4940 C 455.719 -1.34942 1.02406 0
M  V30 4941 O 456.925 -1.33389 1.20861 0
M  V30 4942 H 453.3 -0.338982 0.671264 0
M  V30 4943 H 455.271 -0.527272 2.93705 0
M  V30 4944 C 454.02 -2.27599 2.62857 0
M  V30 4945 H 453.343 -2.01295 3.45428 0
M  V30 4946 H 454.783 -2.96265 3.0332 0
M  V30 4947 C 453.242 -2.99269 1.54725 0
M  V30 4948 O 453.772 -3.90644 0.93597 0
M  V30 4949 N 451.978 -2.61269 1.27228 0
M  V30 4950 H 451.525 -1.87043 1.77123 0
M  V30 4951 H 451.483 -3.09534 0.550999 0
M  V30 4952 N 455.255 -1.55392 -0.262866 0
M  V30 4953 C 456.165 -1.92077 -1.34698 0
M  V30 4954 C 457.181 -0.819227 -1.53508 0
M  V30 4955 O 458.357 -1.11921 -1.67439 0
M  V30 4956 C 455.422 -2.19407 -2.68443 0
M  V30 4957 C 454.483 -3.42905 -2.58292 0
M  V30 4958 C 453.716 -3.68921 -3.85659 0
M  V30 4959 O 453.939 -2.97275 -4.8681 0
M  V30 4960 O 452.873 -4.62455 -3.85252 0
M  V30 4961 H 456.699 -2.84384 -1.06581 0
M  V30 4962 H 454.284 -1.42069 -0.462264 0
M  V30 4963 H 456.166 -2.38365 -3.47506 0
M  V30 4964 H 454.841 -1.30282 -2.96325 0
M  V30 4965 H 453.748 -3.29272 -1.7757 0
M  V30 4966 H 455.081 -4.32282 -2.35358 0
M  V30 4967 N 456.733 0.527833 -1.48498 0
M  V30 4968 C 457.979 1.28545 -1.56857 0
M  V30 4969 C 458.312 1.92678 -0.242651 0
M  V30 4970 O 457.587 1.79394 0.751545 0
M  V30 4971 C 457.87 2.37314 -2.70839 0
M  V30 4972 C 457.723 1.77858 -4.13142 0
M  V30 4973 C 459.042 3.39068 -2.80573 0
M  V30 4974 H 456.161 0.466006 -0.570971 0
M  V30 4975 H 458.803 0.587784 -1.8068 0
M  V30 4976 H 456.953 2.96821 -2.50658 0
M  V30 4977 H 458.625 1.22385 -4.44769 0
M  V30 4978 H 456.868 1.08383 -4.20042 0
M  V30 4979 H 457.539 2.56624 -4.88721 0
M  V30 4980 H 460.015 2.89518 -2.98862 0
M  V30 4981 H 458.891 4.12566 -3.6205 0
M  V30 4982 H 459.152 3.9975 -1.88818 0
M  V30 4983 N 458.211 1.37122 0.776871 0
M  V30 4984 C 459.457 1.32243 1.53752 0
M  V30 4985 C 459.79 -0.0944745 1.9397 0
M  V30 4986 O 459.065 -1.05068 1.6368 0
M  V30 4987 C 459.348 2.25681 2.80607 0
M  V30 4988 C 459.201 3.76127 2.46676 0
M  V30 4989 C 460.52 2.17657 3.82509 0
M  V30 4990 H 457.639 0.481704 0.557791 0
M  V30 4991 H 460.281 1.6778 0.891612 0
M  V30 4992 H 458.431 1.95505 3.35723 0
M  V30 4993 H 460.103 4.16877 1.97513 0
M  V30 4994 H 458.346 3.94946 1.79443 0
M  V30 4995 H 459.017 4.36933 3.37333 0
M  V30 4996 H 461.493 2.44245 3.36873 0
M  V30 4997 H 460.369 2.85185 4.69 0
M  V30 4998 H 460.63 1.16785 4.26396 0
M  V30 4999 N 459.689 -1.00246 1.21608 0
M  V30 5000 C 460.966 -1.71336 0.943568 0
M  V30 5001 C 461.346 -2.03972 -0.543943 0
M  V30 5002 O 460.694 -1.71545 -1.50946 0
M  V30 5003 C 460.904 -2.97094 1.83128 0
M  V30 5004 C 462.252 -3.70071 2.08165 0
M  V30 5005 O 463.276 -3.07081 1.80498 0
M  V30 5006 O 462.135 -4.83376 2.54971 0
M  V30 5007 H 459.229 -0.747386 0.354039 0
M  V30 5008 H 461.775 -1.05967 1.32549 0
M  V30 5009 H 460.547 -2.69407 2.83788 0
M  V30 5010 H 460.17 -3.70204 1.45034 0
M  V30 5011 N 461.167 -1.02423 -1.1978 0
M  V30 5012 C 462.115 -0.594474 -2.24875 0
M  V30 5013 C 463.109 0.370598 -1.65296 0
M  V30 5014 O 464.315 0.239684 -1.78397 0
M  V30 5015 H 460.69 -0.173961 -0.731602 0
M  V30 5016 H 462.661 -1.4916 -2.58445 0
M  V30 5017 C 461.41 0.0436512 -3.47673 0
M  V30 5018 H 460.733 -0.689963 -3.93801 0
M  V30 5019 H 462.173 0.307362 -4.22884 0
M  V30 5020 C 460.632 1.28881 -3.11274 0
M  V30 5021 O 461.162 2.38135 -3.23503 0
M  V30 5022 N 459.368 1.1758 -2.6575 0
M  V30 5023 H 458.915 0.286769 -2.55999 0
M  V30 5024 H 458.873 2.00988 -2.41767 0
M  V30 5025 N 462.645 1.35699 -0.801477 0
M  V30 5026 C 463.891 1.99208 -0.380022 0
M  V30 5027 C 464.224 1.63445 1.04878 0
M  V30 5028 O 463.499 0.895223 1.72673 0
M  V30 5029 C 463.782 3.55755 -0.557708 0
M  V30 5030 C 463.635 4.01332 -2.03107 0
M  V30 5031 C 464.954 4.40096 0.0197968 0
M  V30 5032 H 462.073 0.723667 -0.139552 0
M  V30 5033 H 464.715 1.60928 -1.01006 0
M  V30 5034 H 462.865 3.88494 -0.0213741 0
M  V30 5035 H 464.537 3.79026 -2.62939 0
M  V30 5036 H 462.78 3.52429 -2.52936 0
M  V30 5037 H 463.451 5.10234 -2.1063 0
M  V30 5038 H 465.927 4.13786 -0.438179 0
M  V30 5039 H 464.803 5.48735 -0.134477 0
M  V30 5040 H 465.064 4.2786 1.11303 0
M  V30 5041 N 464.123 0.554532 1.47522 0
M  V30 5042 C 465.372 0.0273458 2.01681 0
M  V30 5043 C 465.685 -1.32962 1.43459 0
M  V30 5044 O 466.891 -1.94657 1.89265 0
M  V30 5045 C 465.347 -0.00159057 3.599 0
M  V30 5046 C 464.955 1.35197 4.27113 0
M  V30 5047 C 466.699 -0.476311 4.21819 0
M  V30 5048 C 464.606 1.28229 5.77331 0
M  V30 5049 H 463.536 0.00645269 0.753972 0
M  V30 5050 H 466.187 0.701985 1.69542 0
M  V30 5051 H 464.569 -0.741821 3.8899 0
M  V30 5052 H 465.743 2.1097 4.09668 0
M  V30 5053 H 464.058 1.76441 3.77171 0
M  V30 5054 H 466.655 -0.5468 5.31897 0
M  V30 5055 H 466.998 -1.4877 3.8881 0
M  V30 5056 H 467.531 0.20898 3.97251 0
M  V30 5057 H 464.27 2.26959 6.14955 0
M  V30 5058 H 463.79 0.566314 5.97121 0
M  V30 5059 H 465.469 0.983226 6.39485 0
M  V30 5060 N 465.601 -1.54893 0.290851 0
M  V30 5061 C 466.549 -2.24579 -0.605576 0
M  V30 5062 C 467.543 -1.24824 -1.14522 0
M  V30 5063 O 468.749 -1.42706 -1.09704 0
M  V30 5064 H 465.124 -0.720946 -0.213872 0
M  V30 5065 H 467.095 -2.984 0.0048173 0
M  V30 5066 C 465.844 -2.99224 -1.77088 0
M  V30 5067 H 465.167 -3.75782 -1.36484 0
M  V30 5068 H 466.607 -3.51281 -2.3744 0
M  V30 5069 C 465.066 -2.05602 -2.66888 0
M  V30 5070 O 465.596 -1.61745 -3.67698 0
M  V30 5071 N 463.802 -1.71771 -2.34399 0
M  V30 5072 H 463.349 -2.07633 -1.52468 0
M  V30 5073 H 463.307 -1.09403 -2.94751 0
M  V30 5074 N 467.08 -0.0183926 -1.57589 0
M  V30 5075 C 468.027 0.967022 -2.09565 0
M  V30 5076 C 468.997 1.32983 -0.995225 0
M  V30 5077 O 470.182 1.42501 -1.26878 0
M  V30 5078 C 467.322 2.24772 -2.61861 0
M  V30 5079 C 466.435 1.94232 -3.85873 0
M  V30 5080 C 465.57 3.16518 -4.26603 0
M  V30 5081 C 464.609 2.81748 -5.43401 0
M  V30 5082 N 463.746 3.96626 -5.79338 0
M  V30 5083 H 468.586 0.516874 -2.93483 0
M  V30 5084 H 466.123 0.243544 -1.4507 0
M  V30 5085 H 468.081 2.99667 -2.90268 0
M  V30 5086 H 466.711 2.67423 -1.8079 0
M  V30 5087 H 465.763 1.09625 -3.64262 0
M  V30 5088 H 467.075 1.64616 -4.70853 0
M  V30 5089 H 466.229 3.99743 -4.56389 0
M  V30 5090 H 464.968 3.49286 -3.40368 0
M  V30 5091 H 463.973 1.96933 -5.1332 0
M  V30 5092 H 465.198 2.50207 -6.31327 0
M  V30 5093 H 463.144 4.29257 -4.96059 0
M  V30 5094 H 463.061 3.70598 -6.58933 0
M  V30 5095 H 464.329 4.80586 -6.13724 0
M  V30 5096 N 468.558 1.5553 0.254621 0
M  V30 5097 C 469.806 1.7665 0.981793 0
M  V30 5098 C 470.127 0.580963 1.86145 0
M  V30 5099 O 469.397 -0.403537 1.91699 0
M  V30 5100 H 467.977 0.651475 0.365498 0
M  V30 5101 H 470.639 1.92958 0.274426 0
M  V30 5102 H 469.735 2.67486 1.60802 0
M  V30 5103 N 470.036 -0.519951 1.48776 0
M  V30 5104 C 471.313 -1.28123 1.47797 0
M  V30 5105 C 471.693 -2.10196 0.195157 0
M  V30 5106 O 471.041 -2.13167 -0.822925 0
M  V30 5107 C 471.251 -2.15413 2.74587 0
M  V30 5108 C 472.599 -2.75225 3.23321 0
M  V30 5109 O 473.623 -2.25694 2.75574 0
M  V30 5110 O 472.482 -3.65346 4.06429 0
M  V30 5111 H 469.576 -0.578793 0.590701 0
M  V30 5112 H 472.122 -0.535779 1.6102 0
M  V30 5113 H 470.894 -1.54617 3.59457 0
M  V30 5114 H 470.517 -2.97186 2.64132 0
M  V30 5115 N 471.514 -1.37532 -0.769588 0
M  V30 5116 C 472.739 -1.36231 -1.56384 0
M  V30 5117 C 473.164 0.0495849 -1.88035 0
M  V30 5118 O 472.522 1.02723 -1.49391 0
M  V30 5119 C 472.57 -2.20986 -2.84952 0
M  V30 5120 O 471.674 -1.61597 -3.79421 0
M  V30 5121 H 471.015 -0.465387 -0.473615 0
M  V30 5122 H 473.545 -1.81085 -0.952342 0
M  V30 5123 H 473.555 -2.34277 -3.34034 0
M  V30 5124 H 472.23 -3.23612 -2.61243 0
M  V30 5125 H 470.807 -1.57359 -3.38072 0
M  V30 5126 N 472.992 0.995999 -1.22138 0
M  V30 5127 C 474.269 1.70834 -0.952642 0
M  V30 5128 C 474.649 2.04257 0.533119 0
M  V30 5129 O 473.997 1.72343 1.50034 0
M  V30 5130 C 474.207 2.96119 -1.84701 0
M  V30 5131 C 475.555 3.68962 -2.10124 0
M  V30 5132 O 476.579 3.0612 -1.82124 0
M  V30 5133 O 475.438 4.82017 -2.57531 0
M  V30 5134 H 472.532 0.745498 -0.357997 0
M  V30 5135 H 475.078 1.05262 -1.33109 0
M  V30 5136 H 473.85 2.67898 -2.85213 0
M  V30 5137 H 473.473 3.6943 -1.46995 0
M  V30 5138 N 474.47 1.03057 1.19235 0
M  V30 5139 C 475.418 0.606391 2.24557 0
M  V30 5140 C 476.412 -0.361826 1.65491 0
M  V30 5141 O 477.618 -0.23022 1.78522 0
M  V30 5142 H 473.993 0.177838 0.730669 0
M  V30 5143 H 475.964 1.50529 2.5765 0
M  V30 5144 C 474.713 -0.0252127 3.47691 0
M  V30 5145 H 474.036 0.710838 3.9343 0
M  V30 5146 H 475.476 -0.284931 4.23042 0
M  V30 5147 C 473.935 -1.27229 3.11953 0
M  V30 5148 O 474.465 -2.36416 3.24762 0
M  V30 5149 N 472.671 -1.16169 2.6637 0
M  V30 5150 H 472.218 -0.273189 2.56147 0
M  V30 5151 H 472.176 -1.99703 2.42829 0
M  V30 5152 N 475.948 -1.35272 0.808662 0
M  V30 5153 C 477.359 -1.81179 0.450688 0
M  V30 5154 C 477.71 -1.67143 -1.02751 0
M  V30 5155 O 476.835 -1.20325 -1.79864 0
M  V30 5156 C 477.43 -3.28943 0.811275 0
M  V30 5157 C 475.989 -3.72985 0.505871 0
M  V30 5158 C 475.136 -2.57229 1.03578 0
M  V30 5159 H 478.087 -1.2322 1.00012 0
M  V30 5160 H 478.108 -3.80342 0.109588 0
M  V30 5161 H 477.62 -3.39127 1.88718 0
M  V30 5162 H 475.721 -3.68349 -0.561209 0
M  V30 5163 H 475.834 -4.67677 1.03995 0
M  V30 5164 H 474.198 -2.50548 0.458005 0
M  V30 5165 H 474.981 -2.7019 2.11784 0
M  V30 5166 N 477.426 -0.562348 -1.47226 0
M  V30 5167 C 478.672 -0.0402761 -2.0276 0
M  V30 5168 C 479.005 1.30823 -1.43523 0
M  V30 5169 O 478.28 1.85249 -0.592705 0
M  V30 5170 C 478.563 0.047311 -3.60069 0
M  V30 5171 C 478.416 -1.32865 -4.29729 0
M  V30 5172 C 479.735 0.758182 -4.3352 0
M  V30 5173 H 476.854 -0.0161105 -0.736824 0
M  V30 5174 H 479.496 -0.725628 -1.75598 0
M  V30 5175 H 477.646 0.630986 -3.83342 0
M  V30 5176 H 479.318 -1.95593 -4.17781 0
M  V30 5177 H 477.561 -1.90195 -3.89882 0
M  V30 5178 H 478.232 -1.22004 -5.38349 0
M  V30 5179 H 480.708 0.262546 -4.15271 0
M  V30 5180 H 479.584 0.78844 -5.43208 0
M  V30 5181 H 479.845 1.81537 -4.03109 0
M  V30 5182 N 478.904 1.54736 -0.299062 0
M  V30 5183 C 480.129 2.04975 0.316254 0
M  V30 5184 C 480.554 1.17501 1.46885 0
M  V30 5185 O 479.912 0.178678 1.80417 0
M  V30 5186 C 479.96 3.52672 0.751997 0
M  V30 5187 O 479.064 3.68226 1.85697 0
M  V30 5188 H 478.405 0.661126 0.0617175 0
M  V30 5189 H 480.935 1.99805 -0.440341 0
M  V30 5190 H 480.945 3.94488 1.04133 0
M  V30 5191 H 479.62 4.158 -0.0911482 0
M  V30 5192 H 478.197 3.38316 1.56834 0
M  V30 5193 N 480.382 0.0267497 1.57577 0
M  V30 5194 C 481.793 -0.512413 1.79531 0
M  V30 5195 C 482.144 -1.72391 0.936791 0
M  V30 5196 O 481.269 -2.15903 0.146543 0
M  V30 5197 C 481.864 -0.936378 3.25603 0
M  V30 5198 C 480.423 -1.42067 3.4856 0
M  V30 5199 C 479.57 -0.384278 2.74624 0
M  V30 5200 H 482.521 0.252797 1.56674 0
M  V30 5201 H 482.542 -1.80088 3.35184 0
M  V30 5202 H 482.054 -0.0544332 3.88062 0
M  V30 5203 H 480.155 -2.32262 2.9135 0
M  V30 5204 H 480.268 -1.42968 4.57271 0
M  V30 5205 H 478.632 -0.851855 2.40032 0
M  V30 5206 H 479.415 0.489159 3.39797 0
M  V30 5207 N 481.861 -1.55662 -0.24637 0
M  V30 5208 C 483.089 -1.81575 -0.991876 0
M  V30 5209 C 483.504 -0.602545 -1.78927 0
M  V30 5210 O 482.861 0.428795 -1.77391 0
M  V30 5211 C 482.912 -3.05711 -1.92933 0
M  V30 5212 O 482.633 -4.22348 -1.1642 0
M  V30 5213 C 484.134 -3.44428 -2.79078 0
M  V30 5214 H 481.354 -0.604209 -0.291844 0
M  V30 5215 H 483.898 -2.02722 -0.269095 0
M  V30 5216 H 482.053 -2.86612 -2.60638 0
M  V30 5217 H 482.467 -4.92706 -1.79835 0
M  V30 5218 H 483.941 -4.34388 -3.40603 0
M  V30 5219 H 484.418 -2.65037 -3.50217 0
M  V30 5220 H 485.024 -3.65879 -2.16824 0
M  V30 5221 N 483.339 0.512053 -1.4905 0
M  V30 5222 C 484.269 1.62365 -1.67809 0
M  V30 5223 C 485.25 1.61737 -0.526809 0
M  V30 5224 O 486.435 1.78651 -0.761404 0
M  V30 5225 C 483.565 3.00895 -1.73435 0
M  V30 5226 C 482.519 3.16387 -2.88242 0
M  V30 5227 C 481.845 4.56157 -2.78971 0
M  V30 5228 C 483.145 2.97457 -4.29321 0
M  V30 5229 H 484.839 1.46921 -2.60873 0
M  V30 5230 H 482.385 0.705379 -1.2554 0
M  V30 5231 H 484.338 3.78549 -1.85145 0
M  V30 5232 H 483.062 3.17403 -0.769619 0
M  V30 5233 H 481.721 2.41155 -2.76116 0
M  V30 5234 H 481.369 4.69525 -1.8043 0
M  V30 5235 H 481.069 4.67465 -3.5602 0
M  V30 5236 H 482.593 5.35886 -2.92675 0
M  V30 5237 H 484.007 3.64888 -4.42187 0
M  V30 5238 H 482.404 3.20245 -5.07507 0
M  V30 5239 H 483.474 1.93692 -4.44535 0
M  V30 5240 N 484.817 1.37938 0.762283 0
M  V30 5241 C 486.066 1.32989 1.51647 0
M  V30 5242 C 486.379 -0.0802922 1.95435 0
M  V30 5243 O 487.585 -0.252295 2.70325 0
M  V30 5244 C 486.041 2.33485 2.73885 0
M  V30 5245 C 485.649 3.80079 2.37157 0
M  V30 5246 C 487.393 2.37563 3.51801 0
M  V30 5247 C 485.3 4.72283 3.55954 0
M  V30 5248 H 484.23 0.494301 0.56937 0
M  V30 5249 H 486.881 1.63448 0.834083 0
M  V30 5250 H 485.263 1.96056 3.44061 0
M  V30 5251 H 486.437 4.26398 1.74704 0
M  V30 5252 H 484.752 3.79037 1.72395 0
M  V30 5253 H 487.349 3.0365 4.40114 0
M  V30 5254 H 487.692 1.39199 3.92338 0
M  V30 5255 H 488.225 2.73747 2.8863 0
M  V30 5256 H 484.964 5.7181 3.2049 0
M  V30 5257 H 484.484 4.30663 4.1748 0
M  V30 5258 H 486.163 4.89876 4.22647 0
M  V30 5259 N 486.295 -0.989507 1.22664 0
M  V30 5260 C 487.227 -2.0824 0.957542 0
M  V30 5261 C 488.24 -1.6267 -0.0651098 0
M  V30 5262 O 489.429 -1.77695 0.169312 0
M  V30 5263 C 486.529 -3.36298 0.419145 0
M  V30 5264 C 485.702 -4.10882 1.49982 0
M  V30 5265 C 484.761 -5.17221 0.967904 0
M  V30 5266 O 483.787 -5.44613 1.65487 0
M  V30 5267 N 484.989 -5.80124 -0.20896 0
M  V30 5268 H 487.754 -2.31904 1.89843 0
M  V30 5269 H 485.315 -1.15552 1.13399 0
M  V30 5270 H 487.307 -4.04671 0.0485451 0
M  V30 5271 H 485.877 -3.09671 -0.426937 0
M  V30 5272 H 485.097 -3.37092 2.04359 0
M  V30 5273 H 486.385 -4.57482 2.22682 0
M  V30 5274 H 485.783 -5.60244 -0.783818 0
M  V30 5275 H 484.34 -6.49715 -0.520913 0
M  V30 5276 N 487.773 -1.03688 -1.18687 0
M  V30 5277 C 488.703 -0.645407 -2.24403 0
M  V30 5278 C 489.684 0.349511 -1.66471 0
M  V30 5279 O 490.869 0.230453 -1.92828 0
M  V30 5280 C 487.999 -0.00365337 -3.473 0
M  V30 5281 C 486.953 -0.921705 -4.17958 0
M  V30 5282 C 486.279 -0.144629 -5.34504 0
M  V30 5283 C 487.579 -2.23909 -4.71871 0
M  V30 5284 H 489.273 -1.52917 -2.57404 0
M  V30 5285 H 486.819 -0.736711 -1.23728 0
M  V30 5286 H 488.772 0.281908 -4.20456 0
M  V30 5287 H 487.496 0.914963 -3.13522 0
M  V30 5288 H 486.155 -1.19159 -3.46694 0
M  V30 5289 H 485.803 0.776274 -4.96974 0
M  V30 5290 H 485.503 -0.756206 -5.82714 0
M  V30 5291 H 487.027 0.134004 -6.10453 0
M  V30 5292 H 488.441 -2.0145 -5.36741 0
M  V30 5293 H 486.838 -2.8033 -5.30599 0
M  V30 5294 H 487.908 -2.88822 -3.895 0
M  V30 5295 N 489.251 1.34841 -0.815825 0
M  V30 5296 C 490.199 2.31549 -0.220888 0
M  V30 5297 C 491.193 1.5707 0.634457 0
M  V30 5298 O 492.399 1.72125 0.526589 0
M  V30 5299 H 488.774 0.750153 -0.0526782 0
M  V30 5300 H 490.745 2.7926 -1.05149 0
M  V30 5301 C 489.494 3.42335 0.608427 0
M  V30 5302 H 488.817 3.9978 -0.0404121 0
M  V30 5303 H 490.257 4.12258 0.990931 0
M  V30 5304 C 488.716 2.86173 1.77782 0
M  V30 5305 O 489.246 2.80474 2.87571 0
M  V30 5306 N 487.452 2.43093 1.59229 0
M  V30 5307 H 486.999 2.47928 0.699237 0
M  V30 5308 H 486.957 2.05866 2.37627 0
M  V30 5309 N 490.729 0.570148 1.46925 0
M  V30 5310 C 491.677 -0.183181 2.31878 0
M  V30 5311 C 492.671 -0.896721 1.43719 0
M  V30 5312 O 493.877 -0.816536 1.60414 0
M  V30 5313 H 490.252 -0.077944 0.74795 0
M  V30 5314 H 492.223 0.552312 2.93244 0
M  V30 5315 C 490.972 -1.19172 3.2664 0
M  V30 5316 H 490.295 -0.652088 3.94446 0
M  V30 5317 H 491.735 -1.68946 3.88887 0
M  V30 5318 C 490.194 -2.24627 2.51086 0
M  V30 5319 O 490.724 -3.31773 2.26472 0
M  V30 5320 N 488.93 -1.98898 2.11867 0
M  V30 5321 H 488.477 -1.11777 2.32086 0
M  V30 5322 H 488.435 -2.6967 1.61634 0
M  V30 5323 N 492.207 -1.54576 0.307264 0
M  V30 5324 C 493.155 -2.25208 -0.581723 0
M  V30 5325 C 494.149 -1.26031 -1.13192 0
M  V30 5326 O 495.355 -1.43862 -1.08184 0
M  V30 5327 H 491.73 -0.723173 -0.206214 0
M  V30 5328 H 493.701 -2.98378 0.0364663 0
M  V30 5329 C 492.45 -3.01086 -1.73904 0
M  V30 5330 H 491.773 -3.77208 -1.32491 0
M  V30 5331 H 493.213 -3.5378 -2.33701 0
M  V30 5332 C 491.672 -2.08422 -2.64692 0
M  V30 5333 O 492.202 -1.65636 -3.65961 0
M  V30 5334 N 490.408 -1.74247 -2.32564 0
M  V30 5335 H 489.955 -2.09238 -1.50257 0
M  V30 5336 H 489.913 -1.12524 -2.93574 0
M  V30 5337 N 493.685 -0.035106 -1.57561 0
M  V30 5338 C 494.615 0.942993 -2.13612 0
M  V30 5339 C 495.596 1.33531 -1.05373 0
M  V30 5340 O 496.781 1.41287 -1.33235 0
M  V30 5341 C 493.911 2.22332 -2.66807 0
M  V30 5342 C 492.865 1.97156 -3.79886 0
M  V30 5343 C 492.191 3.31506 -4.19533 0
M  V30 5344 C 493.491 1.30596 -5.05709 0
M  V30 5345 H 495.185 0.476179 -2.95589 0
M  V30 5346 H 492.731 0.227602 -1.4219 0
M  V30 5347 H 494.684 2.91142 -3.04654 0
M  V30 5348 H 493.408 2.7119 -1.81999 0
M  V30 5349 H 492.067 1.30763 -3.42486 0
M  V30 5350 H 491.715 3.78134 -3.31698 0
M  V30 5351 H 491.415 3.15465 -4.95738 0
M  V30 5352 H 492.939 4.01574 -4.59968 0
M  V30 5353 H 494.353 1.89416 -5.41105 0
M  V30 5354 H 492.75 1.24934 -5.86951 0
M  V30 5355 H 493.82 0.279742 -4.84092 0
M  V30 5356 N 495.163 1.55791 0.238111 0
M  V30 5357 C 496.11 1.9105 1.29493 0
M  V30 5358 C 497.08 0.765733 1.47397 0
M  V30 5359 O 498.265 1.02017 1.61236 0
M  V30 5360 C 495.405 2.21826 2.64362 0
M  V30 5361 C 494.518 3.49153 2.54394 0
M  V30 5362 C 493.653 3.69455 3.81676 0
M  V30 5363 C 492.692 4.90353 3.66361 0
M  V30 5364 N 491.829 5.07131 4.85554 0
M  V30 5365 H 496.669 2.81172 0.987233 0
M  V30 5366 H 494.206 1.39179 0.476203 0
M  V30 5367 H 496.164 2.37675 3.4288 0
M  V30 5368 H 494.794 1.34897 2.93262 0
M  V30 5369 H 493.846 3.41587 1.67399 0
M  V30 5370 H 495.158 4.37818 2.38991 0
M  V30 5371 H 494.312 3.85311 4.68636 0
M  V30 5372 H 493.051 2.7904 3.99985 0
M  V30 5373 H 492.056 4.74464 2.77784 0
M  V30 5374 H 493.281 5.82237 3.49538 0
M  V30 5375 H 491.227 4.19654 5.04209 0
M  V30 5376 H 491.144 5.89899 4.72816 0
M  V30 5377 H 492.412 5.27407 5.73988 0
M  V30 5378 N 496.642 -0.504142 1.49319 0
M  V30 5379 C 497.59 -1.62689 1.66238 0
M  V30 5380 C 498.584 -1.6095 0.528349 0
M  V30 5381 O 499.79 -1.65496 0.707887 0
M  V30 5382 H 496.165 -0.539247 0.524134 0
M  V30 5383 H 498.136 -1.45571 2.60484 0
M  V30 5384 C 496.885 -3.00841 1.74328 0
M  V30 5385 H 496.208 -3.02884 2.60963 0
M  V30 5386 H 497.648 -3.78945 1.90202 0
M  V30 5387 C 496.107 -3.33355 0.487416 0
M  V30 5388 O 496.637 -3.99819 -0.388294 0
M  V30 5389 N 494.843 -2.88469 0.351306 0
M  V30 5390 H 494.39 -2.34557 1.06492 0
M  V30 5391 H 494.348 -3.10591 -0.487899 0
M  V30 5392 N 498.12 -1.38341 -0.754957 0
M  V30 5393 C 499.348 -1.37704 -1.54419 0
M  V30 5394 C 499.763 0.0335243 -1.8877 0
M  V30 5395 O 499.12 0.999773 -1.52679 0
M  V30 5396 C 499.171 -2.23136 -2.84416 0
M  V30 5397 O 498.892 -3.58697 -2.51531 0
M  V30 5398 C 500.393 -2.30664 -3.78562 0
M  V30 5399 H 497.613 -0.471061 -0.477852 0
M  V30 5400 H 500.157 -1.81902 -0.934446 0
M  V30 5401 H 498.312 -1.82403 -3.41772 0
M  V30 5402 H 498.726 -4.03665 -3.34896 0
M  V30 5403 H 500.2 -2.9473 -4.66732 0
M  V30 5404 H 500.677 -1.3199 -4.18898 0
M  V30 5405 H 501.283 -2.71781 -3.27131 0
M  V30 5406 N 499.598 0.982988 -1.23187 0
M  V30 5407 C 500.826 1.75921 -1.08901 0
M  V30 5408 C 501.241 1.85341 0.359719 0
M  V30 5409 O 500.598 1.33072 1.24892 0
M  V30 5410 C 500.649 3.18742 -1.70545 0
M  V30 5411 O 500.37 3.09814 -3.09753 0
M  V30 5412 C 501.871 4.1277 -1.61667 0
M  V30 5413 H 499.091 0.552166 -0.381252 0
M  V30 5414 H 501.635 1.23516 -1.62985 0
M  V30 5415 H 499.79 3.68182 -1.20501 0
M  V30 5416 H 500.204 3.99703 -3.39614 0
M  V30 5417 H 501.678 5.10697 -2.09506 0
M  V30 5418 H 502.155 4.3542 -0.575009 0
M  V30 5419 H 502.761 3.69232 -2.11064 0
M  V30 5420 N 501.076 1.04316 1.18135 0
M  V30 5421 C 502.008 0.594444 2.21357 0
M  V30 5422 C 503.021 -0.337215 1.59269 0
M  V30 5423 O 504.21 -0.131337 1.78016 0
M  V30 5424 C 501.31 -0.151251 3.38562 0
M  V30 5425 C 500.483 0.788907 4.30227 0
M  V30 5426 C 499.542 0.0860572 5.2613 0
M  V30 5427 O 498.568 0.717302 5.64662 0
M  V30 5428 N 499.77 -1.17969 5.68387 0
M  V30 5429 H 502.535 1.48227 2.60478 0
M  V30 5430 H 500.096 0.92396 1.32946 0
M  V30 5431 H 502.088 -0.631352 3.99745 0
M  V30 5432 H 500.658 -0.940639 2.98112 0
M  V30 5433 H 499.878 1.44882 3.6661 0
M  V30 5434 H 501.166 1.42738 4.88368 0
M  V30 5435 H 500.564 -1.71302 5.3914 0
M  V30 5436 H 499.121 -1.60402 6.31755 0
M  V30 5437 N 502.554 -1.34406 0.822964 0
M  V30 5438 C 503.782 -2.02508 0.424039 0
M  V30 5439 C 504.197 -1.61975 -0.970022 0
M  V30 5440 O 503.554 -0.825228 -1.62777 0
M  V30 5441 C 503.605 -3.57789 0.516657 0
M  V30 5442 O 503.326 -3.96853 1.85577 0
M  V30 5443 C 504.827 -4.43157 0.112637 0
M  V30 5444 H 502.047 -0.649063 0.170173 0
M  V30 5445 H 504.591 -1.7168 1.11113 0
M  V30 5446 H 502.746 -3.87207 -0.122353 0
M  V30 5447 H 503.16 -4.91538 1.83005 0
M  V30 5448 H 504.634 -5.51527 0.228526 0
M  V30 5449 H 505.111 -4.28939 -0.943837 0
M  V30 5450 H 505.717 -4.19067 0.725449 0
M  V30 5451 N 504.032 -0.577932 -1.46621 0
M  V30 5452 C 505.28 -0.061566 -2.02006 0
M  V30 5453 C 505.601 1.30117 -1.4524 0
M  V30 5454 O 504.871 1.85313 -0.63529 0
M  V30 5455 H 503.451 -0.0197692 -0.746738 0
M  V30 5456 H 506.113 -0.752631 -1.79782 0
M  V30 5457 H 505.209 0.0110238 -3.12098 0
M  V30 5458 N 505.51 1.54411 -0.315457 0
M  V30 5459 C 506.458 2.25514 0.569771 0
M  V30 5460 C 507.452 1.2663 1.12522 0
M  V30 5461 O 508.658 1.44434 1.07419 0
M  V30 5462 H 505.033 0.724257 0.202376 0
M  V30 5463 H 507.004 2.98354 -0.0522895 0
M  V30 5464 C 505.753 3.02004 1.72305 0
M  V30 5465 H 505.076 3.77906 1.30488 0
M  V30 5466 H 506.516 3.55014 2.31821 0
M  V30 5467 C 504.975 2.09822 2.63583 0
M  V30 5468 O 505.505 1.67574 3.65078 0
M  V30 5469 N 503.711 1.75478 2.31637 0
M  V30 5470 H 503.258 2.10032 1.49145 0
M  V30 5471 H 503.216 1.14079 2.92973 0
M  V30 5472 N 506.988 0.0434614 1.5754 0
M  V30 5473 C 507.935 -0.93356 2.11077 0
M  V30 5474 C 508.905 -1.31383 1.01626 0
M  V30 5475 O 510.09 -1.40465 1.29129 0
M  V30 5476 C 507.23 -2.20578 2.65404 0
M  V30 5477 C 506.343 -1.88068 3.88914 0
M  V30 5478 C 505.478 -3.09691 4.31584 0
M  V30 5479 C 504.517 -2.73067 5.47815 0
M  V30 5480 N 503.654 -3.87359 5.85574 0
M  V30 5481 H 508.494 -0.470118 2.94268 0
M  V30 5482 H 506.031 -0.220434 1.45439 0
M  V30 5483 H 507.989 -2.95011 2.94999 0
M  V30 5484 H 506.619 -2.64513 1.85021 0
M  V30 5485 H 505.671 -1.03816 3.6596 0
M  V30 5486 H 506.983 -1.57104 4.73413 0
M  V30 5487 H 506.137 -3.92431 4.62691 0
M  V30 5488 H 504.876 -3.43827 3.45882 0
M  V30 5489 H 503.881 -1.88742 5.16388 0
M  V30 5490 H 505.106 -2.40131 6.35227 0
M  V30 5491 H 503.052 -4.21311 5.02825 0
M  V30 5492 H 502.969 -3.60068 6.64746 0
M  V30 5493 H 504.237 -4.70761 6.21292 0
M  V30 5494 N 508.466 -1.55915 -0.229846 0
M  V30 5495 C 509.743 -1.6932 -0.979295 0
M  V30 5496 C 510.123 -0.588321 -2.02736 0
M  V30 5497 O 509.471 0.40586 -2.24867 0
M  V30 5498 C 509.681 -3.10305 -1.59724 0
M  V30 5499 C 511.029 -3.6945 -2.09264 0
M  V30 5500 O 512.053 -3.13214 -1.69633 0
M  V30 5501 O 510.912 -4.68072 -2.82082 0
M  V30 5502 H 508.006 -0.689314 -0.456919 0
M  V30 5503 H 510.552 -1.68238 -0.222283 0
M  V30 5504 H 509.324 -3.82177 -0.840039 0
M  V30 5505 H 508.947 -3.1547 -2.42001 0
M  V30 5506 N 509.944 0.496216 -1.49584 0
M  V30 5507 C 511.172 1.27394 -1.63029 0
M  V30 5508 C 511.587 1.86344 -0.303569 0
M  V30 5509 O 510.944 1.68057 0.711547 0
M  V30 5510 C 510.995 2.40077 -2.70269 0
M  V30 5511 O 510.716 1.83549 -3.97796 0
M  V30 5512 C 512.217 3.31372 -2.94462 0
M  V30 5513 H 509.437 0.386211 -0.54871 0
M  V30 5514 H 511.981 0.595163 -1.95648 0
M  V30 5515 H 510.136 3.03775 -2.40415 0
M  V30 5516 H 510.55 2.57561 -4.56905 0
M  V30 5517 H 512.024 4.06707 -3.73221 0
M  V30 5518 H 512.501 3.88654 -2.0456 0
M  V30 5519 H 513.107 2.73435 -3.25751 0
M  V30 5520 N 511.423 1.38739 0.74761 0
M  V30 5521 C 512.371 1.36573 1.88283 0
M  V30 5522 C 513.365 0.250712 1.67534 0
M  V30 5523 O 514.571 0.420073 1.7503 0
M  V30 5524 H 510.946 0.42619 0.619569 0
M  V30 5525 H 512.917 2.32356 1.87226 0
M  V30 5526 C 511.666 1.21361 3.25832 0
M  V30 5527 H 510.989 2.06424 3.42388 0
M  V30 5528 H 512.429 1.23901 4.05493 0
M  V30 5529 C 510.888 -0.0790099 3.36807 0
M  V30 5530 O 511.418 -1.05385 3.8763 0
M  V30 5531 N 509.624 -0.13785 2.90273 0
M  V30 5532 H 509.171 0.656128 2.49104 0
M  V30 5533 H 509.129 -1.00228 2.97996 0
M  V30 5534 N 512.901 -0.976442 1.23707 0
M  V30 5535 C 513.811 -2.10359 1.03856 0
M  V30 5536 C 514.827 -1.73991 -0.0180919 0
M  V30 5537 O 516.003 -2.0061 0.178211 0
M  V30 5538 C 513.068 -3.40809 0.636387 0
M  V30 5539 C 512.129 -3.91179 1.76854 0
M  V30 5540 C 511.362 -5.15404 1.38546 0
M  V30 5541 O 511.585 -5.69754 0.27142 0
M  V30 5542 O 510.519 -5.5994 2.20797 0
M  V30 5543 H 514.345 -2.29997 1.98331 0
M  V30 5544 H 511.93 -1.08742 1.02448 0
M  V30 5545 H 513.812 -4.19269 0.423223 0
M  V30 5546 H 512.487 -3.22493 -0.279322 0
M  V30 5547 H 511.394 -3.13819 2.03638 0
M  V30 5548 H 512.727 -4.13958 2.6627 0
M  V30 5549 N 514.379 -1.04941 -1.1758 0
M  V30 5550 C 515.312 -0.592518 -2.20373 0
M  V30 5551 C 516.29 0.377561 -1.58156 0
M  V30 5552 O 517.474 0.28978 -1.86259 0
M  V30 5553 C 514.601 0.133215 -3.38438 0
M  V30 5554 C 513.647 -0.791484 -4.19092 0
M  V30 5555 S 514.48 -2.27925 -4.84572 0
M  V30 5556 C 515.636 -1.56462 -6.06028 0
M  V30 5557 H 515.869 -1.46342 -2.58788 0
M  V30 5558 H 513.402 -0.861148 -1.28155 0
M  V30 5559 H 515.36 0.545746 -4.06856 0
M  V30 5560 H 514.021 0.980124 -2.98416 0
M  V30 5561 H 513.214 -0.230039 -5.03475 0
M  V30 5562 H 512.816 -1.14326 -3.56098 0
M  V30 5563 H 515.108 -0.862539 -6.71987 0
M  V30 5564 H 516.051 -2.38583 -6.66696 0
M  V30 5565 H 516.459 -1.05313 -5.5459 0
M  V30 5566 N 515.857 1.33968 -0.830081 0
M  V30 5567 C 517.134 1.92554 -0.343858 0
M  V30 5568 C 517.514 1.7573 1.16971 0
M  V30 5569 O 516.862 1.14035 1.98011 0
M  V30 5570 C 517.072 3.40147 -0.781073 0
M  V30 5571 C 518.42 4.17299 -0.78402 0
M  V30 5572 O 519.444 3.48762 -0.724112 0
M  V30 5573 O 518.303 5.39631 -0.863739 0
M  V30 5574 H 515.397 0.821469 -0.0954827 0
M  V30 5575 H 517.943 1.42897 -0.915348 0
M  V30 5576 H 516.715 3.46225 -1.82329 0
M  V30 5577 H 516.338 3.97166 -0.18567 0
M  V30 5578 N 517.335 0.585699 1.46312 0
M  V30 5579 C 518.265 -0.133556 2.33118 0
M  V30 5580 C 519.246 -0.880707 1.45525 0
M  V30 5581 O 520.431 -0.855579 1.74337 0
M  V30 5582 C 517.561 -1.14585 3.27853 0
M  V30 5583 C 516.515 -0.513341 4.2491 0
M  V30 5584 C 515.841 -1.63231 5.09175 0
M  V30 5585 C 517.141 0.551413 5.19381 0
M  V30 5586 H 518.835 0.59121 2.93505 0
M  V30 5587 H 516.381 0.285761 1.41136 0
M  V30 5588 H 518.334 -1.65741 3.87438 0
M  V30 5589 H 517.058 -1.90093 2.65579 0
M  V30 5590 H 515.717 -0.0228349 3.66593 0
M  V30 5591 H 515.365 -2.37713 4.43285 0
M  V30 5592 H 515.065 -1.21473 5.74907 0
M  V30 5593 H 516.589 -2.14658 5.71624 0
M  V30 5594 H 518.003 0.124804 5.73164 0
M  V30 5595 H 516.4 0.889486 5.93471 0
M  V30 5596 H 517.47 1.43655 4.63132 0
M  V30 5597 N 518.813 -1.54241 0.323641 0
M  V30 5598 C 519.723 -2.28033 -0.551205 0
M  V30 5599 C 520.739 -1.32388 -1.12913 0
M  V30 5600 O 521.915 -1.65403 -1.14908 0
M  V30 5601 C 518.98 -3.02382 -1.69606 0
M  V30 5602 C 518.041 -4.13612 -1.14993 0
M  V30 5603 C 517.274 -4.84407 -2.24022 0
M  V30 5604 O 517.497 -4.54716 -3.44368 0
M  V30 5605 O 516.431 -5.71312 -1.89436 0
M  V30 5606 H 520.257 -3.03662 0.048066 0
M  V30 5607 H 517.842 -1.49133 0.0893289 0
M  V30 5608 H 519.724 -3.48941 -2.36259 0
M  V30 5609 H 518.399 -2.29628 -2.28151 0
M  V30 5610 H 517.306 -3.71402 -0.448484 0
M  V30 5611 H 518.639 -4.8841 -0.609608 0
M  V30 5612 N 520.291 -0.0518155 -1.57515 0
M  V30 5613 C 521.239 0.940195 -2.12751 0
M  V30 5614 C 522.233 1.3218 -1.05948 0
M  V30 5615 O 523.439 1.30138 -1.24355 0
M  V30 5616 H 519.814 0.321066 -0.680015 0
M  V30 5617 H 521.785 0.449217 -2.94999 0
M  V30 5618 C 520.534 2.2055 -2.68799 0
M  V30 5619 H 519.857 1.92066 -3.50643 0
M  V30 5620 H 521.297 2.88119 -3.11068 0
M  V30 5621 C 519.756 2.95061 -1.62605 0
M  V30 5622 O 520.286 3.88025 -1.03921 0
M  V30 5623 N 518.492 2.57804 -1.34111 0
M  V30 5624 H 518.039 1.82281 -1.8202 0
M  V30 5625 H 517.997 3.07964 -0.632872 0
M  V30 5626 N 521.769 1.56035 0.221574 0
M  V30 5627 C 522.999 1.82864 0.961468 0
M  V30 5628 C 523.407 0.628703 1.78449 0
M  V30 5629 O 522.75 -0.412109 1.79018 0
M  V30 5630 C 522.812 3.03425 1.92804 0
M  V30 5631 C 522.476 4.38429 1.28954 0
M  V30 5632 C 523.473 5.15441 0.679431 0
M  V30 5633 C 521.158 4.85151 1.30131 0
M  V30 5634 C 523.152 6.37337 0.0896148 0
M  V30 5635 C 520.839 6.06989 0.707651 0
M  V30 5636 C 521.837 6.82923 0.102855 0
M  V30 5637 O 521.525 8.02456 -0.48157 0
M  V30 5638 H 521.257 0.611883 0.28736 0
M  V30 5639 H 523.811 2.0397 0.241932 0
M  V30 5640 H 522.041 2.78138 2.68656 0
M  V30 5641 H 523.73 3.17127 2.53348 0
M  V30 5642 H 524.496 4.80452 0.662661 0
M  V30 5643 H 520.375 4.26021 1.76145 0
M  V30 5644 H 523.919 6.96547 -0.383069 0
M  V30 5645 H 519.816 6.41451 0.721834 0
M  V30 5646 H 520.584 8.17636 -0.375887 0
M  V30 5647 N 523.247 -0.488276 1.49845 0
M  V30 5648 C 524.157 -1.61451 1.70207 0
M  V30 5649 C 525.173 -1.63877 0.584846 0
M  V30 5650 O 526.349 -1.82063 0.861107 0
M  V30 5651 C 523.414 -2.9776 1.77594 0
M  V30 5652 C 522.475 -3.05861 3.01243 0
M  V30 5653 C 521.708 -4.35668 3.08268 0
M  V30 5654 O 521.931 -5.25197 2.22541 0
M  V30 5655 O 520.865 -4.49005 4.00847 0
M  V30 5656 H 524.691 -1.47199 2.65643 0
M  V30 5657 H 522.276 -0.665939 1.33737 0
M  V30 5658 H 524.158 -3.7875 1.84732 0
M  V30 5659 H 522.833 -3.12248 0.8534 0
M  V30 5660 H 521.74 -2.24012 2.99616 0
M  V30 5661 H 523.073 -2.96304 3.9302 0
M  V30 5662 N 524.725 -1.39134 -0.740242 0
M  V30 5663 C 526.002 -1.26584 -1.49117 0
M  V30 5664 C 526.382 0.126902 -2.10718 0
M  V30 5665 O 525.73 1.13765 -1.98166 0
M  V30 5666 C 525.94 -2.38619 -2.54681 0
M  V30 5667 C 527.288 -2.77685 -3.21211 0
M  V30 5668 O 528.312 -2.38029 -2.64991 0
M  V30 5669 O 527.171 -3.46115 -4.22926 0
M  V30 5670 H 524.265 -0.495769 -0.661923 0
M  V30 5671 H 526.811 -1.50995 -0.774514 0
M  V30 5672 H 525.583 -3.3175 -2.07504 0
M  V30 5673 H 525.206 -2.15845 -3.33911 0
M  V30 5674 N 526.204 0.969867 -1.24223 0
M  V30 5675 C 527.432 1.74756 -1.10761 0
M  V30 5676 C 527.847 1.85713 0.340041 0
M  V30 5677 O 527.204 1.34389 1.23474 0
M  V30 5678 C 527.255 3.16915 -1.73917 0
M  V30 5679 O 526.976 3.06511 -3.13021 0
M  V30 5680 C 528.477 4.11032 -1.66036 0
M  V30 5681 H 525.697 0.548092 -0.387087 0
M  V30 5682 H 528.241 1.2178 -1.64286 0
M  V30 5683 H 526.396 3.66884 -1.244 0
M  V30 5684 H 526.81 3.96079 -3.43834 0
M  V30 5685 H 528.284 5.08446 -2.14911 0
M  V30 5686 H 528.761 4.34785 -0.621159 0
M  V30 5687 H 529.367 3.66972 -2.14969 0
M  V30 5688 N 527.682 1.05563 1.17022 0
M  V30 5689 C 528.612 0.681026 2.23348 0
M  V30 5690 C 529.593 -0.322983 1.67005 0
M  V30 5691 O 530.778 -0.199746 1.9317 0
M  V30 5692 C 527.908 0.0589053 3.4725 0
M  V30 5693 C 526.862 0.988082 4.16438 0
M  V30 5694 C 526.188 0.229646 5.34207 0
M  V30 5695 C 527.488 2.31388 4.68249 0
M  V30 5696 H 529.182 1.56993 2.54938 0
M  V30 5697 H 526.728 0.756302 1.2254 0
M  V30 5698 H 528.681 -0.214982 4.20851 0
M  V30 5699 H 527.405 -0.864968 3.14938 0
M  V30 5700 H 526.064 1.24659 3.44754 0
M  V30 5701 H 525.712 -0.697111 4.98146 0
M  V30 5702 H 525.412 0.848815 5.81437 0
M  V30 5703 H 526.936 -0.0368694 6.10589 0
M  V30 5704 H 528.35 2.09964 5.33468 0
M  V30 5705 H 526.747 2.88736 5.26072 0
M  V30 5706 H 527.817 2.94982 3.84855 0
M  V30 5707 N 529.16 -1.33526 0.837174 0
M  V30 5708 C 530.108 -2.31168 0.257698 0
M  V30 5709 C 531.102 -1.5806 -0.609388 0
M  V30 5710 O 532.308 -1.72941 -0.499139 0
M  V30 5711 H 528.683 -0.74922 0.0646058 0
M  V30 5712 H 530.654 -2.77552 1.09578 0
M  V30 5713 C 529.403 -3.4326 -0.553887 0
M  V30 5714 H 528.726 -3.99665 0.104008 0
M  V30 5715 H 530.166 -4.13782 -0.925219 0
M  V30 5716 C 528.625 -2.88965 -1.73207 0
M  V30 5717 O 529.155 -2.85013 -2.83073 0
M  V30 5718 N 527.361 -2.45596 -1.55342 0
M  V30 5719 H 526.908 -2.49009 -0.659705 0
M  V30 5720 H 526.866 -2.0962 -2.34322 0
M  V30 5721 N 530.638 -0.59345 -1.46 0
M  V30 5722 C 531.863 -0.0872365 -2.07216 0
M  V30 5723 C 532.288 1.2131 -1.43755 0
M  V30 5724 O 531.646 1.73528 -0.525152 0
M  V30 5725 C 531.694 0.0538197 -3.6056 0
M  V30 5726 O 530.798 1.10765 -3.97247 0
M  V30 5727 H 530.139 -0.0676598 -0.660544 0
M  V30 5728 H 532.669 -0.819445 -1.87473 0
M  V30 5729 H 532.679 0.256567 -4.07193 0
M  V30 5730 H 531.354 -0.895739 -4.0614 0
M  V30 5731 H 529.931 0.882501 -3.62307 0
M  V30 5732 N 532.116 1.54067 -0.331816 0
M  V30 5733 C 533.527 1.86059 0.15454 0
M  V30 5734 C 533.878 1.25331 1.50952 0
M  V30 5735 O 533.003 0.562441 2.08963 0
M  V30 5736 C 533.598 3.37581 0.287192 0
M  V30 5737 C 532.157 3.69493 0.717773 0
M  V30 5738 C 531.304 2.76863 -0.155569 0
M  V30 5739 H 534.255 1.48797 -0.55182 0
M  V30 5740 H 534.276 3.63744 1.11671 0
M  V30 5741 H 533.788 3.81751 -0.699131 0
M  V30 5742 H 531.889 3.3086 1.71354 0
M  V30 5743 H 532.002 4.76315 0.5158 0
M  V30 5744 H 530.366 2.51995 0.370213 0
M  V30 5745 H 531.149 3.23861 -1.13881 0
M  V30 5746 N 533.594 0.0601682 1.57485 0
M  V30 5747 C 534.541 -0.91112 2.12055 0
M  V30 5748 C 535.511 -1.30298 1.03013 0
M  V30 5749 O 536.696 -1.39087 1.30612 0
M  V30 5750 C 533.836 -2.1775 2.67729 0
M  V30 5751 C 532.949 -1.83933 3.90887 0
M  V30 5752 C 532.084 -3.05096 4.34845 0
M  V30 5753 C 531.123 -2.67241 5.5068 0
M  V30 5754 N 530.26 -3.81127 5.8965 0
M  V30 5755 H 535.1 -0.43888 2.9475 0
M  V30 5756 H 532.637 -0.204995 1.45665 0
M  V30 5757 H 534.595 -2.91866 2.98111 0
M  V30 5758 H 533.225 -2.62535 1.87816 0
M  V30 5759 H 532.277 -0.999287 3.6704 0
M  V30 5760 H 533.589 -1.52074 4.75052 0
M  V30 5761 H 532.743 -3.87502 4.66827 0
M  V30 5762 H 531.482 -3.40139 3.49509 0
M  V30 5763 H 530.487 -1.83254 5.18361 0
M  V30 5764 H 531.712 -2.3338 6.37738 0
M  V30 5765 H 529.658 -4.15954 5.07266 0
M  V30 5766 H 529.575 -3.52997 6.68528 0
M  V30 5767 H 530.843 -4.64145 6.2625 0
M  V30 5768 N 535.072 -1.5615 -0.213296 0
M  V30 5769 C 536.488 -1.49327 -0.56336 0
M  V30 5770 C 536.688 -0.756826 -1.86747 0
M  V30 5771 O 535.744 -0.299866 -2.50713 0
M  V30 5772 C 537.057 -2.9392 -0.634944 0
M  V30 5773 C 538.605 -3.04487 -0.725013 0
M  V30 5774 C 539.08 -4.50456 -0.82787 0
M  V30 5775 N 540.571 -4.54533 -0.891876 0
M  V30 5776 C 541.306 -5.64766 -0.991315 0
M  V30 5777 N 540.802 -6.84733 -1.05419 0
M  V30 5778 N 542.595 -5.52637 -1.02709 0
M  V30 5779 H 534.746 -2.02453 0.642366 0
M  V30 5780 H 537.009 -0.920548 0.226487 0
M  V30 5781 H 536.715 -3.50783 0.253859 0
M  V30 5782 H 536.589 -3.46274 -1.49579 0
M  V30 5783 H 538.976 -2.47685 -1.60425 0
M  V30 5784 H 539.057 -2.55289 0.161669 0
M  V30 5785 H 538.701 -5.07878 0.0469464 0
M  V30 5786 H 538.631 -4.97369 -1.73009 0
M  V30 5787 H 541.122 -3.68141 -0.85327 0
M  V30 5788 H 541.435 -7.64493 -1.13007 0
M  V30 5789 H 539.78 -6.87427 -1.02318 0
M  V30 5790 H 542.971 -4.5784 -0.974687 0
M  V30 5791 H 543.144 -6.38576 -1.10113 0
M  V30 5792 N 536.55 0.480323 -1.50102 0
M  V30 5793 C 537.46 1.60547 -1.71061 0
M  V30 5794 C 538.476 1.63564 -0.593529 0
M  V30 5795 O 539.652 1.81604 -0.870751 0
M  V30 5796 C 536.717 2.96814 -1.79171 0
M  V30 5797 C 535.778 3.04259 -3.02861 0
M  V30 5798 C 535.011 4.34027 -3.10574 0
M  V30 5799 O 535.234 5.24009 -2.25323 0
M  V30 5800 O 534.168 4.46873 -4.03223 0
M  V30 5801 H 537.994 1.45788 -2.6642 0
M  V30 5802 H 535.579 0.658838 -1.34088 0
M  V30 5803 H 537.461 3.77765 -1.86738 0
M  V30 5804 H 536.136 3.11791 -0.869947 0
M  V30 5805 H 535.043 2.22419 -3.008 0
M  V30 5806 H 536.376 2.94216 -3.94586 0
M  V30 5807 N 538.028 1.39524 0.732853 0
M  V30 5808 C 538.958 1.41153 1.86005 0
M  V30 5809 C 539.939 0.274614 1.67869 0
M  V30 5810 O 541.124 0.480745 1.88155 0
M  V30 5811 C 538.254 1.25638 3.23778 0
M  V30 5812 C 537.208 2.36752 3.56556 0
M  V30 5813 C 536.534 2.06326 4.93289 0
M  V30 5814 C 537.834 3.79069 3.5931 0
M  V30 5815 H 539.528 2.35484 1.84899 0
M  V30 5816 H 537.074 1.13348 0.888162 0
M  V30 5817 H 539.027 1.25398 4.0231 0
M  V30 5818 H 537.751 0.277772 3.25417 0
M  V30 5819 H 536.41 2.36213 2.80355 0
M  V30 5820 H 536.058 1.06897 4.9151 0
M  V30 5821 H 535.758 2.80757 5.16187 0
M  V30 5822 H 537.282 2.07739 5.74175 0
M  V30 5823 H 538.696 3.81526 4.27914 0
M  V30 5824 H 537.093 4.52878 3.93728 0
M  V30 5825 H 538.163 4.09893 2.59068 0
M  V30 5826 N 539.506 -0.963266 1.24736 0
M  V30 5827 C 540.416 -2.09246 1.06082 0
M  V30 5828 C 541.432 -1.74 0.000363101 0
M  V30 5829 O 542.608 -2.0041 0.199479 0
M  V30 5830 C 539.673 -3.40115 0.672498 0
M  V30 5831 C 538.734 -3.89282 1.80993 0
M  V30 5832 C 537.967 -5.13905 1.44004 0
M  V30 5833 O 538.19 -5.69434 0.331835 0
M  V30 5834 O 537.124 -5.57566 2.26723 0
M  V30 5835 H 540.95 -2.27881 2.00759 0
M  V30 5836 H 538.535 -1.07649 1.03595 0
M  V30 5837 H 540.417 -4.18797 0.467668 0
M  V30 5838 H 539.092 -3.22771 -0.245102 0
M  V30 5839 H 537.999 -3.11642 2.06955 0
M  V30 5840 H 539.332 -4.1111 2.70646 0
M  V30 5841 N 540.985 -1.06182 -1.16461 0
M  V30 5842 C 542.234 -0.772927 -1.86303 0
M  V30 5843 C 542.547 0.703187 -1.82523 0
M  V30 5844 O 543.753 1.10641 -2.47933 0
M  V30 5845 C 542.209 -1.33249 -3.34324 0
M  V30 5846 C 541.817 -2.83876 -3.46581 0
M  V30 5847 C 543.561 -1.12108 -4.09429 0
M  V30 5848 C 541.468 -3.33082 -4.88682 0
M  V30 5849 H 540.398 -0.285452 -0.697878 0
M  V30 5850 H 543.049 -1.28039 -1.31447 0
M  V30 5851 H 541.431 -0.7528 -3.88779 0
M  V30 5852 H 542.605 -3.47786 -3.02293 0
M  V30 5853 H 540.92 -3.03671 -2.84909 0
M  V30 5854 H 543.517 -1.46361 -5.14279 0
M  V30 5855 H 543.86 -0.0593832 -4.16258 0
M  V30 5856 H 544.393 -1.6665 -3.6121 0
M  V30 5857 H 541.132 -4.38726 -4.87032 0
M  V30 5858 H 540.652 -2.73919 -5.33599 0
M  V30 5859 H 542.331 -3.28344 -5.57494 0
M  V30 5860 N 542.463 1.3308 -0.844243 0
M  V30 5861 C 543.411 2.31028 -0.269954 0
M  V30 5862 C 544.405 1.58381 0.600997 0
M  V30 5863 O 545.611 1.73203 0.48996 0
M  V30 5864 H 541.986 0.748866 -0.0685782 0
M  V30 5865 H 543.957 2.76967 -1.11049 0
M  V30 5866 C 542.706 3.43549 0.535676 0
M  V30 5867 H 542.029 3.99604 -0.125202 0
M  V30 5868 H 543.469 4.14267 0.903262 0
M  V30 5869 C 541.928 2.8988 1.71672 0
M  V30 5870 O 542.458 2.86511 2.81557 0
M  V30 5871 N 540.664 2.46416 1.54037 0
M  V30 5872 H 540.211 2.49356 0.64649 0
M  V30 5873 H 540.169 2.1086 2.33207 0
M  V30 5874 N 543.941 0.601185 1.45683 0
M  V30 5875 C 544.851 -0.123395 2.34275 0
M  V30 5876 C 545.867 -0.86702 1.5086 0
M  V30 5877 O 547.043 -0.826049 1.8368 0
M  V30 5878 C 544.108 -1.11237 3.2837 0
M  V30 5879 C 543.169 -0.371405 4.2769 0
M  V30 5880 C 542.402 -1.31327 5.1729 0
M  V30 5881 O 542.625 -2.55078 5.10188 0
M  V30 5882 O 541.559 -0.813811 5.96373 0
M  V30 5883 H 545.385 0.604483 2.97623 0
M  V30 5884 H 542.97 0.361477 1.44961 0
M  V30 5885 H 544.852 -1.68214 3.8637 0
M  V30 5886 H 543.527 -1.82139 2.67595 0
M  V30 5887 H 542.434 0.24067 3.73325 0
M  V30 5888 H 543.767 0.296998 4.91303 0
M  V30 5889 N 545.419 -1.53889 0.339982 0
M  V30 5890 C 546.349 -2.27843 -0.510856 0
M  V30 5891 C 547.33 -1.29267 -1.10563 0
M  V30 5892 O 548.515 -1.58104 -1.12768 0
M  V30 5893 C 545.645 -3.04857 -1.66372 0
M  V30 5894 C 544.599 -4.10907 -1.19746 0
M  V30 5895 C 543.925 -4.75855 -2.43857 0
M  V30 5896 C 545.225 -5.21435 -0.300501 0
M  V30 5897 H 546.919 -2.99212 0.106067 0
M  V30 5898 H 544.465 -1.43904 0.0524533 0
M  V30 5899 H 546.418 -3.5533 -2.26537 0
M  V30 5900 H 545.142 -2.31133 -2.30749 0
M  V30 5901 H 543.801 -3.61342 -0.618654 0
M  V30 5902 H 543.449 -3.9873 -3.06633 0
M  V30 5903 H 543.149 -5.47502 -2.13343 0
M  V30 5904 H 544.673 -5.2911 -3.04754 0
M  V30 5905 H 546.087 -5.67565 -0.80889 0
M  V30 5906 H 544.484 -6.00036 -0.0874076 0
M  V30 5907 H 545.554 -4.80328 0.664321 0
M  V30 5908 N 546.897 -0.0685191 -1.57451 0
M  V30 5909 C 548.308 0.464634 -1.80826 0
M  V30 5910 C 548.659 1.69847 -0.982169 0
M  V30 5911 O 547.784 2.15439 -0.203734 0
M  V30 5912 C 548.379 0.849721 -3.27971 0
M  V30 5913 C 546.938 1.32776 -3.52204 0
M  V30 5914 C 546.085 0.311332 -2.75547 0
M  V30 5915 H 549.036 -0.294248 -1.55948 0
M  V30 5916 H 549.057 1.71138 -3.39841 0
M  V30 5917 H 548.569 -0.0484736 -3.8807 0
M  V30 5918 H 546.67 2.24456 -2.97406 0
M  V30 5919 H 546.783 1.30794 -4.60901 0
M  V30 5920 H 545.147 0.787915 -2.42206 0
M  V30 5921 H 545.93 -0.579078 -3.38381 0
M  V30 5922 N 548.375 1.56261 0.205012 0
M  V30 5923 C 549.322 1.93754 1.25411 0
M  V30 5924 C 550.292 0.796826 1.45739 0
M  V30 5925 O 551.477 1.05414 1.59036 0
M  V30 5926 C 548.617 2.27383 2.59598 0
M  V30 5927 C 547.73 3.5447 2.46931 0
M  V30 5928 C 546.865 3.77468 3.73753 0
M  V30 5929 C 545.904 4.98014 3.55877 0
M  V30 5930 N 545.041 5.17316 4.74688 0
M  V30 5931 H 549.881 2.83203 0.92737 0
M  V30 5932 H 547.418 1.40158 0.446574 0
M  V30 5933 H 549.376 2.44895 3.37761 0
M  V30 5934 H 548.006 1.41088 2.90335 0
M  V30 5935 H 547.058 3.45061 1.60116 0
M  V30 5936 H 548.37 4.42789 2.29651 0
M  V30 5937 H 547.524 3.95165 4.60358 0
M  V30 5938 H 546.263 2.87461 3.93976 0
M  V30 5939 H 545.268 4.80249 2.67657 0
M  V30 5940 H 546.493 5.8952 3.37109 0
M  V30 5941 H 544.439 4.30255 4.95194 0
M  V30 5942 H 544.356 5.99796 4.60197 0
M  V30 5943 H 545.624 5.39463 5.62672 0
M  V30 5944 N 549.853 -0.472356 1.50355 0
M  V30 5945 C 550.801 -1.59126 1.69651 0
M  V30 5946 C 551.795 -1.59793 0.56237 0
M  V30 5947 O 553.001 -1.63957 0.742832 0
M  V30 5948 H 549.376 -0.528008 0.535454 0
M  V30 5949 H 551.347 -1.40013 2.63513 0
M  V30 5950 C 550.096 -2.97075 1.8067 0
M  V30 5951 H 549.419 -2.9728 2.67329 0
M  V30 5952 H 550.859 -3.74825 1.98197 0
M  V30 5953 C 549.318 -3.32247 0.558016 0
M  V30 5954 O 549.848 -4.00553 -0.303399 0
M  V30 5955 N 548.054 -2.87659 0.412415 0
M  V30 5956 H 547.601 -2.32246 1.11443 0
M  V30 5957 H 547.559 -3.11556 -0.421908 0
M  V30 5958 N 551.331 -1.39911 -0.725443 0
M  V30 5959 C 552.578 -1.37654 -1.48518 0
M  V30 5960 C 552.906 0.0243982 -1.94485 0
M  V30 5961 O 552.161 1.00708 -1.67799 0
M  V30 5962 C 552.46 -2.30368 -2.7325 0
M  V30 5963 C 552.126 -3.77817 -2.461 0
M  V30 5964 C 550.788 -4.17991 -2.38405 0
M  V30 5965 C 553.14 -4.71036 -2.23103 0
M  V30 5966 C 550.468 -5.49433 -2.05768 0
M  V30 5967 C 552.82 -6.02766 -1.9198 0
M  V30 5968 C 551.484 -6.41993 -1.82761 0
M  V30 5969 H 550.754 -0.503713 -0.543465 0
M  V30 5970 H 553.401 -1.7249 -0.831822 0
M  V30 5971 H 551.706 -1.88683 -3.43375 0
M  V30 5972 H 553.403 -2.2591 -3.31309 0
M  V30 5973 H 549.993 -3.45982 -2.52972 0
M  V30 5974 H 554.177 -4.40823 -2.2801 0
M  V30 5975 H 549.433 -5.78738 -1.9716 0
M  V30 5976 H 553.607 -6.74519 -1.73197 0
M  V30 5977 H 551.234 -7.43761 -1.57237 0
M  V30 5978 N 552.809 0.956637 -1.25245 0
M  V30 5979 C 554.037 1.73571 -1.12608 0
M  V30 5980 C 554.452 1.86063 0.320324 0
M  V30 5981 O 553.809 1.35691 1.22042 0
M  V30 5982 C 553.86 3.15053 -1.77268 0
M  V30 5983 O 553.581 3.03174 -3.16255 0
M  V30 5984 C 555.082 4.09248 -1.70386 0
M  V30 5985 H 552.302 0.543955 -0.392879 0
M  V30 5986 H 554.846 1.20031 -1.65568 0
M  V30 5987 H 553.001 3.65543 -1.28284 0
M  V30 5988 H 553.415 3.9241 -3.48015 0
M  V30 5989 H 554.889 5.06138 -2.20291 0
M  V30 5990 H 555.366 4.34102 -0.667239 0
M  V30 5991 H 555.972 3.64672 -2.18849 0
M  V30 5992 N 554.287 1.06798 1.15896 0
M  V30 5993 C 555.533 0.798757 1.8706 0
M  V30 5994 C 555.888 -0.667739 1.80441 0
M  V30 5995 O 555.181 -1.48334 1.21274 0
M  V30 5996 C 555.375 1.23414 3.35416 0
M  V30 5997 C 555.204 2.74142 3.56478 0
M  V30 5998 C 553.974 3.41675 3.72272 0
M  V30 5999 C 556.172 3.72348 3.5477 0
M  V30 6000 N 554.154 4.81101 3.81333 0
M  V30 6001 C 555.525 4.97585 3.69877 0
M  V30 6002 C 557.58 3.65585 3.38011 0
M  V30 6003 C 556.283 6.16866 3.69959 0
M  V30 6004 C 558.309 4.84323 3.39389 0
M  V30 6005 C 557.671 6.08391 3.5502 0
M  V30 6006 H 553.77 0.344761 0.7019 0
M  V30 6007 H 556.354 1.36314 1.3902 0
M  V30 6008 H 554.525 0.697522 3.82085 0
M  V30 6009 H 556.257 0.91304 3.94266 0
M  V30 6010 H 553.012 2.92078 3.7281 0
M  V30 6011 H 553.436 5.53647 3.8962 0
M  V30 6012 H 558.078 2.70615 3.2485 0
M  V30 6013 H 555.796 7.12164 3.819 0
M  V30 6014 H 559.382 4.80762 3.27658 0
M  V30 6015 H 558.262 6.98731 3.56012 0
M  V30 6016 N 555.766 -1.3263 0.851289 0
M  V30 6017 C 557.014 -1.96978 0.452128 0
M  V30 6018 C 557.335 -1.67715 -0.99482 0
M  V30 6019 O 556.605 -0.98259 -1.69476 0
M  V30 6020 H 555.185 -0.72873 0.164202 0
M  V30 6021 H 557.847 -1.61774 1.08698 0
M  V30 6022 H 556.943 -3.06387 0.594407 0
M  V30 6023 N 557.244 -0.608902 -1.45362 0
M  V30 6024 C 558.521 -0.0365378 -1.95566 0
M  V30 6025 C 558.901 1.43169 -1.55131 0
M  V30 6026 O 558.249 2.1349 -0.814513 0
M  V30 6027 C 558.459 -0.236026 -3.48201 0
M  V30 6028 C 559.807 -0.117518 -4.24437 0
M  V30 6029 O 560.831 -0.166217 -3.55812 0
M  V30 6030 O 559.69 -0.00372127 -5.465 0
M  V30 6031 H 556.784 0.0349874 -0.82626 0
M  V30 6032 H 559.33 -0.679055 -1.55521 0
M  V30 6033 H 558.102 -1.25569 -3.70605 0
M  V30 6034 H 557.725 0.441691 -3.95139 0
M  V30 6035 N 558.722 1.53707 -0.348139 0
M  V30 6036 C 560.133 1.86213 0.134797 0
M  V30 6037 C 560.484 1.26925 1.49614 0
M  V30 6038 O 559.609 0.584573 2.08355 0
M  V30 6039 C 560.204 3.37866 0.251371 0
M  V30 6040 C 558.763 3.70233 0.678543 0
M  V30 6041 C 557.91 2.76683 -0.184925 0
M  V30 6042 H 560.861 1.48204 -0.567571 0
M  V30 6043 H 560.882 3.64908 1.07806 0
M  V30 6044 H 560.394 3.80988 -0.739581 0
M  V30 6045 H 558.495 3.32659 1.67835 0
M  V30 6046 H 558.608 4.76836 0.465251 0
M  V30 6047 H 556.972 2.52374 0.343465 0
M  V30 6048 H 557.755 3.22635 -1.1731 0
M  V30 6049 N 560.2 0.0768682 1.57412 0
M  V30 6050 C 561.446 -0.585926 1.94778 0
M  V30 6051 C 561.801 -1.66912 0.956982 0
M  V30 6052 O 561.094 -1.9159 -0.0199454 0
M  V30 6053 C 561.288 -1.20268 3.36557 0
M  V30 6054 C 561.117 -0.18076 4.49337 0
M  V30 6055 C 559.887 0.236362 5.04747 0
M  V30 6056 C 562.085 0.583978 5.10974 0
M  V30 6057 N 560.067 1.24846 6.01071 0
M  V30 6058 C 561.438 1.44841 6.02844 0
M  V30 6059 C 563.493 0.639492 4.93776 0
M  V30 6060 C 562.196 2.36343 6.79363 0
M  V30 6061 C 564.222 1.54204 5.70942 0
M  V30 6062 C 563.584 2.39414 6.62465 0
M  V30 6063 H 559.683 -0.185281 0.759734 0
M  V30 6064 H 562.267 0.155193 1.9408 0
M  V30 6065 H 560.438 -1.9137 3.37982 0
M  V30 6066 H 562.17 -1.82636 3.61146 0
M  V30 6067 H 558.925 -0.14777 4.73369 0
M  V30 6068 H 559.349 1.75217 6.53933 0
M  V30 6069 H 563.991 -0.00510074 4.228 0
M  V30 6070 H 561.709 3.01836 7.49614 0
M  V30 6071 H 565.295 1.5899 5.59655 0
M  V30 6072 H 564.175 3.0812 7.21132 0
M  V30 6073 N 561.678 -1.56367 -0.196722 0
M  V30 6074 C 562.626 -1.95304 -1.2633 0
M  V30 6075 C 563.62 -0.838252 -1.47206 0
M  V30 6076 O 564.826 -1.02325 -1.48087 0
M  V30 6077 H 561.201 -0.621013 -0.424083 0
M  V30 6078 H 563.172 -2.84254 -0.907879 0
M  V30 6079 C 561.921 -2.3074 -2.60104 0
M  V30 6080 H 561.244 -3.16047 -2.44856 0
M  V30 6081 H 562.684 -2.61849 -3.33484 0
M  V30 6082 C 561.143 -1.14143 -3.16975 0
M  V30 6083 O 561.673 -0.415602 -3.99544 0
M  V30 6084 N 559.879 -0.91867 -2.75697 0
M  V30 6085 H 559.426 -1.51065 -2.08656 0
M  V30 6086 H 559.384 -0.140321 -3.14087 0
M  V30 6087 N 563.156 0.464375 -1.50603 0
M  V30 6088 C 564.103 1.56152 -1.69956 0
M  V30 6089 C 565.073 1.57046 -0.54091 0
M  V30 6090 O 566.258 1.74473 -0.772258 0
M  V30 6091 C 563.398 2.94079 -1.80586 0
M  V30 6092 C 562.511 3.02923 -3.07996 0
M  V30 6093 C 561.646 4.31806 -3.09382 0
M  V30 6094 C 560.685 4.34417 -4.31218 0
M  V30 6095 N 559.822 5.54782 -4.30304 0
M  V30 6096 H 564.662 1.38955 -2.6362 0
M  V30 6097 H 562.199 0.675482 -1.30674 0
M  V30 6098 H 564.157 3.74073 -1.8473 0
M  V30 6099 H 562.787 3.09896 -0.903556 0
M  V30 6100 H 561.839 2.1576 -3.13292 0
M  V30 6101 H 563.151 3.00712 -3.97962 0
M  V30 6102 H 562.305 5.20153 -3.12292 0
M  V30 6103 H 561.044 4.36636 -2.17257 0
M  V30 6104 H 560.049 3.44467 -4.28512 0
M  V30 6105 H 561.274 4.31273 -5.24576 0
M  V30 6106 H 559.22 5.60384 -3.41037 0
M  V30 6107 H 559.137 5.54339 -5.14047 0
M  V30 6108 H 560.405 6.45235 -4.3737 0
M  V30 6109 N 564.634 1.40294 0.718013 0
M  V30 6110 C 565.582 1.40536 1.85344 0
M  V30 6111 C 566.576 0.286192 1.66965 0
M  V30 6112 O 567.782 0.457105 1.74099 0
M  V30 6113 H 564.157 0.439236 0.61039 0
M  V30 6114 H 566.128 2.36275 1.82255 0
M  V30 6115 C 564.877 1.28245 3.23185 0
M  V30 6116 H 564.2 2.1364 3.37932 0
M  V30 6117 H 565.64 1.32474 4.02774 0
M  V30 6118 C 564.099 -0.0075503 3.36899 0
M  V30 6119 O 564.629 -0.971391 3.89778 0
M  V30 6120 N 562.835 -0.0762479 2.905 0
M  V30 6121 H 562.382 0.708819 2.47656 0
M  V30 6122 H 562.34 -0.938846 3.00055 0
M  V30 6123 N 566.112 -0.949982 1.2575 0
M  V30 6124 C 567.34 -1.72972 1.13527 0
M  V30 6125 C 567.755 -1.8623 -0.310453 0
M  V30 6126 O 567.112 -1.36336 -1.2132 0
M  V30 6127 C 567.163 -3.14108 1.78936 0
M  V30 6128 O 566.884 -3.01493 3.17858 0
M  V30 6129 C 568.385 -4.08338 1.72554 0
M  V30 6130 H 565.605 -0.541864 0.395758 0
M  V30 6131 H 568.149 -1.19151 1.66202 0
M  V30 6132 H 566.304 -3.64858 1.30221 0
M  V30 6133 H 566.718 -3.90559 3.50092 0
M  V30 6134 H 568.192 -5.04963 2.22973 0
M  V30 6135 H 568.669 -4.33742 0.690251 0
M  V30 6136 H 569.275 -3.63506 2.2078 0
M  V30 6137 N 567.59 -1.07411 -1.15328 0
M  V30 6138 C 569.006 -0.799759 -1.38116 0
M  V30 6139 C 569.206 0.59572 -1.92493 0
M  V30 6140 O 568.262 1.35433 -2.13106 0
M  V30 6141 C 569.575 -1.87407 -2.35158 0
M  V30 6142 C 571.123 -1.89889 -2.48819 0
M  V30 6143 C 571.598 -2.96406 -3.49153 0
M  V30 6144 N 573.089 -2.95512 -3.56689 0
M  V30 6145 C 573.824 -3.74575 -4.34144 0
M  V30 6146 N 573.32 -4.63488 -5.14928 0
M  V30 6147 N 575.113 -3.62919 -4.29239 0
M  V30 6148 H 567.264 -1.97411 -0.78374 0
M  V30 6149 H 569.527 -0.856113 -0.407154 0
M  V30 6150 H 569.233 -2.8768 -2.0232 0
M  V30 6151 H 569.107 -1.73471 -3.34944 0
M  V30 6152 H 571.494 -0.902677 -2.80955 0
M  V30 6153 H 571.575 -2.07904 -1.49029 0
M  V30 6154 H 571.219 -3.96227 -3.17752 0
M  V30 6155 H 571.149 -2.75638 -4.48699 0
M  V30 6156 H 573.64 -2.31061 -2.99031 0
M  V30 6157 H 573.953 -5.20445 -5.71276 0
M  V30 6158 H 572.298 -4.67537 -5.14232 0
M  V30 6159 H 575.489 -2.92833 -3.65194 0
M  V30 6160 H 575.662 -4.24777 -4.89355 0
M  V30 6161 N 569.068 1.32177 -0.85831 0
M  V30 6162 C 569.978 2.32561 -0.308606 0
M  V30 6163 C 570.994 1.64209 0.575462 0
M  V30 6164 O 572.17 1.95719 0.474961 0
M  V30 6165 C 569.235 3.43207 0.490909 0
M  V30 6166 C 568.296 4.27243 -0.419733 0
M  V30 6167 C 567.529 5.32605 0.341719 0
M  V30 6168 O 567.752 5.48332 1.57125 0
M  V30 6169 O 566.686 6.0118 -0.294379 0
M  V30 6170 H 570.512 2.81477 -1.14037 0
M  V30 6171 H 568.097 1.35866 -0.621349 0
M  V30 6172 H 569.979 4.10677 0.944574 0
M  V30 6173 H 568.654 2.96474 1.29941 0
M  V30 6174 H 567.561 3.62569 -0.921652 0
M  V30 6175 H 568.894 4.7751 -1.19352 0
M  V30 6176 N 570.547 0.616602 1.45037 0
M  V30 6177 C 571.777 0.121791 2.06241 0
M  V30 6178 C 572.185 -1.20289 1.46038 0
M  V30 6179 O 571.528 -1.7456 0.572242 0
M  V30 6180 C 571.59 -0.0827345 3.59405 0
M  V30 6181 C 571.254 1.16153 4.41993 0
M  V30 6182 C 572.251 2.08183 4.76399 0
M  V30 6183 C 569.936 1.39288 4.82601 0
M  V30 6184 C 571.93 3.21668 5.5028 0
M  V30 6185 C 569.617 2.53073 5.56235 0
M  V30 6186 C 570.615 3.44091 5.89992 0
M  V30 6187 O 570.303 4.55894 6.6213 0
M  V30 6188 H 570.035 0.0701667 0.672349 0
M  V30 6189 H 572.589 0.846877 1.87129 0
M  V30 6190 H 570.819 -0.862812 3.76952 0
M  V30 6191 H 572.508 -0.530273 4.02421 0
M  V30 6192 H 573.274 1.91538 4.45576 0
M  V30 6193 H 569.153 0.693396 4.55755 0
M  V30 6194 H 572.697 3.92733 5.76547 0
M  V30 6195 H 568.594 2.69667 5.86472 0
M  V30 6196 H 569.362 4.5469 6.80587 0
M  V30 6197 N 572.025 -1.5352 0.356285 0
M  V30 6198 C 572.935 -2.29151 -0.502712 0
M  V30 6199 C 573.951 -1.34753 -1.1008 0
M  V30 6200 O 575.127 -1.67803 -1.11374 0
M  V30 6201 C 572.192 -3.05911 -1.63154 0
M  V30 6202 C 571.253 -4.15958 -1.06194 0
M  V30 6203 C 570.486 -4.8905 -2.13696 0
M  V30 6204 O 570.709 -4.61919 -3.34645 0
M  V30 6205 O 569.643 -5.75202 -1.77275 0
M  V30 6206 H 573.469 -3.03492 0.112466 0
M  V30 6207 H 571.054 -1.4891 0.120942 0
M  V30 6208 H 572.936 -3.53874 -2.28804 0
M  V30 6209 H 571.611 -2.34415 -2.23229 0
M  V30 6210 H 570.518 -3.7227 -0.369603 0
M  V30 6211 H 571.851 -4.89593 -0.505872 0
M  V30 6212 N 573.503 -0.0852151 -1.57369 0
M  V30 6213 C 574.749 0.581666 -1.94279 0
M  V30 6214 C 575.082 1.68444 -0.966446 0
M  V30 6215 O 574.357 1.945 0.00215277 0
M  V30 6216 C 574.64 1.14609 -3.41375 0
M  V30 6217 C 574.493 0.0490414 -4.49773 0
M  V30 6218 C 575.812 2.04751 -3.8957 0
M  V30 6219 H 572.931 0.209972 -0.706456 0
M  V30 6220 H 575.573 -0.153915 -1.89376 0
M  V30 6221 H 573.723 1.77297 -3.45685 0
M  V30 6222 H 575.395 -0.584721 -4.57579 0
M  V30 6223 H 573.638 -0.618638 -4.29366 0
M  V30 6224 H 574.309 0.484601 -5.49869 0
M  V30 6225 H 576.785 1.51981 -3.87351 0
M  V30 6226 H 575.661 2.41173 -4.93079 0
M  V30 6227 H 575.922 2.96107 -3.28288 0
M  V30 6228 N 574.981 1.5647 0.188427 0
M  V30 6229 C 576.209 1.85131 0.923803 0
M  V30 6230 C 576.624 0.668537 1.76567 0
M  V30 6231 O 575.981 -0.362662 1.7886 0
M  V30 6232 C 576.032 3.12661 1.81453 0
M  V30 6233 O 575.753 4.26378 1.00665 0
M  V30 6234 C 577.254 3.54548 2.66103 0
M  V30 6235 H 574.474 0.614624 0.269218 0
M  V30 6236 H 577.018 2.03581 0.193671 0
M  V30 6237 H 575.173 2.96088 2.49821 0
M  V30 6238 H 575.587 4.99041 1.61425 0
M  V30 6239 H 577.061 4.4673 3.24247 0
M  V30 6240 H 577.538 2.77853 3.40139 0
M  V30 6241 H 578.144 3.73674 2.03096 0
M  V30 6242 N 576.459 -0.456382 1.50847 0
M  V30 6243 C 577.407 -1.57318 1.71329 0
M  V30 6244 C 578.401 -1.59187 0.579287 0
M  V30 6245 O 579.607 -1.6316 0.76018 0
M  V30 6246 H 575.982 -0.5223 0.541024 0
M  V30 6247 H 577.953 -1.3721 2.64983 0
M  V30 6248 C 576.702 -2.95142 1.83811 0
M  V30 6249 H 576.025 -2.94428 2.70467 0
M  V30 6250 H 577.465 -3.72702 2.02161 0
M  V30 6251 C 575.924 -3.31636 0.593224 0
M  V30 6252 O 576.454 -4.00852 -0.260898 0
M  V30 6253 N 574.66 -2.87205 0.442902 0
M  V30 6254 H 574.207 -2.31051 1.13901 0
M  V30 6255 H 574.165 -3.11986 -0.38884 0
M  V30 6256 N 577.937 -1.40673 -0.710563 0
M  V30 6257 C 578.869 -1.37256 -1.83558 0
M  V30 6258 C 579.882 -0.277133 -1.60424 0
M  V30 6259 O 581.071 -0.537831 -1.70205 0
M  V30 6260 C 578.171 -1.1144 -3.20054 0
M  V30 6261 C 577.344 -2.32734 -3.70342 0
M  V30 6262 C 576.403 -2.03002 -4.85465 0
M  V30 6263 O 575.429 -2.75912 -4.97857 0
M  V30 6264 N 576.631 -1.01105 -5.71627 0
M  V30 6265 H 579.396 -2.34215 -1.86985 0
M  V30 6266 H 576.957 -1.35091 -0.892301 0
M  V30 6267 H 578.949 -0.895265 -3.94673 0
M  V30 6268 H 577.519 -0.231307 -3.11743 0
M  V30 6269 H 576.739 -2.70446 -2.86798 0
M  V30 6270 H 578.027 -3.13584 -4.00678 0
M  V30 6271 H 577.425 -0.407303 -5.64232 0
M  V30 6272 H 575.982 -0.85182 -6.4621 0
M  V30 6273 N 579.415 0.9433 -1.26252 0
M  V30 6274 C 580.345 2.05902 -1.10122 0
M  V30 6275 C 581.326 1.70099 -0.00700552 0
M  V30 6276 O 582.511 1.93377 -0.178641 0
M  V30 6277 C 579.641 3.39516 -0.731175 0
M  V30 6278 C 578.595 3.89372 -1.77688 0
M  V30 6279 C 577.921 5.19613 -1.26122 0
M  V30 6280 C 579.221 4.14489 -3.17799 0
M  V30 6281 H 580.915 2.19655 -2.03451 0
M  V30 6282 H 578.461 1.05548 -0.979576 0
M  V30 6283 H 580.414 4.17031 -0.605215 0
M  V30 6284 H 579.138 3.25733 0.23782 0
M  V30 6285 H 577.797 3.14036 -1.89148 0
M  V30 6286 H 577.445 5.02208 -0.282128 0
M  V30 6287 H 577.145 5.53939 -1.96023 0
M  V30 6288 H 578.669 5.99713 -1.14789 0
M  V30 6289 H 580.083 4.82625 -3.09428 0
M  V30 6290 H 578.48 4.60094 -3.85271 0
M  V30 6291 H 579.55 3.20347 -3.64014 0
M  V30 6292 N 580.893 1.08022 1.14757 0
M  V30 6293 C 581.823 0.728248 2.21853 0
M  V30 6294 C 582.804 -0.287486 1.67653 0
M  V30 6295 O 583.989 -0.158727 1.9355 0
M  V30 6296 C 581.119 0.132549 3.47047 0
M  V30 6297 C 580.073 1.07619 4.14249 0
M  V30 6298 C 579.399 0.342907 5.33599 0
M  V30 6299 C 580.699 2.41268 4.63235 0
M  V30 6300 H 582.393 1.62365 2.51551 0
M  V30 6301 H 579.939 0.782125 1.20908 0
M  V30 6302 H 581.892 -0.125665 4.21213 0
M  V30 6303 H 580.616 -0.797971 3.16702 0
M  V30 6304 H 579.275 1.31944 3.42033 0
M  V30 6305 H 578.923 -0.59129 4.99513 0
M  V30 6306 H 578.623 0.971955 5.79506 0
M  V30 6307 H 580.147 0.0926538 6.1053 0
M  V30 6308 H 581.561 2.21232 5.28894 0
M  V30 6309 H 579.958 2.9983 5.19829 0
M  V30 6310 H 581.028 3.03079 3.78512 0
M  V30 6311 N 582.371 -1.3172 0.865308 0
M  V30 6312 C 583.611 -1.98675 0.480365 0
M  V30 6313 C 583.975 -1.66929 -0.948621 0
M  V30 6314 O 585.176 -2.27059 -1.43867 0
M  V30 6315 C 583.447 -3.49972 0.724858 0
M  V30 6316 S 585.006 -4.36598 0.439078 0
M  V30 6317 H 581.824 -0.687967 0.179506 0
M  V30 6318 H 584.426 -1.60215 1.12033 0
M  V30 6319 H 583.13 -3.70567 1.76375 0
M  V30 6320 H 582.661 -3.93335 0.0717173 0
M  V30 6321 H 584.676 -4.90792 -0.730564 0
M  V30 6322 N 583.85 -0.624285 -1.44708 0
M  V30 6323 C 585.098 -0.125802 -2.01708 0
M  V30 6324 C 585.418 1.2543 -1.49306 0
M  V30 6325 O 584.689 1.83198 -0.693924 0
M  V30 6326 H 583.269 -0.0435161 -0.745731 0
M  V30 6327 H 585.931 -0.809446 -1.77296 0
M  V30 6328 H 585.027 -0.0882734 -3.11975 0
M  V30 6329 N 585.328 1.53329 -0.364422 0
M  V30 6330 C 586.553 2.06132 0.229033 0
M  V30 6331 C 586.978 1.23625 1.41769 0
M  V30 6332 O 586.336 0.255038 1.79497 0
M  V30 6333 C 586.384 3.55544 0.60174 0
M  V30 6334 O 585.488 3.75771 1.69912 0
M  V30 6335 H 584.829 0.663148 0.0336213 0
M  V30 6336 H 587.359 1.97758 -0.524689 0
M  V30 6337 H 587.369 3.98549 0.873073 0
M  V30 6338 H 586.044 4.15039 -0.267421 0
M  V30 6339 H 584.621 3.44663 1.42343 0
M  V30 6340 N 586.806 0.0935595 1.57322 0
M  V30 6341 C 588.046 -0.573901 1.96178 0
M  V30 6342 C 588.41 -1.65445 0.97426 0
M  V30 6343 O 589.611 -2.37901 1.25126 0
M  V30 6344 C 587.882 -1.11612 3.39526 0
M  V30 6345 S 589.441 -1.79566 4.00377 0
M  V30 6346 H 586.259 -0.187315 0.685882 0
M  V30 6347 H 588.861 0.172597 1.94737 0
M  V30 6348 H 587.565 -0.31815 4.09165 0
M  V30 6349 H 587.096 -1.89848 3.4456 0
M  V30 6350 H 589.111 -3.07978 3.89056 0
M  V30 6351 N 588.284 -1.56567 -0.180126 0
M  V30 6352 C 589.514 -1.85349 -0.912647 0
M  V30 6353 C 589.922 -0.675795 -1.76719 0
M  V30 6354 O 589.265 0.3645 -1.80047 0
M  V30 6355 C 589.327 -3.08431 -1.84691 0
M  V30 6356 C 588.991 -4.41694 -1.17284 0
M  V30 6357 C 589.988 -5.17062 -0.542532 0
M  V30 6358 C 587.673 -4.8843 -1.17223 0
M  V30 6359 C 589.667 -6.37351 0.0793953 0
M  V30 6360 C 587.354 -6.08652 -0.54647 0
M  V30 6361 C 588.352 -6.82955 0.0782458 0
M  V30 6362 O 588.04 -8.00897 0.694158 0
M  V30 6363 H 587.772 -0.619286 -0.271036 0
M  V30 6364 H 590.326 -2.0454 -0.187768 0
M  V30 6365 H 588.556 -2.85163 -2.61188 0
M  V30 6366 H 590.245 -3.23733 -2.44851 0
M  V30 6367 H 591.011 -4.8204 -0.535045 0
M  V30 6368 H 586.89 -4.30542 -1.64788 0
M  V30 6369 H 590.434 -6.95287 0.567612 0
M  V30 6370 H 586.331 -6.4314 -0.55151 0
M  V30 6371 H 587.099 -8.16352 0.592537 0
M  V30 6372 N 589.762 0.448376 -1.51087 0
M  V30 6373 C 591.011 1.19561 -1.62444 0
M  V30 6374 C 591.324 1.92602 -0.341151 0
M  V30 6375 O 592.53 2.69439 -0.333936 0
M  V30 6376 C 590.986 2.17373 -2.8684 0
M  V30 6377 C 590.594 1.5003 -4.22131 0
M  V30 6378 C 592.338 2.92597 -3.0755 0
M  V30 6379 C 590.245 2.46262 -5.37689 0
M  V30 6380 H 589.175 0.449975 -0.605011 0
M  V30 6381 H 591.826 0.463735 -1.77544 0
M  V30 6382 H 590.208 2.93948 -2.65349 0
M  V30 6383 H 591.382 0.790886 -4.53962 0
M  V30 6384 H 589.697 0.870011 -4.0721 0
M  V30 6385 H 592.294 3.64663 -3.91056 0
M  V30 6386 H 592.637 3.53306 -2.20183 0
M  V30 6387 H 593.17 2.23131 -3.29329 0
M  V30 6388 H 589.909 1.90258 -6.27281 0
M  V30 6389 H 589.429 3.15289 -5.10248 0
M  V30 6390 H 591.108 3.07623 -5.6919 0
M  V30 6391 N 591.24 1.41047 0.703093 0
M  V30 6392 C 592.203 1.42036 1.79884 0
M  V30 6393 C 593.203 0.312153 1.57741 0
M  V30 6394 O 594.393 0.571672 1.64553 0
M  V30 6395 C 591.525 1.22437 3.18154 0
M  V30 6396 H 592.718 2.39572 1.80403 0
M  V30 6397 H 590.271 1.27079 0.909977 0
M  V30 6398 H 591.006 0.257112 3.23279 0
M  V30 6399 H 590.791 2.02723 3.35627 0
M  V30 6400 H 592.281 1.25946 3.98155 0
M  V30 6401 N 592.718 -0.936591 1.26751 0
M  V30 6402 C 593.943 -1.72288 1.15462 0
M  V30 6403 C 594.368 -1.85915 -0.285887 0
M  V30 6404 O 593.726 -1.35272 -1.20711 0
M  V30 6405 C 593.774 -3.10503 1.83359 0
M  V30 6406 O 592.878 -3.96745 1.1255 0
M  V30 6407 H 592.219 -0.52843 0.402067 0
M  V30 6408 H 594.749 -1.17271 1.67656 0
M  V30 6409 H 594.759 -3.60867 1.90365 0
M  V30 6410 H 593.434 -2.99901 2.88153 0
M  V30 6411 H 592.011 -3.55191 1.13551 0
M  V30 6412 N 594.196 -1.08629 -1.14182 0
M  V30 6413 C 595.128 -0.676189 -2.18998 0
M  V30 6414 C 596.141 0.277871 -1.60411 0
M  V30 6415 O 597.33 0.0651771 -1.78381 0
M  V30 6416 C 594.43 0.0254916 -3.3889 0
M  V30 6417 C 593.603 -0.948039 -4.27002 0
M  V30 6418 C 592.662 -0.281268 -5.25448 0
M  V30 6419 O 591.688 -0.926378 -5.61611 0
M  V30 6420 N 592.89 0.967923 -5.72374 0
M  V30 6421 H 595.655 -1.57792 -2.54798 0
M  V30 6422 H 593.216 -0.972665 -1.29425 0
M  V30 6423 H 595.208 0.482554 -4.01813 0
M  V30 6424 H 593.778 0.829348 -3.01398 0
M  V30 6425 H 592.998 -1.58388 -3.6098 0
M  V30 6426 H 594.286 -1.60765 -4.82734 0
M  V30 6427 H 593.684 1.51175 -5.45126 0
M  V30 6428 H 592.241 1.36844 -6.37273 0
M  V30 6429 N 595.674 1.31259 -0.872281 0
M  V30 6430 C 596.604 2.30929 -0.345554 0
M  V30 6431 C 597.585 1.60449 0.5648 0
M  V30 6432 O 598.77 1.8814 0.481335 0
M  V30 6433 C 595.9 3.44348 0.451823 0
M  V30 6434 C 594.854 4.26435 -0.365641 0
M  V30 6435 C 594.18 5.31785 0.557562 0
M  V30 6436 C 595.48 4.97159 -1.60095 0
M  V30 6437 H 597.174 2.75234 -1.17841 0
M  V30 6438 H 594.72 1.3232 -0.568094 0
M  V30 6439 H 596.673 4.13128 0.830854 0
M  V30 6440 H 595.397 2.98816 1.31821 0
M  V30 6441 H 594.056 3.59326 -0.726649 0
M  V30 6442 H 593.704 4.82502 1.4213 0
M  V30 6443 H 593.404 5.87598 0.0144878 0
M  V30 6444 H 594.928 6.03424 0.933387 0
M  V30 6445 H 596.342 5.58523 -1.29323 0
M  V30 6446 H 594.739 5.62779 -2.08327 0
M  V30 6447 H 595.809 4.24012 -2.35249 0
M  V30 6448 N 597.152 0.631951 1.44375 0
M  V30 6449 C 598.382 0.143658 2.061 0
M  V30 6450 C 598.79 -1.18733 1.47306 0
M  V30 6451 O 598.133 -1.73943 0.590724 0
M  V30 6452 C 598.195 -0.0446102 3.59472 0
M  V30 6453 C 597.859 1.20835 4.40736 0
M  V30 6454 C 598.856 2.13224 4.74164 0
M  V30 6455 C 596.541 1.44399 4.81097 0
M  V30 6456 C 598.535 3.27487 5.46838 0
M  V30 6457 C 596.222 2.58959 5.53519 0
M  V30 6458 C 597.22 3.50329 5.86309 0
M  V30 6459 O 596.908 4.62891 6.57257 0
M  V30 6460 H 596.64 0.0772939 0.671567 0
M  V30 6461 H 599.194 0.866677 1.8622 0
M  V30 6462 H 597.424 -0.822783 3.77845 0
M  V30 6463 H 599.113 -0.487561 4.02961 0
M  V30 6464 H 599.879 1.96253 4.4352 0
M  V30 6465 H 595.758 0.741696 4.54994 0
M  V30 6466 H 599.302 3.98826 5.72349 0
M  V30 6467 H 595.199 2.75873 5.83579 0
M  V30 6468 H 595.967 4.61883 6.75726 0
M  V30 6469 N 598.631 -1.53133 0.372548 0
M  V30 6470 C 599.594 -2.24569 -0.458389 0
M  V30 6471 C 600.594 -1.25603 -1.00402 0
M  V30 6472 O 601.784 -1.49827 -0.888672 0
M  V30 6473 C 598.916 -2.98783 -1.6414 0
M  V30 6474 H 600.109 -2.99436 0.166799 0
M  V30 6475 H 597.662 -1.55805 0.124357 0
M  V30 6476 H 598.397 -2.28176 -2.30448 0
M  V30 6477 H 598.182 -3.71404 -1.25704 0
M  V30 6478 H 599.672 -3.53068 -2.23008 0
M  V30 6479 N 600.109 -0.101901 -1.5727 0
M  V30 6480 C 601.356 0.560197 -1.94597 0
M  V30 6481 C 601.684 1.67767 -0.984101 0
M  V30 6482 O 600.939 1.95699 -0.00489193 0
M  V30 6483 C 601.238 1.14898 -3.38427 0
M  V30 6484 C 600.904 0.154613 -4.50635 0
M  V30 6485 C 599.566 -0.118861 -4.81053 0
M  V30 6486 C 601.918 -0.523979 -5.18559 0
M  V30 6487 C 599.246 -1.0775 -5.76721 0
M  V30 6488 C 601.598 -1.47114 -6.15256 0
M  V30 6489 C 600.262 -1.75278 -6.44076 0
M  V30 6490 H 599.532 0.204991 -0.712081 0
M  V30 6491 H 602.179 -0.17918 -1.9066 0
M  V30 6492 H 600.484 1.96476 -3.38976 0
M  V30 6493 H 602.181 1.66909 -3.64613 0
M  V30 6494 H 598.771 0.377948 -4.2693 0
M  V30 6495 H 602.955 -0.325851 -4.95229 0
M  V30 6496 H 598.211 -1.30263 -5.97362 0
M  V30 6497 H 602.385 -2.00274 -6.66981 0
M  V30 6498 H 600.012 -2.49717 -7.18015 0
M  V30 6499 N 601.587 1.56661 0.17182 0
M  V30 6500 C 602.534 1.96371 1.21273 0
M  V30 6501 C 603.504 0.82756 1.44016 0
M  V30 6502 O 604.689 1.08764 1.56764 0
M  V30 6503 C 601.829 2.32838 2.54716 0
M  V30 6504 C 600.942 3.59628 2.39356 0
M  V30 6505 C 600.077 3.85311 3.65662 0
M  V30 6506 C 599.116 5.0545 3.45234 0
M  V30 6507 N 598.253 5.27268 4.63608 0
M  V30 6508 H 603.093 2.85106 0.86709 0
M  V30 6509 H 600.63 1.41073 0.416744 0
M  V30 6510 H 602.588 2.52004 3.3249 0
M  V30 6511 H 601.218 1.47214 2.87277 0
M  V30 6512 H 600.27 3.4838 1.52761 0
M  V30 6513 H 601.582 4.4756 2.20207 0
M  V30 6514 H 600.736 4.04841 4.51872 0
M  V30 6515 H 599.475 2.95753 3.8779 0
M  V30 6516 H 598.48 4.85819 2.5741 0
M  V30 6517 H 599.705 5.96538 3.24529 0
M  V30 6518 H 597.651 4.40662 4.85956 0
M  V30 6519 H 597.568 6.09422 4.4737 0
M  V30 6520 H 598.836 5.51277 5.51103 0
M  V30 6521 N 603.065 -0.440357 1.51323 0
M  V30 6522 C 604.481 -0.7766 1.39431 0
M  V30 6523 C 604.681 -1.95838 0.474296 0
M  V30 6524 O 603.737 -2.52398 -0.0716692 0
M  V30 6525 C 605.05 -1.05981 2.81405 0
M  V30 6526 C 606.598 -1.16442 2.90534 0
M  V30 6527 C 607.073 -1.48058 4.33408 0
M  V30 6528 N 608.564 -1.54988 4.36501 0
M  V30 6529 C 609.299 -1.81017 5.44078 0
M  V30 6530 N 608.795 -2.04858 6.61819 0
M  V30 6531 N 610.588 -1.82774 5.31554 0
M  V30 6532 H 602.739 0.338006 2.09693 0
M  V30 6533 H 605.002 0.0888072 0.943831 0
M  V30 6534 H 604.708 -0.264173 3.50706 0
M  V30 6535 H 604.582 -1.98822 3.20546 0
M  V30 6536 H 606.969 -1.95068 2.21432 0
M  V30 6537 H 607.05 -0.215088 2.54894 0
M  V30 6538 H 606.694 -0.699605 5.03059 0
M  V30 6539 H 606.624 -2.44192 4.66559 0
M  V30 6540 H 609.115 -1.38479 3.51613 0
M  V30 6541 H 609.428 -2.2408 7.396 0
M  V30 6542 H 607.773 -2.02187 6.6494 0
M  V30 6543 H 610.964 -1.63665 4.38556 0
M  V30 6544 H 611.137 -2.02722 6.15474 0
M  V30 6545 N 604.543 -1.41418 -0.695603 0
M  V30 6546 C 605.959 -1.23887 -1.00619 0
M  V30 6547 C 606.159 -0.128206 -2.01092 0
M  V30 6548 O 605.215 0.507408 -2.47349 0
M  V30 6549 C 606.528 -2.58816 -1.53083 0
M  V30 6550 C 608.076 -2.65998 -1.64967 0
M  V30 6551 C 608.551 -4.01244 -2.20833 0
M  V30 6552 N 610.042 -4.0309 -2.28194 0
M  V30 6553 C 610.777 -5.04539 -2.72448 0
M  V30 6554 N 610.273 -6.16378 -3.16306 0
M  V30 6555 N 612.066 -4.91901 -2.72011 0
M  V30 6556 H 604.217 -2.12379 -0.0300061 0
M  V30 6557 H 606.48 -0.944958 -0.0758797 0
M  V30 6558 H 606.186 -3.40842 -0.867147 0
M  V30 6559 H 606.06 -2.81299 -2.51298 0
M  V30 6560 H 608.447 -1.84331 -2.30448 0
M  V30 6561 H 608.528 -2.47325 -0.652982 0
M  V30 6562 H 608.172 -4.83359 -1.55968 0
M  V30 6563 H 608.102 -4.17257 -3.21254 0
M  V30 6564 H 610.593 -3.22341 -1.97242 0
M  V30 6565 H 610.906 -6.89658 -3.487 0
M  V30 6566 H 609.251 -6.19914 -3.14215 0
M  V30 6567 H 612.442 -4.03613 -2.37095 0
M  V30 6568 H 612.615 -5.71102 -3.06181 0
M  V30 6569 N 606.021 0.929856 -1.27246 0
M  V30 6570 C 607.27 1.67182 -1.12842 0
M  V30 6571 C 607.583 1.9287 0.325666 0
M  V30 6572 O 608.789 2.64999 0.590572 0
M  V30 6573 C 607.245 3.01097 -1.97151 0
M  V30 6574 C 606.853 2.83115 -3.47203 0
M  V30 6575 C 608.597 3.78907 -1.91389 0
M  V30 6576 C 606.504 4.12573 -4.23719 0
M  V30 6577 H 605.434 0.627064 -0.418697 0
M  V30 6578 H 608.085 1.0332 -1.51649 0
M  V30 6579 H 606.467 3.66004 -1.51186 0
M  V30 6580 H 607.641 2.26989 -4.01015 0
M  V30 6581 H 605.956 2.18736 -3.54321 0
M  V30 6582 H 608.553 4.74837 -2.45834 0
M  V30 6583 H 608.896 4.0674 -0.887047 0
M  V30 6584 H 609.429 3.20794 -2.35237 0
M  V30 6585 H 606.168 3.8992 -5.26918 0
M  V30 6586 H 605.688 4.68371 -3.74685 0
M  V30 6587 H 607.367 4.8095 -4.32777 0
M  V30 6588 N 607.499 1.09233 1.13605 0
M  V30 6589 C 608.409 0.741939 2.22559 0
M  V30 6590 C 609.425 -0.255236 1.72118 0
M  V30 6591 O 610.601 -0.0970747 2.01166 0
M  V30 6592 C 607.666 0.165595 3.46304 0
M  V30 6593 C 606.727 1.21846 4.11645 0
M  V30 6594 C 605.96 0.669526 5.29484 0
M  V30 6595 O 606.183 -0.508228 5.68131 0
M  V30 6596 O 605.117 1.42361 5.84822 0
M  V30 6597 H 608.943 1.65107 2.54899 0
M  V30 6598 H 606.528 0.866584 1.21699 0
M  V30 6599 H 608.41 -0.152592 4.21124 0
M  V30 6600 H 607.085 -0.716573 3.15669 0
M  V30 6601 H 605.992 1.58931 3.38662 0
M  V30 6602 H 607.325 2.07321 4.46407 0
M  V30 6603 N 608.977 -1.30795 0.87923 0
M  V30 6604 C 610.223 -1.96653 0.495519 0
M  V30 6605 C 610.556 -1.69282 -0.951703 0
M  V30 6606 O 609.831 -0.994374 -1.6716 0
M  V30 6607 C 610.114 -3.51898 0.764174 0
M  V30 6608 C 609.967 -3.88808 2.2616 0
M  V30 6609 C 611.286 -4.39462 0.236825 0
M  V30 6610 H 608.405 -0.7143 0.181507 0
M  V30 6611 H 611.047 -1.54765 1.10217 0
M  V30 6612 H 609.197 -3.87709 0.247841 0
M  V30 6613 H 610.869 -3.63051 2.8459 0
M  V30 6614 H 609.112 -3.37082 2.73053 0
M  V30 6615 H 609.783 -4.97086 2.4002 0
M  V30 6616 H 612.259 -4.10528 0.678683 0
M  V30 6617 H 611.135 -5.47018 0.454176 0
M  V30 6618 H 611.396 -4.33621 -0.861683 0
M  V30 6619 N 610.455 -0.639598 -1.44038 0
M  V30 6620 C 611.418 0.0506628 -2.29144 0
M  V30 6621 C 612.418 0.764001 -1.41491 0
M  V30 6622 O 613.608 0.607309 -1.63271 0
M  V30 6623 C 610.74 1.0824 -3.2326 0
M  V30 6624 H 611.933 -0.697987 -2.91664 0
M  V30 6625 H 609.486 -0.400146 -1.51091 0
M  V30 6626 H 610.221 1.86075 -2.65606 0
M  V30 6627 H 610.006 0.574725 -3.87865 0
M  V30 6628 H 611.496 1.56487 -3.87171 0
M  V30 6629 N 611.933 1.52934 -0.380664 0
M  V30 6630 C 612.863 2.29118 0.450268 0
M  V30 6631 C 613.844 1.32153 1.07096 0
M  V30 6632 O 615.029 1.61038 1.08537 0
M  V30 6633 C 612.159 3.09161 1.58231 0
M  V30 6634 C 611.113 4.13938 1.0881 0
M  V30 6635 C 610.439 4.82153 2.31155 0
M  V30 6636 C 611.739 5.22048 0.162146 0
M  V30 6637 H 613.433 2.98826 -0.185361 0
M  V30 6638 H 610.979 1.43715 -0.0905886 0
M  V30 6639 H 612.932 3.61211 2.17036 0
M  V30 6640 H 611.656 2.3717 2.2454 0
M  V30 6641 H 610.315 3.62855 0.522633 0
M  V30 6642 H 609.963 4.06719 2.95953 0
M  V30 6643 H 609.663 5.52966 1.98752 0
M  V30 6644 H 611.187 5.37004 2.90618 0
M  V30 6645 H 612.601 5.6951 0.658126 0
M  V30 6646 H 610.998 6.00057 -0.0717122 0
M  V30 6647 H 612.068 4.78398 -0.791438 0
M  V30 6648 N 613.412 0.11024 1.57214 0
M  V30 6649 C 614.64 -0.557834 1.99238 0
M  V30 6650 C 615.055 -1.60778 0.989734 0
M  V30 6651 O 614.412 -1.82491 -0.0186092 0
M  V30 6652 C 614.463 -1.19189 3.41286 0
M  V30 6653 O 614.184 -0.183919 4.37714 0
M  V30 6654 C 615.685 -1.94413 3.98395 0
M  V30 6655 H 612.905 -0.148392 0.654386 0
M  V30 6656 H 615.449 0.193996 2.03578 0
M  V30 6657 H 613.604 -1.89456 3.37913 0
M  V30 6658 H 614.018 -0.643475 5.20538 0
M  V30 6659 H 615.492 -2.34116 4.99894 0
M  V30 6660 H 615.969 -2.81592 3.3705 0
M  V30 6661 H 616.575 -1.28928 4.05287 0
M  V30 6662 N 614.89 -1.56749 -0.16351 0
M  V30 6663 C 615.837 -1.97011 -1.2023 0
M  V30 6664 C 616.807 -0.835186 -1.43575 0
M  V30 6665 O 617.992 -1.09594 -1.56185 0
M  V30 6666 C 615.132 -2.34186 -2.53478 0
M  V30 6667 C 614.245 -3.60893 -2.37446 0
M  V30 6668 C 613.38 -3.87245 -3.63614 0
M  V30 6669 C 612.419 -5.07274 -3.42548 0
M  V30 6670 N 611.556 -5.29719 -4.60806 0
M  V30 6671 H 616.396 -2.85562 -0.851958 0
M  V30 6672 H 613.933 -1.41292 -0.409257 0
M  V30 6673 H 615.891 -2.53764 -3.31149 0
M  V30 6674 H 614.521 -1.48736 -2.86492 0
M  V30 6675 H 613.573 -3.49185 -1.50911 0
M  V30 6676 H 614.885 -4.48722 -2.1783 0
M  V30 6677 H 614.039 -4.07232 -4.49719 0
M  V30 6678 H 612.778 -2.97806 -3.86216 0
M  V30 6679 H 611.783 -4.87177 -2.5483 0
M  V30 6680 H 613.008 -5.98251 -3.2136 0
M  V30 6681 H 610.954 -4.43233 -4.83612 0
M  V30 6682 H 610.871 -6.11786 -4.44132 0
M  V30 6683 H 612.139 -5.54192 -5.48171 0
M  V30 6684 N 616.368 0.432326 -1.51554 0
M  V30 6685 C 617.315 1.52512 -1.7323 0
M  V30 6686 C 618.285 1.55863 -0.5741 0
M  V30 6687 O 619.47 1.72796 -0.809093 0
M  V30 6688 C 616.61 2.90183 -1.86783 0
M  V30 6689 C 615.723 2.96322 -3.14352 0
M  V30 6690 C 614.858 4.25147 -3.18471 0
M  V30 6691 C 613.897 4.25172 -4.40335 0
M  V30 6692 N 613.034 5.45529 -4.41975 0
M  V30 6693 H 617.874 1.33332 -2.66508 0
M  V30 6694 H 615.411 0.647613 -1.32077 0
M  V30 6695 H 617.369 3.70071 -1.92623 0
M  V30 6696 H 615.999 3.0791 -0.969087 0
M  V30 6697 H 615.051 2.09066 -3.17798 0
M  V30 6698 H 616.363 2.92203 -4.04251 0
M  V30 6699 H 615.517 5.13411 -3.23255 0
M  V30 6700 H 614.256 4.31929 -2.2647 0
M  V30 6701 H 613.261 3.353 -4.35723 0
M  V30 6702 H 614.486 4.20049 -5.33606 0
M  V30 6703 H 612.432 5.53024 -3.52847 0
M  V30 6704 H 612.349 5.43311 -5.25689 0
M  V30 6705 H 613.617 6.35812 -4.50958 0
M  V30 6706 N 617.846 1.41785 0.688094 0
M  V30 6707 C 618.776 1.47 1.8142 0
M  V30 6708 C 619.757 0.327881 1.6691 0
M  V30 6709 O 620.942 0.540362 1.86531 0
M  V30 6710 C 618.072 1.35876 3.19617 0
M  V30 6711 C 617.026 2.47976 3.48844 0
M  V30 6712 C 616.352 2.21915 4.86475 0
M  V30 6713 C 617.652 3.90309 3.47068 0
M  V30 6714 H 619.346 2.41247 1.77314 0
M  V30 6715 H 616.892 1.16116 0.851651 0
M  V30 6716 H 618.845 1.38134 3.98117 0
M  V30 6717 H 617.569 0.38116 3.24368 0
M  V30 6718 H 616.228 2.45013 2.72698 0
M  V30 6719 H 615.876 1.2248 4.8786 0
M  V30 6720 H 615.576 2.97037 5.06994 0
M  V30 6721 H 617.1 2.25901 5.67275 0
M  V30 6722 H 618.514 3.94947 4.1556 0
M  V30 6723 H 616.911 4.65175 3.7912 0
M  V30 6724 H 617.981 4.17927 2.45896 0
M  V30 6725 N 619.324 -0.923095 1.27737 0
M  V30 6726 C 620.601 -1.64989 1.05062 0
M  V30 6727 C 620.981 -2.07018 -0.413124 0
M  V30 6728 O 620.329 -1.80797 -1.39731 0
M  V30 6729 C 620.539 -2.84847 2.01652 0
M  V30 6730 C 621.887 -3.56083 2.31279 0
M  V30 6731 O 622.911 -2.94981 1.99662 0
M  V30 6732 O 621.77 -4.66182 2.85196 0
M  V30 6733 H 618.864 -0.723357 0.400853 0
M  V30 6734 H 621.41 -0.973224 1.3902 0
M  V30 6735 H 620.182 -2.50814 3.00347 0
M  V30 6736 H 619.805 -3.60231 1.68284 0
M  V30 6737 N 620.802 -1.09834 -1.13024 0
M  V30 6738 C 622.218 -0.828875 -1.36388 0
M  V30 6739 C 622.418 0.554756 -1.93713 0
M  V30 6740 O 621.474 1.30882 -2.15931 0
M  V30 6741 C 622.787 -1.92352 -2.3113 0
M  V30 6742 C 624.335 -1.95124 -2.44735 0
M  V30 6743 C 624.81 -3.03745 -3.42787 0
M  V30 6744 N 626.301 -3.03012 -3.5034 0
M  V30 6745 C 627.036 -3.83699 -4.26101 0
M  V30 6746 N 626.532 -4.74306 -5.04981 0
M  V30 6747 N 628.325 -3.71942 -4.21445 0
M  V30 6748 H 620.476 -1.99029 -0.74169 0
M  V30 6749 H 622.739 -0.864557 -0.388903 0
M  V30 6750 H 622.445 -2.91906 -1.96172 0
M  V30 6751 H 622.319 -1.80536 -3.3119 0
M  V30 6752 H 624.706 -0.962069 -2.78977 0
M  V30 6753 H 624.787 -2.11018 -1.44586 0
M  V30 6754 H 624.431 -4.02878 -3.09276 0
M  V30 6755 H 624.361 -2.85094 -4.42752 0
M  V30 6756 H 626.852 -2.37352 -2.94062 0
M  V30 6757 H 627.165 -5.32446 -5.60108 0
M  V30 6758 H 625.51 -4.78339 -5.04199 0
M  V30 6759 H 628.701 -3.00513 -3.589 0
M  V30 6760 H 628.874 -4.35062 -4.80235 0
M  V30 6761 N 622.28 1.30327 -0.886154 0
M  V30 6762 C 623.227 2.28099 -0.352069 0
M  V30 6763 C 624.197 1.56433 0.558397 0
M  V30 6764 O 625.382 1.84492 0.486561 0
M  V30 6765 C 622.522 3.42456 0.426346 0
M  V30 6766 C 621.635 4.28938 -0.513472 0
M  V30 6767 C 620.77 5.30458 0.280657 0
M  V30 6768 C 619.809 6.0859 -0.654556 0
M  V30 6769 N 618.946 7.02022 0.104322 0
M  V30 6770 H 623.786 2.73166 -1.19097 0
M  V30 6771 H 621.323 1.34367 -0.598662 0
M  V30 6772 H 623.281 4.07518 0.893587 0
M  V30 6773 H 621.911 2.98455 1.22981 0
M  V30 6774 H 620.963 3.64173 -1.09921 0
M  V30 6775 H 622.275 4.83399 -1.2299 0
M  V30 6776 H 621.429 6.01273 0.8097 0
M  V30 6777 H 620.168 4.76693 1.03029 0
M  V30 6778 H 619.173 5.36651 -1.19522 0
M  V30 6779 H 620.398 6.64443 -1.4033 0
M  V30 6780 H 618.344 6.50645 0.836472 0
M  V30 6781 H 618.261 7.53979 -0.552453 0
M  V30 6782 H 619.529 7.77077 0.614069 0
M  V30 6783 N 623.758 0.647228 1.43697 0
M  V30 6784 C 624.988 0.16551 2.05936 0
M  V30 6785 C 625.396 -1.17164 1.48557 0
M  V30 6786 O 624.739 -1.73307 0.60914 0
M  V30 6787 C 624.801 -0.00648082 3.59499 0
M  V30 6788 C 624.465 1.25503 4.39429 0
M  V30 6789 C 625.462 2.18241 4.71876 0
M  V30 6790 C 623.147 1.49494 4.79538 0
M  V30 6791 C 625.141 3.33268 5.43333 0
M  V30 6792 C 622.828 2.64815 5.50742 0
M  V30 6793 C 623.826 3.56528 5.82561 0
M  V30 6794 O 623.514 4.69836 6.52311 0
M  V30 6795 H 623.246 0.0844124 0.670709 0
M  V30 6796 H 625.8 0.88638 1.8529 0
M  V30 6797 H 624.03 -0.782661 3.78697 0
M  V30 6798 H 625.719 -0.444794 4.03456 0
M  V30 6799 H 626.485 2.00946 4.41413 0
M  V30 6800 H 622.364 0.789912 4.54182 0
M  V30 6801 H 625.908 4.04874 5.68087 0
M  V30 6802 H 621.805 2.82047 5.8062 0
M  V30 6803 H 622.573 4.69024 6.70789 0
M  V30 6804 N 625.236 -1.5273 0.388769 0
M  V30 6805 C 626.166 -2.29353 -0.438111 0
M  V30 6806 C 627.147 -1.32719 -1.06394 0
M  V30 6807 O 628.332 -1.61612 -1.07681 0
M  V30 6808 C 625.462 -3.09995 -1.56589 0
M  V30 6809 C 624.416 -4.14509 -1.06613 0
M  V30 6810 C 623.742 -4.83372 -2.28594 0
M  V30 6811 C 625.042 -5.22127 -0.134459 0
M  V30 6812 H 626.736 -2.98723 0.201206 0
M  V30 6813 H 624.282 -1.43665 0.0982089 0
M  V30 6814 H 626.235 -3.62357 -2.15118 0
M  V30 6815 H 624.959 -2.38357 -2.23279 0
M  V30 6816 H 623.618 -3.63128 -0.503383 0
M  V30 6817 H 623.266 -4.08283 -2.93792 0
M  V30 6818 H 622.966 -5.54012 -1.95817 0
M  V30 6819 H 624.49 -5.38538 -2.87766 0
M  V30 6820 H 625.904 -5.69851 -0.627914 0
M  V30 6821 H 624.301 -6.00011 0.103534 0
M  V30 6822 H 625.371 -4.77971 0.816798 0
M  V30 6823 N 626.714 -0.118576 -1.57153 0
M  V30 6824 C 627.662 0.849114 -2.16547 0
M  V30 6825 C 628.656 1.27567 -1.11458 0
M  V30 6826 O 629.862 1.24746 -1.29763 0
M  V30 6827 H 626.237 0.291935 -0.693021 0
M  V30 6828 H 628.208 0.323693 -2.96639 0
M  V30 6829 C 626.957 2.08951 -2.77912 0
M  V30 6830 H 626.28 1.77021 -3.58474 0
M  V30 6831 H 627.72 2.74666 -3.23008 0
M  V30 6832 C 626.179 2.87899 -1.74974 0
M  V30 6833 O 626.709 3.83268 -1.20285 0
M  V30 6834 N 624.915 2.51884 -1.44924 0
M  V30 6835 H 624.462 1.74397 -1.89587 0
M  V30 6836 H 624.42 3.05003 -0.762921 0
M  V30 6837 N 628.193 1.56834 0.155195 0
M  V30 6838 C 629.141 1.98584 1.21107 0
M  V30 6839 C 630.135 0.876987 1.44932 0
M  V30 6840 O 631.341 1.06215 1.45322 0
M  V30 6841 H 627.716 0.632039 0.407469 0
M  V30 6842 H 629.687 2.86561 0.832195 0
M  V30 6843 C 628.436 2.37555 2.53895 0
M  V30 6844 H 627.759 3.22428 2.3639 0
M  V30 6845 H 629.199 2.70598 3.26424 0
M  V30 6846 C 627.658 1.22507 3.13837 0
M  V30 6847 O 628.188 0.521388 3.98302 0
M  V30 6848 N 626.394 0.991444 2.73164 0
M  V30 6849 H 625.941 1.56544 2.04577 0
M  V30 6850 H 625.899 0.223546 3.13604 0
M  V30 6851 N 629.671 -0.424282 1.51781 0
M  V30 6852 C 630.918 -1.1726 1.65095 0
M  V30 6853 C 631.246 -1.90881 0.373477 0
M  V30 6854 O 630.501 -1.84835 -0.642997 0
M  V30 6855 C 630.8 -2.20418 2.81337 0
M  V30 6856 C 630.466 -1.63715 4.20129 0
M  V30 6857 C 629.128 -1.47975 4.57883 0
M  V30 6858 C 631.48 -1.22157 5.06682 0
M  V30 6859 C 628.808 -0.891703 5.79884 0
M  V30 6860 C 631.16 -0.647767 6.29275 0
M  V30 6861 C 629.824 -0.477371 6.65791 0
M  V30 6862 H 629.094 -0.429085 0.604125 0
M  V30 6863 H 631.741 -0.461852 1.85847 0
M  V30 6864 H 630.046 -2.97581 2.54859 0
M  V30 6865 H 631.743 -2.78163 2.88836 0
M  V30 6866 H 628.333 -1.76946 3.90369 0
M  V30 6867 H 632.517 -1.33133 4.7811 0
M  V30 6868 H 627.773 -0.747563 6.06813 0
M  V30 6869 H 631.947 -0.317291 6.95677 0
M  V30 6870 H 629.574 -0.0195936 7.60197 0
M  V30 6871 N 631.149 -1.42148 -0.680565 0
M  V30 6872 C 632.426 -1.32795 -1.43614 0
M  V30 6873 C 632.806 0.037415 -2.11067 0
M  V30 6874 O 632.154 1.05258 -2.02813 0
M  V30 6875 C 632.364 -2.49206 -2.44331 0
M  V30 6876 C 633.712 -2.91059 -3.09144 0
M  V30 6877 O 634.736 -2.49054 -2.54657 0
M  V30 6878 O 633.595 -3.63741 -4.07866 0
M  V30 6879 H 630.689 -0.523397 -0.640301 0
M  V30 6880 H 633.235 -1.54144 -0.709775 0
M  V30 6881 H 632.007 -3.40252 -1.93247 0
M  V30 6882 H 631.63 -2.29813 -3.24456 0
M  V30 6883 N 632.627 0.916307 -1.28225 0
M  V30 6884 C 633.904 1.64429 -1.05936 0
M  V30 6885 C 634.284 2.07234 0.402139 0
M  V30 6886 O 633.632 1.81535 1.3877 0
M  V30 6887 C 633.842 2.83773 -2.03159 0
M  V30 6888 C 635.19 3.54852 -2.33164 0
M  V30 6889 O 636.214 2.93918 -2.01223 0
M  V30 6890 O 635.073 4.64663 -2.87664 0
M  V30 6891 H 632.167 0.721221 -0.404683 0
M  V30 6892 H 634.713 0.965838 -1.39534 0
M  V30 6893 H 633.485 2.49217 -3.01673 0
M  V30 6894 H 633.108 3.59333 -1.70192 0
M  V30 6895 N 634.105 1.10431 1.1244 0
M  V30 6896 C 635.037 0.710945 2.17895 0
M  V30 6897 C 636.05 -0.252315 1.60833 0
M  V30 6898 O 637.239 -0.03679 1.78462 0
M  V30 6899 C 634.339 0.0284262 3.38888 0
M  V30 6900 C 633.512 1.01585 4.2544 0
M  V30 6901 C 632.571 0.364826 5.24934 0
M  V30 6902 O 631.597 1.01561 5.60066 0
M  V30 6903 N 632.799 -0.87674 5.73841 0
M  V30 6904 H 635.564 1.61826 2.52255 0
M  V30 6905 H 633.125 0.993132 1.27861 0
M  V30 6906 H 635.117 -0.418568 4.0253 0
M  V30 6907 H 633.687 -0.781294 3.02679 0
M  V30 6908 H 632.907 1.64111 3.58415 0
M  V30 6909 H 634.195 1.68425 4.80115 0
M  V30 6910 H 633.593 -1.42483 5.47462 0
M  V30 6911 H 632.15 -1.26688 6.39369 0
M  V30 6912 N 635.583 -1.29855 0.893053 0
M  V30 6913 C 636.513 -2.3035 0.382249 0
M  V30 6914 C 637.494 -1.61328 -0.539203 0
M  V30 6915 O 638.679 -1.88882 -0.451342 0
M  V30 6916 C 635.809 -3.45024 -0.396983 0
M  V30 6917 C 634.763 -4.258 0.433437 0
M  V30 6918 C 634.089 -5.32605 -0.472889 0
M  V30 6919 C 635.389 -4.94549 1.67984 0
M  V30 6920 H 637.083 -2.73325 1.22205 0
M  V30 6921 H 634.629 -1.314 0.589073 0
M  V30 6922 H 636.582 -4.14398 -0.765024 0
M  V30 6923 H 635.306 -3.00875 -1.2705 0
M  V30 6924 H 633.965 -3.58125 0.783723 0
M  V30 6925 H 633.613 -4.84702 -1.34435 0
M  V30 6926 H 633.313 -5.87547 0.0789958 0
M  V30 6927 H 634.837 -6.04832 -0.837269 0
M  V30 6928 H 636.251 -5.56395 1.38192 0
M  V30 6929 H 634.648 -5.59393 2.17254 0
M  V30 6930 H 635.718 -4.20215 2.41965 0
M  V30 6931 N 637.061 -0.65484 -1.43351 0
M  V30 6932 C 638.286 -0.175046 -2.0666 0
M  V30 6933 C 638.711 1.15104 -1.4877 0
M  V30 6934 O 638.069 1.71144 -0.598279 0
M  V30 6935 C 638.117 -0.0991544 -3.60464 0
M  V30 6936 O 637.221 0.938169 -4.01587 0
M  V30 6937 H 636.562 -0.0956148 -0.65708 0
M  V30 6938 H 639.092 -0.898222 -1.83829 0
M  V30 6939 H 639.102 0.083632 -4.07914 0
M  V30 6940 H 637.777 -1.06719 -4.01975 0
M  V30 6941 H 636.354 0.72804 -3.65724 0
M  V30 6942 N 638.539 1.52521 -0.396863 0
M  V30 6943 C 639.788 2.00857 0.184184 0
M  V30 6944 C 640.101 1.28733 1.47265 0
M  V30 6945 O 641.307 1.67821 2.13421 0
M  V30 6946 C 639.763 3.57901 0.378787 0
M  V30 6947 C 639.371 4.38931 -0.896873 0
M  V30 6948 C 641.115 4.14504 0.915789 0
M  V30 6949 C 639.022 5.87591 -0.670133 0
M  V30 6950 H 637.952 0.750496 0.0726055 0
M  V30 6951 H 640.603 1.75965 -0.520425 0
M  V30 6952 H 638.985 3.79072 1.14543 0
M  V30 6953 H 640.159 4.29524 -1.66872 0
M  V30 6954 H 638.474 3.93586 -1.35938 0
M  V30 6955 H 641.071 5.23236 1.10126 0
M  V30 6956 H 641.414 3.71076 1.88701 0
M  V30 6957 H 641.947 3.97253 0.208523 0
M  V30 6958 H 638.686 6.35355 -1.61257 0
M  V30 6959 H 638.206 5.99767 0.0626368 0
M  V30 6960 H 639.885 6.46268 -0.307577 0
M  V30 6961 N 640.017 0.126909 1.57088 0
M  V30 6962 C 640.949 -0.850973 2.12817 0
M  V30 6963 C 641.962 -1.22457 1.07276 0
M  V30 6964 O 643.151 -1.17215 1.34622 0
M  V30 6965 C 640.251 -2.15039 2.61938 0
M  V30 6966 C 639.424 -1.94726 3.91664 0
M  V30 6967 C 638.483 -3.0847 4.26301 0
M  V30 6968 O 637.509 -2.81038 4.94981 0
M  V30 6969 N 638.711 -4.35116 3.84259 0
M  V30 6970 H 641.476 -0.3748 2.97347 0
M  V30 6971 H 639.037 -0.0572793 1.61799 0
M  V30 6972 H 641.029 -2.90141 2.82135 0
M  V30 6973 H 639.599 -2.5398 1.82244 0
M  V30 6974 H 638.819 -1.03772 3.80296 0
M  V30 6975 H 640.107 -1.78469 4.76473 0
M  V30 6976 H 639.505 -4.60276 3.2888 0
M  V30 6977 H 638.062 -5.07064 4.09548 0
M  V30 6978 N 641.495 -1.56914 -0.146875 0
M  V30 6979 C 642.723 -1.87515 -0.874394 0
M  V30 6980 C 643.138 -0.715116 -1.74733 0
M  V30 6981 O 642.495 0.315113 -1.79759 0
M  V30 6982 C 642.546 -3.17362 -1.731 0
M  V30 6983 O 642.267 -4.28897 -0.893245 0
M  V30 6984 C 643.768 -3.61479 -2.56609 0
M  V30 6985 H 640.988 -0.621546 -0.252827 0
M  V30 6986 H 643.532 -2.04023 -0.139627 0
M  V30 6987 H 641.687 -3.02608 -2.41883 0
M  V30 6988 H 642.101 -5.03146 -1.48137 0
M  V30 6989 H 643.575 -4.5517 -3.12289 0
M  V30 6990 H 644.052 -2.86773 -3.32653 0
M  V30 6991 H 644.658 -3.78927 -1.93117 0
M  V30 6992 N 642.974 0.416227 -1.52004 0
M  V30 6993 C 644.22 1.16555 -1.6596 0
M  V30 6994 C 644.553 1.90347 -0.384906 0
M  V30 6995 O 643.828 1.84474 0.616405 0
M  V30 6996 C 644.111 2.1657 -2.87696 0
M  V30 6997 C 643.964 1.46722 -4.25197 0
M  V30 6998 C 645.283 3.17321 -3.04951 0
M  V30 6999 H 642.402 0.422369 -0.603965 0
M  V30 7000 H 645.044 0.452141 -1.84542 0
M  V30 7001 H 643.194 2.77411 -2.71985 0
M  V30 7002 H 644.866 0.89056 -4.52622 0
M  V30 7003 H 643.109 0.769263 -4.26925 0
M  V30 7004 H 643.78 2.19665 -5.0641 0
M  V30 7005 H 646.256 2.66552 -3.19514 0
M  V30 7006 H 645.132 3.84573 -3.91656 0
M  V30 7007 H 645.393 3.84643 -2.17951 0
M  V30 7008 N 644.452 1.42507 0.673017 0
M  V30 7009 C 645.382 1.48916 1.79851 0
M  V30 7010 C 646.363 0.345566 1.66553 0
M  V30 7011 O 647.548 0.560116 1.85947 0
M  V30 7012 C 644.678 1.39258 3.18158 0
M  V30 7013 C 643.632 2.51662 3.46194 0
M  V30 7014 C 642.958 2.27062 4.84094 0
M  V30 7015 C 644.258 3.93968 3.42909 0
M  V30 7016 H 645.952 2.43114 1.74745 0
M  V30 7017 H 643.498 1.17013 0.839288 0
M  V30 7018 H 645.451 1.42349 3.96629 0
M  V30 7019 H 644.175 0.415542 3.23946 0
M  V30 7020 H 642.834 2.47891 2.70084 0
M  V30 7021 H 642.482 1.27648 4.86534 0
M  V30 7022 H 642.182 3.02398 5.03815 0
M  V30 7023 H 643.706 2.31905 5.64847 0
M  V30 7024 H 645.12 3.99332 4.11347 0
M  V30 7025 H 643.517 4.6917 3.74165 0
M  V30 7026 H 644.587 4.20512 2.41449 0
M  V30 7027 N 645.93 -0.909495 1.28709 0
M  V30 7028 C 647.155 -1.69801 1.1909 0
M  V30 7029 C 647.58 -1.86479 -0.246388 0
M  V30 7030 O 646.938 -1.37802 -1.17815 0
M  V30 7031 C 646.986 -3.06543 1.89904 0
M  V30 7032 O 646.09 -3.94268 1.2094 0
M  V30 7033 H 645.431 -0.519783 0.413185 0
M  V30 7034 H 647.961 -1.13689 1.70106 0
M  V30 7035 H 647.971 -3.56748 1.97977 0
M  V30 7036 H 646.646 -2.93722 2.94449 0
M  V30 7037 H 645.223 -3.52702 1.2106 0
M  V30 7038 N 647.408 -1.11026 -1.11852 0
M  V30 7039 C 648.648 -0.866348 -1.85132 0
M  V30 7040 C 649.012 0.597236 -1.82475 0
M  V30 7041 O 650.213 0.957744 -2.51159 0
M  V30 7042 C 648.484 -1.40721 -3.28531 0
M  V30 7043 S 650.043 -1.29964 -4.19112 0
M  V30 7044 H 646.861 -0.312899 -0.638447 0
M  V30 7045 H 649.463 -1.41691 -1.34699 0
M  V30 7046 H 648.167 -2.46631 -3.28027 0
M  V30 7047 H 647.698 -0.85349 -3.8403 0
M  V30 7048 H 649.713 -0.261333 -4.95511 0
M  V30 7049 N 648.886 1.2938 -0.899927 0
M  V30 7050 C 650.111 2.00228 -0.540692 0
M  V30 7051 C 650.536 1.66909 0.867359 0
M  V30 7052 O 649.894 0.893824 1.57735 0
M  V30 7053 C 649.942 3.52921 -0.740232 0
M  V30 7054 O 649.046 4.11879 0.207154 0
M  V30 7055 H 648.387 0.629505 -0.211233 0
M  V30 7056 H 650.917 1.6487 -1.21158 0
M  V30 7057 H 650.927 4.0287 -0.644973 0
M  V30 7058 H 649.602 3.76508 -1.76677 0
M  V30 7059 H 648.179 3.72845 0.0643315 0
M  V30 7060 N 650.364 0.662433 1.43002 0
M  V30 7061 C 651.611 0.179591 2.01702 0
M  V30 7062 C 651.939 -1.20964 1.52309 0
M  V30 7063 O 651.194 -1.82343 0.7106 0
M  V30 7064 C 651.493 0.149363 3.57088 0
M  V30 7065 C 651.159 1.48158 4.25864 0
M  V30 7066 C 649.821 1.84638 4.44367 0
M  V30 7067 C 652.173 2.35953 4.64732 0
M  V30 7068 C 649.501 3.08561 4.99006 0
M  V30 7069 C 651.853 3.59176 5.20745 0
M  V30 7070 C 650.517 3.95841 5.37463 0
M  V30 7071 H 649.787 0.0657172 0.73808 0
M  V30 7072 H 652.434 0.854968 1.71355 0
M  V30 7073 H 650.739 -0.609491 3.8703 0
M  V30 7074 H 652.436 -0.241241 4.00274 0
M  V30 7075 H 649.026 1.18777 4.11813 0
M  V30 7076 H 653.21 2.09058 4.50121 0
M  V30 7077 H 648.466 3.37005 5.10135 0
M  V30 7078 H 652.64 4.27417 5.49807 0
M  V30 7079 H 650.267 4.91942 5.79566 0
M  V30 7080 N 651.842 -1.52309 0.404946 0
M  V30 7081 C 653.072 -2.05886 -0.171569 0
M  V30 7082 C 653.48 -1.27527 -1.39762 0
M  V30 7083 O 652.823 -0.319215 -1.80905 0
M  V30 7084 C 652.885 -3.54609 -0.590983 0
M  V30 7085 C 652.549 -4.53989 0.523757 0
M  V30 7086 C 653.546 -5.01084 1.38604 0
M  V30 7087 C 651.231 -4.97465 0.695255 0
M  V30 7088 C 653.225 -5.90295 2.4048 0
M  V30 7089 C 650.912 -5.86473 1.71733 0
M  V30 7090 C 651.91 -6.32782 2.57051 0
M  V30 7091 O 651.598 -7.20029 3.57509 0
M  V30 7092 H 651.33 -0.675508 -0.0257763 0
M  V30 7093 H 653.884 -1.97238 0.573278 0
M  V30 7094 H 652.114 -3.60929 -1.38805 0
M  V30 7095 H 653.803 -3.90853 -1.09494 0
M  V30 7096 H 654.569 -4.68214 1.26492 0
M  V30 7097 H 650.448 -4.60982 0.0408447 0
M  V30 7098 H 653.992 -6.26363 3.07108 0
M  V30 7099 H 649.889 -6.18756 1.83877 0
M  V30 7100 H 650.657 -7.3813 3.53703 0
M  V30 7101 N 653.32 -0.135238 -1.57019 0
M  V30 7102 C 654.597 0.563227 -1.87316 0
M  V30 7103 C 654.977 1.83749 -1.03921 0
M  V30 7104 O 654.325 2.2817 -0.122675 0
M  V30 7105 C 654.535 0.840031 -3.3874 0
M  V30 7106 C 655.883 1.18598 -4.077 0
M  V30 7107 O 656.907 0.92977 -3.43851 0
M  V30 7108 O 655.766 1.66758 -5.20436 0
M  V30 7109 H 652.86 0.285971 -0.775983 0
M  V30 7110 H 655.406 -0.170965 -1.68837 0
M  V30 7111 H 654.178 -0.0622785 -3.9125 0
M  V30 7112 H 653.801 1.62882 -3.62706 0
M  V30 7113 N 654.798 1.5699 0.138552 0
M  V30 7114 C 655.73 1.95515 1.1961 0
M  V30 7115 C 656.743 0.852002 1.38726 0
M  V30 7116 O 657.932 1.13038 1.38147 0
M  V30 7117 C 655.032 2.2213 2.55952 0
M  V30 7118 C 654.205 3.53424 2.57702 0
M  V30 7119 C 653.264 3.6848 3.75645 0
M  V30 7120 O 652.29 4.4079 3.60129 0
M  V30 7121 N 653.492 3.05777 4.93438 0
M  V30 7122 H 656.257 2.86838 0.868557 0
M  V30 7123 H 653.818 1.58542 0.328033 0
M  V30 7124 H 655.81 2.29435 3.33379 0
M  V30 7125 H 654.38 1.3703 2.80965 0
M  V30 7126 H 653.6 3.57484 1.6613 0
M  V30 7127 H 654.888 4.39759 2.55909 0
M  V30 7128 H 654.286 2.46961 5.08947 0
M  V30 7129 H 652.843 3.18631 5.6861 0
M  V30 7130 N 656.276 -0.40816 1.52223 0
M  V30 7131 C 657.524 -1.15274 1.66001 0
M  V30 7132 C 657.845 -1.91003 0.392803 0
M  V30 7133 O 657.115 -1.8673 -0.592336 0
M  V30 7134 H 655.695 -0.428526 0.611861 0
M  V30 7135 H 658.357 -0.46512 1.89269 0
M  V30 7136 H 657.453 -1.86628 2.50153 0
M  V30 7137 N 657.755 -1.42862 -0.66545 0
M  V30 7138 C 658.995 -1.45323 -1.43738 0
M  V30 7139 C 659.359 -0.0707969 -1.91869 0
M  V30 7140 O 660.56 0.0298852 -2.68783 0
M  V30 7141 C 658.831 -2.45671 -2.59577 0
M  V30 7142 S 660.39 -2.6691 -3.48288 0
M  V30 7143 H 657.208 -0.51442 -0.490809 0
M  V30 7144 H 659.81 -1.79537 -0.773745 0
M  V30 7145 H 658.514 -3.44869 -2.22471 0
M  V30 7146 H 658.045 -2.12914 -3.30804 0
M  V30 7147 H 660.06 -1.95914 -4.55886 0
M  V30 7148 N 659.233 0.902656 -1.29189 0
M  V30 7149 C 660.181 2.0278 -1.13943 0
M  V30 7150 C 661.175 1.69308 -0.055787 0
M  V30 7151 O 662.381 1.78707 -0.215371 0
M  V30 7152 H 658.756 0.664595 -0.351877 0
M  V30 7153 H 660.727 2.12778 -2.09208 0
M  V30 7154 C 659.476 3.37657 -0.82966 0
M  V30 7155 H 658.799 3.63913 -1.65551 0
M  V30 7156 H 660.239 4.17078 -0.762998 0
M  V30 7157 C 658.698 3.33648 0.466991 0
M  V30 7158 O 659.228 3.72886 1.49395 0
M  V30 7159 N 657.434 2.86745 0.471761 0
M  V30 7160 H 656.981 2.55009 -0.364406 0
M  V30 7161 H 656.939 2.84446 1.33933 0
M  V30 7162 N 660.711 1.11618 1.11262 0
M  V30 7163 C 661.959 0.864469 1.82678 0
M  V30 7164 C 662.28 -0.611564 1.85162 0
M  V30 7165 O 661.55 -1.44429 1.32352 0
M  V30 7166 H 660.13 0.316821 0.676486 0
M  V30 7167 H 662.792 1.40894 1.34666 0
M  V30 7168 H 661.888 1.23832 2.86482 0
M  V30 7169 N 662.189 -1.289 0.906776 0
M  V30 7170 C 663.437 -1.94883 0.535266 0
M  V30 7171 C 663.758 -1.71784 -0.922791 0
M  V30 7172 O 663.028 -1.05359 -1.65156 0
M  V30 7173 H 661.608 -0.721109 0.194962 0
M  V30 7174 H 664.27 -1.57018 1.15461 0
M  V30 7175 H 663.366 -3.03591 0.723821 0
M  V30 7176 N 663.667 -0.670007 -1.42649 0
M  V30 7177 C 664.914 -0.190286 -2.01604 0
M  V30 7178 C 665.242 1.20155 -1.52948 0
M  V30 7179 O 664.497 1.81964 -0.72026 0
M  V30 7180 C 664.796 -0.168298 -3.57004 0
M  V30 7181 C 664.462 -1.50415 -4.25072 0
M  V30 7182 C 663.124 -1.86992 -4.43382 0
M  V30 7183 C 665.476 -2.38414 -4.63474 0
M  V30 7184 C 662.804 -3.11203 -4.97363 0
M  V30 7185 C 665.156 -3.61933 -5.18833 0
M  V30 7186 C 663.82 -3.98685 -5.35356 0
M  V30 7187 H 663.09 -0.0696305 -0.737721 0
M  V30 7188 H 665.737 -0.864044 -1.70899 0
M  V30 7189 H 664.042 0.588958 -3.87348 0
M  V30 7190 H 665.739 0.22001 -4.00396 0
M  V30 7191 H 662.329 -1.20959 -4.11177 0
M  V30 7192 H 666.513 -2.11442 -4.49006 0
M  V30 7193 H 661.769 -3.39705 -5.08341 0
M  V30 7194 H 665.943 -4.30326 -5.47533 0
M  V30 7195 H 663.57 -4.95009 -5.76949 0
M  V30 7196 N 665.145 1.52092 -0.413018 0
M  V30 7197 C 666.556 1.86617 0.0556967 0
M  V30 7198 C 666.907 1.33156 1.44097 0
M  V30 7199 O 666.032 0.672417 2.05688 0
M  V30 7200 C 666.627 3.38628 0.107844 0
M  V30 7201 C 665.186 3.72778 0.520904 0
M  V30 7202 C 664.333 2.75649 -0.302109 0
M  V30 7203 H 667.284 1.45663 -0.629919 0
M  V30 7204 H 667.305 3.69152 0.922324 0
M  V30 7205 H 666.817 3.77508 -0.900506 0
M  V30 7206 H 664.918 3.39478 1.53575 0
M  V30 7207 H 665.031 4.7838 0.262591 0
M  V30 7208 H 663.395 2.53603 0.236115 0
M  V30 7209 H 664.178 3.17369 -1.30888 0
M  V30 7210 N 666.623 0.143563 1.56945 0
M  V30 7211 C 667.853 -0.514699 2.00086 0
M  V30 7212 C 668.261 -1.59184 1.0226 0
M  V30 7213 O 667.604 -1.83697 0.0110514 0
M  V30 7214 C 667.666 -1.17778 3.39659 0
M  V30 7215 C 667.33 -0.245657 4.56339 0
M  V30 7216 C 668.327 0.525343 5.17239 0
M  V30 7217 C 666.012 -0.149564 5.02077 0
M  V30 7218 C 668.006 1.37992 6.22284 0
M  V30 7219 C 665.693 0.708621 6.06978 0
M  V30 7220 C 666.691 1.47197 6.6695 0
M  V30 7221 O 666.379 2.31586 7.6982 0
M  V30 7222 H 666.111 -0.138789 0.661599 0
M  V30 7223 H 668.665 0.234098 2.04062 0
M  V30 7224 H 666.895 -1.97415 3.32512 0
M  V30 7225 H 668.584 -1.73542 3.6693 0
M  V30 7226 H 669.35 0.461118 4.82803 0
M  V30 7227 H 665.229 -0.733457 4.55128 0
M  V30 7228 H 668.773 1.97621 6.69023 0
M  V30 7229 H 664.67 0.77415 6.40841 0
M  V30 7230 H 665.438 2.24796 7.87025 0
M  V30 7231 N 668.101 -1.57061 -0.130224 0
M  V30 7232 C 669.031 -2.02552 -1.16168 0
M  V30 7233 C 670.012 -0.907971 -1.4384 0
M  V30 7234 O 671.197 -1.17693 -1.54473 0
M  V30 7235 C 668.327 -2.42035 -2.49071 0
M  V30 7236 C 667.281 -3.5713 -2.35886 0
M  V30 7237 C 666.607 -3.82478 -3.7365 0
M  V30 7238 C 667.907 -4.89236 -1.8288 0
M  V30 7239 H 669.601 -2.8897 -0.783359 0
M  V30 7240 H 667.147 -1.39021 -0.375376 0
M  V30 7241 H 669.1 -2.72462 -3.21469 0
M  V30 7242 H 667.824 -1.52573 -2.88771 0
M  V30 7243 H 666.483 -3.26895 -1.65938 0
M  V30 7244 H 666.131 -2.9024 -4.10816 0
M  V30 7245 H 665.831 -4.59944 -3.65685 0
M  V30 7246 H 667.355 -4.15347 -4.47571 0
M  V30 7247 H 668.769 -5.18272 -2.45085 0
M  V30 7248 H 667.166 -5.70624 -1.85763 0
M  V30 7249 H 668.236 -4.78494 -0.785571 0
M  V30 7250 N 669.579 0.400081 -1.52437 0
M  V30 7251 C 670.825 1.14788 -1.67187 0
M  V30 7252 C 671.158 1.89928 -0.405074 0
M  V30 7253 O 670.433 1.85118 0.596804 0
M  V30 7254 C 670.716 2.13507 -2.89977 0
M  V30 7255 C 670.569 1.42204 -4.2673 0
M  V30 7256 C 671.888 3.14069 -3.083 0
M  V30 7257 H 669.007 0.415939 -0.608411 0
M  V30 7258 H 671.649 0.432542 -1.85011 0
M  V30 7259 H 669.799 2.7451 -2.74912 0
M  V30 7260 H 671.471 0.842503 -4.53541 0
M  V30 7261 H 669.714 0.723939 -4.27717 0
M  V30 7262 H 670.385 2.14281 -5.08712 0
M  V30 7263 H 672.861 2.63148 -3.22323 0
M  V30 7264 H 671.737 3.80398 -3.95713 0
M  V30 7265 H 671.998 3.82309 -2.22018 0
M  V30 7266 N 671.057 1.43213 0.657864 0
M  V30 7267 C 672.282 1.48227 1.45064 0
M  V30 7268 C 672.707 0.0999939 1.87834 0
M  V30 7269 O 672.065 -0.905269 1.57081 0
M  V30 7270 C 672.113 2.42931 2.6649 0
M  V30 7271 O 671.217 1.91237 3.6538 0
M  V30 7272 H 670.558 0.501551 0.435135 0
M  V30 7273 H 673.088 1.8808 0.805431 0
M  V30 7274 H 673.098 2.6008 3.1436 0
M  V30 7275 H 671.773 3.43348 2.34701 0
M  V30 7276 H 670.35 1.83726 3.24498 0
M  V30 7277 N 672.536 -0.895792 1.29666 0
M  V30 7278 C 673.483 -2.00035 1.15129 0
M  V30 7279 C 674.453 -1.66043 0.0435819 0
M  V30 7280 O 675.638 -1.89621 0.211811 0
M  V30 7281 C 672.778 -3.34774 0.83787 0
M  V30 7282 C 671.891 -3.81525 2.0264 0
M  V30 7283 C 671.026 -5.04858 1.65201 0
M  V30 7284 C 670.065 -5.43988 2.80612 0
M  V30 7285 N 669.202 -6.58507 2.43544 0
M  V30 7286 H 674.042 -2.11802 2.09628 0
M  V30 7287 H 671.579 -1.03719 1.04311 0
M  V30 7288 H 673.537 -4.12311 0.636824 0
M  V30 7289 H 672.167 -3.22724 -0.0702314 0
M  V30 7290 H 671.219 -2.9999 2.33903 0
M  V30 7291 H 672.531 -4.06472 2.89106 0
M  V30 7292 H 671.685 -5.8999 1.41408 0
M  V30 7293 H 670.424 -4.81759 0.758893 0
M  V30 7294 H 669.429 -4.57388 3.05083 0
M  V30 7295 H 670.654 -5.69066 3.70595 0
M  V30 7296 H 668.6 -6.37004 1.56724 0
M  V30 7297 H 668.517 -6.83269 3.23542 0
M  V30 7298 H 669.785 -7.46897 2.2308 0
M  V30 7299 N 674.014 -1.12206 -1.10668 0
M  V30 7300 C 674.944 -0.810086 -2.18997 0
M  V30 7301 C 675.925 0.225065 -1.68604 0
M  V30 7302 O 677.11 0.086783 -1.94006 0
M  V30 7303 C 674.24 -0.261262 -3.46316 0
M  V30 7304 C 673.194 -1.2292 -4.09969 0
M  V30 7305 C 672.52 -0.540713 -5.31959 0
M  V30 7306 C 673.82 -2.58295 -4.53962 0
M  V30 7307 H 675.514 -1.7159 -2.45352 0
M  V30 7308 H 673.06 -0.82646 -1.17922 0
M  V30 7309 H 675.013 -0.0307522 -4.21389 0
M  V30 7310 H 673.737 0.679879 -3.19445 0
M  V30 7311 H 672.396 -1.44548 -3.369 0
M  V30 7312 H 672.044 0.405492 -5.01363 0
M  V30 7313 H 671.744 -1.18637 -5.75499 0
M  V30 7314 H 673.268 -0.319184 -6.09765 0
M  V30 7315 H 674.682 -2.40709 -5.20319 0
M  V30 7316 H 673.079 -3.18916 -5.08343 0
M  V30 7317 H 674.149 -3.16918 -3.67002 0
M  V30 7318 N 675.492 1.28418 -0.913599 0
M  V30 7319 C 676.455 2.25564 -0.406624 0
M  V30 7320 C 677.455 1.5387 0.466965 0
M  V30 7321 O 678.645 1.72094 0.270042 0
M  V30 7322 C 675.777 3.38339 0.417053 0
M  V30 7323 H 676.97 2.71926 -1.26477 0
M  V30 7324 H 674.523 1.40098 -0.692986 0
M  V30 7325 H 675.258 2.97339 1.29461 0
M  V30 7326 H 675.043 3.91542 -0.209102 0
M  V30 7327 H 676.533 4.10578 0.762602 0
M  V30 7328 N 676.97 0.677563 1.42291 0
M  V30 7329 C 677.917 0.000947061 2.308 0
M  V30 7330 C 678.887 -0.789889 1.46116 0
M  V30 7331 O 680.072 -0.761578 1.74942 0
M  V30 7332 C 677.212 -0.942387 3.31984 0
M  V30 7333 C 676.325 -0.14508 4.31756 0
M  V30 7334 C 675.46 -1.08442 5.20013 0
M  V30 7335 C 674.499 -0.278958 6.11464 0
M  V30 7336 N 673.636 -1.17115 6.92263 0
M  V30 7337 H 678.476 0.761521 2.88106 0
M  V30 7338 H 676.013 0.38727 1.41911 0
M  V30 7339 H 677.971 -1.50317 3.89179 0
M  V30 7340 H 676.601 -1.66956 2.76271 0
M  V30 7341 H 675.653 0.532368 3.76656 0
M  V30 7342 H 676.965 0.48015 4.96484 0
M  V30 7343 H 676.119 -1.71504 5.81955 0
M  V30 7344 H 674.858 -1.74353 4.55469 0
M  V30 7345 H 673.863 0.364856 5.48588 0
M  V30 7346 H 675.088 0.376099 6.78058 0
M  V30 7347 H 673.034 -1.81661 6.30345 0
M  V30 7348 H 672.951 -0.601063 7.53607 0
M  V30 7349 H 674.219 -1.78915 7.58689 0
M  V30 7350 N 678.448 -1.51871 0.421078 0
M  V30 7351 C 679.378 -2.30231 -0.389363 0
M  V30 7352 C 680.359 -1.34946 -1.03555 0
M  V30 7353 O 681.544 -1.63859 -1.04229 0
M  V30 7354 C 678.674 -3.13247 -1.49979 0
M  V30 7355 C 677.628 -4.16677 -0.977966 0
M  V30 7356 C 676.954 -4.88112 -2.1829 0
M  V30 7357 C 678.254 -5.22295 -0.0236775 0
M  V30 7358 H 679.948 -2.98229 0.264524 0
M  V30 7359 H 677.494 -1.43424 0.12866 0
M  V30 7360 H 679.447 -3.66838 -2.07383 0
M  V30 7361 H 678.171 -2.4304 -2.18173 0
M  V30 7362 H 676.83 -3.64114 -0.426245 0
M  V30 7363 H 676.478 -4.14423 -2.85066 0
M  V30 7364 H 676.178 -5.58041 -1.84021 0
M  V30 7365 H 677.702 -5.44521 -2.76278 0
M  V30 7366 H 679.116 -5.71055 -0.506899 0
M  V30 7367 H 677.513 -5.99656 0.230782 0
M  V30 7368 H 678.583 -4.76131 0.917999 0
M  V30 7369 N 679.926 -0.151884 -1.56866 0
M  V30 7370 C 680.858 0.817008 -2.14144 0
M  V30 7371 C 681.871 1.20735 -1.0921 0
M  V30 7372 O 683.06 1.15058 -1.36469 0
M  V30 7373 C 680.16 2.10844 -2.65326 0
M  V30 7374 C 679.333 1.88471 -3.94712 0
M  V30 7375 C 678.392 3.01649 -4.31155 0
M  V30 7376 O 677.418 2.73127 -4.9939 0
M  V30 7377 N 678.62 4.28947 -3.91132 0
M  V30 7378 H 681.385 0.327448 -2.97906 0
M  V30 7379 H 678.946 0.0315313 -1.61869 0
M  V30 7380 H 680.938 2.85616 -2.86715 0
M  V30 7381 H 679.508 2.51049 -1.86262 0
M  V30 7382 H 678.728 0.977088 -3.81899 0
M  V30 7383 H 680.016 1.70866 -4.79252 0
M  V30 7384 H 679.414 4.54986 -3.36161 0
M  V30 7385 H 677.971 5.00484 -4.17563 0
M  V30 7386 N 681.404 1.57128 0.121893 0
M  V30 7387 C 682.652 1.84335 0.828548 0
M  V30 7388 C 682.973 0.736632 1.80551 0
M  V30 7389 O 682.243 -0.23962 1.94429 0
M  V30 7390 H 680.823 0.680108 0.30897 0
M  V30 7391 H 683.485 1.9459 0.109906 0
M  V30 7392 H 682.581 2.80152 1.37554 0
M  V30 7393 N 682.882 -0.391992 1.52647 0
M  V30 7394 C 684.131 -1.13449 1.6677 0
M  V30 7395 C 684.444 -1.91203 0.412399 0
M  V30 7396 O 685.65 -2.68013 0.433707 0
M  V30 7397 C 684.106 -2.06577 2.9471 0
M  V30 7398 C 683.714 -1.3426 4.27409 0
M  V30 7399 C 685.458 -2.80981 3.18198 0
M  V30 7400 C 683.365 -2.26136 5.46458 0
M  V30 7401 H 682.295 -0.427211 0.621295 0
M  V30 7402 H 684.946 -0.397522 1.79142 0
M  V30 7403 H 683.328 -2.83898 2.76076 0
M  V30 7404 H 684.502 -0.621856 4.56585 0
M  V30 7405 H 682.817 -0.718279 4.10158 0
M  V30 7406 H 685.414 -3.49898 4.04321 0
M  V30 7407 H 685.757 -3.44891 2.33144 0
M  V30 7408 H 686.29 -2.10754 3.37383 0
M  V30 7409 H 683.029 -1.66846 6.33911 0
M  V30 7410 H 682.549 -2.96134 5.21598 0
M  V30 7411 H 684.228 -2.86286 5.80215 0
M  V30 7412 N 684.36 -1.4356 -0.65026 0
M  V30 7413 C 685.771 -1.40324 -1.2315 0
M  V30 7414 C 686.122 -0.108812 -1.95898 0
M  V30 7415 O 685.247 0.79163 -2.01401 0
M  V30 7416 C 685.842 -2.54195 -2.23987 0
M  V30 7417 C 684.401 -2.54215 -2.77582 0
M  V30 7418 C 683.548 -2.31752 -1.5227 0
M  V30 7419 H 686.499 -1.52418 -0.442095 0
M  V30 7420 H 686.52 -2.25854 -3.0622 0
M  V30 7421 H 686.032 -3.48392 -1.71011 0
M  V30 7422 H 684.133 -1.63907 -3.34612 0
M  V30 7423 H 684.246 -3.52081 -3.24925 0
M  V30 7424 H 682.61 -1.80476 -1.79723 0
M  V30 7425 H 683.393 -3.28037 -1.01225 0
M  V30 7426 N 685.838 0.888903 -1.30139 0
M  V30 7427 C 686.768 2.01046 -1.18755 0
M  V30 7428 C 687.749 1.69916 -0.0791438 0
M  V30 7429 O 688.934 1.92445 -0.260498 0
M  V30 7430 C 686.064 3.36109 -0.874518 0
M  V30 7431 C 685.018 3.81486 -1.94043 0
M  V30 7432 C 684.344 5.13796 -1.48047 0
M  V30 7433 C 685.644 4.00637 -3.35093 0
M  V30 7434 H 687.338 2.10828 -2.12584 0
M  V30 7435 H 684.884 1.01298 -1.02346 0
M  V30 7436 H 686.837 4.14089 -0.781548 0
M  V30 7437 H 685.561 3.26449 0.0994519 0
M  V30 7438 H 684.22 3.05731 -2.02297 0
M  V30 7439 H 683.868 5.0056 -0.494878 0
M  V30 7440 H 683.568 5.45127 -2.19341 0
M  V30 7441 H 685.092 5.94305 -1.40121 0
M  V30 7442 H 686.506 4.69067 -3.2962 0
M  V30 7443 H 684.903 4.43339 -4.04438 0
M  V30 7444 H 685.973 3.0462 -3.77273 0
M  V30 7445 N 687.317 1.12792 1.10072 0
M  V30 7446 C 688.265 0.794523 2.18609 0
M  V30 7447 C 689.259 -0.220271 1.67962 0
M  V30 7448 O 690.465 -0.0780938 1.79831 0
M  V30 7449 H 686.84 0.239123 0.712969 0
M  V30 7450 H 688.811 1.71823 2.43966 0
M  V30 7451 C 687.56 0.269548 3.46654 0
M  V30 7452 H 686.883 1.04171 3.8599 0
M  V30 7453 H 688.323 0.0746242 4.23934 0
M  V30 7454 C 686.782 -1.00333 3.21613 0
M  V30 7455 O 687.312 -2.08042 3.4363 0
M  V30 7456 N 685.518 -0.931763 2.75257 0
M  V30 7457 H 685.065 -0.0551197 2.57541 0
M  V30 7458 H 685.023 -1.78405 2.58881 0
M  V30 7459 N 688.795 -1.27931 0.920396 0
M  V30 7460 C 690.041 -1.94977 0.557832 0
M  V30 7461 C 690.374 -1.72224 -0.897365 0
M  V30 7462 O 689.649 -1.04705 -1.63912 0
M  V30 7463 C 689.932 -3.49289 0.875741 0
M  V30 7464 C 689.785 -3.81416 2.38416 0
M  V30 7465 C 691.104 -4.38486 0.376517 0
M  V30 7466 H 688.223 -0.708164 0.20414 0
M  V30 7467 H 690.865 -1.5118 1.15085 0
M  V30 7468 H 689.015 -3.86724 0.371062 0
M  V30 7469 H 690.687 -3.53813 2.95997 0
M  V30 7470 H 688.93 -3.28225 2.83639 0
M  V30 7471 H 689.601 -4.89198 2.55713 0
M  V30 7472 H 692.077 -4.08161 0.808945 0
M  V30 7473 H 690.953 -5.45296 0.627976 0
M  V30 7474 H 691.214 -4.36143 -0.723293 0
M  V30 7475 N 690.273 -0.685099 -1.4193 0
M  V30 7476 C 691.503 -0.220052 -2.05425 0
M  V30 7477 C 691.911 1.13185 -1.51611 0
M  V30 7478 O 691.254 1.71631 -0.654875 0
M  V30 7479 C 691.316 -0.0888364 -3.5939 0
M  V30 7480 C 690.98 -1.37109 -4.35947 0
M  V30 7481 C 691.977 -2.30675 -4.65924 0
M  V30 7482 C 689.662 -1.62155 -4.75406 0
M  V30 7483 C 691.656 -3.47556 -5.34306 0
M  V30 7484 C 689.343 -2.79324 -5.43527 0
M  V30 7485 C 690.341 -3.71848 -5.72903 0
M  V30 7486 O 690.029 -4.86966 -6.39624 0
M  V30 7487 H 689.761 -0.102165 -0.668235 0
M  V30 7488 H 692.315 -0.935194 -1.82875 0
M  V30 7489 H 690.545 0.681981 -3.80639 0
M  V30 7490 H 692.234 0.337669 -4.04493 0
M  V30 7491 H 693 -2.12579 -4.3593 0
M  V30 7492 H 688.879 -0.910053 -4.51928 0
M  V30 7493 H 692.423 -4.19794 -5.57153 0
M  V30 7494 H 688.32 -2.97342 -5.72938 0
M  V30 7495 H 689.088 -4.86644 -6.58118 0
M  V30 7496 N 691.751 1.51645 -0.429126 0
M  V30 7497 C 692.998 2.02015 0.140079 0
M  V30 7498 C 693.326 1.31374 1.43427 0
M  V30 7499 O 692.581 0.414779 1.91254 0
M  V30 7500 C 692.88 3.54989 0.414472 0
M  V30 7501 C 692.546 4.43874 -0.792911 0
M  V30 7502 C 691.208 4.67887 -1.12404 0
M  V30 7503 C 693.56 4.96074 -1.59875 0
M  V30 7504 C 690.888 5.41348 -2.26184 0
M  V30 7505 C 693.24 5.70782 -2.72747 0
M  V30 7506 C 691.904 5.93062 -3.06324 0
M  V30 7507 H 691.174 0.739225 0.0512585 0
M  V30 7508 H 693.821 1.82675 -0.574641 0
M  V30 7509 H 692.126 3.72615 1.21099 0
M  V30 7510 H 693.823 3.91489 0.868173 0
M  V30 7511 H 690.413 4.25374 -0.524871 0
M  V30 7512 H 694.597 4.77412 -1.35614 0
M  V30 7513 H 689.853 5.56815 -2.52522 0
M  V30 7514 H 694.027 6.10221 -3.35564 0
M  V30 7515 H 691.654 6.49764 -3.94602 0
M  V30 7516 N 693.229 0.160201 1.56784 0
M  V30 7517 C 694.64 -0.358417 1.83227 0
M  V30 7518 C 694.991 -1.63831 1.07952 0
M  V30 7519 O 694.116 -2.13885 0.328995 0
M  V30 7520 C 694.711 -0.657058 3.32368 0
M  V30 7521 C 693.27 -1.12015 3.59346 0
M  V30 7522 C 692.417 -0.15015 2.76893 0
M  V30 7523 H 695.368 0.384669 1.53967 0
M  V30 7524 H 695.389 -1.51033 3.49241 0
M  V30 7525 H 694.901 0.274647 3.87127 0
M  V30 7526 H 693.002 -2.06734 3.09987 0
M  V30 7527 H 693.115 -1.037 4.67743 0
M  V30 7528 H 691.479 -0.645361 2.46388 0
M  V30 7529 H 692.262 0.775379 3.34429 0
M  V30 7530 N 694.707 -1.5719 -0.113559 0
M  V30 7531 C 695.937 -1.89053 -0.833212 0
M  V30 7532 C 696.345 -0.750139 -1.73694 0
M  V30 7533 O 695.688 0.287808 -1.81431 0
M  V30 7534 C 695.75 -3.15986 -1.71443 0
M  V30 7535 C 695.414 -4.46271 -0.984449 0
M  V30 7536 C 696.411 -5.18897 -0.322741 0
M  V30 7537 C 694.096 -4.92963 -0.964011 0
M  V30 7538 C 696.09 -6.3644 0.349646 0
M  V30 7539 C 693.777 -6.10422 -0.287828 0
M  V30 7540 C 694.775 -6.82009 0.36784 0
M  V30 7541 O 694.463 -7.97233 1.03322 0
M  V30 7542 H 694.195 -0.630225 -0.244526 0
M  V30 7543 H 696.749 -2.05152 -0.100847 0
M  V30 7544 H 694.979 -2.95984 -2.48858 0
M  V30 7545 H 696.668 -3.33826 -2.309 0
M  V30 7546 H 697.434 -4.83875 -0.330114 0
M  V30 7547 H 693.313 -4.37143 -1.46379 0
M  V30 7548 H 696.857 -6.92254 0.861996 0
M  V30 7549 H 692.754 -6.449 -0.278237 0
M  V30 7550 H 693.522 -8.13105 0.938247 0
M  V30 7551 N 696.185 0.383891 -1.52853 0
M  V30 7552 C 697.41 1.154 -1.7233 0
M  V30 7553 C 697.835 1.82809 -0.44298 0
M  V30 7554 O 697.193 1.71026 0.601645 0
M  V30 7555 C 697.241 2.17386 -2.87708 0
M  V30 7556 O 696.345 3.24082 -2.55038 0
M  V30 7557 H 695.686 0.335709 -0.572883 0
M  V30 7558 H 698.216 0.44662 -1.99666 0
M  V30 7559 H 698.226 2.61296 -3.1335 0
M  V30 7560 H 696.901 1.6771 -3.80587 0
M  V30 7561 H 695.478 2.85273 -2.40153 0
M  V30 7562 N 697.663 1.43903 0.642637 0
M  V30 7563 C 698.626 1.49538 1.73698 0
M  V30 7564 C 699.626 0.378776 1.56275 0
M  V30 7565 O 700.816 0.64095 1.6198 0
M  V30 7566 C 697.948 1.35821 3.12675 0
M  V30 7567 H 699.141 2.47008 1.70079 0
M  V30 7568 H 696.694 1.30824 0.85526 0
M  V30 7569 H 697.429 0.393994 3.21898 0
M  V30 7570 H 697.214 2.16776 3.26727 0
M  V30 7571 H 698.704 1.4272 3.92455 0
M  V30 7572 N 699.141 -0.881989 1.30609 0
M  V30 7573 C 700.369 -1.66711 1.22536 0
M  V30 7574 C 700.784 -1.87614 -0.2113 0
M  V30 7575 O 700.141 -1.42576 -1.13923 0
M  V30 7576 C 700.192 -3.04182 1.95335 0
M  V30 7577 O 699.913 -2.8422 3.33393 0
M  V30 7578 C 701.414 -3.98617 1.93956 0
M  V30 7579 H 698.634 -0.520124 0.423925 0
M  V30 7580 H 701.178 -1.10174 1.72285 0
M  V30 7581 H 699.333 -3.57442 1.49378 0
M  V30 7582 H 699.747 -3.71452 3.70302 0
M  V30 7583 H 701.221 -4.92433 2.49426 0
M  V30 7584 H 701.698 -4.29473 0.919198 0
M  V30 7585 H 702.304 -3.51292 2.39738 0
M  V30 7586 N 700.619 -1.13374 -1.09472 0
M  V30 7587 C 701.529 -0.824029 -2.19652 0
M  V30 7588 C 702.545 0.19118 -1.72947 0
M  V30 7589 O 703.721 0.0223464 -2.01388 0
M  V30 7590 C 700.786 -0.294009 -3.45451 0
M  V30 7591 C 699.847 -1.3704 -4.0684 0
M  V30 7592 C 699.08 -0.86558 -5.26634 0
M  V30 7593 O 699.303 0.29702 -5.69626 0
M  V30 7594 O 698.237 -1.63968 -5.79136 0
M  V30 7595 H 702.063 -1.74454 -2.48595 0
M  V30 7596 H 699.648 -0.911155 -1.18399 0
M  V30 7597 H 701.53 -0.00381039 -4.214 0
M  V30 7598 H 700.205 0.598921 -3.18111 0
M  V30 7599 H 699.112 -1.71391 -3.3253 0
M  V30 7600 H 700.445 -2.23746 -4.38405 0
M  V30 7601 N 702.098 1.27442 -0.927168 0
M  V30 7602 C 703.008 2.30599 -0.431448 0
M  V30 7603 C 704.024 1.67028 0.48761 0
M  V30 7604 O 705.2 1.97962 0.370546 0
M  V30 7605 C 702.265 3.45327 0.308292 0
M  V30 7606 C 701.326 4.24418 -0.645615 0
M  V30 7607 C 700.559 5.33667 0.0589164 0
M  V30 7608 O 700.782 5.5589 1.27838 0
M  V30 7609 O 699.716 5.98774 -0.612638 0
M  V30 7610 H 703.542 2.75036 -1.28797 0
M  V30 7611 H 701.127 1.32382 -0.692495 0
M  V30 7612 H 703.009 4.15107 0.725555 0
M  V30 7613 H 701.684 3.02945 1.14043 0
M  V30 7614 H 700.591 3.57174 -1.11255 0
M  V30 7615 H 701.924 4.70512 -1.44496 0
M  V30 7616 N 703.576 0.692616 1.41565 0
M  V30 7617 C 704.804 0.231279 2.05603 0
M  V30 7618 C 705.219 -1.11837 1.52111 0
M  V30 7619 O 704.576 -1.6983 0.66813 0
M  V30 7620 C 704.627 0.177125 3.61066 0
M  V30 7621 O 704.348 1.47346 4.12578 0
M  V30 7622 C 705.849 -0.30556 4.42246 0
M  V30 7623 H 703.069 0.108238 0.662213 0
M  V30 7624 H 705.613 0.944369 1.81389 0
M  V30 7625 H 703.768 -0.486769 3.8433 0
M  V30 7626 H 704.182 1.35861 5.06599 0
M  V30 7627 H 705.656 -0.29233 5.51225 0
M  V30 7628 H 706.133 -1.34393 4.18133 0
M  V30 7629 H 706.739 0.327229 4.24039 0
M  V30 7630 N 705.054 -1.51416 0.437162 0
M  V30 7631 C 706.294 -2.03995 -0.128538 0
M  V30 7632 C 706.658 -1.31417 -1.39977 0
M  V30 7633 O 707.859 -1.74369 -2.0457 0
M  V30 7634 C 706.13 -3.55757 -0.342317 0
M  V30 7635 S 707.689 -4.3006 -0.871446 0
M  V30 7636 H 704.507 -0.710283 -0.0319322 0
M  V30 7637 H 707.109 -1.86177 0.596526 0
M  V30 7638 H 705.813 -4.06148 0.589233 0
M  V30 7639 H 705.344 -3.77869 -1.09447 0
M  V30 7640 H 707.359 -4.47248 -2.14903 0
M  V30 7641 N 706.532 -0.168513 -1.56696 0
M  V30 7642 C 707.943 0.348694 -1.83415 0
M  V30 7643 C 708.294 1.63257 -1.0882 0
M  V30 7644 O 707.419 2.13707 -0.340333 0
M  V30 7645 C 708.014 0.639423 -3.32711 0
M  V30 7646 C 706.573 1.10108 -3.59935 0
M  V30 7647 C 705.72 0.135464 -2.76969 0
M  V30 7648 H 708.671 -0.392829 -1.53761 0
M  V30 7649 H 708.692 1.49179 -3.50037 0
M  V30 7650 H 708.204 -0.295173 -3.86976 0
M  V30 7651 H 706.305 2.05088 -3.11079 0
M  V30 7652 H 706.418 1.01218 -4.68286 0
M  V30 7653 H 704.782 0.632286 -2.46727 0
M  V30 7654 H 705.565 -0.793104 -3.34013 0
M  V30 7655 N 708.01 1.57248 0.105221 0
M  V30 7656 C 709.24 1.89492 0.823175 0
M  V30 7657 C 709.648 0.75934 1.73294 0
M  V30 7658 O 708.991 -0.278182 1.81581 0
M  V30 7659 C 709.053 3.16891 1.69765 0
M  V30 7660 C 708.717 4.46787 0.960769 0
M  V30 7661 C 709.714 5.19061 0.295218 0
M  V30 7662 C 707.399 4.93467 0.937854 0
M  V30 7663 C 709.393 6.36246 -0.383393 0
M  V30 7664 C 707.08 6.10566 0.255452 0
M  V30 7665 C 708.078 6.81804 -0.404003 0
M  V30 7666 O 707.766 7.96673 -1.07549 0
M  V30 7667 H 707.498 0.631512 0.24118 0
M  V30 7668 H 710.052 2.05203 0.0899655 0
M  V30 7669 H 708.282 2.973 2.47285 0
M  V30 7670 H 709.971 3.35046 2.29126 0
M  V30 7671 H 710.737 4.84044 0.304448 0
M  V30 7672 H 706.616 4.37913 1.44058 0
M  V30 7673 H 710.16 6.91787 -0.898696 0
M  V30 7674 H 706.057 6.45039 0.244032 0
M  V30 7675 H 706.825 8.12596 -0.981355 0
M  V30 7676 N 709.488 -0.375779 1.53054 0
M  V30 7677 C 710.436 -1.48015 1.79428 0
M  V30 7678 C 711.43 -1.55893 0.662854 0
M  V30 7679 O 712.636 -1.58901 0.845599 0
M  V30 7680 H 709.011 -0.492887 0.56795 0
M  V30 7681 H 710.982 -1.22971 2.71884 0
M  V30 7682 C 709.731 -2.84984 1.99197 0
M  V30 7683 H 709.054 -2.79677 2.85693 0
M  V30 7684 H 710.494 -3.61462 2.21633 0
M  V30 7685 C 708.953 -3.28025 0.768183 0
M  V30 7686 O 709.483 -4.01671 -0.0480482 0
M  V30 7687 N 707.689 -2.84454 0.594521 0
M  V30 7688 H 707.236 -2.24688 1.25988 0
M  V30 7689 H 707.194 -3.13609 -0.222916 0
M  V30 7690 N 710.966 -1.44241 -0.634997 0
M  V30 7691 C 712.215 -1.46102 -1.39058 0
M  V30 7692 C 712.528 -0.0959909 -1.95364 0
M  V30 7693 O 713.734 0.00788751 -2.71499 0
M  V30 7694 C 712.19 -2.57195 -2.51751 0
M  V30 7695 C 711.798 -3.99888 -2.01974 0
M  V30 7696 C 713.542 -2.68272 -3.28984 0
M  V30 7697 C 711.449 -5.02412 -3.11987 0
M  V30 7698 H 710.379 -0.543556 -0.522554 0
M  V30 7699 H 713.03 -1.70294 -0.683538 0
M  V30 7700 H 711.412 -2.26237 -3.25012 0
M  V30 7701 H 712.586 -4.40396 -1.35604 0
M  V30 7702 H 710.901 -3.93019 -1.37568 0
M  V30 7703 H 713.498 -3.42042 -4.10988 0
M  V30 7704 H 713.841 -1.73957 -3.78212 0
M  V30 7705 H 714.374 -2.98622 -2.62812 0
M  V30 7706 H 711.113 -5.98342 -2.67707 0
M  V30 7707 H 710.633 -4.66501 -3.77011 0
M  V30 7708 H 712.312 -5.25939 -3.76825 0
M  V30 7709 N 712.444 0.87505 -1.31075 0
M  V30 7710 C 713.669 1.66583 -1.23551 0
M  V30 7711 C 714.094 1.87067 0.19686 0
M  V30 7712 O 713.452 1.40877 1.1412 0
M  V30 7713 C 713.5 3.01401 -1.97965 0
M  V30 7714 O 712.604 3.90923 -1.31351 0
M  V30 7715 H 711.945 0.508645 -0.426821 0
M  V30 7716 H 714.475 1.09139 -1.7306 0
M  V30 7717 H 714.485 3.51374 -2.07366 0
M  V30 7718 H 713.16 2.85812 -3.02133 0
M  V30 7719 H 711.737 3.49369 -1.30368 0
M  V30 7720 N 713.922 1.13953 1.08869 0
M  V30 7721 C 714.869 0.82213 2.15661 0
M  V30 7722 C 715.839 -0.218274 1.6466 0
M  V30 7723 O 717.024 -0.0892475 1.90591 0
M  V30 7724 C 714.164 0.300572 3.43789 0
M  V30 7725 C 713.277 1.40071 4.08661 0
M  V30 7726 C 712.412 0.836897 5.24566 0
M  V30 7727 C 711.451 1.91504 5.81371 0
M  V30 7728 N 710.588 1.36875 6.88629 0
M  V30 7729 H 715.428 1.73683 2.42153 0
M  V30 7730 H 712.965 0.866879 1.18843 0
M  V30 7731 H 714.923 -0.0199943 4.17195 0
M  V30 7732 H 713.553 -0.577248 3.17597 0
M  V30 7733 H 712.605 1.83776 3.33062 0
M  V30 7734 H 713.917 2.21534 4.46905 0
M  V30 7735 H 713.071 0.467953 6.04893 0
M  V30 7736 H 711.81 -0.00874207 4.87699 0
M  V30 7737 H 710.815 2.29299 4.99702 0
M  V30 7738 H 712.04 2.76419 6.20298 0
M  V30 7739 H 709.986 0.545211 6.5373 0
M  V30 7740 H 709.903 2.1198 7.25672 0
M  V30 7741 H 711.171 1.02756 7.72698 0
M  V30 7742 N 715.4 -1.26948 0.933913 0
M  V30 7743 C 716.35 -2.24306 0.408779 0
M  V30 7744 C 717.334 -1.53243 -0.490435 0
M  V30 7745 O 718.526 -1.73956 -0.326866 0
M  V30 7746 C 715.655 -3.41695 -0.331578 0
M  V30 7747 C 714.741 -4.20053 0.58451 0
M  V30 7748 N 715.132 -4.76122 1.70709 0
M  V30 7749 C 713.43 -4.44303 0.388703 0
M  V30 7750 C 714.131 -5.35267 2.27737 0
M  V30 7751 N 713.107 -5.20548 1.56622 0
M  V30 7752 H 716.909 -2.65244 1.26582 0
M  V30 7753 H 714.423 -1.4195 0.788919 0
M  V30 7754 H 716.42 -4.10552 -0.724774 0
M  V30 7755 H 715.08 -3.02286 -1.18547 0
M  V30 7756 H 716.091 -4.73884 2.08937 0
M  V30 7757 H 712.768 -4.15341 -0.424016 0
M  V30 7758 H 714.158 -5.89563 3.22282 0
M  V30 7759 N 716.879 -0.700114 -1.41195 0
M  V30 7760 C 718.29 -0.307249 -1.84154 0
M  V30 7761 C 718.641 1.15539 -1.58572 0
M  V30 7762 O 717.766 1.88744 -1.05852 0
M  V30 7763 C 718.361 -0.550872 -3.34292 0
M  V30 7764 C 716.92 -0.211877 -3.75803 0
M  V30 7765 C 716.067 -0.830915 -2.64558 0
M  V30 7766 H 719.018 -0.900431 -1.30683 0
M  V30 7767 H 719.039 0.188954 -3.80031 0
M  V30 7768 H 718.551 -1.61548 -3.5288 0
M  V30 7769 H 716.652 0.848283 -3.62815 0
M  V30 7770 H 716.765 -0.67007 -4.74391 0
M  V30 7771 H 715.129 -0.260155 -2.53368 0
M  V30 7772 H 715.912 -1.89948 -2.85963 0
M  V30 7773 N 718.357 1.51182 -0.445186 0
M  V30 7774 C 719.305 2.29531 0.376597 0
M  V30 7775 C 720.299 1.35711 1.01385 0
M  V30 7776 O 721.505 1.53018 0.947922 0
M  V30 7777 H 717.88 0.738803 0.140267 0
M  V30 7778 H 719.851 2.96838 -0.304958 0
M  V30 7779 C 718.6 3.1552 1.4609 0
M  V30 7780 H 717.923 3.87605 0.979912 0
M  V30 7781 H 719.363 3.73384 2.009 0
M  V30 7782 C 717.822 2.31406 2.44852 0
M  V30 7783 O 718.352 1.97912 3.49562 0
M  V30 7784 N 716.558 1.94478 2.15932 0
M  V30 7785 H 716.105 2.21917 1.30808 0
M  V30 7786 H 716.063 1.38498 2.82251 0
M  V30 7787 N 719.835 0.176821 1.56605 0
M  V30 7788 C 721.112 -0.513365 1.88743 0
M  V30 7789 C 721.492 -1.80929 1.08757 0
M  V30 7790 O 720.84 -2.27765 0.183127 0
M  V30 7791 C 721.05 -0.749925 3.40848 0
M  V30 7792 C 722.398 -1.07747 4.10701 0
M  V30 7793 O 723.422 -0.838277 3.46196 0
M  V30 7794 O 722.281 -1.52901 5.24675 0
M  V30 7795 H 719.375 -0.265296 0.783292 0
M  V30 7796 H 721.921 0.215669 1.68324 0
M  V30 7797 H 720.693 0.16599 3.90948 0
M  V30 7798 H 720.316 -1.53208 3.66897 0
M  V30 7799 N 721.313 -1.57302 -0.09688 0
M  V30 7800 C 722.246 -1.97179 -1.14872 0
M  V30 7801 C 723.224 -0.844734 -1.38935 0
M  V30 7802 O 724.408 -1.10487 -1.52725 0
M  V30 7803 C 721.535 -2.28703 -2.49826 0
M  V30 7804 C 720.581 -3.51158 -2.42054 0
M  V30 7805 S 721.414 -5.0294 -1.83879 0
M  V30 7806 C 722.57 -5.37639 -3.2046 0
M  V30 7807 H 722.803 -2.86088 -0.808771 0
M  V30 7808 H 720.336 -1.51368 -0.304492 0
M  V30 7809 H 722.294 -2.47541 -3.27466 0
M  V30 7810 H 720.955 -1.40368 -2.8099 0
M  V30 7811 H 720.148 -3.70651 -3.41517 0
M  V30 7812 H 719.75 -3.31821 -1.72543 0
M  V30 7813 H 722.042 -5.34175 -4.16729 0
M  V30 7814 H 722.985 -6.38677 -3.05773 0
M  V30 7815 H 723.393 -4.651 -3.19909 0
M  V30 7816 N 722.791 0.367657 -1.53252 0
M  V30 7817 C 723.739 1.47061 -1.8021 0
M  V30 7818 C 724.733 1.55539 -0.671112 0
M  V30 7819 O 725.939 1.58451 -0.854014 0
M  V30 7820 H 722.314 0.489868 -0.570555 0
M  V30 7821 H 724.285 1.21527 -2.72532 0
M  V30 7822 C 723.034 2.83924 -2.00706 0
M  V30 7823 H 722.357 2.78158 -2.87172 0
M  V30 7824 H 723.797 3.60281 -2.23547 0
M  V30 7825 C 722.256 3.27613 -0.785568 0
M  V30 7826 O 722.786 4.01691 0.0267459 0
M  V30 7827 N 720.992 2.84134 -0.609597 0
M  V30 7828 H 720.539 2.24017 -1.27178 0
M  V30 7829 H 720.497 3.13723 0.206281 0
M  V30 7830 N 724.269 1.44576 0.627338 0
M  V30 7831 C 725.517 1.47267 1.38408 0
M  V30 7832 C 725.838 0.107971 1.94701 0
M  V30 7833 O 725.108 -0.860206 1.76004 0
M  V30 7834 H 723.688 0.542276 0.513756 0
M  V30 7835 H 726.35 1.80383 0.738099 0
M  V30 7836 H 725.446 2.20025 2.21349 0
M  V30 7837 N 725.747 -0.868086 1.31537 0
M  V30 7838 C 726.972 -1.65926 1.24432 0
M  V30 7839 C 727.397 -1.87169 -0.186936 0
M  V30 7840 O 726.755 -1.4148 -1.13371 0
M  V30 7841 C 726.803 -3.00347 1.9956 0
M  V30 7842 O 725.907 -3.90221 1.33422 0
M  V30 7843 H 725.248 -0.506375 0.429512 0
M  V30 7844 H 727.778 -1.0822 1.73637 0
M  V30 7845 H 727.788 -3.50269 2.09226 0
M  V30 7846 H 726.463 -2.84205 3.03645 0
M  V30 7847 H 725.04 -3.48672 1.32219 0
M  V30 7848 N 727.225 -1.14528 -1.08264 0
M  V30 7849 C 728.188 -0.83632 -2.13397 0
M  V30 7850 C 729.188 0.159715 -1.60005 0
M  V30 7851 O 730.378 -0.0688098 -1.74064 0
M  V30 7852 C 727.51 -0.246973 -3.40004 0
M  V30 7853 H 728.703 -1.76808 -2.42237 0
M  V30 7854 H 726.256 -0.951509 -1.24 0
M  V30 7855 H 726.991 0.693436 -3.168 0
M  V30 7856 H 726.776 -0.964412 -3.80055 0
M  V30 7857 H 728.266 -0.0480679 -4.17572 0
M  V30 7858 N 728.703 1.26451 -0.940633 0
M  V30 7859 C 729.65 2.264 -0.448497 0
M  V30 7860 C 730.62 1.5866 0.491546 0
M  V30 7861 O 731.805 1.86389 0.407874 0
M  V30 7862 C 728.945 3.43956 0.280715 0
M  V30 7863 C 728.058 4.26374 -0.694937 0
M  V30 7864 C 727.193 5.31171 0.0554186 0
M  V30 7865 C 726.232 6.05266 -0.912091 0
M  V30 7866 N 725.369 7.01833 -0.193524 0
M  V30 7867 H 730.209 2.67869 -1.30576 0
M  V30 7868 H 727.746 1.31707 -0.655112 0
M  V30 7869 H 729.704 4.10941 0.71994 0
M  V30 7870 H 728.334 3.03403 1.10212 0
M  V30 7871 H 727.386 3.59183 -1.25267 0
M  V30 7872 H 728.698 4.77748 -1.43382 0
M  V30 7873 H 727.852 6.04166 0.553951 0
M  V30 7874 H 726.591 4.80634 0.827183 0
M  V30 7875 H 725.596 5.31099 -1.42175 0
M  V30 7876 H 726.821 6.57893 -1.68385 0
M  V30 7877 H 724.767 6.53607 0.559758 0
M  V30 7878 H 724.684 7.50957 -0.871744 0
M  V30 7879 H 725.952 7.78983 0.283932 0
M  V30 7880 N 730.181 0.707592 1.40822 0
M  V30 7881 C 731.111 0.0644925 2.33411 0
M  V30 7882 C 732.092 -0.754205 1.52466 0
M  V30 7883 O 733.277 -0.704749 1.80961 0
M  V30 7884 C 730.407 -0.863865 3.36385 0
M  V30 7885 C 729.361 -0.15138 4.27732 0
M  V30 7886 C 728.687 -1.19491 5.21177 0
M  V30 7887 C 729.987 0.989607 5.12839 0
M  V30 7888 H 731.681 0.837829 2.87438 0
M  V30 7889 H 729.227 0.404346 1.38207 0
M  V30 7890 H 731.18 -1.32309 4.0009 0
M  V30 7891 H 729.904 -1.66901 2.80734 0
M  V30 7892 H 728.563 0.287937 3.65467 0
M  V30 7893 H 728.211 -1.9929 4.61836 0
M  V30 7894 H 727.911 -0.723123 5.83134 0
M  V30 7895 H 729.435 -1.6544 5.8776 0
M  V30 7896 H 730.849 0.610114 5.70044 0
M  V30 7897 H 729.246 1.38926 5.83798 0
M  V30 7898 H 730.316 1.82389 4.49291 0
M  V30 7899 N 731.66 -1.50943 0.453197 0
M  V30 7900 C 733.076 -1.59245 0.106342 0
M  V30 7901 C 733.276 -1.46287 -1.38572 0
M  V30 7902 O 732.332 -1.31219 -2.15726 0
M  V30 7903 C 733.645 -2.93797 0.640595 0
M  V30 7904 C 735.193 -3.07148 0.602435 0
M  V30 7905 C 735.668 -4.44247 1.11393 0
M  V30 7906 N 737.159 -4.50611 1.07258 0
M  V30 7907 C 737.894 -5.55049 1.43905 0
M  V30 7908 N 737.39 -6.66828 1.87914 0
M  V30 7909 N 739.183 -5.45494 1.35621 0
M  V30 7910 H 731.334 -1.5761 1.42382 0
M  V30 7911 H 733.597 -0.74384 0.587713 0
M  V30 7912 H 733.303 -3.087 1.68515 0
M  V30 7913 H 733.177 -3.77127 0.0742272 0
M  V30 7914 H 735.564 -2.91903 -0.433171 0
M  V30 7915 H 735.645 -2.25619 1.20539 0
M  V30 7916 H 735.289 -4.60239 2.14808 0
M  V30 7917 H 735.219 -5.2434 0.487353 0
M  V30 7918 H 737.71 -3.70391 0.749585 0
M  V30 7919 H 738.023 -7.42558 2.14072 0
M  V30 7920 H 736.368 -6.67995 1.91853 0
M  V30 7921 H 739.559 -4.57053 1.01093 0
M  V30 7922 H 739.732 -6.2677 1.64508 0
M  V30 7923 N 733.138 -0.185124 -1.56509 0
M  V30 7924 C 734.048 0.751908 -2.22224 0
M  V30 7925 C 735.064 1.24244 -1.21817 0
M  V30 7926 O 736.24 1.29169 -1.54523 0
M  V30 7927 C 733.305 1.95837 -2.86092 0
M  V30 7928 C 732.366 1.51337 -4.01741 0
M  V30 7929 C 731.599 2.66233 -4.62554 0
M  V30 7930 O 731.822 3.8346 -4.22273 0
M  V30 7931 O 730.756 2.39517 -5.52191 0
M  V30 7932 H 734.582 0.222304 -3.02885 0
M  V30 7933 H 732.167 0.0437141 -1.49336 0
M  V30 7934 H 734.049 2.66368 -3.26536 0
M  V30 7935 H 732.724 2.47677 -2.08417 0
M  V30 7936 H 731.631 0.777155 -3.65939 0
M  V30 7937 H 732.964 1.04175 -4.81049 0
M  V30 7938 N 734.616 1.57351 0.0885366 0
M  V30 7939 C 735.865 1.85604 0.789556 0
M  V30 7940 C 736.178 0.775352 1.79576 0
M  V30 7941 O 737.384 0.945206 2.54515 0
M  V30 7942 C 735.84 3.29175 1.45506 0
M  V30 7943 C 735.448 4.45331 0.488278 0
M  V30 7944 C 737.192 3.66646 2.13942 0
M  V30 7945 C 735.099 5.79937 1.15874 0
M  V30 7946 H 734.029 0.692346 0.298619 0
M  V30 7947 H 736.68 1.83451 0.0425821 0
M  V30 7948 H 735.062 3.25889 2.24972 0
M  V30 7949 H 736.236 4.59977 -0.275359 0
M  V30 7950 H 734.551 4.16301 -0.0907363 0
M  V30 7951 H 737.148 4.64498 2.6485 0
M  V30 7952 H 737.491 2.956 2.93132 0
M  V30 7953 H 738.024 3.71848 1.41328 0
M  V30 7954 H 734.763 6.54232 0.407508 0
M  V30 7955 H 734.283 5.69123 1.89364 0
M  V30 7956 H 735.962 6.24718 1.68336 0
M  V30 7957 N 736.094 -0.359525 1.53444 0
M  V30 7958 C 737.042 -1.46104 1.80987 0
M  V30 7959 C 738.036 -1.55181 0.679351 0
M  V30 7960 O 739.242 -1.57995 0.862405 0
M  V30 7961 H 735.617 -0.486835 0.573145 0
M  V30 7962 H 737.588 -1.2008 2.73173 0
M  V30 7963 C 736.337 -2.82855 2.02208 0
M  V30 7964 H 735.66 -2.76631 2.88644 0
M  V30 7965 H 737.1 -3.59091 2.25455 0
M  V30 7966 C 735.559 -3.27192 0.802931 0
M  V30 7967 O 736.089 -4.017 -0.00544286 0
M  V30 7968 N 734.295 -2.83807 0.624657 0
M  V30 7969 H 733.842 -2.23339 1.28364 0
M  V30 7970 H 733.8 -3.13828 -0.189641 0
M  V30 7971 N 737.572 -1.44907 -0.619662 0
M  V30 7972 C 738.535 -1.52282 -1.71297 0
M  V30 7973 C 739.535 -0.40359 -1.55653 0
M  V30 7974 O 740.725 -0.666638 -1.6094 0
M  V30 7975 C 737.857 -1.40778 -3.10474 0
M  V30 7976 H 739.05 -2.49683 -1.66128 0
M  V30 7977 H 736.603 -1.32168 -0.834339 0
M  V30 7978 H 737.338 -0.445156 -3.2123 0
M  V30 7979 H 737.123 -2.21947 -3.23237 0
M  V30 7980 H 738.613 -1.48946 -3.90135 0
M  V30 7981 N 739.05 0.861098 -1.31996 0
M  V30 7982 C 740.299 1.60965 -1.21545 0
M  V30 7983 C 740.612 1.94325 0.222972 0
M  V30 7984 O 741.818 2.67757 0.449272 0
M  V30 7985 C 740.274 2.90223 -2.12834 0
M  V30 7986 C 739.882 2.64313 -3.61722 0
M  V30 7987 C 741.626 3.68229 -2.11205 0
M  V30 7988 C 739.533 3.89532 -4.44993 0
M  V30 7989 H 738.463 0.603988 -0.451348 0
M  V30 7990 H 741.114 0.951358 -1.56912 0
M  V30 7991 H 739.496 3.57475 -1.70375 0
M  V30 7992 H 740.67 2.05413 -4.12483 0
M  V30 7993 H 738.985 1.99647 -3.65418 0
M  V30 7994 H 741.582 4.61138 -2.70658 0
M  V30 7995 H 741.925 4.01466 -1.1014 0
M  V30 7996 H 742.458 3.07873 -2.51911 0
M  V30 7997 H 739.197 3.61441 -5.46846 0
M  V30 7998 H 738.717 4.47851 -3.98985 0
M  V30 7999 H 740.396 4.57334 -4.57663 0
M  V30 8000 N 740.528 1.15101 1.07655 0
M  V30 8001 C 741.775 0.923974 1.80191 0
M  V30 8002 C 742.103 -0.549065 1.86589 0
M  V30 8003 O 741.358 -1.42307 1.3434 0
M  V30 8004 C 741.657 1.47954 3.25337 0
M  V30 8005 C 741.323 2.97253 3.39044 0
M  V30 8006 C 739.985 3.38012 3.42493 0
M  V30 8007 C 742.337 3.93219 3.42094 0
M  V30 8008 C 739.665 4.73384 3.4659 0
M  V30 8009 C 742.017 5.28458 3.47728 0
M  V30 8010 C 740.681 5.68717 3.49453 0
M  V30 8011 H 739.951 0.338106 0.659367 0
M  V30 8012 H 742.598 1.43594 1.26701 0
M  V30 8013 H 740.903 0.888691 3.81588 0
M  V30 8014 H 742.6 1.27972 3.80032 0
M  V30 8015 H 739.19 2.64746 3.37057 0
M  V30 8016 H 743.374 3.62805 3.38654 0
M  V30 8017 H 738.63 5.03925 3.46222 0
M  V30 8018 H 742.804 6.02618 3.49034 0
M  V30 8019 H 740.431 6.73596 3.5238 0
M  V30 8020 N 742.006 -1.2595 0.947325 0
M  V30 8021 C 742.954 -2.28152 0.452687 0
M  V30 8022 C 743.948 -1.62655 -0.473239 0
M  V30 8023 O 745.154 -1.76549 -0.350774 0
M  V30 8024 H 741.529 -0.741049 0.12787 0
M  V30 8025 H 743.5 -2.67267 1.32707 0
M  V30 8026 C 742.249 -3.46719 -0.26098 0
M  V30 8027 H 741.572 -3.97345 0.442352 0
M  V30 8028 H 743.012 -4.20135 -0.571208 0
M  V30 8029 C 741.471 -3.02605 -1.48094 0
M  V30 8030 O 742.001 -3.07979 -2.57899 0
M  V30 8031 N 740.207 -2.57877 -1.33969 0
M  V30 8032 H 739.754 -2.53704 -0.446295 0
M  V30 8033 H 739.712 -2.28725 -2.15713 0
M  V30 8034 N 743.484 -0.715051 -1.40445 0
M  V30 8035 C 744.709 -0.26254 -2.05732 0
M  V30 8036 C 745.134 1.08691 -1.53519 0
M  V30 8037 O 744.492 1.68453 -0.670328 0
M  V30 8038 C 744.54 -0.25195 -3.59719 0
M  V30 8039 O 743.644 0.766998 -4.05205 0
M  V30 8040 H 742.985 -0.123398 -0.652433 0
M  V30 8041 H 745.515 -0.975382 -1.79854 0
M  V30 8042 H 745.525 -0.0894537 -4.07902 0
M  V30 8043 H 744.2 -1.23672 -3.97087 0
M  V30 8044 H 742.777 0.572269 -3.68483 0
M  V30 8045 N 744.962 1.50701 -0.461195 0
M  V30 8046 C 745.91 2.29918 0.352231 0
M  V30 8047 C 746.904 1.36778 0.999403 0
M  V30 8048 O 748.11 1.54015 0.931639 0
M  V30 8049 H 744.485 0.740249 0.132423 0
M  V30 8050 H 746.456 2.96497 -0.336424 0
M  V30 8051 C 745.205 3.17052 1.42736 0
M  V30 8052 H 744.528 3.88623 0.938747 0
M  V30 8053 H 745.968 3.75493 1.96928 0
M  V30 8054 C 744.427 2.3399 2.42384 0
M  V30 8055 O 744.957 2.01608 3.47444 0
M  V30 8056 N 743.163 1.96758 2.13857 0
M  V30 8057 H 742.71 2.23292 1.28447 0
M  V30 8058 H 742.668 1.41484 2.80766 0
M  V30 8059 N 746.441 0.193421 1.56409 0
M  V30 8060 C 747.389 -0.744829 2.20352 0
M  V30 8061 C 748.383 -1.22104 1.17418 0
M  V30 8062 O 749.589 -1.18413 1.35567 0
M  V30 8063 H 745.964 -0.258538 0.70616 0
M  V30 8064 H 747.935 -0.181794 2.97846 0
M  V30 8065 C 746.684 -1.95453 2.87565 0
M  V30 8066 H 746.007 -1.59716 3.66512 0
M  V30 8067 H 747.447 -2.58942 3.35745 0
M  V30 8068 C 745.906 -2.79223 1.8851 0
M  V30 8069 O 746.436 -3.77093 1.38434 0
M  V30 8070 N 744.642 -2.44682 1.56777 0
M  V30 8071 H 744.189 -1.65153 1.97692 0
M  V30 8072 H 744.147 -3.01016 0.907573 0
M  V30 8073 N 747.919 -1.57396 -0.0801906 0
M  V30 8074 C 748.867 -2.04136 -1.11495 0
M  V30 8075 C 749.861 -0.945137 -1.40583 0
M  V30 8076 O 751.067 -1.13028 -1.40088 0
M  V30 8077 H 747.442 -0.65076 -0.37685 0
M  V30 8078 H 749.413 -2.90205 -0.694526 0
M  V30 8079 C 748.162 -2.49399 -2.42272 0
M  V30 8080 H 747.485 -3.33339 -2.20737 0
M  V30 8081 H 748.925 -2.85864 -3.13142 0
M  V30 8082 C 747.384 -1.37341 -3.07635 0
M  V30 8083 O 747.914 -0.710829 -3.95361 0
M  V30 8084 N 746.12 -1.12064 -2.68123 0
M  V30 8085 H 745.667 -1.66126 -1.96875 0
M  V30 8086 H 745.625 -0.372916 -3.12181 0
M  V30 8087 N 749.397 0.351382 -1.53633 0
M  V30 8088 C 750.33 1.45407 -1.75875 0
M  V30 8089 C 751.308 1.50822 -0.607566 0
M  V30 8090 O 752.492 1.68658 -0.841818 0
M  V30 8091 C 749.619 2.8369 -1.85034 0
M  V30 8092 C 748.665 2.95935 -3.07123 0
M  V30 8093 S 749.498 2.63215 -4.66345 0
M  V30 8094 C 750.654 4.03622 -4.78373 0
M  V30 8095 H 750.887 1.26322 -2.69128 0
M  V30 8096 H 748.42 0.546581 -1.44402 0
M  V30 8097 H 750.378 3.6336 -1.90996 0
M  V30 8098 H 749.039 3.00076 -0.928074 0
M  V30 8099 H 748.232 3.97243 -3.10183 0
M  V30 8100 H 747.834 2.24205 -2.99346 0
M  V30 8101 H 750.126 4.98046 -4.593 0
M  V30 8102 H 751.069 4.05559 -5.80454 0
M  V30 8103 H 751.477 3.91282 -4.06889 0
M  V30 8104 N 750.875 1.45233 0.611969 0
M  V30 8105 C 752.1 1.52767 1.40274 0
M  V30 8106 C 752.525 0.159701 1.87421 0
M  V30 8107 O 751.883 -0.854837 1.59882 0
M  V30 8108 C 751.931 2.51286 2.58626 0
M  V30 8109 O 751.035 2.02764 3.59111 0
M  V30 8110 H 750.376 0.515141 0.418958 0
M  V30 8111 H 752.906 1.90547 0.745188 0
M  V30 8112 H 752.916 2.69949 3.05927 0
M  V30 8113 H 751.591 3.50641 2.23659 0
M  V30 8114 H 750.168 1.93957 3.18489 0
M  V30 8115 N 752.353 -0.854086 1.3245 0
M  V30 8116 C 753.581 -1.64074 1.26045 0
M  V30 8117 C 753.996 -1.8802 -0.171456 0
M  V30 8118 O 753.353 -1.4496 -1.10873 0
M  V30 8119 C 753.404 -2.9997 2.01743 0
M  V30 8120 O 753.125 -2.77084 3.39346 0
M  V30 8121 C 754.626 -3.94414 2.02368 0
M  V30 8122 H 751.846 -0.511015 0.434862 0
M  V30 8123 H 754.39 -1.06494 1.74583 0
M  V30 8124 H 752.545 -3.54193 1.56926 0
M  V30 8125 H 752.959 -3.63514 3.78098 0
M  V30 8126 H 754.433 -4.87032 2.59815 0
M  V30 8127 H 754.91 -4.27427 1.01009 0
M  V30 8128 H 755.516 -3.46127 2.47135 0
M  V30 8129 N 753.831 -1.1567 -1.07043 0
M  V30 8130 C 755.061 -0.956083 -1.83146 0
M  V30 8131 C 755.469 0.498969 -1.82502 0
M  V30 8132 O 754.812 1.35791 -1.23719 0
M  V30 8133 C 754.874 -1.39704 -3.31245 0
M  V30 8134 C 754.538 -2.87045 -3.55604 0
M  V30 8135 C 755.535 -3.85092 -3.49285 0
M  V30 8136 C 753.22 -3.24787 -3.8317 0
M  V30 8137 C 755.214 -5.18885 -3.70185 0
M  V30 8138 C 752.901 -4.58751 -4.03721 0
M  V30 8139 C 753.899 -5.55609 -3.97224 0
M  V30 8140 O 753.587 -6.87154 -4.17223 0
M  V30 8141 H 753.319 -0.339473 -0.58458 0
M  V30 8142 H 755.873 -1.53922 -1.36005 0
M  V30 8143 H 754.103 -0.757326 -3.79212 0
M  V30 8144 H 755.792 -1.16503 -3.88821 0
M  V30 8145 H 756.558 -3.5728 -3.27988 0
M  V30 8146 H 752.437 -2.49979 -3.87339 0
M  V30 8147 H 755.981 -5.94473 -3.6503 0
M  V30 8148 H 751.878 -4.86277 -4.24505 0
M  V30 8149 H 752.646 -6.93618 -4.34553 0
M  V30 8150 N 755.309 1.25446 -0.953992 0
M  V30 8151 C 756.257 2.27909 -0.46478 0
M  V30 8152 C 757.251 1.62904 0.464607 0
M  V30 8153 O 758.457 1.76733 0.341407 0
M  V30 8154 H 754.832 0.74036 -0.131798 0
M  V30 8155 H 756.803 2.66559 -1.34122 0
M  V30 8156 C 755.552 3.46853 0.242589 0
M  V30 8157 H 754.875 3.97105 -0.463418 0
M  V30 8158 H 756.315 4.20432 0.548919 0
M  V30 8159 C 754.774 3.03386 1.46487 0
M  V30 8160 O 755.304 3.09342 2.56262 0
M  V30 8161 N 753.51 2.58584 1.32599 0
M  V30 8162 H 753.057 2.53938 0.432834 0
M  V30 8163 H 753.015 2.29866 2.14497 0
M  V30 8164 N 756.787 0.722489 1.40064 0
M  V30 8165 C 757.735 0.063329 2.32514 0
M  V30 8166 C 758.729 -0.73953 1.52405 0
M  V30 8167 O 759.935 -0.642122 1.68157 0
M  V30 8168 H 756.31 0.00167692 0.751998 0
M  V30 8169 H 758.281 0.859656 2.85749 0
M  V30 8170 C 757.03 -0.839219 3.3742 0
M  V30 8171 H 756.353 -0.230836 3.99133 0
M  V30 8172 H 757.793 -1.26827 4.04587 0
M  V30 8173 C 756.252 -1.96783 2.73456 0
M  V30 8174 O 756.782 -3.05933 2.60323 0
M  V30 8175 N 754.988 -1.75351 2.31734 0
M  V30 8176 H 754.535 -0.865787 2.42615 0
M  V30 8177 H 754.493 -2.51043 1.89275 0
M  V30 8178 N 758.265 -1.50454 0.469181 0
M  V30 8179 C 759.514 -2.01507 -0.0881425 0
M  V30 8180 C 759.827 -1.35613 -1.40956 0
M  V30 8181 O 761.033 -1.77812 -2.05171 0
M  V30 8182 C 759.489 -3.59301 -0.207596 0
M  V30 8183 C 759.097 -4.34152 1.10527 0
M  V30 8184 C 760.841 -4.18401 -0.716981 0
M  V30 8185 C 758.748 -5.83725 0.949717 0
M  V30 8186 H 757.678 -0.753106 -0.0367156 0
M  V30 8187 H 760.329 -1.73282 0.603788 0
M  V30 8188 H 758.711 -3.84106 -0.963265 0
M  V30 8189 H 759.885 -4.21073 1.87175 0
M  V30 8190 H 758.2 -3.86652 1.54562 0
M  V30 8191 H 760.797 -5.27895 -0.850363 0
M  V30 8192 H 761.14 -3.79657 -1.70782 0
M  V30 8193 H 761.673 -3.97796 -0.0187511 0
M  V30 8194 H 758.412 -6.26938 1.91387 0
M  V30 8195 H 757.932 -5.99383 0.223591 0
M  V30 8196 H 759.611 -6.44065 0.61557 0
M  V30 8197 N 759.743 -0.201713 -1.56304 0
M  V30 8198 C 760.691 0.733133 -2.20744 0
M  V30 8199 C 761.685 1.2148 -1.18064 0
M  V30 8200 O 762.891 1.17692 -1.36193 0
M  V30 8201 H 759.266 0.254789 -0.707521 0
M  V30 8202 H 761.237 0.165996 -2.97938 0
M  V30 8203 C 759.986 1.93925 -2.88597 0
M  V30 8204 H 759.309 1.5777 -3.67353 0
M  V30 8205 H 760.749 2.57158 -3.37114 0
M  V30 8206 C 759.208 2.78219 -1.89989 0
M  V30 8207 O 759.738 3.76353 -1.40432 0
M  V30 8208 N 757.944 2.43847 -1.58072 0
M  V30 8209 H 757.491 1.64103 -1.98565 0
M  V30 8210 H 757.449 3.0053 -0.923524 0
M  V30 8211 N 761.222 1.57436 0.0718424 0
M  V30 8212 C 762.17 2.04725 1.10411 0
M  V30 8213 C 763.164 0.952579 1.4008 0
M  V30 8214 O 764.37 1.13769 1.39487 0
M  V30 8215 H 760.745 0.652749 0.373393 0
M  V30 8216 H 762.716 2.90569 0.679126 0
M  V30 8217 C 761.465 2.5068 2.40946 0
M  V30 8218 H 760.788 3.34505 2.18967 0
M  V30 8219 H 762.228 2.87521 3.11621 0
M  V30 8220 C 760.687 1.38971 3.06902 0
M  V30 8221 O 761.217 0.731786 3.94978 0
M  V30 8222 N 759.423 1.13485 2.67525 0
M  V30 8223 H 758.97 1.67168 1.95991 0
M  V30 8224 H 758.928 0.389467 3.11978 0
M  V30 8225 N 762.7 -0.34323 1.53817 0
M  V30 8226 C 763.977 -1.10047 1.61706 0
M  V30 8227 C 764.357 -2.06495 0.438514 0
M  V30 8228 O 763.705 -2.21297 -0.569188 0
M  V30 8229 C 763.915 -1.81985 2.97796 0
M  V30 8230 C 765.263 -2.35717 3.53161 0
M  V30 8231 O 766.287 -1.9208 2.99973 0
M  V30 8232 O 765.146 -3.15551 4.46195 0
M  V30 8233 H 762.24 -0.506096 0.654061 0
M  V30 8234 H 764.786 -0.344697 1.66162 0
M  V30 8235 H 763.558 -1.11722 3.75012 0
M  V30 8236 H 763.181 -2.64419 2.96931 0
M  V30 8237 N 764.178 -1.45556 -0.604258 0
M  V30 8238 C 765.128 -1.50906 -1.70913 0
M  V30 8239 C 766.112 -0.371996 -1.56541 0
M  V30 8240 O 767.304 -0.619064 -1.65821 0
M  V30 8241 C 764.433 -1.48181 -3.09673 0
M  V30 8242 C 763.519 -2.67102 -3.2942 0
M  V30 8243 N 763.91 -3.92184 -3.19414 0
M  V30 8244 C 762.208 -2.6287 -3.60299 0
M  V30 8245 C 762.909 -4.71571 -3.40581 0
M  V30 8246 N 761.885 -4.03081 -3.64728 0
M  V30 8247 H 765.687 -2.45435 -1.61675 0
M  V30 8248 H 763.201 -1.40894 -0.807622 0
M  V30 8249 H 765.198 -1.501 -3.88942 0
M  V30 8250 H 763.858 -0.54712 -3.20057 0
M  V30 8251 H 764.869 -4.23756 -2.97743 0
M  V30 8252 H 761.546 -1.78324 -3.77501 0
M  V30 8253 H 762.936 -5.80571 -3.38211 0
M  V30 8254 N 765.656 0.84705 -1.32902 0
M  V30 8255 C 766.606 1.94451 -1.19049 0
M  V30 8256 C 767.59 1.60617 -0.095461 0
M  V30 8257 O 768.782 1.74033 -0.322739 0
M  V30 8258 C 765.911 3.30645 -0.923509 0
M  V30 8259 C 764.997 3.70675 -2.0606 0
M  V30 8260 N 765.388 3.82468 -3.30986 0
M  V30 8261 C 763.686 4.00357 -1.96547 0
M  V30 8262 C 764.387 4.17056 -4.05511 0
M  V30 8263 N 763.363 4.28985 -3.33876 0
M  V30 8264 H 767.165 2.01713 -2.1375 0
M  V30 8265 H 764.679 1.03928 -1.24791 0
M  V30 8266 H 766.676 4.0905 -0.805212 0
M  V30 8267 H 765.336 3.24697 0.0150523 0
M  V30 8268 H 766.347 3.66589 -3.65832 0
M  V30 8269 H 763.024 4.02666 -1.10299 0
M  V30 8270 H 764.414 4.33585 -5.13277 0
M  V30 8271 N 767.134 1.16236 1.06428 0
M  V30 8272 C 768.066 0.825446 2.1382 0
M  V30 8273 C 769.079 -0.166707 1.61944 0
M  V30 8274 O 770.268 0.0578606 1.78406 0
M  V30 8275 C 767.368 0.208023 3.38261 0
M  V30 8276 C 766.541 1.23994 4.19457 0
M  V30 8277 C 765.6 0.642569 5.22262 0
M  V30 8278 O 764.626 1.31106 5.53895 0
M  V30 8279 N 765.828 -0.571327 5.77682 0
M  V30 8280 H 768.593 1.7497 2.43322 0
M  V30 8281 H 766.154 1.05951 1.22417 0
M  V30 8282 H 768.146 -0.204608 4.04182 0
M  V30 8283 H 766.716 -0.619752 3.06395 0
M  V30 8284 H 765.936 1.82879 3.49212 0
M  V30 8285 H 767.224 1.93638 4.70512 0
M  V30 8286 H 766.622 -1.13263 5.54245 0
M  V30 8287 H 765.179 -0.926187 6.45186 0
M  V30 8288 N 768.612 -1.24939 0.960631 0
M  V30 8289 C 769.542 -2.28 0.503815 0
M  V30 8290 C 770.523 -1.63959 -0.452928 0
M  V30 8291 O 771.708 -1.91009 -0.350585 0
M  V30 8292 C 768.838 -3.46643 -0.213535 0
M  V30 8293 C 767.792 -4.22903 0.658535 0
M  V30 8294 C 767.118 -5.34363 -0.189902 0
M  V30 8295 C 768.418 -4.84949 1.93963 0
M  V30 8296 H 770.112 -2.66462 1.36521 0
M  V30 8297 H 767.658 -1.28093 0.657897 0
M  V30 8298 H 769.611 -4.1787 -0.544286 0
M  V30 8299 H 768.335 -3.07187 -1.10923 0
M  V30 8300 H 766.994 -3.53467 0.972455 0
M  V30 8301 H 766.642 -4.91147 -1.08553 0
M  V30 8302 H 766.342 -5.86302 0.390331 0
M  V30 8303 H 767.866 -6.0842 -0.515484 0
M  V30 8304 H 769.28 -5.48288 1.67491 0
M  V30 8305 H 767.677 -5.47091 2.46601 0
M  V30 8306 H 768.747 -4.06799 2.639 0
M  V30 8307 N 770.09 -0.729906 -1.39679 0
M  V30 8308 C 771.338 -0.275077 -2.00219 0
M  V30 8309 C 771.659 1.1401 -1.58199 0
M  V30 8310 O 770.929 1.77546 -0.827904 0
M  V30 8311 H 769.509 -0.0987127 -0.740449 0
M  V30 8312 H 772.171 -0.93873 -1.70804 0
M  V30 8313 H 771.267 -0.319446 -3.10461 0
M  V30 8314 N 771.568 1.50203 -0.477153 0
M  V30 8315 C 772.814 2.02658 0.0758507 0
M  V30 8316 C 773.147 1.358 1.38824 0
M  V30 8317 O 772.422 0.485696 1.88338 0
M  V30 8318 C 772.705 3.59208 0.253339 0
M  V30 8319 C 772.558 4.36629 -1.0805 0
M  V30 8320 C 773.877 4.28469 1.00509 0
M  V30 8321 H 770.996 0.736538 0.0260921 0
M  V30 8322 H 773.638 1.79464 -0.623925 0
M  V30 8323 H 771.788 3.79101 0.849378 0
M  V30 8324 H 773.46 4.28292 -1.71358 0
M  V30 8325 H 771.703 4.0013 -1.67566 0
M  V30 8326 H 772.374 5.44449 -0.909883 0
M  V30 8327 H 774.85 4.13087 0.499818 0
M  V30 8328 H 773.726 5.37804 1.09808 0
M  V30 8329 H 773.987 3.92057 2.04314 0
M  V30 8330 N 773.046 0.209999 1.56195 0
M  V30 8331 C 774.276 -0.429373 2.02089 0
M  V30 8332 C 774.684 -1.54703 1.0892 0
M  V30 8333 O 774.027 -1.83485 0.0889535 0
M  V30 8334 C 774.089 -1.03266 3.44349 0
M  V30 8335 C 773.753 -0.0518873 4.56971 0
M  V30 8336 C 774.75 0.744249 5.14545 0
M  V30 8337 C 772.435 0.0635185 5.0226 0
M  V30 8338 C 774.429 1.64261 6.15871 0
M  V30 8339 C 772.116 0.965423 6.03426 0
M  V30 8340 C 773.114 1.75352 6.60106 0
M  V30 8341 O 772.802 2.64029 7.59305 0
M  V30 8342 H 772.534 -0.110604 0.66689 0
M  V30 8343 H 775.088 0.320436 2.02885 0
M  V30 8344 H 773.318 -1.83134 3.40586 0
M  V30 8345 H 775.007 -1.57823 3.73961 0
M  V30 8346 H 775.773 0.665476 4.80413 0
M  V30 8347 H 771.652 -0.539762 4.57829 0
M  V30 8348 H 775.196 2.25819 6.60039 0
M  V30 8349 H 771.093 1.04526 6.36981 0
M  V30 8350 H 771.861 2.57974 7.76783 0
M  V30 8351 N 774.524 -1.57472 -0.0634922 0
M  V30 8352 C 775.487 -2.03268 -1.059 0
M  V30 8353 C 776.487 -0.931028 -1.31105 0
M  V30 8354 O 777.677 -1.19567 -1.26686 0
M  V30 8355 C 774.809 -2.42039 -2.40062 0
M  V30 8356 H 776.002 -2.92454 -0.664119 0
M  V30 8357 H 773.555 -1.53206 -0.309444 0
M  V30 8358 H 774.29 -1.55904 -2.84367 0
M  V30 8359 H 774.075 -3.22437 -2.23108 0
M  V30 8360 H 775.565 -2.78017 -3.11603 0
M  V30 8361 N 776.003 0.335068 -1.53997 0
M  V30 8362 C 776.951 1.43206 -1.83289 0
M  V30 8363 C 777.945 1.54081 -0.703953 0
M  V30 8364 O 779.151 1.56603 -0.887432 0
M  V30 8365 H 775.526 0.477655 -0.580818 0
M  V30 8366 H 777.497 1.15719 -2.75049 0
M  V30 8367 C 776.246 2.79602 -2.06683 0
M  V30 8368 H 775.569 2.72004 -2.93008 0
M  V30 8369 H 777.009 3.55459 -2.31139 0
M  V30 8370 C 775.468 3.25873 -0.854883 0
M  V30 8371 O 775.998 4.01657 -0.0584648 0
M  V30 8372 N 774.204 2.82777 -0.669729 0
M  V30 8373 H 773.751 2.21269 -1.31901 0
M  V30 8374 H 773.709 3.1409 0.13969 0
M  V30 8375 N 777.481 1.45874 0.596531 0
M  V30 8376 C 778.709 1.54013 1.38158 0
M  V30 8377 C 779.124 0.17648 1.87973 0
M  V30 8378 O 778.481 -0.823895 1.62844 0
M  V30 8379 C 778.532 2.53363 2.57855 0
M  V30 8380 O 778.253 3.8443 2.10108 0
M  V30 8381 C 779.754 2.71308 3.50581 0
M  V30 8382 H 776.974 0.521251 0.422538 0
M  V30 8383 H 779.518 1.9116 0.726493 0
M  V30 8384 H 777.673 2.19257 3.19382 0
M  V30 8385 H 778.087 4.38384 2.87958 0
M  V30 8386 H 779.561 3.44776 4.31084 0
M  V30 8387 H 780.038 1.77728 4.01633 0
M  V30 8388 H 780.644 3.06455 2.94899 0
M  V30 8389 N 778.959 -0.83999 1.33349 0
M  V30 8390 C 779.922 -1.93128 1.23426 0
M  V30 8391 C 780.922 -1.60065 0.153599 0
M  V30 8392 O 782.112 -1.69425 0.405049 0
M  V30 8393 C 779.244 -3.28761 0.901622 0
M  V30 8394 H 780.437 -2.03352 2.20427 0
M  V30 8395 H 777.99 -1.03194 1.17391 0
M  V30 8396 H 778.725 -3.24233 -0.0659337 0
M  V30 8397 H 778.51 -3.54138 1.68311 0
M  V30 8398 H 780 -4.08714 0.856913 0
M  V30 8399 N 780.437 -1.16799 -1.0581 0
M  V30 8400 C 781.662 -0.977402 -1.82925 0
M  V30 8401 C 782.087 0.469514 -1.82146 0
M  V30 8402 O 781.445 1.33576 -1.22585 0
M  V30 8403 C 781.493 -1.51543 -3.27211 0
M  V30 8404 O 780.597 -0.725021 -4.05977 0
M  V30 8405 H 779.938 -0.347474 -0.565825 0
M  V30 8406 H 782.468 -1.55151 -1.33376 0
M  V30 8407 H 782.478 -1.53502 -3.78023 0
M  V30 8408 H 781.153 -2.56872 -3.27093 0
M  V30 8409 H 779.73 -0.77634 -3.64729 0
M  V30 8410 N 781.915 1.24427 -0.967243 0
M  V30 8411 C 783.14 1.9708 -0.646069 0
M  V30 8412 C 783.565 1.71272 0.777665 0
M  V30 8413 O 782.923 0.976179 1.52776 0
M  V30 8414 C 782.971 3.48501 -0.926266 0
M  V30 8415 O 782.075 4.12398 -0.0114653 0
M  V30 8416 H 781.416 0.617423 -0.244304 0
M  V30 8417 H 783.946 1.58215 -1.29727 0
M  V30 8418 H 783.956 3.98885 -0.857619 0
M  V30 8419 H 782.631 3.66613 -1.96386 0
M  V30 8420 H 781.208 3.72661 -0.133396 0
M  V30 8421 N 783.393 0.737304 1.3929 0
M  V30 8422 C 784.325 0.0592106 2.29124 0
M  V30 8423 C 785.338 -0.701026 1.46934 0
M  V30 8424 O 786.527 -0.544808 1.69983 0
M  V30 8425 C 783.627 -0.940358 3.25592 0
M  V30 8426 C 782.8 -0.241163 4.36735 0
M  V30 8427 C 781.859 -1.14916 5.13498 0
M  V30 8428 O 780.885 -0.625783 5.6575 0
M  V30 8429 N 782.087 -2.47869 5.2492 0
M  V30 8430 H 784.852 0.830647 2.87959 0
M  V30 8431 H 782.413 0.586718 1.50895 0
M  V30 8432 H 784.405 -1.55046 3.73822 0
M  V30 8433 H 782.975 -1.61299 2.67771 0
M  V30 8434 H 782.195 0.549441 3.90352 0
M  V30 8435 H 783.483 0.243299 5.08218 0
M  V30 8436 H 782.881 -2.92864 4.83991 0
M  V30 8437 H 781.438 -3.03969 5.76581 0
M  V30 8438 N 784.871 -1.49948 0.485112 0
M  V30 8439 C 785.781 -2.32587 -0.306697 0
M  V30 8440 C 786.797 -1.43598 -0.982632 0
M  V30 8441 O 787.973 -1.76638 -0.967519 0
M  V30 8442 C 785.038 -3.18638 -1.3664 0
M  V30 8443 C 784.099 -4.23462 -0.705589 0
M  V30 8444 C 783.332 -5.05401 -1.7148 0
M  V30 8445 O 783.555 -4.88618 -2.94293 0
M  V30 8446 O 782.489 -5.88157 -1.27889 0
M  V30 8447 H 786.315 -3.01447 0.369272 0
M  V30 8448 H 783.9 -1.47349 0.246709 0
M  V30 8449 H 785.782 -3.71992 -1.9799 0
M  V30 8450 H 784.457 -2.52491 -2.02559 0
M  V30 8451 H 783.364 -3.74063 -0.0527733 0
M  V30 8452 H 784.697 -4.92119 -0.0891187 0
M  V30 8453 N 786.349 -0.21828 -1.56081 0
M  V30 8454 C 787.281 0.725447 -2.17416 0
M  V30 8455 C 788.294 1.15995 -1.14233 0
M  V30 8456 O 789.483 1.09166 -1.41227 0
M  V30 8457 C 786.583 1.99401 -2.7403 0
M  V30 8458 C 785.756 1.7156 -4.02351 0
M  V30 8459 C 784.815 2.8309 -4.43561 0
M  V30 8460 O 783.841 2.51701 -5.10525 0
M  V30 8461 N 785.043 4.11972 -4.08973 0
M  V30 8462 H 787.808 0.200801 -2.99027 0
M  V30 8463 H 785.369 -0.0371514 -1.61857 0
M  V30 8464 H 787.361 2.73198 -2.98571 0
M  V30 8465 H 785.931 2.42923 -1.96742 0
M  V30 8466 H 785.151 0.814233 -3.85699 0
M  V30 8467 H 786.439 1.50385 -4.86068 0
M  V30 8468 H 785.837 4.40319 -3.55156 0
M  V30 8469 H 784.394 4.82323 -4.38415 0
M  V30 8470 N 787.827 1.57504 0.0551401 0
M  V30 8471 C 788.777 2.0128 1.071 0
M  V30 8472 C 789.761 0.897592 1.33537 0
M  V30 8473 O 790.953 1.16151 1.33558 0
M  V30 8474 C 788.082 2.47414 2.37994 0
M  V30 8475 C 787.168 3.65703 2.14761 0
M  V30 8476 N 787.559 4.79323 1.61504 0
M  V30 8477 C 785.857 3.72574 2.45162 0
M  V30 8478 C 786.558 5.61089 1.53472 0
M  V30 8479 N 785.534 5.05426 2.00114 0
M  V30 8480 H 789.336 2.86558 0.652829 0
M  V30 8481 H 786.85 1.60274 0.26193 0
M  V30 8482 H 788.847 2.77023 3.11551 0
M  V30 8483 H 787.507 1.6353 2.80514 0
M  V30 8484 H 788.518 5.01284 1.30134 0
M  V30 8485 H 785.195 2.99439 2.90934 0
M  V30 8486 H 786.585 6.62328 1.13008 0
M  V30 8487 N 789.305 -0.326896 1.54172 0
M  V30 8488 C 790.553 -1.06313 1.71878 0
M  V30 8489 C 790.874 -1.88652 0.493498 0
M  V30 8490 O 790.144 -1.89608 -0.492522 0
M  V30 8491 H 788.724 -0.39549 0.633716 0
M  V30 8492 H 791.386 -0.364139 1.91468 0
M  V30 8493 H 790.482 -1.73105 2.59694 0
M  V30 8494 N 790.784 -1.46188 -0.588786 0
M  V30 8495 C 792.033 -1.50452 -1.34339 0
M  V30 8496 C 792.346 -0.158096 -1.9496 0
M  V30 8497 O 793.552 -0.0784918 -2.71387 0
M  V30 8498 C 792.008 -2.65074 -2.43441 0
M  V30 8499 C 791.616 -4.06111 -1.8915 0
M  V30 8500 C 793.36 -2.78603 -3.20282 0
M  V30 8501 C 791.267 -5.12084 -2.95845 0
M  V30 8502 H 790.197 -0.559905 -0.504997 0
M  V30 8503 H 792.848 -1.72382 -0.629014 0
M  V30 8504 H 791.23 -2.36462 -3.1765 0
M  V30 8505 H 792.404 -4.44487 -1.21524 0
M  V30 8506 H 790.719 -3.97197 -1.24995 0
M  V30 8507 H 793.316 -3.54944 -3.99898 0
M  V30 8508 H 793.659 -1.85902 -3.72486 0
M  V30 8509 H 794.192 -3.06832 -2.53178 0
M  V30 8510 H 790.931 -6.06556 -2.48535 0
M  V30 8511 H 790.451 -4.78259 -3.61979 0
M  V30 8512 H 792.13 -5.37661 -3.59902 0
M  V30 8513 N 792.262 0.832906 -1.33792 0
M  V30 8514 C 793.487 1.62568 -1.28788 0
M  V30 8515 C 793.912 1.87599 0.137246 0
M  V30 8516 O 793.27 1.44436 1.0958 0
M  V30 8517 C 793.318 2.9495 -2.07453 0
M  V30 8518 O 792.422 3.86546 -1.43722 0
M  V30 8519 H 791.763 0.494809 -0.442787 0
M  V30 8520 H 794.293 1.03578 -1.76445 0
M  V30 8521 H 794.303 3.44599 -2.1844 0
M  V30 8522 H 792.978 2.76055 -3.11073 0
M  V30 8523 H 791.555 3.45044 -1.41417 0
M  V30 8524 N 793.74 1.17359 1.05189 0
M  V30 8525 C 794.65 0.904984 2.16442 0
M  V30 8526 C 795.666 -0.12686 1.73537 0
M  V30 8527 O 796.842 0.0524127 2.01332 0
M  V30 8528 C 793.907 0.422019 3.44122 0
M  V30 8529 C 792.968 1.52045 4.01473 0
M  V30 8530 C 792.201 1.06044 5.23059 0
M  V30 8531 O 792.424 -0.0854023 5.70336 0
M  V30 8532 O 791.358 1.85349 5.72651 0
M  V30 8533 H 795.184 1.8356 2.41949 0
M  V30 8534 H 792.769 0.95447 1.14936 0
M  V30 8535 H 794.651 0.160208 4.21095 0
M  V30 8536 H 793.326 -0.480444 3.20115 0
M  V30 8537 H 792.233 1.83615 3.25939 0
M  V30 8538 H 793.566 2.39863 4.29798 0
M  V30 8539 N 795.218 -1.23913 0.973828 0
M  V30 8540 C 796.128 -2.28838 0.516735 0
M  V30 8541 C 797.144 -1.68723 -0.425282 0
M  V30 8542 O 798.32 -1.99201 -0.296819 0
M  V30 8543 C 795.385 -3.46233 -0.179914 0
M  V30 8544 C 794.446 -4.21729 0.80269 0
M  V30 8545 C 793.679 -5.33518 0.139191 0
M  V30 8546 O 793.902 -5.60252 -1.07118 0
M  V30 8547 O 792.836 -5.96088 0.834447 0
M  V30 8548 H 796.662 -2.70067 1.38916 0
M  V30 8549 H 794.247 -1.2972 0.74115 0
M  V30 8550 H 796.129 -4.17514 -0.570991 0
M  V30 8551 H 794.804 -3.06969 -1.02721 0
M  V30 8552 H 793.711 -3.52799 1.24434 0
M  V30 8553 H 795.044 -4.64825 1.61859 0
M  V30 8554 N 796.696 -0.74468 -1.38897 0
M  V30 8555 C 797.644 -0.100312 -2.32384 0
M  V30 8556 C 798.638 0.715191 -1.53562 0
M  V30 8557 O 799.844 0.615288 -1.69157 0
M  V30 8558 H 796.219 -0.0136403 -0.751876 0
M  V30 8559 H 798.19 -0.905007 -2.84345 0
M  V30 8560 C 796.939 0.785432 -3.38713 0
M  V30 8561 H 796.262 0.167308 -3.9945 0
M  V30 8562 H 797.702 1.20374 -4.06554 0
M  V30 8563 C 796.161 1.92408 -2.76552 0
M  V30 8564 O 796.691 3.01752 -2.65157 0
M  V30 8565 N 794.897 1.71642 -2.34494 0
M  V30 8566 H 794.444 0.827079 -2.43961 0
M  V30 8567 H 794.402 2.48 -1.93244 0
M  V30 8568 N 798.174 1.49689 -0.493057 0
M  V30 8569 C 799.59 1.58907 -0.148526 0
M  V30 8570 C 799.79 1.4991 1.34645 0
M  V30 8571 O 798.846 1.36893 2.12171 0
M  V30 8572 C 800.159 2.91996 -0.718265 0
M  V30 8573 C 801.707 3.05443 -0.683658 0
M  V30 8574 C 802.182 4.41138 -1.23132 0
M  V30 8575 N 803.673 4.47608 -1.19167 0
M  V30 8576 C 804.408 5.51038 -1.5857 0
M  V30 8577 N 803.904 6.61612 -2.05528 0
M  V30 8578 N 805.697 5.41706 -1.50036 0
M  V30 8579 H 797.848 1.5378 -1.46511 0
M  V30 8580 H 800.111 0.727996 -0.607228 0
M  V30 8581 H 799.817 3.04123 -1.7664 0
M  V30 8582 H 799.691 3.76798 -0.17419 0
M  V30 8583 H 802.078 2.92949 0.355626 0
M  V30 8584 H 802.159 2.22344 -1.26479 0
M  V30 8585 H 801.803 4.54382 -2.26935 0
M  V30 8586 H 801.733 5.22864 -0.626201 0
M  V30 8587 H 804.224 3.68274 -0.847524 0
M  V30 8588 H 804.537 7.36622 -2.33685 0
M  V30 8589 H 802.882 6.62674 -2.09497 0
M  V30 8590 H 806.073 4.54212 -1.13176 0
M  V30 8591 H 806.246 6.22188 -1.81068 0
M  V30 8592 N 799.652 0.226554 1.55963 0
M  V30 8593 C 800.898 -0.397608 1.99476 0
M  V30 8594 C 801.253 -1.57031 1.11172 0
M  V30 8595 O 800.546 -1.90907 0.162757 0
M  V30 8596 C 800.74 -0.87642 3.46488 0
M  V30 8597 C 800.569 0.248344 4.49014 0
M  V30 8598 C 799.339 0.71638 5.00196 0
M  V30 8599 C 801.537 1.06835 5.03081 0
M  V30 8600 N 799.519 1.81568 5.86435 0
M  V30 8601 C 800.89 2.01641 5.86294 0
M  V30 8602 C 802.945 1.10722 4.85433 0
M  V30 8603 C 801.648 3.0002 6.53743 0
M  V30 8604 C 803.674 2.07921 5.53645 0
M  V30 8605 C 803.036 3.01466 6.3663 0
M  V30 8606 H 799.135 -0.112024 0.773935 0
M  V30 8607 H 801.719 0.339472 1.91718 0
M  V30 8608 H 799.89 -1.58285 3.54684 0
M  V30 8609 H 801.622 -1.47382 3.76909 0
M  V30 8610 H 798.377 0.30409 4.72623 0
M  V30 8611 H 798.801 2.36748 6.34255 0
M  V30 8612 H 803.443 0.397909 4.20923 0
M  V30 8613 H 801.161 3.71911 7.17432 0
M  V30 8614 H 804.747 2.11609 5.41953 0
M  V30 8615 H 803.627 3.75451 6.88481 0
M  V30 8616 N 801.13 -1.57531 -0.0467866 0
M  V30 8617 C 802.36 -1.92417 -0.752279 0
M  V30 8618 C 802.768 -0.823134 -1.70356 0
M  V30 8619 O 802.111 0.210598 -1.82489 0
M  V30 8620 C 802.173 -3.22974 -1.57887 0
M  V30 8621 C 801.837 -4.50045 -0.794285 0
M  V30 8622 C 802.834 -5.19799 -0.102368 0
M  V30 8623 C 800.519 -4.96608 -0.754061 0
M  V30 8624 C 802.513 -6.34385 0.619267 0
M  V30 8625 C 800.2 -6.11093 -0.0286682 0
M  V30 8626 C 801.198 -6.79835 0.656772 0
M  V30 8627 O 800.886 -7.92133 1.37042 0
M  V30 8628 H 800.618 -0.640029 -0.217576 0
M  V30 8629 H 803.172 -2.05395 -0.0137438 0
M  V30 8630 H 801.402 -3.06273 -2.3608 0
M  V30 8631 H 803.091 -3.43319 -2.16533 0
M  V30 8632 H 803.857 -4.8484 -0.124589 0
M  V30 8633 H 799.736 -4.42958 -1.27706 0
M  V30 8634 H 803.28 -6.87975 1.15483 0
M  V30 8635 H 799.177 -6.455 -0.00446214 0
M  V30 8636 H 799.945 -8.08394 1.28227 0
M  V30 8637 N 802.608 0.318715 -1.54344 0
M  V30 8638 C 803.571 1.37545 -1.83342 0
M  V30 8639 C 804.571 1.445 -0.705444 0
M  V30 8640 O 805.761 1.44443 -0.973752 0
M  V30 8641 C 802.893 2.76225 -1.99781 0
M  V30 8642 H 804.086 1.13084 -2.77762 0
M  V30 8643 H 801.639 0.554457 -1.46135 0
M  V30 8644 H 802.374 3.05934 -1.07588 0
M  V30 8645 H 802.159 2.7257 -2.81865 0
M  V30 8646 H 803.649 3.52664 -2.23647 0
M  V30 8647 N 804.086 1.46499 0.581025 0
M  V30 8648 C 805.033 1.5719 1.68997 0
M  V30 8649 C 806.003 0.416114 1.60803 0
M  V30 8650 O 807.188 0.633086 1.79991 0
M  V30 8651 C 804.328 1.56973 3.07333 0
M  V30 8652 C 803.441 2.83298 3.26139 0
M  V30 8653 C 802.576 2.74574 4.54734 0
M  V30 8654 C 801.615 3.9583 4.66889 0
M  V30 8655 N 800.752 3.85482 5.86811 0
M  V30 8656 H 805.592 2.51914 1.59196 0
M  V30 8657 H 803.129 1.24975 0.775857 0
M  V30 8658 H 805.087 1.54832 3.87405 0
M  V30 8659 H 803.717 0.657803 3.16027 0
M  V30 8660 H 802.769 2.95411 2.3966 0
M  V30 8661 H 804.081 3.7316 3.30988 0
M  V30 8662 H 803.235 2.70548 5.43036 0
M  V30 8663 H 801.974 1.82354 4.52325 0
M  V30 8664 H 800.979 4.00186 3.77003 0
M  V30 8665 H 802.204 4.89148 4.71075 0
M  V30 8666 H 800.15 2.96051 5.85397 0
M  V30 8667 H 800.067 4.69002 5.92936 0
M  V30 8668 H 801.335 3.85434 6.7754 0
M  V30 8669 N 805.565 -0.825799 1.34232 0
M  V30 8670 C 806.842 -1.56741 1.17011 0
M  V30 8671 C 807.222 -2.09512 -0.258425 0
M  V30 8672 O 806.57 -1.90664 -1.25935 0
M  V30 8673 C 806.78 -2.69104 2.22225 0
M  V30 8674 C 808.128 -3.37947 2.57055 0
M  V30 8675 O 809.152 -2.79358 2.20992 0
M  V30 8676 O 808.011 -4.43743 3.1899 0
M  V30 8677 H 805.105 -0.69163 0.453405 0
M  V30 8678 H 807.651 -0.867422 1.45856 0
M  V30 8679 H 806.423 -2.27844 3.18124 0
M  V30 8680 H 806.046 -3.46756 1.94541 0
M  V30 8681 N 807.043 -1.17915 -1.04565 0
M  V30 8682 C 808.29 -0.971424 -1.77678 0
M  V30 8683 C 808.618 0.499401 -1.87979 0
M  V30 8684 O 807.873 1.38695 -1.38066 0
M  V30 8685 C 808.172 -1.56528 -3.213 0
M  V30 8686 C 807.838 -3.06138 -3.31044 0
M  V30 8687 C 806.5 -3.46974 -3.33411 0
M  V30 8688 C 808.852 -4.02151 -3.31548 0
M  V30 8689 C 806.18 -4.82406 -3.33918 0
M  V30 8690 C 808.532 -5.37492 -3.33595 0
M  V30 8691 C 807.196 -5.77782 -3.34251 0
M  V30 8692 H 806.466 -0.355469 -0.650171 0
M  V30 8693 H 809.113 -1.46902 -1.22849 0
M  V30 8694 H 807.418 -0.98955 -3.79098 0
M  V30 8695 H 809.115 -1.38003 -3.76505 0
M  V30 8696 H 805.705 -2.73589 -3.29919 0
M  V30 8697 H 809.889 -3.71656 -3.28916 0
M  V30 8698 H 805.145 -5.12927 -3.3274 0
M  V30 8699 H 809.319 -6.1166 -3.32934 0
M  V30 8700 H 806.946 -6.82702 -3.34397 0
M  V30 8701 N 808.521 1.23394 -0.980386 0
M  V30 8702 C 809.469 2.26872 -0.513018 0
M  V30 8703 C 810.463 1.63853 0.429948 0
M  V30 8704 O 811.669 1.77417 0.303842 0
M  V30 8705 H 808.044 0.737398 -0.147473 0
M  V30 8706 H 810.015 2.63654 -1.39746 0
M  V30 8707 C 808.764 3.47289 0.168962 0
M  V30 8708 H 808.087 3.96033 -0.547546 0
M  V30 8709 H 809.527 4.21502 0.459616 0
M  V30 8710 C 807.986 3.06425 1.40019 0
M  V30 8711 O 808.516 3.14708 2.49643 0
M  V30 8712 N 806.722 2.61339 1.27084 0
M  V30 8713 H 806.269 2.54799 0.378872 0
M  V30 8714 H 806.227 2.34364 2.09573 0
M  V30 8715 N 809.999 0.752036 1.385 0
M  V30 8716 C 811.229 0.317812 2.04141 0
M  V30 8717 C 811.637 -1.05822 1.56839 0
M  V30 8718 O 810.98 -1.68311 0.736016 0
M  V30 8719 C 811.042 0.260205 3.58557 0
M  V30 8720 C 810.706 1.57753 4.28909 0
M  V30 8721 C 811.703 2.52642 4.54387 0
M  V30 8722 C 809.388 1.84653 4.67128 0
M  V30 8723 C 811.382 3.72653 5.17116 0
M  V30 8724 C 809.069 3.04938 5.29581 0
M  V30 8725 C 810.067 3.98759 5.54509 0
M  V30 8726 O 809.755 5.16929 6.15662 0
M  V30 8727 H 809.487 0.133931 0.6626 0
M  V30 8728 H 812.041 1.02138 1.78205 0
M  V30 8729 H 810.271 -0.499596 3.83459 0
M  V30 8730 H 811.96 -0.144295 4.05643 0
M  V30 8731 H 812.726 2.33135 4.25292 0
M  V30 8732 H 808.605 1.12464 4.47071 0
M  V30 8733 H 812.149 4.45898 5.36489 0
M  V30 8734 H 808.046 3.24339 5.58099 0
M  V30 8735 H 808.814 5.1749 6.3415 0
M  V30 8736 N 811.477 -1.49425 0.500989 0
M  V30 8737 C 812.723 -2.02753 -0.0436 0
M  V30 8738 C 813.056 -1.37991 -1.36646 0
M  V30 8739 O 812.331 -0.515597 -1.87542 0
M  V30 8740 C 812.614 -3.59565 -0.19616 0
M  V30 8741 C 812.467 -4.34855 1.14982 0
M  V30 8742 C 813.786 -4.30014 -0.936795 0
M  V30 8743 H 810.905 -0.73686 -0.0143711 0
M  V30 8744 H 813.547 -1.78448 0.652397 0
M  V30 8745 H 811.697 -3.80405 -0.788959 0
M  V30 8746 H 813.369 -4.25512 1.7815 0
M  V30 8747 H 811.612 -3.97414 1.73911 0
M  V30 8748 H 812.283 -5.42933 0.996385 0
M  V30 8749 H 814.759 -4.1383 -0.434036 0
M  V30 8750 H 813.635 -5.39483 -1.01238 0
M  V30 8751 H 813.896 -3.95257 -1.9805 0
M  V30 8752 N 812.955 -0.234822 -1.55841 0
M  V30 8753 C 814.203 0.392483 -1.98252 0
M  V30 8754 C 814.524 1.59344 -1.12404 0
M  V30 8755 O 813.794 1.94834 -0.204055 0
M  V30 8756 H 812.374 0.147999 -0.732192 0
M  V30 8757 H 815.036 -0.330804 -1.92072 0
M  V30 8758 H 814.132 0.709829 -3.03921 0
M  V30 8759 N 814.433 1.57553 0.0384317 0
M  V30 8760 C 815.681 1.88468 0.729672 0
M  V30 8761 C 816.002 0.831302 1.76393 0
M  V30 8762 O 815.272 -0.13622 1.95426 0
M  V30 8763 H 813.852 0.695529 0.272485 0
M  V30 8764 H 816.514 1.94899 0.0066032 0
M  V30 8765 H 815.61 2.8705 1.22511 0
M  V30 8766 N 815.911 -0.310526 1.54511 0
M  V30 8767 C 817.151 -1.05498 1.7507 0
M  V30 8768 C 817.515 -1.84814 0.520381 0
M  V30 8769 O 818.716 -2.61937 0.603547 0
M  V30 8770 C 816.987 -1.94466 2.99863 0
M  V30 8771 S 818.546 -2.75686 3.41383 0
M  V30 8772 H 815.364 -0.355951 0.615483 0
M  V30 8773 H 817.966 -0.329464 1.92704 0
M  V30 8774 H 816.67 -1.35055 3.87541 0
M  V30 8775 H 816.201 -2.71401 2.84789 0
M  V30 8776 H 818.216 -3.96971 2.97706 0
M  V30 8777 N 817.389 -1.46805 -0.573248 0
M  V30 8778 C 818.619 -1.55965 -1.35494 0
M  V30 8779 C 819.027 -0.203038 -1.88107 0
M  V30 8780 O 818.37 0.81138 -1.6481 0
M  V30 8781 C 818.432 -2.51168 -2.57206 0
M  V30 8782 C 818.096 -3.97211 -2.25993 0
M  V30 8783 C 819.093 -4.86155 -1.84254 0
M  V30 8784 C 816.778 -4.42419 -2.37846 0
M  V30 8785 C 818.772 -6.18323 -1.54776 0
M  V30 8786 C 816.459 -5.74619 -2.0798 0
M  V30 8787 C 817.457 -6.62392 -1.66511 0
M  V30 8788 O 817.145 -7.92137 -1.37016 0
M  V30 8789 H 816.877 -0.529748 -0.419932 0
M  V30 8790 H 819.431 -1.92998 -0.702914 0
M  V30 8791 H 817.661 -2.09171 -3.25245 0
M  V30 8792 H 819.35 -2.50631 -3.19279 0
M  V30 8793 H 820.116 -4.52481 -1.74603 0
M  V30 8794 H 815.995 -3.74319 -2.69085 0
M  V30 8795 H 819.539 -6.8679 -1.22334 0
M  V30 8796 H 815.436 -6.0784 -2.17258 0
M  V30 8797 H 816.204 -8.04492 -1.50782 0
M  V30 8798 N 818.867 0.818669 -1.34668 0
M  V30 8799 C 820.115 1.57201 -1.27013 0
M  V30 8800 C 820.436 1.94354 0.158599 0
M  V30 8801 O 819.706 1.62626 1.09223 0
M  V30 8802 H 818.286 0.582919 -0.467135 0
M  V30 8803 H 820.948 0.977234 -1.6863 0
M  V30 8804 H 820.044 2.49291 -1.87778 0
M  V30 8805 N 820.346 1.18468 1.03938 0
M  V30 8806 C 821.586 0.991823 1.78724 0
M  V30 8807 C 821.95 -0.470115 1.86156 0
M  V30 8808 O 823.151 -0.782451 2.5716 0
M  V30 8809 C 821.422 1.63018 3.18056 0
M  V30 8810 S 822.981 1.58527 4.09163 0
M  V30 8811 H 819.799 0.356137 0.615376 0
M  V30 8812 H 822.401 1.50634 1.24618 0
M  V30 8813 H 821.105 2.68642 3.10258 0
M  V30 8814 H 820.636 1.11601 3.77238 0
M  V30 8815 H 822.651 0.602059 4.92534 0
M  V30 8816 N 821.824 -1.22873 0.986916 0
M  V30 8817 C 822.772 -2.26597 0.525043 0
M  V30 8818 C 823.766 -1.64079 -0.421252 0
M  V30 8819 O 824.972 -1.77576 -0.294429 0
M  V30 8820 H 821.347 -0.736606 0.151381 0
M  V30 8821 H 823.318 -2.62909 1.41142 0
M  V30 8822 C 822.067 -3.47374 -0.150542 0
M  V30 8823 H 821.39 -3.95737 0.568541 0
M  V30 8824 H 822.83 -4.21739 -0.437256 0
M  V30 8825 C 821.289 -3.07163 -1.38392 0
M  V30 8826 O 821.819 -3.16028 -2.47971 0
M  V30 8827 N 820.025 -2.62009 -1.25697 0
M  V30 8828 H 819.572 -2.54996 -0.365355 0
M  V30 8829 H 819.53 -2.35472 -2.08327 0
M  V30 8830 N 823.302 -0.75937 -1.38099 0
M  V30 8831 C 824.234 -0.0956547 -2.29 0
M  V30 8832 C 825.247 0.677561 -1.4803 0
M  V30 8833 O 826.436 0.517696 -1.70828 0
M  V30 8834 C 823.536 0.88844 -3.27047 0
M  V30 8835 C 822.709 0.171652 -4.37063 0
M  V30 8836 C 821.768 1.06733 -5.15262 0
M  V30 8837 O 820.794 0.535698 -5.66674 0
M  V30 8838 N 821.996 2.39486 -5.28797 0
M  V30 8839 H 824.761 -0.876354 -2.86601 0
M  V30 8840 H 822.322 -0.61065 -1.49942 0
M  V30 8841 H 824.314 1.49079 -3.76241 0
M  V30 8842 H 822.884 1.57018 -2.70304 0
M  V30 8843 H 822.104 -0.611473 -3.89429 0
M  V30 8844 H 823.392 -0.324121 -5.07767 0
M  V30 8845 H 822.79 2.85127 -4.88589 0
M  V30 8846 H 821.347 2.94758 -5.81344 0
M  V30 8847 N 824.78 1.49157 -0.508906 0
M  V30 8848 C 826.02 2.04376 0.0310623 0
M  V30 8849 C 826.384 1.37946 1.33547 0
M  V30 8850 O 827.585 1.83931 1.96017 0
M  V30 8851 C 825.856 3.56985 0.172191 0
M  V30 8852 S 827.415 4.33728 0.665267 0
M  V30 8853 H 824.233 0.710997 -0.00199266 0
M  V30 8854 H 826.835 1.83119 -0.684674 0
M  V30 8855 H 825.539 4.02874 -0.78234 0
M  V30 8856 H 825.07 3.82661 0.912933 0
M  V30 8857 H 827.085 4.56992 1.9332 0
M  V30 8858 N 826.258 0.243083 1.55714 0
M  V30 8859 C 827.206 -0.674349 2.2261 0
M  V30 8860 C 828.2 -1.18307 1.21243 0
M  V30 8861 O 829.406 -1.1404 1.39265 0
M  V30 8862 H 825.781 -0.235941 0.714028 0
M  V30 8863 H 827.752 -0.0869446 2.98273 0
M  V30 8864 C 826.501 -1.86206 2.93637 0
M  V30 8865 H 825.824 -1.47975 3.71407 0
M  V30 8866 H 827.264 -2.4813 3.43813 0
M  V30 8867 C 825.723 -2.73084 1.97298 0
M  V30 8868 O 826.253 -3.72497 1.50361 0
M  V30 8869 N 824.459 -2.39571 1.64482 0
M  V30 8870 H 824.006 -1.5878 2.02846 0
M  V30 8871 H 823.964 -2.97976 1.00288 0
M  V30 8872 N 827.736 -1.57571 -0.0300757 0
M  V30 8873 C 828.984 -1.88852 -0.719666 0
M  V30 8874 C 829.305 -0.840645 -1.75949 0
M  V30 8875 O 828.575 0.125854 -1.95495 0
M  V30 8876 H 827.155 -0.696965 -0.268792 0
M  V30 8877 H 829.817 -1.949 0.00373285 0
M  V30 8878 H 828.913 -2.87695 -1.20987 0
M  V30 8879 N 829.214 0.302327 -1.54673 0
M  V30 8880 C 830.124 1.39542 -1.88587 0
M  V30 8881 C 831.14 1.55543 -0.779895 0
M  V30 8882 O 832.316 1.70233 -1.07623 0
M  V30 8883 C 829.381 2.7394 -2.12504 0
M  V30 8884 C 828.442 2.66935 -3.3622 0
M  V30 8885 C 827.675 3.94923 -3.58987 0
M  V30 8886 O 827.898 4.94218 -2.84789 0
M  V30 8887 O 826.832 3.96896 -4.52501 0
M  V30 8888 H 830.658 1.13784 -2.81579 0
M  V30 8889 H 828.243 0.49827 -1.40846 0
M  V30 8890 H 830.125 3.5346 -2.29443 0
M  V30 8891 H 828.8 2.99544 -1.22698 0
M  V30 8892 H 827.707 1.85892 -3.24646 0
M  V30 8893 H 829.04 2.46283 -4.26152 0
M  V30 8894 N 830.692 1.47107 0.565454 0
M  V30 8895 C 831.639 1.58974 1.6732 0
M  V30 8896 C 832.609 0.433146 1.60353 0
M  V30 8897 O 833.794 0.652141 1.79309 0
M  V30 8898 C 830.934 1.60224 3.05651 0
M  V30 8899 C 830.047 2.86741 3.23116 0
M  V30 8900 C 829.182 2.79381 4.51796 0
M  V30 8901 C 828.221 4.0076 4.62664 0
M  V30 8902 N 827.358 3.91685 5.8269 0
M  V30 8903 H 832.198 2.53588 1.56515 0
M  V30 8904 H 829.735 1.25791 0.762558 0
M  V30 8905 H 831.693 1.58933 3.85741 0
M  V30 8906 H 830.323 0.691285 3.15311 0
M  V30 8907 H 829.375 2.97936 2.36513 0
M  V30 8908 H 830.687 3.7665 3.27011 0
M  V30 8909 H 829.841 2.76293 5.40136 0
M  V30 8910 H 828.58 1.87142 4.50366 0
M  V30 8911 H 827.585 4.04162 3.72738 0
M  V30 8912 H 828.81 4.94117 4.6586 0
M  V30 8913 H 826.756 3.02243 5.82224 0
M  V30 8914 H 826.673 4.75264 5.87929 0
M  V30 8915 H 827.941 3.92599 6.73414 0
M  V30 8916 N 832.17 -0.811516 1.35101 0
M  V30 8917 C 833.419 -1.56343 1.27435 0
M  V30 8918 C 833.732 -1.95019 -0.150696 0
M  V30 8919 O 834.938 -2.6924 -0.349586 0
M  V30 8920 C 833.394 -2.82124 2.23459 0
M  V30 8921 C 833.002 -2.50706 3.71283 0
M  V30 8922 C 834.746 -3.60137 2.24726 0
M  V30 8923 C 832.653 -3.72748 4.59143 0
M  V30 8924 H 831.583 -0.58682 0.473453 0
M  V30 8925 H 834.234 -0.892465 1.60335 0
M  V30 8926 H 832.616 -3.50905 1.83525 0
M  V30 8927 H 833.79 -1.89962 4.19823 0
M  V30 8928 H 832.105 -1.85947 3.72576 0
M  V30 8929 H 834.702 -4.50775 2.87587 0
M  V30 8930 H 835.045 -3.97101 1.24965 0
M  V30 8931 H 835.578 -2.98311 2.63164 0
M  V30 8932 H 832.317 -3.40896 5.59884 0
M  V30 8933 H 831.837 -4.32735 4.15332 0
M  V30 8934 H 833.516 -4.40033 4.74321 0
M  V30 8935 N 833.648 -1.19017 -1.03309 0
M  V30 8936 C 834.581 -0.867457 -2.1107 0
M  V30 8937 C 835.559 0.173752 -1.61669 0
M  V30 8938 O 836.743 0.0510077 -1.88431 0
M  V30 8939 C 833.87 -0.297459 -3.37391 0
M  V30 8940 C 832.916 -1.31706 -4.05655 0
M  V30 8941 S 833.749 -2.87591 -4.51721 0
M  V30 8942 C 834.905 -2.32122 -5.81266 0
M  V30 8943 H 835.138 -1.78008 -2.38119 0
M  V30 8944 H 832.671 -1.01686 -1.16187 0
M  V30 8945 H 834.629 0.0248889 -4.10492 0
M  V30 8946 H 833.29 0.5934 -3.08444 0
M  V30 8947 H 832.483 -0.867264 -4.96482 0
M  V30 8948 H 832.085 -1.58603 -3.38705 0
M  V30 8949 H 834.377 -1.70855 -6.55603 0
M  V30 8950 H 835.32 -3.2128 -6.31019 0
M  V30 8951 H 835.728 -1.74858 -5.36736 0
M  V30 8952 N 835.127 1.22348 -0.993418 0
M  V30 8953 C 836.06 2.22898 -0.489073 0
M  V30 8954 C 837.038 1.56222 0.450927 0
M  V30 8955 O 838.222 1.84705 0.376351 0
M  V30 8956 C 835.349 3.37448 0.290946 0
M  V30 8957 C 834.395 4.22328 -0.595123 0
M  V30 8958 S 835.228 4.94677 -2.05072 0
M  V30 8959 C 836.384 6.12667 -1.28021 0
M  V30 8960 H 836.617 2.65333 -1.34111 0
M  V30 8961 H 834.15 1.32032 -0.800429 0
M  V30 8962 H 836.108 4.03867 0.734944 0
M  V30 8963 H 834.769 2.93519 1.11826 0
M  V30 8964 H 833.962 5.04 0.00507413 0
M  V30 8965 H 833.564 3.61043 -0.975906 0
M  V30 8966 H 835.856 6.75279 -0.548129 0
M  V30 8967 H 836.799 6.771 -2.07223 0
M  V30 8968 H 837.207 5.58898 -0.793272 0
M  V30 8969 N 836.605 0.766683 1.37694 0
M  V30 8970 C 837.553 0.137269 2.32195 0
M  V30 8971 C 838.547 -0.69067 1.54681 0
M  V30 8972 O 839.753 -0.588299 1.70115 0
M  V30 8973 H 836.128 0.0256003 0.751564 0
M  V30 8974 H 838.099 0.950129 2.82869 0
M  V30 8975 C 836.848 -0.731446 3.39919 0
M  V30 8976 H 836.171 -0.103738 3.99665 0
M  V30 8977 H 837.611 -1.13891 4.08417 0
M  V30 8978 C 836.07 -1.87984 2.79578 0
M  V30 8979 O 836.6 -2.97496 2.69924 0
M  V30 8980 N 834.806 -1.6789 2.37195 0
M  V30 8981 H 834.353 -0.788162 2.45246 0
M  V30 8982 H 834.311 -2.44894 1.97165 0
M  V30 8983 N 838.083 -1.48885 0.516809 0
M  V30 8984 C 838.993 -2.33185 -0.257293 0
M  V30 8985 C 840.009 -1.4565 -0.951952 0
M  V30 8986 O 841.185 -1.78651 -0.929834 0
M  V30 8987 C 838.25 -3.21465 -1.29851 0
M  V30 8988 C 837.311 -4.24863 -0.615608 0
M  V30 8989 C 836.544 -5.08925 -1.60722 0
M  V30 8990 O 836.767 -4.9475 -2.83863 0
M  V30 8991 O 835.701 -5.90737 -1.15384 0
M  V30 8992 H 839.527 -3.00596 0.433131 0
M  V30 8993 H 837.112 -1.46792 0.277908 0
M  V30 8994 H 838.994 -3.76108 -1.90055 0
M  V30 8995 H 837.669 -2.5673 -1.97158 0
M  V30 8996 H 836.576 -3.74091 0.0265829 0
M  V30 8997 H 837.909 -4.92198 0.0152871 0
M  V30 8998 N 839.561 -0.251338 -1.55583 0
M  V30 8999 C 840.81 0.372681 -1.98227 0
M  V30 9000 C 841.123 1.58743 -1.1428 0
M  V30 9001 O 842.329 2.28289 -1.46957 0
M  V30 9002 C 840.785 0.714439 -3.52738 0
M  V30 9003 C 840.393 -0.479168 -4.4543 0
M  V30 9004 C 842.137 1.3024 -4.04027 0
M  V30 9005 C 840.044 -0.113318 -5.91291 0
M  V30 9006 H 838.974 0.14302 -0.740312 0
M  V30 9007 H 841.625 -0.352253 -1.80087 0
M  V30 9008 H 840.007 1.49762 -3.66589 0
M  V30 9009 H 841.181 -1.25644 -4.4334 0
M  V30 9010 H 839.496 -0.982359 -4.04646 0
M  V30 9011 H 842.093 1.58953 -5.10527 0
M  V30 9012 H 842.436 2.22837 -3.51638 0
M  V30 9013 H 842.969 0.582024 -3.93519 0
M  V30 9014 H 839.708 -1.00654 -6.47726 0
M  V30 9015 H 839.228 0.627666 -5.96507 0
M  V30 9016 H 840.907 0.30293 -6.4629 0
M  V30 9017 N 841.039 1.57585 0.0217189 0
M  V30 9018 C 842.269 1.9359 0.721572 0
M  V30 9019 C 842.677 0.850132 1.69025 0
M  V30 9020 O 842.02 -0.181539 1.82801 0
M  V30 9021 C 842.082 3.25445 1.52729 0
M  V30 9022 C 841.746 4.51251 0.722586 0
M  V30 9023 C 842.743 5.19896 0.0196598 0
M  V30 9024 C 840.428 4.97745 0.674959 0
M  V30 9025 C 842.422 6.33319 -0.720114 0
M  V30 9026 C 840.109 6.11062 -0.068555 0
M  V30 9027 C 841.107 6.78704 -0.764845 0
M  V30 9028 O 840.795 7.89852 -1.49627 0
M  V30 9029 H 840.527 0.643409 0.207366 0
M  V30 9030 H 843.081 2.05391 -0.0189346 0
M  V30 9031 H 841.311 3.0999 2.31178 0
M  V30 9032 H 843 3.46721 2.11044 0
M  V30 9033 H 843.766 4.84977 0.0474394 0
M  V30 9034 H 839.645 4.44934 1.20643 0
M  V30 9035 H 843.189 6.86051 -1.26413 0
M  V30 9036 H 839.086 6.45425 -0.0982318 0
M  V30 9037 H 839.854 8.06251 -1.41071 0
M  V30 9038 N 842.517 -0.29412 1.54831 0
M  V30 9039 C 843.933 -0.640167 1.46199 0
M  V30 9040 C 844.133 -1.90426 0.658798 0
M  V30 9041 O 843.189 -2.51932 0.169228 0
M  V30 9042 C 844.502 -0.786763 2.90225 0
M  V30 9043 C 846.05 -0.882201 3.0031 0
M  V30 9044 C 846.525 -1.06074 4.45547 0
M  V30 9045 N 848.016 -1.12678 4.49286 0
M  V30 9046 C 848.751 -1.28334 5.58854 0
M  V30 9047 N 848.247 -1.40845 6.78332 0
M  V30 9048 N 850.04 -1.31277 5.46555 0
M  V30 9049 H 842.191 0.536334 2.05517 0
M  V30 9050 H 844.454 0.178363 0.93107 0
M  V30 9051 H 844.16 0.0713018 3.51628 0
M  V30 9052 H 844.034 -1.67364 3.38037 0
M  V30 9053 H 846.421 -1.73075 2.39017 0
M  V30 9054 H 846.502 0.0288405 2.55784 0
M  V30 9055 H 846.146 -0.216935 5.07437 0
M  V30 9056 H 846.076 -1.98611 4.8771 0
M  V30 9057 H 848.567 -1.04335 3.63212 0
M  V30 9058 H 848.88 -1.52566 7.57591 0
M  V30 9059 H 847.225 -1.37888 6.81184 0
M  V30 9060 H 850.416 -1.2112 4.52159 0
M  V30 9061 H 850.589 -1.43136 6.31994 0
M  V30 9062 N 843.995 -1.47404 -0.557645 0
M  V30 9063 C 844.943 -1.60265 -1.68576 0
M  V30 9064 C 845.937 -0.469982 -1.6275 0
M  V30 9065 O 847.143 -0.647764 -1.67941 0
M  V30 9066 H 843.518 -0.504353 -0.557792 0
M  V30 9067 H 845.489 -2.55066 -1.54867 0
M  V30 9068 C 844.238 -1.63369 -3.0693 0
M  V30 9069 H 843.561 -2.49874 -3.12095 0
M  V30 9070 H 845.001 -1.76417 -3.85556 0
M  V30 9071 C 843.46 -0.366921 -3.34896 0
M  V30 9072 O 843.99 0.53218 -3.98159 0
M  V30 9073 N 842.196 -0.247082 -2.89548 0
M  V30 9074 H 841.743 -0.979669 -2.38244 0
M  V30 9075 H 841.701 0.599552 -3.0863 0
M  V30 9076 N 845.473 0.80434 -1.35529 0
M  V30 9077 C 846.721 1.55845 -1.28673 0
M  V30 9078 C 847.042 1.94511 0.137976 0
M  V30 9079 O 846.312 1.63775 1.07492 0
M  V30 9080 H 844.892 0.577931 -0.473291 0
M  V30 9081 H 847.554 0.959293 -1.69657 0
M  V30 9082 H 846.65 2.47285 -1.90411 0
M  V30 9083 N 846.951 1.19563 1.02676 0
M  V30 9084 C 848.362 1.00158 1.57561 0
M  V30 9085 C 848.713 -0.444922 1.91089 0
M  V30 9086 O 847.838 -1.32466 1.71119 0
M  V30 9087 C 848.433 1.81181 2.86284 0
M  V30 9088 C 846.992 1.66171 3.37734 0
M  V30 9089 C 846.139 1.7975 2.11152 0
M  V30 9090 H 849.09 1.33904 0.85179 0
M  V30 9091 H 849.111 1.30916 3.57269 0
M  V30 9092 H 848.623 2.86454 2.6185 0
M  V30 9093 H 846.724 0.634927 3.6715 0
M  V30 9094 H 846.837 2.46832 4.10622 0
M  V30 9095 H 845.201 1.22833 2.23123 0
M  V30 9096 H 845.984 2.86487 1.89157 0
M  V30 9097 N 848.429 -1.21819 0.999893 0
M  V30 9098 C 849.678 -1.90066 0.675108 0
M  V30 9099 C 849.991 -1.78624 -0.79705 0
M  V30 9100 O 851.197 -2.41851 -1.23371 0
M  V30 9101 C 849.653 -3.40795 1.15702 0
M  V30 9102 C 849.261 -3.60859 2.6549 0
M  V30 9103 C 851.005 -4.147 0.906889 0
M  V30 9104 C 848.912 -5.05324 3.07248 0
M  V30 9105 H 847.842 -0.711763 0.248815 0
M  V30 9106 H 850.493 -1.3792 1.21038 0
M  V30 9107 H 848.875 -3.92164 0.549832 0
M  V30 9108 H 850.049 -3.19951 3.31614 0
M  V30 9109 H 848.364 -3.00298 2.88461 0
M  V30 9110 H 850.961 -5.21187 1.1945 0
M  V30 9111 H 851.304 -4.16004 -0.156923 0
M  V30 9112 H 851.837 -3.69379 1.47662 0
M  V30 9113 H 848.576 -5.09164 4.12834 0
M  V30 9114 H 848.096 -5.47108 2.45832 0
M  V30 9115 H 849.775 -5.73797 2.98941 0
M  V30 9116 N 849.908 -0.773975 -1.37286 0
M  V30 9117 C 851.154 -0.339809 -1.99933 0
M  V30 9118 C 851.487 1.0815 -1.61299 0
M  V30 9119 O 850.762 1.74442 -0.860252 0
M  V30 9120 C 851.045 -0.485919 -3.56806 0
M  V30 9121 C 850.898 -1.9498 -4.05343 0
M  V30 9122 C 852.217 0.108461 -4.39966 0
M  V30 9123 H 849.336 -0.124944 -0.726332 0
M  V30 9124 H 851.978 -0.977433 -1.6293 0
M  V30 9125 H 850.128 0.0569023 -3.88458 0
M  V30 9126 H 851.8 -2.5525 -3.84246 0
M  V30 9127 H 850.043 -2.45784 -3.57453 0
M  V30 9128 H 850.714 -2.00308 -5.14374 0
M  V30 9129 H 853.19 -0.354722 -4.14585 0
M  V30 9130 H 852.066 -0.0238926 -5.48895 0
M  V30 9131 H 852.327 1.19901 -4.25531 0
M  V30 9132 N 851.386 1.48609 -0.524698 0
M  V30 9133 C 852.611 2.07398 0.00952139 0
M  V30 9134 C 853.036 1.37939 1.27884 0
M  V30 9135 O 852.394 0.443633 1.75788 0
M  V30 9136 C 852.442 3.59916 0.221956 0
M  V30 9137 O 851.546 3.91647 1.29175 0
M  V30 9138 H 850.887 0.662981 -0.0367729 0
M  V30 9139 H 853.417 1.91092 -0.7311 0
M  V30 9140 H 853.427 4.05552 0.446236 0
M  V30 9141 H 852.102 4.09876 -0.705306 0
M  V30 9142 H 850.679 3.57796 1.05055 0
M  V30 9143 N 852.864 0.259585 1.55447 0
M  V30 9144 C 854.089 -0.368317 2.04103 0
M  V30 9145 C 854.514 -1.49827 1.13725 0
M  V30 9146 O 853.872 -1.80814 0.132705 0
M  V30 9147 C 853.92 -0.841506 3.50644 0
M  V30 9148 O 853.024 -1.95008 3.63381 0
M  V30 9149 H 852.365 -0.0785227 0.659341 0
M  V30 9150 H 854.895 0.389349 2.00861 0
M  V30 9151 H 854.905 -1.14138 3.9171 0
M  V30 9152 H 853.58 -0.0147001 4.15897 0
M  V30 9153 H 852.157 -1.65393 3.34215 0
M  V30 9154 N 854.342 -1.57594 -0.0133615 0
M  V30 9155 C 855.589 -1.8998 -0.70098 0
M  V30 9156 C 855.917 -0.858802 -1.74513 0
M  V30 9157 O 855.172 0.138209 -1.95211 0
M  V30 9158 C 855.471 -3.29121 -1.39336 0
M  V30 9159 C 855.137 -4.48298 -0.483687 0
M  V30 9160 C 853.799 -4.80635 -0.233186 0
M  V30 9161 C 856.151 -5.21003 0.143426 0
M  V30 9162 C 853.479 -5.83055 0.652943 0
M  V30 9163 C 855.831 -6.24366 1.01735 0
M  V30 9164 C 854.495 -6.55168 1.27716 0
M  V30 9165 H 853.765 -0.695187 -0.256507 0
M  V30 9166 H 856.412 -1.9146 0.0392965 0
M  V30 9167 H 854.717 -3.23703 -2.20735 0
M  V30 9168 H 856.414 -3.51433 -1.93121 0
M  V30 9169 H 853.004 -4.23024 -0.689092 0
M  V30 9170 H 857.188 -4.96286 -0.0371139 0
M  V30 9171 H 852.444 -6.05288 0.862379 0
M  V30 9172 H 856.618 -6.79839 1.5097 0
M  V30 9173 H 854.245 -7.34351 1.9655 0
M  V30 9174 N 855.82 0.285905 -1.54985 0
M  V30 9175 C 856.73 1.37534 -1.90057 0
M  V30 9176 C 857.746 1.54707 -0.796348 0
M  V30 9177 O 858.922 1.69082 -1.09423 0
M  V30 9178 C 855.987 2.7167 -2.15398 0
M  V30 9179 C 855.048 2.63354 -3.39033 0
M  V30 9180 C 854.281 3.91093 -3.63155 0
M  V30 9181 O 854.504 4.91169 -2.90015 0
M  V30 9182 O 853.438 3.92075 -4.56685 0
M  V30 9183 H 857.264 1.10791 -2.8277 0
M  V30 9184 H 854.849 0.483303 -1.41367 0
M  V30 9185 H 856.731 3.51006 -2.33179 0
M  V30 9186 H 855.406 2.98226 -1.25868 0
M  V30 9187 H 854.313 1.82438 -3.26599 0
M  V30 9188 H 855.646 2.41749 -4.2874 0
M  V30 9189 N 857.298 1.47698 0.54982 0
M  V30 9190 C 858.261 1.60282 1.63837 0
M  V30 9191 C 859.261 0.477394 1.5355 0
M  V30 9192 O 860.451 0.742665 1.57576 0
M  V30 9193 C 857.583 1.55431 3.03404 0
M  V30 9194 H 858.776 2.57325 1.54026 0
M  V30 9195 H 856.329 1.35999 0.770329 0
M  V30 9196 H 857.064 0.597912 3.1874 0
M  V30 9197 H 856.849 2.37116 3.12279 0
M  V30 9198 H 858.339 1.6739 3.82584 0
M  V30 9199 N 858.776 -0.797141 1.35954 0
M  V30 9200 C 860.001 -1.59097 1.33053 0
M  V30 9201 C 860.426 -1.87897 -0.0874592 0
M  V30 9202 O 859.784 -1.47291 -1.05712 0
M  V30 9203 C 859.832 -2.89346 2.152 0
M  V30 9204 O 858.936 -3.826 1.5392 0
M  V30 9205 H 858.277 -0.482895 0.45575 0
M  V30 9206 H 860.807 -0.988633 1.79129 0
M  V30 9207 H 860.817 -3.38686 2.27499 0
M  V30 9208 H 859.492 -2.6771 3.18283 0
M  V30 9209 H 858.069 -3.41174 1.50516 0
M  V30 9210 N 860.254 -1.20106 -1.0204 0
M  V30 9211 C 861.665 -1.00992 -1.57027 0
M  V30 9212 C 862.016 0.434782 -1.91322 0
M  V30 9213 O 861.141 1.31557 -1.71819 0
M  V30 9214 C 861.736 -1.82697 -2.85319 0
M  V30 9215 C 860.295 -1.67959 -3.36848 0
M  V30 9216 C 859.442 -1.80868 -2.10195 0
M  V30 9217 H 862.393 -1.34354 -0.844676 0
M  V30 9218 H 862.414 -1.32809 -3.5657 0
M  V30 9219 H 861.926 -2.87839 -2.60328 0
M  V30 9220 H 860.027 -0.654389 -3.66809 0
M  V30 9221 H 860.14 -2.49006 -4.09308 0
M  V30 9222 H 858.504 -1.24015 -2.22469 0
M  V30 9223 H 859.287 -2.87486 -1.87635 0
M  V30 9224 N 861.732 1.21287 -1.00634 0
M  V30 9225 C 863.009 1.86 -0.605257 0
M  V30 9226 C 863.389 1.90139 0.917072 0
M  V30 9227 O 862.737 1.40169 1.80458 0
M  V30 9228 C 862.947 3.26183 -1.24119 0
M  V30 9229 C 864.295 4.02562 -1.35015 0
M  V30 9230 O 865.319 3.35499 -1.19661 0
M  V30 9231 O 864.178 5.22638 -1.59726 0
M  V30 9232 H 861.272 0.800549 -0.207486 0
M  V30 9233 H 863.818 1.28959 -1.10307 0
M  V30 9234 H 862.59 3.17878 -2.28186 0
M  V30 9235 H 862.213 3.90845 -0.729807 0
M  V30 9236 N 863.21 0.781244 1.36873 0
M  V30 9237 C 864.457 0.349889 1.99454 0
M  V30 9238 C 864.785 -1.07621 1.62013 0
M  V30 9239 O 864.04 -1.75665 0.86258 0
M  V30 9240 C 864.339 0.45146 3.54537 0
M  V30 9241 C 864.005 1.83718 4.11775 0
M  V30 9242 C 862.667 2.21634 4.2712 0
M  V30 9243 C 865.019 2.7449 4.43063 0
M  V30 9244 C 862.347 3.49742 4.7106 0
M  V30 9245 C 864.699 4.02017 4.88431 0
M  V30 9246 C 863.363 4.39967 5.01982 0
M  V30 9247 H 862.633 0.128033 0.729855 0
M  V30 9248 H 865.28 0.997117 1.63493 0
M  V30 9249 H 863.585 -0.279288 3.90803 0
M  V30 9250 H 865.282 0.0988609 4.00878 0
M  V30 9251 H 861.872 1.53251 4.00265 0
M  V30 9252 H 866.056 2.46453 4.30783 0
M  V30 9253 H 861.312 3.79026 4.79738 0
M  V30 9254 H 865.486 4.72475 5.11605 0
M  V30 9255 H 863.113 5.39291 5.35788 0
M  V30 9256 N 864.689 -1.48329 0.532571 0
M  V30 9257 C 865.919 -2.066 0.00353785 0
M  V30 9258 C 866.327 -1.38913 -1.28451 0
M  V30 9259 O 865.67 -0.471385 -1.77549 0
M  V30 9260 C 865.732 -3.58342 -0.288324 0
M  V30 9261 C 865.396 -4.47917 0.906631 0
M  V30 9262 C 866.393 -4.87534 1.80572 0
M  V30 9263 C 864.078 -4.89783 1.11436 0
M  V30 9264 C 866.072 -5.6779 2.89642 0
M  V30 9265 C 863.759 -5.69809 2.20819 0
M  V30 9266 C 864.757 -6.08721 3.09755 0
M  V30 9267 O 864.445 -6.8714 4.17246 0
M  V30 9268 H 864.177 -0.675263 0.0315661 0
M  V30 9269 H 866.731 -1.91669 0.738375 0
M  V30 9270 H 864.961 -3.71395 -1.07717 0
M  V30 9271 H 866.65 -3.98726 -0.759752 0
M  V30 9272 H 867.416 -4.5581 1.65719 0
M  V30 9273 H 863.295 -4.58977 0.431382 0
M  V30 9274 H 866.839 -5.98082 3.59087 0
M  V30 9275 H 862.736 -6.00947 2.35655 0
M  V30 9276 H 863.504 -7.05498 4.14988 0
M  V30 9277 N 866.167 -0.267825 -1.55308 0
M  V30 9278 C 867.444 0.402449 -1.91415 0
M  V30 9279 C 867.824 1.7428 -1.1912 0
M  V30 9280 O 867.172 2.2631 -0.315609 0
M  V30 9281 C 867.382 0.549926 -3.4464 0
M  V30 9282 C 868.73 0.836188 -4.16285 0
M  V30 9283 O 869.754 0.635009 -3.50494 0
M  V30 9284 O 868.613 1.22051 -5.32697 0
M  V30 9285 H 865.707 0.219177 -0.797427 0
M  V30 9286 H 868.253 -0.313439 -1.6678 0
M  V30 9287 H 867.025 -0.393641 -3.89315 0
M  V30 9288 H 866.648 1.31556 -3.75205 0
M  V30 9289 N 867.645 1.57599 0.00500368 0
M  V30 9290 C 868.875 1.94344 0.700998 0
M  V30 9291 C 869.283 0.868011 1.68114 0
M  V30 9292 O 868.626 -0.16214 1.82983 0
M  V30 9293 C 868.688 3.27046 1.49268 0
M  V30 9294 C 868.352 4.51992 0.674684 0
M  V30 9295 C 869.349 5.19888 -0.0354833 0
M  V30 9296 C 867.034 4.98432 0.622129 0
M  V30 9297 C 869.028 6.3252 -0.787246 0
M  V30 9298 C 866.715 6.10954 -0.133362 0
M  V30 9299 C 867.713 6.77855 -0.836788 0
M  V30 9300 O 867.401 7.88221 -1.57996 0
M  V30 9301 H 867.133 0.645572 0.20053 0
M  V30 9302 H 869.687 2.0536 -0.040718 0
M  V30 9303 H 867.917 3.12424 2.27877 0
M  V30 9304 H 869.606 3.4894 2.07355 0
M  V30 9305 H 870.372 4.85 -0.00400159 0
M  V30 9306 H 866.251 4.46189 1.15917 0
M  V30 9307 H 869.795 6.84671 -1.33683 0
M  V30 9308 H 865.692 6.45285 -0.166682 0
M  V30 9309 H 866.46 8.0471 -1.49615 0
M  V30 9310 N 869.123 -0.277682 1.55134 0
M  V30 9311 C 870.086 -1.32635 1.86924 0
M  V30 9312 C 871.086 -1.42578 0.743507 0
M  V30 9313 O 872.276 -1.4181 1.01171 0
M  V30 9314 C 869.408 -2.70832 2.07034 0
M  V30 9315 H 870.601 -1.0568 2.80663 0
M  V30 9316 H 868.154 -0.515517 1.47554 0
M  V30 9317 H 868.889 -3.02974 1.15661 0
M  V30 9318 H 868.674 -2.65001 2.88993 0
M  V30 9319 H 870.164 -3.46611 2.32918 0
M  V30 9320 N 870.601 -1.47988 -0.541979 0
M  V30 9321 C 871.878 -1.45878 -1.30303 0
M  V30 9322 C 872.258 -0.163931 -2.10463 0
M  V30 9323 O 871.606 0.854479 -2.11922 0
M  V30 9324 C 871.816 -2.71359 -2.19466 0
M  V30 9325 C 873.164 -3.19199 -2.79995 0
M  V30 9326 O 874.188 -2.72193 -2.2976 0
M  V30 9327 O 873.047 -4.00961 -3.71339 0
M  V30 9328 H 870.141 -0.582043 -0.587498 0
M  V30 9329 H 872.687 -1.60207 -0.559623 0
M  V30 9330 H 871.459 -3.57122 -1.59936 0
M  V30 9331 H 871.082 -2.59692 -3.01075 0
M  V30 9332 N 872.079 0.78992 -1.36375 0
M  V30 9333 C 873.327 1.54472 -1.30319 0
M  V30 9334 C 873.648 1.94647 0.117338 0
M  V30 9335 O 872.918 1.64906 1.05748 0
M  V30 9336 H 871.498 0.572879 -0.479394 0
M  V30 9337 H 874.16 0.941245 -1.70665 0
M  V30 9338 H 873.256 2.45252 -1.93024 0
M  V30 9339 N 873.557 1.20646 1.01402 0
M  V30 9340 C 874.803 1.0197 1.753 0
M  V30 9341 C 875.136 -0.446803 1.8899 0
M  V30 9342 O 874.411 -1.33169 1.41762 0
M  V30 9343 C 874.694 1.70693 3.17074 0
M  V30 9344 C 874.547 3.24805 3.11162 0
M  V30 9345 C 875.866 1.44212 4.15802 0
M  V30 9346 H 872.985 0.371844 0.636318 0
M  V30 9347 H 875.627 1.48696 1.18277 0
M  V30 9348 H 873.777 1.30968 3.65759 0
M  V30 9349 H 875.449 3.73841 2.70261 0
M  V30 9350 H 873.692 3.55576 2.48492 0
M  V30 9351 H 874.363 3.68049 4.11393 0
M  V30 9352 H 876.839 1.7868 3.75783 0
M  V30 9353 H 875.715 1.94825 5.13161 0
M  V30 9354 H 875.976 0.370252 4.40547 0
M  V30 9355 N 875.035 -1.20752 1.01276 0
M  V30 9356 C 876.265 -1.93725 0.717934 0
M  V30 9357 C 876.673 -1.74769 -0.724732 0
M  V30 9358 O 876.016 -1.05642 -1.50285 0
M  V30 9359 C 876.078 -3.46196 0.968954 0
M  V30 9360 C 875.742 -3.88909 2.39998 0
M  V30 9361 C 876.739 -3.94982 3.38061 0
M  V30 9362 C 874.424 -4.21006 2.7397 0
M  V30 9363 C 876.418 -4.32558 4.68159 0
M  V30 9364 C 874.105 -4.58257 4.04282 0
M  V30 9365 C 875.103 -4.64004 5.01187 0
M  V30 9366 O 874.791 -5.00403 6.29168 0
M  V30 9367 H 874.523 -0.622663 0.263186 0
M  V30 9368 H 877.077 -1.54299 1.35577 0
M  V30 9369 H 875.307 -3.85728 0.273952 0
M  V30 9370 H 876.996 -4.00394 0.666312 0
M  V30 9371 H 877.762 -3.70353 3.13151 0
M  V30 9372 H 873.641 -4.15725 1.99233 0
M  V30 9373 H 877.185 -4.36959 5.43795 0
M  V30 9374 H 873.082 -4.82341 4.28973 0
M  V30 9375 H 873.85 -5.18409 6.33399 0
M  V30 9376 N 876.513 -0.788492 -1.36457 0
M  V30 9377 C 877.76 -0.360461 -1.99266 0
M  V30 9378 C 878.088 1.0676 -1.62581 0
M  V30 9379 O 877.343 1.75205 -0.871884 0
M  V30 9380 C 877.642 -0.470255 -3.54293 0
M  V30 9381 C 877.308 -1.85899 -4.10795 0
M  V30 9382 C 875.97 -2.23896 -4.25939 0
M  V30 9383 C 878.322 -2.76836 -4.41601 0
M  V30 9384 C 875.65 -3.52235 -4.69199 0
M  V30 9385 C 878.002 -4.04602 -4.86292 0
M  V30 9386 C 876.666 -4.42623 -4.99641 0
M  V30 9387 H 875.936 -0.131902 -0.729166 0
M  V30 9388 H 878.583 -1.00577 -1.62962 0
M  V30 9389 H 876.888 0.258559 -3.90946 0
M  V30 9390 H 878.585 -0.120119 -4.0082 0
M  V30 9391 H 875.175 -1.55372 -3.99447 0
M  V30 9392 H 879.359 -2.48735 -4.2947 0
M  V30 9393 H 874.615 -3.81565 -4.77722 0
M  V30 9394 H 878.789 -4.75182 -5.09092 0
M  V30 9395 H 876.416 -5.42125 -5.32921 0
M  V30 9396 N 877.991 1.48044 -0.54043 0
M  V30 9397 C 879.237 2.02797 -0.0101718 0
M  V30 9398 C 879.57 1.41565 1.32939 0
M  V30 9399 O 878.845 0.565139 1.86109 0
M  V30 9400 C 879.128 3.59959 0.100758 0
M  V30 9401 C 878.981 4.31654 -1.26471 0
M  V30 9402 C 880.3 4.32347 0.822455 0
M  V30 9403 H 877.419 0.736982 -0.00517052 0
M  V30 9404 H 880.061 1.76656 -0.69948 0
M  V30 9405 H 878.211 3.82363 0.687824 0
M  V30 9406 H 879.883 4.20639 -1.89369 0
M  V30 9407 H 878.126 3.92663 -1.84386 0
M  V30 9408 H 878.797 5.401 -1.13998 0
M  V30 9409 H 881.273 4.14835 0.324164 0
M  V30 9410 H 880.149 5.41978 0.868993 0
M  V30 9411 H 880.41 4.00369 1.87501 0
M  V30 9412 N 879.47 0.276058 1.55163 0
M  V30 9413 C 880.38 -0.621066 2.2623 0
M  V30 9414 C 881.396 -1.16931 1.28853 0
M  V30 9415 O 882.572 -1.1994 1.61791 0
M  V30 9416 C 879.637 -1.78824 2.97023 0
M  V30 9417 C 878.698 -1.27657 4.09881 0
M  V30 9418 C 877.931 -2.38812 4.77289 0
M  V30 9419 O 878.154 -3.58188 4.43912 0
M  V30 9420 O 877.088 -2.06915 5.65217 0
M  V30 9421 H 880.914 -0.0453346 3.03666 0
M  V30 9422 H 878.499 0.0434275 1.49337 0
M  V30 9423 H 880.381 -2.46877 3.41511 0
M  V30 9424 H 879.056 -2.35104 2.22503 0
M  V30 9425 H 877.963 -0.56248 3.69847 0
M  V30 9426 H 879.296 -0.759509 4.86305 0
M  V30 9427 N 880.948 -1.576 0.00335426 0
M  V30 9428 C 882.225 -1.81945 -0.718015 0
M  V30 9429 C 882.605 -0.881788 -1.91801 0
M  V30 9430 O 881.953 0.0687118 -2.28397 0
M  V30 9431 C 882.163 -3.30521 -1.12058 0
M  V30 9432 C 883.511 -3.96345 -1.52303 0
M  V30 9433 O 884.535 -3.34864 -1.21428 0
M  V30 9434 O 883.394 -5.04655 -2.09728 0
M  V30 9435 H 880.488 -0.749328 -0.34991 0
M  V30 9436 H 883.034 -1.69675 0.0290654 0
M  V30 9437 H 881.806 -3.90399 -0.265378 0
M  V30 9438 H 881.429 -3.47802 -1.92665 0
M  V30 9439 N 882.426 0.269451 -1.5528 0
M  V30 9440 C 883.673 1.00058 -1.76053 0
M  V30 9441 C 884.001 1.86156 -0.563592 0
M  V30 9442 O 883.256 1.90366 0.453806 0
M  V30 9443 C 883.555 1.91 -3.02082 0
M  V30 9444 C 883.221 1.20623 -4.34466 0
M  V30 9445 C 881.883 1.01165 -4.70446 0
M  V30 9446 C 884.235 0.705695 -5.164 0
M  V30 9447 C 881.563 0.303865 -5.85913 0
M  V30 9448 C 883.915 0.0114838 -6.32599 0
M  V30 9449 C 882.579 -0.19478 -6.67216 0
M  V30 9450 H 881.849 0.366138 -0.644223 0
M  V30 9451 H 884.496 0.272563 -1.8955 0
M  V30 9452 H 882.801 2.70435 -2.835 0
M  V30 9453 H 884.498 2.47698 -3.15352 0
M  V30 9454 H 881.088 1.36781 -4.06188 0
M  V30 9455 H 885.272 0.84364 -4.89077 0
M  V30 9456 H 880.528 0.133368 -6.11255 0
M  V30 9457 H 884.702 -0.384111 -6.9534 0
M  V30 9458 H 882.329 -0.745201 -7.56539 0
M  V30 9459 N 883.904 1.48273 0.534124 0
M  V30 9460 C 885.315 1.49667 1.1161 0
M  V30 9461 C 885.666 0.264139 1.94414 0
M  V30 9462 O 884.791 -0.629084 2.07054 0
M  V30 9463 C 885.386 2.71191 2.03079 0
M  V30 9464 C 883.945 2.7547 2.56502 0
M  V30 9465 C 883.092 2.43119 1.33373 0
M  V30 9466 H 886.043 1.55449 0.319578 0
M  V30 9467 H 886.064 2.49473 2.87304 0
M  V30 9468 H 885.576 3.60879 1.42785 0
M  V30 9469 H 883.677 1.89979 3.20529 0
M  V30 9470 H 883.79 3.76787 2.95919 0
M  V30 9471 H 882.154 1.94187 1.64813 0
M  V30 9472 H 882.937 3.35044 0.748375 0
M  V30 9473 N 885.382 -0.782676 1.36792 0
M  V30 9474 C 886.332 -1.8855 1.28191 0
M  V30 9475 C 887.316 -1.59978 0.171984 0
M  V30 9476 O 888.508 -1.72295 0.405405 0
M  V30 9477 C 885.637 -3.25862 1.08021 0
M  V30 9478 C 884.723 -3.60422 2.2351 0
M  V30 9479 N 885.114 -3.66241 3.48857 0
M  V30 9480 C 883.412 -3.90523 2.15424 0
M  V30 9481 C 884.113 -3.97233 4.24948 0
M  V30 9482 N 883.089 -4.12567 3.53963 0
M  V30 9483 H 886.891 -1.91285 2.23131 0
M  V30 9484 H 884.405 -0.978554 1.29607 0
M  V30 9485 H 886.402 -4.04742 0.999458 0
M  V30 9486 H 885.062 -3.24399 0.139882 0
M  V30 9487 H 886.073 -3.48717 3.82906 0
M  V30 9488 H 882.75 -3.96945 1.29386 0
M  V30 9489 H 884.14 -4.08602 5.33379 0
M  V30 9490 N 886.86 -1.21182 -1.00761 0
M  V30 9491 C 887.823 -0.970339 -2.07646 0
M  V30 9492 C 888.823 0.0576345 -1.60697 0
M  V30 9493 O 890.013 -0.179369 -1.73274 0
M  V30 9494 C 887.145 -0.462703 -3.37745 0
M  V30 9495 H 888.338 -1.91856 -2.30502 0
M  V30 9496 H 885.891 -1.02844 -1.17698 0
M  V30 9497 H 886.626 0.490559 -3.20568 0
M  V30 9498 H 886.411 -1.20416 -3.73152 0
M  V30 9499 H 887.901 -0.313531 -4.16421 0
M  V30 9500 N 888.338 1.20213 -1.01915 0
M  V30 9501 C 889.754 1.41696 -0.734459 0
M  V30 9502 C 889.954 1.89504 0.684867 0
M  V30 9503 O 889.01 2.06556 1.45227 0
M  V30 9504 C 890.323 2.43644 -1.76233 0
M  V30 9505 C 891.871 2.57406 -1.78076 0
M  V30 9506 C 892.346 3.626 -2.79796 0
M  V30 9507 N 893.837 3.70086 -2.78551 0
M  V30 9508 C 894.572 4.51145 -3.53915 0
M  V30 9509 N 894.068 5.35988 -4.38963 0
M  V30 9510 N 895.861 4.45702 -3.425 0
M  V30 9511 H 888.012 0.874976 -1.93541 0
M  V30 9512 H 890.275 0.446647 -0.836188 0
M  V30 9513 H 889.981 2.15519 -2.77929 0
M  V30 9514 H 889.855 3.42672 -1.57657 0
M  V30 9515 H 892.242 2.8486 -0.770634 0
M  V30 9516 H 892.323 1.58565 -2.00725 0
M  V30 9517 H 891.967 3.35889 -3.80973 0
M  V30 9518 H 891.897 4.61069 -2.54407 0
M  V30 9519 H 894.388 3.09484 -2.1686 0
M  V30 9520 H 894.701 5.94932 -4.9323 0
M  V30 9521 H 893.046 5.35482 -4.4304 0
M  V30 9522 H 896.237 3.78456 -2.75478 0
M  V30 9523 H 896.41 5.08637 -4.01487 0
M  V30 9524 N 889.816 0.795718 1.36037 0
M  V30 9525 C 891.232 0.478145 1.52269 0
M  V30 9526 C 891.432 -1.0025 1.74792 0
M  V30 9527 O 890.488 -1.78783 1.78305 0
M  V30 9528 C 891.801 1.31406 2.70468 0
M  V30 9529 C 893.349 1.3084 2.84341 0
M  V30 9530 C 893.824 2.12819 4.05551 0
M  V30 9531 N 895.315 2.10298 4.12709 0
M  V30 9532 C 896.05 2.70495 5.05589 0
M  V30 9533 N 895.546 3.39576 6.03871 0
M  V30 9534 N 897.339 2.60195 4.98252 0
M  V30 9535 H 889.49 1.75477 1.19673 0
M  V30 9536 H 891.753 0.74627 0.584624 0
M  V30 9537 H 891.459 2.36435 2.60368 0
M  V30 9538 H 891.333 0.959726 3.64786 0
M  V30 9539 H 893.72 0.266003 2.93899 0
M  V30 9540 H 893.801 1.70254 1.90912 0
M  V30 9541 H 893.445 3.17093 3.96755 0
M  V30 9542 H 893.375 1.70772 4.98141 0
M  V30 9543 H 895.866 1.60026 3.42345 0
M  V30 9544 H 896.179 3.82823 6.71317 0
M  V30 9545 H 894.524 3.43679 6.04077 0
M  V30 9546 H 897.715 2.05823 4.20422 0
M  V30 9547 H 897.888 3.074 5.70447 0
M  V30 9548 N 891.294 -1.47756 0.548274 0
M  V30 9549 C 892.534 -2.04387 0.0231354 0
M  V30 9550 C 892.898 -1.41438 -1.29843 0
M  V30 9551 O 894.099 -1.89064 -1.91072 0
M  V30 9552 C 892.37 -3.57316 -0.077482 0
M  V30 9553 S 893.929 -4.35339 -0.550038 0
M  V30 9554 H 890.747 -0.710694 0.0208428 0
M  V30 9555 H 893.349 -1.81239 0.732984 0
M  V30 9556 H 892.053 -4.00658 0.88888 0
M  V30 9557 H 891.584 -3.84947 -0.811157 0
M  V30 9558 H 893.599 -4.61957 -1.81135 0
M  V30 9559 N 892.772 -0.284283 -1.55015 0
M  V30 9560 C 894 0.332948 -2.04203 0
M  V30 9561 C 894.415 1.48783 -1.16229 0
M  V30 9562 O 893.772 1.81567 -0.184323 0
M  V30 9563 C 893.823 0.805207 -3.52418 0
M  V30 9564 O 893.544 -0.303689 -4.37046 0
M  V30 9565 C 895.045 1.48931 -4.17534 0
M  V30 9566 H 892.265 0.0747447 -0.666824 0
M  V30 9567 H 894.809 -0.419048 -2.00161 0
M  V30 9568 H 892.964 1.50727 -3.56876 0
M  V30 9569 H 893.378 0.0609703 -5.24465 0
M  V30 9570 H 894.852 1.77108 -5.22816 0
M  V30 9571 H 895.329 2.42389 -3.66257 0
M  V30 9572 H 895.935 0.830867 -4.17105 0
M  V30 9573 N 894.251 1.57596 -0.0117121 0
M  V30 9574 C 895.5 1.9025 0.669921 0
M  V30 9575 C 895.813 0.887986 1.74282 0
M  V30 9576 O 897.019 1.10516 2.47989 0
M  V30 9577 C 895.475 3.37762 1.24277 0
M  V30 9578 C 895.083 4.47535 0.204076 0
M  V30 9579 C 896.827 3.79509 1.90192 0
M  V30 9580 C 894.734 5.86132 0.787577 0
M  V30 9581 H 893.664 0.709935 0.253984 0
M  V30 9582 H 896.315 1.8335 -0.0741718 0
M  V30 9583 H 894.697 3.39537 2.03791 0
M  V30 9584 H 895.871 4.57294 -0.56733 0
M  V30 9585 H 894.186 4.14881 -0.355305 0
M  V30 9586 H 896.783 4.80402 2.34773 0
M  V30 9587 H 897.126 3.13643 2.7374 0
M  V30 9588 H 897.659 3.80084 1.17394 0
M  V30 9589 H 894.398 6.55499 -0.00938418 0
M  V30 9590 H 893.918 5.80014 1.52787 0
M  V30 9591 H 895.597 6.34158 1.28265 0
M  V30 9592 N 895.729 -0.261212 1.5542 0
M  V30 9593 C 896.639 -1.34493 1.92221 0
M  V30 9594 C 897.655 -1.53421 0.82086 0
M  V30 9595 O 898.831 -1.6732 1.12099 0
M  V30 9596 C 895.896 -2.68209 2.19692 0
M  V30 9597 C 894.957 -2.57927 3.43179 0
M  V30 9598 C 894.19 -3.85266 3.69331 0
M  V30 9599 O 894.413 -4.86493 2.97793 0
M  V30 9600 O 893.347 -3.8476 4.62865 0
M  V30 9601 H 897.173 -1.06278 2.84497 0
M  V30 9602 H 894.758 -0.460752 1.42118 0
M  V30 9603 H 896.64 -3.47252 2.38734 0
M  V30 9604 H 895.315 -2.96186 1.30597 0
M  V30 9605 H 894.222 -1.77219 3.2946 0
M  V30 9606 H 895.555 -2.34898 4.32532 0
M  V30 9607 N 897.207 -1.48554 -0.526253 0
M  V30 9608 C 898.618 -1.50256 -1.10815 0
M  V30 9609 C 898.969 -0.274445 -1.94271 0
M  V30 9610 O 898.094 0.618094 -2.07385 0
M  V30 9611 C 898.689 -2.72264 -2.01638 0
M  V30 9612 C 897.248 -2.76826 -2.55038 0
M  V30 9613 C 896.395 -2.43823 -1.32081 0
M  V30 9614 H 899.346 -1.55616 -0.31133 0
M  V30 9615 H 899.367 -2.50993 -2.85977 0
M  V30 9616 H 898.879 -3.61632 -1.4087 0
M  V30 9617 H 896.98 -1.91676 -3.19517 0
M  V30 9618 H 897.093 -3.78351 -2.93917 0
M  V30 9619 H 895.457 -1.95058 -1.63781 0
M  V30 9620 H 896.24 -3.35436 -0.730596 0
M  V30 9621 N 898.685 0.775411 -1.37205 0
M  V30 9622 C 899.632 1.88857 -1.32671 0
M  V30 9623 C 900.602 1.64976 -0.192899 0
M  V30 9624 O 901.787 1.86944 -0.381673 0
M  V30 9625 C 898.927 3.25871 -1.13588 0
M  V30 9626 C 898.04 3.61731 -2.36167 0
M  V30 9627 C 897.175 4.87934 -2.09985 0
M  V30 9628 C 896.214 5.16514 -3.2845 0
M  V30 9629 N 895.351 6.33905 -3.01842 0
M  V30 9630 H 900.191 1.92068 -2.27846 0
M  V30 9631 H 897.728 0.939066 -1.13225 0
M  V30 9632 H 899.686 4.04903 -1.00546 0
M  V30 9633 H 898.316 3.22045 -0.220613 0
M  V30 9634 H 897.368 2.77712 -2.59962 0
M  V30 9635 H 898.68 3.78792 -3.24528 0
M  V30 9636 H 897.834 5.74863 -1.93953 0
M  V30 9637 H 896.573 4.7297 -1.18956 0
M  V30 9638 H 895.578 4.28063 -3.45025 0
M  V30 9639 H 896.803 5.33389 -4.20325 0
M  V30 9640 H 894.749 6.20306 -2.13439 0
M  V30 9641 H 894.666 6.51364 -3.83746 0
M  V30 9642 H 895.934 7.23779 -2.8942 0
M  V30 9643 N 900.163 1.21714 1.00117 0
M  V30 9644 C 901.111 0.976937 2.11089 0
M  V30 9645 C 902.105 -0.0771295 1.69224 0
M  V30 9646 O 903.311 0.0745945 1.79845 0
M  V30 9647 H 899.686 0.298687 0.690138 0
M  V30 9648 H 901.657 1.91881 2.28526 0
M  V30 9649 C 900.406 0.562369 3.43122 0
M  V30 9650 H 899.729 1.36509 3.75773 0
M  V30 9651 H 901.169 0.433642 4.21777 0
M  V30 9652 C 899.628 -0.727148 3.28959 0
M  V30 9653 O 900.158 -1.78171 3.60025 0
M  V30 9654 N 898.364 -0.695129 2.82164 0
M  V30 9655 H 897.911 0.163346 2.57082 0
M  V30 9656 H 897.869 -1.55822 2.73069 0
M  V30 9657 N 901.641 -1.19671 1.02551 0
M  V30 9658 C 902.918 -1.85014 0.634771 0
M  V30 9659 C 903.298 -1.91574 -0.886706 0
M  V30 9660 O 902.646 -1.43022 -1.78205 0
M  V30 9661 C 902.856 -3.24167 1.29292 0
M  V30 9662 C 904.204 -4.00363 1.41402 0
M  V30 9663 O 905.228 -3.33553 1.24983 0
M  V30 9664 O 904.087 -5.2003 1.6802 0
M  V30 9665 H 901.181 -0.797147 0.220196 0
M  V30 9666 H 903.727 -1.27188 1.12345 0
M  V30 9667 H 902.499 -3.14208 2.33215 0
M  V30 9668 H 902.122 -3.89634 0.791895 0
M  V30 9669 N 903.119 -0.802921 -1.35613 0
M  V30 9670 C 904.367 -0.380822 -1.9848 0
M  V30 9671 C 904.688 1.05464 -1.6402 0
M  V30 9672 O 903.958 1.72908 -0.920854 0
M  V30 9673 H 902.538 -0.137824 -0.734176 0
M  V30 9674 H 905.2 -1.02795 -1.65587 0
M  V30 9675 H 904.296 -0.483565 -3.08331 0
M  V30 9676 N 904.597 1.47463 -0.556102 0
M  V30 9677 C 905.843 2.02775 -0.0316806 0
M  V30 9678 C 906.176 1.42967 1.3143 0
M  V30 9679 O 905.451 0.584847 1.85499 0
M  V30 9680 C 905.734 3.60046 0.0625742 0
M  V30 9681 C 905.587 4.30288 -1.31043 0
M  V30 9682 C 906.906 4.33195 0.776553 0
M  V30 9683 H 904.025 0.736886 -0.0129869 0
M  V30 9684 H 906.667 1.75904 -0.718177 0
M  V30 9685 H 904.817 3.83071 0.647231 0
M  V30 9686 H 906.489 4.18607 -1.9382 0
M  V30 9687 H 904.732 3.90685 -1.8854 0
M  V30 9688 H 905.403 5.38861 -1.1972 0
M  V30 9689 H 907.879 4.15156 0.280147 0
M  V30 9690 H 906.755 5.42869 0.81146 0
M  V30 9691 H 907.016 4.02336 1.83244 0
M  V30 9692 N 906.075 0.2925 1.54862 0
M  V30 9693 C 907.305 -0.321646 2.04081 0
M  V30 9694 C 907.713 -1.48712 1.16967 0
M  V30 9695 O 907.056 -1.82755 0.18609 0
M  V30 9696 C 907.118 -0.848678 3.49339 0
M  V30 9697 C 906.782 0.190416 4.56603 0
M  V30 9698 C 907.779 1.01595 5.09877 0
M  V30 9699 C 905.464 0.329666 5.01217 0
M  V30 9700 C 907.458 1.96676 6.06298 0
M  V30 9701 C 905.145 1.28393 5.9746 0
M  V30 9702 C 906.143 2.10097 6.49883 0
M  V30 9703 O 905.831 3.03907 7.44242 0
M  V30 9704 H 905.563 -0.075098 0.671816 0
M  V30 9705 H 908.117 0.427531 2.00901 0
M  V30 9706 H 906.347 -1.64823 3.49815 0
M  V30 9707 H 908.036 -1.37779 3.81801 0
M  V30 9708 H 908.802 0.919197 4.7621 0
M  V30 9709 H 904.681 -0.296317 4.60047 0
M  V30 9710 H 908.225 2.60488 6.47141 0
M  V30 9711 H 904.122 1.38144 6.30545 0
M  V30 9712 H 904.89 2.98787 7.62016 0
M  V30 9713 N 907.553 -1.57587 0.0200696 0
M  V30 9714 C 908.501 -2.10814 -0.982868 0
M  V30 9715 C 909.495 -1.03263 -1.34287 0
M  V30 9716 O 910.701 -1.21708 -1.32617 0
M  V30 9717 H 907.076 -0.673409 -0.334701 0
M  V30 9718 H 909.047 -2.94034 -0.50856 0
M  V30 9719 C 907.796 -2.64301 -2.25921 0
M  V30 9720 H 907.119 -3.46703 -1.99091 0
M  V30 9721 H 908.559 -3.052 -2.94328 0
M  V30 9722 C 907.018 -1.56628 -2.98277 0
M  V30 9723 O 907.548 -0.960825 -3.9004 0
M  V30 9724 N 905.754 -1.28889 -2.60453 0
M  V30 9725 H 905.301 -1.7831 -1.85912 0
M  V30 9726 H 905.259 -0.570697 -3.09177 0
M  V30 9727 N 909.032 0.252966 -1.55557 0
M  V30 9728 C 910.281 0.979736 -1.76307 0
M  V30 9729 C 910.594 1.86714 -0.582871 0
M  V30 9730 O 911.8 2.6302 -0.673247 0
M  V30 9731 C 910.256 1.79205 -3.12112 0
M  V30 9732 C 909.864 0.952333 -4.37761 0
M  V30 9733 C 911.608 2.51191 -3.42203 0
M  V30 9734 C 909.515 1.76018 -5.64599 0
M  V30 9735 H 908.445 0.369538 -0.657235 0
M  V30 9736 H 911.096 0.234619 -1.81994 0
M  V30 9737 H 909.478 2.57888 -3.00515 0
M  V30 9738 H 910.652 0.208251 -4.60329 0
M  V30 9739 H 908.967 0.346082 -4.14959 0
M  V30 9740 H 911.564 3.12074 -4.34182 0
M  V30 9741 H 911.907 3.22499 -2.63249 0
M  V30 9742 H 912.44 1.79523 -3.54988 0
M  V30 9743 H 909.179 1.09095 -6.46358 0
M  V30 9744 H 908.699 2.4797 -5.46142 0
M  V30 9745 H 910.378 2.32884 -6.03634 0
M  V30 9746 N 910.51 1.48831 0.518367 0
M  V30 9747 C 911.738 1.6112 1.298 0
M  V30 9748 C 912.153 0.275872 1.86774 0
M  V30 9749 O 911.51 -0.736416 1.66983 0
M  V30 9750 C 911.561 2.66675 2.44063 0
M  V30 9751 O 911.282 3.95027 1.89434 0
M  V30 9752 C 912.783 2.8951 3.35706 0
M  V30 9753 H 910.003 0.542916 0.394314 0
M  V30 9754 H 912.547 1.94743 0.624142 0
M  V30 9755 H 910.702 2.35879 3.07311 0
M  V30 9756 H 911.116 4.53031 2.64316 0
M  V30 9757 H 912.59 3.67142 4.12202 0
M  V30 9758 H 913.067 1.98768 3.91648 0
M  V30 9759 H 913.673 3.21656 2.7824 0
M  V30 9760 N 911.988 -0.768124 1.37614 0
M  V30 9761 C 913.236 -1.52379 1.3276 0
M  V30 9762 C 913.557 -1.94809 -0.0863564 0
M  V30 9763 O 912.827 -1.66568 -1.03112 0
M  V30 9764 H 911.407 -0.565179 0.488448 0
M  V30 9765 H 914.069 -0.913974 1.72141 0
M  V30 9766 H 913.165 -2.4215 1.96901 0
M  V30 9767 N 913.466 -1.22244 -0.994698 0
M  V30 9768 C 914.712 -1.05752 -1.73747 0
M  V30 9769 C 915.067 0.403416 -1.88123 0
M  V30 9770 O 914.36 1.29511 -1.412 0
M  V30 9771 C 914.554 -1.70014 -3.14372 0
M  V30 9772 C 914.383 -3.22205 -3.1371 0
M  V30 9773 C 913.153 -3.91301 -3.19705 0
M  V30 9774 C 915.351 -4.19163 -2.98005 0
M  V30 9775 N 913.333 -5.30594 -3.08778 0
M  V30 9776 C 914.704 -5.45274 -2.95087 0
M  V30 9777 C 916.759 -4.10078 -2.82383 0
M  V30 9778 C 915.462 -6.63345 -2.78146 0
M  V30 9779 C 917.488 -5.27797 -2.66803 0
M  V30 9780 C 916.85 -6.52826 -2.6457 0
M  V30 9781 H 912.949 -0.441393 -0.64552 0
M  V30 9782 H 915.533 -1.54757 -1.18146 0
M  V30 9783 H 913.704 -1.23562 -3.68221 0
M  V30 9784 H 915.436 -1.46631 -3.77202 0
M  V30 9785 H 912.191 -3.42289 -3.27315 0
M  V30 9786 H 912.615 -6.0358 -3.06628 0
M  V30 9787 H 917.257 -3.14201 -2.82909 0
M  V30 9788 H 914.975 -7.59373 -2.76367 0
M  V30 9789 H 918.561 -5.22598 -2.557 0
M  V30 9790 H 917.441 -7.42383 -2.5266 0
M  V30 9791 N 914.944 1.19125 -1.03184 0
M  V30 9792 C 916.221 1.84674 -0.644574 0
M  V30 9793 C 916.601 1.92042 0.876534 0
M  V30 9794 O 915.949 1.43965 1.77444 0
M  V30 9795 C 916.159 3.23477 -1.3101 0
M  V30 9796 C 917.507 3.99608 -1.43524 0
M  V30 9797 O 918.531 3.32886 -1.2675 0
M  V30 9798 O 917.39 5.19132 -1.70776 0
M  V30 9799 H 914.484 0.795968 -0.22442 0
M  V30 9800 H 917.03 1.2659 -1.13018 0
M  V30 9801 H 915.802 3.12967 -2.34878 0
M  V30 9802 H 915.425 3.89209 -0.812547 0
M  V30 9803 N 916.422 0.810101 1.35185 0
M  V30 9804 C 917.838 0.494269 1.51754 0
M  V30 9805 C 918.038 -0.983907 1.75845 0
M  V30 9806 O 917.094 -1.76882 1.80191 0
M  V30 9807 C 918.407 1.34268 2.69059 0
M  V30 9808 C 919.955 1.33848 2.82938 0
M  V30 9809 C 920.43 2.17109 4.03271 0
M  V30 9810 N 921.921 2.14664 4.10456 0
M  V30 9811 C 922.656 2.75843 5.02691 0
M  V30 9812 N 922.152 3.45962 6.00235 0
M  V30 9813 N 923.945 2.65465 4.95464 0
M  V30 9814 H 916.096 1.76736 1.17805 0
M  V30 9815 H 918.359 0.752429 0.576676 0
M  V30 9816 H 918.065 2.39183 2.57845 0
M  V30 9817 H 917.939 0.998362 3.63748 0
M  V30 9818 H 920.326 0.29716 2.936 0
M  V30 9819 H 920.407 1.72269 1.89095 0
M  V30 9820 H 920.051 3.21283 3.93369 0
M  V30 9821 H 919.981 1.76046 4.96302 0
M  V30 9822 H 922.472 1.63648 3.40628 0
M  V30 9823 H 922.785 3.89922 6.67219 0
M  V30 9824 H 921.13 3.50067 6.00398 0
M  V30 9825 H 924.321 2.1027 4.18215 0
M  V30 9826 H 924.494 3.13433 5.67154 0
M  V30 9827 N 917.9 -1.47166 0.563914 0
M  V30 9828 C 919.146 -2.02756 0.0424338 0
M  V30 9829 C 919.479 -1.43662 -1.3067 0
M  V30 9830 O 918.754 -0.594676 -1.85186 0
M  V30 9831 C 919.037 -3.60074 -0.0434793 0
M  V30 9832 C 918.89 -4.29587 1.33323 0
M  V30 9833 C 920.209 -4.336 -0.753568 0
M  V30 9834 H 917.328 -0.736806 0.0168946 0
M  V30 9835 H 919.97 -1.75521 0.727496 0
M  V30 9836 H 918.12 -3.83409 -0.626906 0
M  V30 9837 H 919.792 -4.17573 1.96037 0
M  V30 9838 H 918.035 -3.8968 1.9061 0
M  V30 9839 H 918.706 -5.38218 1.22576 0
M  V30 9840 H 921.182 -4.15299 -0.258126 0
M  V30 9841 H 920.058 -5.43291 -0.782659 0
M  V30 9842 H 920.319 -4.03302 -1.81108 0
M  V30 9843 N 919.378 -0.300708 -1.54705 0
M  V30 9844 C 920.326 0.591264 -2.2496 0
M  V30 9845 C 921.32 1.13725 -1.2555 0
M  V30 9846 O 922.526 1.08793 -1.43402 0
M  V30 9847 H 918.901 0.209278 -0.722293 0
M  V30 9848 H 920.872 -0.0238175 -2.9839 0
M  V30 9849 C 919.621 1.75179 -3.00346 0
M  V30 9850 H 918.944 1.34089 -3.76643 0
M  V30 9851 H 920.384 2.35198 -3.52786 0
M  V30 9852 C 918.843 2.65574 -2.07298 0
M  V30 9853 O 919.373 3.6666 -1.64083 0
M  V30 9854 N 917.579 2.33301 -1.7326 0
M  V30 9855 H 917.126 1.51142 -2.08599 0
M  V30 9856 H 917.084 2.94049 -1.11278 0
M  V30 9857 N 920.856 1.57574 -0.0284266 0
M  V30 9858 C 921.806 2.06674 0.962804 0
M  V30 9859 C 922.79 0.967115 1.28591 0
M  V30 9860 O 923.982 1.23068 1.27214 0
M  V30 9861 C 921.111 2.59682 2.24545 0
M  V30 9862 C 920.197 3.76573 1.95073 0
M  V30 9863 N 920.588 4.8721 1.35869 0
M  V30 9864 C 918.886 3.85046 2.25068 0
M  V30 9865 C 919.587 5.68436 1.23514 0
M  V30 9866 N 918.563 5.15323 1.73041 0
M  V30 9867 H 922.365 2.89615 0.500013 0
M  V30 9868 H 919.879 1.61437 0.176604 0
M  V30 9869 H 921.876 2.93148 2.96428 0
M  V30 9870 H 920.536 1.7817 2.71451 0
M  V30 9871 H 921.547 5.07477 1.03379 0
M  V30 9872 H 918.224 3.14439 2.74653 0
M  V30 9873 H 919.614 6.67387 0.777403 0
M  V30 9874 N 922.334 -0.244713 1.55689 0
M  V30 9875 C 923.297 -1.2864 1.89695 0
M  V30 9876 C 924.297 -1.40969 0.773583 0
M  V30 9877 O 925.487 -1.39632 1.04156 0
M  V30 9878 C 922.619 -2.66379 2.12732 0
M  V30 9879 H 923.812 -0.997033 2.82841 0
M  V30 9880 H 921.365 -0.484103 1.48614 0
M  V30 9881 H 922.1 -3.00452 1.22062 0
M  V30 9882 H 921.885 -2.58812 2.94549 0
M  V30 9883 H 923.375 -3.41592 2.40218 0
M  V30 9884 N 923.813 -1.49104 -0.510467 0
M  V30 9885 C 925.062 -1.57362 -1.26175 0
M  V30 9886 C 925.375 -0.261218 -1.93848 0
M  V30 9887 O 926.581 -0.222238 -2.70589 0
M  V30 9888 C 925.037 -2.77606 -2.29048 0
M  V30 9889 C 924.645 -4.15567 -1.67357 0
M  V30 9890 C 926.389 -2.95188 -3.05064 0
M  V30 9891 C 924.296 -5.27046 -2.68285 0
M  V30 9892 H 923.226 -0.585887 -0.474608 0
M  V30 9893 H 925.877 -1.75474 -0.536753 0
M  V30 9894 H 924.259 -2.52968 -3.04669 0
M  V30 9895 H 925.433 -4.50304 -0.977924 0
M  V30 9896 H 923.748 -4.03264 -1.03765 0
M  V30 9897 H 926.345 -3.75643 -3.80521 0
M  V30 9898 H 926.688 -2.05385 -3.62108 0
M  V30 9899 H 927.221 -3.19821 -2.36558 0
M  V30 9900 H 923.96 -6.18878 -2.16034 0
M  V30 9901 H 923.48 -4.96774 -3.36118 0
M  V30 9902 H 925.159 -5.55983 -3.30896 0
M  V30 9903 N 925.291 0.760815 -1.38019 0
M  V30 9904 C 926.537 1.52198 -1.34028 0
M  V30 9905 C 926.87 1.94067 0.0718309 0
M  V30 9906 O 926.145 1.64895 1.0315 0
M  V30 9907 C 926.428 2.77954 -2.2894 0
M  V30 9908 C 926.281 2.42269 -3.7898 0
M  V30 9909 C 927.6 3.79943 -2.22107 0
M  V30 9910 H 924.719 0.552131 -0.488181 0
M  V30 9911 H 927.361 0.871971 -1.6881 0
M  V30 9912 H 925.511 3.33419 -1.9941 0
M  V30 9913 H 927.183 1.92635 -4.19153 0
M  V30 9914 H 925.426 1.74822 -3.97014 0
M  V30 9915 H 926.097 3.32211 -4.4084 0
M  V30 9916 H 928.573 3.34 -2.4816 0
M  V30 9917 H 927.449 4.6564 -2.90639 0
M  V30 9918 H 927.71 4.25004 -1.21753 0
M  V30 9919 N 926.769 1.22769 0.988202 0
M  V30 9920 C 927.699 1.02627 2.09738 0
M  V30 9921 C 928.68 -0.0543211 1.70013 0
M  V30 9922 O 929.865 0.108811 1.93895 0
M  V30 9923 C 926.995 0.608302 3.41931 0
M  V30 9924 C 925.949 1.63536 3.95525 0
M  V30 9925 C 925.275 1.07308 5.23822 0
M  V30 9926 C 926.575 3.02649 4.25677 0
M  V30 9927 H 928.269 1.954 2.26847 0
M  V30 9928 H 925.815 0.940888 1.09011 0
M  V30 9929 H 927.768 0.454478 4.18942 0
M  V30 9930 H 926.492 -0.355095 3.24664 0
M  V30 9931 H 925.151 1.77704 3.20651 0
M  V30 9932 H 924.799 0.100894 5.02899 0
M  V30 9933 H 924.499 1.75925 5.60646 0
M  V30 9934 H 926.023 0.930938 6.03462 0
M  V30 9935 H 927.437 2.91828 4.93467 0
M  V30 9936 H 925.834 3.68434 4.73684 0
M  V30 9937 H 926.904 3.52228 3.33262 0
M  V30 9938 N 928.247 -1.18576 1.03814 0
M  V30 9939 C 929.177 -2.24334 0.647795 0
M  V30 9940 C 930.158 -1.66508 -0.34774 0
M  V30 9941 O 931.343 -1.92852 -0.228401 0
M  V30 9942 C 928.473 -3.47299 0.00734922 0
M  V30 9943 C 927.427 -4.17859 0.926152 0
M  V30 9944 C 926.753 -5.34489 0.150317 0
M  V30 9945 C 928.053 -4.71632 2.24411 0
M  V30 9946 H 929.747 -2.57241 1.53191 0
M  V30 9947 H 927.293 -1.23649 0.738028 0
M  V30 9948 H 929.246 -4.20486 -0.277434 0
M  V30 9949 H 927.97 -3.13619 -0.911626 0
M  V30 9950 H 926.629 -3.46567 1.19528 0
M  V30 9951 H 926.277 -4.97056 -0.770985 0
M  V30 9952 H 925.977 -5.82633 0.762407 0
M  V30 9953 H 927.501 -6.10467 -0.127508 0
M  V30 9954 H 928.915 -5.36526 2.02021 0
M  V30 9955 H 927.312 -5.303 2.80894 0
M  V30 9956 H 928.382 -3.89192 2.89236 0
M  V30 9957 N 929.725 -0.817259 -1.34754 0
M  V30 9958 C 930.973 -0.401852 -1.98065 0
M  V30 9959 C 931.294 1.03718 -1.65129 0
M  V30 9960 O 930.564 1.71921 -0.939141 0
M  V30 9961 H 929.144 -0.145603 -0.732672 0
M  V30 9962 H 931.806 -1.04545 -1.64488 0
M  V30 9963 H 930.902 -0.516241 -3.07801 0
M  V30 9964 N 931.203 1.46865 -0.571711 0
M  V30 9965 C 932.449 2.03307 -0.0614759 0
M  V30 9966 C 932.804 1.43657 1.27986 0
M  V30 9967 O 932.097 0.588186 1.82348 0
M  V30 9968 C 932.291 3.57323 0.0742311 0
M  V30 9969 C 932.12 4.31909 -1.2524 0
M  V30 9970 C 930.89 4.71246 -1.82361 0
M  V30 9971 C 933.088 4.66137 -2.17304 0
M  V30 9972 N 931.07 5.30535 -3.08878 0
M  V30 9973 C 932.441 5.25881 -3.28404 0
M  V30 9974 C 934.496 4.48066 -2.1712 0
M  V30 9975 C 933.199 5.69461 -4.39439 0
M  V30 9976 C 935.225 4.92656 -3.27176 0
M  V30 9977 C 934.587 5.52461 -4.36997 0
M  V30 9978 H 930.686 0.779293 -0.0650098 0
M  V30 9979 H 933.27 1.79161 -0.762192 0
M  V30 9980 H 931.441 3.81206 0.744095 0
M  V30 9981 H 933.173 4.00408 0.587849 0
M  V30 9982 H 929.928 4.53658 -1.35985 0
M  V30 9983 H 930.352 5.64711 -3.73404 0
M  V30 9984 H 934.994 4.01173 -1.33492 0
M  V30 9985 H 932.712 6.15338 -5.23817 0
M  V30 9986 H 936.298 4.80433 -3.28139 0
M  V30 9987 H 935.178 5.86334 -5.20752 0
M  V30 9988 N 932.681 0.308908 1.54543 0
M  V30 9989 C 933.929 -0.297447 1.99899 0
M  V30 9990 C 934.25 -1.53799 1.19878 0
M  V30 9991 O 933.52 -1.93639 0.29678 0
M  V30 9992 H 932.1 -0.112897 0.738419 0
M  V30 9993 H 934.762 0.422067 1.90275 0
M  V30 9994 H 933.858 -0.564016 3.06961 0
M  V30 9995 N 934.159 -1.57557 0.0367827 0
M  V30 9996 C 935.069 -2.14148 -0.958017 0
M  V30 9997 C 936.085 -1.09564 -1.35173 0
M  V30 9998 O 937.261 -1.4166 -1.43158 0
M  V30 9999 C 934.326 -2.6636 -2.21931 0
M  V30 10000 C 933.387 -3.85688 -1.8853 0
M  V30 10001 C 932.62 -4.35401 -3.08645 0
M  V30 10002 O 932.843 -3.8425 -4.21554 0
M  V30 10003 O 931.777 -5.27158 -2.90497 0
M  V30 10004 H 935.603 -2.99442 -0.506797 0
M  V30 10005 H 933.188 -1.48259 -0.184275 0
M  V30 10006 H 935.07 -2.99976 -2.9596 0
M  V30 10007 H 933.745 -1.84145 -2.66219 0
M  V30 10008 H 932.652 -3.56985 -1.11861 0
M  V30 10009 H 933.985 -4.69089 -1.49052 0
M  V30 10010 N 935.637 0.236453 -1.55816 0
M  V30 10011 C 936.547 1.31418 -1.94336 0
M  V30 10012 C 937.563 1.52095 -0.845164 0
M  V30 10013 O 938.739 1.65515 -1.14746 0
M  V30 10014 C 935.804 2.6468 -2.23932 0
M  V30 10015 C 934.865 2.52435 -3.47239 0
M  V30 10016 C 934.098 3.79342 -3.75414 0
M  V30 10017 O 934.321 4.81694 -3.05495 0
M  V30 10018 O 933.255 3.77347 -4.68927 0
M  V30 10019 H 937.081 1.01739 -2.86152 0
M  V30 10020 H 934.666 0.438084 -1.42833 0
M  V30 10021 H 936.548 3.4341 -2.44228 0
M  V30 10022 H 935.223 2.94071 -1.35292 0
M  V30 10023 H 934.13 1.71955 -3.32238 0
M  V30 10024 H 935.463 2.27987 -4.36214 0
M  V30 10025 N 937.115 1.49373 0.502552 0
M  V30 10026 C 938.025 1.68659 1.63068 0
M  V30 10027 C 939.041 0.569182 1.64427 0
M  V30 10028 O 940.217 0.843695 1.82876 0
M  V30 10029 C 937.282 1.74745 2.99441 0
M  V30 10030 C 936.343 2.98311 3.08721 0
M  V30 10031 C 935.576 3.04097 4.38589 0
M  V30 10032 O 935.799 2.17519 5.27297 0
M  V30 10033 O 934.733 3.96544 4.52809 0
M  V30 10034 H 938.559 2.64226 1.49727 0
M  V30 10035 H 936.144 1.33096 0.67867 0
M  V30 10036 H 938.026 1.8111 3.80496 0
M  V30 10037 H 936.701 0.823565 3.13048 0
M  V30 10038 H 935.608 2.97465 2.2686 0
M  V30 10039 H 936.941 3.90174 3.00041 0
M  V30 10040 N 938.594 -0.753485 1.38421 0
M  V30 10041 C 939.843 -1.50797 1.33952 0
M  V30 10042 C 940.156 -1.95482 -0.0678464 0
M  V30 10043 O 941.362 -2.7048 -0.235078 0
M  V30 10044 C 939.818 -2.72393 2.35224 0
M  V30 10045 C 939.426 -2.34733 3.81582 0
M  V30 10046 C 941.17 -3.50281 2.39798 0
M  V30 10047 C 939.077 -3.52939 4.7454 0
M  V30 10048 H 938.007 -0.566211 0.497916 0
M  V30 10049 H 940.658 -0.823659 1.63976 0
M  V30 10050 H 939.04 -3.42806 1.98243 0
M  V30 10051 H 940.214 -1.71985 4.27502 0
M  V30 10052 H 938.529 -1.69978 3.80127 0
M  V30 10053 H 941.126 -4.38172 3.06447 0
M  V30 10054 H 941.469 -3.91444 1.41695 0
M  V30 10055 H 942.002 -2.86881 2.75579 0
M  V30 10056 H 938.741 -3.16843 5.73839 0
M  V30 10057 H 938.261 -4.1473 4.33312 0
M  V30 10058 H 939.94 -4.19519 4.92557 0
M  V30 10059 N 940.072 -1.23292 -0.981677 0
M  V30 10060 C 941.02 -1.0104 -2.09508 0
M  V30 10061 C 942.014 0.0501977 -1.69326 0
M  V30 10062 O 943.22 -0.103197 -1.79704 0
M  V30 10063 H 939.595 -0.309629 -0.685298 0
M  V30 10064 H 941.566 -1.95493 -2.25444 0
M  V30 10065 C 940.315 -0.616885 -3.42184 0
M  V30 10066 H 939.638 -1.4247 -3.73554 0
M  V30 10067 H 941.078 -0.500688 -4.21033 0
M  V30 10068 C 939.537 0.674721 -3.30074 0
M  V30 10069 O 940.067 1.72421 -3.62814 0
M  V30 10070 N 938.273 0.650151 -2.83234 0
M  V30 10071 H 937.82 -0.204225 -2.56789 0
M  V30 10072 H 937.778 1.51458 -2.75514 0
M  V30 10073 N 941.55 1.18024 -1.04442 0
M  V30 10074 C 942.798 1.87727 -0.74854 0
M  V30 10075 C 943.119 1.80975 0.726156 0
M  V30 10076 O 942.389 1.23061 1.52423 0
M  V30 10077 H 940.969 0.694974 -0.273897 0
M  V30 10078 H 943.631 1.43213 -1.32197 0
M  V30 10079 H 942.727 2.93665 -1.05674 0
M  V30 10080 N 943.028 0.824394 1.34319 0
M  V30 10081 C 943.975 0.245282 2.29493 0
M  V30 10082 C 944.945 -0.630762 1.53657 0
M  V30 10083 O 946.13 -0.572094 1.82021 0
M  V30 10084 C 943.27 -0.585631 3.40095 0
M  V30 10085 C 942.383 0.312821 4.30866 0
M  V30 10086 C 941.518 -0.527801 5.28571 0
M  V30 10087 C 940.557 0.369946 6.10981 0
M  V30 10088 N 939.694 -0.43169 7.00772 0
M  V30 10089 H 944.534 1.06225 2.78425 0
M  V30 10090 H 942.071 0.53533 1.37013 0
M  V30 10091 H 944.029 -1.08271 4.02906 0
M  V30 10092 H 942.659 -1.3677 2.92393 0
M  V30 10093 H 941.711 0.928129 3.68904 0
M  V30 10094 H 943.023 1.00306 4.8861 0
M  V30 10095 H 942.177 -1.0893 5.96841 0
M  V30 10096 H 940.916 -1.25154 4.71368 0
M  V30 10097 H 939.921 0.943577 5.41643 0
M  V30 10098 H 941.146 1.09182 6.70266 0
M  V30 10099 H 939.092 -1.13908 6.46035 0
M  V30 10100 H 939.009 0.200133 7.55735 0
M  V30 10101 H 940.277 -0.975894 7.73367 0
M  V30 10102 N 944.506 -1.46559 0.579492 0
M  V30 10103 C 945.436 -2.33059 -0.143437 0
M  V30 10104 C 946.417 -1.4515 -0.886868 0
M  V30 10105 O 947.602 -1.73973 -0.862961 0
M  V30 10106 C 944.732 -3.27364 -1.15973 0
M  V30 10107 C 943.686 -4.24689 -0.531348 0
M  V30 10108 C 943.012 -5.08479 -1.65388 0
M  V30 10109 C 944.312 -5.1961 0.529391 0
M  V30 10110 H 946.006 -2.93753 0.578762 0
M  V30 10111 H 943.552 -1.41256 0.279775 0
M  V30 10112 H 945.505 -3.86732 -1.67382 0
M  V30 10113 H 944.229 -2.64771 -1.91217 0
M  V30 10114 H 942.888 -3.6658 -0.0383749 0
M  V30 10115 H 942.536 -4.42273 -2.3959 0
M  V30 10116 H 942.236 -5.74387 -1.23909 0
M  V30 10117 H 943.76 -5.70709 -2.17079 0
M  V30 10118 H 945.174 -5.73212 0.100506 0
M  V30 10119 H 943.571 -5.93843 0.86432 0
M  V30 10120 H 944.641 -4.63737 1.4169 0
M  V30 10121 N 945.984 -0.3171 -1.54377 0
M  V30 10122 C 947.214 0.289138 -2.04567 0
M  V30 10123 C 947.622 1.46833 -1.19318 0
M  V30 10124 O 946.965 1.82436 -0.215141 0
M  V30 10125 C 947.027 0.792994 -3.50645 0
M  V30 10126 C 946.691 -0.263033 -4.56242 0
M  V30 10127 C 947.688 -1.09694 -5.08196 0
M  V30 10128 C 945.373 -0.409364 -5.00629 0
M  V30 10129 C 947.367 -2.06297 -6.03092 0
M  V30 10130 C 945.054 -1.37882 -5.95342 0
M  V30 10131 C 946.052 -2.20409 -6.46459 0
M  V30 10132 O 945.74 -3.15708 -7.39313 0
M  V30 10133 H 945.472 0.0644005 -0.672925 0
M  V30 10134 H 948.026 -0.459438 -2.00196 0
M  V30 10135 H 946.256 1.59237 -3.52392 0
M  V30 10136 H 947.945 1.31687 -3.83944 0
M  V30 10137 H 948.711 -0.994842 -4.74687 0
M  V30 10138 H 944.59 0.223091 -4.6046 0
M  V30 10139 H 948.134 -2.70751 -6.42915 0
M  V30 10140 H 944.031 -1.48158 -6.28267 0
M  V30 10141 H 944.799 -3.10873 -7.57166 0
M  V30 10142 N 947.462 1.57535 -0.0451378 0
M  V30 10143 C 948.409 2.11176 0.931313 0
M  V30 10144 C 949.379 1.01765 1.31275 0
M  V30 10145 O 950.564 1.29279 1.40327 0
M  V30 10146 C 947.704 2.65639 2.20295 0
M  V30 10147 C 946.817 3.89114 1.87654 0
M  V30 10148 C 945.952 4.31914 3.09232 0
M  V30 10149 C 944.991 5.48105 2.72484 0
M  V30 10150 N 944.128 5.85986 3.86736 0
M  V30 10151 H 948.968 2.94318 0.466986 0
M  V30 10152 H 946.505 1.45462 0.218886 0
M  V30 10153 H 948.463 2.95312 2.94697 0
M  V30 10154 H 947.093 1.85303 2.64316 0
M  V30 10155 H 946.145 3.6607 1.03427 0
M  V30 10156 H 947.457 4.7358 1.56601 0
M  V30 10157 H 946.611 4.63108 3.91939 0
M  V30 10158 H 945.35 3.46247 3.43459 0
M  V30 10159 H 944.355 5.16589 1.88192 0
M  V30 10160 H 945.58 6.35482 2.39455 0
M  V30 10161 H 943.526 5.03273 4.20775 0
M  V30 10162 H 943.443 6.65129 3.5936 0
M  V30 10163 H 944.711 6.21793 4.701 0
M  V30 10164 N 948.94 -0.228186 1.55939 0
M  V30 10165 C 950.17 -0.969211 1.82455 0
M  V30 10166 C 950.578 -1.78714 0.621133 0
M  V30 10167 O 949.921 -1.78841 -0.419694 0
M  V30 10168 C 949.983 -1.94088 3.02605 0
M  V30 10169 C 949.647 -1.30811 4.37878 0
M  V30 10170 C 950.644 -0.701275 5.15149 0
M  V30 10171 C 948.329 -1.32187 4.84595 0
M  V30 10172 C 950.323 -0.116631 6.37293 0
M  V30 10173 C 948.01 -0.733375 6.06683 0
M  V30 10174 C 949.008 -0.131804 6.82873 0
M  V30 10175 O 948.696 0.447549 8.02653 0
M  V30 10176 H 948.428 -0.289951 0.610659 0
M  V30 10177 H 950.982 -0.250576 2.03866 0
M  V30 10178 H 949.212 -2.69833 2.76996 0
M  V30 10179 H 950.901 -2.5469 3.1605 0
M  V30 10180 H 951.667 -0.683022 4.80166 0
M  V30 10181 H 947.546 -1.77949 4.25271 0
M  V30 10182 H 951.09 0.353539 6.96704 0
M  V30 10183 H 946.987 -0.749019 6.4114 0
M  V30 10184 H 947.755 0.341224 8.17788 0
M  V30 10185 N 950.418 -1.49637 -0.494624 0
M  V30 10186 C 951.664 -1.60654 -1.24747 0
M  V30 10187 C 952.019 -0.292376 -1.90166 0
M  V30 10188 O 951.312 0.707918 -1.78042 0
M  V30 10189 C 951.506 -2.70749 -2.33302 0
M  V30 10190 C 951.335 -4.12744 -1.7853 0
M  V30 10191 C 950.105 -4.79451 -1.59546 0
M  V30 10192 C 952.303 -4.97767 -1.29353 0
M  V30 10193 N 950.285 -6.05738 -0.997702 0
M  V30 10194 C 951.656 -6.14587 -0.817517 0
M  V30 10195 C 953.711 -4.83719 -1.17986 0
M  V30 10196 C 952.414 -7.18903 -0.23907 0
M  V30 10197 C 954.44 -5.8819 -0.615375 0
M  V30 10198 C 953.802 -7.04241 -0.149622 0
M  V30 10199 H 949.901 -0.642198 -0.446213 0
M  V30 10200 H 952.485 -1.86668 -0.553469 0
M  V30 10201 H 950.656 -2.46497 -3.00156 0
M  V30 10202 H 952.388 -2.71253 -3.0034 0
M  V30 10203 H 949.143 -4.36354 -1.84098 0
M  V30 10204 H 949.567 -6.73183 -0.717911 0
M  V30 10205 H 954.209 -3.94304 -1.52592 0
M  V30 10206 H 951.927 -8.08012 0.11925 0
M  V30 10207 H 955.513 -5.7938 -0.530114 0
M  V30 10208 H 954.393 -7.83699 0.280349 0
M  V30 10209 N 951.896 0.746133 -1.38819 0
M  V30 10210 C 953.145 1.50085 -1.34749 0
M  V30 10211 C 953.458 1.95516 0.0574786 0
M  V30 10212 O 954.664 2.70601 0.22073 0
M  V30 10213 C 953.12 2.71141 -2.36665 0
M  V30 10214 C 952.728 2.32706 -3.82821 0
M  V30 10215 C 954.472 3.49005 -2.41652 0
M  V30 10216 C 952.379 3.50418 -4.76405 0
M  V30 10217 H 951.309 0.563563 -0.500912 0
M  V30 10218 H 953.96 0.814951 -1.6441 0
M  V30 10219 H 952.342 3.4175 -2.00058 0
M  V30 10220 H 953.516 1.69715 -4.28408 0
M  V30 10221 H 951.831 1.67959 -3.81023 0
M  V30 10222 H 954.428 4.36541 -3.08766 0
M  V30 10223 H 954.771 3.90687 -1.43769 0
M  V30 10224 H 955.304 2.85416 -2.77097 0
M  V30 10225 H 952.043 3.13795 -5.75511 0
M  V30 10226 H 951.563 4.12426 -4.35505 0
M  V30 10227 H 953.242 4.16901 -4.94775 0
M  V30 10228 N 953.375 1.23811 0.975125 0
M  V30 10229 C 954.623 1.07124 1.71373 0
M  V30 10230 C 954.944 -0.391864 1.91022 0
M  V30 10231 O 954.214 -1.28041 1.48265 0
M  V30 10232 H 952.794 0.393415 0.635007 0
M  V30 10233 H 955.456 1.55612 1.17349 0
M  V30 10234 H 954.552 1.56338 2.7012 0
M  V30 10235 N 954.853 -1.17469 1.05066 0
M  V30 10236 C 956.269 -1.39699 0.771769 0
M  V30 10237 C 956.469 -1.91253 -0.634382 0
M  V30 10238 O 955.525 -2.10334 -1.39699 0
M  V30 10239 C 956.838 -2.38886 1.82631 0
M  V30 10240 C 958.386 -2.52595 1.84838 0
M  V30 10241 C 958.861 -3.55054 2.89311 0
M  V30 10242 N 960.352 -3.6257 2.88266 0
M  V30 10243 C 961.087 -4.41603 3.65752 0
M  V30 10244 N 960.583 -5.24162 4.53019 0
M  V30 10245 N 962.376 -4.36464 3.54197 0
M  V30 10246 H 954.527 -0.823355 1.95792 0
M  V30 10247 H 956.79 -0.42432 0.847736 0
M  V30 10248 H 956.496 -2.08075 2.83545 0
M  V30 10249 H 956.37 -3.38371 1.66687 0
M  V30 10250 H 958.757 -2.82717 0.845888 0
M  V30 10251 H 958.838 -1.53188 2.04859 0
M  V30 10252 H 958.482 -3.2567 3.89745 0
M  V30 10253 H 958.412 -4.54162 2.66542 0
M  V30 10254 H 960.903 -3.03625 2.24989 0
M  V30 10255 H 961.216 -5.81646 5.0883 0
M  V30 10256 H 959.561 -5.23547 4.57081 0
M  V30 10257 H 962.752 -3.7102 2.85416 0
M  V30 10258 H 962.925 -4.97814 4.14832 0
M  V30 10259 N 956.331 -0.831506 -1.3388 0
M  V30 10260 C 957.279 -0.247896 -2.31275 0
M  V30 10261 C 958.273 0.616083 -1.578 0
M  V30 10262 O 959.479 0.506465 -1.72728 0
M  V30 10263 H 955.854 -0.0614293 -0.749487 0
M  V30 10264 H 957.825 -1.08401 -2.78014 0
M  V30 10265 C 956.574 0.568434 -3.43022 0
M  V30 10266 H 955.897 -0.0870654 -3.99705 0
M  V30 10267 H 957.337 0.942751 -4.13386 0
M  V30 10268 C 955.796 1.74431 -2.88228 0
M  V30 10269 O 956.326 2.84278 -2.83811 0
M  V30 10270 N 954.532 1.56382 -2.44935 0
M  V30 10271 H 954.079 0.670255 -2.48727 0
M  V30 10272 H 954.037 2.35208 -2.08625 0
M  V30 10273 N 957.809 1.4625 -0.587256 0
M  V30 10274 C 959.034 2.07252 -0.0784517 0
M  V30 10275 C 959.459 1.43239 1.21919 0
M  V30 10276 O 958.817 0.517791 1.73749 0
M  V30 10277 C 958.865 3.60534 0.0691037 0
M  V30 10278 O 957.969 3.96773 1.12448 0
M  V30 10279 H 957.31 0.660825 -0.064859 0
M  V30 10280 H 959.84 1.87819 -0.811491 0
M  V30 10281 H 959.85 4.0708 0.273826 0
M  V30 10282 H 958.525 4.06516 -0.878514 0
M  V30 10283 H 957.102 3.6193 0.897852 0
M  V30 10284 N 959.287 0.325282 1.54207 0
M  V30 10285 C 960.533 -0.269944 2.01601 0
M  V30 10286 C 960.888 -1.49643 1.20933 0
M  V30 10287 O 960.181 -1.89486 0.283838 0
M  V30 10288 C 960.375 -0.654292 3.5136 0
M  V30 10289 C 960.204 0.533397 4.46525 0
M  V30 10290 C 958.974 1.03304 4.94628 0
M  V30 10291 C 961.172 1.38613 4.95269 0
M  V30 10292 N 959.154 2.18495 5.73701 0
M  V30 10293 C 960.525 2.38519 5.72284 0
M  V30 10294 C 962.58 1.41369 4.77409 0
M  V30 10295 C 961.283 3.40988 6.3334 0
M  V30 10296 C 963.309 2.4271 5.39301 0
M  V30 10297 C 962.671 3.41343 6.16169 0
M  V30 10298 H 958.77 -0.0625778 0.779492 0
M  V30 10299 H 961.354 0.460711 1.89171 0
M  V30 10300 H 959.525 -1.35408 3.64032 0
M  V30 10301 H 961.257 -1.23114 3.85519 0
M  V30 10302 H 958.012 0.604045 4.69732 0
M  V30 10303 H 958.436 2.76605 6.17915 0
M  V30 10304 H 963.078 0.664796 4.17541 0
M  V30 10305 H 960.796 4.16784 6.92327 0
M  V30 10306 H 964.382 2.45647 5.27398 0
M  V30 10307 H 963.262 4.18476 6.6321 0
M  V30 10308 N 960.765 -1.57509 0.0534917 0
M  V30 10309 C 962.013 -1.92402 -0.618548 0
M  V30 10310 C 962.334 -0.93273 -1.71246 0
M  V30 10311 O 961.604 0.0220495 -1.95888 0
M  V30 10312 H 960.184 -0.710233 -0.23147 0
M  V30 10313 H 962.846 -1.94606 0.10704 0
M  V30 10314 H 961.942 -2.93704 -1.05566 0
M  V30 10315 N 962.243 0.219913 -1.56058 0
M  V30 10316 C 963.191 1.29215 -1.93407 0
M  V30 10317 C 964.185 1.48434 -0.816307 0
M  V30 10318 O 965.391 1.49589 -1.00115 0
M  V30 10319 H 961.766 0.433256 -0.614649 0
M  V30 10320 H 963.737 0.949977 -2.82875 0
M  V30 10321 C 962.486 2.63501 -2.26854 0
M  V30 10322 H 961.809 2.4952 -3.12377 0
M  V30 10323 H 963.249 3.37334 -2.56869 0
M  V30 10324 C 961.708 3.18634 -1.09425 0
M  V30 10325 O 962.238 4.00117 -0.356243 0
M  V30 10326 N 960.444 2.7703 -0.877642 0
M  V30 10327 H 959.991 2.10875 -1.47951 0
M  V30 10328 H 959.949 3.1426 -0.0936792 0
M  V30 10329 N 963.721 1.49897 0.486681 0
M  V30 10330 C 964.969 1.59789 1.23742 0
M  V30 10331 C 965.29 0.293056 1.92785 0
M  V30 10332 O 964.56 -0.688534 1.83401 0
M  V30 10333 H 963.14 0.588775 0.459731 0
M  V30 10334 H 965.802 1.86597 0.562808 0
M  V30 10335 H 964.898 2.40121 1.9937 0
M  V30 10336 N 965.199 -0.738761 1.39212 0
M  V30 10337 C 966.445 -1.49942 1.37437 0
M  V30 10338 C 966.8 -1.92375 -0.0309496 0
M  V30 10339 O 966.093 -1.63635 -0.996706 0
M  V30 10340 C 966.287 -2.75435 2.2775 0
M  V30 10341 C 966.116 -2.45273 3.76924 0
M  V30 10342 C 964.886 -2.37755 4.45871 0
M  V30 10343 C 967.084 -2.11064 4.68995 0
M  V30 10344 N 965.066 -2.00023 5.804 0
M  V30 10345 C 966.437 -1.83746 5.92147 0
M  V30 10346 C 968.492 -1.975 4.57054 0
M  V30 10347 C 967.195 -1.4423 7.04692 0
M  V30 10348 C 969.221 -1.59388 5.69517 0
M  V30 10349 C 968.583 -1.32951 6.91739 0
M  V30 10350 H 964.682 -0.547671 0.558194 0
M  V30 10351 H 967.266 -0.858925 1.7473 0
M  V30 10352 H 965.437 -3.3727 1.92622 0
M  V30 10353 H 967.169 -3.41607 2.16995 0
M  V30 10354 H 963.924 -2.54725 3.99264 0
M  V30 10355 H 964.348 -1.83761 6.51583 0
M  V30 10356 H 968.99 -2.16609 3.63099 0
M  V30 10357 H 966.708 -1.23863 7.98551 0
M  V30 10358 H 970.294 -1.49504 5.62263 0
M  V30 10359 H 969.174 -1.039 7.77287 0
M  V30 10360 N 966.677 -1.24326 -0.968545 0
M  V30 10361 C 967.925 -1.08032 -1.70803 0
M  V30 10362 C 968.246 0.381728 -1.91227 0
M  V30 10363 O 967.516 1.27253 -1.48942 0
M  V30 10364 H 966.096 -0.396777 -0.632912 0
M  V30 10365 H 968.758 -1.56232 -1.16523 0
M  V30 10366 H 967.854 -1.57769 -2.69287 0
M  V30 10367 N 968.156 1.1691 -1.05688 0
M  V30 10368 C 969.103 2.21095 -0.662246 0
M  V30 10369 C 970.073 1.62623 0.338083 0
M  V30 10370 O 971.258 1.89428 0.228362 0
M  V30 10371 C 968.398 3.45066 -0.0484018 0
M  V30 10372 C 967.511 4.17809 -1.09817 0
M  V30 10373 C 966.646 5.29281 -0.451114 0
M  V30 10374 C 965.685 5.93817 -1.48484 0
M  V30 10375 N 964.822 6.96793 -0.861588 0
M  V30 10376 H 969.662 2.54204 -1.55513 0
M  V30 10377 H 967.199 1.24863 -0.777665 0
M  V30 10378 H 969.157 4.15932 0.324978 0
M  V30 10379 H 967.787 3.12526 0.807918 0
M  V30 10380 H 966.839 3.45608 -1.58932 0
M  V30 10381 H 968.151 4.61907 -1.88265 0
M  V30 10382 H 967.305 6.06695 -0.0244251 0
M  V30 10383 H 966.044 4.8633 0.365306 0
M  V30 10384 H 965.049 5.1513 -1.92149 0
M  V30 10385 H 966.274 6.38848 -2.30325 0
M  V30 10386 H 964.22 6.55967 -0.0657688 0
M  V30 10387 H 964.137 7.39229 -1.58354 0
M  V30 10388 H 965.405 7.78142 -0.45984 0
M  V30 10389 N 969.634 0.838594 1.33437 0
M  V30 10390 C 970.544 0.274048 2.32994 0
M  V30 10391 C 971.56 -0.599776 1.63336 0
M  V30 10392 O 972.736 -0.503963 1.94993 0
M  V30 10393 C 969.801 -0.541804 3.4244 0
M  V30 10394 C 968.862 0.356262 4.27819 0
M  V30 10395 C 968.095 -0.420747 5.32039 0
M  V30 10396 O 968.318 -1.65247 5.45939 0
M  V30 10397 O 967.252 0.205101 6.0155 0
M  V30 10398 H 971.078 1.09846 2.83139 0
M  V30 10399 H 968.663 0.601111 1.36774 0
M  V30 10400 H 970.545 -1.00544 4.0923 0
M  V30 10401 H 969.22 -1.34328 2.94513 0
M  V30 10402 H 968.127 0.867726 3.63897 0
M  V30 10403 H 969.46 1.1225 4.79229 0
M  V30 10404 N 971.112 -1.45937 0.595003 0
M  V30 10405 C 972.36 -2.01921 0.0851368 0
M  V30 10406 C 972.681 -1.46748 -1.28413 0
M  V30 10407 O 971.951 -0.656873 -1.84559 0
M  V30 10408 H 970.531 -0.746457 0.0284826 0
M  V30 10409 H 973.193 -1.78891 0.773561 0
M  V30 10410 H 972.289 -3.1209 0.0254002 0
M  V30 10411 N 972.59 -0.333456 -1.54032 0
M  V30 10412 C 973.82 0.267425 -2.04862 0
M  V30 10413 C 974.228 1.45559 -1.20869 0
M  V30 10414 O 973.571 1.82197 -0.234478 0
M  V30 10415 C 973.633 0.755759 -3.51466 0
M  V30 10416 C 973.297 -0.311409 -4.55938 0
M  V30 10417 C 974.294 -1.15078 -5.07004 0
M  V30 10418 C 971.979 -0.462439 -5.00167 0
M  V30 10419 C 973.973 -2.12682 -6.0087 0
M  V30 10420 C 971.66 -1.44188 -5.93846 0
M  V30 10421 C 972.658 -2.27253 -6.44085 0
M  V30 10422 O 972.346 -3.23532 -7.35923 0
M  V30 10423 H 972.078 0.0572596 -0.673571 0
M  V30 10424 H 974.632 -0.480646 -1.99697 0
M  V30 10425 H 972.862 1.55491 -3.54062 0
M  V30 10426 H 974.551 1.27607 -3.8532 0
M  V30 10427 H 975.317 -1.04513 -4.73605 0
M  V30 10428 H 971.196 0.17424 -4.60671 0
M  V30 10429 H 974.74 -2.77555 -6.40007 0
M  V30 10430 H 970.637 -1.54813 -6.2666 0
M  V30 10431 H 971.405 -3.18886 -7.53826 0
M  V30 10432 N 974.068 1.57479 -0.061844 0
M  V30 10433 C 975.315 1.93108 0.60954 0
M  V30 10434 C 975.643 0.941086 1.70217 0
M  V30 10435 O 974.898 -0.044914 1.95648 0
M  V30 10436 C 975.197 3.35394 1.23474 0
M  V30 10437 C 974.863 4.50095 0.269247 0
M  V30 10438 C 973.525 4.812 0.00360316 0
M  V30 10439 C 975.877 5.19725 -0.391839 0
M  V30 10440 C 973.205 5.79276 -0.930383 0
M  V30 10441 C 975.557 6.18801 -1.31408 0
M  V30 10442 C 974.221 6.48328 -1.58829 0
M  V30 10443 H 973.491 0.706634 0.223046 0
M  V30 10444 H 976.138 1.91054 -0.1306 0
M  V30 10445 H 974.443 3.33866 2.05039 0
M  V30 10446 H 976.14 3.60247 1.76134 0
M  V30 10447 H 972.73 4.2583 0.486477 0
M  V30 10448 H 976.914 4.95898 -0.199713 0
M  V30 10449 H 972.17 6.00484 -1.15019 0
M  V30 10450 H 976.344 6.71862 -1.83234 0
M  V30 10451 H 973.971 7.24137 -2.31363 0
M  V30 10452 N 975.546 -0.211634 1.56173 0
M  V30 10453 C 976.493 -1.26231 1.93221 0
M  V30 10454 C 977.463 -1.46076 0.790641 0
M  V30 10455 O 978.648 -1.59482 1.04739 0
M  V30 10456 C 975.788 -2.60559 2.26281 0
M  V30 10457 C 974.901 -2.48431 3.5342 0
M  V30 10458 C 974.036 -3.7535 3.7588 0
M  V30 10459 C 973.075 -3.57985 4.96501 0
M  V30 10460 N 972.212 -4.76877 5.15299 0
M  V30 10461 H 977.052 -0.939367 2.82807 0
M  V30 10462 H 974.589 -0.452511 1.39967 0
M  V30 10463 H 976.547 -3.38796 2.43461 0
M  V30 10464 H 975.177 -2.9093 1.39855 0
M  V30 10465 H 974.229 -1.61577 3.44379 0
M  V30 10466 H 975.541 -2.31526 4.41811 0
M  V30 10467 H 974.695 -4.62029 3.9321 0
M  V30 10468 H 973.434 -3.95191 2.85788 0
M  V30 10469 H 972.439 -2.69691 4.79111 0
M  V30 10470 H 973.664 -3.39605 5.88086 0
M  V30 10471 H 971.61 -4.97013 4.28152 0
M  V30 10472 H 971.527 -4.62735 5.9784 0
M  V30 10473 H 972.795 -5.64954 5.37073 0
M  V30 10474 N 977.024 -1.50153 -0.478725 0
M  V30 10475 C 978.273 -1.60002 -1.22809 0
M  V30 10476 C 978.586 -0.302277 -1.9325 0
M  V30 10477 O 979.792 -0.279583 -2.70057 0
M  V30 10478 C 978.248 -2.82402 -2.23108 0
M  V30 10479 C 977.856 -4.19023 -1.58505 0
M  V30 10480 C 979.6 -3.01593 -2.98734 0
M  V30 10481 C 977.507 -5.32618 -2.57045 0
M  V30 10482 H 976.437 -0.595822 -0.462073 0
M  V30 10483 H 979.088 -1.76573 -0.499412 0
M  V30 10484 H 977.47 -2.59373 -2.99235 0
M  V30 10485 H 978.644 -4.52277 -0.882187 0
M  V30 10486 H 976.959 -4.05374 -0.951877 0
M  V30 10487 H 979.556 -3.8363 -3.72468 0
M  V30 10488 H 979.899 -2.1302 -3.57671 0
M  V30 10489 H 980.432 -3.24766 -2.29721 0
M  V30 10490 H 977.171 -6.23321 -2.02858 0
M  V30 10491 H 976.691 -5.03792 -3.25505 0
M  V30 10492 H 978.37 -5.62877 -3.19028 0
M  V30 10493 N 978.502 0.731368 -1.39602 0
M  V30 10494 C 979.432 1.85855 -1.41351 0
M  V30 10495 C 980.413 1.67839 -0.2764 0
M  V30 10496 O 981.598 1.88104 -0.482747 0
M  V30 10497 C 978.728 3.23644 -1.25983 0
M  V30 10498 C 977.682 3.56304 -2.37132 0
M  V30 10499 C 977.008 4.93069 -2.0685 0
M  V30 10500 C 978.308 3.58906 -3.79452 0
M  V30 10501 H 980.002 1.84648 -2.3568 0
M  V30 10502 H 977.548 0.886955 -1.13442 0
M  V30 10503 H 979.501 4.02176 -1.25826 0
M  V30 10504 H 978.225 3.25387 -0.281234 0
M  V30 10505 H 976.884 2.80104 -2.36511 0
M  V30 10506 H 976.532 4.91396 -1.0742 0
M  V30 10507 H 976.232 5.15888 -2.81306 0
M  V30 10508 H 977.756 5.73953 -2.0835 0
M  V30 10509 H 979.17 4.27508 -3.81982 0
M  V30 10510 H 977.567 3.93246 -4.53297 0
M  V30 10511 H 978.637 2.58631 -4.10168 0
M  V30 10512 N 979.98 1.24838 0.961938 0
M  V30 10513 C 981.396 1.01502 1.23165 0
M  V30 10514 C 981.596 -0.272651 1.99647 0
M  V30 10515 O 980.652 -0.987297 2.32398 0
M  V30 10516 C 981.965 2.23366 2.01316 0
M  V30 10517 C 983.513 2.28051 2.14387 0
M  V30 10518 C 983.988 3.49552 2.95935 0
M  V30 10519 N 985.479 3.49904 3.03515 0
M  V30 10520 C 986.214 4.40577 3.66987 0
M  V30 10521 N 985.71 5.41512 4.3213 0
M  V30 10522 N 987.503 4.28275 3.64056 0
M  V30 10523 H 979.654 2.07576 0.450086 0
M  V30 10524 H 981.917 0.911205 0.261551 0
M  V30 10525 H 981.623 3.16913 1.5251 0
M  V30 10526 H 981.497 2.25949 3.02038 0
M  V30 10527 H 983.884 1.35032 2.62393 0
M  V30 10528 H 983.965 2.29491 1.12994 0
M  V30 10529 H 983.609 4.42889 2.4862 0
M  V30 10530 H 983.539 3.45357 3.97538 0
M  V30 10531 H 986.03 2.76885 2.57183 0
M  V30 10532 H 986.343 6.06924 4.78396 0
M  V30 10533 H 984.688 5.45393 4.3078 0
M  V30 10534 H 987.879 3.48653 3.12344 0
M  V30 10535 H 988.052 4.99138 4.13237 0
M  V30 10536 N 981.458 -1.16348 1.06306 0
M  V30 10537 C 982.706 -1.86512 0.778311 0
M  V30 10538 C 983.027 -1.82107 -0.697273 0
M  V30 10539 O 982.297 -1.2547 -1.50446 0
M  V30 10540 H 980.877 -0.690529 0.284919 0
M  V30 10541 H 983.539 -1.41092 1.34458 0
M  V30 10542 H 982.635 -2.91947 1.10333 0
M  V30 10543 N 982.937 -0.845659 -1.3299 0
M  V30 10544 C 983.869 -0.241097 -2.27928 0
M  V30 10545 C 984.882 0.582048 -1.5204 0
M  V30 10546 O 986.071 0.408008 -1.73774 0
M  V30 10547 C 983.171 0.678652 -3.32035 0
M  V30 10548 C 982.344 -0.106652 -4.3727 0
M  V30 10549 C 981.403 0.737478 -5.21006 0
M  V30 10550 O 980.429 0.174231 -5.68933 0
M  V30 10551 N 981.631 2.05372 -5.42957 0
M  V30 10552 H 984.396 -1.05685 -2.80448 0
M  V30 10553 H 981.957 -0.704771 -1.45755 0
M  V30 10554 H 983.949 1.24849 -3.84961 0
M  V30 10555 H 982.519 1.3951 -2.79742 0
M  V30 10556 H 981.739 -0.857897 -3.84752 0
M  V30 10557 H 983.027 -0.646386 -5.04677 0
M  V30 10558 H 982.425 2.53478 -5.05733 0
M  V30 10559 H 980.982 2.5719 -5.98913 0
M  V30 10560 N 984.415 1.45619 -0.602734 0
M  V30 10561 C 985.363 2.32228 0.131484 0
M  V30 10562 C 986.357 1.45681 0.864484 0
M  V30 10563 O 987.563 1.62193 0.7806 0
M  V30 10564 H 983.938 0.7495 0.0612638 0
M  V30 10565 H 985.909 2.91941 -0.617496 0
M  V30 10566 C 984.658 3.29213 1.11866 0
M  V30 10567 H 983.981 3.95801 0.564061 0
M  V30 10568 H 985.421 3.92554 1.60242 0
M  V30 10569 C 983.88 2.56028 2.18978 0
M  V30 10570 O 984.41 2.33806 3.26646 0
M  V30 10571 N 982.616 2.16245 1.94129 0
M  V30 10572 H 982.163 2.34518 1.06579 0
M  V30 10573 H 982.121 1.67601 2.66003 0
M  V30 10574 N 985.893 0.34162 1.53853 0
M  V30 10575 C 987.14 -0.255484 2.00882 0
M  V30 10576 C 987.468 -1.50711 1.22949 0
M  V30 10577 O 986.723 -1.93315 0.304625 0
M  V30 10578 C 987.022 -0.616989 3.52034 0
M  V30 10579 C 986.688 0.537536 4.47684 0
M  V30 10580 C 985.35 0.854379 4.73554 0
M  V30 10581 C 987.702 1.31217 5.04412 0
M  V30 10582 C 985.03 1.94826 5.53407 0
M  V30 10583 C 987.382 2.39628 5.85458 0
M  V30 10584 C 986.046 2.71874 6.09623 0
M  V30 10585 H 985.316 -0.0934881 0.735079 0
M  V30 10586 H 987.963 0.469135 1.85665 0
M  V30 10587 H 986.268 -1.42229 3.65073 0
M  V30 10588 H 987.965 -1.09084 3.85878 0
M  V30 10589 H 984.555 0.280524 4.27681 0
M  V30 10590 H 988.739 1.08064 4.84392 0
M  V30 10591 H 983.995 2.20235 5.70356 0
M  V30 10592 H 988.169 3.00084 6.28429 0
M  V30 10593 H 985.796 3.56762 6.71286 0
M  V30 10594 N 987.371 -1.57444 0.0701946 0
M  V30 10595 C 988.596 -1.98171 -0.61181 0
M  V30 10596 C 989.021 -0.94823 -1.62451 0
M  V30 10597 O 988.379 0.0863553 -1.81094 0
M  V30 10598 C 988.427 -3.37934 -1.2583 0
M  V30 10599 O 987.531 -3.37207 -2.37414 0
M  V30 10600 H 986.872 -0.645056 -0.157477 0
M  V30 10601 H 989.402 -2.04091 0.144235 0
M  V30 10602 H 989.412 -3.75083 -1.60552 0
M  V30 10603 H 988.087 -4.12684 -0.516234 0
M  V30 10604 H 986.664 -3.11826 -2.04497 0
M  V30 10605 N 988.849 0.203349 -1.56283 0
M  V30 10606 C 990.097 0.923183 -1.79782 0
M  V30 10607 C 990.418 1.84134 -0.64185 0
M  V30 10608 O 989.688 1.92922 0.340292 0
M  V30 10609 H 988.268 0.343881 -0.66314 0
M  V30 10610 H 990.93 0.210837 -1.93756 0
M  V30 10611 H 990.026 1.51921 -2.72629 0
M  V30 10612 N 990.327 1.50405 0.470755 0
M  V30 10613 C 991.576 1.60652 1.21959 0
M  V30 10614 C 991.889 0.312521 1.93087 0
M  V30 10615 O 993.095 0.293901 2.69905 0
M  V30 10616 C 991.551 2.83581 2.21607 0
M  V30 10617 C 991.159 4.19858 1.5628 0
M  V30 10618 C 992.903 3.03173 2.9713 0
M  V30 10619 C 990.81 5.33974 2.54217 0
M  V30 10620 H 989.74 0.598264 0.458907 0
M  V30 10621 H 992.391 1.76836 0.490041 0
M  V30 10622 H 990.773 2.60957 2.97855 0
M  V30 10623 H 991.947 4.52738 0.85819 0
M  V30 10624 H 990.262 4.05873 0.930366 0
M  V30 10625 H 992.859 3.856 3.70428 0
M  V30 10626 H 993.202 2.14914 3.56536 0
M  V30 10627 H 993.735 3.2598 2.27995 0
M  V30 10628 H 990.474 6.24388 1.99549 0
M  V30 10629 H 989.994 5.05511 3.22829 0
M  V30 10630 H 991.673 5.64561 3.16039 0
M  V30 10631 N 991.805 -0.723954 1.39988 0
M  V30 10632 C 992.715 -1.86829 1.41887 0
M  V30 10633 C 993.731 -1.71173 0.312401 0
M  V30 10634 O 994.907 -1.93583 0.555651 0
M  V30 10635 C 991.972 -3.22541 1.27154 0
M  V30 10636 C 991.033 -3.50512 2.47871 0
M  V30 10637 C 990.266 -4.79749 2.33831 0
M  V30 10638 O 990.489 -5.54251 1.34765 0
M  V30 10639 O 989.423 -5.07868 3.23039 0
M  V30 10640 H 993.249 -1.88183 2.38371 0
M  V30 10641 H 990.834 -0.873259 1.21221 0
M  V30 10642 H 992.716 -4.0362 1.21114 0
M  V30 10643 H 991.391 -3.21933 0.337715 0
M  V30 10644 H 990.298 -2.69475 2.59488 0
M  V30 10645 H 991.631 -3.55909 3.39985 0
M  V30 10646 N 993.283 -1.25346 -0.955304 0
M  V30 10647 C 994.508 -1.12892 -1.73983 0
M  V30 10648 C 994.933 0.313455 -1.8547 0
M  V30 10649 O 994.291 1.22706 -1.33465 0
M  V30 10650 C 994.339 -1.78729 -3.1319 0
M  V30 10651 O 993.443 -1.06648 -3.98372 0
M  V30 10652 H 992.784 -0.394178 -0.534341 0
M  V30 10653 H 995.314 -1.65897 -1.19747 0
M  V30 10654 H 995.324 -1.84987 -3.63653 0
M  V30 10655 H 993.999 -2.83669 -3.04146 0
M  V30 10656 H 992.576 -1.08266 -3.56837 0
M  V30 10657 N 994.761 1.15782 -1.06922 0
M  V30 10658 C 995.693 2.19978 -0.643604 0
M  V30 10659 C 996.706 1.59981 0.301653 0
M  V30 10660 O 997.895 1.78265 0.0916508 0
M  V30 10661 C 994.995 3.38815 0.0757973 0
M  V30 10662 C 994.168 4.28363 -0.884545 0
M  V30 10663 C 993.227 5.25807 -0.203233 0
M  V30 10664 O 992.253 5.62924 -0.842904 0
M  V30 10665 N 993.455 5.70874 1.05279 0
M  V30 10666 H 996.22 2.57112 -1.53992 0
M  V30 10667 H 993.781 1.30855 -0.953344 0
M  V30 10668 H 995.773 4.01052 0.542151 0
M  V30 10669 H 994.343 3.00133 0.874 0
M  V30 10670 H 993.563 3.63292 -1.53012 0
M  V30 10671 H 994.851 4.85067 -1.53581 0
M  V30 10672 H 994.249 5.42822 1.5925 0
M  V30 10673 H 992.806 6.35171 1.46289 0
M  V30 10674 N 996.239 0.8527 1.3254 0
M  V30 10675 C 997.464 0.468157 2.02047 0
M  V30 10676 C 997.889 -0.926967 1.63673 0
M  V30 10677 O 997.247 -1.60855 0.836378 0
M  V30 10678 C 997.295 0.612519 3.5536 0
M  V30 10679 O 996.399 -0.355506 4.10865 0
M  V30 10680 H 995.74 0.188401 0.636711 0
M  V30 10681 H 998.27 1.15135 1.6913 0
M  V30 10682 H 998.28 0.499315 4.04933 0
M  V30 10683 H 996.955 1.62988 3.82632 0
M  V30 10684 H 995.532 -0.198703 3.7237 0
M  V30 10685 N 997.718 -1.45297 0.610449 0
M  V30 10686 C 998.648 -2.33311 -0.0939698 0
M  V30 10687 C 999.629 -1.46999 -0.85588 0
M  V30 10688 O 1000.81 -1.75764 -0.825865 0
M  V30 10689 C 997.944 -3.29751 -1.09003 0
M  V30 10690 C 996.898 -4.2572 -0.441146 0
M  V30 10691 C 996.224 -5.11873 -1.54566 0
M  V30 10692 C 997.524 -5.1837 0.639489 0
M  V30 10693 H 999.218 -2.92459 0.640941 0
M  V30 10694 H 996.764 -1.40631 0.309675 0
M  V30 10695 H 998.717 -3.90195 -1.59141 0
M  V30 10696 H 997.441 -2.68768 -1.85557 0
M  V30 10697 H 996.1 -3.66579 0.0393908 0
M  V30 10698 H 995.748 -4.47256 -2.30155 0
M  V30 10699 H 995.448 -5.76886 -1.11698 0
M  V30 10700 H 996.972 -5.75185 -2.04925 0
M  V30 10701 H 998.386 -5.7287 0.22207 0
M  V30 10702 H 996.783 -5.91876 0.990089 0
M  V30 10703 H 997.853 -4.60627 1.51495 0
M  V30 10704 N 999.196 -0.349774 -1.5367 0
M  V30 10705 C 1000.44 0.244827 -2.01015 0
M  V30 10706 C 1000.77 1.50057 -1.23746 0
M  V30 10707 O 1000.03 1.9315 -0.314872 0
M  V30 10708 C 1000.32 0.598311 -3.52356 0
M  V30 10709 C 999.991 -0.56127 -4.47393 0
M  V30 10710 C 998.653 -0.879481 -4.73095 0
M  V30 10711 C 1001 -1.3389 -5.03709 0
M  V30 10712 C 998.333 -1.97758 -5.52366 0
M  V30 10713 C 1000.68 -2.4273 -5.84179 0
M  V30 10714 C 999.349 -2.75103 -6.08173 0
M  V30 10715 H 998.619 0.0895884 -0.735564 0
M  V30 10716 H 1001.27 -0.478975 -1.85413 0
M  V30 10717 H 999.571 1.40291 -3.65822 0
M  V30 10718 H 1001.27 1.07036 -3.86451 0
M  V30 10719 H 997.858 -0.303201 -4.27526 0
M  V30 10720 H 1002.04 -1.10632 -4.83812 0
M  V30 10721 H 997.298 -2.23257 -5.6918 0
M  V30 10722 H 1001.47 -3.03412 -6.26828 0
M  V30 10723 H 999.099 -3.60317 -6.69385 0
M  V30 10724 N 1000.67 1.57404 -0.0785433 0
M  V30 10725 C 1001.92 1.9292 0.588626 0
M  V30 10726 C 1002.24 0.961106 1.70359 0
M  V30 10727 O 1003.44 1.20934 2.43079 0
M  V30 10728 C 1001.9 3.42729 1.09839 0
M  V30 10729 C 1001.51 4.47998 0.0140773 0
M  V30 10730 C 1003.25 3.87235 1.73924 0
M  V30 10731 C 1001.16 5.88945 0.538269 0
M  V30 10732 H 1000.09 0.720069 0.223645 0
M  V30 10733 H 1002.74 1.8287 -0.15187 0
M  V30 10734 H 1001.12 3.47875 1.89207 0
M  V30 10735 H 1002.29 4.54476 -0.760773 0
M  V30 10736 H 1000.61 4.13001 -0.53095 0
M  V30 10737 H 1003.21 4.89927 2.14186 0
M  V30 10738 H 1003.55 3.24971 2.60191 0
M  V30 10739 H 1004.08 3.84721 1.01168 0
M  V30 10740 H 1000.82 6.5487 -0.287395 0
M  V30 10741 H 1000.34 5.85972 1.28049 0
M  V30 10742 H 1002.02 6.39028 1.01253 0
M  V30 10743 N 1002.15 -0.195058 1.56388 0
M  V30 10744 C 1003.06 -1.26219 1.97752 0
M  V30 10745 C 1004.08 -1.49801 0.885192 0
M  V30 10746 O 1005.25 -1.62415 1.19094 0
M  V30 10747 C 1002.32 -2.5865 2.3087 0
M  V30 10748 C 1001.38 -2.4314 3.5381 0
M  V30 10749 C 1000.61 -3.69255 3.85339 0
M  V30 10750 O 1000.84 -4.73425 3.18159 0
M  V30 10751 O 999.77 -3.64782 4.78767 0
M  V30 10752 H 1003.6 -0.941161 2.88749 0
M  V30 10753 H 1001.18 -0.40006 1.43944 0
M  V30 10754 H 1003.06 -3.36814 2.53247 0
M  V30 10755 H 1001.74 -2.9038 1.43042 0
M  V30 10756 H 1000.64 -1.63086 3.3668 0
M  V30 10757 H 1001.98 -2.16341 4.42105 0
M  V30 10758 N 1003.63 -1.50653 -0.462772 0
M  V30 10759 C 1005.04 -1.54821 -1.04342 0
M  V30 10760 C 1005.39 -0.356595 -1.92932 0
M  V30 10761 O 1004.52 0.529579 -2.0982 0
M  V30 10762 C 1005.11 -2.80571 -1.89909 0
M  V30 10763 C 1003.67 -2.87394 -2.43067 0
M  V30 10764 C 1002.82 -2.49206 -1.21621 0
M  V30 10765 H 1005.77 -1.56797 -0.245048 0
M  V30 10766 H 1005.79 -2.62897 -2.75074 0
M  V30 10767 H 1005.3 -3.67281 -1.25405 0
M  V30 10768 H 1003.4 -2.05055 -3.111 0
M  V30 10769 H 1003.52 -3.90477 -2.77605 0
M  V30 10770 H 1001.88 -2.01829 -1.55361 0
M  V30 10771 H 1002.66 -3.38233 -0.587669 0
M  V30 10772 N 1005.11 0.71652 -1.4037 0
M  V30 10773 C 1006.39 1.46947 -1.29097 0
M  V30 10774 C 1006.77 2.10903 0.0911182 0
M  V30 10775 O 1006.11 2.00068 1.10385 0
M  V30 10776 C 1006.32 2.50594 -2.42907 0
M  V30 10777 C 1007.67 3.16451 -2.83097 0
M  V30 10778 O 1008.7 2.60913 -2.42493 0
M  V30 10779 O 1007.55 4.16991 -3.53244 0
M  V30 10780 H 1004.65 0.653413 -0.506932 0
M  V30 10781 H 1007.19 0.748774 -1.52287 0
M  V30 10782 H 1005.97 2.01843 -3.35224 0
M  V30 10783 H 1005.59 3.302 -2.21481 0
M  V30 10784 N 1006.59 1.25851 0.948643 0
M  V30 10785 C 1007.83 1.10954 1.69397 0
M  V30 10786 C 1008.16 -0.348443 1.91353 0
M  V30 10787 O 1007.42 -1.27285 1.48651 0
M  V30 10788 C 1007.72 1.81565 3.07846 0
M  V30 10789 C 1007.38 3.31477 3.0567 0
M  V30 10790 C 1006.04 3.72371 3.04784 0
M  V30 10791 C 1008.4 4.27225 2.98543 0
M  V30 10792 C 1005.72 5.07416 2.94527 0
M  V30 10793 C 1008.08 5.62301 2.89828 0
M  V30 10794 C 1006.74 6.02516 2.87281 0
M  V30 10795 H 1006.01 0.406011 0.619868 0
M  V30 10796 H 1008.66 1.562 1.10787 0
M  V30 10797 H 1006.96 1.28767 3.70035 0
M  V30 10798 H 1008.66 1.67486 3.64348 0
M  V30 10799 H 1005.25 2.98941 3.07135 0
M  V30 10800 H 1009.43 3.96618 2.98342 0
M  V30 10801 H 1004.69 5.37746 2.90928 0
M  V30 10802 H 1008.86 6.36182 2.83276 0
M  V30 10803 H 1006.49 7.07116 2.79089 0
M  V30 10804 N 1008.06 -1.15214 1.07534 0
M  V30 10805 C 1009.29 -1.90463 0.820883 0
M  V30 10806 C 1009.71 -1.77578 -0.620305 0
M  V30 10807 O 1009.07 -1.10976 -1.43366 0
M  V30 10808 C 1009.12 -3.38746 1.23627 0
M  V30 10809 O 1008.22 -4.1062 0.382715 0
M  V30 10810 H 1007.57 -0.59292 0.298901 0
M  V30 10811 H 1010.1 -1.45893 1.43445 0
M  V30 10812 H 1010.11 -3.89543 1.21327 0
M  V30 10813 H 1008.78 -3.47443 2.28596 0
M  V30 10814 H 1007.36 -3.69947 0.468374 0
M  V30 10815 N 1009.54 -0.859717 -1.32086 0
M  V30 10816 C 1010.96 -0.55025 -1.49815 0
M  V30 10817 C 1011.16 0.917966 -1.79376 0
M  V30 10818 O 1010.21 1.70073 -1.86632 0
M  V30 10819 C 1011.53 -1.44161 -2.6389 0
M  V30 10820 C 1013.08 -1.44257 -2.77775 0
M  V30 10821 C 1013.55 -2.31926 -3.94936 0
M  V30 10822 N 1015.04 -2.2975 -4.02206 0
M  V30 10823 C 1015.78 -2.9431 -4.92107 0
M  V30 10824 N 1015.27 -3.68001 -5.86981 0
M  V30 10825 N 1017.07 -2.83671 -4.8527 0
M  V30 10826 H 1009.22 -1.80987 -1.11164 0
M  V30 10827 H 1011.48 -0.773313 -0.548353 0
M  V30 10828 H 1011.19 -2.48588 -2.4879 0
M  V30 10829 H 1011.06 -1.13268 -3.59792 0
M  V30 10830 H 1013.45 -0.405923 -2.92295 0
M  V30 10831 H 1013.53 -1.79169 -1.82571 0
M  V30 10832 H 1013.17 -3.35661 -3.81174 0
M  V30 10833 H 1013.1 -1.94344 -4.89426 0
M  V30 10834 H 1015.59 -1.76177 -3.3432 0
M  V30 10835 H 1015.91 -4.14417 -6.52287 0
M  V30 10836 H 1014.25 -3.72109 -5.86992 0
M  V30 10837 H 1017.44 -2.25647 -4.10123 0
M  V30 10838 H 1017.61 -3.34267 -5.5513 0
M  V30 10839 N 1011.02 1.44971 -0.618145 0
M  V30 10840 C 1012.27 2.0176 -0.11725 0
M  V30 10841 C 1012.59 1.48773 1.26062 0
M  V30 10842 O 1011.86 0.686152 1.83491 0
M  V30 10843 H 1010.44 0.745909 -0.0403545 0
M  V30 10844 H 1013.1 1.77638 -0.801923 0
M  V30 10845 H 1012.2 3.1201 -0.0750477 0
M  V30 10846 N 1012.5 0.357919 1.53482 0
M  V30 10847 C 1013.46 -0.479797 2.24122 0
M  V30 10848 C 1014.46 -1.01596 1.24639 0
M  V30 10849 O 1015.65 -0.902928 1.48973 0
M  V30 10850 C 1012.78 -1.66983 2.97203 0
M  V30 10851 H 1013.98 0.138219 2.99581 0
M  V30 10852 H 1011.53 0.109484 1.55916 0
M  V30 10853 H 1012.26 -2.32615 2.25966 0
M  V30 10854 H 1012.05 -1.29242 3.70188 0
M  V30 10855 H 1013.54 -2.26367 3.50924 0
M  V30 10856 N 1013.98 -1.5736 0.0868897 0
M  V30 10857 C 1015.22 -1.9367 -0.577598 0
M  V30 10858 C 1015.55 -0.968844 -1.69229 0
M  V30 10859 O 1014.82 -0.0195061 -1.9589 0
M  V30 10860 H 1013.4 -0.714983 -0.216353 0
M  V30 10861 H 1016.06 -1.94335 0.148294 0
M  V30 10862 H 1015.15 -2.95877 -0.993128 0
M  V30 10863 N 1015.45 0.186762 -1.56489 0
M  V30 10864 C 1016.4 1.23141 -1.95205 0
M  V30 10865 C 1017.37 1.44799 -0.81378 0
M  V30 10866 O 1018.56 1.57795 -1.07263 0
M  V30 10867 C 1015.7 2.56926 -2.30397 0
M  V30 10868 C 1014.81 2.42777 -3.57328 0
M  V30 10869 C 1013.94 3.69323 -3.81804 0
M  V30 10870 C 1012.98 3.50041 -5.02133 0
M  V30 10871 N 1012.12 4.68619 -5.2282 0
M  V30 10872 H 1016.96 0.894256 -2.84266 0
M  V30 10873 H 1014.5 0.430187 -1.40669 0
M  V30 10874 H 1016.46 3.3488 -2.4882 0
M  V30 10875 H 1015.09 2.88668 -1.44466 0
M  V30 10876 H 1014.14 1.56078 -3.46906 0
M  V30 10877 H 1015.45 2.24468 -4.45439 0
M  V30 10878 H 1014.6 4.55715 -4.00511 0
M  V30 10879 H 1013.34 3.90595 -2.92039 0
M  V30 10880 H 1012.35 2.62034 -4.8334 0
M  V30 10881 H 1013.57 3.30206 -5.93414 0
M  V30 10882 H 1011.52 4.90139 -4.36005 0
M  V30 10883 H 1011.44 4.53165 -6.05126 0
M  V30 10884 H 1012.7 5.56338 -5.45993 0
M  V30 10885 N 1016.93 1.50896 0.454776 0
M  V30 10886 C 1018.18 1.61936 1.20248 0
M  V30 10887 C 1018.49 0.332983 1.92745 0
M  V30 10888 O 1019.7 0.322512 2.69578 0
M  V30 10889 C 1018.16 2.85916 2.18587 0
M  V30 10890 C 1017.76 4.21492 1.51818 0
M  V30 10891 C 1019.51 3.06307 2.93898 0
M  V30 10892 C 1017.42 5.3664 2.48539 0
M  V30 10893 H 1016.35 0.603098 0.452536 0
M  V30 10894 H 1019 1.77345 0.471257 0
M  V30 10895 H 1017.38 2.64101 2.95071 0
M  V30 10896 H 1018.55 4.53623 0.810123 0
M  V30 10897 H 1016.87 4.06837 0.887265 0
M  V30 10898 H 1019.46 3.89507 3.66317 0
M  V30 10899 H 1019.81 2.18683 3.54236 0
M  V30 10900 H 1020.34 3.2838 2.24525 0
M  V30 10901 H 1017.08 6.26469 1.92916 0
M  V30 10902 H 1016.6 5.08907 3.17449 0
M  V30 10903 H 1018.28 5.67881 3.10033 0
M  V30 10904 N 1018.41 -0.709066 1.40748 0
M  V30 10905 C 1019.34 -1.83583 1.4429 0
M  V30 10906 C 1020.32 -1.67378 0.303067 0
M  V30 10907 O 1021.51 -1.87312 0.512612 0
M  V30 10908 C 1018.64 -3.21599 1.31116 0
M  V30 10909 C 1017.59 -3.52486 2.4277 0
M  V30 10910 C 1016.92 -4.89716 2.14668 0
M  V30 10911 C 1018.22 -3.52824 3.85113 0
M  V30 10912 H 1019.91 -1.80876 2.38588 0
M  V30 10913 H 1017.46 -0.868795 1.14839 0
M  V30 10914 H 1019.41 -4.00123 1.32209 0
M  V30 10915 H 1018.13 -3.24898 0.332965 0
M  V30 10916 H 1016.79 -2.76305 2.40937 0
M  V30 10917 H 1016.44 -4.89625 1.15224 0
M  V30 10918 H 1016.14 -5.11347 2.89478 0
M  V30 10919 H 1017.66 -5.70566 2.17455 0
M  V30 10920 H 1019.08 -4.21377 3.88734 0
M  V30 10921 H 1017.48 -3.85984 4.59496 0
M  V30 10922 H 1018.55 -2.52073 4.14231 0
M  V30 10923 N 1019.89 -1.26353 -0.941956 0
M  V30 10924 C 1020.82 -1.10341 -2.05784 0
M  V30 10925 C 1021.8 -0.00881565 -1.70098 0
M  V30 10926 O 1022.99 -0.180699 -1.93357 0
M  V30 10927 C 1020.12 -0.734788 -3.39438 0
M  V30 10928 C 1019.07 -1.78103 -3.89183 0
M  V30 10929 C 1018.4 -1.26675 -5.19478 0
M  V30 10930 C 1019.7 -3.1824 -4.14151 0
M  V30 10931 H 1021.39 -2.03684 -2.19438 0
M  V30 10932 H 1018.94 -0.980698 -1.05443 0
M  V30 10933 H 1020.89 -0.609653 -4.16967 0
M  V30 10934 H 1019.61 0.234354 -3.25758 0
M  V30 10935 H 1018.27 -1.89482 -3.13835 0
M  V30 10936 H 1017.92 -0.287472 -5.02178 0
M  V30 10937 H 1017.62 -1.96612 -5.53731 0
M  V30 10938 H 1019.14 -1.15427 -5.99591 0
M  V30 10939 H 1020.56 -3.09942 -4.82296 0
M  V30 10940 H 1018.95 -3.8576 -4.59684 0
M  V30 10941 H 1020.02 -3.64354 -3.19959 0
M  V30 10942 N 1021.37 1.14642 -1.08144 0
M  V30 10943 C 1022.28 2.23257 -0.720668 0
M  V30 10944 C 1023.29 1.71866 0.271648 0
M  V30 10945 O 1024.47 2.01064 0.116266 0
M  V30 10946 C 1021.53 3.46447 -0.132542 0
M  V30 10947 C 1020.6 4.12789 -1.17913 0
M  V30 10948 C 1019.83 5.30099 -0.618971 0
M  V30 10949 O 1020.05 5.6762 0.562418 0
M  V30 10950 O 1018.99 5.86154 -1.36774 0
M  V30 10951 H 1022.81 2.56463 -1.62667 0
M  V30 10952 H 1020.4 1.22521 -0.854932 0
M  V30 10953 H 1022.28 4.20959 0.19277 0
M  V30 10954 H 1020.95 3.14971 0.746662 0
M  V30 10955 H 1019.86 3.40163 -1.55693 0
M  V30 10956 H 1021.19 4.48365 -2.03051 0
M  V30 10957 N 1022.85 0.866709 1.31628 0
M  V30 10958 C 1023.79 0.318169 2.28596 0
M  V30 10959 C 1024.76 -0.581558 1.55586 0
M  V30 10960 O 1025.95 -0.513895 1.83749 0
M  V30 10961 C 1023.09 -0.477137 3.41786 0
M  V30 10962 C 1022.2 0.449739 4.29653 0
M  V30 10963 C 1021.34 -0.359373 5.29983 0
M  V30 10964 C 1020.37 0.564138 6.09495 0
M  V30 10965 N 1019.51 -0.208526 7.0179 0
M  V30 10966 H 1024.35 1.15029 2.74904 0
M  V30 10967 H 1021.89 0.578649 1.35241 0
M  V30 10968 H 1023.85 -0.953985 4.06146 0
M  V30 10969 H 1022.48 -1.27398 2.96597 0
M  V30 10970 H 1021.53 1.04502 3.65764 0
M  V30 10971 H 1022.84 1.158 4.85172 0
M  V30 10972 H 1021.99 -0.89887 6.00004 0
M  V30 10973 H 1020.73 -1.10094 4.75111 0
M  V30 10974 H 1019.74 1.11542 5.38366 0
M  V30 10975 H 1020.96 1.30451 6.66453 0
M  V30 10976 H 1018.91 -0.932969 6.49332 0
M  V30 10977 H 1018.83 0.440463 7.54716 0
M  V30 10978 H 1020.09 -0.72936 7.7608 0
M  V30 10979 N 1024.32 -1.44642 0.625825 0
M  V30 10980 C 1025.26 -2.27821 -0.131481 0
M  V30 10981 C 1026.23 -1.38224 -0.856324 0
M  V30 10982 O 1027.42 -1.67662 -0.861493 0
M  V30 10983 C 1024.55 -3.1703 -1.19204 0
M  V30 10984 C 1023.59 -4.22697 -0.568315 0
M  V30 10985 S 1024.42 -5.3169 0.637612 0
M  V30 10986 C 1025.58 -6.24468 -0.423088 0
M  V30 10987 H 1025.81 -2.91703 0.574177 0
M  V30 10988 H 1023.35 -1.4875 0.413844 0
M  V30 10989 H 1025.3 -3.6898 -1.79901 0
M  V30 10990 H 1023.97 -2.52379 -1.86986 0
M  V30 10991 H 1023.16 -4.8511 -1.36689 0
M  V30 10992 H 1022.76 -3.73983 -0.0360843 0
M  V30 10993 H 1025.05 -6.64967 -1.29713 0
M  V30 10994 H 1026 -7.07907 0.165338 0
M  V30 10995 H 1026.4 -5.59541 -0.746606 0
M  V30 10996 N 1025.8 -0.366053 -1.5329 0
M  V30 10997 C 1026.73 0.514916 -2.23341 0
M  V30 10998 C 1027.75 1.04579 -1.24768 0
M  V30 10999 O 1028.94 0.952084 -1.50989 0
M  V30 11000 C 1026.04 1.72374 -2.91788 0
M  V30 11001 C 1025.21 1.32429 -4.16871 0
M  V30 11002 C 1024.27 2.39524 -4.68524 0
M  V30 11003 O 1023.29 2.01895 -5.32191 0
M  V30 11004 N 1024.5 3.71116 -4.46378 0
M  V30 11005 H 1027.26 -0.0851272 -2.99579 0
M  V30 11006 H 1024.82 -0.191255 -1.60766 0
M  V30 11007 H 1026.81 2.43496 -3.23252 0
M  V30 11008 H 1025.38 2.23064 -2.19 0
M  V30 11009 H 1024.6 0.442901 -3.91704 0
M  V30 11010 H 1025.89 1.03372 -4.98188 0
M  V30 11011 H 1025.29 4.04463 -3.95508 0
M  V30 11012 H 1023.85 4.38341 -4.82391 0
M  V30 11013 N 1027.28 1.57312 -0.0952337 0
M  V30 11014 C 1028.23 2.14032 0.863657 0
M  V30 11015 C 1029.2 1.0589 1.27971 0
M  V30 11016 O 1030.38 1.33678 1.36143 0
M  V30 11017 C 1027.52 2.72513 2.11733 0
M  V30 11018 C 1026.63 3.94887 1.7518 0
M  V30 11019 C 1025.77 4.41533 2.95334 0
M  V30 11020 C 1024.81 5.56496 2.54908 0
M  V30 11021 N 1023.95 5.97993 3.67897 0
M  V30 11022 H 1028.79 2.95655 0.373115 0
M  V30 11023 H 1026.32 1.46085 0.172497 0
M  V30 11024 H 1028.28 3.04539 2.85153 0
M  V30 11025 H 1026.91 1.93618 2.58287 0
M  V30 11026 H 1025.96 3.69175 0.917279 0
M  V30 11027 H 1027.27 4.78322 1.41455 0
M  V30 11028 H 1026.43 4.75343 3.77007 0
M  V30 11029 H 1025.17 3.56999 3.3227 0
M  V30 11030 H 1024.17 5.22314 1.71662 0
M  V30 11031 H 1025.4 6.42779 2.19117 0
M  V30 11032 H 1023.34 5.16405 4.04551 0
M  V30 11033 H 1023.26 6.76225 3.38018 0
M  V30 11034 H 1024.53 6.36434 4.5008 0
M  V30 11035 N 1028.76 -0.17846 1.56586 0
M  V30 11036 C 1029.67 -1.24115 1.9908 0
M  V30 11037 C 1030.68 -1.48854 0.901031 0
M  V30 11038 O 1031.86 -1.61142 1.2081 0
M  V30 11039 C 1028.92 -2.56187 2.33601 0
M  V30 11040 C 1027.99 -2.39373 3.56369 0
M  V30 11041 C 1027.22 -3.65147 3.89234 0
M  V30 11042 O 1027.44 -4.70024 3.23162 0
M  V30 11043 O 1026.38 -3.59683 4.82609 0
M  V30 11044 H 1030.2 -0.910482 2.89731 0
M  V30 11045 H 1027.79 -0.38477 1.4436 0
M  V30 11046 H 1029.67 -3.34109 2.56806 0
M  V30 11047 H 1028.34 -2.88847 1.46113 0
M  V30 11048 H 1027.25 -1.59506 3.38391 0
M  V30 11049 H 1028.58 -2.1164 4.44375 0
M  V30 11050 N 1030.24 -1.51135 -0.446768 0
M  V30 11051 C 1031.17 -1.74709 -1.54916 0
M  V30 11052 C 1032.15 -0.596628 -1.59293 0
M  V30 11053 O 1033.33 -0.838356 -1.75172 0
M  V30 11054 C 1030.46 -1.86353 -2.9307 0
M  V30 11055 C 1029.42 -3.01725 -3.03556 0
M  V30 11056 C 1028.74 -2.9854 -4.43597 0
M  V30 11057 C 1030.04 -4.41848 -2.7851 0
M  V30 11058 H 1031.74 -2.67014 -1.3544 0
M  V30 11059 H 1029.28 -1.28489 -0.650131 0
M  V30 11060 H 1031.23 -2.01428 -3.70141 0
M  V30 11061 H 1029.96 -0.906887 -3.13756 0
M  V30 11062 H 1028.62 -2.86339 -2.28922 0
M  V30 11063 H 1028.27 -2.00673 -4.61237 0
M  V30 11064 H 1027.97 -3.76008 -4.51544 0
M  V30 11065 H 1029.49 -3.15696 -5.22655 0
M  V30 11066 H 1030.9 -4.57633 -3.45319 0
M  V30 11067 H 1029.3 -5.2095 -2.97877 0
M  V30 11068 H 1030.37 -4.52536 -1.74182 0
M  V30 11069 N 1031.71 0.701592 -1.41122 0
M  V30 11070 C 1032.96 1.45871 -1.39879 0
M  V30 11071 C 1033.28 1.94999 -0.00668769 0
M  V30 11072 O 1032.55 1.71298 0.95047 0
M  V30 11073 H 1031.13 0.541231 -0.514857 0
M  V30 11074 H 1033.79 0.830803 -1.76306 0
M  V30 11075 H 1032.89 2.32479 -2.0823 0
M  V30 11076 N 1033.19 1.2685 0.935242 0
M  V30 11077 C 1034.14 1.08746 2.05614 0
M  V30 11078 C 1035.13 0.012681 1.69395 0
M  V30 11079 O 1036.34 0.169822 1.79197 0
M  V30 11080 H 1032.71 0.33485 0.673335 0
M  V30 11081 H 1034.69 2.03725 2.18033 0
M  V30 11082 C 1033.43 0.74346 3.39659 0
M  V30 11083 H 1032.76 1.56236 3.68008 0
M  V30 11084 H 1034.2 0.656607 4.18885 0
M  V30 11085 C 1032.66 -0.551751 3.32351 0
M  V30 11086 O 1033.19 -1.58836 3.68963 0
M  V30 11087 N 1031.39 -0.544583 2.85452 0
M  V30 11088 H 1030.94 0.29939 2.55854 0
M  V30 11089 H 1030.9 -1.41129 2.80945 0
M  V30 11090 O 1034.71 -1.06917 1.21042 0
M  V30 11091 H 1035.4 -1.6778 0.967969 0
M  V30 END ATOM
M  V30 BEGIN BOND
M  V30 END BOND
M  V30 END CTAB
M  END
$$$$
