drugbank_target|A0A384KMD8 Putative stringent starvation protein A (DB04272)
 OpenBabel12092120293D

  0  0  0     0  0            999 V3000
M  V30 BEGIN CTAB
M  V30 COUNTS 3447 3486 0 0 0
M  V30 BEGIN ATOM
M  V30 1 H -0.908 1.98254 -0.117106 0
M  V30 2 N 0 1.576 0 0
M  V30 3 C 0.933 2.03868 1.02534 0
M  V30 4 C 1.911 0.928543 1.3348 0
M  V30 5 O 3.095 1.19667 1.45644 0
M  V30 6 C 0.222 2.43627 2.35294 0
M  V30 7 C -0.732 3.65373 2.2001 0
M  V30 8 S 0.101 5.13292 1.52614 0
M  V30 9 C 1.257 5.56322 2.86805 0
M  V30 10 H 1.49 2.90518 0.631377 0
M  V30 11 H -0.977 1.52953 0.210867 0
M  V30 12 H 0.981 2.67203 3.11629 0
M  V30 13 H -0.358 1.57376 2.7183 0
M  V30 14 H -1.165 3.90944 3.18086 0
M  V30 15 H -1.563 3.418 1.51819 0
M  V30 16 H 0.729 5.58782 3.83104 0
M  V30 17 H 1.672 6.56266 2.65933 0
M  V30 18 H 2.08 4.83886 2.90714 0
M  V30 19 N 1.4781 -0.272755 1.55222 0
M  V30 20 C 2.4411 -1.32041 1.87344 0
M  V30 21 C 3.4411 -1.42342 0.74803 0
M  V30 22 O 4.6311 -1.41488 1.0162 0
M  V30 23 C 1.7631 -2.70173 2.07893 0
M  V30 24 H 2.9561 -1.04789 2.80997 0
M  V30 25 H 0.5091 -0.51083 1.47717 0
M  V30 26 H 1.2441 -3.02605 1.16622 0
M  V30 27 H 1.0291 -2.64082 2.89833 0
M  V30 28 H 2.5191 -3.45869 2.34017 0
M  V30 29 N 2.9562 -1.48159 -0.537278 0
M  V30 30 C 4.2022 -1.56035 -1.29541 0
M  V30 31 C 4.5352 -0.230377 -1.92829 0
M  V30 32 O 3.8102 0.762952 -1.78911 0
M  V30 33 C 4.0932 -2.69323 -2.39034 0
M  V30 34 C 3.9462 -4.12002 -1.80485 0
M  V30 35 C 5.2652 -2.78408 -3.40847 0
M  V30 36 H 2.3842 -0.567992 -0.469632 0
M  V30 37 H 5.0262 -1.80302 -0.599277 0
M  V30 38 H 3.1762 -2.48763 -2.98412 0
M  V30 39 H 4.8482 -4.43981 -1.25215 0
M  V30 40 H 3.0912 -4.19344 -1.11055 0
M  V30 41 H 3.7622 -4.87077 -2.59731 0
M  V30 42 H 6.2382 -2.97012 -2.91416 0
M  V30 43 H 5.1142 -3.59416 -4.14863 0
M  V30 44 H 5.3752 -1.86269 -4.00944 0
M  V30 45 N 4.4343 0.785586 -1.36625 0
M  V30 46 C 5.3973 1.87999 -1.31107 0
M  V30 47 C 6.3973 1.59316 -0.217959 0
M  V30 48 O 7.5873 1.67656 -0.472977 0
M  V30 49 C 4.7193 3.24861 -1.03334 0
M  V30 50 H 5.9123 1.94307 -2.2844 0
M  V30 51 H 3.4653 0.983813 -1.21453 0
M  V30 52 H 4.2003 3.24235 -0.0647432 0
M  V30 53 H 3.9853 3.4707 -1.82441 0
M  V30 54 H 5.4753 4.04929 -1.02088 0
M  V30 55 N 5.9124 1.20967 1.01018 0
M  V30 56 C 6.8754 0.965918 2.07853 0
M  V30 57 C 7.8754 -0.0610545 1.60684 0
M  V30 58 O 9.0654 0.175681 1.73312 0
M  V30 59 C 6.1974 0.455513 3.37843 0
M  V30 60 H 7.3904 1.91365 2.3091 0
M  V30 61 H 4.9434 1.02594 1.17916 0
M  V30 62 H 5.6784 -0.497381 3.20463 0
M  V30 63 H 5.4634 1.19622 3.73407 0
M  V30 64 H 6.9534 0.304667 4.16487 0
M  V30 65 N 7.3905 -1.2043 1.01659 0
M  V30 66 C 8.3385 -2.25249 0.580143 0
M  V30 67 C 9.3325 -1.65057 -0.381115 0
M  V30 68 O 10.5385 -1.78241 -0.251039 0
M  V30 69 H 6.9135 -0.732695 0.169299 0
M  V30 70 H 8.8845 -2.59389 1.47512 0
M  V30 71 C 7.6335 -3.47638 -0.065788 0
M  V30 72 H 6.9565 -3.94233 0.664874 0
M  V30 73 H 8.3965 -4.2268 -0.334282 0
M  V30 74 C 6.8555 -3.10447 -1.3086 0
M  V30 75 O 7.3855 -3.21981 -2.4019 0
M  V30 76 N 5.5915 -2.64996 -1.1927 0
M  V30 77 H 5.1385 -2.55811 -0.303064 0
M  V30 78 H 5.0965 -2.40482 -2.02523 0
M  V30 79 N 8.8686 -0.792821 -1.36206 0
M  V30 80 C 9.8156 -0.191653 -2.30003 0
M  V30 81 C 10.7856 0.666453 -1.52143 0
M  V30 82 O 11.9706 0.61442 -1.80636 0
M  V30 83 C 9.1106 0.664848 -3.38635 0
M  V30 84 C 8.2236 -0.212175 -4.31479 0
M  V30 85 C 7.3586 0.651022 -5.27196 0
M  V30 86 C 6.3976 -0.227247 -6.11678 0
M  V30 87 N 5.5346 0.595127 -6.99573 0
M  V30 88 H 10.3746 -0.996978 -2.80828 0
M  V30 89 H 7.9116 -0.503206 -1.38225 0
M  V30 90 H 9.8696 1.17645 -4.00269 0
M  V30 91 H 8.4996 1.43557 -2.89122 0
M  V30 92 H 7.5516 -0.841777 -3.70969 0
M  V30 93 H 8.8636 -0.888751 -4.90818 0
M  V30 94 H 8.0176 1.2283 -5.94136 0
M  V30 95 H 6.7566 1.36121 -4.68319 0
M  V30 96 H 5.7616 -0.816904 -5.43697 0
M  V30 97 H 6.9866 -0.93509 -6.72631 0
M  V30 98 H 4.9326 1.28955 -6.432 0
M  V30 99 H 4.8496 -0.0236952 -7.55996 0
M  V30 100 H 6.1176 1.15613 -7.70879 0
M  V30 101 N 10.3467 1.47872 -0.545128 0
M  V30 102 C 11.7627 1.5829 -0.204032 0
M  V30 103 C 11.9627 1.54529 1.29317 0
M  V30 104 O 11.0187 1.44232 2.07252 0
M  V30 105 C 12.3317 2.89304 -0.819987 0
M  V30 106 C 13.8797 3.02864 -0.790105 0
M  V30 107 C 14.3547 4.3656 -1.38491 0
M  V30 108 N 15.8457 4.43165 -1.34755 0
M  V30 109 C 16.5807 5.45153 -1.77753 0
M  V30 110 N 16.0767 6.54016 -2.2855 0
M  V30 111 N 17.8697 5.36125 -1.68897 0
M  V30 112 H 10.0207 1.4856 -1.51802 0
M  V30 113 H 12.2837 0.706305 -0.632327 0
M  V30 114 H 11.9897 2.97757 -1.87173 0
M  V30 115 H 11.8637 3.75957 -0.305915 0
M  V30 116 H 14.2507 2.94014 0.252913 0
M  V30 117 H 14.3317 2.17782 -1.34181 0
M  V30 118 H 13.9757 4.46164 -2.42693 0
M  V30 119 H 13.9057 5.20353 -0.808754 0
M  V30 120 H 16.3967 3.65083 -0.975855 0
M  V30 121 H 16.7097 7.27994 -2.59314 0
M  V30 122 H 15.0547 6.54938 -2.32553 0
M  V30 123 H 18.2457 4.49975 -1.28998 0
M  V30 124 H 18.4187 6.15472 -2.02726 0
M  V30 125 N 11.8248 0.280983 1.55075 0
M  V30 126 C 13.0498 -0.340154 2.04592 0
M  V30 127 C 13.4748 -1.48246 1.15779 0
M  V30 128 O 12.8328 -1.80614 0.15761 0
M  V30 129 C 12.8808 -0.793104 3.5177 0
M  V30 130 O 11.9848 -1.89981 3.66034 0
M  V30 131 H 11.3258 -0.0694289 0.66036 0
M  V30 132 H 13.8558 0.416993 2.00306 0
M  V30 133 H 13.8658 -1.08729 3.93245 0
M  V30 134 H 12.5408 0.0426163 4.15878 0
M  V30 135 H 11.1178 -1.60771 3.36463 0
M  V30 136 N 13.3029 -1.57598 0.00835791 0
M  V30 137 C 14.5489 -1.91211 -0.675732 0
M  V30 138 C 14.8819 -0.883139 -1.72958 0
M  V30 139 O 14.1569 0.097016 -1.94258 0
M  V30 140 C 14.4399 -3.35379 -1.31123 0
M  V30 141 C 14.2929 -4.48999 -0.268356 0
M  V30 142 C 15.6119 -3.7912 -2.23508 0
M  V30 143 H 12.7309 -0.695374 -0.244179 0
M  V30 144 H 15.3729 -1.89901 0.0613655 0
M  V30 145 H 13.5229 -3.36626 -1.93946 0
M  V30 146 H 15.1949 -4.59887 0.360844 0
M  V30 147 H 13.4379 -4.31873 0.408482 0
M  V30 148 H 14.1089 -5.46851 -0.752218 0
M  V30 149 H 16.5849 -3.79477 -1.70693 0
M  V30 150 H 15.4609 -4.80729 -2.64936 0
M  V30 151 H 15.7219 -3.13455 -3.11766 0
M  V30 152 N 14.781 0.264519 -1.55364 0
M  V30 153 C 15.714 1.35297 -1.83766 0
M  V30 154 C 16.692 1.47171 -0.691336 0
M  V30 155 O 17.876 1.63663 -0.935238 0
M  V30 156 C 15.003 2.72847 -2.00679 0
M  V30 157 C 14.049 2.78214 -3.23263 0
M  V30 158 S 14.882 2.36601 -4.80396 0
M  V30 159 C 16.038 3.7611 -5.00292 0
M  V30 160 H 16.271 1.11003 -2.758 0
M  V30 161 H 13.804 0.464596 -1.47244 0
M  V30 162 H 15.762 3.52057 -2.11108 0
M  V30 163 H 14.423 2.94388 -1.09518 0
M  V30 164 H 13.616 3.7919 -3.3201 0
M  V30 165 H 13.218 2.07034 -3.11469 0
M  V30 166 H 15.51 4.71457 -4.86554 0
M  V30 167 H 16.453 3.7231 -6.02321 0
M  V30 168 H 16.861 3.67806 -4.28228 0
M  V30 169 N 16.2591 1.48442 0.529413 0
M  V30 170 C 17.4871 1.60151 1.30994 0
M  V30 171 C 17.9021 0.261985 1.86973 0
M  V30 172 O 17.2591 -0.748805 1.66431 0
M  V30 173 C 17.3101 2.64854 2.46038 0
M  V30 174 O 17.0311 3.93608 1.92365 0
M  V30 175 C 18.5321 2.87007 3.37849 0
M  V30 176 H 15.7521 0.539971 0.398338 0
M  V30 177 H 18.2961 1.94273 0.638597 0
M  V30 178 H 16.4511 2.33589 3.09055 0
M  V30 179 H 16.8651 4.51055 2.67675 0
M  V30 180 H 18.3391 3.64068 4.14919 0
M  V30 181 H 18.8161 1.95852 3.93114 0
M  V30 182 H 19.4221 3.19579 2.80623 0
M  V30 183 N 17.7372 -0.778329 1.37039 0
M  V30 184 C 18.6672 -1.90546 1.34962 0
M  V30 185 C 19.6482 -1.68681 0.219274 0
M  V30 186 O 20.8332 -1.89634 0.418624 0
M  V30 187 C 17.9632 -3.27734 1.14925 0
M  V30 188 C 16.9172 -3.64147 2.24902 0
M  V30 189 C 16.2432 -4.99806 1.89996 0
M  V30 190 C 17.5432 -3.71579 3.67051 0
M  V30 191 H 19.2372 -1.92541 2.29277 0
M  V30 192 H 16.7832 -0.924948 1.10366 0
M  V30 193 H 18.7362 -4.06215 1.12104 0
M  V30 194 H 17.4602 -3.26154 0.170631 0
M  V30 195 H 16.1192 -2.8797 2.26868 0
M  V30 196 H 15.7672 -4.94759 0.906796 0
M  V30 197 H 15.4672 -5.25139 2.63634 0
M  V30 198 H 16.9912 -5.80694 1.88749 0
M  V30 199 H 18.4052 -4.40227 3.67251 0
M  V30 200 H 16.8022 -4.08405 4.39688 0
M  V30 201 H 17.8722 -2.72404 4.01154 0
M  V30 202 N 19.2153 -1.21501 -1.00376 0
M  V30 203 C 20.4623 -1.03299 -1.74171 0
M  V30 204 C 20.7903 0.433326 -1.89612 0
M  V30 205 O 20.0453 1.33779 -1.42834 0
M  V30 206 C 20.3443 -1.67673 -3.15627 0
M  V30 207 C 20.0103 -3.17533 -3.2013 0
M  V30 208 C 18.6723 -3.58427 -3.21067 0
M  V30 209 C 21.0243 -4.13504 -3.17275 0
M  V30 210 C 18.3523 -4.93794 -3.16835 0
M  V30 211 C 20.7043 -5.48834 -3.14585 0
M  V30 212 C 19.3683 -5.89123 -3.13831 0
M  V30 213 H 18.6383 -0.377999 -0.637336 0
M  V30 214 H 21.2853 -1.51111 -1.17634 0
M  V30 215 H 19.5903 -1.12158 -3.75404 0
M  V30 216 H 21.2873 -1.51091 -3.71446 0
M  V30 217 H 17.8773 -2.84965 -3.20145 0
M  V30 218 H 22.0613 -3.82936 -3.15711 0
M  V30 219 H 17.3173 -5.24255 -3.1459 0
M  V30 220 H 21.4913 -6.22934 -3.1133 0
M  V30 221 H 19.1183 -6.93984 -3.10307 0
M  V30 222 N 20.6934 1.19889 -1.02296 0
M  V30 223 C 21.9184 1.9393 -0.735237 0
M  V30 224 C 22.3434 1.74639 0.698782 0
M  V30 225 O 21.7014 1.04481 1.48167 0
M  V30 226 C 21.7494 3.43916 -1.08417 0
M  V30 227 O 20.8534 4.11917 -0.199446 0
M  V30 228 H 20.1944 0.605645 -0.272196 0
M  V30 229 H 22.7244 1.52137 -1.36804 0
M  V30 230 H 22.7344 3.9456 -1.03856 0
M  V30 231 H 21.4094 3.5728 -2.12894 0
M  V30 232 H 19.9864 3.71666 -0.303136 0
M  V30 233 N 22.1715 0.800033 1.35784 0
M  V30 234 C 23.4195 0.376597 1.9856 0
M  V30 235 C 23.7405 -1.05812 1.63795 0
M  V30 236 O 23.0105 -1.73103 0.917171 0
M  V30 237 H 21.5905 0.136261 0.734467 0
M  V30 238 H 24.2525 1.02442 1.65806 0
M  V30 239 H 23.3485 0.477002 3.08433 0
M  V30 240 N 23.6496 -1.47581 0.552962 0
M  V30 241 C 25.0606 -1.86324 0.118463 0
M  V30 242 C 25.4116 -1.46006 -1.3106 0
M  V30 243 O 24.5366 -0.861182 -1.98526 0
M  V30 244 C 25.1316 -3.3816 0.20821 0
M  V30 245 C 23.6906 -3.7601 -0.171226 0
M  V30 246 C 22.8376 -2.71634 0.557686 0
M  V30 247 H 25.7886 -1.39159 0.762928 0
M  V30 248 H 25.8096 -3.76141 -0.574278 0
M  V30 249 H 25.3216 -3.67473 1.24841 0
M  V30 250 H 23.4226 -3.52313 -1.21269 0
M  V30 251 H 23.5356 -4.78745 0.184379 0
M  V30 252 H 21.8996 -2.547 0.00125792 0
M  V30 253 H 22.6826 -3.0379 1.59896 0
M  V30 254 N 25.1277 -0.289203 -1.54924 0
M  V30 255 C 26.3557 0.326463 -2.04308 0
M  V30 256 C 26.7707 1.48413 -1.16701 0
M  V30 257 O 26.1277 1.81507 -0.190087 0
M  V30 258 C 26.1787 0.794014 -3.52672 0
M  V30 259 O 25.8997 -0.317564 -4.36948 0
M  V30 260 C 27.4007 1.47605 -4.18004 0
M  V30 261 H 24.6207 0.0726272 -0.667058 0
M  V30 262 H 27.1647 -0.425401 -2.00026 0
M  V30 263 H 25.3197 1.49593 -3.57352 0
M  V30 264 H 25.7337 0.0443186 -5.24481 0
M  V30 265 H 27.2077 1.75447 -5.23376 0
M  V30 266 H 27.6847 2.41224 -3.67025 0
M  V30 267 H 28.2907 0.81762 -4.17367 0
M  V30 268 N 26.6058 1.57591 -0.0167156 0
M  V30 269 C 27.8828 1.82547 0.702564 0
M  V30 270 C 28.2628 0.898018 1.91047 0
M  V30 271 O 27.6108 -0.0493456 2.28447 0
M  V30 272 C 27.8208 3.31459 1.09251 0
M  V30 273 C 29.1688 3.97622 1.48937 0
M  V30 274 O 30.1928 3.35881 1.18584 0
M  V30 275 O 29.0518 5.06415 2.05442 0
M  V30 276 H 26.1458 0.752268 0.343544 0
M  V30 277 H 28.6918 1.69644 -0.0434495 0
M  V30 278 H 27.4638 3.9061 0.23227 0
M  V30 279 H 27.0868 3.49422 1.89709 0
M  V30 280 N 28.0839 -0.256276 1.55502 0
M  V30 281 C 29.3329 -0.983486 1.76098 0
M  V30 282 C 29.6459 -1.86837 0.578896 0
M  V30 283 O 30.8519 -2.63163 0.667648 0
M  V30 284 C 29.3079 -1.79868 3.1173 0
M  V30 285 C 28.9159 -0.961648 4.37557 0
M  V30 286 C 30.6599 -2.51919 3.41668 0
M  V30 287 C 28.5669 -1.77219 5.64223 0
M  V30 288 H 27.4969 -0.370936 0.656447 0
M  V30 289 H 30.1479 -0.238492 1.81944 0
M  V30 290 H 28.5299 -2.58527 2.99966 0
M  V30 291 H 29.7039 -0.218048 4.60284 0
M  V30 292 H 28.0189 -0.354913 4.14885 0
M  V30 293 H 30.6159 -3.12998 4.33516 0
M  V30 294 H 30.9589 -3.23059 2.62562 0
M  V30 295 H 31.4919 -1.80278 3.54605 0
M  V30 296 H 28.2309 -1.10471 6.46124 0
M  V30 297 H 27.7509 -2.49132 5.45613 0
M  V30 298 H 29.4299 -2.34169 6.03137 0
M  V30 299 N 29.562 -1.4872 -0.521534 0
M  V30 300 C 30.809 -1.57168 -1.27689 0
M  V30 301 C 31.137 -0.249275 -1.92896 0
M  V30 302 O 30.392 0.761162 -1.80291 0
M  V30 303 C 30.691 -2.66497 -2.38148 0
M  V30 304 C 30.357 -4.08664 -1.90538 0
M  V30 305 C 29.019 -4.47357 -1.77271 0
M  V30 306 C 31.371 -4.97724 -1.54663 0
M  V30 307 C 28.699 -5.72905 -1.26478 0
M  V30 308 C 31.051 -6.2377 -1.05329 0
M  V30 309 C 29.715 -6.61311 -0.906861 0
M  V30 310 H 28.985 -0.575117 -0.467249 0
M  V30 311 H 31.632 -1.82472 -0.581051 0
M  V30 312 H 29.937 -2.35085 -3.13437 0
M  V30 313 H 31.634 -2.70246 -2.96257 0
M  V30 314 H 28.224 -3.78111 -2.01816 0
M  V30 315 H 32.408 -4.68501 -1.63768 0
M  V30 316 H 27.664 -6.00709 -1.13835 0
M  V30 317 H 31.838 -6.9217 -0.76644 0
M  V30 318 H 29.465 -7.5848 -0.511083 0
M  V30 319 N 31.0401 0.771051 -1.3745 0
M  V30 320 C 32.2651 1.56529 -1.36065 0
M  V30 321 C 32.6901 1.88029 0.0515859 0
M  V30 322 O 32.0481 1.49282 1.02882 0
M  V30 323 C 32.0961 2.85187 -2.20683 0
M  V30 324 O 31.2001 3.79593 -1.61193 0
M  V30 325 H 30.5411 0.47411 -0.464883 0
M  V30 326 H 33.0711 0.954269 -1.80983 0
M  V30 327 H 33.0811 3.34283 -2.33921 0
M  V30 328 H 31.7561 2.61588 -3.23334 0
M  V30 329 H 30.3331 3.38239 -1.56999 0
M  V30 330 N 32.5182 1.22032 0.997298 0
M  V30 331 C 33.4682 0.953838 2.07089 0
M  V30 332 C 34.4522 -0.0938669 1.60626 0
M  V30 333 O 35.6442 0.116078 1.76619 0
M  V30 334 C 32.7732 0.528726 3.39204 0
M  V30 335 C 31.8592 1.61092 3.92314 0
M  V30 336 N 32.2502 2.83768 4.18699 0
M  V30 337 C 30.5482 1.48158 4.20672 0
M  V30 338 C 31.2492 3.53715 4.61802 0
M  V30 339 N 30.2252 2.81174 4.65233 0
M  V30 340 H 34.0272 1.88577 2.25424 0
M  V30 341 H 31.5412 1.11719 1.17867 0
M  V30 342 H 33.5382 0.31915 4.15677 0
M  V30 343 H 32.1982 -0.39635 3.22272 0
M  V30 344 H 33.2092 3.20238 4.07023 0
M  V30 345 H 29.8862 0.622369 4.12835 0
M  V30 346 H 31.2762 4.58793 4.90875 0
M  V30 347 N 33.9963 -1.19345 1.0293 0
M  V30 348 C 34.9283 -2.22036 0.56857 0
M  V30 349 C 35.9413 -1.58865 -0.355779 0
M  V30 350 O 37.1303 -1.77851 -0.152103 0
M  V30 351 C 34.2303 -3.38363 -0.190752 0
M  V30 352 C 33.4033 -4.31118 0.738643 0
M  V30 353 C 32.4623 -5.26194 0.0246497 0
M  V30 354 O 31.4883 -5.65461 0.651354 0
M  V30 355 N 32.6903 -5.66971 -1.24594 0
M  V30 356 H 35.4553 -2.6219 1.45177 0
M  V30 357 H 33.0163 -1.34015 0.908381 0
M  V30 358 H 35.0083 -3.98981 -0.677961 0
M  V30 359 H 33.5783 -2.96994 -0.975366 0
M  V30 360 H 32.7983 -3.68276 1.40593 0
M  V30 361 H 34.0863 -4.90001 1.37029 0
M  V30 362 H 33.4843 -5.37104 -1.77583 0
M  V30 363 H 32.0413 -6.2984 -1.67764 0
M  V30 364 N 35.4744 -0.807222 -1.35358 0
M  V30 365 C 36.7204 -0.388463 -1.99045 0
M  V30 366 C 37.0534 1.04184 -1.63888 0
M  V30 367 O 36.3284 1.72292 -0.902535 0
M  V30 368 C 36.6114 -0.572783 -3.55515 0
M  V30 369 C 36.4644 -2.04807 -4.00468 0
M  V30 370 C 37.7834 0.00114064 -4.401 0
M  V30 371 H 34.9024 -0.142619 -0.723069 0
M  V30 372 H 37.5444 -1.01687 -1.60498 0
M  V30 373 H 35.6944 -0.0378425 -3.88482 0
M  V30 374 H 37.3664 -2.64544 -3.77908 0
M  V30 375 H 35.6094 -2.54427 -3.51353 0
M  V30 376 H 36.2804 -2.12792 -5.09337 0
M  V30 377 H 38.7564 -0.455716 -4.13597 0
M  V30 378 H 37.6324 -0.157737 -5.48673 0
M  V30 379 H 37.8934 1.09488 -4.28328 0
M  V30 380 N 36.9525 1.47285 -0.560781 0
M  V30 381 C 38.3685 1.58065 -0.22081 0
M  V30 382 C 38.5685 1.55892 1.27671 0
M  V30 383 O 37.6245 1.46422 2.0571 0
M  V30 384 C 38.9375 2.88418 -0.850625 0
M  V30 385 C 40.4855 3.02009 -0.822184 0
M  V30 386 C 40.9605 4.35066 -1.43113 0
M  V30 387 N 42.4515 4.41711 -1.39448 0
M  V30 388 C 43.1865 5.43237 -1.83525 0
M  V30 389 N 42.6825 6.51555 -2.35474 0
M  V30 390 N 44.4755 5.34304 -1.74574 0
M  V30 391 H 36.6265 1.46941 -1.53369 0
M  V30 392 H 38.8895 0.699558 -0.639783 0
M  V30 393 H 38.5955 2.95755 -1.9032 0
M  V30 394 H 38.4695 3.75612 -0.345773 0
M  V30 395 H 40.8565 2.94266 0.221714 0
M  V30 396 H 40.9375 2.16347 -1.36483 0
M  V30 397 H 40.5815 4.43565 -2.47412 0
M  V30 398 H 40.5115 5.19465 -0.863899 0
M  V30 399 H 43.0025 3.64027 -1.01452 0
M  V30 400 H 43.3155 7.25203 -2.67021 0
M  V30 401 H 41.6605 6.52435 -2.39487 0
M  V30 402 H 44.8515 4.48581 -1.33763 0
M  V30 403 H 45.0245 6.13288 -2.09242 0
M  V30 404 N 38.4306 0.297415 1.54768 0
M  V30 405 C 39.6796 -0.313669 1.99246 0
M  V30 406 C 39.9926 -1.55281 1.18942 0
M  V30 407 O 41.1986 -2.23825 1.5367 0
M  V30 408 C 39.6546 -0.609407 3.54703 0
M  V30 409 C 39.2626 0.611192 4.43811 0
M  V30 410 C 41.0066 -1.18188 4.07715 0
M  V30 411 C 38.9136 0.288805 5.90694 0
M  V30 412 H 37.8436 -0.120979 0.744231 0
M  V30 413 H 40.4946 0.40556 1.78962 0
M  V30 414 H 38.8766 -1.38813 3.70873 0
M  V30 415 H 40.0506 1.3875 4.39414 0
M  V30 416 H 38.3656 1.10205 4.01552 0
M  V30 417 H 40.9626 -1.43727 5.15021 0
M  V30 418 H 41.3056 -2.12299 3.58099 0
M  V30 419 H 41.8386 -0.464944 3.95074 0
M  V30 420 H 38.5776 1.19838 6.44453 0
M  V30 421 H 38.0976 -0.450305 5.98107 0
M  V30 422 H 39.7766 -0.110933 6.46905 0
M  V30 423 N 39.9087 -1.5758 0.0250728 0
M  V30 424 C 41.1547 -1.91917 -0.655413 0
M  V30 425 C 41.4877 -0.901433 -1.72011 0
M  V30 426 O 40.7627 0.0764069 -1.9435 0
M  V30 427 C 41.0457 -3.36751 -1.27558 0
M  V30 428 C 40.8987 -4.49258 -0.220719 0
M  V30 429 C 42.2177 -3.81469 -2.19475 0
M  V30 430 H 39.3367 -0.697925 -0.23679 0
M  V30 431 H 41.9787 -1.89825 0.0815036 0
M  V30 432 H 40.1287 -3.38664 -1.90365 0
M  V30 433 H 41.8007 -4.59478 0.409601 0
M  V30 434 H 40.0437 -4.31415 0.454264 0
M  V30 435 H 40.7147 -5.47618 -0.694175 0
M  V30 436 H 43.1907 -3.81266 -1.66659 0
M  V30 437 H 42.0667 -4.83512 -2.59822 0
M  V30 438 H 42.3277 -3.16744 -3.08424 0
M  V30 439 N 41.3868 0.248026 -1.55636 0
M  V30 440 C 42.3168 1.31079 -1.93237 0
M  V30 441 C 43.2978 1.50264 -0.797174 0
M  V30 442 O 44.4828 1.62891 -1.05737 0
M  V30 443 C 41.6128 2.66575 -2.22609 0
M  V30 444 C 40.5668 2.62087 -3.3837 0
M  V30 445 C 39.8928 4.01369 -3.53281 0
M  V30 446 C 41.1928 2.19171 -4.7409 0
M  V30 447 H 42.8868 0.998556 -2.82257 0
M  V30 448 H 40.4328 0.47891 -1.35803 0
M  V30 449 H 42.3858 3.41057 -2.47503 0
M  V30 450 H 41.1098 2.99432 -1.30414 0
M  V30 451 H 39.7688 1.90063 -3.13483 0
M  V30 452 H 39.4168 4.31489 -2.58508 0
M  V30 453 H 39.1168 3.99254 -4.31127 0
M  V30 454 H 40.6408 4.77552 -3.80495 0
M  V30 455 H 42.0548 2.83384 -4.98363 0
M  V30 456 H 40.4518 2.2817 -5.5503 0
M  V30 457 H 41.5218 1.14336 -4.71227 0
M  V30 458 N 42.8649 1.48995 0.513639 0
M  V30 459 C 43.8279 1.64229 1.59879 0
M  V30 460 C 44.8279 0.514696 1.5234 0
M  V30 461 O 46.0179 0.78087 1.55718 0
M  V30 462 C 43.1499 1.62783 2.99524 0
M  V30 463 H 44.3429 2.61004 1.47705 0
M  V30 464 H 41.8959 1.37837 0.736936 0
M  V30 465 H 42.6309 0.675461 3.17188 0
M  V30 466 H 42.4159 2.4466 3.06404 0
M  V30 467 H 43.9059 1.76669 3.78388 0
M  V30 468 N 44.343 -0.763751 1.37857 0
M  V30 469 C 45.253 -1.90817 1.36478 0
M  V30 470 C 46.269 -1.71997 0.263248 0
M  V30 471 O 47.445 -1.95095 0.499979 0
M  V30 472 C 44.51 -3.2605 1.17864 0
M  V30 473 C 43.571 -3.57467 2.3773 0
M  V30 474 C 42.804 -4.86249 2.19995 0
M  V30 475 O 43.027 -5.57884 1.18836 0
M  V30 476 O 41.961 -5.16911 3.08361 0
M  V30 477 H 45.787 -1.94933 2.32884 0
M  V30 478 H 43.372 -0.907619 1.1867 0
M  V30 479 H 45.254 -4.06924 1.09504 0
M  V30 480 H 43.929 -3.22769 0.245372 0
M  V30 481 H 42.836 -2.76796 2.51664 0
M  V30 482 H 44.169 -3.655 3.29652 0
M  V30 483 N 45.8211 -1.22559 -0.990812 0
M  V30 484 C 46.7681 -0.997519 -2.0813 0
M  V30 485 C 47.7381 0.0814702 -1.659 0
M  V30 486 O 48.9231 -0.0685424 -1.90677 0
M  V30 487 C 46.0631 -0.583615 -3.40129 0
M  V30 488 C 45.1761 -1.7336 -3.9569 0
M  V30 489 C 44.3111 -1.26748 -5.15857 0
M  V30 490 C 43.3501 -2.38888 -5.63559 0
M  V30 491 N 42.4871 -1.93308 -6.74964 0
M  V30 492 H 47.3271 -1.93099 -2.26973 0
M  V30 493 H 44.8641 -0.962114 -1.11273 0
M  V30 494 H 46.8221 -0.324801 -4.15934 0
M  V30 495 H 45.4521 0.312845 -3.2128 0
M  V30 496 H 44.5041 -2.10669 -3.16738 0
M  V30 497 H 45.8161 -2.57704 -4.27071 0
M  V30 498 H 44.9701 -0.966173 -5.98957 0
M  V30 499 H 43.7091 -0.394272 -4.86104 0
M  V30 500 H 42.7141 -2.69805 -4.79046 0
M  V30 501 H 43.9391 -3.26728 -5.95336 0
M  V30 502 H 41.8851 -1.08352 -6.4699 0
M  V30 503 H 41.8021 -2.71217 -7.05675 0
M  V30 504 H 43.0701 -1.66252 -7.61564 0
M  V30 505 N 47.2992 1.18797 -1.03562 0
M  V30 506 C 48.5472 1.88278 -0.734569 0
M  V30 507 C 48.8682 1.8043 0.739586 0
M  V30 508 O 48.1382 1.21925 1.53333 0
M  V30 509 H 46.7182 0.696991 -0.268725 0
M  V30 510 H 49.3802 1.44192 -1.31129 0
M  V30 511 H 48.4762 2.94443 -1.03489 0
M  V30 512 N 48.7773 0.814389 1.34928 0
M  V30 513 C 50.0233 0.399013 1.98836 0
M  V30 514 C 50.3563 -1.03314 1.64438 0
M  V30 515 O 49.6313 -1.71811 0.911659 0
M  V30 516 C 49.9143 0.591629 3.55207 0
M  V30 517 C 49.7673 2.06928 3.99376 0
M  V30 518 C 51.0863 0.022199 4.40094 0
M  V30 519 H 48.2053 0.146451 0.722303 0
M  V30 520 H 50.8473 1.02537 1.59957 0
M  V30 521 H 48.9973 0.0584441 3.88456 0
M  V30 522 H 50.6693 2.66544 3.76499 0
M  V30 523 H 48.9123 2.56287 3.49999 0
M  V30 524 H 49.5833 2.1549 5.08201 0
M  V30 525 H 52.0593 0.477643 4.13349 0
M  V30 526 H 50.9353 0.186832 5.48582 0
M  V30 527 H 51.1963 -1.07215 4.28902 0
M  V30 528 N 50.2554 -1.46986 0.568584 0
M  V30 529 C 51.4804 -2.07335 0.0520528 0
M  V30 530 C 51.9054 -1.41675 -1.23733 0
M  V30 531 O 51.2634 -0.495623 -1.74394 0
M  V30 532 C 51.3114 -3.60417 -0.11501 0
M  V30 533 O 50.4154 -3.95309 -1.17492 0
M  V30 534 H 49.7564 -0.661597 0.0564385 0
M  V30 535 H 52.2864 -1.88837 0.787507 0
M  V30 536 H 52.2964 -4.06698 -0.325644 0
M  V30 537 H 50.9714 -4.07601 0.826675 0
M  V30 538 H 49.5484 -3.60757 -0.943869 0
M  V30 539 N 51.7335 -0.305618 -1.54608 0
M  V30 540 C 52.9795 0.302746 -2.00528 0
M  V30 541 C 53.3125 1.53184 -1.19367 0
M  V30 542 O 52.5875 1.92598 -0.271321 0
M  V30 543 C 52.8705 0.654756 -3.54097 0
M  V30 544 C 52.7235 -0.583793 -4.45995 0
M  V30 545 C 54.0425 1.47947 -4.14487 0
M  V30 546 H 51.1615 0.108564 -0.72896 0
M  V30 547 H 53.8035 -0.418634 -1.85331 0
M  V30 548 H 51.9535 1.26935 -3.67178 0
M  V30 549 H 53.6255 -1.22224 -4.44814 0
M  V30 550 H 51.8685 -1.21615 -4.16404 0
M  V30 551 H 52.5395 -0.293287 -5.5122 0
M  V30 552 H 55.0155 0.96013 -4.04871 0
M  V30 553 H 53.8915 1.69454 -5.22088 0
M  V30 554 H 54.1525 2.47011 -3.66658 0
M  V30 555 N 53.2116 1.57565 -0.0334293 0
M  V30 556 C 54.1216 2.13943 0.962572 0
M  V30 557 C 55.1376 1.09276 1.35406 0
M  V30 558 O 56.3136 1.41355 1.4346 0
M  V30 559 C 53.3786 2.65887 2.22497 0
M  V30 560 C 52.4396 3.85286 1.8935 0
M  V30 561 C 51.6726 4.34743 3.09571 0
M  V30 562 O 51.8956 3.83352 4.22371 0
M  V30 563 O 50.8296 5.26538 2.91618 0
M  V30 564 H 54.6556 2.99333 0.513169 0
M  V30 565 H 52.2406 1.4822 0.18743 0
M  V30 566 H 54.1226 2.99346 2.96598 0
M  V30 567 H 52.7976 1.83578 2.6661 0
M  V30 568 H 51.7046 3.56746 1.1262 0
M  V30 569 H 53.0376 4.68771 1.5005 0
M  V30 570 N 54.6897 -0.239769 1.55765 0
M  V30 571 C 55.9387 -0.964754 1.77131 0
M  V30 572 C 56.2517 -1.86213 0.59868 0
M  V30 573 O 57.4577 -2.6244 0.695522 0
M  V30 574 C 55.9137 -1.76552 3.1362 0
M  V30 575 C 55.5217 -0.915185 4.38553 0
M  V30 576 C 57.2657 -2.48281 3.44321 0
M  V30 577 C 55.1727 -1.71225 5.66071 0
M  V30 578 H 54.1027 -0.363953 0.660344 0
M  V30 579 H 56.7537 -0.219181 1.82186 0
M  V30 580 H 55.1357 -2.55331 3.02691 0
M  V30 581 H 56.3097 -0.169217 4.60489 0
M  V30 582 H 54.6247 -0.310889 4.15238 0
M  V30 583 H 57.2217 -3.08382 4.36812 0
M  V30 584 H 57.5647 -3.20256 2.65973 0
M  V30 585 H 58.0977 -1.76507 3.56497 0
M  V30 586 H 54.8367 -1.03612 6.4726 0
M  V30 587 H 54.3567 -2.43331 5.48224 0
M  V30 588 H 56.0357 -2.27758 6.05587 0
M  V30 589 N 56.1678 -1.49265 -0.50573 0
M  V30 590 C 57.0778 -1.68312 -1.63427 0
M  V30 591 C 58.0938 -0.565682 -1.64548 0
M  V30 592 O 59.2698 -0.839801 -1.83055 0
M  V30 593 C 56.3348 -1.74107 -2.99813 0
M  V30 594 C 55.3958 -2.97653 -3.09356 0
M  V30 595 C 54.6288 -3.03163 -4.39236 0
M  V30 596 O 54.8518 -2.16396 -5.27758 0
M  V30 597 O 53.7858 -3.9558 -4.53652 0
M  V30 598 H 57.6118 -2.63907 -1.50289 0
M  V30 599 H 55.1968 -1.32951 -0.681502 0
M  V30 600 H 57.0788 -1.803 -3.80881 0
M  V30 601 H 55.7538 -0.816901 -3.13223 0
M  V30 602 H 54.6608 -2.96981 -2.27493 0
M  V30 603 H 55.9938 -3.89535 -3.00871 0
M  V30 604 N 57.6459 0.756429 -1.3826 0
M  V30 605 C 58.5779 1.87971 -1.31147 0
M  V30 606 C 59.5909 1.61248 -0.224239 0
M  V30 607 O 60.7799 1.71881 -0.481581 0
M  V30 608 C 57.8799 3.23545 -1.00857 0
M  V30 609 C 57.0529 3.77794 -2.20432 0
M  V30 610 C 56.1119 4.91877 -1.86931 0
M  V30 611 O 55.1379 5.06659 -2.59395 0
M  V30 612 N 56.3399 5.74643 -0.822568 0
M  V30 613 H 59.1049 1.94585 -2.2794 0
M  V30 614 H 56.6659 0.936234 -1.32084 0
M  V30 615 H 58.6579 3.97403 -0.765021 0
M  V30 616 H 57.2279 3.12335 -0.128687 0
M  V30 617 H 56.4479 2.95534 -2.6087 0
M  V30 618 H 57.7359 4.10771 -3.00241 0
M  V30 619 H 57.1339 5.65266 -0.221575 0
M  V30 620 H 55.6909 6.48661 -0.638899 0
M  V30 621 N 59.124 1.23083 0.984299 0
M  V30 622 C 60.37 1.06214 1.72761 0
M  V30 623 C 60.703 -0.400584 1.90024 0
M  V30 624 O 59.978 -1.29672 1.44967 0
M  V30 625 C 60.261 1.78375 3.12817 0
M  V30 626 C 60.114 3.32296 3.03149 0
M  V30 627 C 61.433 1.54309 4.12161 0
M  V30 628 H 58.552 0.387251 0.627061 0
M  V30 629 H 61.194 1.51536 1.14616 0
M  V30 630 H 59.344 1.39848 3.62457 0
M  V30 631 H 61.016 3.8032 2.61064 0
M  V30 632 H 59.259 3.6153 2.39747 0
M  V30 633 H 59.93 3.77972 4.02295 0
M  V30 634 H 62.406 1.87791 3.71314 0
M  V30 635 H 61.282 2.07281 5.08258 0
M  V30 636 H 61.543 0.477572 4.39513 0
M  V30 637 N 60.6021 -1.18246 1.0419 0
M  V30 638 C 61.5121 -2.25574 0.644476 0
M  V30 639 C 62.5281 -1.70845 -0.329826 0
M  V30 640 O 63.7041 -2.00554 -0.184443 0
M  V30 641 C 60.7691 -3.46697 0.014877 0
M  V30 642 C 59.8301 -4.16554 1.03834 0
M  V30 643 C 59.0631 -5.31894 0.438692 0
M  V30 644 O 59.2861 -5.65385 -0.754752 0
M  V30 645 O 58.2201 -5.90459 1.168 0
M  V30 646 H 62.0461 -2.61836 1.53869 0
M  V30 647 H 59.6311 -1.25352 0.812854 0
M  V30 648 H 61.5131 -4.20062 -0.335538 0
M  V30 649 H 60.1881 -3.12255 -0.853138 0
M  V30 650 H 59.0951 -3.45251 1.44057 0
M  V30 651 H 60.4281 -4.54998 1.87716 0
M  V30 652 N 62.0802 -0.821533 -1.34494 0
M  V30 653 C 63.0432 -0.247847 -2.27856 0
M  V30 654 C 64.0432 0.573453 -1.50227 0
M  V30 655 O 65.2332 0.389759 -1.69784 0
M  V30 656 C 62.3652 0.652698 -3.34593 0
M  V30 657 H 63.5582 -1.07146 -2.80107 0
M  V30 658 H 61.1112 -0.593291 -1.44602 0
M  V30 659 H 61.8462 1.49943 -2.87555 0
M  V30 660 H 61.6312 0.065292 -3.92046 0
M  V30 661 H 63.1212 1.04793 -4.04238 0
M  V30 662 N 63.5583 1.46682 -0.576371 0
M  V30 663 C 64.8353 1.95599 0.00703437 0
M  V30 664 C 65.2153 1.51904 1.46589 0
M  V30 665 O 64.5633 0.766755 2.15251 0
M  V30 666 C 64.7733 3.4864 -0.158404 0
M  V30 667 C 66.1213 4.24594 -0.0229439 0
M  V30 668 O 67.1453 3.56094 -0.0869173 0
M  V30 669 O 66.0043 5.46373 0.118015 0
M  V30 670 H 63.0983 0.825275 0.053384 0
M  V30 671 H 65.6443 1.56996 -0.644244 0
M  V30 672 H 64.4163 3.7331 -1.17282 0
M  V30 673 H 64.0393 3.94057 0.5296 0
M  V30 674 N 65.0364 0.313813 1.54444 0
M  V30 675 C 65.9844 -0.572171 2.25453 0
M  V30 676 C 66.9784 -1.12657 1.2651 0
M  V30 677 O 68.1844 -1.07573 1.44319 0
M  V30 678 H 64.5594 -0.203146 0.724041 0
M  V30 679 H 66.5304 0.0491145 2.9836 0
M  V30 680 C 65.2794 -1.72626 3.0182 0
M  V30 681 H 64.6024 -1.30891 3.77767 0
M  V30 682 H 66.0424 -2.32199 3.54767 0
M  V30 683 C 64.5014 -2.63806 2.09542 0
M  V30 684 O 65.0314 -3.65256 1.67185 0
M  V30 685 N 63.2374 -2.31824 1.75232 0
M  V30 686 H 62.7844 -1.49368 2.09873 0
M  V30 687 H 62.7424 -2.93095 1.13767 0
M  V30 688 N 66.5145 -1.57545 0.0417849 0
M  V30 689 C 67.4445 -2.14009 -0.933929 0
M  V30 690 C 68.4255 -1.05938 -1.33083 0
M  V30 691 O 69.6105 -1.33833 -1.40721 0
M  V30 692 C 66.7405 -2.67747 -2.21199 0
M  V30 693 C 65.6945 -3.80718 -1.95544 0
M  V30 694 C 65.0205 -4.20935 -3.29724 0
M  V30 695 C 66.3205 -5.06258 -1.28452 0
M  V30 696 H 68.0145 -2.95788 -0.463645 0
M  V30 697 H 65.5605 -1.42285 -0.221573 0
M  V30 698 H 67.5135 -3.05886 -2.89848 0
M  V30 699 H 66.2375 -1.83147 -2.70416 0
M  V30 700 H 64.8965 -3.43037 -1.2931 0
M  V30 701 H 64.5445 -3.33298 -3.76724 0
M  V30 702 H 64.2445 -4.9707 -3.13361 0
M  V30 703 H 65.7685 -4.61666 -3.9962 0
M  V30 704 H 67.1825 -5.41903 -1.8712 0
M  V30 705 H 65.5795 -5.87475 -1.22445 0
M  V30 706 H 66.6495 -4.84207 -0.259219 0
M  V30 707 N 67.9926 0.231505 -1.5589 0
M  V30 708 C 69.4036 0.799327 -1.68724 0
M  V30 709 C 69.7546 1.85398 -0.642022 0
M  V30 710 O 68.8796 2.1539 0.208784 0
M  V30 711 C 69.4746 1.45664 -3.05888 0
M  V30 712 C 68.0336 1.97197 -3.20609 0
M  V30 713 C 67.1806 0.828552 -2.64632 0
M  V30 714 H 70.1316 0.00702616 -1.58698 0
M  V30 715 H 70.1526 2.32517 -3.01191 0
M  V30 716 H 69.6646 0.688808 -3.81939 0
M  V30 717 H 67.7656 2.76813 -2.4941 0
M  V30 718 H 67.8786 2.15878 -4.27707 0
M  V30 719 H 66.2426 1.23321 -2.22854 0
M  V30 720 H 67.0256 0.0735544 -3.43221 0
M  V30 721 N 69.4707 1.49531 0.497807 0
M  V30 722 C 70.4027 1.62559 1.61578 0
M  V30 723 C 71.4157 0.508134 1.54667 0
M  V30 724 O 72.6047 0.780309 1.60541 0
M  V30 725 C 69.7047 1.56925 3.00379 0
M  V30 726 C 68.8777 2.84257 3.3244 0
M  V30 727 C 67.9367 2.71632 4.50669 0
M  V30 728 O 66.9627 3.4557 4.52294 0
M  V30 729 N 68.1647 1.83391 5.5077 0
M  V30 730 H 70.9297 2.58981 1.50828 0
M  V30 731 H 68.4907 1.4666 0.685743 0
M  V30 732 H 70.4827 1.46129 3.77397 0
M  V30 733 H 69.0527 0.683483 3.05037 0
M  V30 734 H 68.2727 3.09381 2.44289 0
M  V30 735 H 69.5607 3.68666 3.5066 0
M  V30 736 H 68.9587 1.22583 5.52259 0
M  V30 737 H 67.5157 1.78515 6.26878 0
M  V30 738 N 70.9488 -0.749086 1.3866 0
M  V30 739 C 72.2258 -1.4992 1.25632 0
M  V30 740 C 72.6058 -2.10633 -0.140317 0
M  V30 741 O 71.9538 -1.97437 -1.15025 0
M  V30 742 C 72.1638 -2.56195 2.36992 0
M  V30 743 C 73.5118 -3.22972 2.75634 0
M  V30 744 O 74.5358 -2.66502 2.36337 0
M  V30 745 O 73.3948 -4.25122 3.43415 0
M  V30 746 H 70.4888 -0.665067 0.491544 0
M  V30 747 H 73.0348 -0.784113 1.50498 0
M  V30 748 H 71.8068 -2.09612 3.30422 0
M  V30 749 H 71.4298 -3.35279 2.13714 0
M  V30 750 N 72.4269 -1.23603 -0.977757 0
M  V30 751 C 73.3569 -1.04401 -2.0886 0
M  V30 752 C 74.3379 0.0399052 -1.70053 0
M  V30 753 O 75.5229 -0.125246 -1.93796 0
M  V30 754 C 72.6529 -0.637269 -3.41403 0
M  V30 755 C 71.6069 -1.66883 -3.94124 0
M  V30 756 C 70.9329 -1.11745 -5.22893 0
M  V30 757 C 72.2329 -3.06247 -4.23096 0
M  V30 758 H 73.9269 -1.97316 -2.25182 0
M  V30 759 H 71.4729 -0.950096 -1.08209 0
M  V30 760 H 73.4259 -0.48998 -4.18542 0
M  V30 761 H 72.1499 0.327557 -3.24953 0
M  V30 762 H 70.8089 -1.80416 -3.19133 0
M  V30 763 H 70.4569 -0.143527 -5.02795 0
M  V30 764 H 70.1569 -1.80672 -5.59134 0
M  V30 765 H 71.6809 -0.982067 -6.02651 0
M  V30 766 H 73.0949 -2.96001 -4.90975 0
M  V30 767 H 71.4919 -3.72436 -4.70544 0
M  V30 768 H 72.5619 -3.55041 -3.30263 0
M  V30 769 N 73.905 1.17692 -1.04816 0
M  V30 770 C 75.154 1.87192 -0.751132 0
M  V30 771 C 75.467 1.8169 0.724441 0
M  V30 772 O 76.673 2.46625 1.13527 0
M  V30 773 C 75.129 3.35857 -1.29338 0
M  V30 774 C 74.737 3.4987 -2.79812 0
M  V30 775 C 76.481 4.10709 -1.07322 0
M  V30 776 C 74.388 4.92536 -3.27356 0
M  V30 777 H 73.318 0.701162 -0.277288 0
M  V30 778 H 75.969 1.32932 -1.26496 0
M  V30 779 H 74.351 3.89631 -0.707376 0
M  V30 780 H 75.525 3.06332 -3.44235 0
M  V30 781 H 73.84 2.88433 -3.00325 0
M  V30 782 H 76.437 5.15952 -1.4035 0
M  V30 783 H 76.78 4.16299 -0.0108001 0
M  V30 784 H 77.313 3.6313 -1.62423 0
M  V30 785 H 74.052 4.92119 -4.33012 0
M  V30 786 H 73.572 5.3676 -2.67673 0
M  V30 787 H 75.251 5.61288 -3.21815 0
M  V30 788 N 75.3831 0.828654 1.34056 0
M  V30 789 C 76.6601 0.341809 1.9259 0
M  V30 790 C 77.0401 -1.17158 1.75605 0
M  V30 791 O 76.3881 -1.98132 1.13824 0
M  V30 792 C 76.5981 0.777453 3.4023 0
M  V30 793 C 77.9461 0.779579 4.17382 0
M  V30 794 O 78.9701 0.7204 3.48839 0
M  V30 795 O 77.8291 0.857996 5.39723 0
M  V30 796 H 74.9231 0.0946085 0.821571 0
M  V30 797 H 77.4691 0.913827 1.42994 0
M  V30 798 H 76.2411 1.8196 3.46419 0
M  V30 799 H 75.8641 0.181444 3.97186 0
M  V30 800 N 76.8612 -1.46375 0.584142 0
M  V30 801 C 77.7912 -2.33103 -0.136037 0
M  V30 802 C 78.7722 -1.45431 -0.882255 0
M  V30 803 O 79.9572 -1.74246 -0.857434 0
M  V30 804 C 77.0872 -3.27731 -1.14933 0
M  V30 805 C 76.0412 -4.24855 -0.517862 0
M  V30 806 C 75.3672 -5.09001 -1.63773 0
M  V30 807 C 76.6672 -5.19439 0.545886 0
M  V30 808 H 78.3612 -2.93568 0.588086 0
M  V30 809 H 75.9072 -1.41166 0.284259 0
M  V30 810 H 77.8602 -3.87261 -1.66153 0
M  V30 811 H 76.5842 -2.65377 -1.90375 0
M  V30 812 H 75.2432 -3.6659 -0.0267361 0
M  V30 813 H 74.8912 -4.43031 -2.38185 0
M  V30 814 H 74.5912 -5.74777 -1.22085 0
M  V30 815 H 76.1152 -5.71396 -2.15266 0
M  V30 816 H 77.5292 -5.73177 0.118704 0
M  V30 817 H 75.9262 -5.93566 0.88317 0
M  V30 818 H 76.9962 -4.63285 1.43162 0
M  V30 819 N 78.3393 -0.321999 -1.54275 0
M  V30 820 C 79.2873 0.560206 -2.25753 0
M  V30 821 C 80.2813 1.11984 -1.27106 0
M  V30 822 O 81.4873 1.06806 -1.44888 0
M  V30 823 H 77.8623 0.199304 -0.725108 0
M  V30 824 H 79.8333 -0.0649365 -2.98329 0
M  V30 825 C 78.5823 1.71023 -3.02731 0
M  V30 826 H 77.9053 1.28885 -3.78456 0
M  V30 827 H 79.3453 2.30314 -3.55993 0
M  V30 828 C 77.8043 2.62692 -2.10938 0
M  V30 829 O 78.3343 3.64364 -1.6912 0
M  V30 830 N 76.5403 2.30891 -1.76459 0
M  V30 831 H 76.0873 1.48253 -2.10663 0
M  V30 832 H 76.0453 2.92487 -1.1532 0
M  V30 833 N 79.8174 1.5752 -0.0501392 0
M  V30 834 C 81.2284 1.80271 0.485705 0
M  V30 835 C 81.5794 0.96228 1.70981 0
M  V30 836 O 80.7044 0.178578 2.15662 0
M  V30 837 C 81.2994 3.26957 0.887938 0
M  V30 838 C 79.8584 3.5063 1.36877 0
M  V30 839 C 79.0054 2.75165 0.343468 0
M  V30 840 H 81.9564 1.56281 -0.276028 0
M  V30 841 H 81.9774 3.37821 1.75093 0
M  V30 842 H 81.4894 3.881 -0.0031809 0
M  V30 843 H 79.5904 2.94766 2.27911 0
M  V30 844 H 79.7034 4.59343 1.36164 0
M  V30 845 H 78.0674 2.4127 0.816128 0
M  V30 846 H 78.8504 3.39034 -0.539548 0
M  V30 847 N 81.2955 -0.223234 1.56011 0
M  V30 848 C 82.5255 -0.963413 1.82762 0
M  V30 849 C 82.9335 -1.78516 0.626804 0
M  V30 850 O 82.2765 -1.78974 -0.414014 0
M  V30 851 C 82.3385 -1.93126 3.0322 0
M  V30 852 C 82.0025 -1.2942 4.38291 0
M  V30 853 C 82.9995 -0.684916 5.15369 0
M  V30 854 C 80.6845 -1.30647 4.85012 0
M  V30 855 C 82.6785 -0.0963971 6.37327 0
M  V30 856 C 80.3655 -0.71411 6.06913 0
M  V30 857 C 81.3635 -0.110123 6.82911 0
M  V30 858 O 81.0515 0.47303 8.02507 0
M  V30 859 H 80.7835 -0.288011 0.611576 0
M  V30 860 H 83.3375 -0.244103 2.03944 0
M  V30 861 H 81.5675 -2.68952 2.77852 0
M  V30 862 H 83.2565 -2.53685 3.16857 0
M  V30 863 H 84.0225 -0.667774 4.80381 0
M  V30 864 H 79.9015 -1.76598 4.25833 0
M  V30 865 H 83.4455 0.375657 6.96588 0
M  V30 866 H 79.3425 -0.728659 6.41374 0
M  V30 867 H 80.1105 0.367186 8.17676 0
M  V30 868 N 82.7736 -1.49793 -0.48987 0
M  V30 869 C 84.1896 -1.36803 -0.822022 0
M  V30 870 C 84.3896 -0.409652 -1.97292 0
M  V30 871 O 83.4456 0.154614 -2.52026 0
M  V30 872 C 84.7586 -2.77768 -1.15175 0
M  V30 873 C 86.3066 -2.86549 -1.25931 0
M  V30 874 C 86.7816 -4.28306 -1.62228 0
M  V30 875 N 88.2726 -4.31169 -1.69256 0
M  V30 876 C 89.0076 -5.37832 -1.98807 0
M  V30 877 N 88.5036 -6.54726 -2.26507 0
M  V30 878 N 90.2966 -5.25258 -2.00152 0
M  V30 879 H 82.4476 -2.10691 0.268881 0
M  V30 880 H 84.7106 -0.946241 0.057728 0
M  V30 881 H 84.4166 -3.49648 -0.379335 0
M  V30 882 H 84.2906 -3.13836 -2.09253 0
M  V30 883 H 86.6776 -2.14899 -2.02243 0
M  V30 884 H 86.7586 -2.54049 -0.298776 0
M  V30 885 H 86.4026 -5.00486 -0.864622 0
M  V30 886 H 86.3326 -4.58279 -2.594 0
M  V30 887 H 88.8236 -3.4687 -1.49965 0
M  V30 888 H 89.1366 -7.31833 -2.48276 0
M  V30 889 H 87.4816 -6.57933 -2.23939 0
M  V30 890 H 90.6726 -4.32938 -1.77996 0
M  V30 891 H 90.8456 -6.08476 -2.22848 0
M  V30 892 N 84.2517 0.741722 -1.39055 0
M  V30 893 C 85.4797 1.53098 -1.39171 0
M  V30 894 C 85.8947 1.88794 0.0155099 0
M  V30 895 O 85.2517 1.53626 0.985159 0
M  V30 896 C 85.3027 2.82274 -2.2584 0
M  V30 897 O 85.0237 2.48097 -3.61081 0
M  V30 898 C 86.5247 3.76343 -2.34266 0
M  V30 899 H 83.7447 0.473335 -0.4756 0
M  V30 900 H 86.2887 0.917045 -1.82785 0
M  V30 901 H 84.4437 3.40015 -1.85656 0
M  V30 902 H 84.8577 3.31029 -4.06842 0
M  V30 903 H 86.3317 4.63898 -2.9917 0
M  V30 904 H 86.8087 4.17619 -1.35982 0
M  V30 905 H 87.4147 3.24523 -2.74891 0
M  V30 906 N 85.7298 1.2412 0.971189 0
M  V30 907 C 86.9758 1.08041 1.71625 0
M  V30 908 C 87.3088 -0.380407 1.90438 0
M  V30 909 O 86.5838 -1.28127 1.46334 0
M  V30 910 C 86.8668 1.81682 3.10908 0
M  V30 911 C 86.7198 3.35493 2.99608 0
M  V30 912 C 88.0388 1.58671 4.10501 0
M  V30 913 H 85.1578 0.39388 0.622919 0
M  V30 914 H 87.7998 1.52743 1.13003 0
M  V30 915 H 85.9498 1.43684 3.60953 0
M  V30 916 H 87.6218 3.83068 2.57015 0
M  V30 917 H 85.8648 3.64052 2.35899 0
M  V30 918 H 86.5358 3.82217 3.98264 0
M  V30 919 H 89.0118 1.91719 3.69301 0
M  V30 920 H 87.8878 2.1266 5.06031 0
M  V30 921 H 88.1488 0.524161 4.38982 0
M  V30 922 N 87.2079 -1.17134 1.05439 0
M  V30 923 C 88.6189 -1.69084 0.791676 0
M  V30 924 C 88.9699 -1.83822 -0.685839 0
M  V30 925 O 88.0949 -1.52757 -1.53278 0
M  V30 926 C 88.6899 -3.07119 1.4305 0
M  V30 927 C 87.2489 -3.56225 1.21577 0
M  V30 928 C 86.3959 -2.32421 1.51247 0
M  V30 929 H 89.3469 -1.01617 1.219 0
M  V30 930 H 89.3679 -3.71087 0.84112 0
M  V30 931 H 88.8799 -2.9636 2.50584 0
M  V30 932 H 86.9809 -3.72257 0.159787 0
M  V30 933 H 87.0939 -4.38837 1.92246 0
M  V30 934 H 85.4579 -2.3701 0.932653 0
M  V30 935 H 86.2409 -2.24268 2.5992 0
M  V30 936 N 88.686 -0.835752 -1.33615 0
M  V30 937 C 89.914 -0.443344 -2.02094 0
M  V30 938 C 90.329 0.954522 -1.62894 0
M  V30 939 O 89.686 1.61982 -0.840723 0
M  V30 940 C 89.737 -0.550775 -3.5728 0
M  V30 941 O 89.458 -1.89356 -3.95065 0
M  V30 942 C 90.959 -0.154919 -4.43029 0
M  V30 943 H 88.179 -0.176359 -0.647409 0
M  V30 944 H 90.723 -1.12746 -1.70612 0
M  V30 945 H 88.878 0.0853997 -3.87306 0
M  V30 946 H 89.292 -1.87687 -4.89769 0
M  V30 947 H 90.766 -0.281144 -5.51284 0
M  V30 948 H 91.243 0.902863 -4.2982 0
M  V30 949 H 91.849 -0.765404 -4.18356 0
M  V30 950 N 90.1641 1.46063 -0.591896 0
M  V30 951 C 91.0941 2.33172 0.123673 0
M  V30 952 C 92.0751 1.45897 0.87453 0
M  V30 953 O 93.2601 1.74698 0.848181 0
M  V30 954 C 90.3901 3.28336 1.13194 0
M  V30 955 C 89.3441 4.25124 0.495324 0
M  V30 956 C 88.6701 5.09863 1.61071 0
M  V30 957 C 89.9701 5.19143 -0.573425 0
M  V30 958 H 91.6641 2.93252 -0.603646 0
M  V30 959 H 89.2101 1.41014 -0.291741 0
M  V30 960 H 91.1631 3.88137 1.64097 0
M  V30 961 H 89.8871 2.66383 1.88965 0
M  V30 962 H 88.5461 3.66599 0.00729452 0
M  V30 963 H 88.1941 4.44288 2.35832 0
M  V30 964 H 87.8941 5.75417 1.19035 0
M  V30 965 H 89.4181 5.72529 2.12233 0
M  V30 966 H 90.8321 5.73106 -0.1491 0
M  V30 967 H 89.2291 5.93089 -0.914636 0
M  V30 968 H 90.2991 4.62519 -1.45617 0
M  V30 969 N 91.6422 0.330177 1.54103 0
M  V30 970 C 92.8882 -0.270806 2.00984 0
M  V30 971 C 93.2212 -1.51265 1.21789 0
M  V30 972 O 92.4962 -1.92142 0.301927 0
M  V30 973 C 92.7792 -0.598339 3.55094 0
M  V30 974 C 92.6322 0.654674 4.4501 0
M  V30 975 C 93.9512 -1.41334 4.16789 0
M  V30 976 H 91.0702 -0.0969531 0.730595 0
M  V30 977 H 93.7122 0.448066 1.84641 0
M  V30 978 H 91.8622 -1.21078 3.69151 0
M  V30 979 H 93.5342 1.29285 4.42813 0
M  V30 980 H 91.7772 1.28224 4.14416 0
M  V30 981 H 92.4482 0.380944 5.50684 0
M  V30 982 H 94.9242 -0.895597 4.06347 0
M  V30 983 H 93.8002 -1.61127 5.24718 0
M  V30 984 H 94.0612 -2.41146 3.70541 0
M  V30 985 N 93.1203 -1.57491 0.0584922 0
M  V30 986 C 94.3973 -1.84346 -0.653918 0
M  V30 987 C 94.7773 -0.948355 -1.88599 0
M  V30 988 O 94.1253 -0.0112403 -2.28497 0
M  V30 989 C 94.3353 -3.34239 -1.00425 0
M  V30 990 C 95.6833 -4.01431 -1.38342 0
M  V30 991 O 96.7073 -3.38907 -1.09637 0
M  V30 992 O 95.5663 -5.11683 -1.91943 0
M  V30 993 H 92.6603 -0.761112 -0.323478 0
M  V30 994 H 95.2063 -1.6947 0.0884125 0
M  V30 995 H 93.9783 -3.91089 -0.128625 0
M  V30 996 H 93.6013 -3.54329 -1.80378 0
M  V30 997 N 94.5984 0.214957 -1.56127 0
M  V30 998 C 96.0144 0.564948 -1.49267 0
M  V30 999 C 96.2144 1.86827 -0.754838 0
M  V30 1000 O 95.2704 2.50745 -0.297198 0
M  V30 1001 C 96.5834 0.638071 -2.93852 0
M  V30 1002 C 98.1314 0.728253 -3.0441 0
M  V30 1003 C 98.6064 0.832663 -4.50367 0
M  V30 1004 N 100.097 0.896712 -4.54437 0
M  V30 1005 C 100.832 0.997324 -5.6466 0
M  V30 1006 N 100.328 1.06147 -6.8462 0
M  V30 1007 N 102.121 1.03297 -5.52527 0
M  V30 1008 H 94.2724 -0.640211 -2.02522 0
M  V30 1009 H 96.5354 -0.225507 -0.920788 0
M  V30 1010 H 96.2414 -0.250126 -3.50809 0
M  V30 1011 H 96.1154 1.49947 -3.46115 0
M  V30 1012 H 98.5024 1.60689 -2.47514 0
M  V30 1013 H 98.5834 -0.158952 -2.55306 0
M  V30 1014 H 98.2274 -0.0415417 -5.07883 0
M  V30 1015 H 98.1574 1.73538 -4.97184 0
M  V30 1016 H 100.648 0.857188 -3.6805 0
M  V30 1017 H 100.961 1.1382 -7.64372 0
M  V30 1018 H 99.3064 1.03049 -6.87318 0
M  V30 1019 H 102.497 0.979558 -4.57736 0
M  V30 1020 H 102.67 1.10793 -6.38458 0
M  V30 1021 N 96.0765 1.50051 0.48192 0
M  V30 1022 C 96.9865 1.7089 1.60728 0
M  V30 1023 C 98.0025 0.591788 1.63627 0
M  V30 1024 O 99.1785 0.868817 1.81696 0
M  V30 1025 C 96.2435 1.78855 2.97005 0
M  V30 1026 C 95.3045 3.02537 3.04581 0
M  V30 1027 C 94.5375 3.10112 4.34357 0
M  V30 1028 O 94.7605 2.24765 5.24249 0
M  V30 1029 O 93.6945 4.02747 4.47301 0
M  V30 1030 H 97.5205 2.66264 1.46072 0
M  V30 1031 H 95.1055 1.34018 0.660264 0
M  V30 1032 H 96.9875 1.86336 3.77964 0
M  V30 1033 H 95.6625 0.866628 3.11883 0
M  V30 1034 H 94.5695 3.00563 2.22739 0
M  V30 1035 H 95.9025 3.94272 2.94636 0
M  V30 1036 N 97.5546 -0.734337 1.39446 0
M  V30 1037 C 98.4846 -1.86155 1.40955 0
M  V30 1038 C 99.4656 -1.67898 0.272827 0
M  V30 1039 O 100.651 -1.88207 0.478743 0
M  V30 1040 C 97.7806 -3.23912 1.25294 0
M  V30 1041 C 96.7346 -3.56808 2.36373 0
M  V30 1042 C 96.0606 -4.93508 2.058 0
M  V30 1043 C 97.3606 -3.59713 3.78687 0
M  V30 1044 H 99.0546 -1.8515 2.35287 0
M  V30 1045 H 96.6006 -0.889367 1.13253 0
M  V30 1046 H 98.5536 -4.02443 1.2497 0
M  V30 1047 H 97.2776 -3.25446 0.274308 0
M  V30 1048 H 95.9366 -2.80606 2.35914 0
M  V30 1049 H 95.5846 -4.91623 1.06374 0
M  V30 1050 H 95.2846 -5.16486 2.80208 0
M  V30 1051 H 96.8086 -5.74396 2.07128 0
M  V30 1052 H 98.2226 -4.2832 3.81071 0
M  V30 1053 H 96.6196 -3.94209 4.52459 0
M  V30 1054 H 97.6896 -2.59504 4.09617 0
M  V30 1055 N 99.0327 -1.24633 -0.964593 0
M  V30 1056 C 100.261 -1.11501 -1.74285 0
M  V30 1057 C 100.676 0.332165 -1.85855 0
M  V30 1058 O 100.033 1.22903 -1.34911 0
M  V30 1059 C 100.084 -1.75258 -3.16175 0
M  V30 1060 O 99.8047 -3.14318 -3.05182 0
M  V30 1061 C 101.306 -1.67776 -4.10324 0
M  V30 1062 H 98.5257 -0.389407 -0.546446 0
M  V30 1063 H 101.07 -1.64801 -1.21083 0
M  V30 1064 H 99.2247 -1.25954 -3.66353 0
M  V30 1065 H 99.6387 -3.4551 -3.94618 0
M  V30 1066 H 101.113 -2.17064 -5.0753 0
M  V30 1067 H 101.59 -0.639584 -4.34518 0
M  V30 1068 H 102.196 -2.16522 -3.66058 0
M  V30 1069 N 100.511 1.16574 -1.06058 0
M  V30 1070 C 101.441 2.23057 -0.690488 0
M  V30 1071 C 102.422 1.67141 0.315901 0
M  V30 1072 O 103.607 1.93253 0.191556 0
M  V30 1073 C 100.737 3.47222 -0.073625 0
M  V30 1074 C 99.6908 4.16016 -1.00573 0
M  V30 1075 C 99.0168 5.34104 -0.252289 0
M  V30 1076 C 100.317 4.67264 -2.33371 0
M  V30 1077 H 102.011 2.54271 -1.58072 0
M  V30 1078 H 99.5568 1.22218 -0.76149 0
M  V30 1079 H 101.51 4.20939 0.19714 0
M  V30 1080 H 100.234 3.15302 0.85161 0
M  V30 1081 H 98.8928 3.44223 -1.2612 0
M  V30 1082 H 98.5408 4.98437 0.675988 0
M  V30 1083 H 98.2408 5.81072 -0.873455 0
M  V30 1084 H 99.7648 6.10599 0.0109857 0
M  V30 1085 H 101.179 5.32573 -2.12223 0
M  V30 1086 H 99.5758 5.24843 -2.90963 0
M  V30 1087 H 100.646 3.83602 -2.96611 0
M  V30 1088 N 101.989 0.842826 1.3317 0
M  V30 1089 C 103.219 0.453397 2.01564 0
M  V30 1090 C 103.627 -0.951147 1.63554 0
M  V30 1091 O 102.97 -1.63021 0.846746 0
M  V30 1092 C 103.032 0.499013 3.5602 0
M  V30 1093 C 102.696 1.86037 4.1742 0
M  V30 1094 C 103.693 2.82416 4.36506 0
M  V30 1095 C 101.378 2.15428 4.53757 0
M  V30 1096 C 103.372 4.06346 4.91082 0
M  V30 1097 C 101.059 3.39615 5.0804 0
M  V30 1098 C 102.057 4.3489 5.26649 0
M  V30 1099 O 101.745 5.5688 5.79776 0
M  V30 1100 H 101.477 0.177871 0.652179 0
M  V30 1101 H 104.031 1.13808 1.70988 0
M  V30 1102 H 102.261 -0.242467 3.85939 0
M  V30 1103 H 103.95 0.126852 4.05702 0
M  V30 1104 H 104.716 2.6101 4.08777 0
M  V30 1105 H 100.595 1.42061 4.38565 0
M  V30 1106 H 104.139 4.80722 5.05522 0
M  V30 1107 H 100.036 3.60876 5.352 0
M  V30 1108 H 100.804 5.58674 5.98185 0
M  V30 1109 N 103.467 -1.45747 0.599634 0
M  V30 1110 C 104.377 -2.34262 -0.125888 0
M  V30 1111 C 105.393 -1.50768 -0.868625 0
M  V30 1112 O 106.569 -1.83592 -0.828003 0
M  V30 1113 C 103.634 -3.28252 -1.11587 0
M  V30 1114 C 102.695 -4.27651 -0.375956 0
M  V30 1115 C 101.928 -5.1715 -1.31877 0
M  V30 1116 O 102.151 -5.09916 -2.55621 0
M  V30 1117 O 101.085 -5.96286 -0.820157 0
M  V30 1118 H 104.911 -2.97688 0.601315 0
M  V30 1119 H 102.496 -1.44999 0.359934 0
M  V30 1120 H 104.378 -3.86191 -1.68626 0
M  V30 1121 H 103.053 -2.67401 -1.82424 0
M  V30 1122 H 101.96 -3.7335 0.236698 0
M  V30 1123 H 103.293 -4.91334 0.29177 0
M  V30 1124 N 104.945 -0.338344 -1.53925 0
M  V30 1125 C 106.17 0.263987 -2.05713 0
M  V30 1126 C 106.595 1.43847 -1.21201 0
M  V30 1127 O 105.953 1.79904 -0.224535 0
M  V30 1128 C 106.001 0.662 -3.54471 0
M  V30 1129 O 105.105 1.76265 -3.72833 0
M  V30 1130 H 104.446 0.0448722 -0.662482 0
M  V30 1131 H 106.976 -0.491048 -1.9862 0
M  V30 1132 H 106.986 0.940594 -3.9701 0
M  V30 1133 H 105.661 -0.196937 -4.15433 0
M  V30 1134 H 104.238 1.48173 -3.42198 0
M  V30 1135 N 106.423 1.57458 -0.0668435 0
M  V30 1136 C 107.839 1.56947 0.289772 0
M  V30 1137 C 108.039 1.07584 1.70376 0
M  V30 1138 O 107.095 0.739486 2.41429 0
M  V30 1139 C 108.408 3.0052 0.103943 0
M  V30 1140 C 109.956 3.12517 0.173857 0
M  V30 1141 C 110.431 4.57997 0.0163682 0
M  V30 1142 N 111.922 4.63144 0.0721352 0
M  V30 1143 C 112.657 5.73394 -0.0253794 0
M  V30 1144 N 112.153 6.92576 -0.176133 0
M  V30 1145 N 113.946 5.62091 0.0313305 0
M  V30 1146 H 106.097 1.87863 -0.991027 0
M  V30 1147 H 108.36 0.86583 -0.38606 0
M  V30 1148 H 108.066 3.40729 -0.871572 0
M  V30 1149 H 107.94 3.67304 0.858366 0
M  V30 1150 H 110.327 2.72197 1.13985 0
M  V30 1151 H 110.408 2.48381 -0.611586 0
M  V30 1152 H 110.052 4.99005 -0.946374 0
M  V30 1153 H 109.982 5.20158 0.821153 0
M  V30 1154 H 112.473 3.77436 0.187263 0
M  V30 1155 H 112.786 7.72418 -0.242821 0
M  V30 1156 H 111.131 6.94678 -0.211429 0
M  V30 1157 H 114.322 4.67867 0.147773 0
M  V30 1158 H 114.495 6.47982 -0.048121 0
M  V30 1159 N 107.901 -0.206675 1.56239 0
M  V30 1160 C 109.15 -0.926964 1.79138 0
M  V30 1161 C 109.463 -1.84901 0.638043 0
M  V30 1162 O 110.669 -2.60906 0.751033 0
M  V30 1163 C 109.125 -1.6986 3.17294 0
M  V30 1164 C 108.733 -0.821956 4.40395 0
M  V30 1165 C 110.477 -2.40922 3.4951 0
M  V30 1166 C 108.384 -1.59179 5.69575 0
M  V30 1167 H 107.314 -0.349864 0.667915 0
M  V30 1168 H 109.965 -0.180487 1.8261 0
M  V30 1169 H 108.347 -2.48853 3.08039 0
M  V30 1170 H 109.521 -0.0715019 4.60745 0
M  V30 1171 H 107.836 -0.222741 4.15804 0
M  V30 1172 H 110.433 -2.99047 4.43255 0
M  V30 1173 H 110.776 -3.14542 2.72707 0
M  V30 1174 H 111.309 -1.68905 3.60161 0
M  V30 1175 H 108.048 -0.898589 6.49312 0
M  V30 1176 H 107.568 -2.31648 5.53262 0
M  V30 1177 H 109.247 -2.14862 6.10281 0
M  V30 1178 N 109.379 -1.50304 -0.473955 0
M  V30 1179 C 110.628 -1.60392 -1.22301 0
M  V30 1180 C 110.941 -0.308411 -1.93153 0
M  V30 1181 O 112.147 -0.288156 -2.69966 0
M  V30 1182 C 110.603 -2.83109 -2.2221 0
M  V30 1183 C 110.211 -4.19524 -1.57173 0
M  V30 1184 C 111.955 -3.0254 -2.97775 0
M  V30 1185 C 109.862 -5.33431 -2.55353 0
M  V30 1186 H 108.792 -0.597286 -0.460179 0
M  V30 1187 H 111.443 -1.76731 -0.493803 0
M  V30 1188 H 109.825 -2.60322 -2.9841 0
M  V30 1189 H 110.999 -4.52554 -0.867824 0
M  V30 1190 H 109.314 -4.05674 -0.939002 0
M  V30 1191 H 111.911 -3.84811 -3.71248 0
M  V30 1192 H 112.254 -2.14154 -3.56992 0
M  V30 1193 H 112.787 -3.25494 -2.28688 0
M  V30 1194 H 109.526 -6.23962 -2.00878 0
M  V30 1195 H 109.046 -5.04823 -3.23904 0
M  V30 1196 H 110.725 -5.63887 -3.17239 0
M  V30 1197 N 110.857 0.726932 -1.39834 0
M  V30 1198 C 111.79 1.8501 -1.33592 0
M  V30 1199 C 112.768 1.61262 -0.208191 0
M  V30 1200 O 113.952 1.84422 -0.389981 0
M  V30 1201 C 111.079 3.21143 -1.07633 0
M  V30 1202 C 110.125 3.63737 -2.22705 0
M  V30 1203 S 110.958 3.72167 -3.85035 0
M  V30 1204 C 112.114 5.11077 -3.61318 0
M  V30 1205 H 112.347 1.90022 -2.28646 0
M  V30 1206 H 109.88 0.892595 -1.25985 0
M  V30 1207 H 111.838 3.99747 -0.933415 0
M  V30 1208 H 110.499 3.13776 -0.142526 0
M  V30 1209 H 109.692 4.62551 -2.00155 0
M  V30 1210 H 109.294 2.9236 -2.33242 0
M  V30 1211 H 111.586 5.97656 -3.19083 0
M  V30 1212 H 112.529 5.38658 -4.59623 0
M  V30 1213 H 112.937 4.81135 -2.95245 0
M  V30 1214 N 112.336 1.25143 0.95797 0
M  V30 1215 C 113.246 1.06968 2.08794 0
M  V30 1216 C 114.262 0.00773911 1.73998 0
M  V30 1217 O 115.438 0.207972 2.00323 0
M  V30 1218 C 112.503 0.68691 3.39827 0
M  V30 1219 C 111.564 1.82641 3.88511 0
M  V30 1220 C 110.797 1.46181 5.1329 0
M  V30 1221 O 111.02 0.355971 5.69288 0
M  V30 1222 O 109.954 2.29085 5.566 0
M  V30 1223 H 113.78 2.01723 2.27027 0
M  V30 1224 H 111.365 1.04051 1.07209 0
M  V30 1225 H 113.247 0.485417 4.18595 0
M  V30 1226 H 111.922 -0.231417 3.22872 0
M  V30 1227 H 110.829 2.08274 3.10762 0
M  V30 1228 H 112.162 2.72386 4.09959 0
M  V30 1229 N 113.814 -1.1601 1.06675 0
M  V30 1230 C 115.044 -1.90251 0.805497 0
M  V30 1231 C 115.452 -1.77891 -0.64431 0
M  V30 1232 O 114.795 -1.12383 -1.45313 0
M  V30 1233 C 114.857 -3.41419 1.12576 0
M  V30 1234 C 114.521 -3.77564 2.57477 0
M  V30 1235 C 115.518 -3.79161 3.55715 0
M  V30 1236 C 113.203 -4.08079 2.92877 0
M  V30 1237 C 115.197 -4.10767 4.8739 0
M  V30 1238 C 112.884 -4.39351 4.24751 0
M  V30 1239 C 113.882 -4.40675 5.21818 0
M  V30 1240 O 113.57 -4.71202 6.51325 0
M  V30 1241 H 113.302 -0.610018 0.291297 0
M  V30 1242 H 115.856 -1.47958 1.4247 0
M  V30 1243 H 114.086 -3.84079 0.449503 0
M  V30 1244 H 115.775 -3.9694 0.84814 0
M  V30 1245 H 116.541 -3.55693 3.29708 0
M  V30 1246 H 112.42 -4.06211 2.17976 0
M  V30 1247 H 115.964 -4.11715 5.63148 0
M  V30 1248 H 111.861 -4.62285 4.50514 0
M  V30 1249 H 112.629 -4.88996 6.56373 0
M  V30 1250 N 115.292 -0.849877 -1.32721 0
M  V30 1251 C 116.222 -0.306308 -2.31482 0
M  V30 1252 C 117.203 0.591952 -1.59468 0
M  V30 1253 O 118.388 0.513199 -1.87296 0
M  V30 1254 C 115.518 0.510204 -3.43532 0
M  V30 1255 C 114.472 -0.293209 -4.26994 0
M  V30 1256 C 113.798 0.647743 -5.30762 0
M  V30 1257 C 115.098 -1.51634 -4.99804 0
M  V30 1258 H 116.792 -1.13153 -2.77195 0
M  V30 1259 H 114.338 -0.545553 -1.33266 0
M  V30 1260 H 116.291 0.900856 -4.11658 0
M  V30 1261 H 115.015 1.36874 -2.96535 0
M  V30 1262 H 113.674 -0.665555 -3.60508 0
M  V30 1263 H 113.322 1.50299 -4.8002 0
M  V30 1264 H 113.022 0.11422 -5.87489 0
M  V30 1265 H 114.546 1.03567 -6.01753 0
M  V30 1266 H 115.96 -1.19824 -5.60638 0
M  V30 1267 H 114.357 -1.98745 -5.66234 0
M  V30 1268 H 115.427 -2.28018 -4.27943 0
M  V30 1269 N 116.77 1.45427 -0.607355 0
M  V30 1270 C 118.047 1.9557 -0.0344566 0
M  V30 1271 C 118.427 1.54979 1.43334 0
M  V30 1272 O 117.775 0.812241 2.13576 0
M  V30 1273 C 117.985 3.48226 -0.232321 0
M  V30 1274 C 119.333 4.2445 -0.113001 0
M  V30 1275 O 120.357 3.55829 -0.162431 0
M  V30 1276 O 119.216 5.465 0.00209442 0
M  V30 1277 H 116.31 0.826222 0.0358667 0
M  V30 1278 H 118.856 1.55594 -0.6774 0
M  V30 1279 H 117.628 3.70739 -1.25174 0
M  V30 1280 H 117.251 3.95092 0.445896 0
M  V30 1281 N 118.248 0.346503 1.53744 0
M  V30 1282 C 119.158 -0.517293 2.28826 0
M  V30 1283 C 120.174 -1.10935 1.3405 0
M  V30 1284 O 121.35 -1.1244 1.6709 0
M  V30 1285 C 118.415 -1.65098 3.04866 0
M  V30 1286 C 117.476 -1.0884 4.15274 0
M  V30 1287 C 116.709 -2.16806 4.87679 0
M  V30 1288 O 116.932 -3.3758 4.59778 0
M  V30 1289 O 115.866 -1.80934 5.74061 0
M  V30 1290 H 119.692 0.0931396 3.03557 0
M  V30 1291 H 117.277 0.111458 1.48984 0
M  V30 1292 H 119.159 -2.31053 3.5241 0
M  V30 1293 H 117.834 -2.24717 2.32989 0
M  V30 1294 H 116.741 -0.3933 3.72027 0
M  V30 1295 H 118.074 -0.537036 4.89261 0
M  V30 1296 N 119.726 -1.57421 0.075193 0
M  V30 1297 C 121.142 -1.57099 -0.281444 0
M  V30 1298 C 121.342 -1.08486 -1.69803 0
M  V30 1299 O 120.398 -0.752279 -2.41033 0
M  V30 1300 C 121.711 -3.00571 -0.0880041 0
M  V30 1301 C 123.259 -3.12605 -0.157281 0
M  V30 1302 C 123.734 -4.57999 0.0079207 0
M  V30 1303 N 125.225 -4.63176 -0.0475725 0
M  V30 1304 C 125.96 -5.73373 0.0557876 0
M  V30 1305 N 125.456 -6.92473 0.21286 0
M  V30 1306 N 127.249 -5.621 -0.00152098 0
M  V30 1307 H 119.4 -1.87335 1.00098 0
M  V30 1308 H 121.663 -0.86377 0.390646 0
M  V30 1309 H 121.369 -3.40262 0.889629 0
M  V30 1310 H 121.243 -3.67754 -0.838875 0
M  V30 1311 H 123.63 -2.72798 -1.1254 0
M  V30 1312 H 123.711 -2.48053 0.62475 0
M  V30 1313 H 123.355 -4.98496 0.972824 0
M  V30 1314 H 123.285 -5.20586 -0.793556 0
M  V30 1315 H 125.776 -3.7753 -0.167244 0
M  V30 1316 H 126.089 -7.72279 0.283781 0
M  V30 1317 H 124.434 -6.94556 0.248267 0
M  V30 1318 H 127.625 -4.67938 -0.122958 0
M  V30 1319 H 127.798 -6.47948 0.0824844 0
M  V30 1320 N 121.204 0.198386 -1.56346 0
M  V30 1321 C 122.451 0.919286 -1.80431 0
M  V30 1322 C 122.779 1.83393 -0.647866 0
M  V30 1323 O 122.034 1.92236 0.366556 0
M  V30 1324 C 122.333 1.77031 -3.10475 0
M  V30 1325 C 121.999 1.00693 -4.39513 0
M  V30 1326 C 120.661 0.796145 -4.74568 0
M  V30 1327 C 123.013 0.469559 -5.19081 0
M  V30 1328 C 120.341 0.0364588 -5.86689 0
M  V30 1329 C 122.693 -0.2769 -6.31994 0
M  V30 1330 C 121.357 -0.49873 -6.65634 0
M  V30 1331 H 120.627 0.336391 -0.660244 0
M  V30 1332 H 123.274 0.185872 -1.90596 0
M  V30 1333 H 121.579 2.5723 -2.95533 0
M  V30 1334 H 123.276 2.33065 -3.26315 0
M  V30 1335 H 119.866 1.18122 -4.12001 0
M  V30 1336 H 124.05 0.619816 -4.92414 0
M  V30 1337 H 119.306 -0.145412 -6.11227 0
M  V30 1338 H 123.48 -0.700684 -6.92866 0
M  V30 1339 H 121.107 -1.0893 -7.52355 0
M  V30 1340 N 122.682 1.50554 0.465978 0
M  V30 1341 C 124.093 1.54599 1.04671 0
M  V30 1342 C 124.444 0.352488 1.93008 0
M  V30 1343 O 123.569 -0.534044 2.09707 0
M  V30 1344 C 124.164 2.80166 1.90505 0
M  V30 1345 C 122.723 2.86876 2.43678 0
M  V30 1346 C 121.87 2.48947 1.22151 0
M  V30 1347 H 124.821 1.56744 0.248384 0
M  V30 1348 H 124.842 2.62311 2.75633 0
M  V30 1349 H 124.354 3.67013 1.26186 0
M  V30 1350 H 122.455 2.04393 3.11536 0
M  V30 1351 H 122.568 3.89885 2.78436 0
M  V30 1352 H 120.932 2.01498 1.5579 0
M  V30 1353 H 121.715 3.38107 0.594866 0
M  V30 1354 N 124.16 -0.719506 1.40217 0
M  V30 1355 C 125.11 -1.8251 1.36653 0
M  V30 1356 C 126.094 -1.59028 0.244732 0
M  V30 1357 O 127.286 -1.70268 0.483524 0
M  V30 1358 C 124.415 -3.20599 1.22763 0
M  V30 1359 C 123.501 -3.49858 2.39708 0
M  V30 1360 N 123.892 -3.49957 3.6519 0
M  V30 1361 C 122.19 -3.80297 2.33002 0
M  V30 1362 C 122.891 -3.77449 4.42614 0
M  V30 1363 N 121.867 -3.96002 3.72402 0
M  V30 1364 H 125.669 -1.80914 2.31619 0
M  V30 1365 H 123.183 -0.918455 1.33933 0
M  V30 1366 H 125.18 -3.99766 1.18292 0
M  V30 1367 H 123.84 -3.23424 0.287614 0
M  V30 1368 H 124.851 -3.309 3.98404 0
M  V30 1369 H 121.528 -3.90635 1.47346 0
M  V30 1370 H 122.918 -3.83863 5.51451 0
M  V30 1371 N 125.638 -1.25649 -0.95132 0
M  V30 1372 C 127.049 -1.09654 -1.51106 0
M  V30 1373 C 127.4 0.326615 -1.93462 0
M  V30 1374 O 126.525 1.21697 -1.78938 0
M  V30 1375 C 127.12 -1.98437 -2.74605 0
M  V30 1376 C 125.679 -1.86618 -3.2688 0
M  V30 1377 C 124.826 -1.9239 -1.99703 0
M  V30 1378 H 127.777 -1.38887 -0.767865 0
M  V30 1379 H 127.798 -1.5263 -3.48546 0
M  V30 1380 H 127.31 -3.02009 -2.43746 0
M  V30 1381 H 125.411 -0.859421 -3.62553 0
M  V30 1382 H 125.524 -2.71607 -3.94673 0
M  V30 1383 H 123.888 -1.36317 -2.15151 0
M  V30 1384 H 124.671 -2.97573 -1.71188 0
M  V30 1385 N 127.117 1.15442 -1.07289 0
M  V30 1386 C 128.528 1.67803 -0.818475 0
M  V30 1387 C 128.879 1.8489 0.656507 0
M  V30 1388 O 128.004 1.55176 1.50829 0
M  V30 1389 C 128.599 3.04805 -1.47917 0
M  V30 1390 C 127.158 3.54245 -1.27229 0
M  V30 1391 C 126.305 2.29986 -1.54925 0
M  V30 1392 H 129.256 0.996646 -1.23502 0
M  V30 1393 H 129.277 3.69702 -0.90005 0
M  V30 1394 H 128.789 2.92336 -2.55267 0
M  V30 1395 H 126.89 3.71956 -0.21899 0
M  V30 1396 H 127.003 4.35723 -1.99203 0
M  V30 1397 H 125.367 2.35496 -0.970242 0
M  V30 1398 H 126.15 2.20105 -2.63455 0
M  V30 1399 N 128.595 0.856903 1.32268 0
M  V30 1400 C 129.525 0.31858 2.31316 0
M  V30 1401 C 130.506 -0.583487 1.59779 0
M  V30 1402 O 131.691 -0.503259 1.87566 0
M  V30 1403 C 128.821 -0.491979 3.43798 0
M  V30 1404 C 127.775 0.315849 4.26833 0
M  V30 1405 C 127.101 -0.619586 5.31098 0
M  V30 1406 C 128.401 1.54282 4.98993 0
M  V30 1407 H 130.095 1.14621 2.76591 0
M  V30 1408 H 127.641 0.552613 1.32974 0
M  V30 1409 H 129.594 -0.879012 4.1213 0
M  V30 1410 H 128.318 -1.35299 2.97257 0
M  V30 1411 H 126.977 0.684664 3.6015 0
M  V30 1412 H 126.625 -1.47751 4.8081 0
M  V30 1413 H 126.325 -0.0830621 5.87541 0
M  V30 1414 H 127.849 -1.00375 6.02293 0
M  V30 1415 H 129.263 1.22796 5.59995 0
M  V30 1416 H 127.66 2.01745 5.65172 0
M  V30 1417 H 128.73 2.30285 4.26728 0
M  V30 1418 N 130.073 -1.45103 0.615059 0
M  V30 1419 C 131.006 -2.27717 -0.148408 0
M  V30 1420 C 131.984 -1.37584 -0.866572 0
M  V30 1421 O 133.168 -1.67017 -0.87393 0
M  V30 1422 C 130.295 -3.16136 -1.21557 0
M  V30 1423 C 129.341 -4.22263 -0.599712 0
M  V30 1424 S 130.174 -5.3215 0.598081 0
M  V30 1425 C 131.33 -6.24137 -0.469484 0
M  V30 1426 H 131.563 -2.92121 0.552483 0
M  V30 1427 H 129.096 -1.49054 0.402778 0
M  V30 1428 H 131.054 -3.67633 -1.82638 0
M  V30 1429 H 129.715 -2.50982 -1.88857 0
M  V30 1430 H 128.908 -4.84081 -1.4029 0
M  V30 1431 H 128.51 -3.73945 -0.063876 0
M  V30 1432 H 130.802 -6.63984 -1.34652 0
M  V30 1433 H 131.745 -7.0801 0.112725 0
M  V30 1434 H 132.153 -5.58971 -0.788168 0
M  V30 1435 N 131.551 -0.354651 -1.53558 0
M  V30 1436 C 132.962 0.126902 -1.86268 0
M  V30 1437 C 133.313 1.49075 -1.27558 0
M  V30 1438 O 132.438 2.08105 -0.5934 0
M  V30 1439 C 133.033 0.237046 -3.3797 0
M  V30 1440 C 131.592 0.662842 -3.70518 0
M  V30 1441 C 130.739 -0.196652 -2.76602 0
M  V30 1442 H 133.69 -0.573849 -1.47962 0
M  V30 1443 H 133.711 1.06259 -3.65362 0
M  V30 1444 H 133.223 -0.755725 -3.80671 0
M  V30 1445 H 131.324 1.66424 -3.33367 0
M  V30 1446 H 131.437 0.445034 -4.77029 0
M  V30 1447 H 129.801 0.332763 -2.52517 0
M  V30 1448 H 130.584 -1.18676 -3.22135 0
M  V30 1449 N 133.029 1.57378 -0.0835403 0
M  V30 1450 C 134.275 1.94217 0.583733 0
M  V30 1451 C 134.608 0.964653 1.68547 0
M  V30 1452 O 133.883 -0.00422258 1.945 0
M  V30 1453 C 134.166 3.41253 1.14972 0
M  V30 1454 C 134.019 4.49768 0.0538277 0
M  V30 1455 C 135.338 3.89352 2.05166 0
M  V30 1456 H 132.457 0.706233 0.210724 0
M  V30 1457 H 135.099 1.89392 -0.1519 0
M  V30 1458 H 133.249 3.45496 1.77665 0
M  V30 1459 H 134.921 4.57641 -0.579851 0
M  V30 1460 H 133.164 4.29432 -0.614068 0
M  V30 1461 H 133.835 5.49817 0.490452 0
M  V30 1462 H 136.311 3.87189 1.52393 0
M  V30 1463 H 135.187 4.92822 2.41698 0
M  V30 1464 H 135.448 3.27973 2.96456 0
M  V30 1465 N 134.507 -0.190092 1.56449 0
M  V30 1466 C 135.737 -0.92443 1.84764 0
M  V30 1467 C 136.145 -1.77146 0.664529 0
M  V30 1468 O 135.488 -1.79812 -0.375957 0
M  V30 1469 C 135.55 -1.86651 3.07248 0
M  V30 1470 C 135.214 -1.20094 4.40938 0
M  V30 1471 C 136.211 -0.575445 5.16706 0
M  V30 1472 C 133.896 -1.2033 4.87674 0
M  V30 1473 C 135.89 0.0388111 6.37388 0
M  V30 1474 C 133.577 -0.585214 6.08291 0
M  V30 1475 C 134.575 0.0347578 6.82991 0
M  V30 1476 O 134.263 0.643147 8.01323 0
M  V30 1477 H 133.995 -0.274974 0.617548 0
M  V30 1478 H 136.549 -0.200788 2.04416 0
M  V30 1479 H 134.779 -2.62998 2.83494 0
M  V30 1480 H 136.468 -2.46907 3.22167 0
M  V30 1481 H 137.234 -0.565728 4.81689 0
M  V30 1482 H 133.113 -1.67526 4.29484 0
M  V30 1483 H 136.657 0.523329 6.95634 0
M  V30 1484 H 132.554 -0.592451 6.42775 0
M  V30 1485 H 133.322 0.540545 8.16713 0
M  V30 1486 N 135.985 -1.50799 -0.457987 0
M  V30 1487 C 137.396 -1.55152 -1.0385 0
M  V30 1488 C 137.747 -0.362719 -1.92818 0
M  V30 1489 O 136.872 0.522915 -2.09987 0
M  V30 1490 C 137.467 -2.81173 -1.89017 0
M  V30 1491 C 136.026 -2.88164 -2.42154 0
M  V30 1492 C 135.173 -2.49591 -1.20829 0
M  V30 1493 H 138.124 -1.56874 -0.240068 0
M  V30 1494 H 138.145 -2.63769 -2.74238 0
M  V30 1495 H 137.657 -3.67677 -1.24238 0
M  V30 1496 H 135.758 -2.06042 -3.10447 0
M  V30 1497 H 135.871 -3.91356 -2.76364 0
M  V30 1498 H 134.235 -2.02322 -1.54719 0
M  V30 1499 H 135.018 -3.38418 -0.576927 0
M  V30 1500 N 137.463 0.71206 -1.40597 0
M  V30 1501 C 138.709 1.47416 -1.39271 0
M  V30 1502 C 139.042 1.942 0.00388791 0
M  V30 1503 O 138.317 1.68403 0.973179 0
M  V30 1504 C 138.6 2.69774 -2.38525 0
M  V30 1505 C 138.453 2.28861 -3.87224 0
M  V30 1506 C 139.772 3.71939 -2.35264 0
M  V30 1507 H 136.891 0.534713 -0.5072 0
M  V30 1508 H 139.533 0.812375 -1.71757 0
M  V30 1509 H 137.683 3.26238 -2.10953 0
M  V30 1510 H 139.355 1.77852 -4.25636 0
M  V30 1511 H 137.598 1.60824 -4.02887 0
M  V30 1512 H 138.269 3.16584 -4.52193 0
M  V30 1513 H 140.745 3.25113 -2.59694 0
M  V30 1514 H 139.621 4.55186 -3.06753 0
M  V30 1515 H 139.882 4.20484 -1.36549 0
M  V30 1516 N 138.941 1.26152 0.944643 0
M  V30 1517 C 139.904 1.07474 2.0244 0
M  V30 1518 C 140.904 0.0242064 1.60782 0
M  V30 1519 O 142.094 0.267302 1.72137 0
M  V30 1520 C 139.226 0.633956 3.34953 0
M  V30 1521 H 140.419 2.03336 2.20442 0
M  V30 1522 H 137.972 1.087 1.12312 0
M  V30 1523 H 138.707 -0.326811 3.22649 0
M  V30 1524 H 138.492 1.39247 3.66542 0
M  V30 1525 H 139.982 0.52501 4.14287 0
M  V30 1526 N 140.419 -1.14872 1.07899 0
M  V30 1527 C 141.835 -1.37776 0.805606 0
M  V30 1528 C 142.035 -1.92743 -0.587555 0
M  V30 1529 O 141.091 -2.13678 -1.34528 0
M  V30 1530 C 142.404 -2.34361 1.88402 0
M  V30 1531 C 143.952 -2.48012 1.90942 0
M  V30 1532 C 144.427 -3.47893 2.97883 0
M  V30 1533 N 145.918 -3.55433 2.97021 0
M  V30 1534 C 146.653 -4.32553 3.76412 0
M  V30 1535 N 146.149 -5.12959 4.65666 0
M  V30 1536 N 147.942 -4.27697 3.64735 0
M  V30 1537 H 140.093 -0.775365 1.97742 0
M  V30 1538 H 142.356 -0.403521 0.857831 0
M  V30 1539 H 142.062 -2.01098 2.88535 0
M  V30 1540 H 141.936 -3.34206 1.74889 0
M  V30 1541 H 144.323 -2.8057 0.914579 0
M  V30 1542 H 144.404 -1.48147 2.08534 0
M  V30 1543 H 144.048 -3.16069 3.97571 0
M  V30 1544 H 143.978 -4.47527 2.77538 0
M  V30 1545 H 146.469 -2.98048 2.32326 0
M  V30 1546 H 146.782 -5.69065 5.22862 0
M  V30 1547 H 145.127 -5.12245 4.69712 0
M  V30 1548 H 148.318 -3.63949 2.94378 0
M  V30 1549 H 148.491 -4.8755 4.26848 0
M  V30 1550 N 141.898 -0.863906 -1.31812 0
M  V30 1551 C 143.146 -0.470904 -1.96537 0
M  V30 1552 C 143.467 0.978771 -1.68657 0
M  V30 1553 O 142.737 1.6853 -0.998717 0
M  V30 1554 H 141.317 -0.171148 -0.72713 0
M  V30 1555 H 143.979 -1.10236 -1.60729 0
M  V30 1556 H 143.075 -0.623616 -3.05806 0
M  V30 1557 N 143.376 1.44774 -0.622745 0
M  V30 1558 C 144.601 2.06999 -0.128968 0
M  V30 1559 C 145.026 1.4617 1.1839 0
M  V30 1560 O 144.384 0.560007 1.72434 0
M  V30 1561 C 144.432 3.60595 -0.0188351 0
M  V30 1562 O 143.536 3.99398 1.02739 0
M  V30 1563 H 142.877 0.659047 -0.0809544 0
M  V30 1564 H 145.407 1.85784 -0.85705 0
M  V30 1565 H 145.417 4.07627 0.174476 0
M  V30 1566 H 144.092 4.04252 -0.977384 0
M  V30 1567 H 142.669 3.64011 0.809326 0
M  V30 1568 N 144.854 0.36279 1.53368 0
M  V30 1569 C 146.079 -0.231226 2.06107 0
M  V30 1570 C 146.504 -1.419 1.23474 0
M  V30 1571 O 145.862 -1.79524 0.253128 0
M  V30 1572 C 145.91 -0.605523 3.5548 0
M  V30 1573 O 145.014 -1.70312 3.7559 0
M  V30 1574 H 144.355 -0.034327 0.663112 0
M  V30 1575 H 146.885 0.522584 1.97814 0
M  V30 1576 H 146.895 -0.877314 3.98456 0
M  V30 1577 H 145.57 0.263004 4.15068 0
M  V30 1578 H 144.147 -1.4271 3.44512 0
M  V30 1579 N 146.332 -1.57332 0.0918853 0
M  V30 1580 C 147.748 -1.57389 -0.264766 0
M  V30 1581 C 147.948 -1.10281 -1.68643 0
M  V30 1582 O 147.004 -0.777801 -2.40222 0
M  V30 1583 C 148.317 -3.00648 -0.0561195 0
M  V30 1584 C 149.865 -3.12754 -0.124116 0
M  V30 1585 C 150.34 -4.57965 0.0564972 0
M  V30 1586 N 151.831 -4.632 0.00155611 0
M  V30 1587 C 152.566 -5.73281 0.116598 0
M  V30 1588 N 152.062 -6.92208 0.286294 0
M  V30 1589 N 153.855 -5.6207 0.0580973 0
M  V30 1590 H 146.006 -1.86262 1.02079 0
M  V30 1591 H 148.269 -0.859579 0.399786 0
M  V30 1592 H 147.975 -3.393 0.925669 0
M  V30 1593 H 147.849 -3.68623 -0.799823 0
M  V30 1594 H 150.236 -2.73976 -1.09641 0
M  V30 1595 H 150.317 -2.47377 0.651024 0
M  V30 1596 H 149.961 -4.97436 1.02564 0
M  V30 1597 H 149.891 -5.21399 -0.738297 0
M  V30 1598 H 152.382 -3.77686 -0.127192 0
M  V30 1599 H 152.695 -7.71934 0.365676 0
M  V30 1600 H 151.04 -6.94254 0.32192 0
M  V30 1601 H 154.231 -4.68043 -0.0733204 0
M  V30 1602 H 154.404 -6.47824 0.151203 0
M  V30 1603 N 147.81 0.181792 -1.56548 0
M  V30 1604 C 148.74 1.22765 -1.98623 0
M  V30 1605 C 149.721 1.46747 -0.860189 0
M  V30 1606 O 150.906 1.58259 -1.12551 0
M  V30 1607 C 148.036 2.56894 -2.33715 0
M  V30 1608 C 146.99 2.475 -3.49182 0
M  V30 1609 C 146.316 3.86023 -3.69986 0
M  V30 1610 C 147.616 1.98866 -4.82959 0
M  V30 1611 H 149.31 0.877942 -2.86239 0
M  V30 1612 H 146.856 0.42088 -1.37712 0
M  V30 1613 H 148.809 3.30253 -2.61746 0
M  V30 1614 H 147.533 2.93632 -1.42997 0
M  V30 1615 H 146.192 1.76596 -3.21262 0
M  V30 1616 H 145.84 4.20136 -2.76576 0
M  V30 1617 H 145.54 3.80609 -4.47672 0
M  V30 1618 H 147.064 4.60984 -4.00407 0
M  V30 1619 H 148.478 2.61992 -5.09934 0
M  V30 1620 H 146.875 2.04424 -5.64208 0
M  V30 1621 H 147.945 0.942465 -4.75653 0
M  V30 1622 N 149.288 1.51039 0.449983 0
M  V30 1623 C 150.221 1.66105 1.56474 0
M  V30 1624 C 151.199 0.508776 1.54435 0
M  V30 1625 O 152.383 0.731005 1.73749 0
M  V30 1626 C 149.51 1.66304 2.9506 0
M  V30 1627 C 148.556 2.87346 3.15174 0
M  V30 1628 S 149.389 4.4835 2.92818 0
M  V30 1629 C 150.545 4.51274 4.33708 0
M  V30 1630 H 150.778 2.60397 1.43459 0
M  V30 1631 H 148.311 1.40565 0.638805 0
M  V30 1632 H 150.269 1.67103 3.74949 0
M  V30 1633 H 148.93 0.732108 3.05449 0
M  V30 1634 H 148.123 2.83849 4.16468 0
M  V30 1635 H 147.725 2.84223 2.43091 0
M  V30 1636 H 150.017 4.26136 5.26701 0
M  V30 1637 H 150.96 5.53017 4.42242 0
M  V30 1638 H 151.368 3.80738 4.16772 0
M  V30 1639 N 150.766 -0.704594 1.40972 0
M  V30 1640 C 151.699 -1.82861 1.36518 0
M  V30 1641 C 152.677 -1.6091 0.23382 0
M  V30 1642 O 153.861 -1.83778 0.419271 0
M  V30 1643 C 150.988 -3.1939 1.12729 0
M  V30 1644 C 150.034 -3.60148 2.28463 0
M  V30 1645 S 150.867 -3.65994 3.90907 0
M  V30 1646 C 152.023 -5.05264 3.69403 0
M  V30 1647 H 152.256 -1.86361 2.3164 0
M  V30 1648 H 149.789 -0.872439 1.27389 0
M  V30 1649 H 151.747 -3.98211 0.996893 0
M  V30 1650 H 150.408 -3.1351 0.192427 0
M  V30 1651 H 149.601 -4.59309 2.07489 0
M  V30 1652 H 149.203 -2.88612 2.37863 0
M  V30 1653 H 151.495 -5.92504 3.28551 0
M  V30 1654 H 152.438 -5.31278 4.68134 0
M  V30 1655 H 152.846 -4.76377 3.02862 0
M  V30 1656 N 152.244 -1.26651 -0.937939 0
M  V30 1657 C 153.194 -1.05156 -2.02302 0
M  V30 1658 C 154.178 0.0171233 -1.60891 0
M  V30 1659 O 155.37 -0.200213 -1.75864 0
M  V30 1660 C 152.499 -0.689962 -3.36295 0
M  V30 1661 C 151.585 -1.79626 -3.84181 0
M  V30 1662 N 151.976 -3.03422 -4.04684 0
M  V30 1663 C 150.274 -1.6806 -4.13124 0
M  V30 1664 C 150.975 -3.75345 -4.444 0
M  V30 1665 N 149.951 -3.03051 -4.51288 0
M  V30 1666 H 153.753 -1.99117 -2.1617 0
M  V30 1667 H 151.267 -1.17216 -1.12402 0
M  V30 1668 H 153.264 -0.517112 -4.13681 0
M  V30 1669 H 151.924 0.242139 -3.23796 0
M  V30 1670 H 152.935 -3.39293 -3.91281 0
M  V30 1671 H 149.612 -0.818629 -4.09396 0
M  V30 1672 H 151.002 -4.81691 -4.68427 0
M  V30 1673 N 153.722 1.14298 -1.08507 0
M  V30 1674 C 155.138 1.37347 -0.812901 0
M  V30 1675 C 155.338 1.93052 0.577325 0
M  V30 1676 O 154.394 2.14389 1.33393 0
M  V30 1677 C 155.707 2.33359 -1.89642 0
M  V30 1678 C 157.255 2.46996 -1.92255 0
M  V30 1679 C 157.73 3.46309 -2.99724 0
M  V30 1680 N 159.221 3.53853 -2.98902 0
M  V30 1681 C 159.956 4.3055 -3.787 0
M  V30 1682 N 159.452 5.10482 -4.6838 0
M  V30 1683 N 161.245 4.25757 -3.66998 0
M  V30 1684 H 153.396 0.764867 -1.9815 0
M  V30 1685 H 155.659 0.398966 -0.859959 0
M  V30 1686 H 155.365 1.99565 -2.89597 0
M  V30 1687 H 155.239 3.33274 -1.76659 0
M  V30 1688 H 157.626 2.80081 -0.929445 0
M  V30 1689 H 157.707 1.47039 -2.09316 0
M  V30 1690 H 157.351 3.13957 -3.99241 0
M  V30 1691 H 157.281 4.46049 -2.79907 0
M  V30 1692 H 159.772 2.96812 -2.33904 0
M  V30 1693 H 160.085 5.66284 -5.25873 0
M  V30 1694 H 158.43 5.09747 -4.72422 0
M  V30 1695 H 161.621 3.62383 -2.96304 0
M  V30 1696 H 161.794 4.85279 -4.29427 0
M  V30 1697 N 155.201 0.870884 1.31352 0
M  V30 1698 C 156.45 0.478408 1.95944 0
M  V30 1699 C 156.763 -0.974493 1.69597 0
M  V30 1700 O 157.969 -1.47316 2.28058 0
M  V30 1701 C 156.425 0.804609 3.50791 0
M  V30 1702 C 156.033 2.27433 3.85977 0
M  V30 1703 C 157.777 0.480648 4.2177 0
M  V30 1704 C 155.684 2.5429 5.33939 0
M  V30 1705 H 154.614 0.175175 0.733369 0
M  V30 1706 H 157.265 1.06391 1.4951 0
M  V30 1707 H 155.647 0.148347 3.95722 0
M  V30 1708 H 156.821 2.97373 3.52002 0
M  V30 1709 H 155.136 2.56442 3.28065 0
M  V30 1710 H 157.733 0.658519 5.30629 0
M  V30 1711 H 158.076 -0.578979 4.12254 0
M  V30 1712 H 158.609 1.09349 3.82476 0
M  V30 1713 H 155.348 3.58939 5.48491 0
M  V30 1714 H 154.868 1.88945 5.69263 0
M  V30 1715 H 156.547 2.39066 6.01212 0
M  V30 1716 N 156.679 -1.44442 0.630414 0
M  V30 1717 C 157.589 -2.34476 -0.0761693 0
M  V30 1718 C 158.605 -1.52576 -0.836449 0
M  V30 1719 O 159.781 -1.85307 -0.788874 0
M  V30 1720 C 156.846 -3.30545 -1.04599 0
M  V30 1721 C 155.907 -4.28352 -0.28516 0
M  V30 1722 C 155.14 -5.19831 -1.20878 0
M  V30 1723 O 155.363 -5.15223 -2.44747 0
M  V30 1724 O 154.297 -5.97892 -0.693491 0
M  V30 1725 H 158.123 -2.96345 0.664324 0
M  V30 1726 H 155.708 -1.44203 0.39061 0
M  V30 1727 H 157.59 -3.89681 -1.60396 0
M  V30 1728 H 156.265 -2.7121 -1.76711 0
M  V30 1729 H 155.172 -3.72764 0.315837 0
M  V30 1730 H 156.505 -4.90605 0.395924 0
M  V30 1731 N 158.157 -0.370918 -1.53173 0
M  V30 1732 C 159.107 0.489588 -2.22681 0
M  V30 1733 C 160.091 1.04442 -1.22395 0
M  V30 1734 O 161.283 0.973578 -1.47819 0
M  V30 1735 C 158.412 1.626 -3.02351 0
M  V30 1736 C 157.498 1.08379 -4.10018 0
M  V30 1737 N 157.889 0.265004 -5.05105 0
M  V30 1738 C 156.187 1.35809 -4.2482 0
M  V30 1739 C 156.888 -0.0324755 -5.81691 0
M  V30 1740 N 155.864 0.566581 -5.40639 0
M  V30 1741 H 159.666 -0.142729 -2.93553 0
M  V30 1742 H 157.18 -0.179221 -1.61408 0
M  V30 1743 H 159.177 2.2547 -3.50669 0
M  V30 1744 H 157.837 2.26132 -2.33011 0
M  V30 1745 H 158.848 -0.0962352 -5.17811 0
M  V30 1746 H 155.525 1.9958 -3.66707 0
M  V30 1747 H 156.915 -0.69473 -6.68299 0
M  V30 1748 N 159.635 1.57281 -0.100228 0
M  V30 1749 C 160.912 1.86014 0.604812 0
M  V30 1750 C 161.292 0.998025 1.86018 0
M  V30 1751 O 160.64 0.0718184 2.28387 0
M  V30 1752 C 160.85 3.36784 0.915278 0
M  V30 1753 C 162.198 4.04957 1.27651 0
M  V30 1754 O 163.222 3.41695 1.00613 0
M  V30 1755 O 162.081 5.16593 1.7831 0
M  V30 1756 H 159.175 0.76942 0.303185 0
M  V30 1757 H 161.721 1.69176 -0.133313 0
M  V30 1758 H 160.493 3.91292 0.0248896 0
M  V30 1759 H 160.116 3.58987 1.70921 0
M  V30 1760 N 161.113 -0.173488 1.56642 0
M  V30 1761 C 162.359 -0.887108 1.83035 0
M  V30 1762 C 162.714 -1.79965 0.680461 0
M  V30 1763 O 162.007 -1.88854 -0.323225 0
M  V30 1764 C 162.201 -1.72069 3.13252 0
M  V30 1765 C 162.03 -0.89035 4.40798 0
M  V30 1766 C 160.8 -0.566282 5.02117 0
M  V30 1767 C 162.998 -0.232921 5.13772 0
M  V30 1768 N 160.98 0.280427 6.13259 0
M  V30 1769 C 162.351 0.475046 6.18177 0
M  V30 1770 C 164.406 -0.150863 4.97671 0
M  V30 1771 C 163.109 1.25729 7.08227 0
M  V30 1772 C 165.135 0.618039 5.88162 0
M  V30 1773 C 164.497 1.31438 6.92029 0
M  V30 1774 H 160.596 -0.303303 0.720785 0
M  V30 1775 H 163.18 -0.154244 1.94088 0
M  V30 1776 H 161.351 -2.42499 3.03395 0
M  V30 1777 H 163.083 -2.37545 3.2765 0
M  V30 1778 H 159.838 -0.895852 4.6505 0
M  V30 1779 H 160.262 0.694027 6.73433 0
M  V30 1780 H 164.904 -0.674868 4.17379 0
M  V30 1781 H 162.622 1.79265 7.87966 0
M  V30 1782 H 166.208 0.683173 5.77775 0
M  V30 1783 H 165.088 1.89981 7.6084 0
M  V30 1784 N 162.591 -1.51276 -0.441967 0
M  V30 1785 C 163.821 -1.67273 -1.21257 0
M  V30 1786 C 164.229 -0.367624 -1.85594 0
M  V30 1787 O 163.572 0.663349 -1.71305 0
M  V30 1788 C 163.634 -2.72807 -2.34129 0
M  V30 1789 C 163.298 -4.1554 -1.90198 0
M  V30 1790 C 164.295 -5.00471 -1.40801 0
M  V30 1791 C 161.98 -4.61616 -1.9803 0
M  V30 1792 C 163.974 -6.29536 -0.998174 0
M  V30 1793 C 161.661 -5.90679 -1.56658 0
M  V30 1794 C 162.659 -6.74466 -1.07633 0
M  V30 1795 O 162.347 -8.01116 -0.668459 0
M  V30 1796 H 162.079 -0.564614 -0.371734 0
M  V30 1797 H 164.633 -1.9843 -0.530521 0
M  V30 1798 H 162.863 -2.36954 -3.05597 0
M  V30 1799 H 164.552 -2.77729 -2.96009 0
M  V30 1800 H 165.318 -4.66079 -1.34148 0
M  V30 1801 H 161.197 -3.96526 -2.35135 0
M  V30 1802 H 164.741 -6.94885 -0.61482 0
M  V30 1803 H 160.638 -6.24586 -1.62979 0
M  V30 1804 H 161.406 -8.14633 -0.794722 0
M  V30 1805 N 164.069 0.697108 -1.41344 0
M  V30 1806 C 165.294 1.49096 -1.44171 0
M  V30 1807 C 165.719 1.88038 -0.0481568 0
M  V30 1808 O 165.077 1.54525 0.948243 0
M  V30 1809 C 165.125 2.73088 -2.3549 0
M  V30 1810 O 164.229 3.70514 -1.81088 0
M  V30 1811 H 163.57 0.448801 -0.489361 0
M  V30 1812 H 166.1 0.856992 -1.85787 0
M  V30 1813 H 166.11 3.21413 -2.51312 0
M  V30 1814 H 164.785 2.44081 -3.36745 0
M  V30 1815 H 163.362 3.29441 -1.74708 0
M  V30 1816 N 165.547 1.27147 0.931209 0
M  V30 1817 C 166.477 1.12081 2.04842 0
M  V30 1818 C 167.458 0.0232364 1.70084 0
M  V30 1819 O 168.643 0.197085 1.93197 0
M  V30 1820 C 165.773 0.76354 3.38803 0
M  V30 1821 C 164.727 1.81396 3.87659 0
M  V30 1822 C 164.053 1.31075 5.18385 0
M  V30 1823 C 165.353 3.21739 4.11438 0
M  V30 1824 H 167.047 2.05537 2.17703 0
M  V30 1825 H 164.593 0.989603 1.04608 0
M  V30 1826 H 166.546 0.644982 4.16435 0
M  V30 1827 H 165.27 -0.206727 3.25945 0
M  V30 1828 H 163.929 1.92136 3.12217 0
M  V30 1829 H 163.577 0.330037 5.01916 0
M  V30 1830 H 163.277 2.013 5.52044 0
M  V30 1831 H 164.801 1.20506 5.98591 0
M  V30 1832 H 166.215 3.14019 4.79651 0
M  V30 1833 H 164.612 3.89644 4.56397 0
M  V30 1834 H 165.682 3.67054 3.16859 0
M  V30 1835 N 167.025 -1.13721 1.09112 0
M  V30 1836 C 167.955 -2.21148 0.749385 0
M  V30 1837 C 168.936 -1.6792 -0.271475 0
M  V30 1838 O 170.121 -1.93693 -0.140251 0
M  V30 1839 C 167.251 -3.46905 0.165659 0
M  V30 1840 C 166.205 -4.13203 1.11567 0
M  V30 1841 C 165.531 -5.33248 0.393809 0
M  V30 1842 C 166.831 -4.60912 2.45678 0
M  V30 1843 H 168.525 -2.4999 1.64758 0
M  V30 1844 H 166.071 -1.20156 0.793626 0
M  V30 1845 H 168.024 -4.21313 -0.085466 0
M  V30 1846 H 166.748 -3.17449 -0.767714 0
M  V30 1847 H 165.407 -3.40758 1.35202 0
M  V30 1848 H 165.055 -5.00054 -0.543599 0
M  V30 1849 H 164.755 -5.78552 1.02721 0
M  V30 1850 H 166.279 -6.10413 0.150908 0
M  V30 1851 H 167.693 -5.26759 2.26269 0
M  V30 1852 H 166.09 -5.16944 3.04776 0
M  V30 1853 H 167.16 -3.75603 3.06677 0
M  V30 1854 N 168.503 -0.877838 -1.30888 0
M  V30 1855 C 169.733 -0.506678 -2.00291 0
M  V30 1856 C 170.141 0.907449 -1.66018 0
M  V30 1857 O 169.484 1.60719 -0.88967 0
M  V30 1858 C 169.546 -0.59323 -3.54572 0
M  V30 1859 C 169.21 -1.97038 -4.12341 0
M  V30 1860 C 170.207 -2.93889 -4.28865 0
M  V30 1861 C 167.892 -2.27383 -4.47886 0
M  V30 1862 C 169.886 -4.19224 -4.80136 0
M  V30 1863 C 167.573 -3.52965 -4.98857 0
M  V30 1864 C 168.571 -4.48701 -5.14934 0
M  V30 1865 O 168.259 -5.72056 -5.64808 0
M  V30 1866 H 167.991 -0.1951 -0.647234 0
M  V30 1867 H 170.545 -1.18301 -1.6791 0
M  V30 1868 H 168.775 0.140057 -3.86446 0
M  V30 1869 H 170.464 -0.234372 -4.05223 0
M  V30 1870 H 171.23 -2.71756 -4.01714 0
M  V30 1871 H 167.109 -1.53639 -4.34645 0
M  V30 1872 H 170.653 -4.93956 -4.92599 0
M  V30 1873 H 166.55 -3.74939 -5.25443 0
M  V30 1874 H 167.318 -5.74337 -5.83163 0
M  V30 1875 N 169.982 1.44106 -0.638065 0
M  V30 1876 C 170.929 2.30715 0.062701 0
M  V30 1877 C 171.899 1.43882 0.829883 0
M  V30 1878 O 173.084 1.72775 0.809532 0
M  V30 1879 C 170.224 3.29258 1.03358 0
M  V30 1880 C 169.337 4.31192 0.26409 0
M  V30 1881 C 168.472 5.16825 1.22741 0
M  V30 1882 C 167.511 6.10462 0.447475 0
M  V30 1883 N 166.648 6.8877 1.36161 0
M  V30 1884 H 171.488 2.90096 -0.681781 0
M  V30 1885 H 169.025 1.42925 -0.347988 0
M  V30 1886 H 170.983 3.84886 1.60992 0
M  V30 1887 H 169.613 2.71562 1.74511 0
M  V30 1888 H 168.665 3.77981 -0.428295 0
M  V30 1889 H 169.977 4.97619 -0.343052 0
M  V30 1890 H 169.131 5.77004 1.87487 0
M  V30 1891 H 167.87 4.50488 1.86847 0
M  V30 1892 H 166.875 5.49386 -0.213433 0
M  V30 1893 H 168.1 6.78837 -0.188968 0
M  V30 1894 H 166.046 6.25096 1.98975 0
M  V30 1895 H 165.963 7.51663 0.808656 0
M  V30 1896 H 167.231 7.53467 1.99769 0
M  V30 1897 N 171.46 0.379036 1.52974 0
M  V30 1898 C 172.709 -0.207612 2.00629 0
M  V30 1899 C 173.022 -1.48758 1.27006 0
M  V30 1900 O 174.228 -2.15365 1.65318 0
M  V30 1901 C 172.684 -0.42053 3.57435 0
M  V30 1902 C 172.292 0.845587 4.39948 0
M  V30 1903 C 174.036 -0.964102 4.13407 0
M  V30 1904 C 171.943 0.601513 5.88333 0
M  V30 1905 H 170.873 -0.0813591 0.749598 0
M  V30 1906 H 173.524 0.499853 1.76561 0
M  V30 1907 H 171.906 -1.18959 3.7771 0
M  V30 1908 H 173.08 1.61848 4.31442 0
M  V30 1909 H 171.395 1.31336 3.95145 0
M  V30 1910 H 173.992 -1.16225 5.21916 0
M  V30 1911 H 174.335 -1.93019 3.68849 0
M  V30 1912 H 174.868 -0.25487 3.96983 0
M  V30 1913 H 171.607 1.53831 6.37194 0
M  V30 1914 H 171.127 -0.132628 5.99653 0
M  V30 1915 H 172.806 0.232134 6.46583 0
M  V30 1916 N 172.938 -1.57226 0.108567 0
M  V30 1917 C 173.848 -2.18292 -0.859401 0
M  V30 1918 C 174.864 -1.15612 -1.30038 0
M  V30 1919 O 176.04 -1.48039 -1.36552 0
M  V30 1920 C 173.105 -2.762 -2.09558 0
M  V30 1921 C 172.166 -3.93881 -1.70752 0
M  V30 1922 C 171.399 -4.49018 -2.88477 0
M  V30 1923 O 171.622 -4.03068 -4.036 0
M  V30 1924 O 170.556 -5.39852 -2.66164 0
M  V30 1925 H 174.382 -3.01441 -0.369769 0
M  V30 1926 H 171.967 -1.48945 -0.1165 0
M  V30 1927 H 173.849 -3.13156 -2.81978 0
M  V30 1928 H 172.524 -1.96089 -2.57548 0
M  V30 1929 H 171.431 -3.61713 -0.954714 0
M  V30 1930 H 172.764 -4.75396 -1.27513 0
M  V30 1931 N 174.416 0.165178 -1.56732 0
M  V30 1932 C 175.348 1.22911 -1.93457 0
M  V30 1933 C 176.361 1.40152 -0.828333 0
M  V30 1934 O 177.55 1.40046 -1.10677 0
M  V30 1935 C 174.65 2.59686 -2.17753 0
M  V30 1936 C 173.823 2.63663 -3.48999 0
M  V30 1937 C 172.882 3.81845 -3.62051 0
M  V30 1938 O 171.908 3.67559 -4.34613 0
M  V30 1939 N 173.11 4.98557 -2.97357 0
M  V30 1940 H 175.875 0.917118 -2.85323 0
M  V30 1941 H 173.436 0.354895 -1.57962 0
M  V30 1942 H 175.428 3.37225 -2.23743 0
M  V30 1943 H 173.998 2.83251 -1.32242 0
M  V30 1944 H 173.218 1.72173 -3.54612 0
M  V30 1945 H 174.506 2.63336 -4.35352 0
M  V30 1946 H 173.904 5.13065 -2.38287 0
M  V30 1947 H 172.461 5.73936 -3.08934 0
M  V30 1948 N 175.894 1.51508 0.433938 0
M  V30 1949 C 177.142 1.6402 1.18075 0
M  V30 1950 C 177.463 0.360328 1.91642 0
M  V30 1951 O 176.733 -0.623945 1.85698 0
M  V30 1952 H 175.313 0.6045 0.43885 0
M  V30 1953 H 177.975 1.88452 0.497178 0
M  V30 1954 H 177.071 2.46949 1.90847 0
M  V30 1955 N 177.372 -0.689602 1.41712 0
M  V30 1956 C 178.32 -1.82475 1.44242 0
M  V30 1957 C 179.314 -1.66354 0.319774 0
M  V30 1958 O 180.52 -1.73143 0.492089 0
M  V30 1959 H 176.895 -0.601416 0.451445 0
M  V30 1960 H 178.866 -1.77458 2.39899 0
M  V30 1961 C 177.615 -3.20535 1.3473 0
M  V30 1962 H 176.938 -3.33559 2.20405 0
M  V30 1963 H 178.378 -4.00023 1.40562 0
M  V30 1964 C 176.837 -3.36846 0.0603281 0
M  V30 1965 O 177.367 -3.91656 -0.892663 0
M  V30 1966 N 175.573 -2.90595 -0.0177039 0
M  V30 1967 H 175.12 -2.46178 0.758572 0
M  V30 1968 H 175.078 -3.01886 -0.878201 0
M  V30 1969 N 178.85 -1.27639 -0.924453 0
M  V30 1970 C 179.813 -1.10681 -2.00705 0
M  V30 1971 C 180.813 -0.0497823 -1.60723 0
M  V30 1972 O 182.003 -0.294654 -1.7169 0
M  V30 1973 C 179.135 -0.687164 -3.33902 0
M  V30 1974 H 180.328 -2.06817 -2.17179 0
M  V30 1975 H 177.881 -1.10473 -1.10569 0
M  V30 1976 H 178.616 0.275439 -3.23128 0
M  V30 1977 H 178.401 -1.45061 -3.6428 0
M  V30 1978 H 179.891 -0.590853 -4.13399 0
M  V30 1979 N 180.328 1.1314 -1.09713 0
M  V30 1980 C 181.26 2.18343 -0.697056 0
M  V30 1981 C 182.273 1.60669 0.262551 0
M  V30 1982 O 183.462 1.78435 0.0481527 0
M  V30 1983 C 180.562 3.38899 -0.00684728 0
M  V30 1984 C 179.735 4.26078 -0.988741 0
M  V30 1985 C 178.794 5.25155 -0.331394 0
M  V30 1986 O 177.82 5.60701 -0.979926 0
M  V30 1987 N 179.022 5.73271 0.913261 0
M  V30 1988 H 181.787 2.5328 -1.60216 0
M  V30 1989 H 179.348 1.28491 -0.984971 0
M  V30 1990 H 181.34 4.02255 0.444191 0
M  V30 1991 H 179.91 3.02175 0.800551 0
M  V30 1992 H 179.13 3.59453 -1.61826 0
M  V30 1993 H 180.418 4.81178 -1.65364 0
M  V30 1994 H 179.816 5.46544 1.45966 0
M  V30 1995 H 178.373 6.3855 1.30757 0
M  V30 1996 N 181.806 0.884767 1.30421 0
M  V30 1997 C 182.716 0.355398 2.31892 0
M  V30 1998 C 183.732 -0.542261 1.65335 0
M  V30 1999 O 184.908 -0.435432 1.96637 0
M  V30 2000 C 181.973 -0.421661 3.44126 0
M  V30 2001 C 181.034 0.505727 4.26311 0
M  V30 2002 C 180.267 -0.234343 5.33185 0
M  V30 2003 O 180.49 -1.46045 5.51386 0
M  V30 2004 O 179.424 0.415443 6.00465 0
M  V30 2005 H 183.25 1.19685 2.79122 0
M  V30 2006 H 180.835 0.648596 1.34587 0
M  V30 2007 H 182.717 -0.861641 4.12497 0
M  V30 2008 H 181.392 -1.23942 2.99032 0
M  V30 2009 H 180.299 0.994513 3.60639 0
M  V30 2010 H 181.632 1.28948 4.75009 0
M  V30 2011 N 183.284 -1.43765 0.645699 0
M  V30 2012 C 184.247 -2.29163 -0.0409488 0
M  V30 2013 C 185.247 -1.41813 -0.757996 0
M  V30 2014 O 186.437 -1.63527 -0.600382 0
M  V30 2015 C 183.569 -3.23716 -1.06869 0
M  V30 2016 H 184.762 -2.91366 0.710345 0
M  V30 2017 H 182.315 -1.5092 0.406547 0
M  V30 2018 H 183.05 -2.66393 -1.84947 0
M  V30 2019 H 182.835 -3.88105 -0.558277 0
M  V30 2020 H 184.325 -3.87831 -1.54845 0
M  V30 2021 N 184.763 -0.387143 -1.52771 0
M  V30 2022 C 185.673 0.456442 -2.30117 0
M  V30 2023 C 186.689 1.07342 -1.36944 0
M  V30 2024 O 187.865 1.07971 -1.70013 0
M  V30 2025 C 184.93 1.56957 -3.09136 0
M  V30 2026 C 183.991 0.977916 -4.18014 0
M  V30 2027 C 183.224 2.038 -4.93256 0
M  V30 2028 O 183.447 3.25271 -4.68567 0
M  V30 2029 O 182.381 1.6565 -5.78657 0
M  V30 2030 H 186.207 -0.17359 -3.03203 0
M  V30 2031 H 183.792 -0.150919 -1.48636 0
M  V30 2032 H 185.674 2.21628 -3.58412 0
M  V30 2033 H 184.349 2.18461 -2.38865 0
M  V30 2034 H 183.256 0.294525 -3.72939 0
M  V30 2035 H 184.589 0.407128 -4.90513 0
M  V30 2036 N 186.241 1.57166 -0.116904 0
M  V30 2037 C 187.204 2.14039 0.819742 0
M  V30 2038 C 188.204 1.07477 1.19605 0
M  V30 2039 O 189.394 1.33263 1.1219 0
M  V30 2040 C 186.526 2.67891 2.10826 0
M  V30 2041 H 187.719 2.98128 0.325511 0
M  V30 2042 H 185.272 1.55739 0.132312 0
M  V30 2043 H 186.007 1.87384 2.64685 0
M  V30 2044 H 185.792 3.45823 1.84793 0
M  V30 2045 H 187.282 3.11809 2.77785 0
M  V30 2046 N 187.719 -0.156864 1.56817 0
M  V30 2047 C 188.682 -1.17781 1.96622 0
M  V30 2048 C 189.682 -1.36401 0.851555 0
M  V30 2049 O 190.872 -1.33561 1.11836 0
M  V30 2050 C 188.004 -2.54008 2.27361 0
M  V30 2051 H 189.197 -0.836564 2.87996 0
M  V30 2052 H 186.75 -0.39985 1.51099 0
M  V30 2053 H 187.485 -2.9312 1.38748 0
M  V30 2054 H 187.27 -2.41856 3.08623 0
M  V30 2055 H 188.76 -3.27558 2.59029 0
M  V30 2056 N 189.197 -1.51736 -0.425897 0
M  V30 2057 C 190.613 -1.40166 -0.76326 0
M  V30 2058 C 190.813 -0.492962 -1.95377 0
M  V30 2059 O 189.869 0.0475815 -2.52455 0
M  V30 2060 C 191.182 -2.82403 -1.03291 0
M  V30 2061 C 192.73 -2.91632 -1.13665 0
M  V30 2062 C 193.205 -4.34801 -1.43916 0
M  V30 2063 N 194.696 -4.3796 -1.50816 0
M  V30 2064 C 195.431 -5.4578 -1.75817 0
M  V30 2065 N 194.927 -6.63744 -1.98534 0
M  V30 2066 N 196.72 -5.33274 -1.77694 0
M  V30 2067 H 188.871 -2.09361 0.358 0
M  V30 2068 H 191.134 -0.942941 0.0978094 0
M  V30 2069 H 190.84 -3.50943 -0.230696 0
M  V30 2070 H 190.714 -3.22428 -1.95754 0
M  V30 2071 H 193.101 -2.23284 -1.92947 0
M  V30 2072 H 193.182 -2.55088 -0.190756 0
M  V30 2073 H 192.826 -5.03703 -0.65157 0
M  V30 2074 H 192.756 -4.68868 -2.39729 0
M  V30 2075 H 195.247 -3.52919 -1.35118 0
M  V30 2076 H 195.56 -7.41704 -2.17013 0
M  V30 2077 H 193.905 -6.66839 -1.95832 0
M  V30 2078 H 197.096 -4.40098 -1.59473 0
M  V30 2079 H 197.269 -6.1738 -1.9684 0
M  V30 2080 N 190.675 0.682077 -1.42076 0
M  V30 2081 C 191.622 1.79578 -1.44984 0
M  V30 2082 C 192.592 1.6332 -0.302614 0
M  V30 2083 O 193.777 1.83978 -0.505633 0
M  V30 2084 C 190.917 3.1756 -1.35091 0
M  V30 2085 C 190.03 3.45156 -2.59791 0
M  V30 2086 C 189.165 4.72826 -2.42093 0
M  V30 2087 C 188.204 4.93433 -3.62202 0
M  V30 2088 N 187.341 6.12338 -3.43491 0
M  V30 2089 H 192.181 1.76427 -2.40161 0
M  V30 2090 H 189.718 0.861376 -1.19242 0
M  V30 2091 H 191.676 3.97287 -1.27354 0
M  V30 2092 H 190.306 3.19854 -0.435133 0
M  V30 2093 H 189.358 2.59736 -2.77923 0
M  V30 2094 H 190.67 3.5628 -3.49094 0
M  V30 2095 H 189.824 5.60631 -2.319 0
M  V30 2096 H 188.563 4.63973 -1.50268 0
M  V30 2097 H 187.568 4.04073 -3.72834 0
M  V30 2098 H 188.793 5.04136 -4.54998 0
M  V30 2099 H 186.739 6.04672 -2.54377 0
M  V30 2100 H 186.656 6.2429 -4.26377 0
M  V30 2101 H 187.924 7.02841 -3.37097 0
M  V30 2102 N 192.153 1.28127 0.917671 0
M  V30 2103 C 193.085 1.07517 2.02417 0
M  V30 2104 C 194.098 0.0281099 1.62776 0
M  V30 2105 O 195.287 0.270748 1.76435 0
M  V30 2106 C 192.387 0.610957 3.33347 0
M  V30 2107 C 191.56 1.73255 4.01624 0
M  V30 2108 C 190.619 1.26238 5.10833 0
M  V30 2109 O 189.645 1.96389 5.34247 0
M  V30 2110 N 190.847 0.123448 5.80369 0
M  V30 2111 H 193.612 2.02806 2.20658 0
M  V30 2112 H 191.173 1.19827 1.08871 0
M  V30 2113 H 193.165 0.280101 4.0373 0
M  V30 2114 H 191.735 -0.24898 3.11607 0
M  V30 2115 H 190.955 2.23319 3.24842 0
M  V30 2116 H 192.243 2.48503 4.43986 0
M  V30 2117 H 191.641 -0.461847 5.63812 0
M  V30 2118 H 190.198 -0.148158 6.51632 0
M  V30 2119 N 193.631 -1.12557 1.10312 0
M  V30 2120 C 194.561 -2.20341 0.772798 0
M  V30 2121 C 195.542 -1.68198 -0.25365 0
M  V30 2122 O 196.727 -1.93831 -0.119699 0
M  V30 2123 C 193.857 -3.46709 0.202443 0
M  V30 2124 C 192.811 -4.11996 1.15943 0
M  V30 2125 C 192.137 -5.328 0.450345 0
M  V30 2126 C 193.437 -4.5828 2.50552 0
M  V30 2127 H 195.131 -2.48229 1.674 0
M  V30 2128 H 192.677 -1.19308 0.806326 0
M  V30 2129 H 194.63 -4.2138 -0.0407752 0
M  V30 2130 H 193.354 -3.18245 -0.734001 0
M  V30 2131 H 192.013 -3.39305 1.38808 0
M  V30 2132 H 191.661 -5.00602 -0.490531 0
M  V30 2133 H 191.361 -5.7743 1.08851 0
M  V30 2134 H 192.885 -6.10219 0.215642 0
M  V30 2135 H 194.299 -5.2433 2.31843 0
M  V30 2136 H 192.696 -5.13683 3.10242 0
M  V30 2137 H 193.766 -3.72329 3.10643 0
M  V30 2138 N 195.109 -0.891671 -1.2995 0
M  V30 2139 C 196.525 -0.58662 -1.48428 0
M  V30 2140 C 196.725 0.873951 -1.81561 0
M  V30 2141 O 195.781 1.65471 -1.90724 0
M  V30 2142 C 197.094 -1.50553 -2.60296 0
M  V30 2143 C 198.642 -1.50988 -2.74175 0
M  V30 2144 C 199.117 -2.41488 -3.89163 0
M  V30 2145 N 200.608 -2.39489 -3.96483 0
M  V30 2146 C 201.343 -3.06223 -4.84784 0
M  V30 2147 N 200.839 -3.82206 -5.77833 0
M  V30 2148 N 202.632 -2.95421 -4.78208 0
M  V30 2149 H 194.783 -1.83644 -1.06718 0
M  V30 2150 H 197.046 -0.786455 -0.529332 0
M  V30 2151 H 196.752 -2.54581 -2.42654 0
M  V30 2152 H 196.626 -1.22008 -3.56923 0
M  V30 2153 H 199.013 -0.47708 -2.91218 0
M  V30 2154 H 199.094 -1.83567 -1.78148 0
M  V30 2155 H 198.738 -3.44857 -3.72876 0
M  V30 2156 H 198.668 -2.06222 -4.84541 0
M  V30 2157 H 201.159 -1.84278 -3.29924 0
M  V30 2158 H 201.472 -4.302 -6.41988 0
M  V30 2159 H 199.817 -3.86313 -5.77743 0
M  V30 2160 H 203.008 -2.35581 -4.04499 0
M  V30 2161 H 203.181 -3.47704 -5.46814 0
M  V30 2162 N 196.587 1.43421 -0.653314 0
M  V30 2163 C 197.497 2.34568 0.0388565 0
M  V30 2164 C 198.513 1.53888 0.81207 0
M  V30 2165 O 199.689 1.86539 0.759294 0
M  V30 2166 C 196.754 3.32167 0.993269 0
M  V30 2167 C 195.815 4.28751 0.216977 0
M  V30 2168 C 195.048 5.21688 1.12593 0
M  V30 2169 O 195.271 5.19052 2.36519 0
M  V30 2170 O 194.205 5.98919 0.598284 0
M  V30 2171 H 198.031 2.95251 -0.711386 0
M  V30 2172 H 195.616 1.43564 -0.413502 0
M  V30 2173 H 197.498 3.92183 1.54176 0
M  V30 2174 H 196.173 2.73987 1.72374 0
M  V30 2175 H 195.08 3.72215 -0.375101 0
M  V30 2176 H 196.413 4.89913 -0.473924 0
M  V30 2177 N 198.065 0.39524 1.52563 0
M  V30 2178 C 198.975 -0.444232 2.30356 0
M  V30 2179 C 199.991 -1.06615 1.37511 0
M  V30 2180 O 201.167 -1.07067 1.70583 0
M  V30 2181 C 198.232 -1.55315 3.09964 0
M  V30 2182 C 197.293 -0.955734 4.18526 0
M  V30 2183 C 196.526 -2.01181 4.9433 0
M  V30 2184 O 196.749 -3.22781 4.70285 0
M  V30 2185 O 195.683 -1.62579 5.79527 0
M  V30 2186 H 199.509 0.189667 3.03107 0
M  V30 2187 H 197.094 0.1588 1.48554 0
M  V30 2188 H 198.976 -2.19724 3.59582 0
M  V30 2189 H 197.651 -2.17191 2.4002 0
M  V30 2190 H 196.558 -0.274743 3.7309 0
M  V30 2191 H 197.891 -0.381109 4.90722 0
M  V30 2192 N 199.544 -1.57102 0.125237 0
M  V30 2193 C 200.474 -2.18659 -0.819174 0
M  V30 2194 C 201.455 -1.12843 -1.27281 0
M  V30 2195 O 202.64 -1.41104 -1.33429 0
M  V30 2196 C 199.77 -2.79096 -2.06695 0
M  V30 2197 C 198.724 -3.90548 -1.75088 0
M  V30 2198 C 198.05 -4.37821 -3.06948 0
M  V30 2199 C 199.35 -5.12356 -1.01435 0
M  V30 2200 H 201.044 -2.9783 -0.306202 0
M  V30 2201 H 198.59 -1.4326 -0.145839 0
M  V30 2202 H 200.543 -3.2082 -2.73226 0
M  V30 2203 H 199.267 -1.97223 -2.60328 0
M  V30 2204 H 197.926 -3.49409 -1.10944 0
M  V30 2205 H 197.574 -3.52799 -3.58527 0
M  V30 2206 H 197.274 -5.12982 -2.86571 0
M  V30 2207 H 198.798 -4.822 -3.74587 0
M  V30 2208 H 200.212 -5.5106 -1.58132 0
M  V30 2209 H 198.609 -5.9314 -0.911319 0
M  V30 2210 H 199.679 -4.849 -0.00218681 0
M  V30 2211 N 201.022 0.148545 -1.56898 0
M  V30 2212 C 201.952 1.18524 -2.01182 0
M  V30 2213 C 202.933 1.4489 -0.891123 0
M  V30 2214 O 204.118 1.55836 -1.15882 0
M  V30 2215 C 201.248 2.51879 -2.39112 0
M  V30 2216 C 200.202 2.40038 -3.54353 0
M  V30 2217 C 199.528 3.78089 -3.78091 0
M  V30 2218 C 200.828 1.88577 -4.87069 0
M  V30 2219 H 202.522 0.817029 -2.88036 0
M  V30 2220 H 200.068 0.391575 -1.38574 0
M  V30 2221 H 202.021 3.24627 -2.68692 0
M  V30 2222 H 200.745 2.90532 -1.49193 0
M  V30 2223 H 199.404 1.69742 -3.24936 0
M  V30 2224 H 199.052 4.14175 -2.85426 0
M  V30 2225 H 198.752 3.71028 -4.55645 0
M  V30 2226 H 200.276 4.52387 -4.10095 0
M  V30 2227 H 201.69 2.51117 -5.15377 0
M  V30 2228 H 200.087 1.9241 -5.68417 0
M  V30 2229 H 201.157 0.84136 -4.77545 0
M  V30 2230 N 202.5 1.5196 0.417844 0
M  V30 2231 C 203.725 1.69717 1.1921 0
M  V30 2232 C 204.15 0.402148 1.83751 0
M  V30 2233 O 203.508 -0.639593 1.69643 0
M  V30 2234 C 203.556 2.82794 2.2374 0
M  V30 2235 O 202.66 2.47756 3.29683 0
M  V30 2236 H 202.001 0.565263 0.348387 0
M  V30 2237 H 204.531 1.98621 0.490985 0
M  V30 2238 H 204.541 3.07452 2.68212 0
M  V30 2239 H 203.216 3.76756 1.76146 0
M  V30 2240 H 201.793 2.33739 2.90552 0
M  V30 2241 N 203.978 -0.674533 1.42435 0
M  V30 2242 C 205.227 -1.43034 1.42212 0
M  V30 2243 C 205.54 -1.95555 0.0420788 0
M  V30 2244 O 206.746 -2.71374 -0.0827558 0
M  V30 2245 C 205.202 -2.58748 2.50155 0
M  V30 2246 C 204.81 -2.12925 3.94166 0
M  V30 2247 C 206.554 -3.36257 2.59098 0
M  V30 2248 C 204.461 -3.25723 4.93618 0
M  V30 2249 H 203.391 -0.537345 0.528939 0
M  V30 2250 H 206.042 -0.73024 1.68344 0
M  V30 2251 H 204.424 -3.31128 2.17188 0
M  V30 2252 H 205.598 -1.47697 4.36488 0
M  V30 2253 H 203.913 -1.48354 3.89076 0
M  V30 2254 H 206.51 -4.20264 3.30578 0
M  V30 2255 H 206.853 -3.82866 1.63461 0
M  V30 2256 H 207.386 -2.70947 2.9126 0
M  V30 2257 H 204.125 -2.84105 5.90732 0
M  V30 2258 H 203.645 -3.89732 4.55926 0
M  V30 2259 H 205.324 -3.91186 5.15347 0
M  V30 2260 N 205.456 -1.28612 -0.910864 0
M  V30 2261 C 206.419 -1.12803 -1.9952 0
M  V30 2262 C 207.419 -0.0668264 -1.60661 0
M  V30 2263 O 208.609 -0.312847 -1.71368 0
M  V30 2264 C 205.741 -0.72254 -3.33155 0
M  V30 2265 H 206.934 -2.09109 -2.14973 0
M  V30 2266 H 204.487 -1.11639 -1.09391 0
M  V30 2267 H 205.222 0.241152 -3.23402 0
M  V30 2268 H 205.007 -1.48916 -3.62721 0
M  V30 2269 H 206.497 -0.634666 -4.12749 0
M  V30 2270 N 206.934 1.1197 -1.10907 0
M  V30 2271 C 208.345 1.65114 -0.871446 0
M  V30 2272 C 208.696 1.86885 0.597353 0
M  V30 2273 O 207.821 1.59896 1.45816 0
M  V30 2274 C 208.416 2.99944 -1.5754 0
M  V30 2275 C 206.975 3.50018 -1.38435 0
M  V30 2276 C 206.122 2.24941 -1.62164 0
M  V30 2277 H 209.073 0.956851 -1.2661 0
M  V30 2278 H 209.094 3.66651 -1.01721 0
M  V30 2279 H 208.606 2.84067 -2.64438 0
M  V30 2280 H 206.707 3.71071 -0.337214 0
M  V30 2281 H 206.82 4.29165 -2.12965 0
M  V30 2282 H 205.184 2.3229 -1.04467 0
M  V30 2283 H 205.967 2.11612 -2.70324 0
M  V30 2284 N 208.412 0.89855 1.29475 0
M  V30 2285 C 209.658 0.524658 1.95896 0
M  V30 2286 C 209.991 -0.926468 1.70676 0
M  V30 2287 O 209.266 -1.65665 1.01908 0
M  V30 2288 C 209.549 0.81633 3.50725 0
M  V30 2289 C 209.402 2.31907 3.85408 0
M  V30 2290 C 210.721 0.302038 4.39062 0
M  V30 2291 H 207.84 0.19209 0.711527 0
M  V30 2292 H 210.482 1.12502 1.53112 0
M  V30 2293 H 208.632 0.305369 3.87298 0
M  V30 2294 H 210.304 2.89949 3.58786 0
M  V30 2295 H 208.547 2.78027 3.32992 0
M  V30 2296 H 209.218 2.47373 4.93468 0
M  V30 2297 H 211.694 0.739551 4.09475 0
M  V30 2298 H 210.57 0.535331 5.46283 0
M  V30 2299 H 210.831 -0.797216 4.34853 0
M  V30 2300 N 209.89 -1.43072 0.660911 0
M  V30 2301 C 211.137 -2.01721 0.177445 0
M  V30 2302 C 211.465 -1.5218 -1.21126 0
M  V30 2303 O 210.72 -0.708659 -1.82419 0
M  V30 2304 C 211.019 -3.57103 0.145563 0
M  V30 2305 C 210.685 -4.26021 1.47705 0
M  V30 2306 C 209.347 -4.44563 1.84165 0
M  V30 2307 C 211.699 -4.64983 2.35458 0
M  V30 2308 C 209.027 -4.99334 3.0803 0
M  V30 2309 C 211.379 -5.21127 3.58622 0
M  V30 2310 C 210.043 -5.37884 3.95268 0
M  V30 2311 H 209.313 -0.73815 0.0649317 0
M  V30 2312 H 211.96 -1.71446 0.853144 0
M  V30 2313 H 210.265 -3.86965 -0.61361 0
M  V30 2314 H 211.962 -4.00248 -0.2455 0
M  V30 2315 H 208.552 -4.11939 1.18339 0
M  V30 2316 H 212.736 -4.50343 2.08579 0
M  V30 2317 H 207.992 -5.10493 3.36462 0
M  V30 2318 H 212.166 -5.50262 4.26831 0
M  V30 2319 H 209.793 -5.80089 4.91325 0
M  V30 2320 N 211.368 -0.403325 -1.52352 0
M  V30 2321 C 212.316 0.439752 -2.28405 0
M  V30 2322 C 213.31 1.05089 -1.32863 0
M  V30 2323 O 214.516 0.989759 -1.50345 0
M  V30 2324 H 210.891 0.160587 -0.734653 0
M  V30 2325 H 212.862 -0.222983 -2.97566 0
M  V30 2326 C 211.611 1.54736 -3.11371 0
M  V30 2327 H 210.934 1.08643 -3.84755 0
M  V30 2328 H 212.374 2.1112 -3.67701 0
M  V30 2329 C 210.833 2.51141 -2.24566 0
M  V30 2330 O 211.363 3.54887 -1.88196 0
M  V30 2331 N 209.569 2.21213 -1.8845 0
M  V30 2332 H 209.116 1.36878 -2.18225 0
M  V30 2333 H 209.074 2.85963 -1.30662 0
M  V30 2334 N 212.846 1.57033 -0.133567 0
M  V30 2335 C 213.756 2.19632 0.824564 0
M  V30 2336 C 214.772 1.17666 1.28182 0
M  V30 2337 O 215.948 1.50193 1.3418 0
M  V30 2338 C 213.013 2.79499 2.05137 0
M  V30 2339 C 212.074 3.96548 1.64464 0
M  V30 2340 C 211.307 4.5355 2.81297 0
M  V30 2341 O 211.53 4.09438 3.97136 0
M  V30 2342 O 210.464 5.44018 2.57542 0
M  V30 2343 H 214.29 3.01991 0.321766 0
M  V30 2344 H 211.875 1.49112 0.0927889 0
M  V30 2345 H 213.757 3.17602 2.7696 0
M  V30 2346 H 212.432 2.00162 2.54395 0
M  V30 2347 H 211.339 3.63186 0.897048 0
M  V30 2348 H 212.672 4.77364 1.19934 0
M  V30 2349 N 214.325 -0.140222 1.56975 0
M  V30 2350 C 215.553 -0.866437 1.87884 0
M  V30 2351 C 215.968 -1.74428 0.722517 0
M  V30 2352 O 215.325 -1.79891 -0.30749 0
M  V30 2353 C 215.376 -1.71753 3.18093 0
M  V30 2354 O 215.097 -0.875056 4.29272 0
M  V30 2355 C 216.598 -2.55074 3.62563 0
M  V30 2356 H 213.818 -0.25019 0.622612 0
M  V30 2357 H 216.362 -0.130977 2.0408 0
M  V30 2358 H 214.517 -2.40598 3.03631 0
M  V30 2359 H 214.931 -1.46002 5.03769 0
M  V30 2360 H 216.405 -3.10356 4.5649 0
M  V30 2361 H 216.882 -3.31434 2.88181 0
M  V30 2362 H 217.488 -1.91509 3.79743 0
M  V30 2363 N 215.803 -1.52179 -0.40978 0
M  V30 2364 C 217.214 -1.58377 -0.988615 0
M  V30 2365 C 217.565 -0.423879 -1.91566 0
M  V30 2366 O 216.69 0.455844 -2.11544 0
M  V30 2367 C 217.285 -2.87044 -1.79976 0
M  V30 2368 C 215.844 -2.95722 -2.32863 0
M  V30 2369 C 214.991 -2.53309 -1.12828 0
M  V30 2370 H 217.942 -1.57558 -0.190039 0
M  V30 2371 H 217.963 -2.7236 -2.65707 0
M  V30 2372 H 217.475 -3.71444 -1.12478 0
M  V30 2373 H 215.576 -2.15814 -3.03735 0
M  V30 2374 H 215.689 -3.99951 -2.63773 0
M  V30 2375 H 214.053 -2.07142 -1.48204 0
M  V30 2376 H 214.836 -3.40082 -0.46897 0
M  V30 2377 N 217.281 0.66697 -1.42791 0
M  V30 2378 C 218.528 1.42699 -1.43678 0
M  V30 2379 C 218.856 1.94419 -0.0560425 0
M  V30 2380 O 218.111 1.7182 0.936831 0
M  V30 2381 C 218.41 2.6349 -2.4147 0
M  V30 2382 C 218.076 2.30267 -3.8767 0
M  V30 2383 C 216.738 2.20918 -4.27491 0
M  V30 2384 C 219.09 2.03435 -4.79858 0
M  V30 2385 C 216.418 1.82873 -5.57471 0
M  V30 2386 C 218.77 1.66892 -6.10188 0
M  V30 2387 C 217.434 1.56058 -6.49001 0
M  V30 2388 H 216.704 0.522171 -0.525755 0
M  V30 2389 H 219.351 0.759785 -1.75783 0
M  V30 2390 H 217.656 3.35279 -2.0272 0
M  V30 2391 H 219.353 3.21684 -2.39417 0
M  V30 2392 H 215.943 2.38449 -3.56146 0
M  V30 2393 H 220.127 2.09586 -4.49875 0
M  V30 2394 H 215.383 1.7306 -5.86396 0
M  V30 2395 H 219.557 1.45157 -6.81104 0
M  V30 2396 H 217.184 1.26348 -7.49627 0
M  V30 2397 N 218.759 1.29093 0.90403 0
M  V30 2398 C 220.006 1.16813 1.65411 0
M  V30 2399 C 220.334 -0.28128 1.92455 0
M  V30 2400 O 219.589 -1.22006 1.53013 0
M  V30 2401 C 219.888 1.92224 3.01305 0
M  V30 2402 C 219.554 3.41968 2.93885 0
M  V30 2403 C 218.216 3.82807 2.91569 0
M  V30 2404 C 220.568 4.37409 2.83413 0
M  V30 2405 C 217.896 5.1741 2.76594 0
M  V30 2406 C 220.248 5.72097 2.69977 0
M  V30 2407 C 218.912 6.12199 2.66024 0
M  V30 2408 H 218.182 0.42745 0.605283 0
M  V30 2409 H 220.829 1.59981 1.05254 0
M  V30 2410 H 219.134 1.41635 3.65304 0
M  V30 2411 H 220.831 1.80131 3.58265 0
M  V30 2412 H 217.421 3.09504 2.96488 0
M  V30 2413 H 221.605 4.06813 2.84283 0
M  V30 2414 H 216.861 5.47596 2.71935 0
M  V30 2415 H 221.035 6.45704 2.60844 0
M  V30 2416 H 218.662 7.16448 2.54178 0
M  V30 2417 N 220.237 -1.11381 1.11499 0
M  V30 2418 C 221.17 -2.16621 0.71769 0
M  V30 2419 C 222.148 -1.60058 -0.286413 0
M  V30 2420 O 223.332 -1.87613 -0.182689 0
M  V30 2421 C 220.459 -3.38646 0.0607265 0
M  V30 2422 C 219.505 -4.13874 1.03008 0
M  V30 2423 S 220.338 -4.70731 2.55289 0
M  V30 2424 C 221.494 -5.96079 1.90895 0
M  V30 2425 H 221.727 -2.49987 1.60915 0
M  V30 2426 H 219.26 -1.23015 0.933092 0
M  V30 2427 H 221.218 -4.09313 -0.311965 0
M  V30 2428 H 219.879 -3.03537 -0.807702 0
M  V30 2429 H 219.072 -5.01333 0.517853 0
M  V30 2430 H 218.674 -3.4897 1.34522 0
M  V30 2431 H 220.966 -6.65948 1.24577 0
M  V30 2432 H 221.909 -6.51946 2.76354 0
M  V30 2433 H 222.317 -5.47652 1.36885 0
M  V30 2434 N 221.715 -0.905404 -1.28997 0
M  V30 2435 C 222.94 -0.549175 -1.99997 0
M  V30 2436 C 223.365 0.860276 -1.67275 0
M  V30 2437 O 222.723 1.57355 -0.900502 0
M  V30 2438 C 222.771 -0.755185 -3.52604 0
M  V30 2439 O 221.875 0.189692 -4.11964 0
M  V30 2440 H 221.216 -0.213899 -0.628604 0
M  V30 2441 H 223.746 -1.21856 -1.64354 0
M  V30 2442 H 223.756 -0.662045 -4.02593 0
M  V30 2443 H 222.431 -1.78271 -3.75755 0
M  V30 2444 H 221.008 0.0485257 -3.72868 0
M  V30 2445 N 223.193 1.4272 -0.668489 0
M  V30 2446 C 224.103 2.34596 0.0139753 0
M  V30 2447 C 225.119 1.5474 0.795703 0
M  V30 2448 O 226.295 1.87334 0.739466 0
M  V30 2449 C 223.36 3.33202 0.957982 0
M  V30 2450 C 222.421 4.28957 0.17149 0
M  V30 2451 C 221.654 5.22853 1.07053 0
M  V30 2452 O 221.877 5.21531 2.31001 0
M  V30 2453 O 220.811 5.9952 0.534727 0
M  V30 2454 H 224.637 2.9448 -0.742661 0
M  V30 2455 H 222.222 1.43117 -0.428705 0
M  V30 2456 H 224.104 3.93796 1.50008 0
M  V30 2457 H 222.779 2.758 1.69458 0
M  V30 2458 H 221.686 3.71796 -0.414558 0
M  V30 2459 H 223.019 4.89383 -0.52586 0
M  V30 2460 N 224.671 0.411399 1.52136 0
M  V30 2461 C 225.581 -0.419774 2.30814 0
M  V30 2462 C 226.597 -1.0515 1.38634 0
M  V30 2463 O 227.773 -1.05252 1.71709 0
M  V30 2464 C 224.838 -1.52019 3.11594 0
M  V30 2465 C 223.899 -0.91129 4.19516 0
M  V30 2466 C 223.132 -1.95927 4.96436 0
M  V30 2467 O 223.355 -3.17775 4.73683 0
M  V30 2468 O 222.289 -1.56423 5.81219 0
M  V30 2469 H 226.115 0.221805 3.02889 0
M  V30 2470 H 223.7 0.174547 1.48377 0
M  V30 2471 H 225.582 -2.15898 3.61892 0
M  V30 2472 H 224.257 -2.14633 2.42311 0
M  V30 2473 H 223.164 -0.235157 3.7336 0
M  V30 2474 H 224.497 -0.32904 4.91099 0
M  V30 2475 N 226.149 -1.5696 0.141893 0
M  V30 2476 C 227.396 -1.9596 -0.510492 0
M  V30 2477 C 227.724 -1.02648 -1.65208 0
M  V30 2478 O 226.979 -0.0546947 -1.95624 0
M  V30 2479 C 227.278 -3.41242 -1.06249 0
M  V30 2480 C 226.944 -4.50882 -0.0398791 0
M  V30 2481 C 225.606 -4.80595 0.241247 0
M  V30 2482 C 227.958 -5.17058 0.65578 0
M  V30 2483 C 225.286 -5.73792 1.22393 0
M  V30 2484 C 227.638 -6.11313 1.62724 0
M  V30 2485 C 226.302 -6.39407 1.91612 0
M  V30 2486 H 225.572 -0.717068 -0.186802 0
M  V30 2487 H 228.219 -1.90142 0.227643 0
M  V30 2488 H 226.524 -3.43866 -1.87785 0
M  V30 2489 H 228.221 -3.68742 -1.57576 0
M  V30 2490 H 224.811 -4.27754 -0.269174 0
M  V30 2491 H 228.995 -4.94239 0.451779 0
M  V30 2492 H 224.251 -5.93853 1.45424 0
M  V30 2493 H 228.425 -6.61668 2.17183 0
M  V30 2494 H 226.052 -7.11427 2.6791 0
M  V30 2495 N 227.627 0.131896 -1.57047 0
M  V30 2496 C 228.852 0.860418 -1.8871 0
M  V30 2497 C 229.277 1.73251 -0.73251 0
M  V30 2498 O 228.635 1.785 0.317429 0
M  V30 2499 C 228.683 1.68047 -3.19049 0
M  V30 2500 O 227.787 2.7862 -3.04047 0
M  V30 2501 H 227.128 0.238743 -0.619595 0
M  V30 2502 H 229.658 0.118169 -2.04258 0
M  V30 2503 H 229.668 2.07238 -3.51449 0
M  V30 2504 H 228.343 1.04018 -4.02682 0
M  V30 2505 H 226.92 2.42726 -2.83088 0
M  V30 2506 N 229.106 1.52395 0.401703 0
M  V30 2507 C 230.036 1.79231 1.49661 0
M  V30 2508 C 231.017 0.643654 1.57452 0
M  V30 2509 O 232.202 0.889989 1.72606 0
M  V30 2510 C 229.332 1.94971 2.87409 0
M  V30 2511 C 228.286 3.10604 2.94465 0
M  V30 2512 C 227.612 3.11577 4.34538 0
M  V30 2513 C 228.912 4.49921 2.6527 0
M  V30 2514 H 230.606 2.70917 1.27454 0
M  V30 2515 H 228.152 1.30362 0.6117 0
M  V30 2516 H 230.105 2.12328 3.63999 0
M  V30 2517 H 228.829 0.999632 3.10926 0
M  V30 2518 H 227.488 2.93009 2.20321 0
M  V30 2519 H 227.136 2.14277 4.55076 0
M  V30 2520 H 226.836 3.89247 4.40183 0
M  V30 2521 H 228.36 3.31073 5.13053 0
M  V30 2522 H 229.774 4.67683 3.31581 0
M  V30 2523 H 228.171 5.29564 2.82281 0
M  V30 2524 H 229.241 4.57507 1.60671 0
M  V30 2525 N 230.584 -0.659388 1.43143 0
M  V30 2526 C 231.83 -1.42145 1.44647 0
M  V30 2527 C 232.163 -1.9408 0.0681907 0
M  V30 2528 O 231.438 -1.71899 -0.910007 0
M  V30 2529 C 231.721 -2.60735 2.48373 0
M  V30 2530 C 231.574 -2.14332 3.95451 0
M  V30 2531 C 232.893 -3.62951 2.48906 0
M  V30 2532 H 230.012 -0.51552 0.526696 0
M  V30 2533 H 232.654 -0.748069 1.74654 0
M  V30 2534 H 230.804 -3.18184 2.22916 0
M  V30 2535 H 232.476 -1.61932 4.31944 0
M  V30 2536 H 230.719 -1.4576 4.08578 0
M  V30 2537 H 231.39 -2.99583 4.63631 0
M  V30 2538 H 233.866 -3.1525 2.71582 0
M  V30 2539 H 232.742 -4.43487 3.23435 0
M  V30 2540 H 233.003 -4.15126 1.52061 0
M  V30 2541 N 232.062 -1.29571 -0.897171 0
M  V30 2542 C 233.339 -1.08365 -1.62839 0
M  V30 2543 C 233.719 0.371331 -2.07808 0
M  V30 2544 O 233.067 1.3606 -1.83576 0
M  V30 2545 C 233.277 -2.0735 -2.80726 0
M  V30 2546 C 234.625 -2.38406 -3.51351 0
M  V30 2547 O 235.649 -2.05564 -2.90898 0
M  V30 2548 O 234.508 -2.9453 -4.60341 0
M  V30 2549 H 231.602 -0.415345 -0.715134 0
M  V30 2550 H 234.148 -1.40952 -0.945018 0
M  V30 2551 H 232.92 -3.05339 -2.44711 0
M  V30 2552 H 232.543 -1.75507 -3.56767 0
M  V30 2553 N 233.54 1.10788 -1.12088 0
M  V30 2554 C 234.78 1.84297 -0.883974 0
M  V30 2555 C 235.144 1.83036 0.579797 0
M  V30 2556 O 236.345 2.52061 0.933734 0
M  V30 2557 C 234.616 3.27173 -1.43849 0
M  V30 2558 S 236.175 4.17853 -1.33957 0
M  V30 2559 H 232.993 0.635433 -0.318977 0
M  V30 2560 H 235.595 1.33341 -1.4297 0
M  V30 2561 H 234.299 3.25658 -2.49749 0
M  V30 2562 H 233.83 3.83198 -0.890096 0
M  V30 2563 H 235.845 4.95239 -0.308603 0
M  V30 2564 N 235.018 0.912232 1.28515 0
M  V30 2565 C 236.248 0.559604 1.98877 0
M  V30 2566 C 236.656 -0.863113 1.68366 0
M  V30 2567 O 235.999 -1.58304 0.931969 0
M  V30 2568 C 236.061 0.68703 3.52874 0
M  V30 2569 C 235.725 2.07901 4.06972 0
M  V30 2570 C 236.722 3.05157 4.20922 0
M  V30 2571 C 234.407 2.39178 4.417 0
M  V30 2572 C 236.401 4.31806 4.68852 0
M  V30 2573 C 234.088 3.66068 4.89324 0
M  V30 2574 C 235.086 4.62195 5.02856 0
M  V30 2575 O 234.774 5.86829 5.49442 0
M  V30 2576 H 234.506 0.212191 0.641834 0
M  V30 2577 H 237.06 1.22712 1.64715 0
M  V30 2578 H 235.29 -0.0375486 3.86682 0
M  V30 2579 H 236.979 0.341727 4.04459 0
M  V30 2580 H 237.745 2.82311 3.94367 0
M  V30 2581 H 233.624 1.65109 4.30418 0
M  V30 2582 H 237.168 5.06842 4.79329 0
M  V30 2583 H 233.065 3.88739 5.15318 0
M  V30 2584 H 233.833 5.89597 5.6773 0
M  V30 2585 N 236.496 -1.42363 0.676048 0
M  V30 2586 C 237.426 -2.33497 0.0124832 0
M  V30 2587 C 238.407 -1.50748 -0.787981 0
M  V30 2588 O 239.592 -1.79346 -0.744884 0
M  V30 2589 C 236.722 -3.34377 -0.938582 0
M  V30 2590 C 235.676 -4.27289 -0.246622 0
M  V30 2591 C 235.002 -5.18386 -1.31071 0
M  V30 2592 C 236.302 -5.14916 0.875125 0
M  V30 2593 H 237.996 -2.89233 0.773593 0
M  V30 2594 H 235.542 -1.39073 0.37346 0
M  V30 2595 H 237.495 -3.97044 -1.41188 0
M  V30 2596 H 236.219 -2.76947 -1.73113 0
M  V30 2597 H 234.878 -3.66018 0.206456 0
M  V30 2598 H 234.526 -4.57282 -2.09528 0
M  V30 2599 H 234.226 -5.81378 -0.852839 0
M  V30 2600 H 235.75 -5.83929 -1.78492 0
M  V30 2601 H 237.164 -5.71262 0.482983 0
M  V30 2602 H 235.561 -5.86747 1.25887 0
M  V30 2603 H 236.631 -4.53242 1.72335 0
M  V30 2604 N 237.974 -0.419461 -1.51915 0
M  V30 2605 C 238.937 0.389116 -2.25873 0
M  V30 2606 C 239.937 0.964924 -1.28631 0
M  V30 2607 O 241.127 0.842179 -1.52489 0
M  V30 2608 C 238.259 1.54874 -3.03689 0
M  V30 2609 H 239.452 -0.258799 -2.98781 0
M  V30 2610 H 237.005 -0.172209 -1.55348 0
M  V30 2611 H 237.74 2.23323 -2.35154 0
M  V30 2612 H 237.525 1.14223 -3.75094 0
M  V30 2613 H 239.015 2.12046 -3.59759 0
M  V30 2614 N 239.452 1.56882 -0.150215 0
M  V30 2615 C 240.863 1.82995 0.370076 0
M  V30 2616 C 241.214 1.06907 1.64515 0
M  V30 2617 O 240.339 0.315369 2.1409 0
M  V30 2618 C 240.934 3.31942 0.678208 0
M  V30 2619 C 239.493 3.58625 1.14301 0
M  V30 2620 C 238.64 2.76792 0.167778 0
M  V30 2621 H 241.591 1.54209 -0.374858 0
M  V30 2622 H 241.612 3.48272 1.53254 0
M  V30 2623 H 241.124 3.87294 -0.249991 0
M  V30 2624 H 239.225 3.08664 2.08704 0
M  V30 2625 H 239.338 4.67073 1.06676 0
M  V30 2626 H 237.702 2.45972 0.661037 0
M  V30 2627 H 238.485 3.34916 -0.754069 0
M  V30 2628 N 240.93 -0.123565 1.57115 0
M  V30 2629 C 241.86 -1.15309 2.03042 0
M  V30 2630 C 242.841 -1.43454 0.914061 0
M  V30 2631 O 244.026 -1.53973 1.18347 0
M  V30 2632 C 241.156 -2.48043 2.43089 0
M  V30 2633 C 240.11 -2.3437 3.58127 0
M  V30 2634 C 239.436 -3.72026 3.84059 0
M  V30 2635 C 240.736 -1.80804 4.90007 0
M  V30 2636 H 242.43 -0.771102 2.893 0
M  V30 2637 H 239.976 -0.369479 1.39179 0
M  V30 2638 H 241.929 -3.20311 2.73823 0
M  V30 2639 H 240.653 -2.88122 1.53796 0
M  V30 2640 H 239.312 -1.64551 3.27595 0
M  V30 2641 H 238.96 -4.09582 2.91979 0
M  V30 2642 H 238.66 -3.63732 4.6149 0
M  V30 2643 H 240.184 -4.45806 4.1724 0
M  V30 2644 H 241.598 -2.42886 5.19307 0
M  V30 2645 H 239.995 -1.83343 5.71407 0
M  V30 2646 H 241.065 -0.76528 4.78823 0
M  V30 2647 N 242.408 -1.52605 -0.393616 0
M  V30 2648 C 243.338 -1.80022 -1.48709 0
M  V30 2649 C 244.319 -0.651995 -1.57108 0
M  V30 2650 O 245.504 -0.89913 -1.72132 0
M  V30 2651 C 242.634 -1.96492 -2.86371 0
M  V30 2652 C 241.588 -3.12161 -2.92813 0
M  V30 2653 C 240.914 -3.13877 -4.3288 0
M  V30 2654 C 242.214 -4.51322 -2.6288 0
M  V30 2655 H 243.908 -2.71589 -1.26015 0
M  V30 2656 H 241.454 -1.30684 -0.604778 0
M  V30 2657 H 243.407 -2.14255 -3.62867 0
M  V30 2658 H 242.131 -1.01611 -3.10391 0
M  V30 2659 H 240.79 -2.94173 -2.18764 0
M  V30 2660 H 240.438 -2.16687 -4.53933 0
M  V30 2661 H 240.138 -3.91576 -4.38112 0
M  V30 2662 H 241.662 -3.33789 -5.1129 0
M  V30 2663 H 243.076 -4.69435 -3.29096 0
M  V30 2664 H 241.473 -5.31053 -2.79468 0
M  V30 2665 H 242.543 -4.58353 -1.58242 0
M  V30 2666 N 243.887 0.651787 -1.4349 0
M  V30 2667 C 245.133 1.4121 -1.46395 0
M  V30 2668 C 245.488 1.92202 -0.087366 0
M  V30 2669 O 244.781 1.69452 0.894231 0
M  V30 2670 C 244.975 2.60914 -2.44251 0
M  V30 2671 C 244.804 2.21639 -3.91288 0
M  V30 2672 C 243.574 2.09897 -4.59643 0
M  V30 2673 C 245.772 1.81835 -4.81083 0
M  V30 2674 N 243.754 1.63967 -5.91598 0
M  V30 2675 C 245.125 1.46998 -6.02322 0
M  V30 2676 C 247.18 1.69031 -4.6833 0
M  V30 2677 C 245.883 1.00638 -7.12225 0
M  V30 2678 C 247.909 1.24077 -5.78238 0
M  V30 2679 C 247.271 0.901772 -6.98604 0
M  V30 2680 H 243.37 0.512322 -0.590805 0
M  V30 2681 H 245.954 0.74989 -1.7968 0
M  V30 2682 H 244.125 3.24792 -2.1299 0
M  V30 2683 H 245.857 3.27622 -2.37584 0
M  V30 2684 H 242.612 2.297 -4.14168 0
M  V30 2685 H 243.036 1.43359 -6.61647 0
M  V30 2686 H 247.678 1.93878 -3.75727 0
M  V30 2687 H 245.396 0.745399 -8.04655 0
M  V30 2688 H 248.982 1.14657 -5.7039 0
M  V30 2689 H 247.862 0.559226 -7.82203 0
M  V30 2690 N 245.365 1.30045 0.890287 0
M  V30 2691 C 246.781 1.08261 1.17268 0
M  V30 2692 C 246.981 -0.160063 2.00863 0
M  V30 2693 O 246.037 -0.855181 2.37577 0
M  V30 2694 C 247.35 2.34323 1.8845 0
M  V30 2695 C 248.898 2.39735 2.01237 0
M  V30 2696 C 249.373 3.65625 2.7583 0
M  V30 2697 N 250.864 3.66402 2.83379 0
M  V30 2698 C 251.599 4.60498 3.41657 0
M  V30 2699 N 251.095 5.64933 4.01026 0
M  V30 2700 N 252.888 4.48051 3.39421 0
M  V30 2701 H 245.039 2.09777 0.332762 0
M  V30 2702 H 247.302 0.92446 0.209948 0
M  V30 2703 H 247.008 3.2498 1.34465 0
M  V30 2704 H 246.882 2.4256 2.88867 0
M  V30 2705 H 249.269 1.4956 2.54393 0
M  V30 2706 H 249.35 2.35476 0.999232 0
M  V30 2707 H 248.994 4.56156 2.23347 0
M  V30 2708 H 248.924 3.67144 3.77509 0
M  V30 2709 H 251.415 2.90896 2.41222 0
M  V30 2710 H 251.728 6.32841 4.43545 0
M  V30 2711 H 250.073 5.68732 3.99461 0
M  V30 2712 H 253.264 3.65649 2.92264 0
M  V30 2713 H 253.437 5.21565 3.84544 0
M  V30 2714 N 246.843 -1.10192 1.12674 0
M  V30 2715 C 247.773 -2.18652 0.819362 0
M  V30 2716 C 248.754 -1.68698 -0.217915 0
M  V30 2717 O 249.939 -1.94041 -0.0785581 0
M  V30 2718 C 247.069 -3.46202 0.27594 0
M  V30 2719 C 246.023 -4.09444 1.24656 0
M  V30 2720 C 245.349 -5.31725 0.563258 0
M  V30 2721 C 246.649 -4.52863 2.60217 0
M  V30 2722 H 248.343 -2.44622 1.72628 0
M  V30 2723 H 245.889 -1.17571 0.831451 0
M  V30 2724 H 247.842 -4.21372 0.0486149 0
M  V30 2725 H 246.566 -3.1973 -0.666331 0
M  V30 2726 H 245.225 -3.36284 1.45974 0
M  V30 2727 H 244.873 -5.0153 -0.384235 0
M  V30 2728 H 244.573 -5.74991 1.21075 0
M  V30 2729 H 246.097 -6.09624 0.34503 0
M  V30 2730 H 247.511 -5.19294 2.42913 0
M  V30 2731 H 245.908 -5.06986 3.21068 0
M  V30 2732 H 246.978 -3.65656 3.18471 0
M  V30 2733 N 248.321 -0.919034 -1.28029 0
M  V30 2734 C 249.732 -0.600735 -1.76771 0
M  V30 2735 C 250.083 0.884024 -1.75156 0
M  V30 2736 O 249.208 1.69163 -1.34956 0
M  V30 2737 C 249.803 -1.08372 -3.21 0
M  V30 2738 C 248.362 -0.816248 -3.67443 0
M  V30 2739 C 247.509 -1.24742 -2.47658 0
M  V30 2740 H 250.46 -1.09974 -1.14418 0
M  V30 2741 H 250.481 -0.427512 -3.78091 0
M  V30 2742 H 249.993 -2.16437 -3.22144 0
M  V30 2743 H 248.094 0.250968 -3.71754 0
M  V30 2744 H 248.207 -1.4277 -4.57333 0
M  V30 2745 H 246.571 -0.666083 -2.45836 0
M  V30 2746 H 247.354 -2.33653 -2.51518 0
M  V30 2747 N 249.799 1.42003 -0.683588 0
M  V30 2748 C 251.045 2.01712 -0.209825 0
M  V30 2749 C 251.378 1.53968 1.18353 0
M  V30 2750 O 250.653 0.745661 1.79639 0
M  V30 2751 C 250.936 3.59202 -0.254197 0
M  V30 2752 C 250.789 4.17102 -1.68363 0
M  V30 2753 C 252.108 4.38344 0.392709 0
M  V30 2754 H 249.227 0.732891 -0.0777189 0
M  V30 2755 H 251.869 1.68909 -0.87004 0
M  V30 2756 H 250.019 3.87278 0.307954 0
M  V30 2757 H 251.691 3.99946 -2.29871 0
M  V30 2758 H 249.934 3.72597 -2.22157 0
M  V30 2759 H 250.605 5.26249 -1.6663 0
M  V30 2760 H 253.081 4.16011 -0.0859162 0
M  V30 2761 H 251.957 5.47901 0.331063 0
M  V30 2762 H 252.218 4.16887 1.47164 0
M  V30 2763 N 251.277 0.427512 1.51691 0
M  V30 2764 C 252.207 -0.3796 2.30394 0
M  V30 2765 C 253.188 -1.02982 1.35384 0
M  V30 2766 O 254.373 -1.03534 1.643 0
M  V30 2767 C 251.503 -1.48649 3.1388 0
M  V30 2768 C 250.457 -0.960294 4.17088 0
M  V30 2769 C 249.783 -2.16219 4.89033 0
M  V30 2770 C 251.083 -0.00153679 5.223 0
M  V30 2771 H 252.777 0.277164 2.98114 0
M  V30 2772 H 250.323 0.134739 1.43368 0
M  V30 2773 H 252.276 -2.05826 3.67714 0
M  V30 2774 H 251 -2.1714 2.43962 0
M  V30 2775 H 249.659 -0.410806 3.64291 0
M  V30 2776 H 249.307 -2.83307 4.15628 0
M  V30 2777 H 249.007 -1.81654 5.58816 0
M  V30 2778 H 250.531 -2.73968 5.45687 0
M  V30 2779 H 251.945 -0.482687 5.71264 0
M  V30 2780 H 250.342 0.256199 5.99553 0
M  V30 2781 H 251.412 0.938174 4.75738 0
M  V30 2782 N 252.755 -1.56801 0.158532 0
M  V30 2783 C 254.003 -1.96102 -0.488712 0
M  V30 2784 C 254.324 -1.04498 -1.64636 0
M  V30 2785 O 253.594 -0.108783 -1.95598 0
M  V30 2786 H 252.174 -0.724102 -0.183535 0
M  V30 2787 H 254.836 -1.93457 0.236728 0
M  V30 2788 H 253.932 -3.00097 -0.857219 0
M  V30 2789 N 254.233 0.115231 -1.57178 0
M  V30 2790 C 255.482 0.820945 -1.84237 0
M  V30 2791 C 255.795 1.80866 -0.744761 0
M  V30 2792 O 257.001 2.56083 -0.901871 0
M  V30 2793 C 255.457 1.51072 -3.26658 0
M  V30 2794 C 255.065 0.563795 -4.44438 0
M  V30 2795 C 256.809 2.20134 -3.62962 0
M  V30 2796 C 254.716 1.25701 -5.77887 0
M  V30 2797 H 253.646 0.310328 -0.687177 0
M  V30 2798 H 256.297 0.0737134 -1.83352 0
M  V30 2799 H 254.679 2.30471 -3.22024 0
M  V30 2800 H 255.853 -0.197247 -4.60378 0
M  V30 2801 H 254.168 -0.0200638 -4.16395 0
M  V30 2802 H 256.765 2.72696 -4.59936 0
M  V30 2803 H 257.108 2.98107 -2.90582 0
M  V30 2804 H 257.641 1.47619 -3.69396 0
M  V30 2805 H 254.38 0.518493 -6.53446 0
M  V30 2806 H 253.9 1.98997 -5.65827 0
M  V30 2807 H 255.579 1.78915 -6.2177 0
M  V30 2808 N 255.711 1.52812 0.385517 0
M  V30 2809 C 256.621 1.80766 1.49535 0
M  V30 2810 C 257.637 0.694651 1.59532 0
M  V30 2811 O 258.813 0.982611 1.75803 0
M  V30 2812 C 255.878 1.97381 2.85029 0
M  V30 2813 C 254.939 3.21295 2.84724 0
M  V30 2814 C 254.172 3.37108 4.13756 0
M  V30 2815 O 254.395 2.5765 5.08893 0
M  V30 2816 O 253.329 4.30378 4.20783 0
M  V30 2817 H 257.155 2.75015 1.28842 0
M  V30 2818 H 254.74 1.37946 0.573697 0
M  V30 2819 H 256.622 2.09996 3.65349 0
M  V30 2820 H 255.297 1.06322 3.05741 0
M  V30 2821 H 254.204 3.1412 2.03174 0
M  V30 2822 H 255.537 4.12212 2.68965 0
M  V30 2823 N 257.189 -0.644168 1.43834 0
M  V30 2824 C 258.436 -1.40395 1.4593 0
M  V30 2825 C 258.764 -1.94305 0.0869658 0
M  V30 2826 O 258.019 -1.73288 -0.909378 0
M  V30 2827 C 258.318 -2.59615 2.45631 0
M  V30 2828 C 257.984 -2.2407 3.91284 0
M  V30 2829 C 256.646 -2.14089 4.30952 0
M  V30 2830 C 258.998 -1.95775 4.83034 0
M  V30 2831 C 256.326 -1.73981 5.6031 0
M  V30 2832 C 258.678 -1.57163 6.12766 0
M  V30 2833 C 257.342 -1.45713 6.51402 0
M  V30 2834 H 256.612 -0.513741 0.533995 0
M  V30 2835 H 259.259 -0.731724 1.76969 0
M  V30 2836 H 257.564 -3.32011 2.08028 0
M  V30 2837 H 259.261 -3.17834 2.44504 0
M  V30 2838 H 255.851 -2.32753 3.59895 0
M  V30 2839 H 260.035 -2.02403 4.53152 0
M  V30 2840 H 255.291 -1.63709 5.89075 0
M  V30 2841 H 259.465 -1.34303 6.83327 0
M  V30 2842 H 257.092 -1.14406 7.51542 0
M  V30 2843 N 258.668 -1.30515 -0.883378 0
M  V30 2844 C 259.896 -1.22359 -1.66841 0
M  V30 2845 C 260.311 0.213296 -1.87591 0
M  V30 2846 O 259.668 1.14075 -1.42454 0
M  V30 2847 C 259.719 -1.95011 -3.04389 0
M  V30 2848 O 259.44 -3.3309 -2.84575 0
M  V30 2849 C 260.941 -1.93532 -3.98824 0
M  V30 2850 H 258.161 -0.423371 -0.520575 0
M  V30 2851 H 260.705 -1.72167 -1.10357 0
M  V30 2852 H 258.86 -1.48997 -3.57601 0
M  V30 2853 H 259.274 -3.69907 -3.71846 0
M  V30 2854 H 260.748 -2.48902 -4.92699 0
M  V30 2855 H 261.225 -0.914627 -4.29571 0
M  V30 2856 H 261.831 -2.39364 -3.51547 0
M  V30 2857 N 260.146 1.09593 -1.13257 0
M  V30 2858 C 261.394 1.81375 -0.891492 0
M  V30 2859 C 261.715 1.86049 0.584009 0
M  V30 2860 O 260.985 1.34481 1.42449 0
M  V30 2861 H 259.565 0.671708 -0.326828 0
M  V30 2862 H 262.227 1.3256 -1.42877 0
M  V30 2863 H 261.323 2.84612 -1.28071 0
M  V30 2864 N 261.624 0.925811 1.2754 0
M  V30 2865 C 262.587 0.428129 2.25166 0
M  V30 2866 C 263.587 -0.452261 1.54309 0
M  V30 2867 O 264.777 -0.253608 1.72344 0
M  V30 2868 C 261.909 -0.384749 3.38722 0
M  V30 2869 H 263.102 1.29066 2.70706 0
M  V30 2870 H 260.655 0.706323 1.3943 0
M  V30 2871 H 261.39 -1.26618 2.98561 0
M  V30 2872 H 261.175 0.246454 3.91325 0
M  V30 2873 H 262.665 -0.723389 4.11287 0
M  V30 2874 N 263.102 -1.41638 0.69111 0
M  V30 2875 C 264.35 -2.00902 0.219758 0
M  V30 2876 C 264.671 -1.54994 -1.18329 0
M  V30 2877 O 263.941 -0.778628 -1.79762 0
M  V30 2878 H 262.521 -0.74289 0.0782558 0
M  V30 2879 H 265.183 -1.73327 0.891271 0
M  V30 2880 H 264.279 -3.11224 0.233708 0
M  V30 2881 N 264.58 -0.43555 -1.51462 0
M  V30 2882 C 265.805 0.132627 -2.06976 0
M  V30 2883 C 266.23 1.35848 -1.30104 0
M  V30 2884 O 265.588 1.78112 -0.338493 0
M  V30 2885 C 265.636 0.43523 -3.57964 0
M  V30 2886 O 264.74 1.52198 -3.83288 0
M  V30 2887 H 264.081 0.00265 -0.663995 0
M  V30 2888 H 266.611 -0.616369 -1.95095 0
M  V30 2889 H 266.621 0.686206 -4.02188 0
M  V30 2890 H 265.296 -0.460739 -4.1334 0
M  V30 2891 H 263.873 1.2611 -3.50928 0
M  V30 2892 N 266.058 1.56714 -0.166846 0
M  V30 2893 C 267.005 2.17746 0.765193 0
M  V30 2894 C 267.975 1.11614 1.23011 0
M  V30 2895 O 269.16 1.39745 1.29908 0
M  V30 2896 C 266.3 2.81882 1.9909 0
M  V30 2897 C 265.413 4.02462 1.56997 0
M  V30 2898 C 264.548 4.54537 2.749 0
M  V30 2899 C 263.587 5.67538 2.29275 0
M  V30 2900 N 262.724 6.14142 3.40255 0
M  V30 2901 H 267.564 2.97048 0.237952 0
M  V30 2902 H 265.101 1.4672 0.105725 0
M  V30 2903 H 267.059 3.17221 2.70974 0
M  V30 2904 H 265.689 2.05191 2.49192 0
M  V30 2905 H 264.741 3.72973 0.748037 0
M  V30 2906 H 266.053 4.84273 1.19503 0
M  V30 2907 H 265.207 4.92035 3.54946 0
M  V30 2908 H 263.946 3.71774 3.1565 0
M  V30 2909 H 262.951 5.29597 1.47674 0
M  V30 2910 H 264.176 6.52099 1.89588 0
M  V30 2911 H 262.122 5.3431 3.8059 0
M  V30 2912 H 262.039 6.9093 3.06841 0
M  V30 2913 H 263.307 6.56289 4.206 0
M  V30 2914 N 267.536 -0.106894 1.57237 0
M  V30 2915 C 268.446 -1.14911 2.0453 0
M  V30 2916 C 269.462 -1.44592 0.96795 0
M  V30 2917 O 270.638 -1.55468 1.2803 0
M  V30 2918 C 267.703 -2.45272 2.45036 0
M  V30 2919 C 266.764 -2.22879 3.66911 0
M  V30 2920 C 265.997 -3.47024 4.05475 0
M  V30 2921 O 266.22 -4.54804 3.44252 0
M  V30 2922 O 265.154 -3.3731 4.98504 0
M  V30 2923 H 268.98 -0.777461 2.9358 0
M  V30 2924 H 266.565 -0.318563 1.45964 0
M  V30 2925 H 268.447 -3.22055 2.71769 0
M  V30 2926 H 267.122 -2.81886 1.59129 0
M  V30 2927 H 266.029 -1.43915 3.45311 0
M  V30 2928 H 267.362 -1.91163 4.53561 0
M  V30 2929 N 269.014 -1.53014 -0.377408 0
M  V30 2930 C 269.944 -1.81589 -1.46791 0
M  V30 2931 C 270.925 -0.668622 -1.56408 0
M  V30 2932 O 272.11 -0.917337 -1.71168 0
M  V30 2933 C 269.24 -1.99519 -2.8427 0
M  V30 2934 C 268.194 -3.15249 -2.89486 0
M  V30 2935 C 267.52 -3.18451 -4.29527 0
M  V30 2936 C 268.82 -4.54084 -2.58079 0
M  V30 2937 H 270.514 -2.7291 -1.23127 0
M  V30 2938 H 268.06 -1.31319 -0.590883 0
M  V30 2939 H 270.013 -2.18092 -3.60575 0
M  V30 2940 H 268.737 -1.04897 -3.09296 0
M  V30 2941 H 267.396 -2.96477 -2.15631 0
M  V30 2942 H 267.044 -2.2149 -4.5161 0
M  V30 2943 H 266.744 -3.962 -4.33934 0
M  V30 2944 H 268.268 -3.39193 -5.07721 0
M  V30 2945 H 269.682 -4.72899 -3.24098 0
M  V30 2946 H 268.079 -5.33987 -2.7382 0
M  V30 2947 H 269.149 -4.60006 -1.53372 0
M  V30 2948 N 270.492 0.636531 -1.44174 0
M  V30 2949 C 271.439 1.74875 -1.50624 0
M  V30 2950 C 272.409 1.62275 -0.35442 0
M  V30 2951 O 273.594 1.82276 -0.563908 0
M  V30 2952 C 270.734 3.13102 -1.45125 0
M  V30 2953 C 269.847 3.36717 -2.7064 0
M  V30 2954 C 268.982 4.64885 -2.57013 0
M  V30 2955 C 268.021 4.8166 -3.77717 0
M  V30 2956 N 267.158 6.01101 -3.62798 0
M  V30 2957 H 271.998 1.68697 -2.45653 0
M  V30 2958 H 269.535 0.823004 -1.21922 0
M  V30 2959 H 271.493 3.93034 -1.39929 0
M  V30 2960 H 270.123 3.18308 -0.536671 0
M  V30 2961 H 269.175 2.50763 -2.86046 0
M  V30 2962 H 270.487 3.44993 -3.60252 0
M  V30 2963 H 269.641 5.52969 -2.49619 0
M  V30 2964 H 268.38 4.58957 -1.64953 0
M  V30 2965 H 267.385 3.92007 -3.85501 0
M  V30 2966 H 268.61 4.89406 -4.70807 0
M  V30 2967 H 266.556 5.96273 -2.73486 0
M  V30 2968 H 266.473 6.10409 -4.46023 0
M  V30 2969 H 267.741 6.91761 -3.59286 0
M  V30 2970 N 271.97 1.30982 0.876444 0
M  V30 2971 C 273.218 1.20058 1.62575 0
M  V30 2972 C 273.539 -0.242947 1.93481 0
M  V30 2973 O 272.809 -1.1619 1.57724 0
M  V30 2974 H 271.389 0.44135 0.602677 0
M  V30 2975 H 274.051 1.64222 1.04962 0
M  V30 2976 H 273.147 1.76762 2.57219 0
M  V30 2977 N 273.449 -1.08991 1.13837 0
M  V30 2978 C 274.679 -1.84743 0.924859 0
M  V30 2979 C 275.087 -1.81629 -0.529874 0
M  V30 2980 O 274.43 -1.21397 -1.37872 0
M  V30 2981 C 274.492 -3.33568 1.34061 0
M  V30 2982 C 274.156 -3.60425 2.80968 0
M  V30 2983 C 275.153 -3.55771 3.79108 0
M  V30 2984 C 272.838 -3.88627 3.18236 0
M  V30 2985 C 274.832 -3.78939 5.12527 0
M  V30 2986 C 272.519 -4.11449 4.51833 0
M  V30 2987 C 273.517 -4.06598 5.48787 0
M  V30 2988 O 273.205 -4.28826 6.79973 0
M  V30 2989 H 272.937 -0.590258 0.329502 0
M  V30 2990 H 275.491 -1.38598 1.51591 0
M  V30 2991 H 273.721 -3.80442 0.692853 0
M  V30 2992 H 275.41 -3.90743 1.09886 0
M  V30 2993 H 276.176 -3.34005 3.51661 0
M  V30 2994 H 272.055 -3.91526 2.43369 0
M  V30 2995 H 275.599 -3.75068 5.88192 0
M  V30 2996 H 271.496 -4.32698 4.79002 0
M  V30 2997 H 272.264 -4.46264 6.86142 0
M  V30 2998 N 274.927 -0.932562 -1.27047 0
M  V30 2999 C 275.86 -0.379774 -2.25018 0
M  V30 3000 C 276.838 0.526587 -1.53837 0
M  V30 3001 O 278.022 0.465992 -1.82649 0
M  V30 3002 C 275.149 0.455187 -3.35627 0
M  V30 3003 C 274.195 -0.388428 -4.24728 0
M  V30 3004 S 275.028 -1.80701 -5.04091 0
M  V30 3005 C 276.184 -0.979865 -6.18182 0
M  V30 3006 H 276.417 -1.2101 -2.71558 0
M  V30 3007 H 273.95 -0.735078 -1.35779 0
M  V30 3008 H 275.908 0.931052 -3.99802 0
M  V30 3009 H 274.569 1.26009 -2.87716 0
M  V30 3010 H 273.762 0.25089 -5.03375 0
M  V30 3011 H 273.364 -0.798649 -3.65373 0
M  V30 3012 H 275.656 -0.218115 -6.77149 0
M  V30 3013 H 276.599 -1.73951 -6.86401 0
M  V30 3014 H 277.007 -0.51973 -5.62102 0
M  V30 3015 N 276.405 1.4127 -0.698611 0
M  V30 3016 C 277.633 2.05503 -0.239992 0
M  V30 3017 C 278.048 1.52584 1.11191 0
M  V30 3018 O 277.405 0.675323 1.69545 0
M  V30 3019 C 277.456 3.60987 -0.192429 0
M  V30 3020 O 277.177 4.1195 -1.49094 0
M  V30 3021 C 278.678 4.42371 0.28681 0
M  V30 3022 H 275.898 0.661748 -0.111045 0
M  V30 3023 H 278.442 1.80987 -0.95205 0
M  V30 3024 H 276.597 3.84533 0.470472 0
M  V30 3025 H 277.011 5.06018 -1.38007 0
M  V30 3026 H 278.485 5.51344 0.26896 0
M  V30 3027 H 278.962 4.18699 1.32619 0
M  V30 3028 H 279.568 4.23897 -0.345201 0
M  V30 3029 N 277.883 0.443576 1.51229 0
M  V30 3030 C 279.299 0.0962001 1.5931 0
M  V30 3031 C 279.499 -1.39501 1.45402 0
M  V30 3032 O 278.555 -2.16557 1.29843 0
M  V30 3033 C 279.868 0.621875 2.94199 0
M  V30 3034 C 281.416 0.582865 3.07525 0
M  V30 3035 C 281.891 1.08562 4.44948 0
M  V30 3036 N 283.382 1.04387 4.51284 0
M  V30 3037 C 284.117 1.40368 5.55954 0
M  V30 3038 N 283.613 1.83664 6.68011 0
M  V30 3039 N 285.406 1.32145 5.46346 0
M  V30 3040 H 277.557 1.41376 1.58514 0
M  V30 3041 H 279.82 0.582965 0.747567 0
M  V30 3042 H 279.526 1.66546 3.09767 0
M  V30 3043 H 279.4 0.0502125 3.77167 0
M  V30 3044 H 281.787 -0.451749 2.91622 0
M  V30 3045 H 281.868 1.191 2.26382 0
M  V30 3046 H 281.512 2.11873 4.61598 0
M  V30 3047 H 281.442 0.453956 5.2464 0
M  V30 3048 H 283.933 0.725986 3.70861 0
M  V30 3049 H 284.246 2.0934 7.43906 0
M  V30 3050 H 282.591 1.87596 6.69203 0
M  V30 3051 H 285.782 0.981808 4.57688 0
M  V30 3052 H 285.955 1.60514 6.27805 0
M  V30 3053 N 279.361 -1.56624 0.175154 0
M  V30 3054 C 280.607 -1.9729 -0.469506 0
M  V30 3055 C 280.94 -1.06128 -1.62636 0
M  V30 3056 O 280.215 -0.109183 -1.94193 0
M  V30 3057 C 280.498 -3.47375 -0.948804 0
M  V30 3058 C 280.351 -4.49317 0.208491 0
M  V30 3059 C 281.67 -4.00652 -1.82116 0
M  V30 3060 H 278.789 -0.717317 -0.16919 0
M  V30 3061 H 281.431 -1.88184 0.262062 0
M  V30 3062 H 279.581 -3.55267 -1.57219 0
M  V30 3063 H 281.253 -4.53482 0.845682 0
M  V30 3064 H 279.496 -4.25121 0.863395 0
M  V30 3065 H 280.167 -5.51741 -0.169059 0
M  V30 3066 H 282.643 -3.95416 -1.2956 0
M  V30 3067 H 281.519 -5.06075 -2.12554 0
M  V30 3068 H 281.78 -3.44699 -2.7683 0
M  V30 3069 N 280.839 0.0985539 -1.57292 0
M  V30 3070 C 282.086 0.802678 -1.85912 0
M  V30 3071 C 282.414 1.78901 -0.763186 0
M  V30 3072 O 281.669 1.94178 0.243559 0
M  V30 3073 C 281.968 1.56927 -3.21105 0
M  V30 3074 C 281.634 0.725376 -4.45027 0
M  V30 3075 C 280.296 0.492726 -4.78671 0
M  V30 3076 C 282.648 0.138493 -5.21016 0
M  V30 3077 C 279.976 -0.336727 -5.85733 0
M  V30 3078 C 282.328 -0.678264 -6.28953 0
M  V30 3079 C 280.992 -0.921039 -6.61115 0
M  V30 3080 H 280.262 0.293721 -0.680301 0
M  V30 3081 H 282.909 0.0642841 -1.91392 0
M  V30 3082 H 281.214 2.37914 -3.11294 0
M  V30 3083 H 282.911 2.11841 -3.40477 0
M  V30 3084 H 279.501 0.916815 -4.18679 0
M  V30 3085 H 283.685 0.305404 -4.95359 0
M  V30 3086 H 278.941 -0.533836 -6.09065 0
M  V30 3087 H 283.115 -1.1399 -6.87007 0
M  V30 3088 H 280.742 -1.56556 -7.43905 0
M  V30 3089 N 282.317 1.53212 0.369288 0
M  V30 3090 C 283.227 1.82342 1.47609 0
M  V30 3091 C 284.243 0.711532 1.58787 0
M  V30 3092 O 285.419 1.0012 1.74751 0
M  V30 3093 C 282.484 2.00393 2.8292 0
M  V30 3094 C 281.545 3.24297 2.81301 0
M  V30 3095 C 280.778 3.41478 4.10157 0
M  V30 3096 O 281.001 2.63033 5.06132 0
M  V30 3097 O 279.935 4.34817 4.16194 0
M  V30 3098 H 283.761 2.76366 1.25918 0
M  V30 3099 H 281.346 1.38547 0.559034 0
M  V30 3100 H 283.228 2.13859 3.63101 0
M  V30 3101 H 281.903 1.09559 3.04596 0
M  V30 3102 H 280.81 3.16257 1.99831 0
M  V30 3103 H 282.143 4.15041 2.64578 0
M  V30 3104 N 283.795 -0.628877 1.44509 0
M  V30 3105 C 285.211 -0.947305 1.28446 0
M  V30 3106 C 285.411 -2.00275 0.221872 0
M  V30 3107 O 284.467 -2.49447 -0.391471 0
M  V30 3108 C 285.78 -1.40843 2.65676 0
M  V30 3109 C 287.328 -1.52379 2.73404 0
M  V30 3110 C 287.803 -2.01875 4.11109 0
M  V30 3111 N 289.294 -2.09142 4.13296 0
M  V30 3112 C 290.029 -2.48615 5.16699 0
M  V30 3113 N 289.525 -2.87209 6.30462 0
M  V30 3114 N 291.318 -2.48768 5.04054 0
M  V30 3115 H 283.469 0.0690977 2.12288 0
M  V30 3116 H 285.732 -0.0317164 0.947469 0
M  V30 3117 H 285.438 -0.707206 3.44516 0
M  V30 3118 H 285.312 -2.37902 2.92716 0
M  V30 3119 H 287.699 -2.21598 1.9488 0
M  V30 3120 H 287.78 -0.536898 2.50102 0
M  V30 3121 H 287.424 -1.3325 4.90109 0
M  V30 3122 H 287.354 -3.0144 4.31789 0
M  V30 3123 H 289.845 -1.81991 3.31191 0
M  V30 3124 H 290.158 -3.16149 7.05174 0
M  V30 3125 H 288.503 -2.84955 6.33897 0
M  V30 3126 H 291.694 -2.18009 4.14234 0
M  V30 3127 H 291.867 -2.79207 5.84763 0
M  V30 3128 N 285.273 -1.31445 -0.869486 0
M  V30 3129 C 286.55 -1.11795 -1.60503 0
M  V30 3130 C 286.93 0.327168 -2.08549 0
M  V30 3131 O 286.278 1.32135 -1.8642 0
M  V30 3132 C 286.488 -2.13258 -2.76265 0
M  V30 3133 C 287.836 -2.45805 -3.46215 0
M  V30 3134 O 288.86 -2.11688 -2.86473 0
M  V30 3135 O 287.719 -3.04228 -4.5399 0
M  V30 3136 H 284.813 -0.430421 -0.706163 0
M  V30 3137 H 287.359 -1.42925 -0.914907 0
M  V30 3138 H 286.131 -3.10461 -2.3818 0
M  V30 3139 H 285.754 -1.83035 -3.52964 0
M  V30 3140 N 286.751 1.08385 -1.14413 0
M  V30 3141 C 287.714 2.13486 -0.834048 0
M  V30 3142 C 288.714 1.59988 0.161418 0
M  V30 3143 O 289.904 1.74071 -0.0669575 0
M  V30 3144 C 287.036 3.4003 -0.243354 0
M  V30 3145 H 288.229 2.42425 -1.7655 0
M  V30 3146 H 285.782 1.24101 -0.950189 0
M  V30 3147 H 286.517 3.16726 0.696807 0
M  V30 3148 H 286.302 3.80157 -0.960367 0
M  V30 3149 H 287.792 4.17577 -0.0436242 0
M  V30 3150 N 288.23 0.939286 1.26551 0
M  V30 3151 C 289.477 0.585847 1.9384 0
M  V30 3152 C 289.805 -0.874784 1.73718 0
M  V30 3153 O 289.06 -1.64092 1.06642 0
M  V30 3154 C 289.359 0.872106 3.46596 0
M  V30 3155 C 289.025 2.31632 3.86856 0
M  V30 3156 C 287.687 2.71111 3.97558 0
M  V30 3157 C 290.039 3.25494 4.07066 0
M  V30 3158 C 287.367 4.03553 4.25866 0
M  V30 3159 C 289.719 4.57531 4.36862 0
M  V30 3160 C 288.383 4.96828 4.45778 0
M  V30 3161 H 287.653 0.214377 0.709312 0
M  V30 3162 H 290.3 1.18544 1.50398 0
M  V30 3163 H 288.605 0.18996 3.91339 0
M  V30 3164 H 290.302 0.577442 3.96821 0
M  V30 3165 H 286.892 2.00008 3.79071 0
M  V30 3166 H 291.076 2.9619 3.98227 0
M  V30 3167 H 286.332 4.33665 4.30981 0
M  V30 3168 H 290.506 5.30254 4.51446 0
M  V30 3169 H 288.133 5.99482 4.67468 0
M  V30 3170 N 289.708 -1.40897 0.706093 0
M  V30 3171 C 290.638 -2.33418 0.0620085 0
M  V30 3172 C 291.619 -1.52385 -0.755827 0
M  V30 3173 O 292.804 -1.80886 -0.706674 0
M  V30 3174 C 289.934 -3.36293 -0.867445 0
M  V30 3175 C 288.888 -4.27716 -0.155932 0
M  V30 3176 C 288.214 -5.2105 -1.20046 0
M  V30 3177 C 289.514 -5.12944 0.984149 0
M  V30 3178 H 291.208 -2.87527 0.83477 0
M  V30 3179 H 288.754 -1.38249 0.402875 0
M  V30 3180 H 290.707 -3.99949 -1.32735 0
M  V30 3181 H 289.431 -2.80556 -1.67199 0
M  V30 3182 H 288.09 -3.65498 0.284047 0
M  V30 3183 H 287.738 -4.61624 -1.99781 0
M  V30 3184 H 287.438 -5.83056 -0.729328 0
M  V30 3185 H 288.962 -5.87584 -1.66066 0
M  V30 3186 H 290.376 -5.70109 0.604048 0
M  V30 3187 H 288.773 -5.83945 1.38304 0
M  V30 3188 H 289.843 -4.49485 1.81911 0
M  V30 3189 N 291.186 -0.45159 -1.50991 0
M  V30 3190 C 292.149 0.341117 -2.26647 0
M  V30 3191 C 293.149 0.937422 -1.30649 0
M  V30 3192 O 294.339 0.809644 -1.54241 0
M  V30 3193 C 291.471 1.48398 -3.06905 0
M  V30 3194 H 292.664 -0.322117 -2.98165 0
M  V30 3195 H 290.217 -0.205122 -1.54948 0
M  V30 3196 H 290.952 2.18284 -2.39838 0
M  V30 3197 H 290.737 1.06241 -3.77432 0
M  V30 3198 H 292.227 2.04367 -3.64176 0
M  V30 3199 N 292.664 1.56529 -0.183458 0
M  V30 3200 C 293.889 2.02064 0.467428 0
M  V30 3201 C 294.314 1.06282 1.55196 0
M  V30 3202 O 293.672 0.0443565 1.81246 0
M  V30 3203 C 293.72 3.46122 1.01153 0
M  V30 3204 O 292.824 3.53437 2.12499 0
M  V30 3205 H 292.165 0.654726 0.110588 0
M  V30 3206 H 294.695 2.02521 -0.290917 0
M  V30 3207 H 294.705 3.85676 1.33108 0
M  V30 3208 H 293.38 4.15331 0.217533 0
M  V30 3209 H 291.957 3.2575 1.81497 0
M  V30 3210 N 294.142 -0.090211 1.57342 0
M  V30 3211 C 295.072 -1.10976 2.05443 0
M  V30 3212 C 296.053 -1.41482 0.944284 0
M  V30 3213 O 297.238 -1.51428 1.21586 0
M  V30 3214 C 294.368 -2.42831 2.48295 0
M  V30 3215 C 293.322 -2.26721 3.63018 0
M  V30 3216 C 292.648 -3.63796 3.91863 0
M  V30 3217 C 293.948 -1.7037 4.93732 0
M  V30 3218 H 295.642 -0.709564 2.9087 0
M  V30 3219 H 293.188 -0.339874 1.39932 0
M  V30 3220 H 295.141 -3.14431 2.80555 0
M  V30 3221 H 293.865 -2.84795 1.59873 0
M  V30 3222 H 292.524 -1.57565 3.31012 0
M  V30 3223 H 292.172 -4.03297 3.00601 0
M  V30 3224 H 291.872 -3.53861 4.69101 0
M  V30 3225 H 293.396 -4.36855 4.26603 0
M  V30 3226 H 294.81 -2.31816 5.24342 0
M  V30 3227 H 293.207 -1.71181 5.75167 0
M  V30 3228 H 294.277 -0.663542 4.80339 0
M  V30 3229 N 295.62 -1.53406 -0.361157 0
M  V30 3230 C 296.848 -1.73717 -1.12383 0
M  V30 3231 C 297.263 -0.468161 -1.82904 0
M  V30 3232 O 296.62 0.559198 -1.73722 0
M  V30 3233 C 296.671 -2.90558 -2.15078 0
M  V30 3234 O 296.392 -4.12549 -1.47428 0
M  V30 3235 C 297.893 -3.22777 -3.03858 0
M  V30 3236 H 295.113 -0.580896 -0.335858 0
M  V30 3237 H 297.657 -2.00167 -0.418728 0
M  V30 3238 H 295.812 -2.66489 -2.8118 0
M  V30 3239 H 296.226 -4.78009 -2.15887 0
M  V30 3240 H 297.7 -4.07927 -3.71887 0
M  V30 3241 H 298.177 -2.38329 -3.68912 0
M  V30 3242 H 298.783 -3.48787 -2.43367 0
M  V30 3243 N 297.098 0.621204 -1.44841 0
M  V30 3244 C 298.008 1.7612 -1.5498 0
M  V30 3245 C 299.024 1.68477 -0.434927 0
M  V30 3246 O 300.2 1.89076 -0.693693 0
M  V30 3247 C 297.265 3.1254 -1.50065 0
M  V30 3248 C 296.326 3.31741 -2.72482 0
M  V30 3249 C 295.559 4.61653 -2.67792 0
M  V30 3250 O 295.782 5.431 -1.74352 0
M  V30 3251 O 294.716 4.83271 -3.58794 0
M  V30 3252 H 298.542 1.70518 -2.51311 0
M  V30 3253 H 296.127 0.783643 -1.27198 0
M  V30 3254 H 298.009 3.93844 -1.49882 0
M  V30 3255 H 296.684 3.18663 -0.568806 0
M  V30 3256 H 295.591 2.50077 -2.7823 0
M  V30 3257 H 296.924 3.30486 -3.64746 0
M  V30 3258 N 298.576 1.31904 0.862503 0
M  V30 3259 C 299.539 1.20131 1.95195 0
M  V30 3260 C 300.539 0.126409 1.60302 0
M  V30 3261 O 301.729 0.376234 1.70089 0
M  V30 3262 C 298.861 0.845691 3.30244 0
M  V30 3263 H 300.054 2.16943 2.07064 0
M  V30 3264 H 297.607 1.15622 1.05172 0
M  V30 3265 H 298.342 -0.120957 3.24074 0
M  V30 3266 H 298.127 1.62276 3.56944 0
M  V30 3267 H 299.617 0.787418 4.10109 0
M  V30 3268 N 300.054 -1.07777 1.14986 0
M  V30 3269 C 300.964 -2.18404 0.856546 0
M  V30 3270 C 301.98 -1.73211 -0.165485 0
M  V30 3271 O 303.156 -2.01399 0.00755219 0
M  V30 3272 C 300.221 -3.44977 0.34526 0
M  V30 3273 C 299.282 -4.0476 1.43065 0
M  V30 3274 C 298.515 -5.25291 0.943663 0
M  V30 3275 O 298.738 -5.70004 -0.212426 0
M  V30 3276 O 297.672 -5.76638 1.72547 0
M  V30 3277 H 301.498 -2.45978 1.78125 0
M  V30 3278 H 299.083 -1.17033 0.928631 0
M  V30 3279 H 300.965 -4.21348 0.0663671 0
M  V30 3280 H 299.64 -3.18965 -0.551631 0
M  V30 3281 H 298.547 -3.29949 1.76309 0
M  V30 3282 H 299.88 -4.35035 2.30229 0
M  V30 3283 N 301.532 -0.945985 -1.26051 0
M  V30 3284 C 302.948 -0.649045 -1.45807 0
M  V30 3285 C 303.148 0.796158 -1.85104 0
M  V30 3286 O 302.204 1.57233 -1.97571 0
M  V30 3287 C 303.517 -1.61458 -2.53677 0
M  V30 3288 C 305.065 -1.62481 -2.67524 0
M  V30 3289 C 305.54 -2.57776 -3.7857 0
M  V30 3290 N 307.031 -2.5609 -3.85969 0
M  V30 3291 C 307.766 -3.26508 -4.7136 0
M  V30 3292 N 307.262 -4.0637 -5.61102 0
M  V30 3293 N 309.055 -3.15437 -4.65248 0
M  V30 3294 H 301.206 -1.88005 -0.988328 0
M  V30 3295 H 303.469 -0.808198 -0.4955 0
M  V30 3296 H 303.175 -2.64644 -2.31638 0
M  V30 3297 H 303.049 -1.37036 -3.51427 0
M  V30 3298 H 305.436 -0.600167 -2.88933 0
M  V30 3299 H 305.517 -1.90958 -1.70202 0
M  V30 3300 H 305.161 -3.60361 -3.57913 0
M  V30 3301 H 305.091 -2.26587 -4.75359 0
M  V30 3302 H 307.582 -1.98105 -3.21812 0
M  V30 3303 H 307.895 -4.57042 -6.23164 0
M  V30 3304 H 306.24 -4.10469 -5.60839 0
M  V30 3305 H 309.431 -2.52525 -3.94143 0
M  V30 3306 H 309.604 -3.70584 -5.31575 0
M  V30 3307 N 303.011 1.40521 -0.713556 0
M  V30 3308 C 303.921 2.34522 -0.0606667 0
M  V30 3309 C 304.937 1.57193 0.74607 0
M  V30 3310 O 306.113 1.89591 0.679493 0
M  V30 3311 C 303.178 3.36081 0.851491 0
M  V30 3312 C 302.239 4.29286 0.0349339 0
M  V30 3313 C 301.472 5.25994 0.903649 0
M  V30 3314 O 301.695 5.28616 2.14292 0
M  V30 3315 O 300.629 6.00918 0.343723 0
M  V30 3316 H 304.455 2.91968 -0.835972 0
M  V30 3317 H 302.04 1.41681 -0.47402 0
M  V30 3318 H 303.922 3.98369 1.37404 0
M  V30 3319 H 302.597 2.81052 1.60598 0
M  V30 3320 H 301.504 3.70289 -0.532633 0
M  V30 3321 H 302.837 4.87462 -0.681287 0
M  V30 3322 N 304.489 0.459591 1.5075 0
M  V30 3323 C 305.422 -0.386257 2.24907 0
M  V30 3324 C 306.4 -1.006 1.27744 0
M  V30 3325 O 307.584 -1.04416 1.56938 0
M  V30 3326 C 304.711 -1.54021 3.01654 0
M  V30 3327 C 303.757 -1.03898 4.13651 0
M  V30 3328 S 304.59 0.0370501 5.35487 0
M  V30 3329 C 305.746 -1.12105 6.15779 0
M  V30 3330 H 305.979 0.243272 2.96303 0
M  V30 3331 H 303.512 0.244339 1.52454 0
M  V30 3332 H 305.47 -2.20163 3.46466 0
M  V30 3333 H 304.131 -2.14121 2.29806 0
M  V30 3334 H 303.324 -1.90254 4.66711 0
M  V30 3335 H 302.926 -0.45545 3.71216 0
M  V30 3336 H 305.218 -2.03501 6.46215 0
M  V30 3337 H 306.161 -0.62995 7.05292 0
M  V30 3338 H 306.569 -1.36967 5.47631 0
M  V30 3339 N 305.967 -1.56429 0.191757 0
M  V30 3340 C 306.917 -2.15548 -0.743184 0
M  V30 3341 C 307.901 -1.09531 -1.17863 0
M  V30 3342 O 309.093 -1.35602 -1.13759 0
M  V30 3343 C 306.222 -2.81577 -1.96391 0
M  V30 3344 C 305.308 -3.9478 -1.54951 0
M  V30 3345 N 305.699 -4.98677 -0.845876 0
M  V30 3346 C 303.997 -4.06319 -1.83905 0
M  V30 3347 C 304.698 -5.78183 -0.638724 0
M  V30 3348 N 303.674 -5.30495 -1.18643 0
M  V30 3349 H 307.476 -2.9324 -0.196839 0
M  V30 3350 H 304.99 -1.62398 -0.0081603 0
M  V30 3351 H 306.987 -3.22321 -2.64415 0
M  V30 3352 H 305.647 -2.05371 -2.51501 0
M  V30 3353 H 306.658 -5.15464 -0.501704 0
M  V30 3354 H 303.335 -3.41238 -2.40548 0
M  V30 3355 H 304.725 -6.71851 -0.0807929 0
M  V30 3356 N 307.445 0.0818655 -1.57387 0
M  V30 3357 C 308.375 1.09885 -2.06028 0
M  V30 3358 C 309.356 1.4098 -0.951774 0
M  V30 3359 O 310.541 1.50781 -1.22387 0
M  V30 3360 C 307.671 2.4151 -2.4958 0
M  V30 3361 C 306.625 2.24792 -3.64215 0
M  V30 3362 C 305.951 3.61712 -3.93787 0
M  V30 3363 C 307.251 1.67749 -4.94629 0
M  V30 3364 H 308.945 0.694128 -2.91243 0
M  V30 3365 H 306.491 0.332448 -1.4011 0
M  V30 3366 H 308.444 3.12939 -2.82219 0
M  V30 3367 H 307.168 2.83943 -1.61381 0
M  V30 3368 H 305.827 1.55807 -3.31843 0
M  V30 3369 H 305.475 4.01697 -3.02735 0
M  V30 3370 H 305.175 3.51368 -4.70971 0
M  V30 3371 H 306.699 4.34587 -4.28913 0
M  V30 3372 H 308.113 2.29032 -5.25564 0
M  V30 3373 H 306.51 1.68128 -5.76067 0
M  V30 3374 H 307.58 0.638059 -4.80684 0
M  V30 3375 N 308.923 1.53595 0.353017 0
M  V30 3376 C 309.87 1.80919 1.43308 0
M  V30 3377 C 310.84 0.654288 1.5267 0
M  V30 3378 O 312.025 0.897759 1.6836 0
M  V30 3379 C 309.165 2.01605 2.80089 0
M  V30 3380 C 308.278 3.29321 2.79593 0
M  V30 3381 C 307.413 3.40125 4.0803 0
M  V30 3382 C 306.452 4.61826 4.01725 0
M  V30 3383 N 305.589 4.69716 5.21834 0
M  V30 3384 H 310.429 2.73074 1.19308 0
M  V30 3385 H 307.966 1.35263 0.578131 0
M  V30 3386 H 309.924 2.11586 3.59565 0
M  V30 3387 H 308.554 1.12772 3.0246 0
M  V30 3388 H 307.606 3.28229 1.92276 0
M  V30 3389 H 308.918 4.18884 2.70809 0
M  V30 3390 H 308.072 3.49488 4.95927 0
M  V30 3391 H 306.811 2.48601 4.19582 0
M  V30 3392 H 305.816 4.52552 3.12213 0
M  V30 3393 H 307.041 5.54705 3.91764 0
M  V30 3394 H 304.987 3.81097 5.33948 0
M  V30 3395 H 304.904 5.53202 5.1527 0
M  V30 3396 H 306.172 4.83376 6.11529 0
M  V30 3397 N 310.401 -0.613514 1.45168 0
M  V30 3398 C 311.629 -1.39946 1.5239 0
M  V30 3399 C 312.044 -1.88167 0.154531 0
M  V30 3400 O 311.401 -1.61872 -0.842843 0
M  V30 3401 C 311.452 -2.60795 2.50337 0
M  V30 3402 O 311.173 -2.1458 3.81952 0
M  V30 3403 C 312.674 -3.53723 2.67198 0
M  V30 3404 H 309.894 -0.428593 0.516284 0
M  V30 3405 H 312.438 -0.748753 1.903 0
M  V30 3406 H 310.593 -3.21919 2.15515 0
M  V30 3407 H 311.007 -2.93055 4.34993 0
M  V30 3408 H 312.481 -4.35079 3.39721 0
M  V30 3409 H 312.958 -4.0368 1.73029 0
M  V30 3410 H 313.564 -2.98456 3.02992 0
M  V30 3411 N 311.879 -1.3236 -0.855495 0
M  V30 3412 C 313.295 -1.11332 -1.14356 0
M  V30 3413 C 313.495 0.106751 -2.01217 0
M  V30 3414 O 312.551 0.791891 -2.39761 0
M  V30 3415 C 313.864 -2.39237 -1.82171 0
M  V30 3416 C 315.412 -2.44986 -1.9481 0
M  V30 3417 C 315.887 -3.7281 -2.66039 0
M  V30 3418 N 317.378 -3.73787 -2.73565 0
M  V30 3419 C 318.113 -4.69394 -3.29327 0
M  V30 3420 N 317.609 -5.75367 -3.85907 0
M  V30 3421 N 319.402 -4.56893 -3.27423 0
M  V30 3422 H 311.553 -2.10586 -0.277027 0
M  V30 3423 H 313.816 -0.929701 -0.185364 0
M  V30 3424 H 313.522 -3.28431 -1.25802 0
M  V30 3425 H 313.396 -2.50134 -2.82335 0
M  V30 3426 H 315.783 -1.56252 -2.50338 0
M  V30 3427 H 315.864 -2.38043 -0.936448 0
M  V30 3428 H 315.508 -4.61918 -2.11174 0
M  V30 3429 H 315.438 -3.77024 -3.67642 0
M  V30 3430 H 317.929 -2.97189 -2.33424 0
M  V30 3431 H 318.242 -6.44378 -4.26611 0
M  V30 3432 H 316.587 -5.79123 -3.84242 0
M  V30 3433 H 319.778 -3.73269 -2.82467 0
M  V30 3434 H 319.951 -5.31577 -3.7058 0
M  V30 3435 N 313.357 1.07166 -1.15556 0
M  V30 3436 C 314.582 1.84053 -0.955988 0
M  V30 3437 C 315.007 1.81586 0.490739 0
M  V30 3438 O 314.365 1.21018 1.34997 0
M  V30 3439 C 314.413 3.28957 -1.47714 0
M  V30 3440 O 313.517 4.06795 -0.677593 0
M  V30 3441 H 312.858 0.569842 -0.340847 0
M  V30 3442 H 315.388 1.35178 -1.53584 0
M  V30 3443 H 315.398 3.79788 -1.4908 0
M  V30 3444 H 314.073 3.30068 -2.53037 0
M  V30 3445 H 312.65 3.6561 -0.733721 0
M  V30 3446 O 314.874 1.08282 1.19822 0
M  V30 3447 H 315.565 0.773615 1.77581 0
M  V30 END ATOM
M  V30 BEGIN BOND
M  V30 END BOND
M  V30 END CTAB
M  END
$$$$
