drugbank_target|A0A348A0U3 Enoyl-[acyl-carrier-protein] reductase [NADH] (DB08604)
 OpenBabel12092121093D

  0  0  0     0  0            999 V3000
M  V30 BEGIN CTAB
M  V30 COUNTS 3902 3927 0 0 0
M  V30 BEGIN ATOM
M  V30 1 H -0.908 1.98254 -0.117106 0
M  V30 2 N 0 1.576 0 0
M  V30 3 C 0.933 2.03868 1.02534 0
M  V30 4 C 1.911 0.928543 1.3348 0
M  V30 5 O 3.095 1.19667 1.45644 0
M  V30 6 C 0.222 2.43627 2.35294 0
M  V30 7 C -0.732 3.65373 2.2001 0
M  V30 8 S 0.101 5.13292 1.52614 0
M  V30 9 C 1.257 5.56322 2.86805 0
M  V30 10 H 1.49 2.90518 0.631377 0
M  V30 11 H -0.977 1.52953 0.210867 0
M  V30 12 H 0.981 2.67203 3.11629 0
M  V30 13 H -0.358 1.57376 2.7183 0
M  V30 14 H -1.165 3.90944 3.18086 0
M  V30 15 H -1.563 3.418 1.51819 0
M  V30 16 H 0.729 5.58782 3.83104 0
M  V30 17 H 1.672 6.56266 2.65933 0
M  V30 18 H 2.08 4.83886 2.90714 0
M  V30 19 N 1.4781 -0.272755 1.55222 0
M  V30 20 C 2.3881 -1.35918 1.91216 0
M  V30 21 C 3.4041 -1.54026 0.809436 0
M  V30 22 O 4.5801 -1.68148 1.10852 0
M  V30 23 C 1.6451 -2.69834 2.17693 0
M  V30 24 C 0.7061 -2.6047 3.41253 0
M  V30 25 C -0.0609 -3.88 3.66458 0
M  V30 26 O 0.1621 -4.88693 2.94169 0
M  V30 27 O -0.9039 -3.88189 4.59992 0
M  V30 28 H 2.9221 -1.0839 2.83699 0
M  V30 29 H 0.5071 -0.471301 1.41771 0
M  V30 30 H 2.3891 -3.49017 2.36147 0
M  V30 31 H 1.0641 -2.97148 1.28392 0
M  V30 32 H -0.0289 -1.79663 3.28134 0
M  V30 33 H 1.3041 -2.38106 4.30774 0
M  V30 34 N 2.9562 -1.48159 -0.537278 0
M  V30 35 C 3.8862 -1.65029 -1.6519 0
M  V30 36 C 4.8672 -0.499281 -1.62607 0
M  V30 37 O 6.0522 -0.730972 -1.79918 0
M  V30 38 C 3.1822 -1.68303 -3.03795 0
M  V30 39 C 2.1362 -2.8283 -3.21234 0
M  V30 40 C 1.4622 -2.71189 -4.60826 0
M  V30 41 C 2.7622 -4.24211 -3.04701 0
M  V30 42 H 4.4562 -2.58341 -1.51328 0
M  V30 43 H 2.0022 -1.24325 -0.726585 0
M  V30 44 H 3.9552 -1.78693 -3.81637 0
M  V30 45 H 2.6792 -0.715635 -3.18663 0
M  V30 46 H 1.3382 -2.71983 -2.45807 0
M  V30 47 H 0.9862 -1.72435 -4.7252 0
M  V30 48 H 0.6862 -3.48035 -4.7344 0
M  V30 49 H 2.2102 -2.83537 -5.40777 0
M  V30 50 H 3.6242 -4.3593 -3.72341 0
M  V30 51 H 2.0212 -5.01998 -3.28813 0
M  V30 52 H 3.0912 -4.41184 -2.01209 0
M  V30 53 N 4.4343 0.785586 -1.36625 0
M  V30 54 C 5.3643 1.91259 -1.33949 0
M  V30 55 C 6.3453 1.68795 -0.210325 0
M  V30 56 O 7.5303 1.89854 -0.408561 0
M  V30 57 C 4.6603 3.28339 -1.13186 0
M  V30 58 C 3.6143 3.65335 -2.22967 0
M  V30 59 C 2.9403 5.00806 -1.87342 0
M  V30 60 C 4.2403 3.7352 -3.65075 0
M  V30 61 H 5.9343 1.93755 -2.28253 0
M  V30 62 H 3.4803 0.930788 -1.09874 0
M  V30 63 H 5.4333 4.06804 -1.09948 0
M  V30 64 H 4.1573 3.2624 -0.153332 0
M  V30 65 H 2.8163 2.89169 -2.25337 0
M  V30 66 H 2.4643 4.95233 -0.880545 0
M  V30 67 H 2.1643 5.26529 -2.60846 0
M  V30 68 H 3.6883 5.81687 -1.85667 0
M  V30 69 H 5.1023 4.42168 -3.64911 0
M  V30 70 H 3.4993 4.10731 -4.37516 0
M  V30 71 H 4.5693 2.74527 -3.99703 0
M  V30 72 N 5.9124 1.20967 1.01018 0
M  V30 73 C 6.8444 0.922059 2.09835 0
M  V30 74 C 7.8574 -0.0927106 1.62536 0
M  V30 75 O 9.0464 0.139127 1.77957 0
M  V30 76 C 6.1464 0.362004 3.36961 0
M  V30 77 C 5.3194 1.42986 4.13369 0
M  V30 78 C 4.3784 0.879976 5.1879 0
M  V30 79 O 3.4044 1.56219 5.47343 0
M  V30 80 N 4.6064 -0.307396 5.79686 0
M  V30 81 H 7.3714 1.8588 2.35093 0
M  V30 82 H 4.9324 1.11422 1.1746 0
M  V30 83 H 6.9244 -0.0201474 4.04695 0
M  V30 84 H 5.4944 -0.479437 3.08902 0
M  V30 85 H 4.7144 1.98608 3.40512 0
M  V30 86 H 6.0024 2.14885 4.61196 0
M  V30 87 H 5.4004 -0.878796 5.58832 0
M  V30 88 H 3.9574 -0.631115 6.48737 0
M  V30 89 N 7.3905 -1.2043 1.01659 0
M  V30 90 C 8.6385 -1.89423 0.704522 0
M  V30 91 C 8.9595 -1.79231 -0.768197 0
M  V30 92 O 8.2295 -1.1947 -1.55254 0
M  V30 93 H 6.8095 -0.701178 0.257602 0
M  V30 94 H 9.4715 -1.4626 1.28818 0
M  V30 95 H 8.5675 -2.96052 0.987916 0
M  V30 96 N 8.8686 -0.792821 -1.36206 0
M  V30 97 C 9.8156 -0.191653 -2.30003 0
M  V30 98 C 10.7856 0.666453 -1.52143 0
M  V30 99 O 11.9706 0.61442 -1.80636 0
M  V30 100 C 9.1106 0.664848 -3.38635 0
M  V30 101 C 8.2236 -0.212175 -4.31479 0
M  V30 102 C 7.3586 0.651022 -5.27196 0
M  V30 103 C 6.3976 -0.227247 -6.11678 0
M  V30 104 N 5.5346 0.595127 -6.99573 0
M  V30 105 H 10.3746 -0.996978 -2.80828 0
M  V30 106 H 7.9116 -0.503206 -1.38225 0
M  V30 107 H 9.8696 1.17645 -4.00269 0
M  V30 108 H 8.4996 1.43557 -2.89122 0
M  V30 109 H 7.5516 -0.841777 -3.70969 0
M  V30 110 H 8.8636 -0.888751 -4.90818 0
M  V30 111 H 8.0176 1.2283 -5.94136 0
M  V30 112 H 6.7566 1.36121 -4.68319 0
M  V30 113 H 5.7616 -0.816904 -5.43697 0
M  V30 114 H 6.9866 -0.93509 -6.72631 0
M  V30 115 H 4.9326 1.28955 -6.432 0
M  V30 116 H 4.8496 -0.0236952 -7.55996 0
M  V30 117 H 6.1176 1.15613 -7.70879 0
M  V30 118 N 10.3467 1.47872 -0.545128 0
M  V30 119 C 11.5747 2.06889 -0.021084 0
M  V30 120 C 11.9897 1.39955 1.2672 0
M  V30 121 O 11.3467 0.492036 1.75742 0
M  V30 122 C 11.3977 3.60996 0.190817 0
M  V30 123 O 11.1187 4.25419 -1.04644 0
M  V30 124 C 12.6197 4.36849 0.753521 0
M  V30 125 H 9.8397 0.669785 -0.0403635 0
M  V30 126 H 12.3837 1.90049 -0.755095 0
M  V30 127 H 10.5387 3.77391 0.87492 0
M  V30 128 H 10.9527 5.17785 -0.836611 0
M  V30 129 H 12.4267 5.45399 0.851139 0
M  V30 130 H 12.9037 4.02306 1.762 0
M  V30 131 H 13.5097 4.25169 0.105503 0
M  V30 132 N 11.8248 0.280983 1.55075 0
M  V30 133 C 13.0718 -0.334115 1.99725 0
M  V30 134 C 13.3998 -1.5542 1.1694 0
M  V30 135 O 12.6548 -1.94361 0.228531 0
M  V30 136 C 12.9538 -0.754656 3.49342 0
M  V30 137 C 12.6198 0.361445 4.49449 0
M  V30 138 C 11.2818 0.667893 4.76542 0
M  V30 139 C 13.6338 1.11322 5.09173 0
M  V30 140 C 10.9618 1.7296 5.60626 0
M  V30 141 C 13.3138 2.1647 5.9441 0
M  V30 142 C 11.9778 2.47742 6.19822 0
M  V30 143 H 11.2478 -0.122261 0.730844 0
M  V30 144 H 13.8948 0.395917 1.87363 0
M  V30 145 H 12.1998 -1.56446 3.5921 0
M  V30 146 H 13.8968 -1.24142 3.813 0
M  V30 147 H 10.4868 0.112481 4.28452 0
M  V30 148 H 14.6708 0.88973 4.8826 0
M  V30 149 H 9.9268 1.97684 5.78559 0
M  V30 150 H 14.1008 2.75193 6.3972 0
M  V30 151 H 11.7278 3.30145 6.84769 0
M  V30 152 N 13.3029 -1.57598 0.00835791 0
M  V30 153 C 14.5489 -1.91211 -0.675732 0
M  V30 154 C 14.8819 -0.883139 -1.72958 0
M  V30 155 O 14.1569 0.097016 -1.94258 0
M  V30 156 C 14.4399 -3.35379 -1.31123 0
M  V30 157 C 14.2929 -4.48999 -0.268356 0
M  V30 158 C 15.6119 -3.7912 -2.23508 0
M  V30 159 H 12.7309 -0.695374 -0.244179 0
M  V30 160 H 15.3729 -1.89901 0.0613655 0
M  V30 161 H 13.5229 -3.36626 -1.93946 0
M  V30 162 H 15.1949 -4.59887 0.360844 0
M  V30 163 H 13.4379 -4.31873 0.408482 0
M  V30 164 H 14.1089 -5.46851 -0.752218 0
M  V30 165 H 16.5849 -3.79477 -1.70693 0
M  V30 166 H 15.4609 -4.80729 -2.64936 0
M  V30 167 H 15.7219 -3.13455 -3.11766 0
M  V30 168 N 14.781 0.264519 -1.55364 0
M  V30 169 C 16.027 0.99646 -1.76631 0
M  V30 170 C 16.36 1.85632 -0.570478 0
M  V30 171 O 15.635 1.89647 0.43175 0
M  V30 172 C 15.918 1.87187 -3.07625 0
M  V30 173 C 15.771 1.04138 -4.37579 0
M  V30 174 C 17.09 2.85749 -3.34717 0
M  V30 175 H 14.209 0.360841 -0.642622 0
M  V30 176 H 16.851 0.268218 -1.88097 0
M  V30 177 H 15.001 2.49279 -2.9798 0
M  V30 178 H 16.673 0.440517 -4.59192 0
M  V30 179 H 14.916 0.345115 -4.32425 0
M  V30 180 H 15.587 1.68729 -5.2558 0
M  V30 181 H 18.063 2.33793 -3.4421 0
M  V30 182 H 16.939 3.44136 -4.27623 0
M  V30 183 H 17.2 3.61311 -2.54768 0
M  V30 184 N 16.2591 1.48442 0.529413 0
M  V30 185 C 17.1921 1.57577 1.65059 0
M  V30 186 C 18.1701 0.426198 1.56915 0
M  V30 187 O 19.3541 0.637877 1.77379 0
M  V30 188 C 16.4811 1.5043 3.03461 0
M  V30 189 C 15.5271 2.70235 3.29962 0
M  V30 190 S 16.3601 4.32198 3.16172 0
M  V30 191 C 17.5161 4.2765 4.57019 0
M  V30 192 H 17.7491 2.52427 1.5706 0
M  V30 193 H 15.2821 1.36982 0.712417 0
M  V30 194 H 17.2401 1.46992 3.8328 0
M  V30 195 H 15.9011 0.569167 3.089 0
M  V30 196 H 15.0941 2.61374 4.30929 0
M  V30 197 H 14.6961 2.70938 2.57815 0
M  V30 198 H 16.9881 3.97618 5.48549 0
M  V30 199 H 17.9311 5.28797 4.70934 0
M  V30 200 H 18.3391 3.5811 4.36368 0
M  V30 201 N 17.7372 -0.778329 1.37039 0
M  V30 202 C 18.9852 -1.53361 1.31623 0
M  V30 203 C 19.3062 -1.94739 -0.100831 0
M  V30 204 O 18.5762 -1.65797 -1.04347 0
M  V30 205 H 17.1562 -0.568794 0.484234 0
M  V30 206 H 19.8182 -0.926742 1.71457 0
M  V30 207 H 18.9142 -2.43606 1.95096 0
M  V30 208 N 19.2153 -1.21501 -1.00376 0
M  V30 209 C 20.4613 -1.03452 -1.74429 0
M  V30 210 C 20.7943 0.430764 -1.89362 0
M  V30 211 O 20.0693 1.31962 -1.42886 0
M  V30 212 C 20.3523 -1.73375 -3.15615 0
M  V30 213 C 20.2053 -3.27431 -3.08397 0
M  V30 214 C 21.5243 -1.47732 -4.14564 0
M  V30 215 H 18.6433 -0.377226 -0.633143 0
M  V30 216 H 21.2853 -1.49693 -1.17013 0
M  V30 217 H 19.4353 -1.34064 -3.64636 0
M  V30 218 H 21.1073 -3.76119 -2.67081 0
M  V30 219 H 19.3503 -3.5767 -2.45468 0
M  V30 220 H 20.0213 -3.71524 -4.08258 0
M  V30 221 H 22.4973 -1.8186 -3.74254 0
M  V30 222 H 21.3733 -1.99169 -5.11491 0
M  V30 223 H 21.6343 -0.407589 -4.40217 0
M  V30 224 N 20.6934 1.19889 -1.02296 0
M  V30 225 C 21.6564 2.21116 -0.603351 0
M  V30 226 C 22.6564 1.5738 0.329884 0
M  V30 227 O 23.8464 1.73802 0.117702 0
M  V30 228 C 20.9784 3.40696 0.117992 0
M  V30 229 H 22.1714 2.59754 -1.49893 0
M  V30 230 H 19.7244 1.33463 -0.813468 0
M  V30 231 H 20.4594 3.07569 1.0282 0
M  V30 232 H 20.2444 3.88188 -0.552511 0
M  V30 233 H 21.7344 4.15692 0.398696 0
M  V30 234 N 22.1715 0.800033 1.35784 0
M  V30 235 C 23.1195 0.193851 2.31791 0
M  V30 236 C 24.1135 -0.652744 1.56319 0
M  V30 237 O 25.3195 -0.546641 1.71499 0
M  V30 238 H 21.6945 0.04392 0.750716 0
M  V30 239 H 23.6655 1.01883 2.80468 0
M  V30 240 C 22.4145 -0.648338 3.41602 0
M  V30 241 H 21.7375 -0.00624665 3.998 0
M  V30 242 H 23.1775 -1.03898 4.11073 0
M  V30 243 C 21.6365 -1.8111 2.84079 0
M  V30 244 O 22.1665 -2.90825 2.77099 0
M  V30 245 N 20.3725 -1.62056 2.41218 0
M  V30 246 H 19.9195 -0.728123 2.47095 0
M  V30 247 H 19.8775 -2.40013 2.03079 0
M  V30 248 N 23.6496 -1.47581 0.552962 0
M  V30 249 C 24.5816 -2.27997 -0.234533 0
M  V30 250 C 25.5946 -1.36753 -0.883321 0
M  V30 251 O 26.7836 -1.61612 -0.757889 0
M  V30 252 C 23.8836 -3.10879 -1.34935 0
M  V30 253 C 23.0566 -4.30056 -0.798158 0
M  V30 254 C 22.1156 -4.94567 -1.79694 0
M  V30 255 O 21.1416 -5.53087 -1.34474 0
M  V30 256 N 22.3436 -4.88878 -3.13015 0
M  V30 257 H 25.1086 -2.96222 0.455255 0
M  V30 258 H 22.6696 -1.57163 0.388761 0
M  V30 259 H 24.6616 -3.50903 -2.01616 0
M  V30 260 H 23.2316 -2.44924 -1.94244 0
M  V30 261 H 22.4516 -3.94174 0.0453079 0
M  V30 262 H 23.7396 -5.07152 -0.409173 0
M  V30 263 H 23.1376 -4.42526 -3.52402 0
M  V30 264 H 21.6946 -5.32934 -3.75266 0
M  V30 265 N 25.1277 -0.289203 -1.54924 0
M  V30 266 C 26.5437 0.0645403 -1.59469 0
M  V30 267 C 26.7437 1.53419 -1.30632 0
M  V30 268 O 25.7997 2.2852 -1.074 0
M  V30 269 C 27.1127 -0.32278 -2.98963 0
M  V30 270 C 28.6607 -0.270564 -3.11828 0
M  V30 271 C 29.1357 -0.632532 -4.53611 0
M  V30 272 N 30.6267 -0.584617 -4.59496 0
M  V30 273 C 31.3617 -0.837314 -5.67254 0
M  V30 274 N 30.8577 -1.15536 -6.83098 0
M  V30 275 N 32.6507 -0.765166 -5.56868 0
M  V30 276 H 24.8017 -1.24714 -1.71931 0
M  V30 277 H 27.0647 -0.504809 -0.802416 0
M  V30 278 H 26.7707 -1.34541 -3.24948 0
M  V30 279 H 26.6447 0.32944 -3.75759 0
M  V30 280 H 29.0317 0.742805 -2.85598 0
M  V30 281 H 29.1127 -0.957242 -2.37214 0
M  V30 282 H 28.7567 -1.64365 -4.80569 0
M  V30 283 H 28.6867 0.07609 -5.26545 0
M  V30 284 H 31.1777 -0.349248 -3.76283 0
M  V30 285 H 31.4907 -1.33447 -7.61191 0
M  V30 286 H 29.8357 -1.19328 -6.84679 0
M  V30 287 H 33.0267 -0.516432 -4.65243 0
M  V30 288 H 33.1997 -0.965477 -6.40767 0
M  V30 289 N 26.6058 1.57591 -0.0167156 0
M  V30 290 C 27.8308 1.9598 0.67872 0
M  V30 291 C 28.2558 0.892546 1.65575 0
M  V30 292 O 27.6138 -0.147772 1.80697 0
M  V30 293 C 27.6618 3.33468 1.37227 0
M  V30 294 O 26.7658 3.28954 2.48722 0
M  V30 295 H 26.1068 0.639339 0.17928 0
M  V30 296 H 28.6368 2.04463 -0.0748802 0
M  V30 297 H 28.6468 3.69417 1.7319 0
M  V30 298 H 27.3218 4.10694 0.656007 0
M  V30 299 H 25.8988 3.04705 2.14963 0
M  V30 300 N 28.0839 -0.256276 1.55502 0
M  V30 301 C 29.3329 -0.983486 1.76098 0
M  V30 302 C 29.6459 -1.86837 0.578896 0
M  V30 303 O 30.8519 -2.63163 0.667648 0
M  V30 304 C 29.3079 -1.79868 3.1173 0
M  V30 305 C 28.9159 -0.961648 4.37557 0
M  V30 306 C 30.6599 -2.51919 3.41668 0
M  V30 307 C 28.5669 -1.77219 5.64223 0
M  V30 308 H 27.4969 -0.370936 0.656447 0
M  V30 309 H 30.1479 -0.238492 1.81944 0
M  V30 310 H 28.5299 -2.58527 2.99966 0
M  V30 311 H 29.7039 -0.218048 4.60284 0
M  V30 312 H 28.0189 -0.354913 4.14885 0
M  V30 313 H 30.6159 -3.12998 4.33516 0
M  V30 314 H 30.9589 -3.23059 2.62562 0
M  V30 315 H 31.4919 -1.80278 3.54605 0
M  V30 316 H 28.2309 -1.10471 6.46124 0
M  V30 317 H 27.7509 -2.49132 5.45613 0
M  V30 318 H 29.4299 -2.34169 6.03137 0
M  V30 319 N 29.562 -1.4872 -0.521534 0
M  V30 320 C 30.525 -1.63379 -1.60748 0
M  V30 321 C 31.525 -0.50661 -1.52611 0
M  V30 322 O 32.715 -0.772601 -1.5613 0
M  V30 323 C 29.847 -1.61192 -3.00383 0
M  V30 324 H 31.04 -2.60217 -1.49087 0
M  V30 325 H 28.593 -1.37444 -0.744235 0
M  V30 326 H 29.328 -0.65863 -3.17541 0
M  V30 327 H 29.113 -2.43032 -3.07698 0
M  V30 328 H 30.603 -1.7466 -3.7932 0
M  V30 329 N 31.0401 0.771051 -1.3745 0
M  V30 330 C 32.2861 1.53109 -1.339 0
M  V30 331 C 32.6411 1.9225 0.0758401 0
M  V30 332 O 31.9341 1.61264 1.03463 0
M  V30 333 C 32.1281 2.80676 -2.2126 0
M  V30 334 C 31.9571 2.54003 -3.71096 0
M  V30 335 C 30.7271 2.48097 -4.402 0
M  V30 336 C 32.9251 2.21953 -4.63941 0
M  V30 337 N 30.9071 2.13515 -5.75573 0
M  V30 338 C 32.2781 1.97516 -5.87697 0
M  V30 339 C 34.3331 2.08114 -4.5232 0
M  V30 340 C 33.0361 1.60638 -7.01133 0
M  V30 341 C 35.0621 1.72636 -5.65642 0
M  V30 342 C 34.4241 1.4906 -6.88448 0
M  V30 343 H 30.5231 0.56055 -0.54526 0
M  V30 344 H 33.1071 0.899472 -1.72678 0
M  V30 345 H 31.2781 3.41674 -1.84698 0
M  V30 346 H 33.0101 3.46578 -2.08963 0
M  V30 347 H 29.7651 2.63974 -3.93211 0
M  V30 348 H 30.1891 1.98919 -6.47117 0
M  V30 349 H 34.8311 2.25024 -3.57944 0
M  V30 350 H 32.5491 1.42467 -7.95443 0
M  V30 351 H 36.1351 1.62586 -5.58621 0
M  V30 352 H 35.0151 1.22014 -7.7465 0
M  V30 353 N 32.5182 1.22032 0.997298 0
M  V30 354 C 33.7662 1.04016 1.73278 0
M  V30 355 C 34.0872 -0.426255 1.90284 0
M  V30 356 O 33.3572 -1.30694 1.45931 0
M  V30 357 H 31.9372 0.381897 0.642 0
M  V30 358 H 34.5992 1.5347 1.20137 0
M  V30 359 H 33.6952 1.51441 2.72896 0
M  V30 360 N 33.9963 -1.19345 1.0293 0
M  V30 361 C 35.2453 -1.88363 0.721256 0
M  V30 362 C 35.5583 -1.80514 -0.753254 0
M  V30 363 O 36.7643 -2.44788 -1.17436 0
M  V30 364 C 35.2203 -3.37872 1.23978 0
M  V30 365 C 34.8283 -3.54278 2.74211 0
M  V30 366 C 36.5723 -4.12365 1.00775 0
M  V30 367 C 34.4793 -4.97682 3.19479 0
M  V30 368 H 33.4093 -0.705484 0.266098 0
M  V30 369 H 36.0603 -1.34928 1.24365 0
M  V30 370 H 34.4423 -3.90707 0.6453 0
M  V30 371 H 35.6163 -3.11769 3.39318 0
M  V30 372 H 33.9313 -2.93174 2.95699 0
M  V30 373 H 36.5283 -5.18119 1.32123 0
M  V30 374 H 36.8713 -4.16263 -0.0554308 0
M  V30 375 H 37.4043 -3.65668 1.56625 0
M  V30 376 H 34.1433 -4.98945 4.25128 0
M  V30 377 H 33.6633 -5.4095 2.591 0
M  V30 378 H 35.3423 -5.66337 3.12845 0
M  V30 379 N 35.4744 -0.807222 -1.35358 0
M  V30 380 C 36.4374 -0.223665 -2.28106 0
M  V30 381 C 37.4374 0.589354 -1.4961 0
M  V30 382 O 38.6274 0.407745 -1.69361 0
M  V30 383 C 35.7594 0.688149 -3.33882 0
M  V30 384 H 36.9524 -1.04169 -2.81227 0
M  V30 385 H 34.5054 -0.577921 -1.45223 0
M  V30 386 H 35.2404 1.52984 -2.85948 0
M  V30 387 H 35.0254 0.10687 -3.91954 0
M  V30 388 H 36.5154 1.09075 -4.03104 0
M  V30 389 N 36.9525 1.47285 -0.560781 0
M  V30 390 C 38.3685 1.58065 -0.22081 0
M  V30 391 C 38.5685 1.55892 1.27671 0
M  V30 392 O 37.6245 1.46422 2.0571 0
M  V30 393 C 38.9375 2.88418 -0.850625 0
M  V30 394 C 40.4855 3.02009 -0.822184 0
M  V30 395 C 40.9605 4.35066 -1.43113 0
M  V30 396 N 42.4515 4.41711 -1.39448 0
M  V30 397 C 43.1865 5.43237 -1.83525 0
M  V30 398 N 42.6825 6.51555 -2.35474 0
M  V30 399 N 44.4755 5.34304 -1.74574 0
M  V30 400 H 36.6265 1.46941 -1.53369 0
M  V30 401 H 38.8895 0.699558 -0.639783 0
M  V30 402 H 38.5955 2.95755 -1.9032 0
M  V30 403 H 38.4695 3.75612 -0.345773 0
M  V30 404 H 40.8565 2.94266 0.221714 0
M  V30 405 H 40.9375 2.16347 -1.36483 0
M  V30 406 H 40.5815 4.43565 -2.47412 0
M  V30 407 H 40.5115 5.19465 -0.863899 0
M  V30 408 H 43.0025 3.64027 -1.01452 0
M  V30 409 H 43.3155 7.25203 -2.67021 0
M  V30 410 H 41.6605 6.52435 -2.39487 0
M  V30 411 H 44.8515 4.48581 -1.33763 0
M  V30 412 H 45.0245 6.13288 -2.09242 0
M  V30 413 N 38.4306 0.297415 1.54768 0
M  V30 414 C 39.6556 -0.318435 2.04941 0
M  V30 415 C 40.0806 -1.4701 1.17345 0
M  V30 416 O 39.4386 -1.80436 0.176758 0
M  V30 417 C 39.4866 -0.755749 3.52592 0
M  V30 418 O 38.5906 -1.86088 3.68028 0
M  V30 419 H 37.9316 -0.062421 0.661059 0
M  V30 420 H 40.4616 0.438215 1.99852 0
M  V30 421 H 40.4716 -1.04552 3.94376 0
M  V30 422 H 39.1466 0.0867233 4.1581 0
M  V30 423 H 37.7236 -1.57193 3.38149 0
M  V30 424 N 39.9087 -1.5758 0.0250728 0
M  V30 425 C 40.8387 -2.13007 -0.956575 0
M  V30 426 C 41.8197 -1.0452 -1.342 0
M  V30 427 O 43.0047 -1.32332 -1.42133 0
M  V30 428 C 40.1347 -2.65386 -2.24026 0
M  V30 429 C 39.0887 -3.78623 -1.99571 0
M  V30 430 C 38.4147 -4.17414 -3.3417 0
M  V30 431 C 39.7147 -5.04867 -1.33814 0
M  V30 432 H 41.4087 -2.9528 -0.494991 0
M  V30 433 H 38.9547 -1.42042 -0.236651 0
M  V30 434 H 40.9077 -3.02794 -2.93076 0
M  V30 435 H 39.6317 -1.80268 -2.72343 0
M  V30 436 H 38.2907 -3.41646 -1.32941 0
M  V30 437 H 37.9387 -3.29284 -3.80238 0
M  V30 438 H 37.6387 -4.93719 -3.18615 0
M  V30 439 H 39.1627 -4.57402 -4.04495 0
M  V30 440 H 40.5767 -5.39888 -1.92857 0
M  V30 441 H 38.9737 -5.86144 -1.28669 0
M  V30 442 H 40.0437 -4.83904 -0.310561 0
M  V30 443 N 41.3868 0.248026 -1.55636 0
M  V30 444 C 42.3368 1.30994 -1.86614 0
M  V30 445 C 43.3208 1.43543 -0.726918 0
M  V30 446 O 44.5128 1.46804 -0.988818 0
M  V30 447 C 41.6418 2.6656 -2.16335 0
M  V30 448 C 40.7278 2.58019 -3.36581 0
M  V30 449 N 41.1188 2.1911 -4.55878 0
M  V30 450 C 39.4168 2.89035 -3.39669 0
M  V30 451 C 40.1178 2.21174 -5.38012 0
M  V30 452 N 39.0938 2.60632 -4.77045 0
M  V30 453 H 42.8958 0.999583 -2.76379 0
M  V30 454 H 40.4098 0.456652 -1.55848 0
M  V30 455 H 42.4068 3.43194 -2.36692 0
M  V30 456 H 41.0668 2.98463 -1.27867 0
M  V30 457 H 42.0778 1.90672 -4.81523 0
M  V30 458 H 38.7548 3.25485 -2.61469 0
M  V30 459 H 40.1448 1.9344 -6.43452 0
M  V30 460 N 42.8649 1.48995 0.513639 0
M  V30 461 C 43.8129 1.65199 1.63744 0
M  V30 462 C 44.8069 0.51809 1.61283 0
M  V30 463 O 46.0129 0.697335 1.65943 0
M  V30 464 H 42.3879 0.52069 0.542574 0
M  V30 465 H 44.3589 2.59552 1.47226 0
M  V30 466 C 43.1079 1.72409 3.01945 0
M  V30 467 H 42.4309 2.59029 3.04539 0
M  V30 468 H 43.8709 1.87785 3.80148 0
M  V30 469 C 42.3299 0.46618 3.33659 0
M  V30 470 O 42.8599 -0.413744 3.99564 0
M  V30 471 N 41.0659 0.332931 2.88687 0
M  V30 472 H 40.6129 1.04996 2.35231 0
M  V30 473 H 40.5709 -0.507665 3.10274 0
M  V30 474 N 44.343 -0.763751 1.37857 0
M  V30 475 C 45.306 -1.85889 1.34081 0
M  V30 476 C 46.306 -1.58949 0.243277 0
M  V30 477 O 47.496 -1.66882 0.499589 0
M  V30 478 C 44.628 -3.23176 1.08489 0
M  V30 479 H 45.821 -1.90648 2.31502 0
M  V30 480 H 43.374 -0.964367 1.23003 0
M  V30 481 H 44.109 -3.24091 0.116318 0
M  V30 482 H 43.894 -3.44124 1.8794 0
M  V30 483 H 45.384 -4.03254 1.08517 0
M  V30 484 N 45.8211 -1.22559 -0.990812 0
M  V30 485 C 47.0691 -1.04933 -1.72724 0
M  V30 486 C 47.3901 0.416158 -1.90508 0
M  V30 487 O 46.6601 1.29918 -1.46622 0
M  V30 488 H 45.2401 -0.385296 -0.639965 0
M  V30 489 H 47.9021 -1.54105 -1.19322 0
M  V30 490 H 46.9981 -1.52886 -2.72089 0
M  V30 491 N 47.2992 1.18797 -1.03562 0
M  V30 492 C 48.2622 2.20464 -0.626769 0
M  V30 493 C 49.2622 1.57721 0.313173 0
M  V30 494 O 50.4522 1.73917 0.0992615 0
M  V30 495 C 47.5842 3.40802 0.0818498 0
M  V30 496 H 48.7772 2.58149 -1.5264 0
M  V30 497 H 46.3302 1.32593 -0.827578 0
M  V30 498 H 47.0652 3.08642 0.995518 0
M  V30 499 H 46.8502 3.8758 -0.593652 0
M  V30 500 H 48.3402 4.16092 0.354584 0
M  V30 501 N 48.7773 0.814389 1.34928 0
M  V30 502 C 49.7243 0.22822 2.29669 0
M  V30 503 C 50.6943 -0.642164 1.53184 0
M  V30 504 O 51.8793 -0.585605 1.81591 0
M  V30 505 C 49.0193 -0.61089 3.3965 0
M  V30 506 C 48.1323 0.280792 4.31086 0
M  V30 507 C 47.2673 -0.567067 5.28165 0
M  V30 508 C 46.3063 0.324531 6.11239 0
M  V30 509 N 45.4433 -0.483756 7.00431 0
M  V30 510 H 50.2833 1.04153 2.79206 0
M  V30 511 H 47.8203 0.525133 1.37407 0
M  V30 512 H 49.7783 -1.11263 4.0209 0
M  V30 513 H 48.4083 -1.38939 2.91369 0
M  V30 514 H 47.4603 0.900688 3.69583 0
M  V30 515 H 48.7723 0.966723 4.89342 0
M  V30 516 H 47.9263 -1.13363 5.96015 0
M  V30 517 H 46.6653 -1.28654 4.70425 0
M  V30 518 H 45.6703 0.903298 5.42329 0
M  V30 519 H 46.8953 1.04198 6.71059 0
M  V30 520 H 44.8413 -1.18706 6.45171 0
M  V30 521 H 44.7583 0.143965 7.55863 0
M  V30 522 H 46.0263 -1.03334 7.7262 0
M  V30 523 N 50.2554 -1.46986 0.568584 0
M  V30 524 C 51.1854 -2.32946 -0.160753 0
M  V30 525 C 52.1664 -1.44487 -0.897631 0
M  V30 526 O 53.3514 -1.73327 -0.875867 0
M  V30 527 C 50.4814 -3.26494 -1.18403 0
M  V30 528 C 49.4354 -4.24282 -0.562895 0
M  V30 529 C 48.7614 -5.07236 -1.69163 0
M  V30 530 C 50.0614 -5.19989 0.490761 0
M  V30 531 H 51.7554 -2.94175 0.556916 0
M  V30 532 H 49.3014 -1.4146 0.26927 0
M  V30 533 H 51.2544 -3.85477 -1.70251 0
M  V30 534 H 49.9784 -2.63343 -1.93179 0
M  V30 535 H 48.6374 -3.66541 -0.0656164 0
M  V30 536 H 48.2854 -4.4048 -2.42871 0
M  V30 537 H 47.9854 -5.7345 -1.28174 0
M  V30 538 H 49.5094 -5.6908 -2.21314 0
M  V30 539 H 50.9234 -5.73271 0.0579047 0
M  V30 540 H 49.3204 -5.94469 0.820165 0
M  V30 541 H 50.3904 -4.64777 1.3824 0
M  V30 542 N 51.7335 -0.305618 -1.54608 0
M  V30 543 C 52.9825 0.303098 -1.9941 0
M  V30 544 C 53.2955 1.54648 -1.19764 0
M  V30 545 O 54.5015 2.23007 -1.54855 0
M  V30 546 C 52.9575 0.590588 -3.55021 0
M  V30 547 C 52.5655 -0.634719 -4.43481 0
M  V30 548 C 54.3095 1.16025 -4.08336 0
M  V30 549 C 52.2165 -0.320126 -5.90533 0
M  V30 550 H 51.1465 0.117031 -0.744862 0
M  V30 551 H 53.7975 -0.415045 -1.78745 0
M  V30 552 H 52.1795 1.36845 -3.71604 0
M  V30 553 H 53.3535 -1.41079 -4.38672 0
M  V30 554 H 51.6685 -1.12333 -4.00962 0
M  V30 555 H 54.2655 1.40994 -5.15776 0
M  V30 556 H 54.6085 2.10397 -3.5922 0
M  V30 557 H 55.1415 0.443985 -3.95315 0
M  V30 558 H 51.8805 -1.23254 -6.43808 0
M  V30 559 H 51.4005 0.418579 -5.98338 0
M  V30 560 H 53.0795 0.0766241 -6.46955 0
M  V30 561 N 53.2116 1.57565 -0.0334293 0
M  V30 562 C 54.4586 1.91978 0.644272 0
M  V30 563 C 54.7866 0.910231 1.71887 0
M  V30 564 O 54.0416 -0.0801961 1.95536 0
M  V30 565 C 54.3406 3.33112 1.29504 0
M  V30 566 C 54.0066 4.49537 0.350388 0
M  V30 567 C 52.6686 4.81115 0.0903974 0
M  V30 568 C 55.0206 5.20347 -0.298032 0
M  V30 569 C 52.3486 5.8086 -0.825746 0
M  V30 570 C 54.7006 6.2107 -1.20226 0
M  V30 571 C 53.3646 6.51088 -1.4711 0
M  V30 572 H 52.6346 0.702496 0.235756 0
M  V30 573 H 55.2816 1.91259 -0.0961176 0
M  V30 574 H 53.5866 3.30113 2.11028 0
M  V30 575 H 55.2836 3.57011 1.82603 0
M  V30 576 H 51.8736 4.24883 0.563205 0
M  V30 577 H 56.0576 4.96178 -0.110234 0
M  V30 578 H 51.3136 6.02461 -1.04169 0
M  V30 579 H 55.4876 6.75057 -1.71086 0
M  V30 580 H 53.1146 7.28193 -2.18264 0
M  V30 581 N 54.6897 -0.239769 1.55765 0
M  V30 582 C 55.9177 -0.98417 1.81994 0
M  V30 583 C 56.3327 -1.7867 0.610124 0
M  V30 584 O 55.6897 -1.77571 -0.421271 0
M  V30 585 C 55.7407 -1.91635 3.06526 0
M  V30 586 O 55.4617 -1.14629 4.22838 0
M  V30 587 C 56.9627 -2.77616 3.45607 0
M  V30 588 H 54.1827 -0.28928 0.605441 0
M  V30 589 H 56.7267 -0.260499 2.02834 0
M  V30 590 H 54.8817 -2.5942 2.87715 0
M  V30 591 H 55.2957 -1.77745 4.93464 0
M  V30 592 H 56.7697 -3.38759 4.35828 0
M  V30 593 H 57.2467 -3.4909 2.6652 0
M  V30 594 H 57.8527 -2.15271 3.66795 0
M  V30 595 N 56.1678 -1.49265 -0.50573 0
M  V30 596 C 57.3978 -1.61979 -1.28243 0
M  V30 597 C 57.8058 -0.288576 -1.86986 0
M  V30 598 O 57.1488 0.735408 -1.68337 0
M  V30 599 C 57.2108 -2.62632 -2.45489 0
M  V30 600 C 56.8748 -4.071 -2.07651 0
M  V30 601 C 57.8718 -4.94049 -1.61901 0
M  V30 602 C 55.5568 -4.52801 -2.17431 0
M  V30 603 C 57.5508 -6.24736 -1.26428 0
M  V30 604 C 55.2378 -5.83503 -1.8157 0
M  V30 605 C 56.2358 -6.69294 -1.36142 0
M  V30 606 O 55.9238 -7.9756 -1.00764 0
M  V30 607 H 55.6558 -0.54834 -0.395347 0
M  V30 608 H 58.2098 -1.96002 -0.614204 0
M  V30 609 H 56.4398 -2.2378 -3.15372 0
M  V30 610 H 58.1288 -2.64925 -3.07522 0
M  V30 611 H 58.8948 -4.5997 -1.53795 0
M  V30 612 H 54.7738 -3.86196 -2.51742 0
M  V30 613 H 58.3178 -6.91652 -0.908992 0
M  V30 614 H 54.2148 -6.17112 -1.89324 0
M  V30 615 H 54.9828 -8.10529 -1.13952 0
M  V30 616 N 57.6459 0.756429 -1.3826 0
M  V30 617 C 58.6089 1.85176 -1.35065 0
M  V30 618 C 59.6089 1.58818 -0.251703 0
M  V30 619 O 60.7989 1.66615 -0.508433 0
M  V30 620 C 57.9309 3.22596 -1.10201 0
M  V30 621 H 59.1239 1.89417 -2.3251 0
M  V30 622 H 56.6769 0.95783 -1.23512 0
M  V30 623 H 57.4119 3.24025 -0.133504 0
M  V30 624 H 57.1969 3.43122 -1.89762 0
M  V30 625 H 58.6869 4.02673 -1.10654 0
M  V30 626 N 59.124 1.23083 0.984299 0
M  V30 627 C 60.372 1.05848 1.72165 0
M  V30 628 C 60.693 -0.406049 1.90726 0
M  V30 629 O 59.963 -1.29139 1.47309 0
M  V30 630 H 58.543 0.388685 0.637913 0
M  V30 631 H 61.205 1.54736 1.18503 0
M  V30 632 H 60.301 1.54327 2.71274 0
M  V30 633 N 60.6021 -1.18246 1.0419 0
M  V30 634 C 61.5121 -2.25574 0.644476 0
M  V30 635 C 62.5281 -1.70845 -0.329826 0
M  V30 636 O 63.7041 -2.00554 -0.184443 0
M  V30 637 C 60.7691 -3.46697 0.014877 0
M  V30 638 C 59.8301 -4.16554 1.03834 0
M  V30 639 C 59.0631 -5.31894 0.438692 0
M  V30 640 O 59.2861 -5.65385 -0.754752 0
M  V30 641 O 58.2201 -5.90459 1.168 0
M  V30 642 H 62.0461 -2.61836 1.53869 0
M  V30 643 H 59.6311 -1.25352 0.812854 0
M  V30 644 H 61.5131 -4.20062 -0.335538 0
M  V30 645 H 60.1881 -3.12255 -0.853138 0
M  V30 646 H 59.0951 -3.45251 1.44057 0
M  V30 647 H 60.4281 -4.54998 1.87716 0
M  V30 648 N 62.0802 -0.821533 -1.34494 0
M  V30 649 C 63.4962 -0.507117 -1.51329 0
M  V30 650 C 63.6962 0.968964 -1.76673 0
M  V30 651 O 62.7522 1.75348 -1.81685 0
M  V30 652 C 64.0652 -1.36544 -2.67911 0
M  V30 653 C 65.6132 -1.36242 -2.81793 0
M  V30 654 C 66.0882 -2.2052 -4.01416 0
M  V30 655 N 67.5792 -2.18136 -4.08621 0
M  V30 656 C 68.3142 -2.80095 -5.00334 0
M  V30 657 N 67.8102 -3.51039 -5.9728 0
M  V30 658 N 69.6032 -2.69656 -4.93196 0
M  V30 659 H 61.7542 -1.77729 -1.16302 0
M  V30 660 H 64.0172 -0.757291 -0.570276 0
M  V30 661 H 63.7232 -2.41361 -2.55808 0
M  V30 662 H 63.5972 -1.02917 -3.62888 0
M  V30 663 H 65.9842 -0.322041 -2.93338 0
M  V30 664 H 66.0652 -1.73866 -1.87628 0
M  V30 665 H 65.7092 -3.24607 -3.90631 0
M  V30 666 H 65.6392 -1.80247 -4.94791 0
M  V30 667 H 68.1302 -1.6653 -3.39229 0
M  V30 668 H 68.4432 -3.95565 -6.63889 0
M  V30 669 H 66.7882 -3.55145 -5.97409 0
M  V30 670 H 69.9792 -2.13808 -4.16418 0
M  V30 671 H 70.1522 -3.1823 -5.64476 0
M  V30 672 N 63.5583 1.46682 -0.576371 0
M  V30 673 C 64.4883 2.33028 0.148397 0
M  V30 674 C 65.4693 1.44961 0.889956 0
M  V30 675 O 66.6543 1.73789 0.866662 0
M  V30 676 C 63.7843 3.27117 1.1667 0
M  V30 677 C 62.7383 4.24575 0.540386 0
M  V30 678 C 62.0643 5.08126 1.6647 0
M  V30 679 C 63.3643 5.19722 -0.518331 0
M  V30 680 H 65.0583 2.93875 -0.572509 0
M  V30 681 H 62.6043 1.41315 -0.276768 0
M  V30 682 H 64.5573 3.86374 1.68204 0
M  V30 683 H 63.2813 2.64364 1.9178 0
M  V30 684 H 61.9403 3.66571 0.0461769 0
M  V30 685 H 61.5883 4.41762 2.40531 0
M  V30 686 H 61.2883 5.74122 1.25131 0
M  V30 687 H 62.8123 5.70246 2.18293 0
M  V30 688 H 64.2263 5.73232 -0.0883058 0
M  V30 689 H 62.6233 5.94026 -0.851679 0
M  V30 690 H 63.6933 4.64037 -1.40703 0
M  V30 691 N 65.0364 0.313813 1.54444 0
M  V30 692 C 65.9464 -0.565714 2.27677 0
M  V30 693 C 66.9624 -1.13754 1.31666 0
M  V30 694 O 68.1384 -1.15959 1.64668 0
M  V30 695 C 65.2034 -1.71528 3.01296 0
M  V30 696 C 64.2644 -1.17624 4.12872 0
M  V30 697 C 63.4974 -2.27102 4.8297 0
M  V30 698 O 63.7204 -3.47256 4.52514 0
M  V30 699 O 62.6544 -1.9307 5.70094 0
M  V30 700 H 66.4804 0.0287296 3.03686 0
M  V30 701 H 64.0654 0.0798312 1.49187 0
M  V30 702 H 65.9474 -2.38476 3.4743 0
M  V30 703 H 64.6224 -2.29608 2.2817 0
M  V30 704 H 63.5294 -0.472124 3.71109 0
M  V30 705 H 64.8624 -0.640695 4.88012 0
M  V30 706 N 66.5145 -1.57545 0.0417849 0
M  V30 707 C 67.9305 -1.56467 -0.314704 0
M  V30 708 C 68.1305 -1.04859 -1.72066 0
M  V30 709 O 67.1865 -0.700983 -2.42575 0
M  V30 710 C 68.4995 -3.00317 -0.15174 0
M  V30 711 C 70.0475 -3.12201 -0.223553 0
M  V30 712 C 70.5225 -4.57913 -0.0892295 0
M  V30 713 N 72.0135 -4.6297 -0.145808 0
M  V30 714 C 72.7485 -5.73362 -0.0658459 0
M  V30 715 N 72.2445 -6.92769 0.0659282 0
M  V30 716 N 74.0375 -5.6197 -0.12075 0
M  V30 717 H 66.1885 -1.89416 0.961014 0
M  V30 718 H 68.4515 -0.871862 0.372237 0
M  V30 719 H 68.1575 -3.42073 0.817254 0
M  V30 720 H 68.0315 -3.65892 -0.916692 0
M  V30 721 H 70.4185 -2.70349 -1.18301 0
M  V30 722 H 70.4995 -2.49323 0.571994 0
M  V30 723 H 70.1435 -5.00448 0.866867 0
M  V30 724 H 70.0735 -5.18786 -0.903802 0
M  V30 725 H 72.5645 -3.7709 -0.247286 0
M  V30 726 H 72.8775 -7.72707 0.119905 0
M  V30 727 H 71.2225 -6.94927 0.100885 0
M  V30 728 H 74.4135 -4.67572 -0.222187 0
M  V30 729 H 74.5865 -6.47977 -0.0549735 0
M  V30 730 N 67.9926 0.231505 -1.5589 0
M  V30 731 C 68.9406 1.30649 -1.92441 0
M  V30 732 C 69.9346 1.49037 -0.805254 0
M  V30 733 O 71.1406 1.50329 -0.990007 0
M  V30 734 H 67.5156 0.437812 -0.611412 0
M  V30 735 H 69.4866 0.970973 -2.82161 0
M  V30 736 C 68.2356 2.65179 -2.24889 0
M  V30 737 H 67.5586 2.51835 -3.10514 0
M  V30 738 H 68.9986 3.39234 -2.54355 0
M  V30 739 C 67.4576 3.19439 -1.07054 0
M  V30 740 O 67.9876 4.00371 -0.326499 0
M  V30 741 N 66.1936 2.77675 -0.85703 0
M  V30 742 H 65.7406 2.11969 -1.46379 0
M  V30 743 H 65.6986 3.14321 -0.0703223 0
M  V30 744 N 69.4707 1.49531 0.497807 0
M  V30 745 C 70.7167 1.59415 1.25358 0
M  V30 746 C 71.0497 0.281422 1.9215 0
M  V30 747 O 70.3247 -0.715249 1.80871 0
M  V30 748 C 70.6077 2.75566 2.3181 0
M  V30 749 C 70.4607 4.16642 1.69498 0
M  V30 750 C 71.7797 2.87347 3.33346 0
M  V30 751 H 68.8987 0.580244 0.454408 0
M  V30 752 H 71.5407 1.81827 0.551262 0
M  V30 753 H 69.6907 2.56587 2.91711 0
M  V30 754 H 71.3627 4.47145 1.13399 0
M  V30 755 H 69.6057 4.22141 0.998978 0
M  V30 756 H 70.2767 4.93792 2.46725 0
M  V30 757 H 72.7527 3.04634 2.83438 0
M  V30 758 H 71.6287 3.70289 4.05188 0
M  V30 759 H 71.8897 1.96834 3.95865 0
M  V30 760 N 70.9488 -0.749086 1.3866 0
M  V30 761 C 72.3648 -1.05276 1.19955 0
M  V30 762 C 72.5648 -2.01435 0.05134 0
M  V30 763 O 71.6208 -2.45232 -0.60147 0
M  V30 764 C 72.9338 -1.62853 2.52783 0
M  V30 765 C 74.4818 -1.75002 2.59506 0
M  V30 766 C 74.9568 -2.35991 3.92521 0
M  V30 767 N 76.4478 -2.43416 3.94085 0
M  V30 768 C 77.1828 -2.91511 4.9377 0
M  V30 769 N 76.6788 -3.39608 6.03853 0
M  V30 770 N 78.4718 -2.90592 4.81157 0
M  V30 771 H 70.6228 -0.111066 2.12109 0
M  V30 772 H 72.8858 -0.111901 0.941373 0
M  V30 773 H 72.5918 -0.99664 3.37283 0
M  V30 774 H 72.4658 -2.61854 2.715 0
M  V30 775 H 74.8528 -2.37317 1.75398 0
M  V30 776 H 74.9338 -0.74693 2.44652 0
M  V30 777 H 74.5778 -1.74308 4.77053 0
M  V30 778 H 74.5078 -3.3695 4.04688 0
M  V30 779 H 76.9988 -2.09405 3.14576 0
M  V30 780 H 77.3118 -3.74775 6.75843 0
M  V30 781 H 75.6568 -3.37653 6.07466 0
M  V30 782 H 78.8478 -2.52332 3.94267 0
M  V30 783 H 79.0208 -3.27762 5.58996 0
M  V30 784 N 72.4269 -1.23603 -0.977757 0
M  V30 785 C 73.3369 -1.03632 -2.1047 0
M  V30 786 C 74.3529 0.0199435 -1.73989 0
M  V30 787 O 75.5289 -0.176076 -2.00629 0
M  V30 788 C 72.5939 -0.63276 -3.40877 0
M  V30 789 C 71.6549 -1.76437 -3.91367 0
M  V30 790 C 70.8879 -1.37997 -5.15551 0
M  V30 791 O 71.1109 -0.265357 -5.69782 0
M  V30 792 O 70.0449 -2.20201 -5.60174 0
M  V30 793 H 73.8709 -1.98086 -2.30208 0
M  V30 794 H 71.4559 -1.02332 -1.08851 0
M  V30 795 H 73.3379 -0.418761 -4.19314 0
M  V30 796 H 72.0129 0.282754 -3.22463 0
M  V30 797 H 70.9199 -2.03304 -3.14036 0
M  V30 798 H 72.2529 -2.6583 -4.14241 0
M  V30 799 N 73.905 1.17692 -1.04816 0
M  V30 800 C 74.835 2.23777 -0.666791 0
M  V30 801 C 75.816 1.66796 0.33361 0
M  V30 802 O 77.001 1.93039 0.212042 0
M  V30 803 C 74.131 3.47281 -0.0367933 0
M  V30 804 C 73.085 4.17059 -0.961546 0
M  V30 805 C 72.411 5.34342 -0.195626 0
M  V30 806 C 73.711 4.69713 -2.28402 0
M  V30 807 H 75.405 2.55933 -1.55367 0
M  V30 808 H 72.951 1.23019 -0.748484 0
M  V30 809 H 74.904 4.20706 0.241775 0
M  V30 810 H 73.628 3.14381 0.885004 0
M  V30 811 H 72.287 3.45541 -1.22462 0
M  V30 812 H 71.935 4.97692 0.728816 0
M  V30 813 H 71.635 5.81966 -0.811775 0
M  V30 814 H 73.159 6.10553 0.0757473 0
M  V30 815 H 74.573 5.34794 -2.06563 0
M  V30 816 H 72.97 5.279 -2.8538 0
M  V30 817 H 74.04 3.86726 -2.92525 0
M  V30 818 N 75.3831 0.828654 1.34056 0
M  V30 819 C 76.3461 0.259927 2.27721 0
M  V30 820 C 77.3461 -0.565478 1.50529 0
M  V30 821 O 78.5361 -0.38075 1.69988 0
M  V30 822 C 75.6681 -0.634944 3.34935 0
M  V30 823 H 76.8611 1.0863 2.79534 0
M  V30 824 H 74.4141 0.600951 1.44285 0
M  V30 825 H 75.1491 -1.48416 2.88346 0
M  V30 826 H 74.9341 -0.0444999 3.92075 0
M  V30 827 H 76.4241 -1.02648 4.04788 0
M  V30 828 N 76.8612 -1.46375 0.584142 0
M  V30 829 C 78.1382 -1.956 0.0033388 0
M  V30 830 C 78.5182 -1.52679 -1.45782 0
M  V30 831 O 77.8662 -0.77816 -2.14842 0
M  V30 832 C 78.0762 -3.48551 0.176891 0
M  V30 833 C 79.4242 -4.24576 0.0454609 0
M  V30 834 O 80.4482 -3.56043 0.105801 0
M  V30 835 O 79.3072 -5.46427 -0.0890376 0
M  V30 836 H 76.4012 -0.825547 -0.0490066 0
M  V30 837 H 78.9472 -1.56652 0.65256 0
M  V30 838 H 77.7192 -3.72683 1.1926 0
M  V30 839 H 77.3422 -3.94332 -0.508695 0
M  V30 840 N 78.3393 -0.321999 -1.54275 0
M  V30 841 C 79.5673 0.283052 -2.04955 0
M  V30 842 C 79.9823 1.45904 -1.19823 0
M  V30 843 O 79.3393 1.81063 -0.228545 0
M  V30 844 C 79.3903 0.719028 -3.54277 0
M  V30 845 O 79.1113 -0.410175 -4.36176 0
M  V30 846 C 80.6123 1.38705 -4.21041 0
M  V30 847 H 77.8323 0.0584616 -0.668448 0
M  V30 848 H 80.3763 -0.467734 -1.99079 0
M  V30 849 H 78.5313 1.41979 -3.60445 0
M  V30 850 H 78.9453 -0.0669416 -5.24457 0
M  V30 851 H 80.4193 1.64306 -5.2698 0
M  V30 852 H 80.8963 2.33385 -3.72059 0
M  V30 853 H 81.5023 0.728906 -4.19007 0
M  V30 854 N 79.8174 1.5752 -0.0501392 0
M  V30 855 C 80.7474 2.14502 0.922566 0
M  V30 856 C 81.7284 1.06642 1.3252 0
M  V30 857 O 82.9134 1.34577 1.4001 0
M  V30 858 C 80.0434 2.68916 2.19776 0
M  V30 859 C 78.9974 3.8175 1.93523 0
M  V30 860 C 78.3234 4.22677 3.27487 0
M  V30 861 C 79.6234 5.06932 1.25765 0
M  V30 862 H 81.3174 2.9603 0.447952 0
M  V30 863 H 78.8634 1.42401 0.214024 0
M  V30 864 H 80.8164 3.07419 2.88222 0
M  V30 865 H 79.5404 1.84578 2.69441 0
M  V30 866 H 78.1994 3.43718 1.27489 0
M  V30 867 H 77.8474 3.35291 3.74952 0
M  V30 868 H 77.5474 4.98725 3.1072 0
M  V30 869 H 79.0714 4.63779 3.97166 0
M  V30 870 H 80.4854 5.42888 1.84244 0
M  V30 871 H 78.8824 5.88116 1.19328 0
M  V30 872 H 79.9524 4.84337 0.233536 0
M  V30 873 N 81.2955 -0.223234 1.56011 0
M  V30 874 C 82.2055 -1.29766 1.95443 0
M  V30 875 C 83.2215 -1.51373 0.858028 0
M  V30 876 O 84.3975 -1.64536 1.16146 0
M  V30 877 C 81.4625 -2.62772 2.26167 0
M  V30 878 C 80.5235 -2.49482 3.49367 0
M  V30 879 C 79.7565 -3.76145 3.78616 0
M  V30 880 O 79.9795 -4.79087 3.09568 0
M  V30 881 O 78.9135 -3.73358 4.72109 0
M  V30 882 H 82.7395 -0.99309 2.87004 0
M  V30 883 H 80.3245 -0.425958 1.43199 0
M  V30 884 H 82.2065 -3.41327 2.47131 0
M  V30 885 H 80.8815 -2.92913 1.37781 0
M  V30 886 H 79.7885 -1.69133 3.33684 0
M  V30 887 H 81.1215 -2.2428 4.38131 0
M  V30 888 N 82.7736 -1.49793 -0.48987 0
M  V30 889 C 84.0216 -1.59525 -1.24081 0
M  V30 890 C 84.3426 -0.288953 -1.92847 0
M  V30 891 O 83.6126 0.692436 -1.83254 0
M  V30 892 H 82.1926 -0.587796 -0.460983 0
M  V30 893 H 84.8546 -1.86477 -0.566778 0
M  V30 894 H 83.9506 -2.39696 -1.99881 0
M  V30 895 N 84.2517 0.741722 -1.39055 0
M  V30 896 C 85.1837 1.8657 -1.33133 0
M  V30 897 C 86.1967 1.61001 -0.241329 0
M  V30 898 O 87.3857 1.7136 -0.499784 0
M  V30 899 C 84.4857 3.22457 -1.04283 0
M  V30 900 C 83.6587 3.75435 -2.24427 0
M  V30 901 C 82.7177 4.89867 -1.92138 0
M  V30 902 O 81.7437 5.03879 -2.64754 0
M  V30 903 N 82.9457 5.73738 -0.88347 0
M  V30 904 H 85.7107 1.92156 -2.29991 0
M  V30 905 H 83.2717 0.922172 -1.3307 0
M  V30 906 H 85.2637 3.9657 -0.807128 0
M  V30 907 H 83.8337 3.12181 -0.161807 0
M  V30 908 H 83.0537 2.92751 -2.6399 0
M  V30 909 H 84.3417 4.07563 -3.04581 0
M  V30 910 H 83.7397 5.64999 -0.281517 0
M  V30 911 H 82.2967 6.47947 -0.707662 0
M  V30 912 N 85.7298 1.2412 0.971189 0
M  V30 913 C 86.6398 1.04747 2.09917 0
M  V30 914 C 87.6558 -0.0107162 1.73997 0
M  V30 915 O 88.8318 0.186714 2.00533 0
M  V30 916 C 85.8968 0.650828 3.40537 0
M  V30 917 C 84.9578 1.7851 3.90426 0
M  V30 918 C 84.1908 1.40729 5.14812 0
M  V30 919 O 84.4138 0.29557 5.69634 0
M  V30 920 O 83.3478 2.23168 5.58999 0
M  V30 921 H 87.1738 1.99304 2.29154 0
M  V30 922 H 84.7588 1.02908 1.08307 0
M  V30 923 H 86.6408 0.440992 4.19086 0
M  V30 924 H 85.3158 -0.265649 3.22608 0
M  V30 925 H 84.2228 2.04966 3.12953 0
M  V30 926 H 85.5558 2.68023 4.12825 0
M  V30 927 N 87.2079 -1.17134 1.05439 0
M  V30 928 C 88.4329 -1.91913 0.786396 0
M  V30 929 C 88.8579 -1.7643 -0.652234 0
M  V30 930 O 88.2159 -1.08372 -1.45345 0
M  V30 931 C 88.2639 -3.40921 1.17497 0
M  V30 932 O 87.3679 -4.11244 0.308589 0
M  V30 933 H 86.7089 -0.598215 0.288158 0
M  V30 934 H 89.2389 -1.48457 1.4079 0
M  V30 935 H 89.2489 -3.91668 1.14281 0
M  V30 936 H 87.9239 -3.5151 2.22292 0
M  V30 937 H 86.5009 -3.70731 0.40157 0
M  V30 938 N 88.686 -0.835752 -1.33615 0
M  V30 939 C 89.616 -0.281739 -2.31794 0
M  V30 940 C 90.597 0.608833 -1.58831 0
M  V30 941 O 91.782 0.533035 -1.86741 0
M  V30 942 C 88.912 0.546612 -3.42971 0
M  V30 943 C 87.866 -0.247904 -4.27281 0
M  V30 944 C 87.192 0.704001 -5.30045 0
M  V30 945 C 88.492 -1.46324 -5.01385 0
M  V30 946 H 90.186 -1.10206 -2.78379 0
M  V30 947 H 87.732 -0.531388 -1.33837 0
M  V30 948 H 89.685 0.944467 -4.1068 0
M  V30 949 H 88.409 1.40011 -2.95067 0
M  V30 950 H 87.068 -0.627281 -3.61194 0
M  V30 951 H 86.716 1.55381 -4.78399 0
M  V30 952 H 86.416 0.176524 -5.87335 0
M  V30 953 H 87.94 1.09944 -6.0062 0
M  V30 954 H 89.354 -1.13871 -5.61877 0
M  V30 955 H 87.751 -1.92728 -5.6831 0
M  V30 956 H 88.821 -2.23467 -4.30338 0
M  V30 957 N 90.1641 1.46063 -0.591896 0
M  V30 958 C 91.4101 2.02638 -0.0811191 0
M  V30 959 C 91.7431 1.4613 1.27905 0
M  V30 960 O 91.0181 0.629908 1.84017 0
M  V30 961 C 91.3011 3.60091 -0.0252436 0
M  V30 962 C 91.1541 4.26965 -1.41496 0
M  V30 963 C 92.4731 4.3496 0.670685 0
M  V30 964 H 89.5921 0.73635 -0.0309524 0
M  V30 965 H 92.2341 1.741 -0.760859 0
M  V30 966 H 90.3841 3.84535 0.553624 0
M  V30 967 H 92.0561 4.13756 -2.0397 0
M  V30 968 H 90.2991 3.85971 -1.98011 0
M  V30 969 H 90.9701 5.35781 -1.32825 0
M  V30 970 H 93.4461 4.15716 0.178825 0
M  V30 971 H 92.3221 5.44686 0.678837 0
M  V30 972 H 92.5831 4.06685 1.73379 0
M  V30 973 N 91.6422 0.330177 1.54103 0
M  V30 974 C 92.5722 -0.525353 2.27513 0
M  V30 975 C 93.5532 -1.11383 1.2856 0
M  V30 976 O 94.7382 -1.13773 1.57383 0
M  V30 977 C 91.8682 -1.6831 3.03791 0
M  V30 978 C 90.8222 -1.2236 4.10137 0
M  V30 979 C 90.1482 -2.46882 4.74293 0
M  V30 980 C 91.4482 -0.333697 5.21233 0
M  V30 981 H 93.1422 0.087013 2.99274 0
M  V30 982 H 90.6882 0.0432893 1.43935 0
M  V30 983 H 92.6412 -2.28795 3.5388 0
M  V30 984 H 91.3652 -2.32216 2.29659 0
M  V30 985 H 90.0242 -0.64165 3.60941 0
M  V30 986 H 89.6722 -3.09165 3.96769 0
M  V30 987 H 89.3722 -2.16825 5.46133 0
M  V30 988 H 90.8962 -3.08117 5.27159 0
M  V30 989 H 92.3102 -0.845013 5.67038 0
M  V30 990 H 90.7072 -0.125612 5.99969 0
M  V30 991 H 91.7772 0.633724 4.80741 0
M  V30 992 N 93.1203 -1.57491 0.0584922 0
M  V30 993 C 94.5313 -1.80526 -0.476138 0
M  V30 994 C 94.8823 -0.971334 -1.70469 0
M  V30 995 O 94.0073 -0.190012 -2.15564 0
M  V30 996 C 94.6023 -3.27424 -0.870587 0
M  V30 997 C 93.1613 -3.51351 -1.35015 0
M  V30 998 C 92.3083 -2.75343 -0.32887 0
M  V30 999 H 95.2593 -1.56133 0.284312 0
M  V30 1000 H 95.2803 -3.38745 -1.73299 0
M  V30 1001 H 94.7923 -3.88093 0.0237627 0
M  V30 1002 H 92.8933 -2.95971 -2.26345 0
M  V30 1003 H 93.0063 -4.60059 -1.33726 0
M  V30 1004 H 91.3703 -2.417 -0.803321 0
M  V30 1005 H 92.1533 -3.38743 0.557521 0
M  V30 1006 N 94.5984 0.214957 -1.56127 0
M  V30 1007 C 95.8384 0.945364 -1.81224 0
M  V30 1008 C 96.2024 1.81265 -0.633005 0
M  V30 1009 O 97.4034 2.57731 -0.763423 0
M  V30 1010 C 95.6744 1.75665 -3.1125 0
M  V30 1011 S 97.2334 2.54179 -3.57685 0
M  V30 1012 H 94.0514 0.317443 -0.6362 0
M  V30 1013 H 96.6534 0.210381 -1.94365 0
M  V30 1014 H 95.3574 1.10977 -3.9511 0
M  V30 1015 H 94.8884 2.53381 -3.00934 0
M  V30 1016 H 96.9034 3.7792 -3.21545 0
M  V30 1017 N 96.0765 1.50051 0.48192 0
M  V30 1018 C 97.3535 1.51009 1.2432 0
M  V30 1019 C 97.7335 0.248587 2.09631 0
M  V30 1020 O 97.0815 -0.768409 2.15192 0
M  V30 1021 C 97.2915 2.79981 2.08355 0
M  V30 1022 C 98.6395 3.3022 2.66908 0
M  V30 1023 O 99.6635 2.81228 2.18607 0
M  V30 1024 O 98.5225 4.15595 3.54884 0
M  V30 1025 H 95.6165 0.605239 0.563573 0
M  V30 1026 H 98.1625 1.62332 0.494627 0
M  V30 1027 H 96.9345 3.63275 1.45419 0
M  V30 1028 H 96.5575 2.7161 2.90368 0
M  V30 1029 N 97.5546 -0.734337 1.39446 0
M  V30 1030 C 98.8006 -1.49613 1.36908 0
M  V30 1031 C 99.1336 -1.94169 -0.0347829 0
M  V30 1032 O 98.4086 -1.66833 -0.999847 0
M  V30 1033 C 98.6916 -2.73534 2.34203 0
M  V30 1034 C 98.5446 -2.34993 3.83534 0
M  V30 1035 C 99.8636 -3.75635 2.29317 0
M  V30 1036 H 96.9826 -0.542714 0.498629 0
M  V30 1037 H 99.6246 -0.839597 1.70443 0
M  V30 1038 H 97.7746 -3.29553 2.05736 0
M  V30 1039 H 99.4466 -1.84601 4.22753 0
M  V30 1040 H 97.6896 -1.67213 4.00278 0
M  V30 1041 H 98.3606 -3.23738 4.47099 0
M  V30 1042 H 100.837 -3.29203 2.54489 0
M  V30 1043 H 99.7126 -4.60008 2.99472 0
M  V30 1044 H 99.9736 -4.22603 1.29842 0
M  V30 1045 N 99.0327 -1.24633 -0.964593 0
M  V30 1046 C 100.261 -1.11501 -1.74285 0
M  V30 1047 C 100.676 0.332165 -1.85855 0
M  V30 1048 O 100.033 1.22903 -1.34911 0
M  V30 1049 C 100.084 -1.75258 -3.16175 0
M  V30 1050 O 99.8047 -3.14318 -3.05182 0
M  V30 1051 C 101.306 -1.67776 -4.10324 0
M  V30 1052 H 98.5257 -0.389407 -0.546446 0
M  V30 1053 H 101.07 -1.64801 -1.21083 0
M  V30 1054 H 99.2247 -1.25954 -3.66353 0
M  V30 1055 H 99.6387 -3.4551 -3.94618 0
M  V30 1056 H 101.113 -2.17064 -5.0753 0
M  V30 1057 H 101.59 -0.639584 -4.34518 0
M  V30 1058 H 102.196 -2.16522 -3.66058 0
M  V30 1059 N 100.511 1.16574 -1.06058 0
M  V30 1060 C 101.459 2.22941 -0.663343 0
M  V30 1061 C 102.453 1.66358 0.319593 0
M  V30 1062 O 103.659 1.7905 0.184713 0
M  V30 1063 H 100.034 0.725907 -0.196376 0
M  V30 1064 H 102.005 2.53736 -1.57037 0
M  V30 1065 C 100.754 3.47642 -0.0632808 0
M  V30 1066 H 100.077 3.91493 -0.810733 0
M  V30 1067 H 101.517 4.2363 0.177177 0
M  V30 1068 C 99.9758 3.1509 1.19248 0
M  V30 1069 O 100.506 3.30673 2.28075 0
M  V30 1070 N 98.7118 2.6924 1.09353 0
M  V30 1071 H 98.2588 2.5676 0.207912 0
M  V30 1072 H 98.2168 2.47833 1.93458 0
M  V30 1073 N 101.989 0.842826 1.3317 0
M  V30 1074 C 103.266 0.362216 1.92217 0
M  V30 1075 C 103.646 -1.15289 1.76838 0
M  V30 1076 O 102.994 -1.96914 1.15919 0
M  V30 1077 C 103.204 0.813495 3.39387 0
M  V30 1078 C 104.552 0.823804 4.16532 0
M  V30 1079 O 105.576 0.757358 3.48055 0
M  V30 1080 O 104.435 0.915193 5.38782 0
M  V30 1081 H 101.529 0.103317 0.820521 0
M  V30 1082 H 104.075 0.928942 1.42017 0
M  V30 1083 H 102.847 1.85624 3.4447 0
M  V30 1084 H 102.47 0.223561 3.96971 0
M  V30 1085 N 103.467 -1.45747 0.599634 0
M  V30 1086 C 104.377 -2.34262 -0.125888 0
M  V30 1087 C 105.393 -1.50768 -0.868625 0
M  V30 1088 O 106.569 -1.83592 -0.828003 0
M  V30 1089 C 103.634 -3.28252 -1.11587 0
M  V30 1090 C 102.695 -4.27651 -0.375956 0
M  V30 1091 C 101.928 -5.1715 -1.31877 0
M  V30 1092 O 102.151 -5.09916 -2.55621 0
M  V30 1093 O 101.085 -5.96286 -0.820157 0
M  V30 1094 H 104.911 -2.97688 0.601315 0
M  V30 1095 H 102.496 -1.44999 0.359934 0
M  V30 1096 H 104.378 -3.86191 -1.68626 0
M  V30 1097 H 103.053 -2.67401 -1.82424 0
M  V30 1098 H 101.96 -3.7335 0.236698 0
M  V30 1099 H 103.293 -4.91334 0.29177 0
M  V30 1100 N 104.945 -0.338344 -1.53925 0
M  V30 1101 C 105.855 0.529421 -2.28548 0
M  V30 1102 C 106.871 1.11645 -1.3346 0
M  V30 1103 O 108.047 1.13325 -1.66492 0
M  V30 1104 C 105.112 1.66713 -3.03987 0
M  V30 1105 C 104.173 1.11041 -4.14691 0
M  V30 1106 C 103.406 2.19389 -4.86522 0
M  V30 1107 O 103.629 3.40013 -4.57982 0
M  V30 1108 O 102.563 1.83976 -5.73094 0
M  V30 1109 H 106.389 -0.0770399 -3.03602 0
M  V30 1110 H 103.974 -0.103555 -1.49041 0
M  V30 1111 H 105.856 2.32918 -3.5118 0
M  V30 1112 H 104.531 2.25949 -2.31794 0
M  V30 1113 H 103.438 0.413024 -3.71813 0
M  V30 1114 H 104.771 0.562975 -4.8897 0
M  V30 1115 N 106.423 1.57458 -0.0668435 0
M  V30 1116 C 107.353 2.15468 0.899764 0
M  V30 1117 C 108.334 1.08042 1.31381 0
M  V30 1118 O 109.519 1.36054 1.38574 0
M  V30 1119 C 106.649 2.71232 2.16911 0
M  V30 1120 C 105.603 3.83781 1.89463 0
M  V30 1121 C 104.929 4.26127 3.22986 0
M  V30 1122 C 106.229 5.08238 1.20381 0
M  V30 1123 H 107.923 2.96488 0.416529 0
M  V30 1124 H 105.469 1.4262 0.198908 0
M  V30 1125 H 107.422 3.10458 2.84945 0
M  V30 1126 H 106.146 1.87426 2.67468 0
M  V30 1127 H 104.805 3.45051 1.23836 0
M  V30 1128 H 104.453 3.39249 3.71374 0
M  V30 1129 H 104.153 5.01993 3.05413 0
M  V30 1130 H 105.677 4.67966 3.92225 0
M  V30 1131 H 107.091 5.44811 1.78475 0
M  V30 1132 H 105.488 5.89349 1.13083 0
M  V30 1133 H 106.558 4.84558 0.182153 0
M  V30 1134 N 107.901 -0.206675 1.56239 0
M  V30 1135 C 109.129 -0.945345 1.8404 0
M  V30 1136 C 109.544 -1.77336 0.647885 0
M  V30 1137 O 108.901 -1.78425 -0.383511 0
M  V30 1138 C 108.952 -1.8509 3.10522 0
M  V30 1139 O 108.673 -1.05634 4.25174 0
M  V30 1140 C 110.174 -2.70222 3.51418 0
M  V30 1141 H 107.394 -0.276372 0.61144 0
M  V30 1142 H 109.938 -0.217417 2.03341 0
M  V30 1143 H 108.093 -2.53259 2.93153 0
M  V30 1144 H 108.507 -1.67238 4.97124 0
M  V30 1145 H 109.981 -3.29438 4.42916 0
M  V30 1146 H 110.458 -3.43358 2.73864 0
M  V30 1147 H 111.064 -2.07443 3.71278 0
M  V30 1148 N 109.379 -1.50304 -0.473955 0
M  V30 1149 C 110.342 -1.6841 -1.55469 0
M  V30 1150 C 111.342 -0.554905 -1.50922 0
M  V30 1151 O 112.532 -0.821882 -1.53593 0
M  V30 1152 C 109.664 -1.70667 -2.95102 0
M  V30 1153 H 110.857 -2.64828 -1.40733 0
M  V30 1154 H 108.41 -1.39742 -0.700132 0
M  V30 1155 H 109.145 -0.75932 -3.15285 0
M  V30 1156 H 108.93 -2.52698 -2.9981 0
M  V30 1157 H 110.42 -1.8664 -3.73571 0
M  V30 1158 N 110.857 0.726932 -1.39834 0
M  V30 1159 C 112.097 1.4992 -1.38936 0
M  V30 1160 C 112.461 1.91996 0.0126883 0
M  V30 1161 O 113.662 2.68399 0.146715 0
M  V30 1162 C 111.933 2.70013 -2.34153 0
M  V30 1163 S 113.492 3.59563 -2.51515 0
M  V30 1164 H 110.31 0.51271 -0.492595 0
M  V30 1165 H 112.912 0.85107 -1.76003 0
M  V30 1166 H 111.616 2.37254 -3.34871 0
M  V30 1167 H 111.147 3.39748 -1.98331 0
M  V30 1168 H 113.162 4.63973 -1.75909 0
M  V30 1169 N 112.336 1.25143 0.95797 0
M  V30 1170 C 113.583 1.09692 1.70217 0
M  V30 1171 C 113.911 -0.362654 1.91089 0
M  V30 1172 O 113.166 -1.28386 1.47701 0
M  V30 1173 C 113.465 1.79272 3.09187 0
M  V30 1174 C 113.131 3.29196 3.08125 0
M  V30 1175 C 111.793 3.70096 3.07543 0
M  V30 1176 C 114.145 4.24995 3.0171 0
M  V30 1177 C 111.473 5.05213 2.9829 0
M  V30 1178 C 113.825 5.60132 2.93999 0
M  V30 1179 C 112.489 6.00365 2.9175 0
M  V30 1180 H 111.759 0.401393 0.622868 0
M  V30 1181 H 114.406 1.55372 1.11945 0
M  V30 1182 H 112.711 1.26014 3.70982 0
M  V30 1183 H 114.408 1.64773 3.65583 0
M  V30 1184 H 110.998 2.96651 3.09348 0
M  V30 1185 H 115.182 3.9439 3.01281 0
M  V30 1186 H 110.438 5.35569 2.94916 0
M  V30 1187 H 114.612 6.3406 2.87996 0
M  V30 1188 H 112.239 7.05023 2.84336 0
M  V30 1189 N 113.814 -1.1601 1.06675 0
M  V30 1190 C 114.724 -2.24156 0.692179 0
M  V30 1191 C 115.74 -1.71507 -0.293513 0
M  V30 1192 O 116.916 -2.009 -0.141861 0
M  V30 1193 C 113.981 -3.46587 0.0884131 0
M  V30 1194 C 113.042 -4.14257 1.12646 0
M  V30 1195 C 112.275 -5.30844 0.551416 0
M  V30 1196 O 112.498 -5.66858 -0.634656 0
M  V30 1197 O 111.432 -5.87848 1.29298 0
M  V30 1198 H 115.258 -2.58513 1.59388 0
M  V30 1199 H 112.843 -1.23599 0.83926 0
M  V30 1200 H 114.725 -4.20679 -0.246361 0
M  V30 1201 H 113.4 -3.13994 -0.786712 0
M  V30 1202 H 112.307 -3.42118 1.51348 0
M  V30 1203 H 113.64 -4.50914 1.97325 0
M  V30 1204 N 115.292 -0.849877 -1.32721 0
M  V30 1205 C 116.52 -0.464754 -2.01613 0
M  V30 1206 C 116.935 0.937191 -1.63897 0
M  V30 1207 O 116.292 1.61081 -0.857856 0
M  V30 1208 C 116.343 -0.588638 -3.56675 0
M  V30 1209 O 116.064 -1.93535 -3.93034 0
M  V30 1210 C 117.565 -0.2019 -4.4284 0
M  V30 1211 H 114.785 -0.183215 -0.645502 0
M  V30 1212 H 117.329 -1.1455 -1.69407 0
M  V30 1213 H 115.484 0.0443159 -3.87375 0
M  V30 1214 H 115.898 -1.92871 -4.87751 0
M  V30 1215 H 117.372 -0.339599 -5.50954 0
M  V30 1216 H 117.849 0.857224 -4.30753 0
M  V30 1217 H 118.455 -0.809733 -4.17521 0
M  V30 1218 N 116.77 1.45427 -0.607355 0
M  V30 1219 C 118.019 2.01452 -0.100036 0
M  V30 1220 C 118.332 1.48159 1.27704 0
M  V30 1221 O 119.538 1.96159 1.87707 0
M  V30 1222 C 117.994 3.59672 -0.128158 0
M  V30 1223 C 117.602 4.21962 -1.50507 0
M  V30 1224 C 119.346 4.23262 0.323932 0
M  V30 1225 C 117.253 5.72333 -1.48959 0
M  V30 1226 H 116.183 0.75325 -0.0336299 0
M  V30 1227 H 118.834 1.66901 -0.76265 0
M  V30 1228 H 117.216 3.91411 0.601105 0
M  V30 1229 H 118.39 4.01796 -2.25602 0
M  V30 1230 H 116.705 3.70565 -1.89923 0
M  V30 1231 H 119.302 5.33522 0.354691 0
M  V30 1232 H 119.645 3.93921 1.34656 0
M  V30 1233 H 120.178 3.96239 -0.352056 0
M  V30 1234 H 116.917 6.06373 -2.48981 0
M  V30 1235 H 116.437 5.94691 -0.781214 0
M  V30 1236 H 118.116 6.35525 -1.21313 0
M  V30 1237 N 118.248 0.346503 1.53744 0
M  V30 1238 C 119.195 -0.508914 2.25119 0
M  V30 1239 C 120.165 -1.09315 1.25058 0
M  V30 1240 O 121.35 -1.12921 1.53797 0
M  V30 1241 C 118.49 -1.65246 3.02965 0
M  V30 1242 C 117.603 -1.09525 4.17886 0
M  V30 1243 C 116.738 -2.20634 4.83212 0
M  V30 1244 C 115.777 -1.62279 5.90196 0
M  V30 1245 N 114.914 -2.67143 6.49291 0
M  V30 1246 H 119.754 0.106283 2.9781 0
M  V30 1247 H 117.291 0.0642227 1.4696 0
M  V30 1248 H 119.249 -2.32574 3.4636 0
M  V30 1249 H 117.879 -2.2386 2.32565 0
M  V30 1250 H 116.931 -0.312818 3.79112 0
M  V30 1251 H 118.243 -0.628444 4.94825 0
M  V30 1252 H 117.397 -2.95821 5.29693 0
M  V30 1253 H 116.136 -2.70659 4.05703 0
M  V30 1254 H 115.141 -0.855989 5.43096 0
M  V30 1255 H 116.366 -1.13102 6.69615 0
M  V30 1256 H 114.312 -3.16417 5.74645 0
M  V30 1257 H 114.229 -2.25093 7.21713 0
M  V30 1258 H 115.497 -3.4209 7.00425 0
M  V30 1259 N 119.726 -1.57421 0.075193 0
M  V30 1260 C 120.658 -2.09904 -0.920483 0
M  V30 1261 C 121.671 -1.03191 -1.25918 0
M  V30 1262 O 122.86 -1.30695 -1.21577 0
M  V30 1263 C 119.96 -2.54726 -2.23534 0
M  V30 1264 C 119.133 -3.8505 -2.07498 0
M  V30 1265 C 118.192 -4.15929 -3.22319 0
M  V30 1266 O 117.218 -4.85474 -2.9716 0
M  V30 1267 N 118.42 -3.69745 -4.47514 0
M  V30 1268 H 121.185 -2.95954 -0.472359 0
M  V30 1269 H 118.746 -1.61523 -0.110444 0
M  V30 1270 H 120.738 -2.72443 -2.9926 0
M  V30 1271 H 119.308 -1.73795 -2.59835 0
M  V30 1272 H 118.528 -3.76679 -1.16219 0
M  V30 1273 H 119.816 -4.70348 -1.94038 0
M  V30 1274 H 119.214 -3.13569 -4.7084 0
M  V30 1275 H 117.771 -3.92655 -5.20255 0
M  V30 1276 N 121.204 0.198386 -1.56346 0
M  V30 1277 C 122.114 1.2664 -1.97483 0
M  V30 1278 C 123.13 1.49989 -0.882002 0
M  V30 1279 O 124.306 1.62668 -1.18748 0
M  V30 1280 C 121.371 2.59141 -2.30319 0
M  V30 1281 C 120.432 2.43892 -3.53292 0
M  V30 1282 C 119.665 3.70074 -3.84553 0
M  V30 1283 O 119.888 4.74101 -3.1715 0
M  V30 1284 O 118.822 3.658 -4.7799 0
M  V30 1285 H 122.648 0.947304 -2.88548 0
M  V30 1286 H 120.233 0.403123 -1.43859 0
M  V30 1287 H 122.115 3.37352 -2.5253 0
M  V30 1288 H 120.79 2.90684 -1.42423 0
M  V30 1289 H 119.697 1.63803 -3.36332 0
M  V30 1290 H 121.03 2.17282 -4.41644 0
M  V30 1291 N 122.682 1.50554 0.465978 0
M  V30 1292 C 123.928 1.62038 1.21949 0
M  V30 1293 C 124.261 0.322116 1.9151 0
M  V30 1294 O 123.536 -0.676723 1.82348 0
M  V30 1295 C 123.819 2.80421 2.25912 0
M  V30 1296 C 123.672 4.20144 1.60622 0
M  V30 1297 C 124.991 2.94354 3.27176 0
M  V30 1298 H 122.11 0.589752 0.441998 0
M  V30 1299 H 124.752 1.82956 0.51257 0
M  V30 1300 H 122.902 2.62717 2.86203 0
M  V30 1301 H 124.574 4.49449 1.03889 0
M  V30 1302 H 122.817 4.24165 0.909211 0
M  V30 1303 H 123.488 4.98914 2.36196 0
M  V30 1304 H 125.964 3.10578 2.76913 0
M  V30 1305 H 124.84 3.788 3.97242 0
M  V30 1306 H 125.101 2.05186 3.916 0
M  V30 1307 N 124.16 -0.719506 1.40217 0
M  V30 1308 C 125.408 -1.47641 1.3801 0
M  V30 1309 C 125.729 -1.94992 -0.018145 0
M  V30 1310 O 124.999 -1.70073 -0.972207 0
M  V30 1311 H 123.579 -0.547744 0.507923 0
M  V30 1312 H 126.241 -0.853187 1.75233 0
M  V30 1313 H 125.337 -2.35112 2.05253 0
M  V30 1314 N 125.638 -1.25649 -0.95132 0
M  V30 1315 C 126.866 -1.13343 -1.73092 0
M  V30 1316 C 127.281 0.312434 -1.86197 0
M  V30 1317 O 126.638 1.21465 -1.36207 0
M  V30 1318 C 126.689 -1.78602 -3.14299 0
M  V30 1319 O 126.41 -3.17537 -3.01831 0
M  V30 1320 C 127.911 -1.72119 -4.08522 0
M  V30 1321 H 125.131 -0.395181 -0.542285 0
M  V30 1322 H 127.675 -1.66076 -1.19328 0
M  V30 1323 H 125.83 -1.29832 -3.64996 0
M  V30 1324 H 126.244 -3.49676 -3.90931 0
M  V30 1325 H 127.718 -2.22435 -5.052 0
M  V30 1326 H 128.195 -0.685635 -4.33815 0
M  V30 1327 H 128.801 -2.20393 -3.63741 0
M  V30 1328 N 127.117 1.15442 -1.07289 0
M  V30 1329 C 128.366 1.85557 -0.790669 0
M  V30 1330 C 128.679 1.83186 0.685739 0
M  V30 1331 O 129.885 2.48977 1.0827 0
M  V30 1332 C 128.341 3.33038 -1.36433 0
M  V30 1333 C 127.949 3.43856 -2.8717 0
M  V30 1334 C 129.693 4.0834 -1.1601 0
M  V30 1335 C 127.6 4.85482 -3.3773 0
M  V30 1336 H 126.53 0.695122 -0.292098 0
M  V30 1337 H 129.181 1.30219 -1.29287 0
M  V30 1338 H 127.563 3.88043 -0.789864 0
M  V30 1339 H 128.737 2.98961 -3.50655 0
M  V30 1340 H 127.052 2.81998 -3.06376 0
M  V30 1341 H 129.649 5.12859 -1.51262 0
M  V30 1342 H 129.992 4.16182 -0.0991007 0
M  V30 1343 H 130.525 3.59603 -1.70089 0
M  V30 1344 H 127.264 4.82823 -4.43353 0
M  V30 1345 H 126.784 5.30961 -2.78999 0
M  V30 1346 H 128.463 5.54335 -3.33648 0
M  V30 1347 N 128.595 0.856903 1.32268 0
M  V30 1348 C 129.545 0.274899 2.26337 0
M  V30 1349 C 130.529 -0.580543 1.50062 0
M  V30 1350 O 131.721 -0.429559 1.71708 0
M  V30 1351 C 128.85 -0.533841 3.39124 0
M  V30 1352 C 127.936 0.334114 4.22782 0
M  V30 1353 N 128.327 1.42143 4.85416 0
M  V30 1354 C 126.625 0.124256 4.45827 0
M  V30 1355 C 127.326 1.95559 5.47843 0
M  V30 1356 N 126.302 1.25444 5.28928 0
M  V30 1357 H 130.104 1.10612 2.72291 0
M  V30 1358 H 127.618 0.703258 1.46383 0
M  V30 1359 H 129.615 -0.96722 4.05525 0
M  V30 1360 H 128.275 -1.36283 2.94715 0
M  V30 1361 H 129.286 1.80436 4.85451 0
M  V30 1362 H 125.963 -0.669837 4.12092 0
M  V30 1363 H 127.353 2.86714 6.07655 0
M  V30 1364 N 130.073 -1.45103 0.615059 0
M  V30 1365 C 131.321 -2.01784 0.112955 0
M  V30 1366 C 131.642 -1.48504 -1.26378 0
M  V30 1367 O 130.912 -0.682245 -1.83636 0
M  V30 1368 H 129.492 -0.745993 0.0387668 0
M  V30 1369 H 132.154 -1.77808 0.798141 0
M  V30 1370 H 131.25 -3.12025 0.0684069 0
M  V30 1371 N 131.551 -0.354651 -1.53558 0
M  V30 1372 C 132.797 0.238797 -2.01389 0
M  V30 1373 C 133.13 1.49309 -1.2418 0
M  V30 1374 O 132.405 1.91638 -0.332457 0
M  V30 1375 C 132.688 0.541771 -3.56001 0
M  V30 1376 C 132.541 -0.725388 -4.43912 0
M  V30 1377 C 133.86 1.34685 -4.18984 0
M  V30 1378 H 130.979 0.0853177 -0.732045 0
M  V30 1379 H 133.621 -0.477384 -1.83905 0
M  V30 1380 H 131.771 1.15189 -3.71031 0
M  V30 1381 H 133.443 -1.36313 -4.407 0
M  V30 1382 H 131.686 -1.34801 -4.12324 0
M  V30 1383 H 132.357 -0.468505 -5.50008 0
M  V30 1384 H 134.833 0.830837 -4.07721 0
M  V30 1385 H 133.709 1.52759 -5.27215 0
M  V30 1386 H 133.97 2.35221 -3.74331 0
M  V30 1387 N 133.029 1.57378 -0.0835403 0
M  V30 1388 C 133.992 2.12252 0.864959 0
M  V30 1389 C 134.992 1.04916 1.21858 0
M  V30 1390 O 136.182 1.30853 1.14991 0
M  V30 1391 C 133.314 2.63358 2.16461 0
M  V30 1392 H 134.507 2.97371 0.388676 0
M  V30 1393 H 132.06 1.55423 0.165317 0
M  V30 1394 H 132.795 1.81727 2.686 0
M  V30 1395 H 132.58 3.41826 1.92087 0
M  V30 1396 H 134.07 3.05847 2.84337 0
M  V30 1397 N 134.507 -0.190092 1.56449 0
M  V30 1398 C 135.457 -1.23977 1.91347 0
M  V30 1399 C 136.441 -1.40747 0.779693 0
M  V30 1400 O 137.633 -1.43033 1.04262 0
M  V30 1401 C 134.762 -2.58347 2.26079 0
M  V30 1402 C 133.848 -2.4535 3.45925 0
M  V30 1403 N 134.239 -2.02039 4.63696 0
M  V30 1404 C 132.537 -2.76229 3.50162 0
M  V30 1405 C 133.238 -2.01053 5.4585 0
M  V30 1406 N 132.214 -2.42747 4.8639 0
M  V30 1407 H 136.016 -0.896318 2.79899 0
M  V30 1408 H 133.53 -0.398496 1.57435 0
M  V30 1409 H 135.527 -3.34173 2.49267 0
M  V30 1410 H 134.187 -2.93512 1.38856 0
M  V30 1411 H 135.198 -1.7267 4.88268 0
M  V30 1412 H 131.875 -3.15556 2.73369 0
M  V30 1413 H 133.265 -1.69426 6.50188 0
M  V30 1414 N 135.985 -1.50799 -0.457987 0
M  V30 1415 C 137.225 -1.64088 -1.21879 0
M  V30 1416 C 137.589 -0.339848 -1.88968 0
M  V30 1417 O 138.79 -0.348301 -2.66534 0
M  V30 1418 C 137.061 -2.79726 -2.2246 0
M  V30 1419 S 138.62 -3.13225 -3.07303 0
M  V30 1420 H 135.438 -0.578314 -0.41361 0
M  V30 1421 H 138.04 -1.88632 -0.513645 0
M  V30 1422 H 136.744 -3.72722 -1.71775 0
M  V30 1423 H 136.275 -2.57308 -2.97584 0
M  V30 1424 H 138.29 -2.58062 -4.23814 0
M  V30 1425 N 137.463 0.71206 -1.40597 0
M  V30 1426 C 138.712 1.46754 -1.38369 0
M  V30 1427 C 139.025 1.95598 0.0097839 0
M  V30 1428 O 140.231 2.71059 0.154677 0
M  V30 1429 C 138.687 2.65289 -2.43207 0
M  V30 1430 C 138.295 2.23301 -3.88382 0
M  V30 1431 C 140.039 3.43008 -2.50091 0
M  V30 1432 C 137.946 3.38696 -4.84808 0
M  V30 1433 H 136.876 0.55118 -0.514506 0
M  V30 1434 H 139.527 0.774616 -1.66349 0
M  V30 1435 H 137.909 3.36769 -2.08332 0
M  V30 1436 H 139.083 1.59218 -4.32419 0
M  V30 1437 H 137.398 1.58618 -3.85006 0
M  V30 1438 H 139.995 4.28881 -3.1932 0
M  V30 1439 H 140.338 3.87065 -1.53253 0
M  V30 1440 H 140.871 2.78574 -2.83974 0
M  V30 1441 H 137.61 2.99668 -5.82992 0
M  V30 1442 H 137.13 4.01683 -4.45433 0
M  V30 1443 H 138.809 4.04712 -5.04794 0
M  V30 1444 N 138.941 1.26152 0.944643 0
M  V30 1445 C 139.904 1.07474 2.0244 0
M  V30 1446 C 140.904 0.0242064 1.60782 0
M  V30 1447 O 142.094 0.267302 1.72137 0
M  V30 1448 C 139.226 0.633956 3.34953 0
M  V30 1449 H 140.419 2.03336 2.20442 0
M  V30 1450 H 137.972 1.087 1.12312 0
M  V30 1451 H 138.707 -0.326811 3.22649 0
M  V30 1452 H 138.492 1.39247 3.66542 0
M  V30 1453 H 139.982 0.52501 4.14287 0
M  V30 1454 N 140.419 -1.14872 1.07899 0
M  V30 1455 C 141.666 -1.85789 0.805532 0
M  V30 1456 C 141.994 -1.82649 -0.668561 0
M  V30 1457 O 141.249 -1.24858 -1.50695 0
M  V30 1458 C 141.548 -3.34223 1.26609 0
M  V30 1459 C 141.214 -3.57555 2.74709 0
M  V30 1460 C 139.876 -3.63631 3.1516 0
M  V30 1461 C 142.228 -3.66803 3.70277 0
M  V30 1462 C 139.556 -3.76473 4.49983 0
M  V30 1463 C 141.908 -3.8117 5.04869 0
M  V30 1464 C 140.572 -3.85494 5.44932 0
M  V30 1465 H 139.842 -0.679849 0.294765 0
M  V30 1466 H 142.489 -1.3572 1.35101 0
M  V30 1467 H 140.794 -3.86536 0.640103 0
M  V30 1468 H 142.491 -3.87511 1.03132 0
M  V30 1469 H 139.081 -3.5347 2.42398 0
M  V30 1470 H 143.265 -3.61404 3.40149 0
M  V30 1471 H 138.521 -3.7808 4.80484 0
M  V30 1472 H 142.695 -3.87268 5.78789 0
M  V30 1473 H 140.322 -3.95197 6.49403 0
M  V30 1474 N 141.898 -0.863906 -1.31812 0
M  V30 1475 C 142.861 -0.320212 -2.26952 0
M  V30 1476 C 143.861 0.525369 -1.51975 0
M  V30 1477 O 145.051 0.335547 -1.70938 0
M  V30 1478 C 142.183 0.545919 -3.365 0
M  V30 1479 H 143.376 -1.16004 -2.76556 0
M  V30 1480 H 140.929 -0.638995 -1.42641 0
M  V30 1481 H 141.664 1.40718 -2.92179 0
M  V30 1482 H 141.449 -0.0594674 -3.92055 0
M  V30 1483 H 142.939 0.918796 -4.07367 0
M  V30 1484 N 143.376 1.44774 -0.622745 0
M  V30 1485 C 144.324 2.32387 0.0994683 0
M  V30 1486 C 145.318 1.46859 0.844326 0
M  V30 1487 O 146.524 1.63254 0.758174 0
M  V30 1488 H 142.899 0.750273 0.0509291 0
M  V30 1489 H 144.87 2.91062 -0.65767 0
M  V30 1490 C 143.619 3.30723 1.07319 0
M  V30 1491 H 142.942 3.96541 0.509462 0
M  V30 1492 H 144.382 3.94725 1.54817 0
M  V30 1493 C 142.841 2.59021 2.15429 0
M  V30 1494 O 143.371 2.38286 3.23393 0
M  V30 1495 N 141.577 2.189 1.91131 0
M  V30 1496 H 141.124 2.35964 1.03337 0
M  V30 1497 H 141.082 1.71251 2.63668 0
M  V30 1498 N 144.854 0.36279 1.53368 0
M  V30 1499 C 146.27 0.0116182 1.59596 0
M  V30 1500 C 146.47 -1.47012 1.37803 0
M  V30 1501 O 145.526 -2.23136 1.18181 0
M  V30 1502 C 146.839 0.465052 2.97082 0
M  V30 1503 C 148.387 0.419033 3.10182 0
M  V30 1504 C 148.862 0.848235 4.50077 0
M  V30 1505 N 150.353 0.803183 4.56183 0
M  V30 1506 C 151.088 1.107 5.62613 0
M  V30 1507 N 150.584 1.47996 6.76808 0
M  V30 1508 N 152.377 1.02998 5.52583 0
M  V30 1509 H 144.528 1.32775 1.65785 0
M  V30 1510 H 146.791 0.542518 0.777417 0
M  V30 1511 H 146.497 1.49892 3.18159 0
M  V30 1512 H 146.371 -0.149786 3.76902 0
M  V30 1513 H 148.758 -0.605696 2.88817 0
M  V30 1514 H 148.839 1.06933 2.32377 0
M  V30 1515 H 148.483 1.87107 4.7218 0
M  V30 1516 H 148.413 0.175218 5.26308 0
M  V30 1517 H 150.904 0.52838 3.74188 0
M  V30 1518 H 151.217 1.69613 7.53957 0
M  V30 1519 H 149.562 1.51859 6.78206 0
M  V30 1520 H 152.753 0.737817 4.62249 0
M  V30 1521 H 152.926 1.2701 6.35431 0
M  V30 1522 N 146.332 -1.57332 0.0918853 0
M  V30 1523 C 147.609 -1.85691 -0.614668 0
M  V30 1524 C 147.989 -0.988146 -1.86545 0
M  V30 1525 O 147.337 -0.0597055 -2.28422 0
M  V30 1526 C 147.547 -3.36294 -0.933126 0
M  V30 1527 C 148.895 -4.04275 -1.29796 0
M  V30 1528 O 149.919 -3.41157 -1.02424 0
M  V30 1529 O 148.778 -5.1564 -1.81047 0
M  V30 1530 H 145.872 -0.767802 -0.307261 0
M  V30 1531 H 148.418 -1.69244 0.12434 0
M  V30 1532 H 147.19 -3.91273 -0.0456404 0
M  V30 1533 H 146.813 -3.58076 -1.72822 0
M  V30 1534 N 147.81 0.181792 -1.56548 0
M  V30 1535 C 149.087 0.926765 -1.72251 0
M  V30 1536 C 149.467 2.00831 -0.650386 0
M  V30 1537 O 148.815 2.26008 0.336521 0
M  V30 1538 C 149.025 1.50106 -3.1507 0
M  V30 1539 C 150.373 1.97805 -3.75711 0
M  V30 1540 O 151.397 1.59922 -3.18282 0
M  V30 1541 O 150.256 2.67555 -4.76525 0
M  V30 1542 H 147.35 0.435506 -0.703039 0
M  V30 1543 H 149.896 0.170443 -1.68842 0
M  V30 1544 H 148.668 0.72212 -3.84579 0
M  V30 1545 H 148.291 2.32186 -3.22763 0
M  V30 1546 N 149.288 1.51039 0.449983 0
M  V30 1547 C 150.218 1.74379 1.55288 0
M  V30 1548 C 151.199 0.593236 1.5942 0
M  V30 1549 O 152.384 0.834625 1.7535 0
M  V30 1550 C 149.514 1.85728 2.93466 0
M  V30 1551 C 148.468 3.01078 3.04197 0
M  V30 1552 C 147.794 2.97595 4.44231 0
M  V30 1553 C 149.094 4.41254 2.7945 0
M  V30 1554 H 150.788 2.66725 1.36008 0
M  V30 1555 H 148.334 1.2835 0.652864 0
M  V30 1556 H 150.287 2.0064 3.70569 0
M  V30 1557 H 149.011 0.900207 3.13949 0
M  V30 1558 H 147.67 2.85851 2.29531 0
M  V30 1559 H 147.318 1.99691 4.61663 0
M  V30 1560 H 147.018 3.75046 4.52343 0
M  V30 1561 H 148.542 3.14583 5.23326 0
M  V30 1562 H 149.956 4.56897 3.46292 0
M  V30 1563 H 148.353 5.20315 2.98985 0
M  V30 1564 H 149.423 4.52164 1.75144 0
M  V30 1565 N 150.766 -0.704594 1.40972 0
M  V30 1566 C 151.713 -1.81862 1.42109 0
M  V30 1567 C 152.683 -1.63781 0.276593 0
M  V30 1568 O 153.868 -1.84759 0.4763 0
M  V30 1569 C 151.008 -3.19669 1.30022 0
M  V30 1570 C 150.121 -3.49246 2.54267 0
M  V30 1571 C 149.256 -4.76618 2.3454 0
M  V30 1572 C 148.295 -4.99133 3.54306 0
M  V30 1573 N 147.432 -6.17726 3.33706 0
M  V30 1574 H 152.272 -1.80226 2.37324 0
M  V30 1575 H 149.809 -0.880238 1.17857 0
M  V30 1576 H 151.767 -3.99263 1.21018 0
M  V30 1577 H 150.397 -3.20506 0.384192 0
M  V30 1578 H 149.449 -2.64125 2.73756 0
M  V30 1579 H 150.761 -3.61788 3.43381 0
M  V30 1580 H 149.915 -5.64249 2.22952 0
M  V30 1581 H 148.654 -4.66305 1.42867 0
M  V30 1582 H 147.659 -4.09953 3.66359 0
M  V30 1583 H 148.884 -5.11311 4.4692 0
M  V30 1584 H 146.83 -6.08642 2.44725 0
M  V30 1585 H 146.747 -6.30995 4.16391 0
M  V30 1586 H 148.015 -7.08115 3.25873 0
M  V30 1587 N 152.244 -1.26651 -0.937939 0
M  V30 1588 C 153.492 -1.12165 -1.68118 0
M  V30 1589 C 153.813 0.334983 -1.92101 0
M  V30 1590 O 153.083 1.23583 -1.52 0
M  V30 1591 H 151.663 -0.412093 -0.623048 0
M  V30 1592 H 154.325 -1.59027 -1.12678 0
M  V30 1593 H 153.421 -1.64289 -2.6536 0
M  V30 1594 N 153.722 1.14298 -1.08507 0
M  V30 1595 C 154.632 2.23027 -0.727753 0
M  V30 1596 C 155.648 1.71952 0.26619 0
M  V30 1597 O 156.824 2.011 0.109882 0
M  V30 1598 C 153.889 3.46403 -0.143541 0
M  V30 1599 C 152.95 4.12413 -1.19223 0
M  V30 1600 C 152.183 5.29899 -0.635798 0
M  V30 1601 O 152.406 5.67796 0.544393 0
M  V30 1602 O 151.34 5.85717 -1.38634 0
M  V30 1603 H 155.166 2.55945 -1.63481 0
M  V30 1604 H 152.751 1.22248 -0.858817 0
M  V30 1605 H 154.633 4.21018 0.179404 0
M  V30 1606 H 153.308 3.15206 0.736659 0
M  V30 1607 H 152.215 3.39667 -1.56772 0
M  V30 1608 H 153.548 4.47718 -2.04474 0
M  V30 1609 N 155.201 0.870884 1.31352 0
M  V30 1610 C 156.448 0.482273 1.96673 0
M  V30 1611 C 156.776 -0.965638 1.68836 0
M  V30 1612 O 156.031 -1.69514 0.977937 0
M  V30 1613 C 156.33 0.687157 3.50732 0
M  V30 1614 C 155.996 2.108 3.9859 0
M  V30 1615 C 154.658 2.49656 4.1137 0
M  V30 1616 C 157.01 3.03459 4.23748 0
M  V30 1617 C 154.338 3.80412 4.46659 0
M  V30 1618 C 156.69 4.3373 4.60501 0
M  V30 1619 C 155.354 4.725 4.71487 0
M  V30 1620 H 154.624 0.176476 0.719679 0
M  V30 1621 H 157.271 1.10405 1.56471 0
M  V30 1622 H 155.576 -0.0177476 3.91796 0
M  V30 1623 H 157.273 0.366284 3.99324 0
M  V30 1624 H 153.863 1.79633 3.8914 0
M  V30 1625 H 158.047 2.74665 4.13368 0
M  V30 1626 H 153.303 4.1021 4.53362 0
M  V30 1627 H 157.477 5.05578 4.78919 0
M  V30 1628 H 155.104 5.73859 4.98588 0
M  V30 1629 N 156.679 -1.44442 0.630414 0
M  V30 1630 C 157.925 -2.02351 0.134816 0
M  V30 1631 C 158.258 -1.4947 -1.23986 0
M  V30 1632 O 157.533 -0.678475 -1.82283 0
M  V30 1633 C 157.816 -3.59898 0.120707 0
M  V30 1634 C 157.669 -4.23063 1.52767 0
M  V30 1635 C 158.988 -4.36585 -0.555127 0
M  V30 1636 H 156.107 -0.73527 0.0504646 0
M  V30 1637 H 158.749 -1.72022 0.806751 0
M  V30 1638 H 156.899 -3.85868 -0.451477 0
M  V30 1639 H 158.571 -4.08202 2.14869 0
M  V30 1640 H 156.814 -3.80586 2.08175 0
M  V30 1641 H 157.485 -5.32071 1.46984 0
M  V30 1642 H 159.961 -4.16044 -0.0685429 0
M  V30 1643 H 158.837 -5.46294 -0.534185 0
M  V30 1644 H 159.098 -4.11138 -1.62535 0
M  V30 1645 N 158.157 -0.370918 -1.53173 0
M  V30 1646 C 159.434 0.273754 -1.93675 0
M  V30 1647 C 159.814 1.65938 -1.3049 0
M  V30 1648 O 159.162 2.23698 -0.465999 0
M  V30 1649 C 159.372 0.318602 -3.47543 0
M  V30 1650 C 160.72 0.556392 -4.20939 0
M  V30 1651 O 161.744 0.399587 -3.53952 0
M  V30 1652 O 160.603 0.862133 -5.39657 0
M  V30 1653 H 157.697 0.165448 -0.810281 0
M  V30 1654 H 160.243 -0.42409 -1.64315 0
M  V30 1655 H 159.015 -0.652687 -3.85818 0
M  V30 1656 H 158.638 1.06212 -3.83151 0
M  V30 1657 N 159.635 1.57281 -0.100228 0
M  V30 1658 C 160.863 1.98879 0.570509 0
M  V30 1659 C 161.278 0.979476 1.61405 0
M  V30 1660 O 160.635 -0.0302288 1.82475 0
M  V30 1661 C 160.686 3.4052 1.2136 0
M  V30 1662 O 160.407 4.37588 0.211786 0
M  V30 1663 C 161.908 3.97149 1.96945 0
M  V30 1664 H 159.128 0.653428 0.152555 0
M  V30 1665 H 161.672 2.03697 -0.18103 0
M  V30 1666 H 159.827 3.367 1.91603 0
M  V30 1667 H 160.241 5.20118 0.676607 0
M  V30 1668 H 161.715 4.98393 2.37294 0
M  V30 1669 H 162.192 3.3525 2.83733 0
M  V30 1670 H 162.798 4.04458 1.31506 0
M  V30 1671 N 161.113 -0.173488 1.56642 0
M  V30 1672 C 162.338 -0.910149 1.86363 0
M  V30 1673 C 162.763 -1.75132 0.686318 0
M  V30 1674 O 162.121 -1.77595 -0.364643 0
M  V30 1675 C 162.169 -1.76447 3.14482 0
M  V30 1676 O 161.273 -2.86584 2.96553 0
M  V30 1677 H 160.614 -0.255086 0.613047 0
M  V30 1678 H 163.144 -0.172283 2.03873 0
M  V30 1679 H 163.154 -2.16483 3.45831 0
M  V30 1680 H 161.829 -1.14658 3.99783 0
M  V30 1681 H 160.406 -2.50146 2.76553 0
M  V30 1682 N 162.591 -1.51276 -0.441967 0
M  V30 1683 C 164.007 -1.39349 -0.778083 0
M  V30 1684 C 164.207 -0.472212 -1.95889 0
M  V30 1685 O 163.263 0.0743551 -2.5239 0
M  V30 1686 C 164.576 -2.81292 -1.0628 0
M  V30 1687 C 166.124 -2.9041 -1.16751 0
M  V30 1688 C 166.599 -4.33251 -1.48519 0
M  V30 1689 N 168.09 -4.36336 -1.55453 0
M  V30 1690 C 168.825 -5.43885 -1.81596 0
M  V30 1691 N 168.321 -6.61601 -2.05562 0
M  V30 1692 N 170.114 -5.3136 -1.8334 0
M  V30 1693 H 162.265 -2.09729 0.335774 0
M  V30 1694 H 164.528 -0.943925 0.0878028 0
M  V30 1695 H 164.234 -3.50678 -0.267905 0
M  V30 1696 H 164.108 -3.20334 -1.99163 0
M  V30 1697 H 166.495 -2.21225 -1.95304 0
M  V30 1698 H 166.576 -2.54871 -0.217801 0
M  V30 1699 H 166.22 -5.02984 -0.704958 0
M  V30 1700 H 166.15 -4.66299 -2.44689 0
M  V30 1701 H 168.641 -3.51466 -1.38853 0
M  V30 1702 H 168.954 -7.39361 -2.24867 0
M  V30 1703 H 167.299 -6.64725 -2.02894 0
M  V30 1704 H 170.49 -4.38382 -1.64132 0
M  V30 1705 H 170.663 -6.15258 -2.03377 0
M  V30 1706 N 164.069 0.697108 -1.41344 0
M  V30 1707 C 165.346 1.45154 -1.31109 0
M  V30 1708 C 165.726 2.11009 0.0620449 0
M  V30 1709 O 165.074 2.01571 1.07618 0
M  V30 1710 C 165.284 2.47223 -2.46337 0
M  V30 1711 C 166.632 3.1252 -2.87431 0
M  V30 1712 O 167.656 2.57547 -2.46065 0
M  V30 1713 O 166.515 4.12083 -3.58957 0
M  V30 1714 H 163.609 0.646365 -0.515889 0
M  V30 1715 H 166.155 0.727716 -1.53305 0
M  V30 1716 H 164.927 1.97204 -3.37974 0
M  V30 1717 H 164.55 3.27116 -2.2601 0
M  V30 1718 N 165.547 1.27147 0.931209 0
M  V30 1719 C 166.795 1.13055 1.6752 0
M  V30 1720 C 167.116 -0.324791 1.92276 0
M  V30 1721 O 166.386 -1.22775 1.52654 0
M  V30 1722 H 164.966 0.415391 0.620854 0
M  V30 1723 H 167.628 1.59623 1.11833 0
M  V30 1724 H 166.724 1.65694 2.64485 0
M  V30 1725 N 167.025 -1.13721 1.09112 0
M  V30 1726 C 168.272 -1.84924 0.825192 0
M  V30 1727 C 168.6 -1.83347 -0.649151 0
M  V30 1728 O 167.855 -1.26449 -1.49362 0
M  V30 1729 C 168.154 -3.32861 1.30146 0
M  V30 1730 C 167.82 -3.54621 2.78486 0
M  V30 1731 C 166.482 -3.60268 3.18999 0
M  V30 1732 C 168.834 -3.62855 3.74146 0
M  V30 1733 C 166.162 -3.71679 4.53951 0
M  V30 1734 C 168.514 -3.75793 5.08883 0
M  V30 1735 C 167.178 -3.79692 5.4899 0
M  V30 1736 H 166.448 -0.676684 0.301959 0
M  V30 1737 H 169.095 -1.3428 1.36533 0
M  V30 1738 H 167.4 -3.85835 0.681064 0
M  V30 1739 H 169.097 -3.86395 1.07236 0
M  V30 1740 H 165.687 -3.50879 2.46134 0
M  V30 1741 H 169.871 -3.57775 3.43963 0
M  V30 1742 H 165.127 -3.72963 4.84467 0
M  V30 1743 H 169.301 -3.81107 5.82864 0
M  V30 1744 H 166.928 -3.88287 6.53558 0
M  V30 1745 N 168.503 -0.877838 -1.30888 0
M  V30 1746 C 169.433 -0.35534 -2.3078 0
M  V30 1747 C 170.414 0.557994 -1.60687 0
M  V30 1748 O 171.599 0.473355 -1.88343 0
M  V30 1749 C 168.729 0.437221 -3.44537 0
M  V30 1750 C 167.683 -0.383715 -4.26276 0
M  V30 1751 C 167.009 0.535014 -5.32017 0
M  V30 1752 C 168.309 -1.62201 -4.96476 0
M  V30 1753 H 170.003 -1.19007 -2.74732 0
M  V30 1754 H 167.549 -0.573698 -1.32078 0
M  V30 1755 H 169.502 0.813334 -4.13477 0
M  V30 1756 H 168.226 1.30553 -2.99372 0
M  V30 1757 H 166.885 -0.741874 -3.59015 0
M  V30 1758 H 166.533 1.40083 -4.831 0
M  V30 1759 H 166.233 -0.0104211 -5.87599 0
M  V30 1760 H 167.757 0.907799 -6.03814 0
M  V30 1761 H 169.171 -1.31689 -5.5797 0
M  V30 1762 H 167.568 -2.10711 -5.61891 0
M  V30 1763 H 168.638 -2.37044 -4.23011 0
M  V30 1764 N 169.982 1.44106 -0.638065 0
M  V30 1765 C 170.912 2.33448 0.0494287 0
M  V30 1766 C 171.893 1.48606 0.827672 0
M  V30 1767 O 173.078 1.77308 0.792173 0
M  V30 1768 C 170.208 3.31771 1.02691 0
M  V30 1769 C 169.162 4.26485 0.359823 0
M  V30 1770 C 168.488 5.14729 1.44769 0
M  V30 1771 C 169.788 5.17056 -0.738296 0
M  V30 1772 H 171.482 2.91183 -0.696636 0
M  V30 1773 H 169.028 1.40014 -0.336456 0
M  V30 1774 H 170.981 3.93161 1.51666 0
M  V30 1775 H 169.705 2.7226 1.80395 0
M  V30 1776 H 168.364 3.66437 -0.10934 0
M  V30 1777 H 168.012 4.51566 2.21578 0
M  V30 1778 H 167.712 5.78913 1.00668 0
M  V30 1779 H 169.236 5.78991 1.93911 0
M  V30 1780 H 170.65 5.72342 -0.331354 0
M  V30 1781 H 169.047 5.89879 -1.10286 0
M  V30 1782 H 170.117 4.57652 -1.60258 0
M  V30 1783 N 171.46 0.379036 1.52974 0
M  V30 1784 C 172.423 -0.448865 2.24762 0
M  V30 1785 C 173.423 -0.998689 1.26027 0
M  V30 1786 O 174.613 -0.882313 1.50203 0
M  V30 1787 C 171.745 -1.62872 2.99476 0
M  V30 1788 H 172.938 0.179491 2.99362 0
M  V30 1789 H 170.491 0.13096 1.5575 0
M  V30 1790 H 171.226 -2.29479 2.29151 0
M  V30 1791 H 171.011 -1.24128 3.71934 0
M  V30 1792 H 172.501 -2.2151 3.5401 0
M  V30 1793 N 172.938 -1.57226 0.108567 0
M  V30 1794 C 173.87 -2.11809 -0.875752 0
M  V30 1795 C 174.883 -1.05839 -1.23701 0
M  V30 1796 O 176.072 -1.33245 -1.18778 0
M  V30 1797 C 173.172 -2.59411 -2.18081 0
M  V30 1798 C 172.345 -3.89364 -1.99284 0
M  V30 1799 C 171.404 -4.22672 -3.13424 0
M  V30 1800 O 170.43 -4.91668 -2.86795 0
M  V30 1801 N 171.632 -3.79154 -4.3957 0
M  V30 1802 H 174.397 -2.9689 -0.409477 0
M  V30 1803 H 171.958 -1.61721 -0.076158 0
M  V30 1804 H 173.95 -2.7873 -2.93414 0
M  V30 1805 H 172.52 -1.79268 -2.5609 0
M  V30 1806 H 171.74 -3.79059 -1.08203 0
M  V30 1807 H 173.028 -4.74358 -1.84017 0
M  V30 1808 H 172.426 -3.23486 -4.64083 0
M  V30 1809 H 170.983 -4.03602 -5.11809 0
M  V30 1810 N 174.416 0.165178 -1.56732 0
M  V30 1811 C 175.364 1.22369 -1.97809 0
M  V30 1812 C 176.358 1.45488 -0.867741 0
M  V30 1813 O 177.564 1.45995 -1.05288 0
M  V30 1814 H 173.939 0.411486 -0.629431 0
M  V30 1815 H 175.91 0.850425 -2.86025 0
M  V30 1816 C 174.659 2.55403 -2.35934 0
M  V30 1817 H 173.982 2.38438 -3.20916 0
M  V30 1818 H 175.422 3.2814 -2.68514 0
M  V30 1819 C 173.881 3.14611 -1.20506 0
M  V30 1820 O 174.411 3.98626 -0.496016 0
M  V30 1821 N 172.617 2.7379 -0.97403 0
M  V30 1822 H 172.164 2.0557 -1.55238 0
M  V30 1823 H 172.122 3.1374 -0.203573 0
M  V30 1824 N 175.894 1.51508 0.433938 0
M  V30 1825 C 177.143 1.63578 1.18005 0
M  V30 1826 C 177.456 0.359514 1.92268 0
M  V30 1827 O 178.662 0.359632 2.69108 0
M  V30 1828 C 177.118 2.88901 2.14626 0
M  V30 1829 C 176.726 4.23544 1.45995 0
M  V30 1830 C 178.47 3.10328 2.89649 0
M  V30 1831 C 176.377 5.40014 2.4112 0
M  V30 1832 H 175.307 0.609277 0.444182 0
M  V30 1833 H 177.958 1.77978 0.446773 0
M  V30 1834 H 176.34 2.68142 2.91403 0
M  V30 1835 H 177.514 4.54696 0.747532 0
M  V30 1836 H 175.829 4.08021 0.831115 0
M  V30 1837 H 178.426 3.94518 3.60915 0
M  V30 1838 H 178.769 2.23544 3.51189 0
M  V30 1839 H 179.302 3.31443 2.19978 0
M  V30 1840 H 176.041 6.29068 1.84264 0
M  V30 1841 H 175.561 5.13233 3.10406 0
M  V30 1842 H 177.24 5.72099 3.02177 0
M  V30 1843 N 177.372 -0.689602 1.41712 0
M  V30 1844 C 178.597 -1.48329 1.44959 0
M  V30 1845 C 179.022 -1.8801 0.0581283 0
M  V30 1846 O 178.38 -1.55026 -0.940035 0
M  V30 1847 C 178.428 -2.71835 2.36935 0
M  V30 1848 O 177.532 -3.69549 1.8305 0
M  V30 1849 H 176.873 -0.446199 0.491734 0
M  V30 1850 H 179.403 -0.847127 1.86239 0
M  V30 1851 H 179.413 -3.20076 2.53013 0
M  V30 1852 H 178.088 -2.42291 3.38035 0
M  V30 1853 H 176.665 -3.2851 1.76452 0
M  V30 1854 N 178.85 -1.27639 -0.924453 0
M  V30 1855 C 179.813 -1.10681 -2.00705 0
M  V30 1856 C 180.813 -0.0497823 -1.60723 0
M  V30 1857 O 182.003 -0.294654 -1.7169 0
M  V30 1858 C 179.135 -0.687164 -3.33902 0
M  V30 1859 H 180.328 -2.06817 -2.17179 0
M  V30 1860 H 177.881 -1.10473 -1.10569 0
M  V30 1861 H 178.616 0.275439 -3.23128 0
M  V30 1862 H 178.401 -1.45061 -3.6428 0
M  V30 1863 H 179.891 -0.590853 -4.13399 0
M  V30 1864 N 180.328 1.1314 -1.09713 0
M  V30 1865 C 181.575 1.84484 -0.834987 0
M  V30 1866 C 181.903 1.83689 0.639418 0
M  V30 1867 O 181.158 1.2724 1.4869 0
M  V30 1868 C 181.457 3.32167 -1.3191 0
M  V30 1869 C 181.123 3.53139 -2.80363 0
M  V30 1870 C 179.785 3.58571 -3.20905 0
M  V30 1871 C 182.137 3.60866 -3.76065 0
M  V30 1872 C 179.465 3.69267 -4.55916 0
M  V30 1873 C 181.817 3.73089 -5.10869 0
M  V30 1874 C 180.481 3.76775 -5.50996 0
M  V30 1875 H 179.751 0.675073 -0.305544 0
M  V30 1876 H 182.398 1.33554 -1.37243 0
M  V30 1877 H 180.703 3.85469 -0.701517 0
M  V30 1878 H 182.4 3.85821 -1.09284 0
M  V30 1879 H 178.99 3.49569 -2.47991 0
M  V30 1880 H 183.174 3.55946 -3.45855 0
M  V30 1881 H 178.43 3.70388 -4.86438 0
M  V30 1882 H 182.604 3.78011 -5.84877 0
M  V30 1883 H 180.231 3.84815 -6.55608 0
M  V30 1884 N 181.806 0.884767 1.30421 0
M  V30 1885 C 183.031 0.517288 2.00845 0
M  V30 1886 C 183.456 -0.886779 1.65885 0
M  V30 1887 O 182.814 -1.58768 0.875354 0
M  V30 1888 C 182.862 0.698994 3.5376 0
M  V30 1889 O 181.966 -0.255208 4.1161 0
M  V30 1890 H 181.307 0.203872 0.631927 0
M  V30 1891 H 183.837 1.19225 1.66272 0
M  V30 1892 H 183.847 0.597912 4.03595 0
M  V30 1893 H 182.522 1.72271 3.78544 0
M  V30 1894 H 181.099 -0.10784 3.72744 0
M  V30 1895 N 183.284 -1.43765 0.645699 0
M  V30 1896 C 184.214 -2.33471 -0.0370477 0
M  V30 1897 C 185.195 -1.49042 -0.819779 0
M  V30 1898 O 186.38 -1.77726 -0.782758 0
M  V30 1899 C 183.51 -3.32311 -1.0093 0
M  V30 1900 C 182.464 -4.2667 -0.337201 0
M  V30 1901 C 181.79 -5.1549 -1.42037 0
M  V30 1902 C 183.09 -5.16657 0.765706 0
M  V30 1903 H 184.784 -2.90809 0.712069 0
M  V30 1904 H 182.33 -1.39834 0.343876 0
M  V30 1905 H 184.283 -3.9396 -1.49578 0
M  V30 1906 H 183.007 -2.73213 -1.78948 0
M  V30 1907 H 181.666 -3.66374 0.128771 0
M  V30 1908 H 181.314 -4.52735 -2.1918 0
M  V30 1909 H 181.014 -5.79438 -0.975966 0
M  V30 1910 H 182.538 -5.80012 -1.90838 0
M  V30 1911 H 183.952 -5.72158 0.361702 0
M  V30 1912 H 182.349 -5.89286 1.13413 0
M  V30 1913 H 183.419 -4.56796 1.62683 0
M  V30 1914 N 184.763 -0.387143 -1.52771 0
M  V30 1915 C 185.991 0.195869 -2.05971 0
M  V30 1916 C 186.406 1.40691 -1.25903 0
M  V30 1917 O 185.763 1.79931 -0.305134 0
M  V30 1918 C 185.814 0.56812 -3.57008 0
M  V30 1919 O 185.535 -0.594803 -4.34043 0
M  V30 1920 C 187.036 1.20723 -4.26545 0
M  V30 1921 H 184.256 0.0300578 -0.670326 0
M  V30 1922 H 186.8 -0.551749 -1.96916 0
M  V30 1923 H 184.955 1.26564 -3.66143 0
M  V30 1924 H 185.369 -0.289322 -5.23701 0
M  V30 1925 H 186.843 1.41807 -5.33474 0
M  V30 1926 H 187.32 2.17395 -3.81623 0
M  V30 1927 H 187.926 0.550535 -4.21722 0
M  V30 1928 N 186.241 1.57166 -0.116904 0
M  V30 1929 C 187.204 2.14039 0.819742 0
M  V30 1930 C 188.204 1.07477 1.19605 0
M  V30 1931 O 189.394 1.33263 1.1219 0
M  V30 1932 C 186.526 2.67891 2.10826 0
M  V30 1933 H 187.719 2.98128 0.325511 0
M  V30 1934 H 185.272 1.55739 0.132312 0
M  V30 1935 H 186.007 1.87384 2.64685 0
M  V30 1936 H 185.792 3.45823 1.84793 0
M  V30 1937 H 187.282 3.11809 2.77785 0
M  V30 1938 N 187.719 -0.156864 1.56817 0
M  V30 1939 C 188.965 -0.872416 1.83076 0
M  V30 1940 C 189.298 -1.81261 0.697001 0
M  V30 1941 O 188.573 -1.92171 -0.30008 0
M  V30 1942 C 188.856 -1.65551 3.19789 0
M  V30 1943 C 188.709 -0.737467 4.43713 0
M  V30 1944 C 190.028 -2.62012 3.53606 0
M  V30 1945 H 187.147 -0.315715 0.665953 0
M  V30 1946 H 189.789 -0.138004 1.89498 0
M  V30 1947 H 187.939 -2.28159 3.14445 0
M  V30 1948 H 189.611 -0.123143 4.61136 0
M  V30 1949 H 187.854 -0.0464067 4.33775 0
M  V30 1950 H 188.525 -1.32122 5.35955 0
M  V30 1951 H 191.001 -2.09525 3.59497 0
M  V30 1952 H 189.877 -3.13861 4.50314 0
M  V30 1953 H 190.138 -3.42902 2.79053 0
M  V30 1954 N 189.197 -1.51736 -0.425897 0
M  V30 1955 C 190.16 -1.73271 -1.50032 0
M  V30 1956 C 191.16 -0.602639 -1.4908 0
M  V30 1957 O 192.35 -0.87033 -1.509 0
M  V30 1958 C 189.482 -1.79969 -2.89523 0
M  V30 1959 H 190.675 -2.69172 -1.32237 0
M  V30 1960 H 188.228 -1.41899 -0.65532 0
M  V30 1961 H 188.963 -0.859241 -3.1271 0
M  V30 1962 H 188.748 -2.62109 -2.91619 0
M  V30 1963 H 190.238 -1.9843 -3.67444 0
M  V30 1964 N 190.675 0.682077 -1.42076 0
M  V30 1965 C 192.091 0.994324 -1.24841 0
M  V30 1966 C 192.291 2.0096 -0.147389 0
M  V30 1967 O 191.347 2.47822 0.483782 0
M  V30 1968 C 192.66 1.50607 -2.60265 0
M  V30 1969 C 194.208 1.62421 -2.6756 0
M  V30 1970 C 194.683 2.16994 -4.03333 0
M  V30 1971 N 196.174 2.24337 -4.0525 0
M  V30 1972 C 196.909 2.67621 -5.07116 0
M  V30 1973 N 196.405 3.1041 -6.19368 0
M  V30 1974 N 198.198 2.67305 -4.94474 0
M  V30 1975 H 190.349 0.00973908 -2.12398 0
M  V30 1976 H 192.612 0.0668593 -0.945639 0
M  V30 1977 H 192.318 0.834583 -3.41654 0
M  V30 1978 H 192.192 2.48602 -2.83684 0
M  V30 1979 H 194.579 2.28678 -1.86521 0
M  V30 1980 H 194.66 0.629352 -2.47937 0
M  V30 1981 H 194.304 1.51349 -4.84826 0
M  V30 1982 H 194.234 3.17258 -4.20304 0
M  V30 1983 H 196.725 1.94158 -3.24209 0
M  V30 1984 H 197.038 3.42103 -6.92954 0
M  V30 1985 H 195.383 3.08286 -6.22884 0
M  V30 1986 H 198.574 2.33233 -4.05857 0
M  V30 1987 H 198.747 3.00718 -5.73997 0
M  V30 1988 N 192.153 1.28127 0.917671 0
M  V30 1989 C 193.063 1.13556 2.05286 0
M  V30 1990 C 194.079 0.0630914 1.73886 0
M  V30 1991 O 195.255 0.271598 1.9956 0
M  V30 1992 C 192.32 0.794676 3.3747 0
M  V30 1993 C 191.381 1.94909 3.82504 0
M  V30 1994 C 190.614 1.62437 5.0838 0
M  V30 1995 O 190.837 0.536905 5.67867 0
M  V30 1996 O 189.771 2.46677 5.4903 0
M  V30 1997 H 193.597 2.08844 2.20495 0
M  V30 1998 H 191.182 1.07409 1.03845 0
M  V30 1999 H 193.064 0.618344 4.16839 0
M  V30 2000 H 191.739 -0.128581 3.23445 0
M  V30 2001 H 190.646 2.18055 3.03978 0
M  V30 2002 H 191.979 2.85291 4.01086 0
M  V30 2003 N 193.631 -1.12557 1.10312 0
M  V30 2004 C 194.594 -2.16434 0.75424 0
M  V30 2005 C 195.594 -1.59278 -0.220685 0
M  V30 2006 O 196.784 -1.742 0.00230591 0
M  V30 2007 C 193.916 -3.40699 0.116987 0
M  V30 2008 H 195.109 -2.48811 1.67431 0
M  V30 2009 H 192.662 -1.27542 0.903475 0
M  V30 2010 H 193.397 -3.13921 -0.813877 0
M  V30 2011 H 193.182 -3.83459 0.818613 0
M  V30 2012 H 194.672 -4.17451 -0.111387 0
M  V30 2013 N 195.109 -0.891671 -1.2995 0
M  V30 2014 C 196.056 -0.361736 -2.27948 0
M  V30 2015 C 197.026 0.551761 -1.56668 0
M  V30 2016 O 198.211 0.478736 -1.84696 0
M  V30 2017 C 195.351 0.411825 -3.42634 0
M  V30 2018 C 194.464 -0.531651 -4.28716 0
M  V30 2019 C 193.599 0.258167 -5.30572 0
M  V30 2020 C 192.638 -0.680349 -6.08307 0
M  V30 2021 N 191.775 0.0745613 -7.0206 0
M  V30 2022 H 196.615 -1.20254 -2.72659 0
M  V30 2023 H 194.152 -0.604352 -1.34112 0
M  V30 2024 H 196.11 0.876304 -4.07893 0
M  V30 2025 H 194.74 1.21715 -2.98974 0
M  V30 2026 H 193.792 -1.11463 -3.63703 0
M  V30 2027 H 195.104 -1.25038 -4.82874 0
M  V30 2028 H 194.258 0.784204 -6.0161 0
M  V30 2029 H 192.997 1.01008 -4.77126 0
M  V30 2030 H 192.002 -1.21796 -5.3614 0
M  V30 2031 H 193.227 -1.43145 -6.63842 0
M  V30 2032 H 191.173 0.808883 -6.50994 0
M  V30 2033 H 191.09 -0.584409 -7.53738 0
M  V30 2034 H 192.358 0.581123 -7.77331 0
M  V30 2035 N 196.587 1.43421 -0.653314 0
M  V30 2036 C 197.534 2.30768 0.0382271 0
M  V30 2037 C 198.504 1.44755 0.814576 0
M  V30 2038 O 199.689 1.73624 0.791162 0
M  V30 2039 C 196.829 3.30336 0.998599 0
M  V30 2040 C 195.942 4.31448 0.218342 0
M  V30 2041 C 195.077 5.18098 1.17252 0
M  V30 2042 C 194.116 6.10902 0.382702 0
M  V30 2043 N 193.253 6.90176 1.28848 0
M  V30 2044 H 198.093 2.89357 -0.712511 0
M  V30 2045 H 195.63 1.42548 -0.363128 0
M  V30 2046 H 197.588 3.86572 1.56901 0
M  V30 2047 H 196.218 2.73397 1.71621 0
M  V30 2048 H 195.27 3.77506 -0.46836 0
M  V30 2049 H 196.582 4.97227 -0.395812 0
M  V30 2050 H 195.736 5.7896 1.81356 0
M  V30 2051 H 194.475 4.52444 1.82058 0
M  V30 2052 H 193.48 5.49128 -0.27169 0
M  V30 2053 H 194.705 6.78598 -0.260957 0
M  V30 2054 H 192.651 6.27171 1.92334 0
M  V30 2055 H 192.568 7.52478 0.728887 0
M  V30 2056 H 193.836 7.55543 1.91766 0
M  V30 2057 N 198.065 0.39524 1.52563 0
M  V30 2058 C 199.311 -0.185318 2.01952 0
M  V30 2059 C 199.644 -1.45964 1.28095 0
M  V30 2060 O 198.919 -1.90689 0.38315 0
M  V30 2061 C 199.202 -0.447193 3.57312 0
M  V30 2062 C 199.055 0.842828 4.41833 0
M  V30 2063 C 200.374 -1.23529 4.22408 0
M  V30 2064 H 197.493 -0.0658788 0.73405 0
M  V30 2065 H 200.135 0.525975 1.82575 0
M  V30 2066 H 198.285 -1.05312 3.73954 0
M  V30 2067 H 199.957 1.4795 4.36931 0
M  V30 2068 H 198.2 1.45686 4.08605 0
M  V30 2069 H 198.871 0.614165 5.48573 0
M  V30 2070 H 201.347 -0.722445 4.0978 0
M  V30 2071 H 200.223 -1.38727 5.3108 0
M  V30 2072 H 200.484 -2.25213 3.80436 0
M  V30 2073 N 199.544 -1.57102 0.125237 0
M  V30 2074 C 200.477 -2.11371 -0.860094 0
M  V30 2075 C 201.455 -1.03168 -1.25679 0
M  V30 2076 O 202.639 -1.30862 -1.35674 0
M  V30 2077 C 199.766 -2.61555 -2.1519 0
M  V30 2078 C 198.812 -3.81701 -1.9028 0
M  V30 2079 S 199.645 -5.23797 -1.11343 0
M  V30 2080 C 200.801 -5.77353 -2.41689 0
M  V30 2081 H 201.034 -2.94617 -0.39852 0
M  V30 2082 H 198.567 -1.54145 -0.0886555 0
M  V30 2083 H 200.525 -2.91122 -2.89411 0
M  V30 2084 H 199.186 -1.78479 -2.58465 0
M  V30 2085 H 198.379 -4.14985 -2.86014 0
M  V30 2086 H 197.981 -3.52783 -1.24178 0
M  V30 2087 H 200.273 -5.87458 -3.37489 0
M  V30 2088 H 201.216 -6.75323 -2.12942 0
M  V30 2089 H 201.624 -5.05457 -2.51342 0
M  V30 2090 N 201.022 0.148545 -1.56898 0
M  V30 2091 C 202.25 0.876389 -1.87422 0
M  V30 2092 C 202.665 1.74809 -0.713256 0
M  V30 2093 O 202.022 1.79725 0.317025 0
M  V30 2094 C 202.073 1.73438 -3.17178 0
M  V30 2095 O 201.794 0.897809 -4.28802 0
M  V30 2096 C 203.295 2.56993 -3.61205 0
M  V30 2097 H 200.515 0.253489 -0.621277 0
M  V30 2098 H 203.059 0.141798 -2.04008 0
M  V30 2099 H 201.214 2.42205 -3.0235 0
M  V30 2100 H 201.628 1.48672 -5.02988 0
M  V30 2101 H 203.102 3.12773 -4.54838 0
M  V30 2102 H 203.579 3.32958 -2.86419 0
M  V30 2103 H 204.185 1.9352 -3.78722 0
M  V30 2104 N 202.5 1.5196 0.417844 0
M  V30 2105 C 203.41 1.77554 1.53336 0
M  V30 2106 C 204.426 0.660655 1.6097 0
M  V30 2107 O 205.602 0.945099 1.77848 0
M  V30 2108 C 202.667 1.91291 2.89152 0
M  V30 2109 C 201.728 3.15183 2.91475 0
M  V30 2110 C 200.961 3.28256 4.20813 0
M  V30 2111 O 201.184 2.46798 5.14244 0
M  V30 2112 O 200.118 4.21356 4.29817 0
M  V30 2113 H 203.944 2.7222 1.34647 0
M  V30 2114 H 201.529 1.36698 0.602828 0
M  V30 2115 H 203.411 2.02199 3.69721 0
M  V30 2116 H 202.086 0.998129 3.07927 0
M  V30 2117 H 200.993 3.09739 2.09791 0
M  V30 2118 H 202.326 4.06414 2.77648 0
M  V30 2119 N 203.978 -0.674533 1.42435 0
M  V30 2120 C 205.226 -1.43175 1.42637 0
M  V30 2121 C 205.547 -1.94951 0.0438992 0
M  V30 2122 O 204.817 -1.7308 -0.917607 0
M  V30 2123 H 203.397 -0.531307 0.525092 0
M  V30 2124 H 206.059 -0.797006 1.77859 0
M  V30 2125 H 205.155 -2.28463 2.12629 0
M  V30 2126 N 205.456 -1.28612 -0.910864 0
M  V30 2127 C 206.704 -1.15705 -1.65701 0
M  V30 2128 C 207.025 0.29416 -1.92769 0
M  V30 2129 O 206.295 1.20331 -1.54588 0
M  V30 2130 H 204.875 -0.425216 -0.614167 0
M  V30 2131 H 207.537 -1.61381 -1.0928 0
M  V30 2132 H 206.633 -1.6988 -2.61815 0
M  V30 2133 N 206.934 1.1197 -1.10907 0
M  V30 2134 C 207.882 2.19927 -0.757303 0
M  V30 2135 C 208.876 1.67564 0.248747 0
M  V30 2136 O 210.082 1.79672 0.108605 0
M  V30 2137 H 206.457 0.716925 -0.226987 0
M  V30 2138 H 208.428 2.46847 -1.67658 0
M  V30 2139 C 207.177 3.47061 -0.210671 0
M  V30 2140 H 206.5 3.87703 -0.976049 0
M  V30 2141 H 207.94 4.24 -0.0026584 0
M  V30 2142 C 206.399 3.19864 1.05777 0
M  V30 2143 O 206.929 3.40049 2.13845 0
M  V30 2144 N 205.135 2.73636 0.978349 0
M  V30 2145 H 204.682 2.5741 0.0988246 0
M  V30 2146 H 204.64 2.55815 1.82773 0
M  V30 2147 N 208.412 0.89855 1.29475 0
M  V30 2148 C 209.661 0.519863 1.94885 0
M  V30 2149 C 209.974 -0.9383 1.71625 0
M  V30 2150 O 211.18 -1.42445 2.31131 0
M  V30 2151 C 209.636 0.878836 3.49005 0
M  V30 2152 C 209.244 2.35569 3.81066 0
M  V30 2153 C 210.988 0.570004 4.20656 0
M  V30 2154 C 208.895 2.65558 5.28425 0
M  V30 2155 H 207.825 0.190692 0.729488 0
M  V30 2156 H 210.476 1.09539 1.47219 0
M  V30 2157 H 208.858 0.232253 3.95318 0
M  V30 2158 H 210.032 3.04773 3.45616 0
M  V30 2159 H 208.347 2.63343 3.22552 0
M  V30 2160 H 210.944 0.770925 5.29113 0
M  V30 2161 H 211.287 -0.491404 4.1339 0
M  V30 2162 H 211.82 1.17438 3.8007 0
M  V30 2163 H 208.559 3.70493 5.40754 0
M  V30 2164 H 208.079 2.00977 5.65127 0
M  V30 2165 H 209.758 2.51765 5.96006 0
M  V30 2166 N 209.89 -1.43072 0.660911 0
M  V30 2167 C 210.82 -2.33497 -0.0122829 0
M  V30 2168 C 211.801 -1.49903 -0.803925 0
M  V30 2169 O 212.986 -1.78546 -0.763864 0
M  V30 2170 C 210.116 -3.33363 -0.973994 0
M  V30 2171 C 209.07 -4.27003 -0.291928 0
M  V30 2172 C 208.396 -5.16967 -1.36562 0
M  V30 2173 C 209.696 -5.15816 0.820462 0
M  V30 2174 H 211.39 -2.90038 0.742873 0
M  V30 2175 H 208.936 -1.39461 0.358688 0
M  V30 2176 H 210.889 -3.95524 -1.45392 0
M  V30 2177 H 209.613 -2.75095 -1.7604 0
M  V30 2178 H 208.272 -3.66217 0.167623 0
M  V30 2179 H 207.92 -4.55034 -2.14366 0
M  V30 2180 H 207.62 -5.80441 -0.914454 0
M  V30 2181 H 209.144 -5.82003 -1.84675 0
M  V30 2182 H 210.558 -5.71742 0.422366 0
M  V30 2183 H 208.955 -5.8805 1.19656 0
M  V30 2184 H 210.025 -4.55045 1.67518 0
M  V30 2185 N 211.368 -0.403325 -1.52352 0
M  V30 2186 C 212.596 0.174012 -2.06167 0
M  V30 2187 C 213.011 1.39347 -1.27388 0
M  V30 2188 O 212.368 1.79597 -0.324201 0
M  V30 2189 C 212.419 0.530223 -3.5759 0
M  V30 2190 O 212.14 -0.640806 -4.33388 0
M  V30 2191 C 213.641 1.16192 -4.27802 0
M  V30 2192 H 210.861 0.0229464 -0.670608 0
M  V30 2193 H 213.405 -0.572604 -1.9632 0
M  V30 2194 H 211.56 1.22673 -3.67464 0
M  V30 2195 H 211.974 -0.344851 -5.23365 0
M  V30 2196 H 213.448 1.36141 -5.34948 0
M  V30 2197 H 213.925 2.13335 -3.83907 0
M  V30 2198 H 214.531 0.505775 -4.22282 0
M  V30 2199 N 212.846 1.57033 -0.133567 0
M  V30 2200 C 213.776 2.1909 0.807567 0
M  V30 2201 C 214.757 1.13517 1.26681 0
M  V30 2202 O 215.942 1.41809 1.32679 0
M  V30 2203 C 213.072 2.80188 2.05212 0
M  V30 2204 C 212.026 3.91471 1.73015 0
M  V30 2205 C 211.352 4.39443 3.04622 0
M  V30 2206 C 212.652 5.12886 0.987168 0
M  V30 2207 H 214.346 2.97988 0.290403 0
M  V30 2208 H 211.892 1.43335 0.138239 0
M  V30 2209 H 213.845 3.22264 2.71521 0
M  V30 2210 H 212.569 1.98601 2.59278 0
M  V30 2211 H 211.228 3.49993 1.0909 0
M  V30 2212 H 210.876 3.54695 3.56651 0
M  V30 2213 H 210.576 5.14495 2.83847 0
M  V30 2214 H 212.1 4.8418 3.72024 0
M  V30 2215 H 213.514 5.51891 1.55208 0
M  V30 2216 H 211.911 5.93615 0.87985 0
M  V30 2217 H 212.981 4.84894 -0.0235286 0
M  V30 2218 N 214.325 -0.140222 1.56975 0
M  V30 2219 C 215.553 -0.866437 1.87884 0
M  V30 2220 C 215.968 -1.74428 0.722517 0
M  V30 2221 O 215.325 -1.79891 -0.30749 0
M  V30 2222 C 215.376 -1.71753 3.18093 0
M  V30 2223 O 215.097 -0.875056 4.29272 0
M  V30 2224 C 216.598 -2.55074 3.62563 0
M  V30 2225 H 213.818 -0.25019 0.622612 0
M  V30 2226 H 216.362 -0.130977 2.0408 0
M  V30 2227 H 214.517 -2.40598 3.03631 0
M  V30 2228 H 214.931 -1.46002 5.03769 0
M  V30 2229 H 216.405 -3.10356 4.5649 0
M  V30 2230 H 216.882 -3.31434 2.88181 0
M  V30 2231 H 217.488 -1.91509 3.79743 0
M  V30 2232 N 215.803 -1.52179 -0.40978 0
M  V30 2233 C 217.033 -1.69807 -1.17682 0
M  V30 2234 C 217.441 -0.406908 -1.84773 0
M  V30 2235 O 216.784 0.626863 -1.72673 0
M  V30 2236 C 216.846 -2.77712 -2.2829 0
M  V30 2237 C 216.51 -4.19481 -1.81341 0
M  V30 2238 C 217.507 -5.03345 -1.30154 0
M  V30 2239 C 215.192 -4.65713 -1.88194 0
M  V30 2240 C 217.186 -6.31511 -0.864416 0
M  V30 2241 C 214.873 -5.93869 -1.44093 0
M  V30 2242 C 215.871 -6.76597 -0.933023 0
M  V30 2243 O 215.559 -8.02354 -0.49838 0
M  V30 2244 H 215.291 -0.572372 -0.359675 0
M  V30 2245 H 217.845 -1.99511 -0.488311 0
M  V30 2246 H 216.075 -2.43383 -3.00502 0
M  V30 2247 H 217.764 -2.83946 -2.90051 0
M  V30 2248 H 218.53 -4.68819 -1.24232 0
M  V30 2249 H 214.409 -4.01424 -2.26671 0
M  V30 2250 H 217.953 -6.96033 -0.467286 0
M  V30 2251 H 213.85 -6.27903 -1.49694 0
M  V30 2252 H 214.618 -8.16135 -0.621747 0
M  V30 2253 N 217.281 0.66697 -1.42791 0
M  V30 2254 C 218.211 1.79218 -1.49677 0
M  V30 2255 C 219.192 1.66405 -0.352623 0
M  V30 2256 O 220.377 1.85708 -0.567993 0
M  V30 2257 C 217.507 3.17565 -1.40605 0
M  V30 2258 C 216.461 3.45124 -2.53127 0
M  V30 2259 C 215.787 4.83127 -2.29112 0
M  V30 2260 C 217.087 3.41236 -3.95418 0
M  V30 2261 H 218.781 1.73713 -2.43853 0
M  V30 2262 H 216.327 0.83432 -1.17367 0
M  V30 2263 H 218.28 3.96022 -1.44029 0
M  V30 2264 H 217.004 3.23767 -0.429271 0
M  V30 2265 H 215.663 2.69031 -2.49034 0
M  V30 2266 H 215.311 4.85988 -1.29709 0
M  V30 2267 H 215.011 5.02528 -3.04531 0
M  V30 2268 H 216.535 5.63859 -2.34297 0
M  V30 2269 H 217.949 4.09651 -4.01073 0
M  V30 2270 H 216.346 3.72173 -4.70752 0
M  V30 2271 H 217.416 2.39665 -4.21532 0
M  V30 2272 N 218.759 1.29093 0.90403 0
M  V30 2273 C 220.007 1.16583 1.65085 0
M  V30 2274 C 220.328 -0.283933 1.92922 0
M  V30 2275 O 219.598 -1.19509 1.55224 0
M  V30 2276 H 218.178 0.428467 0.611903 0
M  V30 2277 H 220.84 1.61959 1.08422 0
M  V30 2278 H 219.936 1.71266 2.6091 0
M  V30 2279 N 220.237 -1.11381 1.11499 0
M  V30 2280 C 221.485 -1.8277 0.862524 0
M  V30 2281 C 221.806 -1.85097 -0.613534 0
M  V30 2282 O 221.076 -1.32198 -1.4457 0
M  V30 2283 H 219.656 -0.676823 0.316101 0
M  V30 2284 H 222.318 -1.34816 1.4075 0
M  V30 2285 H 221.414 -2.86614 1.23527 0
M  V30 2286 N 221.715 -0.905404 -1.28997 0
M  V30 2287 C 222.625 -0.392246 -2.31298 0
M  V30 2288 C 223.641 0.515889 -1.66176 0
M  V30 2289 O 224.817 0.404093 -1.97304 0
M  V30 2290 C 221.882 0.36686 -3.44754 0
M  V30 2291 C 220.943 -0.573485 -4.25452 0
M  V30 2292 C 220.176 0.149488 -5.33491 0
M  V30 2293 O 220.399 1.37255 -5.5364 0
M  V30 2294 O 219.333 -0.510919 -5.99728 0
M  V30 2295 H 223.159 -1.2411 -2.77183 0
M  V30 2296 H 220.744 -0.669926 -1.33538 0
M  V30 2297 H 222.626 0.795907 -4.13816 0
M  V30 2298 H 221.301 1.19169 -3.00966 0
M  V30 2299 H 220.208 -1.05176 -3.59011 0
M  V30 2300 H 221.541 -1.36489 -4.72897 0
M  V30 2301 N 223.193 1.4272 -0.668489 0
M  V30 2302 C 224.609 1.55992 -0.33745 0
M  V30 2303 C 224.809 1.64933 1.15756 0
M  V30 2304 O 223.865 1.61278 1.94282 0
M  V30 2305 C 225.178 2.81314 -1.06222 0
M  V30 2306 C 226.726 2.95078 -1.04394 0
M  V30 2307 C 227.201 4.23252 -1.74991 0
M  V30 2308 N 228.692 4.3015 -1.71829 0
M  V30 2309 C 229.427 5.28127 -2.23315 0
M  V30 2310 N 228.923 6.32293 -2.83156 0
M  V30 2311 N 230.716 5.19882 -2.13726 0
M  V30 2312 H 222.867 1.3516 -1.63846 0
M  V30 2313 H 225.13 0.650174 -0.689912 0
M  V30 2314 H 224.836 2.80823 -2.11734 0
M  V30 2315 H 224.71 3.72012 -0.62344 0
M  V30 2316 H 227.097 2.951 0.0028244 0
M  V30 2317 H 227.178 2.05627 -1.52155 0
M  V30 2318 H 226.822 4.2399 -2.79633 0
M  V30 2319 H 226.752 5.11626 -1.24685 0
M  V30 2320 H 229.243 3.55499 -1.28175 0
M  V30 2321 H 229.556 7.03398 -3.20079 0
M  V30 2322 H 227.901 6.32873 -2.87223 0
M  V30 2323 H 231.092 4.37423 -1.66669 0
M  V30 2324 H 231.265 5.96077 -2.54158 0
M  V30 2325 N 224.671 0.411399 1.52136 0
M  V30 2326 C 225.917 -0.163888 2.02137 0
M  V30 2327 C 226.25 -1.44597 1.29636 0
M  V30 2328 O 225.525 -1.90272 0.403353 0
M  V30 2329 C 225.808 -0.40927 3.57767 0
M  V30 2330 C 225.661 0.889643 4.40914 0
M  V30 2331 C 226.98 -1.19042 4.23694 0
M  V30 2332 H 224.099 -0.0580896 0.734707 0
M  V30 2333 H 226.741 0.54531 1.82007 0
M  V30 2334 H 224.891 -1.0134 3.7505 0
M  V30 2335 H 226.563 1.52575 4.35337 0
M  V30 2336 H 224.806 1.50011 4.07037 0
M  V30 2337 H 225.477 0.672314 5.4789 0
M  V30 2338 H 227.953 -0.678942 4.10524 0
M  V30 2339 H 226.829 -1.33086 5.32522 0
M  V30 2340 H 227.09 -2.21166 3.82803 0
M  V30 2341 N 226.149 -1.5696 0.141893 0
M  V30 2342 C 227.395 -1.9625 -0.511248 0
M  V30 2343 C 227.728 -1.02654 -1.64851 0
M  V30 2344 O 227.003 -0.0679676 -1.94381 0
M  V30 2345 C 227.286 -3.45285 -1.02227 0
M  V30 2346 C 227.139 -4.49658 0.113138 0
M  V30 2347 C 228.458 -3.96698 -1.90574 0
M  V30 2348 H 225.577 -0.713567 -0.184367 0
M  V30 2349 H 228.219 -1.88698 0.222087 0
M  V30 2350 H 226.369 -3.51852 -1.64719 0
M  V30 2351 H 228.041 -4.55174 0.749302 0
M  V30 2352 H 226.284 -4.26857 0.773026 0
M  V30 2353 H 226.955 -5.51258 -0.286053 0
M  V30 2354 H 229.431 -3.92578 -1.37918 0
M  V30 2355 H 228.307 -5.01453 -2.2324 0
M  V30 2356 H 228.568 -3.3875 -2.84079 0
M  V30 2357 N 227.627 0.131896 -1.57047 0
M  V30 2358 C 228.574 1.16236 -1.99393 0
M  V30 2359 C 229.544 1.41863 -0.863943 0
M  V30 2360 O 230.729 1.53946 -1.12718 0
M  V30 2361 C 227.869 2.48708 -2.39245 0
M  V30 2362 C 226.982 2.30127 -3.65603 0
M  V30 2363 C 226.117 3.55738 -3.94492 0
M  V30 2364 C 225.156 3.32259 -5.14073 0
M  V30 2365 N 224.293 4.50039 -5.38896 0
M  V30 2366 H 229.133 0.794251 -2.87221 0
M  V30 2367 H 226.67 0.380707 -1.42088 0
M  V30 2368 H 228.628 3.25969 -2.60384 0
M  V30 2369 H 227.258 2.83437 -1.54478 0
M  V30 2370 H 226.31 1.43845 -3.52154 0
M  V30 2371 H 227.622 2.08746 -4.5302 0
M  V30 2372 H 226.776 4.41423 -4.1621 0
M  V30 2373 H 225.515 3.80138 -3.05526 0
M  V30 2374 H 224.52 2.44963 -4.92212 0
M  V30 2375 H 225.745 3.09242 -6.04604 0
M  V30 2376 H 223.691 4.74584 -4.52886 0
M  V30 2377 H 223.608 4.31716 -6.2061 0
M  V30 2378 H 224.876 5.36895 -5.65123 0
M  V30 2379 N 229.106 1.52395 0.401703 0
M  V30 2380 C 230.054 1.7689 1.51039 0
M  V30 2381 C 231.048 0.636298 1.56996 0
M  V30 2382 O 232.254 0.818507 1.60314 0
M  V30 2383 H 228.629 0.559502 0.502456 0
M  V30 2384 H 230.6 2.69757 1.27568 0
M  V30 2385 C 229.349 1.94331 2.88324 0
M  V30 2386 H 228.672 2.80905 2.84486 0
M  V30 2387 H 230.112 2.15466 3.65172 0
M  V30 2388 C 228.571 0.712396 3.29282 0
M  V30 2389 O 229.101 -0.116218 4.01532 0
M  V30 2390 N 227.307 0.546154 2.85422 0
M  V30 2391 H 226.854 1.22156 2.26794 0
M  V30 2392 H 226.812 -0.276113 3.13185 0
M  V30 2393 N 230.584 -0.659388 1.43143 0
M  V30 2394 C 231.814 -1.44513 1.47646 0
M  V30 2395 C 232.222 -1.88981 0.0910095 0
M  V30 2396 O 231.565 -1.59702 -0.907789 0
M  V30 2397 C 231.627 -2.71663 2.35456 0
M  V30 2398 C 231.291 -2.49175 3.83094 0
M  V30 2399 C 232.288 -2.1279 4.74359 0
M  V30 2400 C 229.973 -2.63691 4.27519 0
M  V30 2401 C 231.967 -1.9121 6.08044 0
M  V30 2402 C 229.654 -2.41726 5.61259 0
M  V30 2403 C 230.652 -2.0554 6.51339 0
M  V30 2404 O 230.34 -1.838 7.82606 0
M  V30 2405 H 230.072 -0.45064 0.503884 0
M  V30 2406 H 232.626 -0.816248 1.88485 0
M  V30 2407 H 230.856 -3.37089 1.89493 0
M  V30 2408 H 232.545 -3.33595 2.31235 0
M  V30 2409 H 233.311 -2.01157 4.41317 0
M  V30 2410 H 229.19 -2.90832 3.57684 0
M  V30 2411 H 232.734 -1.62889 6.78316 0
M  V30 2412 H 228.631 -2.52959 5.9387 0
M  V30 2413 H 229.399 -1.98275 7.94122 0
M  V30 2414 N 232.062 -1.29571 -0.897171 0
M  V30 2415 C 233.01 -1.14802 -2.02295 0
M  V30 2416 C 234.004 -0.0629637 -1.69283 0
M  V30 2417 O 235.21 -0.222945 -1.78614 0
M  V30 2418 H 231.585 -0.354692 -0.663097 0
M  V30 2419 H 233.556 -2.10108 -2.11889 0
M  V30 2420 C 232.305 -0.843966 -3.37302 0
M  V30 2421 H 231.628 -1.67093 -3.63208 0
M  V30 2422 H 233.068 -0.780672 -4.16751 0
M  V30 2423 C 231.527 0.452843 -3.33843 0
M  V30 2424 O 232.057 1.47813 -3.73516 0
M  V30 2425 N 230.263 0.459601 -2.86943 0
M  V30 2426 H 229.81 -0.375213 -2.54853 0
M  V30 2427 H 229.768 1.32726 -2.85011 0
M  V30 2428 N 233.54 1.10788 -1.12088 0
M  V30 2429 C 234.786 1.82942 -0.875226 0
M  V30 2430 C 235.119 1.84779 0.597538 0
M  V30 2431 O 234.394 1.30578 1.44152 0
M  V30 2432 C 234.677 3.29789 -1.44606 0
M  V30 2433 C 234.53 3.36307 -2.98693 0
M  V30 2434 C 235.849 4.26064 -1.10261 0
M  V30 2435 H 232.968 0.664195 -0.319397 0
M  V30 2436 H 235.61 1.29867 -1.38689 0
M  V30 2437 H 233.76 3.75118 -1.01089 0
M  V30 2438 H 235.432 2.99487 -3.50864 0
M  V30 2439 H 233.675 2.76318 -3.34411 0
M  V30 2440 H 234.346 4.39694 -3.33726 0
M  V30 2441 H 236.822 3.88951 -1.4784 0
M  V30 2442 H 235.698 5.27183 -1.52869 0
M  V30 2443 H 235.959 4.42098 -0.0142953 0
M  V30 2444 N 235.018 0.912232 1.28515 0
M  V30 2445 C 235.951 0.343928 2.25593 0
M  V30 2446 C 236.929 -0.550994 1.5298 0
M  V30 2447 O 238.113 -0.494991 1.81885 0
M  V30 2448 C 235.24 -0.508525 3.34861 0
M  V30 2449 C 234.286 0.320808 4.25292 0
M  V30 2450 S 235.119 1.72658 5.06902 0
M  V30 2451 C 236.275 0.881394 6.19663 0
M  V30 2452 H 236.508 1.16674 2.73449 0
M  V30 2453 H 234.041 0.713384 1.36931 0
M  V30 2454 H 235.999 -0.994539 3.9827 0
M  V30 2455 H 234.66 -1.30571 2.85675 0
M  V30 2456 H 233.853 -0.330941 5.02912 0
M  V30 2457 H 233.455 0.74042 3.66598 0
M  V30 2458 H 235.747 0.110359 6.7741 0
M  V30 2459 H 236.69 1.63009 6.89082 0
M  V30 2460 H 237.098 0.430239 5.62858 0
M  V30 2461 N 236.496 -1.42363 0.676048 0
M  V30 2462 C 237.744 -2.01123 0.198437 0
M  V30 2463 C 238.065 -1.53731 -1.19966 0
M  V30 2464 O 237.335 -0.759518 -1.80577 0
M  V30 2465 H 235.915 -0.743678 0.0703721 0
M  V30 2466 H 238.577 -1.74263 0.872837 0
M  V30 2467 H 237.673 -3.11454 0.200686 0
M  V30 2468 N 237.974 -0.419461 -1.51915 0
M  V30 2469 C 239.22 0.153166 -2.02221 0
M  V30 2470 C 239.553 1.43907 -1.30401 0
M  V30 2471 O 238.828 1.90055 -0.413438 0
M  V30 2472 C 239.111 0.390291 -3.57979 0
M  V30 2473 C 238.964 -0.913014 -4.40436 0
M  V30 2474 C 240.283 1.16794 -4.2432 0
M  V30 2475 H 237.402 0.0541924 -0.735005 0
M  V30 2476 H 240.044 -0.554955 -1.81715 0
M  V30 2477 H 238.194 0.993491 -3.75582 0
M  V30 2478 H 239.866 -1.54882 -4.34522 0
M  V30 2479 H 238.109 -1.52168 -4.06236 0
M  V30 2480 H 238.78 -0.701361 -5.47526 0
M  V30 2481 H 241.256 0.657161 -4.10878 0
M  V30 2482 H 240.132 1.3026 -5.3322 0
M  V30 2483 H 240.393 2.19132 -3.83971 0
M  V30 2484 N 239.452 1.56882 -0.150215 0
M  V30 2485 C 240.415 2.1573 0.774157 0
M  V30 2486 C 241.415 1.0999 1.17298 0
M  V30 2487 O 242.605 1.35613 1.09338 0
M  V30 2488 C 239.737 2.72302 2.05096 0
M  V30 2489 H 240.93 2.98752 0.262201 0
M  V30 2490 H 238.483 1.55985 0.099248 0
M  V30 2491 H 239.218 1.92956 2.6065 0
M  V30 2492 H 239.003 3.49665 1.77416 0
M  V30 2493 H 240.493 3.17632 2.71109 0
M  V30 2494 N 240.93 -0.123565 1.57115 0
M  V30 2495 C 241.877 -1.15177 2.00007 0
M  V30 2496 C 242.847 -1.41403 0.871454 0
M  V30 2497 O 244.032 -1.53346 1.13533 0
M  V30 2498 C 241.172 -2.47436 2.40561 0
M  V30 2499 C 240.285 -2.28184 3.66819 0
M  V30 2500 C 239.42 -3.53641 3.96373 0
M  V30 2501 C 238.459 -3.29528 5.15827 0
M  V30 2502 N 237.596 -4.47175 5.41275 0
M  V30 2503 H 242.436 -0.779008 2.87638 0
M  V30 2504 H 239.973 -0.373166 1.42288 0
M  V30 2505 H 241.931 -3.24584 2.62109 0
M  V30 2506 H 240.561 -2.82614 1.55978 0
M  V30 2507 H 239.613 -1.41976 3.52912 0
M  V30 2508 H 240.925 -2.0634 4.5412 0
M  V30 2509 H 240.079 -4.39209 4.18545 0
M  V30 2510 H 238.818 -3.78512 3.07538 0
M  V30 2511 H 237.823 -2.42349 4.93505 0
M  V30 2512 H 239.048 -3.06031 6.06236 0
M  V30 2513 H 236.994 -4.72175 4.55397 0
M  V30 2514 H 236.911 -4.28419 6.22891 0
M  V30 2515 H 238.179 -5.3389 5.67963 0
M  V30 2516 N 242.408 -1.52605 -0.393616 0
M  V30 2517 C 243.371 -1.76415 -1.46323 0
M  V30 2518 C 244.371 -0.634126 -1.47768 0
M  V30 2519 O 245.561 -0.902142 -1.4902 0
M  V30 2520 C 242.693 -1.8607 -2.85641 0
M  V30 2521 H 243.886 -2.71916 -1.26498 0
M  V30 2522 H 241.439 -1.43257 -0.625073 0
M  V30 2523 H 242.174 -0.925378 -3.10817 0
M  V30 2524 H 241.959 -2.68235 -2.85993 0
M  V30 2525 H 243.449 -2.06179 -3.63153 0
M  V30 2526 N 243.887 0.651787 -1.4349 0
M  V30 2527 C 245.112 1.44434 -1.48841 0
M  V30 2528 C 245.537 1.8779 -0.107955 0
M  V30 2529 O 244.895 1.57464 0.898602 0
M  V30 2530 C 244.943 2.65458 -2.44059 0
M  V30 2531 O 244.047 3.64566 -1.92784 0
M  V30 2532 H 243.388 0.433005 -0.503391 0
M  V30 2533 H 245.918 0.797451 -1.88419 0
M  V30 2534 H 245.928 3.13255 -2.6141 0
M  V30 2535 H 244.603 2.33244 -3.4434 0
M  V30 2536 H 243.18 3.23716 -1.851 0
M  V30 2537 N 245.365 1.30045 0.890287 0
M  V30 2538 C 246.295 1.18541 2.01172 0
M  V30 2539 C 247.276 0.0773356 1.69924 0
M  V30 2540 O 248.461 0.25845 1.92473 0
M  V30 2541 C 245.591 0.870941 3.36202 0
M  V30 2542 C 244.545 1.93637 3.81692 0
M  V30 2543 C 243.871 1.475 5.13953 0
M  V30 2544 C 245.171 3.34666 4.00994 0
M  V30 2545 H 246.865 2.12359 2.11054 0
M  V30 2546 H 244.411 1.02238 1.01407 0
M  V30 2547 H 246.364 0.777141 4.14172 0
M  V30 2548 H 245.088 -0.102926 3.26438 0
M  V30 2549 H 243.747 2.01972 3.05946 0
M  V30 2550 H 243.395 0.489551 5.00612 0
M  V30 2551 H 243.095 2.1876 5.4536 0
M  V30 2552 H 244.619 1.39489 5.94454 0
M  V30 2553 H 246.033 3.2912 4.69417 0
M  V30 2554 H 244.43 4.03966 4.43769 0
M  V30 2555 H 245.5 3.76949 3.05021 0
M  V30 2556 N 246.843 -1.10192 1.12674 0
M  V30 2557 C 247.753 -2.20172 0.810026 0
M  V30 2558 C 248.769 -1.72821 -0.202188 0
M  V30 2559 O 249.945 -2.01369 -0.0351691 0
M  V30 2560 C 247.01 -3.45631 0.272007 0
M  V30 2561 C 246.071 -4.07704 1.34447 0
M  V30 2562 C 245.304 -5.27175 0.832029 0
M  V30 2563 O 245.527 -5.69425 -0.333284 0
M  V30 2564 O 244.461 -5.80168 1.60277 0
M  V30 2565 H 248.287 -2.49701 1.72867 0
M  V30 2566 H 245.872 -1.18977 0.903597 0
M  V30 2567 H 247.754 -4.21394 -0.0230219 0
M  V30 2568 H 246.429 -3.17723 -0.619164 0
M  V30 2569 H 245.336 -3.33614 1.6927 0
M  V30 2570 H 246.669 -4.3982 2.2095 0
M  V30 2571 N 248.321 -0.919034 -1.28029 0
M  V30 2572 C 249.284 -0.416182 -2.2539 0
M  V30 2573 C 250.284 0.460438 -1.54067 0
M  V30 2574 O 251.474 0.262744 -1.72207 0
M  V30 2575 C 248.606 0.402707 -3.38513 0
M  V30 2576 H 249.799 -1.27629 -2.71387 0
M  V30 2577 H 247.352 -0.698919 -1.39803 0
M  V30 2578 H 248.087 1.282 -2.97885 0
M  V30 2579 H 247.872 -0.225698 -3.9145 0
M  V30 2580 H 249.362 0.745191 -4.10897 0
M  V30 2581 N 249.799 1.42003 -0.683588 0
M  V30 2582 C 251.024 2.06265 -0.216647 0
M  V30 2583 C 251.449 1.51059 1.12083 0
M  V30 2584 O 250.807 0.632638 1.69904 0
M  V30 2585 C 250.855 3.60191 -0.171759 0
M  V30 2586 O 249.959 4.03396 0.857069 0
M  V30 2587 H 249.3 0.65502 -0.108834 0
M  V30 2588 H 251.83 1.81982 -0.935077 0
M  V30 2589 H 251.84 4.08 0.0014303 0
M  V30 2590 H 250.515 3.99743 -1.14796 0
M  V30 2591 H 249.092 3.67117 0.654208 0
M  V30 2592 N 251.277 0.427512 1.51691 0
M  V30 2593 C 252.523 -0.142439 2.02299 0
M  V30 2594 C 252.856 -1.43214 1.31162 0
M  V30 2595 O 252.131 -1.89833 0.423511 0
M  V30 2596 C 252.414 -0.371301 3.58181 0
M  V30 2597 C 252.267 0.936358 4.39946 0
M  V30 2598 C 253.586 -1.14542 4.24933 0
M  V30 2599 H 250.705 -0.0502937 0.735282 0
M  V30 2600 H 253.347 0.564584 1.81418 0
M  V30 2601 H 251.497 -0.973559 3.76104 0
M  V30 2602 H 253.169 1.57184 4.33694 0
M  V30 2603 H 251.412 1.5432 4.05423 0
M  V30 2604 H 252.083 0.730388 5.47147 0
M  V30 2605 H 254.559 -0.635362 4.11221 0
M  V30 2606 H 253.435 -1.27431 5.33903 0
M  V30 2607 H 253.696 -2.17093 3.85127 0
M  V30 2608 N 252.755 -1.56801 0.158532 0
M  V30 2609 C 253.702 -2.17337 -0.776729 0
M  V30 2610 C 254.672 -1.1096 -1.23601 0
M  V30 2611 O 255.857 -1.39054 -1.30647 0
M  V30 2612 C 252.997 -2.80822 -2.00582 0
M  V30 2613 C 252.11 -4.01624 -1.59129 0
M  V30 2614 C 251.245 -4.53072 -2.77306 0
M  V30 2615 C 250.284 -5.66314 -2.32282 0
M  V30 2616 N 249.421 -6.12329 -3.43508 0
M  V30 2617 H 254.261 -2.96918 -0.253701 0
M  V30 2618 H 251.798 -1.46661 -0.113504 0
M  V30 2619 H 253.756 -3.15779 -2.72652 0
M  V30 2620 H 252.386 -2.03866 -2.50277 0
M  V30 2621 H 251.438 -3.72571 -0.767806 0
M  V30 2622 H 252.75 -4.83633 -1.2207 0
M  V30 2623 H 251.904 -4.90145 -3.57551 0
M  V30 2624 H 250.643 -3.70095 -3.17617 0
M  V30 2625 H 249.648 -5.28806 -1.5048 0
M  V30 2626 H 250.873 -6.51085 -1.93043 0
M  V30 2627 H 248.819 -5.32284 -3.83418 0
M  V30 2628 H 248.736 -6.89293 -3.105 0
M  V30 2629 H 250.004 -6.5405 -4.24075 0
M  V30 2630 N 254.233 0.115231 -1.57178 0
M  V30 2631 C 255.463 0.835224 -1.88964 0
M  V30 2632 C 255.871 1.73774 -0.74829 0
M  V30 2633 O 255.214 1.81401 0.289739 0
M  V30 2634 C 255.276 1.7178 -3.15804 0
M  V30 2635 C 254.94 0.989198 -4.46166 0
M  V30 2636 C 255.937 0.328263 -5.18863 0
M  V30 2637 C 253.622 0.969256 -4.9286 0
M  V30 2638 C 255.616 -0.342873 -6.36477 0
M  V30 2639 C 253.303 0.294324 -6.10391 0
M  V30 2640 C 254.301 -0.360582 -6.82048 0
M  V30 2641 O 253.989 -1.02474 -7.97342 0
M  V30 2642 H 253.721 0.245197 -0.629964 0
M  V30 2643 H 256.275 0.10303 -2.05141 0
M  V30 2644 H 254.505 2.49173 -2.95719 0
M  V30 2645 H 256.194 2.31255 -3.33581 0
M  V30 2646 H 256.96 0.335263 -4.8384 0
M  V30 2647 H 252.839 1.46844 -4.36987 0
M  V30 2648 H 256.383 -0.854629 -6.92345 0
M  V30 2649 H 252.28 0.285099 -6.4487 0
M  V30 2650 H 253.048 -0.929594 -8.13204 0
M  V30 2651 N 255.711 1.52812 0.385517 0
M  V30 2652 C 256.641 1.80808 1.47752 0
M  V30 2653 C 257.622 0.660318 1.5676 0
M  V30 2654 O 258.807 0.908246 1.71652 0
M  V30 2655 C 255.937 1.98008 2.85324 0
M  V30 2656 C 254.891 3.13709 2.91154 0
M  V30 2657 C 254.217 3.16169 4.31209 0
M  V30 2658 C 255.517 4.52709 2.60483 0
M  V30 2659 H 257.211 2.72253 1.24573 0
M  V30 2660 H 254.757 1.31003 0.597839 0
M  V30 2661 H 256.71 2.16176 3.61726 0
M  V30 2662 H 255.434 1.03255 3.09848 0
M  V30 2663 H 254.093 2.95329 2.17201 0
M  V30 2664 H 253.741 2.19092 4.52778 0
M  V30 2665 H 253.441 3.93894 4.36029 0
M  V30 2666 H 254.965 3.36496 5.09512 0
M  V30 2667 H 256.379 4.71173 3.26602 0
M  V30 2668 H 254.776 5.32528 2.76648 0
M  V30 2669 H 255.846 4.59186 1.55809 0
M  V30 2670 N 257.189 -0.644168 1.43834 0
M  V30 2671 C 258.152 -1.73857 1.49353 0
M  V30 2672 C 259.152 -1.56315 0.377112 0
M  V30 2673 O 260.342 -1.62048 0.639226 0
M  V30 2674 C 257.474 -3.12819 1.35488 0
M  V30 2675 H 258.667 -1.70342 2.46827 0
M  V30 2676 H 256.22 -0.856652 1.30733 0
M  V30 2677 H 256.955 -3.2194 0.390569 0
M  V30 2678 H 256.74 -3.26958 2.16428 0
M  V30 2679 H 258.23 -3.92606 1.42302 0
M  V30 2680 N 258.668 -1.30515 -0.883378 0
M  V30 2681 C 259.616 -1.16941 -2.01066 0
M  V30 2682 C 260.61 -0.0809148 -1.69207 0
M  V30 2683 O 261.816 -0.241877 -1.78367 0
M  V30 2684 H 258.191 -0.361705 -0.659298 0
M  V30 2685 H 260.162 -2.12344 -2.09649 0
M  V30 2686 C 258.911 -0.879694 -3.36388 0
M  V30 2687 H 258.234 -1.70936 -3.61415 0
M  V30 2688 H 259.674 -0.82483 -4.159 0
M  V30 2689 C 258.133 0.417409 -3.34304 0
M  V30 2690 O 258.663 1.43843 -3.75063 0
M  V30 2691 N 256.869 0.429141 -2.87414 0
M  V30 2692 H 256.416 -0.402222 -2.5444 0
M  V30 2693 H 256.374 1.29696 -2.86403 0
M  V30 2694 N 260.146 1.09593 -1.13257 0
M  V30 2695 C 261.423 1.78293 -0.804432 0
M  V30 2696 C 261.803 1.99004 0.70431 0
M  V30 2697 O 261.151 1.59007 1.641 0
M  V30 2698 C 261.361 3.10707 -1.5894 0
M  V30 2699 C 262.709 3.85443 -1.78099 0
M  V30 2700 O 263.733 3.20454 -1.55525 0
M  V30 2701 O 262.592 5.02108 -2.15753 0
M  V30 2702 H 259.686 0.773156 -0.293528 0
M  V30 2703 H 262.232 1.16164 -1.23709 0
M  V30 2704 H 261.004 2.91106 -2.61482 0
M  V30 2705 H 260.627 3.80558 -1.15157 0
M  V30 2706 N 261.624 0.925811 1.2754 0
M  V30 2707 C 262.554 0.440748 2.29303 0
M  V30 2708 C 263.535 -0.497971 1.62648 0
M  V30 2709 O 264.72 -0.403126 1.8997 0
M  V30 2710 C 261.85 -0.309048 3.45922 0
M  V30 2711 C 260.804 0.54166 4.24559 0
M  V30 2712 C 260.13 -0.337191 5.33636 0
M  V30 2713 C 261.43 1.80516 4.90114 0
M  V30 2714 H 263.124 1.29121 2.70126 0
M  V30 2715 H 260.67 0.622323 1.29858 0
M  V30 2716 H 262.623 -0.659315 4.1621 0
M  V30 2717 H 261.347 -1.19352 3.04011 0
M  V30 2718 H 260.006 0.874609 3.56014 0
M  V30 2719 H 259.654 -1.22056 4.87966 0
M  V30 2720 H 259.354 0.228497 5.87156 0
M  V30 2721 H 260.878 -0.683072 6.06767 0
M  V30 2722 H 262.292 1.52307 5.52698 0
M  V30 2723 H 260.689 2.3142 5.53683 0
M  V30 2724 H 261.759 2.52581 4.13921 0
M  V30 2725 N 263.102 -1.41638 0.69111 0
M  V30 2726 C 264.35 -2.00902 0.219758 0
M  V30 2727 C 264.671 -1.54994 -1.18329 0
M  V30 2728 O 263.941 -0.778628 -1.79762 0
M  V30 2729 H 262.521 -0.74289 0.0782558 0
M  V30 2730 H 265.183 -1.73327 0.891271 0
M  V30 2731 H 264.279 -3.11224 0.233708 0
M  V30 2732 N 264.58 -0.43555 -1.51462 0
M  V30 2733 C 265.512 0.41257 -2.25456 0
M  V30 2734 C 266.525 0.987822 -1.29406 0
M  V30 2735 O 267.714 0.882266 -1.55172 0
M  V30 2736 C 264.814 1.58894 -2.99342 0
M  V30 2737 C 263.987 1.13288 -4.22474 0
M  V30 2738 C 263.046 2.17917 -4.78956 0
M  V30 2739 O 262.072 1.77425 -5.40841 0
M  V30 2740 N 263.274 3.50382 -4.62832 0
M  V30 2741 H 266.039 -0.221603 -2.9888 0
M  V30 2742 H 263.6 -0.264342 -1.59727 0
M  V30 2743 H 265.592 2.28508 -3.34015 0
M  V30 2744 H 264.162 2.12849 -2.28941 0
M  V30 2745 H 263.382 0.263881 -3.93316 0
M  V30 2746 H 264.67 0.805542 -5.02383 0
M  V30 2747 H 264.068 3.86013 -4.13534 0
M  V30 2748 H 262.625 4.15895 -5.01871 0
M  V30 2749 N 266.058 1.56714 -0.166846 0
M  V30 2750 C 267.008 2.14338 0.777382 0
M  V30 2751 C 267.992 1.07642 1.19591 0
M  V30 2752 O 269.184 1.33775 1.15902 0
M  V30 2753 C 266.313 2.78417 2.00846 0
M  V30 2754 C 265.399 3.92264 1.61212 0
M  V30 2755 N 265.79 4.97268 0.925104 0
M  V30 2756 C 264.088 4.03342 1.90346 0
M  V30 2757 C 264.789 5.77093 0.730627 0
M  V30 2758 N 263.765 5.2854 1.27067 0
M  V30 2759 H 267.567 2.9289 0.243466 0
M  V30 2760 H 265.081 1.62364 0.0339954 0
M  V30 2761 H 267.078 3.18073 2.69509 0
M  V30 2762 H 265.738 2.01344 2.54736 0
M  V30 2763 H 266.749 5.14601 0.583646 0
M  V30 2764 H 263.426 3.37368 2.45946 0
M  V30 2765 H 264.816 6.71638 0.187668 0
M  V30 2766 N 267.536 -0.106894 1.57237 0
M  V30 2767 C 268.784 -0.810921 1.85117 0
M  V30 2768 C 269.105 -1.7984 0.753827 0
M  V30 2769 O 268.375 -1.94649 -0.221056 0
M  V30 2770 H 266.955 -0.302466 0.683025 0
M  V30 2771 H 269.617 -0.0913324 1.94686 0
M  V30 2772 H 268.713 -1.34875 2.81452 0
M  V30 2773 N 269.014 -1.53014 -0.377408 0
M  V30 2774 C 270.263 -1.67845 -1.11853 0
M  V30 2775 C 270.576 -0.430625 -1.90801 0
M  V30 2776 O 271.782 -0.459261 -2.67587 0
M  V30 2777 C 270.238 -2.96668 -2.03756 0
M  V30 2778 C 269.846 -4.28671 -1.30175 0
M  V30 2779 C 271.59 -3.20865 -2.77932 0
M  V30 2780 C 269.497 -5.48591 -2.20911 0
M  V30 2781 H 268.427 -0.625343 -0.421263 0
M  V30 2782 H 271.078 -1.79514 -0.380409 0
M  V30 2783 H 269.46 -2.78773 -2.8125 0
M  V30 2784 H 270.634 -4.57157 -0.578259 0
M  V30 2785 H 268.949 -4.10825 -0.679108 0
M  V30 2786 H 271.546 -4.07642 -3.46024 0
M  V30 2787 H 271.889 -2.36424 -3.4265 0
M  V30 2788 H 272.422 -3.39379 -2.07525 0
M  V30 2789 H 269.161 -6.35474 -1.6079 0
M  V30 2790 H 268.681 -5.244 -2.91144 0
M  V30 2791 H 270.36 -5.8292 -2.80736 0
M  V30 2792 N 270.492 0.636531 -1.44174 0
M  V30 2793 C 271.908 0.954104 -1.27941 0
M  V30 2794 C 272.108 2.0039 -0.211248 0
M  V30 2795 O 271.164 2.49236 0.404695 0
M  V30 2796 C 272.477 1.4225 -2.64925 0
M  V30 2797 C 274.025 1.53827 -2.72592 0
M  V30 2798 C 274.5 2.04053 -4.10032 0
M  V30 2799 N 275.991 2.11331 -4.12182 0
M  V30 2800 C 276.726 2.51352 -5.15374 0
M  V30 2801 N 276.222 2.90549 -6.2893 0
M  V30 2802 N 278.015 2.51438 -5.02728 0
M  V30 2803 H 270.166 -0.0578386 -2.12321 0
M  V30 2804 H 272.429 0.0367406 -0.947288 0
M  V30 2805 H 272.135 0.725466 -3.44136 0
M  V30 2806 H 272.009 2.39451 -2.9145 0
M  V30 2807 H 274.396 2.22628 -1.93702 0
M  V30 2808 H 274.477 0.550154 -2.49814 0
M  V30 2809 H 274.121 1.35848 -4.89395 0
M  V30 2810 H 274.051 3.03726 -4.30184 0
M  V30 2811 H 276.542 1.83745 -3.30222 0
M  V30 2812 H 276.855 3.19884 -7.03487 0
M  V30 2813 H 275.2 2.88313 -6.32377 0
M  V30 2814 H 278.391 2.20203 -4.13072 0
M  V30 2815 H 278.564 2.82304 -5.83274 0
M  V30 2816 N 271.97 1.30982 0.876444 0
M  V30 2817 C 273.216 1.20474 1.63138 0
M  V30 2818 C 273.549 -0.238096 1.92735 0
M  V30 2819 O 272.824 -1.1692 1.55435 0
M  V30 2820 C 273.107 2.04244 2.96574 0
M  V30 2821 C 272.96 3.56793 2.73896 0
M  V30 2822 C 274.279 1.88684 3.97601 0
M  V30 2823 H 271.398 0.439001 0.591985 0
M  V30 2824 H 274.04 1.60704 1.01361 0
M  V30 2825 H 272.19 1.70063 3.493 0
M  V30 2826 H 273.862 4.01077 2.27892 0
M  V30 2827 H 272.105 3.80548 2.08245 0
M  V30 2828 H 272.776 4.10706 3.68815 0
M  V30 2829 H 275.252 2.18584 3.54062 0
M  V30 2830 H 274.128 2.4961 4.88862 0
M  V30 2831 H 274.389 0.848343 4.33884 0
M  V30 2832 N 273.449 -1.08991 1.13837 0
M  V30 2833 C 274.397 -2.17841 0.815347 0
M  V30 2834 C 275.391 -1.68164 -0.204233 0
M  V30 2835 O 276.597 -1.79897 -0.0609304 0
M  V30 2836 H 272.972 -0.710654 0.245915 0
M  V30 2837 H 274.943 -2.42315 1.74143 0
M  V30 2838 C 273.692 -3.46381 0.302614 0
M  V30 2839 H 273.015 -3.84979 1.0785 0
M  V30 2840 H 274.455 -4.23844 0.115074 0
M  V30 2841 C 272.914 -3.22556 -0.972591 0
M  V30 2842 O 273.444 -3.45599 -2.04754 0
M  V30 2843 N 271.65 -2.76134 -0.905455 0
M  V30 2844 H 271.197 -2.57582 -0.0305421 0
M  V30 2845 H 271.155 -2.60571 -1.75926 0
M  V30 2846 N 274.927 -0.932562 -1.27047 0
M  V30 2847 C 275.89 -0.440064 -2.24936 0
M  V30 2848 C 276.89 0.444071 -1.54547 0
M  V30 2849 O 278.08 0.244465 -1.72476 0
M  V30 2850 C 275.212 0.36678 -3.38921 0
M  V30 2851 H 276.405 -1.305 -2.70018 0
M  V30 2852 H 273.958 -0.713707 -1.39054 0
M  V30 2853 H 274.693 1.25033 -2.99228 0
M  V30 2854 H 274.478 -0.267204 -3.91188 0
M  V30 2855 H 275.968 0.701567 -4.11665 0
M  V30 2856 N 276.405 1.4127 -0.698611 0
M  V30 2857 C 277.654 2.00408 -0.227949 0
M  V30 2858 C 277.967 1.55981 1.18023 0
M  V30 2859 O 279.173 2.07699 1.74852 0
M  V30 2860 C 277.629 3.58129 -0.356636 0
M  V30 2861 C 277.237 4.11536 -1.77037 0
M  V30 2862 C 278.981 4.24466 0.0540969 0
M  V30 2863 C 276.888 5.61701 -1.85055 0
M  V30 2864 H 275.818 0.749586 -0.0814657 0
M  V30 2865 H 278.469 1.61713 -0.867249 0
M  V30 2866 H 276.851 3.94442 0.350965 0
M  V30 2867 H 278.025 3.86636 -2.50698 0
M  V30 2868 H 276.34 3.57736 -2.13105 0
M  V30 2869 H 278.937 5.34698 0.0146723 0
M  V30 2870 H 279.28 4.01687 1.09332 0
M  V30 2871 H 279.813 3.93198 -0.603337 0
M  V30 2872 H 276.552 5.89312 -2.8704 0
M  V30 2873 H 276.072 5.88519 -1.15783 0
M  V30 2874 H 277.751 6.26524 -1.61484 0
M  V30 2875 N 277.883 0.443576 1.51229 0
M  V30 2876 C 279.108 -0.121648 2.07043 0
M  V30 2877 C 279.533 -1.35156 1.30823 0
M  V30 2878 O 278.891 -1.7793 0.347934 0
M  V30 2879 C 278.939 -0.41624 3.5819 0
M  V30 2880 O 278.043 -1.50163 3.8409 0
M  V30 2881 H 277.384 0.000871367 0.663999 0
M  V30 2882 H 279.914 0.626706 1.94765 0
M  V30 2883 H 279.924 -0.664867 4.02546 0
M  V30 2884 H 278.599 0.482653 4.1309 0
M  V30 2885 H 277.176 -1.24248 3.51592 0
M  V30 2886 N 279.361 -1.56624 0.175154 0
M  V30 2887 C 280.324 -2.16934 -0.739738 0
M  V30 2888 C 281.324 -1.11842 -1.15533 0
M  V30 2889 O 282.514 -1.37335 -1.07167 0
M  V30 2890 C 279.646 -2.75531 -2.00738 0
M  V30 2891 H 280.839 -2.99131 -0.214639 0
M  V30 2892 H 278.392 -1.56123 -0.0744197 0
M  V30 2893 H 279.127 -1.97078 -2.57548 0
M  V30 2894 H 278.912 -3.52444 -1.71831 0
M  V30 2895 H 280.402 -3.21904 -2.66021 0
M  V30 2896 N 280.839 0.0985539 -1.57292 0
M  V30 2897 C 282.087 0.801092 -1.85545 0
M  V30 2898 C 282.408 1.79438 -0.763353 0
M  V30 2899 O 281.678 1.94763 0.21073 0
M  V30 2900 H 280.258 0.29884 -0.684619 0
M  V30 2901 H 282.92 0.0810064 -1.94732 0
M  V30 2902 H 282.016 1.3338 -2.82163 0
M  V30 2903 N 282.317 1.53212 0.369288 0
M  V30 2904 C 283.728 1.60943 0.946276 0
M  V30 2905 C 284.079 0.47452 1.90375 0
M  V30 2906 O 283.204 -0.399597 2.12679 0
M  V30 2907 C 283.799 2.91715 1.72302 0
M  V30 2908 C 282.358 3.01792 2.24941 0
M  V30 2909 C 281.505 2.56211 1.06072 0
M  V30 2910 H 284.456 1.58007 0.148198 0
M  V30 2911 H 284.477 2.79309 2.58393 0
M  V30 2912 H 283.989 3.74295 1.0259 0
M  V30 2913 H 282.09 2.23791 2.97906 0
M  V30 2914 H 282.203 4.06803 2.53077 0
M  V30 2915 H 280.567 2.10998 1.4266 0
M  V30 2916 H 281.35 3.41206 0.378639 0
M  V30 2917 N 283.795 -0.628877 1.44509 0
M  V30 2918 C 285.044 -1.38437 1.4669 0
M  V30 2919 C 285.357 -1.95322 0.104272 0
M  V30 2920 O 286.563 -2.715 0.00362163 0
M  V30 2921 C 285.019 -2.50659 2.5826 0
M  V30 2922 C 284.627 -2.00277 4.0074 0
M  V30 2923 C 286.371 -3.27844 2.69664 0
M  V30 2924 C 284.278 -3.09854 5.0373 0
M  V30 2925 H 283.208 -0.520245 0.545766 0
M  V30 2926 H 285.859 -0.676313 1.70582 0
M  V30 2927 H 284.241 -3.2405 2.27612 0
M  V30 2928 H 285.415 -1.33736 4.40966 0
M  V30 2929 H 283.73 -1.35901 3.93599 0
M  V30 2930 H 286.327 -4.09534 3.43781 0
M  V30 2931 H 286.67 -3.77471 1.75559 0
M  V30 2932 H 287.203 -2.61543 2.99733 0
M  V30 2933 H 283.942 -2.65168 5.99472 0
M  V30 2934 H 283.462 -3.7503 4.68095 0
M  V30 2935 H 285.141 -3.74592 5.27532 0
M  V30 2936 N 285.273 -1.31445 -0.869486 0
M  V30 2937 C 286.689 -1.10113 -1.15531 0
M  V30 2938 C 286.889 0.128087 -2.01092 0
M  V30 2939 O 285.945 0.817276 -2.38908 0
M  V30 2940 C 287.258 -2.37291 -1.84698 0
M  V30 2941 C 288.806 -2.42906 -1.97397 0
M  V30 2942 C 289.281 -3.69967 -2.69979 0
M  V30 2943 N 290.772 -3.70864 -2.77514 0
M  V30 2944 C 291.507 -4.65875 -3.34287 0
M  V30 2945 N 291.003 -5.71242 -3.91988 0
M  V30 2946 N 292.796 -4.53394 -3.3225 0
M  V30 2947 H 284.947 -2.1028 -0.299347 0
M  V30 2948 H 287.21 -0.927683 -0.195214 0
M  V30 2949 H 286.916 -3.27078 -1.29278 0
M  V30 2950 H 286.79 -2.47125 -2.84972 0
M  V30 2951 H 289.177 -1.53588 -2.51982 0
M  V30 2952 H 289.258 -2.37036 -0.961643 0
M  V30 2953 H 288.902 -4.59652 -2.16062 0
M  V30 2954 H 288.832 -3.73103 -3.7162 0
M  V30 2955 H 291.323 -2.94697 -2.36563 0
M  V30 2956 H 291.636 -6.39817 -4.33421 0
M  V30 2957 H 289.981 -5.75015 -3.90362 0
M  V30 2958 H 293.172 -3.70252 -2.8641 0
M  V30 2959 H 293.345 -5.27617 -3.76197 0
M  V30 2960 N 286.751 1.08385 -1.14413 0
M  V30 2961 C 287.979 1.84517 -0.936001 0
M  V30 2962 C 288.394 1.81626 0.515503 0
M  V30 2963 O 287.751 1.22008 1.35721 0
M  V30 2964 C 287.802 3.32049 -1.42918 0
M  V30 2965 O 287.523 3.34951 -2.82381 0
M  V30 2966 C 289.024 4.24986 -1.26103 0
M  V30 2967 H 286.244 0.582491 -0.333084 0
M  V30 2968 H 288.788 1.36885 -1.5193 0
M  V30 2969 H 286.943 3.7707 -0.888641 0
M  V30 2970 H 287.357 4.27048 -3.04517 0
M  V30 2971 H 288.831 5.26615 -1.6547 0
M  V30 2972 H 289.308 4.38726 -0.20392 0
M  V30 2973 H 289.914 3.85791 -1.79012 0
M  V30 2974 N 288.23 0.939286 1.26551 0
M  V30 2975 C 289.16 0.465044 2.28822 0
M  V30 2976 C 290.141 -0.480692 1.63167 0
M  V30 2977 O 291.326 -0.382955 1.90387 0
M  V30 2978 C 288.456 -0.27234 3.46231 0
M  V30 2979 C 287.41 0.58666 4.2396 0
M  V30 2980 C 286.736 -0.280573 5.33963 0
M  V30 2981 C 288.036 1.85704 4.88171 0
M  V30 2982 H 289.73 1.31979 2.68741 0
M  V30 2983 H 287.276 0.636061 1.29191 0
M  V30 2984 H 289.229 -0.615133 4.16886 0
M  V30 2985 H 287.953 -1.16121 3.0526 0
M  V30 2986 H 286.612 0.91232 3.55067 0
M  V30 2987 H 286.26 -1.16874 4.89234 0
M  V30 2988 H 285.96 0.29076 5.8688 0
M  V30 2989 H 287.484 -0.618678 6.07458 0
M  V30 2990 H 288.898 1.58161 5.51052 0
M  V30 2991 H 287.295 2.37279 5.51197 0
M  V30 2992 H 288.365 2.56957 4.11219 0
M  V30 2993 N 289.708 -1.40897 0.706093 0
M  V30 2994 C 290.933 -2.05895 0.249435 0
M  V30 2995 C 291.358 -1.52823 -1.09666 0
M  V30 2996 O 290.716 -0.659589 -1.68876 0
M  V30 2997 C 290.764 -3.59872 0.22904 0
M  V30 2998 O 289.868 -4.04708 -0.792784 0
M  V30 2999 H 289.209 -0.653206 0.119241 0
M  V30 3000 H 291.739 -1.80471 0.96391 0
M  V30 3001 H 291.749 -4.07951 0.0634791 0
M  V30 3002 H 290.424 -3.97866 1.21141 0
M  V30 3003 H 289.001 -3.68111 -0.59572 0
M  V30 3004 N 291.186 -0.45159 -1.50991 0
M  V30 3005 C 292.149 0.341117 -2.26647 0
M  V30 3006 C 293.149 0.937422 -1.30649 0
M  V30 3007 O 294.339 0.809644 -1.54241 0
M  V30 3008 C 291.471 1.48398 -3.06905 0
M  V30 3009 H 292.664 -0.322117 -2.98165 0
M  V30 3010 H 290.217 -0.205122 -1.54948 0
M  V30 3011 H 290.952 2.18284 -2.39838 0
M  V30 3012 H 290.737 1.06241 -3.77432 0
M  V30 3013 H 292.227 2.04367 -3.64176 0
M  V30 3014 N 292.664 1.56529 -0.183458 0
M  V30 3015 C 293.611 2.18546 0.742055 0
M  V30 3016 C 294.581 1.12912 1.2182 0
M  V30 3017 O 295.766 1.41115 1.28418 0
M  V30 3018 C 292.906 2.83977 1.96089 0
M  V30 3019 C 292.019 4.04105 1.52719 0
M  V30 3020 C 291.154 4.57427 2.70063 0
M  V30 3021 C 290.193 5.69938 2.23243 0
M  V30 3022 N 289.33 6.17717 3.33722 0
M  V30 3023 H 294.17 2.97284 0.206432 0
M  V30 3024 H 291.707 1.46823 0.0901571 0
M  V30 3025 H 293.665 3.20077 2.67594 0
M  V30 3026 H 292.295 2.07822 2.47002 0
M  V30 3027 H 291.347 3.73745 0.708436 0
M  V30 3028 H 292.659 4.85513 1.1436 0
M  V30 3029 H 291.813 4.95772 3.49708 0
M  V30 3030 H 290.552 3.75101 3.11689 0
M  V30 3031 H 289.557 5.31133 1.42048 0
M  V30 3032 H 290.782 6.54073 1.82661 0
M  V30 3033 H 288.728 5.38317 3.74902 0
M  V30 3034 H 288.645 6.94146 2.99495 0
M  V30 3035 H 289.913 6.60713 4.13616 0
M  V30 3036 N 294.142 -0.090211 1.57342 0
M  V30 3037 C 295.39 -0.791241 1.85967 0
M  V30 3038 C 295.711 -1.7903 0.772859 0
M  V30 3039 O 294.981 -1.94872 -0.200398 0
M  V30 3040 H 293.561 -0.295205 0.686195 0
M  V30 3041 H 296.223 -0.0706782 1.94772 0
M  V30 3042 H 295.319 -1.31882 2.82867 0
M  V30 3043 N 295.62 -1.53406 -0.361157 0
M  V30 3044 C 296.866 -1.70054 -1.10496 0
M  V30 3045 C 297.199 -0.453278 -1.88836 0
M  V30 3046 O 296.474 0.5495 -1.86576 0
M  V30 3047 C 296.757 -2.95317 -2.06058 0
M  V30 3048 C 296.61 -4.3021 -1.31298 0
M  V30 3049 C 297.929 -3.16193 -3.06121 0
M  V30 3050 H 295.048 -0.618799 -0.400321 0
M  V30 3051 H 297.69 -1.86052 -0.385318 0
M  V30 3052 H 295.84 -2.81809 -2.67425 0
M  V30 3053 H 297.512 -4.55538 -0.726807 0
M  V30 3054 H 295.755 -4.29421 -0.614853 0
M  V30 3055 H 296.426 -5.14 -2.01265 0
M  V30 3056 H 298.902 -3.28916 -2.5486 0
M  V30 3057 H 297.778 -4.05266 -3.70204 0
M  V30 3058 H 298.039 -2.31676 -3.76535 0
M  V30 3059 N 297.098 0.621204 -1.44841 0
M  V30 3060 C 298.346 1.37783 -1.47852 0
M  V30 3061 C 298.667 1.94653 -0.116224 0
M  V30 3062 O 297.937 1.76367 0.852737 0
M  V30 3063 H 296.517 0.511453 -0.544449 0
M  V30 3064 H 299.179 0.730446 -1.80694 0
M  V30 3065 H 298.275 2.20414 -2.20961 0
M  V30 3066 N 298.576 1.31904 0.862503 0
M  V30 3067 C 299.853 1.12644 1.59908 0
M  V30 3068 C 300.233 -0.316104 2.0872 0
M  V30 3069 O 299.581 -1.31145 1.87118 0
M  V30 3070 C 299.791 2.1472 2.7513 0
M  V30 3071 C 301.139 2.47637 3.44907 0
M  V30 3072 O 302.163 2.13205 2.85346 0
M  V30 3073 O 301.022 3.06632 4.52371 0
M  V30 3074 H 298.116 0.43416 0.703871 0
M  V30 3075 H 300.662 1.43408 0.907314 0
M  V30 3076 H 299.434 3.1172 2.3653 0
M  V30 3077 H 299.057 1.84905 3.51989 0
M  V30 3078 N 300.054 -1.07777 1.14986 0
M  V30 3079 C 301.301 -1.8029 0.922056 0
M  V30 3080 C 301.629 -1.86531 -0.55105 0
M  V30 3081 O 300.884 -1.34189 -1.42449 0
M  V30 3082 C 301.183 -3.25495 1.47608 0
M  V30 3083 C 300.849 -3.39361 2.96893 0
M  V30 3084 C 299.511 -3.42852 3.37647 0
M  V30 3085 C 301.863 -3.42512 3.92854 0
M  V30 3086 C 299.191 -3.47094 4.73015 0
M  V30 3087 C 301.543 -3.4829 5.28088 0
M  V30 3088 C 300.207 -3.50058 5.68345 0
M  V30 3089 H 299.477 -0.659727 0.337404 0
M  V30 3090 H 302.124 -1.26854 1.43459 0
M  V30 3091 H 300.429 -3.81683 0.88463 0
M  V30 3092 H 302.126 -3.80168 1.27568 0
M  V30 3093 H 298.716 -3.37339 2.64387 0
M  V30 3094 H 302.9 -3.3904 3.62444 0
M  V30 3095 H 298.156 -3.46758 5.03556 0
M  V30 3096 H 302.33 -3.49675 6.02246 0
M  V30 3097 H 299.957 -3.53097 6.73221 0
M  V30 3098 N 301.532 -0.945985 -1.26051 0
M  V30 3099 C 302.48 -0.450259 -2.282 0
M  V30 3100 C 303.474 0.47497 -1.62605 0
M  V30 3101 O 304.68 0.352653 -1.76512 0
M  V30 3102 H 301.055 -0.127081 -0.741184 0
M  V30 3103 H 303.026 -1.32422 -2.67408 0
M  V30 3104 C 301.775 0.26467 -3.46691 0
M  V30 3105 H 301.098 -0.438123 -3.97392 0
M  V30 3106 H 302.538 0.575678 -4.20074 0
M  V30 3107 C 300.997 1.48416 -3.02447 0
M  V30 3108 O 301.527 2.58227 -3.07704 0
M  V30 3109 N 299.733 1.34243 -2.57735 0
M  V30 3110 H 299.28 0.448994 -2.53657 0
M  V30 3111 H 299.238 2.15957 -2.28495 0
M  V30 3112 N 303.011 1.40521 -0.713556 0
M  V30 3113 C 304.236 2.05759 -0.26035 0
M  V30 3114 C 304.661 1.53403 1.08854 0
M  V30 3115 O 304.019 0.668535 1.68524 0
M  V30 3116 C 304.067 3.59745 -0.248122 0
M  V30 3117 O 303.171 4.05123 0.77131 0
M  V30 3118 H 302.512 0.652564 -0.122703 0
M  V30 3119 H 305.042 1.79958 -0.973467 0
M  V30 3120 H 305.052 4.07911 -0.0851129 0
M  V30 3121 H 303.727 3.97218 -1.2325 0
M  V30 3122 H 302.304 3.68422 0.57619 0
M  V30 3123 N 304.489 0.459591 1.5075 0
M  V30 3124 C 305.738 -0.100971 2.01447 0
M  V30 3125 C 306.051 -1.41816 1.34713 0
M  V30 3126 O 307.257 -2.06299 1.76502 0
M  V30 3127 C 305.713 -0.23047 3.59161 0
M  V30 3128 C 305.321 1.0776 4.34847 0
M  V30 3129 C 307.065 -0.743608 4.17936 0
M  V30 3130 C 304.972 0.91253 5.84317 0
M  V30 3131 H 303.902 -0.0415102 0.752856 0
M  V30 3132 H 306.553 0.592742 1.73663 0
M  V30 3133 H 304.935 -0.987703 3.83485 0
M  V30 3134 H 306.109 1.8449 4.22256 0
M  V30 3135 H 304.424 1.52097 3.87628 0
M  V30 3136 H 307.021 -0.883959 5.27343 0
M  V30 3137 H 307.364 -1.73196 3.78562 0
M  V30 3138 H 307.897 -0.04408 3.97776 0
M  V30 3139 H 304.636 1.87391 6.28144 0
M  V30 3140 H 304.156 0.185422 5.99513 0
M  V30 3141 H 305.835 0.574547 6.44444 0
M  V30 3142 N 305.967 -1.56429 0.191757 0
M  V30 3143 C 306.897 -2.21937 -0.725696 0
M  V30 3144 C 307.878 -1.1814 -1.2238 0
M  V30 3145 O 309.063 -1.46636 -1.27325 0
M  V30 3146 C 306.193 -2.87611 -1.94672 0
M  V30 3147 C 305.147 -3.97623 -1.58366 0
M  V30 3148 C 304.473 -4.50446 -2.88102 0
M  V30 3149 C 305.773 -5.16197 -0.796133 0
M  V30 3150 H 307.467 -2.98861 -0.179606 0
M  V30 3151 H 305.013 -1.43749 -0.0849464 0
M  V30 3152 H 306.966 -3.3212 -2.59373 0
M  V30 3153 H 305.69 -2.08087 -2.51728 0
M  V30 3154 H 304.349 -3.53801 -0.960247 0
M  V30 3155 H 303.997 -3.67688 -3.43241 0
M  V30 3156 H 303.697 -5.24675 -2.64556 0
M  V30 3157 H 305.221 -4.97654 -3.53798 0
M  V30 3158 H 306.635 -5.57271 -1.34618 0
M  V30 3159 H 305.032 -5.96471 -0.658928 0
M  V30 3160 H 306.102 -4.84473 0.203478 0
M  V30 3161 N 307.445 0.0818655 -1.57387 0
M  V30 3162 C 308.861 0.436412 -1.53517 0
M  V30 3163 C 309.061 1.79758 -0.910459 0
M  V30 3164 O 308.117 2.47324 -0.508636 0
M  V30 3165 C 309.43 0.386734 -2.98203 0
M  V30 3166 C 310.978 0.467644 -3.09487 0
M  V30 3167 C 311.453 0.447978 -4.55804 0
M  V30 3168 N 312.944 0.508348 -4.60402 0
M  V30 3169 C 313.679 0.515184 -5.71081 0
M  V30 3170 N 313.175 0.477435 -6.91153 0
M  V30 3171 N 314.968 0.560988 -5.59294 0
M  V30 3172 H 307.119 -0.809546 -1.96367 0
M  V30 3173 H 309.382 -0.302733 -0.898363 0
M  V30 3174 H 309.088 -0.546539 -3.47427 0
M  V30 3175 H 308.962 1.20075 -3.57578 0
M  V30 3176 H 311.349 1.39134 -2.60242 0
M  V30 3177 H 311.43 -0.374753 -2.5304 0
M  V30 3178 H 311.074 -0.471826 -5.05704 0
M  V30 3179 H 311.004 1.30777 -5.10103 0
M  V30 3180 H 313.495 0.54218 -3.7399 0
M  V30 3181 H 313.808 0.486299 -7.71268 0
M  V30 3182 H 312.153 0.444278 -6.93579 0
M  V30 3183 H 315.344 0.5881 -4.64391 0
M  V30 3184 H 315.517 0.562846 -6.45551 0
M  V30 3185 N 308.923 1.53595 0.353017 0
M  V30 3186 C 309.833 1.83897 1.45667 0
M  V30 3187 C 310.849 0.728334 1.58023 0
M  V30 3188 O 312.025 1.01968 1.73679 0
M  V30 3189 C 309.09 2.03383 2.80778 0
M  V30 3190 C 308.151 3.27262 2.77845 0
M  V30 3191 C 307.384 3.45809 4.06512 0
M  V30 3192 O 307.607 2.68387 5.03314 0
M  V30 3193 O 306.541 4.39207 4.11559 0
M  V30 3194 H 310.367 2.77686 1.2298 0
M  V30 3195 H 307.952 1.39132 0.544308 0
M  V30 3196 H 309.834 2.17698 3.60812 0
M  V30 3197 H 308.509 1.12783 3.03417 0
M  V30 3198 H 307.416 3.18359 1.96465 0
M  V30 3199 H 308.749 4.17824 2.60161 0
M  V30 3200 N 310.401 -0.613514 1.45168 0
M  V30 3201 C 311.65 -1.36874 1.4815 0
M  V30 3202 C 311.963 -1.952 0.124982 0
M  V30 3203 O 313.169 -2.71481 0.0324176 0
M  V30 3204 C 311.625 -2.47905 2.60904 0
M  V30 3205 C 311.233 -1.96016 4.02842 0
M  V30 3206 C 312.977 -3.24965 2.73126 0
M  V30 3207 C 310.884 -3.04494 5.06988 0
M  V30 3208 H 309.814 -0.514428 0.551253 0
M  V30 3209 H 312.465 -0.658182 1.7129 0
M  V30 3210 H 310.847 -3.21618 2.31037 0
M  V30 3211 H 312.021 -1.29051 4.4236 0
M  V30 3212 H 310.336 -1.31719 3.95018 0
M  V30 3213 H 312.933 -4.05865 3.48106 0
M  V30 3214 H 313.276 -3.75588 1.79553 0
M  V30 3215 H 313.809 -2.5835 3.0249 0
M  V30 3216 H 310.548 -2.58795 6.0225 0
M  V30 3217 H 310.068 -3.70044 4.72046 0
M  V30 3218 H 311.747 -3.68976 5.31475 0
M  V30 3219 N 311.879 -1.3236 -0.855495 0
M  V30 3220 C 312.789 -1.23221 -1.99634 0
M  V30 3221 C 313.805 -0.145983 -1.73387 0
M  V30 3222 O 314.981 -0.366502 -1.98037 0
M  V30 3223 C 312.046 -0.954782 -3.33294 0
M  V30 3224 C 311.107 -2.12937 -3.72769 0
M  V30 3225 C 310.34 -1.86508 -5.00051 0
M  V30 3226 O 310.563 -0.807231 -5.64659 0
M  V30 3227 O 309.497 -2.72591 -5.36636 0
M  V30 3228 H 313.323 -2.19126 -2.1028 0
M  V30 3229 H 310.908 -1.12241 -0.986018 0
M  V30 3230 H 312.79 -0.816519 -4.13414 0
M  V30 3231 H 311.465 -0.0258854 -3.2369 0
M  V30 3232 H 310.372 -2.3231 -2.93228 0
M  V30 3233 H 311.705 -3.04102 -3.87018 0
M  V30 3234 N 313.357 1.07166 -1.15556 0
M  V30 3235 C 314.267 2.17947 -0.868116 0
M  V30 3236 C 315.283 1.73297 0.156297 0
M  V30 3237 O 316.459 2.01392 -0.0182327 0
M  V30 3238 C 313.524 3.44789 -0.36355 0
M  V30 3239 C 312.585 4.03996 -1.45209 0
M  V30 3240 C 311.818 5.24783 -0.971508 0
M  V30 3241 O 312.041 5.70109 0.182194 0
M  V30 3242 O 310.975 5.75715 -1.75603 0
M  V30 3243 H 314.801 2.4503 -1.79427 0
M  V30 3244 H 312.386 1.16539 -0.934824 0
M  V30 3245 H 314.268 4.21307 -0.0887113 0
M  V30 3246 H 312.943 3.19253 0.534708 0
M  V30 3247 H 311.85 3.29009 -1.78056 0
M  V30 3248 H 313.183 4.33808 -2.32533 0
M  V30 3249 N 314.835 0.952656 1.25548 0
M  V30 3250 C 316.251 0.656769 1.4546 0
M  V30 3251 C 316.451 -0.78633 1.85524 0
M  V30 3252 O 315.507 -1.56183 1.98402 0
M  V30 3253 C 316.82 1.62801 2.52817 0
M  V30 3254 C 318.368 1.63897 2.66659 0
M  V30 3255 C 318.843 2.5978 3.77198 0
M  V30 3256 N 320.334 2.58133 3.84606 0
M  V30 3257 C 321.069 3.29003 4.69621 0
M  V30 3258 N 320.565 4.09339 5.58939 0
M  V30 3259 N 322.358 3.179 4.63569 0
M  V30 3260 H 314.509 1.88526 0.978344 0
M  V30 3261 H 316.772 0.810815 0.491206 0
M  V30 3262 H 316.478 2.65869 2.30232 0
M  V30 3263 H 316.352 1.38898 3.50695 0
M  V30 3264 H 318.739 0.615481 2.8861 0
M  V30 3265 H 318.82 1.91858 1.69187 0
M  V30 3266 H 318.464 3.62254 3.55997 0
M  V30 3267 H 318.394 2.29105 4.7415 0
M  V30 3268 H 320.885 1.99809 3.20757 0
M  V30 3269 H 321.198 4.6034 6.20731 0
M  V30 3270 H 319.543 4.13438 5.58654 0
M  V30 3271 H 322.734 2.54612 3.92798 0
M  V30 3272 H 322.907 3.73398 5.29602 0
M  V30 3273 N 316.313 -1.40141 0.720998 0
M  V30 3274 C 317.276 -2.29058 0.0805834 0
M  V30 3275 C 318.276 -1.45632 -0.681758 0
M  V30 3276 O 319.466 -1.6648 -0.512856 0
M  V30 3277 C 316.598 -3.28925 -0.895593 0
M  V30 3278 H 317.791 -2.87191 0.863793 0
M  V30 3279 H 315.344 -1.48553 0.485975 0
M  V30 3280 H 316.079 -2.75822 -1.70566 0
M  V30 3281 H 315.864 -3.90519 -0.351766 0
M  V30 3282 H 317.354 -3.95494 -1.34069 0
M  V30 3283 N 317.792 -0.46758 -1.50504 0
M  V30 3284 C 319.203 -0.0116166 -1.86696 0
M  V30 3285 C 319.554 1.39202 -1.38265 0
M  V30 3286 O 318.679 2.0313 -0.746132 0
M  V30 3287 C 319.274 -0.0143044 -3.38797 0
M  V30 3288 C 317.833 0.386175 -3.74414 0
M  V30 3289 C 316.98 -0.401287 -2.74381 0
M  V30 3290 H 319.931 -0.682022 -1.43297 0
M  V30 3291 H 319.952 0.788641 -3.72237 0
M  V30 3292 H 319.464 -1.03602 -3.74016 0
M  V30 3293 H 317.565 1.41237 -3.44794 0
M  V30 3294 H 317.678 0.0899596 -4.79016 0
M  V30 3295 H 316.042 0.144536 -2.5429 0
M  V30 3296 H 316.825 -1.42244 -3.12444 0
M  V30 3297 N 319.27 1.56325 -0.20005 0
M  V30 3298 C 320.2 2.22318 0.713916 0
M  V30 3299 C 321.181 1.18788 1.21752 0
M  V30 3300 O 322.366 1.47309 1.26545 0
M  V30 3301 C 319.496 2.88639 1.93144 0
M  V30 3302 C 318.45 3.98457 1.56255 0
M  V30 3303 C 317.776 4.51967 2.85709 0
M  V30 3304 C 319.076 5.16612 0.768747 0
M  V30 3305 H 320.77 2.98952 0.163755 0
M  V30 3306 H 318.316 1.43792 0.0773219 0
M  V30 3307 H 320.269 3.33491 2.57608 0
M  V30 3308 H 318.993 2.09419 2.50621 0
M  V30 3309 H 317.652 3.54305 0.941471 0
M  V30 3310 H 317.3 3.69503 3.41287 0
M  V30 3311 H 317 5.26071 2.6177 0
M  V30 3312 H 318.524 4.99523 3.51154 0
M  V30 3313 H 319.938 5.57977 1.3166 0
M  V30 3314 H 318.335 5.96812 0.627286 0
M  V30 3315 H 319.405 4.84358 -0.229168 0
M  V30 3316 N 320.748 -0.0735177 1.57428 0
M  V30 3317 C 322.164 -0.428264 1.53747 0
M  V30 3318 C 322.364 -1.79272 0.91998 0
M  V30 3319 O 321.42 -2.47051 0.521745 0
M  V30 3320 C 322.733 -0.370914 2.98404 0
M  V30 3321 C 324.281 -0.451224 3.0973 0
M  V30 3322 C 324.756 -0.4238 4.56035 0
M  V30 3323 N 326.247 -0.483925 4.60665 0
M  V30 3324 C 326.982 -0.484891 5.71346 0
M  V30 3325 N 326.478 -0.440775 6.91396 0
M  V30 3326 N 328.271 -0.531319 5.59583 0
M  V30 3327 H 320.422 0.819949 1.95935 0
M  V30 3328 H 322.685 0.307493 0.896745 0
M  V30 3329 H 322.391 0.564956 3.47133 0
M  V30 3330 H 322.265 -1.18176 3.5821 0
M  V30 3331 H 324.652 -1.37752 2.60976 0
M  V30 3332 H 324.733 0.388167 2.52838 0
M  V30 3333 H 324.377 0.498638 5.05446 0
M  V30 3334 H 324.307 -1.2807 5.10789 0
M  V30 3335 H 326.798 -0.522338 3.74273 0
M  V30 3336 H 327.111 -0.44539 7.71515 0
M  V30 3337 H 325.456 -0.40749 6.93804 0
M  V30 3338 H 328.647 -0.563464 4.64696 0
M  V30 3339 H 328.82 -0.528603 6.4584 0
M  V30 3340 N 322.226 -1.5378 -0.344866 0
M  V30 3341 C 323.642 -1.44015 -0.687888 0
M  V30 3342 C 323.842 -0.595834 -1.92489 0
M  V30 3343 O 322.898 -0.0863064 -2.52352 0
M  V30 3344 C 324.211 -2.87481 -0.881758 0
M  V30 3345 C 325.759 -2.97247 -0.980459 0
M  V30 3346 C 326.234 -4.41819 -1.20665 0
M  V30 3347 N 327.725 -4.45339 -1.27389 0
M  V30 3348 C 328.46 -5.54333 -1.46639 0
M  V30 3349 N 327.956 -6.73335 -1.63071 0
M  V30 3350 N 329.749 -5.41944 -1.49176 0
M  V30 3351 H 321.9 -2.07169 0.468475 0
M  V30 3352 H 324.163 -0.93643 0.147655 0
M  V30 3353 H 323.869 -3.51672 -0.0443444 0
M  V30 3354 H 323.743 -3.32352 -1.78388 0
M  V30 3355 H 326.13 -2.33197 -1.8084 0
M  V30 3356 H 326.211 -2.5574 -0.0552713 0
M  V30 3357 H 325.855 -5.06449 -0.383652 0
M  V30 3358 H 325.785 -4.80917 -2.14539 0
M  V30 3359 H 328.276 -3.59585 -1.1622 0
M  V30 3360 H 328.589 -7.52165 -1.77391 0
M  V30 3361 H 326.934 -6.76282 -1.60209 0
M  V30 3362 H 330.125 -4.47932 -1.3592 0
M  V30 3363 H 330.298 -6.26946 -1.63837 0
M  V30 3364 N 323.704 0.605807 -1.45491 0
M  V30 3365 C 324.932 1.39136 -1.5313 0
M  V30 3366 C 325.347 1.88082 -0.164507 0
M  V30 3367 O 324.704 1.62316 0.834247 0
M  V30 3368 C 324.755 2.59463 -2.51716 0
M  V30 3369 O 324.476 2.12551 -3.83084 0
M  V30 3370 C 325.977 3.52301 -2.6907 0
M  V30 3371 H 323.197 0.425849 -0.51855 0
M  V30 3372 H 325.741 0.73865 -1.90694 0
M  V30 3373 H 323.896 3.20772 -2.17219 0
M  V30 3374 H 324.31 2.90744 -4.36541 0
M  V30 3375 H 325.784 4.33271 -3.42024 0
M  V30 3376 H 326.261 4.02757 -1.75167 0
M  V30 3377 H 326.867 2.96845 -3.04571 0
M  V30 3378 N 325.182 1.32811 0.848464 0
M  V30 3379 C 326.41 1.26739 1.63538 0
M  V30 3380 C 326.825 -0.163484 1.88091 0
M  V30 3381 O 326.182 -1.10258 1.45429 0
M  V30 3382 C 326.233 2.03013 2.99112 0
M  V30 3383 O 325.954 3.40518 2.75643 0
M  V30 3384 C 327.455 2.04038 3.93552 0
M  V30 3385 H 324.675 0.437024 0.509167 0
M  V30 3386 H 327.219 1.75033 1.05753 0
M  V30 3387 H 325.374 1.58426 3.53525 0
M  V30 3388 H 325.788 3.79635 3.61908 0
M  V30 3389 H 327.262 2.61877 4.85926 0
M  V30 3390 H 327.739 1.0282 4.26995 0
M  V30 3391 H 328.345 2.486 3.45077 0
M  V30 3392 N 326.66 -1.06551 1.16123 0
M  V30 3393 C 327.888 -1.83005 0.965237 0
M  V30 3394 C 328.303 -1.82423 -0.486542 0
M  V30 3395 O 327.66 -1.24152 -1.33763 0
M  V30 3396 C 327.711 -3.29733 1.48183 0
M  V30 3397 O 327.432 -3.30416 2.87674 0
M  V30 3398 C 328.933 -4.22926 1.32848 0
M  V30 3399 H 326.153 -0.577118 0.342309 0
M  V30 3400 H 328.697 -1.3445 1.54089 0
M  V30 3401 H 326.852 -3.75609 0.948517 0
M  V30 3402 H 327.266 -4.22149 3.11272 0
M  V30 3403 H 328.74 -5.23916 1.73827 0
M  V30 3404 H 329.217 -4.38346 0.273692 0
M  V30 3405 H 329.823 -3.82894 1.85127 0
M  V30 3406 N 328.138 -0.959301 -1.25041 0
M  V30 3407 C 329.07 -0.440543 -2.24926 0
M  V30 3408 C 330.083 0.446131 -1.56568 0
M  V30 3409 O 331.272 0.253657 -1.76689 0
M  V30 3410 C 328.372 0.38412 -3.36716 0
M  V30 3411 C 327.545 -0.490658 -4.34639 0
M  V30 3412 C 326.604 0.276587 -5.25473 0
M  V30 3413 O 325.63 -0.326614 -5.68262 0
M  V30 3414 N 326.832 1.56844 -5.5891 0
M  V30 3415 H 329.597 -1.29931 -2.70071 0
M  V30 3416 H 327.158 -0.830181 -1.38995 0
M  V30 3417 H 329.15 0.905228 -3.94446 0
M  V30 3418 H 327.72 1.14377 -2.90924 0
M  V30 3419 H 326.94 -1.19282 -3.7572 0
M  V30 3420 H 328.228 -1.08756 -4.97041 0
M  V30 3421 H 327.626 2.08036 -5.26059 0
M  V30 3422 H 326.183 2.03541 -6.19205 0
M  V30 3423 N 329.616 1.39756 -0.72842 0
M  V30 3424 C 330.526 2.34444 -0.0855374 0
M  V30 3425 C 331.542 1.57976 0.729356 0
M  V30 3426 O 332.718 1.90301 0.659346 0
M  V30 3427 C 329.783 3.36965 0.815798 0
M  V30 3428 C 328.844 4.29299 -0.0105996 0
M  V30 3429 C 328.077 5.26923 0.84781 0
M  V30 3430 O 328.3 5.30859 2.08673 0
M  V30 3431 O 327.234 6.01249 0.279969 0
M  V30 3432 H 331.06 2.91065 -0.866892 0
M  V30 3433 H 328.645 1.4117 -0.48902 0
M  V30 3434 H 330.527 3.99804 1.33171 0
M  V30 3435 H 329.202 2.82739 1.57608 0
M  V30 3436 H 328.109 3.69703 -0.571877 0
M  V30 3437 H 329.442 4.86712 -0.73295 0
M  V30 3438 N 331.094 0.475555 1.50254 0
M  V30 3439 C 332.004 -0.321501 2.32387 0
M  V30 3440 C 333.02 -0.991755 1.42969 0
M  V30 3441 O 334.196 -0.978747 1.76018 0
M  V30 3442 C 331.261 -1.38667 3.17762 0
M  V30 3443 C 330.322 -0.732538 4.23004 0
M  V30 3444 C 329.555 -1.74695 5.04299 0
M  V30 3445 O 329.778 -2.97399 4.86734 0
M  V30 3446 O 328.712 -1.31631 5.8733 0
M  V30 3447 H 332.538 0.350071 3.01676 0
M  V30 3448 H 330.123 0.237321 1.47503 0
M  V30 3449 H 332.005 -2.00354 3.70724 0
M  V30 3450 H 330.68 -2.04163 2.51196 0
M  V30 3451 H 329.587 -0.0765902 3.74022 0
M  V30 3452 H 330.92 -0.120452 4.92053 0
M  V30 3453 N 332.573 -1.56217 0.208337 0
M  V30 3454 C 333.819 -1.98242 -0.427552 0
M  V30 3455 C 334.152 -1.09554 -1.60348 0
M  V30 3456 O 333.427 -0.15035 -1.93918 0
M  V30 3457 C 333.71 -3.4931 -0.874907 0
M  V30 3458 C 333.563 -4.48773 0.303751 0
M  V30 3459 C 334.882 -4.04424 -1.73577 0
M  V30 3460 H 332.001 -0.720744 -0.153936 0
M  V30 3461 H 334.643 -1.87586 0.30192 0
M  V30 3462 H 332.793 -3.58522 -1.49648 0
M  V30 3463 H 334.465 -4.51586 0.941682 0
M  V30 3464 H 332.708 -4.23194 0.953375 0
M  V30 3465 H 333.379 -5.51976 -0.0519883 0
M  V30 3466 H 335.855 -3.98075 -1.21143 0
M  V30 3467 H 334.731 -5.1047 -2.01771 0
M  V30 3468 H 334.992 -3.50494 -2.69456 0
M  V30 3469 N 334.051 0.0651679 -1.57465 0
M  V30 3470 C 335.299 0.761555 -1.87202 0
M  V30 3471 C 335.62 1.77778 -0.801243 0
M  V30 3472 O 334.89 1.95166 0.16937 0
M  V30 3473 H 333.47 0.284251 -0.690804 0
M  V30 3474 H 336.132 0.0396827 -1.9486 0
M  V30 3475 H 335.228 1.27365 -2.84929 0
M  V30 3476 N 335.529 1.53961 0.336706 0
M  V30 3477 C 336.806 1.62171 1.09361 0
M  V30 3478 C 337.186 0.447263 2.06307 0
M  V30 3479 O 336.534 -0.559802 2.21537 0
M  V30 3480 C 336.744 2.98565 1.80721 0
M  V30 3481 C 338.092 3.54157 2.34218 0
M  V30 3482 O 339.116 3.00784 1.90807 0
M  V30 3483 O 337.975 4.47528 3.13657 0
M  V30 3484 H 335.069 0.6562 0.503319 0
M  V30 3485 H 337.615 1.66307 0.33765 0
M  V30 3486 H 336.387 3.75482 1.10132 0
M  V30 3487 H 336.01 2.9805 2.63158 0
M  V30 3488 N 337.007 -0.598083 1.45811 0
M  V30 3489 C 338.235 -1.38322 1.53866 0
M  V30 3490 C 338.65 -1.87992 0.174479 0
M  V30 3491 O 338.007 -1.62756 -0.825627 0
M  V30 3492 C 338.058 -2.58125 2.53089 0
M  V30 3493 O 337.779 -2.10516 3.84206 0
M  V30 3494 C 339.28 -3.50869 2.70935 0
M  V30 3495 H 336.5 -0.423093 0.520801 0
M  V30 3496 H 339.044 -0.728527 1.91083 0
M  V30 3497 H 337.199 -3.19615 2.18917 0
M  V30 3498 H 337.613 -2.88425 4.38077 0
M  V30 3499 H 339.087 -4.31451 3.44317 0
M  V30 3500 H 339.564 -4.01822 1.77301 0
M  V30 3501 H 340.17 -2.95225 3.06141 0
M  V30 3502 N 338.485 -1.33259 -0.841409 0
M  V30 3503 C 339.448 -1.23221 -1.9326 0
M  V30 3504 C 340.448 -0.151895 -1.60081 0
M  V30 3505 O 341.638 -0.403246 -1.69468 0
M  V30 3506 C 338.77 -0.898123 -3.28856 0
M  V30 3507 H 339.963 -2.2021 -2.03587 0
M  V30 3508 H 337.516 -1.17281 -1.03319 0
M  V30 3509 H 338.251 0.0693841 -3.24226 0
M  V30 3510 H 338.036 -1.67934 -3.54317 0
M  V30 3511 H 339.526 -0.852563 -4.08805 0
M  V30 3512 N 339.963 1.05934 -1.16686 0
M  V30 3513 C 341.209 1.79065 -0.95203 0
M  V30 3514 C 341.542 1.87147 0.518629 0
M  V30 3515 O 340.817 1.36574 1.38484 0
M  V30 3516 C 341.1 3.23359 -1.58464 0
M  V30 3517 C 340.953 3.23336 -3.12689 0
M  V30 3518 C 342.272 4.21004 -1.28232 0
M  V30 3519 H 339.391 0.65005 -0.34728 0
M  V30 3520 H 342.033 1.23868 -1.44072 0
M  V30 3521 H 340.183 3.70493 -1.16908 0
M  V30 3522 H 341.855 2.84336 -3.6325 0
M  V30 3523 H 340.098 2.61886 -3.4583 0
M  V30 3524 H 340.769 4.25144 -3.52075 0
M  V30 3525 H 343.245 3.8233 -1.64203 0
M  V30 3526 H 342.121 5.20225 -1.75092 0
M  V30 3527 H 342.382 4.41639 -0.201791 0
M  V30 3528 N 341.441 0.965919 1.2453 0
M  V30 3529 C 342.688 0.626831 1.92554 0
M  V30 3530 C 343.016 -0.837739 1.75534 0
M  V30 3531 O 342.271 -1.61793 1.10098 0
M  V30 3532 C 342.57 0.945428 3.44669 0
M  V30 3533 C 342.236 2.39785 3.81856 0
M  V30 3534 C 340.898 2.79483 3.91718 0
M  V30 3535 C 343.25 3.34055 4.00071 0
M  V30 3536 C 340.578 4.12496 4.1721 0
M  V30 3537 C 342.93 4.66694 4.27059 0
M  V30 3538 C 341.594 5.06172 4.3514 0
M  V30 3539 H 340.864 0.229374 0.704605 0
M  V30 3540 H 343.511 1.21707 1.4785 0
M  V30 3541 H 341.816 0.272926 3.90848 0
M  V30 3542 H 343.513 0.661484 3.95507 0
M  V30 3543 H 340.103 2.08003 3.74743 0
M  V30 3544 H 344.287 3.04571 3.91855 0
M  V30 3545 H 339.543 4.42709 4.21685 0
M  V30 3546 H 343.717 5.3971 4.40097 0
M  V30 3547 H 341.344 6.09262 4.54646 0
M  V30 3548 N 342.919 -1.39368 0.735821 0
M  V30 3549 C 343.849 -2.33234 0.111506 0
M  V30 3550 C 344.83 -1.53954 -0.723334 0
M  V30 3551 O 346.015 -1.82344 -0.668147 0
M  V30 3552 C 343.145 -3.38057 -0.795917 0
M  V30 3553 C 342.099 -4.2795 -0.065172 0
M  V30 3554 C 341.425 -5.23479 -1.08967 0
M  V30 3555 C 342.725 -5.10741 1.09273 0
M  V30 3556 H 344.419 -2.85692 0.895571 0
M  V30 3557 H 341.965 -1.37364 0.432109 0
M  V30 3558 H 343.918 -4.02675 -1.24221 0
M  V30 3559 H 342.642 -2.8404 -1.61211 0
M  V30 3560 H 341.301 -3.64813 0.361511 0
M  V30 3561 H 340.949 -4.65758 -1.89944 0
M  V30 3562 H 340.649 -5.84472 -0.605489 0
M  V30 3563 H 342.173 -5.90974 -1.53565 0
M  V30 3564 H 343.587 -5.68699 0.724841 0
M  V30 3565 H 341.984 -5.8088 1.50659 0
M  V30 3566 H 343.054 -4.45525 1.91404 0
M  V30 3567 N 344.397 -0.483516 -1.5 0
M  V30 3568 C 345.644 0.0671597 -2.02389 0
M  V30 3569 C 345.972 1.38597 -1.36459 0
M  V30 3570 O 345.227 1.89634 -0.483458 0
M  V30 3571 C 345.526 0.286226 -3.56252 0
M  V30 3572 C 345.192 -0.952416 -4.40726 0
M  V30 3573 C 343.854 -1.29199 -4.63531 0
M  V30 3574 C 346.206 -1.77655 -4.89988 0
M  V30 3575 C 343.534 -2.45553 -5.32842 0
M  V30 3576 C 345.886 -2.93147 -5.60578 0
M  V30 3577 C 344.55 -3.27505 -5.81633 0
M  V30 3578 H 343.82 0.0245755 -0.740592 0
M  V30 3579 H 346.467 -0.640124 -1.80485 0
M  V30 3580 H 344.772 1.07587 -3.76739 0
M  V30 3581 H 346.469 0.726473 -3.94365 0
M  V30 3582 H 343.059 -0.677881 -4.23205 0
M  V30 3583 H 347.243 -1.52737 -4.72213 0
M  V30 3584 H 342.499 -2.72431 -5.47349 0
M  V30 3585 H 346.673 -3.57344 -5.97727 0
M  V30 3586 H 344.3 -4.1777 -6.35116 0
M  V30 3587 N 345.875 1.56104 -0.216619 0
M  V30 3588 C 347.1 2.0301 0.424462 0
M  V30 3589 C 347.525 1.0955 1.52907 0
M  V30 3590 O 346.883 0.0827914 1.81111 0
M  V30 3591 C 346.931 3.4819 0.937883 0
M  V30 3592 O 346.035 3.57865 2.04955 0
M  V30 3593 H 345.376 0.656925 0.0966755 0
M  V30 3594 H 347.906 2.01859 -0.33381 0
M  V30 3595 H 347.916 3.88413 1.24897 0
M  V30 3596 H 346.591 4.15699 0.129387 0
M  V30 3597 H 345.168 3.29527 1.74546 0
M  V30 3598 N 347.353 -0.0568162 1.57498 0
M  V30 3599 C 348.63 -0.786954 1.79071 0
M  V30 3600 C 349.01 -1.95028 0.80792 0
M  V30 3601 O 348.358 -2.27968 -0.155858 0
M  V30 3602 C 348.568 -1.24594 3.26002 0
M  V30 3603 C 349.916 -1.67323 3.90241 0
M  V30 3604 O 350.94 -1.34124 3.29984 0
M  V30 3605 O 349.799 -2.28842 4.9628 0
M  V30 3606 H 346.893 -0.378262 0.735423 0
M  V30 3607 H 349.439 -0.035734 1.69662 0
M  V30 3608 H 348.211 -0.41423 3.89101 0
M  V30 3609 H 347.834 -2.05803 3.40192 0
M  V30 3610 N 348.832 -1.54138 -0.328536 0
M  V30 3611 C 349.762 -1.86167 -1.40939 0
M  V30 3612 C 350.743 -0.718044 -1.54202 0
M  V30 3613 O 351.928 -0.971328 -1.68163 0
M  V30 3614 C 349.058 -2.08461 -2.77779 0
M  V30 3615 C 348.012 -3.24299 -2.7931 0
M  V30 3616 C 347.338 -3.31955 -4.19178 0
M  V30 3617 C 348.638 -4.62065 -2.43502 0
M  V30 3618 H 350.332 -2.76689 -1.14383 0
M  V30 3619 H 347.878 -1.33132 -0.548806 0
M  V30 3620 H 349.831 -2.29453 -3.53454 0
M  V30 3621 H 348.555 -1.14684 -3.05802 0
M  V30 3622 H 347.214 -3.03187 -2.0609 0
M  V30 3623 H 346.862 -2.35745 -4.44335 0
M  V30 3624 H 346.562 -4.09805 -4.2111 0
M  V30 3625 H 348.086 -3.55175 -4.96672 0
M  V30 3626 H 349.5 -4.8297 -3.08889 0
M  V30 3627 H 347.897 -5.42429 -2.56693 0
M  V30 3628 H 348.967 -4.64652 -1.38659 0
M  V30 3629 N 350.31 0.590341 -1.46126 0
M  V30 3630 C 351.273 1.68194 -1.55703 0
M  V30 3631 C 352.273 1.54808 -0.434868 0
M  V30 3632 O 353.463 1.59564 -0.698928 0
M  V30 3633 C 350.595 3.07575 -1.47005 0
M  V30 3634 H 351.788 1.61064 -2.52979 0
M  V30 3635 H 349.341 0.807541 -1.33823 0
M  V30 3636 H 350.076 3.20268 -0.509785 0
M  V30 3637 H 349.861 3.187 -2.28414 0
M  V30 3638 H 351.351 3.87055 -1.56776 0
M  V30 3639 N 351.788 1.33704 0.83433 0
M  V30 3640 C 353.204 1.13137 1.12571 0
M  V30 3641 C 353.404 -0.0747261 2.01361 0
M  V30 3642 O 352.46 -0.753647 2.4099 0
M  V30 3643 C 353.773 2.42105 1.78342 0
M  V30 3644 C 355.321 2.48054 1.90888 0
M  V30 3645 C 355.796 3.76995 2.60075 0
M  V30 3646 N 357.287 3.78092 2.67584 0
M  V30 3647 C 358.022 4.74574 3.21818 0
M  V30 3648 N 357.518 5.81434 3.76705 0
M  V30 3649 N 359.311 4.62044 3.20112 0
M  V30 3650 H 351.462 2.11 0.243489 0
M  V30 3651 H 353.725 0.932532 0.17055 0
M  V30 3652 H 353.431 3.30391 1.20561 0
M  V30 3653 H 353.305 2.54594 2.7832 0
M  V30 3654 H 355.692 1.60215 2.47821 0
M  V30 3655 H 355.773 2.39502 0.898459 0
M  V30 3656 H 355.417 4.65219 2.03799 0
M  V30 3657 H 355.347 3.82825 3.61597 0
M  V30 3658 H 357.838 3.00865 2.28667 0
M  V30 3659 H 358.151 6.51084 4.16305 0
M  V30 3660 H 356.496 5.85163 3.7498 0
M  V30 3661 H 359.687 3.77716 2.76493 0
M  V30 3662 H 359.86 5.37406 3.62076 0
M  V30 3663 N 353.266 -1.05314 1.17247 0
M  V30 3664 C 354.514 -1.77941 0.958194 0
M  V30 3665 C 354.835 -1.88089 -0.514556 0
M  V30 3666 O 354.105 -1.39676 -1.37359 0
M  V30 3667 H 352.685 -0.659116 0.351533 0
M  V30 3668 H 355.347 -1.27166 1.47699 0
M  V30 3669 H 354.443 -2.79663 1.38546 0
M  V30 3670 N 354.744 -0.972509 -1.24016 0
M  V30 3671 C 355.99 -0.637978 -1.92504 0
M  V30 3672 C 356.323 0.825383 -1.75787 0
M  V30 3673 O 355.598 1.59442 -1.11393 0
M  V30 3674 C 355.881 -1.01942 -3.45369 0
M  V30 3675 C 355.734 -2.53983 -3.71231 0
M  V30 3676 C 357.053 -0.55751 -4.36555 0
M  V30 3677 H 354.172 -0.233248 -0.699117 0
M  V30 3678 H 356.814 -1.21238 -1.46292 0
M  V30 3679 H 354.964 -0.530656 -3.84859 0
M  V30 3680 H 356.636 -3.10374 -3.41271 0
M  V30 3681 H 354.879 -2.96968 -3.16216 0
M  V30 3682 H 355.55 -2.75723 -4.78206 0
M  V30 3683 H 358.026 -0.977029 -4.04467 0
M  V30 3684 H 356.902 -0.85292 -5.42233 0
M  V30 3685 H 357.163 0.542328 -4.38761 0
M  V30 3686 N 356.222 1.38976 -0.743202 0
M  V30 3687 C 357.45 2.04636 -0.30525 0
M  V30 3688 C 357.865 1.56044 1.06281 0
M  V30 3689 O 357.222 0.728921 1.67311 0
M  V30 3690 C 357.273 3.60193 -0.307177 0
M  V30 3691 O 356.994 4.06998 -1.62124 0
M  V30 3692 C 358.495 4.4306 0.145928 0
M  V30 3693 H 355.715 0.65788 -0.132041 0
M  V30 3694 H 358.259 1.77866 -1.00915 0
M  V30 3695 H 356.414 3.85835 0.347898 0
M  V30 3696 H 356.828 5.01371 -1.54036 0
M  V30 3697 H 358.302 5.51921 0.0934183 0
M  V30 3698 H 358.779 4.22706 1.19231 0
M  V30 3699 H 359.385 4.22584 -0.479886 0
M  V30 3700 N 357.7 0.491464 1.49741 0
M  V30 3701 C 358.948 -0.0563141 2.02022 0
M  V30 3702 C 359.269 -1.38363 1.37407 0
M  V30 3703 O 358.539 -1.88702 0.526166 0
M  V30 3704 H 357.119 -0.0238014 0.746621 0
M  V30 3705 H 359.781 0.646533 1.83864 0
M  V30 3706 H 358.877 -0.192967 3.11503 0
M  V30 3707 N 359.178 -1.55987 0.224894 0
M  V30 3708 C 360.088 -2.24066 -0.69511 0
M  V30 3709 C 361.104 -1.24939 -1.21104 0
M  V30 3710 O 362.28 -1.5776 -1.25195 0
M  V30 3711 C 359.345 -2.90983 -1.88493 0
M  V30 3712 C 358.406 -4.05462 -1.41064 0
M  V30 3713 C 357.639 -4.69179 -2.54375 0
M  V30 3714 O 357.862 -4.31895 -3.72589 0
M  V30 3715 O 356.796 -5.58108 -2.25386 0
M  V30 3716 H 360.622 -3.03353 -0.145149 0
M  V30 3717 H 358.207 -1.49399 -0.00569476 0
M  V30 3718 H 360.089 -3.33209 -2.57972 0
M  V30 3719 H 358.764 -2.14653 -2.42293 0
M  V30 3720 H 357.671 -3.67798 -0.683774 0
M  V30 3721 H 359.004 -4.83545 -0.918985 0
M  V30 3722 N 360.656 0.0484629 -1.57525 0
M  V30 3723 C 361.604 1.07359 -2.06341 0
M  V30 3724 C 362.598 1.3865 -0.973269 0
M  V30 3725 O 363.804 1.37783 -1.15827 0
M  V30 3726 H 360.179 0.363662 -0.65822 0
M  V30 3727 H 362.15 0.635916 -2.91545 0
M  V30 3728 C 360.899 2.37198 -2.54229 0
M  V30 3729 H 360.222 2.13977 -3.37719 0
M  V30 3730 H 361.662 3.07319 -2.92115 0
M  V30 3731 C 360.121 3.04805 -1.43511 0
M  V30 3732 O 360.651 3.93848 -0.79034 0
M  V30 3733 N 358.857 2.65811 -1.17444 0
M  V30 3734 H 358.404 1.93488 -1.70059 0
M  V30 3735 H 358.362 3.11366 -0.435737 0
M  V30 3736 N 362.134 1.5431 0.320358 0
M  V30 3737 C 363.383 1.7188 1.05546 0
M  V30 3738 C 363.696 0.501143 1.89071 0
M  V30 3739 O 364.902 0.558258 2.65699 0
M  V30 3740 C 363.358 3.04025 1.92605 0
M  V30 3741 C 362.966 4.33207 1.14176 0
M  V30 3742 C 364.71 3.30959 2.65832 0
M  V30 3743 C 362.617 5.56412 2.00399 0
M  V30 3744 H 361.547 0.640547 0.397763 0
M  V30 3745 H 364.198 1.80802 0.313522 0
M  V30 3746 H 362.58 2.89019 2.7071 0
M  V30 3747 H 363.754 4.58989 0.40819 0
M  V30 3748 H 362.069 4.13062 0.526165 0
M  V30 3749 H 364.666 4.20203 3.30656 0
M  V30 3750 H 365.009 2.48979 3.33639 0
M  V30 3751 H 365.542 3.46847 1.94787 0
M  V30 3752 H 362.281 6.41004 1.37094 0
M  V30 3753 H 361.801 5.34844 2.7148 0
M  V30 3754 H 363.48 5.92938 2.58908 0
M  V30 3755 N 363.613 -0.582584 1.46437 0
M  V30 3756 C 364.563 -1.68654 1.53426 0
M  V30 3757 C 365.547 -1.55971 0.395194 0
M  V30 3758 O 366.739 -1.64884 0.643612 0
M  V30 3759 C 363.868 -3.07439 1.52762 0
M  V30 3760 C 362.954 -3.25418 2.71963 0
M  V30 3761 N 363.345 -3.13556 3.96883 0
M  V30 3762 C 361.643 -3.56357 2.68189 0
M  V30 3763 C 362.344 -3.33543 4.76575 0
M  V30 3764 N 361.32 -3.58704 4.08451 0
M  V30 3765 H 365.122 -1.58014 2.47808 0
M  V30 3766 H 362.636 -0.786617 1.42078 0
M  V30 3767 H 364.633 -3.86671 1.55857 0
M  V30 3768 H 363.293 -3.1921 0.594573 0
M  V30 3769 H 364.304 -2.9142 4.28129 0
M  V30 3770 H 360.981 -3.74812 1.83908 0
M  V30 3771 H 362.371 -3.29555 5.85528 0
M  V30 3772 N 365.091 -1.34144 -0.827227 0
M  V30 3773 C 366.337 -1.26446 -1.58554 0
M  V30 3774 C 366.67 0.1664 -1.93486 0
M  V30 3775 O 365.945 1.1107 -1.59667 0
M  V30 3776 C 366.228 -2.15111 -2.8879 0
M  V30 3777 C 366.081 -3.66712 -2.60465 0
M  V30 3778 C 367.4 -2.03311 -3.90324 0
M  V30 3779 H 364.519 -0.46067 -0.575284 0
M  V30 3780 H 367.161 -1.64356 -0.953269 0
M  V30 3781 H 365.311 -1.8291 -3.42748 0
M  V30 3782 H 366.983 -4.09259 -2.1285 0
M  V30 3783 H 365.226 -3.88014 -1.93978 0
M  V30 3784 H 365.897 -4.24112 -3.53317 0
M  V30 3785 H 368.373 -2.31574 -3.45706 0
M  V30 3786 H 367.249 -2.67582 -4.79261 0
M  V30 3787 H 367.51 -1.00879 -4.30437 0
M  V30 3788 N 366.569 1.04691 -1.17803 0
M  V30 3789 C 367.846 1.7472 -0.879328 0
M  V30 3790 C 368.226 2.01812 0.619271 0
M  V30 3791 O 367.574 1.65824 1.57209 0
M  V30 3792 C 367.784 3.03686 -1.71976 0
M  V30 3793 C 369.132 3.77542 -1.94286 0
M  V30 3794 O 370.156 3.13569 -1.68976 0
M  V30 3795 O 369.015 4.92506 -2.36855 0
M  V30 3796 H 366.109 0.760011 -0.326056 0
M  V30 3797 H 368.655 1.10813 -1.28525 0
M  V30 3798 H 367.427 2.79754 -2.73594 0
M  V30 3799 H 367.05 3.75332 -1.31194 0
M  V30 3800 N 368.047 0.979072 1.23499 0
M  V30 3801 C 369.272 0.664845 1.96455 0
M  V30 3802 C 369.697 -0.761287 1.72006 0
M  V30 3803 O 369.055 -1.51837 0.990713 0
M  V30 3804 C 369.103 0.959479 3.47601 0
M  V30 3805 O 368.207 0.0508168 4.12369 0
M  V30 3806 H 367.548 0.250185 0.615064 0
M  V30 3807 H 370.078 1.31231 1.5697 0
M  V30 3808 H 370.088 0.895642 3.98048 0
M  V30 3809 H 368.763 1.99876 3.64723 0
M  V30 3810 H 367.34 0.16895 3.72517 0
M  V30 3811 N 369.525 -1.3858 0.750561 0
M  V30 3812 C 370.773 -1.99789 0.30477 0
M  V30 3813 C 371.094 -1.59874 -1.11649 0
M  V30 3814 O 370.364 -0.85417 -1.76297 0
M  V30 3815 H 368.944 -0.738902 0.109694 0
M  V30 3816 H 371.606 -1.69391 0.963983 0
M  V30 3817 H 370.702 -3.09952 0.365499 0
M  V30 3818 N 371.003 -0.499398 -1.49478 0
M  V30 3819 C 372.233 0.0424839 -2.06556 0
M  V30 3820 C 372.641 1.31514 -1.36018 0
M  V30 3821 O 371.984 1.78555 -0.431718 0
M  V30 3822 C 372.046 0.368074 -3.57611 0
M  V30 3823 C 371.71 -0.806631 -4.49825 0
M  V30 3824 C 372.707 -1.69667 -4.91436 0
M  V30 3825 C 370.392 -1.00498 -4.92144 0
M  V30 3826 C 372.386 -2.76923 -5.74101 0
M  V30 3827 C 370.073 -2.08072 -5.74586 0
M  V30 3828 C 371.071 -2.96119 -6.15469 0
M  V30 3829 O 370.759 -4.01836 -6.96264 0
M  V30 3830 H 370.491 -0.0165165 -0.675798 0
M  V30 3831 H 373.045 -0.695497 -1.93267 0
M  V30 3832 H 371.275 1.15963 -3.68903 0
M  V30 3833 H 372.964 0.848381 -3.96935 0
M  V30 3834 H 373.73 -1.55524 -4.59388 0
M  V30 3835 H 369.609 -0.329036 -4.59824 0
M  V30 3836 H 373.153 -3.45676 -6.05932 0
M  V30 3837 H 369.05 -2.22211 -6.06047 0
M  V30 3838 H 369.818 -3.9917 -7.14567 0
M  V30 3839 N 372.481 1.55866 -0.233164 0
M  V30 3840 C 373.431 2.17442 0.685774 0
M  V30 3841 C 374.415 1.12617 1.14918 0
M  V30 3842 O 375.607 1.3857 1.10124 0
M  V30 3843 C 372.736 2.86685 1.88856 0
M  V30 3844 C 371.822 3.98749 1.4443 0
M  V30 3845 N 372.213 5.00744 0.713364 0
M  V30 3846 C 370.511 4.11052 1.73068 0
M  V30 3847 C 371.212 5.79673 0.485205 0
M  V30 3848 N 370.188 5.33454 1.04536 0
M  V30 3849 H 373.99 2.93659 0.119022 0
M  V30 3850 H 371.504 1.62362 -0.0348995 0
M  V30 3851 H 373.501 3.29218 2.55776 0
M  V30 3852 H 372.161 2.11967 2.45967 0
M  V30 3853 H 373.172 5.16613 0.364861 0
M  V30 3854 H 369.849 3.47495 2.31416 0
M  V30 3855 H 371.239 6.71829 -0.097365 0
M  V30 3856 N 373.959 -0.0401083 1.57549 0
M  V30 3857 C 375.208 -0.732108 1.87944 0
M  V30 3858 C 375.521 -1.77107 0.830206 0
M  V30 3859 O 376.727 -2.51488 1.02302 0
M  V30 3860 C 375.183 -1.35315 3.33494 0
M  V30 3861 C 374.791 -0.351105 4.46622 0
M  V30 3862 C 376.535 -2.02566 3.73051 0
M  V30 3863 C 374.442 -0.979859 5.83226 0
M  V30 3864 H 373.372 -0.277188 0.701201 0
M  V30 3865 H 376.023 0.0138501 1.83495 0
M  V30 3866 H 374.405 -2.14844 3.32653 0
M  V30 3867 H 375.579 0.416674 4.58912 0
M  V30 3868 H 373.894 0.218708 4.15825 0
M  V30 3869 H 376.491 -2.50441 4.72423 0
M  V30 3870 H 376.834 -2.83904 3.04474 0
M  V30 3871 H 377.367 -1.29827 3.76018 0
M  V30 3872 H 374.106 -0.206135 6.55176 0
M  V30 3873 H 373.626 -1.71774 5.74677 0
M  V30 3874 H 375.305 -1.49046 6.29599 0
M  V30 3875 N 375.437 -1.54477 -0.31217 0
M  V30 3876 C 376.367 -1.87652 -1.38957 0
M  V30 3877 C 377.348 -0.734358 -1.53431 0
M  V30 3878 O 378.533 -0.98911 -1.67123 0
M  V30 3879 C 375.663 -2.11396 -2.75552 0
M  V30 3880 C 374.617 -3.27243 -2.75855 0
M  V30 3881 C 373.943 -3.36382 -4.15633 0
M  V30 3882 C 375.243 -4.64622 -2.38587 0
M  V30 3883 H 376.937 -2.77887 -1.11442 0
M  V30 3884 H 374.483 -1.33707 -0.534655 0
M  V30 3885 H 376.436 -2.33189 -3.51 0
M  V30 3886 H 375.16 -1.17921 -3.04569 0
M  V30 3887 H 373.819 -3.05356 -2.02863 0
M  V30 3888 H 373.467 -2.40445 -4.41809 0
M  V30 3889 H 373.167 -4.14249 -4.1674 0
M  V30 3890 H 374.691 -3.60422 -4.92877 0
M  V30 3891 H 376.105 -4.86219 -3.03749 0
M  V30 3892 H 374.502 -5.45121 -2.50925 0
M  V30 3893 H 375.572 -4.66097 -1.33723 0
M  V30 3894 N 376.915 0.57481 -1.46744 0
M  V30 3895 C 378.163 1.33009 -1.52161 0
M  V30 3896 C 378.484 1.94185 -0.178092 0
M  V30 3897 O 377.754 1.7899 0.796196 0
M  V30 3898 H 376.334 0.493873 -0.560445 0
M  V30 3899 H 378.996 0.672589 -1.82927 0
M  V30 3900 H 378.092 2.13273 -2.27862 0
M  V30 3901 O 378.432 1.44602 0.719209 0
M  V30 3902 H 379.123 1.36947 1.36986 0
M  V30 END ATOM
M  V30 BEGIN BOND
M  V30 END BOND
M  V30 END CTAB
M  END
$$$$
