drugbank_target|A1A2B5 Probable chorismate mutase (DB03884)
 OpenBabel12092120513D

  0  0  0     0  0            999 V3000
M  V30 BEGIN CTAB
M  V30 COUNTS 4981 5045 0 0 0
M  V30 BEGIN ATOM
M  V30 1 H -0.908 1.98254 -0.117106 0
M  V30 2 N 0 1.576 0 0
M  V30 3 C 0.933 2.03868 1.02534 0
M  V30 4 C 1.911 0.928543 1.3348 0
M  V30 5 O 3.095 1.19667 1.45644 0
M  V30 6 C 0.222 2.43627 2.35294 0
M  V30 7 C -0.732 3.65373 2.2001 0
M  V30 8 S 0.101 5.13292 1.52614 0
M  V30 9 C 1.257 5.56322 2.86805 0
M  V30 10 H 1.49 2.90518 0.631377 0
M  V30 11 H -0.977 1.52953 0.210867 0
M  V30 12 H 0.981 2.67203 3.11629 0
M  V30 13 H -0.358 1.57376 2.7183 0
M  V30 14 H -1.165 3.90944 3.18086 0
M  V30 15 H -1.563 3.418 1.51819 0
M  V30 16 H 0.729 5.58782 3.83104 0
M  V30 17 H 1.672 6.56266 2.65933 0
M  V30 18 H 2.08 4.83886 2.90714 0
M  V30 19 N 1.4781 -0.272755 1.55222 0
M  V30 20 C 2.7031 -1.02683 1.80197 0
M  V30 21 C 3.1281 -1.79142 0.573551 0
M  V30 22 O 2.4861 -1.74917 -0.476849 0
M  V30 23 C 2.5341 -1.9609 3.02624 0
M  V30 24 O 1.6381 -3.04863 2.77727 0
M  V30 25 H 0.9791 -0.293557 0.595584 0
M  V30 26 H 3.5091 -0.30159 2.02365 0
M  V30 27 H 3.5191 -2.38039 3.31363 0
M  V30 28 H 2.1941 -1.39851 3.91682 0
M  V30 29 H 0.7711 -2.67228 2.60084 0
M  V30 30 N 2.9562 -1.48159 -0.537278 0
M  V30 31 C 3.9192 -1.61665 -1.62472 0
M  V30 32 C 4.9192 -0.490395 -1.5314 0
M  V30 33 O 6.1092 -0.755998 -1.5694 0
M  V30 34 C 3.2412 -1.57997 -3.02076 0
M  V30 35 H 4.4342 -2.58621 -1.51839 0
M  V30 36 H 1.9872 -1.36647 -0.758771 0
M  V30 37 H 2.7222 -0.624913 -3.18222 0
M  V30 38 H 2.5072 -2.39755 -3.10258 0
M  V30 39 H 3.9972 -1.70627 -3.81151 0
M  V30 40 N 4.4343 0.785586 -1.36625 0
M  V30 41 C 5.8503 1.08419 -1.17122 0
M  V30 42 C 6.0503 2.015 0.00208491 0
M  V30 43 O 5.1063 2.43551 0.666278 0
M  V30 44 C 6.4193 1.69498 -2.48377 0
M  V30 45 C 7.9673 1.81821 -2.54775 0
M  V30 46 C 8.4423 2.46315 -3.86126 0
M  V30 47 N 9.9333 2.53779 -3.87492 0
M  V30 48 C 10.6683 3.045 -4.85868 0
M  V30 49 N 10.1643 3.55499 -5.94637 0
M  V30 50 N 11.9573 3.03247 -4.73284 0
M  V30 51 H 4.1083 0.167264 -2.1174 0
M  V30 52 H 6.3713 0.13682 -0.938075 0
M  V30 53 H 6.0773 1.08571 -3.34522 0
M  V30 54 H 5.9513 2.6896 -2.64462 0
M  V30 55 H 8.3383 2.41884 -1.69045 0
M  V30 56 H 8.4193 0.811532 -2.42586 0
M  V30 57 H 8.0633 1.86895 -4.72263 0
M  V30 58 H 7.9933 3.47561 -3.95612 0
M  V30 59 H 10.4843 2.17672 -3.08913 0
M  V30 60 H 10.7973 3.92562 -6.65669 0
M  V30 61 H 9.1423 3.5364 -5.98301 0
M  V30 62 H 12.3333 2.62696 -3.87438 0
M  V30 63 H 12.5063 3.42467 -5.50109 0
M  V30 64 N 5.9124 1.20967 1.01018 0
M  V30 65 C 6.8594 0.964281 2.09691 0
M  V30 66 C 7.8294 -0.107853 1.65749 0
M  V30 67 O 9.0144 0.0381987 1.90762 0
M  V30 68 C 6.1544 0.52943 3.41015 0
M  V30 69 C 5.2674 1.67043 3.98398 0
M  V30 70 C 4.4024 1.18525 5.17808 0
M  V30 71 C 3.4414 2.29892 5.67288 0
M  V30 72 N 2.5784 1.82546 6.77954 0
M  V30 73 H 7.4184 1.89463 2.30017 0
M  V30 74 H 4.9554 0.944289 1.1279 0
M  V30 75 H 6.9134 0.258588 4.16398 0
M  V30 76 H 5.5434 -0.363919 3.20742 0
M  V30 77 H 4.5954 2.05603 3.20049 0
M  V30 78 H 5.9074 2.50877 4.31117 0
M  V30 79 H 5.0614 0.870762 6.00419 0
M  V30 80 H 3.8004 0.316887 4.86669 0
M  V30 81 H 2.8054 2.6215 4.83278 0
M  V30 82 H 4.0304 3.17216 6.00459 0
M  V30 83 H 1.9764 0.980454 6.48632 0
M  V30 84 H 1.8934 2.59956 7.09901 0
M  V30 85 H 3.1614 1.54115 7.64113 0
M  V30 86 N 7.3905 -1.2043 1.01659 0
M  V30 87 C 8.3205 -2.25466 0.607226 0
M  V30 88 C 9.3015 -1.65853 -0.377716 0
M  V30 89 O 10.4865 -1.92409 -0.263149 0
M  V30 90 C 7.6165 -3.47256 -0.0552949 0
M  V30 91 C 6.5705 -4.19462 0.850632 0
M  V30 92 C 5.8965 -5.34673 0.0538859 0
M  V30 93 C 7.1965 -4.75603 2.15868 0
M  V30 94 H 8.8905 -2.59962 1.48526 0
M  V30 95 H 6.4365 -1.2496 0.715605 0
M  V30 96 H 8.3895 -4.19917 -0.353233 0
M  V30 97 H 7.1135 -3.11924 -0.968045 0
M  V30 98 H 5.7725 -3.48667 1.13257 0
M  V30 99 H 5.4205 -4.95585 -0.860514 0
M  V30 100 H 5.1205 -5.83913 0.657192 0
M  V30 101 H 6.6445 -6.10138 -0.237598 0
M  V30 102 H 8.0585 -5.40083 1.92311 0
M  V30 103 H 6.4555 -5.3528 2.71284 0
M  V30 104 H 7.5255 -3.94346 2.82169 0
M  V30 105 N 8.8686 -0.792821 -1.36206 0
M  V30 106 C 10.1156 -0.366786 -1.99151 0
M  V30 107 C 10.4436 1.06243 -1.62919 0
M  V30 108 O 9.6986 1.74927 -0.877442 0
M  V30 109 C 9.9976 -0.481501 -3.54142 0
M  V30 110 C 9.6636 -1.87202 -4.10203 0
M  V30 111 C 8.3256 -2.25248 -4.25226 0
M  V30 112 C 10.6776 -2.78237 -4.40719 0
M  V30 113 C 8.0056 -3.53723 -4.68078 0
M  V30 114 C 10.3576 -4.06144 -4.85005 0
M  V30 115 C 9.0216 -4.44207 -4.98234 0
M  V30 116 H 8.2916 -0.134217 -0.728743 0
M  V30 117 H 10.9386 -1.01094 -1.62641 0
M  V30 118 H 9.2436 0.246146 -3.91026 0
M  V30 119 H 10.9406 -0.132844 -4.0078 0
M  V30 120 H 7.5306 -1.56639 -3.98951 0
M  V30 121 H 11.7146 -2.50097 -4.28679 0
M  V30 122 H 6.9706 -3.8308 -4.76508 0
M  V30 123 H 11.1446 -4.76796 -5.07581 0
M  V30 124 H 8.7716 -5.43814 -5.31197 0
M  V30 125 N 10.3467 1.47872 -0.545128 0
M  V30 126 C 11.5767 2.06589 -0.0210534 0
M  V30 127 C 11.9847 1.39997 1.27269 0
M  V30 128 O 11.3277 0.486421 1.77143 0
M  V30 129 C 11.3897 3.58574 0.257933 0
M  V30 130 C 11.0537 4.47132 -0.944573 0
M  V30 131 C 12.0507 4.85986 -1.84699 0
M  V30 132 C 9.7357 4.88821 -1.15584 0
M  V30 133 C 11.7297 5.65314 -2.94446 0
M  V30 134 C 9.4167 5.67916 -2.25642 0
M  V30 135 C 10.4147 6.06073 -3.14905 0
M  V30 136 O 10.1027 6.83578 -4.23057 0
M  V30 137 H 9.8347 0.674971 -0.0372899 0
M  V30 138 H 12.3887 1.91037 -0.754599 0
M  V30 139 H 10.6187 3.72295 1.04564 0
M  V30 140 H 12.3077 3.99356 0.72592 0
M  V30 141 H 13.0737 4.54388 -1.69577 0
M  V30 142 H 8.9527 4.58595 -0.470279 0
M  V30 143 H 12.4967 5.95016 -3.64145 0
M  V30 144 H 8.3937 5.98927 -2.40742 0
M  V30 145 H 9.1617 7.01954 -4.20954 0
M  V30 146 N 11.8248 0.280983 1.55075 0
M  V30 147 C 12.7548 -0.597469 2.25727 0
M  V30 148 C 13.7358 -1.15417 1.24952 0
M  V30 149 O 14.9208 -1.18722 1.53684 0
M  V30 150 C 12.0508 -1.7789 2.98283 0
M  V30 151 C 11.0048 -1.35347 4.06036 0
M  V30 152 C 10.3308 -2.61846 4.66198 0
M  V30 153 C 11.6308 -0.499354 5.19907 0
M  V30 154 H 13.3248 -0.00824265 2.99399 0
M  V30 155 H 10.8708 -0.0025244 1.44 0
M  V30 156 H 12.8238 -2.39937 3.46422 0
M  V30 157 H 11.5478 -2.39405 2.22155 0
M  V30 158 H 10.2068 -0.756156 3.58717 0
M  V30 159 H 9.8548 -3.21632 3.86732 0
M  V30 160 H 9.5548 -2.3409 5.38958 0
M  V30 161 H 11.0788 -3.24732 5.1709 0
M  V30 162 H 12.4928 -1.02498 5.64063 0
M  V30 163 H 10.8898 -0.316424 5.99265 0
M  V30 164 H 11.9598 0.480459 4.82514 0
M  V30 165 N 13.3029 -1.57598 0.00835791 0
M  V30 166 C 14.5509 -1.90551 -0.6734 0
M  V30 167 C 14.8719 -0.883301 -1.73847 0
M  V30 168 O 14.1419 0.0781442 -1.95744 0
M  V30 169 H 12.7219 -0.703312 -0.251717 0
M  V30 170 H 15.3839 -1.94833 0.0512592 0
M  V30 171 H 14.4799 -2.9056 -1.13935 0
M  V30 172 N 14.781 0.264519 -1.55364 0
M  V30 173 C 16.192 0.834936 -1.6699 0
M  V30 174 C 16.543 1.86718 -0.602552 0
M  V30 175 O 15.668 2.14899 0.254425 0
M  V30 176 C 16.263 1.5212 -3.02729 0
M  V30 177 C 14.822 2.03954 -3.16354 0
M  V30 178 C 13.969 0.884498 -2.62815 0
M  V30 179 H 16.92 0.0406869 -1.58648 0
M  V30 180 H 16.941 2.38853 -2.96191 0
M  V30 181 H 16.453 0.769668 -3.80392 0
M  V30 182 H 14.554 2.82041 -2.43482 0
M  V30 183 H 14.667 2.24902 -4.23032 0
M  V30 184 H 13.031 1.2802 -2.20188 0
M  V30 185 H 13.814 0.14634 -3.42988 0
M  V30 186 N 16.2591 1.48442 0.529413 0
M  V30 187 C 17.1911 1.59095 1.64989 0
M  V30 188 C 18.2041 0.475212 1.5571 0
M  V30 189 O 19.3931 0.746081 1.6216 0
M  V30 190 C 16.4931 1.50518 3.0364 0
M  V30 191 C 15.6661 2.77142 3.38395 0
M  V30 192 C 14.7251 2.62012 4.56329 0
M  V30 193 O 13.7511 3.35898 4.59522 0
M  V30 194 N 14.9531 1.71667 5.54536 0
M  V30 195 H 17.7181 2.55723 1.56287 0
M  V30 196 H 15.2791 1.45173 0.716697 0
M  V30 197 H 17.2711 1.38091 3.80412 0
M  V30 198 H 15.8411 0.618627 3.06418 0
M  V30 199 H 15.0611 3.0413 2.50796 0
M  V30 200 H 16.3491 3.61146 3.58401 0
M  V30 201 H 15.7471 1.10841 5.54735 0
M  V30 202 H 14.3041 1.65178 6.30523 0
M  V30 203 N 17.7372 -0.778329 1.37039 0
M  V30 204 C 18.9852 -1.53361 1.31623 0
M  V30 205 C 19.3062 -1.94739 -0.100831 0
M  V30 206 O 18.5762 -1.65797 -1.04347 0
M  V30 207 H 17.1562 -0.568794 0.484234 0
M  V30 208 H 19.8182 -0.926742 1.71457 0
M  V30 209 H 18.9142 -2.43606 1.95096 0
M  V30 210 N 19.2153 -1.21501 -1.00376 0
M  V30 211 C 20.4433 -1.059 -1.77744 0
M  V30 212 C 20.8583 0.391125 -1.84704 0
M  V30 213 O 20.2153 1.27133 -1.30933 0
M  V30 214 C 20.2663 -1.65111 -3.21591 0
M  V30 215 O 19.9873 -3.0445 -3.15027 0
M  V30 216 C 21.4883 -1.54637 -4.15454 0
M  V30 217 H 18.7083 -0.371825 -0.558558 0
M  V30 218 H 21.2523 -1.60865 -1.26264 0
M  V30 219 H 19.4073 -1.14235 -3.70175 0
M  V30 220 H 19.8213 -3.3278 -4.0541 0
M  V30 221 H 21.2953 -2.00808 -5.14179 0
M  V30 222 H 21.7723 -0.501022 -4.36333 0
M  V30 223 H 22.3783 -2.04767 -3.72761 0
M  V30 224 N 20.6934 1.19889 -1.02296 0
M  V30 225 C 21.9404 1.8942 -0.715972 0
M  V30 226 C 22.2684 1.79251 0.754944 0
M  V30 227 O 21.5234 1.17526 1.56481 0
M  V30 228 C 21.8224 3.39883 -1.10518 0
M  V30 229 C 21.4884 3.70254 -2.57337 0
M  V30 230 C 20.1504 3.78254 -2.97452 0
M  V30 231 C 22.5024 3.84052 -3.52354 0
M  V30 232 C 19.8304 3.97514 -4.31509 0
M  V30 233 C 22.1824 4.04824 -4.86108 0
M  V30 234 C 20.8464 4.11054 -5.25919 0
M  V30 235 H 20.1164 0.693138 -0.261993 0
M  V30 236 H 22.7634 1.42012 -1.28472 0
M  V30 237 H 21.0684 3.8915 -0.454953 0
M  V30 238 H 22.7654 3.9199 -0.845261 0
M  V30 239 H 19.3554 3.64632 -2.25258 0
M  V30 240 H 23.5394 3.77221 -3.22518 0
M  V30 241 H 18.7954 4.00574 -4.61898 0
M  V30 242 H 22.9694 4.14442 -5.59653 0
M  V30 243 H 20.5964 4.2573 -6.29808 0
M  V30 244 N 22.1715 0.800033 1.35784 0
M  V30 245 C 23.3995 0.389606 2.03199 0
M  V30 246 C 23.8145 -0.997375 1.60306 0
M  V30 247 O 23.1715 -1.64154 0.797481 0
M  V30 248 C 23.2225 0.455855 3.58614 0
M  V30 249 O 22.9435 1.78815 3.99946 0
M  V30 250 C 24.4445 0.0374032 4.43284 0
M  V30 251 H 21.6645 0.159132 0.651857 0
M  V30 252 H 24.2085 1.08183 1.73541 0
M  V30 253 H 22.3635 -0.188057 3.86943 0
M  V30 254 H 22.7775 1.74636 4.94573 0
M  V30 255 H 24.2515 0.134882 5.51835 0
M  V30 256 H 24.7285 -1.01651 4.27275 0
M  V30 257 H 25.3345 0.654215 4.20238 0
M  V30 258 N 23.6496 -1.47581 0.552962 0
M  V30 259 C 24.5996 -2.26961 -0.217423 0
M  V30 260 C 25.5836 -1.34099 -0.889168 0
M  V30 261 O 26.7756 -1.58483 -0.788176 0
M  V30 262 C 23.9046 -3.19756 -1.24944 0
M  V30 263 C 22.9906 -4.20097 -0.581327 0
M  V30 264 N 23.3816 -5.04614 0.346171 0
M  V30 265 C 21.6796 -4.38099 -0.835767 0
M  V30 266 C 22.3806 -5.77052 0.733854 0
M  V30 267 N 21.3566 -5.43526 0.0896567 0
M  V30 268 H 25.1586 -2.89688 0.495761 0
M  V30 269 H 22.6726 -1.58068 0.372597 0
M  V30 270 H 24.6696 -3.75305 -1.81527 0
M  V30 271 H 23.3296 -2.58585 -1.96376 0
M  V30 272 H 24.3406 -5.12869 0.720098 0
M  V30 273 H 21.0176 -3.88102 -1.53892 0
M  V30 274 H 22.4076 -6.5504 1.49574 0
M  V30 275 N 25.1277 -0.289203 -1.54924 0
M  V30 276 C 26.0597 0.625583 -2.20497 0
M  V30 277 C 27.0727 1.10667 -1.19402 0
M  V30 278 O 28.2617 1.02615 -1.46056 0
M  V30 279 C 25.3617 1.86702 -2.82835 0
M  V30 280 C 24.5347 1.5304 -4.09753 0
M  V30 281 C 23.5937 2.62576 -4.56005 0
M  V30 282 O 22.6197 2.28167 -5.21468 0
M  V30 283 N 23.8217 3.92901 -4.27328 0
M  V30 284 H 26.5867 0.0642801 -2.99631 0
M  V30 285 H 24.1477 -0.110896 -1.6152 0
M  V30 286 H 26.1397 2.59304 -3.10715 0
M  V30 287 H 24.7097 2.33702 -2.07611 0
M  V30 288 H 23.9297 0.637564 -3.8901 0
M  V30 289 H 25.2177 1.28072 -4.92418 0
M  V30 290 H 24.6157 4.23671 -3.74859 0
M  V30 291 H 23.1727 4.61837 -4.59946 0
M  V30 292 N 26.6058 1.57591 -0.0167156 0
M  V30 293 C 27.5688 2.08393 0.954204 0
M  V30 294 C 28.5688 0.996531 1.26198 0
M  V30 295 O 29.7588 1.25858 1.20438 0
M  V30 296 C 26.8908 2.5394 2.27436 0
M  V30 297 H 28.0838 2.95455 0.514451 0
M  V30 298 H 25.6368 1.54582 0.231089 0
M  V30 299 H 26.3718 1.70171 2.76066 0
M  V30 300 H 26.1568 3.33371 2.06412 0
M  V30 301 H 27.6468 2.93512 2.97053 0
M  V30 302 N 28.0839 -0.256276 1.55502 0
M  V30 303 C 29.0469 -1.30047 1.88734 0
M  V30 304 C 30.0469 -1.4154 0.763086 0
M  V30 305 O 31.2369 -1.40403 1.03115 0
M  V30 306 C 28.3689 -2.67953 2.10747 0
M  V30 307 H 29.5619 -1.01802 2.82093 0
M  V30 308 H 27.1149 -0.495134 1.4825 0
M  V30 309 H 27.8499 -3.01351 1.19825 0
M  V30 310 H 27.6349 -2.60993 2.92617 0
M  V30 311 H 29.1249 -3.43368 2.37673 0
M  V30 312 N 29.562 -1.4872 -0.521534 0
M  V30 313 C 30.808 -1.574 -1.27879 0
M  V30 314 C 31.141 -0.250817 -1.92573 0
M  V30 315 O 30.416 0.743934 -1.79711 0
M  V30 316 C 30.699 -2.71843 -2.36164 0
M  V30 317 C 30.552 -4.13893 -1.76105 0
M  V30 318 C 31.871 -2.82008 -3.37875 0
M  V30 319 H 28.99 -0.572941 -0.463581 0
M  V30 320 H 31.632 -1.80927 -0.580119 0
M  V30 321 H 29.782 -2.51914 -2.95756 0
M  V30 322 H 31.454 -4.45284 -1.20499 0
M  V30 323 H 29.697 -4.20498 -1.06601 0
M  V30 324 H 30.368 -4.89804 -2.5455 0
M  V30 325 H 32.844 -3.00086 -2.88249 0
M  V30 326 H 31.72 -3.63796 -4.11028 0
M  V30 327 H 31.981 -1.90511 -3.98946 0
M  V30 328 N 31.0401 0.771051 -1.3745 0
M  V30 329 C 31.9881 1.90574 -1.33358 0
M  V30 330 C 32.9821 1.67936 -0.22224 0
M  V30 331 O 34.1881 1.75717 -0.390304 0
M  V30 332 H 30.5631 0.626714 -0.415612 0
M  V30 333 H 32.5341 1.91142 -2.29144 0
M  V30 334 C 31.2831 3.27845 -1.15813 0
M  V30 335 H 30.6061 3.45842 -2.00583 0
M  V30 336 H 32.0461 4.07538 -1.17 0
M  V30 337 C 30.5051 3.36625 0.136165 0
M  V30 338 O 31.0351 3.85785 1.11949 0
M  V30 339 N 29.2411 2.89997 0.187099 0
M  V30 340 H 28.7881 2.50182 -0.613753 0
M  V30 341 H 28.7461 2.96252 1.05272 0
M  V30 342 N 32.5182 1.22032 0.997298 0
M  V30 343 C 33.4812 0.987909 2.06816 0
M  V30 344 C 34.4812 -0.0440084 1.6074 0
M  V30 345 O 35.6712 0.194053 1.73116 0
M  V30 346 C 32.8032 0.49132 3.37341 0
M  V30 347 H 33.9962 1.93803 2.28868 0
M  V30 348 H 31.5492 1.03838 1.16822 0
M  V30 349 H 32.2842 -0.463364 3.20973 0
M  V30 350 H 32.0692 1.23575 3.72118 0
M  V30 351 H 33.5592 0.348824 4.16141 0
M  V30 352 N 33.9963 -1.19345 1.0293 0
M  V30 353 C 34.9593 -2.20793 0.615069 0
M  V30 354 C 35.9593 -1.57553 -0.321533 0
M  V30 355 O 37.1493 -1.73862 -0.108483 0
M  V30 356 C 34.2813 -3.40754 -0.0999222 0
M  V30 357 H 35.4743 -2.58955 1.51269 0
M  V30 358 H 33.0273 -1.3303 0.820534 0
M  V30 359 H 33.7623 -3.0811 -1.01187 0
M  V30 360 H 33.5473 -3.87889 0.57309 0
M  V30 361 H 35.0373 -4.15898 -0.376645 0
M  V30 362 N 35.4744 -0.807222 -1.35358 0
M  V30 363 C 36.4064 -0.175717 -2.28525 0
M  V30 364 C 37.4194 0.625354 -1.5031 0
M  V30 365 O 38.6084 0.457611 -1.72535 0
M  V30 366 C 35.7084 0.773471 -3.29956 0
M  V30 367 C 34.8814 0.0186296 -4.37396 0
M  V30 368 C 33.9404 0.886395 -5.18681 0
M  V30 369 O 32.9664 0.337106 -5.68201 0
M  V30 370 N 34.1684 2.20839 -5.36852 0
M  V30 371 H 36.9334 -0.976091 -2.83359 0
M  V30 372 H 34.4944 -0.662737 -1.47714 0
M  V30 373 H 36.4864 1.35824 -3.81227 0
M  V30 374 H 35.0564 1.47465 -2.75632 0
M  V30 375 H 34.2764 -0.747349 -3.87051 0
M  V30 376 H 35.5644 -0.501577 -5.06322 0
M  V30 377 H 34.9624 2.67858 -4.98265 0
M  V30 378 H 33.5194 2.74237 -5.91301 0
M  V30 379 N 36.9525 1.47285 -0.560781 0
M  V30 380 C 37.8625 2.33846 0.187954 0
M  V30 381 C 38.8785 1.48412 0.908293 0
M  V30 382 O 40.0545 1.81332 0.876388 0
M  V30 383 C 37.1195 3.25178 1.2025 0
M  V30 384 C 36.1805 4.26504 0.489208 0
M  V30 385 C 35.4135 5.13472 1.45542 0
M  V30 386 O 35.6365 5.02959 2.6905 0
M  V30 387 O 34.5705 5.93902 0.977963 0
M  V30 388 H 38.3965 2.99177 -0.522177 0
M  V30 389 H 35.9815 1.45903 -0.321364 0
M  V30 390 H 37.8635 3.81584 1.78805 0
M  V30 391 H 36.5385 2.6247 1.89449 0
M  V30 392 H 35.4455 3.73847 -0.137627 0
M  V30 393 H 36.7785 4.91935 -0.161399 0
M  V30 394 N 38.4306 0.297415 1.54768 0
M  V30 395 C 39.3606 -0.573494 2.26348 0
M  V30 396 C 40.3416 -1.14085 1.26169 0
M  V30 397 O 41.5266 -1.17086 1.54934 0
M  V30 398 C 38.6566 -1.74716 3.00153 0
M  V30 399 C 37.6106 -1.31032 4.07449 0
M  V30 400 C 36.9366 -2.56887 4.68949 0
M  V30 401 C 38.2366 -0.444183 5.20408 0
M  V30 402 H 39.9306 0.0235131 2.99391 0
M  V30 403 H 37.4766 0.0127488 1.43994 0
M  V30 404 H 39.4296 -2.3625 3.48947 0
M  V30 405 H 38.1536 -2.37035 2.24682 0
M  V30 406 H 36.8126 -0.718066 3.59499 0
M  V30 407 H 36.4606 -3.17512 3.90122 0
M  V30 408 H 36.1606 -2.2836 5.41411 0
M  V30 409 H 37.6846 -3.19229 5.20505 0
M  V30 410 H 39.0986 -0.9651 5.65118 0
M  V30 411 H 37.4956 -0.252846 5.99567 0
M  V30 412 H 38.5656 0.531609 4.81977 0
M  V30 413 N 39.9087 -1.5758 0.0250728 0
M  V30 414 C 40.8717 -2.08896 -0.943139 0
M  V30 415 C 41.8717 -1.00321 -1.25668 0
M  V30 416 O 43.0617 -1.26495 -1.19769 0
M  V30 417 C 40.1937 -2.55143 -2.26086 0
M  V30 418 H 41.3867 -2.95723 -0.498775 0
M  V30 419 H 38.9397 -1.54703 -0.222888 0
M  V30 420 H 39.6747 -1.71633 -2.75159 0
M  V30 421 H 39.4597 -3.34461 -2.04641 0
M  V30 422 H 40.9497 -2.95083 -2.95492 0
M  V30 423 N 41.3868 0.248026 -1.55636 0
M  V30 424 C 42.8028 0.596483 -1.48035 0
M  V30 425 C 43.0028 1.88386 -0.715039 0
M  V30 426 O 42.0588 2.51319 -0.243944 0
M  V30 427 C 43.3718 0.700258 -2.92433 0
M  V30 428 C 44.9198 0.792659 -3.02797 0
M  V30 429 C 45.3948 0.928005 -4.485 0
M  V30 430 N 46.8858 0.992903 -4.52433 0
M  V30 431 C 47.6208 1.11687 -5.62418 0
M  V30 432 N 47.1168 1.20645 -6.82214 0
M  V30 433 N 48.9098 1.14994 -5.50212 0
M  V30 434 H 41.0608 -0.597109 -2.03834 0
M  V30 435 H 43.3238 -0.205925 -0.925364 0
M  V30 436 H 43.0298 -0.175658 -3.51261 0
M  V30 437 H 42.9038 1.57255 -3.42857 0
M  V30 438 H 45.2908 1.65903 -2.4405 0
M  V30 439 H 45.3718 -0.104762 -2.55585 0
M  V30 440 H 45.0158 0.0661971 -5.07857 0
M  V30 441 H 44.9458 1.84045 -4.93391 0
M  V30 442 H 47.4368 0.935064 -3.66149 0
M  V30 443 H 47.7498 1.30008 -7.61786 0
M  V30 444 H 46.0948 1.17605 -6.84977 0
M  V30 445 H 49.2858 1.07643 -4.55555 0
M  V30 446 H 49.4588 1.24311 -6.35965 0
M  V30 447 N 42.8649 1.48995 0.513639 0
M  V30 448 C 44.1119 1.57843 1.26854 0
M  V30 449 C 44.4399 0.259501 1.92761 0
M  V30 450 O 43.6949 -0.75159 1.80692 0
M  V30 451 C 43.9939 2.67756 2.36731 0
M  V30 452 C 43.6599 4.09669 1.88368 0
M  V30 453 C 42.3219 4.48291 1.74896 0
M  V30 454 C 44.6739 4.98537 1.52021 0
M  V30 455 C 42.0019 5.73568 1.23438 0
M  V30 456 C 44.3539 6.24319 1.0202 0
M  V30 457 C 43.0179 6.61783 0.871778 0
M  V30 458 H 42.2879 0.577587 0.464192 0
M  V30 459 H 44.9349 1.82778 0.571366 0
M  V30 460 H 43.2399 2.36743 3.12185 0
M  V30 461 H 44.9369 2.71813 2.9482 0
M  V30 462 H 41.5269 3.79176 1.99808 0
M  V30 463 H 45.7109 4.69363 1.61281 0
M  V30 464 H 40.9669 6.01304 1.10648 0
M  V30 465 H 45.1409 6.92566 0.729722 0
M  V30 466 H 42.7679 7.5874 0.470852 0
M  V30 467 N 44.343 -0.763751 1.37857 0
M  V30 468 C 45.253 -1.90817 1.36478 0
M  V30 469 C 46.269 -1.71997 0.263248 0
M  V30 470 O 47.445 -1.95095 0.499979 0
M  V30 471 C 44.51 -3.2605 1.17864 0
M  V30 472 C 43.571 -3.57467 2.3773 0
M  V30 473 C 42.804 -4.86249 2.19995 0
M  V30 474 O 43.027 -5.57884 1.18836 0
M  V30 475 O 41.961 -5.16911 3.08361 0
M  V30 476 H 45.787 -1.94933 2.32884 0
M  V30 477 H 43.372 -0.907619 1.1867 0
M  V30 478 H 45.254 -4.06924 1.09504 0
M  V30 479 H 43.929 -3.22769 0.245372 0
M  V30 480 H 42.836 -2.76796 2.51664 0
M  V30 481 H 44.169 -3.655 3.29652 0
M  V30 482 N 45.8211 -1.22559 -0.990812 0
M  V30 483 C 47.2321 -1.04791 -1.54518 0
M  V30 484 C 47.5831 0.387998 -1.92325 0
M  V30 485 O 46.7081 1.27328 -1.74976 0
M  V30 486 C 47.3031 -1.896 -2.80779 0
M  V30 487 C 45.8621 -1.76124 -3.32652 0
M  V30 488 C 45.0091 -1.8594 -2.05722 0
M  V30 489 H 47.9601 -1.36374 -0.811662 0
M  V30 490 H 47.9811 -1.41464 -3.53225 0
M  V30 491 H 47.4931 -2.94101 -2.53231 0
M  V30 492 H 45.5941 -0.743643 -3.65104 0
M  V30 493 H 45.7071 -2.58913 -4.03114 0
M  V30 494 H 44.0711 -1.29403 -2.19379 0
M  V30 495 H 44.8541 -2.91976 -1.80568 0
M  V30 496 N 47.2992 1.18797 -1.03562 0
M  V30 497 C 48.2312 2.21731 -0.580337 0
M  V30 498 C 49.2442 1.59051 0.347349 0
M  V30 499 O 50.4332 1.77929 0.142669 0
M  V30 500 C 47.5332 3.38459 0.172805 0
M  V30 501 C 46.7062 4.3072 -0.761496 0
M  V30 502 C 45.7652 5.26174 -0.0525547 0
M  V30 503 O 44.7912 5.65108 -0.681333 0
M  V30 504 N 45.9932 5.67624 1.21586 0
M  V30 505 H 48.7582 2.61417 -1.46565 0
M  V30 506 H 46.3192 1.33531 -0.915476 0
M  V30 507 H 48.3112 3.99335 0.656793 0
M  V30 508 H 46.8812 2.97507 0.959602 0
M  V30 509 H 46.1012 3.67525 -1.42544 0
M  V30 510 H 47.3892 4.89267 -1.39626 0
M  V30 511 H 46.7872 5.38038 1.74732 0
M  V30 512 H 45.3442 6.30721 1.64421 0
M  V30 513 N 48.7773 0.814389 1.34928 0
M  V30 514 C 50.0253 0.397636 1.9815 0
M  V30 515 C 50.3463 -1.04069 1.64908 0
M  V30 516 O 49.6163 -1.72121 0.93548 0
M  V30 517 H 48.1963 0.144043 0.732981 0
M  V30 518 H 50.8583 1.04195 1.6471 0
M  V30 519 H 49.9543 0.509688 3.0791 0
M  V30 520 N 50.2554 -1.46986 0.568584 0
M  V30 521 C 51.5024 -2.02441 0.0487986 0
M  V30 522 C 51.8304 -1.44169 -1.30559 0
M  V30 523 O 51.0854 -0.591213 -1.86556 0
M  V30 524 C 51.3844 -3.57306 -0.081836 0
M  V30 525 C 51.0504 -4.34552 1.20313 0
M  V30 526 C 49.7124 -4.55376 1.5552 0
M  V30 527 C 52.0644 -4.79016 2.05411 0
M  V30 528 C 49.3924 -5.17913 2.7565 0
M  V30 529 C 51.7444 -5.42879 3.24754 0
M  V30 530 C 50.4084 -5.61933 3.60261 0
M  V30 531 H 49.6784 -0.740785 0.0178567 0
M  V30 532 H 52.3254 -1.76525 0.742384 0
M  V30 533 H 50.6304 -3.8228 -0.858463 0
M  V30 534 H 52.3274 -3.97876 -0.499546 0
M  V30 535 H 48.9174 -4.18631 0.919014 0
M  V30 536 H 53.1014 -4.62696 1.79516 0
M  V30 537 H 48.3574 -5.30858 3.03315 0
M  V30 538 H 52.5314 -5.76293 3.90973 0
M  V30 539 H 50.1584 -6.10161 4.53439 0
M  V30 540 N 51.7335 -0.305618 -1.54608 0
M  V30 541 C 53.0105 0.355652 -1.92339 0
M  V30 542 C 53.3905 1.71324 -1.23335 0
M  V30 543 O 52.7385 2.25473 -0.370702 0
M  V30 544 C 52.9485 0.46572 -3.45879 0
M  V30 545 C 54.2965 0.734426 -4.182 0
M  V30 546 O 55.3205 0.54935 -3.51938 0
M  V30 547 O 54.1795 1.09024 -5.35515 0
M  V30 548 H 51.2735 0.199666 -0.802535 0
M  V30 549 H 53.8195 -0.354017 -1.65966 0
M  V30 550 H 52.5915 -0.488461 -3.88239 0
M  V30 551 H 52.2145 1.22367 -3.78301 0
M  V30 552 N 53.2116 1.57565 -0.0334293 0
M  V30 553 C 54.1416 2.13511 0.945265 0
M  V30 554 C 55.1226 1.05231 1.33643 0
M  V30 555 O 56.3076 1.33084 1.41429 0
M  V30 556 C 53.4376 2.6657 2.22616 0
M  V30 557 C 52.3916 3.79676 1.97561 0
M  V30 558 C 51.7176 4.1918 3.31952 0
M  V30 559 C 53.0176 5.0557 1.31135 0
M  V30 560 H 54.7116 2.95538 0.479325 0
M  V30 561 H 52.2576 1.42166 0.229115 0
M  V30 562 H 54.2106 3.04344 2.91466 0
M  V30 563 H 52.9346 1.8171 2.71384 0
M  V30 564 H 51.5936 3.42347 1.31127 0
M  V30 565 H 51.2416 3.31296 3.78487 0
M  V30 566 H 50.9416 4.95402 3.15992 0
M  V30 567 H 52.4656 4.59541 4.02063 0
M  V30 568 H 53.8796 5.40903 1.89992 0
M  V30 569 H 52.2766 5.86818 1.25559 0
M  V30 570 H 53.3466 4.84062 0.284894 0
M  V30 571 N 54.6897 -0.239769 1.55765 0
M  V30 572 C 55.6227 -1.32356 1.85895 0
M  V30 573 C 56.6007 -1.46053 0.714662 0
M  V30 574 O 57.7847 -1.62154 0.961157 0
M  V30 575 C 54.9117 -2.6962 2.04994 0
M  V30 576 C 53.9577 -2.73036 3.27648 0
M  V30 577 S 54.7907 -2.28929 4.84099 0
M  V30 578 C 55.9467 -3.68103 5.06212 0
M  V30 579 H 56.1797 -1.06601 2.77531 0
M  V30 580 H 53.7127 -0.441112 1.47965 0
M  V30 581 H 55.6707 -3.48653 2.16682 0
M  V30 582 H 54.3317 -2.92609 1.14188 0
M  V30 583 H 53.5247 -3.7386 3.38 0
M  V30 584 H 53.1267 -2.02052 3.14723 0
M  V30 585 H 55.4187 -4.63656 4.93993 0
M  V30 586 H 56.3617 -3.6268 6.08168 0
M  V30 587 H 56.7697 -3.60947 4.34025 0
M  V30 588 N 56.1678 -1.49265 -0.50573 0
M  V30 589 C 57.5788 -1.51769 -1.08734 0
M  V30 590 C 57.9298 -0.301192 -1.93874 0
M  V30 591 O 57.0548 0.589456 -2.08217 0
M  V30 592 C 57.6498 -2.75017 -1.97867 0
M  V30 593 C 56.2088 -2.80314 -2.51199 0
M  V30 594 C 55.3558 -2.4562 -1.28709 0
M  V30 595 H 58.3068 -1.56031 -0.289855 0
M  V30 596 H 58.3278 -2.5491 -2.82491 0
M  V30 597 H 57.8398 -3.63539 -1.35873 0
M  V30 598 H 55.9408 -1.96061 -3.16845 0
M  V30 599 H 56.0538 -3.82366 -2.88675 0
M  V30 600 H 54.4178 -1.97297 -1.61078 0
M  V30 601 H 55.2008 -3.36411 -0.6843 0
M  V30 602 N 57.6459 0.756429 -1.3826 0
M  V30 603 C 58.5789 1.87802 -1.29637 0
M  V30 604 C 59.5569 1.61667 -0.173939 0
M  V30 605 O 60.7409 1.85208 -0.350775 0
M  V30 606 C 57.8679 3.23354 -1.00797 0
M  V30 607 C 56.9139 3.68379 -2.14939 0
M  V30 608 S 57.7469 3.8025 -3.77054 0
M  V30 609 C 58.9029 5.18626 -3.50396 0
M  V30 610 H 59.1359 1.94829 -2.24564 0
M  V30 611 H 56.6689 0.919117 -1.24063 0
M  V30 612 H 58.6269 4.01637 -0.848413 0
M  V30 613 H 57.2879 3.14008 -0.0759369 0
M  V30 614 H 56.4809 4.66693 -1.90299 0
M  V30 615 H 56.0829 2.97242 -2.26988 0
M  V30 616 H 58.3749 6.04289 -3.06334 0
M  V30 617 H 59.3179 5.48286 -4.48094 0
M  V30 618 H 59.7259 4.87289 -2.84973 0
M  V30 619 N 59.124 1.23083 0.984299 0
M  V30 620 C 60.401 0.9689 1.69917 0
M  V30 621 C 60.781 -0.513604 2.04757 0
M  V30 622 O 60.129 -1.48383 1.73767 0
M  V30 623 C 60.339 1.87518 2.94343 0
M  V30 624 C 61.687 2.13636 3.6694 0
M  V30 625 O 62.711 1.85036 3.04368 0
M  V30 626 O 61.57 2.62119 4.79537 0
M  V30 627 H 58.664 0.365095 0.742048 0
M  V30 628 H 61.21 1.34107 1.03987 0
M  V30 629 H 59.982 2.87756 2.65164 0
M  V30 630 H 59.605 1.50514 3.6801 0
M  V30 631 N 60.6021 -1.18246 1.0419 0
M  V30 632 C 61.8791 -1.84121 0.660208 0
M  V30 633 C 62.2591 -1.92778 -0.860221 0
M  V30 634 O 61.6071 -1.45464 -1.76217 0
M  V30 635 C 61.8171 -3.22355 1.33747 0
M  V30 636 C 63.1651 -3.98376 1.46906 0
M  V30 637 O 64.1891 -3.31799 1.29568 0
M  V30 638 O 63.0481 -5.17665 1.75171 0
M  V30 639 H 60.1421 -0.794036 0.231161 0
M  V30 640 H 62.6881 -1.25628 1.14087 0
M  V30 641 H 61.4601 -3.10964 2.37522 0
M  V30 642 H 61.0831 -3.88506 0.845515 0
M  V30 643 N 62.0802 -0.821533 -1.34494 0
M  V30 644 C 63.3262 -0.409552 -1.98622 0
M  V30 645 C 63.6592 1.0244 -1.64984 0
M  V30 646 O 62.9342 1.71325 -0.920758 0
M  V30 647 C 63.2172 -0.610458 -3.54888 0
M  V30 648 C 63.0702 -2.09043 -3.98273 0
M  V30 649 C 64.3892 -0.0455379 -4.40076 0
M  V30 650 H 61.5082 -0.15028 -0.721516 0
M  V30 651 H 64.1502 -1.03384 -1.59411 0
M  V30 652 H 62.3002 -0.079044 -3.8842 0
M  V30 653 H 63.9722 -2.68537 -3.75081 0
M  V30 654 H 62.2152 -2.58139 -3.48635 0
M  V30 655 H 62.8862 -2.18182 -5.07051 0
M  V30 656 H 65.3622 -0.499557 -4.1309 0
M  V30 657 H 64.2382 -0.215922 -5.48475 0
M  V30 658 H 64.4992 1.04939 -4.29465 0
M  V30 659 N 63.5583 1.46682 -0.576371 0
M  V30 660 C 64.9693 1.86112 -0.148091 0
M  V30 661 C 65.3203 1.48073 1.2872 0
M  V30 662 O 64.4453 0.892656 1.97131 0
M  V30 663 C 65.0403 3.37786 -0.261982 0
M  V30 664 C 63.5993 3.76235 0.111384 0
M  V30 665 C 62.7463 2.70713 -0.60083 0
M  V30 666 H 65.6973 1.37927 -0.78497 0
M  V30 667 H 65.7183 3.77007 0.514364 0
M  V30 668 H 65.2303 3.6544 -1.30671 0
M  V30 669 H 63.3313 3.54198 1.15649 0
M  V30 670 H 63.4443 4.78391 -0.26052 0
M  V30 671 H 61.8083 2.54666 -0.0417783 0
M  V30 672 H 62.5913 3.01208 -1.64708 0
M  V30 673 N 65.0364 0.313813 1.54444 0
M  V30 674 C 65.9684 -0.590425 2.21465 0
M  V30 675 C 66.9814 -1.08753 1.21147 0
M  V30 676 O 68.1704 -1.00278 1.4767 0
M  V30 677 C 65.2704 -1.82179 2.85769 0
M  V30 678 C 64.4434 -1.46502 4.12136 0
M  V30 679 C 63.5024 -2.55288 4.60124 0
M  V30 680 O 62.5284 -2.19842 5.25032 0
M  V30 681 N 63.7304 -3.86053 4.33525 0
M  V30 682 H 66.4954 -0.0166033 2.99695 0
M  V30 683 H 64.0564 0.136578 1.61323 0
M  V30 684 H 66.0484 -2.54328 3.14801 0
M  V30 685 H 64.6184 -2.30369 2.11303 0
M  V30 686 H 63.8384 -0.575595 3.89975 0
M  V30 687 H 65.1264 -1.20221 4.94393 0
M  V30 688 H 64.5244 -4.17654 3.81552 0
M  V30 689 H 63.0814 -4.54461 4.67235 0
M  V30 690 N 66.5145 -1.57545 0.0417849 0
M  V30 691 C 67.7635 -1.91494 -0.633492 0
M  V30 692 C 68.0765 -0.921084 -1.72556 0
M  V30 693 O 69.2825 -1.15228 -2.45835 0
M  V30 694 C 67.7385 -3.40072 -1.17808 0
M  V30 695 C 67.3465 -4.47843 -0.118633 0
M  V30 696 C 69.0905 -3.8307 -1.82915 0
M  V30 697 C 66.9975 -5.87529 -0.675578 0
M  V30 698 H 65.9275 -0.714653 -0.24039 0
M  V30 699 H 68.5785 -1.83175 0.109148 0
M  V30 700 H 66.9605 -3.43364 -1.97274 0
M  V30 701 H 68.1345 -4.56128 0.654494 0
M  V30 702 H 66.4495 -4.14128 0.434414 0
M  V30 703 H 69.0465 -4.84794 -2.25563 0
M  V30 704 H 69.3895 -3.1881 -2.67705 0
M  V30 705 H 69.9225 -3.82255 -1.10119 0
M  V30 706 H 66.6615 -6.55362 0.134475 0
M  V30 707 H 66.1815 -5.82824 -1.4169 0
M  V30 708 H 67.8605 -6.36491 -1.1614 0
M  V30 709 N 67.9926 0.231505 -1.5589 0
M  V30 710 C 68.9226 1.29022 -1.94617 0
M  V30 711 C 69.9036 1.4941 -0.813067 0
M  V30 712 O 71.0886 1.6176 -1.07459 0
M  V30 713 C 68.2186 2.64199 -2.25424 0
M  V30 714 C 67.1726 2.58484 -3.41131 0
M  V30 715 C 66.4986 3.97599 -3.57518 0
M  V30 716 C 67.7986 2.1413 -4.76388 0
M  V30 717 H 69.4926 0.968563 -2.83301 0
M  V30 718 H 67.0386 0.464479 -1.36303 0
M  V30 719 H 68.9916 3.38413 -2.51107 0
M  V30 720 H 67.7156 2.98032 -1.33583 0
M  V30 721 H 66.3746 1.86727 -3.15481 0
M  V30 722 H 66.0226 4.28723 -2.6307 0
M  V30 723 H 65.7226 3.94659 -4.35337 0
M  V30 724 H 67.2466 4.7349 -3.85538 0
M  V30 725 H 68.6606 2.78083 -5.01341 0
M  V30 726 H 67.0576 2.2227 -5.57419 0
M  V30 727 H 68.1276 1.09331 -4.72414 0
M  V30 728 N 69.4707 1.49531 0.497807 0
M  V30 729 C 70.7477 1.49682 1.25915 0
M  V30 730 C 71.1277 0.226339 2.09883 0
M  V30 731 O 70.4757 -0.791189 2.14365 0
M  V30 732 C 70.6857 2.77755 2.11313 0
M  V30 733 C 72.0337 3.27371 2.70395 0
M  V30 734 O 73.0577 2.78894 2.21578 0
M  V30 735 O 71.9167 4.11808 3.59272 0
M  V30 736 H 69.0107 0.599228 0.56996 0
M  V30 737 H 71.5567 1.61798 0.511816 0
M  V30 738 H 70.3287 3.61713 1.49264 0
M  V30 739 H 69.9517 2.68515 2.93233 0
M  V30 740 N 70.9488 -0.749086 1.3866 0
M  V30 741 C 71.9118 -1.84457 1.36045 0
M  V30 742 C 72.9118 -1.58682 0.260122 0
M  V30 743 O 74.1018 -1.66343 0.517261 0
M  V30 744 C 71.2338 -3.22008 1.11911 0
M  V30 745 H 72.4268 -1.88182 2.33512 0
M  V30 746 H 69.9798 -0.951266 1.24019 0
M  V30 747 H 70.7148 -3.2395 0.150686 0
M  V30 748 H 70.4998 -3.42111 1.91579 0
M  V30 749 H 71.9898 -4.0208 1.12788 0
M  V30 750 N 72.4269 -1.23603 -0.977757 0
M  V30 751 C 73.3899 -1.02069 -2.05218 0
M  V30 752 C 74.3899 0.0184305 -1.60789 0
M  V30 753 O 75.5799 -0.221569 -1.72785 0
M  V30 754 C 72.7119 -0.544926 -3.36517 0
M  V30 755 H 73.9049 -1.9742 -2.25755 0
M  V30 756 H 71.4579 -1.05684 -1.15155 0
M  V30 757 H 72.1929 0.412241 -3.21669 0
M  V30 758 H 71.9779 -1.2948 -3.70105 0
M  V30 759 H 73.4679 -0.414985 -4.15533 0
M  V30 760 N 73.905 1.17692 -1.04816 0
M  V30 761 C 74.837 2.21103 -0.603822 0
M  V30 762 C 75.85 1.59411 0.33046 0
M  V30 763 O 77.039 1.7807 0.12379 0
M  V30 764 C 74.139 3.38623 0.136898 0
M  V30 765 C 73.312 4.29888 -0.807137 0
M  V30 766 C 72.371 5.26088 -0.10836 0
M  V30 767 O 71.397 5.64353 -0.741232 0
M  V30 768 N 72.599 5.68882 1.15558 0
M  V30 769 H 75.364 2.59848 -1.49329 0
M  V30 770 H 72.925 1.32553 -0.929587 0
M  V30 771 H 74.917 4.00009 0.614401 0
M  V30 772 H 73.487 2.98508 0.927993 0
M  V30 773 H 72.707 3.65993 -1.46434 0
M  V30 774 H 73.995 4.87759 -1.44807 0
M  V30 775 H 73.393 5.39861 1.69015 0
M  V30 776 H 71.95 6.32429 1.57722 0
M  V30 777 N 75.3831 0.828654 1.34056 0
M  V30 778 C 76.3331 0.226828 2.26869 0
M  V30 779 C 77.3171 -0.612243 1.48796 0
M  V30 780 O 78.5091 -0.465884 1.70759 0
M  V30 781 C 75.6381 -0.605654 3.37915 0
M  V30 782 C 74.7241 0.244361 4.23395 0
M  V30 783 N 75.1151 1.31815 4.88322 0
M  V30 784 C 73.4131 0.0296616 4.4599 0
M  V30 785 C 74.1141 1.83895 5.51867 0
M  V30 786 N 73.0901 1.14196 5.3147 0
M  V30 787 H 76.8921 1.04811 2.74576 0
M  V30 788 H 74.4061 0.67205 1.47842 0
M  V30 789 H 76.4031 -1.05302 4.03382 0
M  V30 790 H 75.0631 -1.42504 2.91758 0
M  V30 791 H 76.0741 1.70099 4.8917 0
M  V30 792 H 72.7511 -0.757097 4.10578 0
M  V30 793 H 74.1411 2.7376 6.136 0
M  V30 794 N 76.8612 -1.46375 0.584142 0
M  V30 795 C 78.1092 -2.01978 0.0701287 0
M  V30 796 C 78.4302 -1.4579 -1.295 0
M  V30 797 O 77.7002 -0.64314 -1.85042 0
M  V30 798 H 76.2802 -0.746648 0.0229345 0
M  V30 799 H 78.9422 -1.79461 0.760245 0
M  V30 800 H 78.0382 -3.121 0.0022064 0
M  V30 801 N 78.3393 -0.321999 -1.54275 0
M  V30 802 C 79.6163 0.335232 -1.92706 0
M  V30 803 C 79.9963 1.70006 -1.25145 0
M  V30 804 O 79.3443 2.25067 -0.394596 0
M  V30 805 C 79.5543 0.429008 -3.46353 0
M  V30 806 C 80.9023 0.690029 -4.18956 0
M  V30 807 O 81.9263 0.511992 -3.52501 0
M  V30 808 O 80.7853 1.03338 -5.36641 0
M  V30 809 H 77.8793 0.191143 -0.804608 0
M  V30 810 H 80.4253 -0.3716 -1.65581 0
M  V30 811 H 79.1973 -0.529611 -3.87699 0
M  V30 812 H 78.8203 1.18348 -3.79578 0
M  V30 813 N 79.8174 1.5752 -0.0501392 0
M  V30 814 C 81.0654 1.9227 0.622642 0
M  V30 815 C 81.3864 0.929083 1.71444 0
M  V30 816 O 80.6564 -0.0262186 1.95882 0
M  V30 817 H 79.2364 0.709739 0.232981 0
M  V30 818 H 81.8984 1.94628 -0.102898 0
M  V30 819 H 80.9944 2.93479 1.06191 0
M  V30 820 N 81.2955 -0.223234 1.56011 0
M  V30 821 C 82.5415 -0.944891 1.8012 0
M  V30 822 C 82.8965 -1.82039 0.622862 0
M  V30 823 O 82.1895 -1.8773 -0.383143 0
M  V30 824 C 82.3835 -1.81948 3.0762 0
M  V30 825 C 82.2125 -1.03014 4.37742 0
M  V30 826 C 80.9825 -0.72574 5.00061 0
M  V30 827 C 83.1805 -0.396256 5.12771 0
M  V30 828 N 81.1625 0.0851816 6.13841 0
M  V30 829 C 82.5335 0.278137 6.19376 0
M  V30 830 C 84.5885 -0.309117 4.9694 0
M  V30 831 C 83.2915 1.03133 7.11868 0
M  V30 832 C 85.3175 0.430607 5.8983 0
M  V30 833 C 84.6795 1.09355 6.9586 0
M  V30 834 H 80.7785 -0.326081 0.710771 0
M  V30 835 H 83.3625 -0.215914 1.93499 0
M  V30 836 H 81.5335 -2.52029 2.95527 0
M  V30 837 H 83.2655 -2.47848 3.19927 0
M  V30 838 H 80.0205 -1.04335 4.61964 0
M  V30 839 H 80.4445 0.479428 6.753 0
M  V30 840 H 85.0865 -0.807313 4.15021 0
M  V30 841 H 82.8045 1.54105 7.9327 0
M  V30 842 H 86.3905 0.499012 5.79656 0
M  V30 843 H 85.2705 1.65679 7.66499 0
M  V30 844 N 82.7736 -1.49793 -0.48987 0
M  V30 845 C 84.0216 -1.59525 -1.24081 0
M  V30 846 C 84.3426 -0.288953 -1.92847 0
M  V30 847 O 83.6126 0.692436 -1.83254 0
M  V30 848 H 82.1926 -0.587796 -0.460983 0
M  V30 849 H 84.8546 -1.86477 -0.566778 0
M  V30 850 H 83.9506 -2.39696 -1.99881 0
M  V30 851 N 84.2517 0.741722 -1.39055 0
M  V30 852 C 85.5007 1.49656 -1.35225 0
M  V30 853 C 85.8137 1.95533 0.0512708 0
M  V30 854 O 87.0197 2.7067 0.212138 0
M  V30 855 C 85.4757 2.70389 -2.37525 0
M  V30 856 C 85.0837 2.31489 -3.83558 0
M  V30 857 C 86.8277 3.48236 -2.42759 0
M  V30 858 C 84.7347 3.48903 -4.77515 0
M  V30 859 H 83.6647 0.56197 -0.502699 0
M  V30 860 H 86.3157 0.809727 -1.64668 0
M  V30 861 H 84.6977 3.41113 -2.01142 0
M  V30 862 H 85.8717 1.68354 -4.28945 0
M  V30 863 H 84.1867 1.66749 -3.81554 0
M  V30 864 H 86.7837 4.35558 -3.1015 0
M  V30 865 H 87.1267 3.90229 -1.45008 0
M  V30 866 H 87.6597 2.84535 -2.78002 0
M  V30 867 H 84.3987 3.11966 -5.76504 0
M  V30 868 H 83.9187 4.11041 -4.36813 0
M  V30 869 H 85.5977 4.15328 -4.96096 0
M  V30 870 N 85.7298 1.2412 0.971189 0
M  V30 871 C 86.9758 1.08041 1.71625 0
M  V30 872 C 87.3088 -0.380407 1.90438 0
M  V30 873 O 86.5838 -1.28127 1.46334 0
M  V30 874 C 86.8668 1.81682 3.10908 0
M  V30 875 C 86.7198 3.35493 2.99608 0
M  V30 876 C 88.0388 1.58671 4.10501 0
M  V30 877 H 85.1578 0.39388 0.622919 0
M  V30 878 H 87.7998 1.52743 1.13003 0
M  V30 879 H 85.9498 1.43684 3.60953 0
M  V30 880 H 87.6218 3.83068 2.57015 0
M  V30 881 H 85.8648 3.64052 2.35899 0
M  V30 882 H 86.5358 3.82217 3.98264 0
M  V30 883 H 89.0118 1.91719 3.69301 0
M  V30 884 H 87.8878 2.1266 5.06031 0
M  V30 885 H 88.1488 0.524161 4.38982 0
M  V30 886 N 87.2079 -1.17134 1.05439 0
M  V30 887 C 88.1709 -2.19439 0.661764 0
M  V30 888 C 89.1709 -1.58199 -0.288042 0
M  V30 889 O 90.3609 -1.74053 -0.0715803 0
M  V30 890 C 87.4929 -3.40889 -0.0276209 0
M  V30 891 H 88.6859 -2.55688 1.56728 0
M  V30 892 H 86.2389 -1.31259 0.848567 0
M  V30 893 H 86.9739 -3.10187 -0.94629 0
M  V30 894 H 86.7589 -3.86586 0.655238 0
M  V30 895 H 88.2489 -4.16603 -0.288342 0
M  V30 896 N 88.686 -0.835752 -1.33615 0
M  V30 897 C 89.932 -0.439817 -1.98588 0
M  V30 898 C 90.287 0.989274 -1.65019 0
M  V30 899 O 89.58 1.68168 -0.918159 0
M  V30 900 C 89.774 -0.593925 -3.52431 0
M  V30 901 C 89.603 -2.03644 -4.00948 0
M  V30 902 C 88.373 -2.67103 -4.28934 0
M  V30 903 C 90.571 -3.00479 -4.17393 0
M  V30 904 N 88.553 -4.02462 -4.6357 0
M  V30 905 C 89.924 -4.20777 -4.55353 0
M  V30 906 C 91.979 -2.96926 -3.99674 0
M  V30 907 C 90.682 -5.37994 -4.77447 0
M  V30 908 C 92.708 -4.1337 -4.22941 0
M  V30 909 C 92.07 -5.32422 -4.61201 0
M  V30 910 H 88.169 -0.209303 -0.75347 0
M  V30 911 H 90.753 -1.08316 -1.61789 0
M  V30 912 H 88.924 0.019599 -3.88395 0
M  V30 913 H 90.656 -0.169738 -4.04344 0
M  V30 914 H 87.411 -2.18259 -4.20309 0
M  V30 915 H 87.835 -4.72232 -4.85104 0
M  V30 916 H 92.477 -2.06015 -3.69212 0
M  V30 917 H 90.195 -6.29451 -5.06771 0
M  V30 918 H 93.781 -4.12034 -4.10754 0
M  V30 919 H 92.661 -6.21027 -4.78848 0
M  V30 920 N 90.1641 1.46063 -0.591896 0
M  V30 921 C 91.0741 2.34192 0.13831 0
M  V30 922 C 92.0901 1.50305 0.876608 0
M  V30 923 O 93.2661 1.8315 0.837728 0
M  V30 924 C 90.3311 3.27656 1.13326 0
M  V30 925 C 89.3921 4.27445 0.39863 0
M  V30 926 C 88.6251 5.16443 1.34618 0
M  V30 927 O 88.8481 5.08553 2.58321 0
M  V30 928 O 87.7821 5.95843 0.851768 0
M  V30 929 H 91.6081 2.98002 -0.58552 0
M  V30 930 H 89.1931 1.45188 -0.352239 0
M  V30 931 H 91.0751 3.85291 1.70671 0
M  V30 932 H 89.7501 2.6643 1.83839 0
M  V30 933 H 88.6571 3.73471 -0.216895 0
M  V30 934 H 89.9901 4.91482 -0.265709 0
M  V30 935 N 91.6422 0.330177 1.54103 0
M  V30 936 C 92.5902 -0.548226 2.26047 0
M  V30 937 C 93.5842 -1.11309 1.27698 0
M  V30 938 O 94.7902 -1.06036 1.45452 0
M  V30 939 H 91.1652 -0.195456 0.726155 0
M  V30 940 H 93.1362 0.0807567 2.98291 0
M  V30 941 C 91.8852 -1.69415 3.03634 0
M  V30 942 H 91.2082 -1.26876 3.79134 0
M  V30 943 H 92.6482 -2.28423 3.5721 0
M  V30 944 C 91.1072 -2.61569 2.12328 0
M  V30 945 O 91.6372 -3.63462 1.7105 0
M  V30 946 N 89.8432 -2.29952 1.77681 0
M  V30 947 H 89.3902 -1.47134 2.11446 0
M  V30 948 H 89.3482 -2.91871 1.16869 0
M  V30 949 N 93.1203 -1.57491 0.0584922 0
M  V30 950 C 94.0683 -2.13148 -0.931168 0
M  V30 951 C 95.0623 -1.06507 -1.31729 0
M  V30 952 O 96.2683 -1.24906 -1.29609 0
M  V30 953 H 92.6433 -0.68137 -0.31818 0
M  V30 954 H 94.6143 -2.95187 -0.436707 0
M  V30 955 C 93.3633 -2.69732 -2.19408 0
M  V30 956 H 92.6863 -3.51454 -1.90578 0
M  V30 957 H 94.1263 -3.12287 -2.86798 0
M  V30 958 C 92.5853 -1.63855 -2.94369 0
M  V30 959 O 93.1153 -1.05565 -3.87581 0
M  V30 960 N 91.3213 -1.35202 -2.57233 0
M  V30 961 H 90.8683 -1.82791 -1.81508 0
M  V30 962 H 90.8263 -0.645922 -3.07693 0
M  V30 963 N 94.5984 0.214957 -1.56127 0
M  V30 964 C 95.8444 0.939762 -1.79712 0
M  V30 965 C 96.1774 1.83723 -0.629247 0
M  V30 966 O 95.4524 1.90925 0.371197 0
M  V30 967 C 95.7354 1.77306 -3.13424 0
M  V30 968 C 95.5884 0.90164 -4.40671 0
M  V30 969 C 96.9074 2.74956 -3.43638 0
M  V30 970 H 94.0264 0.340214 -0.653776 0
M  V30 971 H 96.6684 0.20824 -1.88855 0
M  V30 972 H 94.8184 2.39673 -3.0576 0
M  V30 973 H 96.4904 0.294206 -4.60361 0
M  V30 974 H 94.7334 0.207368 -4.33304 0
M  V30 975 H 95.4044 1.51923 -5.30682 0
M  V30 976 H 97.8804 2.22724 -3.51473 0
M  V30 977 H 96.7564 3.30358 -4.38355 0
M  V30 978 H 97.0174 3.53023 -2.66134 0
M  V30 979 N 96.0765 1.50051 0.48192 0
M  V30 980 C 96.9865 1.7089 1.60728 0
M  V30 981 C 98.0025 0.591788 1.63627 0
M  V30 982 O 99.1785 0.868817 1.81696 0
M  V30 983 C 96.2435 1.78855 2.97005 0
M  V30 984 C 95.3045 3.02537 3.04581 0
M  V30 985 C 94.5375 3.10112 4.34357 0
M  V30 986 O 94.7605 2.24765 5.24249 0
M  V30 987 O 93.6945 4.02747 4.47301 0
M  V30 988 H 97.5205 2.66264 1.46072 0
M  V30 989 H 95.1055 1.34018 0.660264 0
M  V30 990 H 96.9875 1.86336 3.77964 0
M  V30 991 H 95.6625 0.866628 3.11883 0
M  V30 992 H 94.5695 3.00563 2.22739 0
M  V30 993 H 95.9025 3.94272 2.94636 0
M  V30 994 N 97.5546 -0.734337 1.39446 0
M  V30 995 C 98.8026 -1.49096 1.36436 0
M  V30 996 C 99.1236 -1.94961 -0.0388255 0
M  V30 997 O 98.3936 -1.69033 -0.990191 0
M  V30 998 H 96.9736 -0.5531 0.502085 0
M  V30 999 H 99.6356 -0.871725 1.74319 0
M  V30 1000 H 98.7316 -2.37276 2.02747 0
M  V30 1001 N 99.0327 -1.24633 -0.964593 0
M  V30 1002 C 100.263 -1.11339 -1.74032 0
M  V30 1003 C 100.671 0.336593 -1.86182 0
M  V30 1004 O 100.014 1.24389 -1.35178 0
M  V30 1005 C 100.076 -1.68284 -3.1768 0
M  V30 1006 C 99.7397 -3.17196 -3.28992 0
M  V30 1007 C 100.737 -4.14308 -3.14078 0
M  V30 1008 C 98.4217 -3.57215 -3.53133 0
M  V30 1009 C 100.416 -5.4942 -3.23135 0
M  V30 1010 C 98.1027 -4.92468 -3.61827 0
M  V30 1011 C 99.1007 -5.8838 -3.46841 0
M  V30 1012 O 98.7887 -7.21173 -3.55197 0
M  V30 1013 H 98.5207 -0.389551 -0.552472 0
M  V30 1014 H 101.075 -1.65282 -1.21946 0
M  V30 1015 H 99.3047 -1.08777 -3.71085 0
M  V30 1016 H 100.994 -1.50234 -3.77074 0
M  V30 1017 H 101.76 -3.84731 -2.95308 0
M  V30 1018 H 97.6387 -2.83063 -3.63863 0
M  V30 1019 H 101.183 -6.24263 -3.11355 0
M  V30 1020 H 97.0797 -5.21714 -3.80111 0
M  V30 1021 H 97.8477 -7.29135 -3.71892 0
M  V30 1022 N 100.511 1.16574 -1.06058 0
M  V30 1023 C 101.757 1.87324 -0.777022 0
M  V30 1024 C 102.09 1.81351 0.694645 0
M  V30 1025 O 101.365 1.22753 1.50871 0
M  V30 1026 C 101.648 3.36991 -1.26922 0
M  V30 1027 C 101.501 3.51667 -2.80447 0
M  V30 1028 C 102.82 4.3131 -0.87521 0
M  V30 1029 H 99.9388 0.680191 -0.28374 0
M  V30 1030 H 102.581 1.37036 -1.3161 0
M  V30 1031 H 100.731 3.79949 -0.81063 0
M  V30 1032 H 102.403 3.17664 -3.34495 0
M  V30 1033 H 100.646 2.93656 -3.19294 0
M  V30 1034 H 101.317 4.56766 -3.0995 0
M  V30 1035 H 103.793 3.9624 -1.27014 0
M  V30 1036 H 102.669 5.34545 -1.2471 0
M  V30 1037 H 102.93 4.41552 0.220071 0
M  V30 1038 N 101.989 0.842826 1.3317 0
M  V30 1039 C 103.235 0.441099 1.97945 0
M  V30 1040 C 103.568 -0.998024 1.66593 0
M  V30 1041 O 102.843 -1.69839 0.947898 0
M  V30 1042 C 103.126 0.666841 3.53872 0
M  V30 1043 C 102.979 2.15352 3.94897 0
M  V30 1044 C 104.298 0.115544 4.39948 0
M  V30 1045 H 101.417 0.161739 0.719034 0
M  V30 1046 H 104.059 1.05907 1.57746 0
M  V30 1047 H 102.209 0.140828 3.88245 0
M  V30 1048 H 103.881 2.7447 3.70761 0
M  V30 1049 H 102.124 2.63653 3.44484 0
M  V30 1050 H 102.795 2.26221 5.03516 0
M  V30 1051 H 105.271 0.565213 4.12243 0
M  V30 1052 H 104.147 0.303152 5.48062 0
M  V30 1053 H 104.408 -0.980935 4.3108 0
M  V30 1054 N 103.467 -1.45747 0.599634 0
M  V30 1055 C 104.878 -1.85853 0.177681 0
M  V30 1056 C 105.229 -1.50102 -1.26348 0
M  V30 1057 O 104.354 -0.923905 -1.95686 0
M  V30 1058 C 104.949 -3.37326 0.315688 0
M  V30 1059 C 103.508 -3.76365 -0.0515144 0
M  V30 1060 C 102.655 -2.69722 0.643822 0
M  V30 1061 H 105.606 -1.36661 0.806814 0
M  V30 1062 H 105.627 -3.77778 -0.454321 0
M  V30 1063 H 105.139 -3.63315 1.36468 0
M  V30 1064 H 103.24 -3.55993 -1.09999 0
M  V30 1065 H 103.353 -4.77916 0.336594 0
M  V30 1066 H 101.717 -2.54567 0.0822881 0
M  V30 1067 H 102.5 -2.98549 1.6948 0
M  V30 1068 N 104.945 -0.338344 -1.53925 0
M  V30 1069 C 105.893 0.536231 -2.26335 0
M  V30 1070 C 106.887 1.1063 -1.28286 0
M  V30 1071 O 108.093 1.05264 -1.46012 0
M  V30 1072 H 104.468 0.191602 -0.727181 0
M  V30 1073 H 106.439 -0.0965747 -2.98244 0
M  V30 1074 C 105.188 1.67803 -3.04528 0
M  V30 1075 H 104.511 1.24864 -3.79801 0
M  V30 1076 H 105.951 2.26526 -3.58416 0
M  V30 1077 C 104.41 2.60439 -2.13712 0
M  V30 1078 O 104.94 3.6255 -1.72975 0
M  V30 1079 N 103.146 2.29006 -1.78898 0
M  V30 1080 H 102.693 1.46011 -2.12223 0
M  V30 1081 H 102.651 2.91248 -1.18416 0
M  V30 1082 N 106.423 1.57458 -0.0668435 0
M  V30 1083 C 107.353 2.15468 0.899764 0
M  V30 1084 C 108.334 1.08042 1.31381 0
M  V30 1085 O 109.519 1.36054 1.38574 0
M  V30 1086 C 106.649 2.71232 2.16911 0
M  V30 1087 C 105.603 3.83781 1.89463 0
M  V30 1088 C 104.929 4.26127 3.22986 0
M  V30 1089 C 106.229 5.08238 1.20381 0
M  V30 1090 H 107.923 2.96488 0.416529 0
M  V30 1091 H 105.469 1.4262 0.198908 0
M  V30 1092 H 107.422 3.10458 2.84945 0
M  V30 1093 H 106.146 1.87426 2.67468 0
M  V30 1094 H 104.805 3.45051 1.23836 0
M  V30 1095 H 104.453 3.39249 3.71374 0
M  V30 1096 H 104.153 5.01993 3.05413 0
M  V30 1097 H 105.677 4.67966 3.92225 0
M  V30 1098 H 107.091 5.44811 1.78475 0
M  V30 1099 H 105.488 5.89349 1.13083 0
M  V30 1100 H 106.558 4.84558 0.182153 0
M  V30 1101 N 107.901 -0.206675 1.56239 0
M  V30 1102 C 109.178 -0.954051 1.70755 0
M  V30 1103 C 109.558 -2.01841 0.618353 0
M  V30 1104 O 108.906 -2.25444 -0.372434 0
M  V30 1105 C 109.116 -1.551 3.12642 0
M  V30 1106 C 110.464 -2.03757 3.72516 0
M  V30 1107 O 111.488 -1.64965 3.15698 0
M  V30 1108 O 110.347 -2.75103 4.72208 0
M  V30 1109 H 107.441 -0.446636 0.696021 0
M  V30 1110 H 109.987 -0.197283 1.68549 0
M  V30 1111 H 108.759 -0.783212 3.83382 0
M  V30 1112 H 108.382 -2.37291 3.19028 0
M  V30 1113 N 109.379 -1.50304 -0.473955 0
M  V30 1114 C 110.342 -1.6841 -1.55469 0
M  V30 1115 C 111.342 -0.554905 -1.50922 0
M  V30 1116 O 112.532 -0.821882 -1.53593 0
M  V30 1117 C 109.664 -1.70667 -2.95102 0
M  V30 1118 H 110.857 -2.64828 -1.40733 0
M  V30 1119 H 108.41 -1.39742 -0.700132 0
M  V30 1120 H 109.145 -0.75932 -3.15285 0
M  V30 1121 H 108.93 -2.52698 -2.9981 0
M  V30 1122 H 110.42 -1.8664 -3.73571 0
M  V30 1123 N 110.857 0.726932 -1.39834 0
M  V30 1124 C 111.787 1.85405 -1.41941 0
M  V30 1125 C 112.768 1.67751 -0.281728 0
M  V30 1126 O 113.953 1.8795 -0.488717 0
M  V30 1127 C 111.083 3.23243 -1.2701 0
M  V30 1128 C 110.037 3.55549 -2.38262 0
M  V30 1129 C 109.363 4.9241 -2.08415 0
M  V30 1130 C 110.663 3.577 -3.80589 0
M  V30 1131 H 112.357 1.83899 -2.36266 0
M  V30 1132 H 109.903 0.883349 -1.13723 0
M  V30 1133 H 111.856 4.01775 -1.27103 0
M  V30 1134 H 110.58 3.25296 -0.291564 0
M  V30 1135 H 109.239 2.79351 -2.37399 0
M  V30 1136 H 108.887 4.91052 -1.0898 0
M  V30 1137 H 108.587 5.14992 -2.82943 0
M  V30 1138 H 110.111 5.73289 -2.10171 0
M  V30 1139 H 111.525 4.26293 -3.83337 0
M  V30 1140 H 109.922 3.91804 -4.54543 0
M  V30 1141 H 110.992 2.57328 -4.10987 0
M  V30 1142 N 112.336 1.25143 0.95797 0
M  V30 1143 C 113.585 1.0909 1.69654 0
M  V30 1144 C 113.898 -0.368548 1.92097 0
M  V30 1145 O 115.104 -0.649455 2.63618 0
M  V30 1146 C 113.56 1.90395 3.05414 0
M  V30 1147 C 113.168 3.4081 2.90779 0
M  V30 1148 C 114.912 1.82901 3.83076 0
M  V30 1149 C 112.819 4.14423 4.21909 0
M  V30 1150 H 111.749 0.404625 0.636235 0
M  V30 1151 H 114.4 1.4931 1.06672 0
M  V30 1152 H 112.782 1.42996 3.69281 0
M  V30 1153 H 113.956 3.95859 2.35865 0
M  V30 1154 H 112.271 3.49361 2.26575 0
M  V30 1155 H 114.868 2.35196 4.80195 0
M  V30 1156 H 115.211 0.796224 4.08615 0
M  V30 1157 H 115.744 2.28033 3.25954 0
M  V30 1158 H 112.483 5.18102 4.01561 0
M  V30 1159 H 112.003 3.64159 4.76601 0
M  V30 1160 H 113.682 4.21956 4.90471 0
M  V30 1161 N 113.814 -1.1601 1.06675 0
M  V30 1162 C 115.091 -1.82679 0.699114 0
M  V30 1163 C 115.471 -1.94559 -0.819137 0
M  V30 1164 O 114.819 -1.49169 -1.73092 0
M  V30 1165 C 115.029 -3.19445 1.40555 0
M  V30 1166 C 116.377 -3.95171 1.55323 0
M  V30 1167 O 117.401 -3.28976 1.36577 0
M  V30 1168 O 116.26 -5.13833 1.86112 0
M  V30 1169 H 113.354 -0.788954 0.247951 0
M  V30 1170 H 115.9 -1.23179 1.16726 0
M  V30 1171 H 114.672 -3.05856 2.44065 0
M  V30 1172 H 114.295 -3.86625 0.927733 0
M  V30 1173 N 115.292 -0.849877 -1.32721 0
M  V30 1174 C 116.255 -0.296122 -2.27279 0
M  V30 1175 C 117.255 0.541458 -1.5141 0
M  V30 1176 O 118.445 0.353658 -1.70572 0
M  V30 1177 C 115.577 0.581579 -3.35902 0
M  V30 1178 H 116.77 -1.13064 -2.77771 0
M  V30 1179 H 114.323 -0.62383 -1.43311 0
M  V30 1180 H 115.058 1.43809 -2.9067 0
M  V30 1181 H 114.843 -0.0178814 -3.92096 0
M  V30 1182 H 116.333 0.961951 -4.0637 0
M  V30 1183 N 116.77 1.45427 -0.607355 0
M  V30 1184 C 117.717 2.3053 0.111625 0
M  V30 1185 C 118.687 1.4209 0.860216 0
M  V30 1186 O 119.872 1.71019 0.845998 0
M  V30 1187 C 117.012 3.26992 1.10319 0
M  V30 1188 C 116.125 4.30535 0.355493 0
M  V30 1189 C 115.26 5.14105 1.33676 0
M  V30 1190 C 114.299 6.09376 0.576862 0
M  V30 1191 N 113.436 6.85727 1.5074 0
M  V30 1192 H 118.276 2.91477 -0.620093 0
M  V30 1193 H 115.813 1.43631 -0.317594 0
M  V30 1194 H 117.771 3.81385 1.6912 0
M  V30 1195 H 116.401 2.67799 1.80232 0
M  V30 1196 H 115.453 3.78805 -0.348023 0
M  V30 1197 H 116.765 4.98235 -0.237423 0
M  V30 1198 H 115.919 5.72897 1.99684 0
M  V30 1199 H 114.658 4.46423 1.9636 0
M  V30 1200 H 113.663 5.49715 -0.0968519 0
M  V30 1201 H 114.888 6.79085 -0.0449341 0
M  V30 1202 H 112.834 6.20735 2.12189 0
M  V30 1203 H 112.751 7.49778 0.967913 0
M  V30 1204 H 114.019 7.4906 2.15706 0
M  V30 1205 N 118.248 0.346503 1.53744 0
M  V30 1206 C 119.525 -0.304532 1.93215 0
M  V30 1207 C 119.905 -1.67993 1.27834 0
M  V30 1208 O 119.253 -2.24411 0.430352 0
M  V30 1209 C 119.463 -0.373852 3.46992 0
M  V30 1210 C 120.811 -0.62329 4.2 0
M  V30 1211 O 121.835 -0.455847 3.53271 0
M  V30 1212 O 120.694 -0.947879 5.38217 0
M  V30 1213 H 117.788 -0.178318 0.807547 0
M  V30 1214 H 120.334 0.397895 1.64969 0
M  V30 1215 H 119.106 0.591224 3.86808 0
M  V30 1216 H 118.729 -1.12294 3.81413 0
M  V30 1217 N 119.726 -1.57421 0.075193 0
M  V30 1218 C 120.656 -2.15942 -0.888324 0
M  V30 1219 C 121.637 -1.08737 -1.30806 0
M  V30 1220 O 122.822 -1.36787 -1.37851 0
M  V30 1221 C 119.952 -2.72379 -2.1547 0
M  V30 1222 C 118.906 -3.8478 -1.87425 0
M  V30 1223 C 118.232 -4.27834 -3.20721 0
M  V30 1224 C 119.532 -5.08869 -1.17684 0
M  V30 1225 H 121.226 -2.96705 -0.400799 0
M  V30 1226 H 118.772 -1.42723 -0.191342 0
M  V30 1227 H 120.725 -3.11965 -2.83295 0
M  V30 1228 H 119.449 -1.88841 -2.6647 0
M  V30 1229 H 118.108 -3.45703 -1.22004 0
M  V30 1230 H 117.756 -3.41214 -3.6957 0
M  V30 1231 H 117.456 -5.03605 -3.02746 0
M  V30 1232 H 118.98 -4.70039 -3.89738 0
M  V30 1233 H 120.394 -5.4575 -1.75584 0
M  V30 1234 H 118.791 -5.8994 -1.09956 0
M  V30 1235 H 119.861 -4.84648 -0.156453 0
M  V30 1236 N 121.204 0.198386 -1.56346 0
M  V30 1237 C 122.45 0.920648 -1.80698 0
M  V30 1238 C 122.783 1.83045 -0.648697 0
M  V30 1239 O 122.058 1.91308 0.350925 0
M  V30 1240 C 122.341 1.73971 -3.15287 0
M  V30 1241 C 122.194 0.85485 -4.41602 0
M  V30 1242 C 123.513 2.71296 -3.46535 0
M  V30 1243 H 120.632 0.333261 -0.657348 0
M  V30 1244 H 123.274 0.188198 -1.89066 0
M  V30 1245 H 121.424 2.36416 -3.08285 0
M  V30 1246 H 123.096 0.245362 -4.60647 0
M  V30 1247 H 121.339 0.161398 -4.335 0
M  V30 1248 H 122.01 1.46286 -5.32264 0
M  V30 1249 H 124.486 2.18983 -3.53816 0
M  V30 1250 H 123.362 3.2569 -4.41834 0
M  V30 1251 H 123.623 3.5018 -2.69864 0
M  V30 1252 N 122.682 1.50554 0.465978 0
M  V30 1253 C 123.93 1.61479 1.21528 0
M  V30 1254 C 124.251 0.319596 1.92363 0
M  V30 1255 O 123.521 -0.663194 1.84333 0
M  V30 1256 H 122.101 0.595055 0.451573 0
M  V30 1257 H 124.763 1.87355 0.53704 0
M  V30 1258 H 123.859 2.42846 1.96042 0
M  V30 1259 N 124.16 -0.719506 1.40217 0
M  V30 1260 C 125.407 -1.47933 1.38283 0
M  V30 1261 C 125.735 -1.94493 -0.0161536 0
M  V30 1262 O 124.99 -1.68224 -0.999956 0
M  V30 1263 C 125.289 -2.72271 2.31524 0
M  V30 1264 C 124.955 -2.44496 3.78857 0
M  V30 1265 C 123.617 -2.36631 4.18998 0
M  V30 1266 C 125.969 -2.21104 4.71977 0
M  V30 1267 C 123.297 -2.03437 5.503 0
M  V30 1268 C 125.649 -1.89423 6.03574 0
M  V30 1269 C 124.313 -1.80038 6.42762 0
M  V30 1270 H 123.583 -0.541325 0.506012 0
M  V30 1271 H 126.23 -0.824502 1.72842 0
M  V30 1272 H 124.535 -3.42572 1.90137 0
M  V30 1273 H 126.232 -3.30348 2.27313 0
M  V30 1274 H 122.822 -2.51503 3.47051 0
M  V30 1275 H 127.006 -2.26139 4.41786 0
M  V30 1276 H 122.262 -1.94705 5.79569 0
M  V30 1277 H 126.436 -1.70336 6.75247 0
M  V30 1278 H 124.063 -1.54083 7.44421 0
M  V30 1279 N 125.638 -1.25649 -0.95132 0
M  V30 1280 C 126.601 -1.06399 -2.03007 0
M  V30 1281 C 127.601 -0.0156794 -1.60792 0
M  V30 1282 O 128.791 -0.25817 -1.72276 0
M  V30 1283 C 125.923 -0.616184 -3.35285 0
M  V30 1284 H 127.116 -2.02164 -2.21517 0
M  V30 1285 H 124.669 -1.08103 -1.12887 0
M  V30 1286 H 125.404 0.343917 -3.22471 0
M  V30 1287 H 125.189 -1.37301 -3.67275 0
M  V30 1288 H 126.679 -0.503032 -4.14559 0
M  V30 1289 N 127.117 1.15442 -1.07289 0
M  V30 1290 C 128.533 1.38201 -0.798288 0
M  V30 1291 C 128.733 1.92429 0.597769 0
M  V30 1292 O 127.789 2.12962 1.3566 0
M  V30 1293 C 129.102 2.35357 -1.87156 0
M  V30 1294 C 130.65 2.49021 -1.89624 0
M  V30 1295 C 131.125 3.49468 -2.96034 0
M  V30 1296 N 132.616 3.57003 -2.95132 0
M  V30 1297 C 133.351 4.34543 -3.74112 0
M  V30 1298 N 132.847 5.15421 -4.6294 0
M  V30 1299 N 134.64 4.29625 -3.62462 0
M  V30 1300 H 126.791 0.78584 -1.97328 0
M  V30 1301 H 129.054 0.408065 -0.855679 0
M  V30 1302 H 128.76 2.02626 -2.87464 0
M  V30 1303 H 128.634 3.35129 -1.73114 0
M  V30 1304 H 131.021 2.81051 -0.899687 0
M  V30 1305 H 131.102 1.4925 -2.07745 0
M  V30 1306 H 130.746 3.18173 -3.95889 0
M  V30 1307 H 130.676 4.48992 -2.75161 0
M  V30 1308 H 133.167 2.99276 -2.30743 0
M  V30 1309 H 133.48 5.7183 -5.19837 0
M  V30 1310 H 131.825 5.14729 -4.66989 0
M  V30 1311 H 135.016 3.65505 -2.92444 0
M  V30 1312 H 135.189 4.89807 -4.24256 0
M  V30 1313 N 128.595 0.856903 1.32268 0
M  V30 1314 C 129.841 0.462069 1.97466 0
M  V30 1315 C 130.174 -0.980298 1.67642 0
M  V30 1316 O 129.449 -1.68824 0.965858 0
M  V30 1317 C 129.732 0.704336 3.53145 0
M  V30 1318 C 129.585 2.19529 3.9259 0
M  V30 1319 C 130.904 0.1622 4.39801 0
M  V30 1320 H 128.023 0.169357 0.717278 0
M  V30 1321 H 130.665 1.07574 1.56614 0
M  V30 1322 H 128.815 0.181999 3.88073 0
M  V30 1323 H 130.487 2.78387 3.67829 0
M  V30 1324 H 128.73 2.67292 3.41668 0
M  V30 1325 H 129.401 2.31549 5.01088 0
M  V30 1326 H 131.877 0.608905 4.11621 0
M  V30 1327 H 130.753 0.361265 5.4771 0
M  V30 1328 H 131.014 -0.935158 4.32096 0
M  V30 1329 N 130.073 -1.45103 0.615059 0
M  V30 1330 C 131.321 -2.01784 0.112955 0
M  V30 1331 C 131.642 -1.48504 -1.26378 0
M  V30 1332 O 130.912 -0.682245 -1.83636 0
M  V30 1333 H 129.492 -0.745993 0.0387668 0
M  V30 1334 H 132.154 -1.77808 0.798141 0
M  V30 1335 H 131.25 -3.12025 0.0684069 0
M  V30 1336 N 131.551 -0.354651 -1.53558 0
M  V30 1337 C 132.797 0.238797 -2.01389 0
M  V30 1338 C 133.13 1.49309 -1.2418 0
M  V30 1339 O 132.405 1.91638 -0.332457 0
M  V30 1340 C 132.688 0.541771 -3.56001 0
M  V30 1341 C 132.541 -0.725388 -4.43912 0
M  V30 1342 C 133.86 1.34685 -4.18984 0
M  V30 1343 H 130.979 0.0853177 -0.732045 0
M  V30 1344 H 133.621 -0.477384 -1.83905 0
M  V30 1345 H 131.771 1.15189 -3.71031 0
M  V30 1346 H 133.443 -1.36313 -4.407 0
M  V30 1347 H 131.686 -1.34801 -4.12324 0
M  V30 1348 H 132.357 -0.468505 -5.50008 0
M  V30 1349 H 134.833 0.830837 -4.07721 0
M  V30 1350 H 133.709 1.52759 -5.27215 0
M  V30 1351 H 133.97 2.35221 -3.74331 0
M  V30 1352 N 133.029 1.57378 -0.0835403 0
M  V30 1353 C 133.977 2.14602 0.89714 0
M  V30 1354 C 134.971 1.08589 1.30018 0
M  V30 1355 O 136.177 1.26952 1.27606 0
M  V30 1356 H 132.552 0.686346 0.3073 0
M  V30 1357 H 134.523 2.95845 0.38969 0
M  V30 1358 C 133.272 2.73188 2.15089 0
M  V30 1359 H 132.595 3.54442 1.84962 0
M  V30 1360 H 134.035 3.1681 2.81793 0
M  V30 1361 C 132.494 1.68517 2.91725 0
M  V30 1362 O 133.024 1.11718 3.85852 0
M  V30 1363 N 131.23 1.39277 2.55049 0
M  V30 1364 H 130.777 1.85655 1.78577 0
M  V30 1365 H 130.735 0.694791 3.06627 0
M  V30 1366 N 134.507 -0.190092 1.56449 0
M  V30 1367 C 135.753 -0.911052 1.81184 0
M  V30 1368 C 136.086 -1.82699 0.658396 0
M  V30 1369 O 135.361 -1.91491 -0.340775 0
M  V30 1370 C 135.644 -1.72297 3.16205 0
M  V30 1371 C 135.497 -0.831419 4.42049 0
M  V30 1372 C 136.816 -2.69454 3.47969 0
M  V30 1373 H 133.935 -0.32977 0.659106 0
M  V30 1374 H 136.577 -0.178169 1.89163 0
M  V30 1375 H 134.727 -2.34778 3.09534 0
M  V30 1376 H 136.399 -0.220929 4.60771 0
M  V30 1377 H 134.642 -0.138406 4.33579 0
M  V30 1378 H 135.313 -1.43461 5.33032 0
M  V30 1379 H 137.789 -2.17104 3.54972 0
M  V30 1380 H 136.665 -3.23342 4.43555 0
M  V30 1381 H 136.926 -3.48744 2.71717 0
M  V30 1382 N 135.985 -1.50799 -0.457987 0
M  V30 1383 C 136.895 -1.73426 -1.57989 0
M  V30 1384 C 137.911 -0.617745 -1.62665 0
M  V30 1385 O 139.087 -0.897614 -1.80291 0
M  V30 1386 C 136.152 -1.83557 -2.94122 0
M  V30 1387 C 135.213 -3.07345 -2.99729 0
M  V30 1388 C 134.446 -3.16983 -4.29368 0
M  V30 1389 O 134.669 -2.33077 -5.20607 0
M  V30 1390 O 133.603 -4.09812 -4.40837 0
M  V30 1391 H 137.429 -2.68555 -1.41817 0
M  V30 1392 H 135.014 -1.35052 -0.638859 0
M  V30 1393 H 136.896 -1.92326 -3.74952 0
M  V30 1394 H 135.571 -0.916137 -3.10465 0
M  V30 1395 H 134.478 -3.04068 -2.1793 0
M  V30 1396 H 135.811 -3.9891 -2.88326 0
M  V30 1397 N 137.463 0.71206 -1.40597 0
M  V30 1398 C 138.71 1.47197 -1.39065 0
M  V30 1399 C 139.038 1.94499 0.00583891 0
M  V30 1400 O 138.293 1.68752 0.99102 0
M  V30 1401 C 138.592 2.71039 -2.32965 0
M  V30 1402 C 138.258 2.42484 -3.80148 0
M  V30 1403 C 136.92 2.34406 -4.20247 0
M  V30 1404 C 139.272 2.18598 -4.73143 0
M  V30 1405 C 136.6 2.00516 -5.51371 0
M  V30 1406 C 138.952 1.8622 -6.0457 0
M  V30 1407 C 137.616 1.76626 -6.43708 0
M  V30 1408 H 136.886 0.538634 -0.508876 0
M  V30 1409 H 139.533 0.815325 -1.73276 0
M  V30 1410 H 137.838 3.41558 -1.91951 0
M  V30 1411 H 139.535 3.29138 -2.29061 0
M  V30 1412 H 136.125 2.49659 -3.4838 0
M  V30 1413 H 140.309 2.23793 -4.42979 0
M  V30 1414 H 135.565 1.91628 -5.80593 0
M  V30 1415 H 139.739 1.66752 -6.76141 0
M  V30 1416 H 137.366 1.50133 -7.45228 0
M  V30 1417 N 138.941 1.26152 0.944643 0
M  V30 1418 C 140.218 1.02247 1.66748 0
M  V30 1419 C 140.598 -0.448202 2.06287 0
M  V30 1420 O 139.946 -1.42779 1.78399 0
M  V30 1421 C 140.156 1.96788 2.88228 0
M  V30 1422 C 141.504 2.25201 3.59958 0
M  V30 1423 O 142.528 1.94626 2.98327 0
M  V30 1424 O 141.387 2.77242 4.70956 0
M  V30 1425 H 138.481 0.388517 0.730057 0
M  V30 1426 H 141.027 1.37348 0.99668 0
M  V30 1427 H 139.799 2.96047 2.55875 0
M  V30 1428 H 139.422 1.62145 3.63035 0
M  V30 1429 N 140.419 -1.14872 1.07899 0
M  V30 1430 C 141.382 -2.17986 0.708161 0
M  V30 1431 C 142.382 -1.58775 -0.25442 0
M  V30 1432 O 143.572 -1.74166 -0.034645 0
M  V30 1433 C 140.704 -3.40871 0.0446929 0
M  V30 1434 H 141.897 -2.52306 1.62116 0
M  V30 1435 H 139.45 -1.2943 0.876218 0
M  V30 1436 H 140.185 -3.12124 -0.880281 0
M  V30 1437 H 139.97 -3.8511 0.737091 0
M  V30 1438 H 141.46 -4.17121 -0.19991 0
M  V30 1439 N 141.898 -0.863906 -1.31812 0
M  V30 1440 C 143.128 -0.485406 -2.00817 0
M  V30 1441 C 143.536 0.925007 -1.65046 0
M  V30 1442 O 142.879 1.61653 -0.872574 0
M  V30 1443 C 142.941 -0.555589 -3.55181 0
M  V30 1444 C 142.605 -1.92654 -4.14407 0
M  V30 1445 C 143.602 -2.89324 -4.31958 0
M  V30 1446 C 141.287 -2.2262 -4.50273 0
M  V30 1447 C 143.281 -4.14108 -4.84555 0
M  V30 1448 C 140.968 -3.47654 -5.02573 0
M  V30 1449 C 141.966 -4.43214 -5.19664 0
M  V30 1450 O 141.654 -5.66033 -5.70843 0
M  V30 1451 H 141.386 -0.188224 -0.649267 0
M  V30 1452 H 143.94 -1.16514 -1.69156 0
M  V30 1453 H 142.17 0.181037 -3.86276 0
M  V30 1454 H 143.859 -0.19138 -4.05449 0
M  V30 1455 H 144.625 -2.6748 -4.04573 0
M  V30 1456 H 140.504 -1.4902 -4.3625 0
M  V30 1457 H 144.048 -4.88703 -4.9781 0
M  V30 1458 H 139.945 -3.69345 -5.29391 0
M  V30 1459 H 140.713 -5.6812 -5.89222 0
M  V30 1460 N 143.376 1.44774 -0.622745 0
M  V30 1461 C 144.622 2.0242 -0.124083 0
M  V30 1462 C 144.955 1.4881 1.24777 0
M  V30 1463 O 144.23 0.668799 1.8264 0
M  V30 1464 C 144.513 3.59957 -0.101619 0
M  V30 1465 C 144.366 4.23867 -1.50521 0
M  V30 1466 C 145.685 4.36284 0.578272 0
M  V30 1467 H 142.804 0.735528 -0.0465645 0
M  V30 1468 H 145.446 1.72447 -0.797617 0
M  V30 1469 H 143.596 3.85623 0.471934 0
M  V30 1470 H 145.268 4.09336 -2.12701 0
M  V30 1471 H 143.511 3.81684 -2.06154 0
M  V30 1472 H 144.182 5.32843 -1.4416 0
M  V30 1473 H 146.658 4.16001 0.0906057 0
M  V30 1474 H 145.534 5.46004 0.563149 0
M  V30 1475 H 145.795 4.10271 1.64713 0
M  V30 1476 N 144.854 0.36279 1.53368 0
M  V30 1477 C 145.817 -0.472679 2.24273 0
M  V30 1478 C 146.817 -1.012 1.24961 0
M  V30 1479 O 148.007 -0.898194 1.49259 0
M  V30 1480 C 145.139 -1.66039 2.97731 0
M  V30 1481 H 146.332 0.14773 2.99536 0
M  V30 1482 H 143.885 0.114434 1.55881 0
M  V30 1483 H 144.62 -2.31896 2.26704 0
M  V30 1484 H 144.405 -1.28066 3.70596 0
M  V30 1485 H 145.895 -2.25252 3.51641 0
M  V30 1486 N 146.332 -1.57332 0.0918853 0
M  V30 1487 C 147.264 -2.10869 -0.898168 0
M  V30 1488 C 148.277 -1.04521 -1.24817 0
M  V30 1489 O 149.466 -1.31977 -1.20184 0
M  V30 1490 C 146.566 -2.57083 -2.2082 0
M  V30 1491 C 145.739 -3.87229 -2.03402 0
M  V30 1492 C 144.798 -4.19324 -3.17889 0
M  V30 1493 O 143.824 -4.88598 -2.91994 0
M  V30 1494 N 145.026 -3.74471 -4.43567 0
M  V30 1495 H 147.791 -2.96439 -0.440943 0
M  V30 1496 H 145.352 -1.61631 -0.0933064 0
M  V30 1497 H 147.344 -2.75602 -2.96354 0
M  V30 1498 H 145.914 -1.76541 -2.57977 0
M  V30 1499 H 145.134 -3.7789 -1.12218 0
M  V30 1500 H 146.422 -4.72379 -1.89038 0
M  V30 1501 H 145.82 -3.18546 -4.67488 0
M  V30 1502 H 144.377 -3.98151 -5.16061 0
M  V30 1503 N 147.81 0.181792 -1.56548 0
M  V30 1504 C 149.058 0.89832 -1.81038 0
M  V30 1505 C 149.379 1.83232 -0.667164 0
M  V30 1506 O 148.649 1.93372 0.313673 0
M  V30 1507 H 147.229 0.33471 -0.667816 0
M  V30 1508 H 149.891 0.184116 -1.94028 0
M  V30 1509 H 148.987 1.4815 -2.74696 0
M  V30 1510 N 149.288 1.51039 0.449983 0
M  V30 1511 C 150.251 1.70863 1.5277 0
M  V30 1512 C 151.251 0.578846 1.5002 0
M  V30 1513 O 152.441 0.846213 1.52266 0
M  V30 1514 C 149.573 1.75341 2.9235 0
M  V30 1515 H 150.766 2.67034 1.36502 0
M  V30 1516 H 148.319 1.40838 0.677812 0
M  V30 1517 H 149.054 0.809383 3.14037 0
M  V30 1518 H 148.839 2.57436 2.95752 0
M  V30 1519 H 150.329 1.92559 3.70555 0
M  V30 1520 N 150.766 -0.704594 1.40972 0
M  V30 1521 C 152.043 -1.45847 1.30338 0
M  V30 1522 C 152.423 -2.10973 -0.0732344 0
M  V30 1523 O 151.771 -2.00997 -1.08685 0
M  V30 1524 C 151.981 -2.48525 2.45023 0
M  V30 1525 C 153.329 -3.1404 2.8577 0
M  V30 1526 O 154.353 -2.58848 2.44696 0
M  V30 1527 O 153.212 -4.13981 3.56766 0
M  V30 1528 H 150.306 -0.649092 0.512454 0
M  V30 1529 H 152.852 -0.735836 1.52917 0
M  V30 1530 H 151.624 -1.98994 3.36923 0
M  V30 1531 H 151.247 -3.2831 2.24272 0
M  V30 1532 N 152.244 -1.26651 -0.937939 0
M  V30 1533 C 153.655 -1.1125 -1.49934 0
M  V30 1534 C 154.006 0.306077 -1.93798 0
M  V30 1535 O 153.131 1.19792 -1.80219 0
M  V30 1536 C 153.726 -2.01339 -2.72485 0
M  V30 1537 C 152.285 -1.90074 -3.24883 0
M  V30 1538 C 151.432 -1.94498 -1.97651 0
M  V30 1539 H 154.383 -1.39693 -0.753091 0
M  V30 1540 H 154.404 -1.56319 -3.46907 0
M  V30 1541 H 153.916 -3.04577 -2.40529 0
M  V30 1542 H 152.017 -0.897827 -3.61621 0
M  V30 1543 H 152.13 -2.75778 -3.9177 0
M  V30 1544 H 150.494 -1.38591 -2.13693 0
M  V30 1545 H 151.277 -2.99372 -1.68022 0
M  V30 1546 N 153.722 1.14298 -1.08507 0
M  V30 1547 C 154.685 2.17607 -0.719711 0
M  V30 1548 C 155.685 1.58907 0.245997 0
M  V30 1549 O 156.875 1.74181 0.0254081 0
M  V30 1550 C 154.007 3.40842 -0.0627695 0
M  V30 1551 H 155.2 2.51443 -1.63452 0
M  V30 1552 H 152.753 1.28963 -0.88307 0
M  V30 1553 H 153.488 3.12587 0.863716 0
M  V30 1554 H 153.273 3.84713 -0.757504 0
M  V30 1555 H 154.763 4.17221 0.177786 0
M  V30 1556 N 155.201 0.870884 1.31352 0
M  V30 1557 C 156.111 0.330783 2.32256 0
M  V30 1558 C 157.127 -0.559767 1.6475 0
M  V30 1559 O 158.303 -0.456263 1.96164 0
M  V30 1560 C 155.368 -0.458137 3.4366 0
M  V30 1561 C 154.429 0.460482 4.26823 0
M  V30 1562 C 153.662 -0.290881 5.32907 0
M  V30 1563 O 153.885 -1.51885 5.49806 0
M  V30 1564 O 152.819 0.351732 6.00871 0
M  V30 1565 H 156.645 1.16718 2.80376 0
M  V30 1566 H 154.23 0.634285 1.35267 0
M  V30 1567 H 156.112 -0.905343 4.1156 0
M  V30 1568 H 154.787 -1.27106 2.97701 0
M  V30 1569 H 153.694 0.956207 3.61673 0
M  V30 1570 H 155.027 1.23903 4.7635 0
M  V30 1571 N 156.679 -1.44442 0.630414 0
M  V30 1572 C 157.642 -2.29107 -0.0652523 0
M  V30 1573 C 158.642 -1.41002 -0.772995 0
M  V30 1574 O 159.832 -1.62881 -0.617692 0
M  V30 1575 C 156.964 -3.22564 -1.10296 0
M  V30 1576 H 158.157 -2.92103 0.679401 0
M  V30 1577 H 155.71 -1.51343 0.390517 0
M  V30 1578 H 156.445 -2.64416 -1.87762 0
M  V30 1579 H 156.23 -3.87491 -0.59941 0
M  V30 1580 H 157.72 -3.86167 -1.5895 0
M  V30 1581 N 158.157 -0.370918 -1.53173 0
M  V30 1582 C 159.573 -0.0200818 -1.59587 0
M  V30 1583 C 159.773 1.46279 -1.38581 0
M  V30 1584 O 158.829 2.22506 -1.19363 0
M  V30 1585 C 160.142 -0.4808 -2.96831 0
M  V30 1586 C 161.69 -0.435477 -3.09956 0
M  V30 1587 C 162.165 -0.872092 -4.4962 0
M  V30 1588 N 163.656 -0.827364 -4.55751 0
M  V30 1589 C 164.391 -1.13683 -5.62018 0
M  V30 1590 N 163.887 -1.51584 -6.76014 0
M  V30 1591 N 165.68 -1.05927 -5.52029 0
M  V30 1592 H 157.831 -1.33652 -1.65079 0
M  V30 1593 H 160.094 -0.546634 -0.774529 0
M  V30 1594 H 159.8 -1.51577 -3.1736 0
M  V30 1595 H 159.674 0.129796 -3.76977 0
M  V30 1596 H 162.061 0.590371 -2.89134 0
M  V30 1597 H 162.142 -1.08164 -2.31806 0
M  V30 1598 H 161.786 -1.89608 -4.71181 0
M  V30 1599 H 161.716 -0.203127 -5.26208 0
M  V30 1600 H 164.207 -0.548216 -3.73902 0
M  V30 1601 H 164.52 -1.73609 -7.53047 0
M  V30 1602 H 162.865 -1.55454 -6.77391 0
M  V30 1603 H 166.056 -0.762321 -4.61851 0
M  V30 1604 H 166.229 -1.30378 -6.34749 0
M  V30 1605 N 159.635 1.57281 -0.100228 0
M  V30 1606 C 160.884 1.93713 0.561984 0
M  V30 1607 C 161.197 0.984492 1.69018 0
M  V30 1608 O 162.403 1.24273 2.41389 0
M  V30 1609 C 160.859 3.4421 1.05106 0
M  V30 1610 C 160.467 4.47975 -0.0476628 0
M  V30 1611 C 162.211 3.89595 1.68571 0
M  V30 1612 C 160.118 5.89631 0.457055 0
M  V30 1613 H 159.048 0.723082 0.2137 0
M  V30 1614 H 161.699 1.82644 -0.177057 0
M  V30 1615 H 160.081 3.50449 1.84395 0
M  V30 1616 H 161.255 4.53385 -0.823333 0
M  V30 1617 H 159.57 4.1223 -0.587816 0
M  V30 1618 H 162.167 4.92832 2.07414 0
M  V30 1619 H 162.51 3.28526 2.55688 0
M  V30 1620 H 163.043 3.86078 0.958562 0
M  V30 1621 H 159.782 6.54411 -0.377616 0
M  V30 1622 H 159.302 5.87681 1.19962 0
M  V30 1623 H 160.981 6.40363 0.92437 0
M  V30 1624 N 161.113 -0.173488 1.56642 0
M  V30 1625 C 162.076 -1.19859 1.95362 0
M  V30 1626 C 163.076 -1.37296 0.83704 0
M  V30 1627 O 164.266 -1.34739 1.10413 0
M  V30 1628 C 161.398 -2.56405 2.24654 0
M  V30 1629 H 162.591 -0.867062 2.87092 0
M  V30 1630 H 160.144 -0.415853 1.50666 0
M  V30 1631 H 160.879 -2.94576 1.35631 0
M  V30 1632 H 160.664 -2.45115 3.06041 0
M  V30 1633 H 162.154 -3.30287 2.5554 0
M  V30 1634 N 162.591 -1.51276 -0.441967 0
M  V30 1635 C 163.819 -1.67516 -1.21434 0
M  V30 1636 C 164.234 -0.37055 -1.85128 0
M  V30 1637 O 163.591 0.650498 -1.70513 0
M  V30 1638 C 163.642 -2.78748 -2.30177 0
M  V30 1639 O 163.363 -4.04154 -1.69089 0
M  V30 1640 C 164.864 -3.06217 -3.20541 0
M  V30 1641 H 162.084 -0.562276 -0.366178 0
M  V30 1642 H 164.628 -1.97666 -0.524244 0
M  V30 1643 H 162.783 -2.5121 -2.94911 0
M  V30 1644 H 163.197 -4.65894 -2.40922 0
M  V30 1645 H 164.671 -3.8764 -3.92987 0
M  V30 1646 H 165.148 -2.18439 -3.81026 0
M  V30 1647 H 165.754 -3.35397 -2.61513 0
M  V30 1648 N 164.069 0.697108 -1.41344 0
M  V30 1649 C 165.032 1.79281 -1.42797 0
M  V30 1650 C 166.032 1.57607 -0.318837 0
M  V30 1651 O 167.222 1.64309 -0.578642 0
M  V30 1652 C 164.354 3.17632 -1.23785 0
M  V30 1653 H 165.547 1.79385 -2.40335 0
M  V30 1654 H 163.1 0.904582 -1.27464 0
M  V30 1655 H 163.835 3.23167 -0.270814 0
M  V30 1656 H 163.62 3.34765 -2.04144 0
M  V30 1657 H 165.11 3.97617 -1.27633 0
M  V30 1658 N 165.547 1.27147 0.931209 0
M  V30 1659 C 166.497 1.06227 2.01742 0
M  V30 1660 C 167.481 -0.00859065 1.60898 0
M  V30 1661 O 168.673 0.209537 1.75755 0
M  V30 1662 C 165.802 0.707787 3.35924 0
M  V30 1663 C 164.888 1.81661 3.83223 0
M  V30 1664 N 165.279 3.05564 4.03069 0
M  V30 1665 C 163.577 1.70249 4.12227 0
M  V30 1666 C 164.278 3.77697 4.42403 0
M  V30 1667 N 163.254 3.0544 4.49675 0
M  V30 1668 H 167.056 2.00261 2.15111 0
M  V30 1669 H 164.57 1.1781 1.11779 0
M  V30 1670 H 166.567 0.539043 4.134 0
M  V30 1671 H 165.227 -0.224964 3.2392 0
M  V30 1672 H 166.238 3.41363 3.89476 0
M  V30 1673 H 162.915 0.840329 4.08956 0
M  V30 1674 H 164.305 4.84168 4.65866 0
M  V30 1675 N 167.025 -1.13721 1.09112 0
M  V30 1676 C 168.436 -1.6648 0.845068 0
M  V30 1677 C 168.787 -1.85911 -0.62701 0
M  V30 1678 O 167.912 -1.57556 -1.48341 0
M  V30 1679 C 168.507 -3.02413 1.52748 0
M  V30 1680 C 167.066 -3.52176 1.32849 0
M  V30 1681 C 166.213 -2.27492 1.58564 0
M  V30 1682 H 169.164 -0.976872 1.25072 0
M  V30 1683 H 169.185 -3.68223 0.958752 0
M  V30 1684 H 168.697 -2.88238 2.59885 0
M  V30 1685 H 166.798 -3.7156 0.278137 0
M  V30 1686 H 166.911 -4.32499 2.0611 0
M  V30 1687 H 165.275 -2.33923 1.00758 0
M  V30 1688 H 166.058 -2.15886 2.66924 0
M  V30 1689 N 168.503 -0.877838 -1.30888 0
M  V30 1690 C 169.453 -0.310872 -2.25871 0
M  V30 1691 C 170.437 0.556596 -1.50966 0
M  V30 1692 O 171.629 0.402187 -1.7237 0
M  V30 1693 C 168.758 0.479821 -3.3993 0
M  V30 1694 C 167.844 -0.401333 -4.22197 0
M  V30 1695 N 168.235 -1.49848 -4.83093 0
M  V30 1696 C 166.533 -0.195167 -4.45573 0
M  V30 1697 C 167.234 -2.0425 -5.44662 0
M  V30 1698 N 166.21 -1.33843 -5.26865 0
M  V30 1699 H 170.012 -1.1493 -2.70496 0
M  V30 1700 H 167.526 -0.726458 -1.45246 0
M  V30 1701 H 169.523 0.902582 -4.07012 0
M  V30 1702 H 168.183 1.31577 -2.96846 0
M  V30 1703 H 169.194 -1.88137 -4.82519 0
M  V30 1704 H 165.871 0.604192 -4.13105 0
M  V30 1705 H 167.261 -2.96345 -6.03017 0
M  V30 1706 N 169.982 1.44106 -0.638065 0
M  V30 1707 C 171.23 2.01579 -0.145043 0
M  V30 1708 C 171.551 1.50496 1.24 0
M  V30 1709 O 170.821 0.711374 1.82527 0
M  V30 1710 H 169.401 0.745282 -0.05063 0
M  V30 1711 H 172.063 1.76516 -0.826327 0
M  V30 1712 H 171.159 3.11877 -0.118039 0
M  V30 1713 N 171.46 0.379036 1.52974 0
M  V30 1714 C 172.39 -0.452706 2.29069 0
M  V30 1715 C 173.371 -1.07237 1.32039 0
M  V30 1716 O 174.556 -1.08708 1.60923 0
M  V30 1717 C 171.686 -1.5856 3.08992 0
M  V30 1718 C 170.64 -1.0925 4.13822 0
M  V30 1719 C 169.966 -2.31668 4.81907 0
M  V30 1720 C 171.266 -0.167702 5.22031 0
M  V30 1721 H 172.96 0.182181 2.98845 0
M  V30 1722 H 170.506 0.0890592 1.43724 0
M  V30 1723 H 172.459 -2.1742 3.6098 0
M  V30 1724 H 171.183 -2.24792 2.36931 0
M  V30 1725 H 169.842 -0.526494 3.628 0
M  V30 1726 H 169.49 -2.96386 4.06404 0
M  V30 1727 H 169.19 -1.9934 5.52754 0
M  V30 1728 H 170.714 -2.91189 5.36695 0
M  V30 1729 H 172.128 -0.664186 5.6944 0
M  V30 1730 H 170.525 0.0653265 6.00064 0
M  V30 1731 H 171.595 0.786347 4.78482 0
M  V30 1732 N 172.938 -1.57226 0.108567 0
M  V30 1733 C 173.901 -2.13602 -0.831082 0
M  V30 1734 C 174.901 -1.06841 -1.20173 0
M  V30 1735 O 176.091 -1.32666 -1.12895 0
M  V30 1736 C 173.223 -2.66769 -2.12243 0
M  V30 1737 H 174.416 -2.97951 -0.341317 0
M  V30 1738 H 171.969 -1.55667 -0.14057 0
M  V30 1739 H 172.704 -1.85977 -2.65675 0
M  V30 1740 H 172.489 -3.44839 -1.86625 0
M  V30 1741 H 173.979 -3.10332 -2.79435 0
M  V30 1742 N 174.416 0.165178 -1.56732 0
M  V30 1743 C 175.348 1.22911 -1.93457 0
M  V30 1744 C 176.361 1.40152 -0.828333 0
M  V30 1745 O 177.55 1.40046 -1.10677 0
M  V30 1746 C 174.65 2.59686 -2.17753 0
M  V30 1747 C 173.823 2.63663 -3.48999 0
M  V30 1748 C 172.882 3.81845 -3.62051 0
M  V30 1749 O 171.908 3.67559 -4.34613 0
M  V30 1750 N 173.11 4.98557 -2.97357 0
M  V30 1751 H 175.875 0.917118 -2.85323 0
M  V30 1752 H 173.436 0.354895 -1.57962 0
M  V30 1753 H 175.428 3.37225 -2.23743 0
M  V30 1754 H 173.998 2.83251 -1.32242 0
M  V30 1755 H 173.218 1.72173 -3.54612 0
M  V30 1756 H 174.506 2.63336 -4.35352 0
M  V30 1757 H 173.904 5.13065 -2.38287 0
M  V30 1758 H 172.461 5.73936 -3.08934 0
M  V30 1759 N 175.894 1.51508 0.433938 0
M  V30 1760 C 177.134 1.66006 1.19253 0
M  V30 1761 C 177.498 0.369868 1.88404 0
M  V30 1762 O 178.699 0.39066 2.65946 0
M  V30 1763 C 176.97 2.83229 2.17981 0
M  V30 1764 S 178.529 3.18075 3.02281 0
M  V30 1765 H 175.347 0.584821 0.404358 0
M  V30 1766 H 177.949 1.89425 0.48357 0
M  V30 1767 H 176.653 3.75407 1.65824 0
M  V30 1768 H 176.184 2.6201 2.93453 0
M  V30 1769 H 178.199 2.64772 4.19655 0
M  V30 1770 N 177.372 -0.689602 1.41712 0
M  V30 1771 C 178.319 -1.80345 1.44029 0
M  V30 1772 C 179.289 -1.63478 0.293948 0
M  V30 1773 O 180.474 -1.84244 0.495869 0
M  V30 1774 C 177.614 -3.18272 1.33405 0
M  V30 1775 C 176.727 -3.46529 2.57956 0
M  V30 1776 C 175.862 -4.74103 2.39582 0
M  V30 1777 C 174.901 -4.95347 3.5958 0
M  V30 1778 N 174.038 -6.14151 3.40239 0
M  V30 1779 H 178.878 -1.77698 2.39222 0
M  V30 1780 H 176.415 -0.867688 1.18784 0
M  V30 1781 H 178.373 -3.97956 1.25246 0
M  V30 1782 H 177.003 -3.2008 0.418164 0
M  V30 1783 H 176.055 -2.61207 2.76542 0
M  V30 1784 H 177.367 -3.58126 3.47199 0
M  V30 1785 H 176.521 -5.61853 2.28924 0
M  V30 1786 H 175.26 -4.64763 1.47805 0
M  V30 1787 H 174.265 -4.06044 3.70686 0
M  V30 1788 H 175.49 -5.06542 4.52318 0
M  V30 1789 H 173.436 -6.06013 2.51167 0
M  V30 1790 H 173.353 -6.26543 4.23061 0
M  V30 1791 H 174.621 -7.04619 3.33365 0
M  V30 1792 N 178.85 -1.27639 -0.924453 0
M  V30 1793 C 180.266 -1.05113 -1.20097 0
M  V30 1794 C 180.466 0.213262 -2.00368 0
M  V30 1795 O 179.522 0.91787 -2.35226 0
M  V30 1796 C 180.835 -2.29244 -1.94596 0
M  V30 1797 C 182.383 -2.34315 -2.07522 0
M  V30 1798 C 182.858 -3.58183 -2.85427 0
M  V30 1799 N 184.349 -3.5876 -2.92994 0
M  V30 1800 C 185.084 -4.51277 -3.53746 0
M  V30 1801 N 184.58 -5.54102 -4.15863 0
M  V30 1802 N 186.373 -4.38894 -3.51181 0
M  V30 1803 H 178.524 -2.08821 -0.388264 0
M  V30 1804 H 180.787 -0.918568 -0.234385 0
M  V30 1805 H 180.493 -3.21301 -1.43034 0
M  V30 1806 H 180.367 -2.34816 -2.95197 0
M  V30 1807 H 182.754 -1.42762 -2.58269 0
M  V30 1808 H 182.835 -2.32744 -1.06131 0
M  V30 1809 H 182.479 -4.50074 -2.35363 0
M  V30 1810 H 182.409 -3.57006 -3.8711 0
M  V30 1811 H 184.9 -2.84398 -2.4885 0
M  V30 1812 H 185.213 -6.20859 -4.60168 0
M  V30 1813 H 183.558 -5.57941 -4.144 0
M  V30 1814 H 186.749 -3.57772 -3.01856 0
M  V30 1815 H 186.922 -5.11186 -3.98237 0
M  V30 1816 N 180.328 1.1314 -1.09713 0
M  V30 1817 C 181.575 1.84484 -0.834987 0
M  V30 1818 C 181.903 1.83689 0.639418 0
M  V30 1819 O 181.158 1.2724 1.4869 0
M  V30 1820 C 181.457 3.32167 -1.3191 0
M  V30 1821 C 181.123 3.53139 -2.80363 0
M  V30 1822 C 179.785 3.58571 -3.20905 0
M  V30 1823 C 182.137 3.60866 -3.76065 0
M  V30 1824 C 179.465 3.69267 -4.55916 0
M  V30 1825 C 181.817 3.73089 -5.10869 0
M  V30 1826 C 180.481 3.76775 -5.50996 0
M  V30 1827 H 179.751 0.675073 -0.305544 0
M  V30 1828 H 182.398 1.33554 -1.37243 0
M  V30 1829 H 180.703 3.85469 -0.701517 0
M  V30 1830 H 182.4 3.85821 -1.09284 0
M  V30 1831 H 178.99 3.49569 -2.47991 0
M  V30 1832 H 183.174 3.55946 -3.45855 0
M  V30 1833 H 178.43 3.70388 -4.86438 0
M  V30 1834 H 182.604 3.78011 -5.84877 0
M  V30 1835 H 180.231 3.84815 -6.55608 0
M  V30 1836 N 181.806 0.884767 1.30421 0
M  V30 1837 C 183.055 0.499164 1.95426 0
M  V30 1838 C 183.368 -0.95645 1.70621 0
M  V30 1839 O 184.574 -1.44889 2.29607 0
M  V30 1840 C 183.03 0.84177 3.49917 0
M  V30 1841 C 182.638 2.31514 3.83543 0
M  V30 1842 C 184.382 0.525355 4.21237 0
M  V30 1843 C 182.289 2.59939 5.31212 0
M  V30 1844 H 181.219 0.182944 0.73147 0
M  V30 1845 H 183.87 1.07971 1.48373 0
M  V30 1846 H 182.252 0.190311 3.95542 0
M  V30 1847 H 183.426 3.0109 3.48829 0
M  V30 1848 H 181.741 2.59907 3.25326 0
M  V30 1849 H 184.338 0.714762 5.29901 0
M  V30 1850 H 184.681 -0.535222 4.12845 0
M  V30 1851 H 185.214 1.134 3.81294 0
M  V30 1852 H 181.953 3.64736 5.44654 0
M  V30 1853 H 181.473 1.94972 5.67227 0
M  V30 1854 H 183.152 2.45429 5.98643 0
M  V30 1855 N 183.284 -1.43765 0.645699 0
M  V30 1856 C 184.247 -2.29163 -0.0409488 0
M  V30 1857 C 185.247 -1.41813 -0.757996 0
M  V30 1858 O 186.437 -1.63527 -0.600382 0
M  V30 1859 C 183.569 -3.23716 -1.06869 0
M  V30 1860 H 184.762 -2.91366 0.710345 0
M  V30 1861 H 182.315 -1.5092 0.406547 0
M  V30 1862 H 183.05 -2.66393 -1.84947 0
M  V30 1863 H 182.835 -3.88105 -0.558277 0
M  V30 1864 H 184.325 -3.87831 -1.54845 0
M  V30 1865 N 184.763 -0.387143 -1.52771 0
M  V30 1866 C 185.673 0.456442 -2.30117 0
M  V30 1867 C 186.689 1.07342 -1.36944 0
M  V30 1868 O 187.865 1.07971 -1.70013 0
M  V30 1869 C 184.93 1.56957 -3.09136 0
M  V30 1870 C 183.991 0.977916 -4.18014 0
M  V30 1871 C 183.224 2.038 -4.93256 0
M  V30 1872 O 183.447 3.25271 -4.68567 0
M  V30 1873 O 182.381 1.6565 -5.78657 0
M  V30 1874 H 186.207 -0.17359 -3.03203 0
M  V30 1875 H 183.792 -0.150919 -1.48636 0
M  V30 1876 H 185.674 2.21628 -3.58412 0
M  V30 1877 H 184.349 2.18461 -2.38865 0
M  V30 1878 H 183.256 0.294525 -3.72939 0
M  V30 1879 H 184.589 0.407128 -4.90513 0
M  V30 1880 N 186.241 1.57166 -0.116904 0
M  V30 1881 C 187.191 2.11756 0.845178 0
M  V30 1882 C 188.175 1.03783 1.22955 0
M  V30 1883 O 189.367 1.3002 1.20099 0
M  V30 1884 C 186.496 2.71886 2.09602 0
M  V30 1885 C 185.582 3.86937 1.7361 0
M  V30 1886 N 185.973 4.94073 1.08284 0
M  V30 1887 C 184.271 3.97082 2.03082 0
M  V30 1888 C 184.972 5.74477 0.913855 0
M  V30 1889 N 183.948 5.2423 1.43818 0
M  V30 1890 H 187.75 2.91967 0.336523 0
M  V30 1891 H 185.264 1.62174 0.0856332 0
M  V30 1892 H 187.261 3.09338 2.79492 0
M  V30 1893 H 185.921 1.93138 2.61013 0
M  V30 1894 H 186.932 5.12483 0.747067 0
M  V30 1895 H 183.609 3.29372 2.56554 0
M  V30 1896 H 184.999 6.70701 0.40125 0
M  V30 1897 N 187.719 -0.156864 1.56817 0
M  V30 1898 C 189.135 -0.50916 1.5126 0
M  V30 1899 C 189.335 -1.83897 0.823658 0
M  V30 1900 O 188.391 -2.49469 0.390055 0
M  V30 1901 C 189.704 -0.52857 2.96018 0
M  V30 1902 C 191.252 -0.614771 3.06903 0
M  V30 1903 C 191.727 -0.664938 4.53147 0
M  V30 1904 N 193.218 -0.727433 4.57452 0
M  V30 1905 C 193.953 -0.787067 5.67973 0
M  V30 1906 N 193.449 -0.806649 6.88088 0
M  V30 1907 N 195.242 -0.827195 5.5598 0
M  V30 1908 H 187.393 0.714935 2.00006 0
M  V30 1909 H 189.656 0.259526 0.911784 0
M  V30 1910 H 189.362 0.380154 3.49639 0
M  V30 1911 H 189.236 -1.36998 3.51442 0
M  V30 1912 H 191.623 -1.51392 2.53307 0
M  V30 1913 H 191.704 0.253597 2.5454 0
M  V30 1914 H 191.348 0.230011 5.07379 0
M  V30 1915 H 191.278 -1.54966 5.03282 0
M  V30 1916 H 193.769 -0.719998 3.70978 0
M  V30 1917 H 194.082 -0.853727 7.6807 0
M  V30 1918 H 192.427 -0.774687 6.90669 0
M  V30 1919 H 195.618 -0.808998 4.61056 0
M  V30 1920 H 195.791 -0.870206 6.4213 0
M  V30 1921 N 189.197 -1.51736 -0.425897 0
M  V30 1922 C 190.127 -1.76827 -1.52494 0
M  V30 1923 C 191.108 -0.618524 -1.58456 0
M  V30 1924 O 192.293 -0.862416 -1.74 0
M  V30 1925 C 189.423 -1.90374 -2.90474 0
M  V30 1926 C 188.377 -3.0588 -2.99369 0
M  V30 1927 C 187.703 -3.04625 -4.3944 0
M  V30 1928 C 189.003 -4.45644 -2.72394 0
M  V30 1929 H 190.697 -2.68855 -1.31748 0
M  V30 1930 H 188.243 -1.29372 -0.632362 0
M  V30 1931 H 190.196 -2.0651 -3.6733 0
M  V30 1932 H 188.92 -0.95004 -3.12477 0
M  V30 1933 H 187.579 -2.89467 -2.24954 0
M  V30 1934 H 187.227 -2.0701 -4.58428 0
M  V30 1935 H 186.927 -3.82195 -4.46319 0
M  V30 1936 H 188.451 -3.22869 -5.18255 0
M  V30 1937 H 189.865 -4.62348 -3.38979 0
M  V30 1938 H 188.262 -5.25006 -2.9067 0
M  V30 1939 H 189.332 -4.54893 -1.67929 0
M  V30 1940 N 190.675 0.682077 -1.42076 0
M  V30 1941 C 191.9 1.47558 -1.45744 0
M  V30 1942 C 192.325 1.87977 -0.0680981 0
M  V30 1943 O 191.683 1.55522 0.9318 0
M  V30 1944 C 191.731 2.70575 -2.38373 0
M  V30 1945 O 190.835 3.68573 -1.85007 0
M  V30 1946 H 190.176 0.443585 -0.494093 0
M  V30 1947 H 192.706 0.837238 -1.86686 0
M  V30 1948 H 192.716 3.18729 -2.54707 0
M  V30 1949 H 191.391 2.40495 -3.39315 0
M  V30 1950 H 189.968 3.2757 -1.78192 0
M  V30 1951 N 192.153 1.28127 0.917671 0
M  V30 1952 C 193.381 1.17892 1.70026 0
M  V30 1953 C 193.796 -0.262958 1.8696 0
M  V30 1954 O 193.153 -1.17811 1.3938 0
M  V30 1955 C 193.204 1.86872 3.09453 0
M  V30 1956 O 192.925 3.25428 2.93306 0
M  V30 1957 C 194.426 1.8289 4.03815 0
M  V30 1958 H 191.646 0.40942 0.531617 0
M  V30 1959 H 194.19 1.69181 1.14883 0
M  V30 1960 H 192.345 1.39464 3.61426 0
M  V30 1961 H 192.759 3.59918 3.81523 0
M  V30 1962 H 194.233 2.35751 4.99125 0
M  V30 1963 H 194.71 0.800412 4.31845 0
M  V30 1964 H 195.316 2.29959 3.57769 0
M  V30 1965 N 193.631 -1.12557 1.10312 0
M  V30 1966 C 194.563 -2.17971 0.708625 0
M  V30 1967 C 195.576 -1.60806 -0.254027 0
M  V30 1968 O 196.765 -1.78458 -0.0386891 0
M  V30 1969 C 193.865 -3.38891 0.0248198 0
M  V30 1970 C 193.038 -4.25548 1.01132 0
M  V30 1971 C 192.097 -5.24972 0.35924 0
M  V30 1972 O 191.123 -5.60174 1.00965 0
M  V30 1973 N 192.325 -5.73747 -0.882847 0
M  V30 1974 H 195.09 -2.52427 1.61557 0
M  V30 1975 H 192.651 -1.27967 0.991771 0
M  V30 1976 H 194.643 -4.02485 -0.422852 0
M  V30 1977 H 193.213 -3.02596 -0.784514 0
M  V30 1978 H 192.433 -3.58589 1.6373 0
M  V30 1979 H 193.721 -4.80294 1.67914 0
M  V30 1980 H 193.119 -5.4731 -1.43065 0
M  V30 1981 H 191.676 -6.39234 -1.27369 0
M  V30 1982 N 195.109 -0.891671 -1.2995 0
M  V30 1983 C 196.52 -0.563104 -1.78006 0
M  V30 1984 C 196.871 0.920978 -1.73241 0
M  V30 1985 O 195.996 1.71987 -1.31337 0
M  V30 1986 C 196.591 -1.01539 -3.23226 0
M  V30 1987 C 195.15 -0.738124 -3.69092 0
M  V30 1988 C 194.297 -1.19461 -2.50249 0
M  V30 1989 H 197.248 -1.07522 -1.16725 0
M  V30 1990 H 197.269 -0.347217 -3.78912 0
M  V30 1991 H 196.781 -2.09555 -3.26662 0
M  V30 1992 H 194.882 0.329766 -3.71138 0
M  V30 1993 H 194.995 -1.33037 -4.60259 0
M  V30 1994 H 193.359 -0.613787 -2.47194 0
M  V30 1995 H 194.142 -2.28265 -2.56417 0
M  V30 1996 N 196.587 1.43421 -0.653314 0
M  V30 1997 C 197.55 2.29182 0.0287951 0
M  V30 1998 C 198.55 1.42213 0.750465 0
M  V30 1999 O 199.74 1.63843 0.591701 0
M  V30 2000 C 196.872 3.24278 1.05151 0
M  V30 2001 H 198.065 2.90985 -0.725786 0
M  V30 2002 H 195.618 1.50702 -0.414545 0
M  V30 2003 H 196.353 2.6737 1.83532 0
M  V30 2004 H 196.138 3.88396 0.537687 0
M  V30 2005 H 197.628 3.88647 1.52786 0
M  V30 2006 N 198.065 0.39524 1.52563 0
M  V30 2007 C 199.293 -0.184943 2.06072 0
M  V30 2008 C 199.708 -1.40021 1.26647 0
M  V30 2009 O 199.065 -1.79767 0.314672 0
M  V30 2010 C 199.116 -0.549179 3.57304 0
M  V30 2011 O 198.837 0.617813 4.33722 0
M  V30 2012 C 200.338 -1.18459 4.2718 0
M  V30 2013 H 197.558 -0.0265025 0.670476 0
M  V30 2014 H 200.102 0.562184 1.96621 0
M  V30 2015 H 198.257 -1.2462 3.66809 0
M  V30 2016 H 198.671 0.317091 5.23541 0
M  V30 2017 H 200.145 -1.38976 5.34219 0
M  V30 2018 H 200.622 -2.15368 3.82771 0
M  V30 2019 H 201.228 -0.528163 4.22008 0
M  V30 2020 N 199.544 -1.57102 0.125237 0
M  V30 2021 C 200.769 -2.0019 -0.542101 0
M  V30 2022 C 201.194 -1.00449 -1.59034 0
M  V30 2023 O 200.552 0.0229423 -1.81285 0
M  V30 2024 C 200.6 -3.42129 -1.13929 0
M  V30 2025 O 199.704 -3.45307 -2.2547 0
M  V30 2026 H 199.045 -0.650171 -0.134812 0
M  V30 2027 H 201.575 -2.03461 0.215553 0
M  V30 2028 H 201.585 -3.80471 -1.4733 0
M  V30 2029 H 200.26 -4.14237 -0.371531 0
M  V30 2030 H 198.837 -3.1879 -1.93462 0
M  V30 2031 N 201.022 0.148545 -1.56898 0
M  V30 2032 C 201.97 1.20265 -1.99096 0
M  V30 2033 C 202.964 1.44559 -0.883123 0
M  V30 2034 O 204.17 1.4487 -1.0683 0
M  V30 2035 H 200.545 0.404786 -0.63376 0
M  V30 2036 H 202.516 0.82004 -2.86911 0
M  V30 2037 C 201.265 2.52886 -2.3863 0
M  V30 2038 H 200.588 2.35021 -3.23427 0
M  V30 2039 H 202.028 3.25274 -2.7198 0
M  V30 2040 C 200.487 3.13315 -1.23837 0
M  V30 2041 O 201.017 3.98077 -0.538268 0
M  V30 2042 N 199.223 2.72742 -1.00301 0
M  V30 2043 H 198.77 2.03912 -1.5741 0
M  V30 2044 H 198.728 3.13507 -0.236838 0
M  V30 2045 N 202.5 1.5196 0.417844 0
M  V30 2046 C 203.463 1.74065 1.49111 0
M  V30 2047 C 204.463 0.610537 1.48758 0
M  V30 2048 O 205.653 0.87832 1.50437 0
M  V30 2049 C 202.785 1.81502 2.88565 0
M  V30 2050 H 203.978 2.69869 1.30807 0
M  V30 2051 H 201.531 1.42244 0.647785 0
M  V30 2052 H 202.266 0.875813 3.1225 0
M  V30 2053 H 202.051 2.63651 2.90225 0
M  V30 2054 H 203.541 2.00376 3.66387 0
M  V30 2055 N 203.978 -0.674533 1.42435 0
M  V30 2056 C 204.941 -1.76986 1.45632 0
M  V30 2057 C 205.941 -1.5708 0.343871 0
M  V30 2058 O 207.131 -1.63367 0.604709 0
M  V30 2059 C 204.263 -3.15623 1.28822 0
M  V30 2060 H 205.456 -1.75539 2.43158 0
M  V30 2061 H 203.009 -0.884189 1.28887 0
M  V30 2062 H 203.744 -3.22696 0.322193 0
M  V30 2063 H 203.529 -3.31475 2.09444 0
M  V30 2064 H 205.019 -3.95537 1.33942 0
M  V30 2065 N 205.456 -1.28612 -0.910864 0
M  V30 2066 C 206.419 -1.12803 -1.9952 0
M  V30 2067 C 207.419 -0.0668264 -1.60661 0
M  V30 2068 O 208.609 -0.312847 -1.71368 0
M  V30 2069 C 205.741 -0.72254 -3.33155 0
M  V30 2070 H 206.934 -2.09109 -2.14973 0
M  V30 2071 H 204.487 -1.11639 -1.09391 0
M  V30 2072 H 205.222 0.241152 -3.23402 0
M  V30 2073 H 205.007 -1.48916 -3.62721 0
M  V30 2074 H 206.497 -0.634666 -4.12749 0
M  V30 2075 N 206.934 1.1197 -1.10907 0
M  V30 2076 C 208.174 1.85224 -0.864378 0
M  V30 2077 C 208.538 1.82411 0.599178 0
M  V30 2078 O 209.739 2.51057 0.960416 0
M  V30 2079 C 208.01 3.2868 -1.40371 0
M  V30 2080 S 209.569 4.1925 -1.29518 0
M  V30 2081 H 206.387 0.63878 -0.312219 0
M  V30 2082 H 208.989 1.3485 -1.41548 0
M  V30 2083 H 207.693 3.28289 -2.46281 0
M  V30 2084 H 207.224 3.84121 -0.849402 0
M  V30 2085 H 209.239 4.95539 -0.256059 0
M  V30 2086 N 208.412 0.89855 1.29475 0
M  V30 2087 C 209.828 0.594483 1.48115 0
M  V30 2088 C 210.028 -0.86431 1.82022 0
M  V30 2089 O 209.084 -1.64457 1.91599 0
M  V30 2090 C 210.397 1.51932 2.59494 0
M  V30 2091 C 211.945 1.5244 2.7337 0
M  V30 2092 C 212.42 2.43548 3.87877 0
M  V30 2093 N 213.911 2.41589 3.95208 0
M  V30 2094 C 214.646 3.08789 4.83153 0
M  V30 2095 N 214.142 3.85265 5.75798 0
M  V30 2096 N 215.935 2.97952 4.76635 0
M  V30 2097 H 208.086 1.84207 1.05742 0
M  V30 2098 H 210.349 0.789251 0.525154 0
M  V30 2099 H 210.055 2.55865 2.41301 0
M  V30 2100 H 209.929 1.23899 3.56271 0
M  V30 2101 H 212.316 0.492518 2.90961 0
M  V30 2102 H 212.397 1.8451 1.77172 0
M  V30 2103 H 212.041 3.46829 3.71041 0
M  V30 2104 H 211.971 2.08788 4.83441 0
M  V30 2105 H 214.462 1.86025 3.28943 0
M  V30 2106 H 214.775 4.33598 6.39697 0
M  V30 2107 H 213.12 3.89371 5.75687 0
M  V30 2108 H 216.311 2.37723 4.03244 0
M  V30 2109 H 216.484 3.50599 5.44962 0
M  V30 2110 N 209.89 -1.43072 0.660911 0
M  V30 2111 C 211.167 -1.95307 0.107017 0
M  V30 2112 C 211.547 -1.60192 -1.37484 0
M  V30 2113 O 210.895 -0.890949 -2.10415 0
M  V30 2114 C 211.105 -3.47124 0.361402 0
M  V30 2115 C 212.453 -4.23738 0.270455 0
M  V30 2116 O 213.477 -3.54981 0.294382 0
M  V30 2117 O 212.336 -5.46131 0.200737 0
M  V30 2118 H 209.43 -0.826984 -0.00517729 0
M  V30 2119 H 211.976 -1.52972 0.734681 0
M  V30 2120 H 210.748 -3.65837 1.38848 0
M  V30 2121 H 210.371 -3.96475 -0.298953 0
M  V30 2122 N 211.368 -0.403325 -1.52352 0
M  V30 2123 C 212.298 0.416205 -2.29761 0
M  V30 2124 C 213.279 1.05123 -1.33728 0
M  V30 2125 O 214.464 1.06134 -1.62632 0
M  V30 2126 C 211.594 1.53624 -3.11475 0
M  V30 2127 C 210.548 1.02653 -4.15507 0
M  V30 2128 C 209.874 2.23971 -4.85532 0
M  V30 2129 C 211.174 0.08463 -5.22231 0
M  V30 2130 H 212.868 -0.229701 -2.98518 0
M  V30 2131 H 210.414 -0.111913 -1.43564 0
M  V30 2132 H 212.367 2.1165 -3.64393 0
M  V30 2133 H 211.091 2.20994 -2.40477 0
M  V30 2134 H 209.75 0.46871 -3.63591 0
M  V30 2135 H 209.398 2.89883 -4.11068 0
M  V30 2136 H 209.098 1.90521 -5.55856 0
M  V30 2137 H 210.622 2.82614 -5.41259 0
M  V30 2138 H 212.036 0.573509 -5.70424 0
M  V30 2139 H 210.433 -0.160783 -5.99885 0
M  V30 2140 H 211.503 -0.86237 -4.7717 0
M  V30 2141 N 212.846 1.57033 -0.133567 0
M  V30 2142 C 214.095 1.94861 0.520768 0
M  V30 2143 C 214.408 1.02012 1.66892 0
M  V30 2144 O 215.614 1.29365 2.38699 0
M  V30 2145 C 214.07 3.46362 0.977809 0
M  V30 2146 C 213.678 4.47773 -0.142674 0
M  V30 2147 C 215.422 3.93083 1.60269 0
M  V30 2148 C 213.329 5.90468 0.331883 0
M  V30 2149 H 212.259 0.727453 0.198315 0
M  V30 2150 H 214.91 1.82227 -0.215759 0
M  V30 2151 H 213.292 3.54282 1.7692 0
M  V30 2152 H 214.466 4.51536 -0.919317 0
M  V30 2153 H 212.781 4.10891 -0.675124 0
M  V30 2154 H 215.378 4.97121 1.96914 0
M  V30 2155 H 215.721 3.33876 2.48662 0
M  V30 2156 H 216.254 3.88025 0.876453 0
M  V30 2157 H 212.993 6.53463 -0.516341 0
M  V30 2158 H 212.513 5.90094 1.07469 0
M  V30 2159 H 214.192 6.42179 0.788332 0
M  V30 2160 N 214.325 -0.140222 1.56975 0
M  V30 2161 C 215.736 -0.699596 1.73097 0
M  V30 2162 C 216.087 -1.8134 0.749022 0
M  V30 2163 O 215.212 -2.16241 -0.0828503 0
M  V30 2164 C 215.807 -1.27582 3.1386 0
M  V30 2165 C 214.366 -1.78169 3.31561 0
M  V30 2166 C 213.513 -0.672855 2.69013 0
M  V30 2167 H 216.464 0.0855115 1.58469 0
M  V30 2168 H 216.485 -2.14561 3.14235 0
M  V30 2169 H 215.997 -0.464955 3.85305 0
M  V30 2170 H 214.098 -2.61801 2.65124 0
M  V30 2171 H 214.211 -1.90574 4.39566 0
M  V30 2172 H 212.575 -1.10118 2.29665 0
M  V30 2173 H 213.358 0.126679 3.43066 0
M  V30 2174 N 215.803 -1.52179 -0.40978 0
M  V30 2175 C 217.051 -1.65878 -1.15451 0
M  V30 2176 C 217.372 -0.390771 -1.91044 0
M  V30 2177 O 216.642 0.594323 -1.86667 0
M  V30 2178 H 215.222 -0.611405 -0.429177 0
M  V30 2179 H 217.884 -1.89219 -0.467134 0
M  V30 2180 H 216.98 -2.49954 -1.86894 0
M  V30 2181 N 217.281 0.66697 -1.42791 0
M  V30 2182 C 218.191 1.80962 -1.49299 0
M  V30 2183 C 219.207 1.69775 -0.381108 0
M  V30 2184 O 220.383 1.91188 -0.633188 0
M  V30 2185 C 217.448 3.17156 -1.40045 0
M  V30 2186 C 216.509 3.40242 -2.6179 0
M  V30 2187 C 215.742 4.69939 -2.52969 0
M  V30 2188 O 215.965 5.48372 -1.56985 0
M  V30 2189 O 214.899 4.94441 -3.43237 0
M  V30 2190 H 218.725 1.78427 -2.45759 0
M  V30 2191 H 216.31 0.823713 -1.24641 0
M  V30 2192 H 218.192 3.98413 -1.37276 0
M  V30 2193 H 216.867 3.20312 -0.467138 0
M  V30 2194 H 215.774 2.58802 -2.70134 0
M  V30 2195 H 217.107 3.41923 -3.54047 0
M  V30 2196 N 218.759 1.29093 0.90403 0
M  V30 2197 C 220.008 1.16187 1.64874 0
M  V30 2198 C 220.321 -0.286742 1.93487 0
M  V30 2199 O 221.527 -0.537062 2.66135 0
M  V30 2200 C 219.983 2.03177 2.97064 0
M  V30 2201 C 219.591 3.52836 2.76062 0
M  V30 2202 C 221.335 1.98984 3.74974 0
M  V30 2203 C 219.242 4.31945 4.03952 0
M  V30 2204 H 218.172 0.431246 0.618501 0
M  V30 2205 H 220.823 1.53699 1.00243 0
M  V30 2206 H 219.205 1.5853 3.62883 0
M  V30 2207 H 220.379 4.05507 2.18863 0
M  V30 2208 H 218.694 3.58656 2.11553 0
M  V30 2209 H 221.291 2.55351 4.69787 0
M  V30 2210 H 221.634 0.968815 4.0487 0
M  V30 2211 H 222.167 2.41652 3.15989 0
M  V30 2212 H 218.906 5.34667 3.79225 0
M  V30 2213 H 218.426 3.84045 4.60727 0
M  V30 2214 H 220.105 4.42379 4.72133 0
M  V30 2215 N 220.237 -1.11381 1.11499 0
M  V30 2216 C 221.2 -2.15622 0.777153 0
M  V30 2217 C 222.2 -1.59504 -0.203779 0
M  V30 2218 O 223.39 -1.74188 0.020782 0
M  V30 2219 C 220.522 -3.40556 0.153116 0
M  V30 2220 H 221.715 -2.47021 1.70061 0
M  V30 2221 H 219.268 -1.26577 0.916952 0
M  V30 2222 H 220.003 -3.14767 -0.780536 0
M  V30 2223 H 219.788 -3.8257 0.859238 0
M  V30 2224 H 221.278 -4.17546 -0.0671044 0
M  V30 2225 N 221.715 -0.905404 -1.28997 0
M  V30 2226 C 222.962 -0.534248 -1.95325 0
M  V30 2227 C 223.29 0.920535 -1.71337 0
M  V30 2228 O 222.545 1.66861 -1.02254 0
M  V30 2229 C 222.844 -0.779906 -3.48787 0
M  V30 2230 C 222.51 -2.21293 -3.92861 0
M  V30 2231 C 221.172 -2.60475 -4.04606 0
M  V30 2232 C 223.524 -3.14587 -4.15553 0
M  V30 2233 C 220.852 -3.9212 -4.36416 0
M  V30 2234 C 223.204 -4.45787 -4.48839 0
M  V30 2235 C 221.868 -4.84834 -4.58794 0
M  V30 2236 H 221.138 -0.195495 -0.714747 0
M  V30 2237 H 223.785 -1.14514 -1.53488 0
M  V30 2238 H 222.09 -0.0861365 -3.91705 0
M  V30 2239 H 223.787 -0.472029 -3.98212 0
M  V30 2240 H 220.377 -1.89887 -3.84241 0
M  V30 2241 H 224.561 -2.85528 -4.0594 0
M  V30 2242 H 219.817 -4.22086 -4.42327 0
M  V30 2243 H 223.991 -5.18098 -4.65346 0
M  V30 2244 H 221.618 -5.86877 -4.83197 0
M  V30 2245 N 223.193 1.4272 -0.668489 0
M  V30 2246 C 224.441 2.01226 -0.187769 0
M  V30 2247 C 224.762 1.53092 1.2078 0
M  V30 2248 O 224.032 0.74993 1.80977 0
M  V30 2249 H 222.612 0.744041 -0.0664272 0
M  V30 2250 H 225.274 1.74723 -0.863583 0
M  V30 2251 H 224.37 3.11556 -0.184166 0
M  V30 2252 N 224.671 0.411399 1.52136 0
M  V30 2253 C 226.082 -0.0576826 1.86611 0
M  V30 2254 C 226.433 -1.44238 1.33003 0
M  V30 2255 O 225.558 -2.05759 0.670228 0
M  V30 2256 C 226.153 -0.111448 3.38617 0
M  V30 2257 C 224.712 -0.52487 3.72723 0
M  V30 2258 C 223.859 0.299176 2.75681 0
M  V30 2259 H 226.81 0.628368 1.4573 0
M  V30 2260 H 226.831 -0.926252 3.69054 0
M  V30 2261 H 226.343 0.896488 3.77604 0
M  V30 2262 H 224.444 -1.53936 3.39315 0
M  V30 2263 H 224.557 -0.267681 4.78352 0
M  V30 2264 H 222.921 -0.238814 2.53578 0
M  V30 2265 H 223.704 1.3055 3.17508 0
M  V30 2266 N 226.149 -1.5696 0.141893 0
M  V30 2267 C 227.112 -2.15316 -0.785587 0
M  V30 2268 C 228.112 -1.09366 -1.1788 0
M  V30 2269 O 229.302 -1.35031 -1.10056 0
M  V30 2270 C 226.434 -2.71211 -2.06537 0
M  V30 2271 H 227.627 -2.98608 -0.278041 0
M  V30 2272 H 225.18 -1.5593 -0.107519 0
M  V30 2273 H 225.915 -1.91571 -2.6167 0
M  V30 2274 H 225.7 -3.4872 -1.79268 0
M  V30 2275 H 227.19 -3.16189 -2.72789 0
M  V30 2276 N 227.627 0.131896 -1.57047 0
M  V30 2277 C 228.876 0.84044 -1.83356 0
M  V30 2278 C 229.189 1.81646 -0.725535 0
M  V30 2279 O 230.395 2.57025 -0.874659 0
M  V30 2280 C 228.851 1.54528 -3.25037 0
M  V30 2281 C 228.459 0.610902 -4.43815 0
M  V30 2282 C 230.203 2.23972 -3.60606 0
M  V30 2283 C 228.11 1.31823 -5.76521 0
M  V30 2284 H 227.04 0.317599 -0.683847 0
M  V30 2285 H 229.691 0.0931561 -1.83263 0
M  V30 2286 H 228.073 2.33873 -3.19561 0
M  V30 2287 H 229.247 -0.148407 -4.60561 0
M  V30 2288 H 227.562 0.0241016 -4.16393 0
M  V30 2289 H 230.159 2.77558 -4.57018 0
M  V30 2290 H 230.502 3.01173 -2.87403 0
M  V30 2291 H 231.035 1.51529 -3.6781 0
M  V30 2292 H 227.774 0.587771 -6.52859 0
M  V30 2293 H 227.294 2.04987 -5.63685 0
M  V30 2294 H 228.973 1.855 -6.19838 0
M  V30 2295 N 229.106 1.52395 0.401703 0
M  V30 2296 C 230.346 1.68498 1.15705 0
M  V30 2297 C 230.71 0.409748 1.87577 0
M  V30 2298 O 231.911 0.446983 2.65058 0
M  V30 2299 C 230.182 2.87789 2.11924 0
M  V30 2300 S 231.741 3.24415 2.95466 0
M  V30 2301 H 228.559 0.593267 0.391862 0
M  V30 2302 H 231.161 1.90408 0.443282 0
M  V30 2303 H 229.865 3.7884 1.57824 0
M  V30 2304 H 229.396 2.68175 2.87829 0
M  V30 2305 H 231.411 2.73614 4.13944 0
M  V30 2306 N 230.584 -0.659388 1.43143 0
M  V30 2307 C 231.832 -1.41654 1.44147 0
M  V30 2308 C 232.153 -1.94893 0.0645739 0
M  V30 2309 O 231.423 -1.74044 -0.899198 0
M  V30 2310 H 230.003 -0.525708 0.530697 0
M  V30 2311 H 232.665 -0.778097 1.78694 0
M  V30 2312 H 231.761 -2.26195 2.1504 0
M  V30 2313 N 232.062 -1.29571 -0.897171 0
M  V30 2314 C 232.972 -1.16808 -2.03453 0
M  V30 2315 C 233.988 -0.0907471 -1.73763 0
M  V30 2316 O 235.164 -0.303312 -1.99103 0
M  V30 2317 C 232.229 -0.848264 -3.36163 0
M  V30 2318 C 231.29 -2.0097 -3.79354 0
M  V30 2319 C 230.523 -1.70505 -5.05731 0
M  V30 2320 O 230.746 -0.62718 -5.66941 0
M  V30 2321 O 229.68 -2.5538 -5.45036 0
M  V30 2322 H 233.506 -2.12325 -2.17144 0
M  V30 2323 H 231.091 -1.09047 -1.02123 0
M  V30 2324 H 232.973 -0.684581 -4.15802 0
M  V30 2325 H 231.648 0.0771071 -3.23608 0
M  V30 2326 H 230.555 -2.22863 -3.00471 0
M  V30 2327 H 231.888 -2.91636 -3.96496 0
M  V30 2328 N 233.54 1.10788 -1.12088 0
M  V30 2329 C 234.47 2.19083 -0.807755 0
M  V30 2330 C 235.451 1.6858 0.226859 0
M  V30 2331 O 236.636 1.93997 0.0888475 0
M  V30 2332 C 233.766 3.46344 -0.257576 0
M  V30 2333 C 232.72 4.101 -1.22483 0
M  V30 2334 C 232.046 5.32016 -0.535052 0
M  V30 2335 C 233.346 4.54236 -2.57811 0
M  V30 2336 H 235.04 2.45534 -1.71328 0
M  V30 2337 H 232.586 1.1801 -0.825205 0
M  V30 2338 H 234.539 4.21392 -0.0262679 0
M  V30 2339 H 233.263 3.19373 0.683278 0
M  V30 2340 H 231.922 3.37054 -1.44189 0
M  V30 2341 H 231.57 5.01319 0.410827 0
M  V30 2342 H 231.27 5.75625 -1.18024 0
M  V30 2343 H 232.794 6.09799 -0.312695 0
M  V30 2344 H 234.208 5.20575 -2.40155 0
M  V30 2345 H 232.605 5.08682 -3.18375 0
M  V30 2346 H 233.675 3.6734 -3.16528 0
M  V30 2347 N 235.018 0.912232 1.28515 0
M  V30 2348 C 236.248 0.559604 1.98877 0
M  V30 2349 C 236.656 -0.863113 1.68366 0
M  V30 2350 O 235.999 -1.58304 0.931969 0
M  V30 2351 C 236.061 0.68703 3.52874 0
M  V30 2352 C 235.725 2.07901 4.06972 0
M  V30 2353 C 236.722 3.05157 4.20922 0
M  V30 2354 C 234.407 2.39178 4.417 0
M  V30 2355 C 236.401 4.31806 4.68852 0
M  V30 2356 C 234.088 3.66068 4.89324 0
M  V30 2357 C 235.086 4.62195 5.02856 0
M  V30 2358 O 234.774 5.86829 5.49442 0
M  V30 2359 H 234.506 0.212191 0.641834 0
M  V30 2360 H 237.06 1.22712 1.64715 0
M  V30 2361 H 235.29 -0.0375486 3.86682 0
M  V30 2362 H 236.979 0.341727 4.04459 0
M  V30 2363 H 237.745 2.82311 3.94367 0
M  V30 2364 H 233.624 1.65109 4.30418 0
M  V30 2365 H 237.168 5.06842 4.79329 0
M  V30 2366 H 233.065 3.88739 5.15318 0
M  V30 2367 H 233.833 5.89597 5.6773 0
M  V30 2368 N 236.496 -1.42363 0.676048 0
M  V30 2369 C 237.773 -1.95183 0.127726 0
M  V30 2370 C 238.153 -1.61641 -1.35777 0
M  V30 2371 O 237.501 -0.913216 -2.09458 0
M  V30 2372 C 237.711 -3.46721 0.398199 0
M  V30 2373 C 239.059 -4.23427 0.315383 0
M  V30 2374 O 240.083 -3.54649 0.332016 0
M  V30 2375 O 238.942 -5.45888 0.25865 0
M  V30 2376 H 236.036 -0.826992 0.00359427 0
M  V30 2377 H 238.582 -1.52184 0.750864 0
M  V30 2378 H 237.354 -3.64344 1.4272 0
M  V30 2379 H 236.977 -3.96769 -0.256885 0
M  V30 2380 N 237.974 -0.419461 -1.51915 0
M  V30 2381 C 239.223 0.154346 -2.01109 0
M  V30 2382 C 239.536 1.45338 -1.30905 0
M  V30 2383 O 240.742 2.10906 -1.7097 0
M  V30 2384 C 239.198 0.325615 -3.58424 0
M  V30 2385 C 238.806 -0.961934 -4.37551 0
M  V30 2386 C 240.55 0.854155 -4.15818 0
M  V30 2387 C 238.457 -0.757287 -5.86531 0
M  V30 2388 H 237.387 0.0614563 -0.751491 0
M  V30 2389 H 240.038 -0.54649 -1.75173 0
M  V30 2390 H 238.42 1.08903 -3.80731 0
M  V30 2391 H 239.594 -1.7323 -4.26999 0
M  V30 2392 H 237.909 -1.41766 -3.91524 0
M  V30 2393 H 240.506 1.02346 -5.24814 0
M  V30 2394 H 240.849 1.83172 -3.73837 0
M  V30 2395 H 241.382 0.149528 -3.97519 0
M  V30 2396 H 238.121 -1.70671 -6.32892 0
M  V30 2397 H 237.641 -0.0264061 -5.99794 0
M  V30 2398 H 239.32 -0.403482 -6.45741 0
M  V30 2399 N 239.452 1.56882 -0.150215 0
M  V30 2400 C 240.68 2.00593 0.506948 0
M  V30 2401 C 241.095 1.03033 1.58208 0
M  V30 2402 O 240.452 0.0278396 1.82479 0
M  V30 2403 C 240.503 3.44209 1.10465 0
M  V30 2404 O 240.224 4.3804 0.0724636 0
M  V30 2405 C 241.725 4.03214 1.84211 0
M  V30 2406 H 238.945 0.65795 0.13169 0
M  V30 2407 H 241.489 2.03018 -0.245743 0
M  V30 2408 H 239.644 3.42625 1.80795 0
M  V30 2409 H 240.058 5.22007 0.510793 0
M  V30 2410 H 241.532 5.0569 2.21318 0
M  V30 2411 H 242.009 3.44107 2.72923 0
M  V30 2412 H 242.615 4.08437 1.18572 0
M  V30 2413 N 240.93 -0.123565 1.57115 0
M  V30 2414 C 242.346 -0.476961 1.52306 0
M  V30 2415 C 242.546 -1.82109 0.86248 0
M  V30 2416 O 241.602 -2.48586 0.442884 0
M  V30 2417 C 242.915 -0.465661 2.97073 0
M  V30 2418 C 244.463 -0.549534 3.08138 0
M  V30 2419 C 244.938 -0.568669 4.54456 0
M  V30 2420 N 246.429 -0.630237 4.58892 0
M  V30 2421 C 247.164 -0.666415 5.69514 0
M  V30 2422 N 246.66 -0.660514 6.89644 0
M  V30 2423 N 248.453 -0.709077 5.5761 0
M  V30 2424 H 240.604 0.757198 1.98445 0
M  V30 2425 H 242.867 0.278808 0.906074 0
M  V30 2426 H 242.573 0.454232 3.48754 0
M  V30 2427 H 242.447 -1.29513 3.54269 0
M  V30 2428 H 244.834 -1.45985 2.56461 0
M  V30 2429 H 244.915 0.307532 2.53945 0
M  V30 2430 H 244.559 0.337581 5.06777 0
M  V30 2431 H 244.489 -1.44256 5.06456 0
M  V30 2432 H 246.98 -0.641146 3.72421 0
M  V30 2433 H 247.293 -0.690616 7.69708 0
M  V30 2434 H 245.638 -0.628012 6.92157 0
M  V30 2435 H 248.829 -0.711019 4.62668 0
M  V30 2436 H 249.002 -0.733804 6.43832 0
M  V30 2437 N 242.408 -1.52605 -0.393616 0
M  V30 2438 C 243.657 -1.66649 -1.13627 0
M  V30 2439 C 243.97 -0.410364 -1.91247 0
M  V30 2440 O 245.176 -0.430854 -2.68059 0
M  V30 2441 C 243.632 -2.9449 -2.06891 0
M  V30 2442 C 243.24 -4.27266 -1.34714 0
M  V30 2443 C 244.984 -3.17899 -2.81319 0
M  V30 2444 C 242.891 -5.46217 -2.26717 0
M  V30 2445 H 241.821 -0.62084 -0.427871 0
M  V30 2446 H 244.472 -1.791 -0.399428 0
M  V30 2447 H 242.854 -2.75774 -2.84191 0
M  V30 2448 H 244.028 -4.56518 -0.626714 0
M  V30 2449 H 242.343 -4.10081 -0.722643 0
M  V30 2450 H 244.94 -4.03949 -3.50328 0
M  V30 2451 H 245.283 -2.32777 -3.45139 0
M  V30 2452 H 245.816 -3.37159 -2.11113 0
M  V30 2453 H 242.555 -6.33733 -1.67521 0
M  V30 2454 H 242.075 -5.21283 -2.96689 0
M  V30 2455 H 243.754 -5.7991 -2.86903 0
M  V30 2456 N 243.887 0.651787 -1.4349 0
M  V30 2457 C 245.135 1.40888 -1.44897 0
M  V30 2458 C 245.456 1.94856 -0.0749086 0
M  V30 2459 O 244.726 1.74518 0.889956 0
M  V30 2460 H 243.306 0.522887 -0.533478 0
M  V30 2461 H 245.968 0.768609 -1.79104 0
M  V30 2462 H 245.064 2.25052 -2.16236 0
M  V30 2463 N 245.365 1.30045 0.890287 0
M  V30 2464 C 246.593 1.21472 1.67487 0
M  V30 2465 C 247.008 -0.223241 1.87476 0
M  V30 2466 O 246.365 -1.14828 1.41847 0
M  V30 2467 C 246.416 1.93394 3.05419 0
M  V30 2468 O 246.137 3.31576 2.86337 0
M  V30 2469 C 247.638 1.91414 3.99844 0
M  V30 2470 H 244.858 0.420604 0.522813 0
M  V30 2471 H 247.402 1.7158 1.11268 0
M  V30 2472 H 245.557 1.47099 3.58386 0
M  V30 2473 H 245.971 3.67929 3.73802 0
M  V30 2474 H 247.445 2.46285 4.94012 0
M  V30 2475 H 247.922 0.891833 4.3005 0
M  V30 2476 H 248.528 2.37496 3.52811 0
M  V30 2477 N 246.843 -1.10192 1.12674 0
M  V30 2478 C 247.806 -2.14786 0.799979 0
M  V30 2479 C 248.806 -1.59711 -0.18685 0
M  V30 2480 O 249.996 -1.74156 0.0392558 0
M  V30 2481 C 247.128 -3.40374 0.189228 0
M  V30 2482 H 248.321 -2.45203 1.72671 0
M  V30 2483 H 245.874 -1.25597 0.930326 0
M  V30 2484 H 246.609 -3.15577 -0.747107 0
M  V30 2485 H 246.394 -3.81637 0.899766 0
M  V30 2486 H 247.884 -4.17594 -0.0228143 0
M  V30 2487 N 248.321 -0.919034 -1.28029 0
M  V30 2488 C 249.57 -0.550802 -1.94034 0
M  V30 2489 C 249.883 0.910877 -1.73096 0
M  V30 2490 O 251.089 1.3875 -2.33368 0
M  V30 2491 C 249.545 -0.934249 -3.47563 0
M  V30 2492 C 249.153 -2.41602 -3.7727 0
M  V30 2493 C 250.897 -0.636854 -4.19696 0
M  V30 2494 C 248.804 -2.73932 -5.24133 0
M  V30 2495 H 247.734 -0.202273 -0.726362 0
M  V30 2496 H 250.385 -1.11867 -1.45458 0
M  V30 2497 H 248.767 -0.295115 -3.94899 0
M  V30 2498 H 249.941 -3.10233 -3.40723 0
M  V30 2499 H 248.256 -2.68441 -3.18321 0
M  V30 2500 H 250.853 -0.855005 -5.2782 0
M  V30 2501 H 251.196 0.425575 -4.14119 0
M  V30 2502 H 251.729 -1.23469 -3.78154 0
M  V30 2503 H 248.468 -3.79049 -5.34792 0
M  V30 2504 H 247.988 -2.09942 -5.61858 0
M  V30 2505 H 249.667 -2.61215 -5.91925 0
M  V30 2506 N 249.799 1.42003 -0.683588 0
M  V30 2507 C 250.731 2.29183 0.0283068 0
M  V30 2508 C 251.744 1.4415 0.756611 0
M  V30 2509 O 252.933 1.67779 0.609306 0
M  V30 2510 C 250.033 3.21765 1.06398 0
M  V30 2511 C 249.206 4.35496 0.407723 0
M  V30 2512 C 248.265 5.08737 1.34437 0
M  V30 2513 O 247.291 5.62948 0.841318 0
M  V30 2514 N 248.493 5.15075 2.67728 0
M  V30 2515 H 251.258 2.9092 -0.720105 0
M  V30 2516 H 248.819 1.53025 -0.528682 0
M  V30 2517 H 250.811 3.6763 1.69204 0
M  V30 2518 H 249.381 2.61418 1.71404 0
M  V30 2519 H 248.601 3.92165 -0.400012 0
M  V30 2520 H 249.889 5.08776 -0.0490956 0
M  V30 2521 H 249.287 4.72457 3.11129 0
M  V30 2522 H 247.844 5.64556 3.2576 0
M  V30 2523 N 251.277 0.427512 1.51691 0
M  V30 2524 C 252.554 -0.201684 1.94557 0
M  V30 2525 C 252.934 -1.60981 1.36559 0
M  V30 2526 O 252.282 -2.21814 0.548702 0
M  V30 2527 C 252.492 -0.189394 3.48486 0
M  V30 2528 C 253.84 -0.39978 4.22714 0
M  V30 2529 O 254.864 -0.267945 3.55191 0
M  V30 2530 O 253.723 -0.661249 5.42485 0
M  V30 2531 H 250.817 -0.135261 0.815864 0
M  V30 2532 H 253.363 0.484782 1.62628 0
M  V30 2533 H 252.135 0.795431 3.8313 0
M  V30 2534 H 251.758 -0.919187 3.86829 0
M  V30 2535 N 252.755 -1.56801 0.158532 0
M  V30 2536 C 253.985 -2.00568 -0.495583 0
M  V30 2537 C 254.393 -1.03774 -1.58201 0
M  V30 2538 O 253.736 -0.0285797 -1.83678 0
M  V30 2539 C 253.798 -3.40768 -1.14532 0
M  V30 2540 C 253.462 -4.56553 -0.202101 0
M  V30 2541 C 254.459 -5.16714 0.574675 0
M  V30 2542 C 252.144 -5.02197 -0.101648 0
M  V30 2543 C 254.138 -6.20939 1.43924 0
M  V30 2544 C 251.825 -6.06274 0.766508 0
M  V30 2545 C 252.823 -6.65515 1.53555 0
M  V30 2546 O 252.511 -7.67575 2.38922 0
M  V30 2547 H 252.243 -0.662893 -0.13247 0
M  V30 2548 H 254.797 -2.03829 0.253559 0
M  V30 2549 H 253.027 -3.34381 -1.94233 0
M  V30 2550 H 254.716 -3.6857 -1.70033 0
M  V30 2551 H 255.482 -4.82341 0.507167 0
M  V30 2552 H 251.361 -4.55807 -0.689994 0
M  V30 2553 H 254.905 -6.67107 2.03996 0
M  V30 2554 H 250.802 -6.40073 0.835266 0
M  V30 2555 H 251.57 -7.84844 2.32296 0
M  V30 2556 N 254.233 0.115231 -1.57178 0
M  V30 2557 C 255.165 1.16694 -1.97269 0
M  V30 2558 C 256.178 1.37445 -0.872502 0
M  V30 2559 O 257.367 1.36454 -1.15077 0
M  V30 2560 C 254.467 2.52627 -2.25905 0
M  V30 2561 C 253.64 2.52427 -3.57211 0
M  V30 2562 C 252.699 3.70134 -3.74016 0
M  V30 2563 O 251.725 3.53546 -4.46087 0
M  V30 2564 N 252.927 4.88844 -3.13068 0
M  V30 2565 H 255.692 0.82588 -2.88096 0
M  V30 2566 H 253.253 0.304461 -1.59011 0
M  V30 2567 H 255.245 3.29937 -2.34359 0
M  V30 2568 H 253.815 2.789 -1.41186 0
M  V30 2569 H 253.035 1.60805 -3.5991 0
M  V30 2570 H 254.323 2.49353 -4.43509 0
M  V30 2571 H 253.721 5.05225 -2.54489 0
M  V30 2572 H 252.278 5.63817 -3.27037 0
M  V30 2573 N 255.711 1.52812 0.385517 0
M  V30 2574 C 256.959 1.67694 1.12797 0
M  V30 2575 C 257.28 0.421115 1.90399 0
M  V30 2576 O 256.55 -0.564551 1.87589 0
M  V30 2577 H 255.13 0.618155 0.419396 0
M  V30 2578 H 257.792 1.89938 0.436972 0
M  V30 2579 H 256.888 2.52896 1.82894 0
M  V30 2580 N 257.189 -0.644168 1.43834 0
M  V30 2581 C 258.152 -1.73857 1.49353 0
M  V30 2582 C 259.152 -1.56315 0.377112 0
M  V30 2583 O 260.342 -1.62048 0.639226 0
M  V30 2584 C 257.474 -3.12819 1.35488 0
M  V30 2585 H 258.667 -1.70342 2.46827 0
M  V30 2586 H 256.22 -0.856652 1.30733 0
M  V30 2587 H 256.955 -3.2194 0.390569 0
M  V30 2588 H 256.74 -3.26958 2.16428 0
M  V30 2589 H 258.23 -3.92606 1.42302 0
M  V30 2590 N 258.668 -1.30515 -0.883378 0
M  V30 2591 C 259.631 -1.1701 -1.97082 0
M  V30 2592 C 260.631 -0.10089 -1.60483 0
M  V30 2593 O 261.821 -0.349127 -1.70666 0
M  V30 2594 C 258.953 -0.793045 -3.31547 0
M  V30 2595 H 260.146 -2.13622 -2.10489 0
M  V30 2596 H 257.699 -1.13935 -1.06998 0
M  V30 2597 H 258.434 0.172499 -3.23841 0
M  V30 2598 H 258.219 -1.56576 -3.5948 0
M  V30 2599 H 259.709 -0.722073 -4.1131 0
M  V30 2600 N 260.146 1.09593 -1.13257 0
M  V30 2601 C 261.374 1.855 -0.916378 0
M  V30 2602 C 261.789 1.81069 0.534738 0
M  V30 2603 O 261.146 1.20562 1.37007 0
M  V30 2604 C 261.197 3.33546 -1.39388 0
M  V30 2605 O 260.918 3.37927 -2.78813 0
M  V30 2606 C 262.419 4.26299 -1.21588 0
M  V30 2607 H 259.639 0.585991 -0.326887 0
M  V30 2608 H 262.183 1.38488 -1.5047 0
M  V30 2609 H 260.338 3.77992 -0.848597 0
M  V30 2610 H 260.752 4.30254 -2.9997 0
M  V30 2611 H 262.226 5.28341 -1.59876 0
M  V30 2612 H 262.703 4.38918 -0.157376 0
M  V30 2613 H 263.309 3.87668 -1.7491 0
M  V30 2614 N 261.624 0.925811 1.2754 0
M  V30 2615 C 262.901 0.483726 1.89524 0
M  V30 2616 C 263.281 -1.03809 1.83812 0
M  V30 2617 O 262.629 -1.89143 1.28207 0
M  V30 2618 C 262.839 1.02769 3.33526 0
M  V30 2619 C 264.187 1.08703 4.10449 0
M  V30 2620 O 265.211 0.977175 3.42534 0
M  V30 2621 O 264.07 1.25599 5.31871 0
M  V30 2622 H 261.164 0.15529 0.812289 0
M  V30 2623 H 263.71 1.01738 1.35822 0
M  V30 2624 H 262.482 2.07155 3.31967 0
M  V30 2625 H 262.105 0.475567 3.94746 0
M  V30 2626 N 263.102 -1.41638 0.69111 0
M  V30 2627 C 264.349 -2.01299 0.220193 0
M  V30 2628 C 264.677 -1.54715 -1.17871 0
M  V30 2629 O 263.932 -0.747193 -1.80874 0
M  V30 2630 C 264.231 -3.56714 0.221277 0
M  V30 2631 C 263.897 -4.22792 1.56709 0
M  V30 2632 C 262.559 -4.40557 1.93554 0
M  V30 2633 C 264.911 -4.59883 2.45268 0
M  V30 2634 C 262.239 -4.92688 3.18552 0
M  V30 2635 C 264.591 -5.13403 3.69595 0
M  V30 2636 C 263.255 -5.29379 4.06589 0
M  V30 2637 H 262.525 -0.736606 0.0805743 0
M  V30 2638 H 265.172 -1.69598 0.889319 0
M  V30 2639 H 263.477 -3.8818 -0.531391 0
M  V30 2640 H 265.174 -4.00678 -0.160547 0
M  V30 2641 H 261.764 -4.09336 1.2705 0
M  V30 2642 H 265.948 -4.45817 2.18084 0
M  V30 2643 H 261.204 -5.03242 3.47214 0
M  V30 2644 H 265.378 -5.41084 4.38407 0
M  V30 2645 H 263.005 -5.69537 5.03519 0
M  V30 2646 N 264.58 -0.43555 -1.51462 0
M  V30 2647 C 265.51 0.367376 -2.30592 0
M  V30 2648 C 266.491 1.02263 -1.35928 0
M  V30 2649 O 267.676 1.02661 -1.64847 0
M  V30 2650 C 264.806 1.46983 -3.14664 0
M  V30 2651 C 263.76 0.938161 -4.17591 0
M  V30 2652 C 263.086 2.13622 -4.90173 0
M  V30 2653 C 264.386 -0.0261621 -5.22293 0
M  V30 2654 H 266.08 -0.292969 -2.97963 0
M  V30 2655 H 263.626 -0.14234 -1.43295 0
M  V30 2656 H 265.579 2.03873 -3.688 0
M  V30 2657 H 264.303 2.15843 -2.4511 0
M  V30 2658 H 262.962 0.391481 -3.64504 0
M  V30 2659 H 262.61 2.81098 -4.17124 0
M  V30 2660 H 262.31 1.78688 -5.59772 0
M  V30 2661 H 263.834 2.7107 -5.47132 0
M  V30 2662 H 265.248 0.452384 -5.71512 0
M  V30 2663 H 263.645 -0.287992 -5.99409 0
M  V30 2664 H 264.715 -0.963391 -4.75233 0
M  V30 2665 N 266.058 1.56714 -0.166846 0
M  V30 2666 C 267.304 1.97039 0.479962 0
M  V30 2667 C 267.637 1.05264 1.63197 0
M  V30 2668 O 266.912 0.0988833 1.94248 0
M  V30 2669 C 267.195 3.46867 0.967212 0
M  V30 2670 C 267.048 4.49421 -0.18466 0
M  V30 2671 C 268.367 3.9968 1.84238 0
M  V30 2672 H 265.486 0.71641 0.172992 0
M  V30 2673 H 268.128 1.8832 -0.252079 0
M  V30 2674 H 266.278 3.54428 1.59101 0
M  V30 2675 H 267.95 4.53924 -0.821621 0
M  V30 2676 H 266.193 4.25573 -0.840837 0
M  V30 2677 H 266.864 5.51644 0.198317 0
M  V30 2678 H 269.34 3.94723 1.31655 0
M  V30 2679 H 268.216 5.04941 2.15234 0
M  V30 2680 H 268.477 3.43226 2.78654 0
M  V30 2681 N 267.536 -0.106894 1.57237 0
M  V30 2682 C 268.466 -1.13148 2.04254 0
M  V30 2683 C 269.447 -1.42476 0.929224 0
M  V30 2684 O 270.632 -1.52709 1.19973 0
M  V30 2685 C 267.762 -2.4545 2.45706 0
M  V30 2686 C 266.716 -2.30558 3.60592 0
M  V30 2687 C 266.042 -3.67931 3.87983 0
M  V30 2688 C 267.342 -1.75597 4.91897 0
M  V30 2689 H 269.036 -0.740374 2.90101 0
M  V30 2690 H 266.582 -0.354696 1.39563 0
M  V30 2691 H 268.535 -3.17389 2.77205 0
M  V30 2692 H 267.259 -2.86475 1.56843 0
M  V30 2693 H 265.918 -1.61067 3.29322 0
M  V30 2694 H 265.566 -4.06462 2.96306 0
M  V30 2695 H 265.266 -3.58817 4.65322 0
M  V30 2696 H 266.79 -4.41356 4.21945 0
M  V30 2697 H 268.204 -2.37364 5.21854 0
M  V30 2698 H 266.601 -1.77272 5.73319 0
M  V30 2699 H 267.671 -0.714451 4.79608 0
M  V30 2700 N 269.014 -1.53014 -0.377408 0
M  V30 2701 C 270.239 -1.72818 -1.14668 0
M  V30 2702 C 270.664 -0.450725 -1.8262 0
M  V30 2703 O 270.022 0.59439 -1.7128 0
M  V30 2704 C 270.07 -2.88627 -2.16164 0
M  V30 2705 O 269.174 -2.56409 -3.22998 0
M  V30 2706 H 268.515 -0.574301 -0.333278 0
M  V30 2707 H 271.045 -1.99853 -0.438152 0
M  V30 2708 H 271.055 -3.14455 -2.59966 0
M  V30 2709 H 269.73 -3.81294 -1.66095 0
M  V30 2710 H 268.307 -2.4136 -2.84253 0
M  V30 2711 N 270.492 0.636531 -1.44174 0
M  V30 2712 C 271.903 1.21806 -1.41493 0
M  V30 2713 C 272.254 1.95785 -0.1275 0
M  V30 2714 O 271.379 2.02147 0.772376 0
M  V30 2715 C 271.974 2.21551 -2.56321 0
M  V30 2716 C 270.533 2.75143 -2.56853 0
M  V30 2717 C 269.68 1.50052 -2.33195 0
M  V30 2718 H 272.631 0.427531 -1.52833 0
M  V30 2719 H 272.652 3.0405 -2.28765 0
M  V30 2720 H 272.164 1.67679 -3.50008 0
M  V30 2721 H 270.265 3.33033 -1.67093 0
M  V30 2722 H 270.378 3.2155 -3.55165 0
M  V30 2723 H 268.742 1.77993 -1.82183 0
M  V30 2724 H 269.525 0.980903 -3.28988 0
M  V30 2725 N 271.97 1.30982 0.876444 0
M  V30 2726 C 273.386 1.09498 1.16113 0
M  V30 2727 C 273.586 -0.13875 2.01022 0
M  V30 2728 O 272.642 -0.829935 2.38471 0
M  V30 2729 C 273.955 2.36308 1.85954 0
M  V30 2730 C 275.503 2.41856 1.98683 0
M  V30 2731 C 275.978 3.6853 2.71937 0
M  V30 2732 N 277.469 3.69387 2.79477 0
M  V30 2733 C 278.204 4.64096 3.36753 0
M  V30 2734 N 277.7 5.69155 3.95012 0
M  V30 2735 N 279.493 4.51626 3.3465 0
M  V30 2736 H 271.644 2.10118 0.310494 0
M  V30 2737 H 273.907 0.926634 0.200131 0
M  V30 2738 H 273.613 3.26388 1.31011 0
M  V30 2739 H 273.487 2.4561 2.86278 0
M  V30 2740 H 275.874 1.52249 2.52793 0
M  V30 2741 H 275.955 2.36523 0.9742 0
M  V30 2742 H 275.599 4.58499 2.18496 0
M  V30 2743 H 275.529 3.71127 3.73593 0
M  V30 2744 H 278.02 2.93438 2.38123 0
M  V30 2745 H 278.333 6.3751 4.36808 0
M  V30 2746 H 276.678 5.72937 3.93406 0
M  V30 2747 H 279.869 3.68728 2.8837 0
M  V30 2748 H 280.042 5.25614 3.7899 0
M  V30 2749 N 273.449 -1.08991 1.13837 0
M  V30 2750 C 274.412 -2.13925 0.822715 0
M  V30 2751 C 275.412 -1.599 -0.1699 0
M  V30 2752 O 276.602 -1.74104 0.0577251 0
M  V30 2753 C 273.734 -3.40155 0.225318 0
M  V30 2754 H 274.927 -2.43358 1.75262 0
M  V30 2755 H 272.48 -1.24603 0.943594 0
M  V30 2756 H 273.215 -3.16352 -0.713594 0
M  V30 2757 H 273 -3.80661 0.940193 0
M  V30 2758 H 274.49 -4.17594 0.0214784 0
M  V30 2759 N 274.927 -0.932562 -1.27047 0
M  V30 2760 C 275.837 -0.441219 -2.30414 0
M  V30 2761 C 276.853 0.480525 -1.67233 0
M  V30 2762 O 278.029 0.362151 -1.98117 0
M  V30 2763 C 275.094 0.293651 -3.45454 0
M  V30 2764 C 274.155 -0.663601 -4.2414 0
M  V30 2765 C 273.388 0.0362932 -5.33688 0
M  V30 2766 O 273.611 1.2548 -5.56427 0
M  V30 2767 O 272.545 -0.638015 -5.98509 0
M  V30 2768 H 276.371 -1.29962 -2.74488 0
M  V30 2769 H 273.956 -0.6981 -1.32087 0
M  V30 2770 H 275.838 0.707951 -4.15411 0
M  V30 2771 H 274.513 1.12758 -3.03426 0
M  V30 2772 H 273.42 -1.12768 -3.56699 0
M  V30 2773 H 274.753 -1.46489 -4.69896 0
M  V30 2774 N 276.405 1.4127 -0.698611 0
M  V30 2775 C 277.651 2.01478 -0.231207 0
M  V30 2776 C 277.984 1.55215 1.16713 0
M  V30 2777 O 277.259 0.764672 1.78838 0
M  V30 2778 C 277.542 3.58912 -0.292281 0
M  V30 2779 C 277.395 4.15293 -1.72778 0
M  V30 2780 C 278.714 4.38736 0.346194 0
M  V30 2781 H 275.833 0.732025 -0.0854878 0
M  V30 2782 H 278.475 1.67977 -0.887906 0
M  V30 2783 H 276.625 3.87582 0.26686 0
M  V30 2784 H 278.297 3.97486 -2.341 0
M  V30 2785 H 276.54 3.7022 -2.26096 0
M  V30 2786 H 277.211 5.24452 -1.72202 0
M  V30 2787 H 279.687 4.15897 -0.130035 0
M  V30 2788 H 278.563 5.48221 0.272932 0
M  V30 2789 H 278.824 4.18425 1.42734 0
M  V30 2790 N 277.883 0.443576 1.51229 0
M  V30 2791 C 278.846 -0.353132 2.26463 0
M  V30 2792 C 279.846 -0.944338 1.3015 0
M  V30 2793 O 281.036 -0.817813 1.5381 0
M  V30 2794 C 278.168 -1.50023 3.06114 0
M  V30 2795 H 279.361 0.3063 2.98332 0
M  V30 2796 H 276.914 0.196902 1.55055 0
M  V30 2797 H 277.649 -2.19553 2.38677 0
M  V30 2798 H 277.434 -1.08241 3.76864 0
M  V30 2799 H 278.924 -2.06296 3.63087 0
M  V30 2800 N 279.361 -1.56624 0.175154 0
M  V30 2801 C 280.777 -1.58571 -0.180966 0
M  V30 2802 C 280.977 -1.19065 -1.6256 0
M  V30 2803 O 280.033 -0.904044 -2.35761 0
M  V30 2804 C 281.346 -3.00522 0.103326 0
M  V30 2805 C 282.894 -3.12972 0.0418426 0
M  V30 2806 C 283.369 -4.57022 0.299175 0
M  V30 2807 N 284.86 -4.62541 0.247086 0
M  V30 2808 C 285.595 -5.71857 0.420318 0
M  V30 2809 N 285.091 -6.89717 0.652816 0
M  V30 2810 N 286.884 -5.60972 0.355957 0
M  V30 2811 H 279.035 -1.80589 1.11809 0
M  V30 2812 H 281.298 -0.837178 0.444788 0
M  V30 2813 H 281.004 -3.33916 1.10422 0
M  V30 2814 H 280.878 -3.72344 -0.603299 0
M  V30 2815 H 283.265 -2.79403 -0.949636 0
M  V30 2816 H 283.346 -2.43578 0.781238 0
M  V30 2817 H 282.99 -4.913 1.28788 0
M  V30 2818 H 282.92 -5.24579 -0.460876 0
M  V30 2819 H 285.411 -3.77829 0.0731895 0
M  V30 2820 H 285.724 -7.68911 0.774347 0
M  V30 2821 H 284.069 -6.91572 0.689476 0
M  V30 2822 H 287.26 -4.67773 0.174882 0
M  V30 2823 H 287.433 -6.46111 0.494388 0
M  V30 2824 N 280.839 0.0985539 -1.57292 0
M  V30 2825 C 281.769 1.12064 -2.04851 0
M  V30 2826 C 282.75 1.41981 -0.936767 0
M  V30 2827 O 283.935 1.52071 -1.20781 0
M  V30 2828 C 281.065 2.44144 -2.47004 0
M  V30 2829 C 280.019 2.28643 -3.6181 0
M  V30 2830 C 279.345 3.65869 -3.89929 0
M  V30 2831 C 280.645 1.72986 -4.92822 0
M  V30 2832 H 282.339 0.724979 -2.9049 0
M  V30 2833 H 279.885 0.34729 -1.39749 0
M  V30 2834 H 281.838 3.15914 -2.78884 0
M  V30 2835 H 280.562 2.85639 -1.5836 0
M  V30 2836 H 279.221 1.59318 -3.30172 0
M  V30 2837 H 278.869 4.04885 -2.98458 0
M  V30 2838 H 278.569 3.56344 -4.67218 0
M  V30 2839 H 280.093 4.39112 -4.2428 0
M  V30 2840 H 281.507 2.34593 -5.23105 0
M  V30 2841 H 279.904 1.74229 -5.74251 0
M  V30 2842 H 280.974 0.689007 -4.7998 0
M  V30 2843 N 282.317 1.53212 0.369288 0
M  V30 2844 C 283.247 1.82365 1.45826 0
M  V30 2845 C 284.228 0.676907 1.56051 0
M  V30 2846 O 285.413 0.926401 1.70679 0
M  V30 2847 C 282.543 2.01023 2.83208 0
M  V30 2848 C 281.497 3.1678 2.8781 0
M  V30 2849 C 280.823 3.20724 4.27832 0
M  V30 2850 C 282.123 4.55447 2.55667 0
M  V30 2851 H 283.817 2.73559 1.21678 0
M  V30 2852 H 281.363 1.3163 0.583911 0
M  V30 2853 H 283.316 2.20001 3.59413 0
M  V30 2854 H 282.04 1.06536 3.08736 0
M  V30 2855 H 280.699 2.97616 2.14056 0
M  V30 2856 H 280.347 2.23882 4.50429 0
M  V30 2857 H 280.047 3.98496 4.31827 0
M  V30 2858 H 281.571 3.41881 5.05915 0
M  V30 2859 H 282.985 4.74611 3.21586 0
M  V30 2860 H 281.382 5.35432 2.70984 0
M  V30 2861 H 282.452 4.60812 1.5093 0
M  V30 2862 N 283.795 -0.628877 1.44509 0
M  V30 2863 C 284.758 -1.72263 1.51188 0
M  V30 2864 C 285.758 -1.55907 0.39367 0
M  V30 2865 O 286.948 -1.61361 0.656377 0
M  V30 2866 C 284.08 -3.11365 1.38798 0
M  V30 2867 H 285.273 -1.67714 2.4862 0
M  V30 2868 H 282.826 -0.842737 1.31634 0
M  V30 2869 H 283.561 -3.21507 0.424693 0
M  V30 2870 H 283.346 -3.24644 2.19884 0
M  V30 2871 H 284.836 -3.91075 1.46458 0
M  V30 2872 N 285.273 -1.31445 -0.869486 0
M  V30 2873 C 286.22 -1.19135 -1.97675 0
M  V30 2874 C 287.19 -0.0770266 -1.65921 0
M  V30 2875 O 288.375 -0.249972 -1.89155 0
M  V30 2876 C 285.515 -0.905149 -3.33018 0
M  V30 2877 C 284.628 -2.10285 -3.77365 0
M  V30 2878 C 283.763 -1.75339 -5.01427 0
M  V30 2879 C 282.802 -2.91515 -5.38224 0
M  V30 2880 N 281.939 -2.56762 -6.53466 0
M  V30 2881 H 286.779 -2.13853 -2.07535 0
M  V30 2882 H 284.316 -1.06379 -1.01597 0
M  V30 2883 H 286.274 -0.719765 -4.10944 0
M  V30 2884 H 284.904 0.00519624 -3.228 0
M  V30 2885 H 283.956 -2.39899 -2.95216 0
M  V30 2886 H 285.268 -2.97237 -4.00564 0
M  V30 2887 H 284.422 -1.53266 -5.87022 0
M  V30 2888 H 283.161 -0.855801 -4.80133 0
M  V30 2889 H 282.166 -3.14237 -4.51149 0
M  V30 2890 H 283.391 -3.81985 -5.61484 0
M  V30 2891 H 281.337 -1.69526 -6.33717 0
M  V30 2892 H 281.254 -3.37243 -6.76612 0
M  V30 2893 H 282.522 -2.38083 -7.42251 0
M  V30 2894 N 286.751 1.08385 -1.14413 0
M  V30 2895 C 288.162 1.62258 -0.923535 0
M  V30 2896 C 288.513 1.88691 0.537595 0
M  V30 2897 O 287.638 1.64454 1.40655 0
M  V30 2898 C 288.233 2.94781 -1.67002 0
M  V30 2899 C 286.792 3.45437 -1.495 0
M  V30 2900 C 285.939 2.19668 -1.69238 0
M  V30 2901 H 288.89 0.916086 -1.2959 0
M  V30 2902 H 288.911 3.63229 -1.13334 0
M  V30 2903 H 288.423 2.7551 -2.73342 0
M  V30 2904 H 286.524 3.6981 -0.455097 0
M  V30 2905 H 286.637 4.22173 -2.2651 0
M  V30 2906 H 285.001 2.28849 -1.11804 0
M  V30 2907 H 285.784 2.02905 -2.7692 0
M  V30 2908 N 288.23 0.939286 1.26551 0
M  V30 2909 C 289.646 0.641304 1.46149 0
M  V30 2910 C 289.846 -0.805964 1.84679 0
M  V30 2911 O 288.902 -1.58278 1.96734 0
M  V30 2912 C 290.215 1.6011 2.54529 0
M  V30 2913 C 291.763 1.6106 2.68382 0
M  V30 2914 C 292.238 2.55765 3.79932 0
M  V30 2915 N 293.729 2.5404 3.87322 0
M  V30 2916 C 294.464 3.24004 4.73085 0
M  V30 2917 N 293.96 4.03388 5.63249 0
M  V30 2918 N 295.753 3.12965 4.66914 0
M  V30 2919 H 287.904 1.87478 0.998285 0
M  V30 2920 H 290.167 0.805559 0.499779 0
M  V30 2921 H 289.873 2.63412 2.33039 0
M  V30 2922 H 289.747 1.35171 3.52149 0
M  V30 2923 H 292.134 0.584835 2.89247 0
M  V30 2924 H 292.215 1.90053 1.71212 0
M  V30 2925 H 291.859 3.58458 3.5982 0
M  V30 2926 H 291.789 2.24063 4.76554 0
M  V30 2927 H 294.28 1.96396 3.22858 0
M  V30 2928 H 294.593 4.5373 6.25579 0
M  V30 2929 H 292.938 4.07489 5.63008 0
M  V30 2930 H 296.129 2.50432 3.95476 0
M  V30 2931 H 296.302 3.67759 5.33533 0
M  V30 2932 N 289.708 -1.40897 0.706093 0
M  V30 2933 C 290.671 -2.29131 0.0562841 0
M  V30 2934 C 291.671 -1.44901 -0.697166 0
M  V30 2935 O 292.861 -1.65926 -0.530484 0
M  V30 2936 C 289.993 -3.27957 -0.93043 0
M  V30 2937 H 291.186 -2.88091 0.833284 0
M  V30 2938 H 288.739 -1.4906 0.470192 0
M  V30 2939 H 289.474 -2.73997 -1.73482 0
M  V30 2940 H 289.259 -3.90124 -0.393166 0
M  V30 2941 H 290.749 -3.94049 -1.38256 0
M  V30 2942 N 291.186 -0.45159 -1.50991 0
M  V30 2943 C 292.096 0.358431 -2.31846 0
M  V30 2944 C 293.112 1.01438 -1.41373 0
M  V30 2945 O 294.288 1.00663 -1.74439 0
M  V30 2946 C 291.353 1.43704 -3.15515 0
M  V30 2947 C 290.414 0.799742 -4.21785 0
M  V30 2948 C 289.647 1.82696 -5.01456 0
M  V30 2949 O 289.87 3.05105 -4.81941 0
M  V30 2950 O 288.804 1.40958 -5.85162 0
M  V30 2951 H 292.63 -0.302032 -3.02194 0
M  V30 2952 H 290.215 -0.213825 -1.47862 0
M  V30 2953 H 292.097 2.06227 -3.67489 0
M  V30 2954 H 290.772 2.08133 -2.47916 0
M  V30 2955 H 289.679 0.136084 -3.73852 0
M  V30 2956 H 291.012 0.198718 -4.91799 0
M  V30 2957 N 292.664 1.56529 -0.183458 0
M  V30 2958 C 293.627 2.17324 0.728223 0
M  V30 2959 C 294.627 1.12453 1.14939 0
M  V30 2960 O 295.817 1.37902 1.06437 0
M  V30 2961 C 292.949 2.76591 1.99274 0
M  V30 2962 H 294.142 2.99241 0.198772 0
M  V30 2963 H 291.695 1.5616 0.0661391 0
M  V30 2964 H 292.43 1.98441 2.56499 0
M  V30 2965 H 292.215 3.5335 1.69959 0
M  V30 2966 H 293.705 3.23311 2.6431 0
M  V30 2967 N 294.142 -0.090211 1.57342 0
M  V30 2968 C 295.09 -1.12792 2.03422 0
M  V30 2969 C 296.084 -1.41182 0.936166 0
M  V30 2970 O 297.29 -1.40805 1.12133 0
M  V30 2971 H 293.665 -0.380986 0.648347 0
M  V30 2972 H 295.636 -0.71299 2.89757 0
M  V30 2973 C 294.385 -2.43855 2.47851 0
M  V30 2974 H 293.708 -2.22855 3.31927 0
M  V30 2975 H 295.148 -3.14955 2.83865 0
M  V30 2976 C 293.607 -3.08503 1.3538 0
M  V30 2977 O 294.137 -3.95805 0.685641 0
M  V30 2978 N 292.343 -2.68831 1.10355 0
M  V30 2979 H 291.89 -1.97929 1.64869 0
M  V30 2980 H 291.848 -3.12412 0.353031 0
M  V30 2981 N 295.62 -1.53406 -0.361157 0
M  V30 2982 C 296.866 -1.70054 -1.10496 0
M  V30 2983 C 297.199 -0.453278 -1.88836 0
M  V30 2984 O 296.474 0.5495 -1.86576 0
M  V30 2985 C 296.757 -2.95317 -2.06058 0
M  V30 2986 C 296.61 -4.3021 -1.31298 0
M  V30 2987 C 297.929 -3.16193 -3.06121 0
M  V30 2988 H 295.048 -0.618799 -0.400321 0
M  V30 2989 H 297.69 -1.86052 -0.385318 0
M  V30 2990 H 295.84 -2.81809 -2.67425 0
M  V30 2991 H 297.512 -4.55538 -0.726807 0
M  V30 2992 H 295.755 -4.29421 -0.614853 0
M  V30 2993 H 296.426 -5.14 -2.01265 0
M  V30 2994 H 298.902 -3.28916 -2.5486 0
M  V30 2995 H 297.778 -4.05266 -3.70204 0
M  V30 2996 H 298.039 -2.31676 -3.76535 0
M  V30 2997 N 297.098 0.621204 -1.44841 0
M  V30 2998 C 298.008 1.7612 -1.5498 0
M  V30 2999 C 299.024 1.68477 -0.434927 0
M  V30 3000 O 300.2 1.89076 -0.693693 0
M  V30 3001 C 297.265 3.1254 -1.50065 0
M  V30 3002 C 296.326 3.31741 -2.72482 0
M  V30 3003 C 295.559 4.61653 -2.67792 0
M  V30 3004 O 295.782 5.431 -1.74352 0
M  V30 3005 O 294.716 4.83271 -3.58794 0
M  V30 3006 H 298.542 1.70518 -2.51311 0
M  V30 3007 H 296.127 0.783643 -1.27198 0
M  V30 3008 H 298.009 3.93844 -1.49882 0
M  V30 3009 H 296.684 3.18663 -0.568806 0
M  V30 3010 H 295.591 2.50077 -2.7823 0
M  V30 3011 H 296.924 3.30486 -3.64746 0
M  V30 3012 N 298.576 1.31904 0.862503 0
M  V30 3013 C 299.806 1.24817 1.64634 0
M  V30 3014 C 300.214 -0.187579 1.88268 0
M  V30 3015 O 299.557 -1.13253 1.44635 0
M  V30 3016 C 299.619 1.92996 3.03303 0
M  V30 3017 C 299.283 3.42336 3.02746 0
M  V30 3018 C 300.28 4.37956 2.80162 0
M  V30 3019 C 297.965 3.84147 3.2363 0
M  V30 3020 C 299.959 5.73361 2.78453 0
M  V30 3021 C 297.646 5.19663 3.21549 0
M  V30 3022 C 298.644 6.14081 2.98988 0
M  V30 3023 O 298.332 7.47118 2.96766 0
M  V30 3024 H 298.064 0.432222 0.519769 0
M  V30 3025 H 300.618 1.7445 1.08427 0
M  V30 3026 H 298.848 1.37922 3.61268 0
M  V30 3027 H 300.537 1.79723 3.63943 0
M  V30 3028 H 301.303 4.06981 2.63802 0
M  V30 3029 H 297.182 3.11083 3.40218 0
M  V30 3030 H 300.726 6.4703 2.60763 0
M  V30 3031 H 296.623 5.5027 3.37451 0
M  V30 3032 H 297.391 7.56382 3.12775 0
M  V30 3033 N 300.054 -1.07777 1.14986 0
M  V30 3034 C 300.964 -2.18404 0.856546 0
M  V30 3035 C 301.98 -1.73211 -0.165485 0
M  V30 3036 O 303.156 -2.01399 0.00755219 0
M  V30 3037 C 300.221 -3.44977 0.34526 0
M  V30 3038 C 299.282 -4.0476 1.43065 0
M  V30 3039 C 298.515 -5.25291 0.943663 0
M  V30 3040 O 298.738 -5.70004 -0.212426 0
M  V30 3041 O 297.672 -5.76638 1.72547 0
M  V30 3042 H 301.498 -2.45978 1.78125 0
M  V30 3043 H 299.083 -1.17033 0.928631 0
M  V30 3044 H 300.965 -4.21348 0.0663671 0
M  V30 3045 H 299.64 -3.18965 -0.551631 0
M  V30 3046 H 298.547 -3.29949 1.76309 0
M  V30 3047 H 299.88 -4.35035 2.30229 0
M  V30 3048 N 301.532 -0.945985 -1.26051 0
M  V30 3049 C 302.757 -0.612525 -1.98149 0
M  V30 3050 C 303.182 0.806623 -1.69927 0
M  V30 3051 O 302.54 1.54411 -0.950108 0
M  V30 3052 C 302.588 -0.866981 -3.50023 0
M  V30 3053 O 301.692 0.0585333 -4.12358 0
M  V30 3054 H 301.033 -0.23379 -0.621481 0
M  V30 3055 H 303.563 -1.27023 -1.60395 0
M  V30 3056 H 303.573 -0.789792 -4.00283 0
M  V30 3057 H 302.248 -1.90135 -3.69894 0
M  V30 3058 H 300.825 -0.0701241 -3.72834 0
M  V30 3059 N 303.011 1.40521 -0.713556 0
M  V30 3060 C 304.257 2.01221 -0.252564 0
M  V30 3061 C 304.59 1.56444 1.1506 0
M  V30 3062 O 303.865 0.783597 1.78017 0
M  V30 3063 C 304.148 3.58582 -0.330332 0
M  V30 3064 C 304.001 4.13437 -1.77173 0
M  V30 3065 C 305.32 4.39079 0.299641 0
M  V30 3066 H 302.439 0.731077 -0.0932471 0
M  V30 3067 H 305.081 1.67026 -0.905673 0
M  V30 3068 H 303.231 3.87844 0.225737 0
M  V30 3069 H 304.903 3.9498 -2.38303 0
M  V30 3070 H 303.146 3.67801 -2.3001 0
M  V30 3071 H 303.817 5.22597 -1.77755 0
M  V30 3072 H 306.293 4.15735 -0.174139 0
M  V30 3073 H 305.169 5.4848 0.214771 0
M  V30 3074 H 305.43 4.19915 1.38288 0
M  V30 3075 N 304.489 0.459591 1.5075 0
M  V30 3076 C 305.419 -0.330644 2.31147 0
M  V30 3077 C 306.4 -1.00087 1.37538 0
M  V30 3078 O 307.585 -1.00025 1.66459 0
M  V30 3079 C 304.715 -1.41958 3.16962 0
M  V30 3080 C 303.669 -0.871608 4.19031 0
M  V30 3081 C 302.995 -2.05797 4.9351 0
M  V30 3082 C 304.295 0.109251 5.22186 0
M  V30 3083 H 305.989 0.340336 2.97459 0
M  V30 3084 H 303.535 0.165119 1.4305 0
M  V30 3085 H 305.488 -1.9798 3.71997 0
M  V30 3086 H 304.212 -2.11917 2.48513 0
M  V30 3087 H 302.871 -0.333442 3.6508 0
M  V30 3088 H 302.519 -2.74427 4.21544 0
M  V30 3089 H 302.219 -1.6976 5.62544 0
M  V30 3090 H 303.743 -2.62331 5.51375 0
M  V30 3091 H 305.157 -0.361405 5.7216 0
M  V30 3092 H 303.554 0.383316 5.98875 0
M  V30 3093 H 304.624 1.03887 4.73641 0
M  V30 3094 N 305.967 -1.56429 0.191757 0
M  V30 3095 C 307.195 -2.01867 -0.453586 0
M  V30 3096 C 307.61 -1.07191 -1.5542 0
M  V30 3097 O 306.967 -0.0762108 -1.82341 0
M  V30 3098 C 307.018 -3.47017 -1.013 0
M  V30 3099 O 306.739 -4.38078 0.0437005 0
M  V30 3100 C 308.24 -4.07956 -1.73456 0
M  V30 3101 H 305.46 -0.661211 -0.114199 0
M  V30 3102 H 308.004 -2.02295 0.299483 0
M  V30 3103 H 306.159 -3.47298 -1.71647 0
M  V30 3104 H 306.573 -5.23178 -0.372212 0
M  V30 3105 H 308.047 -5.1138 -2.07833 0
M  V30 3106 H 308.524 -3.51222 -2.63704 0
M  V30 3107 H 309.13 -4.11437 -1.07702 0
M  V30 3108 N 307.445 0.0818655 -1.57387 0
M  V30 3109 C 308.375 1.09885 -2.06028 0
M  V30 3110 C 309.356 1.4098 -0.951774 0
M  V30 3111 O 310.541 1.50781 -1.22387 0
M  V30 3112 C 307.671 2.4151 -2.4958 0
M  V30 3113 C 306.625 2.24792 -3.64215 0
M  V30 3114 C 305.951 3.61712 -3.93787 0
M  V30 3115 C 307.251 1.67749 -4.94629 0
M  V30 3116 H 308.945 0.694128 -2.91243 0
M  V30 3117 H 306.491 0.332448 -1.4011 0
M  V30 3118 H 308.444 3.12939 -2.82219 0
M  V30 3119 H 307.168 2.83943 -1.61381 0
M  V30 3120 H 305.827 1.55807 -3.31843 0
M  V30 3121 H 305.475 4.01697 -3.02735 0
M  V30 3122 H 305.175 3.51368 -4.70971 0
M  V30 3123 H 306.699 4.34587 -4.28913 0
M  V30 3124 H 308.113 2.29032 -5.25564 0
M  V30 3125 H 306.51 1.68128 -5.76067 0
M  V30 3126 H 307.58 0.638059 -4.80684 0
M  V30 3127 N 308.923 1.53595 0.353017 0
M  V30 3128 C 310.172 1.69603 1.09168 0
M  V30 3129 C 310.485 0.460925 1.90092 0
M  V30 3130 O 311.691 0.501774 2.66823 0
M  V30 3131 C 310.147 2.99872 1.9901 0
M  V30 3132 C 309.755 4.30687 1.23339 0
M  V30 3133 C 311.499 3.25246 2.72792 0
M  V30 3134 C 309.406 5.52036 2.12156 0
M  V30 3135 H 308.336 0.631966 0.411261 0
M  V30 3136 H 310.987 1.80096 0.351802 0
M  V30 3137 H 309.369 2.83212 2.7678 0
M  V30 3138 H 310.543 4.58019 0.505456 0
M  V30 3139 H 308.858 4.11853 0.613663 0
M  V30 3140 H 311.455 4.13095 3.39495 0
M  V30 3141 H 311.798 2.41846 3.38846 0
M  V30 3142 H 312.331 3.42638 2.021 0
M  V30 3143 H 309.07 6.37951 1.50659 0
M  V30 3144 H 308.59 5.28966 2.82764 0
M  V30 3145 H 310.269 5.87313 2.71427 0
M  V30 3146 N 310.401 -0.613514 1.45168 0
M  V30 3147 C 311.812 -1.19539 1.43413 0
M  V30 3148 C 312.163 -1.95558 0.158632 0
M  V30 3149 O 311.288 -2.0335 -0.740119 0
M  V30 3150 C 311.883 -2.17445 2.59813 0
M  V30 3151 C 310.442 -2.71022 2.61197 0
M  V30 3152 C 309.589 -1.46323 2.35552 0
M  V30 3153 H 312.54 -0.403163 1.53494 0
M  V30 3154 H 312.561 -3.00373 2.33574 0
M  V30 3155 H 312.073 -1.62089 3.52631 0
M  V30 3156 H 310.174 -3.30332 1.7237 0
M  V30 3157 H 310.287 -3.15859 3.60236 0
M  V30 3158 H 308.651 -1.75072 1.84992 0
M  V30 3159 H 309.434 -0.92844 3.30507 0
M  V30 3160 N 311.879 -1.3236 -0.855495 0
M  V30 3161 C 312.809 -1.23833 -1.97958 0
M  V30 3162 C 313.79 -0.122361 -1.69659 0
M  V30 3163 O 314.975 -0.30939 -1.9172 0
M  V30 3164 C 312.105 -0.959772 -3.33775 0
M  V30 3165 C 311.059 -2.03689 -3.76424 0
M  V30 3166 C 310.385 -1.61075 -5.09862 0
M  V30 3167 C 311.685 -3.4518 -3.9198 0
M  V30 3168 H 313.379 -2.1788 -2.0535 0
M  V30 3169 H 310.925 -1.04891 -0.986605 0
M  V30 3170 H 312.878 -0.886678 -4.11966 0
M  V30 3171 H 311.602 0.0163404 -3.26596 0
M  V30 3172 H 310.261 -2.10012 -3.00484 0
M  V30 3173 H 309.909 -0.622107 -4.99138 0
M  V30 3174 H 309.609 -2.33143 -5.39368 0
M  V30 3175 H 311.133 -1.55201 -5.90546 0
M  V30 3176 H 312.547 -3.4145 -4.60526 0
M  V30 3177 H 310.944 -4.1559 -4.32903 0
M  V30 3178 H 312.014 -3.84903 -2.94919 0
M  V30 3179 N 313.357 1.07166 -1.15556 0
M  V30 3180 C 314.603 1.80065 -0.932984 0
M  V30 3181 C 314.936 1.86586 0.53845 0
M  V30 3182 O 314.211 1.35098 1.39924 0
M  V30 3183 C 314.494 3.25022 -1.55025 0
M  V30 3184 C 314.347 3.26634 -3.09242 0
M  V30 3185 C 315.666 4.22341 -1.2376 0
M  V30 3186 H 312.785 0.653697 -0.340366 0
M  V30 3187 H 315.427 1.25389 -1.4275 0
M  V30 3188 H 313.577 3.71712 -1.12972 0
M  V30 3189 H 315.249 2.88173 -3.60214 0
M  V30 3190 H 313.492 2.65539 -3.43033 0
M  V30 3191 H 314.163 4.28854 -3.47546 0
M  V30 3192 H 316.639 3.8405 -1.60139 0
M  V30 3193 H 315.515 5.22053 -1.69564 0
M  V30 3194 H 315.776 4.41828 -0.154938 0
M  V30 3195 N 314.835 0.952656 1.25548 0
M  V30 3196 C 316.063 0.623496 1.97282 0
M  V30 3197 C 316.478 -0.803987 1.70826 0
M  V30 3198 O 315.835 -1.53755 0.983147 0
M  V30 3199 C 315.886 0.870209 3.5087 0
M  V30 3200 O 315.607 2.24156 3.76412 0
M  V30 3201 C 317.108 0.553164 4.39835 0
M  V30 3202 H 314.328 0.233931 0.628902 0
M  V30 3203 H 316.872 1.27649 1.59768 0
M  V30 3204 H 315.027 0.263652 3.86502 0
M  V30 3205 H 315.441 2.31021 4.70882 0
M  V30 3206 H 316.915 0.776342 5.46513 0
M  V30 3207 H 317.392 -0.512215 4.36203 0
M  V30 3208 H 317.998 1.13896 4.09766 0
M  V30 3209 N 316.313 -1.40141 0.720998 0
M  V30 3210 C 317.561 -2.0039 0.262323 0
M  V30 3211 C 317.882 -1.57469 -1.15015 0
M  V30 3212 O 317.152 -0.816582 -1.78069 0
M  V30 3213 H 315.732 -0.741063 0.093996 0
M  V30 3214 H 318.394 -1.71398 0.927835 0
M  V30 3215 H 317.49 -3.10658 0.299671 0
M  V30 3216 N 317.792 -0.46758 -1.50504 0
M  V30 3217 C 319.203 -0.0116166 -1.86696 0
M  V30 3218 C 319.554 1.39202 -1.38265 0
M  V30 3219 O 318.679 2.0313 -0.746132 0
M  V30 3220 C 319.274 -0.0143044 -3.38797 0
M  V30 3221 C 317.833 0.386175 -3.74414 0
M  V30 3222 C 316.98 -0.401287 -2.74381 0
M  V30 3223 H 319.931 -0.682022 -1.43297 0
M  V30 3224 H 319.952 0.788641 -3.72237 0
M  V30 3225 H 319.464 -1.03602 -3.74016 0
M  V30 3226 H 317.565 1.41237 -3.44794 0
M  V30 3227 H 317.678 0.0899596 -4.79016 0
M  V30 3228 H 316.042 0.144536 -2.5429 0
M  V30 3229 H 316.825 -1.42244 -3.12444 0
M  V30 3230 N 319.27 1.56325 -0.20005 0
M  V30 3231 C 320.518 1.97329 0.436547 0
M  V30 3232 C 320.839 1.08826 1.61808 0
M  V30 3233 O 320.109 0.160604 1.95241 0
M  V30 3234 H 318.689 0.728714 0.164272 0
M  V30 3235 H 321.351 1.92761 -0.287937 0
M  V30 3236 H 320.447 3.02264 0.777353 0
M  V30 3237 N 320.748 -0.0735177 1.57428 0
M  V30 3238 C 321.994 -0.774145 1.87443 0
M  V30 3239 C 322.327 -1.77311 0.792103 0
M  V30 3240 O 321.602 -1.93492 -0.197793 0
M  V30 3241 C 321.885 -1.48367 3.28115 0
M  V30 3242 C 321.738 -0.501227 4.46999 0
M  V30 3243 C 323.057 -2.429 3.66998 0
M  V30 3244 H 320.176 -0.279971 0.681752 0
M  V30 3245 H 322.818 -0.0373616 1.89963 0
M  V30 3246 H 320.968 -2.11171 3.26097 0
M  V30 3247 H 322.64 0.121468 4.6114 0
M  V30 3248 H 320.883 0.183593 4.33411 0
M  V30 3249 H 321.554 -1.03526 5.42205 0
M  V30 3250 H 324.03 -1.90175 3.70098 0
M  V30 3251 H 322.906 -2.89549 4.66318 0
M  V30 3252 H 323.167 -3.27628 2.96837 0
M  V30 3253 N 322.226 -1.5378 -0.344866 0
M  V30 3254 C 323.156 -1.84662 -1.42906 0
M  V30 3255 C 324.137 -0.701648 -1.54955 0
M  V30 3256 O 325.322 -0.953438 -1.69184 0
M  V30 3257 C 322.452 -2.05503 -2.79974 0
M  V30 3258 C 321.406 -3.21318 -2.82734 0
M  V30 3259 C 320.732 -3.2749 -4.22675 0
M  V30 3260 C 322.032 -4.59456 -2.48389 0
M  V30 3261 H 323.726 -2.75461 -1.17311 0
M  V30 3262 H 321.272 -1.32542 -0.562896 0
M  V30 3263 H 323.225 -2.25691 -3.55867 0
M  V30 3264 H 321.949 -1.11434 -3.07002 0
M  V30 3265 H 320.608 -3.00984 -2.09294 0
M  V30 3266 H 320.256 -2.31019 -4.4681 0
M  V30 3267 H 319.956 -4.05316 -4.25433 0
M  V30 3268 H 321.48 -3.49887 -5.00412 0
M  V30 3269 H 322.894 -4.79667 -3.13995 0
M  V30 3270 H 321.291 -5.39675 -2.62432 0
M  V30 3271 H 322.361 -4.63155 -1.4358 0
M  V30 3272 N 323.704 0.605807 -1.45491 0
M  V30 3273 C 324.667 1.69836 -1.5391 0
M  V30 3274 C 325.667 1.55261 -0.418424 0
M  V30 3275 O 326.857 1.60296 -0.681965 0
M  V30 3276 C 323.989 3.09117 -1.43734 0
M  V30 3277 H 325.182 1.63738 -2.51257 0
M  V30 3278 H 322.735 0.821689 -1.32959 0
M  V30 3279 H 323.47 3.20791 -0.475788 0
M  V30 3280 H 323.255 3.21104 -2.25021 0
M  V30 3281 H 324.745 3.88696 -1.52661 0
M  V30 3282 N 325.182 1.32811 0.848464 0
M  V30 3283 C 326.13 1.22231 1.97895 0
M  V30 3284 C 327.124 0.125749 1.68933 0
M  V30 3285 O 328.33 0.289083 1.77663 0
M  V30 3286 H 324.705 0.379058 0.649476 0
M  V30 3287 H 326.676 2.17828 2.03945 0
M  V30 3288 C 325.425 0.968572 3.33937 0
M  V30 3289 H 324.748 1.80458 3.56756 0
M  V30 3290 H 326.188 0.934808 4.13567 0
M  V30 3291 C 324.647 -0.328628 3.35293 0
M  V30 3292 O 325.177 -1.33848 3.78745 0
M  V30 3293 N 323.383 -0.352788 2.88451 0
M  V30 3294 H 322.93 0.469541 2.53285 0
M  V30 3295 H 322.888 -1.22057 2.89741 0
M  V30 3296 N 326.66 -1.06551 1.16123 0
M  V30 3297 C 327.59 -2.15935 0.88851 0
M  V30 3298 C 328.571 -1.69306 -0.164135 0
M  V30 3299 O 329.756 -1.94193 -0.0167857 0
M  V30 3300 C 326.886 -3.45149 0.385942 0
M  V30 3301 C 325.84 -4.05271 1.3762 0
M  V30 3302 C 325.166 -5.29664 0.732137 0
M  V30 3303 C 326.466 -4.44355 2.74493 0
M  V30 3304 H 328.16 -2.39006 1.80323 0
M  V30 3305 H 325.706 -1.14866 0.868435 0
M  V30 3306 H 327.659 -4.21004 0.182647 0
M  V30 3307 H 326.383 -3.21689 -0.564274 0
M  V30 3308 H 325.042 -3.3147 1.56599 0
M  V30 3309 H 324.69 -5.02499 -0.224483 0
M  V30 3310 H 324.39 -5.70848 1.39307 0
M  V30 3311 H 325.914 -6.08218 0.538802 0
M  V30 3312 H 327.328 -5.11303 2.59311 0
M  V30 3313 H 325.725 -4.96515 3.37035 0
M  V30 3314 H 326.795 -3.55339 3.29943 0
M  V30 3315 N 328.138 -0.959301 -1.25041 0
M  V30 3316 C 329.068 -0.501388 -2.28053 0
M  V30 3317 C 330.049 0.454673 -1.63911 0
M  V30 3318 O 331.234 0.352618 -1.90972 0
M  V30 3319 C 328.364 0.217224 -3.4662 0
M  V30 3320 C 327.318 -0.654034 -4.22973 0
M  V30 3321 C 326.644 0.195589 -5.34342 0
M  V30 3322 C 327.944 -1.93447 -4.85155 0
M  V30 3323 H 329.638 -1.36238 -2.66608 0
M  V30 3324 H 327.184 -0.656534 -1.28163 0
M  V30 3325 H 329.137 0.548732 -4.17812 0
M  V30 3326 H 327.861 1.1125 -3.07068 0
M  V30 3327 H 326.52 -0.968693 -3.5357 0
M  V30 3328 H 326.168 1.09076 -4.91031 0
M  V30 3329 H 325.868 -0.384091 -5.86343 0
M  V30 3330 H 327.392 0.521958 -6.08365 0
M  V30 3331 H 328.806 -1.66908 -5.48466 0
M  V30 3332 H 327.203 -2.46018 -5.47353 0
M  V30 3333 H 328.273 -2.63466 -4.07079 0
M  V30 3334 N 329.616 1.39756 -0.72842 0
M  V30 3335 C 330.893 1.94574 -0.200079 0
M  V30 3336 C 331.273 1.66569 1.29684 0
M  V30 3337 O 330.621 0.990326 2.05924 0
M  V30 3338 C 330.831 3.45004 -0.526608 0
M  V30 3339 C 332.179 4.21965 -0.472318 0
M  V30 3340 O 333.203 3.53173 -0.463413 0
M  V30 3341 O 332.062 5.44552 -0.461075 0
M  V30 3342 H 329.156 0.826289 -0.0342851 0
M  V30 3343 H 331.702 1.49293 -0.806829 0
M  V30 3344 H 330.474 3.58796 -1.56144 0
M  V30 3345 H 330.097 3.97449 0.109449 0
M  V30 3346 N 331.094 0.475555 1.50254 0
M  V30 3347 C 332.34 -0.0780073 2.0265 0
M  V30 3348 C 332.673 -1.38968 1.35652 0
M  V30 3349 O 331.948 -1.8839 0.483691 0
M  V30 3350 C 332.231 -0.257161 3.59181 0
M  V30 3351 C 332.084 1.07585 4.36744 0
M  V30 3352 C 333.403 -1.00965 4.28362 0
M  V30 3353 H 330.522 -0.0268758 0.73651 0
M  V30 3354 H 333.164 0.622015 1.7953 0
M  V30 3355 H 331.314 -0.853412 3.79011 0
M  V30 3356 H 332.986 1.70902 4.28474 0
M  V30 3357 H 331.229 1.6714 4.00308 0
M  V30 3358 H 331.9 0.904088 5.44546 0
M  V30 3359 H 334.376 -0.504214 4.13034 0
M  V30 3360 H 333.252 -1.10381 5.37687 0
M  V30 3361 H 333.513 -2.04731 3.91839 0
M  V30 3362 N 332.573 -1.56217 0.208337 0
M  V30 3363 C 333.82 -1.97949 -0.42692 0
M  V30 3364 C 334.148 -1.09562 -1.60706 0
M  V30 3365 O 333.403 -0.137616 -1.95216 0
M  V30 3366 C 333.702 -3.45441 -0.916797 0
M  V30 3367 C 333.368 -4.50646 0.151391 0
M  V30 3368 C 332.03 -4.79139 0.444867 0
M  V30 3369 C 334.382 -5.13811 0.874492 0
M  V30 3370 C 331.71 -5.68084 1.46619 0
M  V30 3371 C 334.062 -6.03861 1.88506 0
M  V30 3372 C 332.726 -6.30704 2.18559 0
M  V30 3373 H 331.996 -0.724345 -0.156221 0
M  V30 3374 H 334.643 -1.89006 0.308084 0
M  V30 3375 H 332.948 -3.51521 -1.73032 0
M  V30 3376 H 334.645 -3.75094 -1.41794 0
M  V30 3377 H 331.235 -4.28511 -0.0875068 0
M  V30 3378 H 335.419 -4.91879 0.660996 0
M  V30 3379 H 330.675 -5.87151 1.7048 0
M  V30 3380 H 334.849 -6.51861 2.45051 0
M  V30 3381 H 332.476 -6.99424 2.97843 0
M  V30 3382 N 334.051 0.0651679 -1.57465 0
M  V30 3383 C 335.467 0.420105 -1.53972 0
M  V30 3384 C 335.667 1.78782 -0.929474 0
M  V30 3385 O 334.723 2.46771 -0.534839 0
M  V30 3386 C 336.036 0.355084 -2.98596 0
M  V30 3387 C 337.584 0.434792 -3.09965 0
M  V30 3388 C 338.059 0.399609 -4.56253 0
M  V30 3389 N 339.55 0.459488 -4.60915 0
M  V30 3390 C 340.285 0.454584 -5.71595 0
M  V30 3391 N 339.781 0.404102 -6.9162 0
M  V30 3392 N 341.574 0.501635 -5.59857 0
M  V30 3393 H 333.725 -0.830328 -1.95498 0
M  V30 3394 H 335.988 -0.312244 -0.895102 0
M  V30 3395 H 335.694 -0.583357 -3.46828 0
M  V30 3396 H 335.568 1.16275 -3.58831 0
M  V30 3397 H 337.955 1.36366 -2.61703 0
M  V30 3398 H 338.036 -0.40157 -2.52628 0
M  V30 3399 H 337.68 -0.525436 -5.05175 0
M  V30 3400 H 337.61 1.25359 -5.11461 0
M  V30 3401 H 340.101 0.502482 -3.74544 0
M  V30 3402 H 340.414 0.404468 -7.71741 0
M  V30 3403 H 338.759 0.37069 -6.94011 0
M  V30 3404 H 341.95 0.538812 -4.64989 0
M  V30 3405 H 342.123 0.494345 -6.46112 0
M  V30 3406 N 335.529 1.53961 0.336706 0
M  V30 3407 C 336.806 1.62171 1.09361 0
M  V30 3408 C 337.186 0.447263 2.06307 0
M  V30 3409 O 336.534 -0.559802 2.21537 0
M  V30 3410 C 336.744 2.98565 1.80721 0
M  V30 3411 C 338.092 3.54157 2.34218 0
M  V30 3412 O 339.116 3.00784 1.90807 0
M  V30 3413 O 337.975 4.47528 3.13657 0
M  V30 3414 H 335.069 0.6562 0.503319 0
M  V30 3415 H 337.615 1.66307 0.33765 0
M  V30 3416 H 336.387 3.75482 1.10132 0
M  V30 3417 H 336.01 2.9805 2.63158 0
M  V30 3418 N 337.007 -0.598083 1.45811 0
M  V30 3419 C 337.97 -1.69018 1.54808 0
M  V30 3420 C 338.97 -1.55037 0.426652 0
M  V30 3421 O 340.16 -1.59932 0.690456 0
M  V30 3422 C 337.292 -3.0835 1.45371 0
M  V30 3423 H 338.485 -1.62403 2.52121 0
M  V30 3424 H 336.038 -0.814626 1.33392 0
M  V30 3425 H 336.773 -3.20534 0.492793 0
M  V30 3426 H 336.558 -3.19907 2.26721 0
M  V30 3427 H 338.048 -3.8788 1.54721 0
M  V30 3428 N 338.485 -1.33259 -0.841409 0
M  V30 3429 C 339.733 -1.24326 -1.59334 0
M  V30 3430 C 340.054 0.191564 -1.94057 0
M  V30 3431 O 339.324 1.11967 -1.60749 0
M  V30 3432 H 337.904 -0.457174 -0.590763 0
M  V30 3433 H 340.566 -1.66947 -1.00571 0
M  V30 3434 H 339.662 -1.8352 -2.52442 0
M  V30 3435 N 339.963 1.05934 -1.16686 0
M  V30 3436 C 340.893 2.1546 -0.899949 0
M  V30 3437 C 341.874 1.69391 0.155154 0
M  V30 3438 O 343.059 1.94199 0.00648693 0
M  V30 3439 C 340.189 3.44939 -0.404241 0
M  V30 3440 C 339.143 4.04536 -1.39767 0
M  V30 3441 C 338.469 5.29268 -0.760216 0
M  V30 3442 C 339.769 4.42893 -2.76845 0
M  V30 3443 H 341.463 2.38046 -1.81588 0
M  V30 3444 H 339.009 1.14404 -0.874514 0
M  V30 3445 H 340.962 4.20901 -0.204971 0
M  V30 3446 H 339.686 3.21983 0.547206 0
M  V30 3447 H 338.345 3.30635 -1.58355 0
M  V30 3448 H 337.993 5.02611 0.197831 0
M  V30 3449 H 337.693 5.70101 -1.42332 0
M  V30 3450 H 339.217 6.07924 -0.57105 0
M  V30 3451 H 340.631 5.09921 -2.62019 0
M  V30 3452 H 339.028 4.94721 -3.39663 0
M  V30 3453 H 340.098 3.53584 -3.31823 0
M  V30 3454 N 341.441 0.965919 1.2453 0
M  V30 3455 C 342.389 0.486506 2.27455 0
M  V30 3456 C 343.383 -0.449041 1.6334 0
M  V30 3457 O 344.589 -0.324527 1.7705 0
M  V30 3458 H 340.964 0.138857 0.739069 0
M  V30 3459 H 342.935 1.3666 2.65267 0
M  V30 3460 C 341.684 -0.209481 3.47068 0
M  V30 3461 H 341.007 0.50129 3.96645 0
M  V30 3462 H 342.447 -0.508775 4.20936 0
M  V30 3463 C 340.906 -1.43586 3.0477 0
M  V30 3464 O 341.436 -2.53299 3.11773 0
M  V30 3465 N 339.642 -1.30126 2.59838 0
M  V30 3466 H 339.189 -0.408583 2.54339 0
M  V30 3467 H 339.147 -2.12294 2.31902 0
M  V30 3468 N 342.919 -1.39368 0.735821 0
M  V30 3469 C 343.852 -2.28155 0.0451175 0
M  V30 3470 C 344.83 -1.44433 -0.746852 0
M  V30 3471 O 346.014 -1.73823 -0.729237 0
M  V30 3472 C 343.141 -3.253 -0.943266 0
M  V30 3473 C 342.187 -4.25826 -0.239685 0
M  V30 3474 S 343.02 -5.25166 1.04693 0
M  V30 3475 C 344.176 -6.2587 0.0611639 0
M  V30 3476 H 344.409 -2.86388 0.79807 0
M  V30 3477 H 341.942 -1.45104 0.527653 0
M  V30 3478 H 343.9 -3.81789 -1.50824 0
M  V30 3479 H 342.561 -2.66085 -1.66906 0
M  V30 3480 H 341.754 -4.94229 -0.987596 0
M  V30 3481 H 341.356 -3.73141 0.253274 0
M  V30 3482 H 343.648 -6.73007 -0.778941 0
M  V30 3483 H 344.591 -7.04508 0.712362 0
M  V30 3484 H 344.999 -5.63639 -0.311602 0
M  V30 3485 N 344.397 -0.483516 -1.5 0
M  V30 3486 C 345.625 0.0644831 -2.06799 0
M  V30 3487 C 346.04 1.32399 -1.34596 0
M  V30 3488 O 345.397 1.77626 -0.418946 0
M  V30 3489 C 345.448 0.339927 -3.59898 0
M  V30 3490 O 345.169 -0.869635 -4.29382 0
M  V30 3491 C 346.67 0.933515 -4.33359 0
M  V30 3492 H 343.89 -0.0126333 -0.670881 0
M  V30 3493 H 346.434 -0.675864 -1.93009 0
M  V30 3494 H 344.589 1.03022 -3.7345 0
M  V30 3495 H 345.003 -0.62179 -5.20801 0
M  V30 3496 H 346.477 1.07593 -5.41413 0
M  V30 3497 H 346.954 1.92685 -3.94676 0
M  V30 3498 H 347.56 0.281221 -4.24369 0
M  V30 3499 N 345.875 1.56104 -0.216619 0
M  V30 3500 C 347.1 2.0301 0.424462 0
M  V30 3501 C 347.525 1.0955 1.52907 0
M  V30 3502 O 346.883 0.0827914 1.81111 0
M  V30 3503 C 346.931 3.4819 0.937883 0
M  V30 3504 O 346.035 3.57865 2.04955 0
M  V30 3505 H 345.376 0.656925 0.0966755 0
M  V30 3506 H 347.906 2.01859 -0.33381 0
M  V30 3507 H 347.916 3.88413 1.24897 0
M  V30 3508 H 346.591 4.15699 0.129387 0
M  V30 3509 H 345.168 3.29527 1.74546 0
M  V30 3510 N 347.353 -0.0568162 1.57498 0
M  V30 3511 C 348.6 -0.753104 1.87975 0
M  V30 3512 C 348.928 -1.76815 0.81035 0
M  V30 3513 O 348.183 -1.94756 -0.19199 0
M  V30 3514 C 348.482 -1.48359 3.25153 0
M  V30 3515 C 348.148 -0.60713 4.46794 0
M  V30 3516 C 346.81 -0.365642 4.79809 0
M  V30 3517 C 349.162 -0.000305978 5.212 0
M  V30 3518 C 346.49 0.491905 5.84634 0
M  V30 3519 C 348.842 0.844781 6.26934 0
M  V30 3520 C 347.506 1.096 6.58441 0
M  V30 3521 H 346.776 -0.27558 0.687849 0
M  V30 3522 H 349.423 -0.0135173 1.91495 0
M  V30 3523 H 347.728 -2.29577 3.17492 0
M  V30 3524 H 349.425 -2.02739 3.45974 0
M  V30 3525 H 346.015 -0.805487 4.20963 0
M  V30 3526 H 350.199 -0.173961 4.95995 0
M  V30 3527 H 345.455 0.695131 6.07436 0
M  V30 3528 H 349.629 1.32165 6.83744 0
M  V30 3529 H 347.256 1.76224 7.39492 0
M  V30 3530 N 348.832 -1.54138 -0.328536 0
M  V30 3531 C 350.081 -1.71318 -1.06456 0
M  V30 3532 C 350.394 -0.491109 -1.89334 0
M  V30 3533 O 351.6 -0.54416 -2.65991 0
M  V30 3534 C 350.056 -3.03 -1.94214 0
M  V30 3535 C 349.664 -4.32595 -1.16471 0
M  V30 3536 C 351.408 -3.29544 -2.67583 0
M  V30 3537 C 349.315 -5.55341 -2.03347 0
M  V30 3538 H 348.245 -0.638429 -0.401155 0
M  V30 3539 H 350.896 -1.80633 -0.323106 0
M  V30 3540 H 349.278 -2.87579 -2.72239 0
M  V30 3541 H 350.452 -4.58766 -0.432525 0
M  V30 3542 H 348.767 -4.12777 -0.548063 0
M  V30 3543 H 351.364 -4.18444 -3.3288 0
M  V30 3544 H 351.707 -2.47206 -3.34955 0
M  V30 3545 H 352.24 -3.45809 -1.96623 0
M  V30 3546 H 348.979 -6.40268 -1.40491 0
M  V30 3547 H 348.499 -5.33397 -2.74313 0
M  V30 3548 H 350.178 -5.91557 -2.62049 0
M  V30 3549 N 350.31 0.590341 -1.46126 0
M  V30 3550 C 351.535 1.37991 -1.54833 0
M  V30 3551 C 351.96 1.87163 -0.187506 0
M  V30 3552 O 351.318 1.61133 0.831008 0
M  V30 3553 C 351.366 2.54867 -2.55098 0
M  V30 3554 O 350.47 3.56061 -2.08073 0
M  V30 3555 H 349.811 0.411265 -0.521303 0
M  V30 3556 H 352.341 0.716819 -1.91632 0
M  V30 3557 H 352.351 3.01886 -2.74461 0
M  V30 3558 H 351.026 2.18429 -3.53923 0
M  V30 3559 H 349.603 3.15574 -1.98664 0
M  V30 3560 N 351.788 1.33704 0.83433 0
M  V30 3561 C 353.204 1.13137 1.12571 0
M  V30 3562 C 353.404 -0.0747261 2.01361 0
M  V30 3563 O 352.46 -0.753647 2.4099 0
M  V30 3564 C 353.773 2.42105 1.78342 0
M  V30 3565 C 355.321 2.48054 1.90888 0
M  V30 3566 C 355.796 3.76995 2.60075 0
M  V30 3567 N 357.287 3.78092 2.67584 0
M  V30 3568 C 358.022 4.74574 3.21818 0
M  V30 3569 N 357.518 5.81434 3.76705 0
M  V30 3570 N 359.311 4.62044 3.20112 0
M  V30 3571 H 351.462 2.11 0.243489 0
M  V30 3572 H 353.725 0.932532 0.17055 0
M  V30 3573 H 353.431 3.30391 1.20561 0
M  V30 3574 H 353.305 2.54594 2.7832 0
M  V30 3575 H 355.692 1.60215 2.47821 0
M  V30 3576 H 355.773 2.39502 0.898459 0
M  V30 3577 H 355.417 4.65219 2.03799 0
M  V30 3578 H 355.347 3.82825 3.61597 0
M  V30 3579 H 357.838 3.00865 2.28667 0
M  V30 3580 H 358.151 6.51084 4.16305 0
M  V30 3581 H 356.496 5.85163 3.7498 0
M  V30 3582 H 359.687 3.77716 2.76493 0
M  V30 3583 H 359.86 5.37406 3.62076 0
M  V30 3584 N 353.266 -1.05314 1.17247 0
M  V30 3585 C 354.677 -1.59753 0.96623 0
M  V30 3586 C 355.028 -1.9005 -0.487378 0
M  V30 3587 O 354.153 -1.68126 -1.36245 0
M  V30 3588 C 354.748 -2.90249 1.74759 0
M  V30 3589 C 353.307 -3.41352 1.58606 0
M  V30 3590 C 352.454 -2.15103 1.75002 0
M  V30 3591 H 355.405 -0.881406 1.31973 0
M  V30 3592 H 355.426 -3.60097 1.22925 0
M  V30 3593 H 354.938 -2.68166 2.8055 0
M  V30 3594 H 353.039 -3.68474 0.552985 0
M  V30 3595 H 353.152 -4.16019 2.37624 0
M  V30 3596 H 351.516 -2.25804 1.17833 0
M  V30 3597 H 352.299 -1.95491 2.82202 0
M  V30 3598 N 354.744 -0.972509 -1.24016 0
M  V30 3599 C 355.993 -0.632603 -1.91523 0
M  V30 3600 C 356.306 0.836641 -1.76804 0
M  V30 3601 O 357.512 1.28728 -2.39043 0
M  V30 3602 C 355.968 -1.08082 -3.43287 0
M  V30 3603 C 355.576 -2.57386 -3.66683 0
M  V30 3604 C 357.32 -0.814288 -4.16617 0
M  V30 3605 C 355.227 -2.95915 -5.12043 0
M  V30 3606 H 354.157 -0.232898 -0.717129 0
M  V30 3607 H 356.808 -1.17936 -1.40582 0
M  V30 3608 H 355.19 -0.462339 -3.93292 0
M  V30 3609 H 356.364 -3.24405 -3.27258 0
M  V30 3610 H 354.679 -2.81701 -3.06649 0
M  V30 3611 H 357.276 -1.0781 -5.23718 0
M  V30 3612 H 357.619 0.24955 -4.15551 0
M  V30 3613 H 358.152 -1.39397 -3.72577 0
M  V30 3614 H 354.891 -4.0139 -5.18234 0
M  V30 3615 H 354.411 -2.33584 -5.52448 0
M  V30 3616 H 356.09 -2.86086 -5.80314 0
M  V30 3617 N 356.222 1.38976 -0.743202 0
M  V30 3618 C 357.169 2.30544 -0.10861 0
M  V30 3619 C 358.139 1.49642 0.720869 0
M  V30 3620 O 359.324 1.78304 0.679142 0
M  V30 3621 C 356.464 3.36018 0.786496 0
M  V30 3622 C 355.577 4.31963 -0.0564849 0
M  V30 3623 C 354.712 5.24506 0.840657 0
M  V30 3624 C 353.751 6.121 -0.00658363 0
M  V30 3625 N 352.888 6.96973 0.846943 0
M  V30 3626 H 357.728 2.8424 -0.895088 0
M  V30 3627 H 355.265 1.3995 -0.453048 0
M  V30 3628 H 357.223 3.95768 1.31999 0
M  V30 3629 H 355.853 2.83758 1.53887 0
M  V30 3630 H 354.905 3.73763 -0.707492 0
M  V30 3631 H 356.217 4.93703 -0.711229 0
M  V30 3632 H 355.371 5.89322 1.4417 0
M  V30 3633 H 354.11 4.63107 1.52916 0
M  V30 3634 H 353.115 5.46289 -0.620366 0
M  V30 3635 H 354.34 6.75565 -0.691992 0
M  V30 3636 H 352.286 6.38133 1.52059 0
M  V30 3637 H 352.203 7.5559 0.248864 0
M  V30 3638 H 353.471 7.6621 1.43328 0
M  V30 3639 N 357.7 0.491464 1.49741 0
M  V30 3640 C 358.948 -0.0563141 2.02022 0
M  V30 3641 C 359.269 -1.38363 1.37407 0
M  V30 3642 O 358.539 -1.88702 0.526166 0
M  V30 3643 H 357.119 -0.0238014 0.746621 0
M  V30 3644 H 359.781 0.646533 1.83864 0
M  V30 3645 H 358.877 -0.192967 3.11503 0
M  V30 3646 N 359.178 -1.55987 0.224894 0
M  V30 3647 C 360.594 -1.59066 -0.130426 0
M  V30 3648 C 360.794 -1.24176 -1.5869 0
M  V30 3649 O 359.85 -0.978592 -2.32766 0
M  V30 3650 C 361.163 -3.00042 0.198883 0
M  V30 3651 C 362.711 -3.1268 0.141391 0
M  V30 3652 C 363.186 -4.55839 0.444422 0
M  V30 3653 N 364.677 -4.6152 0.394115 0
M  V30 3654 C 365.412 -5.70231 0.602038 0
M  V30 3655 N 364.908 -6.87291 0.871914 0
M  V30 3656 N 366.701 -5.59555 0.534245 0
M  V30 3657 H 358.852 -1.76941 1.17497 0
M  V30 3658 H 361.115 -0.822604 0.471197 0
M  V30 3659 H 360.821 -3.30234 1.2099 0
M  V30 3660 H 360.695 -3.74075 -0.484535 0
M  V30 3661 H 363.082 -2.82283 -0.860265 0
M  V30 3662 H 363.163 -2.40969 0.858335 0
M  V30 3663 H 362.807 -4.86954 1.44353 0
M  V30 3664 H 362.737 -5.2578 -0.293752 0
M  V30 3665 H 365.228 -3.77405 0.193356 0
M  V30 3666 H 365.541 -7.66058 1.01858 0
M  V30 3667 H 363.886 -6.89028 0.909145 0
M  V30 3668 H 367.077 -4.6698 0.323612 0
M  V30 3669 H 367.25 -6.44211 0.699693 0
M  V30 3670 N 360.656 0.0484629 -1.57525 0
M  V30 3671 C 361.884 0.755421 -1.92616 0
M  V30 3672 C 362.299 1.69919 -0.822984 0
M  V30 3673 O 361.656 1.81378 0.202085 0
M  V30 3674 C 361.707 1.52915 -3.27566 0
M  V30 3675 O 361.428 0.62329 -4.33644 0
M  V30 3676 C 362.929 2.33502 -3.76818 0
M  V30 3677 H 360.149 0.213465 -0.63614 0
M  V30 3678 H 362.693 0.0117698 -2.04497 0
M  V30 3679 H 360.848 2.22486 -3.17142 0
M  V30 3680 H 361.262 1.16383 -5.11425 0
M  V30 3681 H 362.736 2.83214 -4.73808 0
M  V30 3682 H 363.213 3.14068 -3.07014 0
M  V30 3683 H 363.819 1.69043 -3.90262 0
M  V30 3684 N 362.134 1.5431 0.320358 0
M  V30 3685 C 363.382 1.72327 1.05583 0
M  V30 3686 C 363.703 0.50149 1.88441 0
M  V30 3687 O 362.973 -0.48448 1.89815 0
M  V30 3688 H 361.553 0.635387 0.3928 0
M  V30 3689 H 364.215 1.91621 0.356019 0
M  V30 3690 H 363.311 2.60426 1.72003 0
M  V30 3691 N 363.613 -0.582584 1.46437 0
M  V30 3692 C 364.841 -1.36682 1.55324 0
M  V30 3693 C 365.256 -1.87796 0.194409 0
M  V30 3694 O 364.613 -1.63623 -0.808318 0
M  V30 3695 C 364.664 -2.55426 2.55812 0
M  V30 3696 O 364.385 -2.0643 3.86417 0
M  V30 3697 C 365.886 -3.47976 2.74641 0
M  V30 3698 H 363.106 -0.417545 0.525259 0
M  V30 3699 H 365.65 -0.708219 1.91845 0
M  V30 3700 H 363.805 -3.17275 2.22295 0
M  V30 3701 H 364.219 -2.83762 4.41111 0
M  V30 3702 H 365.693 -4.27775 3.48874 0
M  V30 3703 H 366.17 -3.99919 1.81553 0
M  V30 3704 H 366.776 -2.91962 3.09255 0
M  V30 3705 N 365.091 -1.34144 -0.827227 0
M  V30 3706 C 366.321 -1.29138 -1.61267 0
M  V30 3707 C 366.729 0.137597 -1.88699 0
M  V30 3708 O 366.072 1.09379 -1.47587 0
M  V30 3709 C 366.134 -2.0097 -2.9808 0
M  V30 3710 C 365.798 -3.50242 -2.93563 0
M  V30 3711 C 366.795 -4.4523 -2.68452 0
M  V30 3712 C 364.48 -3.92592 -3.13331 0
M  V30 3713 C 366.474 -5.80542 -2.63154 0
M  V30 3714 C 364.161 -5.28005 -3.07658 0
M  V30 3715 C 365.159 -6.21792 -2.82602 0
M  V30 3716 O 364.847 -7.54723 -2.76853 0
M  V30 3717 H 364.579 -0.445851 -0.508127 0
M  V30 3718 H 367.133 -1.77263 -1.03763 0
M  V30 3719 H 365.363 -1.47451 -3.57484 0
M  V30 3720 H 367.052 -1.89309 -3.5905 0
M  V30 3721 H 367.818 -4.13832 -2.52919 0
M  V30 3722 H 363.697 -3.19994 -3.31851 0
M  V30 3723 H 367.241 -6.53717 -2.43516 0
M  V30 3724 H 363.138 -5.59023 -3.22743 0
M  V30 3725 H 363.906 -7.64409 -2.92611 0
M  V30 3726 N 366.569 1.04691 -1.17803 0
M  V30 3727 C 367.794 1.81984 -0.994813 0
M  V30 3728 C 368.219 1.82586 0.452112 0
M  V30 3729 O 367.577 1.23854 1.324 0
M  V30 3730 C 367.625 3.2575 -1.54659 0
M  V30 3731 O 366.729 4.05267 -0.763728 0
M  V30 3732 H 366.07 0.562483 -0.352857 0
M  V30 3733 H 368.6 1.3189 -1.56417 0
M  V30 3734 H 368.61 3.76541 -1.57102 0
M  V30 3735 H 367.285 3.24627 -2.59981 0
M  V30 3736 H 365.862 3.63972 -0.811108 0
M  V30 3737 N 368.047 0.979072 1.23499 0
M  V30 3738 C 369.294 0.647219 1.91878 0
M  V30 3739 C 369.622 -0.819074 1.76413 0
M  V30 3740 O 368.877 -1.60616 1.11808 0
M  V30 3741 C 369.176 0.981932 3.43646 0
M  V30 3742 C 368.842 2.43822 3.79291 0
M  V30 3743 C 367.504 2.83622 3.88731 0
M  V30 3744 C 369.856 3.3828 3.96505 0
M  V30 3745 C 367.184 4.16897 4.12812 0
M  V30 3746 C 369.536 4.71197 4.22085 0
M  V30 3747 C 368.2 5.10758 4.29747 0
M  V30 3748 H 367.47 0.236834 0.702133 0
M  V30 3749 H 370.117 1.23268 1.46551 0
M  V30 3750 H 368.422 0.314365 3.90537 0
M  V30 3751 H 370.119 0.703395 3.94783 0
M  V30 3752 H 366.709 2.11966 3.72516 0
M  V30 3753 H 370.893 3.0871 3.88603 0
M  V30 3754 H 366.149 4.47157 4.16966 0
M  V30 3755 H 370.323 5.44348 4.34348 0
M  V30 3756 H 367.95 6.1405 4.48159 0
M  V30 3757 N 369.525 -1.3858 0.750561 0
M  V30 3758 C 370.774 -1.99424 0.302172 0
M  V30 3759 C 371.087 -1.60254 -1.12152 0
M  V30 3760 O 372.293 -2.14046 -1.67023 0
M  V30 3761 C 370.749 -3.56558 0.489307 0
M  V30 3762 C 370.357 -4.04682 1.92189 0
M  V30 3763 C 372.101 -4.24374 0.103478 0
M  V30 3764 C 370.008 -5.54446 2.05775 0
M  V30 3765 H 368.938 -0.746046 0.10923 0
M  V30 3766 H 371.589 -1.58383 0.92667 0
M  V30 3767 H 369.971 -3.95472 -0.204329 0
M  V30 3768 H 371.145 -3.77065 2.64875 0
M  V30 3769 H 369.46 -3.4958 2.26236 0
M  V30 3770 H 372.057 -5.34384 0.183787 0
M  V30 3771 H 372.4 -4.05468 -0.943481 0
M  V30 3772 H 372.933 -3.90688 0.748854 0
M  V30 3773 H 369.672 -5.78252 3.08714 0
M  V30 3774 H 369.192 -5.83816 1.37546 0
M  V30 3775 H 370.871 -6.20099 1.84626 0
M  V30 3776 N 371.003 -0.499398 -1.49478 0
M  V30 3777 C 372.249 0.0457576 -2.02748 0
M  V30 3778 C 372.582 1.36793 -1.37846 0
M  V30 3779 O 371.857 1.87596 -0.513601 0
M  V30 3780 C 372.14 0.199986 -3.59544 0
M  V30 3781 C 371.993 -1.1452 -4.34977 0
M  V30 3782 C 373.312 0.94137 -4.29914 0
M  V30 3783 H 370.431 0.0151552 -0.736844 0
M  V30 3784 H 373.073 -0.650498 -1.78518 0
M  V30 3785 H 371.223 0.793007 -3.8032 0
M  V30 3786 H 372.895 -1.77697 -4.25701 0
M  V30 3787 H 371.138 -1.73488 -3.97598 0
M  V30 3788 H 371.809 -0.990607 -5.43039 0
M  V30 3789 H 374.285 0.43844 -4.13784 0
M  V30 3790 H 373.161 1.01812 -5.39375 0
M  V30 3791 H 373.422 1.98471 -3.95046 0
M  V30 3792 N 372.481 1.55866 -0.233164 0
M  V30 3793 C 373.709 2.02998 0.399905 0
M  V30 3794 C 374.124 1.11274 1.52524 0
M  V30 3795 O 373.481 0.124528 1.82075 0
M  V30 3796 C 373.532 3.4958 0.920639 0
M  V30 3797 O 373.253 4.37808 -0.159834 0
M  V30 3798 C 374.754 4.12411 1.62578 0
M  V30 3799 H 371.974 0.664006 0.0966281 0
M  V30 3800 H 374.518 2.0143 -0.353013 0
M  V30 3801 H 372.673 3.51727 1.62379 0
M  V30 3802 H 373.087 5.23981 0.23337 0
M  V30 3803 H 374.561 5.16711 1.94201 0
M  V30 3804 H 375.038 3.5809 2.54299 0
M  V30 3805 H 375.644 4.14148 0.967553 0
M  V30 3806 N 373.959 -0.0401083 1.57549 0
M  V30 3807 C 374.889 -1.04384 2.08869 0
M  V30 3808 C 375.87 -1.38407 0.988817 0
M  V30 3809 O 377.055 -1.47483 1.26342 0
M  V30 3810 C 374.185 -2.34808 2.55895 0
M  V30 3811 C 373.139 -2.15057 3.70047 0
M  V30 3812 C 372.465 -3.51145 4.03239 0
M  V30 3813 C 373.765 -1.54576 4.98902 0
M  V30 3814 H 375.459 -0.616666 2.92981 0
M  V30 3815 H 373.005 -0.295184 1.40942 0
M  V30 3816 H 374.958 -3.05346 2.90417 0
M  V30 3817 H 373.682 -2.79565 1.68853 0
M  V30 3818 H 372.341 -1.46954 3.35857 0
M  V30 3819 H 371.989 -3.93529 3.13279 0
M  V30 3820 H 371.689 -3.38758 4.80122 0
M  V30 3821 H 373.213 -4.23062 4.40285 0
M  V30 3822 H 374.627 -2.15017 5.31451 0
M  V30 3823 H 373.024 -1.52796 5.80322 0
M  V30 3824 H 374.094 -0.51039 4.82206 0
M  V30 3825 N 375.437 -1.54477 -0.31217 0
M  V30 3826 C 376.714 -1.63891 -1.06767 0
M  V30 3827 C 377.094 -0.480028 -2.0557 0
M  V30 3828 O 376.442 0.524487 -2.22399 0
M  V30 3829 C 376.652 -3.01402 -1.75948 0
M  V30 3830 C 378 -3.57838 -2.28554 0
M  V30 3831 O 379.024 -3.03782 -1.85998 0
M  V30 3832 O 377.883 -4.52462 -3.06497 0
M  V30 3833 H 374.977 -0.664125 -0.492816 0
M  V30 3834 H 377.523 -1.66823 -0.311149 0
M  V30 3835 H 376.295 -3.77187 -1.04144 0
M  V30 3836 H 375.918 -3.02199 -2.58383 0
M  V30 3837 N 376.915 0.57481 -1.46744 0
M  V30 3838 C 377.878 1.66533 -1.57478 0
M  V30 3839 C 378.878 1.54338 -0.451263 0
M  V30 3840 O 380.068 1.58814 -0.715813 0
M  V30 3841 C 377.2 3.05999 -1.50259 0
M  V30 3842 H 378.393 1.58372 -2.54673 0
M  V30 3843 H 375.946 0.793301 -1.34672 0
M  V30 3844 H 376.681 3.19709 -0.543725 0
M  V30 3845 H 376.466 3.16259 -2.31781 0
M  V30 3846 H 377.956 3.8537 -1.60872 0
M  V30 3847 N 378.394 1.34581 0.820102 0
M  V30 3848 C 379.357 1.2628 1.91275 0
M  V30 3849 C 380.357 0.177344 1.59819 0
M  V30 3850 O 381.547 0.430156 1.68806 0
M  V30 3851 C 378.679 0.950327 3.27386 0
M  V30 3852 H 379.872 2.23421 2.00057 0
M  V30 3853 H 377.425 1.1891 1.0144 0
M  V30 3854 H 378.16 -0.0177938 3.24295 0
M  V30 3855 H 377.945 1.73549 3.51601 0
M  V30 3856 H 379.435 0.917492 4.07396 0
M  V30 3857 N 379.872 -1.04064 1.18357 0
M  V30 3858 C 381.283 -1.58719 0.98312 0
M  V30 3859 C 381.634 -1.90556 -0.467193 0
M  V30 3860 O 380.759 -1.69561 -1.34454 0
M  V30 3861 C 381.354 -2.88379 1.77828 0
M  V30 3862 C 379.913 -3.3965 1.62218 0
M  V30 3863 C 379.06 -2.13235 1.77274 0
M  V30 3864 H 382.011 -0.867359 1.32901 0
M  V30 3865 H 382.032 -3.58773 1.26737 0
M  V30 3866 H 381.544 -2.65176 2.83379 0
M  V30 3867 H 379.645 -3.67866 0.592036 0
M  V30 3868 H 379.758 -4.13475 2.42023 0
M  V30 3869 H 378.122 -2.24542 1.20221 0
M  V30 3870 H 378.905 -1.92487 2.8426 0
M  V30 3871 N 381.35 -0.985608 -1.22978 0
M  V30 3872 C 382.596 -0.667998 -1.92118 0
M  V30 3873 C 382.951 0.790454 -1.75413 0
M  V30 3874 O 382.244 1.56336 -1.10768 0
M  V30 3875 C 382.438 -1.00014 -3.43121 0
M  V30 3876 C 382.267 -2.48933 -3.74516 0
M  V30 3877 C 381.037 -3.15218 -3.94925 0
M  V30 3878 C 383.235 -3.47024 -3.79577 0
M  V30 3879 N 381.217 -4.53689 -4.13569 0
M  V30 3880 C 382.588 -4.70923 -4.03276 0
M  V30 3881 C 384.643 -3.41432 -3.62393 0
M  V30 3882 C 383.346 -5.89914 -4.11574 0
M  V30 3883 C 385.372 -4.59793 -3.71947 0
M  V30 3884 C 384.734 -5.82489 -3.96088 0
M  V30 3885 H 380.833 -0.295589 -0.723983 0
M  V30 3886 H 383.417 -1.26413 -1.4808 0
M  V30 3887 H 381.588 -0.432655 -3.85983 0
M  V30 3888 H 383.32 -0.63927 -3.99619 0
M  V30 3889 H 380.075 -2.65702 -3.92045 0
M  V30 3890 H 380.499 -5.25492 -4.26834 0
M  V30 3891 H 385.141 -2.47594 -3.4272 0
M  V30 3892 H 382.859 -6.84164 -4.30053 0
M  V30 3893 H 386.445 -4.57048 -3.59998 0
M  V30 3894 H 385.325 -6.72546 -4.033 0
M  V30 3895 N 382.828 1.3818 -0.7579 0
M  V30 3896 C 383.738 2.3421 -0.135247 0
M  V30 3897 C 384.754 1.59487 0.695683 0
M  V30 3898 O 385.93 1.91657 0.618832 0
M  V30 3899 C 382.995 3.3862 0.744139 0
M  V30 3900 C 382.056 4.2918 -0.101658 0
M  V30 3901 C 381.289 5.28603 0.735851 0
M  V30 3902 O 381.512 5.35166 1.97366 0
M  V30 3903 O 380.446 6.01707 0.152372 0
M  V30 3904 H 384.272 2.8916 -0.928436 0
M  V30 3905 H 381.857 1.40101 -0.518855 0
M  V30 3906 H 383.739 4.02539 1.2466 0
M  V30 3907 H 382.414 2.86019 1.51575 0
M  V30 3908 H 381.321 3.68407 -0.650167 0
M  V30 3909 H 382.654 4.85048 -0.836024 0
M  V30 3910 N 384.306 0.507319 1.49211 0
M  V30 3911 C 385.216 -0.272136 2.33016 0
M  V30 3912 C 386.232 -0.961206 1.45041 0
M  V30 3913 O 387.408 -0.941191 1.78055 0
M  V30 3914 C 384.473 -1.31895 3.20631 0
M  V30 3915 C 383.534 -0.642648 4.24463 0
M  V30 3916 C 382.767 -1.63959 5.07891 0
M  V30 3917 O 382.99 -2.87007 4.92933 0
M  V30 3918 O 381.924 -1.19143 5.8999 0
M  V30 3919 H 385.75 0.413982 3.00865 0
M  V30 3920 H 383.335 0.268556 1.46966 0
M  V30 3921 H 385.217 -1.92446 3.7489 0
M  V30 3922 H 383.892 -1.98788 2.5547 0
M  V30 3923 H 382.799 0.00276252 3.741 0
M  V30 3924 H 384.132 -0.0160534 4.92197 0
M  V30 3925 N 385.784 -1.5574 0.241426 0
M  V30 3926 C 387.2 -1.59196 -0.113548 0
M  V30 3927 C 387.4 -1.25852 -1.57364 0
M  V30 3928 O 386.456 -1.00322 -2.31715 0
M  V30 3929 C 387.769 -2.99814 0.230695 0
M  V30 3930 C 389.317 -3.12513 0.174547 0
M  V30 3931 C 389.792 -4.55342 0.492744 0
M  V30 3932 N 391.283 -4.61076 0.443043 0
M  V30 3933 C 392.018 -5.6956 0.662484 0
M  V30 3934 N 391.514 -6.86328 0.944761 0
M  V30 3935 N 393.307 -5.58957 0.593564 0
M  V30 3936 H 385.458 -1.75685 1.19368 0
M  V30 3937 H 387.721 -0.81756 0.479896 0
M  V30 3938 H 387.427 -3.28932 1.24485 0
M  V30 3939 H 387.301 -3.74568 -0.444833 0
M  V30 3940 H 389.688 -2.83179 -0.830277 0
M  V30 3941 H 389.769 -2.40045 0.883845 0
M  V30 3942 H 389.413 -4.85396 1.4951 0
M  V30 3943 H 389.343 -5.26062 -0.23797 0
M  V30 3944 H 391.834 -3.77179 0.233374 0
M  V30 3945 H 392.147 -7.64935 1.09977 0
M  V30 3946 H 390.492 -6.88025 0.982175 0
M  V30 3947 H 393.683 -4.66611 0.373123 0
M  V30 3948 H 393.856 -6.43433 0.767981 0
M  V30 3949 N 387.262 0.0317525 -1.57568 0
M  V30 3950 C 388.509 0.723104 -1.89149 0
M  V30 3951 C 388.837 1.75504 -0.838377 0
M  V30 3952 O 388.092 1.95037 0.160982 0
M  V30 3953 C 388.391 1.43167 -3.27472 0
M  V30 3954 C 388.057 0.535972 -4.47703 0
M  V30 3955 C 386.719 0.289262 -4.8033 0
M  V30 3956 C 389.071 -0.0826125 -5.21135 0
M  V30 3957 C 386.399 -0.584853 -5.83778 0
M  V30 3958 C 388.751 -0.944414 -6.25511 0
M  V30 3959 C 387.415 -1.20061 -6.56614 0
M  V30 3960 H 386.685 0.264602 -0.692146 0
M  V30 3961 H 389.332 -0.0169496 -1.91492 0
M  V30 3962 H 387.637 2.24497 -3.21105 0
M  V30 3963 H 389.334 1.97209 -3.49155 0
M  V30 3964 H 385.924 0.738414 -4.22191 0
M  V30 3965 H 390.108 0.0950302 -4.96209 0
M  V30 3966 H 385.364 -0.79168 -6.06253 0
M  V30 3967 H 389.538 -1.43026 -6.81554 0
M  V30 3968 H 387.165 -1.87967 -7.36595 0
M  V30 3969 N 388.74 1.54641 0.303973 0
M  V30 3970 C 390.156 1.45788 0.649463 0
M  V30 3971 C 390.356 0.64666 1.90842 0
M  V30 3972 O 389.412 0.153183 2.52035 0
M  V30 3973 C 390.725 2.89718 0.805227 0
M  V30 3974 C 392.273 2.99742 0.901305 0
M  V30 3975 C 392.748 4.44863 1.08909 0
M  V30 3976 N 394.239 4.48559 1.15536 0
M  V30 3977 C 394.974 5.58026 1.3189 0
M  V30 3978 N 394.47 6.77422 1.45161 0
M  V30 3979 N 396.263 5.45708 1.34755 0
M  V30 3980 H 388.414 2.05854 -0.523237 0
M  V30 3981 H 390.677 0.932186 -0.172431 0
M  V30 3982 H 390.383 3.51666 -0.0489108 0
M  V30 3983 H 390.257 3.36964 1.69513 0
M  V30 3984 H 392.644 2.3791 1.74593 0
M  V30 3985 H 392.725 2.55797 -0.0125531 0
M  V30 3986 H 392.369 5.07288 0.249241 0
M  V30 3987 H 392.299 4.86436 2.01713 0
M  V30 3988 H 394.79 3.6254 1.06646 0
M  V30 3989 H 395.103 7.56604 1.57387 0
M  V30 3990 H 393.448 6.80292 1.42223 0
M  V30 3991 H 396.639 4.51378 1.23996 0
M  V30 3992 H 396.812 6.3107 1.47157 0
M  V30 3993 N 390.218 -0.567019 1.47046 0
M  V30 3994 C 391.495 -1.3276 1.43646 0
M  V30 3995 C 391.875 -2.1071 0.128186 0
M  V30 3996 O 391.223 -2.10441 -0.890326 0
M  V30 3997 C 391.433 -2.2404 2.67595 0
M  V30 3998 C 392.781 -2.85372 3.14401 0
M  V30 3999 O 393.805 -2.34346 2.68254 0
M  V30 4000 O 392.664 -3.78091 3.946 0
M  V30 4001 H 389.758 -0.597293 0.571988 0
M  V30 4002 H 392.304 -0.586735 1.59234 0
M  V30 4003 H 391.076 -1.65975 3.54356 0
M  V30 4004 H 390.699 -3.05439 2.54544 0
M  V30 4005 N 391.696 -1.35014 -0.812953 0
M  V30 4006 C 392.659 -1.27292 -1.90602 0
M  V30 4007 C 393.659 -0.185817 -1.59723 0
M  V30 4008 O 394.849 -0.439102 -1.68575 0
M  V30 4009 C 391.981 -0.967676 -3.26877 0
M  V30 4010 H 393.174 -2.24479 -1.9887 0
M  V30 4011 H 390.727 -1.19446 -1.00808 0
M  V30 4012 H 391.462 0.0005954 -3.243 0
M  V30 4013 H 391.247 -1.75412 -3.50675 0
M  V30 4014 H 392.737 -0.939085 -4.06904 0
M  V30 4015 N 393.175 1.03435 -1.18907 0
M  V30 4016 C 394.105 2.13503 -0.945448 0
M  V30 4017 C 395.086 1.69682 0.119189 0
M  V30 4018 O 396.271 1.94169 -0.034707 0
M  V30 4019 C 393.401 3.44004 -0.477316 0
M  V30 4020 C 392.355 4.0148 -1.48316 0
M  V30 4021 C 391.681 5.27537 -0.872311 0
M  V30 4022 C 392.981 4.36921 -2.86177 0
M  V30 4023 H 394.675 2.34141 -1.86597 0
M  V30 4024 H 392.221 1.12523 -0.898584 0
M  V30 4025 H 394.174 4.20372 -0.294204 0
M  V30 4026 H 392.898 3.23072 0.478786 0
M  V30 4027 H 391.557 3.27201 -1.65332 0
M  V30 4028 H 391.205 5.02917 0.0911752 0
M  V30 4029 H 390.905 5.66954 -1.54393 0
M  V30 4030 H 392.429 6.06576 -0.699871 0
M  V30 4031 H 393.843 5.04248 -2.72776 0
M  V30 4032 H 392.24 4.87405 -3.50081 0
M  V30 4033 H 393.31 3.46466 -3.39248 0
M  V30 4034 N 394.653 0.992116 1.22453 0
M  V30 4035 C 395.899 0.668523 1.91464 0
M  V30 4036 C 396.232 -0.797313 1.77078 0
M  V30 4037 O 395.507 -1.5765 1.13916 0
M  V30 4038 C 395.79 1.07424 3.43703 0
M  V30 4039 C 395.643 2.59857 3.67143 0
M  V30 4040 C 396.962 0.626891 4.35612 0
M  V30 4041 H 394.081 0.244341 0.695318 0
M  V30 4042 H 396.723 1.2355 1.44345 0
M  V30 4043 H 394.873 0.591816 3.83966 0
M  V30 4044 H 396.545 3.15764 3.3629 0
M  V30 4045 H 394.788 3.01961 3.11451 0
M  V30 4046 H 395.459 2.83296 4.73759 0
M  V30 4047 H 397.935 1.04125 4.02861 0
M  V30 4048 H 396.811 0.939076 5.40807 0
M  V30 4049 H 397.072 -0.472457 4.39568 0
M  V30 4050 N 396.131 -1.37776 0.765217 0
M  V30 4051 C 397.041 -2.34135 0.147666 0
M  V30 4052 C 398.057 -1.59854 -0.687215 0
M  V30 4053 O 399.233 -1.91983 -0.608659 0
M  V30 4054 C 396.298 -3.3901 -0.72617 0
M  V30 4055 C 395.359 -4.2912 0.124417 0
M  V30 4056 C 394.592 -5.28986 -0.707807 0
M  V30 4057 O 394.815 -5.36205 -1.94525 0
M  V30 4058 O 393.749 -6.01779 -0.12046 0
M  V30 4059 H 397.575 -2.88664 0.943758 0
M  V30 4060 H 395.16 -1.39824 0.526277 0
M  V30 4061 H 397.042 -4.03195 -1.22524 0
M  V30 4062 H 395.717 -2.86819 -1.50056 0
M  V30 4063 H 394.624 -3.68057 0.669696 0
M  V30 4064 H 395.957 -4.84598 0.861736 0
M  V30 4065 N 397.609 -0.515225 -1.4894 0
M  V30 4066 C 398.858 0.0261361 -2.01683 0
M  V30 4067 C 399.171 1.36719 -1.39883 0
M  V30 4068 O 400.377 1.99606 -1.84037 0
M  V30 4069 C 398.833 0.0970111 -3.59769 0
M  V30 4070 C 398.441 -1.23825 -4.30548 0
M  V30 4071 C 400.185 0.587981 -4.20408 0
M  V30 4072 C 398.092 -1.12877 -5.80528 0
M  V30 4073 H 397.022 0.0135398 -0.753878 0
M  V30 4074 H 399.673 -0.656787 -1.71343 0
M  V30 4075 H 398.055 0.844694 -3.86886 0
M  V30 4076 H 399.229 -2.00034 -4.15118 0
M  V30 4077 H 397.544 -1.66379 -3.81716 0
M  V30 4078 H 400.141 0.68763 -5.3026 0
M  V30 4079 H 400.484 1.59026 -3.84729 0
M  V30 4080 H 401.017 -0.103582 -3.97665 0
M  V30 4081 H 397.756 -2.10575 -6.20756 0
M  V30 4082 H 397.276 -0.407799 -5.98412 0
M  V30 4083 H 398.955 -0.813332 -6.41868 0
M  V30 4084 N 399.087 1.5561 -0.249682 0
M  V30 4085 C 400.05 2.20217 0.635394 0
M  V30 4086 C 401.05 1.17227 1.10066 0
M  V30 4087 O 402.24 1.42292 1.00492 0
M  V30 4088 C 399.372 2.84794 1.87363 0
M  V30 4089 H 400.565 2.99814 0.0716752 0
M  V30 4090 H 398.118 1.563 -0.000153234 0
M  V30 4091 H 398.853 2.09142 2.47851 0
M  V30 4092 H 398.638 3.60241 1.5482 0
M  V30 4093 H 400.128 3.3423 2.5036 0
M  V30 4094 N 400.565 -0.0233959 1.57583 0
M  V30 4095 C 401.475 -1.03907 2.10334 0
M  V30 4096 C 402.491 -1.39257 1.04323 0
M  V30 4097 O 403.667 -1.48462 1.36091 0
M  V30 4098 C 400.732 -2.31938 2.57693 0
M  V30 4099 C 399.793 -2.03117 3.78209 0
M  V30 4100 C 399.026 -3.25043 4.233 0
M  V30 4101 O 399.249 -4.35916 3.67876 0
M  V30 4102 O 398.183 -3.10411 5.15683 0
M  V30 4103 H 402.009 -0.620748 2.97288 0
M  V30 4104 H 399.594 -0.240743 1.47448 0
M  V30 4105 H 401.476 -3.07196 2.88458 0
M  V30 4106 H 400.151 -2.73055 1.73847 0
M  V30 4107 H 399.058 -1.25408 3.52454 0
M  V30 4108 H 400.391 -1.66852 4.63056 0
M  V30 4109 N 402.043 -1.548 -0.295768 0
M  V30 4110 C 402.993 -1.82497 -1.3667 0
M  V30 4111 C 403.977 -0.682434 -1.45711 0
M  V30 4112 O 405.169 -0.943207 -1.49775 0
M  V30 4113 C 402.298 -2.08036 -2.73086 0
M  V30 4114 C 401.384 -3.28488 -2.68247 0
M  V30 4115 N 401.775 -4.48924 -2.33025 0
M  V30 4116 C 400.073 -3.3062 -2.99343 0
M  V30 4117 C 400.774 -5.30956 -2.37613 0
M  V30 4118 N 399.75 -4.68805 -2.75178 0
M  V30 4119 H 403.552 -2.73175 -1.0841 0
M  V30 4120 H 401.066 -1.5437 -0.504361 0
M  V30 4121 H 403.063 -2.26027 -3.5031 0
M  V30 4122 H 401.723 -1.18629 -3.02254 0
M  V30 4123 H 402.734 -4.75432 -2.05389 0
M  V30 4124 H 399.411 -2.51336 -3.33371 0
M  V30 4125 H 400.801 -6.37199 -2.13135 0
M  V30 4126 N 403.521 0.559213 -1.47345 0
M  V30 4127 C 404.769 1.31388 -1.53563 0
M  V30 4128 C 405.09 1.93985 -0.198678 0
M  V30 4129 O 404.36 1.79825 0.777167 0
M  V30 4130 H 402.94 0.487901 -0.565652 0
M  V30 4131 H 405.602 0.65315 -1.8363 0
M  V30 4132 H 404.698 2.10844 -2.30111 0
M  V30 4133 N 404.999 1.35443 0.805782 0
M  V30 4134 C 406.276 1.19325 1.54987 0
M  V30 4135 C 406.656 -0.227294 2.09873 0
M  V30 4136 O 406.004 -1.2309 1.92512 0
M  V30 4137 C 406.214 2.26196 2.65775 0
M  V30 4138 C 407.562 2.62043 3.34094 0
M  V30 4139 O 408.586 2.25115 2.76046 0
M  V30 4140 O 407.445 3.25542 4.38958 0
M  V30 4141 H 404.539 0.463623 0.684823 0
M  V30 4142 H 407.085 1.47127 0.845674 0
M  V30 4143 H 405.857 3.21471 2.23096 0
M  V30 4144 H 405.48 1.99667 3.43829 0
M  V30 4145 N 406.477 -1.02803 1.19454 0
M  V30 4146 C 407.723 -1.76598 1.0092 0
M  V30 4147 C 408.078 -1.86939 -0.455142 0
M  V30 4148 O 407.371 -1.37575 -1.33355 0
M  V30 4149 C 407.565 -3.18941 1.6128 0
M  V30 4150 C 407.394 -3.22476 3.13431 0
M  V30 4151 C 406.164 -3.30375 3.82336 0
M  V30 4152 C 408.362 -3.09451 4.10785 0
M  V30 4153 N 406.344 -3.23292 5.21877 0
M  V30 4154 C 407.715 -3.10012 5.36929 0
M  V30 4155 C 409.77 -2.93585 4.02135 0
M  V30 4156 C 408.473 -2.96334 6.55423 0
M  V30 4157 C 410.499 -2.81256 5.20239 0
M  V30 4158 C 409.861 -2.82472 6.45282 0
M  V30 4159 H 405.96 -0.657447 0.423424 0
M  V30 4160 H 408.544 -1.22369 1.5144 0
M  V30 4161 H 406.715 -3.71489 1.1336 0
M  V30 4162 H 408.447 -3.81102 1.36173 0
M  V30 4163 H 405.202 -3.3663 3.33132 0
M  V30 4164 H 405.626 -3.23156 5.94894 0
M  V30 4165 H 410.268 -2.91466 3.0628 0
M  V30 4166 H 407.986 -2.97203 7.51463 0
M  V30 4167 H 411.572 -2.70014 5.15348 0
M  V30 4168 H 410.452 -2.73036 7.35133 0
M  V30 4169 N 407.956 -0.998596 -1.21925 0
M  V30 4170 C 408.919 -0.558679 -2.22287 0
M  V30 4171 C 409.919 0.361525 -1.56683 0
M  V30 4172 O 411.109 0.152695 -1.73529 0
M  V30 4173 C 408.241 0.18661 -3.40389 0
M  V30 4174 H 409.434 -1.4463 -2.62721 0
M  V30 4175 H 406.987 -0.786413 -1.35075 0
M  V30 4176 H 407.722 1.08996 -3.05435 0
M  V30 4177 H 407.507 -0.474188 -3.89222 0
M  V30 4178 H 408.997 0.482367 -4.14805 0
M  V30 4179 N 409.434 1.37368 -0.772513 0
M  V30 4180 C 410.381 2.30262 -0.157488 0
M  V30 4181 C 411.351 1.51137 0.688965 0
M  V30 4182 O 412.536 1.79704 0.641168 0
M  V30 4183 C 409.676 3.37611 0.715045 0
M  V30 4184 C 408.789 4.31746 -0.148098 0
M  V30 4185 C 407.924 5.26171 0.729213 0
M  V30 4186 C 406.963 6.11948 -0.136418 0
M  V30 4187 N 406.1 6.98613 0.698914 0
M  V30 4188 H 410.94 2.82277 -0.955179 0
M  V30 4189 H 408.477 1.38957 -0.482631 0
M  V30 4190 H 410.435 3.98479 1.23575 0
M  V30 4191 H 409.065 2.86959 1.47833 0
M  V30 4192 H 408.117 3.72178 -0.786613 0
M  V30 4193 H 409.429 4.92084 -0.81579 0
M  V30 4194 H 408.583 5.92247 1.31637 0
M  V30 4195 H 407.322 4.66246 1.43059 0
M  V30 4196 H 406.327 5.4485 -0.736102 0
M  V30 4197 H 407.552 6.73945 -0.835134 0
M  V30 4198 H 405.498 6.41215 1.38489 0
M  V30 4199 H 405.415 7.55948 0.0885358 0
M  V30 4200 H 406.683 7.69077 1.27044 0
M  V30 4201 N 410.912 0.523116 1.48665 0
M  V30 4202 C 412.14 -0.0096312 2.06898 0
M  V30 4203 C 412.555 -1.28784 1.38059 0
M  V30 4204 O 411.912 -1.76453 0.465893 0
M  V30 4205 C 411.963 -0.244386 3.60673 0
M  V30 4206 O 411.684 0.983172 4.26925 0
M  V30 4207 C 413.185 -0.818289 4.35682 0
M  V30 4208 H 410.405 0.0304161 0.67031 0
M  V30 4209 H 412.949 0.726799 1.91149 0
M  V30 4210 H 411.104 -0.930847 3.76051 0
M  V30 4211 H 411.518 0.759653 5.1897 0
M  V30 4212 H 412.992 -0.93201 5.44075 0
M  V30 4213 H 413.469 -1.82153 3.99646 0
M  V30 4214 H 414.075 -0.168609 4.24966 0
M  V30 4215 N 412.39 -1.55475 0.257931 0
M  V30 4216 C 413.32 -2.24815 -0.630912 0
M  V30 4217 C 414.301 -1.23224 -1.17259 0
M  V30 4218 O 415.486 -1.51904 -1.20991 0
M  V30 4219 C 412.616 -2.95609 -1.82298 0
M  V30 4220 C 411.57 -4.03982 -1.41359 0
M  V30 4221 C 410.896 -4.6226 -2.68738 0
M  V30 4222 C 412.196 -5.19109 -0.57648 0
M  V30 4223 H 413.89 -2.99354 -0.0526878 0
M  V30 4224 H 411.436 -1.4398 -0.023901 0
M  V30 4225 H 413.389 -3.42822 -2.45054 0
M  V30 4226 H 412.113 -2.18577 -2.42676 0
M  V30 4227 H 410.772 -3.57555 -0.809324 0
M  V30 4228 H 410.42 -3.81915 -3.27338 0
M  V30 4229 H 410.12 -5.35424 -2.42065 0
M  V30 4230 H 411.644 -5.12212 -3.32372 0
M  V30 4231 H 413.058 -5.62479 -1.10861 0
M  V30 4232 H 411.455 -5.98729 -0.405351 0
M  V30 4233 H 412.525 -4.83174 0.408776 0
M  V30 4234 N 413.868 0.0150385 -1.57593 0
M  V30 4235 C 414.831 0.995996 -2.06428 0
M  V30 4236 C 415.831 1.2818 -0.970903 0
M  V30 4237 O 417.021 1.22949 -1.23406 0
M  V30 4238 C 414.153 2.32506 -2.49307 0
M  V30 4239 H 415.346 0.573873 -2.94358 0
M  V30 4240 H 412.899 0.262186 -1.54085 0
M  V30 4241 H 413.634 2.79438 -1.64575 0
M  V30 4242 H 413.419 2.13087 -3.29145 0
M  V30 4243 H 414.909 3.02906 -2.87468 0
M  V30 4244 N 415.346 1.54954 0.287554 0
M  V30 4245 C 416.592 1.75132 1.02257 0
M  V30 4246 C 416.925 0.542858 1.86458 0
M  V30 4247 O 416.2 -0.459856 1.88986 0
M  V30 4248 C 416.483 3.04812 1.91733 0
M  V30 4249 C 416.336 4.35985 1.10622 0
M  V30 4250 C 417.655 3.30438 2.90687 0
M  V30 4251 H 414.774 0.637194 0.370341 0
M  V30 4252 H 417.416 1.87678 0.296111 0
M  V30 4253 H 415.566 2.94247 2.53675 0
M  V30 4254 H 417.238 4.58487 0.508636 0
M  V30 4255 H 415.481 4.31865 0.409271 0
M  V30 4256 H 416.152 5.23017 1.76513 0
M  V30 4257 H 418.628 3.40701 2.38877 0
M  V30 4258 H 417.504 4.22467 3.50447 0
M  V30 4259 H 417.765 2.49377 3.65053 0
M  V30 4260 N 416.824 -0.551391 1.4764 0
M  V30 4261 C 418.054 -1.33163 1.57959 0
M  V30 4262 C 418.462 -1.87785 0.23094 0
M  V30 4263 O 417.805 -1.65996 -0.786825 0
M  V30 4264 C 417.867 -2.53449 2.54958 0
M  V30 4265 C 417.531 -2.20071 4.00522 0
M  V30 4266 C 418.528 -1.77017 4.88836 0
M  V30 4267 C 416.213 -2.31252 4.45901 0
M  V30 4268 C 418.207 -1.4558 6.20552 0
M  V30 4269 C 415.894 -1.99427 5.77644 0
M  V30 4270 C 416.892 -1.56659 6.64791 0
M  V30 4271 O 416.58 -1.25242 7.94084 0
M  V30 4272 H 416.312 -0.412022 0.535923 0
M  V30 4273 H 418.866 -0.674186 1.9402 0
M  V30 4274 H 417.096 -3.22104 2.13976 0
M  V30 4275 H 418.785 -3.15523 2.55343 0
M  V30 4276 H 419.551 -1.67867 4.55023 0
M  V30 4277 H 415.43 -2.63498 3.78272 0
M  V30 4278 H 418.974 -1.12125 6.8853 0
M  V30 4279 H 414.871 -2.08211 6.10998 0
M  V30 4280 H 415.639 -1.38822 8.06642 0
M  V30 4281 N 418.302 -1.35869 -0.798587 0
M  V30 4282 C 419.713 -1.26498 -1.37314 0
M  V30 4283 C 420.064 0.0991899 -1.95949 0
M  V30 4284 O 419.189 1.0004 -1.91888 0
M  V30 4285 C 419.784 -2.29054 -2.49639 0
M  V30 4286 C 418.343 -2.234 -3.02935 0
M  V30 4287 C 417.49 -2.14329 -1.75949 0
M  V30 4288 H 420.441 -1.46881 -0.600971 0
M  V30 4289 H 420.462 -1.92166 -3.28409 0
M  V30 4290 H 419.974 -3.2833 -2.06933 0
M  V30 4291 H 418.075 -1.27562 -3.50084 0
M  V30 4292 H 418.188 -3.15703 -3.60372 0
M  V30 4293 H 416.552 -1.60435 -1.9782 0
M  V30 4294 H 417.335 -3.15477 -1.35384 0
M  V30 4295 N 419.78 1.02168 -1.19998 0
M  V30 4296 C 421.196 1.27969 -0.953737 0
M  V30 4297 C 421.396 1.98079 0.369703 0
M  V30 4298 O 420.452 2.27306 1.09947 0
M  V30 4299 C 421.765 2.11971 -2.13281 0
M  V30 4300 C 423.313 2.25255 -2.17323 0
M  V30 4301 C 423.788 3.12632 -3.34702 0
M  V30 4302 N 425.279 3.2022 -3.34684 0
M  V30 4303 C 426.014 3.88039 -4.22153 0
M  V30 4304 N 425.51 4.58027 -5.19791 0
M  V30 4305 N 427.303 3.84511 -4.10009 0
M  V30 4306 H 419.454 0.550794 -2.05134 0
M  V30 4307 H 421.717 0.305683 -0.897364 0
M  V30 4308 H 421.423 1.67785 -3.09097 0
M  V30 4309 H 421.297 3.12699 -2.10949 0
M  V30 4310 H 423.684 2.68667 -1.22073 0
M  V30 4311 H 423.765 1.24053 -2.23706 0
M  V30 4312 H 423.409 2.69926 -4.30235 0
M  V30 4313 H 423.339 4.13909 -3.25556 0
M  V30 4314 H 425.83 2.70382 -2.64012 0
M  V30 4315 H 426.143 5.07429 -5.82868 0
M  V30 4316 H 424.488 4.56869 -5.23733 0
M  V30 4317 H 427.679 3.28978 -3.33003 0
M  V30 4318 H 427.852 4.3709 -4.78389 0
M  V30 4319 N 421.258 1.00505 1.21394 0
M  V30 4320 C 422.674 0.717873 1.42544 0
M  V30 4321 C 422.874 -0.706936 1.88692 0
M  V30 4322 O 421.93 -1.47627 2.04847 0
M  V30 4323 C 423.243 1.73377 2.45684 0
M  V30 4324 C 424.791 1.75059 2.59467 0
M  V30 4325 C 425.266 2.75545 3.6584 0
M  V30 4326 N 426.757 2.74213 3.73311 0
M  V30 4327 C 427.492 3.48626 4.55245 0
M  V30 4328 N 426.988 4.32678 5.41075 0
M  V30 4329 N 428.781 3.37276 4.49668 0
M  V30 4330 H 420.932 1.92506 0.897503 0
M  V30 4331 H 423.195 0.830919 0.456375 0
M  V30 4332 H 422.901 2.75395 2.18748 0
M  V30 4333 H 422.775 1.53647 3.44489 0
M  V30 4334 H 425.162 0.737337 2.8574 0
M  V30 4335 H 425.243 1.98861 1.60897 0
M  V30 4336 H 424.887 3.77028 3.40313 0
M  V30 4337 H 424.817 2.49009 4.64007 0
M  V30 4338 H 427.308 2.13234 3.11993 0
M  V30 4339 H 427.621 4.86253 6.00648 0
M  V30 4340 H 425.966 4.3676 5.40616 0
M  V30 4341 H 429.157 2.71043 3.81646 0
M  V30 4342 H 429.33 3.95524 5.13288 0
M  V30 4343 N 422.737 -1.36956 0.779787 0
M  V30 4344 C 423.647 -2.33965 0.172491 0
M  V30 4345 C 424.663 -1.60574 -0.670222 0
M  V30 4346 O 425.839 -1.92617 -0.588263 0
M  V30 4347 C 422.904 -3.39761 -0.690173 0
M  V30 4348 C 421.965 -4.28964 0.169924 0
M  V30 4349 C 421.198 -5.29707 -0.651662 0
M  V30 4350 O 421.421 -5.38238 -1.88827 0
M  V30 4351 O 420.355 -6.01873 -0.0566264 0
M  V30 4352 H 424.181 -2.87647 0.974321 0
M  V30 4353 H 421.766 -1.39258 0.541078 0
M  V30 4354 H 423.648 -4.04471 -1.1824 0
M  V30 4355 H 422.323 -2.88394 -1.47006 0
M  V30 4356 H 421.23 -3.67326 0.708696 0
M  V30 4357 H 422.563 -4.83656 0.913085 0
M  V30 4358 N 424.215 -0.530993 -1.48385 0
M  V30 4359 C 425.165 0.251092 -2.26613 0
M  V30 4360 C 426.149 0.908977 -1.32765 0
M  V30 4361 O 427.341 0.811616 -1.57295 0
M  V30 4362 C 424.47 1.29677 -3.17866 0
M  V30 4363 C 423.556 0.643627 -4.19188 0
M  V30 4364 N 423.947 -0.271223 -5.05072 0
M  V30 4365 C 422.245 0.900711 -4.3681 0
M  V30 4366 C 422.946 -0.648109 -5.78078 0
M  V30 4367 N 421.922 -0.00895987 -5.43599 0
M  V30 4368 H 425.724 -0.452702 -2.90393 0
M  V30 4369 H 423.238 -0.349091 -1.58604 0
M  V30 4370 H 425.235 1.87079 -3.72568 0
M  V30 4371 H 423.895 2.00193 -2.55642 0
M  V30 4372 H 424.906 -0.643883 -5.13882 0
M  V30 4373 H 421.583 1.59636 -3.85775 0
M  V30 4374 H 422.973 -1.39833 -6.57188 0
M  V30 4375 N 425.693 1.55336 -0.266172 0
M  V30 4376 C 427.104 1.85236 0.233315 0
M  V30 4377 C 427.455 1.18816 1.56132 0
M  V30 4378 O 426.58 0.473307 2.11161 0
M  V30 4379 C 427.175 3.36059 0.430113 0
M  V30 4380 C 425.734 3.66116 0.873842 0
M  V30 4381 C 424.881 2.77274 -0.0380016 0
M  V30 4382 H 427.832 1.51004 -0.488214 0
M  V30 4383 H 427.853 3.58681 1.26998 0
M  V30 4384 H 427.365 3.84373 -0.536588 0
M  V30 4385 H 425.466 3.23295 1.85233 0
M  V30 4386 H 425.579 4.73699 0.717358 0
M  V30 4387 H 423.943 2.50198 0.476759 0
M  V30 4388 H 424.726 3.284 -1.00042 0
M  V30 4389 N 427.171 -0.0066808 1.57599 0
M  V30 4390 C 428.119 -1.01851 2.09115 0
M  V30 4391 C 429.113 -1.36021 1.00969 0
M  V30 4392 O 430.319 -1.34663 1.19439 0
M  V30 4393 H 426.694 -0.346083 0.667631 0
M  V30 4394 H 428.665 -0.558394 2.93129 0
M  V30 4395 C 427.414 -2.30374 2.60429 0
M  V30 4396 H 426.737 -2.04947 3.43273 0
M  V30 4397 H 428.177 -2.99466 3.00161 0
M  V30 4398 C 426.636 -3.00893 1.51542 0
M  V30 4399 O 427.166 -3.91614 0.894484 0
M  V30 4400 N 425.372 -2.62603 1.2445 0
M  V30 4401 H 424.919 -1.88911 1.75129 0
M  V30 4402 H 424.877 -3.10101 0.518137 0
M  V30 4403 N 428.649 -1.55105 -0.279332 0
M  V30 4404 C 430.06 -1.66186 -0.850832 0
M  V30 4405 C 430.411 -0.584707 -1.87285 0
M  V30 4406 O 429.536 0.274919 -2.14647 0
M  V30 4407 C 430.131 -3.01264 -1.55001 0
M  V30 4408 C 428.69 -3.14394 -2.06963 0
M  V30 4409 C 427.837 -2.61959 -0.909536 0
M  V30 4410 H 430.788 -1.58602 -0.0558235 0
M  V30 4411 H 430.809 -2.93899 -2.41669 0
M  V30 4412 H 430.321 -3.7964 -0.805931 0
M  V30 4413 H 428.422 -2.4078 -2.84352 0
M  V30 4414 H 428.535 -4.20867 -2.28928 0
M  V30 4415 H 426.899 -2.18957 -1.30116 0
M  V30 4416 H 427.682 -3.42833 -0.179062 0
M  V30 4417 N 430.127 0.543554 -1.4793 0
M  V30 4418 C 431.538 1.12561 -1.48953 0
M  V30 4419 C 431.889 1.94578 -0.251754 0
M  V30 4420 O 431.014 2.0665 0.642255 0
M  V30 4421 C 431.609 2.04801 -2.69892 0
M  V30 4422 C 430.168 2.58251 -2.73831 0
M  V30 4423 C 429.315 1.34918 -2.42265 0
M  V30 4424 H 432.266 0.32947 -1.55242 0
M  V30 4425 H 432.287 2.88886 -2.47639 0
M  V30 4426 H 431.799 1.4508 -3.59963 0
M  V30 4427 H 429.9 3.21732 -1.87934 0
M  V30 4428 H 430.013 2.98312 -3.74895 0
M  V30 4429 H 428.377 1.66046 -1.93134 0
M  V30 4430 H 429.16 0.769693 -3.3456 0
M  V30 4431 N 431.605 1.3629 0.791371 0
M  V30 4432 C 432.851 1.30605 1.55146 0
M  V30 4433 C 433.184 -0.115042 1.93859 0
M  V30 4434 O 432.459 -1.06798 1.62556 0
M  V30 4435 C 432.742 2.22692 2.82985 0
M  V30 4436 C 432.595 3.73489 2.50651 0
M  V30 4437 C 433.914 2.13588 3.84796 0
M  V30 4438 H 431.033 0.475761 0.562868 0
M  V30 4439 H 433.675 1.66825 0.909358 0
M  V30 4440 H 431.825 1.91933 3.37778 0
M  V30 4441 H 433.497 4.14758 2.01924 0
M  V30 4442 H 431.74 3.93021 1.83622 0
M  V30 4443 H 432.411 4.3333 3.41949 0
M  V30 4444 H 434.887 2.40659 3.39445 0
M  V30 4445 H 433.763 2.80195 4.71998 0
M  V30 4446 H 434.024 1.12256 4.27611 0
M  V30 4447 N 433.083 -1.0153 1.20538 0
M  V30 4448 C 434.311 -1.78746 1.04199 0
M  V30 4449 C 434.726 -1.84323 -0.408733 0
M  V30 4450 O 434.083 -1.29714 -1.28377 0
M  V30 4451 C 434.134 -3.23152 1.62035 0
M  V30 4452 O 433.855 -3.17918 3.0143 0
M  V30 4453 C 435.356 -4.16911 1.50666 0
M  V30 4454 H 432.576 -0.56208 0.366479 0
M  V30 4455 H 435.12 -1.27794 1.59653 0
M  V30 4456 H 433.275 -3.71248 1.10697 0
M  V30 4457 H 433.689 -4.08567 3.28897 0
M  V30 4458 H 435.163 -5.16072 1.95892 0
M  V30 4459 H 435.64 -4.36791 0.459363 0
M  V30 4460 H 436.246 -3.74698 2.01201 0
M  V30 4461 N 434.561 -1.01147 -1.20859 0
M  V30 4462 C 435.786 -0.716698 -1.94623 0
M  V30 4463 C 436.211 0.715415 -1.73964 0
M  V30 4464 O 435.569 1.49157 -1.03062 0
M  V30 4465 C 435.617 -1.0513 -3.44935 0
M  V30 4466 O 434.721 -0.160131 -4.12089 0
M  V30 4467 H 434.062 -0.266404 -0.608214 0
M  V30 4468 H 436.592 -1.35346 -1.53436 0
M  V30 4469 H 436.602 -1.00086 -3.95533 0
M  V30 4470 H 435.277 -2.09475 -3.59295 0
M  V30 4471 H 433.854 -0.267657 -3.71938 0
M  V30 4472 N 436.039 1.36541 -0.78704 0
M  V30 4473 C 437.285 2.00044 -0.367938 0
M  V30 4474 C 437.64 1.61345 1.04812 0
M  V30 4475 O 436.933 0.856936 1.71368 0
M  V30 4476 C 437.127 3.54343 -0.466485 0
M  V30 4477 C 436.956 4.08029 -1.89058 0
M  V30 4478 C 435.726 4.38284 -2.51466 0
M  V30 4479 C 437.924 4.27954 -2.85236 0
M  V30 4480 N 435.906 4.77778 -3.85488 0
M  V30 4481 C 437.277 4.70227 -4.04088 0
M  V30 4482 C 439.332 4.10119 -2.82324 0
M  V30 4483 C 438.035 4.96532 -5.20432 0
M  V30 4484 C 440.061 4.37569 -3.97854 0
M  V30 4485 C 439.423 4.80095 -5.15449 0
M  V30 4486 H 435.522 0.760525 -0.182004 0
M  V30 4487 H 438.106 1.65589 -1.02413 0
M  V30 4488 H 436.277 3.88072 0.159606 0
M  V30 4489 H 438.009 4.04693 -0.0238577 0
M  V30 4490 H 434.764 4.27905 -2.02965 0
M  V30 4491 H 435.188 5.01813 -4.54437 0
M  V30 4492 H 439.83 3.76399 -1.92571 0
M  V30 4493 H 437.548 5.29134 -6.10773 0
M  V30 4494 H 441.134 4.25341 -3.96958 0
M  V30 4495 H 440.014 5.00925 -6.0336 0
M  V30 4496 N 437.518 0.538854 1.48102 0
M  V30 4497 C 438.451 -0.266495 2.26639 0
M  V30 4498 C 439.429 -0.93687 1.32897 0
M  V30 4499 O 440.613 -0.959507 1.62252 0
M  V30 4500 C 437.74 -1.37814 3.09394 0
M  V30 4501 C 436.786 -0.818247 4.18577 0
M  V30 4502 S 437.619 0.320848 5.34538 0
M  V30 4503 C 438.775 -0.793059 6.20855 0
M  V30 4504 H 439.008 0.399994 2.94597 0
M  V30 4505 H 436.541 0.324808 1.50945 0
M  V30 4506 H 438.499 -2.01488 3.57649 0
M  V30 4507 H 437.16 -2.01639 2.40833 0
M  V30 4508 H 436.353 -1.65247 4.7614 0
M  V30 4509 H 435.955 -0.258036 3.73109 0
M  V30 4510 H 438.247 -1.68961 6.56093 0
M  V30 4511 H 439.19 -0.255204 7.0764 0
M  V30 4512 H 439.598 -1.07746 5.54122 0
M  V30 4513 N 438.996 -1.55193 0.274407 0
M  V30 4514 C 439.926 -2.25471 -0.607032 0
M  V30 4515 C 440.907 -1.24461 -1.15946 0
M  V30 4516 O 442.092 -1.53179 -1.19373 0
M  V30 4517 C 439.222 -2.97526 -1.79153 0
M  V30 4518 C 438.176 -4.05459 -1.37067 0
M  V30 4519 C 437.502 -4.65084 -2.6382 0
M  V30 4520 C 438.802 -5.19691 -0.521389 0
M  V30 4521 H 440.496 -2.99393 -0.0209343 0
M  V30 4522 H 438.042 -1.43997 -0.00862866 0
M  V30 4523 H 439.995 -3.45402 -2.41404 0
M  V30 4524 H 438.719 -2.21138 -2.40344 0
M  V30 4525 H 437.378 -3.58393 -0.771355 0
M  V30 4526 H 437.026 -3.85365 -3.23268 0
M  V30 4527 H 436.726 -5.37961 -2.36372 0
M  V30 4528 H 438.25 -5.15708 -3.26921 0
M  V30 4529 H 439.664 -5.63623 -1.04889 0
M  V30 4530 H 438.061 -5.99126 -0.341825 0
M  V30 4531 H 439.131 -4.82713 0.46 0
M  V30 4532 N 440.474 -0.00167713 -1.576 0
M  V30 4533 C 441.885 0.54091 -1.78693 0
M  V30 4534 C 442.236 1.7386 -0.909247 0
M  V30 4535 O 441.361 2.16109 -0.112176 0
M  V30 4536 C 441.956 0.98806 -3.24072 0
M  V30 4537 C 440.515 1.47594 -3.46256 0
M  V30 4538 C 439.662 0.42792 -2.73978 0
M  V30 4539 H 442.613 -0.22784 -1.57056 0
M  V30 4540 H 442.634 1.85398 -3.32277 0
M  V30 4541 H 442.146 0.116164 -3.87926 0
M  V30 4542 H 440.247 2.36868 -2.87618 0
M  V30 4543 H 440.36 1.50225 -4.54939 0
M  V30 4544 H 438.724 0.889934 -2.38647 0
M  V30 4545 H 439.507 -0.435038 -3.40532 0
M  V30 4546 N 441.952 1.55251 0.271103 0
M  V30 4547 C 442.884 1.84675 1.35749 0
M  V30 4548 C 443.897 0.731366 1.45447 0
M  V30 4549 O 445.086 1.00924 1.4723 0
M  V30 4550 C 442.186 1.99638 2.73857 0
M  V30 4551 C 441.359 3.30312 2.86727 0
M  V30 4552 C 440.418 3.35318 4.05522 0
M  V30 4553 O 439.444 4.08682 3.96191 0
M  V30 4554 N 440.646 2.62857 5.17577 0
M  V30 4555 H 443.411 2.78445 1.10853 0
M  V30 4556 H 440.972 1.55191 0.461218 0
M  V30 4557 H 442.964 2.00355 3.51625 0
M  V30 4558 H 441.534 1.12725 2.91568 0
M  V30 4559 H 440.754 3.42118 1.95829 0
M  V30 4560 H 442.042 4.16488 2.92258 0
M  V30 4561 H 441.44 2.02939 5.28046 0
M  V30 4562 H 439.997 2.69295 5.93568 0
M  V30 4563 N 443.43 -0.535701 1.48216 0
M  V30 4564 C 444.678 -1.28928 1.55634 0
M  V30 4565 C 444.999 -1.93645 0.229514 0
M  V30 4566 O 444.269 -1.81038 -0.74846 0
M  V30 4567 H 442.849 -0.47884 0.573342 0
M  V30 4568 H 445.511 -0.623853 1.84646 0
M  V30 4569 H 444.607 -2.07157 2.33436 0
M  V30 4570 N 444.908 -1.36708 -0.784132 0
M  V30 4571 C 446.156 -1.30972 -1.53918 0
M  V30 4572 C 446.477 0.109086 -1.94695 0
M  V30 4573 O 445.747 1.05048 -1.65353 0
M  V30 4574 H 444.327 -0.481819 -0.570841 0
M  V30 4575 H 446.989 -1.71063 -0.934002 0
M  V30 4576 H 446.085 -1.94061 -2.44431 0
M  V30 4577 N 446.386 1.0089 -1.21074 0
M  V30 4578 C 447.632 1.74866 -1.02712 0
M  V30 4579 C 447.965 1.89178 0.438787 0
M  V30 4580 O 447.24 1.42325 1.32567 0
M  V30 4581 C 447.523 3.16347 -1.72036 0
M  V30 4582 C 447.376 3.09782 -3.26121 0
M  V30 4583 C 448.695 4.15187 -1.45973 0
M  V30 4584 H 445.814 0.634736 -0.374539 0
M  V30 4585 H 448.456 1.17646 -1.49196 0
M  V30 4586 H 446.606 3.65201 -1.32517 0
M  V30 4587 H 448.278 2.68673 -3.74983 0
M  V30 4588 H 446.521 2.46982 -3.56626 0
M  V30 4589 H 447.192 4.09829 -3.6979 0
M  V30 4590 H 449.668 3.75022 -1.80272 0
M  V30 4591 H 448.544 5.12331 -1.96999 0
M  V30 4592 H 448.805 4.40386 -0.388924 0
M  V30 4593 N 447.864 1.01787 1.20321 0
M  V30 4594 C 449.28 0.732951 1.41774 0
M  V30 4595 C 449.48 -0.686883 1.89431 0
M  V30 4596 O 448.536 -1.45446 2.06402 0
M  V30 4597 C 449.849 1.75973 2.43832 0
M  V30 4598 C 451.397 1.77802 2.57596 0
M  V30 4599 C 451.872 2.7941 3.62897 0
M  V30 4600 N 453.363 2.78157 3.70382 0
M  V30 4601 C 454.098 3.53434 4.51521 0
M  V30 4602 N 453.594 4.38392 5.36455 0
M  V30 4603 N 455.387 3.42026 4.46066 0
M  V30 4604 H 447.538 1.93447 0.877035 0
M  V30 4605 H 449.801 0.835712 0.447536 0
M  V30 4606 H 449.507 2.77699 2.15815 0
M  V30 4607 H 449.381 1.57292 3.4284 0
M  V30 4608 H 451.768 0.767602 2.84942 0
M  V30 4609 H 451.849 2.00557 1.58779 0
M  V30 4610 H 451.493 3.80616 3.36295 0
M  V30 4611 H 451.423 2.53916 4.61339 0
M  V30 4612 H 453.914 2.16531 3.09714 0
M  V30 4613 H 454.227 4.92596 5.95457 0
M  V30 4614 H 452.572 4.4247 5.35953 0
M  V30 4615 H 455.763 2.75075 3.78749 0
M  V30 4616 H 455.936 4.00946 5.09064 0
M  V30 4617 N 449.342 -1.36122 0.79427 0
M  V30 4618 C 450.272 -2.32551 0.210328 0
M  V30 4619 C 451.253 -1.56884 -0.657386 0
M  V30 4620 O 452.438 -1.85014 -0.590207 0
M  V30 4621 C 449.568 -3.41128 -0.651819 0
M  V30 4622 C 448.522 -4.27842 0.116395 0
M  V30 4623 C 447.848 -5.2763 -0.86666 0
M  V30 4624 C 449.148 -5.05647 1.30837 0
M  V30 4625 H 450.842 -2.81636 1.01594 0
M  V30 4626 H 448.388 -1.35407 0.489981 0
M  V30 4627 H 450.341 -4.07581 -1.07031 0
M  V30 4628 H 449.065 -2.90622 -1.49019 0
M  V30 4629 H 447.724 -3.62952 0.515915 0
M  V30 4630 H 447.372 -4.73395 -1.70019 0
M  V30 4631 H 447.072 -5.86514 -0.35705 0
M  V30 4632 H 448.596 -5.96955 -1.28361 0
M  V30 4633 H 450.01 -5.65113 0.965393 0
M  V30 4634 H 448.407 -5.73967 1.75161 0
M  V30 4635 H 449.477 -4.37006 2.10128 0
M  V30 4636 N 450.82 -0.546701 -1.47814 0
M  V30 4637 C 452.097 0.0464413 -1.95545 0
M  V30 4638 C 452.477 1.4962 -1.48919 0
M  V30 4639 O 451.825 2.16752 -0.723232 0
M  V30 4640 C 452.035 -0.0881298 -3.48889 0
M  V30 4641 C 453.383 0.0626059 -4.24554 0
M  V30 4642 O 454.407 -0.0151555 -3.56197 0
M  V30 4643 O 453.266 0.228071 -5.46024 0
M  V30 4644 H 450.36 0.0700004 -0.824032 0
M  V30 4645 H 452.906 -0.612482 -1.58262 0
M  V30 4646 H 451.678 -1.09737 -3.75597 0
M  V30 4647 H 451.301 0.608886 -3.9291 0
M  V30 4648 N 452.299 1.55045 -0.282633 0
M  V30 4649 C 453.576 1.9179 0.384166 0
M  V30 4650 C 453.956 1.20778 1.73136 0
M  V30 4651 O 453.304 0.33719 2.25998 0
M  V30 4652 C 453.514 3.45149 0.517014 0
M  V30 4653 C 454.862 4.17064 0.796427 0
M  V30 4654 O 455.886 3.51084 0.601535 0
M  V30 4655 O 454.745 5.33837 1.16962 0
M  V30 4656 H 451.839 0.799483 0.211558 0
M  V30 4657 H 454.385 1.66474 -0.32934 0
M  V30 4658 H 453.157 3.88922 -0.430772 0
M  V30 4659 H 452.78 3.76443 1.2797 0
M  V30 4660 N 453.777 0.010035 1.57597 0
M  V30 4661 C 455.002 -0.687021 1.95691 0
M  V30 4662 C 455.427 -1.65952 0.885519 0
M  V30 4663 O 454.785 -1.80633 -0.15543 0
M  V30 4664 C 454.833 -1.3864 3.32884 0
M  V30 4665 O 453.937 -2.50115 3.27897 0
M  V30 4666 H 453.278 -0.181989 0.638573 0
M  V30 4667 H 455.808 0.0662122 2.04493 0
M  V30 4668 H 455.818 -1.74754 3.6868 0
M  V30 4669 H 454.493 -0.673411 4.10412 0
M  V30 4670 H 453.07 -2.16253 3.03791 0
M  V30 4671 N 455.255 -1.55392 -0.262866 0
M  V30 4672 C 456.205 -1.85355 -1.32768 0
M  V30 4673 C 457.189 -0.713188 -1.44231 0
M  V30 4674 O 458.381 -0.974765 -1.47741 0
M  V30 4675 C 455.51 -2.13781 -2.68612 0
M  V30 4676 C 454.596 -3.34104 -2.61219 0
M  V30 4677 N 454.987 -4.53766 -2.2345 0
M  V30 4678 C 453.285 -3.36895 -2.92263 0
M  V30 4679 C 453.986 -5.35877 -2.26298 0
M  V30 4680 N 452.962 -4.74536 -2.65172 0
M  V30 4681 H 456.764 -2.75413 -1.02591 0
M  V30 4682 H 454.278 -1.55405 -0.471503 0
M  V30 4683 H 456.275 -2.33407 -3.45437 0
M  V30 4684 H 454.935 -1.25013 -2.99669 0
M  V30 4685 H 455.946 -4.79682 -1.95258 0
M  V30 4686 H 452.623 -2.58351 -3.27965 0
M  V30 4687 H 454.013 -6.41577 -1.99572 0
M  V30 4688 N 456.733 0.527833 -1.48498 0
M  V30 4689 C 457.663 1.64136 -1.66077 0
M  V30 4690 C 458.644 1.62286 -0.509625 0
M  V30 4691 O 459.829 1.79449 -0.742413 0
M  V30 4692 C 456.959 3.02717 -1.70234 0
M  V30 4693 C 455.913 3.19426 -2.8487 0
M  V30 4694 C 455.239 4.5909 -2.74118 0
M  V30 4695 C 456.539 3.01993 -4.26142 0
M  V30 4696 H 458.233 1.4968 -2.593 0
M  V30 4697 H 455.779 0.718654 -1.24785 0
M  V30 4698 H 457.732 3.80491 -1.8112 0
M  V30 4699 H 456.456 3.18201 -0.735911 0
M  V30 4700 H 455.115 2.4407 -2.73542 0
M  V30 4701 H 454.763 4.71413 -1.7544 0
M  V30 4702 H 454.463 4.71214 -3.51042 0
M  V30 4703 H 455.987 5.3896 -2.86974 0
M  V30 4704 H 457.401 3.69558 -4.38292 0
M  V30 4705 H 455.798 3.2561 -5.04082 0
M  V30 4706 H 456.868 1.98396 -4.42456 0
M  V30 4707 N 458.211 1.37122 0.776871 0
M  V30 4708 C 459.622 1.28667 1.35284 0
M  V30 4709 C 459.973 -0.0680035 1.96082 0
M  V30 4710 O 459.098 -0.969743 1.93455 0
M  V30 4711 C 459.693 2.32997 2.45963 0
M  V30 4712 C 458.252 2.28191 2.99342 0
M  V30 4713 C 457.399 2.17101 1.72517 0
M  V30 4714 H 460.35 1.47819 0.577527 0
M  V30 4715 H 460.371 1.97366 3.2531 0
M  V30 4716 H 459.883 3.3158 2.01684 0
M  V30 4717 H 457.984 1.33115 3.4801 0
M  V30 4718 H 458.097 3.21397 3.55304 0
M  V30 4719 H 456.461 1.63562 1.95242 0
M  V30 4720 H 457.244 3.17591 1.30348 0
M  V30 4721 N 459.689 -1.00246 1.21608 0
M  V30 4722 C 460.966 -1.71336 0.943568 0
M  V30 4723 C 461.346 -2.03972 -0.543943 0
M  V30 4724 O 460.694 -1.71545 -1.50946 0
M  V30 4725 C 460.904 -2.97094 1.83128 0
M  V30 4726 C 462.252 -3.70071 2.08165 0
M  V30 4727 O 463.276 -3.07081 1.80498 0
M  V30 4728 O 462.135 -4.83376 2.54971 0
M  V30 4729 H 459.229 -0.747386 0.354039 0
M  V30 4730 H 461.775 -1.05967 1.32549 0
M  V30 4731 H 460.547 -2.69407 2.83788 0
M  V30 4732 H 460.17 -3.70204 1.45034 0
M  V30 4733 N 461.167 -1.02423 -1.1978 0
M  V30 4734 C 462.444 -0.632802 -1.85081 0
M  V30 4735 C 462.824 0.888745 -1.9148 0
M  V30 4736 O 462.172 1.78357 -1.42832 0
M  V30 4737 C 462.382 -1.28947 -3.24305 0
M  V30 4738 C 463.73 -1.40976 -4.00513 0
M  V30 4739 O 464.754 -1.24628 -3.33686 0
M  V30 4740 O 463.613 -1.67467 -5.20209 0
M  V30 4741 H 460.707 -0.219348 -0.79738 0
M  V30 4742 H 463.253 -1.12209 -1.27307 0
M  V30 4743 H 462.025 -2.3288 -3.14456 0
M  V30 4744 H 461.648 -0.787748 -3.89718 0
M  V30 4745 N 462.645 1.35699 -0.801477 0
M  V30 4746 C 463.891 1.99643 -0.389135 0
M  V30 4747 C 464.246 1.62447 1.03095 0
M  V30 4748 O 463.539 0.875064 1.7045 0
M  V30 4749 C 463.733 3.53828 -0.504041 0
M  V30 4750 C 463.562 4.06 -1.93375 0
M  V30 4751 C 462.332 4.35592 -2.561 0
M  V30 4752 C 464.53 4.24905 -2.89759 0
M  V30 4753 N 462.512 4.73663 -3.90534 0
M  V30 4754 C 463.883 4.65914 -4.09052 0
M  V30 4755 C 465.938 4.07101 -2.86658 0
M  V30 4756 C 464.641 4.90984 -5.25669 0
M  V30 4757 C 466.667 4.33324 -4.02472 0
M  V30 4758 C 466.029 4.74601 -5.20512 0
M  V30 4759 H 462.128 0.758552 -0.19006 0
M  V30 4760 H 464.712 1.64493 -1.04164 0
M  V30 4761 H 462.883 3.88219 0.118437 0
M  V30 4762 H 464.615 4.04645 -0.0667794 0
M  V30 4763 H 461.37 4.25728 -2.07492 0
M  V30 4764 H 461.794 4.96965 -4.59734 0
M  V30 4765 H 466.436 3.74335 -1.96552 0
M  V30 4766 H 464.154 5.22626 -6.1635 0
M  V30 4767 H 467.74 4.21107 -4.01447 0
M  V30 4768 H 466.62 4.94497 -6.08639 0
M  V30 4769 N 464.123 0.554532 1.47522 0
M  V30 4770 C 465.055 -0.232106 2.28022 0
M  V30 4771 C 466.068 -0.881865 1.36847 0
M  V30 4772 O 467.257 -0.756168 1.61692 0
M  V30 4773 C 464.357 -1.34604 3.11022 0
M  V30 4774 C 463.53 -0.793582 4.30141 0
M  V30 4775 C 462.589 -1.79168 4.94758 0
M  V30 4776 O 461.615 -1.33886 5.5323 0
M  V30 4777 N 462.817 -3.12495 4.89211 0
M  V30 4778 H 465.582 0.458407 2.96173 0
M  V30 4779 H 463.143 0.390433 1.57122 0
M  V30 4780 H 465.135 -2.01243 3.51118 0
M  V30 4781 H 463.705 -1.93983 2.45131 0
M  V30 4782 H 462.925 0.0495025 3.94169 0
M  V30 4783 H 464.213 -0.403776 5.07195 0
M  V30 4784 H 463.611 -3.51931 4.42901 0
M  V30 4785 H 462.168 -3.74698 5.33333 0
M  V30 4786 N 465.601 -1.54893 0.290851 0
M  V30 4787 C 466.549 -2.24579 -0.605576 0
M  V30 4788 C 467.543 -1.24824 -1.14522 0
M  V30 4789 O 468.749 -1.42706 -1.09704 0
M  V30 4790 H 465.124 -0.720946 -0.213872 0
M  V30 4791 H 467.095 -2.984 0.0048173 0
M  V30 4792 C 465.844 -2.99224 -1.77088 0
M  V30 4793 H 465.167 -3.75782 -1.36484 0
M  V30 4794 H 466.607 -3.51281 -2.3744 0
M  V30 4795 C 465.066 -2.05602 -2.66888 0
M  V30 4796 O 465.596 -1.61745 -3.67698 0
M  V30 4797 N 463.802 -1.71771 -2.34399 0
M  V30 4798 H 463.349 -2.07633 -1.52468 0
M  V30 4799 H 463.307 -1.09403 -2.94751 0
M  V30 4800 N 467.08 -0.0183926 -1.57589 0
M  V30 4801 C 468.357 0.700621 -1.82622 0
M  V30 4802 C 468.737 1.90951 -0.90005 0
M  V30 4803 O 468.085 2.28452 0.0469145 0
M  V30 4804 C 468.295 1.08899 -3.31575 0
M  V30 4805 C 469.643 1.48514 -3.9778 0
M  V30 4806 O 470.667 1.18227 -3.36007 0
M  V30 4807 O 469.526 2.04903 -5.06633 0
M  V30 4808 H 466.62 0.342743 -0.752633 0
M  V30 4809 H 469.166 -0.0452548 -1.6964 0
M  V30 4810 H 467.938 0.228113 -3.90635 0
M  V30 4811 H 467.561 1.89338 -3.49624 0
M  V30 4812 N 468.558 1.5553 0.254621 0
M  V30 4813 C 469.468 1.92789 1.33677 0
M  V30 4814 C 470.484 0.827356 1.53071 0
M  V30 4815 O 471.66 1.12807 1.66843 0
M  V30 4816 C 468.725 2.20827 2.67275 0
M  V30 4817 C 467.786 3.4427 2.5647 0
M  V30 4818 C 467.019 3.70961 3.83697 0
M  V30 4819 O 467.242 2.99852 4.85227 0
M  V30 4820 O 466.176 4.64491 3.82794 0
M  V30 4821 H 470.002 2.84945 1.05071 0
M  V30 4822 H 467.587 1.42312 0.454723 0
M  V30 4823 H 469.469 2.40204 3.46237 0
M  V30 4824 H 468.144 1.31851 2.9563 0
M  V30 4825 H 467.051 3.30209 1.75821 0
M  V30 4826 H 468.384 4.33524 2.33062 0
M  V30 4827 N 470.036 -0.519951 1.48776 0
M  V30 4828 C 471.264 -1.29971 1.60982 0
M  V30 4829 C 471.679 -1.86803 0.273885 0
M  V30 4830 O 471.036 -1.66904 -0.738193 0
M  V30 4831 C 471.087 -2.44346 2.66415 0
M  V30 4832 O 470.808 -1.89855 3.94825 0
M  V30 4833 C 472.309 -3.36014 2.89153 0
M  V30 4834 H 469.529 -0.394891 0.542496 0
M  V30 4835 H 472.073 -0.626214 1.94676 0
M  V30 4836 H 470.228 -3.07562 2.35552 0
M  V30 4837 H 470.642 -2.64798 4.5275 0
M  V30 4838 H 472.116 -4.12593 3.66703 0
M  V30 4839 H 472.593 -3.91859 1.98351 0
M  V30 4840 H 473.199 -2.78582 3.21359 0
M  V30 4841 N 471.514 -1.37532 -0.769588 0
M  V30 4842 C 472.76 -1.33057 -1.53048 0
M  V30 4843 C 473.093 0.0841865 -1.94017 0
M  V30 4844 O 472.368 1.04198 -1.64235 0
M  V30 4845 C 472.651 -2.27166 -2.79406 0
M  V30 4846 C 472.504 -3.77429 -2.44677 0
M  V30 4847 C 473.823 -2.19683 -3.81349 0
M  V30 4848 H 470.942 -0.484655 -0.555228 0
M  V30 4849 H 473.584 -1.68251 -0.882702 0
M  V30 4850 H 471.734 -1.97283 -3.34682 0
M  V30 4851 H 473.406 -4.17918 -1.953 0
M  V30 4852 H 471.649 -3.95892 -1.77346 0
M  V30 4853 H 472.32 -4.38716 -3.35011 0
M  V30 4854 H 474.796 -2.46029 -3.35573 0
M  V30 4855 H 473.672 -2.87668 -4.67481 0
M  V30 4856 H 473.933 -1.19045 -4.25771 0
M  V30 4857 N 472.992 0.995999 -1.22138 0
M  V30 4858 C 474.408 1.25917 -0.980667 0
M  V30 4859 C 474.608 1.98819 0.327604 0
M  V30 4860 O 473.664 2.29587 1.05101 0
M  V30 4861 C 474.977 2.07399 -2.17729 0
M  V30 4862 C 476.525 2.20594 -2.22052 0
M  V30 4863 C 477 3.05462 -3.41258 0
M  V30 4864 N 478.491 3.13049 -3.41401 0
M  V30 4865 C 479.226 3.78997 -4.30289 0
M  V30 4866 N 478.722 4.46899 -5.2939 0
M  V30 4867 N 480.515 3.75728 -4.18073 0
M  V30 4868 H 472.666 0.507158 -2.06256 0
M  V30 4869 H 474.929 0.28658 -0.903646 0
M  V30 4870 H 474.635 1.61191 -3.12586 0
M  V30 4871 H 474.509 3.08154 -2.17534 0
M  V30 4872 H 476.896 2.66017 -1.27745 0
M  V30 4873 H 476.977 1.1928 -2.26287 0
M  V30 4874 H 476.621 2.60739 -4.35864 0
M  V30 4875 H 476.551 4.06911 -3.34262 0
M  V30 4876 H 479.042 2.64721 -2.69688 0
M  V30 4877 H 479.355 4.94952 -5.935 0
M  V30 4878 H 477.7 4.45657 -5.33306 0
M  V30 4879 H 480.891 3.2184 -3.39907 0
M  V30 4880 H 481.064 4.26845 -4.87553 0
M  V30 4881 N 474.47 1.03057 1.19235 0
M  V30 4882 C 475.886 0.747947 1.40989 0
M  V30 4883 C 476.086 -0.666752 1.90149 0
M  V30 4884 O 475.142 -1.43249 2.07933 0
M  V30 4885 C 476.455 1.7855 2.41951 0
M  V30 4886 C 478.003 1.80524 2.55695 0
M  V30 4887 C 478.478 2.83243 3.59913 0
M  V30 4888 N 479.969 2.8207 3.67411 0
M  V30 4889 C 480.704 3.58204 4.47747 0
M  V30 4890 N 480.2 4.44057 5.31775 0
M  V30 4891 N 481.993 3.46738 4.42413 0
M  V30 4892 H 474.144 1.94367 0.856468 0
M  V30 4893 H 476.407 0.840412 0.438647 0
M  V30 4894 H 476.113 2.79973 2.12857 0
M  V30 4895 H 475.987 1.6092 3.41152 0
M  V30 4896 H 478.374 0.79778 2.84112 0
M  V30 4897 H 478.455 2.02229 1.56643 0
M  V30 4898 H 478.099 3.84161 3.32239 0
M  V30 4899 H 478.029 2.58795 4.5862 0
M  V30 4900 H 480.52 2.19803 3.074 0
M  V30 4901 H 480.833 4.98884 5.90199 0
M  V30 4902 H 479.178 4.48129 5.3123 0
M  V30 4903 H 482.369 2.79077 3.75811 0
M  V30 4904 H 482.542 4.06322 5.04783 0
M  V30 4905 N 475.948 -1.35272 0.808662 0
M  V30 4906 C 476.858 -2.33546 0.222079 0
M  V30 4907 C 477.874 -1.6196 -0.636011 0
M  V30 4908 O 479.05 -1.93822 -0.547274 0
M  V30 4909 C 476.115 -3.41148 -0.61795 0
M  V30 4910 C 475.176 -4.28507 0.260875 0
M  V30 4911 C 474.409 -5.3097 -0.539156 0
M  V30 4912 O 474.632 -5.42123 -1.77367 0
M  V30 4913 O 473.566 -6.01858 0.0710526 0
M  V30 4914 H 477.392 -2.85515 1.03512 0
M  V30 4915 H 474.977 -1.38079 0.570495 0
M  V30 4916 H 476.859 -4.06889 -1.09634 0
M  V30 4917 H 475.534 -2.91447 -1.40855 0
M  V30 4918 H 474.441 -3.6574 0.786451 0
M  V30 4919 H 475.774 -4.81611 1.01547 0
M  V30 4920 N 477.426 -0.562348 -1.47226 0
M  V30 4921 C 478.356 0.170627 -2.32876 0
M  V30 4922 C 479.337 0.903748 -1.44106 0
M  V30 4923 O 480.522 0.883206 -1.72954 0
M  V30 4924 C 477.652 1.19786 -3.25989 0
M  V30 4925 C 476.606 0.580875 -4.2404 0
M  V30 4926 C 475.932 1.71311 -5.06514 0
M  V30 4927 C 477.232 -0.468714 -5.20193 0
M  V30 4928 H 478.926 -0.544441 -2.94408 0
M  V30 4929 H 476.472 -0.263271 -1.41573 0
M  V30 4930 H 478.425 1.71884 -3.84752 0
M  V30 4931 H 477.149 1.94294 -2.62521 0
M  V30 4932 H 475.808 0.0811538 -3.6651 0
M  V30 4933 H 475.456 2.44736 -4.39447 0
M  V30 4934 H 475.156 1.30604 -5.72902 0
M  V30 4935 H 476.68 2.23725 -5.68137 0
M  V30 4936 H 478.094 -0.0336028 -5.7329 0
M  V30 4937 H 476.491 -0.794957 -5.94811 0
M  V30 4938 H 477.561 -1.36269 -4.65359 0
M  V30 4939 N 478.904 1.54736 -0.299062 0
M  V30 4940 C 479.837 2.1962 0.619851 0
M  V30 4941 C 480.815 1.16496 1.13434 0
M  V30 4942 O 481.999 1.4513 1.2029 0
M  V30 4943 C 479.126 2.8385 1.84788 0
M  V30 4944 C 478.172 4.00484 1.46679 0
M  V30 4945 S 479.005 5.32926 0.524389 0
M  V30 4946 C 480.161 6.00638 1.76026 0
M  V30 4947 H 480.394 2.97221 0.0686177 0
M  V30 4948 H 477.927 1.54176 -0.0832085 0
M  V30 4949 H 479.885 3.21483 2.55263 0
M  V30 4950 H 478.546 2.06099 2.37028 0
M  V30 4951 H 477.739 4.44201 2.38121 0
M  V30 4952 H 477.341 3.64398 0.842008 0
M  V30 4953 H 479.633 6.21327 2.70109 0
M  V30 4954 H 480.576 6.94805 1.36569 0
M  V30 4955 H 480.984 5.3026 1.93609 0
M  V30 4956 N 480.382 0.0267497 1.57577 0
M  V30 4957 C 481.628 -0.647596 1.92815 0
M  V30 4958 C 481.983 -1.69872 0.903396 0
M  V30 4959 O 481.276 -1.91429 -0.0808881 0
M  V30 4960 C 481.47 -1.30914 3.3256 0
M  V30 4961 C 481.299 -0.323621 4.48534 0
M  V30 4962 C 480.069 0.0756607 5.05243 0
M  V30 4963 C 482.267 0.42112 5.12573 0
M  V30 4964 N 480.249 1.0566 6.04739 0
M  V30 4965 C 481.62 1.25589 6.07147 0
M  V30 4966 C 483.675 0.482077 4.95561 0
M  V30 4967 C 482.378 2.1461 6.86538 0
M  V30 4968 C 484.404 1.35962 5.75559 0
M  V30 4969 C 483.766 2.18217 6.69747 0
M  V30 4970 H 479.865 -0.209357 0.753454 0
M  V30 4971 H 482.449 0.0933695 1.94476 0
M  V30 4972 H 480.62 -2.02026 3.31723 0
M  V30 4973 H 482.352 -1.94033 3.55153 0
M  V30 4974 H 479.107 -0.298294 4.7266 0
M  V30 4975 H 479.531 1.54324 6.59176 0
M  V30 4976 H 484.173 -0.139609 4.22569 0
M  V30 4977 H 481.891 2.77835 7.58837 0
M  V30 4978 H 485.477 1.41105 5.6443 0
M  V30 4979 H 484.357 2.85022 7.3057 0
M  V30 4980 O 481.899 -1.6109 -0.114939 0
M  V30 4981 H 482.59 -1.78767 -0.745784 0
M  V30 END ATOM
M  V30 BEGIN BOND
M  V30 END BOND
M  V30 END CTAB
M  END
$$$$
