drugbank_target|A1L3X4 Putative metallothionein MT1DP (DB12965)
 OpenBabel12092121043D

647648  0  0  0  0  0  0  0  0999 V2000
   -0.9080    1.9825   -0.1171 H   0  0  0  0  0 15  0  0  0  0  0  0
    0.0000    1.5760    0.0000 N   0  0  0  0  0 15  0  0  0  0  0  0
    0.9330    2.0387    1.0253 C   0  0  0  0  0 15  0  0  0  0  0  0
    1.9110    0.9285    1.3348 C   0  0  0  0  0 15  0  0  0  0  0  0
    3.0950    1.1967    1.4564 O   0  0  0  0  0 15  0  0  0  0  0  0
    0.2220    2.4363    2.3529 C   0  0  0  0  0 15  0  0  0  0  0  0
   -0.7320    3.6537    2.2001 C   0  0  0  0  0 15  0  0  0  0  0  0
    0.1010    5.1329    1.5261 S   0  0  0  0  0 15  0  0  0  0  0  0
    1.2570    5.5632    2.8680 C   0  0  0  0  0 15  0  0  0  0  0  0
    1.4900    2.9052    0.6314 H   0  0  0  0  0 15  0  0  0  0  0  0
   -0.9770    1.5295    0.2109 H   0  0  0  0  0 15  0  0  0  0  0  0
    0.9810    2.6720    3.1163 H   0  0  0  0  0 15  0  0  0  0  0  0
   -0.3580    1.5738    2.7183 H   0  0  0  0  0 15  0  0  0  0  0  0
   -1.1650    3.9094    3.1809 H   0  0  0  0  0 15  0  0  0  0  0  0
   -1.5630    3.4180    1.5182 H   0  0  0  0  0 15  0  0  0  0  0  0
    0.7290    5.5878    3.8310 H   0  0  0  0  0 15  0  0  0  0  0  0
    1.6720    6.5627    2.6593 H   0  0  0  0  0 15  0  0  0  0  0  0
    2.0800    4.8389    2.9071 H   0  0  0  0  0 15  0  0  0  0  0  0
    1.4781   -0.2728    1.5522 N   0  0  0  0  0 15  0  0  0  0  0  0
    2.7551   -1.0256    1.6655 C   0  0  0  0  0 15  0  0  0  0  0  0
    3.1351   -2.0428    0.5322 C   0  0  0  0  0 15  0  0  0  0  0  0
    2.4831   -2.2366   -0.4677 O   0  0  0  0  0 15  0  0  0  0  0  0
    2.6931   -1.6822    3.0578 C   0  0  0  0  0 15  0  0  0  0  0  0
    4.0411   -2.1937    3.6354 C   0  0  0  0  0 15  0  0  0  0  0  0
    5.0651   -1.7821    3.0842 O   0  0  0  0  0 15  0  0  0  0  0  0
    3.9241   -2.9488    4.6012 O   0  0  0  0  0 15  0  0  0  0  0  0
    1.0181   -0.4758    0.6765 H   0  0  0  0  0 15  0  0  0  0  0  0
    3.5641   -0.2686    1.6756 H   0  0  0  0  0 15  0  0  0  0  0  0
    2.3361   -0.9451    3.7971 H   0  0  0  0  0 15  0  0  0  0  0  0
    1.9591   -2.5061    3.0868 H   0  0  0  0  0 15  0  0  0  0  0  0
    2.9562   -1.4816   -0.5373 N   0  0  0  0  0 15  0  0  0  0  0  0
    3.8862   -1.6503   -1.6519 C   0  0  0  0  0 15  0  0  0  0  0  0
    4.8672   -0.4993   -1.6261 C   0  0  0  0  0 15  0  0  0  0  0  0
    6.0522   -0.7310   -1.7992 O   0  0  0  0  0 15  0  0  0  0  0  0
    3.1822   -1.6830   -3.0380 C   0  0  0  0  0 15  0  0  0  0  0  0
    2.1362   -2.8283   -3.2123 C   0  0  0  0  0 15  0  0  0  0  0  0
    1.4622   -2.7119   -4.6083 C   0  0  0  0  0 15  0  0  0  0  0  0
    2.7622   -4.2421   -3.0470 C   0  0  0  0  0 15  0  0  0  0  0  0
    4.4562   -2.5834   -1.5133 H   0  0  0  0  0 15  0  0  0  0  0  0
    2.0022   -1.2433   -0.7266 H   0  0  0  0  0 15  0  0  0  0  0  0
    3.9552   -1.7869   -3.8164 H   0  0  0  0  0 15  0  0  0  0  0  0
    2.6792   -0.7156   -3.1866 H   0  0  0  0  0 15  0  0  0  0  0  0
    1.3382   -2.7198   -2.4581 H   0  0  0  0  0 15  0  0  0  0  0  0
    0.9862   -1.7243   -4.7252 H   0  0  0  0  0 15  0  0  0  0  0  0
    0.6862   -3.4803   -4.7344 H   0  0  0  0  0 15  0  0  0  0  0  0
    2.2102   -2.8354   -5.4078 H   0  0  0  0  0 15  0  0  0  0  0  0
    3.6242   -4.3593   -3.7234 H   0  0  0  0  0 15  0  0  0  0  0  0
    2.0212   -5.0200   -3.2881 H   0  0  0  0  0 15  0  0  0  0  0  0
    3.0912   -4.4118   -2.0121 H   0  0  0  0  0 15  0  0  0  0  0  0
    4.4343    0.7856   -1.3662 N   0  0  0  0  0 15  0  0  0  0  0  0
    5.6593    1.5796   -1.3440 C   0  0  0  0  0 15  0  0  0  0  0  0
    6.0843    1.8796    0.0715 C   0  0  0  0  0 15  0  0  0  0  0  0
    5.4423    1.4818    1.0446 O   0  0  0  0  0 15  0  0  0  0  0  0
    5.4903    2.8751   -2.1765 C   0  0  0  0  0 15  0  0  0  0  0  0
    4.5943    3.8128   -1.5716 O   0  0  0  0  0 15  0  0  0  0  0  0
    3.9353    0.4790   -0.4598 H   0  0  0  0  0 15  0  0  0  0  0  0
    6.4653    0.9734   -1.7996 H   0  0  0  0  0 15  0  0  0  0  0  0
    6.4753    3.3674   -2.3036 H   0  0  0  0  0 15  0  0  0  0  0  0
    5.1503    2.6500   -3.2054 H   0  0  0  0  0 15  0  0  0  0  0  0
    3.7273    3.3989   -1.5340 H   0  0  0  0  0 15  0  0  0  0  0  0
    5.9124    1.2097    1.0102 N   0  0  0  0  0 15  0  0  0  0  0  0
    7.1524    1.0351    1.7625 C   0  0  0  0  0 15  0  0  0  0  0  0
    7.5164   -0.4246    1.8725 C   0  0  0  0  0 15  0  0  0  0  0  0
    8.7174   -0.7195    2.5899 O   0  0  0  0  0 15  0  0  0  0  0  0
    6.9884    1.7073    3.1399 C   0  0  0  0  0 15  0  0  0  0  0  0
    8.5474    1.6846    4.0518 S   0  0  0  0  0 15  0  0  0  0  0  0
    5.3654    0.3710    0.6065 H   0  0  0  0  0 15  0  0  0  0  0  0
    7.9674    1.5363    1.2091 H   0  0  0  0  0 15  0  0  0  0  0  0
    6.6714    2.7613    3.0361 H   0  0  0  0  0 15  0  0  0  0  0  0
    6.2024    1.2077    3.7440 H   0  0  0  0  0 15  0  0  0  0  0  0
    8.2174    0.7220    4.9092 H   0  0  0  0  0 15  0  0  0  0  0  0
    7.3905   -1.2043    1.0166 N   0  0  0  0  0 15  0  0  0  0  0  0
    8.6155   -1.9432    0.7249 C   0  0  0  0  0 15  0  0  0  0  0  0
    9.0405   -1.7427   -0.7080 C   0  0  0  0  0 15  0  0  0  0  0  0
    8.3985   -1.0369   -1.4872 O   0  0  0  0  0 15  0  0  0  0  0  0
    8.4465   -3.4449    1.0659 C   0  0  0  0  0 15  0  0  0  0  0  0
    7.5505   -4.1202    0.1776 O   0  0  0  0  0 15  0  0  0  0  0  0
    6.8915   -0.6071    0.2690 H   0  0  0  0  0 15  0  0  0  0  0  0
    9.4215   -1.5286    1.3600 H   0  0  0  0  0 15  0  0  0  0  0  0
    9.4315   -3.9511    1.0176 H   0  0  0  0  0 15  0  0  0  0  0  0
    8.1065   -3.5840    2.1100 H   0  0  0  0  0 15  0  0  0  0  0  0
    6.6835   -3.7182    0.2834 H   0  0  0  0  0 15  0  0  0  0  0  0
    8.8686   -0.7928   -1.3621 N   0  0  0  0  0 15  0  0  0  0  0  0
   10.1086   -0.3722   -2.0098 C   0  0  0  0  0 15  0  0  0  0  0  0
   10.4726    1.0375   -1.6156 C   0  0  0  0  0 15  0  0  0  0  0  0
   11.6736    1.5593   -2.1895 O   0  0  0  0  0 15  0  0  0  0  0  0
    9.9446   -0.5346   -3.5338 C   0  0  0  0  0 15  0  0  0  0  0  0
   11.5036   -0.2024   -4.3833 S   0  0  0  0  0 15  0  0  0  0  0  0
    8.3216   -0.1420   -0.6967 H   0  0  0  0  0 15  0  0  0  0  0  0
   10.9236   -1.0321   -1.6604 H   0  0  0  0  0 15  0  0  0  0  0  0
    9.6276   -1.5608   -3.7956 H   0  0  0  0  0 15  0  0  0  0  0  0
    9.1586    0.1411   -3.9315 H   0  0  0  0  0 15  0  0  0  0  0  0
   11.1736    0.9949   -4.8612 H   0  0  0  0  0 15  0  0  0  0  0  0
   10.3467    1.4787   -0.5451 N   0  0  0  0  0 15  0  0  0  0  0  0
   11.3097    2.2834    0.1987 C   0  0  0  0  0 15  0  0  0  0  0  0
   12.3097    1.3625    0.8539 C   0  0  0  0  0 15  0  0  0  0  0  0
   13.4997    1.5900    0.7116 O   0  0  0  0  0 15  0  0  0  0  0  0
   10.6317    3.1558    1.2892 C   0  0  0  0  0 15  0  0  0  0  0  0
   11.8247    2.9557   -0.5079 H   0  0  0  0  0 15  0  0  0  0  0  0
    9.3777    1.5336   -0.3016 H   0  0  0  0  0 15  0  0  0  0  0  0
   10.1127    2.5302    2.0286 H   0  0  0  0  0 15  0  0  0  0  0  0
    9.8977    3.8334    0.8243 H   0  0  0  0  0 15  0  0  0  0  0  0
   11.3877    3.7624    1.8119 H   0  0  0  0  0 15  0  0  0  0  0  0
   11.8248    0.2810    1.5507 N   0  0  0  0  0 15  0  0  0  0  0  0
   13.0528   -0.3373    2.0413 C   0  0  0  0  0 15  0  0  0  0  0  0
   13.4678   -1.4903    1.1591 C   0  0  0  0  0 15  0  0  0  0  0  0
   12.8248   -1.8161    0.1805 O   0  0  0  0  0 15  0  0  0  0  0  0
   12.8758   -0.8127    3.5225 C   0  0  0  0  0 15  0  0  0  0  0  0
   12.5968    0.2944    4.3711 O   0  0  0  0  0 15  0  0  0  0  0  0
   14.0978   -1.4982    4.1722 C   0  0  0  0  0 15  0  0  0  0  0  0
   11.3178   -0.0762    0.6667 H   0  0  0  0  0 15  0  0  0  0  0  0
   13.8618    0.4148    2.0025 H   0  0  0  0  0 15  0  0  0  0  0  0
   12.0168   -1.5149    3.5655 H   0  0  0  0  0 15  0  0  0  0  0  0
   12.4308   -0.0721    5.2445 H   0  0  0  0  0 15  0  0  0  0  0  0
   13.9048   -1.7822    5.2244 H   0  0  0  0  0 15  0  0  0  0  0  0
   14.3818   -2.4317    3.6574 H   0  0  0  0  0 15  0  0  0  0  0  0
   14.9878   -0.8397    4.1693 H   0  0  0  0  0 15  0  0  0  0  0  0
   13.3029   -1.5760    0.0084 N   0  0  0  0  0 15  0  0  0  0  0  0
   14.5509   -1.9055   -0.6734 C   0  0  0  0  0 15  0  0  0  0  0  0
   14.8719   -0.8833   -1.7385 C   0  0  0  0  0 15  0  0  0  0  0  0
   14.1419    0.0781   -1.9574 O   0  0  0  0  0 15  0  0  0  0  0  0
   12.7219   -0.7033   -0.2517 H   0  0  0  0  0 15  0  0  0  0  0  0
   15.3839   -1.9483    0.0513 H   0  0  0  0  0 15  0  0  0  0  0  0
   14.4799   -2.9056   -1.1394 H   0  0  0  0  0 15  0  0  0  0  0  0
   14.7810    0.2645   -1.5536 N   0  0  0  0  0 15  0  0  0  0  0  0
   16.0290    0.9930   -1.7602 C   0  0  0  0  0 15  0  0  0  0  0  0
   16.3500    1.8651   -0.5691 C   0  0  0  0  0 15  0  0  0  0  0  0
   15.6200    1.9144    0.4157 O   0  0  0  0  0 15  0  0  0  0  0  0
   14.2000    0.3696   -0.6491 H   0  0  0  0  0 15  0  0  0  0  0  0
   16.8620    0.2867   -1.9278 H   0  0  0  0  0 15  0  0  0  0  0  0
   15.9580    1.6250   -2.6646 H   0  0  0  0  0 15  0  0  0  0  0  0
   16.2591    1.4844    0.5294 N   0  0  0  0  0 15  0  0  0  0  0  0
   17.4841    1.6041    1.3147 C   0  0  0  0  0 15  0  0  0  0  0  0
   17.9091    0.2647    1.8623 C   0  0  0  0  0 15  0  0  0  0  0  0
   17.2671   -0.7637    1.6443 O   0  0  0  0  0 15  0  0  0  0  0  0
   17.3151    2.6542    2.4410 C   0  0  0  0  0 15  0  0  0  0  0  0
   16.4191    2.2262    3.4715 O   0  0  0  0  0 15  0  0  0  0  0  0
   15.7601    0.5379    0.3894 H   0  0  0  0  0 15  0  0  0  0  0  0
   18.2901    1.9443    0.6370 H   0  0  0  0  0 15  0  0  0  0  0  0
   18.3001    2.8671    2.9028 H   0  0  0  0  0 15  0  0  0  0  0  0
   16.9751    3.6265    2.0361 H   0  0  0  0  0 15  0  0  0  0  0  0
   15.5521    2.1154    3.0709 H   0  0  0  0  0 15  0  0  0  0  0  0
   17.7372   -0.7783    1.3704 N   0  0  0  0  0 15  0  0  0  0  0  0
   18.9772   -1.5497    1.3328 C   0  0  0  0  0 15  0  0  0  0  0  0
   19.3412   -1.9182   -0.0839 C   0  0  0  0  0 15  0  0  0  0  0  0
   20.5422   -2.6767   -0.2462 O   0  0  0  0  0 15  0  0  0  0  0  0
   18.8132   -2.7852    2.2397 C   0  0  0  0  0 15  0  0  0  0  0  0
   20.3722   -3.6865    2.3800 S   0  0  0  0  0 15  0  0  0  0  0  0
   17.1902   -0.5306    0.4732 H   0  0  0  0  0 15  0  0  0  0  0  0
   19.7922   -0.9158    1.7272 H   0  0  0  0  0 15  0  0  0  0  0  0
   18.4962   -2.4952    3.2583 H   0  0  0  0  0 15  0  0  0  0  0  0
   18.0272   -3.4687    1.8558 H   0  0  0  0  0 15  0  0  0  0  0  0
   20.0422   -4.7018    1.5857 H   0  0  0  0  0 15  0  0  0  0  0  0
   19.2153   -1.2150   -1.0038 N   0  0  0  0  0 15  0  0  0  0  0  0
   20.4433   -1.0590   -1.7774 C   0  0  0  0  0 15  0  0  0  0  0  0
   20.8583    0.3911   -1.8470 C   0  0  0  0  0 15  0  0  0  0  0  0
   20.2153    1.2713   -1.3093 O   0  0  0  0  0 15  0  0  0  0  0  0
   20.2663   -1.6511   -3.2159 C   0  0  0  0  0 15  0  0  0  0  0  0
   19.9873   -3.0445   -3.1503 O   0  0  0  0  0 15  0  0  0  0  0  0
   21.4883   -1.5464   -4.1545 C   0  0  0  0  0 15  0  0  0  0  0  0
   18.7083   -0.3718   -0.5586 H   0  0  0  0  0 15  0  0  0  0  0  0
   21.2523   -1.6086   -1.2626 H   0  0  0  0  0 15  0  0  0  0  0  0
   19.4073   -1.1423   -3.7017 H   0  0  0  0  0 15  0  0  0  0  0  0
   19.8213   -3.3278   -4.0541 H   0  0  0  0  0 15  0  0  0  0  0  0
   21.2953   -2.0081   -5.1418 H   0  0  0  0  0 15  0  0  0  0  0  0
   21.7723   -0.5010   -4.3633 H   0  0  0  0  0 15  0  0  0  0  0  0
   22.3783   -2.0477   -3.7276 H   0  0  0  0  0 15  0  0  0  0  0  0
   20.6934    1.1989   -1.0230 N   0  0  0  0  0 15  0  0  0  0  0  0
   21.9334    1.9113   -0.7246 C   0  0  0  0  0 15  0  0  0  0  0  0
   22.2974    1.7746    0.7328 C   0  0  0  0  0 15  0  0  0  0  0  0
   23.4984    2.4324    1.1440 O   0  0  0  0  0 15  0  0  0  0  0  0
   21.7694    3.3819   -1.1560 C   0  0  0  0  0 15  0  0  0  0  0  0
   23.3284    4.2770   -0.9806 S   0  0  0  0  0 15  0  0  0  0  0  0
   20.1464    0.6602   -0.2640 H   0  0  0  0  0 15  0  0  0  0  0  0
   22.7484    1.4498   -1.3116 H   0  0  0  0  0 15  0  0  0  0  0  0
   21.4524    3.4565   -2.2125 H   0  0  0  0  0 15  0  0  0  0  0  0
   20.9834    3.8936   -0.5621 H   0  0  0  0  0 15  0  0  0  0  0  0
   22.9984    4.9607    0.1122 H   0  0  0  0  0 15  0  0  0  0  0  0
   22.1715    0.8000    1.3578 N   0  0  0  0  0 15  0  0  0  0  0  0
   23.1345    0.2116    2.2822 C   0  0  0  0  0 15  0  0  0  0  0  0
   24.1345   -0.5973    1.4930 C   0  0  0  0  0 15  0  0  0  0  0  0
   25.3245   -0.4167    1.6914 O   0  0  0  0  0 15  0  0  0  0  0  0
   22.4565   -0.7058    3.3351 C   0  0  0  0  0 15  0  0  0  0  0  0
   23.6495    1.0268    2.8178 H   0  0  0  0  0 15  0  0  0  0  0  0
   21.2025    0.5702    1.4553 H   0  0  0  0  0 15  0  0  0  0  0  0
   21.9375   -1.5450    2.8513 H   0  0  0  0  0 15  0  0  0  0  0  0
   21.7225   -0.1277    3.9189 H   0  0  0  0  0 15  0  0  0  0  0  0
   23.2125   -1.1121    4.0252 H   0  0  0  0  0 15  0  0  0  0  0  0
   23.6496   -1.4758    0.5530 N   0  0  0  0  0 15  0  0  0  0  0  0
   24.8746   -2.0738    0.0301 C   0  0  0  0  0 15  0  0  0  0  0  0
   25.2996   -1.4035   -1.2523 C   0  0  0  0  0 15  0  0  0  0  0  0
   24.6576   -0.4771   -1.7491 O   0  0  0  0  0 15  0  0  0  0  0  0
   24.7056   -3.6027   -0.1532 C   0  0  0  0  0 15  0  0  0  0  0  0
   23.8096   -3.9404   -1.2168 O   0  0  0  0  0 15  0  0  0  0  0  0
   23.1506   -0.6622    0.0494 H   0  0  0  0  0 15  0  0  0  0  0  0
   25.6806   -1.8966    0.7674 H   0  0  0  0  0 15  0  0  0  0  0  0
   25.6906   -4.0633   -0.3688 H   0  0  0  0  0 15  0  0  0  0  0  0
   24.3656   -4.0846    0.7834 H   0  0  0  0  0 15  0  0  0  0  0  0
   22.9426   -3.5974   -0.9821 H   0  0  0  0  0 15  0  0  0  0  0  0
   25.1277   -0.2892   -1.5492 N   0  0  0  0  0 15  0  0  0  0  0  0
   26.3527    0.3293   -2.0477 C   0  0  0  0  0 15  0  0  0  0  0  0
   26.7777    1.4763   -1.1656 C   0  0  0  0  0 15  0  0  0  0  0  0
   26.1357    1.8053   -0.1672 O   0  0  0  0  0 15  0  0  0  0  0  0
   26.1837    0.7744   -3.5219 C   0  0  0  0  0 15  0  0  0  0  0  0
   25.2877    1.8804   -3.6704 O   0  0  0  0  0 15  0  0  0  0  0  0
   24.6287    0.0659   -0.6607 H   0  0  0  0  0 15  0  0  0  0  0  0
   27.1587   -0.4276   -2.0008 H   0  0  0  0  0 15  0  0  0  0  0  0
   27.1687    1.0664   -3.9382 H   0  0  0  0  0 15  0  0  0  0  0  0
   25.8437   -0.0647   -4.1585 H   0  0  0  0  0 15  0  0  0  0  0  0
   24.4207    1.5898   -3.3731 H   0  0  0  0  0 15  0  0  0  0  0  0
   26.6058    1.5759   -0.0167 N   0  0  0  0  0 15  0  0  0  0  0  0
   27.8458    1.9315    0.6689 C   0  0  0  0  0 15  0  0  0  0  0  0
   28.2098    0.8924    1.7000 C   0  0  0  0  0 15  0  0  0  0  0  0
   29.4108    1.1337    2.4372 O   0  0  0  0  0 15  0  0  0  0  0  0
   27.6818    3.3368    1.2804 C   0  0  0  0  0 15  0  0  0  0  0  0
   29.2408    3.9114    1.9888 S   0  0  0  0  0 15  0  0  0  0  0  0
   26.0588    0.6759    0.2205 H   0  0  0  0  0 15  0  0  0  0  0  0
   28.6608    1.9535   -0.0774 H   0  0  0  0  0 15  0  0  0  0  0  0
   27.3648    4.0713    0.5173 H   0  0  0  0  0 15  0  0  0  0  0  0
   26.8958    3.3489    2.0643 H   0  0  0  0  0 15  0  0  0  0  0  0
   28.9108    3.7357    3.2659 H   0  0  0  0  0 15  0  0  0  0  0  0
   28.0839   -0.2563    1.5550 N   0  0  0  0  0 15  0  0  0  0  0  0
   29.0309   -1.3171    1.8953 C   0  0  0  0  0 15  0  0  0  0  0  0
   30.0009   -1.4828    0.7485 C   0  0  0  0  0 15  0  0  0  0  0  0
   31.1859   -1.6242    1.0013 O   0  0  0  0  0 15  0  0  0  0  0  0
   28.3259   -2.6693    2.1873 C   0  0  0  0  0 15  0  0  0  0  0  0
   27.4389   -2.5845    3.4616 C   0  0  0  0  0 15  0  0  0  0  0  0
   26.5739   -3.8596    3.6498 C   0  0  0  0  0 15  0  0  0  0  0  0
   25.6129   -3.7206    4.8604 C   0  0  0  0  0 15  0  0  0  0  0  0
   24.7499   -4.9144    5.0143 N   0  0  0  0  0 15  0  0  0  0  0  0
   29.5899   -1.0200    2.8000 H   0  0  0  0  0 15  0  0  0  0  0  0
   27.1269   -0.4924    1.3861 H   0  0  0  0  0 15  0  0  0  0  0  0
   29.0849   -3.4563    2.3366 H   0  0  0  0  0 15  0  0  0  0  0  0
   27.7149   -2.9482    1.3147 H   0  0  0  0  0 15  0  0  0  0  0  0
   26.7669   -1.7137    3.3961 H   0  0  0  0  0 15  0  0  0  0  0  0
   28.0789   -2.4408    4.3500 H   0  0  0  0  0 15  0  0  0  0  0  0
   27.2329   -4.7310    3.7982 H   0  0  0  0  0 15  0  0  0  0  0  0
   25.9719   -4.0321    2.7435 H   0  0  0  0  0 15  0  0  0  0  0  0
   24.9769   -2.8330    4.7119 H   0  0  0  0  0 15  0  0  0  0  0  0
   26.2019   -3.5631    5.7812 H   0  0  0  0  0 15  0  0  0  0  0  0
   24.1479   -5.0907    4.1374 H   0  0  0  0  0 15  0  0  0  0  0  0
   24.0649   -4.7967    5.8434 H   0  0  0  0  0 15  0  0  0  0  0  0
   25.3329   -5.8010    5.2067 H   0  0  0  0  0 15  0  0  0  0  0  0
   29.5620   -1.4872   -0.5215 N   0  0  0  0  0 15  0  0  0  0  0  0
   30.8020   -1.5877   -1.2873 C   0  0  0  0  0 15  0  0  0  0  0  0
   31.1660   -0.2594   -1.9024 C   0  0  0  0  0 15  0  0  0  0  0  0
   32.3670   -0.2349   -2.6777 O   0  0  0  0  0 15  0  0  0  0  0  0
   30.6380   -2.7004   -2.3412 C   0  0  0  0  0 15  0  0  0  0  0  0
   32.1970   -2.9991   -3.2031 S   0  0  0  0  0 15  0  0  0  0  0  0
   29.0150   -0.5603   -0.4378 H   0  0  0  0  0 15  0  0  0  0  0  0
   31.6170   -1.8628   -0.5932 H   0  0  0  0  0 15  0  0  0  0  0  0
   30.3210   -3.6510   -1.8743 H   0  0  0  0  0 15  0  0  0  0  0  0
   29.8520   -2.4445   -3.0823 H   0  0  0  0  0 15  0  0  0  0  0  0
   31.8670   -2.3985   -4.3438 H   0  0  0  0  0 15  0  0  0  0  0  0
   31.0401    0.7711   -1.3745 N   0  0  0  0  0 15  0  0  0  0  0  0
   31.9871    1.8844   -1.3327 C   0  0  0  0  0 15  0  0  0  0  0  0
   32.9571    1.6491   -0.1981 C   0  0  0  0  0 15  0  0  0  0  0  0
   34.1421    1.8682   -0.3876 O   0  0  0  0  0 15  0  0  0  0  0  0
   31.2821    3.2551   -1.1462 C   0  0  0  0  0 15  0  0  0  0  0  0
   30.3951    3.6098   -2.3731 C   0  0  0  0  0 15  0  0  0  0  0  0
   29.5301    4.8727   -2.1153 C   0  0  0  0  0 15  0  0  0  0  0  0
   28.5691    5.1547   -3.3009 C   0  0  0  0  0 15  0  0  0  0  0  0
   27.7061    6.3294   -3.0385 N   0  0  0  0  0 15  0  0  0  0  0  0
   32.5461    1.9134   -2.2845 H   0  0  0  0  0 15  0  0  0  0  0  0
   30.0831    0.9355   -1.1352 H   0  0  0  0  0 15  0  0  0  0  0  0
   32.0411    4.0458   -1.0183 H   0  0  0  0  0 15  0  0  0  0  0  0
   30.6711    3.2197   -0.2308 H   0  0  0  0  0 15  0  0  0  0  0  0
   29.7231    2.7689   -2.6084 H   0  0  0  0  0 15  0  0  0  0  0  0
   31.0351    3.7776   -3.2573 H   0  0  0  0  0 15  0  0  0  0  0  0
   30.1891    5.7424   -1.9578 H   0  0  0  0  0 15  0  0  0  0  0  0
   28.9281    4.7259   -1.2046 H   0  0  0  0  0 15  0  0  0  0  0  0
   27.9331    4.2697   -3.4638 H   0  0  0  0  0 15  0  0  0  0  0  0
   29.1581    5.3205   -4.2202 H   0  0  0  0  0 15  0  0  0  0  0  0
   27.1041    6.1963   -2.1541 H   0  0  0  0  0 15  0  0  0  0  0  0
   27.0211    6.5014   -3.8581 H   0  0  0  0  0 15  0  0  0  0  0  0
   28.2891    7.2286   -2.9172 H   0  0  0  0  0 15  0  0  0  0  0  0
   32.5182    1.2203    0.9973 N   0  0  0  0  0 15  0  0  0  0  0  0
   33.4282    1.0027    2.1209 C   0  0  0  0  0 15  0  0  0  0  0  0
   34.4442   -0.0476    1.7393 C   0  0  0  0  0 15  0  0  0  0  0  0
   35.6202    0.1441    2.0088 O   0  0  0  0  0 15  0  0  0  0  0  0
   32.6852    0.5784    3.4184 C   0  0  0  0  0 15  0  0  0  0  0  0
   31.7462    1.7019    3.9412 C   0  0  0  0  0 15  0  0  0  0  0  0
   30.9792    1.2978    5.1768 C   0  0  0  0  0 15  0  0  0  0  0  0
   31.2022    0.1747    5.7013 O   0  0  0  0  0 15  0  0  0  0  0  0
   30.1362    2.1126    5.6361 O   0  0  0  0  0 15  0  0  0  0  0  0
   33.9622    1.9440    2.3333 H   0  0  0  0  0 15  0  0  0  0  0  0
   31.5472    1.0059    1.1047 H   0  0  0  0  0 15  0  0  0  0  0  0
   33.4292    0.3520    4.1993 H   0  0  0  0  0 15  0  0  0  0  0  0
   32.1042   -0.3340    3.2197 H   0  0  0  0  0 15  0  0  0  0  0  0
   31.0112    1.9828    3.1723 H   0  0  0  0  0 15  0  0  0  0  0  0
   32.3442    2.5921    4.1842 H   0  0  0  0  0 15  0  0  0  0  0  0
   33.9963   -1.1934    1.0293 N   0  0  0  0  0 15  0  0  0  0  0  0
   35.2263   -1.9272    0.7446 C   0  0  0  0  0 15  0  0  0  0  0  0
   35.6343   -1.7575   -0.7006 C   0  0  0  0  0 15  0  0  0  0  0  0
   34.9773   -1.0770   -1.4881 O   0  0  0  0  0 15  0  0  0  0  0  0
   35.0393   -3.4483    1.0166 C   0  0  0  0  0 15  0  0  0  0  0  0
   34.7033   -3.8556    2.4533 C   0  0  0  0  0 15  0  0  0  0  0  0
   35.7003   -3.9029    3.4347 C   0  0  0  0  0 15  0  0  0  0  0  0
   33.3853   -4.1719    2.7975 C   0  0  0  0  0 15  0  0  0  0  0  0
   35.3793   -4.2606    4.7408 C   0  0  0  0  0 15  0  0  0  0  0  0
   33.0663   -4.5264    4.1056 C   0  0  0  0  0 15  0  0  0  0  0  0
   34.0643   -4.5705    5.0753 C   0  0  0  0  0 15  0  0  0  0  0  0
   33.7523   -4.9168    6.3600 O   0  0  0  0  0 15  0  0  0  0  0  0
   33.4843   -0.6190    0.2717 H   0  0  0  0  0 15  0  0  0  0  0  0
   36.0383   -1.5242    1.3769 H   0  0  0  0  0 15  0  0  0  0  0  0
   34.2683   -3.8531    0.3271 H   0  0  0  0  0 15  0  0  0  0  0  0
   35.9573   -3.9944    0.7214 H   0  0  0  0  0 15  0  0  0  0  0  0
   36.7233   -3.6600    3.1823 H   0  0  0  0  0 15  0  0  0  0  0  0
   32.6023   -4.1294    2.0494 H   0  0  0  0  0 15  0  0  0  0  0  0
   36.1463   -4.2942    5.4976 H   0  0  0  0  0 15  0  0  0  0  0  0
   32.0433   -4.7638    4.3558 H   0  0  0  0  0 15  0  0  0  0  0  0
   32.8113   -5.0963    6.4048 H   0  0  0  0  0 15  0  0  0  0  0  0
   35.4744   -0.8072   -1.3536 N   0  0  0  0  0 15  0  0  0  0  0  0
   36.4214   -0.2160   -2.2979 C   0  0  0  0  0 15  0  0  0  0  0  0
   37.3914    0.6503   -1.5284 C   0  0  0  0  0 15  0  0  0  0  0  0
   38.5764    0.5952   -1.8128 O   0  0  0  0  0 15  0  0  0  0  0  0
   35.7164    0.6289   -3.3932 C   0  0  0  0  0 15  0  0  0  0  0  0
   34.8294   -0.2579   -4.3123 C   0  0  0  0  0 15  0  0  0  0  0  0
   33.9644    0.5951   -5.2786 C   0  0  0  0  0 15  0  0  0  0  0  0
   33.0034   -0.2921   -6.1140 C   0  0  0  0  0 15  0  0  0  0  0  0
   32.1404    0.5209   -7.0017 N   0  0  0  0  0 15  0  0  0  0  0  0
   36.9804   -1.0267   -2.7975 H   0  0  0  0  0 15  0  0  0  0  0  0
   34.5174   -0.5178   -1.3768 H   0  0  0  0  0 15  0  0  0  0  0  0
   36.4754    1.1339   -4.0149 H   0  0  0  0  0 15  0  0  0  0  0  0
   35.1054    1.4048   -2.9063 H   0  0  0  0  0 15  0  0  0  0  0  0
   34.1574   -0.8811   -3.7006 H   0  0  0  0  0 15  0  0  0  0  0  0
   35.4694   -0.9408   -4.8985 H   0  0  0  0  0 15  0  0  0  0  0  0
   34.6234    1.1652   -5.9541 H   0  0  0  0  0 15  0  0  0  0  0  0
   33.3624    1.3115   -4.6974 H   0  0  0  0  0 15  0  0  0  0  0  0
   32.3674   -0.8745   -5.4280 H   0  0  0  0  0 15  0  0  0  0  0  0
   33.5924   -1.0064   -6.7160 H   0  0  0  0  0 15  0  0  0  0  0  0
   31.5384    1.2213   -6.4453 H   0  0  0  0  0 15  0  0  0  0  0  0
   31.4554   -0.1039   -7.5593 H   0  0  0  0  0 15  0  0  0  0  0  0
   32.7234    1.0743   -7.7206 H   0  0  0  0  0 15  0  0  0  0  0  0
   36.9525    1.4729   -0.5608 N   0  0  0  0  0 15  0  0  0  0  0  0
   38.1925    2.0436   -0.0405 C   0  0  0  0  0 15  0  0  0  0  0  0
   38.5565    1.4253    1.2864 C   0  0  0  0  0 15  0  0  0  0  0  0
   39.7575    1.9068    1.8946 O   0  0  0  0  0 15  0  0  0  0  0  0
   38.0285    3.5737    0.0472 C   0  0  0  0  0 15  0  0  0  0  0  0
   39.5875    4.3579    0.5131 S   0  0  0  0  0 15  0  0  0  0  0  0
   36.4055    0.7105   -0.0269 H   0  0  0  0  0 15  0  0  0  0  0  0
   39.0075    1.8061   -0.7483 H   0  0  0  0  0 15  0  0  0  0  0  0
   37.7115    3.9989   -0.9228 H   0  0  0  0  0 15  0  0  0  0  0  0
   37.2425    3.8562    0.7785 H   0  0  0  0  0 15  0  0  0  0  0  0
   39.2575    4.6348    1.7721 H   0  0  0  0  0 15  0  0  0  0  0  0
   38.4306    0.2974    1.5477 N   0  0  0  0  0 15  0  0  0  0  0  0
   39.6586   -0.3156    2.0448 C   0  0  0  0  0 15  0  0  0  0  0  0
   40.0736   -1.4779    1.1749 C   0  0  0  0  0 15  0  0  0  0  0  0
   39.4306   -1.8140    0.1997 O   0  0  0  0  0 15  0  0  0  0  0  0
   39.4816   -0.7753    3.5309 C   0  0  0  0  0 15  0  0  0  0  0  0
   39.2026    0.3407    4.3677 O   0  0  0  0  0 15  0  0  0  0  0  0
   40.7036   -1.4539    4.1878 C   0  0  0  0  0 15  0  0  0  0  0  0
   37.9236   -0.0691    0.6674 H   0  0  0  0  0 15  0  0  0  0  0  0
   40.4676    0.4360    1.9980 H   0  0  0  0  0 15  0  0  0  0  0  0
   38.6226   -1.4770    3.5814 H   0  0  0  0  0 15  0  0  0  0  0  0
   39.0366   -0.0165    5.2450 H   0  0  0  0  0 15  0  0  0  0  0  0
   40.5106   -1.7267    5.2430 H   0  0  0  0  0 15  0  0  0  0  0  0
   40.9876   -2.3927    3.6830 H   0  0  0  0  0 15  0  0  0  0  0  0
   41.5936   -0.7955    4.1779 H   0  0  0  0  0 15  0  0  0  0  0  0
   39.9087   -1.5758    0.0251 N   0  0  0  0  0 15  0  0  0  0  0  0
   41.1337   -1.9634   -0.6683 C   0  0  0  0  0 15  0  0  0  0  0  0
   41.5587   -0.9013   -1.6510 C   0  0  0  0  0 15  0  0  0  0  0  0
   40.9167    0.1382   -1.8077 O   0  0  0  0  0 15  0  0  0  0  0  0
   40.9647   -3.3419   -1.3546 C   0  0  0  0  0 15  0  0  0  0  0  0
   40.0687   -3.3027   -2.4697 O   0  0  0  0  0 15  0  0  0  0  0  0
   39.4097   -0.6403   -0.1759 H   0  0  0  0  0 15  0  0  0  0  0  0
   41.9397   -2.0442    0.0857 H   0  0  0  0  0 15  0  0  0  0  0  0
   41.9497   -3.7033   -1.7123 H   0  0  0  0  0 15  0  0  0  0  0  0
   40.6247   -4.1104   -0.6342 H   0  0  0  0  0 15  0  0  0  0  0  0
   39.2017   -3.0584   -2.1334 H   0  0  0  0  0 15  0  0  0  0  0  0
   41.3868    0.2480   -1.5564 N   0  0  0  0  0 15  0  0  0  0  0  0
   42.6268    0.9836   -1.7918 C   0  0  0  0  0 15  0  0  0  0  0  0
   42.9908    1.8257   -0.5944 C   0  0  0  0  0 15  0  0  0  0  0  0
   44.1918    2.5929   -0.7086 O   0  0  0  0  0 15  0  0  0  0  0  0
   42.4628    1.8223   -3.0745 C   0  0  0  0  0 15  0  0  0  0  0  0
   44.0218    2.6171   -3.5221 S   0  0  0  0  0 15  0  0  0  0  0  0
   40.8398    0.3309   -0.6293 H   0  0  0  0  0 15  0  0  0  0  0  0
   43.4418    0.2516   -1.9387 H   0  0  0  0  0 15  0  0  0  0  0  0
   42.1458    1.1933   -3.9267 H   0  0  0  0  0 15  0  0  0  0  0  0
   41.6768    2.5971   -2.9549 H   0  0  0  0  0 15  0  0  0  0  0  0
   43.6918    3.8465   -3.1346 H   0  0  0  0  0 15  0  0  0  0  0  0
   42.8649    1.4899    0.5136 N   0  0  0  0  0 15  0  0  0  0  0  0
   43.8119    1.6473    1.6166 C   0  0  0  0  0 15  0  0  0  0  0  0
   44.7819    0.4890    1.5874 C   0  0  0  0  0 15  0  0  0  0  0  0
   45.9669    0.7145    1.7692 O   0  0  0  0  0 15  0  0  0  0  0  0
   43.1069    1.7082    2.9986 C   0  0  0  0  0 15  0  0  0  0  0  0
   42.2199    2.9787    3.1289 C   0  0  0  0  0 15  0  0  0  0  0  0
   41.3549    2.9502    4.4174 C   0  0  0  0  0 15  0  0  0  0  0  0
   40.3939    4.1670    4.4836 C   0  0  0  0  0 15  0  0  0  0  0  0
   39.5309    4.1183    5.6863 N   0  0  0  0  0 15  0  0  0  0  0  0
   44.3709    2.5891    1.4755 H   0  0  0  0  0 15  0  0  0  0  0  0
   41.9079    1.2838    0.7181 H   0  0  0  0  0 15  0  0  0  0  0  0
   43.8659    1.7233    3.7994 H   0  0  0  0  0 15  0  0  0  0  0  0
   42.4959    0.8012    3.1270 H   0  0  0  0  0 15  0  0  0  0  0  0
   41.5479    3.0603    2.2594 H   0  0  0  0  0 15  0  0  0  0  0  0
   42.8599    3.8786    3.1363 H   0  0  0  0  0 15  0  0  0  0  0  0
   42.0139    2.9502    5.3014 H   0  0  0  0  0 15  0  0  0  0  0  0
   40.7529    2.0278    4.4354 H   0  0  0  0  0 15  0  0  0  0  0  0
   39.7579    4.1696    3.5837 H   0  0  0  0  0 15  0  0  0  0  0  0
   40.9829    5.1011    4.4829 H   0  0  0  0  0 15  0  0  0  0  0  0
   38.9289    3.2243    5.7129 H   0  0  0  0  0 15  0  0  0  0  0  0
   38.8459    4.9554    5.7094 H   0  0  0  0  0 15  0  0  0  0  0  0
   40.1139    4.1592    6.5927 H   0  0  0  0  0 15  0  0  0  0  0  0
   44.3430   -0.7638    1.3786 N   0  0  0  0  0 15  0  0  0  0  0  0
   45.2900   -1.8773    1.3427 C   0  0  0  0  0 15  0  0  0  0  0  0
   46.2600   -1.6481    0.2069 C   0  0  0  0  0 15  0  0  0  0  0  0
   47.4450   -1.8661    0.3975 O   0  0  0  0  0 15  0  0  0  0  0  0
   44.5850   -3.2490    1.1635 C   0  0  0  0  0 15  0  0  0  0  0  0
   43.6980   -3.5972    2.3923 C   0  0  0  0  0 15  0  0  0  0  0  0
   42.8330   -4.8614    2.1411 C   0  0  0  0  0 15  0  0  0  0  0  0
   41.8720   -5.1371    3.3282 C   0  0  0  0  0 15  0  0  0  0  0  0
   41.0090   -6.3132    3.0721 N   0  0  0  0  0 15  0  0  0  0  0  0
   45.8490   -1.9013    2.2947 H   0  0  0  0  0 15  0  0  0  0  0  0
   43.3860   -0.9294    1.1402 H   0  0  0  0  0 15  0  0  0  0  0  0
   45.3440   -4.0404    1.0397 H   0  0  0  0  0 15  0  0  0  0  0  0
   43.9740   -3.2185    0.2479 H   0  0  0  0  0 15  0  0  0  0  0  0
   43.0260   -2.7550    2.6231 H   0  0  0  0  0 15  0  0  0  0  0  0
   44.3380   -3.7603    3.2773 H   0  0  0  0  0 15  0  0  0  0  0  0
   43.4920   -5.7320    1.9882 H   0  0  0  0  0 15  0  0  0  0  0  0
   42.2310   -4.7194    1.2296 H   0  0  0  0  0 15  0  0  0  0  0  0
   41.2360   -4.2512    3.4864 H   0  0  0  0  0 15  0  0  0  0  0  0
   42.4610   -5.2981    4.2483 H   0  0  0  0  0 15  0  0  0  0  0  0
   40.4070   -6.1847    2.1869 H   0  0  0  0  0 15  0  0  0  0  0  0
   40.3240   -6.4809    3.8925 H   0  0  0  0  0 15  0  0  0  0  0  0
   41.5920   -7.2130    2.9555 H   0  0  0  0  0 15  0  0  0  0  0  0
   45.8211   -1.2256   -0.9908 N   0  0  0  0  0 15  0  0  0  0  0  0
   46.7691   -0.9948   -2.1025 C   0  0  0  0  0 15  0  0  0  0  0  0
   47.7631    0.0628   -1.6928 C   0  0  0  0  0 15  0  0  0  0  0  0
   48.9691   -0.0898   -1.7978 O   0  0  0  0  0 15  0  0  0  0  0  0
   45.3441   -0.3045   -0.6876 H   0  0  0  0  0 15  0  0  0  0  0  0
   47.3151   -1.9381   -2.2689 H   0  0  0  0  0 15  0  0  0  0  0  0
   46.0641   -0.5914   -3.4263 C   0  0  0  0  0 15  0  0  0  0  0  0
   45.3871   -1.3969   -3.7460 H   0  0  0  0  0 15  0  0  0  0  0  0
   46.8271   -0.4694   -4.2139 H   0  0  0  0  0 15  0  0  0  0  0  0
   45.2861    0.6992   -3.2956 C   0  0  0  0  0 15  0  0  0  0  0  0
   45.8161    1.7511   -3.6152 O   0  0  0  0  0 15  0  0  0  0  0  0
   44.0221    0.6712   -2.8274 N   0  0  0  0  0 15  0  0  0  0  0  0
   43.5691   -0.1851   -2.5693 H   0  0  0  0  0 15  0  0  0  0  0  0
   43.5271    1.5350   -2.7438 H   0  0  0  0  0 15  0  0  0  0  0  0
   47.2992    1.1880   -1.0356 N   0  0  0  0  0 15  0  0  0  0  0  0
   48.5392    1.9035   -0.7448 C   0  0  0  0  0 15  0  0  0  0  0  0
   48.9032    1.7823    0.7140 C   0  0  0  0  0 15  0  0  0  0  0  0
   50.1042    2.4444    1.1181 O   0  0  0  0  0 15  0  0  0  0  0  0
   48.3752    3.3694   -1.1918 C   0  0  0  0  0 15  0  0  0  0  0  0
   49.9342    4.2664   -1.0259 S   0  0  0  0  0 15  0  0  0  0  0  0
   46.7522    0.6573   -0.2710 H   0  0  0  0  0 15  0  0  0  0  0  0
   49.3542    1.4358   -1.3269 H   0  0  0  0  0 15  0  0  0  0  0  0
   48.0582    3.4329   -2.2490 H   0  0  0  0  0 15  0  0  0  0  0  0
   47.5892    3.8875   -0.6034 H   0  0  0  0  0 15  0  0  0  0  0  0
   49.6042    4.9616    0.0596 H   0  0  0  0  0 15  0  0  0  0  0  0
   48.7773    0.8144    1.3493 N   0  0  0  0  0 15  0  0  0  0  0  0
   50.0173    0.4042    2.0036 C   0  0  0  0  0 15  0  0  0  0  0  0
   50.3813   -1.0117    1.6319 C   0  0  0  0  0 15  0  0  0  0  0  0
   51.5823   -1.5243    2.2140 O   0  0  0  0  0 15  0  0  0  0  0  0
   49.8533    0.5907    3.5248 C   0  0  0  0  0 15  0  0  0  0  0  0
   51.4123    0.2721    4.3796 S   0  0  0  0  0 15  0  0  0  0  0  0
   48.2303    0.1531    0.6943 H   0  0  0  0  0 15  0  0  0  0  0  0
   50.8323    1.0583    1.6438 H   0  0  0  0  0 15  0  0  0  0  0  0
   49.5363    1.6210    3.7703 H   0  0  0  0  0 15  0  0  0  0  0  0
   49.0673   -0.0785    3.9332 H   0  0  0  0  0 15  0  0  0  0  0  0
   51.0823   -0.9174    4.8765 H   0  0  0  0  0 15  0  0  0  0  0  0
   50.2554   -1.4699    0.5686 N   0  0  0  0  0 15  0  0  0  0  0  0
   51.4804   -2.0733    0.0521 C   0  0  0  0  0 15  0  0  0  0  0  0
   51.9054   -1.4167   -1.2373 C   0  0  0  0  0 15  0  0  0  0  0  0
   51.2634   -0.4956   -1.7439 O   0  0  0  0  0 15  0  0  0  0  0  0
   51.3114   -3.6042   -0.1150 C   0  0  0  0  0 15  0  0  0  0  0  0
   50.4154   -3.9531   -1.1749 O   0  0  0  0  0 15  0  0  0  0  0  0
   49.7564   -0.6616    0.0564 H   0  0  0  0  0 15  0  0  0  0  0  0
   52.2864   -1.8884    0.7875 H   0  0  0  0  0 15  0  0  0  0  0  0
   52.2964   -4.0670   -0.3256 H   0  0  0  0  0 15  0  0  0  0  0  0
   50.9714   -4.0760    0.8267 H   0  0  0  0  0 15  0  0  0  0  0  0
   49.5484   -3.6076   -0.9439 H   0  0  0  0  0 15  0  0  0  0  0  0
   51.7335   -0.3056   -1.5461 N   0  0  0  0  0 15  0  0  0  0  0  0
   52.9735    0.3031   -2.0214 C   0  0  0  0  0 15  0  0  0  0  0  0
   53.3375    1.5074   -1.1892 C   0  0  0  0  0 15  0  0  0  0  0  0
   54.5385    2.1878   -1.5617 O   0  0  0  0  0 15  0  0  0  0  0  0
   52.8095    0.6463   -3.5151 C   0  0  0  0  0 15  0  0  0  0  0  0
   54.3685    1.2373   -4.2100 S   0  0  0  0  0 15  0  0  0  0  0  0
   51.1865    0.0928   -0.7049 H   0  0  0  0  0 15  0  0  0  0  0  0
   53.7885   -0.4346   -1.9061 H   0  0  0  0  0 15  0  0  0  0  0  0
   52.4925   -0.2385   -4.0971 H   0  0  0  0  0 15  0  0  0  0  0  0
   52.0235    1.4147   -3.6708 H   0  0  0  0  0 15  0  0  0  0  0  0
   54.0385    2.5249   -4.2716 H   0  0  0  0  0 15  0  0  0  0  0  0
   53.2116    1.5756   -0.0334 N   0  0  0  0  0 15  0  0  0  0  0  0
   54.4516    1.9384    0.6484 C   0  0  0  0  0 15  0  0  0  0  0  0
   54.8156    0.9104    1.6904 C   0  0  0  0  0 15  0  0  0  0  0  0
   56.0166    1.1595    2.4250 O   0  0  0  0  0 15  0  0  0  0  0  0
   54.2876    3.3502    1.2449 C   0  0  0  0  0 15  0  0  0  0  0  0
   55.8466    3.9323    1.9472 S   0  0  0  0  0 15  0  0  0  0  0  0
   52.6646    0.6782    0.2134 H   0  0  0  0  0 15  0  0  0  0  0  0
   55.2666    1.9525   -0.0981 H   0  0  0  0  0 15  0  0  0  0  0  0
   53.9706    4.0765    0.4741 H   0  0  0  0  0 15  0  0  0  0  0  0
   53.5016    3.3706    2.0286 H   0  0  0  0  0 15  0  0  0  0  0  0
   55.5166    3.7701    3.2261 H   0  0  0  0  0 15  0  0  0  0  0  0
   54.6897   -0.2398    1.5577 N   0  0  0  0  0 15  0  0  0  0  0  0
   56.1007   -0.8083    1.6830 C   0  0  0  0  0 15  0  0  0  0  0  0
   56.4517   -1.8574    0.6322 C   0  0  0  0  0 15  0  0  0  0  0  0
   55.5767   -2.1528   -0.2202 O   0  0  0  0  0 15  0  0  0  0  0  0
   56.1717   -1.4728    3.0511 C   0  0  0  0  0 15  0  0  0  0  0  0
   54.7307   -1.9889    3.1956 C   0  0  0  0  0 15  0  0  0  0  0  0
   53.8777   -0.8426    2.6419 C   0  0  0  0  0 15  0  0  0  0  0  0
   56.8287   -0.0154    1.5869 H   0  0  0  0  0 15  0  0  0  0  0  0
   56.8497   -2.3411    2.9995 H   0  0  0  0  0 15  0  0  0  0  0  0
   56.3617   -0.7091    3.8157 H   0  0  0  0  0 15  0  0  0  0  0  0
   54.4627   -2.7813    2.4794 H   0  0  0  0  0 15  0  0  0  0  0  0
   54.5757   -2.1814    4.2656 H   0  0  0  0  0 15  0  0  0  0  0  0
   52.9397   -1.2450    2.2220 H   0  0  0  0  0 15  0  0  0  0  0  0
   53.7227   -0.0918    3.4318 H   0  0  0  0  0 15  0  0  0  0  0  0
   56.1678   -1.4927   -0.5057 N   0  0  0  0  0 15  0  0  0  0  0  0
   57.1008   -1.6018   -1.6253 C   0  0  0  0  0 15  0  0  0  0  0  0
   58.0788   -0.4511   -1.5622 C   0  0  0  0  0 15  0  0  0  0  0  0
   59.2628   -0.6660   -1.7634 O   0  0  0  0  0 15  0  0  0  0  0  0
   56.3898   -1.5524   -3.0103 C   0  0  0  0  0 15  0  0  0  0  0  0
   55.4358   -2.7545   -3.2562 C   0  0  0  0  0 15  0  0  0  0  0  0
   56.2688   -4.3717   -3.0926 S   0  0  0  0  0 15  0  0  0  0  0  0
   57.4248   -4.3487   -4.5016 C   0  0  0  0  0 15  0  0  0  0  0  0
   57.6578   -2.5489   -1.5302 H   0  0  0  0  0 15  0  0  0  0  0  0
   55.1908   -1.3810   -0.6905 H   0  0  0  0  0 15  0  0  0  0  0  0
   57.1488   -1.5307   -3.8089 H   0  0  0  0  0 15  0  0  0  0  0  0
   55.8098   -0.6182   -3.0796 H   0  0  0  0  0 15  0  0  0  0  0  0
   55.0028   -2.6820   -4.2672 H   0  0  0  0  0 15  0  0  0  0  0  0
   54.6048   -2.7501   -2.5347 H   0  0  0  0  0 15  0  0  0  0  0  0
   56.8968   -4.0629   -5.4215 H   0  0  0  0  0 15  0  0  0  0  0  0
   57.8398   -5.3622   -4.6246 H   0  0  0  0  0 15  0  0  0  0  0  0
   58.2478   -3.6501   -4.3062 H   0  0  0  0  0 15  0  0  0  0  0  0
   57.6459    0.7564   -1.3826 N   0  0  0  0  0 15  0  0  0  0  0  0
   58.8939    1.5125   -1.3405 C   0  0  0  0  0 15  0  0  0  0  0  0
   59.2149    1.9487    0.0698 C   0  0  0  0  0 15  0  0  0  0  0  0
   58.4849    1.6744    1.0170 O   0  0  0  0  0 15  0  0  0  0  0  0
   57.0649    0.5610   -0.4932 H   0  0  0  0  0 15  0  0  0  0  0  0
   59.7269    0.8993   -1.7291 H   0  0  0  0  0 15  0  0  0  0  0  0
   58.8229    2.4047   -1.9895 H   0  0  0  0  0 15  0  0  0  0  0  0
   59.1240    1.2308    0.9843 N   0  0  0  0  0 15  0  0  0  0  0  0
   60.3640    1.0723    1.7402 C   0  0  0  0  0 15  0  0  0  0  0  0
   60.7280   -0.3848    1.8811 C   0  0  0  0  0 15  0  0  0  0  0  0
   61.9290   -0.6644    2.6046 O   0  0  0  0  0 15  0  0  0  0  0  0
   60.2000    1.7735    3.1029 C   0  0  0  0  0 15  0  0  0  0  0  0
   61.7590    1.7701    4.0151 S   0  0  0  0  0 15  0  0  0  0  0  0
   58.5770    0.3838    0.5985 H   0  0  0  0  0 15  0  0  0  0  0  0
   61.1790    1.5616    1.1762 H   0  0  0  0  0 15  0  0  0  0  0  0
   59.8830    2.8251    2.9769 H   0  0  0  0  0 15  0  0  0  0  0  0
   59.4140    1.2868    3.7176 H   0  0  0  0  0 15  0  0  0  0  0  0
   61.4290    0.8260    4.8928 H   0  0  0  0  0 15  0  0  0  0  0  0
   60.6021   -1.1825    1.0419 N   0  0  0  0  0 15  0  0  0  0  0  0
   61.5651   -2.2013    0.6385 C   0  0  0  0  0 15  0  0  0  0  0  0
   62.5651   -1.5788   -0.3048 C   0  0  0  0  0 15  0  0  0  0  0  0
   63.7551   -1.7397   -0.0900 O   0  0  0  0  0 15  0  0  0  0  0  0
   60.8871   -3.4084   -0.0638 C   0  0  0  0  0 15  0  0  0  0  0  0
   62.0801   -2.5734    1.5401 H   0  0  0  0  0 15  0  0  0  0  0  0
   59.6331   -1.3215    0.8346 H   0  0  0  0  0 15  0  0  0  0  0  0
   60.3681   -3.0917   -0.9791 H   0  0  0  0  0 15  0  0  0  0  0  0
   60.1531   -3.8726    0.6142 H   0  0  0  0  0 15  0  0  0  0  0  0
   61.6431   -4.1627   -0.3325 H   0  0  0  0  0 15  0  0  0  0  0  0
   62.0802   -0.8215   -1.3449 N   0  0  0  0  0 15  0  0  0  0  0  0
   63.0272   -0.2404   -2.2954 C   0  0  0  0  0 15  0  0  0  0  0  0
   63.9972    0.6340   -1.5352 C   0  0  0  0  0 15  0  0  0  0  0  0
   65.1822    0.5760   -1.8190 O   0  0  0  0  0 15  0  0  0  0  0  0
   62.3222    0.5929   -3.3997 C   0  0  0  0  0 15  0  0  0  0  0  0
   61.4352   -0.3036   -4.3093 C   0  0  0  0  0 15  0  0  0  0  0  0
   60.5702    0.5390   -5.2846 C   0  0  0  0  0 15  0  0  0  0  0  0
   59.6092   -0.3569   -6.1106 C   0  0  0  0  0 15  0  0  0  0  0  0
   58.7462    0.4466   -7.0068 N   0  0  0  0  0 15  0  0  0  0  0  0
   63.5862   -1.0563   -2.7865 H   0  0  0  0  0 15  0  0  0  0  0  0
   61.1232   -0.5324   -1.3713 H   0  0  0  0  0 15  0  0  0  0  0  0
   63.0812    1.0913   -4.0267 H   0  0  0  0  0 15  0  0  0  0  0  0
   61.7112    1.3739   -2.9210 H   0  0  0  0  0 15  0  0  0  0  0  0
   60.7632   -0.9203   -3.6910 H   0  0  0  0  0 15  0  0  0  0  0  0
   62.0752   -0.9927   -4.8882 H   0  0  0  0  0 15  0  0  0  0  0  0
   61.2292    1.1020   -5.9661 H   0  0  0  0  0 15  0  0  0  0  0  0
   59.9682    1.2616   -4.7110 H   0  0  0  0  0 15  0  0  0  0  0  0
   58.9732   -0.9320   -5.4184 H   0  0  0  0  0 15  0  0  0  0  0  0
   60.1982   -1.0776   -6.7050 H   0  0  0  0  0 15  0  0  0  0  0  0
   58.1442    1.1528   -6.4579 H   0  0  0  0  0 15  0  0  0  0  0  0
   58.0612   -0.1840   -7.5578 H   0  0  0  0  0 15  0  0  0  0  0  0
   59.3292    0.9924   -7.7316 H   0  0  0  0  0 15  0  0  0  0  0  0
   63.5583    1.4668   -0.5764 N   0  0  0  0  0 15  0  0  0  0  0  0
   64.7983    2.0431   -0.0621 C   0  0  0  0  0 15  0  0  0  0  0  0
   65.1623    1.4389    1.2712 C   0  0  0  0  0 15  0  0  0  0  0  0
   66.3633    1.9268    1.8743 O   0  0  0  0  0 15  0  0  0  0  0  0
   64.6343    3.5740    0.0093 C   0  0  0  0  0 15  0  0  0  0  0  0
   66.1933    4.3631    0.4669 S   0  0  0  0  0 15  0  0  0  0  0  0
   63.0113    0.7102   -0.0344 H   0  0  0  0  0 15  0  0  0  0  0  0
   65.6133    1.7981   -0.7674 H   0  0  0  0  0 15  0  0  0  0  0  0
   64.3173    3.9889   -0.9652 H   0  0  0  0  0 15  0  0  0  0  0  0
   63.8483    3.8642    0.7375 H   0  0  0  0  0 15  0  0  0  0  0  0
   65.8633    4.6533    1.7229 H   0  0  0  0  0 15  0  0  0  0  0  0
   65.0364    0.3138    1.5444 N   0  0  0  0  0 15  0  0  0  0  0  0
   65.9994   -0.5438    2.2266 C   0  0  0  0  0 15  0  0  0  0  0  0
   66.9994   -1.0512    1.2168 C   0  0  0  0  0 15  0  0  0  0  0  0
   68.1894   -0.9452    1.4633 O   0  0  0  0  0 15  0  0  0  0  0  0
   65.3214   -1.7543    2.9230 C   0  0  0  0  0 15  0  0  0  0  0  0
   66.5144    0.0524    2.9985 H   0  0  0  0  0 15  0  0  0  0  0  0
   64.0674    0.0648    1.5617 H   0  0  0  0  0 15  0  0  0  0  0  0
   64.8024   -2.3899    2.1921 H   0  0  0  0  0 15  0  0  0  0  0  0
   64.5874   -1.3979    3.6633 H   0  0  0  0  0 15  0  0  0  0  0  0
   66.0774   -2.3633    3.4430 H   0  0  0  0  0 15  0  0  0  0  0  0
   66.5145   -1.5754    0.0418 N   0  0  0  0  0 15  0  0  0  0  0  0
   67.4465   -2.0790   -0.9648 C   0  0  0  0  0 15  0  0  0  0  0  0
   68.4595   -1.0050   -1.2808 C   0  0  0  0  0 15  0  0  0  0  0  0
   69.6485   -1.2809   -1.2432 O   0  0  0  0  0 15  0  0  0  0  0  0
   66.7485   -2.4993   -2.2889 C   0  0  0  0  0 15  0  0  0  0  0  0
   65.9215   -3.8056   -2.1562 C   0  0  0  0  0 15  0  0  0  0  0  0
   64.9805   -4.0900   -3.3107 C   0  0  0  0  0 15  0  0  0  0  0  0
   64.0065   -4.7906   -3.0739 O   0  0  0  0  0 15  0  0  0  0  0  0
   65.2085   -3.6017   -4.5526 N   0  0  0  0  0 15  0  0  0  0  0  0
   67.9735   -2.9489   -0.5350 H   0  0  0  0  0 15  0  0  0  0  0  0
   65.5345   -1.6125   -0.1447 H   0  0  0  0  0 15  0  0  0  0  0  0
   67.5265   -2.6603   -3.0497 H   0  0  0  0  0 15  0  0  0  0  0  0
   66.0965   -1.6824   -2.6346 H   0  0  0  0  0 15  0  0  0  0  0  0
   65.3165   -3.7413   -1.2418 H   0  0  0  0  0 15  0  0  0  0  0  0
   66.6045   -4.6613   -2.0397 H   0  0  0  0  0 15  0  0  0  0  0  0
   66.0025   -3.0351   -4.7739 H   0  0  0  0  0 15  0  0  0  0  0  0
   64.5595   -3.8153   -5.2847 H   0  0  0  0  0 15  0  0  0  0  0  0
   67.9926    0.2315   -1.5589 N   0  0  0  0  0 15  0  0  0  0  0  0
   69.2406    0.9555   -1.7809 C   0  0  0  0  0 15  0  0  0  0  0  0
   69.5616    1.8526   -0.6085 C   0  0  0  0  0 15  0  0  0  0  0  0
   68.8316    1.9228    0.3750 O   0  0  0  0  0 15  0  0  0  0  0  0
   67.4116    0.3558   -0.6568 H   0  0  0  0  0 15  0  0  0  0  0  0
   70.0736    0.2458   -1.9334 H   0  0  0  0  0 15  0  0  0  0  0  0
   69.1696    1.5681   -2.6984 H   0  0  0  0  0 15  0  0  0  0  0  0
   69.4707    1.4953    0.4978 N   0  0  0  0  0 15  0  0  0  0  0  0
   70.7107    1.6080    1.2619 C   0  0  0  0  0 15  0  0  0  0  0  0
   71.0747    0.2896    1.8980 C   0  0  0  0  0 15  0  0  0  0  0  0
   72.2757    0.2775    2.6736 O   0  0  0  0  0 15  0  0  0  0  0  0
   70.5467    2.7373    2.2980 C   0  0  0  0  0 15  0  0  0  0  0  0
   72.1057    3.0497    3.1550 S   0  0  0  0  0 15  0  0  0  0  0  0
   68.9237    0.5671    0.4288 H   0  0  0  0  0 15  0  0  0  0  0  0
   71.5257    1.8720    0.5635 H   0  0  0  0  0 15  0  0  0  0  0  0
   70.2297    3.6804    1.8160 H   0  0  0  0  0 15  0  0  0  0  0  0
   69.7607    2.4933    3.0430 H   0  0  0  0  0 15  0  0  0  0  0  0
   71.7757    2.4674    4.3051 H   0  0  0  0  0 15  0  0  0  0  0  0
   70.9488   -0.7491    1.3866 N   0  0  0  0  0 15  0  0  0  0  0  0
   72.1768   -1.5383    1.3836 C   0  0  0  0  0 15  0  0  0  0  0  0
   72.5918   -1.8878   -0.0255 C   0  0  0  0  0 15  0  0  0  0  0  0
   71.9488   -1.5310   -0.9933 O   0  0  0  0  0 15  0  0  0  0  0  0
   71.9998   -2.8347    2.2434 C   0  0  0  0  0 15  0  0  0  0  0  0
   71.7208   -2.5001    3.5976 O   0  0  0  0  0 15  0  0  0  0  0  0
   73.2218   -3.7758    2.3227 C   0  0  0  0  0 15  0  0  0  0  0  0
   70.4418   -0.4759    0.4731 H   0  0  0  0  0 15  0  0  0  0  0  0
   72.9858   -0.9267    1.8230 H   0  0  0  0  0 15  0  0  0  0  0  0
   71.1408   -3.4100    1.8385 H   0  0  0  0  0 15  0  0  0  0  0  0
   71.5548   -3.3318    4.0508 H   0  0  0  0  0 15  0  0  0  0  0  0
   73.0288   -4.6548    2.9671 H   0  0  0  0  0 15  0  0  0  0  0  0
   73.5058   -4.1833    1.3376 H   0  0  0  0  0 15  0  0  0  0  0  0
   74.1118   -3.2598    2.7317 H   0  0  0  0  0 15  0  0  0  0  0  0
   72.4658   -1.3478   -0.8898 O   0  0  0  0  0 15  0  0  0  0  0  0
   73.1568   -1.1926   -1.5263 H   0  0  0  0  0 15  0  0  0  0  0  0
M  END
$$$$
