drugbank_target|A1Z199 BCR/ABL p210 fusion protein (DB05164)
 OpenBabel12092120313D

  0  0  0     0  0            999 V3000
M  V30 BEGIN CTAB
M  V30 COUNTS 1491 1506 0 0 0
M  V30 BEGIN ATOM
M  V30 1 H -0.908 1.98254 -0.117106 0
M  V30 2 N 0 1.576 0 0
M  V30 3 C 0.932 2.05273 1.01958 0
M  V30 4 C 1.945 0.970662 1.30698 0
M  V30 5 O 3.134 1.24746 1.27674 0
M  V30 6 C 0.234 2.43771 2.35433 0
M  V30 7 C -0.593 3.74711 2.25633 0
M  V30 8 C -1.534 4.00077 3.41796 0
M  V30 9 O -2.508 4.70743 3.19984 0
M  V30 10 N -1.306 3.47973 4.64645 0
M  V30 11 H 1.459 2.93363 0.613025 0
M  V30 12 H -0.98 1.60812 0.187383 0
M  V30 13 H 1.012 2.57855 3.11918 0
M  V30 14 H -0.418 1.612 2.67831 0
M  V30 15 H -1.198 3.70705 1.34059 0
M  V30 16 H 0.09 4.60554 2.16258 0
M  V30 17 H -0.512 2.90748 4.85265 0
M  V30 18 H -1.955 3.67386 5.38396 0
M  V30 19 N 1.4781 -0.272755 1.55222 0
M  V30 20 C 2.4111 -1.3627 1.83046 0
M  V30 21 C 3.3891 -1.47536 0.683521 0
M  V30 22 O 4.5731 -1.64157 0.926545 0
M  V30 23 C 1.7001 -2.73908 1.99229 0
M  V30 24 C 0.7461 -2.79925 3.21783 0
M  V30 25 S 1.5791 -2.39146 4.79134 0
M  V30 26 C 2.7351 -3.78758 4.9829 0
M  V30 27 H 2.9681 -1.12464 2.75207 0
M  V30 28 H 0.5011 -0.472398 1.46996 0
M  V30 29 H 2.4591 -3.53171 2.09238 0
M  V30 30 H 1.1201 -2.94965 1.07956 0
M  V30 31 H 0.3131 -3.80946 3.29994 0
M  V30 32 H -0.0849 -2.08683 3.10367 0
M  V30 33 H 2.2071 -4.7403 4.84047 0
M  V30 34 H 3.1501 -3.75499 6.00338 0
M  V30 35 H 3.5581 -3.70072 4.26271 0
M  V30 36 N 2.9562 -1.48159 -0.537278 0
M  V30 37 C 3.8862 -1.65029 -1.6519 0
M  V30 38 C 4.8672 -0.499281 -1.62607 0
M  V30 39 O 6.0522 -0.730972 -1.79918 0
M  V30 40 C 3.1822 -1.68303 -3.03795 0
M  V30 41 C 2.1362 -2.8283 -3.21234 0
M  V30 42 C 1.4622 -2.71189 -4.60826 0
M  V30 43 C 2.7622 -4.24211 -3.04701 0
M  V30 44 H 4.4562 -2.58341 -1.51328 0
M  V30 45 H 2.0022 -1.24325 -0.726585 0
M  V30 46 H 3.9552 -1.78693 -3.81637 0
M  V30 47 H 2.6792 -0.715635 -3.18663 0
M  V30 48 H 1.3382 -2.71983 -2.45807 0
M  V30 49 H 0.9862 -1.72435 -4.7252 0
M  V30 50 H 0.6862 -3.48035 -4.7344 0
M  V30 51 H 2.2102 -2.83537 -5.40777 0
M  V30 52 H 3.6242 -4.3593 -3.72341 0
M  V30 53 H 2.0212 -5.01998 -3.28813 0
M  V30 54 H 3.0912 -4.41184 -2.01209 0
M  V30 55 N 4.4343 0.785586 -1.36625 0
M  V30 56 C 5.6623 1.57448 -1.3423 0
M  V30 57 C 6.0773 1.88649 0.0755653 0
M  V30 58 O 5.4343 1.50414 1.03354 0
M  V30 59 C 5.4853 2.89316 -2.16745 0
M  V30 60 O 5.2063 2.59459 -3.53005 0
M  V30 61 C 6.7073 3.83606 -2.22174 0
M  V30 62 H 3.9273 0.488226 -0.4603 0
M  V30 63 H 6.4713 0.974733 -1.79775 0
M  V30 64 H 4.6263 3.4575 -1.74745 0
M  V30 65 H 5.0403 3.43804 -3.96105 0
M  V30 66 H 6.5143 4.73181 -2.8426 0
M  V30 67 H 6.9913 4.21734 -1.22627 0
M  V30 68 H 7.5973 3.33104 -2.64427 0
M  V30 69 N 5.9124 1.20967 1.01018 0
M  V30 70 C 6.8604 0.961223 2.1181 0
M  V30 71 C 7.8544 -0.0897034 1.69162 0
M  V30 72 O 9.0604 0.0612271 1.79896 0
M  V30 73 H 5.4354 0.29355 0.692338 0
M  V30 74 H 7.4064 1.90178 2.29946 0
M  V30 75 C 6.1554 0.536854 3.4353 0
M  V30 76 H 5.4784 1.33713 3.76777 0
M  V30 77 H 6.9184 0.402286 4.22087 0
M  V30 78 C 5.3774 -0.751574 3.2841 0
M  V30 79 O 5.9074 -1.80841 3.58691 0
M  V30 80 N 4.1134 -0.716079 2.81639 0
M  V30 81 H 3.6604 0.144236 2.57196 0
M  V30 82 H 3.6184 -1.57847 2.71904 0
M  V30 83 N 7.3905 -1.2043 1.01659 0
M  V30 84 C 8.6155 -1.94318 0.724942 0
M  V30 85 C 9.0405 -1.74266 -0.708034 0
M  V30 86 O 8.3985 -1.03694 -1.48719 0
M  V30 87 C 8.4465 -3.44486 1.06591 0
M  V30 88 O 7.5505 -4.12017 0.177599 0
M  V30 89 H 6.8915 -0.60708 0.26898 0
M  V30 90 H 9.4215 -1.52861 1.35995 0
M  V30 91 H 9.4315 -3.95106 1.01762 0
M  V30 92 H 8.1065 -3.58404 2.10997 0
M  V30 93 H 6.6835 -3.71821 0.283421 0
M  V30 94 N 8.8686 -0.792821 -1.36206 0
M  V30 95 C 10.1086 -0.372238 -2.00982 0
M  V30 96 C 10.4726 1.03749 -1.61555 0
M  V30 97 O 11.6736 1.55934 -2.18948 0
M  V30 98 C 9.9446 -0.534566 -3.5338 0
M  V30 99 S 11.5036 -0.202365 -4.38333 0
M  V30 100 H 8.3216 -0.142044 -0.696667 0
M  V30 101 H 10.9236 -1.03206 -1.66039 0
M  V30 102 H 9.6276 -1.5608 -3.79562 0
M  V30 103 H 9.1586 0.141065 -3.93147 0
M  V30 104 H 11.1736 0.994869 -4.86124 0
M  V30 105 N 10.3467 1.47872 -0.545128 0
M  V30 106 C 11.5927 2.02793 -0.0166104 0
M  V30 107 C 11.9257 1.41987 1.32489 0
M  V30 108 O 11.2007 0.571045 1.85928 0
M  V30 109 C 11.4837 3.59989 0.0893294 0
M  V30 110 C 11.3367 4.3125 -1.27841 0
M  V30 111 C 12.6557 4.32606 0.808724 0
M  V30 112 H 9.7747 0.736962 -0.00751035 0
M  V30 113 H 12.4167 1.76433 -0.705085 0
M  V30 114 H 10.5667 3.82579 0.675681 0
M  V30 115 H 12.2387 4.20035 -1.90704 0
M  V30 116 H 10.4817 3.92076 -1.85632 0
M  V30 117 H 11.1527 5.39736 -1.15713 0
M  V30 118 H 13.6287 4.14936 0.310992 0
M  V30 119 H 12.5047 5.42251 0.851782 0
M  V30 120 H 12.7657 4.00963 1.86229 0
M  V30 121 N 11.8248 0.280983 1.55075 0
M  V30 122 C 12.7718 -0.603937 2.22758 0
M  V30 123 C 13.7418 -1.1452 1.20309 0
M  V30 124 O 14.9268 -1.19343 1.48869 0
M  V30 125 C 12.0668 -1.77947 2.95684 0
M  V30 126 C 11.1798 -1.2715 4.12864 0
M  V30 127 C 10.3148 -2.4093 4.7342 0
M  V30 128 C 9.3538 -1.87165 5.82783 0
M  V30 129 N 8.4908 -2.94441 6.37377 0
M  V30 130 H 13.3308 -0.020124 2.97993 0
M  V30 131 H 10.8678 0.00183425 1.471 0
M  V30 132 H 12.8258 -2.47055 3.36184 0
M  V30 133 H 11.4558 -2.33522 2.22861 0
M  V30 134 H 10.5078 -0.473331 3.77444 0
M  V30 135 H 11.8198 -0.837751 4.91715 0
M  V30 136 H 10.9738 -3.18021 5.1667 0
M  V30 137 H 9.7128 -2.87623 3.93859 0
M  V30 138 H 8.7178 -1.08556 5.38976 0
M  V30 139 H 9.9428 -1.41401 6.64216 0
M  V30 140 H 7.8888 -3.40505 5.60707 0
M  V30 141 H 7.8058 -2.55501 7.11516 0
M  V30 142 H 9.0738 -3.71489 6.85285 0
M  V30 143 N 13.3029 -1.57598 0.00835791 0
M  V30 144 C 14.2329 -2.1198 -0.979113 0
M  V30 145 C 15.2139 -1.03091 -1.35301 0
M  V30 146 O 16.3989 -1.30818 -1.43528 0
M  V30 147 C 13.5289 -2.62995 -2.26828 0
M  V30 148 C 12.4829 -3.76485 -2.03576 0
M  V30 149 C 11.8089 -4.13846 -3.38579 0
M  V30 150 C 13.1089 -5.0342 -1.39161 0
M  V30 151 H 14.8029 -2.94738 -0.526281 0
M  V30 152 H 12.3489 -1.41783 -0.251704 0
M  V30 153 H 14.3019 -2.99669 -2.96271 0
M  V30 154 H 13.0259 -1.7737 -2.7424 0
M  V30 155 H 11.6849 -3.40217 -1.36557 0
M  V30 156 H 11.3329 -3.25232 -3.83709 0
M  V30 157 H 11.0329 -4.90312 -3.23834 0
M  V30 158 H 12.5569 -4.53086 -4.09323 0
M  V30 159 H 13.9709 -5.37812 -1.98573 0
M  V30 160 H 12.3679 -5.84746 -1.34878 0
M  V30 161 H 13.4379 -4.83548 -0.361868 0
M  V30 162 N 14.781 0.264519 -1.55364 0
M  V30 163 C 15.713 1.34965 -1.85248 0
M  V30 164 C 16.726 1.45136 -0.737525 0
M  V30 165 O 17.915 1.46801 -1.01547 0
M  V30 166 C 15.015 2.73008 -2.00797 0
M  V30 167 C 14.188 2.85324 -3.31525 0
M  V30 168 C 13.247 4.04097 -3.37034 0
M  V30 169 O 12.273 3.94455 -4.10358 0
M  V30 170 N 13.475 5.16458 -2.65049 0
M  V30 171 H 16.24 1.09672 -2.78913 0
M  V30 172 H 13.801 0.454635 -1.55386 0
M  V30 173 H 15.793 3.50772 -2.01844 0
M  V30 174 H 14.363 2.91087 -1.1396 0
M  V30 175 H 13.583 1.94377 -3.42945 0
M  V30 176 H 14.871 2.9049 -4.17724 0
M  V30 177 H 14.269 5.27181 -2.05175 0
M  V30 178 H 12.826 5.92422 -2.71809 0
M  V30 179 N 16.2591 1.48442 0.529413 0
M  V30 180 C 17.4871 1.60151 1.30994 0
M  V30 181 C 17.9021 0.261985 1.86973 0
M  V30 182 O 17.2591 -0.748805 1.66431 0
M  V30 183 C 17.3101 2.64854 2.46038 0
M  V30 184 O 17.0311 3.93608 1.92365 0
M  V30 185 C 18.5321 2.87007 3.37849 0
M  V30 186 H 15.7521 0.539971 0.398338 0
M  V30 187 H 18.2961 1.94273 0.638597 0
M  V30 188 H 16.4511 2.33589 3.09055 0
M  V30 189 H 16.8651 4.51055 2.67675 0
M  V30 190 H 18.3391 3.64068 4.14919 0
M  V30 191 H 18.8161 1.95852 3.93114 0
M  V30 192 H 19.4221 3.19579 2.80623 0
M  V30 193 N 17.7372 -0.778329 1.37039 0
M  V30 194 C 18.9832 -1.53892 1.32079 0
M  V30 195 C 19.3162 -1.9396 -0.0965386 0
M  V30 196 O 18.5912 -1.63568 -1.05242 0
M  V30 197 C 18.8742 -2.80847 2.25382 0
M  V30 198 C 18.7272 -2.47076 3.75864 0
M  V30 199 C 20.0462 -3.82741 2.1725 0
M  V30 200 H 17.1652 -0.558303 0.48111 0
M  V30 201 H 19.8072 -0.893397 1.67685 0
M  V30 202 H 17.9572 -3.35931 1.95148 0
M  V30 203 H 19.6292 -1.97957 4.16666 0
M  V30 204 H 17.8722 -1.79863 3.94755 0
M  V30 205 H 18.5432 -3.37798 4.36574 0
M  V30 206 H 21.0192 -3.37133 2.43887 0
M  V30 207 H 19.8952 -4.69303 2.84686 0
M  V30 208 H 20.1562 -4.2652 1.16331 0
M  V30 209 N 19.2153 -1.21501 -1.00376 0
M  V30 210 C 20.1653 -0.942843 -2.07592 0
M  V30 211 C 21.1493 0.102384 -1.60574 0
M  V30 212 O 22.3413 -0.10671 -1.76678 0
M  V30 213 C 19.4703 -0.510729 -3.3948 0
M  V30 214 C 18.5563 -1.59009 -3.93163 0
M  V30 215 N 18.9473 -2.81544 -4.20198 0
M  V30 216 C 17.2453 -1.45925 -4.21452 0
M  V30 217 C 17.9463 -3.51261 -4.63671 0
M  V30 218 N 16.9223 -2.78703 -4.66718 0
M  V30 219 H 20.7243 -1.87378 -2.26421 0
M  V30 220 H 18.2383 -1.11093 -1.18458 0
M  V30 221 H 20.2353 -0.297101 -4.1584 0
M  V30 222 H 18.8953 0.413436 -3.22057 0
M  V30 223 H 19.9063 -3.18075 -4.08716 0
M  V30 224 H 16.5833 -0.600467 -4.13159 0
M  V30 225 H 17.9733 -4.56183 -4.93302 0
M  V30 226 N 20.6934 1.19889 -1.02296 0
M  V30 227 C 21.9184 1.9393 -0.735237 0
M  V30 228 C 22.3434 1.74639 0.698782 0
M  V30 229 O 21.7014 1.04481 1.48167 0
M  V30 230 C 21.7494 3.43916 -1.08417 0
M  V30 231 O 20.8534 4.11917 -0.199446 0
M  V30 232 H 20.1944 0.605645 -0.272196 0
M  V30 233 H 22.7244 1.52137 -1.36804 0
M  V30 234 H 22.7344 3.9456 -1.03856 0
M  V30 235 H 21.4094 3.5728 -2.12894 0
M  V30 236 H 19.9864 3.71666 -0.303136 0
M  V30 237 N 22.1715 0.800033 1.35784 0
M  V30 238 C 23.4205 0.37387 1.98205 0
M  V30 239 C 23.7335 -1.06302 1.64193 0
M  V30 240 O 24.9395 -1.59198 2.19928 0
M  V30 241 C 23.3955 0.617532 3.54562 0
M  V30 242 C 23.0035 2.06654 3.9749 0
M  V30 243 C 24.7475 0.256401 4.23725 0
M  V30 244 C 22.6545 2.2563 5.46667 0
M  V30 245 H 21.5845 0.136055 0.741623 0
M  V30 246 H 24.2355 0.983166 1.54939 0
M  V30 247 H 22.6175 -0.0616248 3.95952 0
M  V30 248 H 23.7915 2.78296 3.67271 0
M  V30 249 H 22.1065 2.38691 3.41197 0
M  V30 250 H 24.7035 0.376318 5.33374 0
M  V30 251 H 25.0465 -0.796692 4.08606 0
M  V30 252 H 25.5795 0.889214 3.87734 0
M  V30 253 H 22.3185 3.2936 5.66747 0
M  V30 254 H 21.8385 1.58504 5.78478 0
M  V30 255 H 23.5175 2.06861 6.1304 0
M  V30 256 N 23.6496 -1.47581 0.552962 0
M  V30 257 C 25.0606 -1.86324 0.118463 0
M  V30 258 C 25.4116 -1.46006 -1.3106 0
M  V30 259 O 24.5366 -0.861182 -1.98526 0
M  V30 260 C 25.1316 -3.3816 0.20821 0
M  V30 261 C 23.6906 -3.7601 -0.171226 0
M  V30 262 C 22.8376 -2.71634 0.557686 0
M  V30 263 H 25.7886 -1.39159 0.762928 0
M  V30 264 H 25.8096 -3.76141 -0.574278 0
M  V30 265 H 25.3216 -3.67473 1.24841 0
M  V30 266 H 23.4226 -3.52313 -1.21269 0
M  V30 267 H 23.5356 -4.78745 0.184379 0
M  V30 268 H 21.8996 -2.547 0.00125792 0
M  V30 269 H 22.6826 -3.0379 1.59896 0
M  V30 270 N 25.1277 -0.289203 -1.54924 0
M  V30 271 C 26.0577 0.58549 -2.2604 0
M  V30 272 C 27.0387 1.14753 -1.25562 0
M  V30 273 O 28.2237 1.17906 -1.54311 0
M  V30 274 C 25.3537 1.76305 -2.99222 0
M  V30 275 C 24.3077 1.33191 -4.06748 0
M  V30 276 C 23.6337 2.5937 -4.6758 0
M  V30 277 C 24.9337 0.471775 -5.20165 0
M  V30 278 H 26.6277 -0.00763532 -2.99399 0
M  V30 279 H 24.1737 -0.00511229 -1.43999 0
M  V30 280 H 26.1267 2.38097 -3.47689 0
M  V30 281 H 24.8507 2.38223 -2.23422 0
M  V30 282 H 23.5097 0.737121 -3.59113 0
M  V30 283 H 23.1577 3.19576 -3.88433 0
M  V30 284 H 22.8577 2.31228 -5.40192 0
M  V30 285 H 24.3817 3.21985 -5.18804 0
M  V30 286 H 25.7957 0.995056 -5.64599 0
M  V30 287 H 24.1927 0.284639 -5.99425 0
M  V30 288 H 25.2627 -0.506041 -4.82252 0
M  V30 289 N 26.6058 1.57591 -0.0167156 0
M  V30 290 C 27.8338 1.95575 0.675128 0
M  V30 291 C 28.2488 0.892542 1.6637 0
M  V30 292 O 27.6058 -0.126912 1.82058 0
M  V30 293 C 27.6568 3.33608 1.39239 0
M  V30 294 O 27.3778 4.3585 0.443444 0
M  V30 295 C 28.8788 3.86151 2.17721 0
M  V30 296 H 26.0988 0.644423 0.186978 0
M  V30 297 H 28.6428 2.0437 -0.0728 0
M  V30 298 H 26.7978 3.2607 2.09182 0
M  V30 299 H 27.2118 5.158 0.951358 0
M  V30 300 H 28.6858 4.85114 2.63379 0
M  V30 301 H 29.1628 3.19738 3.01105 0
M  V30 302 H 29.7688 3.96918 1.52761 0
M  V30 303 N 28.0839 -0.256276 1.55502 0
M  V30 304 C 29.3329 -0.983486 1.76098 0
M  V30 305 C 29.6459 -1.86837 0.578896 0
M  V30 306 O 30.8519 -2.63163 0.667648 0
M  V30 307 C 29.3079 -1.79868 3.1173 0
M  V30 308 C 28.9159 -0.961648 4.37557 0
M  V30 309 C 30.6599 -2.51919 3.41668 0
M  V30 310 C 28.5669 -1.77219 5.64223 0
M  V30 311 H 27.4969 -0.370936 0.656447 0
M  V30 312 H 30.1479 -0.238492 1.81944 0
M  V30 313 H 28.5299 -2.58527 2.99966 0
M  V30 314 H 29.7039 -0.218048 4.60284 0
M  V30 315 H 28.0189 -0.354913 4.14885 0
M  V30 316 H 30.6159 -3.12998 4.33516 0
M  V30 317 H 30.9589 -3.23059 2.62562 0
M  V30 318 H 31.4919 -1.80278 3.54605 0
M  V30 319 H 28.2309 -1.10471 6.46124 0
M  V30 320 H 27.7509 -2.49132 5.45613 0
M  V30 321 H 29.4299 -2.34169 6.03137 0
M  V30 322 N 29.562 -1.4872 -0.521534 0
M  V30 323 C 30.51 -1.64328 -1.64618 0
M  V30 324 C 31.504 -0.50953 -1.61555 0
M  V30 325 O 32.71 -0.688525 -1.66311 0
M  V30 326 H 29.085 -0.517805 -0.545328 0
M  V30 327 H 31.056 -2.58767 -1.48601 0
M  V30 328 C 29.805 -1.70805 -3.02855 0
M  V30 329 H 29.128 -2.5741 -3.05909 0
M  V30 330 H 30.568 -1.85766 -3.81139 0
M  V30 331 C 29.027 -0.448479 -3.33902 0
M  V30 332 O 29.557 0.434928 -3.99339 0
M  V30 333 N 27.763 -0.317616 -2.88859 0
M  V30 334 H 27.31 -1.03748 -2.35784 0
M  V30 335 H 27.268 0.524113 -3.10001 0
M  V30 336 N 31.0401 0.771051 -1.3745 0
M  V30 337 C 31.9871 1.88435 -1.3327 0
M  V30 338 C 32.9571 1.64914 -0.198136 0
M  V30 339 O 34.1421 1.86821 -0.387606 0
M  V30 340 C 31.2821 3.25509 -1.14622 0
M  V30 341 C 30.3951 3.60979 -2.37314 0
M  V30 342 C 29.5301 4.87265 -2.11533 0
M  V30 343 C 28.5691 5.15469 -3.30088 0
M  V30 344 N 27.7061 6.32944 -3.03853 0
M  V30 345 H 32.5461 1.91344 -2.28455 0
M  V30 346 H 30.0831 0.935466 -1.13523 0
M  V30 347 H 32.0411 4.04582 -1.01831 0
M  V30 348 H 30.6711 3.21974 -0.230837 0
M  V30 349 H 29.7231 2.76885 -2.60842 0
M  V30 350 H 31.0351 3.77759 -3.25729 0
M  V30 351 H 30.1891 5.74244 -1.95777 0
M  V30 352 H 28.9281 4.7259 -1.20457 0
M  V30 353 H 27.9331 4.26966 -3.46382 0
M  V30 354 H 29.1581 5.32052 -4.22016 0
M  V30 355 H 27.1041 6.19625 -2.15407 0
M  V30 356 H 27.0211 6.50143 -3.85812 0
M  V30 357 H 28.2891 7.22857 -2.91716 0
M  V30 358 N 32.5182 1.22032 0.997298 0
M  V30 359 C 33.4282 1.00271 2.12092 0
M  V30 360 C 34.4442 -0.047621 1.73935 0
M  V30 361 O 35.6202 0.144136 2.00884 0
M  V30 362 C 32.6852 0.578449 3.4184 0
M  V30 363 C 31.7462 1.70189 3.94125 0
M  V30 364 C 30.9792 1.29778 5.17681 0
M  V30 365 O 31.2022 0.174676 5.70132 0
M  V30 366 O 30.1362 2.11261 5.63607 0
M  V30 367 H 33.9622 1.94398 2.3333 0
M  V30 368 H 31.5472 1.00587 1.10465 0
M  V30 369 H 33.4292 0.351998 4.19927 0
M  V30 370 H 32.1042 -0.334019 3.21972 0
M  V30 371 H 31.0112 1.98282 3.1723 0
M  V30 372 H 32.3442 2.59206 4.18417 0
M  V30 373 N 33.9963 -1.19345 1.0293 0
M  V30 374 C 34.9063 -2.26245 0.620515 0
M  V30 375 C 35.9223 -1.70486 -0.347928 0
M  V30 376 O 37.0983 -2.00347 -0.205704 0
M  V30 377 C 34.1633 -3.46693 -0.0218957 0
M  V30 378 C 33.2243 -4.17632 0.994102 0
M  V30 379 C 32.4573 -5.32329 0.382253 0
M  V30 380 O 32.6803 -5.64552 -0.814676 0
M  V30 381 O 31.6143 -5.91664 1.10531 0
M  V30 382 H 35.4403 -2.63453 1.51083 0
M  V30 383 H 33.0253 -1.26207 0.799513 0
M  V30 384 H 34.9073 -4.19683 -0.380072 0
M  V30 385 H 33.5823 -3.11333 -0.886209 0
M  V30 386 H 32.4893 -3.4676 1.40387 0
M  V30 387 H 33.8223 -4.56964 1.8288 0
M  V30 388 N 35.4744 -0.807222 -1.35358 0
M  V30 389 C 36.4374 -0.223665 -2.28106 0
M  V30 390 C 37.4374 0.589354 -1.4961 0
M  V30 391 O 38.6274 0.407745 -1.69361 0
M  V30 392 C 35.7594 0.688149 -3.33882 0
M  V30 393 H 36.9524 -1.04169 -2.81227 0
M  V30 394 H 34.5054 -0.577921 -1.45223 0
M  V30 395 H 35.2404 1.52984 -2.85948 0
M  V30 396 H 35.0254 0.10687 -3.91954 0
M  V30 397 H 36.5154 1.09075 -4.03104 0
M  V30 398 N 36.9525 1.47285 -0.560781 0
M  V30 399 C 37.8825 2.32857 0.173105 0
M  V30 400 C 38.8635 1.44009 0.905281 0
M  V30 401 O 40.0485 1.7286 0.885046 0
M  V30 402 C 37.1785 3.25861 1.20133 0
M  V30 403 C 36.1325 4.23978 0.585388 0
M  V30 404 C 35.4585 5.06332 1.7185 0
M  V30 405 C 36.7585 5.20242 -0.463178 0
M  V30 406 H 38.4525 2.94466 -0.541307 0
M  V30 407 H 35.9985 1.41601 -0.261764 0
M  V30 408 H 37.9515 3.84569 1.72293 0
M  V30 409 H 36.6755 2.62315 1.94573 0
M  V30 410 H 35.3345 3.66501 0.085054 0
M  V30 411 H 34.9825 4.39186 2.45203 0
M  V30 412 H 34.6825 5.72762 1.31213 0
M  V30 413 H 36.2065 5.67899 2.24329 0
M  V30 414 H 37.6205 5.73293 -0.027502 0
M  V30 415 H 36.0175 5.94896 -0.788627 0
M  V30 416 H 37.0875 4.65504 -1.35773 0
M  V30 417 N 38.4306 0.297415 1.54768 0
M  V30 418 C 39.3626 -0.613881 2.20826 0
M  V30 419 C 40.3756 -1.10032 1.19987 0
M  V30 420 O 41.5646 -1.01839 1.46598 0
M  V30 421 C 38.6646 -1.852 2.83821 0
M  V30 422 C 37.8376 -1.50865 4.10559 0
M  V30 423 C 36.8966 -2.60154 4.57391 0
M  V30 424 O 35.9226 -2.25398 5.2267 0
M  V30 425 N 37.1246 -3.90629 4.29406 0
M  V30 426 H 39.8896 -0.048389 2.99661 0
M  V30 427 H 37.4506 0.11946 1.61459 0
M  V30 428 H 39.4426 -2.57652 3.12086 0
M  V30 429 H 38.0126 -2.32597 2.08847 0
M  V30 430 H 37.2326 -0.616925 3.89343 0
M  V30 431 H 38.5206 -1.25458 4.9309 0
M  V30 432 H 37.9186 -4.21677 3.77101 0
M  V30 433 H 36.4756 -4.59391 4.62388 0
M  V30 434 N 39.9087 -1.5758 0.0250728 0
M  V30 435 C 41.3247 -1.56124 -0.331282 0
M  V30 436 C 41.5247 -1.03029 -1.73169 0
M  V30 437 O 40.5807 -0.675215 -2.43305 0
M  V30 438 C 41.8937 -3.00139 -0.183584 0
M  V30 439 C 43.4417 -3.11946 -0.256654 0
M  V30 440 C 43.9167 -4.57793 -0.137792 0
M  V30 441 N 45.4077 -4.6279 -0.194904 0
M  V30 442 C 46.1427 -5.7326 -0.126655 0
M  V30 443 N 45.6387 -6.928 -0.00755288 0
M  V30 444 N 47.4317 -5.61811 -0.180348 0
M  V30 445 H 39.5827 -1.90424 0.94087 0
M  V30 446 H 41.8457 -0.875761 0.362968 0
M  V30 447 H 41.5517 -3.4292 0.780927 0
M  V30 448 H 41.4257 -3.64899 -0.955448 0
M  V30 449 H 43.8127 -2.69079 -1.21162 0
M  V30 450 H 43.8937 -2.49915 0.545517 0
M  V30 451 H 43.5377 -5.01339 0.813739 0
M  V30 452 H 43.4677 -5.17798 -0.958775 0
M  V30 453 H 45.9587 -3.76807 -0.287267 0
M  V30 454 H 46.2717 -7.72791 0.0379428 0
M  V30 455 H 44.6167 -6.94995 0.0271731 0
M  V30 456 H 47.8077 -4.6731 -0.271767 0
M  V30 457 H 47.9807 -6.47882 -0.123697 0
M  V30 458 N 41.3868 0.248026 -1.55636 0
M  V30 459 C 42.7978 0.817177 -1.67866 0
M  V30 460 C 43.1488 1.86069 -0.622322 0
M  V30 461 O 42.2738 2.15157 0.231618 0
M  V30 462 C 42.8688 1.489 -3.04326 0
M  V30 463 C 41.4278 2.00587 -3.185 0
M  V30 464 C 40.5748 0.856573 -2.63739 0
M  V30 465 H 43.5258 0.0238579 -1.58682 0
M  V30 466 H 43.5468 2.35698 -2.98708 0
M  V30 467 H 43.0588 0.729279 -3.81186 0
M  V30 468 H 41.1598 2.79443 -2.4646 0
M  V30 469 H 41.2728 2.20402 -4.25393 0
M  V30 470 H 39.6368 1.25678 -2.21534 0
M  V30 471 H 40.4198 0.109953 -3.43124 0
M  V30 472 N 42.8649 1.48995 0.513639 0
M  V30 473 C 44.1109 1.58076 1.27042 0
M  V30 474 C 44.4439 0.261026 1.92438 0
M  V30 475 O 43.7189 -0.734393 1.80103 0
M  V30 476 C 44.0019 2.73091 2.34719 0
M  V30 477 C 43.8549 4.14821 1.73907 0
M  V30 478 C 45.1739 2.83796 3.36375 0
M  V30 479 H 42.2929 0.575391 0.460536 0
M  V30 480 H 44.9349 1.81232 0.570516 0
M  V30 481 H 43.0849 2.53479 2.94416 0
M  V30 482 H 44.7569 4.45917 1.18135 0
M  V30 483 H 42.9999 4.21058 1.0437 0
M  V30 484 H 43.6709 4.91147 2.51949 0
M  V30 485 H 46.1469 3.01611 2.86653 0
M  V30 486 H 45.0229 3.65971 4.09093 0
M  V30 487 H 45.2839 1.92624 3.9793 0
M  V30 488 N 44.343 -0.763751 1.37857 0
M  V30 489 C 45.306 -1.85889 1.34081 0
M  V30 490 C 46.306 -1.58949 0.243277 0
M  V30 491 O 47.496 -1.66882 0.499589 0
M  V30 492 C 44.628 -3.23176 1.08489 0
M  V30 493 H 45.821 -1.90648 2.31502 0
M  V30 494 H 43.374 -0.964367 1.23003 0
M  V30 495 H 44.109 -3.24091 0.116318 0
M  V30 496 H 43.894 -3.44124 1.8794 0
M  V30 497 H 45.384 -4.03254 1.08517 0
M  V30 498 N 45.8211 -1.22559 -0.990812 0
M  V30 499 C 47.0461 -1.07862 -1.77145 0
M  V30 500 C 47.4711 0.366447 -1.84496 0
M  V30 501 O 46.8291 1.26478 -1.29896 0
M  V30 502 C 46.8771 -1.69686 -3.18181 0
M  V30 503 O 45.9811 -0.951946 -4.01263 0
M  V30 504 H 45.3221 -0.378712 -0.545411 0
M  V30 505 H 47.8521 -1.62399 -1.2445 0
M  V30 506 H 47.8621 -1.74496 -3.68802 0
M  V30 507 H 46.5371 -2.74841 -3.12146 0
M  V30 508 H 45.1141 -0.980011 -3.59792 0
M  V30 509 N 47.2992 1.18797 -1.03562 0
M  V30 510 C 48.5762 1.84469 -0.650434 0
M  V30 511 C 48.9562 1.92319 0.870433 0
M  V30 512 O 48.3042 1.44528 1.76986 0
M  V30 513 C 48.5142 3.2306 -1.32036 0
M  V30 514 C 49.8622 3.9915 -1.44792 0
M  V30 515 O 50.8862 3.32481 -1.27806 0
M  V30 516 O 49.7452 5.18587 -1.72423 0
M  V30 517 H 46.8392 0.795251 -0.226946 0
M  V30 518 H 49.3852 1.26231 -1.13419 0
M  V30 519 H 48.1572 3.1222 -2.3587 0
M  V30 520 H 47.7802 3.88949 -0.8249 0
M  V30 521 N 48.7773 0.814389 1.34928 0
M  V30 522 C 50.0243 0.398423 1.98542 0
M  V30 523 C 50.3523 -1.03638 1.64589 0
M  V30 524 O 49.6073 -1.73509 0.90516 0
M  V30 525 C 49.9063 0.537781 3.53331 0
M  V30 526 C 49.5723 1.93704 4.07172 0
M  V30 527 C 48.2343 2.31984 4.21589 0
M  V30 528 C 50.5863 2.85213 4.36237 0
M  V30 529 C 47.9143 3.61125 4.62391 0
M  V30 530 C 50.2663 4.13809 4.78482 0
M  V30 531 C 48.9303 4.52077 4.91104 0
M  V30 532 H 48.2003 0.145793 0.726516 0
M  V30 533 H 50.8473 1.03669 1.61012 0
M  V30 534 H 49.1523 -0.183906 3.91368 0
M  V30 535 H 50.8493 0.196588 4.00518 0
M  V30 536 H 47.4393 1.62966 3.96409 0
M  V30 537 H 51.6233 2.56885 4.24645 0
M  V30 538 H 46.8793 3.90612 4.70353 0
M  V30 539 H 51.0533 4.84811 4.99932 0
M  V30 540 H 48.6803 5.52196 5.22478 0
M  V30 541 N 50.2554 -1.46986 0.568584 0
M  V30 542 C 51.1654 -2.33942 -0.17555 0
M  V30 543 C 52.1814 -1.48891 -0.90041 0
M  V30 544 O 53.3574 -1.81794 -0.86676 0
M  V30 545 C 50.4224 -3.25811 -1.18524 0
M  V30 546 C 49.4834 -4.26757 -0.466582 0
M  V30 547 C 48.7164 -5.14236 -1.42817 0
M  V30 548 O 48.9394 -5.04379 -2.66379 0
M  V30 549 O 47.8734 -5.94412 -0.946453 0
M  V30 550 H 51.6994 -2.98896 0.538036 0
M  V30 551 H 49.2844 -1.4573 0.329097 0
M  V30 552 H 51.1664 -3.82527 -1.76779 0
M  V30 553 H 49.8414 -2.63471 -1.88055 0
M  V30 554 H 48.7484 -3.73769 0.157451 0
M  V30 555 H 50.0814 -4.91843 0.187485 0
M  V30 556 N 51.7335 -0.305618 -1.54608 0
M  V30 557 C 53.1445 0.186098 -1.8577 0
M  V30 558 C 53.4955 1.53058 -1.22751 0
M  V30 559 O 52.6205 2.09888 -0.526893 0
M  V30 560 C 53.2155 0.344449 -3.37044 0
M  V30 561 C 51.7745 0.780384 -3.68221 0
M  V30 562 C 50.9215 -0.108554 -2.77087 0
M  V30 563 H 53.8725 -0.526485 -1.49712 0
M  V30 564 H 53.8935 1.17828 -3.61796 0
M  V30 565 H 53.4055 -0.634235 -3.82883 0
M  V30 566 H 51.5065 1.76945 -3.27904 0
M  V30 567 H 51.6195 0.596572 -4.75371 0
M  V30 568 H 49.9835 0.412931 -2.5133 0
M  V30 569 H 50.7665 -1.08368 -3.25747 0
M  V30 570 N 53.2116 1.57565 -0.0334293 0
M  V30 571 C 54.1436 2.0739 0.975811 0
M  V30 572 C 55.1566 0.998166 1.2861 0
M  V30 573 O 56.3456 1.27426 1.25 0
M  V30 574 C 53.4456 2.4871 2.30209 0
M  V30 575 C 52.6186 3.79413 2.17634 0
M  V30 576 C 51.6776 4.07237 3.33233 0
M  V30 577 O 50.7036 4.77425 3.09927 0
M  V30 578 N 51.9056 3.5775 4.5716 0
M  V30 579 H 54.6706 2.94598 0.55066 0
M  V30 580 H 52.2316 1.61173 0.15323 0
M  V30 581 H 54.2236 2.64413 3.06378 0
M  V30 582 H 52.7936 1.66845 2.64351 0
M  V30 583 H 52.0136 3.73465 1.26165 0
M  V30 584 H 53.3016 4.65038 2.0644 0
M  V30 585 H 52.6996 3.00976 4.78989 0
M  V30 586 H 51.2566 3.78724 5.30482 0
M  V30 587 N 54.6897 -0.239769 1.55765 0
M  V30 588 C 55.9377 -0.964892 1.77579 0
M  V30 589 C 56.2587 -1.85582 0.598699 0
M  V30 590 O 55.5287 -1.92075 -0.385226 0
M  V30 591 H 54.1087 -0.359265 0.654933 0
M  V30 592 H 56.7707 -0.256001 1.93211 0
M  V30 593 H 55.8667 -1.58243 2.69009 0
M  V30 594 N 56.1678 -1.49265 -0.50573 0
M  V30 595 C 57.0978 -1.68495 -1.61653 0
M  V30 596 C 58.0788 -0.53366 -1.61512 0
M  V30 597 O 59.2638 -0.76897 -1.78327 0
M  V30 598 C 56.3938 -1.74709 -3.00157 0
M  V30 599 C 55.3478 -2.89581 -3.15162 0
M  V30 600 C 54.6738 -2.80903 -4.5497 0
M  V30 601 C 55.9738 -4.30578 -2.95634 0
M  V30 602 H 57.6678 -2.61493 -1.45814 0
M  V30 603 H 55.2138 -1.25838 -0.70005 0
M  V30 604 H 57.1668 -1.86748 -3.77761 0
M  V30 605 H 55.8908 -0.783067 -3.17074 0
M  V30 606 H 54.5498 -2.77136 -2.39982 0
M  V30 607 H 54.1978 -1.82419 -4.68756 0
M  V30 608 H 53.8978 -3.57999 -4.65951 0
M  V30 609 H 55.4218 -2.94944 -5.34641 0
M  V30 610 H 56.8358 -4.4373 -3.63011 0
M  V30 611 H 55.2328 -5.0886 -3.18091 0
M  V30 612 H 56.3028 -4.45352 -1.91806 0
M  V30 613 N 57.6459 0.756429 -1.3826 0
M  V30 614 C 58.8709 1.55077 -1.37717 0
M  V30 615 C 59.2959 1.88073 0.03164 0
M  V30 616 O 58.6539 1.50364 1.01293 0
M  V30 617 C 58.7019 2.8283 -2.23695 0
M  V30 618 O 57.8059 3.77862 -1.6521 0
M  V30 619 H 57.1469 0.469152 -0.469885 0
M  V30 620 H 59.6769 0.935019 -1.81985 0
M  V30 621 H 59.6869 3.31783 -2.37453 0
M  V30 622 H 58.3619 2.58144 -3.2609 0
M  V30 623 H 56.9389 3.36555 -1.60578 0
M  V30 624 N 59.124 1.23083 0.984299 0
M  V30 625 C 60.034 1.02515 2.11016 0
M  V30 626 C 61.05 -0.0291702 1.73976 0
M  V30 627 O 62.226 0.165434 2.00719 0
M  V30 628 C 59.291 0.614673 3.41208 0
M  V30 629 C 58.352 1.74359 3.92297 0
M  V30 630 C 57.585 1.35261 5.16275 0
M  V30 631 O 57.808 0.235136 5.69915 0
M  V30 632 O 56.742 2.17227 5.61334 0
M  V30 633 H 60.568 1.96862 2.31255 0
M  V30 634 H 58.153 1.01753 1.09392 0
M  V30 635 H 60.035 0.396518 4.1953 0
M  V30 636 H 58.71 -0.299851 3.22308 0
M  V30 637 H 57.617 2.01635 3.1511 0
M  V30 638 H 58.95 2.63629 4.15645 0
M  V30 639 N 60.6021 -1.18246 1.0419 0
M  V30 640 C 61.5651 -2.20128 0.638452 0
M  V30 641 C 62.5651 -1.57885 -0.304805 0
M  V30 642 O 63.7551 -1.73967 -0.0900369 0
M  V30 643 C 60.8871 -3.4084 -0.0637751 0
M  V30 644 H 62.0801 -2.57336 1.54007 0
M  V30 645 H 59.6331 -1.32152 0.834598 0
M  V30 646 H 60.3681 -3.09166 -0.979136 0
M  V30 647 H 60.1531 -3.8726 0.614198 0
M  V30 648 H 61.6431 -4.16274 -0.332512 0
M  V30 649 N 62.0802 -0.821533 -1.34494 0
M  V30 650 C 63.0432 -0.247847 -2.27856 0
M  V30 651 C 64.0432 0.573453 -1.50227 0
M  V30 652 O 65.2332 0.389759 -1.69784 0
M  V30 653 C 62.3652 0.652698 -3.34593 0
M  V30 654 H 63.5582 -1.07146 -2.80107 0
M  V30 655 H 61.1112 -0.593291 -1.44602 0
M  V30 656 H 61.8462 1.49943 -2.87555 0
M  V30 657 H 61.6312 0.065292 -3.92046 0
M  V30 658 H 63.1212 1.04793 -4.04238 0
M  V30 659 N 63.5583 1.46682 -0.576371 0
M  V30 660 C 64.9743 1.57822 -0.237562 0
M  V30 661 C 65.1743 1.57237 1.26011 0
M  V30 662 O 64.2303 1.48596 2.04146 0
M  V30 663 C 65.5433 2.87499 -0.881168 0
M  V30 664 C 67.0913 3.01119 -0.85417 0
M  V30 665 C 67.5663 4.33524 -1.4772 0
M  V30 666 N 69.0573 4.40207 -1.44125 0
M  V30 667 C 69.7923 5.4126 -1.89276 0
M  V30 668 N 69.2883 6.49021 -2.42371 0
M  V30 669 N 71.0813 5.32422 -1.80231 0
M  V30 670 H 63.2323 1.45306 -1.54919 0
M  V30 671 H 65.4953 0.692733 -0.647167 0
M  V30 672 H 65.2013 2.9372 -1.93447 0
M  V30 673 H 65.0753 3.75224 -0.385592 0
M  V30 674 H 67.4623 2.94485 0.190491 0
M  V30 675 H 67.5433 2.14887 -1.3877 0
M  V30 676 H 67.1873 4.40916 -2.52103 0
M  V30 677 H 67.1173 5.1852 -0.918947 0
M  V30 678 H 69.6083 3.62931 -1.05307 0
M  V30 679 H 69.9213 7.2233 -2.74698 0
M  V30 680 H 68.2663 6.49858 -2.46393 0
M  V30 681 H 71.4573 4.47137 -1.38514 0
M  V30 682 H 71.6303 6.11034 -2.15735 0
M  V30 683 N 65.0364 0.313813 1.54444 0
M  V30 684 C 66.2824 -0.284918 2.01395 0
M  V30 685 C 66.6374 -1.50537 1.19818 0
M  V30 686 O 65.9304 -1.89692 0.269748 0
M  V30 687 C 66.1244 -0.680386 3.50864 0
M  V30 688 C 65.9534 0.500198 4.4691 0
M  V30 689 C 64.7234 0.996248 4.95382 0
M  V30 690 C 66.9214 1.34928 4.96285 0
M  V30 691 N 64.9034 2.14226 5.75309 0
M  V30 692 C 66.2744 2.3426 5.7404 0
M  V30 693 C 68.3294 1.37818 4.78446 0
M  V30 694 C 67.0324 3.36272 6.35856 0
M  V30 695 C 69.0584 2.38695 5.4109 0
M  V30 696 C 68.4204 3.36755 6.18688 0
M  V30 697 H 64.5194 -0.0683689 0.779006 0
M  V30 698 H 67.1034 0.44664 1.89508 0
M  V30 699 H 65.2744 -1.38109 3.63016 0
M  V30 700 H 67.0064 -1.25975 3.84594 0
M  V30 701 H 63.7614 0.56912 4.70168 0
M  V30 702 H 64.1854 2.72005 6.19953 0
M  V30 703 H 68.8274 0.633747 4.18023 0
M  V30 704 H 66.5454 4.11627 6.95405 0
M  V30 705 H 70.1314 2.41721 5.29209 0
M  V30 706 H 69.0114 4.13535 6.66302 0
M  V30 707 N 66.5145 -1.57545 0.0417849 0
M  V30 708 C 67.4625 -2.12148 -0.953723 0
M  V30 709 C 68.4565 -1.05104 -1.32852 0
M  V30 710 O 69.6625 -1.23524 -1.30927 0
M  V30 711 H 66.0375 -0.677957 -0.325389 0
M  V30 712 H 68.0085 -2.94707 -0.467991 0
M  V30 713 C 66.7575 -2.6739 -2.22257 0
M  V30 714 H 66.0805 -3.49413 -1.94295 0
M  V30 715 H 67.5205 -3.09227 -2.90094 0
M  V30 716 C 65.9795 -1.60723 -2.96091 0
M  V30 717 O 66.5095 -1.01449 -3.88679 0
M  V30 718 N 64.7155 -1.32466 -2.58652 0
M  V30 719 H 64.2625 -1.80856 -1.83437 0
M  V30 720 H 64.2205 -0.61325 -3.08361 0
M  V30 721 N 67.9926 0.231505 -1.5589 0
M  V30 722 C 69.2176 0.978689 -1.82856 0
M  V30 723 C 69.6426 1.77559 -0.620846 0
M  V30 724 O 69.0006 1.76119 0.430305 0
M  V30 725 C 69.0486 1.87997 -3.07716 0
M  V30 726 O 68.1526 2.97393 -2.85712 0
M  V30 727 H 67.4936 0.277663 -0.603158 0
M  V30 728 H 70.0236 0.24783 -2.03093 0
M  V30 729 H 70.0336 2.2917 -3.37558 0
M  V30 730 H 68.7086 1.29417 -3.95252 0
M  V30 731 H 67.2856 2.60238 -2.67078 0
M  V30 732 N 69.4707 1.49531 0.497807 0
M  V30 733 C 70.4177 1.66436 1.59899 0
M  V30 734 C 71.3877 0.505793 1.58212 0
M  V30 735 O 72.5727 0.733202 1.7615 0
M  V30 736 C 69.7127 1.7399 2.98029 0
M  V30 737 C 68.8257 3.01172 3.09708 0
M  V30 738 C 67.9607 2.99686 4.38591 0
M  V30 739 C 66.9997 4.21434 4.43914 0
M  V30 740 N 66.1367 4.1784 5.64229 0
M  V30 741 H 70.9767 2.60459 1.44793 0
M  V30 742 H 68.5137 1.29137 0.704423 0
M  V30 743 H 70.4717 1.76352 3.78095 0
M  V30 744 H 69.1017 0.834301 3.11832 0
M  V30 745 H 68.1537 3.08408 2.22685 0
M  V30 746 H 69.4657 3.91165 3.09502 0
M  V30 747 H 68.6197 3.00628 5.2698 0
M  V30 748 H 67.3587 2.07477 4.41367 0
M  V30 749 H 66.3637 4.20733 3.53926 0
M  V30 750 H 67.5887 5.14839 4.42851 0
M  V30 751 H 65.5347 3.28469 5.67841 0
M  V30 752 H 65.4517 5.01571 5.65652 0
M  V30 753 H 66.7197 4.22889 6.54817 0
M  V30 754 N 70.9488 -0.749086 1.3866 0
M  V30 755 C 71.8588 -1.89358 1.38494 0
M  V30 756 C 72.8748 -1.71708 0.281476 0
M  V30 757 O 74.0508 -1.94554 0.520643 0
M  V30 758 C 71.1158 -3.24782 1.21316 0
M  V30 759 C 70.1768 -3.54926 2.41508 0
M  V30 760 C 69.4098 -4.83888 2.2514 0
M  V30 761 O 69.6328 -5.56592 1.24746 0
M  V30 762 O 68.5668 -5.13612 3.13826 0
M  V30 763 H 72.3928 -1.92452 2.34938 0
M  V30 764 H 69.9778 -0.894981 1.19626 0
M  V30 765 H 71.8598 -4.05739 1.13814 0
M  V30 766 H 70.5348 -3.2249 0.279592 0
M  V30 767 H 69.4418 -2.74112 2.54585 0
M  V30 768 H 70.7748 -3.61983 3.3351 0
M  V30 769 N 72.4269 -1.23603 -0.977757 0
M  V30 770 C 73.3749 -1.01704 -2.09187 0
M  V30 771 C 74.3689 0.0448214 -1.69341 0
M  V30 772 O 75.5749 -0.108902 -1.7967 0
M  V30 773 H 71.9499 -0.311803 -0.684312 0
M  V30 774 H 73.9209 -1.96207 -2.24823 0
M  V30 775 C 72.6699 -0.627746 -3.41986 0
M  V30 776 H 71.9929 -1.43656 -3.73099 0
M  V30 777 H 73.4329 -0.514053 -4.20872 0
M  V30 778 C 71.8919 0.664238 -3.30287 0
M  V30 779 O 72.4219 1.71268 -3.6336 0
M  V30 780 N 70.6279 0.641156 -2.83439 0
M  V30 781 H 70.1749 -0.212376 -2.56723 0
M  V30 782 H 70.1329 1.50583 -2.75993 0
M  V30 783 N 73.905 1.17692 -1.04816 0
M  V30 784 C 74.835 2.23777 -0.666791 0
M  V30 785 C 75.816 1.66796 0.33361 0
M  V30 786 O 77.001 1.93039 0.212042 0
M  V30 787 C 74.131 3.47281 -0.0367933 0
M  V30 788 C 73.085 4.17059 -0.961546 0
M  V30 789 C 72.411 5.34342 -0.195626 0
M  V30 790 C 73.711 4.69713 -2.28402 0
M  V30 791 H 75.405 2.55933 -1.55367 0
M  V30 792 H 72.951 1.23019 -0.748484 0
M  V30 793 H 74.904 4.20706 0.241775 0
M  V30 794 H 73.628 3.14381 0.885004 0
M  V30 795 H 72.287 3.45541 -1.22462 0
M  V30 796 H 71.935 4.97692 0.728816 0
M  V30 797 H 71.635 5.81966 -0.811775 0
M  V30 798 H 73.159 6.10553 0.0757473 0
M  V30 799 H 74.573 5.34794 -2.06563 0
M  V30 800 H 72.97 5.279 -2.8538 0
M  V30 801 H 74.04 3.86726 -2.92525 0
M  V30 802 N 75.3831 0.828654 1.34056 0
M  V30 803 C 76.3131 0.269443 2.3194 0
M  V30 804 C 77.2941 -0.617247 1.58506 0
M  V30 805 O 78.4791 -0.542931 1.86456 0
M  V30 806 C 75.6091 -0.564793 3.42677 0
M  V30 807 C 74.5631 0.225241 4.27407 0
M  V30 808 C 73.8891 -0.7321 5.29664 0
M  V30 809 C 75.1891 1.43663 5.02154 0
M  V30 810 H 76.8831 1.08728 2.7896 0
M  V30 811 H 74.4291 0.524283 1.34117 0
M  V30 812 H 76.3821 -0.966233 4.10173 0
M  V30 813 H 75.1061 -1.41574 2.9432 0
M  V30 814 H 73.7651 0.608117 3.61521 0
M  V30 815 H 73.4131 -1.57916 4.77568 0
M  V30 816 H 73.1131 -0.20767 5.87233 0
M  V30 817 H 74.6371 -1.13128 6.00029 0
M  V30 818 H 76.0511 1.1089 5.62473 0
M  V30 819 H 74.4481 1.89711 5.69324 0
M  V30 820 H 75.5181 2.21181 4.31517 0
M  V30 821 N 76.8612 -1.46375 0.584142 0
M  V30 822 C 77.8242 -2.28784 -0.138108 0
M  V30 823 C 78.8242 -1.38471 -0.817462 0
M  V30 824 O 80.0142 -1.60833 -0.669199 0
M  V30 825 C 77.1462 -3.18892 -1.20503 0
M  V30 826 H 78.3392 -2.94117 0.586127 0
M  V30 827 H 75.8922 -1.52509 0.342171 0
M  V30 828 H 76.6272 -2.58309 -1.96079 0
M  V30 829 H 76.4122 -3.85388 -0.722384 0
M  V30 830 H 77.9022 -3.80914 -1.71155 0
M  V30 831 N 78.3393 -0.321999 -1.54275 0
M  V30 832 C 79.5873 0.280489 -2.00144 0
M  V30 833 C 79.9083 1.52777 -1.21178 0
M  V30 834 O 79.1783 1.9338 -0.313187 0
M  V30 835 H 77.7583 0.106632 -0.73935 0
M  V30 836 H 80.4203 -0.438184 -1.8991 0
M  V30 837 H 79.5163 0.537972 -3.07428 0
M  V30 838 N 79.8174 1.5752 -0.0501392 0
M  V30 839 C 81.2284 1.80271 0.485705 0
M  V30 840 C 81.5794 0.96228 1.70981 0
M  V30 841 O 80.7044 0.178578 2.15662 0
M  V30 842 C 81.2994 3.26957 0.887938 0
M  V30 843 C 79.8584 3.5063 1.36877 0
M  V30 844 C 79.0054 2.75165 0.343468 0
M  V30 845 H 81.9564 1.56281 -0.276028 0
M  V30 846 H 81.9774 3.37821 1.75093 0
M  V30 847 H 81.4894 3.881 -0.0031809 0
M  V30 848 H 79.5904 2.94766 2.27911 0
M  V30 849 H 79.7034 4.59343 1.36164 0
M  V30 850 H 78.0674 2.4127 0.816128 0
M  V30 851 H 78.8504 3.39034 -0.539548 0
M  V30 852 N 81.2955 -0.223234 1.56011 0
M  V30 853 C 82.5205 -0.968978 1.83373 0
M  V30 854 C 82.9455 -1.77227 0.630254 0
M  V30 855 O 82.3035 -1.76345 -0.420959 0
M  V30 856 C 82.3515 -1.86363 3.08709 0
M  V30 857 O 81.4555 -2.95873 2.87285 0
M  V30 858 H 80.7965 -0.274461 0.604622 0
M  V30 859 H 83.3265 -0.237056 2.03222 0
M  V30 860 H 83.3365 -2.27376 3.38768 0
M  V30 861 H 82.0115 -1.27319 3.95933 0
M  V30 862 H 80.5885 -2.58818 2.68454 0
M  V30 863 N 82.7736 -1.49793 -0.48987 0
M  V30 864 C 83.6836 -1.70036 -1.61632 0
M  V30 865 C 84.6996 -0.583102 -1.63939 0
M  V30 866 O 85.8756 -0.859169 -1.82154 0
M  V30 867 C 82.9406 -1.77277 -2.97949 0
M  V30 868 C 82.0016 -3.00918 -3.06181 0
M  V30 869 C 81.2346 -3.07804 -4.35996 0
M  V30 870 O 81.4576 -2.21982 -5.25433 0
M  V30 871 O 80.3916 -4.00369 -4.49431 0
M  V30 872 H 84.2176 -2.65486 -1.47482 0
M  V30 873 H 81.8026 -1.33666 -0.667362 0
M  V30 874 H 83.6846 -1.84329 -3.78947 0
M  V30 875 H 82.3596 -0.850076 -3.12339 0
M  V30 876 H 81.2666 -2.99377 -2.2433 0
M  V30 877 H 82.5996 -3.92704 -2.96723 0
M  V30 878 N 84.2517 0.741722 -1.39055 0
M  V30 879 C 85.1997 1.87702 -1.3737 0
M  V30 880 C 86.1937 1.67427 -0.257812 0
M  V30 881 O 87.3997 1.7485 -0.427489 0
M  V30 882 H 83.7747 0.617757 -0.428812 0
M  V30 883 H 85.7457 1.86239 -2.33147 0
M  V30 884 C 84.4947 3.25315 -1.22741 0
M  V30 885 H 83.8177 3.41509 -2.07873 0
M  V30 886 H 85.2577 4.04964 -1.25618 0
M  V30 887 C 83.7167 3.36838 0.0647316 0
M  V30 888 O 84.2467 3.88073 1.03741 0
M  V30 889 N 82.4527 2.90329 0.125544 0
M  V30 890 H 81.9997 2.48823 -0.666682 0
M  V30 891 H 81.9577 2.98418 0.989639 0
M  V30 892 N 85.7298 1.2412 0.971189 0
M  V30 893 C 87.0068 0.986867 1.6888 0
M  V30 894 C 87.3868 -0.491857 2.0529 0
M  V30 895 O 86.7348 -1.46531 1.75331 0
M  V30 896 C 86.9448 1.9063 2.92338 0
M  V30 897 C 88.2928 2.17515 3.64654 0
M  V30 898 O 89.3168 1.88254 3.02388 0
M  V30 899 O 88.1758 2.6719 4.7673 0
M  V30 900 H 85.2698 0.372944 0.738134 0
M  V30 901 H 87.8158 1.35203 1.02559 0
M  V30 902 H 86.5878 2.90552 2.62097 0
M  V30 903 H 86.2108 1.54408 3.66393 0
M  V30 904 N 87.2079 -1.17134 1.05439 0
M  V30 905 C 88.6189 -1.69084 0.791676 0
M  V30 906 C 88.9699 -1.83822 -0.685839 0
M  V30 907 O 88.0949 -1.52757 -1.53278 0
M  V30 908 C 88.6899 -3.07119 1.4305 0
M  V30 909 C 87.2489 -3.56225 1.21577 0
M  V30 910 C 86.3959 -2.32421 1.51247 0
M  V30 911 H 89.3469 -1.01617 1.219 0
M  V30 912 H 89.3679 -3.71087 0.84112 0
M  V30 913 H 88.8799 -2.9636 2.50584 0
M  V30 914 H 86.9809 -3.72257 0.159787 0
M  V30 915 H 87.0939 -4.38837 1.92246 0
M  V30 916 H 85.4579 -2.3701 0.932653 0
M  V30 917 H 86.2409 -2.24268 2.5992 0
M  V30 918 N 88.686 -0.835752 -1.33615 0
M  V30 919 C 89.634 -0.255238 -2.31195 0
M  V30 920 C 90.628 0.61107 -1.57995 0
M  V30 921 O 91.834 0.500979 -1.72888 0
M  V30 922 H 88.209 -0.0638085 -0.749288 0
M  V30 923 H 90.18 -1.09283 -2.77669 0
M  V30 924 C 88.929 0.55754 -3.43201 0
M  V30 925 H 88.252 -0.0997553 -3.99676 0
M  V30 926 H 89.692 0.929622 -4.13683 0
M  V30 927 C 88.151 1.73515 -2.88781 0
M  V30 928 O 88.681 2.83376 -2.84712 0
M  V30 929 N 86.887 1.55603 -2.4543 0
M  V30 930 H 86.434 0.662354 -2.48939 0
M  V30 931 H 86.392 2.34545 -2.09371 0
M  V30 932 N 90.1641 1.46063 -0.591896 0
M  V30 933 C 91.0941 2.33172 0.123673 0
M  V30 934 C 92.0751 1.45897 0.87453 0
M  V30 935 O 93.2601 1.74698 0.848181 0
M  V30 936 C 90.3901 3.28336 1.13194 0
M  V30 937 C 89.3441 4.25124 0.495324 0
M  V30 938 C 88.6701 5.09863 1.61071 0
M  V30 939 C 89.9701 5.19143 -0.573425 0
M  V30 940 H 91.6641 2.93252 -0.603646 0
M  V30 941 H 89.2101 1.41014 -0.291741 0
M  V30 942 H 91.1631 3.88137 1.64097 0
M  V30 943 H 89.8871 2.66383 1.88965 0
M  V30 944 H 88.5461 3.66599 0.00729452 0
M  V30 945 H 88.1941 4.44288 2.35832 0
M  V30 946 H 87.8941 5.75417 1.19035 0
M  V30 947 H 89.4181 5.72529 2.12233 0
M  V30 948 H 90.8321 5.73106 -0.1491 0
M  V30 949 H 89.2291 5.93089 -0.914636 0
M  V30 950 H 90.2991 4.62519 -1.45617 0
M  V30 951 N 91.6422 0.330177 1.54103 0
M  V30 952 C 92.8892 -0.270405 2.00686 0
M  V30 953 C 93.2172 -1.51621 1.21825 0
M  V30 954 O 92.4722 -1.93536 0.29025 0
M  V30 955 C 92.7712 -0.643134 3.51566 0
M  V30 956 C 92.4372 0.504251 4.48072 0
M  V30 957 C 91.0992 0.819163 4.74176 0
M  V30 958 C 93.4512 1.27465 5.05373 0
M  V30 959 C 90.7792 1.90708 5.5484 0
M  V30 960 C 93.1312 2.35271 5.87223 0
M  V30 961 C 91.7952 2.67336 6.11627 0
M  V30 962 H 91.0652 -0.0989482 0.734364 0
M  V30 963 H 93.7122 0.455324 1.86008 0
M  V30 964 H 92.0172 -1.44938 3.64006 0
M  V30 965 H 93.7142 -1.11949 3.85056 0
M  V30 966 H 90.3042 0.248733 4.27878 0
M  V30 967 H 94.4882 1.04462 4.85182 0
M  V30 968 H 89.7442 2.15991 5.71977 0
M  V30 969 H 93.9182 2.95405 6.30641 0
M  V30 970 H 91.5452 3.51763 6.73919 0
M  V30 971 N 93.1203 -1.57491 0.0584922 0
M  V30 972 C 94.3663 -1.93264 -0.614558 0
M  V30 973 C 94.6993 -0.937717 -1.7006 0
M  V30 974 O 93.9743 0.0351652 -1.94468 0
M  V30 975 C 94.2573 -3.3938 -1.20386 0
M  V30 976 C 94.1103 -4.49625 -0.125375 0
M  V30 977 C 95.4293 -3.86039 -2.11334 0
M  V30 978 H 92.5483 -0.702791 -0.221933 0
M  V30 979 H 95.1903 -1.8961 0.12175 0
M  V30 980 H 93.3403 -3.42626 -1.83139 0
M  V30 981 H 95.0123 -4.58506 0.506971 0
M  V30 982 H 93.2553 -4.30354 0.545672 0
M  V30 983 H 93.9263 -5.48967 -0.577861 0
M  V30 984 H 96.4023 -3.84716 -1.58534 0
M  V30 985 H 95.2783 -4.88914 -2.49507 0
M  V30 986 H 95.5393 -3.23215 -3.01636 0
M  V30 987 N 94.5984 0.214957 -1.56127 0
M  V30 988 C 95.5614 1.24997 -1.92116 0
M  V30 989 C 96.5614 1.39467 -0.800344 0
M  V30 990 O 97.7514 1.37619 -1.06802 0
M  V30 991 C 94.8834 2.62271 -2.17777 0
M  V30 992 H 96.0764 0.942875 -2.84693 0
M  V30 993 H 93.6294 0.455654 -1.49511 0
M  V30 994 H 94.3644 2.98068 -1.27773 0
M  V30 995 H 94.1494 2.53143 -2.99434 0
M  V30 996 H 95.6394 3.36946 -2.46693 0
M  V30 997 N 96.0765 1.50051 0.48192 0
M  V30 998 C 97.0065 1.71046 1.58951 0
M  V30 999 C 97.9875 0.559288 1.60642 0
M  V30 1000 O 99.1725 0.797243 1.77081 0
M  V30 1001 C 96.3025 1.79462 2.97339 0
M  V30 1002 C 95.2565 2.94558 3.10515 0
M  V30 1003 C 94.5825 2.88105 4.50444 0
M  V30 1004 C 95.8825 4.35227 2.88747 0
M  V30 1005 H 97.5765 2.6378 1.41635 0
M  V30 1006 H 95.1225 1.26936 0.679942 0
M  V30 1007 H 97.0755 1.92734 3.74742 0
M  V30 1008 H 95.7995 0.833412 3.15788 0
M  V30 1009 H 94.4585 2.80918 2.35543 0
M  V30 1010 H 94.1065 1.89853 4.65795 0
M  V30 1011 H 93.8065 3.65366 4.60197 0
M  V30 1012 H 95.3305 3.03412 5.29881 0
M  V30 1013 H 96.7445 4.49449 3.55905 0
M  V30 1014 H 95.1415 5.13856 3.09955 0
M  V30 1015 H 96.2115 4.48347 1.84696 0
M  V30 1016 N 97.5546 -0.734337 1.39446 0
M  V30 1017 C 98.7846 -1.52137 1.39778 0
M  V30 1018 C 99.1926 -1.89198 -0.00929312 0
M  V30 1019 O 98.5356 -1.54666 -0.991168 0
M  V30 1020 C 98.5976 -2.83762 2.20724 0
M  V30 1021 C 98.2616 -2.69131 3.69347 0
M  V30 1022 C 99.2586 -2.37635 4.62413 0
M  V30 1023 C 96.9436 -2.85982 4.1294 0
M  V30 1024 C 98.9376 -2.23172 5.97054 0
M  V30 1025 C 96.6246 -2.71137 5.47657 0
M  V30 1026 C 97.6226 -2.39777 6.39528 0
M  V30 1027 O 97.3106 -2.25026 7.71763 0
M  V30 1028 H 97.0426 -0.476717 0.479288 0
M  V30 1029 H 99.5966 -0.915012 1.83893 0
M  V30 1030 H 97.8266 -3.4666 1.71359 0
M  V30 1031 H 99.5156 -3.45383 2.13226 0
M  V30 1032 H 100.282 -2.24267 4.30034 0
M  V30 1033 H 96.1606 -3.09383 3.41765 0
M  V30 1034 H 99.7046 -1.98617 6.68728 0
M  V30 1035 H 95.6016 -2.84083 5.79626 0
M  V30 1036 H 96.3696 -2.40091 7.82495 0
M  V30 1037 N 99.0327 -1.24633 -0.964593 0
M  V30 1038 C 100.31 -0.995809 -1.68354 0
M  V30 1039 C 100.69 0.480964 -2.05548 0
M  V30 1040 O 100.038 1.45599 -1.76105 0
M  V30 1041 C 100.248 -1.92177 -2.91323 0
M  V30 1042 C 101.596 -2.19446 -3.63495 0
M  V30 1043 O 102.62 -1.89855 -3.01386 0
M  V30 1044 O 101.479 -2.69714 -4.75307 0
M  V30 1045 H 98.5727 -0.376854 -0.736146 0
M  V30 1046 H 101.119 -1.35745 -1.0184 0
M  V30 1047 H 99.8907 -2.91938 -2.60553 0
M  V30 1048 H 99.5137 -1.56349 -3.65569 0
M  V30 1049 N 100.511 1.16574 -1.06058 0
M  V30 1050 C 101.758 1.87047 -0.775873 0
M  V30 1051 C 102.086 1.81562 0.697534 0
M  V30 1052 O 101.341 1.22445 1.52662 0
M  V30 1053 C 101.64 3.36195 -1.21275 0
M  V30 1054 C 101.306 3.6188 -2.68986 0
M  V30 1055 C 99.9678 3.68599 -3.09335 0
M  V30 1056 C 102.32 3.72648 -3.64394 0
M  V30 1057 C 99.6478 3.83584 -4.43937 0
M  V30 1058 C 102 3.89154 -4.98741 0
M  V30 1059 C 100.664 3.94114 -5.3873 0
M  V30 1060 H 99.9338 0.684452 -0.283912 0
M  V30 1061 H 102.581 1.37853 -1.32925 0
M  V30 1062 H 100.886 3.87505 -0.578528 0
M  V30 1063 H 102.583 3.89103 -0.969542 0
M  V30 1064 H 99.1728 3.57281 -2.36744 0
M  V30 1065 H 103.357 3.66769 -3.34356 0
M  V30 1066 H 98.6128 3.85677 -4.74409 0
M  V30 1067 H 102.787 3.96427 -5.72554 0
M  V30 1068 H 100.414 4.05478 -6.43033 0
M  V30 1069 N 101.989 0.842826 1.3317 0
M  V30 1070 C 103.235 0.441099 1.97945 0
M  V30 1071 C 103.568 -0.998024 1.66593 0
M  V30 1072 O 102.843 -1.69839 0.947898 0
M  V30 1073 C 103.126 0.666841 3.53872 0
M  V30 1074 C 102.979 2.15352 3.94897 0
M  V30 1075 C 104.298 0.115544 4.39948 0
M  V30 1076 H 101.417 0.161739 0.719034 0
M  V30 1077 H 104.059 1.05907 1.57746 0
M  V30 1078 H 102.209 0.140828 3.88245 0
M  V30 1079 H 103.881 2.7447 3.70761 0
M  V30 1080 H 102.124 2.63653 3.44484 0
M  V30 1081 H 102.795 2.26221 5.03516 0
M  V30 1082 H 105.271 0.565213 4.12243 0
M  V30 1083 H 104.147 0.303152 5.48062 0
M  V30 1084 H 104.408 -0.980935 4.3108 0
M  V30 1085 N 103.467 -1.45747 0.599634 0
M  V30 1086 C 104.43 -2.28917 -0.113835 0
M  V30 1087 C 105.43 -1.3933 -0.802729 0
M  V30 1088 O 106.62 -1.61534 -0.652103 0
M  V30 1089 C 103.752 -3.20152 -1.17114 0
M  V30 1090 H 104.945 -2.93478 0.617289 0
M  V30 1091 H 102.498 -1.52137 0.358327 0
M  V30 1092 H 103.233 -2.60374 -1.93329 0
M  V30 1093 H 103.018 -3.86133 -0.681468 0
M  V30 1094 H 104.508 -3.82708 -1.67105 0
M  V30 1095 N 104.945 -0.338344 -1.53925 0
M  V30 1096 C 106.17 0.263987 -2.05713 0
M  V30 1097 C 106.595 1.43847 -1.21201 0
M  V30 1098 O 105.953 1.79904 -0.224535 0
M  V30 1099 C 106.001 0.662 -3.54471 0
M  V30 1100 O 105.105 1.76265 -3.72833 0
M  V30 1101 H 104.446 0.0448722 -0.662482 0
M  V30 1102 H 106.976 -0.491048 -1.9862 0
M  V30 1103 H 106.986 0.940594 -3.9701 0
M  V30 1104 H 105.661 -0.196937 -4.15433 0
M  V30 1105 H 104.238 1.48173 -3.42198 0
M  V30 1106 N 106.423 1.57458 -0.0668435 0
M  V30 1107 C 107.671 1.92919 0.602214 0
M  V30 1108 C 107.992 0.947215 1.70449 0
M  V30 1109 O 107.262 -0.00544117 1.95899 0
M  V30 1110 H 105.842 0.71217 0.22544 0
M  V30 1111 H 108.504 1.94508 -0.123535 0
M  V30 1112 H 107.6 2.94589 1.03073 0
M  V30 1113 N 107.901 -0.206675 1.56239 0
M  V30 1114 C 109.178 -0.954051 1.70755 0
M  V30 1115 C 109.558 -2.01841 0.618353 0
M  V30 1116 O 108.906 -2.25444 -0.372434 0
M  V30 1117 C 109.116 -1.551 3.12642 0
M  V30 1118 C 110.464 -2.03757 3.72516 0
M  V30 1119 O 111.488 -1.64965 3.15698 0
M  V30 1120 O 110.347 -2.75103 4.72208 0
M  V30 1121 H 107.441 -0.446636 0.696021 0
M  V30 1122 H 109.987 -0.197283 1.68549 0
M  V30 1123 H 108.759 -0.783212 3.83382 0
M  V30 1124 H 108.382 -2.37291 3.19028 0
M  V30 1125 N 109.379 -1.50304 -0.473955 0
M  V30 1126 C 110.327 -1.69482 -1.59307 0
M  V30 1127 C 111.321 -0.560669 -1.59853 0
M  V30 1128 O 112.527 -0.741087 -1.64036 0
M  V30 1129 H 108.902 -0.534892 -0.528578 0
M  V30 1130 H 110.873 -2.63364 -1.40293 0
M  V30 1131 C 109.622 -1.80354 -2.97267 0
M  V30 1132 H 108.945 -2.67012 -2.97564 0
M  V30 1133 H 110.385 -1.97798 -3.75036 0
M  V30 1134 C 108.844 -0.55448 -3.32306 0
M  V30 1135 O 109.374 0.307661 -4.0052 0
M  V30 1136 N 107.58 -0.409354 -2.87702 0
M  V30 1137 H 107.127 -1.11196 -2.32364 0
M  V30 1138 H 107.085 0.425223 -3.11511 0
M  V30 1139 N 110.857 0.726932 -1.39834 0
M  V30 1140 C 112.085 1.51613 -1.40787 0
M  V30 1141 C 112.5 1.88799 -0.00451505 0
M  V30 1142 O 111.857 1.54662 0.968809 0
M  V30 1143 C 111.908 2.79863 -2.28821 0
M  V30 1144 O 111.629 2.44253 -3.63692 0
M  V30 1145 C 113.13 3.73837 -2.38245 0
M  V30 1146 H 110.35 0.468264 -0.480593 0
M  V30 1147 H 112.894 0.897607 -1.83748 0
M  V30 1148 H 111.049 3.38027 -1.89252 0
M  V30 1149 H 111.463 3.26695 -4.1033 0
M  V30 1150 H 112.937 4.60699 -3.04073 0
M  V30 1151 H 113.414 4.16153 -1.40403 0
M  V30 1152 H 114.02 3.21589 -2.78317 0
M  V30 1153 N 112.336 1.25143 0.95797 0
M  V30 1154 C 113.266 1.07711 2.07173 0
M  V30 1155 C 114.247 -0.0128462 1.70095 0
M  V30 1156 O 115.432 0.156061 1.93572 0
M  V30 1157 C 112.562 0.691503 3.40346 0
M  V30 1158 C 111.516 1.73132 3.9142 0
M  V30 1159 C 110.842 1.20049 5.21049 0
M  V30 1160 C 112.142 3.1294 4.1817 0
M  V30 1161 H 113.836 2.00873 2.22014 0
M  V30 1162 H 111.382 0.967191 1.06684 0
M  V30 1163 H 113.335 0.556505 4.17709 0
M  V30 1164 H 112.059 -0.275819 3.25433 0
M  V30 1165 H 110.718 1.8547 3.16222 0
M  V30 1166 H 110.366 0.223499 5.02503 0
M  V30 1167 H 110.066 1.89545 5.56189 0
M  V30 1168 H 111.59 1.07782 6.01012 0
M  V30 1169 H 113.004 3.03775 4.86203 0
M  V30 1170 H 111.401 3.79875 4.64559 0
M  V30 1171 H 112.471 3.6025 3.24573 0
M  V30 1172 N 113.814 -1.1601 1.06675 0
M  V30 1173 C 115.039 -1.91068 0.806706 0
M  V30 1174 C 115.464 -1.77112 -0.633485 0
M  V30 1175 O 114.822 -1.09908 -1.44187 0
M  V30 1176 C 114.87 -3.39655 1.21106 0
M  V30 1177 O 113.974 -4.10893 0.352189 0
M  V30 1178 H 113.315 -0.595125 0.294486 0
M  V30 1179 H 115.845 -1.46955 1.42356 0
M  V30 1180 H 115.855 -3.90434 1.18428 0
M  V30 1181 H 114.53 -3.49132 2.26008 0
M  V30 1182 H 113.107 -3.70285 0.440868 0
M  V30 1183 N 115.292 -0.849877 -1.32721 0
M  V30 1184 C 116.541 -0.447175 -1.96681 0
M  V30 1185 C 116.854 1.00135 -1.68025 0
M  V30 1186 O 118.06 1.50926 -2.25685 0
M  V30 1187 C 116.516 -0.7487 -3.52026 0
M  V30 1188 C 116.124 -2.21264 -3.89546 0
M  V30 1189 C 117.868 -0.413487 -4.22481 0
M  V30 1190 C 115.775 -2.45763 -5.37917 0
M  V30 1191 H 114.705 -0.163486 -0.736063 0
M  V30 1192 H 117.356 -1.03999 -1.51183 0
M  V30 1193 H 115.738 -0.0853727 -3.95908 0
M  V30 1194 H 116.912 -2.91736 -3.56689 0
M  V30 1195 H 115.227 -2.5119 -3.32103 0
M  V30 1196 H 117.824 -0.574017 -5.3161 0
M  V30 1197 H 118.167 0.644492 -4.11281 0
M  V30 1198 H 118.7 -1.03251 -3.84167 0
M  V30 1199 H 115.439 -3.50168 -5.54132 0
M  V30 1200 H 114.959 -1.79864 -5.72197 0
M  V30 1201 H 116.638 -2.29471 -6.0494 0
M  V30 1202 N 116.77 1.45427 -0.607355 0
M  V30 1203 C 117.998 2.06614 -0.108814 0
M  V30 1204 C 118.413 1.45204 1.2067 0
M  V30 1205 O 117.77 0.566132 1.73497 0
M  V30 1206 C 117.821 3.61481 0.0375347 0
M  V30 1207 O 117.542 4.20598 -1.22593 0
M  V30 1208 C 119.043 4.39652 0.567561 0
M  V30 1209 H 116.263 0.66747 -0.0687351 0
M  V30 1210 H 118.807 1.86675 -0.835022 0
M  V30 1211 H 116.962 3.80762 0.714068 0
M  V30 1212 H 117.376 5.1377 -1.05547 0
M  V30 1213 H 118.85 5.48518 0.61905 0
M  V30 1214 H 119.327 4.09417 1.58978 0
M  V30 1215 H 119.933 4.25234 -0.0749202 0
M  V30 1216 N 118.248 0.346503 1.53744 0
M  V30 1217 C 119.195 -0.508914 2.25119 0
M  V30 1218 C 120.165 -1.09315 1.25058 0
M  V30 1219 O 121.35 -1.12921 1.53797 0
M  V30 1220 C 118.49 -1.65246 3.02965 0
M  V30 1221 C 117.603 -1.09525 4.17886 0
M  V30 1222 C 116.738 -2.20634 4.83212 0
M  V30 1223 C 115.777 -1.62279 5.90196 0
M  V30 1224 N 114.914 -2.67143 6.49291 0
M  V30 1225 H 119.754 0.106283 2.9781 0
M  V30 1226 H 117.291 0.0642227 1.4696 0
M  V30 1227 H 119.249 -2.32574 3.4636 0
M  V30 1228 H 117.879 -2.2386 2.32565 0
M  V30 1229 H 116.931 -0.312818 3.79112 0
M  V30 1230 H 118.243 -0.628444 4.94825 0
M  V30 1231 H 117.397 -2.95821 5.29693 0
M  V30 1232 H 116.136 -2.70659 4.05703 0
M  V30 1233 H 115.141 -0.855989 5.43096 0
M  V30 1234 H 116.366 -1.13102 6.69615 0
M  V30 1235 H 114.312 -3.16417 5.74645 0
M  V30 1236 H 114.229 -2.25093 7.21713 0
M  V30 1237 H 115.497 -3.4209 7.00425 0
M  V30 1238 N 119.726 -1.57421 0.075193 0
M  V30 1239 C 120.974 -1.93236 -0.591974 0
M  V30 1240 C 121.295 -0.956241 -1.69944 0
M  V30 1241 O 120.565 -0.00494792 -1.95899 0
M  V30 1242 H 119.145 -0.713355 -0.22166 0
M  V30 1243 H 121.807 -1.9444 0.133848 0
M  V30 1244 H 120.903 -2.95131 -1.01509 0
M  V30 1245 N 121.204 0.198386 -1.56346 0
M  V30 1246 C 122.114 1.2664 -1.97483 0
M  V30 1247 C 123.13 1.49989 -0.882002 0
M  V30 1248 O 124.306 1.62668 -1.18748 0
M  V30 1249 C 121.371 2.59141 -2.30319 0
M  V30 1250 C 120.432 2.43892 -3.53292 0
M  V30 1251 C 119.665 3.70074 -3.84553 0
M  V30 1252 O 119.888 4.74101 -3.1715 0
M  V30 1253 O 118.822 3.658 -4.7799 0
M  V30 1254 H 122.648 0.947304 -2.88548 0
M  V30 1255 H 120.233 0.403123 -1.43859 0
M  V30 1256 H 122.115 3.37352 -2.5253 0
M  V30 1257 H 120.79 2.90684 -1.42423 0
M  V30 1258 H 119.697 1.63803 -3.36332 0
M  V30 1259 H 121.03 2.17282 -4.41644 0
M  V30 1260 N 122.682 1.50554 0.465978 0
M  V30 1261 C 123.629 1.6979 1.56333 0
M  V30 1262 C 124.599 0.539239 1.57103 0
M  V30 1263 O 125.784 0.770401 1.74555 0
M  V30 1264 C 122.924 1.80273 2.94271 0
M  V30 1265 C 122.037 3.07674 3.0325 0
M  V30 1266 C 121.172 3.08922 4.32135 0
M  V30 1267 C 120.211 4.30755 4.34875 0
M  V30 1268 N 119.348 4.29714 5.55239 0
M  V30 1269 H 124.188 2.63472 1.39235 0
M  V30 1270 H 121.725 1.30602 0.676873 0
M  V30 1271 H 123.683 1.84332 3.74269 0
M  V30 1272 H 122.313 0.900258 3.09992 0
M  V30 1273 H 121.365 3.13062 2.16094 0
M  V30 1274 H 122.677 3.97642 3.01135 0
M  V30 1275 H 121.831 3.11738 5.20485 0
M  V30 1276 H 120.57 2.16792 4.36866 0
M  V30 1277 H 119.575 4.28146 3.44922 0
M  V30 1278 H 120.8 5.24117 4.31831 0
M  V30 1279 H 118.746 3.4044 5.60746 0
M  V30 1280 H 118.663 5.13456 5.54886 0
M  V30 1281 H 119.931 4.36683 6.457 0
M  V30 1282 N 124.16 -0.719506 1.40217 0
M  V30 1283 C 125.09 -1.8465 1.42922 0
M  V30 1284 C 126.071 -1.67599 0.29062 0
M  V30 1285 O 127.256 -1.87688 0.498677 0
M  V30 1286 C 124.386 -3.22565 1.28722 0
M  V30 1287 C 123.34 -3.54281 2.40144 0
M  V30 1288 C 122.666 -4.91298 2.11023 0
M  V30 1289 C 123.966 -3.55676 3.82481 0
M  V30 1290 H 125.66 -1.82644 2.37237 0
M  V30 1291 H 123.206 -0.877305 1.1419 0
M  V30 1292 H 125.159 -4.01095 1.29232 0
M  V30 1293 H 123.883 -3.25137 0.308811 0
M  V30 1294 H 122.542 -2.78088 2.38877 0
M  V30 1295 H 122.19 -4.90468 1.11582 0
M  V30 1296 H 121.89 -5.13485 2.8567 0
M  V30 1297 H 123.414 -5.72166 2.13209 0
M  V30 1298 H 124.828 -4.24254 3.85592 0
M  V30 1299 H 123.225 -3.89388 4.56614 0
M  V30 1300 H 124.295 -2.55144 4.12346 0
M  V30 1301 N 125.638 -1.25649 -0.95132 0
M  V30 1302 C 127.054 -1.02542 -1.223 0
M  V30 1303 C 127.254 0.255715 -1.99871 0
M  V30 1304 O 126.31 0.967558 -2.33226 0
M  V30 1305 C 127.623 -2.25065 -1.99415 0
M  V30 1306 C 129.171 -2.29861 -2.12446 0
M  V30 1307 C 129.646 -3.52048 -2.92961 0
M  V30 1308 N 131.137 -3.52465 -3.00538 0
M  V30 1309 C 131.872 -4.43672 -3.63239 0
M  V30 1310 N 131.368 -5.45157 -4.27523 0
M  V30 1311 N 133.161 -4.31346 -3.60412 0
M  V30 1312 H 125.312 -2.07951 -0.432471 0
M  V30 1313 H 127.575 -0.91339 -0.253816 0
M  V30 1314 H 127.281 -3.18194 -1.49817 0
M  V30 1315 H 127.155 -2.28502 -3.00111 0
M  V30 1316 H 129.542 -1.37252 -2.61239 0
M  V30 1317 H 129.623 -2.3044 -1.11044 0
M  V30 1318 H 129.267 -4.44981 -2.44856 0
M  V30 1319 H 129.197 -3.48715 -3.94596 0
M  V30 1320 H 131.688 -2.79056 -2.54826 0
M  V30 1321 H 132.001 -6.10958 -4.73234 0
M  V30 1322 H 130.346 -5.49025 -4.26141 0
M  V30 1323 H 133.537 -3.51288 -3.09377 0
M  V30 1324 H 133.71 -5.02624 -4.0899 0
M  V30 1325 N 127.117 1.15442 -1.07289 0
M  V30 1326 C 128.363 1.86489 -0.796846 0
M  V30 1327 C 128.696 1.82078 0.675371 0
M  V30 1328 O 127.971 1.24346 1.4956 0
M  V30 1329 C 128.254 3.35626 -1.30489 0
M  V30 1330 C 128.107 3.48673 -2.84161 0
M  V30 1331 C 129.426 4.30357 -0.920907 0
M  V30 1332 H 126.545 0.677144 -0.290939 0
M  V30 1333 H 129.187 1.35633 -1.33056 0
M  V30 1334 H 127.337 3.79068 -0.850883 0
M  V30 1335 H 129.009 3.14099 -3.37846 0
M  V30 1336 H 127.252 2.90253 -3.22391 0
M  V30 1337 H 127.923 4.53453 -3.14777 0
M  V30 1338 H 130.399 3.94871 -1.3121 0
M  V30 1339 H 129.275 5.33193 -1.30372 0
M  V30 1340 H 129.536 4.4176 0.173226 0
M  V30 1341 N 128.595 0.856903 1.32268 0
M  V30 1342 C 129.525 0.31858 2.31316 0
M  V30 1343 C 130.506 -0.583487 1.59779 0
M  V30 1344 O 131.691 -0.503259 1.87566 0
M  V30 1345 C 128.821 -0.491979 3.43798 0
M  V30 1346 C 127.775 0.315849 4.26833 0
M  V30 1347 C 127.101 -0.619586 5.31098 0
M  V30 1348 C 128.401 1.54282 4.98993 0
M  V30 1349 H 130.095 1.14621 2.76591 0
M  V30 1350 H 127.641 0.552613 1.32974 0
M  V30 1351 H 129.594 -0.879012 4.1213 0
M  V30 1352 H 128.318 -1.35299 2.97257 0
M  V30 1353 H 126.977 0.684664 3.6015 0
M  V30 1354 H 126.625 -1.47751 4.8081 0
M  V30 1355 H 126.325 -0.0830621 5.87541 0
M  V30 1356 H 127.849 -1.00375 6.02293 0
M  V30 1357 H 129.263 1.22796 5.59995 0
M  V30 1358 H 127.66 2.01745 5.65172 0
M  V30 1359 H 128.73 2.30285 4.26728 0
M  V30 1360 N 130.073 -1.45103 0.615059 0
M  V30 1361 C 131.321 -2.01784 0.112955 0
M  V30 1362 C 131.642 -1.48504 -1.26378 0
M  V30 1363 O 130.912 -0.682245 -1.83636 0
M  V30 1364 H 129.492 -0.745993 0.0387668 0
M  V30 1365 H 132.154 -1.77808 0.798141 0
M  V30 1366 H 131.25 -3.12025 0.0684069 0
M  V30 1367 N 131.551 -0.354651 -1.53558 0
M  V30 1368 C 132.781 0.239167 -2.05211 0
M  V30 1369 C 133.189 1.43879 -1.22863 0
M  V30 1370 O 132.532 1.81857 -0.259565 0
M  V30 1371 C 132.594 0.707251 -3.52474 0
M  V30 1372 C 132.258 -0.374212 -4.55465 0
M  V30 1373 C 133.255 -1.22054 -5.0537 0
M  V30 1374 C 130.94 -0.531323 -4.99482 0
M  V30 1375 C 132.934 -2.20942 -5.97882 0
M  V30 1376 C 130.621 -1.52358 -5.91802 0
M  V30 1377 C 131.619 -2.36108 -6.40892 0
M  V30 1378 O 131.307 -3.33643 -7.31394 0
M  V30 1379 H 131.039 0.0479716 -0.674296 0
M  V30 1380 H 133.593 -0.508121 -1.99016 0
M  V30 1381 H 131.823 1.50596 -3.56171 0
M  V30 1382 H 133.512 1.22285 -3.87042 0
M  V30 1383 H 134.278 -1.1103 -4.7212 0
M  V30 1384 H 130.157 0.110738 -4.60867 0
M  V30 1385 H 133.701 -2.86348 -6.36121 0
M  V30 1386 H 129.598 -1.63434 -6.24467 0
M  V30 1387 H 130.366 -3.29244 -7.4936 0
M  V30 1388 N 133.029 1.57378 -0.0835403 0
M  V30 1389 C 133.977 2.14602 0.89714 0
M  V30 1390 C 134.971 1.08589 1.30018 0
M  V30 1391 O 136.177 1.26952 1.27606 0
M  V30 1392 H 132.552 0.686346 0.3073 0
M  V30 1393 H 134.523 2.95845 0.38969 0
M  V30 1394 C 133.272 2.73188 2.15089 0
M  V30 1395 H 132.595 3.54442 1.84962 0
M  V30 1396 H 134.035 3.1681 2.81793 0
M  V30 1397 C 132.494 1.68517 2.91725 0
M  V30 1398 O 133.024 1.11718 3.85852 0
M  V30 1399 N 131.23 1.39277 2.55049 0
M  V30 1400 H 130.777 1.85655 1.78577 0
M  V30 1401 H 130.735 0.694791 3.06627 0
M  V30 1402 N 134.507 -0.190092 1.56449 0
M  V30 1403 C 135.457 -1.23977 1.91347 0
M  V30 1404 C 136.441 -1.40747 0.779693 0
M  V30 1405 O 137.633 -1.43033 1.04262 0
M  V30 1406 C 134.762 -2.58347 2.26079 0
M  V30 1407 C 133.848 -2.4535 3.45925 0
M  V30 1408 N 134.239 -2.02039 4.63696 0
M  V30 1409 C 132.537 -2.76229 3.50162 0
M  V30 1410 C 133.238 -2.01053 5.4585 0
M  V30 1411 N 132.214 -2.42747 4.8639 0
M  V30 1412 H 136.016 -0.896318 2.79899 0
M  V30 1413 H 133.53 -0.398496 1.57435 0
M  V30 1414 H 135.527 -3.34173 2.49267 0
M  V30 1415 H 134.187 -2.93512 1.38856 0
M  V30 1416 H 135.198 -1.7267 4.88268 0
M  V30 1417 H 131.875 -3.15556 2.73369 0
M  V30 1418 H 133.265 -1.69426 6.50188 0
M  V30 1419 N 135.985 -1.50799 -0.457987 0
M  V30 1420 C 136.933 -1.71162 -1.575 0
M  V30 1421 C 137.927 -0.577592 -1.59249 0
M  V30 1422 O 139.133 -0.758443 -1.63241 0
M  V30 1423 H 135.508 -0.540468 -0.522875 0
M  V30 1424 H 137.479 -2.64837 -1.37492 0
M  V30 1425 C 136.228 -1.83496 -2.95338 0
M  V30 1426 H 135.551 -2.70153 -2.94716 0
M  V30 1427 H 136.991 -2.01765 -3.72917 0
M  V30 1428 C 135.45 -0.589694 -3.31699 0
M  V30 1429 O 135.98 0.265163 -4.00824 0
M  V30 1430 N 134.186 -0.439845 -2.87252 0
M  V30 1431 H 133.733 -1.13655 -2.31172 0
M  V30 1432 H 133.691 0.392159 -3.11945 0
M  V30 1433 N 137.463 0.71206 -1.40597 0
M  V30 1434 C 138.711 1.46907 -1.38791 0
M  V30 1435 C 139.032 1.94998 0.00780391 0
M  V30 1436 O 138.302 1.70587 0.963174 0
M  V30 1437 H 136.882 0.545043 -0.51082 0
M  V30 1438 H 139.544 0.843882 -1.75683 0
M  V30 1439 H 138.64 2.34021 -2.06496 0
M  V30 1440 N 138.941 1.26152 0.944643 0
M  V30 1441 C 139.851 1.09176 2.07648 0
M  V30 1442 C 140.867 0.0261935 1.7398 0
M  V30 1443 O 142.043 0.229208 2.00091 0
M  V30 1444 C 139.108 0.722915 3.39079 0
M  V30 1445 C 138.169 1.86752 3.86552 0
M  V30 1446 C 137.402 1.51617 5.11711 0
M  V30 1447 O 137.625 0.416331 5.68879 0
M  V30 1448 O 136.559 2.34975 5.54139 0
M  V30 1449 H 140.385 2.0412 2.24875 0
M  V30 1450 H 137.97 1.05182 1.061 0
M  V30 1451 H 139.852 0.529787 4.18056 0
M  V30 1452 H 138.527 -0.197159 3.23099 0
M  V30 1453 H 137.434 2.11558 3.08535 0
M  V30 1454 H 138.767 2.76719 4.07047 0
M  V30 1455 N 140.419 -1.14872 1.07899 0
M  V30 1456 C 141.665 -1.86289 0.81657 0
M  V30 1457 C 142.02 -1.8107 -0.65049 0
M  V30 1458 O 141.313 -1.22684 -1.47171 0
M  V30 1459 C 141.507 -3.34223 1.26609 0
M  V30 1460 C 141.336 -3.53846 2.77531 0
M  V30 1461 C 140.106 -3.68995 3.45212 0
M  V30 1462 C 142.304 -3.51201 3.75716 0
M  V30 1463 N 140.286 -3.76725 4.84718 0
M  V30 1464 C 141.657 -3.65112 5.01092 0
M  V30 1465 C 143.712 -3.34507 3.68794 0
M  V30 1466 C 142.415 -3.64056 6.20368 0
M  V30 1467 C 144.441 -3.34752 4.8754 0
M  V30 1468 C 143.803 -3.49199 6.11751 0
M  V30 1469 H 139.902 -0.698579 0.351443 0
M  V30 1470 H 142.486 -1.37713 1.37634 0
M  V30 1471 H 140.657 -3.81402 0.73395 0
M  V30 1472 H 142.389 -3.93377 0.95062 0
M  V30 1473 H 139.144 -3.70006 2.95622 0
M  V30 1474 H 139.568 -3.8432 5.5734 0
M  V30 1475 H 144.21 -3.22253 2.73702 0
M  V30 1476 H 141.928 -3.75087 7.15776 0
M  V30 1477 H 145.514 -3.23055 4.83866 0
M  V30 1478 H 144.394 -3.49328 7.02097 0
M  V30 1479 N 141.898 -0.863906 -1.31812 0
M  V30 1480 C 143.138 -0.47825 -1.98726 0
M  V30 1481 C 143.502 0.950397 -1.66828 0
M  V30 1482 O 144.703 1.44109 -2.26905 0
M  V30 1483 C 142.974 -0.721134 -3.50049 0
M  V30 1484 S 144.533 -0.434432 -4.36644 0
M  V30 1485 H 141.351 -0.178773 -0.688158 0
M  V30 1486 H 143.953 -1.11862 -1.60334 0
M  V30 1487 H 142.657 -1.75981 -3.70755 0
M  V30 1488 H 142.188 -0.0675315 -3.93342 0
M  V30 1489 H 144.203 0.735786 -4.90714 0
M  V30 1490 O 143.415 1.42347 -0.762857 0
M  V30 1491 H 144.106 1.90974 -0.323817 0
M  V30 END ATOM
M  V30 BEGIN BOND
M  V30 END BOND
M  V30 END CTAB
M  END
$$$$
