drugbank_target|A2QLK4 1,3-beta-glucan synthase component FKS1 (DB00362; DB00520; DB01141)
 OpenBabel12092120573D

  0  0  0     0  0            999 V3000
M  V30 BEGIN CTAB
M  V30 COUNTS 30301 30729 0 0 0
M  V30 BEGIN ATOM
M  V30 1 H -0.908 1.98254 -0.117106 0
M  V30 2 N 0 1.576 0 0
M  V30 3 C 0.933 2.03868 1.02534 0
M  V30 4 C 1.911 0.928543 1.3348 0
M  V30 5 O 3.095 1.19667 1.45644 0
M  V30 6 C 0.222 2.43627 2.35294 0
M  V30 7 C -0.732 3.65373 2.2001 0
M  V30 8 S 0.101 5.13292 1.52614 0
M  V30 9 C 1.257 5.56322 2.86805 0
M  V30 10 H 1.49 2.90518 0.631377 0
M  V30 11 H -0.977 1.52953 0.210867 0
M  V30 12 H 0.981 2.67203 3.11629 0
M  V30 13 H -0.358 1.57376 2.7183 0
M  V30 14 H -1.165 3.90944 3.18086 0
M  V30 15 H -1.563 3.418 1.51819 0
M  V30 16 H 0.729 5.58782 3.83104 0
M  V30 17 H 1.672 6.56266 2.65933 0
M  V30 18 H 2.08 4.83886 2.90714 0
M  V30 19 N 1.4781 -0.272755 1.55222 0
M  V30 20 C 2.7031 -1.02683 1.80197 0
M  V30 21 C 3.1281 -1.79142 0.573551 0
M  V30 22 O 2.4861 -1.74917 -0.476849 0
M  V30 23 C 2.5341 -1.9609 3.02624 0
M  V30 24 O 1.6381 -3.04863 2.77727 0
M  V30 25 H 0.9791 -0.293557 0.595584 0
M  V30 26 H 3.5091 -0.30159 2.02365 0
M  V30 27 H 3.5191 -2.38039 3.31363 0
M  V30 28 H 2.1941 -1.39851 3.91682 0
M  V30 29 H 0.7711 -2.67228 2.60084 0
M  V30 30 N 2.9562 -1.48159 -0.537278 0
M  V30 31 C 4.2042 -1.55497 -1.29094 0
M  V30 32 C 4.5252 -0.227454 -1.93669 0
M  V30 33 O 3.7952 0.750386 -1.80959 0
M  V30 34 H 2.3752 -0.572832 -0.47945 0
M  V30 35 H 5.0372 -1.84579 -0.625818 0
M  V30 36 H 4.1332 -2.33216 -2.07405 0
M  V30 37 N 4.4343 0.785586 -1.36625 0
M  V30 38 C 5.6643 1.5722 -1.34036 0
M  V30 39 C 6.0723 1.89033 0.0795062 0
M  V30 40 O 5.4153 1.50881 1.04789 0
M  V30 41 C 5.4773 2.91759 -2.10041 0
M  V30 42 C 5.1413 2.82654 -3.59104 0
M  V30 43 C 6.1383 2.54634 -4.53274 0
M  V30 44 C 3.8233 3.01111 -4.02042 0
M  V30 45 C 5.8173 2.45177 -5.88359 0
M  V30 46 C 3.5043 2.91276 -5.37216 0
M  V30 47 C 4.5023 2.63348 -6.30188 0
M  V30 48 O 4.1903 2.53514 -7.6288 0
M  V30 49 H 3.9223 0.494177 -0.461265 0
M  V30 50 H 6.4763 0.982632 -1.8037 0
M  V30 51 H 4.7063 3.52781 -1.58375 0
M  V30 52 H 6.3953 3.53059 -2.00261 0
M  V30 53 H 7.1613 2.40073 -4.21414 0
M  V30 54 H 3.0403 3.21854 -3.30047 0
M  V30 55 H 6.5843 2.23299 -6.60896 0
M  V30 56 H 2.4813 3.054 -5.68684 0
M  V30 57 H 3.2493 2.68967 -7.73045 0
M  V30 58 N 5.9124 1.20967 1.01018 0
M  V30 59 C 7.3234 1.02319 1.56165 0
M  V30 60 C 7.6744 -0.418546 1.91684 0
M  V30 61 O 6.7994 -1.30096 1.72928 0
M  V30 62 C 7.3944 1.85109 2.8376 0
M  V30 63 C 5.9534 1.70809 3.35412 0
M  V30 64 C 5.1004 1.82643 2.08655 0
M  V30 65 H 8.0514 1.35065 0.833255 0
M  V30 66 H 8.0724 1.35827 3.55431 0
M  V30 67 H 7.5844 2.90035 2.57878 0
M  V30 68 H 5.6854 0.685464 3.66241 0
M  V30 69 H 5.7984 2.52467 4.07182 0
M  V30 70 H 4.1624 1.25896 2.21409 0
M  V30 71 H 4.9454 2.89066 1.85191 0
M  V30 72 N 7.3905 -1.2043 1.01659 0
M  V30 73 C 8.3535 -2.21433 0.591616 0
M  V30 74 C 9.3535 -1.57203 -0.338226 0
M  V30 75 O 10.5435 -1.73737 -0.126918 0
M  V30 76 C 7.6755 -3.40628 -0.136058 0
M  V30 77 H 8.8685 -2.60545 1.48514 0
M  V30 78 H 6.4215 -1.33893 0.806379 0
M  V30 79 H 7.1565 -3.07019 -1.04449 0
M  V30 80 H 6.9415 -3.88475 0.531917 0
M  V30 81 H 8.4315 -4.15475 -0.420735 0
M  V30 82 N 8.8686 -0.792821 -1.36206 0
M  V30 83 C 10.1166 -0.366062 -1.98757 0
M  V30 84 C 10.4376 1.0668 -1.63231 0
M  V30 85 O 9.7076 1.73587 -0.907978 0
M  V30 86 H 8.2876 -0.132364 -0.735179 0
M  V30 87 H 10.9496 -1.01562 -1.66347 0
M  V30 88 H 10.0456 -0.460638 -3.08682 0
M  V30 89 N 10.3467 1.47872 -0.545128 0
M  V30 90 C 11.2967 2.26842 0.229456 0
M  V30 91 C 12.2807 1.33626 0.896267 0
M  V30 92 O 13.4727 1.58063 0.79657 0
M  V30 93 C 10.6017 3.19089 1.26638 0
M  V30 94 C 9.6877 4.19783 0.603598 0
M  V30 95 N 10.0787 5.0479 -0.319405 0
M  V30 96 C 8.3767 4.3765 0.858989 0
M  V30 97 C 9.0777 5.77433 -0.703241 0
M  V30 98 N 8.0537 5.43566 -0.0608309 0
M  V30 99 H 11.8557 2.89947 -0.480391 0
M  V30 100 H 9.3697 1.58263 -0.364209 0
M  V30 101 H 11.3667 3.74337 1.83515 0
M  V30 102 H 10.0267 2.5754 1.97745 0
M  V30 103 H 11.0377 5.13244 -0.692889 0
M  V30 104 H 7.7147 3.87281 1.55948 0
M  V30 105 H 9.1047 6.55824 -1.46098 0
M  V30 106 N 11.8248 0.280983 1.55075 0
M  V30 107 C 13.0548 -0.336804 2.03836 0
M  V30 108 C 13.4628 -1.49577 1.15859 0
M  V30 109 O 12.8058 -1.82888 0.172503 0
M  V30 110 C 12.8678 -0.874616 3.48699 0
M  V30 111 C 12.5318 0.156478 4.56732 0
M  V30 112 C 13.5288 0.978032 5.10618 0
M  V30 113 C 11.2138 0.292409 5.01448 0
M  V30 114 C 13.2078 1.92165 6.07743 0
M  V30 115 C 10.8948 1.23949 5.98398 0
M  V30 116 C 11.8928 2.05261 6.51427 0
M  V30 117 O 11.5808 2.98367 7.4648 0
M  V30 118 H 11.3128 -0.0800885 0.671239 0
M  V30 119 H 13.8668 0.412589 2.01213 0
M  V30 120 H 12.0968 -1.67418 3.4858 0
M  V30 121 H 13.7858 -1.40612 3.80766 0
M  V30 122 H 14.5518 0.883782 4.7688 0
M  V30 123 H 10.4308 -0.330498 4.59814 0
M  V30 124 H 13.9748 2.55672 6.49059 0
M  V30 125 H 9.8718 1.33454 6.31554 0
M  V30 126 H 10.6398 2.93116 7.64215 0
M  V30 127 N 13.3029 -1.57598 0.00835791 0
M  V30 128 C 14.2129 -2.12385 -0.996487 0
M  V30 129 C 15.2289 -1.07108 -1.37127 0
M  V30 130 O 16.4049 -1.39055 -1.4569 0
M  V30 131 C 13.4699 -2.62314 -2.26699 0
M  V30 132 C 12.5309 -3.82225 -1.95456 0
M  V30 133 C 11.7639 -4.29763 -3.16449 0
M  V30 134 O 11.9869 -3.76584 -4.28416 0
M  V30 135 O 10.9209 -5.21832 -2.99958 0
M  V30 136 H 14.7469 -2.98479 -0.560725 0
M  V30 137 H 12.3319 -1.47903 -0.210987 0
M  V30 138 H 14.2139 -2.94589 -3.01322 0
M  V30 139 H 12.8889 -1.79313 -2.69497 0
M  V30 140 H 11.7959 -3.54909 -1.18282 0
M  V30 141 H 13.1289 -4.66324 -1.57489 0
M  V30 142 N 14.781 0.264519 -1.55364 0
M  V30 143 C 16.058 1.01677 -1.67096 0
M  V30 144 C 16.438 2.03996 -0.543015 0
M  V30 145 O 15.786 2.23907 0.45585 0
M  V30 146 C 15.996 1.66596 -3.0667 0
M  V30 147 C 17.344 2.17442 -3.64697 0
M  V30 148 O 18.368 1.76568 -3.09358 0
M  V30 149 O 17.227 2.92439 -4.61673 0
M  V30 150 H 14.321 0.472161 -0.678965 0
M  V30 151 H 16.867 0.259703 -1.67701 0
M  V30 152 H 15.639 0.924962 -3.80211 0
M  V30 153 H 15.262 2.48968 -3.10001 0
M  V30 154 N 16.2591 1.48442 0.529413 0
M  V30 155 C 17.5071 1.56179 1.28267 0
M  V30 156 C 17.8281 0.237721 1.93546 0
M  V30 157 O 17.0981 -0.740779 1.81354 0
M  V30 158 H 15.6781 0.575367 0.476405 0
M  V30 159 H 18.3401 1.84909 0.61602 0
M  V30 160 H 17.4361 2.34312 2.06165 0
M  V30 161 N 17.7372 -0.778329 1.37039 0
M  V30 162 C 18.9672 -1.56507 1.34868 0
M  V30 163 C 19.3752 -1.89072 -0.0694802 0
M  V30 164 O 18.7182 -1.51434 -1.03987 0
M  V30 165 C 18.7802 -2.90641 2.11585 0
M  V30 166 C 18.4442 -2.80746 3.60598 0
M  V30 167 C 19.4412 -2.52226 4.54618 0
M  V30 168 C 17.1262 -2.98974 4.03633 0
M  V30 169 C 19.1202 -2.42054 5.89651 0
M  V30 170 C 16.8072 -2.88423 5.38754 0
M  V30 171 C 17.8052 -2.60002 6.31576 0
M  V30 172 O 17.4932 -2.49465 7.64214 0
M  V30 173 H 17.2252 -0.491723 0.463879 0
M  V30 174 H 19.7792 -0.973053 1.80889 0
M  V30 175 H 18.0092 -3.51936 1.60243 0
M  V30 176 H 19.6982 -3.51992 2.0213 0
M  V30 177 H 20.4642 -2.37835 4.22681 0
M  V30 178 H 16.3432 -3.20099 3.31749 0
M  V30 179 H 19.8872 -2.19791 6.62071 0
M  V30 180 H 15.7842 -3.0238 5.70295 0
M  V30 181 H 16.5522 -2.64864 7.74461 0
M  V30 182 N 19.2153 -1.21501 -1.00376 0
M  V30 183 C 20.4633 -1.03095 -1.73827 0
M  V30 184 C 20.7843 0.436341 -1.90055 0
M  V30 185 O 20.0543 1.31466 -1.45236 0
M  V30 186 H 18.6343 -0.378487 -0.644016 0
M  V30 187 H 21.2963 -1.52831 -1.20949 0
M  V30 188 H 20.3923 -1.49991 -2.73695 0
M  V30 189 N 20.6934 1.19889 -1.02296 0
M  V30 190 C 21.6434 2.20777 -0.56934 0
M  V30 191 C 22.6274 1.56379 0.378741 0
M  V30 192 O 23.8194 1.75859 0.200673 0
M  V30 193 C 20.9484 3.43196 0.0845077 0
M  V30 194 C 20.0344 4.14749 -0.88566 0
M  V30 195 N 20.4254 4.62584 -2.04573 0
M  V30 196 C 18.7234 4.40347 -0.707835 0
M  V30 197 C 19.4244 5.17466 -2.65714 0
M  V30 198 N 18.4004 5.0791 -1.93723 0
M  V30 199 H 22.2024 2.55434 -1.45365 0
M  V30 200 H 19.7164 1.35897 -0.88915 0
M  V30 201 H 21.7134 4.14707 0.427067 0
M  V30 202 H 20.3734 3.10042 0.964574 0
M  V30 203 H 21.3844 4.57597 -2.4254 0
M  V30 204 H 18.0614 4.17317 0.12364 0
M  V30 205 H 19.4514 5.64808 -3.63925 0
M  V30 206 N 22.1715 0.800033 1.35784 0
M  V30 207 C 23.1035 0.163596 2.28615 0
M  V30 208 C 24.1165 -0.633317 1.49976 0
M  V30 209 O 25.3055 -0.466754 1.72289 0
M  V30 210 C 22.4055 -0.790958 3.29541 0
M  V30 211 C 21.5785 -0.0418255 4.3738 0
M  V30 212 C 20.6375 -0.91389 5.18203 0
M  V30 213 O 19.6635 -0.367234 5.68014 0
M  V30 214 N 20.8655 -2.23682 5.35674 0
M  V30 215 H 23.6305 0.96105 2.83873 0
M  V30 216 H 21.1915 0.654894 1.48063 0
M  V30 217 H 23.1835 -1.37844 3.80501 0
M  V30 218 H 21.7535 -1.48925 2.74846 0
M  V30 219 H 20.9735 0.726813 3.87442 0
M  V30 220 H 22.2615 0.474719 5.06581 0
M  V30 221 H 21.6595 -2.70497 4.96838 0
M  V30 222 H 20.2165 -2.77369 5.89839 0
M  V30 223 N 23.6496 -1.47581 0.552962 0
M  V30 224 C 24.5596 -2.33743 -0.200353 0
M  V30 225 C 25.5756 -1.47928 -0.916151 0
M  V30 226 O 26.7516 -1.80865 -0.885993 0
M  V30 227 C 23.8166 -3.24536 -1.21973 0
M  V30 228 C 22.8776 -4.26238 -0.511819 0
M  V30 229 C 22.1106 -5.12693 -1.48263 0
M  V30 230 O 22.3336 -5.01525 -2.71714 0
M  V30 231 O 21.2676 -5.93375 -1.00945 0
M  V30 232 H 25.0936 -2.9945 0.506304 0
M  V30 233 H 22.6786 -1.46071 0.313622 0
M  V30 234 H 24.5606 -3.80631 -1.80827 0
M  V30 235 H 23.2356 -2.61462 -1.90839 0
M  V30 236 H 22.1426 -3.73914 0.117799 0
M  V30 237 H 23.4756 -4.92014 0.135308 0
M  V30 238 N 25.1277 -0.289203 -1.54924 0
M  V30 239 C 26.0777 0.606939 -2.19773 0
M  V30 240 C 27.0617 1.10783 -1.16687 0
M  V30 241 O 28.2537 1.05057 -1.4245 0
M  V30 242 C 25.3827 1.78398 -2.93307 0
M  V30 243 C 24.4687 1.29961 -4.03697 0
M  V30 244 N 24.8597 0.532377 -5.0299 0
M  V30 245 C 23.1577 1.58136 -4.17024 0
M  V30 246 C 23.8587 0.275912 -5.81045 0
M  V30 247 N 22.8347 0.852365 -5.36876 0
M  V30 248 H 26.6367 0.0130779 -2.93897 0
M  V30 249 H 24.1507 -0.09341 -1.62131 0
M  V30 250 H 26.1477 2.43741 -3.38225 0
M  V30 251 H 24.8077 2.38166 -2.20697 0
M  V30 252 H 25.8187 0.17838 -5.17593 0
M  V30 253 H 22.4957 2.18738 -3.55612 0
M  V30 254 H 23.8857 -0.339502 -6.71042 0
M  V30 255 N 26.6058 1.57591 -0.0167156 0
M  V30 256 C 27.8538 1.90906 0.663285 0
M  V30 257 C 28.1748 0.892509 1.73376 0
M  V30 258 O 27.4448 -0.0677623 1.95783 0
M  V30 259 H 26.0248 0.704637 0.247983 0
M  V30 260 H 28.6868 1.94803 -0.0615909 0
M  V30 261 H 27.7828 2.9116 1.12393 0
M  V30 262 N 28.0839 -0.256276 1.55502 0
M  V30 263 C 29.3319 -0.983672 1.76545 0
M  V30 264 C 29.6529 -1.86206 0.578982 0
M  V30 265 O 28.9229 -1.91656 -0.405577 0
M  V30 266 H 27.5029 -0.366191 0.651086 0
M  V30 267 H 30.1649 -0.276479 1.92929 0
M  V30 268 H 29.2609 -1.61087 2.67315 0
M  V30 269 N 29.562 -1.4872 -0.521534 0
M  V30 270 C 30.839 -1.4766 -1.2828 0
M  V30 271 C 31.219 -0.19292 -2.10217 0
M  V30 272 O 30.567 0.825193 -2.13079 0
M  V30 273 C 30.777 -2.74358 -2.15705 0
M  V30 274 C 32.125 -3.23028 -2.75569 0
M  V30 275 O 33.149 -2.75333 -2.25987 0
M  V30 276 O 32.008 -4.0604 -3.65778 0
M  V30 277 H 29.102 -0.590085 -0.579421 0
M  V30 278 H 31.648 -1.60963 -0.537492 0
M  V30 279 H 30.42 -3.59292 -1.54999 0
M  V30 280 H 30.043 -2.63816 -2.97467 0
M  V30 281 N 31.0401 0.771051 -1.3745 0
M  V30 282 C 32.0031 1.86598 -1.33093 0
M  V30 283 C 33.0031 1.59076 -0.234845 0
M  V30 284 O 34.1931 1.67145 -0.490732 0
M  V30 285 C 31.3251 3.23747 -1.06773 0
M  V30 286 H 32.5181 1.91873 -2.30488 0
M  V30 287 H 30.0711 0.970876 -1.2249 0
M  V30 288 H 30.8061 3.24148 -0.099129 0
M  V30 289 H 30.5911 3.45115 -1.86112 0
M  V30 290 H 32.0811 4.03824 -1.06377 0
M  V30 291 N 32.5182 1.22032 0.997298 0
M  V30 292 C 33.7482 1.06686 1.76923 0
M  V30 293 C 34.1562 -0.385838 1.85224 0
M  V30 294 O 33.4992 -1.27929 1.31833 0
M  V30 295 C 33.5612 1.59802 3.22031 0
M  V30 296 C 33.2252 3.08362 3.37286 0
M  V30 297 C 34.2222 4.05835 3.24952 0
M  V30 298 C 31.9072 3.47727 3.6248 0
M  V30 299 C 33.9012 5.4066 3.37588 0
M  V30 300 C 31.5882 4.82701 3.74757 0
M  V30 301 C 32.5862 5.78977 3.62319 0
M  V30 302 O 32.2742 7.11502 3.74193 0
M  V30 303 H 32.0062 0.374767 0.562606 0
M  V30 304 H 34.5602 1.61991 1.26286 0
M  V30 305 H 32.7902 0.989003 3.73839 0
M  V30 306 H 34.4792 1.40184 3.80924 0
M  V30 307 H 35.2452 3.76766 3.05405 0
M  V30 308 H 31.1242 2.73317 3.7124 0
M  V30 309 H 34.6682 6.15788 3.27796 0
M  V30 310 H 30.5652 5.11453 3.9381 0
M  V30 311 H 31.3332 7.19019 3.91093 0
M  V30 312 N 33.9963 -1.19345 1.0293 0
M  V30 313 C 35.2263 -1.92717 0.744563 0
M  V30 314 C 35.6343 -1.75751 -0.700579 0
M  V30 315 O 34.9773 -1.07703 -1.48815 0
M  V30 316 C 35.0393 -3.44828 1.01657 0
M  V30 317 C 34.7033 -3.85564 2.45335 0
M  V30 318 C 35.7003 -3.90286 3.43472 0
M  V30 319 C 33.3853 -4.1719 2.79746 0
M  V30 320 C 35.3793 -4.26065 4.74075 0
M  V30 321 C 33.0663 -4.52642 4.10559 0
M  V30 322 C 34.0643 -4.57054 5.07534 0
M  V30 323 O 33.7523 -4.91685 6.36004 0
M  V30 324 H 33.4843 -0.618977 0.271742 0
M  V30 325 H 36.0383 -1.52415 1.37691 0
M  V30 326 H 34.2683 -3.85314 0.327084 0
M  V30 327 H 35.9573 -3.99437 0.721427 0
M  V30 328 H 36.7233 -3.66002 3.18225 0
M  V30 329 H 32.6023 -4.1294 2.04943 0
M  V30 330 H 36.1463 -4.29423 5.49765 0
M  V30 331 H 32.0433 -4.76383 4.35579 0
M  V30 332 H 32.8113 -5.09631 6.40483 0
M  V30 333 N 35.4744 -0.807222 -1.35358 0
M  V30 334 C 36.4064 -0.175717 -2.28525 0
M  V30 335 C 37.4194 0.625354 -1.5031 0
M  V30 336 O 38.6084 0.457611 -1.72535 0
M  V30 337 C 35.7084 0.773471 -3.29956 0
M  V30 338 C 34.8814 0.0186296 -4.37396 0
M  V30 339 C 33.9404 0.886395 -5.18681 0
M  V30 340 O 32.9664 0.337106 -5.68201 0
M  V30 341 N 34.1684 2.20839 -5.36852 0
M  V30 342 H 36.9334 -0.976091 -2.83359 0
M  V30 343 H 34.4944 -0.662737 -1.47714 0
M  V30 344 H 36.4864 1.35824 -3.81227 0
M  V30 345 H 35.0564 1.47465 -2.75632 0
M  V30 346 H 34.2764 -0.747349 -3.87051 0
M  V30 347 H 35.5644 -0.501577 -5.06322 0
M  V30 348 H 34.9624 2.67858 -4.98265 0
M  V30 349 H 33.5194 2.74237 -5.91301 0
M  V30 350 N 36.9525 1.47285 -0.560781 0
M  V30 351 C 38.2295 1.9558 0.0277798 0
M  V30 352 C 38.6095 1.5034 1.48192 0
M  V30 353 O 37.9575 0.743882 2.16052 0
M  V30 354 C 38.1675 3.48789 -0.121418 0
M  V30 355 C 39.5155 4.24594 0.0220912 0
M  V30 356 O 40.5395 3.56166 -0.0491439 0
M  V30 357 O 39.3985 5.46217 0.175958 0
M  V30 358 H 36.4925 0.824663 0.0621342 0
M  V30 359 H 39.0385 1.5767 -0.627556 0
M  V30 360 H 37.8105 3.74533 -1.13316 0
M  V30 361 H 37.4335 3.93473 0.571366 0
M  V30 362 N 38.4306 0.297415 1.54768 0
M  V30 363 C 39.3406 -0.58983 2.27064 0
M  V30 364 C 40.3566 -1.15144 1.30453 0
M  V30 365 O 41.5326 -1.17699 1.63428 0
M  V30 366 C 38.5976 -1.74714 2.9946 0
M  V30 367 C 37.6586 -1.21997 4.11601 0
M  V30 368 C 36.8916 -2.32212 4.80535 0
M  V30 369 O 37.1146 -3.52036 4.48806 0
M  V30 370 O 36.0486 -1.99106 5.68014 0
M  V30 371 H 39.8746 -0.00348199 3.037 0
M  V30 372 H 37.4596 0.0640035 1.49263 0
M  V30 373 H 39.3416 -2.42147 3.44881 0
M  V30 374 H 38.0166 -2.32016 2.25722 0
M  V30 375 H 36.9236 -0.511458 3.70587 0
M  V30 376 H 38.2566 -0.692419 4.87305 0
M  V30 377 N 39.9087 -1.5758 0.0250728 0
M  V30 378 C 40.8587 -2.06468 -0.967201 0
M  V30 379 C 41.8427 -0.964376 -1.28797 0
M  V30 380 O 43.0347 -1.22797 -1.27475 0
M  V30 381 C 40.1637 -2.59203 -2.25097 0
M  V30 382 C 39.2497 -3.76157 -1.95874 0
M  V30 383 N 39.6407 -4.86919 -1.36905 0
M  V30 384 C 37.9387 -3.84566 -2.25887 0
M  V30 385 C 38.6397 -5.68172 -1.24724 0
M  V30 386 N 37.6157 -5.14953 -1.74138 0
M  V30 387 H 41.4177 -2.89508 -0.506176 0
M  V30 388 H 38.9317 -1.61399 -0.18004 0
M  V30 389 H 40.9287 -2.92517 -2.97052 0
M  V30 390 H 39.5887 -1.77592 -2.71829 0
M  V30 391 H 40.5997 -5.07256 -1.04459 0
M  V30 392 H 37.2767 -3.13854 -2.75321 0
M  V30 393 H 38.6667 -6.67221 -0.791605 0
M  V30 394 N 41.3868 0.248026 -1.55636 0
M  V30 395 C 42.6348 0.974295 -1.77065 0
M  V30 396 C 42.9558 1.85897 -0.588849 0
M  V30 397 O 42.2258 1.91868 0.395407 0
M  V30 398 H 40.8058 0.362733 -0.653019 0
M  V30 399 H 43.4678 0.266244 -1.93073 0
M  V30 400 H 42.5638 1.59667 -2.68166 0
M  V30 401 N 42.8649 1.48995 0.513639 0
M  V30 402 C 43.7969 1.60836 1.63293 0
M  V30 403 C 44.8099 0.491701 1.55197 0
M  V30 404 O 45.9989 0.763238 1.6136 0
M  V30 405 C 43.0989 1.53731 3.02027 0
M  V30 406 C 42.2719 2.80715 3.35437 0
M  V30 407 C 41.3309 2.66837 4.53525 0
M  V30 408 O 40.3569 3.40753 4.55934 0
M  V30 409 N 41.5589 1.77539 5.52684 0
M  V30 410 H 44.3239 2.57366 1.53566 0
M  V30 411 H 41.8849 1.45925 0.701259 0
M  V30 412 H 43.8769 1.42118 3.78926 0
M  V30 413 H 42.4469 0.651092 3.05744 0
M  V30 414 H 41.6669 3.06772 2.47557 0
M  V30 415 H 42.9549 3.64927 3.54551 0
M  V30 416 H 42.3529 1.16719 5.53528 0
M  V30 417 H 40.9099 1.71856 6.28736 0
M  V30 418 N 44.343 -0.763751 1.37857 0
M  V30 419 C 45.306 -1.85889 1.34081 0
M  V30 420 C 46.306 -1.58949 0.243277 0
M  V30 421 O 47.496 -1.66882 0.499589 0
M  V30 422 C 44.628 -3.23176 1.08489 0
M  V30 423 H 45.821 -1.90648 2.31502 0
M  V30 424 H 43.374 -0.964367 1.23003 0
M  V30 425 H 44.109 -3.24091 0.116318 0
M  V30 426 H 43.894 -3.44124 1.8794 0
M  V30 427 H 45.384 -4.03254 1.08517 0
M  V30 428 N 45.8211 -1.22559 -0.990812 0
M  V30 429 C 47.0511 -1.07623 -1.76355 0
M  V30 430 C 47.4591 0.37601 -1.85426 0
M  V30 431 O 46.8021 1.27228 -1.32509 0
M  V30 432 C 46.8641 -1.61507 -3.21179 0
M  V30 433 C 46.5281 -3.10146 -3.35646 0
M  V30 434 C 47.5251 -4.07553 -3.22796 0
M  V30 435 C 45.2101 -3.49644 -3.60631 0
M  V30 436 C 47.2041 -5.42442 -3.34716 0
M  V30 437 C 44.8911 -4.84682 -3.72192 0
M  V30 438 C 45.8891 -5.8089 -3.59243 0
M  V30 439 O 45.5771 -7.13476 -3.70415 0
M  V30 440 H 45.3091 -0.377745 -0.560611 0
M  V30 441 H 47.8631 -1.62658 -1.25425 0
M  V30 442 H 46.0931 -1.00881 -3.73309 0
M  V30 443 H 47.7821 -1.42202 -3.80175 0
M  V30 444 H 48.5481 -3.78381 -3.03403 0
M  V30 445 H 44.4271 -2.75282 -3.69785 0
M  V30 446 H 47.9711 -6.17518 -3.24526 0
M  V30 447 H 43.8681 -5.13534 -3.91092 0
M  V30 448 H 44.6361 -7.21083 -3.87275 0
M  V30 449 N 47.2992 1.18797 -1.03562 0
M  V30 450 C 48.5292 1.92319 -0.754773 0
M  V30 451 C 48.9372 1.7612 0.691248 0
M  V30 452 O 48.2802 1.08491 1.48241 0
M  V30 453 C 48.3422 3.44284 -1.03484 0
M  V30 454 C 48.0062 3.84258 -2.47376 0
M  V30 455 C 49.0032 3.88459 -3.45537 0
M  V30 456 C 46.6882 4.15701 -2.81954 0
M  V30 457 C 48.6822 4.23545 -4.76328 0
M  V30 458 C 46.3692 4.50458 -4.12954 0
M  V30 459 C 47.3672 4.54356 -5.09951 0
M  V30 460 O 47.0552 4.88305 -6.38603 0
M  V30 461 H 46.7872 0.617527 -0.275021 0
M  V30 462 H 49.3412 1.51683 -1.38497 0
M  V30 463 H 47.5712 3.85135 -0.347513 0
M  V30 464 H 49.2602 3.99049 -0.7426 0
M  V30 465 H 50.0262 3.6431 -3.20162 0
M  V30 466 H 45.9052 4.11847 -2.0713 0
M  V30 467 H 49.4492 4.26502 -5.52035 0
M  V30 468 H 45.3462 4.74067 -4.38099 0
M  V30 469 H 46.1142 5.06227 -6.43177 0
M  V30 470 N 48.7773 0.814389 1.34928 0
M  V30 471 C 50.0543 0.321363 1.92942 0
M  V30 472 C 50.4343 -1.19014 1.74353 0
M  V30 473 O 49.7823 -1.99328 1.11716 0
M  V30 474 C 49.9923 0.741323 3.41036 0
M  V30 475 C 51.3403 0.735266 4.18185 0
M  V30 476 O 52.3643 0.68336 3.49584 0
M  V30 477 O 51.2233 0.800703 5.40602 0
M  V30 478 H 48.3173 0.0858893 0.822528 0
M  V30 479 H 50.8633 0.898609 1.43955 0
M  V30 480 H 49.6353 1.78276 3.4833 0
M  V30 481 H 49.2583 0.139307 3.97356 0
M  V30 482 N 50.2554 -1.46986 0.568584 0
M  V30 483 C 51.6664 -1.86188 0.138219 0
M  V30 484 C 52.0174 -1.47388 -1.29504 0
M  V30 485 O 51.1424 -0.88219 -1.97602 0
M  V30 486 C 51.7374 -3.3792 0.244065 0
M  V30 487 C 50.2964 -3.76171 -0.131335 0
M  V30 488 C 49.4434 -2.71027 0.586465 0
M  V30 489 H 52.3944 -1.38342 0.777645 0
M  V30 490 H 52.4154 -3.76729 -0.534351 0
M  V30 491 H 51.9274 -3.66128 1.28731 0
M  V30 492 H 50.0284 -3.5358 -1.17526 0
M  V30 493 H 50.1414 -4.78523 0.235146 0
M  V30 494 H 48.5054 -2.54684 0.0282722 0
M  V30 495 H 49.2884 -3.02077 1.63109 0
M  V30 496 N 51.7335 -0.305618 -1.54608 0
M  V30 497 C 52.6815 0.584119 -2.25146 0
M  V30 498 C 53.6755 1.13326 -1.25911 0
M  V30 499 O 54.8815 1.08337 -1.43747 0
M  V30 500 H 51.2565 0.206983 -0.722954 0
M  V30 501 H 53.2275 -0.033291 -2.98381 0
M  V30 502 C 51.9765 1.74225 -3.009 0
M  V30 503 H 51.2995 1.32892 -3.77067 0
M  V30 504 H 52.7395 2.34077 -3.53531 0
M  V30 505 C 51.1985 2.64914 -2.0814 0
M  V30 506 O 51.7285 3.66137 -1.65246 0
M  V30 507 N 49.9345 2.3275 -1.74 0
M  V30 508 H 49.4815 1.50479 -2.09078 0
M  V30 509 H 49.4395 2.93694 -1.12211 0
M  V30 510 N 53.2116 1.57565 -0.0334293 0
M  V30 511 C 54.4886 1.83282 0.683163 0
M  V30 512 C 54.8686 0.91823 1.90084 0
M  V30 513 O 54.2166 -0.025113 2.28486 0
M  V30 514 C 54.4266 3.32599 1.0573 0
M  V30 515 C 55.7746 3.99179 1.44711 0
M  V30 516 O 56.7986 3.3712 1.15015 0
M  V30 517 O 55.6576 5.08565 2.0006 0
M  V30 518 H 52.7516 0.755869 0.335546 0
M  V30 519 H 55.2976 1.69589 -0.0614402 0
M  V30 520 H 54.0696 3.90834 0.190828 0
M  V30 521 H 53.6926 3.51415 1.85993 0
M  V30 522 N 54.6897 -0.239769 1.55765 0
M  V30 523 C 55.9197 -0.982743 1.8173 0
M  V30 524 C 56.3277 -1.7917 0.607835 0
M  V30 525 O 55.6707 -1.78525 -0.432973 0
M  V30 526 C 55.7327 -1.96332 3.01155 0
M  V30 527 C 55.3967 -1.34062 4.36894 0
M  V30 528 C 56.3937 -0.739539 5.14613 0
M  V30 529 C 54.0787 -1.35784 4.83599 0
M  V30 530 C 56.0727 -0.163989 6.37189 0
M  V30 531 C 53.7597 -0.778441 6.06122 0
M  V30 532 C 54.7577 -0.182548 6.82756 0
M  V30 533 O 54.4457 0.387887 8.02964 0
M  V30 534 H 54.1777 -0.294481 0.608487 0
M  V30 535 H 56.7317 -0.26572 2.03674 0
M  V30 536 H 54.9617 -2.71884 2.74984 0
M  V30 537 H 56.6507 -2.57032 3.14149 0
M  V30 538 H 57.4167 -0.718687 4.79646 0
M  V30 539 H 53.2957 -1.81105 4.23936 0
M  V30 540 H 56.8397 0.301753 6.96947 0
M  V30 541 H 52.7367 -0.796645 6.40565 0
M  V30 542 H 53.5047 0.28044 8.18019 0
M  V30 543 N 56.1678 -1.49265 -0.50573 0
M  V30 544 C 57.4158 -1.582 -1.25766 0
M  V30 545 C 57.7368 -0.268482 -1.93143 0
M  V30 546 O 57.0068 0.711833 -1.8251 0
M  V30 547 H 55.5868 -0.582873 -0.467191 0
M  V30 548 H 58.2488 -1.85865 -0.586525 0
M  V30 549 H 57.3448 -2.37563 -2.02412 0
M  V30 550 N 57.6459 0.756429 -1.3826 0
M  V30 551 C 58.9229 1.50584 -1.24835 0
M  V30 552 C 59.3029 2.10556 0.151485 0
M  V30 553 O 58.6509 1.96825 1.1607 0
M  V30 554 C 58.8609 2.57448 -2.3563 0
M  V30 555 C 60.2089 3.24429 -2.73917 0
M  V30 556 O 61.2329 2.67751 -2.34921 0
M  V30 557 O 60.0919 4.26937 -3.41156 0
M  V30 558 H 57.1859 0.667664 -0.48801 0
M  V30 559 H 59.7319 0.792083 -1.5008 0
M  V30 560 H 58.5039 2.11362 -3.29305 0
M  V30 561 H 58.1269 3.36408 -2.11933 0
M  V30 562 N 59.124 1.23083 0.984299 0
M  V30 563 C 60.349 1.088 1.76571 0
M  V30 564 C 60.774 -0.356657 1.84688 0
M  V30 565 O 60.132 -1.25788 1.30565 0
M  V30 566 C 60.18 1.71371 3.17277 0
M  V30 567 O 59.284 0.973213 4.00752 0
M  V30 568 H 58.625 0.381599 0.543395 0
M  V30 569 H 61.155 1.63057 1.23587 0
M  V30 570 H 61.165 1.76449 3.67872 0
M  V30 571 H 59.84 2.76493 3.10684 0
M  V30 572 H 58.417 0.999078 3.59267 0
M  V30 573 N 60.6021 -1.18246 1.0419 0
M  V30 574 C 61.8321 -1.91916 0.764961 0
M  V30 575 C 62.2401 -1.76485 -0.681898 0
M  V30 576 O 61.5831 -1.09275 -1.47664 0
M  V30 577 C 61.6451 -3.4373 1.05309 0
M  V30 578 C 61.3091 -3.8294 2.4941 0
M  V30 579 C 62.3061 -3.86621 3.47592 0
M  V30 580 C 59.9911 -4.142 2.84155 0
M  V30 581 C 61.9851 -4.21013 4.78568 0
M  V30 582 C 59.6721 -4.48262 4.15337 0
M  V30 583 C 60.6701 -4.51645 5.12353 0
M  V30 584 O 60.3581 -4.84911 6.41183 0
M  V30 585 H 60.0901 -0.61606 0.278292 0
M  V30 586 H 62.6441 -1.50947 1.39299 0
M  V30 587 H 60.8741 -3.84946 0.367933 0
M  V30 588 H 62.5631 -3.9865 0.763752 0
M  V30 589 H 63.3291 -3.62607 3.22089 0
M  V30 590 H 59.2081 -4.10743 2.09311 0
M  V30 591 H 62.7521 -4.23568 5.54289 0
M  V30 592 H 58.6491 -4.71737 4.40607 0
M  V30 593 H 59.4171 -5.02809 6.45852 0
M  V30 594 N 62.0802 -0.821533 -1.34494 0
M  V30 595 C 63.3102 -0.421272 -2.02259 0
M  V30 596 C 63.7182 0.977047 -1.6202 0
M  V30 597 O 63.0612 1.64348 -0.820703 0
M  V30 598 C 63.1232 -0.44231 -3.56769 0
M  V30 599 C 62.7872 -1.79372 -4.20327 0
M  V30 600 C 63.7842 -2.75435 -4.40944 0
M  V30 601 C 61.4692 -2.08182 -4.57127 0
M  V30 602 C 63.4632 -3.98482 -4.97484 0
M  V30 603 C 61.1502 -3.31489 -5.13379 0
M  V30 604 C 62.1482 -4.26457 -5.33501 0
M  V30 605 O 61.8362 -5.47585 -5.88562 0
M  V30 606 H 61.5682 -0.167473 -0.654927 0
M  V30 607 H 64.1222 -1.11073 -1.72777 0
M  V30 608 H 62.3522 0.303836 -3.85505 0
M  V30 609 H 64.0412 -0.0622925 -4.05852 0
M  V30 610 H 64.8072 -2.54473 -4.12878 0
M  V30 611 H 60.6862 -1.35066 -4.4077 0
M  V30 612 H 64.2302 -4.72618 -5.13106 0
M  V30 613 H 60.1272 -3.52316 -5.40873 0
M  V30 614 H 60.8952 -5.49086 -6.06998 0
M  V30 615 N 63.5583 1.46682 -0.576371 0
M  V30 616 C 64.8353 1.95599 0.00703437 0
M  V30 617 C 65.2153 1.51904 1.46589 0
M  V30 618 O 64.5633 0.766755 2.15251 0
M  V30 619 C 64.7733 3.4864 -0.158404 0
M  V30 620 C 66.1213 4.24594 -0.0229439 0
M  V30 621 O 67.1453 3.56094 -0.0869173 0
M  V30 622 O 66.0043 5.46373 0.118015 0
M  V30 623 H 63.0983 0.825275 0.053384 0
M  V30 624 H 65.6443 1.56996 -0.644244 0
M  V30 625 H 64.4163 3.7331 -1.17282 0
M  V30 626 H 64.0393 3.94057 0.5296 0
M  V30 627 N 65.0364 0.313813 1.54444 0
M  V30 628 C 66.4524 -0.0391619 1.59552 0
M  V30 629 C 66.6524 -1.51322 1.33056 0
M  V30 630 O 65.7084 -2.26782 1.11022 0
M  V30 631 C 67.0214 0.370302 2.98411 0
M  V30 632 C 68.5694 0.320139 3.11358 0
M  V30 633 C 69.0444 0.704617 4.52547 0
M  V30 634 N 70.5354 0.657645 4.58508 0
M  V30 635 C 71.2704 0.927453 5.6585 0
M  V30 636 N 70.7664 1.26389 6.81174 0
M  V30 637 N 72.5594 0.853662 5.5558 0
M  V30 638 H 64.7104 1.27433 1.69925 0
M  V30 639 H 66.9734 0.517511 0.794284 0
M  V30 640 H 66.6794 1.39694 3.22767 0
M  V30 641 H 66.5534 -0.269619 3.76235 0
M  V30 642 H 68.9404 -0.697275 2.86744 0
M  V30 643 H 69.0214 0.99486 2.35661 0
M  V30 644 H 68.6654 1.7199 4.77893 0
M  V30 645 H 68.5954 0.00768843 5.26599 0
M  V30 646 H 71.0864 0.409067 3.75679 0
M  V30 647 H 71.3994 1.4554 7.58972 0
M  V30 648 H 69.7444 1.30206 6.82694 0
M  V30 649 H 72.9354 0.590383 4.64362 0
M  V30 650 H 73.1084 1.0673 6.3915 0
M  V30 651 N 66.5145 -1.57545 0.0417849 0
M  V30 652 C 67.7625 -1.91937 -0.632829 0
M  V30 653 C 68.0835 -0.919978 -1.71934 0
M  V30 654 O 67.3535 0.0366064 -1.95866 0
M  V30 655 H 65.9335 -0.708493 -0.236742 0
M  V30 656 H 68.5955 -1.9468 0.0925745 0
M  V30 657 H 67.6915 -2.92912 -1.07746 0
M  V30 658 N 67.9926 0.231505 -1.5589 0
M  V30 659 C 68.9406 1.30649 -1.92441 0
M  V30 660 C 69.9346 1.49037 -0.805254 0
M  V30 661 O 71.1406 1.50329 -0.990007 0
M  V30 662 H 67.5156 0.437812 -0.611412 0
M  V30 663 H 69.4866 0.970973 -2.82161 0
M  V30 664 C 68.2356 2.65179 -2.24889 0
M  V30 665 H 67.5586 2.51835 -3.10514 0
M  V30 666 H 68.9986 3.39234 -2.54355 0
M  V30 667 C 67.4576 3.19439 -1.07054 0
M  V30 668 O 67.9876 4.00371 -0.326499 0
M  V30 669 N 66.1936 2.77675 -0.85703 0
M  V30 670 H 65.7406 2.11969 -1.46379 0
M  V30 671 H 65.6986 3.14321 -0.0703223 0
M  V30 672 N 69.4707 1.49531 0.497807 0
M  V30 673 C 70.7007 1.62657 1.27382 0
M  V30 674 C 71.1087 0.298488 1.86831 0
M  V30 675 O 70.4517 -0.72647 1.68725 0
M  V30 676 C 70.5137 2.6393 2.44093 0
M  V30 677 C 70.1777 4.08195 2.05489 0
M  V30 678 C 71.1747 4.949 1.59279 0
M  V30 679 C 68.8597 4.53948 2.15026 0
M  V30 680 C 70.8537 6.25397 1.23113 0
M  V30 681 C 68.5407 5.84458 1.78473 0
M  V30 682 C 69.5387 6.70006 1.32591 0
M  V30 683 O 69.2267 7.98083 0.965327 0
M  V30 684 H 68.9587 0.550429 0.392434 0
M  V30 685 H 71.5127 1.96325 0.603801 0
M  V30 686 H 69.7427 2.25449 3.14181 0
M  V30 687 H 71.4317 2.66552 3.06113 0
M  V30 688 H 72.1977 4.60779 1.51354 0
M  V30 689 H 68.0767 3.87525 2.4969 0
M  V30 690 H 71.6207 6.92125 0.872299 0
M  V30 691 H 67.5177 6.18107 1.86048 0
M  V30 692 H 68.2857 8.11122 1.09652 0
M  V30 693 N 70.9488 -0.749086 1.3866 0
M  V30 694 C 72.1788 -1.53611 1.38157 0
M  V30 695 C 72.5868 -1.89177 -0.0293595 0
M  V30 696 O 71.9298 -1.53606 -1.00752 0
M  V30 697 C 71.9918 -2.86087 2.17702 0
M  V30 698 C 71.6558 -2.73034 3.66472 0
M  V30 699 C 72.6528 -2.42526 4.59866 0
M  V30 700 C 70.3378 -2.90345 4.09884 0
M  V30 701 C 72.3318 -2.29492 5.94653 0
M  V30 702 C 70.0188 -2.7693 5.4475 0
M  V30 703 C 71.0168 -2.46547 6.36949 0
M  V30 704 O 70.7048 -2.33199 7.69333 0
M  V30 705 H 70.4368 -0.481773 0.474205 0
M  V30 706 H 72.9908 -0.934465 1.82912 0
M  V30 707 H 71.2208 -3.48458 1.67672 0
M  V30 708 H 72.9098 -3.47625 2.09551 0
M  V30 709 H 73.6758 -2.28816 4.27631 0
M  V30 710 H 69.5548 -3.1299 3.38464 0
M  V30 711 H 73.0988 -2.05698 6.66584 0
M  V30 712 H 68.9958 -2.90215 5.76581 0
M  V30 713 H 69.7638 -2.48376 7.79905 0
M  V30 714 N 72.4269 -1.23603 -0.977757 0
M  V30 715 C 73.3749 -1.01704 -2.09187 0
M  V30 716 C 74.3689 0.0448214 -1.69341 0
M  V30 717 O 75.5749 -0.108902 -1.7967 0
M  V30 718 H 71.9499 -0.311803 -0.684312 0
M  V30 719 H 73.9209 -1.96207 -2.24823 0
M  V30 720 C 72.6699 -0.627746 -3.41986 0
M  V30 721 H 71.9929 -1.43656 -3.73099 0
M  V30 722 H 73.4329 -0.514053 -4.20872 0
M  V30 723 C 71.8919 0.664238 -3.30287 0
M  V30 724 O 72.4219 1.71268 -3.6336 0
M  V30 725 N 70.6279 0.641156 -2.83439 0
M  V30 726 H 70.1749 -0.212376 -2.56723 0
M  V30 727 H 70.1329 1.50583 -2.75993 0
M  V30 728 N 73.905 1.17692 -1.04816 0
M  V30 729 C 74.868 2.19787 -0.650117 0
M  V30 730 C 75.868 1.58044 0.296427 0
M  V30 731 O 77.058 1.74012 0.0808097 0
M  V30 732 C 74.19 3.40869 0.0456987 0
M  V30 733 H 75.383 2.56516 -1.5537 0
M  V30 734 H 72.936 1.31708 -0.841594 0
M  V30 735 H 73.671 3.09681 0.962726 0
M  V30 736 H 73.456 3.86928 -0.634727 0
M  V30 737 H 74.946 4.16445 0.310432 0
M  V30 738 N 75.3831 0.828654 1.34056 0
M  V30 739 C 76.2931 0.256725 2.33191 0
M  V30 740 C 77.3091 -0.611898 1.62886 0
M  V30 741 O 78.4851 -0.51844 1.94613 0
M  V30 742 C 75.5501 -0.567238 3.42028 0
M  V30 743 C 74.6111 0.324458 4.28072 0
M  V30 744 C 73.8441 -0.460274 5.31712 0
M  V30 745 O 74.0671 -1.693 5.44696 0
M  V30 746 O 73.0011 0.160391 6.01686 0
M  V30 747 H 76.8271 1.07739 2.83947 0
M  V30 748 H 74.4121 0.59093 1.37217 0
M  V30 749 H 76.2941 -1.03582 4.08471 0
M  V30 750 H 74.9691 -1.36513 2.93506 0
M  V30 751 H 73.8761 0.840659 3.64532 0
M  V30 752 H 75.2091 1.08685 4.8005 0
M  V30 753 N 76.8612 -1.46375 0.584142 0
M  V30 754 C 78.1092 -2.01978 0.0701287 0
M  V30 755 C 78.4302 -1.4579 -1.295 0
M  V30 756 O 77.7002 -0.64314 -1.85042 0
M  V30 757 H 76.2802 -0.746648 0.0229345 0
M  V30 758 H 78.9422 -1.79461 0.760245 0
M  V30 759 H 78.0382 -3.121 0.0022064 0
M  V30 760 N 78.3393 -0.321999 -1.54275 0
M  V30 761 C 79.5873 0.280489 -2.00144 0
M  V30 762 C 79.9083 1.52777 -1.21178 0
M  V30 763 O 79.1783 1.9338 -0.313187 0
M  V30 764 H 77.7583 0.106632 -0.73935 0
M  V30 765 H 80.4203 -0.438184 -1.8991 0
M  V30 766 H 79.5163 0.537972 -3.07428 0
M  V30 767 N 79.8174 1.5752 -0.0501392 0
M  V30 768 C 80.7494 2.08413 0.95376 0
M  V30 769 C 81.7624 1.01175 1.27544 0
M  V30 770 O 82.9514 1.28744 1.23641 0
M  V30 771 C 80.0514 2.51138 2.27559 0
M  V30 772 C 79.2244 3.817 2.13598 0
M  V30 773 C 78.2834 4.10749 3.28895 0
M  V30 774 O 77.3094 4.80685 3.04845 0
M  V30 775 N 78.5114 3.62579 4.5334 0
M  V30 776 H 81.2764 2.95165 0.519383 0
M  V30 777 H 78.8374 1.61327 0.136127 0
M  V30 778 H 80.8294 2.67648 3.03557 0
M  V30 779 H 79.3994 1.6964 2.62567 0
M  V30 780 H 78.6194 3.74782 1.22197 0
M  V30 781 H 79.9074 4.67201 2.01496 0
M  V30 782 H 79.3054 3.06039 4.75769 0
M  V30 783 H 77.8624 3.84329 5.26436 0
M  V30 784 N 81.2955 -0.223234 1.56011 0
M  V30 785 C 82.2585 -1.26014 1.9145 0
M  V30 786 C 83.2585 -1.3989 0.792937 0
M  V30 787 O 84.4485 -1.38184 1.0607 0
M  V30 788 C 81.5805 -2.63422 2.16383 0
M  V30 789 H 82.7735 -0.95796 2.84189 0
M  V30 790 H 80.3265 -0.463576 1.49267 0
M  V30 791 H 81.0615 -2.98741 1.2619 0
M  V30 792 H 80.8465 -2.54728 2.98088 0
M  V30 793 H 82.3365 -3.38249 2.44903 0
M  V30 794 N 82.7736 -1.49793 -0.48987 0
M  V30 795 C 84.0036 -1.6333 -1.26518 0
M  V30 796 C 84.4116 -0.308392 -1.8667 0
M  V30 797 O 83.7546 0.717512 -1.69108 0
M  V30 798 C 83.8166 -2.6522 -2.4269 0
M  V30 799 C 83.4806 -4.09279 -2.03321 0
M  V30 800 C 84.4776 -4.95738 -1.56652 0
M  V30 801 C 82.1626 -4.55082 -2.12616 0
M  V30 802 C 84.1566 -6.26041 -1.19795 0
M  V30 803 C 81.8436 -5.85396 -1.75371 0
M  V30 804 C 82.8416 -6.707 -1.29036 0
M  V30 805 O 82.5296 -7.98584 -0.92299 0
M  V30 806 H 82.2616 -0.552502 -0.389509 0
M  V30 807 H 84.8156 -1.96642 -0.593381 0
M  V30 808 H 83.0456 -2.27112 -3.12981 0
M  V30 809 H 84.7346 -2.68171 -3.04695 0
M  V30 810 H 85.5006 -4.61575 -1.48908 0
M  V30 811 H 81.3796 -3.88844 -2.47631 0
M  V30 812 H 84.9236 -6.92578 -0.835582 0
M  V30 813 H 80.8206 -6.19085 -1.82768 0
M  V30 814 H 81.5886 -8.11692 -1.05349 0
M  V30 815 N 84.2517 0.741722 -1.39055 0
M  V30 816 C 85.4997 1.49818 -1.35643 0
M  V30 817 C 85.8207 1.94938 0.0491642 0
M  V30 818 O 85.0907 1.68505 0.999141 0
M  V30 819 H 83.6707 0.555755 -0.499144 0
M  V30 820 H 86.3327 0.880957 -1.73854 0
M  V30 821 H 85.4287 2.38348 -2.01486 0
M  V30 822 N 85.7298 1.2412 0.971189 0
M  V30 823 C 86.6618 0.988349 2.06795 0
M  V30 824 C 87.6748 -0.0409541 1.62748 0
M  V30 825 O 88.8638 0.195673 1.77424 0
M  V30 826 C 85.9638 0.469023 3.35639 0
M  V30 827 C 85.1368 1.56065 4.08611 0
M  V30 828 C 84.1958 1.04458 5.15728 0
M  V30 829 O 83.2218 1.73553 5.42096 0
M  V30 830 N 84.4238 -0.122817 5.8037 0
M  V30 831 H 87.1888 1.93265 2.29061 0
M  V30 832 H 84.7498 1.15102 1.13856 0
M  V30 833 H 86.7418 0.108613 4.04554 0
M  V30 834 H 85.3118 -0.380919 3.1027 0
M  V30 835 H 84.5318 2.09341 3.34021 0
M  V30 836 H 85.8198 2.29449 4.54126 0
M  V30 837 H 85.2178 -0.700563 5.61345 0
M  V30 838 H 83.7748 -0.424404 6.50417 0
M  V30 839 N 87.2079 -1.17134 1.05439 0
M  V30 840 C 88.1179 -2.24878 0.668365 0
M  V30 841 C 89.1339 -1.71186 -0.311687 0
M  V30 842 O 90.3099 -2.00738 -0.163161 0
M  V30 843 C 87.3749 -3.46662 0.051648 0
M  V30 844 C 86.4359 -4.15429 1.08246 0
M  V30 845 C 85.6689 -5.31399 0.495082 0
M  V30 846 O 85.8919 -5.66153 -0.694743 0
M  V30 847 O 84.8259 -5.89187 1.23056 0
M  V30 848 H 88.6519 -2.60189 1.56637 0
M  V30 849 H 86.2369 -1.24482 0.826104 0
M  V30 850 H 88.1189 -4.20394 -0.290966 0
M  V30 851 H 86.7939 -3.13142 -0.819971 0
M  V30 852 H 85.7009 -3.43704 1.47711 0
M  V30 853 H 87.0339 -4.52982 1.92532 0
M  V30 854 N 88.686 -0.835752 -1.33615 0
M  V30 855 C 89.934 -0.429109 -1.97492 0
M  V30 856 C 90.255 1.01433 -1.66543 0
M  V30 857 O 89.525 1.70611 -0.962744 0
M  V30 858 H 88.105 -0.155686 -0.730596 0
M  V30 859 H 90.767 -1.06802 -1.63031 0
M  V30 860 H 89.863 -0.55861 -3.0706 0
M  V30 861 N 90.1641 1.46063 -0.591896 0
M  V30 862 C 91.4121 2.01938 -0.0808391 0
M  V30 863 C 91.7331 1.46475 1.28725 0
M  V30 864 O 91.0031 0.652944 1.84698 0
M  V30 865 H 89.5831 0.746516 -0.0268938 0
M  V30 866 H 92.2451 1.79055 -0.769752 0
M  V30 867 H 91.3411 3.12094 -0.0187578 0
M  V30 868 N 91.6422 0.330177 1.54103 0
M  V30 869 C 92.8722 -0.271784 2.04805 0
M  V30 870 C 93.2802 -1.45816 1.20559 0
M  V30 871 O 92.6232 -1.82247 0.2306 0
M  V30 872 C 92.6852 -0.763238 3.51305 0
M  V30 873 C 92.3492 0.301705 4.56003 0
M  V30 874 C 93.3462 1.13999 5.07248 0
M  V30 875 C 91.0312 0.451793 5.00264 0
M  V30 876 C 93.0252 2.11402 6.01322 0
M  V30 877 C 90.7122 1.42924 5.94151 0
M  V30 878 C 91.7102 2.25882 6.44567 0
M  V30 879 O 91.3982 3.21965 7.3661 0
M  V30 880 H 91.1302 -0.058693 0.673447 0
M  V30 881 H 93.6842 0.476395 1.99799 0
M  V30 882 H 91.9142 -1.56244 3.5373 0
M  V30 883 H 93.6032 -1.28427 3.85047 0
M  V30 884 H 94.3692 1.03505 4.73827 0
M  V30 885 H 90.2482 -0.184044 4.60632 0
M  V30 886 H 93.7922 2.76192 6.40596 0
M  V30 887 H 89.6892 1.53479 6.26988 0
M  V30 888 H 90.4572 3.17281 7.54503 0
M  V30 889 N 93.1203 -1.57491 0.0584922 0
M  V30 890 C 94.3503 -1.9701 -0.622134 0
M  V30 891 C 94.7583 -0.935034 -1.6448 0
M  V30 892 O 94.1013 0.0882904 -1.83488 0
M  V30 893 C 94.1633 -3.32794 -1.35972 0
M  V30 894 C 93.8273 -4.54343 -0.492043 0
M  V30 895 C 94.8243 -5.19323 0.244901 0
M  V30 896 C 92.5093 -5.00534 -0.420821 0
M  V30 897 C 94.5033 -6.28835 1.04143 0
M  V30 898 C 92.1903 -6.09921 0.379389 0
M  V30 899 C 93.1883 -6.73933 1.10919 0
M  V30 900 O 92.8763 -7.81216 1.89623 0
M  V30 901 H 92.6083 -0.653127 -0.174359 0
M  V30 902 H 95.1623 -2.05029 0.123418 0
M  V30 903 H 93.3923 -3.21351 -2.15105 0
M  V30 904 H 95.0813 -3.5701 -1.93129 0
M  V30 905 H 95.8473 -4.8459 0.19939 0
M  V30 906 H 91.7263 -4.50496 -0.978474 0
M  V30 907 H 95.2703 -6.7873 1.61157 0
M  V30 908 H 91.1673 -6.44089 0.426512 0
M  V30 909 H 91.9353 -7.98029 1.81913 0
M  V30 910 N 94.5984 0.214957 -1.56127 0
M  V30 911 C 95.8754 0.963093 -1.70247 0
M  V30 912 C 96.2554 2.02166 -0.60764 0
M  V30 913 O 95.6034 2.25244 0.384385 0
M  V30 914 C 95.8134 1.56756 -3.11815 0
M  V30 915 C 97.1614 2.0573 -3.7143 0
M  V30 916 O 98.1854 1.66637 -3.14818 0
M  V30 917 O 97.0444 2.77603 -4.70743 0
M  V30 918 H 94.1384 0.450321 -0.693643 0
M  V30 919 H 96.6844 0.206219 -1.68442 0
M  V30 920 H 95.4564 0.803533 -3.82961 0
M  V30 921 H 95.0794 2.3898 -3.17765 0
M  V30 922 N 96.0765 1.50051 0.48192 0
M  V30 923 C 97.0395 1.67584 1.5636 0
M  V30 924 C 98.0395 0.546894 1.51214 0
M  V30 925 O 99.2295 0.813725 1.54026 0
M  V30 926 C 96.3615 1.691 2.96003 0
M  V30 927 H 97.5545 2.64078 1.42136 0
M  V30 928 H 95.1075 1.39369 0.707533 0
M  V30 929 H 95.8425 0.742589 3.15684 0
M  V30 930 H 95.6275 2.51105 3.01146 0
M  V30 931 H 97.1175 1.84656 3.74556 0
M  V30 932 N 97.5546 -0.734337 1.39446 0
M  V30 933 C 98.8026 -1.49096 1.36436 0
M  V30 934 C 99.1236 -1.94961 -0.0388255 0
M  V30 935 O 98.3936 -1.69033 -0.990191 0
M  V30 936 H 96.9736 -0.5531 0.502085 0
M  V30 937 H 99.6356 -0.871725 1.74319 0
M  V30 938 H 98.7316 -2.37276 2.02747 0
M  V30 939 N 99.0327 -1.24633 -0.964593 0
M  V30 940 C 99.9827 -1.00841 -2.04487 0
M  V30 941 C 100.967 0.0512468 -1.60818 0
M  V30 942 O 102.159 -0.162865 -1.76249 0
M  V30 943 C 99.2877 -0.618474 -3.37683 0
M  V30 944 C 98.3737 -1.71437 -3.87905 0
M  V30 945 N 98.7647 -2.9477 -4.11029 0
M  V30 946 C 97.0627 -1.5926 -4.16596 0
M  V30 947 C 97.7637 -3.65834 -4.52261 0
M  V30 948 N 96.7397 -2.9341 -4.57615 0
M  V30 949 H 100.542 -1.94487 -2.20345 0
M  V30 950 H 98.0557 -1.14805 -1.14863 0
M  V30 951 H 100.053 -0.429247 -4.14684 0
M  V30 952 H 98.7127 0.310766 -3.23209 0
M  V30 953 H 99.7237 -3.30917 -3.9839 0
M  V30 954 H 96.4007 -0.731606 -4.1104 0
M  V30 955 H 97.7907 -4.71646 -4.78539 0
M  V30 956 N 100.511 1.16574 -1.06058 0
M  V30 957 C 101.443 2.2045 -0.627239 0
M  V30 958 C 102.456 1.59752 0.313534 0
M  V30 959 O 103.645 1.78192 0.104896 0
M  V30 960 C 100.745 3.3875 0.100974 0
M  V30 961 C 99.9178 4.29008 -0.852687 0
M  V30 962 C 98.9768 5.25944 -0.164152 0
M  V30 963 O 98.0028 5.63535 -0.801047 0
M  V30 964 N 99.2048 5.70075 1.09518 0
M  V30 965 H 101.97 2.58249 -1.52077 0
M  V30 966 H 99.5308 1.3156 -0.943594 0
M  V30 967 H 101.523 4.00638 0.57194 0
M  V30 968 H 100.093 2.99476 0.89628 0
M  V30 969 H 99.3128 3.64419 -1.50308 0
M  V30 970 H 100.601 4.86195 -1.49972 0
M  V30 971 H 99.9988 5.41624 1.6328 0
M  V30 972 H 98.5558 6.34067 1.51006 0
M  V30 973 N 101.989 0.842826 1.3317 0
M  V30 974 C 103.266 0.362216 1.92217 0
M  V30 975 C 103.646 -1.15289 1.76838 0
M  V30 976 O 102.994 -1.96914 1.15919 0
M  V30 977 C 103.204 0.813495 3.39387 0
M  V30 978 C 104.552 0.823804 4.16532 0
M  V30 979 O 105.576 0.757358 3.48055 0
M  V30 980 O 104.435 0.915193 5.38782 0
M  V30 981 H 101.529 0.103317 0.820521 0
M  V30 982 H 104.075 0.928942 1.42017 0
M  V30 983 H 102.847 1.85624 3.4447 0
M  V30 984 H 102.47 0.223561 3.96971 0
M  V30 985 N 103.467 -1.45747 0.599634 0
M  V30 986 C 104.744 -1.95585 0.0240846 0
M  V30 987 C 105.124 -1.54217 -1.44154 0
M  V30 988 O 104.472 -0.800903 -2.14004 0
M  V30 989 C 104.682 -3.48344 0.21385 0
M  V30 990 C 106.03 -4.24504 0.0904902 0
M  V30 991 O 107.054 -3.55911 0.143558 0
M  V30 992 O 105.913 -5.46491 -0.0310766 0
M  V30 993 H 103.007 -0.82602 -0.0402478 0
M  V30 994 H 105.553 -1.55951 0.669139 0
M  V30 995 H 104.325 -3.71397 1.23206 0
M  V30 996 H 103.948 -3.9485 -0.466842 0
M  V30 997 N 104.945 -0.338344 -1.53925 0
M  V30 998 C 106.175 0.260919 -2.04946 0
M  V30 999 C 106.583 1.45174 -1.2133 0
M  V30 1000 O 105.926 1.82122 -0.240262 0
M  V30 1001 C 105.988 0.744596 -3.51704 0
M  V30 1002 C 105.652 -0.325883 -4.55837 0
M  V30 1003 C 106.649 -1.16687 -5.06636 0
M  V30 1004 C 104.334 -0.478317 -5.00017 0
M  V30 1005 C 106.328 -2.14588 -6.00192 0
M  V30 1006 C 104.015 -1.46073 -5.93385 0
M  V30 1007 C 105.013 -2.29297 -6.4336 0
M  V30 1008 O 104.701 -3.25867 -7.34892 0
M  V30 1009 H 104.433 0.0551207 -0.673749 0
M  V30 1010 H 106.987 -0.486984 -1.99544 0
M  V30 1011 H 105.217 1.54366 -3.54553 0
M  V30 1012 H 106.906 1.26383 -3.85723 0
M  V30 1013 H 107.672 -1.06016 -4.73271 0
M  V30 1014 H 103.551 0.159613 -4.60724 0
M  V30 1015 H 107.095 -2.79585 -6.39123 0
M  V30 1016 H 102.992 -1.56802 -6.26166 0
M  V30 1017 H 103.76 -3.21278 -7.5281 0
M  V30 1018 N 106.423 1.57458 -0.0668435 0
M  V30 1019 C 107.653 1.97337 0.611677 0
M  V30 1020 C 108.061 0.943744 1.63982 0
M  V30 1021 O 107.404 -0.0785584 1.83532 0
M  V30 1022 C 107.466 3.33511 1.34205 0
M  V30 1023 C 107.13 4.54598 0.467941 0
M  V30 1024 C 108.127 5.19186 -0.272439 0
M  V30 1025 C 105.812 5.0075 0.39427 0
M  V30 1026 C 107.806 6.28274 -1.07476 0
M  V30 1027 C 105.493 6.09711 -0.411729 0
M  V30 1028 C 106.491 6.73335 -1.14492 0
M  V30 1029 O 106.179 7.80199 -1.93763 0
M  V30 1030 H 105.911 0.654042 0.170893 0
M  V30 1031 H 108.465 2.04961 -0.134289 0
M  V30 1032 H 106.695 3.22487 2.13398 0
M  V30 1033 H 108.384 3.58029 1.91233 0
M  V30 1034 H 109.15 4.84477 -0.225086 0
M  V30 1035 H 105.029 4.51009 0.954569 0
M  V30 1036 H 108.573 6.77866 -1.64755 0
M  V30 1037 H 104.47 6.43854 -0.460664 0
M  V30 1038 H 105.238 7.97053 -1.86142 0
M  V30 1039 N 107.901 -0.206675 1.56239 0
M  V30 1040 C 109.149 -0.927007 1.79586 0
M  V30 1041 C 109.47 -1.8427 0.637929 0
M  V30 1042 O 108.74 -1.92849 -0.344398 0
M  V30 1043 H 107.32 -0.345292 0.662407 0
M  V30 1044 H 109.982 -0.21496 1.93711 0
M  V30 1045 H 109.078 -1.52501 2.72305 0
M  V30 1046 N 109.379 -1.50304 -0.473955 0
M  V30 1047 C 110.656 -1.51667 -1.23518 0
M  V30 1048 C 111.036 -0.259701 -2.09496 0
M  V30 1049 O 110.384 0.756986 -2.15597 0
M  V30 1050 C 110.594 -2.81082 -2.06868 0
M  V30 1051 C 111.942 -3.31631 -2.65153 0
M  V30 1052 O 112.966 -2.82384 -2.17113 0
M  V30 1053 O 111.825 -4.17471 -3.52675 0
M  V30 1054 H 108.919 -0.60822 -0.560355 0
M  V30 1055 H 111.465 -1.62592 -0.486011 0
M  V30 1056 H 110.237 -3.64041 -1.4349 0
M  V30 1057 H 109.86 -2.73146 -2.88924 0
M  V30 1058 N 110.857 0.726932 -1.39834 0
M  V30 1059 C 111.789 1.85147 -1.35104 0
M  V30 1060 C 112.802 1.60736 -0.258392 0
M  V30 1061 O 113.991 1.70821 -0.517931 0
M  V30 1062 C 111.091 3.21332 -1.07697 0
M  V30 1063 C 110.264 3.73033 -2.28396 0
M  V30 1064 C 109.323 4.87802 -1.97322 0
M  V30 1065 O 108.349 5.01043 -2.70083 0
M  V30 1066 N 109.551 5.72768 -0.944273 0
M  V30 1067 H 112.316 1.89706 -2.32017 0
M  V30 1068 H 109.877 0.908006 -1.3404 0
M  V30 1069 H 111.869 3.95691 -0.849144 0
M  V30 1070 H 110.439 3.11992 -0.194909 0
M  V30 1071 H 109.659 2.89934 -2.6708 0
M  V30 1072 H 110.947 4.0431 -3.08887 0
M  V30 1073 H 110.345 5.64669 -0.341427 0
M  V30 1074 H 108.902 6.4716 -0.776346 0
M  V30 1075 N 112.336 1.25143 0.95797 0
M  V30 1076 C 113.566 1.12261 1.73439 0
M  V30 1077 C 113.974 -0.326715 1.86358 0
M  V30 1078 O 113.317 -1.2367 1.35836 0
M  V30 1079 C 113.379 1.69966 3.16784 0
M  V30 1080 C 113.043 3.18936 3.27305 0
M  V30 1081 C 114.04 4.15968 3.11877 0
M  V30 1082 C 111.725 3.59083 3.51234 0
M  V30 1083 C 113.719 5.51126 3.20217 0
M  V30 1084 C 111.406 4.9438 3.5921 0
M  V30 1085 C 112.404 5.90211 3.43716 0
M  V30 1086 O 112.092 7.23046 3.51368 0
M  V30 1087 H 111.824 0.392476 0.550399 0
M  V30 1088 H 114.378 1.65927 1.21068 0
M  V30 1089 H 112.608 1.10744 3.70503 0
M  V30 1090 H 114.297 1.52232 3.76272 0
M  V30 1091 H 115.063 3.86292 2.93264 0
M  V30 1092 H 110.942 2.84989 3.62356 0
M  V30 1093 H 114.486 6.25905 3.0804 0
M  V30 1094 H 110.383 5.23723 3.77339 0
M  V30 1095 H 111.151 7.31097 3.6802 0
M  V30 1096 N 113.814 -1.1601 1.06675 0
M  V30 1097 C 115.044 -1.90251 0.805497 0
M  V30 1098 C 115.452 -1.77891 -0.64431 0
M  V30 1099 O 114.795 -1.12383 -1.45313 0
M  V30 1100 C 114.857 -3.41419 1.12576 0
M  V30 1101 C 114.521 -3.77564 2.57477 0
M  V30 1102 C 115.518 -3.79161 3.55715 0
M  V30 1103 C 113.203 -4.08079 2.92877 0
M  V30 1104 C 115.197 -4.10767 4.8739 0
M  V30 1105 C 112.884 -4.39351 4.24751 0
M  V30 1106 C 113.882 -4.40675 5.21818 0
M  V30 1107 O 113.57 -4.71202 6.51325 0
M  V30 1108 H 113.302 -0.610018 0.291297 0
M  V30 1109 H 115.856 -1.47958 1.4247 0
M  V30 1110 H 114.086 -3.84079 0.449503 0
M  V30 1111 H 115.775 -3.9694 0.84814 0
M  V30 1112 H 116.541 -3.55693 3.29708 0
M  V30 1113 H 112.42 -4.06211 2.17976 0
M  V30 1114 H 115.964 -4.11715 5.63148 0
M  V30 1115 H 111.861 -4.62285 4.50514 0
M  V30 1116 H 112.629 -4.88996 6.56373 0
M  V30 1117 N 115.292 -0.849877 -1.32721 0
M  V30 1118 C 116.569 -0.372405 -1.92022 0
M  V30 1119 C 116.949 1.1435 -1.77447 0
M  V30 1120 O 116.297 1.96296 -1.16962 0
M  V30 1121 C 116.507 -0.831482 -3.3895 0
M  V30 1122 C 117.855 -0.845882 -4.16089 0
M  V30 1123 O 118.879 -0.775806 -3.47649 0
M  V30 1124 O 117.738 -0.943753 -5.38289 0
M  V30 1125 H 114.832 -0.107667 -0.819961 0
M  V30 1126 H 117.378 -0.93646 -1.41522 0
M  V30 1127 H 116.15 -1.87448 -3.4348 0
M  V30 1128 H 115.773 -0.24461 -3.96847 0
M  V30 1129 N 116.77 1.45427 -0.607355 0
M  V30 1130 C 117.702 2.2871 0.149752 0
M  V30 1131 C 118.715 1.39937 0.831958 0
M  V30 1132 O 119.904 1.64313 0.697385 0
M  V30 1133 C 117.004 3.15673 1.23304 0
M  V30 1134 C 116.177 4.32722 0.637996 0
M  V30 1135 C 115.236 5.00895 1.61215 0
M  V30 1136 O 114.262 5.57697 1.13854 0
M  V30 1137 N 115.464 5.00159 2.94655 0
M  V30 1138 H 118.229 2.94328 -0.564882 0
M  V30 1139 H 115.79 1.55612 -0.446823 0
M  V30 1140 H 117.782 3.58144 1.88454 0
M  V30 1141 H 116.352 2.51965 1.8502 0
M  V30 1142 H 115.572 3.93734 -0.191572 0
M  V30 1143 H 116.86 5.08321 0.220665 0
M  V30 1144 H 116.258 4.553 3.35735 0
M  V30 1145 H 114.815 5.46495 3.55228 0
M  V30 1146 N 118.248 0.346503 1.53744 0
M  V30 1147 C 119.496 -0.248612 2.00565 0
M  V30 1148 C 119.817 -1.5083 1.23593 0
M  V30 1149 O 119.087 -1.92858 0.343912 0
M  V30 1150 H 117.667 -0.0948564 0.740953 0
M  V30 1151 H 120.329 0.468341 1.89189 0
M  V30 1152 H 119.425 -0.488994 3.08245 0
M  V30 1153 N 119.726 -1.57421 0.075193 0
M  V30 1154 C 120.674 -2.14124 -0.908508 0
M  V30 1155 C 121.668 -1.07898 -1.30592 0
M  V30 1156 O 122.874 -1.26273 -1.28277 0
M  V30 1157 H 119.249 -0.684707 -0.310935 0
M  V30 1158 H 121.22 -2.95634 -0.405374 0
M  V30 1159 C 119.969 -2.72044 -2.16535 0
M  V30 1160 H 119.292 -3.53456 -1.86839 0
M  V30 1161 H 120.732 -3.15311 -2.83469 0
M  V30 1162 C 119.191 -1.66968 -2.92615 0
M  V30 1163 O 119.721 -1.0967 -3.86439 0
M  V30 1164 N 117.927 -1.37923 -2.55784 0
M  V30 1165 H 117.474 -1.84706 -1.79559 0
M  V30 1166 H 117.432 -0.67852 -3.06991 0
M  V30 1167 N 121.204 0.198386 -1.56346 0
M  V30 1168 C 122.452 0.91747 -1.80075 0
M  V30 1169 C 122.773 1.83929 -0.647692 0
M  V30 1170 O 122.043 1.93029 0.334166 0
M  V30 1171 H 120.623 0.341774 -0.664228 0
M  V30 1172 H 123.285 0.204684 -1.93822 0
M  V30 1173 H 122.381 1.51055 -2.7311 0
M  V30 1174 N 122.682 1.50554 0.465978 0
M  V30 1175 C 123.645 1.69233 1.54574 0
M  V30 1176 C 124.645 0.562901 1.50626 0
M  V30 1177 O 125.835 0.830016 1.53155 0
M  V30 1178 C 122.967 1.7223 2.94193 0
M  V30 1179 H 124.16 2.65571 1.39327 0
M  V30 1180 H 121.713 1.40111 0.692711 0
M  V30 1181 H 122.448 0.77603 3.14878 0
M  V30 1182 H 122.233 2.54285 2.98466 0
M  V30 1183 H 123.723 1.88618 3.72576 0
M  V30 1184 N 124.16 -0.719506 1.40217 0
M  V30 1185 C 125.571 -1.29848 1.34151 0
M  V30 1186 C 125.922 -1.96196 0.0131349 0
M  V30 1187 O 125.047 -1.973 -0.88892 0
M  V30 1188 C 125.642 -2.36118 2.42968 0
M  V30 1189 C 124.201 -2.8965 2.40374 0
M  V30 1190 C 123.348 -1.63393 2.24049 0
M  V30 1191 H 126.299 -0.51591 1.5008 0
M  V30 1192 H 126.32 -3.16871 2.10649 0
M  V30 1193 H 125.832 -1.878 3.39636 0
M  V30 1194 H 123.933 -3.42208 1.47392 0
M  V30 1195 H 124.046 -3.4171 3.35814 0
M  V30 1196 H 122.41 -1.88312 1.71495 0
M  V30 1197 H 123.193 -1.17104 3.2271 0
M  V30 1198 N 125.638 -1.25649 -0.95132 0
M  V30 1199 C 127.054 -1.02542 -1.223 0
M  V30 1200 C 127.254 0.255715 -1.99871 0
M  V30 1201 O 126.31 0.967558 -2.33226 0
M  V30 1202 C 127.623 -2.25065 -1.99415 0
M  V30 1203 C 129.171 -2.29861 -2.12446 0
M  V30 1204 C 129.646 -3.52048 -2.92961 0
M  V30 1205 N 131.137 -3.52465 -3.00538 0
M  V30 1206 C 131.872 -4.43672 -3.63239 0
M  V30 1207 N 131.368 -5.45157 -4.27523 0
M  V30 1208 N 133.161 -4.31346 -3.60412 0
M  V30 1209 H 125.312 -2.07951 -0.432471 0
M  V30 1210 H 127.575 -0.91339 -0.253816 0
M  V30 1211 H 127.281 -3.18194 -1.49817 0
M  V30 1212 H 127.155 -2.28502 -3.00111 0
M  V30 1213 H 129.542 -1.37252 -2.61239 0
M  V30 1214 H 129.623 -2.3044 -1.11044 0
M  V30 1215 H 129.267 -4.44981 -2.44856 0
M  V30 1216 H 129.197 -3.48715 -3.94596 0
M  V30 1217 H 131.688 -2.79056 -2.54826 0
M  V30 1218 H 132.001 -6.10958 -4.73234 0
M  V30 1219 H 130.346 -5.49025 -4.26141 0
M  V30 1220 H 133.537 -3.51288 -3.09377 0
M  V30 1221 H 133.71 -5.02624 -4.0899 0
M  V30 1222 N 127.117 1.15442 -1.07289 0
M  V30 1223 C 128.365 1.85845 -0.794096 0
M  V30 1224 C 128.686 1.82692 0.681809 0
M  V30 1225 O 127.956 1.26741 1.49377 0
M  V30 1226 H 126.536 0.688089 -0.290763 0
M  V30 1227 H 129.198 1.39947 -1.3565 0
M  V30 1228 H 128.294 2.91001 -1.12804 0
M  V30 1229 N 128.595 0.856903 1.32268 0
M  V30 1230 C 130.011 0.547061 1.49931 0
M  V30 1231 C 130.211 -0.921781 1.7918 0
M  V30 1232 O 129.267 -1.70469 1.8627 0
M  V30 1233 C 130.58 1.43599 2.64196 0
M  V30 1234 C 132.128 1.43665 2.78081 0
M  V30 1235 C 132.603 2.31085 3.95428 0
M  V30 1236 N 134.094 2.28893 4.02694 0
M  V30 1237 C 134.829 2.93262 4.92732 0
M  V30 1238 N 134.325 3.66751 5.87763 0
M  V30 1239 N 136.118 2.82638 4.85873 0
M  V30 1240 H 128.269 1.8075 1.11549 0
M  V30 1241 H 130.532 0.772144 0.549997 0
M  V30 1242 H 130.238 2.48058 2.49319 0
M  V30 1243 H 130.112 1.12502 3.60032 0
M  V30 1244 H 132.499 0.399701 2.92381 0
M  V30 1245 H 132.58 1.7878 1.82952 0
M  V30 1246 H 132.224 3.34849 3.81888 0
M  V30 1247 H 132.154 1.93302 4.89839 0
M  V30 1248 H 134.645 1.75466 3.34694 0
M  V30 1249 H 134.958 4.13027 6.53168 0
M  V30 1250 H 133.303 3.70859 5.87783 0
M  V30 1251 H 136.494 2.24774 4.10602 0
M  V30 1252 H 136.667 3.33084 5.55841 0
M  V30 1253 N 130.073 -1.45103 0.615059 0
M  V30 1254 C 131.489 -1.57137 0.279322 0
M  V30 1255 C 131.689 -1.60523 -1.21797 0
M  V30 1256 O 130.745 -1.53956 -2.00134 0
M  V30 1257 C 132.058 -2.85062 0.957083 0
M  V30 1258 C 133.606 -2.98749 0.933706 0
M  V30 1259 C 134.081 -4.29455 1.59162 0
M  V30 1260 N 135.572 -4.36231 1.55746 0
M  V30 1261 C 136.307 -5.36051 2.0356 0
M  V30 1262 N 135.803 -6.42367 2.59494 0
M  V30 1263 N 137.596 -5.27456 1.94284 0
M  V30 1264 H 129.747 -1.41148 1.58717 0
M  V30 1265 H 132.01 -0.675331 0.665306 0
M  V30 1266 H 131.716 -2.88488 2.01166 0
M  V30 1267 H 131.59 -3.7407 0.48494 0
M  V30 1268 H 133.977 -2.94886 -0.112347 0
M  V30 1269 H 134.058 -2.11132 1.44419 0
M  V30 1270 H 133.702 -4.34077 2.63704 0
M  V30 1271 H 133.632 -5.15901 1.0561 0
M  V30 1272 H 136.123 -3.60011 1.14893 0
M  V30 1273 H 136.436 -7.14793 2.93752 0
M  V30 1274 H 134.781 -6.43097 2.63537 0
M  V30 1275 H 137.972 -4.43308 1.5032 0
M  V30 1276 H 138.145 -6.05099 2.3186 0
M  V30 1277 N 131.551 -0.354651 -1.53558 0
M  V30 1278 C 132.967 -0.00315426 -1.596 0
M  V30 1279 C 133.167 1.47741 -1.37021 0
M  V30 1280 O 132.223 2.23759 -1.16996 0
M  V30 1281 C 133.536 -0.44929 -2.97325 0
M  V30 1282 C 135.084 -0.402578 -3.104 0
M  V30 1283 C 135.559 -0.824355 -4.5052 0
M  V30 1284 N 137.05 -0.778979 -4.56603 0
M  V30 1285 C 137.785 -1.07715 -5.63192 0
M  V30 1286 N 137.281 -1.44405 -6.77583 0
M  V30 1287 N 139.074 -1.00066 -5.53121 0
M  V30 1288 H 131.225 -1.31893 -1.66487 0
M  V30 1289 H 133.488 -0.538388 -0.780284 0
M  V30 1290 H 133.194 -1.48202 -3.1895 0
M  V30 1291 H 133.068 0.169772 -3.76818 0
M  V30 1292 H 135.455 0.621004 -2.88492 0
M  V30 1293 H 135.536 -1.05699 -2.32941 0
M  V30 1294 H 135.18 -1.846 -4.73165 0
M  V30 1295 H 135.11 -0.147304 -5.26394 0
M  V30 1296 H 137.601 -0.508528 -3.74463 0
M  V30 1297 H 137.914 -1.65612 -7.54846 0
M  V30 1298 H 136.259 -1.4826 -6.79002 0
M  V30 1299 H 139.45 -0.713293 -4.62633 0
M  V30 1300 H 139.623 -1.23638 -6.36096 0
M  V30 1301 N 133.029 1.57378 -0.0835403 0
M  V30 1302 C 134.277 1.93547 0.581718 0
M  V30 1303 C 134.598 0.96524 1.69435 0
M  V30 1304 O 133.868 0.0153369 1.95894 0
M  V30 1305 H 132.448 0.714521 0.217874 0
M  V30 1306 H 135.11 1.94366 -0.144158 0
M  V30 1307 H 134.206 2.95665 0.999423 0
M  V30 1308 N 134.507 -0.190092 1.56449 0
M  V30 1309 C 135.784 -0.935886 1.71757 0
M  V30 1310 C 136.164 -2.01173 0.639726 0
M  V30 1311 O 135.512 -2.25827 -0.348502 0
M  V30 1312 C 135.722 -1.51775 3.1427 0
M  V30 1313 C 137.07 -1.99794 3.74656 0
M  V30 1314 O 138.094 -1.61607 3.1743 0
M  V30 1315 O 136.953 -2.70079 4.751 0
M  V30 1316 H 134.047 -0.439229 0.700719 0
M  V30 1317 H 136.593 -0.179395 1.68749 0
M  V30 1318 H 135.365 -0.742505 3.84191 0
M  V30 1319 H 134.988 -2.33894 3.21527 0
M  V30 1320 N 135.985 -1.50799 -0.457987 0
M  V30 1321 C 137.21 -1.66496 -1.23668 0
M  V30 1322 C 137.635 -0.353288 -1.84752 0
M  V30 1323 O 136.993 0.684346 -1.67888 0
M  V30 1324 C 137.041 -2.76763 -2.3116 0
M  V30 1325 O 136.145 -2.38928 -3.36136 0
M  V30 1326 H 135.486 -0.555828 -0.363252 0
M  V30 1327 H 138.016 -1.9725 -0.543474 0
M  V30 1328 H 138.026 -3.00232 -2.76269 0
M  V30 1329 H 136.701 -3.71954 -1.86073 0
M  V30 1330 H 135.278 -2.25953 -2.96647 0
M  V30 1331 N 137.463 0.71206 -1.40597 0
M  V30 1332 C 138.373 1.8562 -1.43466 0
M  V30 1333 C 139.389 1.70902 -0.326902 0
M  V30 1334 O 140.565 1.93105 -0.572043 0
M  V30 1335 C 137.63 3.21451 -1.29884 0
M  V30 1336 C 136.691 3.48398 -2.50833 0
M  V30 1337 C 135.924 4.77749 -2.3789 0
M  V30 1338 O 136.147 5.53089 -1.39459 0
M  V30 1339 O 135.081 5.05111 -3.27333 0
M  V30 1340 H 138.907 1.86155 -2.39958 0
M  V30 1341 H 136.492 0.86295 -1.21957 0
M  V30 1342 H 138.374 4.02579 -1.24531 0
M  V30 1343 H 137.049 3.21636 -0.364997 0
M  V30 1344 H 135.956 2.67265 -2.61763 0
M  V30 1345 H 137.289 3.53014 -3.4299 0
M  V30 1346 N 138.941 1.26152 0.944643 0
M  V30 1347 C 139.851 1.09176 2.07648 0
M  V30 1348 C 140.867 0.0261935 1.7398 0
M  V30 1349 O 142.043 0.229208 2.00091 0
M  V30 1350 C 139.108 0.722915 3.39079 0
M  V30 1351 C 138.169 1.86752 3.86552 0
M  V30 1352 C 137.402 1.51617 5.11711 0
M  V30 1353 O 137.625 0.416331 5.68879 0
M  V30 1354 O 136.559 2.34975 5.54139 0
M  V30 1355 H 140.385 2.0412 2.24875 0
M  V30 1356 H 137.97 1.05182 1.061 0
M  V30 1357 H 139.852 0.529787 4.18056 0
M  V30 1358 H 138.527 -0.197159 3.23099 0
M  V30 1359 H 137.434 2.11558 3.08535 0
M  V30 1360 H 138.767 2.76719 4.07047 0
M  V30 1361 N 140.419 -1.14872 1.07899 0
M  V30 1362 C 141.696 -1.81928 0.71845 0
M  V30 1363 C 142.076 -1.95417 -0.798455 0
M  V30 1364 O 141.424 -1.50997 -1.715 0
M  V30 1365 C 141.634 -3.17937 1.43935 0
M  V30 1366 C 142.982 -3.93501 1.59506 0
M  V30 1367 O 144.006 -3.27509 1.40058 0
M  V30 1368 O 142.865 -5.1183 1.91551 0
M  V30 1369 H 139.959 -0.78628 0.256305 0
M  V30 1370 H 142.505 -1.21934 1.18026 0
M  V30 1371 H 141.277 -3.0325 2.47295 0
M  V30 1372 H 140.9 -3.85619 0.968687 0
M  V30 1373 N 141.898 -0.863906 -1.31812 0
M  V30 1374 C 143.123 -0.48527 -2.01643 0
M  V30 1375 C 143.548 0.913058 -1.64453 0
M  V30 1376 O 142.906 1.6014 -0.849985 0
M  V30 1377 C 142.954 -0.642625 -3.54828 0
M  V30 1378 O 142.058 0.320659 -4.11151 0
M  V30 1379 H 141.399 -0.193793 -0.635091 0
M  V30 1380 H 143.929 -1.16565 -1.68148 0
M  V30 1381 H 143.939 -0.533628 -4.04495 0
M  V30 1382 H 142.614 -1.66227 -3.81237 0
M  V30 1383 H 141.191 0.167126 -3.72525 0
M  V30 1384 N 143.376 1.44774 -0.622745 0
M  V30 1385 C 144.286 2.34433 0.0886031 0
M  V30 1386 C 145.302 1.52131 0.844529 0
M  V30 1387 O 146.478 1.84886 0.798691 0
M  V30 1388 C 143.543 3.29986 1.0635 0
M  V30 1389 C 142.604 4.28195 0.307873 0
M  V30 1390 C 141.837 5.19183 1.23633 0
M  V30 1391 O 142.06 5.13918 2.47476 0
M  V30 1392 O 140.994 5.97515 0.725189 0
M  V30 1393 H 144.82 2.96693 -0.648599 0
M  V30 1394 H 142.405 1.44408 -0.382957 0
M  V30 1395 H 144.287 3.88825 1.6246 0
M  V30 1396 H 142.962 2.70269 1.78146 0
M  V30 1397 H 141.869 3.72927 -0.296064 0
M  V30 1398 H 143.202 4.90808 -0.3699 0
M  V30 1399 N 144.854 0.36279 1.53368 0
M  V30 1400 C 146.082 -0.228613 2.05633 0
M  V30 1401 C 146.497 -1.42676 1.23649 0
M  V30 1402 O 145.854 -1.80394 0.27647 0
M  V30 1403 C 145.905 -0.624845 3.56059 0
M  V30 1404 O 145.626 0.525675 4.34935 0
M  V30 1405 C 147.127 -1.27493 4.24571 0
M  V30 1406 H 144.347 -0.0407183 0.669763 0
M  V30 1407 H 146.891 0.520352 1.97769 0
M  V30 1408 H 145.046 -1.32373 3.64083 0
M  V30 1409 H 145.46 0.205969 5.24095 0
M  V30 1410 H 146.934 -1.50277 5.31151 0
M  V30 1411 H 147.411 -2.23439 3.78116 0
M  V30 1412 H 148.017 -0.617558 4.20792 0
M  V30 1413 N 146.332 -1.57332 0.0918853 0
M  V30 1414 C 147.579 -1.94236 -0.572577 0
M  V30 1415 C 147.907 -0.973398 -1.6839 0
M  V30 1416 O 147.162 0.00756912 -1.95699 0
M  V30 1417 C 147.461 -3.37689 -1.17051 0
M  V30 1418 C 147.127 -4.50527 -0.183304 0
M  V30 1419 C 145.789 -4.81119 0.0882276 0
M  V30 1420 C 148.141 -5.18883 0.49095 0
M  V30 1421 C 145.469 -5.77395 1.04076 0
M  V30 1422 C 147.821 -6.1618 1.43193 0
M  V30 1423 C 146.485 -6.45179 1.71173 0
M  V30 1424 H 145.755 -0.710762 -0.209521 0
M  V30 1425 H 148.402 -1.9077 0.167036 0
M  V30 1426 H 146.707 -3.37718 -1.9863 0
M  V30 1427 H 148.404 -3.63543 -1.69227 0
M  V30 1428 H 144.994 -4.26681 -0.405124 0
M  V30 1429 H 149.178 -4.95427 0.294312 0
M  V30 1430 H 144.434 -5.98179 1.26457 0
M  V30 1431 H 148.608 -6.68243 1.96023 0
M  V30 1432 H 146.235 -7.1959 2.4514 0
M  V30 1433 N 147.81 0.181792 -1.56548 0
M  V30 1434 C 149.035 0.920019 -1.85877 0
M  V30 1435 C 149.46 1.75494 -0.677021 0
M  V30 1436 O 148.818 1.77399 0.374056 0
M  V30 1437 C 148.866 1.78112 -3.13542 0
M  V30 1438 O 147.97 2.88152 -2.95029 0
M  V30 1439 H 147.311 0.258334 -0.611686 0
M  V30 1440 H 149.841 0.183092 -2.03779 0
M  V30 1441 H 149.851 2.18314 -3.44678 0
M  V30 1442 H 148.526 1.16777 -3.99169 0
M  V30 1443 H 147.103 2.51609 -2.75222 0
M  V30 1444 N 149.288 1.51039 0.449983 0
M  V30 1445 C 150.565 1.53612 1.21089 0
M  V30 1446 C 150.945 0.292997 2.09057 0
M  V30 1447 O 150.293 -0.72259 2.16774 0
M  V30 1448 C 150.503 2.84337 2.0237 0
M  V30 1449 C 151.851 3.35807 2.59843 0
M  V30 1450 O 152.875 2.85802 2.12593 0
M  V30 1451 O 151.734 4.23029 3.45989 0
M  V30 1452 H 148.828 0.617057 0.550608 0
M  V30 1453 H 151.374 1.63344 0.460082 0
M  V30 1454 H 150.146 3.66278 1.37681 0
M  V30 1455 H 149.769 2.77708 2.84542 0
M  V30 1456 N 150.766 -0.704594 1.40972 0
M  V30 1457 C 152.013 -1.46458 1.39844 0
M  V30 1458 C 152.341 -1.94499 0.00447594 0
M  V30 1459 O 151.596 -1.69275 -0.982057 0
M  V30 1460 C 151.895 -2.698 2.34399 0
M  V30 1461 C 151.561 -2.40464 3.81429 0
M  V30 1462 C 150.223 -2.32174 4.21484 0
M  V30 1463 C 152.575 -2.16086 4.74296 0
M  V30 1464 C 149.903 -1.97589 5.52427 0
M  V30 1465 C 152.255 -1.83011 6.05549 0
M  V30 1466 C 150.919 -1.7321 6.44635 0
M  V30 1467 H 150.189 -0.535927 0.511725 0
M  V30 1468 H 152.836 -0.806124 1.73706 0
M  V30 1469 H 151.141 -3.40536 1.93759 0
M  V30 1470 H 152.838 -3.27919 2.30804 0
M  V30 1471 H 149.428 -2.47808 3.49699 0
M  V30 1472 H 153.612 -2.2144 4.4416 0
M  V30 1473 H 148.868 -1.88547 5.81601 0
M  V30 1474 H 153.042 -1.63164 6.77016 0
M  V30 1475 H 150.669 -1.46179 7.46013 0
M  V30 1476 N 152.244 -1.26651 -0.937939 0
M  V30 1477 C 153.472 -1.15173 -1.7188 0
M  V30 1478 C 153.887 0.292668 -1.86518 0
M  V30 1479 O 153.244 1.20014 -1.37488 0
M  V30 1480 C 153.295 -1.81925 -3.12387 0
M  V30 1481 O 153.016 -3.2072 -2.98446 0
M  V30 1482 C 154.517 -1.76442 -4.06673 0
M  V30 1483 H 151.737 -0.400911 -0.538063 0
M  V30 1484 H 154.281 -1.67332 -1.1756 0
M  V30 1485 H 152.436 -1.33696 -3.63599 0
M  V30 1486 H 152.85 -3.53802 -3.872 0
M  V30 1487 H 154.324 -2.27781 -5.02812 0
M  V30 1488 H 154.801 -0.731608 -4.33064 0
M  V30 1489 H 155.407 -2.24238 -3.61382 0
M  V30 1490 N 153.722 1.14298 -1.08507 0
M  V30 1491 C 154.655 2.18447 -0.660004 0
M  V30 1492 C 155.633 1.59242 0.328749 0
M  V30 1493 O 156.817 1.87062 0.232367 0
M  V30 1494 C 153.944 3.38688 0.0290807 0
M  V30 1495 C 152.99 4.1646 -0.919982 0
M  V30 1496 S 153.823 4.77334 -2.42718 0
M  V30 1497 C 154.979 6.00931 -1.75024 0
M  V30 1498 H 155.212 2.54166 -1.54231 0
M  V30 1499 H 152.745 1.25446 -0.900149 0
M  V30 1500 H 154.703 4.08342 0.420378 0
M  V30 1501 H 153.364 3.01289 0.887895 0
M  V30 1502 H 152.557 5.02529 -0.384751 0
M  V30 1503 H 152.159 3.52414 -1.25223 0
M  V30 1504 H 154.451 6.69017 -1.06877 0
M  V30 1505 H 155.394 6.59044 -2.58971 0
M  V30 1506 H 155.802 5.51089 -1.22317 0
M  V30 1507 N 155.201 0.870884 1.31352 0
M  V30 1508 C 156.617 0.562932 1.49343 0
M  V30 1509 C 156.817 -0.902725 1.80148 0
M  V30 1510 O 155.873 -1.68484 1.88067 0
M  V30 1511 C 157.186 1.46393 2.62659 0
M  V30 1512 C 158.734 1.46607 2.76542 0
M  V30 1513 C 159.209 2.35266 3.92955 0
M  V30 1514 N 160.7 2.33151 4.00243 0
M  V30 1515 C 161.435 2.98471 4.89594 0
M  V30 1516 N 160.931 3.72964 5.8384 0
M  V30 1517 N 162.724 2.87775 4.82848 0
M  V30 1518 H 154.875 1.81923 1.09626 0
M  V30 1519 H 157.138 0.777934 0.541777 0
M  V30 1520 H 156.844 2.50689 2.46674 0
M  V30 1521 H 156.718 1.16314 3.58819 0
M  V30 1522 H 159.105 0.43069 2.9194 0
M  V30 1523 H 159.186 1.8071 1.81046 0
M  V30 1524 H 158.83 3.38881 3.78315 0
M  V30 1525 H 158.76 1.98487 4.87761 0
M  V30 1526 H 161.251 1.79006 3.32814 0
M  V30 1527 H 161.564 4.19932 6.4875 0
M  V30 1528 H 159.909 3.77073 5.83816 0
M  V30 1529 H 163.1 2.29116 4.08195 0
M  V30 1530 H 163.273 3.38961 5.52277 0
M  V30 1531 N 156.679 -1.44442 0.630414 0
M  V30 1532 C 157.904 -2.06927 0.139944 0
M  V30 1533 C 158.329 -1.46795 -1.17613 0
M  V30 1534 O 157.687 -0.569144 -1.72135 0
M  V30 1535 C 157.735 -3.6058 0.0379581 0
M  V30 1536 O 156.839 -3.99937 -1.0062 0
M  V30 1537 H 156.18 -0.658608 0.0844483 0
M  V30 1538 H 158.71 -1.85327 0.866891 0
M  V30 1539 H 158.72 -4.07714 -0.152856 0
M  V30 1540 H 157.395 -4.03728 0.998809 0
M  V30 1541 H 155.972 -3.64436 -0.79001 0
M  V30 1542 N 158.157 -0.370918 -1.53173 0
M  V30 1543 C 159.067 0.480823 -2.2962 0
M  V30 1544 C 160.083 1.08789 -1.35798 0
M  V30 1545 O 161.259 1.09768 -1.68858 0
M  V30 1546 C 158.324 1.60227 -3.07454 0
M  V30 1547 C 157.385 1.0222 -4.16953 0
M  V30 1548 C 156.618 2.0902 -4.91066 0
M  V30 1549 O 156.841 3.30222 -4.65091 0
M  V30 1550 O 155.775 1.71778 -5.76867 0
M  V30 1551 H 159.601 -0.141421 -3.03371 0
M  V30 1552 H 157.186 -0.135146 -1.48787 0
M  V30 1553 H 159.068 2.25417 -3.56041 0
M  V30 1554 H 157.743 2.20982 -2.36535 0
M  V30 1555 H 156.65 0.334064 -3.72605 0
M  V30 1556 H 157.983 0.459131 -4.90054 0
M  V30 1557 N 159.635 1.57281 -0.100228 0
M  V30 1558 C 160.863 1.98879 0.570509 0
M  V30 1559 C 161.278 0.979476 1.61405 0
M  V30 1560 O 160.635 -0.0302288 1.82475 0
M  V30 1561 C 160.686 3.4052 1.2136 0
M  V30 1562 O 160.407 4.37588 0.211786 0
M  V30 1563 C 161.908 3.97149 1.96945 0
M  V30 1564 H 159.128 0.653428 0.152555 0
M  V30 1565 H 161.672 2.03697 -0.18103 0
M  V30 1566 H 159.827 3.367 1.91603 0
M  V30 1567 H 160.241 5.20118 0.676607 0
M  V30 1568 H 161.715 4.98393 2.37294 0
M  V30 1569 H 162.192 3.3525 2.83733 0
M  V30 1570 H 162.798 4.04458 1.31506 0
M  V30 1571 N 161.113 -0.173488 1.56642 0
M  V30 1572 C 162.076 -1.19859 1.95362 0
M  V30 1573 C 163.076 -1.37296 0.83704 0
M  V30 1574 O 164.266 -1.34739 1.10413 0
M  V30 1575 C 161.398 -2.56405 2.24654 0
M  V30 1576 H 162.591 -0.867062 2.87092 0
M  V30 1577 H 160.144 -0.415853 1.50666 0
M  V30 1578 H 160.879 -2.94576 1.35631 0
M  V30 1579 H 160.664 -2.45115 3.06041 0
M  V30 1580 H 162.154 -3.30287 2.5554 0
M  V30 1581 N 162.591 -1.51276 -0.441967 0
M  V30 1582 C 164.007 -1.39349 -0.778083 0
M  V30 1583 C 164.207 -0.472212 -1.95889 0
M  V30 1584 O 163.263 0.0743551 -2.5239 0
M  V30 1585 C 164.576 -2.81292 -1.0628 0
M  V30 1586 C 166.124 -2.9041 -1.16751 0
M  V30 1587 C 166.599 -4.33251 -1.48519 0
M  V30 1588 N 168.09 -4.36336 -1.55453 0
M  V30 1589 C 168.825 -5.43885 -1.81596 0
M  V30 1590 N 168.321 -6.61601 -2.05562 0
M  V30 1591 N 170.114 -5.3136 -1.8334 0
M  V30 1592 H 162.265 -2.09729 0.335774 0
M  V30 1593 H 164.528 -0.943925 0.0878028 0
M  V30 1594 H 164.234 -3.50678 -0.267905 0
M  V30 1595 H 164.108 -3.20334 -1.99163 0
M  V30 1596 H 166.495 -2.21225 -1.95304 0
M  V30 1597 H 166.576 -2.54871 -0.217801 0
M  V30 1598 H 166.22 -5.02984 -0.704958 0
M  V30 1599 H 166.15 -4.66299 -2.44689 0
M  V30 1600 H 168.641 -3.51466 -1.38853 0
M  V30 1601 H 168.954 -7.39361 -2.24867 0
M  V30 1602 H 167.299 -6.64725 -2.02894 0
M  V30 1603 H 170.49 -4.38382 -1.64132 0
M  V30 1604 H 170.663 -6.15258 -2.03377 0
M  V30 1605 N 164.069 0.697108 -1.41344 0
M  V30 1606 C 165.032 1.79281 -1.42797 0
M  V30 1607 C 166.032 1.57607 -0.318837 0
M  V30 1608 O 167.222 1.64309 -0.578642 0
M  V30 1609 C 164.354 3.17632 -1.23785 0
M  V30 1610 H 165.547 1.79385 -2.40335 0
M  V30 1611 H 163.1 0.904582 -1.27464 0
M  V30 1612 H 163.835 3.23167 -0.270814 0
M  V30 1613 H 163.62 3.34765 -2.04144 0
M  V30 1614 H 165.11 3.97617 -1.27633 0
M  V30 1615 N 165.547 1.27147 0.931209 0
M  V30 1616 C 166.51 1.09615 2.01289 0
M  V30 1617 C 167.51 0.0412581 1.60747 0
M  V30 1618 O 168.7 0.285545 1.71844 0
M  V30 1619 C 165.832 0.669447 3.34262 0
M  V30 1620 H 167.025 2.05662 2.18273 0
M  V30 1621 H 164.578 1.09885 1.11153 0
M  V30 1622 H 165.313 -0.292572 3.22978 0
M  V30 1623 H 165.098 1.43127 3.65044 0
M  V30 1624 H 166.588 0.568921 4.13706 0
M  V30 1625 N 167.025 -1.13721 1.09112 0
M  V30 1626 C 168.302 -1.81155 0.737706 0
M  V30 1627 C 168.682 -1.96253 -0.777683 0
M  V30 1628 O 168.03 -1.52807 -1.69889 0
M  V30 1629 C 168.24 -3.16392 1.47299 0
M  V30 1630 C 169.588 -3.91787 1.63671 0
M  V30 1631 O 170.612 -3.26005 1.43524 0
M  V30 1632 O 169.471 -5.0977 1.96969 0
M  V30 1633 H 166.565 -0.783518 0.26463 0
M  V30 1634 H 169.111 -1.20676 1.19312 0
M  V30 1635 H 167.883 -3.0061 2.50498 0
M  V30 1636 H 167.506 -3.8457 1.00953 0
M  V30 1637 N 168.503 -0.877838 -1.30888 0
M  V30 1638 C 169.436 -0.283995 -2.26426 0
M  V30 1639 C 170.414 0.591361 -1.51465 0
M  V30 1640 O 171.598 0.54304 -1.80509 0
M  V30 1641 C 168.725 0.597129 -3.33395 0
M  V30 1642 C 167.771 -0.207937 -4.25993 0
M  V30 1643 S 168.604 -1.59158 -5.11301 0
M  V30 1644 C 169.76 -0.716791 -6.21782 0
M  V30 1645 H 169.993 -1.09383 -2.76446 0
M  V30 1646 H 167.526 -0.676828 -1.38775 0
M  V30 1647 H 169.484 1.09978 -3.95493 0
M  V30 1648 H 168.145 1.38099 -2.82113 0
M  V30 1649 H 167.338 0.464163 -5.01858 0
M  V30 1650 H 166.94 -0.642963 -3.68432 0
M  V30 1651 H 169.232 0.0692833 -6.77465 0
M  V30 1652 H 170.175 -1.44682 -6.93161 0
M  V30 1653 H 170.583 -0.280855 -5.63801 0
M  V30 1654 N 169.982 1.44106 -0.638065 0
M  V30 1655 C 171.259 1.95453 -0.0759321 0
M  V30 1656 C 171.639 1.57984 1.40015 0
M  V30 1657 O 170.987 0.857361 2.11806 0
M  V30 1658 C 171.197 3.47655 -0.306132 0
M  V30 1659 C 172.545 4.24114 -0.203008 0
M  V30 1660 O 173.569 3.55405 -0.237871 0
M  V30 1661 O 172.428 5.46381 -0.113827 0
M  V30 1662 H 169.522 0.826797 0.0183332 0
M  V30 1663 H 172.068 1.54122 -0.710251 0
M  V30 1664 H 170.84 3.68 -1.3301 0
M  V30 1665 H 170.463 3.95949 0.361991 0
M  V30 1666 N 171.46 0.379036 1.52974 0
M  V30 1667 C 172.69 -0.20649 2.05566 0
M  V30 1668 C 173.098 -1.41906 1.25137 0
M  V30 1669 O 172.441 -1.81421 0.288464 0
M  V30 1670 C 172.503 -0.651086 3.53555 0
M  V30 1671 C 172.167 0.446626 4.54812 0
M  V30 1672 C 173.164 1.30079 5.03364 0
M  V30 1673 C 170.849 0.610719 4.98573 0
M  V30 1674 C 172.843 2.30426 5.94292 0
M  V30 1675 C 170.53 1.61754 5.89304 0
M  V30 1676 C 171.528 2.46274 6.37054 0
M  V30 1677 O 171.216 3.45237 7.25994 0
M  V30 1678 H 170.948 -0.0372381 0.674974 0
M  V30 1679 H 173.502 0.539718 1.98182 0
M  V30 1680 H 171.732 -1.44911 3.58522 0
M  V30 1681 H 173.421 -1.16112 3.88938 0
M  V30 1682 H 174.187 1.18527 4.70294 0
M  V30 1683 H 170.066 -0.0374044 4.60985 0
M  V30 1684 H 173.61 2.96432 6.31485 0
M  V30 1685 H 169.507 1.73348 6.21788 0
M  V30 1686 H 170.275 3.41124 7.44027 0
M  V30 1687 N 172.938 -1.57226 0.108567 0
M  V30 1688 C 174.168 -1.9889 -0.559142 0
M  V30 1689 C 174.576 -0.986889 -1.61422 0
M  V30 1690 O 173.919 0.0298705 -1.83676 0
M  V30 1691 C 173.981 -3.36952 -1.25315 0
M  V30 1692 C 173.645 -4.55679 -0.347248 0
M  V30 1693 C 174.642 -5.18281 0.409996 0
M  V30 1694 C 172.327 -5.0162 -0.261367 0
M  V30 1695 C 174.321 -6.25203 1.24096 0
M  V30 1696 C 172.008 -6.08405 0.573238 0
M  V30 1697 C 173.006 -6.70063 1.32304 0
M  V30 1698 O 172.694 -7.74788 2.14381 0
M  V30 1699 H 172.426 -0.658343 -0.153492 0
M  V30 1700 H 174.98 -2.04532 0.188584 0
M  V30 1701 H 173.21 -3.28032 -2.04773 0
M  V30 1702 H 174.899 -3.62974 -1.81673 0
M  V30 1703 H 175.665 -4.8371 0.353457 0
M  V30 1704 H 171.544 -4.53381 -0.834656 0
M  V30 1705 H 175.088 -6.73259 1.82669 0
M  V30 1706 H 170.985 -6.42406 0.631208 0
M  V30 1707 H 171.753 -7.91837 2.07209 0
M  V30 1708 N 174.416 0.165178 -1.56732 0
M  V30 1709 C 175.664 0.879068 -1.8198 0
M  V30 1710 C 175.985 1.82514 -0.686561 0
M  V30 1711 O 175.255 1.93694 0.293146 0
M  V30 1712 H 173.835 0.327608 -0.671329 0
M  V30 1713 H 176.497 0.163526 -1.94213 0
M  V30 1714 H 175.593 1.45228 -2.76252 0
M  V30 1715 N 175.894 1.51508 0.433938 0
M  V30 1716 C 177.31 1.39759 0.770682 0
M  V30 1717 C 177.51 0.482594 1.95636 0
M  V30 1718 O 176.566 -0.0609691 2.52426 0
M  V30 1719 C 177.879 2.81851 1.04787 0
M  V30 1720 C 179.427 2.91025 1.1521 0
M  V30 1721 C 179.902 4.34032 1.46219 0
M  V30 1722 N 181.393 4.37154 1.53136 0
M  V30 1723 C 182.128 5.4484 1.78709 0
M  V30 1724 N 181.624 6.62682 2.02051 0
M  V30 1725 N 183.417 5.32324 1.80519 0
M  V30 1726 H 175.568 2.09548 -0.346892 0
M  V30 1727 H 177.831 0.943446 -0.0928074 0
M  V30 1728 H 177.537 3.50815 0.249304 0
M  V30 1729 H 177.411 3.21386 1.97461 0
M  V30 1730 H 179.798 2.22257 1.94128 0
M  V30 1731 H 179.879 2.54983 0.204281 0
M  V30 1732 H 179.523 5.03351 0.678274 0
M  V30 1733 H 179.453 4.6759 2.42212 0
M  V30 1734 H 181.944 3.52197 1.36987 0
M  V30 1735 H 182.257 7.40543 2.20943 0
M  V30 1736 H 180.602 6.65791 1.99366 0
M  V30 1737 H 183.793 4.39246 1.61805 0
M  V30 1738 H 183.966 6.16328 2.00111 0
M  V30 1739 N 177.372 -0.689602 1.41712 0
M  V30 1740 C 178.62 -1.4468 1.4111 0
M  V30 1741 C 178.941 -1.94986 0.0232196 0
M  V30 1742 O 178.211 -1.72097 -0.935913 0
M  V30 1743 H 176.791 -0.536847 0.519427 0
M  V30 1744 H 179.453 -0.815825 1.77004 0
M  V30 1745 H 178.549 -2.30706 2.10193 0
M  V30 1746 N 178.85 -1.27639 -0.924453 0
M  V30 1747 C 180.127 -1.04887 -1.651 0
M  V30 1748 C 180.507 0.415327 -2.06974 0
M  V30 1749 O 179.855 1.39923 -1.80648 0
M  V30 1750 C 180.065 -2.01348 -2.85061 0
M  V30 1751 C 181.413 -2.30899 -3.56329 0
M  V30 1752 O 182.437 -1.99348 -2.95193 0
M  V30 1753 O 181.296 -2.84699 -4.66485 0
M  V30 1754 H 178.39 -0.400083 -0.723784 0
M  V30 1755 H 180.936 -1.38916 -0.974703 0
M  V30 1756 H 179.708 -3.0008 -2.51133 0
M  V30 1757 H 179.331 -1.679 -3.6041 0
M  V30 1758 N 180.328 1.1314 -1.09713 0
M  V30 1759 C 181.238 2.22242 -0.751367 0
M  V30 1760 C 182.254 1.72224 0.247938 0
M  V30 1761 O 183.43 2.01205 0.0885463 0
M  V30 1762 C 180.495 3.46231 -0.180274 0
M  V30 1763 C 179.556 4.11125 -1.2359 0
M  V30 1764 C 178.789 5.29195 -0.691966 0
M  V30 1765 O 179.012 5.68342 0.48414 0
M  V30 1766 O 177.946 5.84214 -1.44838 0
M  V30 1767 H 181.772 2.54197 -1.66186 0
M  V30 1768 H 179.357 1.21331 -0.871735 0
M  V30 1769 H 181.239 4.21185 0.134739 0
M  V30 1770 H 179.914 3.1597 0.703185 0
M  V30 1771 H 178.821 3.37985 -1.60366 0
M  V30 1772 H 180.154 4.45524 -2.09211 0
M  V30 1773 N 181.806 0.884767 1.30421 0
M  V30 1774 C 183.222 0.57874 1.48737 0
M  V30 1775 C 183.422 -0.883567 1.81095 0
M  V30 1776 O 182.478 -1.6648 1.89844 0
M  V30 1777 C 183.791 1.49171 2.61091 0
M  V30 1778 C 185.339 1.49532 2.74971 0
M  V30 1779 C 185.814 2.39421 3.90438 0
M  V30 1780 N 187.305 2.37383 3.97748 0
M  V30 1781 C 188.04 3.03647 4.86401 0
M  V30 1782 N 187.536 3.79136 5.79852 0
M  V30 1783 N 189.329 2.9288 4.79768 0
M  V30 1784 H 181.48 1.83075 1.0769 0
M  V30 1785 H 183.743 0.783637 0.533495 0
M  V30 1786 H 183.449 2.53291 2.44001 0
M  V30 1787 H 183.323 1.20113 3.57565 0
M  V30 1788 H 185.71 0.46163 2.91467 0
M  V30 1789 H 185.791 1.8262 1.79119 0
M  V30 1790 H 185.435 3.42874 3.74699 0
M  V30 1791 H 185.365 2.03649 4.85628 0
M  V30 1792 H 187.856 1.82525 3.30897 0
M  V30 1793 H 188.169 4.26789 6.4426 0
M  V30 1794 H 186.514 3.83243 5.79784 0
M  V30 1795 H 189.705 2.33433 4.05742 0
M  V30 1796 H 189.878 3.448 5.4865 0
M  V30 1797 N 183.284 -1.43765 0.645699 0
M  V30 1798 C 184.514 -2.05953 0.163318 0
M  V30 1799 C 184.922 -1.48432 -1.17322 0
M  V30 1800 O 184.265 -0.607295 -1.73371 0
M  V30 1801 C 184.327 -3.59499 -0.0103065 0
M  V30 1802 C 183.991 -4.39563 1.25035 0
M  V30 1803 C 184.988 -4.72108 2.17739 0
M  V30 1804 C 182.673 -4.79697 1.48983 0
M  V30 1805 C 184.667 -5.43688 3.3269 0
M  V30 1806 C 182.354 -5.51023 2.64229 0
M  V30 1807 C 183.352 -5.8294 3.55908 0
M  V30 1808 O 183.04 -6.5281 4.69142 0
M  V30 1809 H 182.772 -0.670798 0.0836986 0
M  V30 1810 H 185.326 -1.85384 0.884407 0
M  V30 1811 H 183.556 -3.78613 -0.78669 0
M  V30 1812 H 185.245 -4.03408 -0.449087 0
M  V30 1813 H 186.011 -4.41627 2.00476 0
M  V30 1814 H 181.89 -4.54266 0.785078 0
M  V30 1815 H 185.434 -5.68517 4.04269 0
M  V30 1816 H 181.331 -5.8092 2.81429 0
M  V30 1817 H 182.099 -6.71288 4.6831 0
M  V30 1818 N 184.763 -0.387143 -1.52771 0
M  V30 1819 C 185.711 0.463953 -2.27926 0
M  V30 1820 C 186.705 1.06493 -1.31741 0
M  V30 1821 O 187.911 1.00565 -1.49287 0
M  V30 1822 H 184.286 0.16837 -0.732909 0
M  V30 1823 H 186.257 -0.19141 -2.97785 0
M  V30 1824 C 185.006 1.5803 -3.09713 0
M  V30 1825 H 184.329 1.12718 -3.83581 0
M  V30 1826 H 185.769 2.15008 -3.65442 0
M  V30 1827 C 184.228 2.53509 -2.2189 0
M  V30 1828 O 184.758 3.56863 -1.84422 0
M  V30 1829 N 182.964 2.23199 -1.86093 0
M  V30 1830 H 182.511 1.39185 -2.16761 0
M  V30 1831 H 182.469 2.87333 -1.27621 0
M  V30 1832 N 186.241 1.57166 -0.116904 0
M  V30 1833 C 187.466 1.999 0.55271 0
M  V30 1834 C 187.891 0.996039 1.59564 0
M  V30 1835 O 187.249 -0.032556 1.81271 0
M  V30 1836 C 187.297 3.4152 1.15742 0
M  V30 1837 O 186.401 3.44106 2.27299 0
M  V30 1838 H 185.742 0.649447 0.138258 0
M  V30 1839 H 188.272 2.03573 -0.204759 0
M  V30 1840 H 188.282 3.79684 1.49346 0
M  V30 1841 H 186.957 4.14034 0.393493 0
M  V30 1842 H 185.534 3.17759 1.9515 0
M  V30 1843 N 187.719 -0.156864 1.56817 0
M  V30 1844 C 188.949 -0.885031 1.86684 0
M  V30 1845 C 189.357 -1.75696 0.701954 0
M  V30 1846 O 188.7 -1.80569 -0.337732 0
M  V30 1847 C 188.762 -1.80092 3.11138 0
M  V30 1848 C 188.426 -1.10714 4.43386 0
M  V30 1849 C 189.423 -0.465714 5.1781 0
M  V30 1850 C 187.108 -1.09959 4.90117 0
M  V30 1851 C 189.102 0.174002 6.37162 0
M  V30 1852 C 186.789 -0.456055 6.09396 0
M  V30 1853 C 187.787 0.179622 6.82764 0
M  V30 1854 O 187.475 0.812975 7.99779 0
M  V30 1855 H 187.207 -0.261813 0.623242 0
M  V30 1856 H 189.761 -0.157383 2.04796 0
M  V30 1857 H 187.991 -2.56926 2.89009 0
M  V30 1858 H 189.68 -2.40018 3.27332 0
M  V30 1859 H 190.446 -0.463427 4.82781 0
M  V30 1860 H 186.325 -1.58378 4.3294 0
M  V30 1861 H 189.869 0.670765 6.94368 0
M  V30 1862 H 185.766 -0.455975 6.43888 0
M  V30 1863 H 186.534 0.71366 8.15383 0
M  V30 1864 N 189.197 -1.51736 -0.425897 0
M  V30 1865 C 190.16 -1.73271 -1.50032 0
M  V30 1866 C 191.16 -0.602639 -1.4908 0
M  V30 1867 O 192.35 -0.87033 -1.509 0
M  V30 1868 C 189.482 -1.79969 -2.89523 0
M  V30 1869 H 190.675 -2.69172 -1.32237 0
M  V30 1870 H 188.228 -1.41899 -0.65532 0
M  V30 1871 H 188.963 -0.859241 -3.1271 0
M  V30 1872 H 188.748 -2.62109 -2.91619 0
M  V30 1873 H 190.238 -1.9843 -3.67444 0
M  V30 1874 N 190.675 0.682077 -1.42076 0
M  V30 1875 C 191.952 1.43755 -1.32642 0
M  V30 1876 C 192.332 2.11063 0.0396611 0
M  V30 1877 O 191.68 2.02701 1.05474 0
M  V30 1878 C 191.89 2.44596 -2.48946 0
M  V30 1879 C 193.238 3.09454 -2.9073 0
M  V30 1880 O 194.262 2.54922 -2.48783 0
M  V30 1881 O 193.121 4.08253 -3.63307 0
M  V30 1882 H 190.215 0.640857 -0.522715 0
M  V30 1883 H 192.761 0.711415 -1.54068 0
M  V30 1884 H 191.533 1.93609 -3.40046 0
M  V30 1885 H 191.156 3.24701 -2.29467 0
M  V30 1886 N 192.153 1.28127 0.917671 0
M  V30 1887 C 193.378 1.18007 1.70555 0
M  V30 1888 C 193.803 -0.258257 1.86319 0
M  V30 1889 O 193.161 -1.1869 1.37049 0
M  V30 1890 C 193.209 1.87948 3.07746 0
M  V30 1891 O 192.313 1.18427 3.9503 0
M  V30 1892 H 191.654 0.409867 0.522403 0
M  V30 1893 H 194.184 1.69379 1.1477 0
M  V30 1894 H 194.194 1.95701 3.58001 0
M  V30 1895 H 192.869 2.92573 2.95591 0
M  V30 1896 H 191.446 1.18811 3.53466 0
M  V30 1897 N 193.631 -1.12557 1.10312 0
M  V30 1898 C 194.563 -2.17971 0.708625 0
M  V30 1899 C 195.576 -1.60806 -0.254027 0
M  V30 1900 O 196.765 -1.78458 -0.0386891 0
M  V30 1901 C 193.865 -3.38891 0.0248198 0
M  V30 1902 C 193.038 -4.25548 1.01132 0
M  V30 1903 C 192.097 -5.24972 0.35924 0
M  V30 1904 O 191.123 -5.60174 1.00965 0
M  V30 1905 N 192.325 -5.73747 -0.882847 0
M  V30 1906 H 195.09 -2.52427 1.61557 0
M  V30 1907 H 192.651 -1.27967 0.991771 0
M  V30 1908 H 194.643 -4.02485 -0.422852 0
M  V30 1909 H 193.213 -3.02596 -0.784514 0
M  V30 1910 H 192.433 -3.58589 1.6373 0
M  V30 1911 H 193.721 -4.80294 1.67914 0
M  V30 1912 H 193.119 -5.4731 -1.43065 0
M  V30 1913 H 191.676 -6.39234 -1.27369 0
M  V30 1914 N 195.109 -0.891671 -1.2995 0
M  V30 1915 C 196.339 -0.527893 -1.99742 0
M  V30 1916 C 196.747 0.88979 -1.66971 0
M  V30 1917 O 196.09 1.59766 -0.906667 0
M  V30 1918 C 196.152 -0.630804 -3.53922 0
M  V30 1919 C 195.816 -2.01401 -4.10228 0
M  V30 1920 C 196.813 -2.98422 -4.25724 0
M  V30 1921 C 194.498 -2.32121 -4.45449 0
M  V30 1922 C 196.492 -4.24293 -4.75662 0
M  V30 1923 C 194.179 -3.58237 -4.95086 0
M  V30 1924 C 195.177 -4.54137 -5.10146 0
M  V30 1925 O 194.865 -5.78014 -5.58708 0
M  V30 1926 H 194.597 -0.201953 -0.645129 0
M  V30 1927 H 197.151 -1.20076 -1.66646 0
M  V30 1928 H 195.381 0.0990616 -3.86573 0
M  V30 1929 H 197.07 -0.277338 -4.04951 0
M  V30 1930 H 197.836 -2.76001 -3.98809 0
M  V30 1931 H 193.715 -1.5824 -4.32991 0
M  V30 1932 H 197.259 -4.99153 -4.87332 0
M  V30 1933 H 193.156 -3.80491 -5.21437 0
M  V30 1934 H 193.924 -5.8049 -5.77039 0
M  V30 1935 N 196.587 1.43421 -0.653314 0
M  V30 1936 C 197.55 2.29182 0.0287951 0
M  V30 1937 C 198.55 1.42213 0.750465 0
M  V30 1938 O 199.74 1.63843 0.591701 0
M  V30 1939 C 196.872 3.24278 1.05151 0
M  V30 1940 H 198.065 2.90985 -0.725786 0
M  V30 1941 H 195.618 1.50702 -0.414545 0
M  V30 1942 H 196.353 2.6737 1.83532 0
M  V30 1943 H 196.138 3.88396 0.537687 0
M  V30 1944 H 197.628 3.88647 1.52786 0
M  V30 1945 N 198.065 0.39524 1.52563 0
M  V30 1946 C 199.313 -0.184678 2.01254 0
M  V30 1947 C 199.634 -1.46822 1.28329 0
M  V30 1948 O 198.904 -1.91666 0.405094 0
M  V30 1949 H 197.484 -0.0712355 0.743596 0
M  V30 1950 H 200.146 0.528293 1.87603 0
M  V30 1951 H 199.242 -0.390681 3.09645 0
M  V30 1952 N 199.544 -1.57102 0.125237 0
M  V30 1953 C 200.96 -1.57915 -0.231322 0
M  V30 1954 C 201.16 -1.13833 -1.66266 0
M  V30 1955 O 200.216 -0.828581 -2.38518 0
M  V30 1956 C 201.529 -3.00699 0.00766489 0
M  V30 1957 C 203.077 -3.12947 -0.0577483 0
M  V30 1958 C 203.552 -4.57742 0.153626 0
M  V30 1959 N 205.043 -4.63092 0.0998073 0
M  V30 1960 C 205.778 -5.72905 0.238174 0
M  V30 1961 N 205.274 -6.91445 0.433057 0
M  V30 1962 N 207.067 -5.6182 0.177308 0
M  V30 1963 H 199.218 -1.84055 1.06007 0
M  V30 1964 H 201.481 -0.850905 0.417929 0
M  V30 1965 H 201.187 -3.3726 0.997431 0
M  V30 1966 H 201.061 -3.70236 -0.721452 0
M  V30 1967 H 203.448 -2.7624 -1.03804 0
M  V30 1968 H 203.529 -2.4594 0.70335 0
M  V30 1969 H 203.173 -4.95149 1.13092 0
M  V30 1970 H 203.103 -5.22848 -0.627534 0
M  V30 1971 H 205.594 -3.77871 -0.047051 0
M  V30 1972 H 205.907 -7.70985 0.529332 0
M  V30 1973 H 204.252 -6.93415 0.469109 0
M  V30 1974 H 207.443 -4.68093 0.0259748 0
M  V30 1975 H 207.616 -6.47357 0.288582 0
M  V30 1976 N 201.022 0.148545 -1.56898 0
M  V30 1977 C 202.27 0.859717 -1.82902 0
M  V30 1978 C 202.591 1.81775 -0.70588 0
M  V30 1979 O 201.861 1.93994 0.272586 0
M  V30 1980 H 200.441 0.320469 -0.674766 0
M  V30 1981 H 203.103 0.142918 -1.94375 0
M  V30 1982 H 202.199 1.4229 -2.77777 0
M  V30 1983 N 202.5 1.5196 0.417844 0
M  V30 1984 C 203.73 1.69181 1.18581 0
M  V30 1985 C 204.138 0.397104 1.84986 0
M  V30 1986 O 203.481 -0.636011 1.72339 0
M  V30 1987 C 203.543 2.76497 2.29759 0
M  V30 1988 C 203.207 4.18514 1.83563 0
M  V30 1989 C 204.204 5.02648 1.32821 0
M  V30 1990 C 201.889 4.64708 1.90661 0
M  V30 1991 C 203.883 6.31044 0.897894 0
M  V30 1992 C 201.57 5.93096 1.47241 0
M  V30 1993 C 202.568 6.76093 0.968891 0
M  V30 1994 O 202.256 8.02078 0.540924 0
M  V30 1995 H 201.988 0.570457 0.362705 0
M  V30 1996 H 204.542 1.99249 0.498885 0
M  V30 1997 H 202.772 2.41786 3.01789 0
M  V30 1998 H 204.461 2.82403 2.91553 0
M  V30 1999 H 205.227 4.68154 1.26716 0
M  V30 2000 H 201.106 4.00216 2.28797 0
M  V30 2001 H 204.65 6.95776 0.504192 0
M  V30 2002 H 200.547 6.271 1.53022 0
M  V30 2003 H 201.315 8.15794 0.66502 0
M  V30 2004 N 203.978 -0.674533 1.42435 0
M  V30 2005 C 204.926 -1.80934 1.46169 0
M  V30 2006 C 205.92 -1.66006 0.3374 0
M  V30 2007 O 207.126 -1.72611 0.510425 0
M  V30 2008 H 203.501 -0.596594 0.457798 0
M  V30 2009 H 205.472 -1.74903 2.41767 0
M  V30 2010 C 204.221 -3.19088 1.38123 0
M  V30 2011 H 203.544 -3.31203 2.23931 0
M  V30 2012 H 204.984 -3.9851 1.44797 0
M  V30 2013 C 203.443 -3.36763 0.0960517 0
M  V30 2014 O 203.973 -3.92581 -0.851073 0
M  V30 2015 N 202.179 -2.90597 0.0131186 0
M  V30 2016 H 201.726 -2.45359 0.784639 0
M  V30 2017 H 201.684 -3.028 -0.846133 0
M  V30 2018 N 205.456 -1.28612 -0.910864 0
M  V30 2019 C 206.704 -1.15705 -1.65701 0
M  V30 2020 C 207.025 0.29416 -1.92769 0
M  V30 2021 O 206.295 1.20331 -1.54588 0
M  V30 2022 H 204.875 -0.425216 -0.614167 0
M  V30 2023 H 207.537 -1.61381 -1.0928 0
M  V30 2024 H 206.633 -1.6988 -2.61815 0
M  V30 2025 N 206.934 1.1197 -1.10907 0
M  V30 2026 C 208.164 1.8713 -0.875553 0
M  V30 2027 C 208.572 1.8016 0.577843 0
M  V30 2028 O 207.915 1.17699 1.41042 0
M  V30 2029 C 207.977 3.37005 -1.2517 0
M  V30 2030 C 207.641 3.67748 -2.71313 0
M  V30 2031 C 208.638 3.65698 -3.69542 0
M  V30 2032 C 206.323 3.96928 -3.07821 0
M  V30 2033 C 208.317 3.92395 -5.023 0
M  V30 2034 C 206.004 4.23284 -4.40765 0
M  V30 2035 C 207.002 4.21005 -5.37814 0
M  V30 2036 O 206.69 4.46704 -6.68364 0
M  V30 2037 H 206.422 0.598786 -0.313737 0
M  V30 2038 H 208.976 1.42568 -1.47863 0
M  V30 2039 H 207.206 3.82146 -0.591741 0
M  V30 2040 H 208.895 3.93519 -0.994877 0
M  V30 2041 H 209.661 3.43211 -3.42682 0
M  V30 2042 H 205.54 3.97841 -2.32902 0
M  V30 2043 H 209.084 3.90531 -5.78041 0
M  V30 2044 H 204.981 4.45246 -4.67361 0
M  V30 2045 H 205.749 4.64299 -6.74069 0
M  V30 2046 N 208.412 0.89855 1.29475 0
M  V30 2047 C 209.828 0.594483 1.48115 0
M  V30 2048 C 210.028 -0.86431 1.82022 0
M  V30 2049 O 209.084 -1.64457 1.91599 0
M  V30 2050 C 210.397 1.51932 2.59494 0
M  V30 2051 C 211.945 1.5244 2.7337 0
M  V30 2052 C 212.42 2.43548 3.87877 0
M  V30 2053 N 213.911 2.41589 3.95208 0
M  V30 2054 C 214.646 3.08789 4.83153 0
M  V30 2055 N 214.142 3.85265 5.75798 0
M  V30 2056 N 215.935 2.97952 4.76635 0
M  V30 2057 H 208.086 1.84207 1.05742 0
M  V30 2058 H 210.349 0.789251 0.525154 0
M  V30 2059 H 210.055 2.55865 2.41301 0
M  V30 2060 H 209.929 1.23899 3.56271 0
M  V30 2061 H 212.316 0.492518 2.90961 0
M  V30 2062 H 212.397 1.8451 1.77172 0
M  V30 2063 H 212.041 3.46829 3.71041 0
M  V30 2064 H 211.971 2.08788 4.83441 0
M  V30 2065 H 214.462 1.86025 3.28943 0
M  V30 2066 H 214.775 4.33598 6.39697 0
M  V30 2067 H 213.12 3.89371 5.75687 0
M  V30 2068 H 216.311 2.37723 4.03244 0
M  V30 2069 H 216.484 3.50599 5.44962 0
M  V30 2070 N 209.89 -1.43072 0.660911 0
M  V30 2071 C 211.301 -1.84932 0.256348 0
M  V30 2072 C 211.652 -1.55325 -1.19868 0
M  V30 2073 O 210.777 -1.00607 -1.91591 0
M  V30 2074 C 211.372 -3.35684 0.458475 0
M  V30 2075 C 209.931 -3.76245 0.108161 0
M  V30 2076 C 209.078 -2.66749 0.757641 0
M  V30 2077 H 212.029 -1.33116 0.864051 0
M  V30 2078 H 212.05 -3.79365 -0.293683 0
M  V30 2079 H 211.562 -3.572 1.51755 0
M  V30 2080 H 209.663 -3.60338 -0.948014 0
M  V30 2081 H 209.776 -4.76058 0.538992 0
M  V30 2082 H 208.14 -2.53989 0.190185 0
M  V30 2083 H 208.923 -2.91092 1.81989 0
M  V30 2084 N 211.368 -0.403325 -1.52352 0
M  V30 2085 C 212.779 0.0675782 -1.86578 0
M  V30 2086 C 213.13 1.44941 -1.32236 0
M  V30 2087 O 212.255 2.06112 -0.659307 0
M  V30 2088 C 212.85 0.129404 -3.38553 0
M  V30 2089 C 211.409 0.544629 -3.72439 0
M  V30 2090 C 210.556 -0.284551 -2.75836 0
M  V30 2091 H 213.507 -0.620631 -1.46061 0
M  V30 2092 H 213.528 0.94581 -3.68558 0
M  V30 2093 H 213.04 -0.87645 -3.78074 0
M  V30 2094 H 211.141 1.55734 -3.38493 0
M  V30 2095 H 211.254 0.293046 -4.78203 0
M  V30 2096 H 209.618 0.252258 -2.53448 0
M  V30 2097 H 210.401 -1.28865 -3.18196 0
M  V30 2098 N 212.846 1.57033 -0.133567 0
M  V30 2099 C 214.071 2.00475 0.531477 0
M  V30 2100 C 214.496 1.01291 1.58499 0
M  V30 2101 O 213.854 -0.0133279 1.81295 0
M  V30 2102 C 213.902 3.42729 1.12113 0
M  V30 2103 O 213.006 3.46498 2.23636 0
M  V30 2104 H 212.347 0.650876 0.131362 0
M  V30 2105 H 214.877 2.03344 -0.22634 0
M  V30 2106 H 214.887 3.81246 1.4531 0
M  V30 2107 H 213.562 4.14428 0.349557 0
M  V30 2108 H 212.139 3.19811 1.91769 0
M  V30 2109 N 214.325 -0.140222 1.56975 0
M  V30 2110 C 215.55 -0.870414 1.88251 0
M  V30 2111 C 215.975 -1.73637 0.723312 0
M  V30 2112 O 215.333 -1.78329 -0.32689 0
M  V30 2113 C 215.381 -1.69737 3.18154 0
M  V30 2114 O 214.485 -2.80229 3.02565 0
M  V30 2115 H 213.826 -0.242025 0.61832 0
M  V30 2116 H 216.356 -0.128999 2.04193 0
M  V30 2117 H 216.366 -2.09099 3.50345 0
M  V30 2118 H 215.041 -1.06152 4.02125 0
M  V30 2119 H 213.618 -2.44224 2.81796 0
M  V30 2120 N 215.803 -1.52179 -0.40978 0
M  V30 2121 C 216.735 -1.71703 -1.51825 0
M  V30 2122 C 217.748 -0.597445 -1.51441 0
M  V30 2123 O 218.937 -0.872582 -1.55719 0
M  V30 2124 C 216.037 -1.74171 -2.90719 0
M  V30 2125 C 215.21 -3.03156 -3.15302 0
M  V30 2126 C 214.269 -2.97445 -4.34065 0
M  V30 2127 O 213.295 -3.71352 -4.31377 0
M  V30 2128 N 214.497 -2.15191 -5.39141 0
M  V30 2129 H 217.262 -2.67334 -1.35472 0
M  V30 2130 H 214.823 -1.50409 -0.599069 0
M  V30 2131 H 216.815 -1.67884 -3.68235 0
M  V30 2132 H 215.385 -0.860166 -3.00533 0
M  V30 2133 H 214.605 -3.23097 -2.25836 0
M  V30 2134 H 215.893 -3.88484 -3.28569 0
M  V30 2135 H 215.291 -1.54573 -5.44173 0
M  V30 2136 H 213.848 -2.1476 -6.15403 0
M  V30 2137 N 217.281 0.66697 -1.42791 0
M  V30 2138 C 218.527 1.4291 -1.43891 0
M  V30 2139 C 218.86 1.94114 -0.0578972 0
M  V30 2140 O 218.135 1.71414 0.91911 0
M  V30 2141 C 218.418 2.62049 -2.46987 0
M  V30 2142 C 218.271 2.16426 -3.94309 0
M  V30 2143 C 219.59 3.64266 -2.46978 0
M  V30 2144 H 216.709 0.518306 -0.523954 0
M  V30 2145 H 219.351 0.757321 -1.74255 0
M  V30 2146 H 217.501 3.19361 -2.21225 0
M  V30 2147 H 219.173 1.64221 -4.31079 0
M  V30 2148 H 217.416 1.47925 -4.078 0
M  V30 2149 H 218.087 3.02038 -4.62036 0
M  V30 2150 H 220.563 3.16686 -2.69906 0
M  V30 2151 H 219.439 4.45196 -3.21079 0
M  V30 2152 H 219.7 4.15927 -1.49857 0
M  V30 2153 N 218.759 1.29093 0.90403 0
M  V30 2154 C 219.984 1.19809 1.69294 0
M  V30 2155 C 220.409 -0.238481 1.86582 0
M  V30 2156 O 219.767 -1.1723 1.383 0
M  V30 2157 C 219.815 1.91202 3.05736 0
M  V30 2158 O 218.919 1.22611 3.93752 0
M  V30 2159 H 218.26 0.415385 0.518027 0
M  V30 2160 H 220.79 1.70586 1.12967 0
M  V30 2161 H 220.8 1.99487 3.55906 0
M  V30 2162 H 219.475 2.95692 2.92471 0
M  V30 2163 H 218.052 1.22554 3.52186 0
M  V30 2164 N 220.237 -1.11381 1.11499 0
M  V30 2165 C 221.467 -1.86663 0.885464 0
M  V30 2166 C 221.875 -1.80464 -0.568281 0
M  V30 2167 O 221.218 -1.18445 -1.40415 0
M  V30 2168 C 221.28 -3.36337 1.26956 0
M  V30 2169 C 220.944 -3.66304 2.73259 0
M  V30 2170 C 221.941 -3.63733 3.71476 0
M  V30 2171 C 219.626 -3.9529 3.09921 0
M  V30 2172 C 221.62 -3.89725 5.04374 0
M  V30 2173 C 219.307 -4.20941 4.43004 0
M  V30 2174 C 220.305 -4.18147 5.40039 0
M  V30 2175 O 219.993 -4.43153 6.70724 0
M  V30 2176 H 219.725 -0.597114 0.316908 0
M  V30 2177 H 222.279 -1.41782 1.48617 0
M  V30 2178 H 220.509 -3.81826 0.611999 0
M  V30 2179 H 222.198 -3.92986 1.01573 0
M  V30 2180 H 222.964 -3.41389 3.44498 0
M  V30 2181 H 218.843 -3.966 2.35009 0
M  V30 2182 H 222.387 -3.8746 5.80104 0
M  V30 2183 H 218.284 -4.42761 4.69716 0
M  V30 2184 H 219.052 -4.60717 6.76522 0
M  V30 2185 N 221.715 -0.905404 -1.28997 0
M  V30 2186 C 222.963 -0.533192 -1.9494 0
M  V30 2187 C 223.284 0.924618 -1.71685 0
M  V30 2188 O 222.554 1.65268 -1.05183 0
M  V30 2189 H 221.134 -0.194194 -0.721317 0
M  V30 2190 H 223.796 -1.15294 -1.57141 0
M  V30 2191 H 222.892 -0.72059 -3.03667 0
M  V30 2192 N 223.193 1.4272 -0.668489 0
M  V30 2193 C 224.156 2.292 0.00448567 0
M  V30 2194 C 225.156 1.43001 0.735339 0
M  V30 2195 O 226.346 1.64461 0.57429 0
M  V30 2196 C 223.478 3.25375 1.01705 0
M  V30 2197 H 224.671 2.90199 -0.756608 0
M  V30 2198 H 222.224 1.50254 -0.430506 0
M  V30 2199 H 222.959 2.69301 1.80686 0
M  V30 2200 H 222.744 3.88944 0.496463 0
M  V30 2201 H 224.234 3.90245 1.48655 0
M  V30 2202 N 224.671 0.411399 1.52136 0
M  V30 2203 C 225.619 -0.427633 2.28635 0
M  V30 2204 C 226.613 -1.04383 1.33419 0
M  V30 2205 O 227.819 -0.981772 1.50868 0
M  V30 2206 H 224.194 -0.156689 0.735495 0
M  V30 2207 H 226.165 0.238761 2.97443 0
M  V30 2208 C 224.914 -1.53082 3.12188 0
M  V30 2209 H 224.237 -1.06601 3.85326 0
M  V30 2210 H 225.677 -2.09167 3.68816 0
M  V30 2211 C 224.136 -2.49946 2.25895 0
M  V30 2212 O 224.666 -3.53884 1.90076 0
M  V30 2213 N 222.872 -2.2021 1.8962 0
M  V30 2214 H 222.419 -1.35719 2.18948 0
M  V30 2215 H 222.377 -2.85266 1.32176 0
M  V30 2216 N 226.149 -1.5696 0.141893 0
M  V30 2217 C 227.565 -1.58151 -0.21456 0
M  V30 2218 C 227.765 -1.1559 -1.65049 0
M  V30 2219 O 226.821 -0.853832 -2.37626 0
M  V30 2220 C 228.134 -3.00674 0.0395576 0
M  V30 2221 C 229.682 -3.1299 -0.0245529 0
M  V30 2222 C 230.157 -4.57554 0.202167 0
M  V30 2223 N 231.648 -4.62961 0.148919 0
M  V30 2224 C 232.383 -5.7262 0.298924 0
M  V30 2225 N 231.879 -6.90947 0.50637 0
M  V30 2226 N 233.672 -5.61601 0.236886 0
M  V30 2227 H 225.823 -1.8292 1.07953 0
M  V30 2228 H 228.086 -0.846425 0.42693 0
M  V30 2229 H 227.792 -3.36183 1.03315 0
M  V30 2230 H 227.666 -3.70981 -0.682143 0
M  V30 2231 H 230.053 -2.77326 -1.00869 0
M  V30 2232 H 230.134 -2.4518 0.729396 0
M  V30 2233 H 229.778 -4.93922 1.18338 0
M  V30 2234 H 229.708 -5.23484 -0.572044 0
M  V30 2235 H 232.199 -3.77899 -0.00697015 0
M  V30 2236 H 232.512 -7.7038 0.611076 0
M  V30 2237 H 230.857 -6.92878 0.542628 0
M  V30 2238 H 234.048 -4.68039 0.0756209 0
M  V30 2239 H 234.221 -6.47015 0.357227 0
M  V30 2240 N 227.627 0.131896 -1.57047 0
M  V30 2241 C 228.852 0.860418 -1.8871 0
M  V30 2242 C 229.277 1.73251 -0.73251 0
M  V30 2243 O 228.635 1.785 0.317429 0
M  V30 2244 C 228.683 1.68047 -3.19049 0
M  V30 2245 O 227.787 2.7862 -3.04047 0
M  V30 2246 H 227.128 0.238743 -0.619595 0
M  V30 2247 H 229.658 0.118169 -2.04258 0
M  V30 2248 H 229.668 2.07238 -3.51449 0
M  V30 2249 H 228.343 1.04018 -4.02682 0
M  V30 2250 H 226.92 2.42726 -2.83088 0
M  V30 2251 N 229.106 1.52395 0.401703 0
M  V30 2252 C 230.331 1.70972 1.17403 0
M  V30 2253 C 230.756 0.421615 1.83314 0
M  V30 2254 O 230.114 -0.621564 1.70312 0
M  V30 2255 C 230.162 2.85151 2.20728 0
M  V30 2256 O 229.266 2.51238 3.27037 0
M  V30 2257 H 228.607 0.568927 0.342372 0
M  V30 2258 H 231.137 1.99131 0.469891 0
M  V30 2259 H 231.147 3.10279 2.64936 0
M  V30 2260 H 229.822 3.78603 1.7214 0
M  V30 2261 H 228.399 2.36808 2.88057 0
M  V30 2262 N 230.584 -0.659388 1.43143 0
M  V30 2263 C 231.832 -1.41654 1.44147 0
M  V30 2264 C 232.153 -1.94893 0.0645739 0
M  V30 2265 O 231.423 -1.74044 -0.899198 0
M  V30 2266 H 230.003 -0.525708 0.530697 0
M  V30 2267 H 232.665 -0.778097 1.78694 0
M  V30 2268 H 231.761 -2.26195 2.1504 0
M  V30 2269 N 232.062 -1.29571 -0.897171 0
M  V30 2270 C 233.025 -1.14913 -1.98312 0
M  V30 2271 C 234.025 -0.0838629 -1.60581 0
M  V30 2272 O 235.215 -0.331006 -1.71026 0
M  V30 2273 C 232.347 -0.757835 -3.3237 0
M  V30 2274 H 233.54 -2.11377 -2.12743 0
M  V30 2275 H 231.093 -1.12793 -1.08201 0
M  V30 2276 H 231.828 0.206837 -3.2364 0
M  V30 2277 H 231.613 -1.52755 -3.61121 0
M  V30 2278 H 233.103 -0.678408 -4.12053 0
M  V30 2279 N 233.54 1.10788 -1.12088 0
M  V30 2280 C 234.765 1.87002 -0.896949 0
M  V30 2281 C 235.19 1.79933 0.548261 0
M  V30 2282 O 234.548 1.16662 1.38779 0
M  V30 2283 C 234.596 3.3349 -1.37174 0
M  V30 2284 O 233.7 4.08745 -0.547831 0
M  V30 2285 H 233.041 0.580397 -0.322545 0
M  V30 2286 H 235.571 1.39996 -1.49206 0
M  V30 2287 H 235.581 3.84339 -1.36922 0
M  V30 2288 H 234.256 3.37951 -2.42408 0
M  V30 2289 H 232.833 3.6776 -0.617034 0
M  V30 2290 N 235.018 0.912232 1.28515 0
M  V30 2291 C 236.246 0.560416 1.99166 0
M  V30 2292 C 236.661 -0.857927 1.68182 0
M  V30 2293 O 236.018 -1.56805 0.933733 0
M  V30 2294 C 236.069 0.758142 3.53461 0
M  V30 2295 O 235.79 2.12067 3.83352 0
M  V30 2296 C 237.291 0.412954 4.41372 0
M  V30 2297 H 234.511 0.213805 0.636026 0
M  V30 2298 H 237.055 1.22502 1.63749 0
M  V30 2299 H 235.21 0.140556 3.87145 0
M  V30 2300 H 235.624 2.15923 4.77993 0
M  V30 2301 H 237.098 0.60208 5.48707 0
M  V30 2302 H 237.575 -0.65073 4.34353 0
M  V30 2303 H 238.181 1.00802 4.13182 0
M  V30 2304 N 236.496 -1.42363 0.676048 0
M  V30 2305 C 237.907 -1.84649 0.275948 0
M  V30 2306 C 238.258 -1.56588 -1.18214 0
M  V30 2307 O 237.383 -1.02634 -1.90513 0
M  V30 2308 C 237.978 -3.35178 0.494053 0
M  V30 2309 C 236.537 -3.76109 0.148061 0
M  V30 2310 C 235.684 -2.65931 0.785891 0
M  V30 2311 H 238.635 -1.32192 0.878121 0
M  V30 2312 H 238.656 -3.79655 -0.25343 0
M  V30 2313 H 238.168 -3.55571 1.55535 0
M  V30 2314 H 236.269 -3.61323 -0.909742 0
M  V30 2315 H 236.382 -4.7546 0.589454 0
M  V30 2316 H 234.746 -2.53773 0.217113 0
M  V30 2317 H 235.529 -2.89146 1.85067 0
M  V30 2318 N 237.974 -0.419461 -1.51915 0
M  V30 2319 C 239.22 0.153166 -2.02221 0
M  V30 2320 C 239.553 1.43907 -1.30401 0
M  V30 2321 O 238.828 1.90055 -0.413438 0
M  V30 2322 C 239.111 0.390291 -3.57979 0
M  V30 2323 C 238.964 -0.913014 -4.40436 0
M  V30 2324 C 240.283 1.16794 -4.2432 0
M  V30 2325 H 237.402 0.0541924 -0.735005 0
M  V30 2326 H 240.044 -0.554955 -1.81715 0
M  V30 2327 H 238.194 0.993491 -3.75582 0
M  V30 2328 H 239.866 -1.54882 -4.34522 0
M  V30 2329 H 238.109 -1.52168 -4.06236 0
M  V30 2330 H 238.78 -0.701361 -5.47526 0
M  V30 2331 H 241.256 0.657161 -4.10878 0
M  V30 2332 H 240.132 1.3026 -5.3322 0
M  V30 2333 H 240.393 2.19132 -3.83971 0
M  V30 2334 N 239.452 1.56882 -0.150215 0
M  V30 2335 C 240.682 2.00302 0.506213 0
M  V30 2336 C 241.09 1.02934 1.58749 0
M  V30 2337 O 240.433 0.0188384 1.8369 0
M  V30 2338 C 240.495 3.40156 1.16337 0
M  V30 2339 C 240.159 4.56439 0.226311 0
M  V30 2340 C 241.156 5.17012 -0.547265 0
M  V30 2341 C 238.841 5.02136 0.128279 0
M  V30 2342 C 240.835 6.21693 -1.40629 0
M  V30 2343 C 238.522 6.06672 -0.734345 0
M  V30 2344 C 239.52 6.6632 -1.50023 0
M  V30 2345 O 239.208 7.68831 -2.34848 0
M  V30 2346 H 238.94 0.662182 0.135984 0
M  V30 2347 H 241.494 2.03961 -0.242746 0
M  V30 2348 H 239.724 3.33346 1.96004 0
M  V30 2349 H 241.413 3.67663 1.71985 0
M  V30 2350 H 242.179 4.82603 -0.48158 0
M  V30 2351 H 238.058 4.55435 0.714157 0
M  V30 2352 H 241.602 6.68179 -2.00455 0
M  V30 2353 H 237.499 6.40507 -0.801309 0
M  V30 2354 H 238.267 7.86065 -2.28131 0
M  V30 2355 N 240.93 -0.123565 1.57115 0
M  V30 2356 C 242.178 -0.83051 1.84247 0
M  V30 2357 C 242.499 -1.80629 0.73471 0
M  V30 2358 O 241.769 -1.94403 -0.241688 0
M  V30 2359 H 240.349 -0.309694 0.679778 0
M  V30 2360 H 243.011 -0.111976 1.94578 0
M  V30 2361 H 242.107 -1.37852 2.80006 0
M  V30 2362 N 242.408 -1.52605 -0.393616 0
M  V30 2363 C 243.341 -1.71798 -1.50202 0
M  V30 2364 C 244.319 -0.565743 -1.52441 0
M  V30 2365 O 245.503 -0.794987 -1.70916 0
M  V30 2366 C 242.63 -1.7714 -2.88685 0
M  V30 2367 C 241.676 -2.98845 -3.04292 0
M  V30 2368 S 242.509 -4.58909 -2.75976 0
M  V30 2369 C 243.665 -4.6706 -4.1666 0
M  V30 2370 H 243.898 -2.65542 -1.33696 0
M  V30 2371 H 241.431 -1.42839 -0.586195 0
M  V30 2372 H 243.389 -1.80903 -3.68489 0
M  V30 2373 H 242.05 -0.844969 -3.02521 0
M  V30 2374 H 241.243 -2.99111 -4.05646 0
M  V30 2375 H 240.845 -2.9305 -2.32374 0
M  V30 2376 H 243.137 -4.45391 -5.10523 0
M  V30 2377 H 244.08 -5.6905 -4.21412 0
M  V30 2378 H 244.488 -3.95944 -4.02354 0
M  V30 2379 N 243.887 0.651787 -1.4349 0
M  V30 2380 C 245.164 1.40909 -1.35661 0
M  V30 2381 C 245.544 2.11099 -0.00511733 0
M  V30 2382 O 244.892 2.04892 1.0115 0
M  V30 2383 C 245.102 2.3926 -2.54078 0
M  V30 2384 C 246.45 3.03217 -2.97228 0
M  V30 2385 O 247.474 2.49588 -2.54135 0
M  V30 2386 O 246.333 4.00455 -3.71885 0
M  V30 2387 H 243.427 0.629625 -0.536191 0
M  V30 2388 H 245.973 0.678575 -1.55542 0
M  V30 2389 H 244.745 1.86352 -3.44076 0
M  V30 2390 H 244.368 3.1976 -2.36303 0
M  V30 2391 N 245.365 1.30045 0.890287 0
M  V30 2392 C 246.595 1.21296 1.67245 0
M  V30 2393 C 247.003 -0.227471 1.87828 0
M  V30 2394 O 246.346 -1.16296 1.422 0
M  V30 2395 C 246.408 1.86519 3.07329 0
M  V30 2396 C 246.072 3.35837 3.09939 0
M  V30 2397 C 247.069 4.31915 2.89389 0
M  V30 2398 C 244.754 3.77196 3.31706 0
M  V30 2399 C 246.748 5.67325 2.90552 0
M  V30 2400 C 244.435 5.12725 3.32499 0
M  V30 2401 C 245.433 6.076 3.11947 0
M  V30 2402 O 245.121 7.40655 3.12547 0
M  V30 2403 H 244.853 0.4211 0.528821 0
M  V30 2404 H 247.407 1.72111 1.12103 0
M  V30 2405 H 245.637 1.30228 3.64112 0
M  V30 2406 H 247.326 1.71963 3.67673 0
M  V30 2407 H 248.092 4.01294 2.72375 0
M  V30 2408 H 243.971 3.03796 3.4674 0
M  V30 2409 H 247.515 6.41354 2.74429 0
M  V30 2410 H 243.412 5.42988 3.49047 0
M  V30 2411 H 244.18 7.49577 3.28749 0
M  V30 2412 N 246.843 -1.10192 1.12674 0
M  V30 2413 C 248.091 -1.81845 0.881861 0
M  V30 2414 C 248.412 -1.85737 -0.593867 0
M  V30 2415 O 247.682 -1.33724 -1.4316 0
M  V30 2416 H 246.262 -0.673432 0.323261 0
M  V30 2417 H 248.924 -1.33316 1.42172 0
M  V30 2418 H 248.02 -2.85288 1.2656 0
M  V30 2419 N 248.321 -0.919034 -1.28029 0
M  V30 2420 C 249.546 -0.570357 -1.99403 0
M  V30 2421 C 249.971 0.842486 -1.68178 0
M  V30 2422 O 249.329 1.56391 -0.917141 0
M  V30 2423 C 249.377 -0.792541 -3.51783 0
M  V30 2424 O 248.481 0.145988 -4.12142 0
M  V30 2425 H 247.822 -0.220555 -0.6263 0
M  V30 2426 H 250.352 -1.23592 -1.63053 0
M  V30 2427 H 250.362 -0.704708 -4.01868 0
M  V30 2428 H 249.037 -1.82247 -3.73844 0
M  V30 2429 H 247.614 0.00897528 -3.72899 0
M  V30 2430 N 249.799 1.42003 -0.683588 0
M  V30 2431 C 250.762 2.29191 -0.0198243 0
M  V30 2432 C 251.762 1.43773 0.72013 0
M  V30 2433 O 252.952 1.65061 0.556815 0
M  V30 2434 C 250.084 3.26435 0.982487 0
M  V30 2435 H 251.277 2.8938 -0.787345 0
M  V30 2436 H 248.83 1.49789 -0.446418 0
M  V30 2437 H 249.565 2.71203 1.77819 0
M  V30 2438 H 249.35 3.89449 0.455182 0
M  V30 2439 H 250.84 3.918 1.44508 0
M  V30 2440 N 251.277 0.427512 1.51691 0
M  V30 2441 C 252.207 -0.3796 2.30394 0
M  V30 2442 C 253.188 -1.02982 1.35384 0
M  V30 2443 O 254.373 -1.03534 1.643 0
M  V30 2444 C 251.503 -1.48649 3.1388 0
M  V30 2445 C 250.457 -0.960294 4.17088 0
M  V30 2446 C 249.783 -2.16219 4.89033 0
M  V30 2447 C 251.083 -0.00153679 5.223 0
M  V30 2448 H 252.777 0.277164 2.98114 0
M  V30 2449 H 250.323 0.134739 1.43368 0
M  V30 2450 H 252.276 -2.05826 3.67714 0
M  V30 2451 H 251 -2.1714 2.43962 0
M  V30 2452 H 249.659 -0.410806 3.64291 0
M  V30 2453 H 249.307 -2.83307 4.15628 0
M  V30 2454 H 249.007 -1.81654 5.58816 0
M  V30 2455 H 250.531 -2.73968 5.45687 0
M  V30 2456 H 251.945 -0.482687 5.71264 0
M  V30 2457 H 250.342 0.256199 5.99553 0
M  V30 2458 H 251.412 0.938174 4.75738 0
M  V30 2459 N 252.755 -1.56801 0.158532 0
M  V30 2460 C 254.166 -1.83189 -0.360366 0
M  V30 2461 C 254.517 -1.07778 -1.63946 0
M  V30 2462 O 253.642 -0.326718 -2.13919 0
M  V30 2463 C 254.237 -3.32297 -0.660595 0
M  V30 2464 C 252.796 -3.59227 -1.12398 0
M  V30 2465 C 251.943 -2.76877 -0.153097 0
M  V30 2466 H 254.894 -1.54008 0.383031 0
M  V30 2467 H 254.915 -3.4908 -1.51405 0
M  V30 2468 H 254.427 -3.87156 0.270527 0
M  V30 2469 H 252.528 -3.09766 -2.07064 0
M  V30 2470 H 252.641 -4.67632 -1.04197 0
M  V30 2471 H 251.005 -2.46319 -0.647983 0
M  V30 2472 H 251.788 -3.34511 0.77182 0
M  V30 2473 N 254.233 0.115231 -1.57178 0
M  V30 2474 C 255.481 0.820727 -1.84685 0
M  V30 2475 C 255.802 1.80237 -0.744279 0
M  V30 2476 O 255.072 1.94529 0.231375 0
M  V30 2477 H 253.652 0.306084 -0.681411 0
M  V30 2478 H 256.314 0.101656 -1.94635 0
M  V30 2479 H 255.41 1.36366 -2.80733 0
M  V30 2480 N 255.711 1.52812 0.385517 0
M  V30 2481 C 256.959 1.67694 1.12797 0
M  V30 2482 C 257.28 0.421115 1.90399 0
M  V30 2483 O 256.55 -0.564551 1.87589 0
M  V30 2484 H 255.13 0.618155 0.419396 0
M  V30 2485 H 257.792 1.89938 0.436972 0
M  V30 2486 H 256.888 2.52896 1.82894 0
M  V30 2487 N 257.189 -0.644168 1.43834 0
M  V30 2488 C 258.6 -1.22554 1.40845 0
M  V30 2489 C 258.951 -1.9585 0.117115 0
M  V30 2490 O 258.076 -2.01734 -0.783086 0
M  V30 2491 C 258.671 -2.22907 2.55143 0
M  V30 2492 C 257.23 -2.76501 2.5539 0
M  V30 2493 C 256.377 -1.51287 2.32396 0
M  V30 2494 H 259.328 -0.43563 1.52604 0
M  V30 2495 H 259.349 -3.05259 2.2715 0
M  V30 2496 H 258.861 -1.69533 3.49114 0
M  V30 2497 H 256.962 -3.33914 1.65324 0
M  V30 2498 H 257.075 -3.23429 3.53455 0
M  V30 2499 H 255.439 -1.78957 1.81236 0
M  V30 2500 H 256.222 -0.998336 3.28463 0
M  V30 2501 N 258.668 -1.30515 -0.883378 0
M  V30 2502 C 260.084 -1.08881 -1.16692 0
M  V30 2503 C 260.284 0.149409 -2.00945 0
M  V30 2504 O 259.34 0.84257 -2.38027 0
M  V30 2505 C 260.653 -2.35319 -1.87204 0
M  V30 2506 C 262.201 -2.40799 -1.99962 0
M  V30 2507 C 262.676 -3.67083 -2.73887 0
M  V30 2508 N 264.167 -3.679 -2.81432 0
M  V30 2509 C 264.902 -4.62303 -3.3921 0
M  V30 2510 N 264.398 -5.67052 -3.98025 0
M  V30 2511 N 266.191 -4.49845 -3.3704 0
M  V30 2512 H 258.342 -2.09951 -0.321633 0
M  V30 2513 H 260.605 -0.92556 -0.205043 0
M  V30 2514 H 260.311 -3.25689 -1.3274 0
M  V30 2515 H 260.185 -2.44089 -2.87577 0
M  V30 2516 H 262.572 -1.50907 -2.53597 0
M  V30 2517 H 262.653 -2.36003 -0.98673 0
M  V30 2518 H 262.297 -4.57334 -2.20925 0
M  V30 2519 H 262.227 -3.69141 -3.75556 0
M  V30 2520 H 264.718 -2.92171 -2.39676 0
M  V30 2521 H 265.031 -6.35184 -4.40183 0
M  V30 2522 H 263.376 -5.70842 -3.96439 0
M  V30 2523 H 266.567 -3.67194 -2.90321 0
M  V30 2524 H 266.74 -5.23597 -3.81772 0
M  V30 2525 N 260.146 1.09593 -1.13257 0
M  V30 2526 C 261.371 1.8604 -0.916732 0
M  V30 2527 C 261.796 1.80504 0.529146 0
M  V30 2528 O 261.154 1.18127 1.37534 0
M  V30 2529 C 261.202 3.32017 -1.40703 0
M  V30 2530 O 260.306 4.08141 -0.591153 0
M  V30 2531 H 259.647 0.576943 -0.328683 0
M  V30 2532 H 262.177 1.38405 -1.50682 0
M  V30 2533 H 262.187 3.82865 -1.4099 0
M  V30 2534 H 260.862 3.35361 -2.45979 0
M  V30 2535 H 259.439 3.67084 -0.656005 0
M  V30 2536 N 261.624 0.925811 1.2754 0
M  V30 2537 C 263.04 0.625767 1.46821 0
M  V30 2538 C 263.24 -0.825506 1.83814 0
M  V30 2539 O 262.296 -1.60356 1.95044 0
M  V30 2540 C 263.609 1.57402 2.56213 0
M  V30 2541 C 265.157 1.58204 2.70075 0
M  V30 2542 C 265.632 2.51721 3.82623 0
M  V30 2543 N 267.123 2.49917 3.89994 0
M  V30 2544 C 267.858 3.18968 4.76494 0
M  V30 2545 N 267.354 3.97391 5.67496 0
M  V30 2546 N 269.147 3.07996 4.70208 0
M  V30 2547 H 261.298 1.86409 1.01811 0
M  V30 2548 H 263.561 0.800213 0.508295 0
M  V30 2549 H 263.267 2.60925 2.35819 0
M  V30 2550 H 263.141 1.31428 3.53563 0
M  V30 2551 H 265.528 0.554124 2.89851 0
M  V30 2552 H 265.609 1.88226 1.73218 0
M  V30 2553 H 265.253 3.54622 3.63601 0
M  V30 2554 H 265.183 2.18996 4.78903 0
M  V30 2555 H 267.674 1.9296 3.24923 0
M  V30 2556 H 267.987 4.4707 6.30356 0
M  V30 2557 H 266.332 4.01495 5.67298 0
M  V30 2558 H 269.523 2.46223 3.9811 0
M  V30 2559 H 269.696 3.6208 5.37403 0
M  V30 2560 N 263.102 -1.41638 0.69111 0
M  V30 2561 C 264.012 -2.34588 0.0233487 0
M  V30 2562 C 265.028 -1.55987 -0.770984 0
M  V30 2563 O 266.204 -1.88486 -0.709569 0
M  V30 2564 C 263.269 -3.34684 -0.904851 0
M  V30 2565 C 262.33 -4.29176 -0.103225 0
M  V30 2566 C 261.563 -5.2449 -0.987216 0
M  V30 2567 O 261.786 -5.2514 -2.22674 0
M  V30 2568 O 260.72 -6.00295 -0.439281 0
M  V30 2569 H 264.546 -2.93261 0.789416 0
M  V30 2570 H 262.131 -1.42417 0.45142 0
M  V30 2571 H 264.013 -3.96133 -1.43724 0
M  V30 2572 H 262.688 -2.78461 -1.65049 0
M  V30 2573 H 261.595 -3.71089 0.473655 0
M  V30 2574 H 262.928 -4.88484 0.60365 0
M  V30 2575 N 264.58 -0.43555 -1.51462 0
M  V30 2576 C 265.991 0.0279871 -1.86679 0
M  V30 2577 C 266.342 1.42104 -1.35281 0
M  V30 2578 O 265.467 2.04667 -0.702878 0
M  V30 2579 C 266.062 0.0575626 -3.38751 0
M  V30 2580 C 264.621 0.465507 -3.7351 0
M  V30 2581 C 263.768 -0.342996 -2.75171 0
M  V30 2582 H 266.719 -0.651473 -1.44712 0
M  V30 2583 H 266.74 0.867421 -3.70481 0
M  V30 2584 H 266.252 -0.956448 -3.7613 0
M  V30 2585 H 264.353 1.48519 -3.41721 0
M  V30 2586 H 264.466 0.191546 -4.78717 0
M  V30 2587 H 262.83 0.198442 -2.53926 0
M  V30 2588 H 263.613 -1.35585 -3.15391 0
M  V30 2589 N 266.058 1.56714 -0.166846 0
M  V30 2590 C 267.288 2.00828 0.48494 0
M  V30 2591 C 267.696 1.04612 1.57648 0
M  V30 2592 O 267.039 0.0383201 1.8366 0
M  V30 2593 C 267.101 3.4137 1.12723 0
M  V30 2594 C 266.765 4.56654 0.177886 0
M  V30 2595 C 267.762 5.16402 -0.60207 0
M  V30 2596 C 265.447 5.02244 0.0750139 0
M  V30 2597 C 267.441 6.20167 -1.47215 0
M  V30 2598 C 265.128 6.05859 -0.798649 0
M  V30 2599 C 266.126 6.64691 -1.57082 0
M  V30 2600 O 265.814 7.66297 -2.42989 0
M  V30 2601 H 265.546 0.663587 0.128953 0
M  V30 2602 H 268.1 2.03692 -0.264365 0
M  V30 2603 H 266.33 3.35406 1.92457 0
M  V30 2604 H 268.019 3.69466 1.68076 0
M  V30 2605 H 268.785 4.82065 -0.53274 0
M  V30 2606 H 264.664 4.56167 0.665812 0
M  V30 2607 H 268.208 6.66016 -2.07531 0
M  V30 2608 H 264.105 6.39621 -0.869199 0
M  V30 2609 H 264.873 7.83601 -2.36455 0
M  V30 2610 N 267.536 -0.106894 1.57237 0
M  V30 2611 C 268.947 -0.662723 1.74542 0
M  V30 2612 C 269.298 -1.7971 0.787319 0
M  V30 2613 O 268.423 -2.16368 -0.0369636 0
M  V30 2614 C 269.018 -1.20896 3.16496 0
M  V30 2615 C 267.577 -1.71096 3.35266 0
M  V30 2616 C 266.724 -0.615642 2.7038 0
M  V30 2617 H 269.675 0.119106 1.58252 0
M  V30 2618 H 269.696 -2.07847 3.18716 0
M  V30 2619 H 269.208 -0.383122 3.86204 0
M  V30 2620 H 267.309 -2.56119 2.70618 0
M  V30 2621 H 267.422 -1.81208 4.43509 0
M  V30 2622 H 265.786 -1.05222 2.31949 0
M  V30 2623 H 266.569 0.199419 3.4272 0
M  V30 2624 N 269.014 -1.53014 -0.377408 0
M  V30 2625 C 269.977 -1.77957 -1.44444 0
M  V30 2626 C 270.977 -0.649763 -1.47087 0
M  V30 2627 O 272.167 -0.917897 -1.48055 0
M  V30 2628 C 269.299 -1.89089 -2.83651 0
M  V30 2629 H 270.492 -2.73243 -1.23606 0
M  V30 2630 H 268.045 -1.43912 -0.609844 0
M  V30 2631 H 268.78 -0.958293 -3.09818 0
M  V30 2632 H 268.565 -2.71254 -2.83132 0
M  V30 2633 H 270.055 -2.1002 -3.60945 0
M  V30 2634 N 270.492 0.636531 -1.44174 0
M  V30 2635 C 271.738 1.39649 -1.47884 0
M  V30 2636 C 272.093 1.92098 -0.107747 0
M  V30 2637 O 271.386 1.70391 0.876208 0
M  V30 2638 C 271.58 2.58309 -2.47005 0
M  V30 2639 C 271.409 2.17476 -3.93617 0
M  V30 2640 C 270.179 2.0501 -4.61843 0
M  V30 2641 C 272.377 1.76722 -4.82984 0
M  V30 2642 N 270.359 1.57683 -5.93304 0
M  V30 2643 C 271.73 1.40601 -6.03847 0
M  V30 2644 C 273.785 1.64054 -4.70096 0
M  V30 2645 C 272.488 0.930787 -7.13252 0
M  V30 2646 C 274.514 1.17937 -5.79521 0
M  V30 2647 C 273.876 0.827625 -6.99521 0
M  V30 2648 H 269.975 0.506027 -0.596205 0
M  V30 2649 H 272.559 0.730791 -1.80465 0
M  V30 2650 H 270.73 3.22514 -2.16423 0
M  V30 2651 H 272.462 3.25083 -2.41045 0
M  V30 2652 H 269.217 2.25294 -4.16581 0
M  V30 2653 H 269.641 1.36334 -6.63131 0
M  V30 2654 H 274.283 1.89882 -3.77762 0
M  V30 2655 H 272.001 0.660012 -8.054 0
M  V30 2656 H 275.587 1.08601 -5.71574 0
M  V30 2657 H 274.467 0.476231 -7.82753 0
M  V30 2658 N 271.97 1.30982 0.876444 0
M  V30 2659 C 272.933 1.18054 1.96459 0
M  V30 2660 C 273.933 0.109399 1.60427 0
M  V30 2661 O 275.123 0.358173 1.70478 0
M  V30 2662 C 272.255 0.810616 3.31122 0
M  V30 2663 H 273.448 2.14735 2.09354 0
M  V30 2664 H 271.001 1.145 1.06392 0
M  V30 2665 H 271.736 -0.155322 3.23928 0
M  V30 2666 H 271.521 1.58481 3.58645 0
M  V30 2667 H 273.011 0.743876 4.10921 0
M  V30 2668 N 273.449 -1.08991 1.13837 0
M  V30 2669 C 274.674 -1.85551 0.926585 0
M  V30 2670 C 275.099 -1.80782 -0.519566 0
M  V30 2671 O 274.457 -1.18855 -1.36906 0
M  V30 2672 C 274.505 -3.31266 1.42462 0
M  V30 2673 O 273.609 -4.07822 0.612789 0
M  V30 2674 H 272.95 -0.575192 0.331738 0
M  V30 2675 H 275.48 -1.37604 1.51414 0
M  V30 2676 H 275.49 -3.82112 1.43019 0
M  V30 2677 H 274.165 -3.34052 2.47754 0
M  V30 2678 H 272.742 -3.66731 0.675463 0
M  V30 2679 N 274.927 -0.932562 -1.27047 0
M  V30 2680 C 276.204 -0.49377 -1.89265 0
M  V30 2681 C 276.584 1.02833 -1.8436 0
M  V30 2682 O 275.932 1.88461 -1.29209 0
M  V30 2683 C 276.142 -1.04536 -3.32976 0
M  V30 2684 C 277.49 -1.10879 -4.09867 0
M  V30 2685 O 278.514 -0.995327 -3.42011 0
M  V30 2686 O 277.373 -1.28417 -5.31198 0
M  V30 2687 H 274.467 -0.159596 -0.811454 0
M  V30 2688 H 277.013 -1.02457 -1.3528 0
M  V30 2689 H 275.785 -2.08913 -3.30864 0
M  V30 2690 H 275.408 -0.496494 -3.94488 0
M  V30 2691 N 276.405 1.4127 -0.698611 0
M  V30 2692 C 277.653 2.00782 -0.230409 0
M  V30 2693 C 277.974 1.5562 1.17505 0
M  V30 2694 O 277.244 0.78815 1.79346 0
M  V30 2695 H 275.824 0.742464 -0.0821944 0
M  V30 2696 H 278.486 1.72852 -0.90045 0
M  V30 2697 H 277.582 3.11095 -0.25021 0
M  V30 2698 N 277.883 0.443576 1.51229 0
M  V30 2699 C 278.815 -0.400608 2.25672 0
M  V30 2700 C 279.828 -0.980945 1.29928 0
M  V30 2701 O 281.017 -0.874024 1.55638 0
M  V30 2702 C 278.117 -1.57304 3.00181 0
M  V30 2703 C 277.29 -1.11046 4.23069 0
M  V30 2704 C 276.349 -2.15374 4.80105 0
M  V30 2705 O 275.375 -1.74554 5.41774 0
M  V30 2706 N 276.577 -3.47922 4.64683 0
M  V30 2707 H 279.342 0.23745 2.98758 0
M  V30 2708 H 276.903 0.272809 1.59585 0
M  V30 2709 H 278.895 -2.26733 3.35223 0
M  V30 2710 H 277.465 -2.11632 2.30066 0
M  V30 2711 H 276.685 -0.243019 3.9345 0
M  V30 2712 H 277.973 -0.778888 5.02803 0
M  V30 2713 H 277.371 -3.83815 4.15575 0
M  V30 2714 H 275.928 -4.13228 5.0407 0
M  V30 2715 N 279.361 -1.56624 0.175154 0
M  V30 2716 C 280.607 -1.9729 -0.469506 0
M  V30 2717 C 280.94 -1.06128 -1.62636 0
M  V30 2718 O 280.215 -0.109183 -1.94193 0
M  V30 2719 C 280.498 -3.47375 -0.948804 0
M  V30 2720 C 280.351 -4.49317 0.208491 0
M  V30 2721 C 281.67 -4.00652 -1.82116 0
M  V30 2722 H 278.789 -0.717317 -0.16919 0
M  V30 2723 H 281.431 -1.88184 0.262062 0
M  V30 2724 H 279.581 -3.55267 -1.57219 0
M  V30 2725 H 281.253 -4.53482 0.845682 0
M  V30 2726 H 279.496 -4.25121 0.863395 0
M  V30 2727 H 280.167 -5.51741 -0.169059 0
M  V30 2728 H 282.643 -3.95416 -1.2956 0
M  V30 2729 H 281.519 -5.06075 -2.12554 0
M  V30 2730 H 281.78 -3.44699 -2.7683 0
M  V30 2731 N 280.839 0.0985539 -1.57292 0
M  V30 2732 C 282.25 0.653457 -1.74891 0
M  V30 2733 C 282.601 1.7929 -0.796838 0
M  V30 2734 O 281.726 2.16385 0.0254886 0
M  V30 2735 C 282.321 1.19216 -3.17133 0
M  V30 2736 C 280.88 1.69316 -3.36168 0
M  V30 2737 C 280.027 0.601294 -2.70702 0
M  V30 2738 H 282.978 -0.127497 -1.58187 0
M  V30 2739 H 282.999 2.06154 -3.19814 0
M  V30 2740 H 282.511 0.362635 -3.86402 0
M  V30 2741 H 280.612 2.5468 -2.71972 0
M  V30 2742 H 280.725 1.78853 -4.44464 0
M  V30 2743 H 279.089 1.0399 -2.32504 0
M  V30 2744 H 279.872 -0.217592 -3.4261 0
M  V30 2745 N 282.317 1.53212 0.369288 0
M  V30 2746 C 283.563 1.69466 1.11397 0
M  V30 2747 C 283.896 0.443257 1.89074 0
M  V30 2748 O 283.171 -0.559386 1.86282 0
M  V30 2749 C 283.454 2.9422 2.07621 0
M  V30 2750 C 283.307 4.29508 1.33577 0
M  V30 2751 C 284.626 3.14565 3.07794 0
M  V30 2752 H 281.745 0.616667 0.403597 0
M  V30 2753 H 284.387 1.85845 0.395179 0
M  V30 2754 H 282.537 2.80387 2.68916 0
M  V30 2755 H 284.209 4.55147 0.750955 0
M  V30 2756 H 282.452 4.29088 0.637618 0
M  V30 2757 H 283.123 5.12926 2.03989 0
M  V30 2758 H 285.599 3.2756 2.56601 0
M  V30 2759 H 284.475 4.03297 3.72348 0
M  V30 2760 H 284.736 2.29675 3.77759 0
M  V30 2761 N 283.795 -0.628877 1.44509 0
M  V30 2762 C 285.02 -1.42048 1.5112 0
M  V30 2763 C 285.445 -1.87594 0.137818 0
M  V30 2764 O 284.803 -1.58873 -0.873437 0
M  V30 2765 C 284.851 -2.61541 2.48251 0
M  V30 2766 O 283.955 -3.61453 1.98559 0
M  V30 2767 H 283.296 -0.424942 0.510216 0
M  V30 2768 H 285.826 -0.767374 1.89664 0
M  V30 2769 H 285.836 -3.09057 2.66361 0
M  V30 2770 H 284.511 -2.27736 3.48007 0
M  V30 2771 H 283.088 -3.20731 1.90227 0
M  V30 2772 N 285.273 -1.31445 -0.869486 0
M  V30 2773 C 286.22 -1.19135 -1.97675 0
M  V30 2774 C 287.19 -0.0770266 -1.65921 0
M  V30 2775 O 288.375 -0.249972 -1.89155 0
M  V30 2776 C 285.515 -0.905149 -3.33018 0
M  V30 2777 C 284.628 -2.10285 -3.77365 0
M  V30 2778 C 283.763 -1.75339 -5.01427 0
M  V30 2779 C 282.802 -2.91515 -5.38224 0
M  V30 2780 N 281.939 -2.56762 -6.53466 0
M  V30 2781 H 286.779 -2.13853 -2.07535 0
M  V30 2782 H 284.316 -1.06379 -1.01597 0
M  V30 2783 H 286.274 -0.719765 -4.10944 0
M  V30 2784 H 284.904 0.00519624 -3.228 0
M  V30 2785 H 283.956 -2.39899 -2.95216 0
M  V30 2786 H 285.268 -2.97237 -4.00564 0
M  V30 2787 H 284.422 -1.53266 -5.87022 0
M  V30 2788 H 283.161 -0.855801 -4.80133 0
M  V30 2789 H 282.166 -3.14237 -4.51149 0
M  V30 2790 H 283.391 -3.81985 -5.61484 0
M  V30 2791 H 281.337 -1.69526 -6.33717 0
M  V30 2792 H 281.254 -3.37243 -6.76612 0
M  V30 2793 H 282.522 -2.38083 -7.42251 0
M  V30 2794 N 286.751 1.08385 -1.14413 0
M  V30 2795 C 287.661 2.18856 -0.844951 0
M  V30 2796 C 288.677 1.73121 0.174668 0
M  V30 2797 O 289.853 2.014 0.00312857 0
M  V30 2798 C 286.918 3.45155 -0.32696 0
M  V30 2799 C 285.979 4.05513 -1.40916 0
M  V30 2800 C 285.212 5.25784 -0.915793 0
M  V30 2801 O 285.435 5.69884 0.242651 0
M  V30 2802 O 284.369 5.77545 -1.69487 0
M  V30 2803 H 288.195 2.46919 -1.76818 0
M  V30 2804 H 285.78 1.17524 -0.922411 0
M  V30 2805 H 287.662 4.21377 -0.0440211 0
M  V30 2806 H 286.337 3.18668 0.568539 0
M  V30 2807 H 285.244 3.30879 -1.74556 0
M  V30 2808 H 286.577 4.3625 -2.27919 0
M  V30 2809 N 288.23 0.939286 1.26551 0
M  V30 2810 C 289.14 0.453432 2.30176 0
M  V30 2811 C 290.156 -0.471649 1.67486 0
M  V30 2812 O 291.332 -0.35164 1.98306 0
M  V30 2813 C 288.397 -0.275326 3.45605 0
M  V30 2814 C 287.458 0.686084 4.23782 0
M  V30 2815 C 286.691 -0.00798994 5.33699 0
M  V30 2816 O 286.914 -1.22528 5.57085 0
M  V30 2817 O 285.848 0.669746 5.98162 0
M  V30 2818 H 289.674 1.31416 2.73795 0
M  V30 2819 H 287.259 0.705095 1.31715 0
M  V30 2820 H 289.141 -0.685911 4.1578 0
M  V30 2821 H 287.816 -1.11147 3.0402 0
M  V30 2822 H 286.723 1.14658 3.56096 0
M  V30 2823 H 288.056 1.48979 4.69112 0
M  V30 2824 N 289.708 -1.40897 0.706093 0
M  V30 2825 C 290.957 -2.00284 0.238574 0
M  V30 2826 C 291.27 -1.56604 -1.17194 0
M  V30 2827 O 292.476 -2.08624 -1.73748 0
M  V30 2828 C 290.932 -3.57934 0.375623 0
M  V30 2829 C 290.54 -4.10591 1.79217 0
M  V30 2830 C 292.284 -4.24488 -0.0315857 0
M  V30 2831 C 290.191 -5.60712 1.88032 0
M  V30 2832 H 289.121 -0.749144 0.0854398 0
M  V30 2833 H 291.772 -1.61251 0.875813 0
M  V30 2834 H 290.154 -3.94622 -0.330042 0
M  V30 2835 H 291.328 -3.85301 2.52745 0
M  V30 2836 H 289.643 -3.56601 2.15 0
M  V30 2837 H 292.24 -5.34698 0.0136842 0
M  V30 2838 H 292.583 -4.02261 -1.072 0
M  V30 2839 H 293.116 -3.92873 0.624181 0
M  V30 2840 H 289.855 -5.87781 2.90161 0
M  V30 2841 H 289.375 -5.87896 1.18903 0
M  V30 2842 H 291.054 -6.25658 1.64805 0
M  V30 2843 N 291.186 -0.45159 -1.50991 0
M  V30 2844 C 292.096 0.358431 -2.31846 0
M  V30 2845 C 293.112 1.01438 -1.41373 0
M  V30 2846 O 294.288 1.00663 -1.74439 0
M  V30 2847 C 291.353 1.43704 -3.15515 0
M  V30 2848 C 290.414 0.799742 -4.21785 0
M  V30 2849 C 289.647 1.82696 -5.01456 0
M  V30 2850 O 289.87 3.05105 -4.81941 0
M  V30 2851 O 288.804 1.40958 -5.85162 0
M  V30 2852 H 292.63 -0.302032 -3.02194 0
M  V30 2853 H 290.215 -0.213825 -1.47862 0
M  V30 2854 H 292.097 2.06227 -3.67489 0
M  V30 2855 H 290.772 2.08133 -2.47916 0
M  V30 2856 H 289.679 0.136084 -3.73852 0
M  V30 2857 H 291.012 0.198718 -4.91799 0
M  V30 2858 N 292.664 1.56529 -0.183458 0
M  V30 2859 C 293.941 1.88959 0.50536 0
M  V30 2860 C 294.321 1.09523 1.80466 0
M  V30 2861 O 293.669 0.19278 2.27685 0
M  V30 2862 C 293.879 3.41162 0.73547 0
M  V30 2863 C 295.227 4.11155 1.06005 0
M  V30 2864 O 296.251 3.46548 0.823594 0
M  V30 2865 O 295.11 5.25318 1.50675 0
M  V30 2866 H 292.204 0.78441 0.261973 0
M  V30 2867 H 294.75 1.68231 -0.222802 0
M  V30 2868 H 293.522 3.90874 -0.182561 0
M  V30 2869 H 293.145 3.67543 1.51651 0
M  V30 2870 N 294.142 -0.090211 1.57342 0
M  V30 2871 C 295.391 -0.791531 1.8552 0
M  V30 2872 C 295.704 -1.79659 0.773441 0
M  V30 2873 O 296.91 -2.54616 0.942497 0
M  V30 2874 C 295.366 -1.45856 3.2902 0
M  V30 2875 C 294.974 -0.493017 4.45279 0
M  V30 2876 C 296.718 -2.14332 3.66418 0
M  V30 2877 C 294.625 -1.16491 5.79814 0
M  V30 2878 H 293.555 -0.299356 0.692027 0
M  V30 2879 H 296.206 -0.0445343 1.83446 0
M  V30 2880 H 294.588 -2.25318 3.2565 0
M  V30 2881 H 295.762 0.270464 4.60006 0
M  V30 2882 H 294.077 0.0863061 4.16311 0
M  V30 2883 H 296.674 -2.65344 4.64216 0
M  V30 2884 H 297.017 -2.93447 2.95287 0
M  V30 2885 H 297.55 -1.41724 3.71698 0
M  V30 2886 H 294.289 -0.41447 6.54188 0
M  V30 2887 H 293.809 -1.8997 5.68921 0
M  V30 2888 H 295.488 -1.69001 6.24538 0
M  V30 2889 N 295.62 -1.53406 -0.361157 0
M  V30 2890 C 296.867 -1.69802 -1.10333 0
M  V30 2891 C 297.195 -0.452087 -1.89173 0
M  V30 2892 O 296.45 0.566017 -1.87336 0
M  V30 2893 C 296.749 -2.90211 -2.08596 0
M  V30 2894 C 296.415 -4.26539 -1.46203 0
M  V30 2895 C 295.077 -4.6361 -1.28915 0
M  V30 2896 C 297.429 -5.113 -1.01101 0
M  V30 2897 C 294.757 -5.83075 -0.651157 0
M  V30 2898 C 297.109 -6.31415 -0.387007 0
M  V30 2899 C 295.773 -6.67195 -0.201657 0
M  V30 2900 H 295.043 -0.621351 -0.403737 0
M  V30 2901 H 297.69 -1.87598 -0.384609 0
M  V30 2902 H 295.995 -2.66946 -2.86788 0
M  V30 2903 H 297.692 -3.00091 -2.65982 0
M  V30 2904 H 294.282 -3.97352 -1.60653 0
M  V30 2905 H 298.466 -4.83206 -1.13249 0
M  V30 2906 H 293.722 -6.09385 -0.496006 0
M  V30 2907 H 297.896 -6.96394 -0.0293563 0
M  V30 2908 H 295.523 -7.59628 0.294766 0
M  V30 2909 N 297.098 0.621204 -1.44841 0
M  V30 2910 C 298.347 1.37658 -1.47422 0
M  V30 2911 C 298.66 1.95264 -0.114629 0
M  V30 2912 O 299.866 2.71494 -0.0180199 0
M  V30 2913 C 298.322 2.49285 -2.59586 0
M  V30 2914 C 297.93 1.98149 -4.01797 0
M  V30 2915 C 299.674 3.26409 -2.71399 0
M  V30 2916 C 297.581 3.07178 -5.05367 0
M  V30 2917 H 296.511 0.517344 -0.548517 0
M  V30 2918 H 299.162 0.667257 -1.70938 0
M  V30 2919 H 297.544 3.22839 -2.29328 0
M  V30 2920 H 298.718 1.31395 -4.41669 0
M  V30 2921 H 297.033 1.33812 -3.94314 0
M  V30 2922 H 299.63 4.07706 -3.45948 0
M  V30 2923 H 299.973 3.76535 -1.77559 0
M  V30 2924 H 300.506 2.5995 -3.01116 0
M  V30 2925 H 297.245 2.61985 -6.00869 0
M  V30 2926 H 296.765 3.72542 -4.70077 0
M  V30 2927 H 298.444 3.71789 -5.29511 0
M  V30 2928 N 298.576 1.31904 0.862503 0
M  V30 2929 C 299.853 1.12644 1.59908 0
M  V30 2930 C 300.233 -0.316104 2.0872 0
M  V30 2931 O 299.581 -1.31145 1.87118 0
M  V30 2932 C 299.791 2.1472 2.7513 0
M  V30 2933 C 301.139 2.47637 3.44907 0
M  V30 2934 O 302.163 2.13205 2.85346 0
M  V30 2935 O 301.022 3.06632 4.52371 0
M  V30 2936 H 298.116 0.43416 0.703871 0
M  V30 2937 H 300.662 1.43408 0.907314 0
M  V30 2938 H 299.434 3.1172 2.3653 0
M  V30 2939 H 299.057 1.84905 3.51989 0
M  V30 2940 N 300.054 -1.07777 1.14986 0
M  V30 2941 C 300.984 -2.16865 0.865557 0
M  V30 2942 C 301.965 -1.69123 -0.182083 0
M  V30 2943 O 303.15 -1.94164 -0.0373815 0
M  V30 2944 C 300.28 -3.45539 0.349313 0
M  V30 2945 C 299.234 -4.06708 1.33313 0
M  V30 2946 C 298.56 -5.30411 0.675918 0
M  V30 2947 C 299.86 -4.47241 2.69764 0
M  V30 2948 H 301.554 -2.40905 1.77778 0
M  V30 2949 H 299.1 -1.15781 0.856203 0
M  V30 2950 H 301.053 -4.21174 0.137983 0
M  V30 2951 H 299.777 -3.21072 -0.598362 0
M  V30 2952 H 298.436 -3.33112 1.53075 0
M  V30 2953 H 298.084 -5.02232 -0.277767 0
M  V30 2954 H 297.784 -5.72293 1.33244 0
M  V30 2955 H 299.308 -6.08755 0.474262 0
M  V30 2956 H 300.722 -5.14025 2.53873 0
M  V30 2957 H 299.119 -5.00062 3.3175 0
M  V30 2958 H 300.189 -3.58818 3.26156 0
M  V30 2959 N 301.532 -0.945985 -1.26051 0
M  V30 2960 C 302.778 -0.597002 -1.93814 0
M  V30 2961 C 303.111 0.862484 -1.73997 0
M  V30 2962 O 302.386 1.61769 -1.07986 0
M  V30 2963 C 302.669 -0.945937 -3.47454 0
M  V30 2964 C 302.522 -2.46052 -3.76535 0
M  V30 2965 C 303.841 -0.464785 -4.37639 0
M  V30 2966 H 300.96 -0.218366 -0.703907 0
M  V30 2967 H 303.602 -1.18107 -1.48831 0
M  V30 2968 H 301.752 -0.448902 -3.85898 0
M  V30 2969 H 303.424 -3.03065 -3.47778 0
M  V30 2970 H 301.667 -2.90194 -3.22444 0
M  V30 2971 H 302.338 -2.65517 -4.83947 0
M  V30 2972 H 304.814 -0.891016 -4.06448 0
M  V30 2973 H 303.69 -0.737712 -5.4392 0
M  V30 2974 H 303.951 0.635274 -4.37512 0
M  V30 2975 N 303.011 1.40521 -0.713556 0
M  V30 2976 C 303.959 2.32549 -0.0485227 0
M  V30 2977 C 304.953 1.51931 0.74922 0
M  V30 2978 O 306.159 1.67745 0.652816 0
M  V30 2979 H 302.534 0.751994 0.00311138 0
M  V30 2980 H 304.505 2.86291 -0.841443 0
M  V30 2981 C 303.254 3.36879 0.860687 0
M  V30 2982 H 302.577 3.98978 0.256246 0
M  V30 2983 H 304.017 4.03772 1.294 0
M  V30 2984 C 302.476 2.72197 1.9852 0
M  V30 2985 O 303.006 2.5837 3.07584 0
M  V30 2986 N 301.212 2.30612 1.76823 0
M  V30 2987 H 300.759 2.42059 0.881217 0
M  V30 2988 H 300.717 1.87672 2.52243 0
M  V30 2989 N 304.489 0.459591 1.5075 0
M  V30 2990 C 305.436 -0.340524 2.28274 0
M  V30 2991 C 306.406 -0.997371 1.32822 0
M  V30 2992 O 307.591 -1.01202 1.61749 0
M  V30 2993 C 304.731 -1.42317 3.14388 0
M  V30 2994 C 303.844 -0.782251 4.24859 0
M  V30 2995 C 302.979 -1.84182 4.98247 0
M  V30 2996 C 302.018 -1.18053 6.00608 0
M  V30 2997 N 301.155 -2.18244 6.67319 0
M  V30 2998 H 305.995 0.326899 2.96202 0
M  V30 2999 H 303.532 0.173057 1.46078 0
M  V30 3000 H 305.49 -2.06241 3.62658 0
M  V30 3001 H 304.12 -2.05992 2.4853 0
M  V30 3002 H 303.172 -0.0307404 3.80388 0
M  V30 3003 H 304.484 -0.259663 4.98124 0
M  V30 3004 H 303.638 -2.55714 5.50177 0
M  V30 3005 H 302.377 -2.39819 4.24662 0
M  V30 3006 H 301.382 -0.450776 5.47949 0
M  V30 3007 H 302.607 -0.631202 6.7616 0
M  V30 3008 H 300.553 -2.72919 5.96533 0
M  V30 3009 H 300.47 -1.70938 7.36421 0
M  V30 3010 H 301.738 -2.89191 7.23871 0
M  V30 3011 N 305.967 -1.56429 0.191757 0
M  V30 3012 C 307.214 -1.97485 -0.447891 0
M  V30 3013 C 307.542 -1.07852 -1.61859 0
M  V30 3014 O 306.797 -0.116903 -1.95351 0
M  V30 3015 C 307.096 -3.44449 -0.953384 0
M  V30 3016 C 306.762 -4.50781 0.103586 0
M  V30 3017 C 305.424 -4.79584 0.394023 0
M  V30 3018 C 307.776 -5.1471 0.819946 0
M  V30 3019 C 305.104 -5.69607 1.40585 0
M  V30 3020 C 307.456 -6.05827 1.8209 0
M  V30 3021 C 306.12 -6.32987 2.11857 0
M  V30 3022 H 305.39 -0.722648 -0.163895 0
M  V30 3023 H 308.037 -1.89322 0.28802 0
M  V30 3024 H 306.342 -3.49666 -1.76751 0
M  V30 3025 H 308.039 -3.73569 -1.45765 0
M  V30 3026 H 304.629 -4.28394 -0.132951 0
M  V30 3027 H 308.813 -4.92552 0.608789 0
M  V30 3028 H 304.069 -5.88926 1.64243 0
M  V30 3029 H 308.243 -6.54424 2.38123 0
M  V30 3030 H 305.87 -7.02544 2.90407 0
M  V30 3031 N 307.445 0.0818655 -1.57387 0
M  V30 3032 C 308.693 0.781368 -1.86384 0
M  V30 3033 C 309.014 1.78618 -0.782342 0
M  V30 3034 O 308.284 1.94976 0.190061 0
M  V30 3035 H 306.864 0.291562 -0.687751 0
M  V30 3036 H 309.526 0.060348 -1.94807 0
M  V30 3037 H 308.622 1.3038 -2.83562 0
M  V30 3038 N 308.923 1.53595 0.353017 0
M  V30 3039 C 310.17 1.70385 1.09431 0
M  V30 3040 C 310.498 0.462113 1.88931 0
M  V30 3041 O 309.753 -0.556074 1.87633 0
M  V30 3042 C 310.052 2.91313 2.07054 0
M  V30 3043 C 309.718 4.27308 1.43939 0
M  V30 3044 C 308.38 4.64287 1.26454 0
M  V30 3045 C 310.732 5.11829 0.983883 0
M  V30 3046 C 308.06 5.83412 0.620226 0
M  V30 3047 C 310.412 6.31611 0.353516 0
M  V30 3048 C 309.076 6.67293 0.166272 0
M  V30 3049 H 308.346 0.623484 0.400436 0
M  V30 3050 H 310.993 1.87799 0.374655 0
M  V30 3051 H 309.298 2.68463 2.85368 0
M  V30 3052 H 310.995 3.01497 2.64387 0
M  V30 3053 H 307.585 3.98198 1.58543 0
M  V30 3054 H 311.769 4.838 1.10685 0
M  V30 3055 H 307.025 6.09639 0.463681 0
M  V30 3056 H 311.199 6.964 -0.00757555 0
M  V30 3057 H 308.826 7.59461 -0.335047 0
M  V30 3058 N 310.401 -0.613514 1.45168 0
M  V30 3059 C 311.333 -1.73825 1.4939 0
M  V30 3060 C 312.346 -1.58175 0.385304 0
M  V30 3061 O 313.535 -1.66165 0.652036 0
M  V30 3062 C 310.635 -3.11758 1.32891 0
M  V30 3063 C 309.808 -3.53704 2.57317 0
M  V30 3064 C 308.867 -4.70579 2.35462 0
M  V30 3065 O 307.893 -4.77996 3.09044 0
M  V30 3066 N 309.095 -5.63454 1.39644 0
M  V30 3067 H 311.86 -1.70669 2.46358 0
M  V30 3068 H 309.421 -0.79862 1.40832 0
M  V30 3069 H 311.413 -3.87692 1.1609 0
M  V30 3070 H 309.983 -3.09456 0.442218 0
M  V30 3071 H 309.203 -2.67794 2.89275 0
M  V30 3072 H 310.491 -3.78486 3.40038 0
M  V30 3073 H 309.889 -5.6017 0.789062 0
M  V30 3074 H 308.446 -6.38944 1.28816 0
M  V30 3075 N 311.879 -1.3236 -0.855495 0
M  V30 3076 C 313.295 -1.11332 -1.14356 0
M  V30 3077 C 313.495 0.106751 -2.01217 0
M  V30 3078 O 312.551 0.791891 -2.39761 0
M  V30 3079 C 313.864 -2.39237 -1.82171 0
M  V30 3080 C 315.412 -2.44986 -1.9481 0
M  V30 3081 C 315.887 -3.7281 -2.66039 0
M  V30 3082 N 317.378 -3.73787 -2.73565 0
M  V30 3083 C 318.113 -4.69394 -3.29327 0
M  V30 3084 N 317.609 -5.75367 -3.85907 0
M  V30 3085 N 319.402 -4.56893 -3.27423 0
M  V30 3086 H 311.553 -2.10586 -0.277027 0
M  V30 3087 H 313.816 -0.929701 -0.185364 0
M  V30 3088 H 313.522 -3.28431 -1.25802 0
M  V30 3089 H 313.396 -2.50134 -2.82335 0
M  V30 3090 H 315.783 -1.56252 -2.50338 0
M  V30 3091 H 315.864 -2.38043 -0.936448 0
M  V30 3092 H 315.508 -4.61918 -2.11174 0
M  V30 3093 H 315.438 -3.77024 -3.67642 0
M  V30 3094 H 317.929 -2.97189 -2.33424 0
M  V30 3095 H 318.242 -6.44378 -4.26611 0
M  V30 3096 H 316.587 -5.79123 -3.84242 0
M  V30 3097 H 319.778 -3.73269 -2.82467 0
M  V30 3098 H 319.951 -5.31577 -3.7058 0
M  V30 3099 N 313.357 1.07166 -1.15556 0
M  V30 3100 C 314.634 1.76546 -0.842069 0
M  V30 3101 C 315.014 2.00453 0.661939 0
M  V30 3102 O 314.362 1.62452 1.60691 0
M  V30 3103 C 314.572 3.07266 -1.65495 0
M  V30 3104 C 315.92 3.81578 -1.86234 0
M  V30 3105 O 316.944 3.17083 -1.62287 0
M  V30 3106 O 315.803 4.97419 -2.26355 0
M  V30 3107 H 312.897 0.766756 -0.309862 0
M  V30 3108 H 315.443 1.13514 -1.26145 0
M  V30 3109 H 314.215 2.85494 -2.67598 0
M  V30 3110 H 313.838 3.7803 -1.23203 0
M  V30 3111 N 314.835 0.952656 1.25548 0
M  V30 3112 C 316.06 0.623025 1.97821 0
M  V30 3113 C 316.485 -0.7976 1.70352 0
M  V30 3114 O 315.843 -1.53905 0.958283 0
M  V30 3115 C 315.891 0.885532 3.49558 0
M  V30 3116 O 314.995 -0.0366641 4.12384 0
M  V30 3117 H 314.336 0.237082 0.620232 0
M  V30 3118 H 316.866 1.27871 1.59719 0
M  V30 3119 H 316.876 0.811009 3.99858 0
M  V30 3120 H 315.551 1.92094 3.6888 0
M  V30 3121 H 314.128 0.0898954 3.72792 0
M  V30 3122 N 316.313 -1.40141 0.720998 0
M  V30 3123 C 317.246 -2.2819 0.020916 0
M  V30 3124 C 318.224 -1.43633 -0.762129 0
M  V30 3125 O 319.408 -1.7304 -0.747633 0
M  V30 3126 C 316.535 -3.24281 -0.977715 0
M  V30 3127 C 315.581 -4.25548 -0.284836 0
M  V30 3128 S 316.414 -5.26247 0.991169 0
M  V30 3129 C 317.57 -6.259 -0.0052214 0
M  V30 3130 H 317.803 -2.87218 0.767649 0
M  V30 3131 H 315.336 -1.45656 0.512233 0
M  V30 3132 H 317.294 -3.80167 -1.54865 0
M  V30 3133 H 315.955 -2.643 -1.69719 0
M  V30 3134 H 315.148 -4.93154 -1.03996 0
M  V30 3135 H 314.75 -3.73389 0.213684 0
M  V30 3136 H 317.042 -6.72143 -0.850279 0
M  V30 3137 H 317.985 -7.05224 0.637599 0
M  V30 3138 H 318.393 -5.63277 -0.371366 0
M  V30 3139 N 317.792 -0.46758 -1.50504 0
M  V30 3140 C 319.208 -0.121533 -1.59137 0
M  V30 3141 C 319.408 1.3717 -1.47603 0
M  V30 3142 O 318.464 2.14464 -1.33272 0
M  V30 3143 C 319.777 -0.6686 -2.93173 0
M  V30 3144 C 321.325 -0.631716 -3.06559 0
M  V30 3145 C 321.8 -1.15627 -4.43164 0
M  V30 3146 N 323.291 -1.11553 -4.49567 0
M  V30 3147 C 324.026 -1.49195 -5.5365 0
M  V30 3148 N 323.522 -1.94269 -6.65005 0
M  V30 3149 N 325.315 -1.4082 -5.44175 0
M  V30 3150 H 317.466 -1.4388 -1.56245 0
M  V30 3151 H 319.729 -0.594784 -0.738198 0
M  V30 3152 H 319.435 -1.71453 -3.07078 0
M  V30 3153 H 319.309 -0.11021 -3.77039 0
M  V30 3154 H 321.696 0.405297 -2.92304 0
M  V30 3155 H 321.777 -1.22687 -2.24458 0
M  V30 3156 H 321.421 -2.1919 -4.58168 0
M  V30 3157 H 321.351 -0.537365 -5.23851 0
M  V30 3158 H 323.842 -0.784895 -3.69659 0
M  V30 3159 H 324.155 -2.21148 -7.40482 0
M  V30 3160 H 322.5 -1.98219 -6.66134 0
M  V30 3161 H 325.691 -1.0545 -4.56068 0
M  V30 3162 H 325.864 -1.70481 -6.25172 0
M  V30 3163 N 319.27 1.56325 -0.20005 0
M  V30 3164 C 320.218 2.20666 0.735482 0
M  V30 3165 C 321.212 1.17934 1.21605 0
M  V30 3166 O 322.418 1.36068 1.17837 0
M  V30 3167 H 318.793 0.70725 0.255542 0
M  V30 3168 H 320.764 2.9792 0.169166 0
M  V30 3169 C 319.513 2.88391 1.94232 0
M  V30 3170 H 318.836 3.67185 1.58161 0
M  V30 3171 H 320.276 3.3684 2.57517 0
M  V30 3172 C 318.735 1.89692 2.78421 0
M  V30 3173 O 319.265 1.40032 3.76502 0
M  V30 3174 N 317.471 1.57813 2.44015 0
M  V30 3175 H 317.018 1.9839 1.64314 0
M  V30 3176 H 316.976 0.920325 3.00628 0
M  V30 3177 N 320.748 -0.0735177 1.57428 0
M  V30 3178 C 321.681 -1.11932 1.98863 0
M  V30 3179 C 322.659 -1.37666 0.865266 0
M  V30 3180 O 323.843 -1.51068 1.12742 0
M  V30 3181 C 320.97 -2.46403 2.32386 0
M  V30 3182 C 320.016 -2.36815 3.54713 0
M  V30 3183 S 320.849 -1.76392 5.05614 0
M  V30 3184 C 322.005 -3.12444 5.42337 0
M  V30 3185 H 322.238 -0.766212 2.87257 0
M  V30 3186 H 319.771 -0.281987 1.51803 0
M  V30 3187 H 321.729 -3.23755 2.52375 0
M  V30 3188 H 320.39 -2.78876 1.44524 0
M  V30 3189 H 319.583 -3.35977 3.7568 0
M  V30 3190 H 319.185 -1.67598 3.34345 0
M  V30 3191 H 321.477 -4.08753 5.40303 0
M  V30 3192 H 322.42 -2.96258 6.43146 0
M  V30 3193 H 322.828 -3.1297 4.69798 0
M  V30 3194 N 322.226 -1.5378 -0.344866 0
M  V30 3195 C 323.456 -1.74646 -1.10374 0
M  V30 3196 C 323.864 -0.48491 -1.8288 0
M  V30 3197 O 323.207 0.553062 -1.75177 0
M  V30 3198 C 323.269 -2.87145 -2.16306 0
M  V30 3199 C 322.933 -4.26795 -1.63386 0
M  V30 3200 C 323.93 -5.08412 -1.08688 0
M  V30 3201 C 321.615 -4.73276 -1.68272 0
M  V30 3202 C 323.609 -6.34609 -0.595792 0
M  V30 3203 C 321.296 -5.99446 -1.18776 0
M  V30 3204 C 322.294 -6.79946 -0.645215 0
M  V30 3205 O 321.982 -8.03745 -0.157626 0
M  V30 3206 H 321.714 -0.587112 -0.335075 0
M  V30 3207 H 324.268 -2.01403 -0.403252 0
M  V30 3208 H 322.498 -2.55909 -2.89909 0
M  V30 3209 H 324.187 -2.95992 -2.77747 0
M  V30 3210 H 324.953 -4.73666 -1.04236 0
M  V30 3211 H 320.832 -4.10677 -2.09442 0
M  V30 3212 H 324.376 -6.97389 -0.171654 0
M  V30 3213 H 320.273 -6.33687 -1.22928 0
M  V30 3214 H 321.041 -8.18038 -0.275037 0
M  V30 3215 N 323.704 0.605807 -1.45491 0
M  V30 3216 C 324.981 1.36522 -1.40075 0
M  V30 3217 C 325.361 2.10976 -0.0722744 0
M  V30 3218 O 324.709 2.08007 0.945808 0
M  V30 3219 C 324.919 2.31056 -2.61561 0
M  V30 3220 C 326.267 2.93608 -3.06724 0
M  V30 3221 O 327.291 2.41376 -2.61946 0
M  V30 3222 O 326.15 3.88421 -3.84437 0
M  V30 3223 H 323.244 0.612248 -0.555951 0
M  V30 3224 H 325.79 0.628747 -1.57623 0
M  V30 3225 H 324.562 1.75311 -3.49831 0
M  V30 3226 H 324.185 3.12081 -2.46356 0
M  V30 3227 N 325.182 1.32811 0.848464 0
M  V30 3228 C 326.132 1.18842 1.94578 0
M  V30 3229 C 327.116 0.0937517 1.60627 0
M  V30 3230 O 328.308 0.320887 1.74067 0
M  V30 3231 C 325.437 0.91999 3.30743 0
M  V30 3232 C 324.523 2.05665 3.70894 0
M  V30 3233 N 324.914 3.30579 3.8282 0
M  V30 3234 C 323.212 1.9612 4.00566 0
M  V30 3235 C 323.913 4.05067 4.17487 0
M  V30 3236 N 322.889 3.33419 4.2934 0
M  V30 3237 H 326.691 2.13536 2.0194 0
M  V30 3238 H 324.205 1.2468 1.0406 0
M  V30 3239 H 326.202 0.800859 4.09136 0
M  V30 3240 H 324.862 -0.0185076 3.24695 0
M  V30 3241 H 325.873 3.65441 3.66978 0
M  V30 3242 H 322.55 1.09871 4.02784 0
M  V30 3243 H 323.94 5.12815 4.34131 0
M  V30 3244 N 326.66 -1.06551 1.16123 0
M  V30 3245 C 327.59 -2.15935 0.88851 0
M  V30 3246 C 328.571 -1.69306 -0.164135 0
M  V30 3247 O 329.756 -1.94193 -0.0167857 0
M  V30 3248 C 326.886 -3.45149 0.385942 0
M  V30 3249 C 325.84 -4.05271 1.3762 0
M  V30 3250 C 325.166 -5.29664 0.732137 0
M  V30 3251 C 326.466 -4.44355 2.74493 0
M  V30 3252 H 328.16 -2.39006 1.80323 0
M  V30 3253 H 325.706 -1.14866 0.868435 0
M  V30 3254 H 327.659 -4.21004 0.182647 0
M  V30 3255 H 326.383 -3.21689 -0.564274 0
M  V30 3256 H 325.042 -3.3147 1.56599 0
M  V30 3257 H 324.69 -5.02499 -0.224483 0
M  V30 3258 H 324.39 -5.70848 1.39307 0
M  V30 3259 H 325.914 -6.08218 0.538802 0
M  V30 3260 H 327.328 -5.11303 2.59311 0
M  V30 3261 H 325.725 -4.96515 3.37035 0
M  V30 3262 H 326.795 -3.55339 3.29943 0
M  V30 3263 N 328.138 -0.959301 -1.25041 0
M  V30 3264 C 329.071 -0.427418 -2.24161 0
M  V30 3265 C 330.049 0.493837 -1.54919 0
M  V30 3266 O 331.233 0.427144 -1.83597 0
M  V30 3267 C 328.36 0.383893 -3.36517 0
M  V30 3268 C 327.406 -0.478431 -4.23808 0
M  V30 3269 S 328.239 -1.91353 -5.00144 0
M  V30 3270 C 329.395 -1.11077 -6.15965 0
M  V30 3271 H 329.628 -1.26743 -2.6893 0
M  V30 3272 H 327.161 -0.763714 -1.34189 0
M  V30 3273 H 329.119 0.846039 -4.01687 0
M  V30 3274 H 327.78 1.19878 -2.90324 0
M  V30 3275 H 326.973 0.14406 -5.03794 0
M  V30 3276 H 326.575 -0.87597 -3.63597 0
M  V30 3277 H 328.867 -0.361699 -6.76534 0
M  V30 3278 H 329.81 -1.88472 -6.82557 0
M  V30 3279 H 330.218 -0.638843 -5.60873 0
M  V30 3280 N 329.616 1.39756 -0.72842 0
M  V30 3281 C 330.844 2.04948 -0.283528 0
M  V30 3282 C 331.259 1.54908 1.0793 0
M  V30 3283 O 330.616 0.711135 1.68075 0
M  V30 3284 C 330.667 3.60498 -0.268957 0
M  V30 3285 O 330.388 4.08695 -1.57798 0
M  V30 3286 C 331.889 4.4288 0.192912 0
M  V30 3287 H 329.109 0.659243 -0.125056 0
M  V30 3288 H 331.653 1.78927 -0.990226 0
M  V30 3289 H 329.808 3.85444 0.388801 0
M  V30 3290 H 330.222 5.02977 -1.48709 0
M  V30 3291 H 331.696 5.51791 0.151952 0
M  V30 3292 H 332.173 4.21418 1.23708 0
M  V30 3293 H 332.779 4.23069 -0.435039 0
M  V30 3294 N 331.094 0.475555 1.50254 0
M  V30 3295 C 332.026 -0.352649 2.26471 0
M  V30 3296 C 333.039 -0.953165 1.3198 0
M  V30 3297 O 334.228 -0.840815 1.57457 0
M  V30 3298 C 331.328 -1.50902 3.0345 0
M  V30 3299 C 330.501 -1.02047 4.25329 0
M  V30 3300 C 329.56 -2.05142 4.84565 0
M  V30 3301 O 328.586 -1.63023 5.45355 0
M  V30 3302 N 329.788 -3.37987 4.71959 0
M  V30 3303 H 332.553 0.300767 2.98187 0
M  V30 3304 H 330.114 0.306598 1.5897 0
M  V30 3305 H 332.106 -2.19572 3.39956 0
M  V30 3306 H 330.676 -2.06705 2.34504 0
M  V30 3307 H 329.896 -0.159507 3.93877 0
M  V30 3308 H 331.184 -0.672061 5.04342 0
M  V30 3309 H 330.582 -3.74913 4.23623 0
M  V30 3310 H 329.139 -4.02443 5.12721 0
M  V30 3311 N 332.573 -1.56217 0.208337 0
M  V30 3312 C 333.503 -2.22694 -0.702116 0
M  V30 3313 C 334.484 -1.19432 -1.2112 0
M  V30 3314 O 335.669 -1.47978 -1.25762 0
M  V30 3315 C 332.799 -2.8966 -1.9161 0
M  V30 3316 C 331.753 -3.9928 -1.5414 0
M  V30 3317 C 331.079 -4.53476 -2.83308 0
M  V30 3318 C 332.379 -5.17012 -0.741339 0
M  V30 3319 H 334.073 -2.99034 -0.147898 0
M  V30 3320 H 331.619 -1.43831 -0.0696951 0
M  V30 3321 H 333.572 -3.34852 -2.55836 0
M  V30 3322 H 332.296 -2.10746 -2.49507 0
M  V30 3323 H 330.955 -3.54799 -0.922668 0
M  V30 3324 H 330.603 -3.71308 -3.39322 0
M  V30 3325 H 330.303 -5.27451 -2.58976 0
M  V30 3326 H 331.827 -5.01378 -3.485 0
M  V30 3327 H 333.241 -5.58667 -1.28699 0
M  V30 3328 H 331.638 -5.97137 -0.595627 0
M  V30 3329 H 332.708 -4.8423 0.254851 0
M  V30 3330 N 334.051 0.0651679 -1.57465 0
M  V30 3331 C 335.328 0.79644 -1.78651 0
M  V30 3332 C 335.708 1.95454 -0.797566 0
M  V30 3333 O 335.056 2.27882 0.167946 0
M  V30 3334 C 335.266 1.26322 -3.25337 0
M  V30 3335 C 336.614 1.6939 -3.89348 0
M  V30 3336 O 337.638 1.35872 -3.29268 0
M  V30 3337 O 336.497 2.31471 -4.95059 0
M  V30 3338 H 333.591 0.382157 -0.733407 0
M  V30 3339 H 336.137 0.0447311 -1.69641 0
M  V30 3340 H 334.909 0.434859 -3.88876 0
M  V30 3341 H 334.532 2.07604 -3.39096 0
M  V30 3342 N 335.529 1.53961 0.336706 0
M  V30 3343 C 336.754 1.75797 1.10046 0
M  V30 3344 C 337.179 0.498985 1.81361 0
M  V30 3345 O 336.537 -0.548769 1.72795 0
M  V30 3346 C 336.585 2.94257 2.08436 0
M  V30 3347 O 335.689 2.64883 3.16087 0
M  V30 3348 H 335.03 0.582936 0.317934 0
M  V30 3349 H 337.56 2.00945 0.38501 0
M  V30 3350 H 337.57 3.21237 2.51537 0
M  V30 3351 H 336.245 3.85564 1.55927 0
M  V30 3352 H 334.822 2.48812 2.77753 0
M  V30 3353 N 337.007 -0.598083 1.45811 0
M  V30 3354 C 338.423 -0.919847 1.30426 0
M  V30 3355 C 338.623 -1.99759 0.264303 0
M  V30 3356 O 337.679 -2.50221 -0.338472 0
M  V30 3357 C 338.992 -1.35176 2.68603 0
M  V30 3358 C 340.54 -1.46546 2.76574 0
M  V30 3359 C 341.015 -1.9311 4.15298 0
M  V30 3360 N 342.506 -2.00328 4.1764 0
M  V30 3361 C 343.241 -2.37599 5.21856 0
M  V30 3362 N 342.737 -2.73771 6.36413 0
M  V30 3363 N 344.53 -2.38021 5.09218 0
M  V30 3364 H 336.681 0.114111 2.12093 0
M  V30 3365 H 338.944 -0.0116121 0.947929 0
M  V30 3366 H 338.65 -0.633969 3.45939 0
M  V30 3367 H 338.524 -2.3164 2.97696 0
M  V30 3368 H 340.911 -2.17415 1.99537 0
M  V30 3369 H 340.992 -0.483727 2.51185 0
M  V30 3370 H 340.636 -1.22824 4.92825 0
M  V30 3371 H 340.566 -2.92213 4.38086 0
M  V30 3372 H 343.057 -1.74925 3.34977 0
M  V30 3373 H 343.37 -3.0112 7.11721 0
M  V30 3374 H 341.715 -2.71445 6.39799 0
M  V30 3375 H 344.906 -2.09174 4.18765 0
M  V30 3376 H 345.079 -2.66741 5.90554 0
M  V30 3377 N 338.485 -1.33259 -0.841409 0
M  V30 3378 C 339.448 -1.23221 -1.9326 0
M  V30 3379 C 340.448 -0.151895 -1.60081 0
M  V30 3380 O 341.638 -0.403246 -1.69468 0
M  V30 3381 C 338.77 -0.898123 -3.28856 0
M  V30 3382 H 339.963 -2.2021 -2.03587 0
M  V30 3383 H 337.516 -1.17281 -1.03319 0
M  V30 3384 H 338.251 0.0693841 -3.24226 0
M  V30 3385 H 338.036 -1.67934 -3.54317 0
M  V30 3386 H 339.526 -0.852563 -4.08805 0
M  V30 3387 N 339.963 1.05934 -1.16686 0
M  V30 3388 C 341.188 1.83029 -0.975455 0
M  V30 3389 C 341.613 1.82096 0.471452 0
M  V30 3390 O 340.971 1.22443 1.33706 0
M  V30 3391 C 341.019 3.27372 -1.51195 0
M  V30 3392 O 340.123 4.06054 -0.720701 0
M  V30 3393 H 339.464 0.566194 -0.346872 0
M  V30 3394 H 341.994 1.33541 -1.55009 0
M  V30 3395 H 342.004 3.78186 -1.53099 0
M  V30 3396 H 340.679 3.27366 -2.56523 0
M  V30 3397 H 339.256 3.64812 -0.772458 0
M  V30 3398 N 341.441 0.965919 1.2453 0
M  V30 3399 C 342.857 0.67216 1.44756 0
M  V30 3400 C 343.057 -0.766609 1.86347 0
M  V30 3401 O 342.113 -1.5407 2.00047 0
M  V30 3402 C 343.426 1.65473 2.51076 0
M  V30 3403 C 344.974 1.66716 2.64905 0
M  V30 3404 C 345.449 2.63766 3.74421 0
M  V30 3405 N 346.94 2.62198 3.81846 0
M  V30 3406 C 347.675 3.33966 4.66106 0
M  V30 3407 N 347.171 4.15245 5.54566 0
M  V30 3408 N 348.964 3.22799 4.60171 0
M  V30 3409 H 341.115 1.89553 0.958293 0
M  V30 3410 H 343.378 0.815979 0.482579 0
M  V30 3411 H 343.084 2.68296 2.27399 0
M  V30 3412 H 342.958 1.4261 3.49202 0
M  V30 3413 H 345.345 0.646057 2.87941 0
M  V30 3414 H 345.426 1.93642 1.67142 0
M  V30 3415 H 345.07 3.6601 3.52135 0
M  V30 3416 H 345 2.34121 4.71694 0
M  V30 3417 H 347.491 2.032 3.18619 0
M  V30 3418 H 347.804 4.66898 6.15814 0
M  V30 3419 H 346.149 4.1934 5.54237 0
M  V30 3420 H 349.34 2.58764 3.90075 0
M  V30 3421 H 349.513 3.78994 5.25612 0
M  V30 3422 N 342.919 -1.39368 0.735821 0
M  V30 3423 C 343.852 -2.28155 0.0451175 0
M  V30 3424 C 344.83 -1.44433 -0.746852 0
M  V30 3425 O 346.014 -1.73823 -0.729237 0
M  V30 3426 C 343.141 -3.253 -0.943266 0
M  V30 3427 C 342.187 -4.25826 -0.239685 0
M  V30 3428 S 343.02 -5.25166 1.04693 0
M  V30 3429 C 344.176 -6.2587 0.0611639 0
M  V30 3430 H 344.409 -2.86388 0.79807 0
M  V30 3431 H 341.942 -1.45104 0.527653 0
M  V30 3432 H 343.9 -3.81789 -1.50824 0
M  V30 3433 H 342.561 -2.66085 -1.66906 0
M  V30 3434 H 341.754 -4.94229 -0.987596 0
M  V30 3435 H 341.356 -3.73141 0.253274 0
M  V30 3436 H 343.648 -6.73007 -0.778941 0
M  V30 3437 H 344.591 -7.04508 0.712362 0
M  V30 3438 H 344.999 -5.63639 -0.311602 0
M  V30 3439 N 344.397 -0.483516 -1.5 0
M  V30 3440 C 345.625 0.0644831 -2.06799 0
M  V30 3441 C 346.04 1.32399 -1.34596 0
M  V30 3442 O 345.397 1.77626 -0.418946 0
M  V30 3443 C 345.448 0.339927 -3.59898 0
M  V30 3444 O 345.169 -0.869635 -4.29382 0
M  V30 3445 C 346.67 0.933515 -4.33359 0
M  V30 3446 H 343.89 -0.0126333 -0.670881 0
M  V30 3447 H 346.434 -0.675864 -1.93009 0
M  V30 3448 H 344.589 1.03022 -3.7345 0
M  V30 3449 H 345.003 -0.62179 -5.20801 0
M  V30 3450 H 346.477 1.07593 -5.41413 0
M  V30 3451 H 346.954 1.92685 -3.94676 0
M  V30 3452 H 347.56 0.281221 -4.24369 0
M  V30 3453 N 345.875 1.56104 -0.216619 0
M  V30 3454 C 347.286 1.844 0.292128 0
M  V30 3455 C 347.637 1.13788 1.59833 0
M  V30 3456 O 346.762 0.405888 2.12559 0
M  V30 3457 C 347.357 3.3452 0.53681 0
M  V30 3458 C 345.916 3.63151 0.989876 0
M  V30 3459 C 345.063 2.77255 0.0502302 0
M  V30 3460 H 348.014 1.52481 -0.439926 0
M  V30 3461 H 348.035 3.54459 1.38345 0
M  V30 3462 H 347.547 3.85885 -0.414031 0
M  V30 3463 H 345.648 3.17238 1.95425 0
M  V30 3464 H 345.761 4.71177 0.867698 0
M  V30 3465 H 344.125 2.48555 0.556117 0
M  V30 3466 H 344.908 3.31416 -0.89544 0
M  V30 3467 N 347.353 -0.0568162 1.57498 0
M  V30 3468 C 348.301 -1.08452 2.05769 0
M  V30 3469 C 349.295 -1.39164 0.965903 0
M  V30 3470 O 350.501 -1.38395 1.15095 0
M  V30 3471 H 346.876 -0.367148 0.656282 0
M  V30 3472 H 348.847 -0.651368 2.91204 0
M  V30 3473 C 347.596 -2.38543 2.52968 0
M  V30 3474 H 346.919 -2.15765 3.36579 0
M  V30 3475 H 348.359 -3.08863 2.90481 0
M  V30 3476 C 346.818 -3.05562 1.41893 0
M  V30 3477 O 347.348 -3.94262 0.769442 0
M  V30 3478 N 345.554 -2.6643 1.16032 0
M  V30 3479 H 345.101 -1.94387 1.6903 0
M  V30 3480 H 345.059 -3.11593 0.419219 0
M  V30 3481 N 348.832 -1.54138 -0.328536 0
M  V30 3482 C 349.764 -1.79509 -1.4251 0
M  V30 3483 C 350.777 -0.67688 -1.48061 0
M  V30 3484 O 351.966 -0.953898 -1.50874 0
M  V30 3485 C 349.066 -1.89337 -2.81078 0
M  V30 3486 C 348.239 -3.19443 -2.98789 0
M  V30 3487 C 347.298 -3.20036 -4.17688 0
M  V30 3488 O 346.324 -3.93697 -4.11086 0
M  V30 3489 N 347.526 -2.43467 -5.26976 0
M  V30 3490 H 350.291 -2.74139 -1.21111 0
M  V30 3491 H 347.852 -1.53373 -0.518499 0
M  V30 3492 H 349.844 -1.87167 -3.58818 0
M  V30 3493 H 348.414 -1.01826 -2.95551 0
M  V30 3494 H 347.634 -3.34614 -2.08391 0
M  V30 3495 H 348.922 -4.05354 -3.07515 0
M  V30 3496 H 348.32 -1.83201 -5.35214 0
M  V30 3497 H 346.877 -2.4708 -6.03154 0
M  V30 3498 N 350.31 0.590341 -1.46126 0
M  V30 3499 C 351.273 1.68194 -1.55703 0
M  V30 3500 C 352.273 1.54808 -0.434868 0
M  V30 3501 O 353.463 1.59564 -0.698928 0
M  V30 3502 C 350.595 3.07575 -1.47005 0
M  V30 3503 H 351.788 1.61064 -2.52979 0
M  V30 3504 H 349.341 0.807541 -1.33823 0
M  V30 3505 H 350.076 3.20268 -0.509785 0
M  V30 3506 H 349.861 3.187 -2.28414 0
M  V30 3507 H 351.351 3.87055 -1.56776 0
M  V30 3508 N 351.788 1.33704 0.83433 0
M  V30 3509 C 352.718 1.26967 1.95963 0
M  V30 3510 C 353.699 0.149337 1.69443 0
M  V30 3511 O 354.884 0.339852 1.91203 0
M  V30 3512 C 352.014 1.01275 3.32206 0
M  V30 3513 C 350.968 2.09652 3.73136 0
M  V30 3514 C 350.294 1.69166 5.07235 0
M  V30 3515 C 351.594 3.51372 3.86439 0
M  V30 3516 H 353.288 2.2112 2.01857 0
M  V30 3517 H 350.834 1.06447 0.969793 0
M  V30 3518 H 352.787 0.952106 4.10503 0
M  V30 3519 H 351.511 0.0356203 3.26581 0
M  V30 3520 H 350.17 2.14766 2.97104 0
M  V30 3521 H 349.818 0.701437 4.98085 0
M  V30 3522 H 349.518 2.41694 5.35591 0
M  V30 3523 H 351.042 1.64576 5.88003 0
M  V30 3524 H 352.456 3.48734 4.55036 0
M  V30 3525 H 350.853 4.22425 4.26236 0
M  V30 3526 H 351.923 3.89546 2.88759 0
M  V30 3527 N 353.266 -1.05314 1.17247 0
M  V30 3528 C 354.196 -2.1498 0.911362 0
M  V30 3529 C 355.177 -1.69471 -0.146169 0
M  V30 3530 O 356.362 -1.942 0.003812 0
M  V30 3531 C 353.492 -3.4472 0.422528 0
M  V30 3532 C 352.446 -4.03789 1.4191 0
M  V30 3533 C 351.772 -5.28858 0.788274 0
M  V30 3534 C 353.072 -4.41418 2.7919 0
M  V30 3535 H 354.766 -2.3708 1.82848 0
M  V30 3536 H 352.312 -1.13938 0.880569 0
M  V30 3537 H 354.265 -4.20787 0.227289 0
M  V30 3538 H 352.989 -3.22269 -0.530123 0
M  V30 3539 H 351.648 -3.2979 1.60106 0
M  V30 3540 H 351.296 -5.02709 -0.171173 0
M  V30 3541 H 350.996 -5.69338 1.45353 0
M  V30 3542 H 352.52 -6.07612 0.603282 0
M  V30 3543 H 353.934 -5.08524 2.64719 0
M  V30 3544 H 352.331 -4.92913 3.42282 0
M  V30 3545 H 353.401 -3.51819 3.33693 0
M  V30 3546 N 354.744 -0.972509 -1.24016 0
M  V30 3547 C 355.969 -0.654417 -1.96805 0
M  V30 3548 C 356.394 0.770398 -1.716 0
M  V30 3549 O 355.752 1.52361 -0.982647 0
M  V30 3550 C 355.8 -0.941031 -3.48105 0
M  V30 3551 O 354.904 -0.0289472 -4.1239 0
M  V30 3552 H 354.245 -0.24692 -0.616382 0
M  V30 3553 H 356.775 -1.30396 -1.57664 0
M  V30 3554 H 356.785 -0.87452 -3.98517 0
M  V30 3555 H 355.46 -1.97939 -3.65777 0
M  V30 3556 H 354.037 -0.149192 -3.72601 0
M  V30 3557 N 356.222 1.38976 -0.743202 0
M  V30 3558 C 357.152 2.33171 -0.123873 0
M  V30 3559 C 358.133 1.54336 0.71516 0
M  V30 3560 O 359.318 1.82696 0.658467 0
M  V30 3561 C 356.448 3.38474 0.777978 0
M  V30 3562 C 355.402 4.27979 0.0424758 0
M  V30 3563 C 354.728 5.2405 1.06189 0
M  V30 3564 C 356.028 5.10155 -1.1198 0
M  V30 3565 H 357.722 2.85213 -0.910709 0
M  V30 3566 H 355.268 1.37133 -0.439388 0
M  V30 3567 H 357.221 4.03328 1.22084 0
M  V30 3568 H 355.945 2.84891 1.59702 0
M  V30 3569 H 354.604 3.64616 -0.380853 0
M  V30 3570 H 354.252 4.66758 1.87472 0
M  V30 3571 H 353.952 5.84785 0.574485 0
M  V30 3572 H 355.476 5.9178 1.50428 0
M  V30 3573 H 356.89 5.68307 -0.75499 0
M  V30 3574 H 355.287 5.80073 -1.53738 0
M  V30 3575 H 356.357 4.44504 -1.93764 0
M  V30 3576 N 357.7 0.491464 1.49741 0
M  V30 3577 C 358.65 -0.311086 2.25868 0
M  V30 3578 C 359.634 -0.943857 1.30308 0
M  V30 3579 O 360.826 -0.853035 1.55088 0
M  V30 3580 C 357.955 -1.38059 3.14316 0
M  V30 3581 C 357.041 -0.754541 4.17334 0
M  V30 3582 N 357.432 0.137216 5.05614 0
M  V30 3583 C 355.73 -1.01621 4.34269 0
M  V30 3584 C 356.431 0.494614 5.79593 0
M  V30 3585 N 355.407 -0.135169 5.43432 0
M  V30 3586 H 359.209 0.37555 2.91491 0
M  V30 3587 H 356.723 0.306917 1.59473 0
M  V30 3588 H 358.72 -1.96891 3.67477 0
M  V30 3589 H 357.38 -2.06901 2.50244 0
M  V30 3590 H 358.391 0.50741 5.15408 0
M  V30 3591 H 355.068 -1.69808 3.81407 0
M  V30 3592 H 356.458 1.2236 6.60665 0
M  V30 3593 N 359.178 -1.55987 0.224894 0
M  V30 3594 C 360.141 -2.19178 -0.670348 0
M  V30 3595 C 361.141 -1.15461 -1.11917 0
M  V30 3596 O 362.331 -1.40675 -1.02743 0
M  V30 3597 C 359.463 -2.81777 -1.9187 0
M  V30 3598 H 360.656 -2.99662 -0.119364 0
M  V30 3599 H 358.209 -1.5628 -0.0247128 0
M  V30 3600 H 358.944 -2.05172 -2.51147 0
M  V30 3601 H 358.729 -3.57732 -1.60531 0
M  V30 3602 H 360.219 -3.30205 -2.55645 0
M  V30 3603 N 360.656 0.0484629 -1.57525 0
M  V30 3604 C 361.933 0.777447 -1.79486 0
M  V30 3605 C 362.313 1.94597 -0.818251 0
M  V30 3606 O 361.661 2.28047 0.143767 0
M  V30 3607 C 361.871 1.22864 -3.26658 0
M  V30 3608 C 363.219 1.65251 -3.91123 0
M  V30 3609 O 364.243 1.32372 -3.3069 0
M  V30 3610 O 363.102 2.26207 -4.97486 0
M  V30 3611 H 360.196 0.374357 -0.737419 0
M  V30 3612 H 362.742 0.0267359 -1.69679 0
M  V30 3613 H 361.514 0.393589 -3.89316 0
M  V30 3614 H 361.137 2.03996 -3.41279 0
M  V30 3615 N 362.134 1.5431 0.320358 0
M  V30 3616 C 363.364 1.7638 1.07582 0
M  V30 3617 C 363.772 0.513944 1.82086 0
M  V30 3618 O 363.115 -0.525123 1.76035 0
M  V30 3619 C 363.177 2.9055 2.1171 0
M  V30 3620 C 362.841 4.2934 1.56575 0
M  V30 3621 C 363.838 5.10077 1.00586 0
M  V30 3622 C 361.523 4.75893 1.60722 0
M  V30 3623 C 363.517 6.35477 0.494756 0
M  V30 3624 C 361.204 6.0126 1.09224 0
M  V30 3625 C 362.202 6.80886 0.53696 0
M  V30 3626 O 361.89 8.03894 0.0297371 0
M  V30 3627 H 361.622 0.592369 0.325692 0
M  V30 3628 H 364.176 2.02019 0.37116 0
M  V30 3629 H 362.406 2.60489 2.85801 0
M  V30 3630 H 364.095 3.00373 2.73003 0
M  V30 3631 H 364.861 4.75265 0.966869 0
M  V30 3632 H 360.74 4.13957 2.02882 0
M  V30 3633 H 364.284 6.97574 0.0606842 0
M  V30 3634 H 360.181 6.35562 1.12831 0
M  V30 3635 H 360.949 8.18372 0.14486 0
M  V30 3636 N 363.613 -0.582584 1.46437 0
M  V30 3637 C 364.862 -1.337 1.5102 0
M  V30 3638 C 365.175 -1.94891 0.166359 0
M  V30 3639 O 366.381 -2.71351 0.0899954 0
M  V30 3640 C 364.837 -2.42315 2.66104 0
M  V30 3641 C 364.445 -1.87427 4.06909 0
M  V30 3642 C 366.189 -3.19099 2.79958 0
M  V30 3643 C 364.096 -2.93672 5.13333 0
M  V30 3644 H 363.026 -0.502619 0.562041 0
M  V30 3645 H 365.677 -0.621701 1.72647 0
M  V30 3646 H 364.059 -3.16645 2.37807 0
M  V30 3647 H 365.233 -1.19639 4.44998 0
M  V30 3648 H 363.548 -1.2331 3.97723 0
M  V30 3649 H 366.145 -3.9839 3.56636 0
M  V30 3650 H 366.488 -3.71695 1.87479 0
M  V30 3651 H 367.021 -2.51875 3.07902 0
M  V30 3652 H 363.76 -2.45962 6.07604 0
M  V30 3653 H 363.28 -3.59948 4.79789 0
M  V30 3654 H 364.959 -3.5762 5.39182 0
M  V30 3655 N 365.091 -1.34144 -0.827227 0
M  V30 3656 C 366.339 -1.26009 -1.58007 0
M  V30 3657 C 366.66 0.170971 -1.94249 0
M  V30 3658 O 365.93 1.10256 -1.61927 0
M  V30 3659 H 364.51 -0.463414 -0.585881 0
M  V30 3660 H 367.172 -1.68005 -0.987951 0
M  V30 3661 H 366.268 -1.86187 -2.50481 0
M  V30 3662 N 366.569 1.04691 -1.17803 0
M  V30 3663 C 367.817 1.7743 -0.967617 0
M  V30 3664 C 368.138 1.88359 0.504574 0
M  V30 3665 O 367.408 1.40402 1.36617 0
M  V30 3666 H 365.988 0.657242 -0.355024 0
M  V30 3667 H 368.65 1.2638 -1.48371 0
M  V30 3668 H 367.746 2.78924 -1.40027 0
M  V30 3669 N 368.047 0.979072 1.23499 0
M  V30 3670 C 369.324 0.563674 1.87302 0
M  V30 3671 C 369.704 -0.959199 1.88049 0
M  V30 3672 O 369.052 -1.83535 1.36114 0
M  V30 3673 C 369.262 1.16822 3.28867 0
M  V30 3674 C 370.61 1.26014 4.0547 0
M  V30 3675 O 371.634 1.12158 3.38082 0
M  V30 3676 O 370.493 1.48044 5.26066 0
M  V30 3677 H 367.587 0.189602 0.804972 0
M  V30 3678 H 370.133 1.07407 1.31384 0
M  V30 3679 H 368.905 2.21049 3.22883 0
M  V30 3680 H 368.528 0.642564 3.92373 0
M  V30 3681 N 369.525 -1.3858 0.750561 0
M  V30 3682 C 370.473 -2.32339 0.110162 0
M  V30 3683 C 371.467 -1.53864 -0.708674 0
M  V30 3684 O 372.673 -1.69417 -0.608112 0
M  V30 3685 H 369.048 -0.751812 0.0168275 0
M  V30 3686 H 371.019 -2.83959 0.917053 0
M  V30 3687 C 369.768 -3.39043 -0.771067 0
M  V30 3688 H 369.091 -3.99517 -0.150374 0
M  V30 3689 H 370.531 -4.07061 -1.1865 0
M  V30 3690 C 368.99 -2.77365 -1.91234 0
M  V30 3691 O 369.52 -2.66434 -3.00626 0
M  V30 3692 N 367.726 -2.35219 -1.70646 0
M  V30 3693 H 367.273 -2.4431 -0.81673 0
M  V30 3694 H 367.231 -1.94294 -2.47178 0
M  V30 3695 N 371.003 -0.499398 -1.49478 0
M  V30 3696 C 371.966 0.268838 -2.27618 0
M  V30 3697 C 372.966 0.895383 -1.33565 0
M  V30 3698 O 374.156 0.760164 -1.56739 0
M  V30 3699 C 371.288 1.38559 -3.11471 0
M  V30 3700 H 372.481 -0.416812 -2.96989 0
M  V30 3701 H 370.034 -0.254313 -1.54217 0
M  V30 3702 H 370.769 2.10544 -2.46661 0
M  V30 3703 H 370.554 0.941797 -3.80621 0
M  V30 3704 H 372.044 1.92678 -3.70493 0
M  V30 3705 N 372.481 1.55866 -0.233164 0
M  V30 3706 C 373.429 2.22176 0.68851 0
M  V30 3707 C 374.423 1.20487 1.19076 0
M  V30 3708 O 375.629 1.38536 1.14925 0
M  V30 3709 H 372.004 0.712511 0.240483 0
M  V30 3710 H 373.975 2.98212 0.105935 0
M  V30 3711 C 372.724 2.92446 1.88071 0
M  V30 3712 H 372.047 3.70458 1.50337 0
M  V30 3713 H 373.487 3.42226 2.50314 0
M  V30 3714 C 371.946 1.95555 2.74335 0
M  V30 3715 O 372.476 1.47986 3.73447 0
M  V30 3716 N 370.682 1.62953 2.40613 0
M  V30 3717 H 370.229 2.01831 1.60069 0
M  V30 3718 H 370.187 0.983886 2.98609 0
M  V30 3719 N 373.959 -0.0401083 1.57549 0
M  V30 3720 C 375.189 -0.744115 1.92734 0
M  V30 3721 C 375.597 -1.70005 0.830348 0
M  V30 3722 O 374.94 -1.82576 -0.20286 0
M  V30 3723 C 375.002 -1.56516 3.2364 0
M  V30 3724 C 374.666 -0.7752 4.50377 0
M  V30 3725 C 375.663 -0.0803326 5.19838 0
M  V30 3726 C 373.348 -0.733002 4.96923 0
M  V30 3727 C 375.342 0.646154 6.34116 0
M  V30 3728 C 373.029 -0.00276321 6.111 0
M  V30 3729 C 374.027 0.685585 6.7955 0
M  V30 3730 O 373.715 1.40399 7.91545 0
M  V30 3731 H 373.447 -0.214861 0.640945 0
M  V30 3732 H 376.001 -0.00503675 2.05399 0
M  V30 3733 H 374.231 -2.3478 3.07271 0
M  V30 3734 H 375.92 -2.15076 3.44234 0
M  V30 3735 H 376.686 -0.104035 4.84888 0
M  V30 3736 H 372.565 -1.25827 4.43496 0
M  V30 3737 H 376.109 1.18398 6.87479 0
M  V30 3738 H 372.006 0.0229012 6.45496 0
M  V30 3739 H 372.774 1.31653 8.07843 0
M  V30 3740 N 375.437 -1.54477 -0.31217 0
M  V30 3741 C 376.853 -1.45442 -0.657185 0
M  V30 3742 C 377.053 -0.63653 -1.91182 0
M  V30 3743 O 376.109 -0.139815 -2.52113 0
M  V30 3744 C 377.422 -2.89287 -0.82058 0
M  V30 3745 C 378.97 -2.9926 -0.917188 0
M  V30 3746 C 379.445 -4.44279 -1.11267 0
M  V30 3747 N 380.936 -4.4794 -1.17914 0
M  V30 3748 C 381.671 -5.57318 -1.34848 0
M  V30 3749 N 381.167 -6.76642 -1.48752 0
M  V30 3750 N 382.96 -5.44986 -1.37647 0
M  V30 3751 H 375.111 -2.06129 0.512313 0
M  V30 3752 H 377.374 -0.933088 0.167485 0
M  V30 3753 H 377.08 -3.51687 0.0302604 0
M  V30 3754 H 376.954 -3.36061 -1.71298 0
M  V30 3755 H 379.341 -2.36981 -1.75852 0
M  V30 3756 H 379.422 -2.558 -0.00101257 0
M  V30 3757 H 379.066 -5.07149 -0.27614 0
M  V30 3758 H 378.996 -4.85359 -2.04289 0
M  V30 3759 H 381.487 -3.61969 -1.08567 0
M  V30 3760 H 381.8 -7.55758 -1.61397 0
M  V30 3761 H 380.145 -6.79529 -1.45828 0
M  V30 3762 H 383.336 -4.50715 -1.26388 0
M  V30 3763 H 383.509 -6.3028 -1.50501 0
M  V30 3764 N 376.915 0.57481 -1.46744 0
M  V30 3765 C 378.331 0.898981 -1.31873 0
M  V30 3766 C 378.531 1.99313 -0.29605 0
M  V30 3767 O 377.587 2.50728 0.298621 0
M  V30 3768 C 378.9 1.30886 -2.7072 0
M  V30 3769 C 380.448 1.42127 -2.78871 0
M  V30 3770 C 380.923 1.86478 -4.18318 0
M  V30 3771 N 382.414 1.93658 -4.20774 0
M  V30 3772 C 383.149 2.29267 -5.2557 0
M  V30 3773 N 382.645 2.63612 -6.40688 0
M  V30 3774 N 384.438 2.29889 -5.1294 0
M  V30 3775 H 376.589 -0.147839 -2.11885 0
M  V30 3776 H 378.852 -0.00347013 -0.947994 0
M  V30 3777 H 378.558 0.578853 -3.46904 0
M  V30 3778 H 378.432 2.26874 -3.01343 0
M  V30 3779 H 380.819 2.14213 -2.0297 0
M  V30 3780 H 380.9 0.443705 -2.51922 0
M  V30 3781 H 380.544 1.14968 -4.94717 0
M  V30 3782 H 380.474 2.85207 -4.42679 0
M  V30 3783 H 382.965 1.69574 -3.37718 0
M  V30 3784 H 383.278 2.89759 -7.16421 0
M  V30 3785 H 381.623 2.61232 -6.44036 0
M  V30 3786 H 384.814 2.02485 -4.22039 0
M  V30 3787 H 384.987 2.57312 -5.94722 0
M  V30 3788 N 378.394 1.34581 0.820102 0
M  V30 3789 C 379.64 1.28294 1.57836 0
M  V30 3790 C 379.995 -0.145099 1.91852 0
M  V30 3791 O 379.288 -1.09209 1.57429 0
M  V30 3792 C 379.482 2.10997 2.8847 0
M  V30 3793 C 379.311 3.61698 2.67216 0
M  V30 3794 C 378.081 4.3097 2.63805 0
M  V30 3795 C 380.279 4.55638 2.38534 0
M  V30 3796 N 378.261 5.67502 2.34126 0
M  V30 3797 C 379.632 5.80194 2.18574 0
M  V30 3798 C 381.687 4.44523 2.24285 0
M  V30 3799 C 380.39 6.94886 1.8581 0
M  V30 3800 C 382.416 5.5905 1.92916 0
M  V30 3801 C 381.778 6.82627 1.73782 0
M  V30 3802 H 377.877 0.524697 0.579842 0
M  V30 3803 H 380.461 1.69323 0.961139 0
M  V30 3804 H 378.632 1.7226 3.48111 0
M  V30 3805 H 380.364 1.96333 3.53886 0
M  V30 3806 H 377.119 3.83438 2.77978 0
M  V30 3807 H 377.543 6.39525 2.22118 0
M  V30 3808 H 382.185 3.49599 2.37782 0
M  V30 3809 H 379.903 7.89789 1.7105 0
M  V30 3810 H 383.489 5.52396 1.82619 0
M  V30 3811 H 382.369 7.69748 1.49861 0
M  V30 3812 N 379.872 -1.04064 1.18357 0
M  V30 3813 C 381.102 -1.80654 1.00238 0
M  V30 3814 C 381.51 -1.83713 -0.452362 0
M  V30 3815 O 380.853 -1.27135 -1.32599 0
M  V30 3816 C 380.915 -3.27582 1.48088 0
M  V30 3817 C 380.579 -3.48184 2.96002 0
M  V30 3818 C 381.576 -3.39372 3.93856 0
M  V30 3819 C 379.261 -3.7478 3.34433 0
M  V30 3820 C 381.255 -3.5686 5.28138 0
M  V30 3821 C 378.942 -3.91915 4.68877 0
M  V30 3822 C 379.94 -3.82956 5.65539 0
M  V30 3823 O 379.628 -3.996 6.97549 0
M  V30 3824 H 379.36 -0.575751 0.354241 0
M  V30 3825 H 381.914 -1.32044 1.57333 0
M  V30 3826 H 380.144 -3.77161 0.853588 0
M  V30 3827 H 381.833 -3.8573 1.2636 0
M  V30 3828 H 382.599 -3.18789 3.65511 0
M  V30 3829 H 378.478 -3.80852 2.59756 0
M  V30 3830 H 382.022 -3.49783 6.03571 0
M  V30 3831 H 377.919 -4.11992 4.96923 0
M  V30 3832 H 378.687 -4.1676 7.04452 0
M  V30 3833 N 381.35 -0.985608 -1.22978 0
M  V30 3834 C 382.597 -0.657386 -1.91532 0
M  V30 3835 C 382.925 0.809707 -1.76845 0
M  V30 3836 O 382.18 1.60021 -1.12658 0
M  V30 3837 C 382.479 -1.00014 -3.43121 0
M  V30 3838 C 382.145 -2.4583 -3.77993 0
M  V30 3839 C 380.807 -2.85679 -3.87222 0
M  V30 3840 C 383.159 -3.40378 -3.94705 0
M  V30 3841 C 380.487 -4.19081 -4.10595 0
M  V30 3842 C 382.839 -4.73429 -4.1958 0
M  V30 3843 C 381.503 -5.1303 -4.27032 0
M  V30 3844 H 380.773 -0.240555 -0.700867 0
M  V30 3845 H 383.42 -1.24044 -1.45895 0
M  V30 3846 H 381.725 -0.335072 -3.90365 0
M  V30 3847 H 383.422 -0.724322 -3.94404 0
M  V30 3848 H 380.012 -2.13939 -3.71387 0
M  V30 3849 H 384.196 -3.10766 -3.8696 0
M  V30 3850 H 379.452 -4.49362 -4.14589 0
M  V30 3851 H 383.626 -5.46644 -4.31455 0
M  V30 3852 H 381.253 -6.16418 -4.44896 0
M  V30 3853 N 382.828 1.3818 -0.7579 0
M  V30 3854 C 383.791 2.28764 -0.141286 0
M  V30 3855 C 384.791 1.47388 0.642907 0
M  V30 3856 O 385.981 1.67781 0.468536 0
M  V30 3857 C 383.113 3.31184 0.808069 0
M  V30 3858 H 384.306 2.848 -0.939633 0
M  V30 3859 H 381.859 1.47212 -0.525191 0
M  V30 3860 H 382.594 2.80247 1.63193 0
M  V30 3861 H 382.379 3.91314 0.248104 0
M  V30 3862 H 383.869 3.98909 1.23536 0
M  V30 3863 N 384.306 0.507319 1.49211 0
M  V30 3864 C 385.269 -0.256763 2.27757 0
M  V30 3865 C 386.269 -0.888287 1.34038 0
M  V30 3866 O 387.459 -0.751841 1.5714 0
M  V30 3867 C 384.591 -1.36905 3.12202 0
M  V30 3868 H 385.784 0.432557 2.96764 0
M  V30 3869 H 383.337 0.262488 1.5408 0
M  V30 3870 H 384.072 -2.09233 2.47775 0
M  V30 3871 H 383.857 -0.921599 3.81115 0
M  V30 3872 H 385.347 -1.9071 3.7151 0
M  V30 3873 N 385.784 -1.5574 0.241426 0
M  V30 3874 C 386.734 -2.17803 -0.674233 0
M  V30 3875 C 387.718 -1.13225 -1.14319 0
M  V30 3876 O 388.91 -1.39153 -1.09387 0
M  V30 3877 C 386.039 -2.87682 -1.87333 0
M  V30 3878 C 385.125 -3.99509 -1.42313 0
M  V30 3879 N 385.516 -5.01115 -0.686798 0
M  V30 3880 C 383.814 -4.11964 -1.70885 0
M  V30 3881 C 384.515 -5.79922 -0.454456 0
M  V30 3882 N 383.491 -5.34001 -1.01705 0
M  V30 3883 H 387.293 -2.93718 -0.103447 0
M  V30 3884 H 384.807 -1.62342 0.0435095 0
M  V30 3885 H 386.804 -3.3057 -2.54026 0
M  V30 3886 H 385.464 -2.13269 -2.4484 0
M  V30 3887 H 386.475 -5.16799 -0.337459 0
M  V30 3888 H 383.152 -3.48718 -2.2957 0
M  V30 3889 H 384.542 -6.71768 0.132992 0
M  V30 3890 N 387.262 0.0317525 -1.57568 0
M  V30 3891 C 388.192 1.03274 -2.0942 0
M  V30 3892 C 389.173 1.3788 -0.996143 0
M  V30 3893 O 390.358 1.46811 -1.27122 0
M  V30 3894 C 387.488 2.33448 -2.57137 0
M  V30 3895 C 386.442 2.13091 -3.71182 0
M  V30 3896 C 385.768 3.49001 -4.05095 0
M  V30 3897 C 387.068 1.51928 -4.99715 0
M  V30 3898 H 388.762 0.60112 -2.93303 0
M  V30 3899 H 386.308 0.287705 -1.41097 0
M  V30 3900 H 388.261 3.03802 -2.92032 0
M  V30 3901 H 386.985 2.78665 -1.70333 0
M  V30 3902 H 385.644 1.45171 -3.36632 0
M  V30 3903 H 385.292 3.91862 -3.15362 0
M  V30 3904 H 384.992 3.36207 -4.81911 0
M  V30 3905 H 386.516 4.20721 -4.42522 0
M  V30 3906 H 387.93 2.12196 -5.32584 0
M  V30 3907 H 386.327 1.49716 -5.81124 0
M  V30 3908 H 387.397 0.484811 -4.8247 0
M  V30 3909 N 388.74 1.54641 0.303973 0
M  V30 3910 C 390.017 1.64455 1.05896 0
M  V30 3911 C 390.397 0.490923 2.05312 0
M  V30 3912 O 389.745 -0.512685 2.22674 0
M  V30 3913 C 389.955 3.02331 1.74347 0
M  V30 3914 C 391.303 3.59045 2.26653 0
M  V30 3915 O 392.327 3.04764 1.84384 0
M  V30 3916 O 391.186 4.54081 3.04093 0
M  V30 3917 H 388.28 0.666729 0.489287 0
M  V30 3918 H 390.826 1.66986 0.302298 0
M  V30 3919 H 389.598 3.77734 1.02142 0
M  V30 3920 H 389.221 3.03565 2.56777 0
M  V30 3921 N 390.218 -0.567019 1.47046 0
M  V30 3922 C 391.148 -1.68482 1.61667 0
M  V30 3923 C 392.129 -1.6358 0.466418 0
M  V30 3924 O 393.314 -1.81354 0.694574 0
M  V30 3925 C 390.444 -3.07124 1.62148 0
M  V30 3926 C 389.398 -3.26867 2.76301 0
M  V30 3927 C 388.724 -4.66196 2.61849 0
M  V30 3928 C 390.024 -3.13186 4.17986 0
M  V30 3929 H 391.718 -1.56502 2.5524 0
M  V30 3930 H 389.264 -0.751486 1.22836 0
M  V30 3931 H 391.217 -3.8516 1.70968 0
M  V30 3932 H 389.941 -3.2004 0.651287 0
M  V30 3933 H 388.6 -2.51237 2.66975 0
M  V30 3934 H 388.248 -4.75898 1.62879 0
M  V30 3935 H 387.948 -4.80356 3.38425 0
M  V30 3936 H 389.472 -5.46379 2.72584 0
M  V30 3937 H 390.886 -3.81049 4.2834 0
M  V30 3938 H 389.283 -3.3886 4.95272 0
M  V30 3939 H 390.353 -2.10057 4.3704 0
M  V30 3940 N 391.696 -1.35014 -0.812953 0
M  V30 3941 C 392.973 -1.18502 -1.55617 0
M  V30 3942 C 393.353 0.238421 -2.09749 0
M  V30 3943 O 392.701 1.2411 -1.91857 0
M  V30 3944 C 392.911 -2.24783 -2.66971 0
M  V30 3945 C 394.259 -2.60268 -3.35478 0
M  V30 3946 O 395.283 -2.23648 -2.77236 0
M  V30 3947 O 394.142 -3.2321 -4.40678 0
M  V30 3948 H 391.236 -0.459984 -0.687272 0
M  V30 3949 H 393.782 -1.46677 -0.853464 0
M  V30 3950 H 392.554 -3.20284 -2.24798 0
M  V30 3951 H 392.177 -1.97841 -3.44884 0
M  V30 3952 N 393.175 1.03435 -1.18907 0
M  V30 3953 C 394.452 1.73778 -0.89781 0
M  V30 3954 C 394.832 2.02458 0.597832 0
M  V30 3955 O 394.18 1.67482 1.55441 0
M  V30 3956 C 394.39 3.01845 -1.75187 0
M  V30 3957 C 395.738 3.7546 -1.9828 0
M  V30 3958 O 396.762 3.11759 -1.72293 0
M  V30 3959 O 395.621 4.89966 -2.42065 0
M  V30 3960 H 392.715 0.75651 -0.334098 0
M  V30 3961 H 395.261 1.09444 -1.29693 0
M  V30 3962 H 394.033 2.76836 -2.76545 0
M  V30 3963 H 393.656 3.73919 -1.35167 0
M  V30 3964 N 394.653 0.992116 1.22453 0
M  V30 3965 C 395.616 0.546883 2.2258 0
M  V30 3966 C 396.616 -0.369829 1.56489 0
M  V30 3967 O 397.806 -0.161896 1.73446 0
M  V30 3968 C 394.938 -0.204659 3.40285 0
M  V30 3969 H 396.131 1.43234 2.63484 0
M  V30 3970 H 393.684 0.779239 1.3549 0
M  V30 3971 H 394.419 -1.10614 3.04853 0
M  V30 3972 H 394.204 0.45354 3.89468 0
M  V30 3973 H 395.694 -0.504358 4.14543 0
M  V30 3974 N 396.131 -1.37776 0.765217 0
M  V30 3975 C 397.377 -2.00145 0.327072 0
M  V30 3976 C 397.71 -1.60607 -1.09175 0
M  V30 3977 O 396.985 -0.849127 -1.74986 0
M  V30 3978 C 397.268 -3.57109 0.46319 0
M  V30 3979 C 397.121 -4.06576 1.92395 0
M  V30 3980 C 398.44 -4.39888 -0.136473 0
M  V30 3981 H 395.559 -0.727113 0.120316 0
M  V30 3982 H 398.201 -1.63549 0.967039 0
M  V30 3983 H 396.351 -3.88414 -0.0816358 0
M  V30 3984 H 398.023 -3.85864 2.52798 0
M  V30 3985 H 396.266 -3.59011 2.43503 0
M  V30 3986 H 396.937 -5.15639 1.97028 0
M  V30 3987 H 399.413 -4.14803 0.328317 0
M  V30 3988 H 398.289 -5.48899 -0.0110582 0
M  V30 3989 H 398.55 -4.24758 -1.22608 0
M  V30 3990 N 397.609 -0.515225 -1.4894 0
M  V30 3991 C 398.857 0.0241671 -2.02086 0
M  V30 3992 C 399.178 1.3616 -1.3959 0
M  V30 3993 O 398.448 1.87841 -0.556121 0
M  V30 3994 H 397.028 0.0119203 -0.746905 0
M  V30 3995 H 399.69 -0.675702 -1.82812 0
M  V30 3996 H 398.786 0.143385 -3.1177 0
M  V30 3997 N 399.087 1.5561 -0.249682 0
M  V30 3998 C 400.334 1.99011 0.374287 0
M  V30 3999 C 400.662 1.13785 1.57744 0
M  V30 4000 O 399.917 0.189326 1.94782 0
M  V30 4001 C 400.216 3.4775 0.824887 0
M  V30 4002 C 399.882 4.50086 -0.270819 0
M  V30 4003 C 398.544 4.77791 -0.571746 0
M  V30 4004 C 400.896 5.11312 -1.01041 0
M  V30 4005 C 398.224 5.63997 -1.61629 0
M  V30 4006 C 400.576 5.98651 -2.0445 0
M  V30 4007 C 399.24 6.24688 -2.35204 0
M  V30 4008 H 398.51 0.728233 0.136961 0
M  V30 4009 H 401.157 1.88122 -0.358087 0
M  V30 4010 H 399.462 3.55985 1.63651 0
M  V30 4011 H 401.159 3.78721 1.31799 0
M  V30 4012 H 397.749 4.28592 -0.026136 0
M  V30 4013 H 401.933 4.89953 -0.791177 0
M  V30 4014 H 397.189 5.82425 -1.85988 0
M  V30 4015 H 401.363 6.45135 -2.62248 0
M  V30 4016 H 398.99 6.91281 -3.16282 0
M  V30 4017 N 400.565 -0.0233959 1.57583 0
M  V30 4018 C 401.528 -1.00693 2.05897 0
M  V30 4019 C 402.528 -1.28693 0.964092 0
M  V30 4020 O 403.718 -1.23602 1.22753 0
M  V30 4021 C 400.85 -2.33825 2.4807 0
M  V30 4022 H 402.043 -0.589476 2.9405 0
M  V30 4023 H 399.596 -0.270354 1.53944 0
M  V30 4024 H 400.331 -2.80307 1.6309 0
M  V30 4025 H 400.116 -2.1483 3.2801 0
M  V30 4026 H 401.606 -3.04426 2.85857 0
M  V30 4027 N 402.043 -1.548 -0.295768 0
M  V30 4028 C 402.991 -1.86874 -1.38495 0
M  V30 4029 C 403.985 -0.742938 -1.52239 0
M  V30 4030 O 405.191 -0.926999 -1.54294 0
M  V30 4031 H 401.566 -0.592786 -0.462719 0
M  V30 4032 H 403.537 -2.77904 -1.08682 0
M  V30 4033 C 402.286 -2.13732 -2.74252 0
M  V30 4034 H 401.609 -2.99835 -2.64459 0
M  V30 4035 H 403.049 -2.4011 -3.49461 0
M  V30 4036 C 401.508 -0.937539 -3.23592 0
M  V30 4037 O 402.038 -0.160665 -4.01379 0
M  V30 4038 N 400.244 -0.741478 -2.80981 0
M  V30 4039 H 399.791 -1.37489 -2.1784 0
M  V30 4040 H 399.749 0.0597103 -3.14343 0
M  V30 4041 N 403.521 0.559213 -1.47345 0
M  V30 4042 C 404.454 1.68201 -1.5422 0
M  V30 4043 C 405.432 1.57742 -0.394497 0
M  V30 4044 O 406.616 1.78628 -0.60201 0
M  V30 4045 C 403.743 3.0643 -1.44285 0
M  V30 4046 C 402.789 3.3534 -2.63532 0
M  V30 4047 S 403.622 3.24816 -4.25741 0
M  V30 4048 C 404.778 4.65542 -4.18355 0
M  V30 4049 H 405.011 1.62114 -2.49211 0
M  V30 4050 H 402.544 0.739871 -1.35519 0
M  V30 4051 H 404.502 3.86164 -1.3924 0
M  V30 4052 H 403.163 3.09984 -0.506816 0
M  V30 4053 H 402.356 4.36107 -2.52639 0
M  V30 4054 H 401.958 2.63221 -2.65689 0
M  V30 4055 H 404.25 5.56449 -3.86485 0
M  V30 4056 H 405.193 4.81493 -5.19202 0
M  V30 4057 H 405.601 4.43495 -3.49246 0
M  V30 4058 N 404.999 1.35443 0.805782 0
M  V30 4059 C 405.946 1.28431 1.91766 0
M  V30 4060 C 406.916 0.156102 1.65365 0
M  V30 4061 O 408.101 0.339936 1.87747 0
M  V30 4062 C 405.241 1.06301 3.2832 0
M  V30 4063 C 404.354 2.2805 3.66902 0
M  V30 4064 C 403.489 1.99064 4.92491 0
M  V30 4065 C 402.528 3.16863 5.23703 0
M  V30 4066 N 401.665 2.87647 6.40471 0
M  V30 4067 H 406.505 2.23511 1.97096 0
M  V30 4068 H 404.042 1.11105 0.964054 0
M  V30 4069 H 406 0.915012 4.07042 0
M  V30 4070 H 404.63 0.148822 3.22457 0
M  V30 4071 H 403.682 2.53711 2.83434 0
M  V30 4072 H 404.994 3.1601 3.85927 0
M  V30 4073 H 404.148 1.81099 5.7904 0
M  V30 4074 H 402.887 1.0839 4.75503 0
M  V30 4075 H 401.892 3.35404 4.35642 0
M  V30 4076 H 403.117 4.08339 5.4262 0
M  V30 4077 H 401.063 1.99568 6.24907 0
M  V30 4078 H 400.98 3.69141 6.59751 0
M  V30 4079 H 402.248 2.73226 7.30047 0
M  V30 4080 N 406.477 -1.02803 1.19454 0
M  V30 4081 C 407.407 -2.12999 0.956758 0
M  V30 4082 C 408.388 -1.69743 -0.110188 0
M  V30 4083 O 409.573 -1.94148 0.0450038 0
M  V30 4084 C 406.703 -3.43746 0.495553 0
M  V30 4085 C 405.657 -4.00688 1.50443 0
M  V30 4086 C 404.983 -5.27067 0.900275 0
M  V30 4087 C 406.283 -4.35397 2.8849 0
M  V30 4088 H 407.977 -2.33148 1.87836 0
M  V30 4089 H 405.523 -1.12045 0.904539 0
M  V30 4090 H 407.476 -4.2021 0.316493 0
M  V30 4091 H 406.2 -3.23321 -0.461646 0
M  V30 4092 H 404.859 -3.2632 1.67065 0
M  V30 4093 H 404.507 -5.02959 -0.064503 0
M  V30 4094 H 404.207 -5.66127 1.57397 0
M  V30 4095 H 405.731 -6.06196 0.73203 0
M  V30 4096 H 407.145 -5.02795 2.75446 0
M  V30 4097 H 405.542 -4.85541 3.52661 0
M  V30 4098 H 406.612 -3.44662 3.41081 0
M  V30 4099 N 407.956 -0.998596 -1.21925 0
M  V30 4100 C 409.204 -0.676325 -1.90448 0
M  V30 4101 C 409.525 0.794719 -1.78071 0
M  V30 4102 O 408.795 1.5701 -1.17152 0
M  V30 4103 H 407.375 -0.247165 -0.704925 0
M  V30 4104 H 410.037 -1.26633 -1.48156 0
M  V30 4105 H 409.133 -0.943858 -2.97486 0
M  V30 4106 N 409.434 1.37368 -0.772513 0
M  V30 4107 C 410.381 2.30262 -0.157488 0
M  V30 4108 C 411.351 1.51137 0.688965 0
M  V30 4109 O 412.536 1.79704 0.641168 0
M  V30 4110 C 409.676 3.37611 0.715045 0
M  V30 4111 C 408.789 4.31746 -0.148098 0
M  V30 4112 C 407.924 5.26171 0.729213 0
M  V30 4113 C 406.963 6.11948 -0.136418 0
M  V30 4114 N 406.1 6.98613 0.698914 0
M  V30 4115 H 410.94 2.82277 -0.955179 0
M  V30 4116 H 408.477 1.38957 -0.482631 0
M  V30 4117 H 410.435 3.98479 1.23575 0
M  V30 4118 H 409.065 2.86959 1.47833 0
M  V30 4119 H 408.117 3.72178 -0.786613 0
M  V30 4120 H 409.429 4.92084 -0.81579 0
M  V30 4121 H 408.583 5.92247 1.31637 0
M  V30 4122 H 407.322 4.66246 1.43059 0
M  V30 4123 H 406.327 5.4485 -0.736102 0
M  V30 4124 H 407.552 6.73945 -0.835134 0
M  V30 4125 H 405.498 6.41215 1.38489 0
M  V30 4126 H 405.415 7.55948 0.0885358 0
M  V30 4127 H 406.683 7.69077 1.27044 0
M  V30 4128 N 410.912 0.523116 1.48665 0
M  V30 4129 C 411.875 -0.232592 2.28017 0
M  V30 4130 C 412.875 -0.874021 1.34972 0
M  V30 4131 O 414.065 -0.735132 1.57929 0
M  V30 4132 C 411.197 -1.33586 3.13636 0
M  V30 4133 H 412.39 0.464008 2.96289 0
M  V30 4134 H 409.943 0.278816 1.53793 0
M  V30 4135 H 410.678 -2.06593 2.4998 0
M  V30 4136 H 410.463 -0.881125 3.82071 0
M  V30 4137 H 411.953 -1.86759 3.73511 0
M  V30 4138 N 412.39 -1.55475 0.257931 0
M  V30 4139 C 413.667 -1.91155 -0.414629 0
M  V30 4140 C 414.047 -1.18008 -1.75035 0
M  V30 4141 O 413.395 -0.301193 -2.26506 0
M  V30 4142 C 413.605 -3.44283 -0.571859 0
M  V30 4143 C 414.953 -4.15744 -0.862678 0
M  V30 4144 O 415.977 -3.50083 -0.657314 0
M  V30 4145 O 414.836 -5.31909 -1.2544 0
M  V30 4146 H 411.93 -0.796016 -0.22425 0
M  V30 4147 H 414.476 -1.66976 0.302814 0
M  V30 4148 H 413.248 -3.89558 0.368844 0
M  V30 4149 H 412.871 -3.7436 -1.33943 0
M  V30 4150 N 413.868 0.0150385 -1.57593 0
M  V30 4151 C 415.284 0.370907 -1.5523 0
M  V30 4152 C 415.484 1.75735 -0.985882 0
M  V30 4153 O 414.54 2.44944 -0.613077 0
M  V30 4154 C 415.853 0.259908 -2.99575 0
M  V30 4155 C 417.401 0.335959 -3.11192 0
M  V30 4156 C 417.876 0.254253 -4.57294 0
M  V30 4157 N 419.367 0.312618 -4.62144 0
M  V30 4158 C 420.102 0.272505 -5.72752 0
M  V30 4159 N 419.598 0.183864 -6.92556 0
M  V30 4160 N 421.391 0.323267 -5.6117 0
M  V30 4161 H 413.542 -0.892104 -1.92757 0
M  V30 4162 H 415.805 -0.340563 -0.884715 0
M  V30 4163 H 415.511 -0.693403 -3.44797 0
M  V30 4164 H 415.385 1.048 -3.62349 0
M  V30 4165 H 417.772 1.27971 -2.65909 0
M  V30 4166 H 417.853 -0.481739 -2.51223 0
M  V30 4167 H 417.497 -0.685887 -5.03247 0
M  V30 4168 H 417.427 1.09024 -5.15191 0
M  V30 4169 H 419.918 0.38307 -3.75953 0
M  V30 4170 H 420.231 0.15874 -7.72637 0
M  V30 4171 H 418.576 0.149708 -6.94839 0
M  V30 4172 H 421.767 0.390607 -4.66467 0
M  V30 4173 H 421.94 0.288539 -6.47357 0
M  V30 4174 N 415.346 1.54954 0.287554 0
M  V30 4175 C 416.293 1.86834 1.35505 0
M  V30 4176 C 417.263 0.718452 1.49758 0
M  V30 4177 O 418.448 0.968358 1.644 0
M  V30 4178 C 415.588 2.13303 2.71286 0
M  V30 4179 C 414.701 3.40883 2.65373 0
M  V30 4180 C 413.836 3.57125 3.93236 0
M  V30 4181 C 412.875 4.78449 3.81776 0
M  V30 4182 N 412.012 4.91426 5.01443 0
M  V30 4183 H 416.852 2.77889 1.07619 0
M  V30 4184 H 414.389 1.37593 0.520241 0
M  V30 4185 H 416.347 2.26646 3.50267 0
M  V30 4186 H 414.977 1.25499 2.97405 0
M  V30 4187 H 414.029 3.36088 1.78182 0
M  V30 4188 H 415.341 4.29993 2.52799 0
M  V30 4189 H 414.495 3.70207 4.80658 0
M  V30 4190 H 413.234 2.66173 4.0866 0
M  V30 4191 H 412.239 4.65386 2.92738 0
M  V30 4192 H 413.464 5.70822 3.67884 0
M  V30 4193 H 411.41 4.03401 5.17304 0
M  V30 4194 H 411.327 5.74559 4.91343 0
M  V30 4195 H 412.595 5.08879 5.90477 0
M  V30 4196 N 416.824 -0.551391 1.4764 0
M  V30 4197 C 418.052 -1.33357 1.58189 0
M  V30 4198 C 418.467 -1.87342 0.234199 0
M  V30 4199 O 417.824 -1.65301 -0.77343 0
M  V30 4200 C 417.875 -2.49942 2.61173 0
M  V30 4201 O 417.596 -1.98187 3.90709 0
M  V30 4202 C 419.097 -3.42072 2.8196 0
M  V30 4203 H 416.317 -0.40631 0.533998 0
M  V30 4204 H 418.861 -0.667367 1.93304 0
M  V30 4205 H 417.016 -3.12489 2.28975 0
M  V30 4206 H 417.43 -2.74342 4.47031 0
M  V30 4207 H 418.904 -4.20278 3.57869 0
M  V30 4208 H 419.381 -3.95978 1.89995 0
M  V30 4209 H 419.987 -2.85336 3.15378 0
M  V30 4210 N 418.302 -1.35869 -0.798587 0
M  V30 4211 C 419.718 -1.16082 -1.09532 0
M  V30 4212 C 419.918 0.0213124 -2.01489 0
M  V30 4213 O 418.974 0.689488 -2.42904 0
M  V30 4214 C 420.287 -2.46748 -1.7186 0
M  V30 4215 C 421.835 -2.53028 -1.84244 0
M  V30 4216 C 422.31 -3.83758 -2.49988 0
M  V30 4217 N 423.801 -3.85053 -2.57465 0
M  V30 4218 C 424.536 -4.8294 -3.09122 0
M  V30 4219 N 424.032 -5.91217 -3.61157 0
M  V30 4220 N 425.825 -4.70369 -3.0775 0
M  V30 4221 H 417.976 -2.11571 -0.187461 0
M  V30 4222 H 420.239 -0.936726 -0.145765 0
M  V30 4223 H 419.945 -3.33471 -1.11759 0
M  V30 4224 H 419.819 -2.61883 -2.71472 0
M  V30 4225 H 422.206 -1.66729 -2.43486 0
M  V30 4226 H 422.287 -2.418 -0.834643 0
M  V30 4227 H 421.931 -4.70459 -1.91393 0
M  V30 4228 H 421.861 -3.92278 -3.5132 0
M  V30 4229 H 424.352 -3.06822 -2.20609 0
M  V30 4230 H 424.665 -6.61892 -3.98896 0
M  V30 4231 H 423.01 -5.94899 -3.59333 0
M  V30 4232 H 426.201 -3.84914 -2.66381 0
M  V30 4233 H 426.374 -5.46816 -3.47701 0
M  V30 4234 N 419.78 1.02168 -1.19998 0
M  V30 4235 C 420.727 2.10601 -0.944228 0
M  V30 4236 C 421.697 1.65639 0.123664 0
M  V30 4237 O 422.882 1.9079 -0.0199941 0
M  V30 4238 C 420.022 3.41504 -0.496865 0
M  V30 4239 C 419.135 3.99973 -1.63234 0
M  V30 4240 C 418.27 5.18915 -1.13579 0
M  V30 4241 C 417.309 5.69456 -2.24468 0
M  V30 4242 N 416.446 6.79665 -1.76068 0
M  V30 4243 H 421.286 2.31814 -1.8726 0
M  V30 4244 H 418.823 1.13686 -0.933483 0
M  V30 4245 H 420.781 4.16626 -0.218843 0
M  V30 4246 H 419.411 3.2038 0.394508 0
M  V30 4247 H 418.463 3.21997 -2.0254 0
M  V30 4248 H 419.775 4.33492 -2.46752 0
M  V30 4249 H 418.929 6.01222 -0.813429 0
M  V30 4250 H 417.668 4.8695 -0.270434 0
M  V30 4251 H 416.673 4.85757 -2.57526 0
M  V30 4252 H 417.898 6.03459 -3.11472 0
M  V30 4253 H 415.844 6.49538 -0.918516 0
M  V30 4254 H 415.761 7.12349 -2.5317 0
M  V30 4255 H 417.029 7.65549 -1.46817 0
M  V30 4256 N 421.258 1.00505 1.21394 0
M  V30 4257 C 422.221 0.570459 2.21987 0
M  V30 4258 C 423.221 -0.353211 1.56873 0
M  V30 4259 O 424.411 -0.14349 1.73608 0
M  V30 4260 C 421.543 -0.168555 3.40483 0
M  V30 4261 H 422.736 1.46021 2.6195 0
M  V30 4262 H 420.289 0.793565 1.34656 0
M  V30 4263 H 421.024 -1.07374 3.06009 0
M  V30 4264 H 420.809 0.494823 3.88965 0
M  V30 4265 H 422.299 -0.460362 4.15055 0
M  V30 4266 N 422.737 -1.36956 0.779787 0
M  V30 4267 C 424.153 -1.52817 0.460342 0
M  V30 4268 C 424.353 -1.7361 -1.02283 0
M  V30 4269 O 423.409 -1.76207 -1.80852 0
M  V30 4270 C 424.722 -2.71983 1.28241 0
M  V30 4271 C 426.27 -2.85849 1.27512 0
M  V30 4272 C 426.745 -4.08008 2.08072 0
M  V30 4273 N 428.236 -4.15135 2.05467 0
M  V30 4274 C 428.971 -5.08711 2.64577 0
M  V30 4275 N 428.467 -6.07792 3.32506 0
M  V30 4276 N 430.26 -5.01254 2.54363 0
M  V30 4277 H 422.411 -1.21713 1.74068 0
M  V30 4278 H 424.674 -0.593294 0.739396 0
M  V30 4279 H 424.38 -2.63109 2.33381 0
M  V30 4280 H 424.254 -3.65882 0.917088 0
M  V30 4281 H 426.641 -2.94189 0.231686 0
M  V30 4282 H 426.722 -1.92886 1.68014 0
M  V30 4283 H 426.366 -4.00429 3.12441 0
M  V30 4284 H 426.296 -5.001 1.64947 0
M  V30 4285 H 428.787 -3.44189 1.5602 0
M  V30 4286 H 429.1 -6.75739 3.74963 0
M  V30 4287 H 427.445 -6.08047 3.36606 0
M  V30 4288 H 430.636 -4.22795 2.00902 0
M  V30 4289 H 430.809 -5.73995 3.00722 0
M  V30 4290 N 424.215 -0.530993 -1.48385 0
M  V30 4291 C 425.162 0.231223 -2.29639 0
M  V30 4292 C 426.132 0.932864 -1.37429 0
M  V30 4293 O 427.317 0.933692 -1.66394 0
M  V30 4294 C 424.457 1.27155 -3.2082 0
M  V30 4295 C 423.57 0.578655 -4.28107 0
M  V30 4296 C 422.705 1.602 -5.06467 0
M  V30 4297 C 421.744 0.892625 -6.05556 0
M  V30 4298 N 420.881 1.86157 -6.76971 0
M  V30 4299 H 425.721 -0.467848 -2.94305 0
M  V30 4300 H 423.258 -0.242556 -1.45086 0
M  V30 4301 H 425.216 1.88703 -3.72085 0
M  V30 4302 H 423.846 1.939 -2.58075 0
M  V30 4303 H 422.898 -0.150782 -3.80101 0
M  V30 4304 H 424.21 0.0217065 -4.98795 0
M  V30 4305 H 423.364 2.29173 -5.61751 0
M  V30 4306 H 422.103 2.19285 -4.35621 0
M  V30 4307 H 421.108 0.188829 -5.49476 0
M  V30 4308 H 422.333 0.307878 -6.78402 0
M  V30 4309 H 420.279 2.44147 -6.08875 0
M  V30 4310 H 420.196 1.35608 -7.43738 0
M  V30 4311 H 421.464 2.54325 -7.36844 0
M  V30 4312 N 425.693 1.55336 -0.266172 0
M  V30 4313 C 426.656 2.20878 0.612001 0
M  V30 4314 C 427.656 1.18388 1.08816 0
M  V30 4315 O 428.846 1.4335 0.989774 0
M  V30 4316 C 425.978 2.86765 1.84332 0
M  V30 4317 H 427.171 2.99873 0.0398718 0
M  V30 4318 H 424.724 1.56291 -0.0167309 0
M  V30 4319 H 425.459 2.11759 2.45619 0
M  V30 4320 H 425.244 3.61862 1.5099 0
M  V30 4321 H 426.734 3.36867 2.46801 0
M  V30 4322 N 427.171 -0.0066808 1.57599 0
M  V30 4323 C 428.134 -0.985035 2.06953 0
M  V30 4324 C 429.134 -1.27663 0.977687 0
M  V30 4325 O 430.324 -1.22293 1.24057 0
M  V30 4326 C 427.456 -2.3118 2.50536 0
M  V30 4327 H 428.649 -0.558255 2.94658 0
M  V30 4328 H 426.202 -0.254011 1.54222 0
M  V30 4329 H 426.937 -2.78561 1.66054 0
M  V30 4330 H 426.722 -2.11338 3.3027 0
M  V30 4331 H 428.212 -3.01377 2.8907 0
M  V30 4332 N 428.649 -1.55105 -0.279332 0
M  V30 4333 C 429.596 -1.8755 -1.34513 0
M  V30 4334 C 430.566 -0.726384 -1.49375 0
M  V30 4335 O 431.751 -0.977063 -1.63884 0
M  V30 4336 C 428.891 -2.14738 -2.70151 0
M  V30 4337 C 428.004 -3.42285 -2.63562 0
M  V30 4338 C 427.139 -3.59206 -3.91337 0
M  V30 4339 C 426.178 -4.80467 -3.79233 0
M  V30 4340 N 425.315 -4.94079 -4.98829 0
M  V30 4341 H 430.155 -2.78456 -1.06143 0
M  V30 4342 H 427.692 -1.37867 -0.512936 0
M  V30 4343 H 429.65 -2.28501 -3.49061 0
M  V30 4344 H 428.28 -1.27075 -2.96735 0
M  V30 4345 H 427.332 -3.37029 -1.76397 0
M  V30 4346 H 428.644 -4.31328 -2.50515 0
M  V30 4347 H 427.798 -3.72751 -4.78687 0
M  V30 4348 H 426.537 -2.68337 -4.07243 0
M  V30 4349 H 425.542 -4.66932 -2.90266 0
M  V30 4350 H 426.767 -5.72765 -3.64852 0
M  V30 4351 H 424.713 -4.06139 -5.15158 0
M  V30 4352 H 424.63 -5.77156 -4.8829 0
M  V30 4353 H 425.898 -5.12003 -5.8777 0
M  V30 4354 N 430.127 0.543554 -1.4793 0
M  V30 4355 C 431.09 1.63156 -1.60975 0
M  V30 4356 C 432.09 1.53346 -0.483899 0
M  V30 4357 O 433.28 1.5726 -0.749339 0
M  V30 4358 C 430.412 3.02743 -1.56716 0
M  V30 4359 H 431.605 1.52934 -2.57975 0
M  V30 4360 H 429.158 0.764557 -1.36324 0
M  V30 4361 H 429.893 3.18484 -0.611418 0
M  V30 4362 H 429.678 3.11272 -2.38438 0
M  V30 4363 H 431.168 3.81871 -1.6901 0
M  V30 4364 N 431.605 1.3629 0.791371 0
M  V30 4365 C 432.568 1.30309 1.88553 0
M  V30 4366 C 433.568 0.211204 1.59407 0
M  V30 4367 O 434.758 0.465865 1.67855 0
M  V30 4368 C 431.89 1.01956 3.25297 0
M  V30 4369 H 433.083 2.27614 1.95273 0
M  V30 4370 H 430.636 1.21035 0.988953 0
M  V30 4371 H 431.371 0.050998 3.2426 0
M  V30 4372 H 431.156 1.80968 3.4784 0
M  V30 4373 H 432.646 1.0037 4.05359 0
M  V30 4374 N 433.083 -1.0153 1.20538 0
M  V30 4375 C 434.046 -2.0826 0.957098 0
M  V30 4376 C 435.046 -1.60657 -0.0678655 0
M  V30 4377 O 436.236 -1.73385 0.168332 0
M  V30 4378 C 433.368 -3.38033 0.441188 0
M  V30 4379 H 434.561 -2.31719 1.90384 0
M  V30 4380 H 432.114 -1.1835 1.02093 0
M  V30 4381 H 432.849 -3.20249 -0.510961 0
M  V30 4382 H 432.634 -3.73911 1.18038 0
M  V30 4383 H 434.124 -4.16613 0.287009 0
M  V30 4384 N 434.561 -1.01147 -1.20859 0
M  V30 4385 C 435.493 -0.535546 -2.22855 0
M  V30 4386 C 436.506 0.379323 -1.58319 0
M  V30 4387 O 437.695 0.178489 -1.77605 0
M  V30 4388 C 434.795 0.240962 -3.38042 0
M  V30 4389 C 433.968 -0.674562 -4.32167 0
M  V30 4390 C 433.027 0.053467 -5.26173 0
M  V30 4391 O 432.053 -0.567339 -5.66366 0
M  V30 4392 N 433.255 1.32997 -5.65059 0
M  V30 4393 H 436.02 -1.41268 -2.64317 0
M  V30 4394 H 433.581 -0.888386 -1.35349 0
M  V30 4395 H 435.573 0.737115 -3.97931 0
M  V30 4396 H 434.143 1.01935 -2.95513 0
M  V30 4397 H 433.363 -1.35111 -3.70322 0
M  V30 4398 H 434.651 -1.2974 -4.91981 0
M  V30 4399 H 434.049 1.85536 -5.34409 0
M  V30 4400 H 432.606 1.77095 -6.2728 0
M  V30 4401 N 436.039 1.36541 -0.78704 0
M  V30 4402 C 436.971 2.28761 -0.141773 0
M  V30 4403 C 437.984 1.49365 0.647599 0
M  V30 4404 O 439.173 1.71836 0.483173 0
M  V30 4405 C 436.273 3.28771 0.822368 0
M  V30 4406 C 435.446 4.3732 0.0835594 0
M  V30 4407 C 434.505 5.17307 0.963296 0
M  V30 4408 O 433.531 5.67638 0.421419 0
M  V30 4409 N 434.733 5.33515 2.28784 0
M  V30 4410 H 437.498 2.84777 -0.933919 0
M  V30 4411 H 435.059 1.48682 -0.640735 0
M  V30 4412 H 437.051 3.79169 1.41468 0
M  V30 4413 H 435.621 2.73412 1.5154 0
M  V30 4414 H 434.841 3.88118 -0.689809 0
M  V30 4415 H 436.129 5.0701 -0.426358 0
M  V30 4416 H 435.527 4.94234 2.75226 0
M  V30 4417 H 434.084 5.87165 2.82985 0
M  V30 4418 N 437.518 0.538854 1.48102 0
M  V30 4419 C 438.466 -0.232325 2.31437 0
M  V30 4420 C 439.46 -0.927004 1.41785 0
M  V30 4421 O 440.666 -0.850378 1.58646 0
M  V30 4422 H 437.041 -0.0937916 0.746128 0
M  V30 4423 H 439.012 0.489986 2.9435 0
M  V30 4424 C 437.761 -1.26074 3.24038 0
M  V30 4425 H 437.084 -0.735609 3.92974 0
M  V30 4426 H 438.524 -1.77157 3.85216 0
M  V30 4427 C 436.983 -2.29902 2.46265 0
M  V30 4428 O 437.513 -3.36502 2.19384 0
M  V30 4429 N 435.719 -2.03348 2.07601 0
M  V30 4430 H 435.266 -1.16675 2.29662 0
M  V30 4431 H 435.224 -2.73038 1.55877 0
M  V30 4432 N 438.996 -1.55193 0.274407 0
M  V30 4433 C 440.407 -1.85358 -0.223488 0
M  V30 4434 C 440.758 -1.19642 -1.555 0
M  V30 4435 O 439.883 -0.484498 -2.10907 0
M  V30 4436 C 440.478 -3.36282 -0.412285 0
M  V30 4437 C 439.037 -3.66574 -0.854413 0
M  V30 4438 C 438.184 -2.7725 0.0527056 0
M  V30 4439 H 441.135 -1.50743 0.496215 0
M  V30 4440 H 441.156 -3.59349 -1.25094 0
M  V30 4441 H 440.668 -3.84083 0.556965 0
M  V30 4442 H 438.769 -3.24273 -1.83516 0
M  V30 4443 H 438.882 -4.74073 -0.692226 0
M  V30 4444 H 437.246 -2.50447 -0.463484 0
M  V30 4445 H 438.029 -3.27865 1.01783 0
M  V30 4446 N 440.474 -0.00167713 -1.576 0
M  V30 4447 C 441.384 1.00548 -2.1196 0
M  V30 4448 C 442.4 1.3758 -1.06526 0
M  V30 4449 O 443.576 1.46278 -1.38436 0
M  V30 4450 C 440.641 2.27809 -2.6135 0
M  V30 4451 C 439.702 1.97074 -3.81393 0
M  V30 4452 C 438.935 3.18267 -4.28417 0
M  V30 4453 O 439.158 4.30009 -3.74765 0
M  V30 4454 O 438.092 3.02167 -5.20556 0
M  V30 4455 H 441.918 0.573373 -2.98238 0
M  V30 4456 H 439.503 0.217255 -1.47812 0
M  V30 4457 H 441.385 3.02568 -2.93309 0
M  V30 4458 H 440.06 2.70254 -1.78169 0
M  V30 4459 H 438.967 1.19785 -3.54404 0
M  V30 4460 H 440.3 1.59464 -4.65652 0
M  V30 4461 N 441.952 1.55251 0.271103 0
M  V30 4462 C 442.9 1.89054 1.35504 0
M  V30 4463 C 443.894 0.767064 1.51038 0
M  V30 4464 O 445.1 0.951429 1.528 0
M  V30 4465 H 441.475 0.600072 0.45323 0
M  V30 4466 H 443.446 2.79598 1.04247 0
M  V30 4467 C 442.195 2.18068 2.70817 0
M  V30 4468 H 441.518 3.04005 2.59656 0
M  V30 4469 H 442.958 2.4564 3.45597 0
M  V30 4470 C 441.417 0.988901 3.2206 0
M  V30 4471 O 441.947 0.224501 4.01072 0
M  V30 4472 N 440.153 0.786085 2.79766 0
M  V30 4473 H 439.7 1.40937 2.15626 0
M  V30 4474 H 439.658 -0.00969349 3.14399 0
M  V30 4475 N 443.43 -0.535701 1.48216 0
M  V30 4476 C 444.676 -1.29375 1.56173 0
M  V30 4477 C 445.009 -1.92804 0.232429 0
M  V30 4478 O 444.284 -1.78992 -0.761048 0
M  V30 4479 C 444.567 -2.38747 2.69577 0
M  V30 4480 C 444.42 -1.80046 4.12193 0
M  V30 4481 C 445.739 -3.40551 2.78771 0
M  V30 4482 H 442.858 -0.469027 0.568491 0
M  V30 4483 H 445.5 -0.597358 1.80365 0
M  V30 4484 H 443.65 -2.98147 2.4908 0
M  V30 4485 H 445.322 -1.24742 4.44114 0
M  V30 4486 H 443.565 -1.10609 4.19462 0
M  V30 4487 H 444.236 -2.59212 4.87353 0
M  V30 4488 H 446.712 -2.91099 2.97322 0
M  V30 4489 H 445.588 -4.1448 3.59857 0
M  V30 4490 H 445.849 -4.00746 1.86696 0
M  V30 4491 N 444.908 -1.36708 -0.784132 0
M  V30 4492 C 445.818 -1.3363 -1.92822 0
M  V30 4493 C 446.834 -0.237686 -1.72369 0
M  V30 4494 O 448.01 -0.470962 -1.95816 0
M  V30 4495 C 445.075 -1.13011 -3.27764 0
M  V30 4496 C 444.136 -2.32397 -3.60957 0
M  V30 4497 C 443.369 -2.12752 -4.89461 0
M  V30 4498 O 443.592 -1.10541 -5.59586 0
M  V30 4499 O 442.526 -3.00653 -5.21432 0
M  V30 4500 H 446.352 -2.29964 -1.98369 0
M  V30 4501 H 443.937 -1.1731 -0.925136 0
M  V30 4502 H 445.819 -1.03451 -4.08504 0
M  V30 4503 H 444.494 -0.19743 -3.23097 0
M  V30 4504 H 443.401 -2.47527 -2.80502 0
M  V30 4505 H 444.734 -3.2419 -3.70354 0
M  V30 4506 N 446.386 1.0089 -1.21074 0
M  V30 4507 C 447.296 2.13039 -0.982425 0
M  V30 4508 C 448.312 1.73881 0.0642161 0
M  V30 4509 O 449.488 2.01012 -0.12496 0
M  V30 4510 C 446.553 3.42377 -0.545803 0
M  V30 4511 C 445.614 3.95731 -1.6642 0
M  V30 4512 C 444.847 5.18896 -1.24832 0
M  V30 4513 O 445.07 5.70273 -0.120265 0
M  V30 4514 O 444.004 5.65597 -2.05873 0
M  V30 4515 H 447.83 2.35175 -1.92163 0
M  V30 4516 H 445.415 1.1142 -0.995285 0
M  V30 4517 H 447.297 4.20244 -0.311912 0
M  V30 4518 H 445.972 3.21639 0.364727 0
M  V30 4519 H 444.879 3.19108 -1.95246 0
M  V30 4520 H 446.212 4.20872 -2.55201 0
M  V30 4521 N 447.864 1.01787 1.20321 0
M  V30 4522 C 448.812 0.58254 2.25187 0
M  V30 4523 C 449.806 -0.379359 1.65098 0
M  V30 4524 O 451.012 -0.249142 1.78267 0
M  V30 4525 H 447.387 0.170078 0.732514 0
M  V30 4526 H 449.358 1.47788 2.59232 0
M  V30 4527 C 448.107 -0.0620885 3.47645 0
M  V30 4528 H 447.43 0.669069 3.94162 0
M  V30 4529 H 448.87 -0.329784 4.22716 0
M  V30 4530 C 447.329 -1.3053 3.10586 0
M  V30 4531 O 447.859 -2.39848 3.22236 0
M  V30 4532 N 446.065 -1.18988 2.65123 0
M  V30 4533 H 445.612 -0.300341 2.55843 0
M  V30 4534 H 445.57 -2.02267 2.40698 0
M  V30 4535 N 449.342 -1.36122 0.79427 0
M  V30 4536 C 450.272 -2.32551 0.210328 0
M  V30 4537 C 451.253 -1.56884 -0.657386 0
M  V30 4538 O 452.438 -1.85014 -0.590207 0
M  V30 4539 C 449.568 -3.41128 -0.651819 0
M  V30 4540 C 448.522 -4.27842 0.116395 0
M  V30 4541 C 447.848 -5.2763 -0.86666 0
M  V30 4542 C 449.148 -5.05647 1.30837 0
M  V30 4543 H 450.842 -2.81636 1.01594 0
M  V30 4544 H 448.388 -1.35407 0.489981 0
M  V30 4545 H 450.341 -4.07581 -1.07031 0
M  V30 4546 H 449.065 -2.90622 -1.49019 0
M  V30 4547 H 447.724 -3.62952 0.515915 0
M  V30 4548 H 447.372 -4.73395 -1.70019 0
M  V30 4549 H 447.072 -5.86514 -0.35705 0
M  V30 4550 H 448.596 -5.96955 -1.28361 0
M  V30 4551 H 450.01 -5.65113 0.965393 0
M  V30 4552 H 448.407 -5.73967 1.75161 0
M  V30 4553 H 449.477 -4.37006 2.10128 0
M  V30 4554 N 450.82 -0.546701 -1.47814 0
M  V30 4555 C 451.73 0.21026 -2.33656 0
M  V30 4556 C 452.746 0.922413 -1.47538 0
M  V30 4557 O 453.922 0.893652 -1.80488 0
M  V30 4558 C 450.987 1.23348 -3.24016 0
M  V30 4559 C 450.048 0.529883 -4.26017 0
M  V30 4560 C 449.281 1.50435 -5.12059 0
M  V30 4561 O 449.504 2.73837 -5.00369 0
M  V30 4562 O 448.438 1.03459 -5.92942 0
M  V30 4563 H 452.264 -0.493605 -2.99662 0
M  V30 4564 H 449.849 -0.307427 -1.46203 0
M  V30 4565 H 451.731 1.82438 -3.79861 0
M  V30 4566 H 450.406 1.91945 -2.60651 0
M  V30 4567 H 449.313 -0.101948 -3.73961 0
M  V30 4568 H 450.646 -0.11445 -4.92067 0
M  V30 4569 N 452.299 1.55045 -0.282633 0
M  V30 4570 C 453.262 2.21515 0.588539 0
M  V30 4571 C 454.262 1.19535 1.07554 0
M  V30 4572 O 455.452 1.44391 0.974514 0
M  V30 4573 C 452.584 2.88704 1.8128 0
M  V30 4574 H 453.777 2.99899 0.00806397 0
M  V30 4575 H 451.33 1.56265 -0.0333067 0
M  V30 4576 H 452.065 2.14352 2.43359 0
M  V30 4577 H 451.85 3.63443 1.47144 0
M  V30 4578 H 453.34 3.39465 2.43214 0
M  V30 4579 N 453.777 0.010035 1.57597 0
M  V30 4580 C 454.71 -1.01234 2.04516 0
M  V30 4581 C 455.688 -1.32886 0.937024 0
M  V30 4582 O 456.872 -1.44879 1.20592 0
M  V30 4583 C 453.999 -2.33738 2.45121 0
M  V30 4584 C 453.045 -2.17679 3.66767 0
M  V30 4585 S 453.878 -1.49343 5.14254 0
M  V30 4586 C 455.034 -2.83256 5.58137 0
M  V30 4587 H 455.267 -0.612866 2.90914 0
M  V30 4588 H 452.8 -0.201124 1.53084 0
M  V30 4589 H 454.758 -3.09922 2.69182 0
M  V30 4590 H 453.419 -2.70823 1.59103 0
M  V30 4591 H 452.612 -3.1559 3.92962 0
M  V30 4592 H 452.214 -1.4964 3.42759 0
M  V30 4593 H 454.506 -3.79538 5.6121 0
M  V30 4594 H 455.449 -2.61749 6.57946 0
M  V30 4595 H 455.857 -2.87627 4.85727 0
M  V30 4596 N 455.255 -1.55392 -0.262866 0
M  V30 4597 C 456.165 -1.92077 -1.34698 0
M  V30 4598 C 457.181 -0.819227 -1.53508 0
M  V30 4599 O 458.357 -1.11921 -1.67439 0
M  V30 4600 C 455.422 -2.19407 -2.68443 0
M  V30 4601 C 454.483 -3.42905 -2.58292 0
M  V30 4602 C 453.716 -3.68921 -3.85659 0
M  V30 4603 O 453.939 -2.97275 -4.8681 0
M  V30 4604 O 452.873 -4.62455 -3.85252 0
M  V30 4605 H 456.699 -2.84384 -1.06581 0
M  V30 4606 H 454.284 -1.42069 -0.462264 0
M  V30 4607 H 456.166 -2.38365 -3.47506 0
M  V30 4608 H 454.841 -1.30282 -2.96325 0
M  V30 4609 H 453.748 -3.29272 -1.7757 0
M  V30 4610 H 455.081 -4.32282 -2.35358 0
M  V30 4611 N 456.733 0.527833 -1.48498 0
M  V30 4612 C 457.981 1.28101 -1.56316 0
M  V30 4613 C 458.302 1.9352 -0.239781 0
M  V30 4614 O 457.572 1.81433 0.738849 0
M  V30 4615 H 456.152 0.475793 -0.575873 0
M  V30 4616 H 458.814 0.614052 -1.84974 0
M  V30 4617 H 457.91 2.05916 -2.34532 0
M  V30 4618 N 458.211 1.37122 0.776871 0
M  V30 4619 C 459.488 1.22586 1.52421 0
M  V30 4620 C 459.868 -0.182726 2.10308 0
M  V30 4621 O 459.216 -1.18979 1.9508 0
M  V30 4622 C 459.426 2.31782 2.60918 0
M  V30 4623 C 460.774 2.69071 3.2846 0
M  V30 4624 O 461.798 2.3092 2.71209 0
M  V30 4625 O 460.657 3.3478 4.31954 0
M  V30 4626 H 457.751 0.478045 0.674835 0
M  V30 4627 H 460.297 1.48888 0.814275 0
M  V30 4628 H 459.069 3.26131 2.16227 0
M  V30 4629 H 458.692 2.06916 3.39517 0
M  V30 4630 N 459.689 -1.00246 1.21608 0
M  V30 4631 C 460.637 -2.11193 0.97469 0
M  V30 4632 C 461.631 -1.69216 -0.0789303 0
M  V30 4633 O 462.837 -1.79853 0.0726806 0
M  V30 4634 H 459.212 -0.690455 0.297953 0
M  V30 4635 H 461.183 -2.2873 1.91638 0
M  V30 4636 C 459.932 -3.43182 0.558717 0
M  V30 4637 H 459.255 -3.75918 1.3611 0
M  V30 4638 H 460.695 -4.21823 0.429154 0
M  V30 4639 C 459.154 -3.28882 -0.730648 0
M  V30 4640 O 459.684 -3.59835 -1.78554 0
M  V30 4641 N 457.89 -2.8209 -0.698131 0
M  V30 4642 H 457.437 -2.57099 0.16061 0
M  V30 4643 H 457.395 -2.72903 -1.56113 0
M  V30 4644 N 461.167 -1.02423 -1.1978 0
M  V30 4645 C 462.392 -0.7373 -1.93852 0
M  V30 4646 C 462.817 0.696923 -1.74713 0
M  V30 4647 O 462.175 1.48056 -1.04638 0
M  V30 4648 C 462.223 -1.08783 -3.438 0
M  V30 4649 O 461.327 -0.20383 -4.11896 0
M  V30 4650 H 460.668 -0.27284 -0.605355 0
M  V30 4651 H 463.198 -1.36966 -1.51992 0
M  V30 4652 H 463.208 -1.04276 -3.9445 0
M  V30 4653 H 461.883 -2.13274 -3.57053 0
M  V30 4654 H 460.46 -0.307091 -3.71633 0
M  V30 4655 N 462.645 1.35699 -0.801477 0
M  V30 4656 C 463.575 2.32436 -0.222658 0
M  V30 4657 C 464.556 1.5723 0.649057 0
M  V30 4658 O 465.741 1.85324 0.580387 0
M  V30 4659 C 462.871 3.41469 0.633719 0
M  V30 4660 C 461.825 4.27774 -0.139083 0
M  V30 4661 C 461.151 5.28082 0.838666 0
M  V30 4662 C 462.451 5.04946 -1.33517 0
M  V30 4663 H 464.145 2.81094 -1.03086 0
M  V30 4664 H 461.691 1.35146 -0.497155 0
M  V30 4665 H 463.644 4.08143 1.04868 0
M  V30 4666 H 462.368 2.91408 1.47475 0
M  V30 4667 H 461.027 3.62673 -0.535156 0
M  V30 4668 H 460.675 4.7429 1.67506 0
M  V30 4669 H 460.375 5.86695 0.32594 0
M  V30 4670 H 461.899 5.97628 1.25194 0
M  V30 4671 H 463.313 5.64593 -0.995349 0
M  V30 4672 H 461.71 5.7303 -1.78202 0
M  V30 4673 H 462.78 4.35886 -2.12442 0
M  V30 4674 N 464.123 0.554532 1.47522 0
M  V30 4675 C 465.033 -0.197865 2.33764 0
M  V30 4676 C 466.049 -0.914576 1.48025 0
M  V30 4677 O 467.225 -0.884067 1.80959 0
M  V30 4678 C 464.29 -1.21628 3.24665 0
M  V30 4679 C 463.351 -0.507283 4.26292 0
M  V30 4680 C 462.584 -1.47718 5.1285 0
M  V30 4681 O 462.807 -2.7118 5.01814 0
M  V30 4682 O 461.741 -1.00313 5.93482 0
M  V30 4683 H 465.567 0.50949 2.99396 0
M  V30 4684 H 463.152 0.315176 1.46038 0
M  V30 4685 H 465.034 -1.80421 3.80823 0
M  V30 4686 H 463.709 -1.9056 2.61665 0
M  V30 4687 H 462.616 0.121778 3.73902 0
M  V30 4688 H 463.949 0.140544 4.91999 0
M  V30 4689 N 465.601 -1.54893 0.290851 0
M  V30 4690 C 466.564 -2.21824 -0.576784 0
M  V30 4691 C 467.564 -1.20104 -1.06919 0
M  V30 4692 O 468.754 -1.44906 -0.966843 0
M  V30 4693 C 465.886 -2.89662 -1.79747 0
M  V30 4694 H 467.079 -2.99899 0.00784051 0
M  V30 4695 H 464.632 -1.56245 0.0415934 0
M  V30 4696 H 465.367 -2.15639 -2.42219 0
M  V30 4697 H 465.152 -3.64219 -1.45214 0
M  V30 4698 H 466.642 -3.4075 -2.4141 0
M  V30 4699 N 467.08 -0.0183926 -1.57589 0
M  V30 4700 C 468.043 0.951986 -2.08494 0
M  V30 4701 C 469.043 1.26092 -0.997874 0
M  V30 4702 O 470.233 1.20304 -1.25987 0
M  V30 4703 C 467.365 2.27165 -2.54182 0
M  V30 4704 H 468.558 0.511307 -2.95509 0
M  V30 4705 H 466.111 0.229444 -1.54607 0
M  V30 4706 H 466.846 2.75884 -1.70465 0
M  V30 4707 H 466.631 2.06057 -3.33591 0
M  V30 4708 H 468.121 2.9674 -2.93828 0
M  V30 4709 N 468.558 1.5553 0.254621 0
M  V30 4710 C 469.804 1.77262 0.985193 0
M  V30 4711 C 470.137 0.582286 1.85265 0
M  V30 4712 O 469.412 -0.419666 1.89919 0
M  V30 4713 C 469.695 3.0881 1.85225 0
M  V30 4714 C 469.548 4.38233 1.0135 0
M  V30 4715 C 470.867 3.3653 2.83612 0
M  V30 4716 H 467.986 0.644906 0.356742 0
M  V30 4717 H 470.628 1.88264 0.256236 0
M  V30 4718 H 468.778 2.99562 2.47376 0
M  V30 4719 H 470.45 4.59463 0.411269 0
M  V30 4720 H 468.693 4.32636 0.317574 0
M  V30 4721 H 469.364 5.26644 1.65379 0
M  V30 4722 H 471.84 3.45691 2.31596 0
M  V30 4723 H 470.716 4.29805 3.41407 0
M  V30 4724 H 470.977 2.57064 3.59681 0
M  V30 4725 N 470.036 -0.519951 1.48776 0
M  V30 4726 C 471.266 -1.29783 1.60748 0
M  V30 4727 C 471.674 -1.87253 0.27072 0
M  V30 4728 O 471.017 -1.67628 -0.751438 0
M  V30 4729 C 471.079 -2.47984 2.60277 0
M  V30 4730 C 470.743 -2.11526 4.051 0
M  V30 4731 C 471.74 -1.66608 4.92481 0
M  V30 4732 C 469.425 -2.21742 4.50706 0
M  V30 4733 C 471.419 -1.32384 6.23501 0
M  V30 4734 C 469.106 -1.87129 5.81744 0
M  V30 4735 C 470.104 -1.42523 6.67964 0
M  V30 4736 O 469.792 -1.0837 7.96562 0
M  V30 4737 H 469.524 -0.400562 0.544542 0
M  V30 4738 H 472.078 -0.632879 1.95407 0
M  V30 4739 H 470.308 -3.17493 2.2076 0
M  V30 4740 H 471.997 -3.10036 2.61978 0
M  V30 4741 H 472.763 -1.58178 4.58481 0
M  V30 4742 H 468.642 -2.55415 3.83776 0
M  V30 4743 H 472.186 -0.974949 6.90754 0
M  V30 4744 H 468.083 -1.95204 6.15277 0
M  V30 4745 H 468.851 -1.21681 8.09405 0
M  V30 4746 N 471.514 -1.37532 -0.769588 0
M  V30 4747 C 472.93 -1.18379 -1.07045 0
M  V30 4748 C 473.13 -0.0214312 -2.01489 0
M  V30 4749 O 472.186 0.637809 -2.44312 0
M  V30 4750 C 473.499 -2.50338 -1.66588 0
M  V30 4751 C 475.047 -2.56879 -1.78835 0
M  V30 4752 C 475.522 -3.88974 -2.41792 0
M  V30 4753 N 477.013 -3.90428 -2.4924 0
M  V30 4754 C 477.748 -4.89388 -2.98809 0
M  V30 4755 N 477.244 -5.98745 -3.48535 0
M  V30 4756 N 479.037 -4.76791 -2.97703 0
M  V30 4757 H 471.188 -2.11921 -0.142541 0
M  V30 4758 H 473.451 -0.939608 -0.125863 0
M  V30 4759 H 473.157 -3.35767 -1.0466 0
M  V30 4760 H 473.031 -2.67583 -2.65856 0
M  V30 4761 H 475.418 -1.71856 -2.39895 0
M  V30 4762 H 475.499 -2.43516 -0.783166 0
M  V30 4763 H 475.143 -4.74412 -1.81371 0
M  V30 4764 H 475.073 -3.99641 -3.4292 0
M  V30 4765 H 477.564 -3.11433 -2.14052 0
M  V30 4766 H 477.877 -6.70205 -3.84767 0
M  V30 4767 H 476.222 -6.02387 -3.46634 0
M  V30 4768 H 479.413 -3.90478 -2.58157 0
M  V30 4769 H 479.586 -5.54069 -3.36024 0
M  V30 4770 N 472.992 0.995999 -1.22138 0
M  V30 4771 C 474.238 1.7386 -1.05567 0
M  V30 4772 C 474.593 1.8808 0.405418 0
M  V30 4773 O 473.886 1.41062 1.29661 0
M  V30 4774 C 474.08 3.14553 -1.6968 0
M  V30 4775 C 473.909 3.14053 -3.21871 0
M  V30 4776 C 472.679 3.20121 -3.90961 0
M  V30 4777 C 474.877 2.98451 -4.18845 0
M  V30 4778 N 472.859 3.09342 -5.30265 0
M  V30 4779 C 474.23 2.95667 -5.4496 0
M  V30 4780 C 476.285 2.8282 -4.09777 0
M  V30 4781 C 474.988 2.78852 -6.63049 0
M  V30 4782 C 477.014 2.67364 -5.27513 0
M  V30 4783 C 476.376 2.65264 -6.52544 0
M  V30 4784 H 472.475 0.645989 -0.440706 0
M  V30 4785 H 475.059 1.1831 -1.54631 0
M  V30 4786 H 473.23 3.68353 -1.2317 0
M  V30 4787 H 474.962 3.77358 -1.4623 0
M  V30 4788 H 471.717 3.27679 -3.4194 0
M  V30 4789 H 472.141 3.0727 -6.03253 0
M  V30 4790 H 476.783 2.83243 -3.139 0
M  V30 4791 H 474.501 2.77175 -7.59078 0
M  V30 4792 H 478.087 2.56256 -5.22326 0
M  V30 4793 H 476.967 2.5345 -7.42114 0
M  V30 4794 N 474.47 1.03057 1.19235 0
M  V30 4795 C 475.417 0.612832 2.22515 0
M  V30 4796 C 476.387 -0.374224 1.61829 0
M  V30 4797 O 477.572 -0.270501 1.88873 0
M  V30 4798 C 474.712 -0.028475 3.45088 0
M  V30 4799 C 473.825 1.00483 4.20151 0
M  V30 4800 C 472.96 0.333102 5.30155 0
M  V30 4801 C 471.999 1.3522 5.96977 0
M  V30 4802 N 471.136 0.70616 6.9854 0
M  V30 4803 H 475.976 1.49812 2.57605 0
M  V30 4804 H 473.513 0.749658 1.26564 0
M  V30 4805 H 475.471 -0.417548 4.15105 0
M  V30 4806 H 474.101 -0.877334 3.10649 0
M  V30 4807 H 473.153 1.51194 3.49062 0
M  V30 4808 H 474.465 1.77929 4.65986 0
M  V30 4809 H 473.619 -0.110725 6.06599 0
M  V30 4810 H 472.358 -0.473547 4.85396 0
M  V30 4811 H 471.363 1.80627 5.19282 0
M  V30 4812 H 472.588 2.16037 6.4382 0
M  V30 4813 H 470.534 -0.0803667 6.55951 0
M  V30 4814 H 470.451 1.41848 7.42573 0
M  V30 4815 H 471.719 0.286391 7.78974 0
M  V30 4816 N 475.948 -1.35272 0.808662 0
M  V30 4817 C 477.173 -2.03477 0.401475 0
M  V30 4818 C 477.598 -1.60537 -0.980279 0
M  V30 4819 O 476.956 -0.78304 -1.63518 0
M  V30 4820 C 477.004 -3.57181 0.495354 0
M  V30 4821 O 476.108 -4.09474 -0.490397 0
M  V30 4822 H 475.449 -0.642561 0.167366 0
M  V30 4823 H 477.979 -1.72824 1.09512 0
M  V30 4824 H 477.989 -4.06356 0.365912 0
M  V30 4825 H 476.664 -3.87784 1.5032 0
M  V30 4826 H 475.241 -3.71516 -0.321023 0
M  V30 4827 N 477.426 -0.562348 -1.47226 0
M  V30 4828 C 478.842 -0.222492 -1.58042 0
M  V30 4829 C 479.042 1.27505 -1.56028 0
M  V30 4830 O 478.098 2.05555 -1.46641 0
M  V30 4831 C 479.411 -0.853694 -2.88327 0
M  V30 4832 C 480.959 -0.825397 -3.01921 0
M  V30 4833 C 481.434 -1.43576 -4.34914 0
M  V30 4834 N 482.925 -1.39918 -4.41562 0
M  V30 4835 C 483.66 -1.84103 -5.43041 0
M  V30 4836 N 483.156 -2.36167 -6.51304 0
M  V30 4837 N 484.949 -1.75142 -5.34118 0
M  V30 4838 H 477.1 -1.53525 -1.46778 0
M  V30 4839 H 479.363 -0.640527 -0.698877 0
M  V30 4840 H 479.069 -1.90635 -2.95552 0
M  V30 4841 H 478.943 -0.34977 -3.75575 0
M  V30 4842 H 481.33 0.218583 -2.94289 0
M  V30 4843 H 481.411 -1.36713 -2.16202 0
M  V30 4844 H 481.055 -2.47884 -4.43301 0
M  V30 4845 H 480.985 -0.869427 -5.19373 0
M  V30 4846 H 483.476 -1.0184 -3.63919 0
M  V30 4847 H 483.789 -2.67793 -7.24919 0
M  V30 4848 H 482.134 -2.40181 -6.52179 0
M  V30 4849 H 485.325 -1.34241 -4.48439 0
M  V30 4850 H 485.498 -2.09895 -6.13065 0
M  V30 4851 N 478.904 1.54736 -0.299062 0
M  V30 4852 C 479.837 2.1962 0.619851 0
M  V30 4853 C 480.815 1.16496 1.13434 0
M  V30 4854 O 481.999 1.4513 1.2029 0
M  V30 4855 C 479.126 2.8385 1.84788 0
M  V30 4856 C 478.172 4.00484 1.46679 0
M  V30 4857 S 479.005 5.32926 0.524389 0
M  V30 4858 C 480.161 6.00638 1.76026 0
M  V30 4859 H 480.394 2.97221 0.0686177 0
M  V30 4860 H 477.927 1.54176 -0.0832085 0
M  V30 4861 H 479.885 3.21483 2.55263 0
M  V30 4862 H 478.546 2.06099 2.37028 0
M  V30 4863 H 477.739 4.44201 2.38121 0
M  V30 4864 H 477.341 3.64398 0.842008 0
M  V30 4865 H 479.633 6.21327 2.70109 0
M  V30 4866 H 480.576 6.94805 1.36569 0
M  V30 4867 H 480.984 5.3026 1.93609 0
M  V30 4868 N 480.382 0.0267497 1.57577 0
M  V30 4869 C 481.33 -0.973923 2.11229 0
M  V30 4870 C 482.324 -1.33849 1.03831 0
M  V30 4871 O 483.53 -1.321 1.22269 0
M  V30 4872 H 479.905 -0.331844 0.674821 0
M  V30 4873 H 481.876 -0.496092 2.94247 0
M  V30 4874 C 480.625 -2.24798 2.65257 0
M  V30 4875 H 479.948 -1.9762 3.47543 0
M  V30 4876 H 481.388 -2.93031 3.06445 0
M  V30 4877 C 479.847 -2.97611 1.57891 0
M  V30 4878 O 480.377 -3.89629 0.97735 0
M  V30 4879 N 478.583 -2.59905 1.29992 0
M  V30 4880 H 478.13 -1.85154 1.79097 0
M  V30 4881 H 478.088 -3.08932 0.583798 0
M  V30 4882 N 481.861 -1.55662 -0.24637 0
M  V30 4883 C 483.277 -1.48098 -0.594907 0
M  V30 4884 C 483.477 -0.717044 -1.8831 0
M  V30 4885 O 482.533 -0.246618 -2.51293 0
M  V30 4886 C 483.846 -2.92507 -0.697146 0
M  V30 4887 C 485.394 -3.02881 -0.789436 0
M  V30 4888 C 485.869 -4.48598 -0.923232 0
M  V30 4889 N 487.36 -4.52538 -0.988088 0
M  V30 4890 C 488.095 -5.62536 -1.11089 0
M  V30 4891 N 487.591 -6.82342 -1.19919 0
M  V30 4892 N 489.384 -5.50334 -1.14408 0
M  V30 4893 H 481.535 -2.0377 0.599278 0
M  V30 4894 H 483.798 -0.925145 0.20691 0
M  V30 4895 H 483.504 -3.51242 0.179396 0
M  V30 4896 H 483.378 -3.43024 -1.5689 0
M  V30 4897 H 485.765 -2.44226 -1.65643 0
M  V30 4898 H 485.846 -2.55574 0.107482 0
M  V30 4899 H 485.49 -5.07864 -0.0607927 0
M  V30 4900 H 485.42 -4.93587 -1.8352 0
M  V30 4901 H 487.911 -3.66248 -0.931167 0
M  V30 4902 H 488.224 -7.61924 -1.29197 0
M  V30 4903 H 486.569 -6.85102 -1.16876 0
M  V30 4904 H 489.76 -4.5567 -1.07158 0
M  V30 4905 H 489.933 -6.36096 -1.23634 0
M  V30 4906 N 483.339 0.512053 -1.4905 0
M  V30 4907 C 484.272 1.63209 -1.59493 0
M  V30 4908 C 485.25 1.56407 -0.444481 0
M  V30 4909 O 486.434 1.76623 -0.658535 0
M  V30 4910 C 483.561 3.01685 -1.53961 0
M  V30 4911 C 482.607 3.26786 -2.74068 0
M  V30 4912 S 483.44 3.11107 -4.35859 0
M  V30 4913 C 484.596 4.51997 -4.32954 0
M  V30 4914 H 484.829 1.54104 -2.54243 0
M  V30 4915 H 482.362 0.696382 -1.37804 0
M  V30 4916 H 484.32 3.81538 -1.51455 0
M  V30 4917 H 482.981 3.08215 -0.605178 0
M  V30 4918 H 482.174 4.27849 -2.66386 0
M  V30 4919 H 481.776 2.54635 -2.73928 0
M  V30 4920 H 484.068 5.43871 -4.03993 0
M  V30 4921 H 485.011 4.64731 -5.34257 0
M  V30 4922 H 485.419 4.32159 -3.63178 0
M  V30 4923 N 484.817 1.37938 0.762283 0
M  V30 4924 C 486.042 1.37059 1.55659 0
M  V30 4925 C 486.467 -0.0396123 1.88058 0
M  V30 4926 O 485.825 -1.01929 1.49934 0
M  V30 4927 C 485.873 2.22494 2.83776 0
M  V30 4928 O 484.977 1.63607 3.78559 0
M  V30 4929 H 484.318 0.467892 0.47114 0
M  V30 4930 H 486.848 1.81587 0.942725 0
M  V30 4931 H 486.858 2.36045 3.32786 0
M  V30 4932 H 485.533 3.24993 2.59524 0
M  V30 4933 H 484.11 1.5915 3.37233 0
M  V30 4934 N 486.295 -0.989507 1.22664 0
M  V30 4935 C 487.706 -1.54406 1.04955 0
M  V30 4936 C 488.057 -1.92366 -0.385951 0
M  V30 4937 O 487.182 -1.75111 -1.27142 0
M  V30 4938 C 487.777 -2.80578 1.89899 0
M  V30 4939 C 486.336 -3.32464 1.76478 0
M  V30 4940 C 485.483 -2.05524 1.86159 0
M  V30 4941 H 488.434 -0.810211 1.3646 0
M  V30 4942 H 488.455 -3.53075 1.4184 0
M  V30 4943 H 487.967 -2.52918 2.94371 0
M  V30 4944 H 486.068 -3.65024 0.747528 0
M  V30 4945 H 486.181 -4.02838 2.59342 0
M  V30 4946 H 484.545 -2.19241 1.29636 0
M  V30 4947 H 485.328 -1.80258 2.92168 0
M  V30 4948 N 487.773 -1.03688 -1.18687 0
M  V30 4949 C 488.723 -0.595067 -2.20098 0
M  V30 4950 C 489.707 0.360465 -1.5681 0
M  V30 4951 O 490.899 0.180136 -1.76081 0
M  V30 4952 C 488.028 0.0444495 -3.43271 0
M  V30 4953 C 487.114 -0.934002 -4.13687 0
M  V30 4954 N 487.505 -2.09957 -4.60165 0
M  V30 4955 C 485.803 -0.759177 -4.39491 0
M  V30 4956 C 486.504 -2.71735 -5.1433 0
M  V30 4957 N 485.48 -1.99638 -5.05614 0
M  V30 4958 H 489.282 -1.48336 -2.5372 0
M  V30 4959 H 486.796 -0.904949 -1.3485 0
M  V30 4960 H 488.793 0.37864 -4.15177 0
M  V30 4961 H 487.453 0.928325 -3.11147 0
M  V30 4962 H 488.464 -2.47863 -4.54735 0
M  V30 4963 H 485.141 0.0749292 -4.17433 0
M  V30 4964 H 486.531 -3.70492 -5.60523 0
M  V30 4965 N 489.251 1.34841 -0.815825 0
M  V30 4966 C 490.528 1.92908 -0.323416 0
M  V30 4967 C 490.908 1.74479 1.18828 0
M  V30 4968 O 490.256 1.11928 1.99209 0
M  V30 4969 C 490.466 3.40957 -0.744952 0
M  V30 4970 C 491.814 4.18107 -0.739716 0
M  V30 4971 O 492.838 3.49511 -0.68708 0
M  V30 4972 O 491.697 5.40517 -0.806456 0
M  V30 4973 H 488.791 0.822436 -0.0867646 0
M  V30 4974 H 491.337 1.4386 -0.90014 0
M  V30 4975 H 490.109 3.4814 -1.78646 0
M  V30 4976 H 489.732 3.97341 -0.143535 0
M  V30 4977 N 490.729 0.570148 1.46925 0
M  V30 4978 C 492.145 0.23087 1.57921 0
M  V30 4979 C 492.345 -1.26676 1.56702 0
M  V30 4980 O 491.401 -2.04774 1.47729 0
M  V30 4981 C 492.714 0.868973 2.8787 0
M  V30 4982 C 494.262 0.841397 3.01479 0
M  V30 4983 C 494.737 1.45881 4.34146 0
M  V30 4984 N 496.228 1.42258 4.40814 0
M  V30 4985 C 496.963 1.8698 5.42057 0
M  V30 4986 N 496.459 2.39618 6.50042 0
M  V30 4987 N 498.252 1.77972 5.33181 0
M  V30 4988 H 490.403 1.54301 1.45962 0
M  V30 4989 H 492.666 0.644224 0.69547 0
M  V30 4990 H 492.372 1.922 2.94537 0
M  V30 4991 H 492.246 0.369682 3.75384 0
M  V30 4992 H 494.633 -0.202973 2.94401 0
M  V30 4993 H 494.714 1.37858 2.15474 0
M  V30 4994 H 494.358 2.50231 4.4198 0
M  V30 4995 H 494.288 0.896958 5.18905 0
M  V30 4996 H 496.779 1.03768 3.63374 0
M  V30 4997 H 497.092 2.71633 7.23488 0
M  V30 4998 H 495.437 2.43636 6.50897 0
M  V30 4999 H 498.628 1.36617 4.4772 0
M  V30 5000 H 498.801 2.13143 6.11943 0
M  V30 5001 N 492.207 -1.54576 0.307264 0
M  V30 5002 C 493.453 -2.0056 -0.300612 0
M  V30 5003 C 493.786 -1.1953 -1.53057 0
M  V30 5004 O 493.061 -0.27337 -1.92569 0
M  V30 5005 C 493.344 -3.54167 -0.650987 0
M  V30 5006 C 493.197 -4.45933 0.588539 0
M  V30 5007 C 494.516 -4.14645 -1.47506 0
M  V30 5008 H 491.635 -0.729075 -0.107788 0
M  V30 5009 H 494.277 -1.85286 0.420606 0
M  V30 5010 H 492.427 -3.67313 -1.26544 0
M  V30 5011 H 494.099 -4.44683 1.22697 0
M  V30 5012 H 492.342 -4.16274 1.22058 0
M  V30 5013 H 493.013 -5.51189 0.299153 0
M  V30 5014 H 495.489 -4.04973 -0.955821 0
M  V30 5015 H 494.365 -5.22269 -1.68899 0
M  V30 5016 H 494.626 -3.66921 -2.4662 0
M  V30 5017 N 493.685 -0.035106 -1.57561 0
M  V30 5018 C 495.101 0.321334 -1.56332 0
M  V30 5019 C 495.301 1.72509 -1.04129 0
M  V30 5020 O 494.357 2.4287 -0.690694 0
M  V30 5021 C 495.67 0.164469 -3.0025 0
M  V30 5022 C 497.218 0.236786 -3.12103 0
M  V30 5023 C 497.693 0.10864 -4.57871 0
M  V30 5024 N 499.184 0.165433 -4.62904 0
M  V30 5025 C 499.919 0.0901506 -5.73329 0
M  V30 5026 N 499.415 -0.0365606 -6.9279 0
M  V30 5027 N 501.208 0.144572 -5.61914 0
M  V30 5028 H 493.359 -0.952976 -1.89821 0
M  V30 5029 H 495.622 -0.368537 -0.873432 0
M  V30 5030 H 495.328 -0.802746 -3.42416 0
M  V30 5031 H 495.202 0.932194 -3.655 0
M  V30 5032 H 497.589 1.19446 -2.69845 0
M  V30 5033 H 497.67 -0.561419 -2.49563 0
M  V30 5034 H 497.314 -0.845644 -5.00811 0
M  V30 5035 H 497.244 0.925786 -5.18398 0
M  V30 5036 H 499.735 0.263269 -3.76982 0
M  V30 5037 H 500.048 -0.0871487 -7.72751 0
M  V30 5038 H 498.393 -0.0714256 -6.94963 0
M  V30 5039 H 501.584 0.242006 -4.67474 0
M  V30 5040 H 501.757 0.0824413 -6.47948 0
M  V30 5041 N 495.163 1.55791 0.238111 0
M  V30 5042 C 496.095 1.87513 1.31802 0
M  V30 5043 C 497.108 0.762053 1.43863 0
M  V30 5044 O 498.297 1.04024 1.45056 0
M  V30 5045 C 495.397 2.05402 2.69561 0
M  V30 5046 C 494.57 3.3632 2.79656 0
M  V30 5047 C 493.629 3.43844 3.98319 0
M  V30 5048 O 492.655 4.16994 3.87433 0
M  V30 5049 N 493.857 2.73777 5.11885 0
M  V30 5050 H 496.622 2.80734 1.04922 0
M  V30 5051 H 494.183 1.56135 0.428196 0
M  V30 5052 H 496.175 2.07769 3.47296 0
M  V30 5053 H 494.745 1.18884 2.89111 0
M  V30 5054 H 493.965 3.46195 1.88528 0
M  V30 5055 H 495.253 4.22594 2.83358 0
M  V30 5056 H 494.651 2.14094 5.23622 0
M  V30 5057 H 493.208 2.81825 5.87723 0
M  V30 5058 N 496.642 -0.504142 1.49319 0
M  V30 5059 C 497.572 -1.61473 1.68667 0
M  V30 5060 C 498.553 -1.61455 0.535378 0
M  V30 5061 O 499.738 -1.78245 0.770868 0
M  V30 5062 C 496.868 -2.99971 1.75028 0
M  V30 5063 C 495.822 -3.14854 2.89916 0
M  V30 5064 C 495.148 -4.54671 2.81387 0
M  V30 5065 C 496.448 -2.95176 4.30893 0
M  V30 5066 H 498.142 -1.45535 2.61648 0
M  V30 5067 H 495.688 -0.698711 1.25913 0
M  V30 5068 H 497.641 -3.77562 1.8715 0
M  V30 5069 H 496.365 -3.1699 0.786441 0
M  V30 5070 H 495.024 -2.39687 2.77391 0
M  V30 5071 H 494.672 -4.68562 1.82917 0
M  V30 5072 H 494.372 -4.6557 3.58494 0
M  V30 5073 H 495.896 -5.34327 2.95512 0
M  V30 5074 H 497.31 -3.62538 4.44116 0
M  V30 5075 H 495.707 -3.17549 5.09198 0
M  V30 5076 H 496.777 -1.91332 4.45556 0
M  V30 5077 N 498.12 -1.38341 -0.754957 0
M  V30 5078 C 499.083 -1.35262 -1.85032 0
M  V30 5079 C 500.083 -0.253393 -1.58791 0
M  V30 5080 O 501.273 -0.510205 -1.66561 0
M  V30 5081 C 498.405 -1.10544 -3.22479 0
M  V30 5082 H 499.598 -2.32712 -1.8917 0
M  V30 5083 H 497.151 -1.23614 -0.956515 0
M  V30 5084 H 497.886 -0.136952 -3.24011 0
M  V30 5085 H 497.671 -1.90127 -3.4292 0
M  V30 5086 H 499.161 -1.11082 -4.02555 0
M  V30 5087 N 499.598 0.982988 -1.23187 0
M  V30 5088 C 500.528 2.09301 -1.03515 0
M  V30 5089 C 501.509 1.70035 0.0471136 0
M  V30 5090 O 502.694 1.93847 -0.117029 0
M  V30 5091 C 499.824 3.4167 -0.622791 0
M  V30 5092 C 498.778 3.94828 -1.65211 0
M  V30 5093 C 498.104 5.23362 -1.09527 0
M  V30 5094 C 499.404 4.2439 -3.04451 0
M  V30 5095 H 501.098 2.26016 -1.96359 0
M  V30 5096 H 498.644 1.08611 -0.945501 0
M  V30 5097 H 500.597 4.18746 -0.472233 0
M  V30 5098 H 499.321 3.24811 0.341329 0
M  V30 5099 H 497.98 3.19895 -1.79061 0
M  V30 5100 H 497.628 5.02852 -0.122211 0
M  V30 5101 H 497.328 5.59895 -1.783 0
M  V30 5102 H 498.852 6.03062 -0.956511 0
M  V30 5103 H 500.266 4.92225 -2.93917 0
M  V30 5104 H 498.663 4.72118 -3.70438 0
M  V30 5105 H 499.733 3.31765 -3.53638 0
M  V30 5106 N 501.076 1.04316 1.18135 0
M  V30 5107 C 502.306 0.767003 1.91835 0
M  V30 5108 C 502.714 -0.68002 1.76557 0
M  V30 5109 O 502.057 -1.47548 1.09432 0
M  V30 5110 C 502.119 1.05674 3.43618 0
M  V30 5111 C 501.783 2.49818 3.82675 0
M  V30 5112 C 502.78 3.48003 3.86251 0
M  V30 5113 C 500.465 2.84596 4.13897 0
M  V30 5114 C 502.459 4.79016 4.20503 0
M  V30 5115 C 500.146 4.15813 4.4782 0
M  V30 5116 C 501.144 5.12834 4.51099 0
M  V30 5117 O 500.832 6.41699 4.84229 0
M  V30 5118 H 500.564 0.278948 0.615763 0
M  V30 5119 H 503.118 1.3946 1.50798 0
M  V30 5120 H 501.348 0.372029 3.84906 0
M  V30 5121 H 503.037 0.767994 3.98568 0
M  V30 5122 H 503.803 3.22475 3.62264 0
M  V30 5123 H 499.682 2.09748 4.1052 0
M  V30 5124 H 503.226 5.54739 4.22978 0
M  V30 5125 H 499.123 4.41109 4.71268 0
M  V30 5126 H 499.891 6.46387 5.02121 0
M  V30 5127 N 502.554 -1.34406 0.822964 0
M  V30 5128 C 503.487 -2.27407 0.190124 0
M  V30 5129 C 504.465 -1.4889 -0.653486 0
M  V30 5130 O 505.649 -1.78109 -0.617216 0
M  V30 5131 C 502.776 -3.3064 -0.734477 0
M  V30 5132 C 501.822 -4.26488 0.0316099 0
M  V30 5133 S 502.655 -5.17445 1.3788 0
M  V30 5134 C 503.811 -6.24214 0.45907 0
M  V30 5135 H 504.044 -2.80733 0.978586 0
M  V30 5136 H 501.577 -1.41455 0.618866 0
M  V30 5137 H 503.535 -3.90607 -1.26238 0
M  V30 5138 H 502.196 -2.76161 -1.49646 0
M  V30 5139 H 501.389 -4.9951 -0.671285 0
M  V30 5140 H 500.991 -3.70775 0.490066 0
M  V30 5141 H 503.283 -6.76599 -0.349357 0
M  V30 5142 H 504.226 -6.98551 1.15896 0
M  V30 5143 H 504.634 -5.6448 0.0474825 0
M  V30 5144 N 504.032 -0.577932 -1.46621 0
M  V30 5145 C 504.962 0.145917 -2.33044 0
M  V30 5146 C 505.943 0.888412 -1.45056 0
M  V30 5147 O 507.128 0.864812 -1.73881 0
M  V30 5148 C 504.258 1.16322 -3.27241 0
M  V30 5149 C 503.212 0.535868 -4.24632 0
M  V30 5150 C 502.538 1.65929 -5.08303 0
M  V30 5151 C 503.838 -0.523861 -5.19666 0
M  V30 5152 H 505.532 -0.575636 -2.93814 0
M  V30 5153 H 503.078 -0.278272 -1.41286 0
M  V30 5154 H 505.031 1.67793 -3.86553 0
M  V30 5155 H 503.755 1.91498 -2.64567 0
M  V30 5156 H 502.414 0.0422759 -3.66576 0
M  V30 5157 H 502.062 2.40061 -4.42018 0
M  V30 5158 H 501.762 1.2452 -5.74255 0
M  V30 5159 H 503.286 2.17686 -5.70478 0
M  V30 5160 H 504.7 -0.0944059 -5.73222 0
M  V30 5161 H 503.097 -0.858 -5.93935 0
M  V30 5162 H 504.167 -1.41197 -4.63887 0
M  V30 5163 N 505.51 1.54411 -0.315457 0
M  V30 5164 C 506.75 2.02329 0.290236 0
M  V30 5165 C 507.114 1.19878 1.49977 0
M  V30 5166 O 508.315 1.57562 2.17779 0
M  V30 5167 C 506.586 3.51912 0.623937 0
M  V30 5168 S 508.145 4.21775 1.21044 0
M  V30 5169 H 504.963 0.705499 0.0882739 0
M  V30 5170 H 507.565 1.90328 -0.446694 0
M  V30 5171 H 506.269 4.09546 -0.264624 0
M  V30 5172 H 505.8 3.67977 1.39128 0
M  V30 5173 H 507.815 4.28757 2.49764 0
M  V30 5174 N 506.988 0.0434614 1.5754 0
M  V30 5175 C 508.234 -0.627109 1.93491 0
M  V30 5176 C 508.589 -1.68904 0.921362 0
M  V30 5177 O 507.882 -1.91504 -0.0605799 0
M  V30 5178 C 508.076 -1.2738 3.3393 0
M  V30 5179 C 507.905 -0.27603 4.48852 0
M  V30 5180 C 506.675 0.129244 5.05135 0
M  V30 5181 C 508.873 0.475462 5.12098 0
M  V30 5182 N 506.855 1.12068 6.03584 0
M  V30 5183 C 508.226 1.32021 6.05781 0
M  V30 5184 C 510.281 0.534611 4.95022 0
M  V30 5185 C 508.984 2.2188 6.84223 0
M  V30 5186 C 511.01 1.42059 5.74085 0
M  V30 5187 C 510.372 2.25309 6.67394 0
M  V30 5188 H 506.471 -0.201354 0.755633 0
M  V30 5189 H 509.055 0.113991 1.94366 0
M  V30 5190 H 507.226 -1.98496 3.33847 0
M  V30 5191 H 508.958 -1.90255 3.57191 0
M  V30 5192 H 505.713 -0.248145 4.72949 0
M  V30 5193 H 506.137 1.61306 6.57502 0
M  V30 5194 H 510.779 -0.0947817 4.22694 0
M  V30 5195 H 508.497 2.85868 7.55847 0
M  V30 5196 H 512.083 1.47083 5.62901 0
M  V30 5197 H 510.963 2.92754 7.27506 0
M  V30 5198 N 508.466 -1.55915 -0.229846 0
M  V30 5199 C 509.714 -1.7819 -0.953565 0
M  V30 5200 C 510.035 -0.610504 -1.85197 0
M  V30 5201 O 509.305 0.372988 -1.92316 0
M  V30 5202 H 507.885 -0.657208 -0.355087 0
M  V30 5203 H 510.547 -1.9337 -0.243693 0
M  V30 5204 H 509.643 -2.70011 -1.56527 0
M  V30 5205 N 509.944 0.496216 -1.49584 0
M  V30 5206 C 510.854 1.62352 -1.69349 0
M  V30 5207 C 511.87 1.64184 -0.576147 0
M  V30 5208 O 513.046 1.82517 -0.85144 0
M  V30 5209 C 510.111 2.98698 -1.76013 0
M  V30 5210 C 509.172 3.07454 -2.99617 0
M  V30 5211 C 508.405 4.37296 -3.05953 0
M  V30 5212 O 508.628 5.2637 -2.19752 0
M  V30 5213 O 507.562 4.51124 -3.9846 0
M  V30 5214 H 511.388 1.48606 -2.64859 0
M  V30 5215 H 508.973 0.673022 -1.33382 0
M  V30 5216 H 510.855 3.79725 -1.82721 0
M  V30 5217 H 509.53 3.12696 -0.836828 0
M  V30 5218 H 508.437 2.25597 -2.98424 0
M  V30 5219 H 509.77 2.98385 -3.91443 0
M  V30 5220 N 511.423 1.38739 0.74761 0
M  V30 5221 C 512.386 1.36241 1.84312 0
M  V30 5222 C 513.386 0.261811 1.58654 0
M  V30 5223 O 514.576 0.519031 1.66288 0
M  V30 5224 C 511.708 1.12253 3.21888 0
M  V30 5225 H 512.901 2.33712 1.87933 0
M  V30 5226 H 510.454 1.2412 0.949946 0
M  V30 5227 H 511.189 0.154133 3.23934 0
M  V30 5228 H 510.974 1.91943 3.41907 0
M  V30 5229 H 512.464 1.13215 4.0196 0
M  V30 5230 N 512.901 -0.976442 1.23707 0
M  V30 5231 C 513.849 -2.09078 1.01927 0
M  V30 5232 C 514.843 -1.69345 -0.0430193 0
M  V30 5233 O 516.049 -1.79659 0.110814 0
M  V30 5234 H 512.424 -0.68398 0.312531 0
M  V30 5235 H 514.395 -2.24614 1.96447 0
M  V30 5236 C 513.144 -3.41919 0.631385 0
M  V30 5237 H 512.467 -3.72946 1.44053 0
M  V30 5238 H 513.907 -4.20817 0.518532 0
M  V30 5239 C 512.366 -3.30357 -0.660723 0
M  V30 5240 O 512.896 -3.63542 -1.70881 0
M  V30 5241 N 511.102 -2.83507 -0.638139 0
M  V30 5242 H 510.649 -2.567 0.215108 0
M  V30 5243 H 510.607 -2.76153 -1.50289 0
M  V30 5244 N 514.379 -1.04941 -1.1758 0
M  V30 5245 C 515.311 -0.606174 -2.21039 0
M  V30 5246 C 516.324 0.328763 -1.59446 0
M  V30 5247 O 517.513 0.121895 -1.78083 0
M  V30 5248 C 514.613 0.133294 -3.38638 0
M  V30 5249 C 513.786 -0.811711 -4.29802 0
M  V30 5250 C 512.845 -0.113958 -5.26077 0
M  V30 5251 O 511.871 -0.747237 -5.64274 0
M  V30 5252 N 513.073 1.14953 -5.69004 0
M  V30 5253 H 515.838 -1.49606 -2.59689 0
M  V30 5254 H 513.399 -0.930997 -1.32454 0
M  V30 5255 H 515.391 0.610144 -4.00074 0
M  V30 5256 H 513.961 0.924816 -2.98607 0
M  V30 5257 H 513.181 -1.46824 -3.65837 0
M  V30 5258 H 514.469 -1.45326 -4.87604 0
M  V30 5259 H 513.867 1.68441 -5.40041 0
M  V30 5260 H 512.424 1.57049 -6.32597 0
M  V30 5261 N 515.857 1.33968 -0.830081 0
M  V30 5262 C 517.103 1.98357 -0.422191 0
M  V30 5263 C 517.436 1.65633 1.01387 0
M  V30 5264 O 516.711 0.931648 1.70735 0
M  V30 5265 C 516.994 3.54492 -0.633043 0
M  V30 5266 C 516.847 3.96934 -2.11574 0
M  V30 5267 C 518.166 4.40039 -0.0735584 0
M  V30 5268 H 515.285 0.720544 -0.154871 0
M  V30 5269 H 517.927 1.58749 -1.04397 0
M  V30 5270 H 516.077 3.88361 -0.103775 0
M  V30 5271 H 517.749 3.73363 -2.7092 0
M  V30 5272 H 515.992 3.46984 -2.60354 0
M  V30 5273 H 516.663 5.05651 -2.21406 0
M  V30 5274 H 519.139 4.12764 -0.52585 0
M  V30 5275 H 518.015 5.48327 -0.250841 0
M  V30 5276 H 518.276 4.30124 1.02202 0
M  V30 5277 N 517.335 0.585699 1.46312 0
M  V30 5278 C 518.751 0.247607 1.57668 0
M  V30 5279 C 518.951 -1.25007 1.58037 0
M  V30 5280 O 518.007 -2.03196 1.49893 0
M  V30 5281 C 519.32 0.899456 2.86933 0
M  V30 5282 C 520.868 0.873326 3.00569 0
M  V30 5283 C 521.343 1.50477 4.32574 0
M  V30 5284 N 522.834 1.46925 4.3928 0
M  V30 5285 C 523.569 1.92719 5.40044 0
M  V30 5286 N 523.065 2.46499 6.47464 0
M  V30 5287 N 524.858 1.83617 5.31264 0
M  V30 5288 H 517.009 1.55841 1.44317 0
M  V30 5289 H 519.272 0.651564 0.688599 0
M  V30 5290 H 518.978 1.95313 2.92482 0
M  V30 5291 H 518.852 0.409476 3.74971 0
M  V30 5292 H 521.239 -0.171736 2.946 0
M  V30 5293 H 521.32 1.40136 2.13999 0
M  V30 5294 H 520.964 2.54905 4.39302 0
M  V30 5295 H 520.894 0.951944 5.17924 0
M  V30 5296 H 523.385 1.07616 3.62253 0
M  V30 5297 H 523.698 2.79291 7.20567 0
M  V30 5298 H 522.043 2.50526 6.48276 0
M  V30 5299 H 525.234 1.41358 4.46246 0
M  V30 5300 H 525.407 2.19622 6.09648 0
M  V30 5301 N 518.813 -1.54241 0.323641 0
M  V30 5302 C 520.043 -2.04687 -0.280464 0
M  V30 5303 C 520.451 -1.19939 -1.46326 0
M  V30 5304 O 519.794 -0.222872 -1.82343 0
M  V30 5305 C 519.856 -3.50978 -0.778123 0
M  V30 5306 C 519.52 -4.56127 0.282371 0
M  V30 5307 C 520.517 -5.07726 1.11847 0
M  V30 5308 C 518.202 -5.00451 0.430582 0
M  V30 5309 C 520.196 -6.02212 2.08851 0
M  V30 5310 C 517.883 -5.94752 1.40404 0
M  V30 5311 C 518.881 -6.45519 2.23147 0
M  V30 5312 O 518.569 -7.37968 3.1884 0
M  V30 5313 H 518.301 -0.673192 -0.0615473 0
M  V30 5314 H 520.855 -1.99999 0.467921 0
M  V30 5315 H 519.085 -3.53064 -1.57742 0
M  V30 5316 H 520.774 -3.84499 -1.30058 0
M  V30 5317 H 521.54 -4.74261 1.01496 0
M  V30 5318 H 517.419 -4.6055 -0.203569 0
M  V30 5319 H 520.963 -6.41761 2.73474 0
M  V30 5320 H 516.86 -6.27633 1.5082 0
M  V30 5321 H 517.628 -7.55841 3.14079 0
M  V30 5322 N 520.291 -0.0518155 -1.57515 0
M  V30 5323 C 521.224 0.957758 -2.07129 0
M  V30 5324 C 522.202 1.30355 -0.971927 0
M  V30 5325 O 523.386 1.41631 -1.2439 0
M  V30 5326 C 520.513 2.27157 -2.51232 0
M  V30 5327 C 519.559 2.07879 -3.72409 0
M  V30 5328 S 520.392 1.35656 -5.18033 0
M  V30 5329 C 521.548 2.68359 -5.65451 0
M  V30 5330 H 521.781 0.53552 -2.92437 0
M  V30 5331 H 519.314 0.160465 -1.53564 0
M  V30 5332 H 521.272 3.02676 -2.77304 0
M  V30 5333 H 519.933 2.66509 -1.66228 0
M  V30 5334 H 519.126 3.05061 -4.01191 0
M  V30 5335 H 518.728 1.40499 -3.46606 0
M  V30 5336 H 521.02 3.64526 -5.71076 0
M  V30 5337 H 521.963 2.44213 -6.64654 0
M  V30 5338 H 522.371 2.74647 -4.93183 0
M  V30 5339 N 521.769 1.56035 0.221574 0
M  V30 5340 C 523.18 1.69229 0.788567 0
M  V30 5341 C 523.531 0.653814 1.84986 0
M  V30 5342 O 522.656 -0.195065 2.15519 0
M  V30 5343 C 523.251 3.06809 1.43713 0
M  V30 5344 C 521.81 3.21858 1.95152 0
M  V30 5345 C 520.957 2.65155 0.811685 0
M  V30 5346 H 523.908 1.587 -0.00307894 0
M  V30 5347 H 523.929 3.02666 2.30594 0
M  V30 5348 H 523.441 3.82369 0.664475 0
M  V30 5349 H 521.542 2.51167 2.7522 0
M  V30 5350 H 521.655 4.29073 2.1315 0
M  V30 5351 H 520.019 2.23635 1.21899 0
M  V30 5352 H 520.802 3.43261 0.0516987 0
M  V30 5353 N 523.247 -0.488276 1.49845 0
M  V30 5354 C 524.157 -1.61451 1.70207 0
M  V30 5355 C 525.173 -1.63877 0.584846 0
M  V30 5356 O 526.349 -1.82063 0.861107 0
M  V30 5357 C 523.414 -2.9776 1.77594 0
M  V30 5358 C 522.475 -3.05861 3.01243 0
M  V30 5359 C 521.708 -4.35668 3.08268 0
M  V30 5360 O 521.931 -5.25197 2.22541 0
M  V30 5361 O 520.865 -4.49005 4.00847 0
M  V30 5362 H 524.691 -1.47199 2.65643 0
M  V30 5363 H 522.276 -0.665939 1.33737 0
M  V30 5364 H 524.158 -3.7875 1.84732 0
M  V30 5365 H 522.833 -3.12248 0.8534 0
M  V30 5366 H 521.74 -2.24012 2.99616 0
M  V30 5367 H 523.073 -2.96304 3.9302 0
M  V30 5368 N 524.725 -1.39134 -0.740242 0
M  V30 5369 C 525.965 -1.37499 -1.51239 0
M  V30 5370 C 526.329 0.0310084 -1.91975 0
M  V30 5371 O 527.53 0.172319 -2.68247 0
M  V30 5372 C 525.801 -2.31566 -2.72235 0
M  V30 5373 S 527.36 -2.48073 -3.61947 0
M  V30 5374 H 524.178 -0.48768 -0.517387 0
M  V30 5375 H 526.78 -1.75183 -0.867826 0
M  V30 5376 H 525.484 -3.32592 -2.40439 0
M  V30 5377 H 525.015 -1.9508 -3.41625 0
M  V30 5378 H 527.03 -1.71473 -4.6563 0
M  V30 5379 N 526.204 0.969867 -1.24223 0
M  V30 5380 C 527.453 1.70687 -1.07466 0
M  V30 5381 C 527.766 1.91736 0.386861 0
M  V30 5382 O 528.972 2.62986 0.674581 0
M  V30 5383 C 527.428 3.07217 -1.87472 0
M  V30 5384 C 527.036 2.94018 -3.3802 0
M  V30 5385 C 528.78 3.84804 -1.79237 0
M  V30 5386 C 526.687 4.25844 -4.10379 0
M  V30 5387 H 525.617 0.640067 -0.398536 0
M  V30 5388 H 528.268 1.08092 -1.48285 0
M  V30 5389 H 526.65 3.70628 -1.39466 0
M  V30 5390 H 527.824 2.39632 -3.9359 0
M  V30 5391 H 526.139 2.29898 -3.47183 0
M  V30 5392 H 528.736 4.82417 -2.30603 0
M  V30 5393 H 529.079 4.09356 -0.757197 0
M  V30 5394 H 529.612 3.28115 -2.24912 0
M  V30 5395 H 526.351 4.06486 -5.14246 0
M  V30 5396 H 525.871 4.80054 -3.59594 0
M  V30 5397 H 527.55 4.94475 -4.17257 0
M  V30 5398 N 527.682 1.05563 1.17022 0
M  V30 5399 C 528.922 0.777033 1.89054 0
M  V30 5400 C 529.286 -0.683617 1.79418 0
M  V30 5401 O 530.487 -1.07648 2.46303 0
M  V30 5402 C 528.758 1.24886 3.34871 0
M  V30 5403 S 530.317 1.0982 4.24835 0
M  V30 5404 H 527.135 0.282082 0.652649 0
M  V30 5405 H 529.737 1.35103 1.41306 0
M  V30 5406 H 528.441 2.30699 3.3942 0
M  V30 5407 H 527.972 0.669292 3.87665 0
M  V30 5408 H 529.987 0.02462 4.96194 0
M  V30 5409 N 529.16 -1.33526 0.837174 0
M  V30 5410 C 530.407 -1.97837 0.432064 0
M  V30 5411 C 530.735 -1.66324 -1.00829 0
M  V30 5412 O 529.99 -0.93448 -1.71948 0
M  V30 5413 C 530.289 -3.52367 0.597675 0
M  V30 5414 C 529.955 -4.03826 2.00587 0
M  V30 5415 C 528.617 -4.1759 2.39106 0
M  V30 5416 C 530.969 -4.31333 2.92576 0
M  V30 5417 C 528.297 -4.56195 3.68921 0
M  V30 5418 C 530.649 -4.7139 4.2187 0
M  V30 5419 C 529.313 -4.8336 4.60347 0
M  V30 5420 H 528.583 -0.723937 0.158104 0
M  V30 5421 H 531.23 -1.5923 1.06387 0
M  V30 5422 H 529.535 -3.91624 -0.117452 0
M  V30 5423 H 531.232 -4.00126 0.26454 0
M  V30 5424 H 527.822 -3.93586 1.69671 0
M  V30 5425 H 532.006 -4.20224 2.64056 0
M  V30 5426 H 527.262 -4.63655 3.9854 0
M  V30 5427 H 531.436 -4.91631 4.93226 0
M  V30 5428 H 529.063 -5.1303 5.60985 0
M  V30 5429 N 530.638 -0.59345 -1.46 0
M  V30 5430 C 531.887 -0.0808084 -2.01538 0
M  V30 5431 C 532.2 1.29112 -1.46934 0
M  V30 5432 O 533.406 1.8957 -1.94359 0
M  V30 5433 C 531.862 -0.0938311 -3.59778 0
M  V30 5434 C 531.47 -1.46474 -4.23379 0
M  V30 5435 C 533.214 0.364306 -4.22934 0
M  V30 5436 C 531.121 -1.4349 -5.73729 0
M  V30 5437 H 530.051 -0.0264407 -0.753536 0
M  V30 5438 H 532.702 -0.746689 -1.67621 0
M  V30 5439 H 531.084 0.638427 -3.9082 0
M  V30 5440 H 532.258 -2.21758 -4.03931 0
M  V30 5441 H 530.573 -1.86379 -3.7236 0
M  V30 5442 H 533.17 0.405584 -5.3316 0
M  V30 5443 H 533.513 1.38409 -3.92618 0
M  V30 5444 H 534.046 -0.31423 -3.96557 0
M  V30 5445 H 530.785 -2.43184 -6.08722 0
M  V30 5446 H 530.305 -0.724431 -5.95409 0
M  V30 5447 H 531.984 -1.15243 -6.36654 0
M  V30 5448 N 532.116 1.54067 -0.331816 0
M  V30 5449 C 533.363 2.00715 0.268269 0
M  V30 5450 C 533.691 1.21986 1.51491 0
M  V30 5451 O 532.946 0.292309 1.93505 0
M  V30 5452 C 533.245 3.51634 0.639392 0
M  V30 5453 C 532.911 4.48018 -0.509019 0
M  V30 5454 C 531.573 4.74089 -0.824209 0
M  V30 5455 C 533.925 5.05237 -1.28003 0
M  V30 5456 C 531.253 5.54637 -1.91298 0
M  V30 5457 C 533.605 5.86972 -2.35895 0
M  V30 5458 C 532.269 6.11342 -2.67987 0
M  V30 5459 H 531.539 0.734469 0.0981667 0
M  V30 5460 H 534.186 1.8596 -0.457304 0
M  V30 5461 H 532.491 3.6416 1.44551 0
M  V30 5462 H 534.188 3.85175 1.11539 0
M  V30 5463 H 530.778 4.27851 -0.253287 0
M  V30 5464 H 534.962 4.8507 -1.04978 0
M  V30 5465 H 530.218 5.71747 -2.16599 0
M  V30 5466 H 534.392 6.30327 -2.96076 0
M  V30 5467 H 532.019 6.73544 -3.5248 0
M  V30 5468 N 533.594 0.0601682 1.57485 0
M  V30 5469 C 534.541 -0.91112 2.12055 0
M  V30 5470 C 535.511 -1.30298 1.03013 0
M  V30 5471 O 536.696 -1.39087 1.30612 0
M  V30 5472 C 533.836 -2.1775 2.67729 0
M  V30 5473 C 532.949 -1.83933 3.90887 0
M  V30 5474 C 532.084 -3.05096 4.34845 0
M  V30 5475 C 531.123 -2.67241 5.5068 0
M  V30 5476 N 530.26 -3.81127 5.8965 0
M  V30 5477 H 535.1 -0.43888 2.9475 0
M  V30 5478 H 532.637 -0.204995 1.45665 0
M  V30 5479 H 534.595 -2.91866 2.98111 0
M  V30 5480 H 533.225 -2.62535 1.87816 0
M  V30 5481 H 532.277 -0.999287 3.6704 0
M  V30 5482 H 533.589 -1.52074 4.75052 0
M  V30 5483 H 532.743 -3.87502 4.66827 0
M  V30 5484 H 531.482 -3.40139 3.49509 0
M  V30 5485 H 530.487 -1.83254 5.18361 0
M  V30 5486 H 531.712 -2.3338 6.37738 0
M  V30 5487 H 529.658 -4.15954 5.07266 0
M  V30 5488 H 529.575 -3.52997 6.68528 0
M  V30 5489 H 530.843 -4.64145 6.2625 0
M  V30 5490 N 535.072 -1.5615 -0.213296 0
M  V30 5491 C 536.312 -1.81325 -0.943435 0
M  V30 5492 C 536.676 -0.634934 -1.81198 0
M  V30 5493 O 537.877 -0.766166 -2.5765 0
M  V30 5494 C 536.148 -3.11437 -1.75334 0
M  V30 5495 S 537.707 -3.57955 -2.53799 0
M  V30 5496 H 534.525 -0.636538 -0.316766 0
M  V30 5497 H 537.127 -1.94387 -0.208313 0
M  V30 5498 H 535.831 -3.95228 -1.10556 0
M  V30 5499 H 535.362 -3.01204 -2.53061 0
M  V30 5500 H 537.377 -3.21947 -3.77577 0
M  V30 5501 N 536.55 0.480323 -1.50102 0
M  V30 5502 C 537.513 1.56181 -1.6775 0
M  V30 5503 C 538.513 1.51156 -0.548503 0
M  V30 5504 O 539.703 1.5394 -0.815363 0
M  V30 5505 C 536.835 2.95823 -1.69415 0
M  V30 5506 H 538.028 1.41855 -2.6423 0
M  V30 5507 H 535.581 0.70605 -1.39444 0
M  V30 5508 H 536.316 3.15604 -0.745948 0
M  V30 5509 H 536.101 3.00878 -2.51425 0
M  V30 5510 H 537.591 3.74359 -1.85054 0
M  V30 5511 N 538.028 1.39524 0.732853 0
M  V30 5512 C 539.305 1.27373 1.48444 0
M  V30 5513 C 539.685 -0.115725 2.10783 0
M  V30 5514 O 539.033 -1.12713 1.98766 0
M  V30 5515 C 539.243 2.39966 2.53412 0
M  V30 5516 C 540.591 2.79384 3.19733 0
M  V30 5517 O 541.615 2.39431 2.63725 0
M  V30 5518 O 540.474 3.48353 4.21085 0
M  V30 5519 H 537.568 0.499272 0.659285 0
M  V30 5520 H 540.114 1.51403 0.766496 0
M  V30 5521 H 538.886 3.32845 2.05742 0
M  V30 5522 H 538.509 2.17612 3.32762 0
M  V30 5523 N 539.506 -0.963266 1.24736 0
M  V30 5524 C 540.783 -1.68248 0.9976 0
M  V30 5525 C 541.163 -2.05599 -0.478776 0
M  V30 5526 O 540.511 -1.7626 -1.45412 0
M  V30 5527 C 540.721 -2.91118 1.92487 0
M  V30 5528 C 542.069 -3.63261 2.19833 0
M  V30 5529 O 543.093 -3.01184 1.90176 0
M  V30 5530 O 541.952 -4.75019 2.7022 0
M  V30 5531 H 539.046 -0.735744 0.377637 0
M  V30 5532 H 541.592 -1.01696 1.35853 0
M  V30 5533 H 540.364 -2.60242 2.92215 0
M  V30 5534 H 539.987 -3.65402 1.56738 0
M  V30 5535 N 540.985 -1.06182 -1.16461 0
M  V30 5536 C 542.215 -0.797425 -1.9059 0
M  V30 5537 C 542.623 0.651845 -1.77616 0
M  V30 5538 O 541.966 1.45788 -1.11766 0
M  V30 5539 C 542.028 -1.11128 -3.41893 0
M  V30 5540 C 541.692 -2.55874 -3.78652 0
M  V30 5541 C 542.689 -3.54104 -3.80665 0
M  V30 5542 C 540.374 -2.91144 -4.09317 0
M  V30 5543 C 542.368 -4.85645 -4.12829 0
M  V30 5544 C 540.055 -4.22885 -4.41148 0
M  V30 5545 C 541.053 -5.19945 -4.42883 0
M  V30 5546 O 540.741 -6.49322 -4.73959 0
M  V30 5547 H 540.473 -0.288709 -0.611247 0
M  V30 5548 H 543.027 -1.41841 -1.4856 0
M  V30 5549 H 541.257 -0.433217 -3.84266 0
M  V30 5550 H 542.946 -0.831306 -3.97296 0
M  V30 5551 H 543.712 -3.28197 -3.57088 0
M  V30 5552 H 539.591 -2.16252 -4.07131 0
M  V30 5553 H 543.135 -5.61398 -4.14099 0
M  V30 5554 H 539.032 -4.48551 -4.6419 0
M  V30 5555 H 539.8 -6.54294 -4.91774 0
M  V30 5556 N 542.463 1.3308 -0.844243 0
M  V30 5557 C 543.693 2.01515 -0.455541 0
M  V30 5558 C 544.101 1.63655 0.949406 0
M  V30 5559 O 543.444 0.84848 1.62931 0
M  V30 5560 C 543.506 3.55967 -0.502801 0
M  V30 5561 C 543.17 4.17222 -1.86481 0
M  V30 5562 C 544.167 4.36205 -2.8288 0
M  V30 5563 C 541.852 4.53528 -2.15911 0
M  V30 5564 C 543.846 4.90649 -4.06869 0
M  V30 5565 C 541.533 5.07679 -3.40155 0
M  V30 5566 C 542.531 5.26186 -4.35451 0
M  V30 5567 O 542.219 5.79183 -5.57496 0
M  V30 5568 H 541.951 0.65199 -0.178565 0
M  V30 5569 H 544.505 1.70867 -1.1399 0
M  V30 5570 H 542.735 3.85965 0.23836 0
M  V30 5571 H 544.424 4.05688 -0.131169 0
M  V30 5572 H 545.19 4.085 -2.61444 0
M  V30 5573 H 541.069 4.38414 -1.42528 0
M  V30 5574 H 544.613 5.0501 -4.81259 0
M  V30 5575 H 540.51 5.34815 -3.61446 0
M  V30 5576 H 541.278 5.97591 -5.5931 0
M  V30 5577 N 543.941 0.601185 1.45683 0
M  V30 5578 C 545.166 0.0982245 2.07167 0
M  V30 5579 C 545.591 -1.20546 1.44396 0
M  V30 5580 O 544.949 -1.73247 0.534347 0
M  V30 5581 C 544.997 -0.0346976 3.60583 0
M  V30 5582 O 544.101 -1.08657 3.97828 0
M  V30 5583 H 543.442 0.0711618 0.660176 0
M  V30 5584 H 545.972 0.829376 1.87036 0
M  V30 5585 H 545.982 -0.234969 4.07323 0
M  V30 5586 H 544.657 0.917265 4.05659 0
M  V30 5587 H 543.234 -0.863275 3.6277 0
M  V30 5588 N 545.419 -1.53889 0.339982 0
M  V30 5589 C 546.644 -2.05741 -0.261798 0
M  V30 5590 C 547.069 -1.21354 -1.43718 0
M  V30 5591 O 546.427 -0.22645 -1.7988 0
M  V30 5592 C 546.475 -3.54542 -0.658228 0
M  V30 5593 O 545.579 -3.7302 -1.75869 0
M  V30 5594 H 544.92 -0.662529 -0.0441672 0
M  V30 5595 H 547.45 -1.98568 0.493161 0
M  V30 5596 H 547.46 -3.9711 -0.936368 0
M  V30 5597 H 546.135 -4.15412 0.201358 0
M  V30 5598 H 544.712 -3.42355 -1.47809 0
M  V30 5599 N 546.897 -0.0685191 -1.57451 0
M  V30 5600 C 548.308 0.464634 -1.80826 0
M  V30 5601 C 548.659 1.69847 -0.982169 0
M  V30 5602 O 547.784 2.15439 -0.203734 0
M  V30 5603 C 548.379 0.849721 -3.27971 0
M  V30 5604 C 546.938 1.32776 -3.52204 0
M  V30 5605 C 546.085 0.311332 -2.75547 0
M  V30 5606 H 549.036 -0.294248 -1.55948 0
M  V30 5607 H 549.057 1.71138 -3.39841 0
M  V30 5608 H 548.569 -0.0484736 -3.8807 0
M  V30 5609 H 546.67 2.24456 -2.97406 0
M  V30 5610 H 546.783 1.30794 -4.60901 0
M  V30 5611 H 545.147 0.787915 -2.42206 0
M  V30 5612 H 545.93 -0.579078 -3.38381 0
M  V30 5613 N 548.375 1.56261 0.205012 0
M  V30 5614 C 549.285 1.96944 1.27476 0
M  V30 5615 C 550.301 0.875636 1.50362 0
M  V30 5616 O 551.477 1.18058 1.6317 0
M  V30 5617 C 548.542 2.29219 2.60115 0
M  V30 5618 C 547.603 3.52255 2.45387 0
M  V30 5619 C 546.836 3.8298 3.71701 0
M  V30 5620 O 547.059 3.15138 4.75441 0
M  V30 5621 O 545.993 4.76435 3.67823 0
M  V30 5622 H 549.819 2.88144 0.959527 0
M  V30 5623 H 547.404 1.43686 0.409217 0
M  V30 5624 H 549.286 2.51098 3.3842 0
M  V30 5625 H 547.961 1.4119 2.91285 0
M  V30 5626 H 546.868 3.35635 1.65227 0
M  V30 5627 H 548.201 4.40719 2.19152 0
M  V30 5628 N 549.853 -0.472356 1.50355 0
M  V30 5629 C 551.093 -1.23439 1.62918 0
M  V30 5630 C 551.457 -1.89284 0.321801 0
M  V30 5631 O 552.658 -2.66854 0.322852 0
M  V30 5632 C 550.929 -2.25119 2.7759 0
M  V30 5633 S 552.488 -3.10278 3.10279 0
M  V30 5634 H 549.306 -0.41911 0.574341 0
M  V30 5635 H 551.908 -0.531621 1.88133 0
M  V30 5636 H 550.612 -1.75324 3.71066 0
M  V30 5637 H 550.143 -3.00026 2.54457 0
M  V30 5638 H 552.158 -4.26257 2.54007 0
M  V30 5639 N 551.331 -1.39911 -0.725443 0
M  V30 5640 C 552.263 -1.35301 -1.85003 0
M  V30 5641 C 553.276 -0.260102 -1.60709 0
M  V30 5642 O 554.465 -0.519749 -1.70766 0
M  V30 5643 C 551.565 -1.08039 -3.21218 0
M  V30 5644 C 550.738 -2.28793 -3.7279 0
M  V30 5645 C 549.797 -1.97841 -4.87591 0
M  V30 5646 O 548.823 -2.70616 -5.00755 0
M  V30 5647 N 550.025 -0.950367 -5.72668 0
M  V30 5648 H 552.79 -2.32218 -1.89459 0
M  V30 5649 H 550.351 -1.34137 -0.90658 0
M  V30 5650 H 552.343 -0.853354 -3.95601 0
M  V30 5651 H 550.913 -0.198229 -3.11971 0
M  V30 5652 H 550.133 -2.67388 -2.8965 0
M  V30 5653 H 551.421 -3.09317 -4.03981 0
M  V30 5654 H 550.819 -0.347436 -5.64632 0
M  V30 5655 H 549.376 -0.783232 -6.47077 0
M  V30 5656 N 552.809 0.956637 -1.25245 0
M  V30 5657 C 554.034 1.74104 -1.12706 0
M  V30 5658 C 554.459 1.85436 0.315429 0
M  V30 5659 O 553.817 1.33334 1.22848 0
M  V30 5660 C 553.865 3.1338 -1.78396 0
M  V30 5661 O 552.969 3.98485 -1.06224 0
M  V30 5662 H 552.31 0.53476 -0.393609 0
M  V30 5663 H 554.84 1.19924 -1.65769 0
M  V30 5664 H 554.85 3.6385 -1.846 0
M  V30 5665 H 553.525 3.04448 -2.83345 0
M  V30 5666 H 552.102 3.56952 -1.07886 0
M  V30 5667 N 554.287 1.06798 1.15896 0
M  V30 5668 C 555.703 0.792423 1.38538 0
M  V30 5669 C 555.903 -0.60592 1.92174 0
M  V30 5670 O 554.959 -1.36561 2.12385 0
M  V30 5671 C 556.272 1.86157 2.36149 0
M  V30 5672 C 557.82 1.88567 2.49823 0
M  V30 5673 C 558.295 2.9455 3.5072 0
M  V30 5674 N 559.786 2.93616 3.58251 0
M  V30 5675 C 560.521 3.72267 4.36125 0
M  V30 5676 N 560.017 4.60751 5.17379 0
M  V30 5677 N 561.81 3.60637 4.31158 0
M  V30 5678 H 553.961 1.96993 0.794198 0
M  V30 5679 H 556.224 0.853942 0.411688 0
M  V30 5680 H 555.93 2.86603 2.03843 0
M  V30 5681 H 555.804 1.71692 3.3586 0
M  V30 5682 H 558.191 0.887765 2.8143 0
M  V30 5683 H 558.272 2.0711 1.5013 0
M  V30 5684 H 557.916 3.94537 3.19849 0
M  V30 5685 H 557.846 2.73255 4.50155 0
M  V30 5686 H 560.337 2.29472 3.00252 0
M  V30 5687 H 560.65 5.17408 5.74028 0
M  V30 5688 H 558.995 4.64803 5.16704 0
M  V30 5689 H 562.186 2.90892 3.66742 0
M  V30 5690 H 562.359 4.22176 4.91601 0
M  V30 5691 N 555.766 -1.3263 0.851289 0
M  V30 5692 C 557.012 -1.9766 0.453694 0
M  V30 5693 C 557.345 -1.67225 -0.987396 0
M  V30 5694 O 556.62 -0.958693 -1.69232 0
M  V30 5695 C 556.903 -3.5344 0.68936 0
M  V30 5696 C 556.756 -3.93517 2.17862 0
M  V30 5697 C 558.075 -4.39866 0.143555 0
M  V30 5698 H 555.194 -0.717989 0.166314 0
M  V30 5699 H 557.836 -1.57068 1.06909 0
M  V30 5700 H 555.986 -3.88147 0.165546 0
M  V30 5701 H 557.658 -3.69006 2.76826 0
M  V30 5702 H 555.901 -3.42798 2.65841 0
M  V30 5703 H 556.572 -5.02065 2.29422 0
M  V30 5704 H 559.048 -4.11875 0.591451 0
M  V30 5705 H 557.924 -5.47858 0.338043 0
M  V30 5706 H 558.185 -4.31696 -0.953466 0
M  V30 5707 N 557.244 -0.608902 -1.45362 0
M  V30 5708 C 558.154 0.110969 -2.34337 0
M  V30 5709 C 559.17 0.859007 -1.51318 0
M  V30 5710 O 560.346 0.816296 -1.84116 0
M  V30 5711 C 557.411 1.09494 -3.28956 0
M  V30 5712 C 556.472 0.348718 -4.27881 0
M  V30 5713 C 555.705 1.28582 -5.17979 0
M  V30 5714 O 555.928 2.52369 -5.11533 0
M  V30 5715 O 554.862 0.782172 -5.96796 0
M  V30 5716 H 558.688 -0.620258 -2.97299 0
M  V30 5717 H 556.273 -0.36916 -1.44767 0
M  V30 5718 H 558.155 1.66163 -3.87257 0
M  V30 5719 H 556.83 1.80717 -2.68557 0
M  V30 5720 H 555.737 -0.260465 -3.73192 0
M  V30 5721 H 557.07 -0.323049 -4.91139 0
M  V30 5722 N 558.722 1.53707 -0.348139 0
M  V30 5723 C 560.133 1.86213 0.134797 0
M  V30 5724 C 560.484 1.26925 1.49614 0
M  V30 5725 O 559.609 0.584573 2.08355 0
M  V30 5726 C 560.204 3.37866 0.251371 0
M  V30 5727 C 558.763 3.70233 0.678543 0
M  V30 5728 C 557.91 2.76683 -0.184925 0
M  V30 5729 H 560.861 1.48204 -0.567571 0
M  V30 5730 H 560.882 3.64908 1.07806 0
M  V30 5731 H 560.394 3.80988 -0.739581 0
M  V30 5732 H 558.495 3.32659 1.67835 0
M  V30 5733 H 558.608 4.76836 0.465251 0
M  V30 5734 H 556.972 2.52374 0.343465 0
M  V30 5735 H 557.755 3.22635 -1.1731 0
M  V30 5736 N 560.2 0.0768682 1.57412 0
M  V30 5737 C 561.446 -0.591961 1.93968 0
M  V30 5738 C 561.779 -1.68954 0.9575 0
M  V30 5739 O 561.054 -1.94496 -0.0124675 0
M  V30 5740 C 561.337 -1.16418 3.40762 0
M  V30 5741 C 561.19 -0.0728933 4.49741 0
M  V30 5742 C 562.509 -2.06814 3.88479 0
M  V30 5743 H 559.628 -0.213716 0.705333 0
M  V30 5744 H 562.27 0.14387 1.89455 0
M  V30 5745 H 560.42 -1.79128 3.4474 0
M  V30 5746 H 562.092 0.560446 4.57883 0
M  V30 5747 H 560.335 0.595859 4.29688 0
M  V30 5748 H 561.006 -0.513755 5.49604 0
M  V30 5749 H 563.482 -1.54033 3.8654 0
M  V30 5750 H 562.358 -2.43785 4.91793 0
M  V30 5751 H 562.619 -2.97844 3.26713 0
M  V30 5752 N 561.678 -1.56367 -0.196722 0
M  V30 5753 C 562.588 -1.97617 -1.2643 0
M  V30 5754 C 563.604 -0.883598 -1.49895 0
M  V30 5755 O 564.78 -1.18921 -1.62541 0
M  V30 5756 C 561.845 -2.30595 -2.58895 0
M  V30 5757 C 560.906 -3.53551 -2.43516 0
M  V30 5758 C 560.139 -3.84946 -3.69665 0
M  V30 5759 O 560.362 -3.17655 -4.73763 0
M  V30 5760 O 559.296 -4.78379 -3.65291 0
M  V30 5761 H 563.122 -2.88648 -0.944233 0
M  V30 5762 H 560.707 -1.43901 -0.401592 0
M  V30 5763 H 562.589 -2.52889 -3.37083 0
M  V30 5764 H 561.264 -1.42732 -2.90533 0
M  V30 5765 H 560.171 -3.36507 -1.63445 0
M  V30 5766 H 561.504 -4.41875 -2.16812 0
M  V30 5767 N 563.156 0.464375 -1.50603 0
M  V30 5768 C 564.066 1.58723 -1.72754 0
M  V30 5769 C 565.082 1.62925 -0.610844 0
M  V30 5770 O 566.258 1.8067 -0.889963 0
M  V30 5771 C 563.323 2.94897 -1.82309 0
M  V30 5772 C 562.384 3.0103 -3.06071 0
M  V30 5773 C 561.617 4.30708 -3.1516 0
M  V30 5774 O 561.84 5.2159 -2.30868 0
M  V30 5775 O 560.774 4.42571 -4.0794 0
M  V30 5776 H 564.6 1.42954 -2.67951 0
M  V30 5777 H 562.185 0.644579 -1.3478 0
M  V30 5778 H 564.067 3.75764 -1.90735 0
M  V30 5779 H 562.742 3.10851 -0.902967 0
M  V30 5780 H 561.649 2.19217 -3.03142 0
M  V30 5781 H 562.982 2.90014 -3.97684 0
M  V30 5782 N 564.634 1.40294 0.718013 0
M  V30 5783 C 565.881 1.3844 1.47786 0
M  V30 5784 C 566.209 -0.0140838 1.94495 0
M  V30 5785 O 565.464 -0.998165 1.68331 0
M  V30 5786 C 565.763 2.31814 2.72024 0
M  V30 5787 C 565.429 3.79117 2.44093 0
M  V30 5788 C 564.091 4.19249 2.36185 0
M  V30 5789 C 566.443 4.72212 2.20602 0
M  V30 5790 C 563.771 5.50516 2.02851 0
M  V30 5791 C 566.123 6.03775 1.88781 0
M  V30 5792 C 564.787 6.42953 1.79354 0
M  V30 5793 H 564.057 0.506588 0.540786 0
M  V30 5794 H 566.704 1.72929 0.822663 0
M  V30 5795 H 565.009 1.90501 3.42369 0
M  V30 5796 H 566.706 2.27664 3.30106 0
M  V30 5797 H 563.296 3.47318 2.51133 0
M  V30 5798 H 567.48 4.42026 2.25669 0
M  V30 5799 H 562.736 5.79776 1.94088 0
M  V30 5800 H 566.91 6.75428 1.69617 0
M  V30 5801 H 564.537 7.44584 1.53291 0
M  V30 5802 N 566.112 -0.949982 1.2575 0
M  V30 5803 C 567.34 -1.72972 1.13527 0
M  V30 5804 C 567.755 -1.8623 -0.310453 0
M  V30 5805 O 567.112 -1.36336 -1.2132 0
M  V30 5806 C 567.163 -3.14108 1.78936 0
M  V30 5807 O 566.884 -3.01493 3.17858 0
M  V30 5808 C 568.385 -4.08338 1.72554 0
M  V30 5809 H 565.605 -0.541864 0.395758 0
M  V30 5810 H 568.149 -1.19151 1.66202 0
M  V30 5811 H 566.304 -3.64858 1.30221 0
M  V30 5812 H 566.718 -3.90559 3.50092 0
M  V30 5813 H 568.192 -5.04963 2.22973 0
M  V30 5814 H 568.669 -4.33742 0.690251 0
M  V30 5815 H 569.275 -3.63506 2.2078 0
M  V30 5816 N 567.59 -1.07411 -1.15328 0
M  V30 5817 C 568.82 -0.817595 -1.89734 0
M  V30 5818 C 569.228 0.63297 -1.78298 0
M  V30 5819 O 568.571 1.44594 -1.13306 0
M  V30 5820 C 568.633 -1.14748 -3.40695 0
M  V30 5821 C 568.297 -2.59876 -3.75917 0
M  V30 5822 C 569.294 -3.58122 -3.76888 0
M  V30 5823 C 566.979 -2.95469 -4.06206 0
M  V30 5824 C 568.973 -4.89996 -4.07655 0
M  V30 5825 C 566.66 -4.2754 -4.36638 0
M  V30 5826 C 567.658 -5.24614 -4.37344 0
M  V30 5827 O 567.346 -6.54312 -4.67045 0
M  V30 5828 H 567.078 -0.295175 -0.608151 0
M  V30 5829 H 569.632 -1.43409 -1.47048 0
M  V30 5830 H 567.862 -0.47395 -3.83785 0
M  V30 5831 H 569.551 -0.873397 -3.96392 0
M  V30 5832 H 570.317 -3.31966 -3.53587 0
M  V30 5833 H 566.196 -2.20558 -4.04815 0
M  V30 5834 H 569.74 -5.65759 -4.08121 0
M  V30 5835 H 565.637 -4.53449 -4.59407 0
M  V30 5836 H 566.405 -6.59473 -4.84807 0
M  V30 5837 N 569.068 1.32177 -0.85831 0
M  V30 5838 C 569.998 2.31282 -0.321041 0
M  V30 5839 C 570.979 1.59841 0.581786 0
M  V30 5840 O 572.164 1.87619 0.501262 0
M  V30 5841 C 569.294 3.4385 0.48832 0
M  V30 5842 C 568.248 4.26799 -0.320391 0
M  V30 5843 C 567.574 5.31164 0.613934 0
M  V30 5844 C 568.874 4.98829 -1.54813 0
M  V30 5845 H 570.568 2.76469 -1.14915 0
M  V30 5846 H 568.114 1.32916 -0.554028 0
M  V30 5847 H 570.067 4.12224 0.874626 0
M  V30 5848 H 568.791 2.97401 1.34983 0
M  V30 5849 H 567.45 3.60077 -0.688497 0
M  V30 5850 H 567.098 4.80967 1.47239 0
M  V30 5851 H 566.798 5.8755 0.0768097 0
M  V30 5852 H 568.322 6.024 0.997336 0
M  V30 5853 H 569.736 5.59864 -1.23392 0
M  V30 5854 H 568.133 5.64957 -2.02346 0
M  V30 5855 H 569.203 4.26483 -2.30739 0
M  V30 5856 N 570.547 0.616602 1.45037 0
M  V30 5857 C 571.495 -0.109318 2.32343 0
M  V30 5858 C 572.489 -0.850543 1.465 0
M  V30 5859 O 573.695 -0.765088 1.62931 0
M  V30 5860 H 570.07 -0.0541091 0.750051 0
M  V30 5861 H 572.041 0.645326 2.91338 0
M  V30 5862 C 570.79 -1.0872 3.30266 0
M  V30 5863 H 570.113 -0.526267 3.96321 0
M  V30 5864 H 571.553 -1.56489 3.94065 0
M  V30 5865 C 570.012 -2.16525 2.58105 0
M  V30 5866 O 570.542 -3.244 2.36913 0
M  V30 5867 N 568.748 -1.92057 2.18088 0
M  V30 5868 H 568.295 -1.04337 2.35524 0
M  V30 5869 H 568.253 -2.64391 1.70131 0
M  V30 5870 N 572.025 -1.5352 0.356285 0
M  V30 5871 C 572.935 -2.29151 -0.502712 0
M  V30 5872 C 573.951 -1.34753 -1.1008 0
M  V30 5873 O 575.127 -1.67803 -1.11374 0
M  V30 5874 C 572.192 -3.05911 -1.63154 0
M  V30 5875 C 571.253 -4.15958 -1.06194 0
M  V30 5876 C 570.486 -4.8905 -2.13696 0
M  V30 5877 O 570.709 -4.61919 -3.34645 0
M  V30 5878 O 569.643 -5.75202 -1.77275 0
M  V30 5879 H 573.469 -3.03492 0.112466 0
M  V30 5880 H 571.054 -1.4891 0.120942 0
M  V30 5881 H 572.936 -3.53874 -2.28804 0
M  V30 5882 H 571.611 -2.34415 -2.23229 0
M  V30 5883 H 570.518 -3.7227 -0.369603 0
M  V30 5884 H 571.851 -4.89593 -0.505872 0
M  V30 5885 N 573.503 -0.0852151 -1.57369 0
M  V30 5886 C 574.752 0.580443 -1.93168 0
M  V30 5887 C 575.065 1.6995 -0.968319 0
M  V30 5888 O 576.271 2.42564 -1.21963 0
M  V30 5889 C 574.727 1.08386 -3.43192 0
M  V30 5890 C 574.335 -0.00491388 -4.48 0
M  V30 5891 C 576.079 1.72281 -3.87968 0
M  V30 5892 C 573.986 0.513299 -5.89168 0
M  V30 5893 H 572.916 0.22059 -0.72101 0
M  V30 5894 H 575.567 -0.159621 -1.82804 0
M  V30 5895 H 573.949 1.8773 -3.48674 0
M  V30 5896 H 575.123 -0.780032 -4.5415 0
M  V30 5897 H 573.438 -0.548453 -4.12772 0
M  V30 5898 H 576.035 2.12108 -4.9083 0
M  V30 5899 H 576.378 2.58811 -3.26071 0
M  V30 5900 H 576.911 0.995359 -3.85146 0
M  V30 5901 H 573.65 -0.315153 -6.54742 0
M  V30 5902 H 573.17 1.25564 -5.8651 0
M  V30 5903 H 574.849 0.985433 -6.39451 0
M  V30 5904 N 574.981 1.5647 0.188427 0
M  V30 5905 C 576.23 1.80207 0.905995 0
M  V30 5906 C 576.543 0.659579 1.84144 0
M  V30 5907 O 577.749 0.781431 2.60011 0
M  V30 5908 C 576.205 3.19255 1.66145 0
M  V30 5909 C 575.813 4.41324 0.770504 0
M  V30 5910 C 577.557 3.52298 2.36826 0
M  V30 5911 C 575.464 5.71394 1.52521 0
M  V30 5912 H 574.394 0.671953 0.342045 0
M  V30 5913 H 577.045 1.82808 0.159164 0
M  V30 5914 H 575.427 3.10922 2.45242 0
M  V30 5915 H 576.601 4.60797 0.0177261 0
M  V30 5916 H 574.916 4.16035 0.174199 0
M  V30 5917 H 577.513 4.46715 2.93854 0
M  V30 5918 H 577.856 2.76359 3.11338 0
M  V30 5919 H 578.389 3.62108 1.6469 0
M  V30 5920 H 575.128 6.50316 0.82275 0
M  V30 5921 H 574.648 5.55928 2.25175 0
M  V30 5922 H 576.327 6.12747 2.07725 0
M  V30 5923 N 576.459 -0.456382 1.50847 0
M  V30 5924 C 577.687 -1.23026 1.66349 0
M  V30 5925 C 578.102 -1.85473 0.352868 0
M  V30 5926 O 577.459 -1.69885 -0.666739 0
M  V30 5927 C 577.51 -2.32827 2.76539 0
M  V30 5928 O 577.231 -1.72938 4.02522 0
M  V30 5929 C 578.732 -3.23448 3.03144 0
M  V30 5930 H 575.952 -0.371527 0.558756 0
M  V30 5931 H 578.496 -0.543082 1.97157 0
M  V30 5932 H 576.651 -2.97294 2.48384 0
M  V30 5933 H 577.065 -2.45357 4.63573 0
M  V30 5934 H 578.539 -3.96669 3.83872 0
M  V30 5935 H 579.016 -3.83094 2.14793 0
M  V30 5936 H 579.622 -2.64702 3.32886 0
M  V30 5937 N 577.937 -1.40673 -0.710563 0
M  V30 5938 C 579.348 -1.34975 -1.28991 0
M  V30 5939 C 579.699 -0.0256272 -1.96183 0
M  V30 5940 O 578.824 0.876339 -1.97862 0
M  V30 5941 C 579.419 -2.44467 -2.34567 0
M  V30 5942 C 577.978 -2.42213 -2.88114 0
M  V30 5943 C 577.125 -2.25085 -1.61963 0
M  V30 5944 H 580.076 -1.50406 -0.506343 0
M  V30 5945 H 580.097 -2.12663 -3.15523 0
M  V30 5946 H 579.609 -3.40825 -1.85634 0
M  V30 5947 H 577.71 -1.49568 -3.41263 0
M  V30 5948 H 577.823 -3.37983 -3.39565 0
M  V30 5949 H 576.187 -1.72691 -1.87216 0
M  V30 5950 H 576.97 -3.23449 -1.15047 0
M  V30 5951 N 579.415 0.9433 -1.26252 0
M  V30 5952 C 580.345 2.05902 -1.10122 0
M  V30 5953 C 581.326 1.70099 -0.00700552 0
M  V30 5954 O 582.511 1.93377 -0.178641 0
M  V30 5955 C 579.641 3.39516 -0.731175 0
M  V30 5956 C 578.595 3.89372 -1.77688 0
M  V30 5957 C 577.921 5.19613 -1.26122 0
M  V30 5958 C 579.221 4.14489 -3.17799 0
M  V30 5959 H 580.915 2.19655 -2.03451 0
M  V30 5960 H 578.461 1.05548 -0.979576 0
M  V30 5961 H 580.414 4.17031 -0.605215 0
M  V30 5962 H 579.138 3.25733 0.23782 0
M  V30 5963 H 577.797 3.14036 -1.89148 0
M  V30 5964 H 577.445 5.02208 -0.282128 0
M  V30 5965 H 577.145 5.53939 -1.96023 0
M  V30 5966 H 578.669 5.99713 -1.14789 0
M  V30 5967 H 580.083 4.82625 -3.09428 0
M  V30 5968 H 578.48 4.60094 -3.85271 0
M  V30 5969 H 579.55 3.20347 -3.64014 0
M  V30 5970 N 580.893 1.08022 1.14757 0
M  V30 5971 C 582.123 0.827646 1.89298 0
M  V30 5972 C 582.531 -0.623506 1.78631 0
M  V30 5973 O 581.874 -1.43991 1.14071 0
M  V30 5974 C 581.936 1.16553 3.40082 0
M  V30 5975 C 581.6 2.61866 3.74533 0
M  V30 5976 C 582.597 3.60116 3.74984 0
M  V30 5977 C 580.282 2.97619 4.04633 0
M  V30 5978 C 582.276 4.92151 4.05051 0
M  V30 5979 C 579.963 4.2985 4.34364 0
M  V30 5980 C 580.961 5.26926 4.34555 0
M  V30 5981 O 580.649 6.5678 4.63568 0
M  V30 5982 H 580.381 0.298396 0.606577 0
M  V30 5983 H 582.935 1.44187 1.46285 0
M  V30 5984 H 581.165 0.494296 3.83528 0
M  V30 5985 H 582.854 0.894407 3.95923 0
M  V30 5986 H 583.62 3.33837 3.51821 0
M  V30 5987 H 579.499 2.22702 4.03639 0
M  V30 5988 H 583.043 5.67915 4.05115 0
M  V30 5989 H 578.94 4.55879 4.56995 0
M  V30 5990 H 579.708 6.62035 4.81303 0
M  V30 5991 N 582.371 -1.3172 0.865308 0
M  V30 5992 C 583.303 -2.27545 0.274906 0
M  V30 5993 C 584.316 -1.52887 -0.559413 0
M  V30 5994 O 585.505 -1.74361 -0.382166 0
M  V30 5995 C 582.605 -3.33006 -0.629286 0
M  V30 5996 C 581.778 -4.37063 0.171553 0
M  V30 5997 C 580.837 -5.22044 -0.660052 0
M  V30 5998 O 579.863 -5.69129 -0.0897527 0
M  V30 5999 N 581.065 -5.45946 -1.97289 0
M  V30 6000 H 583.83 -2.78848 1.09836 0
M  V30 6001 H 581.391 -1.44693 0.726331 0
M  V30 6002 H 583.383 -3.86772 -1.19121 0
M  V30 6003 H 581.953 -2.81782 -1.35342 0
M  V30 6004 H 581.173 -3.83436 0.914919 0
M  V30 6005 H 582.461 -5.03662 0.721235 0
M  V30 6006 H 581.859 -5.0944 -2.45942 0
M  V30 6007 H 580.416 -6.02665 -2.4827 0
M  V30 6008 N 583.85 -0.624285 -1.44708 0
M  V30 6009 C 585.096 -0.126051 -2.02107 0
M  V30 6010 C 585.425 1.2496 -1.49048 0
M  V30 6011 O 584.68 1.84163 -0.662005 0
M  V30 6012 C 584.979 -0.0546353 -3.57358 0
M  V30 6013 C 584.644 -1.36815 -4.29642 0
M  V30 6014 C 583.307 -1.72792 -4.49106 0
M  V30 6015 C 585.659 -2.23549 -4.70824 0
M  V30 6016 C 582.986 -2.95222 -5.07012 0
M  V30 6017 C 585.339 -3.45243 -5.30085 0
M  V30 6018 C 584.003 -3.81452 -5.47769 0
M  V30 6019 H 583.273 -0.0461252 -0.739563 0
M  V30 6020 H 585.92 -0.809236 -1.73562 0
M  V30 6021 H 584.225 0.711891 -3.85278 0
M  V30 6022 H 585.922 0.347282 -3.99493 0
M  V30 6023 H 582.512 -1.07817 -4.14817 0
M  V30 6024 H 586.696 -1.9705 -4.55505 0
M  V30 6025 H 581.952 -3.23361 -5.18891 0
M  V30 6026 H 586.125 -4.12689 -5.60946 0
M  V30 6027 H 583.753 -4.76403 -5.92405 0
M  V30 6028 N 585.328 1.53329 -0.364422 0
M  V30 6029 C 586.568 2.0315 0.22572 0
M  V30 6030 C 586.932 1.24589 1.46087 0
M  V30 6031 O 588.133 1.64411 2.12656 0
M  V30 6032 C 586.404 3.53718 0.511663 0
M  V30 6033 S 587.963 4.25412 1.07564 0
M  V30 6034 H 584.781 0.70795 0.0657843 0
M  V30 6035 H 587.383 1.88811 -0.507019 0
M  V30 6036 H 586.087 4.08497 -0.394784 0
M  V30 6037 H 585.618 3.72217 1.27351 0
M  V30 6038 H 587.633 4.36486 2.35997 0
M  V30 6039 N 586.806 0.0935595 1.57322 0
M  V30 6040 C 588.222 -0.263091 1.57417 0
M  V30 6041 C 588.422 -1.68526 1.1046 0
M  V30 6042 O 587.478 -2.40139 0.780357 0
M  V30 6043 C 588.791 -0.0529201 3.00653 0
M  V30 6044 C 590.339 -0.120788 3.12767 0
M  V30 6045 C 590.814 0.0613707 4.57959 0
M  V30 6046 N 592.305 0.00648534 4.632 0
M  V30 6047 C 593.04 0.122699 5.73269 0
M  V30 6048 N 592.536 0.29366 6.92177 0
M  V30 6049 N 594.329 0.0640787 5.62063 0
M  V30 6050 H 586.48 1.02277 1.86154 0
M  V30 6051 H 588.743 0.4007 0.859153 0
M  V30 6052 H 588.449 0.929279 3.39201 0
M  V30 6053 H 588.323 -0.795899 3.68708 0
M  V30 6054 H 590.71 -1.09349 2.74093 0
M  V30 6055 H 590.791 0.653656 2.47307 0
M  V30 6056 H 590.435 1.03093 4.97327 0
M  V30 6057 H 590.365 -0.732748 5.21477 0
M  V30 6058 H 592.856 -0.123173 3.77699 0
M  V30 6059 H 593.169 0.37389 7.71895 0
M  V30 6060 H 591.514 0.329307 6.94219 0
M  V30 6061 H 594.705 -0.0683396 4.6805 0
M  V30 6062 H 594.878 0.158097 6.47807 0
M  V30 6063 N 588.284 -1.56567 -0.180126 0
M  V30 6064 C 589.561 -1.7235 -0.924931 0
M  V30 6065 C 589.941 -0.652523 -2.00762 0
M  V30 6066 O 589.289 0.334115 -2.26044 0
M  V30 6067 C 589.499 -3.1523 -1.49771 0
M  V30 6068 C 590.847 -3.75921 -1.97405 0
M  V30 6069 O 591.871 -3.18452 -1.59583 0
M  V30 6070 O 590.73 -4.7681 -2.67048 0
M  V30 6071 H 587.824 -0.703502 -0.434758 0
M  V30 6072 H 590.37 -1.6886 -0.168647 0
M  V30 6073 H 589.142 -3.84656 -0.718027 0
M  V30 6074 H 588.765 -3.23009 -2.31842 0
M  V30 6075 N 589.762 0.448376 -1.51087 0
M  V30 6076 C 590.694 1.56146 -1.67783 0
M  V30 6077 C 591.707 1.52913 -0.55871 0
M  V30 6078 O 592.896 1.57889 -0.83267 0
M  V30 6079 C 589.996 2.95057 -1.66716 0
M  V30 6080 C 589.169 3.22915 -2.95033 0
M  V30 6081 C 588.228 4.41495 -2.86302 0
M  V30 6082 O 587.254 4.40688 -3.60254 0
M  V30 6083 N 588.456 5.44443 -2.014 0
M  V30 6084 H 591.221 1.42232 -2.638 0
M  V30 6085 H 588.782 0.637153 -1.48835 0
M  V30 6086 H 590.774 3.72388 -1.58458 0
M  V30 6087 H 589.344 3.02624 -0.783403 0
M  V30 6088 H 588.564 2.33985 -3.17245 0
M  V30 6089 H 589.852 3.38349 -3.79996 0
M  V30 6090 H 589.25 5.4793 -1.40674 0
M  V30 6091 H 587.807 6.2067 -1.99029 0
M  V30 6092 N 591.24 1.41047 0.703093 0
M  V30 6093 C 592.488 1.39723 1.4602 0
M  V30 6094 C 592.809 0.00461257 1.94999 0
M  V30 6095 O 592.079 -0.952292 1.71196 0
M  V30 6096 H 590.659 0.514281 0.541779 0
M  V30 6097 H 593.321 1.76217 0.832678 0
M  V30 6098 H 592.417 2.07982 2.32701 0
M  V30 6099 N 592.718 -0.936591 1.26751 0
M  V30 6100 C 593.948 -1.71509 1.15188 0
M  V30 6101 C 594.356 -1.86885 -0.295037 0
M  V30 6102 O 593.699 -1.37915 -1.21347 0
M  V30 6103 C 593.761 -3.13853 1.75318 0
M  V30 6104 C 593.425 -3.21845 3.24445 0
M  V30 6105 C 594.422 -3.04771 4.21201 0
M  V30 6106 C 592.107 -3.45088 3.64992 0
M  V30 6107 C 594.101 -3.10816 5.56482 0
M  V30 6108 C 591.788 -3.50767 5.00405 0
M  V30 6109 C 592.786 -3.33648 5.9596 0
M  V30 6110 O 592.474 -3.39045 7.28906 0
M  V30 6111 H 592.206 -0.543658 0.401761 0
M  V30 6112 H 594.76 -1.18234 1.67958 0
M  V30 6113 H 592.99 -3.6857 1.17016 0
M  V30 6114 H 594.679 -3.73634 1.58596 0
M  V30 6115 H 595.445 -2.86665 3.91214 0
M  V30 6116 H 591.324 -3.57467 2.91098 0
M  V30 6117 H 594.868 -2.97372 6.31043 0
M  V30 6118 H 590.765 -3.68396 5.30052 0
M  V30 6119 H 591.533 -3.55558 7.37238 0
M  V30 6120 N 594.196 -1.08629 -1.14182 0
M  V30 6121 C 595.106 -0.730126 -2.22949 0
M  V30 6122 C 596.122 0.26436 -1.7198 0
M  V30 6123 O 597.298 0.107742 -2.01112 0
M  V30 6124 C 594.363 -0.147227 -3.46387 0
M  V30 6125 C 593.424 -1.19662 -4.12286 0
M  V30 6126 C 592.657 -0.641437 -5.29831 0
M  V30 6127 O 592.88 0.538351 -5.67854 0
M  V30 6128 O 591.814 -1.39257 -5.85569 0
M  V30 6129 H 595.64 -1.63753 -2.55771 0
M  V30 6130 H 593.225 -0.860118 -1.22157 0
M  V30 6131 H 595.107 0.174923 -4.21037 0
M  V30 6132 H 593.782 0.733304 -3.15285 0
M  V30 6133 H 592.689 -1.57133 -3.395 0
M  V30 6134 H 594.022 -2.0495 -4.475 0
M  V30 6135 N 595.674 1.31259 -0.872281 0
M  V30 6136 C 596.923 1.95893 -0.480493 0
M  V30 6137 C 597.236 1.697 0.972688 0
M  V30 6138 O 598.442 2.28214 1.47073 0
M  V30 6139 C 596.898 3.50705 -0.808342 0
M  V30 6140 C 596.506 3.85735 -2.27844 0
M  V30 6141 C 598.25 4.21719 -0.485136 0
M  V30 6142 C 596.157 5.33668 -2.54858 0
M  V30 6143 H 595.087 0.733182 -0.175955 0
M  V30 6144 H 597.738 1.49396 -1.0655 0
M  V30 6145 H 596.12 3.95706 -0.152558 0
M  V30 6146 H 597.294 3.51686 -2.97748 0
M  V30 6147 H 595.609 3.27792 -2.56791 0
M  V30 6148 H 598.206 5.30559 -0.664166 0
M  V30 6149 H 598.549 4.12316 0.574592 0
M  V30 6150 H 599.082 3.82359 -1.09756 0
M  V30 6151 H 595.821 5.48109 -3.59523 0
M  V30 6152 H 595.341 5.69061 -1.8955 0
M  V30 6153 H 597.02 6.00958 -2.39706 0
M  V30 6154 N 597.152 0.631951 1.44375 0
M  V30 6155 C 598.082 -0.0593243 2.33425 0
M  V30 6156 C 599.063 -0.833964 1.48253 0
M  V30 6157 O 600.248 -0.799682 1.76971 0
M  V30 6158 C 597.378 -1.04096 3.31333 0
M  V30 6159 C 596.332 -0.377899 4.26328 0
M  V30 6160 C 595.658 -1.4695 5.14111 0
M  V30 6161 C 596.958 0.716371 5.17364 0
M  V30 6162 H 598.652 0.684287 2.91475 0
M  V30 6163 H 596.198 0.330518 1.40156 0
M  V30 6164 H 598.151 -1.53331 3.92514 0
M  V30 6165 H 596.875 -1.81547 2.71493 0
M  V30 6166 H 595.534 0.0938054 3.6648 0
M  V30 6167 H 595.182 -2.2349 4.50623 0
M  V30 6168 H 594.882 -1.03121 5.78481 0
M  V30 6169 H 596.406 -1.96363 5.78164 0
M  V30 6170 H 597.82 0.307089 5.72477 0
M  V30 6171 H 596.217 1.07784 5.90341 0
M  V30 6172 H 597.287 1.58316 4.58327 0
M  V30 6173 N 598.631 -1.53133 0.372548 0
M  V30 6174 C 599.908 -1.93704 -0.271693 0
M  V30 6175 C 600.288 -1.30667 -1.65799 0
M  V30 6176 O 599.636 -0.46838 -2.23648 0
M  V30 6177 C 599.846 -3.47576 -0.314903 0
M  V30 6178 C 601.194 -4.20998 -0.551912 0
M  V30 6179 O 602.218 -3.53994 -0.39582 0
M  V30 6180 O 601.077 -5.39748 -0.85639 0
M  V30 6181 H 598.171 -0.810457 -0.164586 0
M  V30 6182 H 600.717 -1.6427 0.425838 0
M  V30 6183 H 599.489 -3.85749 0.656792 0
M  V30 6184 H 599.112 -3.83264 -1.05804 0
M  V30 6185 N 600.109 -0.101901 -1.5727 0
M  V30 6186 C 601.357 0.559091 -1.94213 0
M  V30 6187 C 601.678 1.68297 -0.984948 0
M  V30 6188 O 600.948 1.95863 -0.0381975 0
M  V30 6189 H 599.528 0.20952 -0.717015 0
M  V30 6190 H 602.19 -0.166831 -1.94185 0
M  V30 6191 H 601.286 0.96485 -2.96811 0
M  V30 6192 N 601.587 1.56661 0.17182 0
M  V30 6193 C 602.534 1.96371 1.21273 0
M  V30 6194 C 603.504 0.82756 1.44016 0
M  V30 6195 O 604.689 1.08764 1.56764 0
M  V30 6196 C 601.829 2.32838 2.54716 0
M  V30 6197 C 600.942 3.59628 2.39356 0
M  V30 6198 C 600.077 3.85311 3.65662 0
M  V30 6199 C 599.116 5.0545 3.45234 0
M  V30 6200 N 598.253 5.27268 4.63608 0
M  V30 6201 H 603.093 2.85106 0.86709 0
M  V30 6202 H 600.63 1.41073 0.416744 0
M  V30 6203 H 602.588 2.52004 3.3249 0
M  V30 6204 H 601.218 1.47214 2.87277 0
M  V30 6205 H 600.27 3.4838 1.52761 0
M  V30 6206 H 601.582 4.4756 2.20207 0
M  V30 6207 H 600.736 4.04841 4.51872 0
M  V30 6208 H 599.475 2.95753 3.8779 0
M  V30 6209 H 598.48 4.85819 2.5741 0
M  V30 6210 H 599.705 5.96538 3.24529 0
M  V30 6211 H 597.651 4.40662 4.85956 0
M  V30 6212 H 597.568 6.09422 4.4737 0
M  V30 6213 H 598.836 5.51277 5.51103 0
M  V30 6214 N 603.065 -0.440357 1.51323 0
M  V30 6215 C 604.295 -1.21079 1.67402 0
M  V30 6216 C 604.703 -1.85555 0.369599 0
M  V30 6217 O 604.046 -1.71375 -0.661525 0
M  V30 6218 C 604.108 -2.33839 2.73056 0
M  V30 6219 C 603.772 -1.89755 4.15743 0
M  V30 6220 C 604.769 -1.40268 5.0062 0
M  V30 6221 C 602.454 -1.97539 4.61826 0
M  V30 6222 C 604.448 -0.991474 6.29642 0
M  V30 6223 C 602.135 -1.56029 5.90845 0
M  V30 6224 C 603.133 -1.06915 6.7458 0
M  V30 6225 O 602.821 -0.659933 8.01187 0
M  V30 6226 H 602.553 -0.371133 0.56501 0
M  V30 6227 H 605.107 -0.528409 1.98487 0
M  V30 6228 H 603.337 -3.05345 2.37279 0
M  V30 6229 H 605.026 -2.95713 2.78044 0
M  V30 6230 H 605.792 -1.33652 4.66221 0
M  V30 6231 H 601.671 -2.34713 3.96776 0
M  V30 6232 H 605.215 -0.607425 6.9495 0
M  V30 6233 H 601.112 -1.62315 6.24759 0
M  V30 6234 H 601.88 -0.786052 8.14717 0
M  V30 6235 N 604.543 -1.41418 -0.695603 0
M  V30 6236 C 605.789 -1.40982 -1.4578 0
M  V30 6237 C 606.122 -0.0187763 -1.94191 0
M  V30 6238 O 605.397 0.95346 -1.69527 0
M  V30 6239 C 605.68 -2.41657 -2.66972 0
M  V30 6240 C 605.533 -3.89869 -2.24327 0
M  V30 6241 C 606.852 -2.39589 -3.69168 0
M  V30 6242 H 603.971 -0.513405 -0.528757 0
M  V30 6243 H 606.613 -1.72693 -0.792275 0
M  V30 6244 H 604.763 -2.14746 -3.23754 0
M  V30 6245 H 606.435 -4.27683 -1.72872 0
M  V30 6246 H 604.678 -4.04737 -1.56111 0
M  V30 6247 H 605.349 -4.55857 -3.11285 0
M  V30 6248 H 607.825 -2.63471 -3.2206 0
M  V30 6249 H 606.701 -3.12044 -4.51575 0
M  V30 6250 H 606.962 -1.41447 -4.18862 0
M  V30 6251 N 606.021 0.929856 -1.27246 0
M  V30 6252 C 607.437 1.20542 -1.04603 0
M  V30 6253 C 607.637 2.00276 0.221754 0
M  V30 6254 O 606.693 2.34835 0.927833 0
M  V30 6255 C 608.006 1.95566 -2.28417 0
M  V30 6256 C 609.554 2.08513 -2.33433 0
M  V30 6257 C 610.029 2.86943 -3.5697 0
M  V30 6258 N 611.52 2.94512 -3.57515 0
M  V30 6259 C 612.255 3.55656 -4.49774 0
M  V30 6260 N 611.751 4.18209 -5.52334 0
M  V30 6261 N 613.544 3.53038 -4.37402 0
M  V30 6262 H 605.695 0.397113 -2.08655 0
M  V30 6263 H 607.958 0.238277 -0.917566 0
M  V30 6264 H 607.664 1.44395 -3.20691 0
M  V30 6265 H 607.538 2.9619 -2.33563 0
M  V30 6266 H 609.925 2.58872 -1.41666 0
M  V30 6267 H 610.006 1.07117 -2.32292 0
M  V30 6268 H 609.65 2.37268 -4.49072 0
M  V30 6269 H 609.58 3.8862 -3.55362 0
M  V30 6270 H 612.071 2.50053 -2.83341 0
M  V30 6271 H 612.384 4.62796 -6.18902 0
M  V30 6272 H 610.729 4.16761 -5.56179 0
M  V30 6273 H 613.92 3.0337 -3.56489 0
M  V30 6274 H 614.093 4.004 -5.09493 0
M  V30 6275 N 607.499 1.09233 1.13605 0
M  V30 6276 C 608.915 0.82163 1.36826 0
M  V30 6277 C 609.115 -0.565021 1.93416 0
M  V30 6278 O 608.171 -1.32026 2.15234 0
M  V30 6279 C 609.484 1.91124 2.32147 0
M  V30 6280 C 611.032 1.93824 2.45767 0
M  V30 6281 C 611.507 3.01923 3.44393 0
M  V30 6282 N 612.998 3.01149 3.51942 0
M  V30 6283 C 613.733 3.81434 4.2813 0
M  V30 6284 N 613.229 4.71621 5.07489 0
M  V30 6285 N 615.022 3.69702 4.23411 0
M  V30 6286 H 607.173 1.98633 0.752234 0
M  V30 6287 H 609.436 0.862482 0.393482 0
M  V30 6288 H 609.142 2.90862 1.97717 0
M  V30 6289 H 609.016 1.78777 3.32142 0
M  V30 6290 H 611.403 0.94726 2.79483 0
M  V30 6291 H 611.484 2.10248 1.45703 0
M  V30 6292 H 611.128 4.01232 3.11408 0
M  V30 6293 H 611.058 2.82742 4.44257 0
M  V30 6294 H 613.549 2.35789 2.95317 0
M  V30 6295 H 613.862 5.29468 5.62924 0
M  V30 6296 H 612.207 4.75658 5.06729 0
M  V30 6297 H 615.398 2.98606 3.60489 0
M  V30 6298 H 615.571 4.32509 4.82535 0
M  V30 6299 N 608.977 -1.30795 0.87923 0
M  V30 6300 C 609.887 -2.32041 0.345565 0
M  V30 6301 C 610.903 -1.65103 -0.549265 0
M  V30 6302 O 612.079 -1.9645 -0.443763 0
M  V30 6303 C 609.144 -3.43944 -0.436245 0
M  V30 6304 C 608.205 -4.26521 0.48765 0
M  V30 6305 C 607.438 -5.33081 -0.256943 0
M  V30 6306 O 607.661 -5.50762 -1.48381 0
M  V30 6307 O 606.595 -6.00635 0.389985 0
M  V30 6308 H 610.421 -2.79627 1.18501 0
M  V30 6309 H 608.006 -1.3486 0.642885 0
M  V30 6310 H 609.888 -4.12128 -0.879119 0
M  V30 6311 H 608.563 -2.98504 -1.25208 0
M  V30 6312 H 607.47 -3.61057 0.979216 0
M  V30 6313 H 608.803 -4.75551 1.26933 0
M  V30 6314 N 610.455 -0.639598 -1.44038 0
M  V30 6315 C 611.871 -0.305953 -1.5664 0
M  V30 6316 C 612.071 1.19055 -1.62567 0
M  V30 6317 O 611.127 1.97492 -1.57331 0
M  V30 6318 C 612.44 -1.00533 -2.83397 0
M  V30 6319 C 613.988 -0.984278 -2.97121 0
M  V30 6320 C 614.463 -1.66428 -4.26691 0
M  V30 6321 N 615.954 -1.63127 -4.33525 0
M  V30 6322 C 616.689 -2.12629 -5.32519 0
M  V30 6323 N 616.185 -2.70359 -6.3787 0
M  V30 6324 N 617.978 -2.03208 -5.24083 0
M  V30 6325 H 610.129 -1.6109 -1.38434 0
M  V30 6326 H 612.392 -0.676672 -0.663942 0
M  V30 6327 H 612.098 -2.06034 -2.85032 0
M  V30 6328 H 611.972 -0.548362 -3.73193 0
M  V30 6329 H 614.359 0.0622792 -2.95034 0
M  V30 6330 H 614.44 -1.47981 -2.08651 0
M  V30 6331 H 614.084 -2.71034 -4.29538 0
M  V30 6332 H 614.014 -1.14351 -5.14034 0
M  V30 6333 H 616.505 -1.20987 -3.58009 0
M  V30 6334 H 616.818 -3.05842 -7.09704 0
M  V30 6335 H 615.163 -2.74414 -6.38531 0
M  V30 6336 H 618.354 -1.57823 -4.40692 0
M  V30 6337 H 618.527 -2.42097 -6.01077 0
M  V30 6338 N 611.933 1.52934 -0.380664 0
M  V30 6339 C 613.21 1.93845 0.261417 0
M  V30 6340 C 613.59 1.31544 1.65104 0
M  V30 6341 O 612.938 0.480234 2.23397 0
M  V30 6342 C 613.148 3.47739 0.296466 0
M  V30 6343 C 614.496 4.21284 0.529578 0
M  V30 6344 O 615.52 3.54199 0.377041 0
M  V30 6345 O 614.379 5.40195 0.827753 0
M  V30 6346 H 611.473 0.811318 0.160285 0
M  V30 6347 H 614.019 1.64042 -0.434544 0
M  V30 6348 H 612.791 3.85395 -0.67724 0
M  V30 6349 H 612.414 3.8382 1.0377 0
M  V30 6350 N 613.412 0.11024 1.57214 0
M  V30 6351 C 614.362 -0.854147 2.11396 0
M  V30 6352 C 615.346 -1.23394 1.03261 0
M  V30 6353 O 616.538 -1.20649 1.2951 0
M  V30 6354 C 613.667 -2.10752 2.70995 0
M  V30 6355 C 612.753 -1.75249 3.86198 0
M  V30 6356 N 613.144 -1.10377 4.9361 0
M  V30 6357 C 611.442 -2.04763 3.96217 0
M  V30 6358 C 612.143 -0.938199 5.74084 0
M  V30 6359 N 611.119 -1.46039 5.23616 0
M  V30 6360 H 614.921 -0.348897 2.91822 0
M  V30 6361 H 612.435 -0.0925071 1.62136 0
M  V30 6362 H 614.432 -2.80801 3.0815 0
M  V30 6363 H 613.092 -2.61829 1.9203 0
M  V30 6364 H 614.103 -0.768785 5.12162 0
M  V30 6365 H 610.78 -2.57948 3.28282 0
M  V30 6366 H 612.17 -0.429678 6.70525 0
M  V30 6367 N 614.89 -1.56749 -0.16351 0
M  V30 6368 C 615.8 -2.00255 -1.2221 0
M  V30 6369 C 616.816 -0.915194 -1.47987 0
M  V30 6370 O 617.992 -1.22342 -1.59982 0
M  V30 6371 C 615.057 -2.36035 -2.53946 0
M  V30 6372 C 614.118 -3.58637 -2.35962 0
M  V30 6373 C 613.351 -3.92701 -3.61416 0
M  V30 6374 O 613.574 -3.27632 -4.66919 0
M  V30 6375 O 612.508 -4.86019 -3.55062 0
M  V30 6376 H 616.334 -2.90586 -0.882794 0
M  V30 6377 H 613.919 -1.44721 -0.370978 0
M  V30 6378 H 615.801 -2.59982 -3.31643 0
M  V30 6379 H 614.476 -1.48863 -2.8744 0
M  V30 6380 H 613.383 -3.39898 -1.5627 0
M  V30 6381 H 614.716 -4.46374 -2.0739 0
M  V30 6382 N 616.368 0.432326 -1.51554 0
M  V30 6383 C 617.315 1.52512 -1.7323 0
M  V30 6384 C 618.285 1.55863 -0.5741 0
M  V30 6385 O 619.47 1.72796 -0.809093 0
M  V30 6386 C 616.61 2.90183 -1.86783 0
M  V30 6387 C 615.723 2.96322 -3.14352 0
M  V30 6388 C 614.858 4.25147 -3.18471 0
M  V30 6389 C 613.897 4.25172 -4.40335 0
M  V30 6390 N 613.034 5.45529 -4.41975 0
M  V30 6391 H 617.874 1.33332 -2.66508 0
M  V30 6392 H 615.411 0.647613 -1.32077 0
M  V30 6393 H 617.369 3.70071 -1.92623 0
M  V30 6394 H 615.999 3.0791 -0.969087 0
M  V30 6395 H 615.051 2.09066 -3.17798 0
M  V30 6396 H 616.363 2.92203 -4.04251 0
M  V30 6397 H 615.517 5.13411 -3.23255 0
M  V30 6398 H 614.256 4.31929 -2.2647 0
M  V30 6399 H 613.261 3.353 -4.35723 0
M  V30 6400 H 614.486 4.20049 -5.33606 0
M  V30 6401 H 612.432 5.53024 -3.52847 0
M  V30 6402 H 612.349 5.43311 -5.25689 0
M  V30 6403 H 613.617 6.35812 -4.50958 0
M  V30 6404 N 617.846 1.41785 0.688094 0
M  V30 6405 C 619.095 1.4084 1.44385 0
M  V30 6406 C 619.408 0.0234166 1.95586 0
M  V30 6407 O 620.614 -0.108647 2.71283 0
M  V30 6408 C 619.07 2.47675 2.61123 0
M  V30 6409 C 618.678 3.92116 2.16677 0
M  V30 6410 C 620.422 2.55877 3.38714 0
M  V30 6411 C 618.329 4.90487 3.30419 0
M  V30 6412 H 617.259 0.523787 0.542368 0
M  V30 6413 H 619.91 1.6764 0.74627 0
M  V30 6414 H 618.292 2.14018 3.33185 0
M  V30 6415 H 619.466 4.35059 1.51856 0
M  V30 6416 H 617.781 3.87642 1.5206 0
M  V30 6417 H 620.378 3.26553 4.234 0
M  V30 6418 H 620.721 1.59801 3.84408 0
M  V30 6419 H 621.254 2.88662 2.73714 0
M  V30 6420 H 617.993 5.87994 2.89729 0
M  V30 6421 H 617.513 4.52187 3.94065 0
M  V30 6422 H 619.192 5.11591 3.96085 0
M  V30 6423 N 619.324 -0.923095 1.27737 0
M  V30 6424 C 620.573 -1.66581 1.13727 0
M  V30 6425 C 620.886 -1.9304 -0.315433 0
M  V30 6426 O 622.092 -2.65309 -0.57651 0
M  V30 6427 C 620.548 -3.00047 1.98745 0
M  V30 6428 C 620.156 -2.8127 3.48699 0
M  V30 6429 C 621.9 -3.77887 1.93395 0
M  V30 6430 C 619.807 -4.1032 4.25901 0
M  V30 6431 H 618.737 -0.624834 0.422017 0
M  V30 6432 H 621.388 -1.02514 1.52194 0
M  V30 6433 H 619.77 -3.65197 1.53125 0
M  V30 6434 H 620.944 -2.24859 4.02213 0
M  V30 6435 H 619.259 -2.16854 3.55476 0
M  V30 6436 H 621.856 -4.73526 2.48348 0
M  V30 6437 H 622.199 -4.06264 0.908605 0
M  V30 6438 H 622.732 -3.19541 2.36935 0
M  V30 6439 H 619.471 -3.8712 5.28978 0
M  V30 6440 H 618.991 -4.66377 3.77163 0
M  V30 6441 H 620.67 -4.78648 4.35321 0
M  V30 6442 N 620.802 -1.09834 -1.13024 0
M  V30 6443 C 622.05 -0.835297 -1.8403 0
M  V30 6444 C 622.371 0.640944 -1.84165 0
M  V30 6445 O 621.641 1.46517 -1.30037 0
M  V30 6446 H 620.221 -0.306018 -0.681441 0
M  V30 6447 H 622.883 -1.38734 -1.36891 0
M  V30 6448 H 621.979 -1.19258 -2.88416 0
M  V30 6449 N 622.28 1.30327 -0.886154 0
M  V30 6450 C 623.51 1.99964 -0.519421 0
M  V30 6451 C 623.918 1.66593 0.89686 0
M  V30 6452 O 623.261 0.899886 1.60149 0
M  V30 6453 C 623.323 3.54187 -0.615795 0
M  V30 6454 C 622.987 4.11078 -1.9966 0
M  V30 6455 C 623.984 4.26985 -2.96614 0
M  V30 6456 C 621.669 4.46429 -2.30231 0
M  V30 6457 C 623.663 4.77456 -4.22273 0
M  V30 6458 C 621.35 4.966 -3.56135 0
M  V30 6459 C 622.348 5.12066 -4.5197 0
M  V30 6460 O 622.036 5.61154 -5.7564 0
M  V30 6461 H 621.768 0.645979 -0.199217 0
M  V30 6462 H 624.322 1.67154 -1.19368 0
M  V30 6463 H 622.552 3.86528 0.115448 0
M  V30 6464 H 624.241 4.05065 -0.26017 0
M  V30 6465 H 625.007 3.99975 -2.74308 0
M  V30 6466 H 620.886 4.33658 -1.56404 0
M  V30 6467 H 624.43 4.89444 -4.97082 0
M  V30 6468 H 620.327 5.23045 -3.78277 0
M  V30 6469 H 621.095 5.79494 -5.78039 0
M  V30 6470 N 623.758 0.647228 1.43697 0
M  V30 6471 C 625.035 0.0883758 1.954 0
M  V30 6472 C 625.415 -1.39006 1.58873 0
M  V30 6473 O 624.763 -2.11255 0.87083 0
M  V30 6474 C 624.973 0.328263 3.47453 0
M  V30 6475 C 626.321 0.230009 4.23977 0
M  V30 6476 O 627.345 0.260496 3.55246 0
M  V30 6477 O 626.204 0.148615 5.46298 0
M  V30 6478 H 623.298 -0.0130683 0.826897 0
M  V30 6479 H 625.844 0.72005 1.53666 0
M  V30 6480 H 624.616 1.3535 3.67146 0
M  V30 6481 H 624.239 -0.336772 3.96171 0
M  V30 6482 N 625.236 -1.5273 0.388769 0
M  V30 6483 C 626.513 -1.93981 -0.251133 0
M  V30 6484 C 626.893 -1.32418 -1.64404 0
M  V30 6485 O 626.241 -0.492074 -2.23139 0
M  V30 6486 C 626.451 -3.47891 -0.27802 0
M  V30 6487 C 627.799 -4.21559 -0.507229 0
M  V30 6488 O 628.823 -3.54394 -0.358252 0
M  V30 6489 O 627.682 -5.40626 -0.799094 0
M  V30 6490 H 624.776 -0.812157 -0.15598 0
M  V30 6491 H 627.322 -1.63809 0.443237 0
M  V30 6492 H 626.094 -3.8503 0.697669 0
M  V30 6493 H 625.717 -3.84364 -1.01733 0
M  V30 6494 N 626.714 -0.118576 -1.57153 0
M  V30 6495 C 627.647 0.869046 -2.11004 0
M  V30 6496 C 628.625 1.26115 -1.02634 0
M  V30 6497 O 629.809 1.36228 -1.30285 0
M  V30 6498 C 626.936 2.16297 -2.6064 0
M  V30 6499 C 625.982 1.91896 -3.80891 0
M  V30 6500 S 626.815 1.13562 -5.2332 0
M  V30 6501 C 627.971 2.44135 -5.76324 0
M  V30 6502 H 628.204 0.411005 -2.94445 0
M  V30 6503 H 625.737 0.0951891 -1.54106 0
M  V30 6504 H 627.695 2.90642 -2.89892 0
M  V30 6505 H 626.356 2.59219 -1.77382 0
M  V30 6506 H 625.549 2.8777 -4.13768 0
M  V30 6507 H 625.151 1.25672 -3.52253 0
M  V30 6508 H 627.443 3.39976 -5.86022 0
M  V30 6509 H 628.386 2.15803 -6.74414 0
M  V30 6510 H 628.794 2.53483 -5.04387 0
M  V30 6511 N 628.193 1.56834 0.155195 0
M  V30 6512 C 629.141 1.98584 1.21107 0
M  V30 6513 C 630.135 0.876987 1.44932 0
M  V30 6514 O 631.341 1.06215 1.45322 0
M  V30 6515 H 627.716 0.632039 0.407469 0
M  V30 6516 H 629.687 2.86561 0.832195 0
M  V30 6517 C 628.436 2.37555 2.53895 0
M  V30 6518 H 627.759 3.22428 2.3639 0
M  V30 6519 H 629.199 2.70598 3.26424 0
M  V30 6520 C 627.658 1.22507 3.13837 0
M  V30 6521 O 628.188 0.521388 3.98302 0
M  V30 6522 N 626.394 0.991444 2.73164 0
M  V30 6523 H 625.941 1.56544 2.04577 0
M  V30 6524 H 625.899 0.223546 3.13604 0
M  V30 6525 N 629.671 -0.424282 1.51781 0
M  V30 6526 C 630.603 -1.53457 1.70246 0
M  V30 6527 C 631.616 -1.52004 0.582967 0
M  V30 6528 O 632.805 -1.56544 0.857683 0
M  V30 6529 C 629.905 -2.92368 1.71389 0
M  V30 6530 C 629.078 -3.1818 3.00133 0
M  V30 6531 C 628.137 -4.36884 2.9329 0
M  V30 6532 O 627.163 -4.34901 3.67219 0
M  V30 6533 N 628.365 -5.4117 2.10036 0
M  V30 6534 H 631.13 -1.38017 2.66029 0
M  V30 6535 H 628.691 -0.613394 1.4983 0
M  V30 6536 H 630.683 -3.6982 1.64362 0
M  V30 6537 H 629.253 -3.0134 0.831449 0
M  V30 6538 H 628.473 -2.28908 3.20928 0
M  V30 6539 H 629.761 -3.32261 3.85331 0
M  V30 6540 H 629.159 -5.45623 1.49373 0
M  V30 6541 H 627.716 -6.17425 2.08878 0
M  V30 6542 N 631.149 -1.42148 -0.680565 0
M  V30 6543 C 632.079 -1.4796 -1.80638 0
M  V30 6544 C 633.06 -0.336728 -1.66734 0
M  V30 6545 O 634.245 -0.550247 -1.86242 0
M  V30 6546 C 631.375 -1.37569 -3.18892 0
M  V30 6547 C 630.329 -2.49823 -3.47524 0
M  V30 6548 C 629.655 -2.24491 -4.85291 0
M  V30 6549 C 630.955 -3.92144 -3.44994 0
M  V30 6550 H 632.649 -2.42184 -1.76032 0
M  V30 6551 H 630.195 -1.16566 -0.845481 0
M  V30 6552 H 632.148 -1.40243 -3.97379 0
M  V30 6553 H 630.872 -0.398357 -3.24162 0
M  V30 6554 H 629.531 -2.46455 -2.71395 0
M  V30 6555 H 629.179 -1.25066 -4.87204 0
M  V30 6556 H 628.879 -2.99722 -5.05411 0
M  V30 6557 H 630.403 -2.28906 -5.66069 0
M  V30 6558 H 631.817 -3.97145 -4.13459 0
M  V30 6559 H 630.214 -4.67179 -3.76648 0
M  V30 6560 H 631.284 -4.19225 -2.43676 0
M  V30 6561 N 632.627 0.916307 -1.28225 0
M  V30 6562 C 633.874 1.66518 -1.1523 0
M  V30 6563 C 634.202 1.92178 0.299632 0
M  V30 6564 O 633.457 1.51842 1.2346 0
M  V30 6565 C 633.756 3.03125 -1.8934 0
M  V30 6566 C 633.422 2.97135 -3.39148 0
M  V30 6567 C 632.084 2.95208 -3.80007 0
M  V30 6568 C 634.436 2.87574 -4.34685 0
M  V30 6569 C 631.764 2.81518 -5.14747 0
M  V30 6570 C 634.116 2.75424 -5.69495 0
M  V30 6571 C 632.78 2.71854 -6.09632 0
M  V30 6572 H 632.05 0.609334 -0.421655 0
M  V30 6573 H 634.697 1.06776 -1.58969 0
M  V30 6574 H 633.002 3.66639 -1.38143 0
M  V30 6575 H 634.699 3.59968 -1.76704 0
M  V30 6576 H 631.289 2.99428 -3.06661 0
M  V30 6577 H 635.473 2.88152 -4.04082 0
M  V30 6578 H 630.729 2.77148 -5.44976 0
M  V30 6579 H 634.903 2.66993 -6.43185 0
M  V30 6580 H 632.53 2.61003 -7.1399 0
M  V30 6581 N 634.105 1.10431 1.1244 0
M  V30 6582 C 635.351 0.857864 1.84424 0
M  V30 6583 C 635.706 -0.609995 1.82474 0
M  V30 6584 O 634.999 -1.44401 1.25932 0
M  V30 6585 C 635.193 1.34022 3.3132 0
M  V30 6586 C 635.022 2.85344 3.47576 0
M  V30 6587 C 633.792 3.53345 3.61213 0
M  V30 6588 C 635.99 3.83446 3.42744 0
M  V30 6589 N 633.972 4.92989 3.65834 0
M  V30 6590 C 635.343 5.09101 3.5386 0
M  V30 6591 C 637.398 3.76154 3.26209 0
M  V30 6592 C 636.101 6.28323 3.50146 0
M  V30 6593 C 638.127 4.94876 3.23809 0
M  V30 6594 C 637.489 6.19378 3.35485 0
M  V30 6595 H 633.588 0.366917 0.690577 0
M  V30 6596 H 636.172 1.40668 1.34613 0
M  V30 6597 H 634.343 0.818727 3.79673 0
M  V30 6598 H 636.075 1.03801 3.91162 0
M  V30 6599 H 632.83 3.03791 3.63329 0
M  V30 6600 H 633.254 5.65762 3.71809 0
M  V30 6601 H 637.896 2.80813 3.16076 0
M  V30 6602 H 635.614 7.23953 3.5905 0
M  V30 6603 H 639.2 4.90942 3.12197 0
M  V30 6604 H 638.08 7.09704 3.33602 0
M  V30 6605 N 635.583 -1.29855 0.893053 0
M  V30 6606 C 636.813 -1.99686 0.530019 0
M  V30 6607 C 637.221 -1.67066 -0.888012 0
M  V30 6608 O 636.564 -0.908366 -1.5967 0
M  V30 6609 C 636.626 -3.53855 0.63457 0
M  V30 6610 C 636.29 -4.10013 2.01837 0
M  V30 6611 C 637.287 -4.25406 2.98874 0
M  V30 6612 C 634.972 -4.45202 2.32595 0
M  V30 6613 C 636.966 -4.7521 4.24799 0
M  V30 6614 C 634.653 -4.94704 3.58763 0
M  V30 6615 C 635.651 -5.09662 4.5468 0
M  V30 6616 O 635.339 -5.58093 5.78608 0
M  V30 6617 H 635.071 -0.644913 0.20264 0
M  V30 6618 H 637.625 -1.66518 1.20253 0
M  V30 6619 H 635.855 -3.86583 -0.0949477 0
M  V30 6620 H 637.544 -4.04922 0.281648 0
M  V30 6621 H 638.31 -3.98515 2.76425 0
M  V30 6622 H 634.189 -4.32822 1.58701 0
M  V30 6623 H 637.733 -4.86801 4.99671 0
M  V30 6624 H 633.63 -5.21032 3.81046 0
M  V30 6625 H 634.398 -5.7642 5.81104 0
M  V30 6626 N 637.061 -0.65484 -1.43351 0
M  V30 6627 C 638.472 -0.248506 -1.85039 0
M  V30 6628 C 638.823 1.20526 -1.54816 0
M  V30 6629 O 637.948 1.92016 -0.99794 0
M  V30 6630 C 638.543 -0.444241 -3.35875 0
M  V30 6631 C 637.102 -0.0922108 -3.76287 0
M  V30 6632 C 636.249 -0.746327 -2.67068 0
M  V30 6633 H 639.2 -0.8584 -1.33481 0
M  V30 6634 H 639.221 0.309762 -3.79237 0
M  V30 6635 H 638.733 -1.50239 -3.5784 0
M  V30 6636 H 636.834 0.96328 -3.59933 0
M  V30 6637 H 636.947 -0.518807 -4.76283 0
M  V30 6638 H 635.311 -0.179416 -2.54067 0
M  V30 6639 H 636.094 -1.80754 -2.91861 0
M  V30 6640 N 638.539 1.52521 -0.396863 0
M  V30 6641 C 639.449 2.30403 0.44178 0
M  V30 6642 C 640.465 1.37625 1.06468 0
M  V30 6643 O 641.641 1.70697 1.06886 0
M  V30 6644 C 638.706 3.1013 1.54986 0
M  V30 6645 C 637.767 4.18628 0.951279 0
M  V30 6646 C 637 4.94543 2.00655 0
M  V30 6647 O 637.223 4.70629 3.22281 0
M  V30 6648 O 636.157 5.797 1.61962 0
M  V30 6649 H 639.983 3.03087 -0.192892 0
M  V30 6650 H 637.568 1.48537 -0.16038 0
M  V30 6651 H 639.45 3.59816 2.19341 0
M  V30 6652 H 638.125 2.40251 2.16935 0
M  V30 6653 H 637.032 3.73119 0.270773 0
M  V30 6654 H 638.365 4.90763 0.375887 0
M  V30 6655 N 640.017 0.126909 1.57088 0
M  V30 6656 C 641.265 -0.528123 1.95078 0
M  V30 6657 C 641.586 -1.66708 1.0116 0
M  V30 6658 O 640.856 -1.95777 0.0693527 0
M  V30 6659 H 639.436 -0.198087 0.720257 0
M  V30 6660 H 642.098 0.197703 1.93895 0
M  V30 6661 H 641.194 -0.917507 2.98309 0
M  V30 6662 N 641.495 -1.56914 -0.146875 0
M  V30 6663 C 642.744 -1.82546 -0.857898 0
M  V30 6664 C 643.057 -0.708169 -1.8233 0
M  V30 6665 O 644.263 -0.850093 -2.57848 0
M  V30 6666 C 642.719 -3.23548 -1.57623 0
M  V30 6667 C 642.327 -4.43212 -0.653224 0
M  V30 6668 C 644.071 -3.58453 -2.27402 0
M  V30 6669 C 641.978 -5.75237 -1.37318 0
M  V30 6670 H 640.908 -0.680786 -0.32411 0
M  V30 6671 H 643.559 -1.83166 -0.110639 0
M  V30 6672 H 641.941 -3.17315 -2.36912 0
M  V30 6673 H 643.115 -4.60682 0.104452 0
M  V30 6674 H 641.43 -4.16351 -0.0638336 0
M  V30 6675 H 644.027 -4.54349 -2.81907 0
M  V30 6676 H 644.37 -2.84516 -3.03901 0
M  V30 6677 H 644.903 -3.66347 -1.55032 0
M  V30 6678 H 641.642 -6.52269 -0.650041 0
M  V30 6679 H 641.162 -5.61703 -2.10357 0
M  V30 6680 H 642.841 -6.18039 -1.91406 0
M  V30 6681 N 642.974 0.416227 -1.52004 0
M  V30 6682 C 643.884 1.53147 -1.77717 0
M  V30 6683 C 644.9 1.609 -0.662368 0
M  V30 6684 O 646.076 1.77747 -0.946991 0
M  V30 6685 C 643.141 2.88948 -1.91598 0
M  V30 6686 C 642.202 2.9114 -3.15493 0
M  V30 6687 C 641.435 4.20464 -3.28703 0
M  V30 6688 O 641.658 5.13981 -2.47345 0
M  V30 6689 O 640.592 4.29368 -4.21813 0
M  V30 6690 H 644.418 1.34357 -2.72363 0
M  V30 6691 H 642.003 0.601373 -1.36762 0
M  V30 6692 H 643.885 3.69505 -2.02593 0
M  V30 6693 H 642.56 3.07821 -1.00141 0
M  V30 6694 H 641.467 2.09461 -3.09962 0
M  V30 6695 H 642.8 2.77216 -4.06709 0
M  V30 6696 N 644.452 1.42507 0.673017 0
M  V30 6697 C 645.868 1.25472 0.986355 0
M  V30 6698 C 646.068 0.160181 2.00862 0
M  V30 6699 O 645.124 -0.467993 2.48125 0
M  V30 6700 C 646.437 2.61219 1.48947 0
M  V30 6701 C 647.985 2.68589 1.60715 0
M  V30 6702 C 648.46 4.04707 2.14422 0
M  V30 6703 N 649.951 4.0667 2.21752 0
M  V30 6704 C 650.686 5.0881 2.64386 0
M  V30 6705 N 650.182 6.21332 3.0646 0
M  V30 6706 N 651.975 4.96166 2.64151 0
M  V30 6707 H 644.126 2.124 -0.00378532 0
M  V30 6708 H 646.389 0.946046 0.0608367 0
M  V30 6709 H 646.095 3.42179 0.812812 0
M  V30 6710 H 645.969 2.85261 2.46791 0
M  V30 6711 H 648.356 1.87974 2.27486 0
M  V30 6712 H 648.437 2.48333 0.613552 0
M  V30 6713 H 648.081 4.8578 1.48258 0
M  V30 6714 H 648.011 4.22315 3.14575 0
M  V30 6715 H 650.502 3.25438 1.92089 0
M  V30 6716 H 650.815 6.95118 3.37684 0
M  V30 6717 H 649.16 6.24835 3.04313 0
M  V30 6718 H 652.351 4.07334 2.30644 0
M  V30 6719 H 652.524 5.759 2.97057 0
M  V30 6720 N 645.93 -0.909495 1.28709 0
M  V30 6721 C 647.179 -1.65365 1.15487 0
M  V30 6722 C 647.492 -1.93364 -0.294941 0
M  V30 6723 O 648.698 -2.65905 -0.548338 0
M  V30 6724 C 647.154 -2.97923 2.01916 0
M  V30 6725 C 646.762 -2.77556 3.51663 0
M  V30 6726 C 648.506 -3.75814 1.97393 0
M  V30 6727 C 646.413 -4.0578 4.30229 0
M  V30 6728 H 645.343 -0.620323 0.42862 0
M  V30 6729 H 647.994 -1.00894 1.53273 0
M  V30 6730 H 646.376 -3.63552 1.5699 0
M  V30 6731 H 647.55 -2.2058 4.04575 0
M  V30 6732 H 645.865 -2.13072 3.57756 0
M  V30 6733 H 648.462 -4.70866 2.53357 0
M  V30 6734 H 648.805 -4.05277 0.951643 0
M  V30 6735 H 649.338 -3.1701 2.40311 0
M  V30 6736 H 646.077 -3.81488 5.33055 0
M  V30 6737 H 645.597 -4.62351 3.82089 0
M  V30 6738 H 647.276 -4.74004 4.40374 0
M  V30 6739 N 647.408 -1.11026 -1.11852 0
M  V30 6740 C 648.633 -0.879064 -1.87849 0
M  V30 6741 C 649.058 0.565406 -1.79401 0
M  V30 6742 O 648.416 1.39886 -1.15333 0
M  V30 6743 C 648.464 -1.33985 -3.34784 0
M  V30 6744 O 647.568 -0.508803 -4.09249 0
M  V30 6745 H 646.909 -0.316992 -0.583448 0
M  V30 6746 H 649.439 -1.47863 -1.41413 0
M  V30 6747 H 649.449 -1.33248 -3.85628 0
M  V30 6748 H 648.124 -2.39172 -3.40249 0
M  V30 6749 H 646.701 -0.581913 -3.68332 0
M  V30 6750 N 648.886 1.2938 -0.899927 0
M  V30 6751 C 650.133 1.9555 -0.525963 0
M  V30 6752 C 650.461 1.70945 0.927789 0
M  V30 6753 O 649.716 1.01545 1.67293 0
M  V30 6754 C 650.015 3.49114 -0.765113 0
M  V30 6755 C 649.681 3.93796 -2.19626 0
M  V30 6756 C 648.343 4.05707 -2.58758 0
M  V30 6757 C 650.695 4.16883 -3.12823 0
M  V30 6758 C 648.023 4.38074 -3.90267 0
M  V30 6759 C 650.375 4.50725 -4.4388 0
M  V30 6760 C 649.039 4.60845 -4.82885 0
M  V30 6761 H 648.309 0.715569 -0.192463 0
M  V30 6762 H 650.956 1.53972 -1.13863 0
M  V30 6763 H 649.261 3.91738 -0.069531 0
M  V30 6764 H 650.958 3.98409 -0.455144 0
M  V30 6765 H 647.548 3.85042 -1.88256 0
M  V30 6766 H 651.732 4.07147 -2.83804 0
M  V30 6767 H 646.988 4.44112 -4.20207 0
M  V30 6768 H 651.162 4.67538 -5.16121 0
M  V30 6769 H 648.789 4.85681 -5.84823 0
M  V30 6770 N 650.364 0.662433 1.43002 0
M  V30 6771 C 651.274 -0.0239199 2.34588 0
M  V30 6772 C 652.29 -0.802255 1.54402 0
M  V30 6773 O 653.466 -0.747401 1.87018 0
M  V30 6774 C 650.531 -0.972098 3.32793 0
M  V30 6775 C 649.592 -0.189673 4.28881 0
M  V30 6776 C 648.825 -1.09269 5.22395 0
M  V30 6777 O 649.048 -2.33209 5.20547 0
M  V30 6778 O 647.982 -0.560136 5.99288 0
M  V30 6779 H 651.808 0.730171 2.94792 0
M  V30 6780 H 649.393 0.422635 1.43297 0
M  V30 6781 H 651.275 -1.51676 3.93157 0
M  V30 6782 H 649.95 -1.70626 2.75079 0
M  V30 6783 H 648.857 0.398794 3.71968 0
M  V30 6784 H 650.19 0.50511 4.89601 0
M  V30 6785 N 651.842 -1.52309 0.404946 0
M  V30 6786 C 653.119 -1.94237 -0.230544 0
M  V30 6787 C 653.499 -1.34154 -1.6299 0
M  V30 6788 O 652.847 -0.515713 -2.22604 0
M  V30 6789 C 653.057 -3.48166 -0.241106 0
M  V30 6790 C 654.405 -4.22074 -0.462488 0
M  V30 6791 O 655.429 -3.54754 -0.320644 0
M  V30 6792 O 654.288 -5.41443 -0.741708 0
M  V30 6793 H 651.382 -0.813766 -0.147358 0
M  V30 6794 H 653.928 -1.6333 0.460587 0
M  V30 6795 H 652.7 -3.84269 0.738467 0
M  V30 6796 H 652.323 -3.85422 -0.97651 0
M  V30 6797 N 653.32 -0.135238 -1.57019 0
M  V30 6798 C 654.267 0.808908 -2.1616 0
M  V30 6799 C 655.237 1.25234 -1.09113 0
M  V30 6800 O 656.422 1.32697 -1.37099 0
M  V30 6801 C 653.562 2.04729 -2.77813 0
M  V30 6802 C 652.675 1.65074 -3.99218 0
M  V30 6803 C 651.81 2.84002 -4.48906 0
M  V30 6804 C 650.849 2.40663 -5.62803 0
M  V30 6805 N 649.986 3.5256 -6.07162 0
M  V30 6806 H 654.826 0.297751 -2.96509 0
M  V30 6807 H 652.363 0.135264 -1.46477 0
M  V30 6808 H 654.321 2.7731 -3.11697 0
M  V30 6809 H 652.951 2.53275 -2.00128 0
M  V30 6810 H 652.003 0.823029 -3.7139 0
M  V30 6811 H 653.315 1.29236 -4.81767 0
M  V30 6812 H 652.469 3.64788 -4.84783 0
M  V30 6813 H 651.208 3.23076 -3.65339 0
M  V30 6814 H 650.213 1.58314 -5.26514 0
M  V30 6815 H 651.438 2.02687 -6.48147 0
M  V30 6816 H 649.384 3.91278 -5.26534 0
M  V30 6817 H 649.301 3.20699 -6.84608 0
M  V30 6818 H 650.569 4.33738 -6.47682 0
M  V30 6819 N 654.798 1.5699 0.138552 0
M  V30 6820 C 656.026 1.87976 0.864437 0
M  V30 6821 C 656.441 0.724372 1.74351 0
M  V30 6822 O 655.798 -0.305575 1.79924 0
M  V30 6823 C 655.849 3.18276 1.71414 0
M  V30 6824 O 655.57 4.29365 0.870487 0
M  V30 6825 C 657.071 3.62834 2.54688 0
M  V30 6826 H 654.291 0.622878 0.249528 0
M  V30 6827 H 656.835 2.04094 0.128805 0
M  V30 6828 H 654.99 3.03886 2.40274 0
M  V30 6829 H 655.404 5.03924 1.45466 0
M  V30 6830 H 656.878 4.5682 3.0987 0
M  V30 6831 H 657.355 2.88533 3.31127 0
M  V30 6832 H 657.961 3.79946 1.91105 0
M  V30 6833 N 656.276 -0.40816 1.52223 0
M  V30 6834 C 657.692 -0.74685 1.41047 0
M  V30 6835 C 657.892 -1.94788 0.51573 0
M  V30 6836 O 656.948 -2.52494 -0.0181156 0
M  V30 6837 C 658.261 -0.999878 2.83589 0
M  V30 6838 C 659.809 -1.10253 2.92939 0
M  V30 6839 C 660.284 -1.38832 4.36451 0
M  V30 6840 N 661.775 -1.45694 4.3969 0
M  V30 6841 C 662.51 -1.69435 5.47795 0
M  V30 6842 N 662.006 -1.90774 6.66016 0
M  V30 6843 N 663.799 -1.71458 5.35312 0
M  V30 6844 H 655.95 0.382409 2.08929 0
M  V30 6845 H 658.213 0.108807 0.941735 0
M  V30 6846 H 657.919 -0.189723 3.51188 0
M  V30 6847 H 657.793 -1.91978 3.24691 0
M  V30 6848 H 660.18 -1.90328 2.2552 0
M  V30 6849 H 660.261 -0.160973 2.55293 0
M  V30 6850 H 659.905 -0.592741 5.04429 0
M  V30 6851 H 659.835 -2.34241 4.71634 0
M  V30 6852 H 662.326 -1.3099 3.54472 0
M  V30 6853 H 662.639 -2.08342 7.44186 0
M  V30 6854 H 660.984 -1.88037 6.69079 0
M  V30 6855 H 664.175 -1.54326 4.41929 0
M  V30 6856 H 664.348 -1.89621 6.19635 0
M  V30 6857 N 657.755 -1.42862 -0.66545 0
M  V30 6858 C 658.685 -1.49867 -1.79059 0
M  V30 6859 C 659.666 -0.354394 -1.66367 0
M  V30 6860 O 660.851 -0.569969 -1.85647 0
M  V30 6861 C 657.981 -1.40943 -3.17415 0
M  V30 6862 C 656.935 -2.53495 -3.44854 0
M  V30 6863 C 656.261 -2.29626 -4.82883 0
M  V30 6864 C 657.561 -3.95781 -3.40815 0
M  V30 6865 H 659.255 -2.44037 -1.73453 0
M  V30 6866 H 656.801 -1.17456 -0.833071 0
M  V30 6867 H 658.754 -1.4445 -3.95869 0
M  V30 6868 H 657.478 -0.432716 -3.23721 0
M  V30 6869 H 656.137 -2.4932 -2.68766 0
M  V30 6870 H 655.785 -1.30226 -4.8585 0
M  V30 6871 H 655.485 -3.05065 -5.02204 0
M  V30 6872 H 657.009 -2.34897 -5.63609 0
M  V30 6873 H 658.423 -4.01508 -4.09224 0
M  V30 6874 H 656.82 -4.71148 -3.71672 0
M  V30 6875 H 657.89 -4.21786 -2.39216 0
M  V30 6876 N 659.233 0.902656 -1.29189 0
M  V30 6877 C 660.479 1.65532 -1.17163 0
M  V30 6878 C 660.812 1.92216 0.276879 0
M  V30 6879 O 660.087 1.53048 1.20027 0
M  V30 6880 C 660.37 3.00629 -1.98228 0
M  V30 6881 C 660.223 2.81029 -3.51202 0
M  V30 6882 C 661.542 4.01321 -1.80635 0
M  V30 6883 H 658.661 0.60071 -0.426985 0
M  V30 6884 H 661.303 1.04578 -1.5863 0
M  V30 6885 H 659.453 3.52656 -1.62991 0
M  V30 6886 H 661.125 2.35927 -3.96404 0
M  V30 6887 H 659.368 2.1587 -3.76275 0
M  V30 6888 H 660.039 3.77014 -4.03192 0
M  V30 6889 H 662.515 3.58394 -2.11406 0
M  V30 6890 H 661.391 4.93792 -2.3971 0
M  V30 6891 H 661.652 4.35505 -0.760754 0
M  V30 6892 N 660.711 1.11618 1.11262 0
M  V30 6893 C 661.988 0.777876 1.79467 0
M  V30 6894 C 662.368 -0.733774 1.97937 0
M  V30 6895 O 661.716 -1.66443 1.56554 0
M  V30 6896 C 661.926 1.5431 3.13032 0
M  V30 6897 C 663.274 1.72357 3.88044 0
M  V30 6898 O 664.298 1.5075 3.22727 0
M  V30 6899 O 663.157 2.08276 5.05256 0
M  V30 6900 H 660.251 0.282018 0.777428 0
M  V30 6901 H 662.797 1.21971 1.17988 0
M  V30 6902 H 661.569 2.57132 2.94956 0
M  V30 6903 H 661.192 1.09495 3.82226 0
M  V30 6904 N 662.189 -1.289 0.906776 0
M  V30 6905 C 663.435 -1.95558 0.53712 0
M  V30 6906 C 663.768 -1.71262 -0.915582 0
M  V30 6907 O 663.043 -1.02961 -1.65013 0
M  V30 6908 C 663.326 -3.50198 0.838645 0
M  V30 6909 C 663.179 -3.83923 2.34357 0
M  V30 6910 C 664.498 -4.38861 0.329988 0
M  V30 6911 H 661.617 -0.710289 0.196617 0
M  V30 6912 H 664.259 -1.52392 1.13475 0
M  V30 6913 H 662.409 -3.87096 0.330024 0
M  V30 6914 H 664.081 -3.56933 2.92227 0
M  V30 6915 H 662.324 -3.31215 2.80141 0
M  V30 6916 H 662.995 -4.91883 2.5051 0
M  V30 6917 H 665.471 -4.08996 0.765609 0
M  V30 6918 H 664.347 -5.45931 0.570105 0
M  V30 6919 H 664.608 -4.35352 -0.769511 0
M  V30 6920 N 663.667 -0.670007 -1.42649 0
M  V30 6921 C 665.078 -0.268118 -1.84765 0
M  V30 6922 C 665.429 1.18877 -1.56086 0
M  V30 6923 O 664.554 1.90947 -1.01825 0
M  V30 6924 C 665.149 -0.47984 -3.35385 0
M  V30 6925 C 663.708 -0.132116 -3.76168 0
M  V30 6926 C 662.855 -0.774611 -2.66261 0
M  V30 6927 H 665.806 -0.872509 -1.32563 0
M  V30 6928 H 665.827 0.269522 -3.79544 0
M  V30 6929 H 665.339 -1.54026 -3.56227 0
M  V30 6930 H 663.44 0.92505 -3.60934 0
M  V30 6931 H 663.553 -0.569294 -4.75706 0
M  V30 6932 H 661.917 -0.206353 -2.53863 0
M  V30 6933 H 662.7 -1.83839 -2.89928 0
M  V30 6934 N 665.145 1.52092 -0.413018 0
M  V30 6935 C 666.556 1.86617 0.0556967 0
M  V30 6936 C 666.907 1.33156 1.44097 0
M  V30 6937 O 666.032 0.672417 2.05688 0
M  V30 6938 C 666.627 3.38628 0.107844 0
M  V30 6939 C 665.186 3.72778 0.520904 0
M  V30 6940 C 664.333 2.75649 -0.302109 0
M  V30 6941 H 667.284 1.45663 -0.629919 0
M  V30 6942 H 667.305 3.69152 0.922324 0
M  V30 6943 H 666.817 3.77508 -0.900506 0
M  V30 6944 H 664.918 3.39478 1.53575 0
M  V30 6945 H 665.031 4.7838 0.262591 0
M  V30 6946 H 663.395 2.53603 0.236115 0
M  V30 6947 H 664.178 3.17369 -1.30888 0
M  V30 6948 N 666.623 0.143563 1.56945 0
M  V30 6949 C 667.586 -0.783295 2.154 0
M  V30 6950 C 668.586 -1.17763 1.09492 0
M  V30 6951 O 669.776 -1.09912 1.35148 0
M  V30 6952 C 666.908 -2.06248 2.7143 0
M  V30 6953 H 668.101 -0.274863 2.98638 0
M  V30 6954 H 665.654 -0.105859 1.55941 0
M  V30 6955 H 666.389 -2.61466 1.91849 0
M  V30 6956 H 666.174 -1.78897 3.4891 0
M  V30 6957 H 667.664 -2.72453 3.16479 0
M  V30 6958 N 668.101 -1.57061 -0.130224 0
M  V30 6959 C 669.011 -2.02802 -1.17934 0
M  V30 6960 C 670.027 -0.946378 -1.46013 0
M  V30 6961 O 671.203 -1.25708 -1.57351 0
M  V30 6962 C 668.268 -2.41368 -2.48882 0
M  V30 6963 C 667.329 -3.63561 -2.28301 0
M  V30 6964 C 666.562 -4.00279 -3.53005 0
M  V30 6965 O 666.785 -3.37463 -4.59864 0
M  V30 6966 O 665.719 -4.93441 -3.44673 0
M  V30 6967 H 669.545 -2.92394 -0.820958 0
M  V30 6968 H 667.13 -1.45475 -0.340197 0
M  V30 6969 H 669.012 -2.66958 -3.26054 0
M  V30 6970 H 667.687 -1.54926 -2.84217 0
M  V30 6971 H 666.594 -3.43136 -1.49025 0
M  V30 6972 H 667.927 -4.50673 -1.97875 0
M  V30 6973 N 669.579 0.400081 -1.52437 0
M  V30 6974 C 670.995 0.739359 -1.41441 0
M  V30 6975 C 671.195 1.94512 -0.526053 0
M  V30 6976 O 670.251 2.525 0.00472502 0
M  V30 6977 C 671.564 0.984824 -2.84116 0
M  V30 6978 C 673.112 1.08698 -2.93519 0
M  V30 6979 C 673.587 1.36515 -4.37181 0
M  V30 6980 N 675.078 1.43361 -4.40457 0
M  V30 6981 C 675.813 1.66528 -5.48686 0
M  V30 6982 N 675.309 1.87239 -6.67018 0
M  V30 6983 N 677.102 1.68617 -5.36213 0
M  V30 6984 H 669.253 -0.393484 -2.08723 0
M  V30 6985 H 671.516 -0.1138 -0.941145 0
M  V30 6986 H 671.222 0.171096 -3.51284 0
M  V30 6987 H 671.096 1.90253 -3.25705 0
M  V30 6988 H 673.483 1.89129 -2.26526 0
M  V30 6989 H 673.564 0.147432 -2.55375 0
M  V30 6990 H 673.208 0.565982 -5.04737 0
M  V30 6991 H 673.138 2.31737 -4.7287 0
M  V30 6992 H 675.629 1.29108 -3.55161 0
M  V30 6993 H 675.942 2.04392 -7.45281 0
M  V30 6994 H 674.287 1.84486 -6.70067 0
M  V30 6995 H 677.478 1.5198 -4.42741 0
M  V30 6996 H 677.651 1.86332 -6.20632 0
M  V30 6997 N 671.057 1.43213 0.657864 0
M  V30 6998 C 672.303 1.45795 1.41829 0
M  V30 6999 C 672.658 0.0792176 1.92237 0
M  V30 7000 O 671.951 -0.901406 1.69072 0
M  V30 7001 C 672.145 2.43143 2.61947 0
M  V30 7002 C 671.974 3.90345 2.23295 0
M  V30 7003 C 670.744 4.58749 2.11843 0
M  V30 7004 C 672.942 4.80308 1.83873 0
M  V30 7005 N 670.924 5.90898 1.66473 0
M  V30 7006 C 672.295 6.01693 1.49549 0
M  V30 7007 C 674.35 4.67609 1.71015 0
M  V30 7008 C 673.053 7.11792 1.03657 0
M  V30 7009 C 675.079 5.77707 1.26527 0
M  V30 7010 C 674.441 6.98215 0.931379 0
M  V30 7011 H 670.54 0.588628 0.514822 0
M  V30 7012 H 673.124 1.7936 0.7575 0
M  V30 7013 H 671.295 2.11612 3.25692 0
M  V30 7014 H 673.027 2.36193 3.28626 0
M  V30 7015 H 669.782 4.1319 2.31453 0
M  V30 7016 H 670.206 6.61034 1.46163 0
M  V30 7017 H 674.848 3.74902 1.95469 0
M  V30 7018 H 672.566 8.04332 0.779502 0
M  V30 7019 H 676.152 5.69899 1.17074 0
M  V30 7020 H 675.032 7.81959 0.592379 0
M  V30 7021 N 672.536 -0.895792 1.29666 0
M  V30 7022 C 673.764 -1.68001 1.20761 0
M  V30 7023 C 674.179 -1.87379 -0.231187 0
M  V30 7024 O 673.536 -1.41359 -1.15429 0
M  V30 7025 C 673.587 -3.06236 1.92098 0
M  V30 7026 O 673.308 -2.8774 3.30359 0
M  V30 7027 C 674.809 -4.00652 1.89717 0
M  V30 7028 H 672.029 -0.524591 0.418384 0
M  V30 7029 H 674.573 -1.11995 1.71106 0
M  V30 7030 H 672.728 -3.59007 1.45578 0
M  V30 7031 H 673.142 -3.75359 3.66342 0
M  V30 7032 H 674.616 -4.95051 2.44189 0
M  V30 7033 H 675.093 -4.30424 0.873595 0
M  V30 7034 H 675.699 -3.53815 2.35998 0
M  V30 7035 N 674.014 -1.12206 -1.10668 0
M  V30 7036 C 674.961 -0.787716 -2.16942 0
M  V30 7037 C 675.931 0.244442 -1.64291 0
M  V30 7038 O 677.116 0.119558 -1.90425 0
M  V30 7039 C 674.256 -0.24584 -3.44223 0
M  V30 7040 C 673.369 -1.33552 -4.10838 0
M  V30 7041 C 672.504 -0.753337 -5.25831 0
M  V30 7042 C 671.543 -1.82231 -5.84344 0
M  V30 7043 N 670.68 -1.25902 -6.90719 0
M  V30 7044 H 675.52 -1.69809 -2.44885 0
M  V30 7045 H 673.057 -0.847862 -1.20207 0
M  V30 7046 H 675.015 0.0863639 -4.17111 0
M  V30 7047 H 673.645 0.627702 -3.16638 0
M  V30 7048 H 672.697 -1.78454 -3.35944 0
M  V30 7049 H 674.009 -2.14396 -4.50373 0
M  V30 7050 H 673.163 -0.37166 -6.05561 0
M  V30 7051 H 671.902 0.0863297 -4.87624 0
M  V30 7052 H 670.907 -2.2132 -5.03287 0
M  V30 7053 H 672.132 -2.66515 -6.24617 0
M  V30 7054 H 670.078 -0.44114 -6.54515 0
M  V30 7055 H 669.995 -2.00408 -7.28953 0
M  V30 7056 H 671.263 -0.904498 -7.74235 0
M  V30 7057 N 675.492 1.28418 -0.913599 0
M  V30 7058 C 676.422 2.29713 -0.418847 0
M  V30 7059 C 677.403 1.62165 0.513469 0
M  V30 7060 O 678.588 1.89576 0.421235 0
M  V30 7061 C 675.718 3.45612 0.342042 0
M  V30 7062 C 674.672 4.25056 -0.501123 0
M  V30 7063 C 673.998 5.3329 0.388097 0
M  V30 7064 C 675.298 4.91814 -1.75831 0
M  V30 7065 H 676.992 2.71346 -1.26538 0
M  V30 7066 H 674.538 1.30446 -0.609903 0
M  V30 7067 H 676.491 4.15562 0.699 0
M  V30 7068 H 675.215 3.02858 1.22248 0
M  V30 7069 H 673.874 3.56833 -0.840598 0
M  V30 7070 H 673.522 4.8678 1.26707 0
M  V30 7071 H 673.222 5.87347 -0.172459 0
M  V30 7072 H 674.746 6.06088 0.74094 0
M  V30 7073 H 676.16 5.54126 -1.47026 0
M  V30 7074 H 674.557 5.55866 -2.26126 0
M  V30 7075 H 675.627 4.16313 -2.4862 0
M  V30 7076 N 676.97 0.677563 1.42291 0
M  V30 7077 C 677.917 0.000947061 2.308 0
M  V30 7078 C 678.887 -0.789889 1.46116 0
M  V30 7079 O 680.072 -0.761578 1.74942 0
M  V30 7080 C 677.212 -0.942387 3.31984 0
M  V30 7081 C 676.325 -0.14508 4.31756 0
M  V30 7082 C 675.46 -1.08442 5.20013 0
M  V30 7083 C 674.499 -0.278958 6.11464 0
M  V30 7084 N 673.636 -1.17115 6.92263 0
M  V30 7085 H 678.476 0.761521 2.88106 0
M  V30 7086 H 676.013 0.38727 1.41911 0
M  V30 7087 H 677.971 -1.50317 3.89179 0
M  V30 7088 H 676.601 -1.66956 2.76271 0
M  V30 7089 H 675.653 0.532368 3.76656 0
M  V30 7090 H 676.965 0.48015 4.96484 0
M  V30 7091 H 676.119 -1.71504 5.81955 0
M  V30 7092 H 674.858 -1.74353 4.55469 0
M  V30 7093 H 673.863 0.364856 5.48588 0
M  V30 7094 H 675.088 0.376099 6.78058 0
M  V30 7095 H 673.034 -1.81661 6.30345 0
M  V30 7096 H 672.951 -0.601063 7.53607 0
M  V30 7097 H 674.219 -1.78915 7.58689 0
M  V30 7098 N 678.448 -1.51871 0.421078 0
M  V30 7099 C 679.725 -1.9447 -0.20993 0
M  V30 7100 C 680.105 -1.35875 -1.61558 0
M  V30 7101 O 679.453 -0.539294 -2.22045 0
M  V30 7102 C 679.663 -3.48402 -0.204165 0
M  V30 7103 C 681.011 -4.2254 -0.417696 0
M  V30 7104 O 682.035 -3.55074 -0.282999 0
M  V30 7105 O 680.894 -5.422 -0.684239 0
M  V30 7106 H 677.988 -0.815283 -0.138718 0
M  V30 7107 H 680.534 -1.62832 0.477884 0
M  V30 7108 H 679.306 -3.83464 0.779183 0
M  V30 7109 H 678.929 -3.86436 -0.935576 0
M  V30 7110 N 679.926 -0.151884 -1.56866 0
M  V30 7111 C 681.172 0.498742 -1.96572 0
M  V30 7112 C 681.505 1.64194 -1.03702 0
M  V30 7113 O 680.78 1.94334 -0.0803432 0
M  V30 7114 C 681.063 1.00027 -3.45929 0
M  V30 7115 C 680.916 -0.141767 -4.49577 0
M  V30 7116 C 682.235 1.88044 -3.97904 0
M  V30 7117 H 679.354 0.17982 -0.714726 0
M  V30 7118 H 681.996 -0.234097 -1.88552 0
M  V30 7119 H 680.146 1.62476 -3.52894 0
M  V30 7120 H 681.818 -0.778269 -4.54687 0
M  V30 7121 H 680.061 -0.80019 -4.26356 0
M  V30 7122 H 680.732 0.250947 -5.51429 0
M  V30 7123 H 683.208 1.35416 -3.93449 0
M  V30 7124 H 682.084 2.20043 -5.02864 0
M  V30 7125 H 682.345 2.81916 -3.40552 0
M  V30 7126 N 681.404 1.57128 0.121893 0
M  V30 7127 C 682.681 1.75664 0.860327 0
M  V30 7128 C 683.061 0.726585 1.98202 0
M  V30 7129 O 682.409 -0.24999 2.27128 0
M  V30 7130 C 682.619 3.20571 1.37968 0
M  V30 7131 C 683.967 3.82988 1.83317 0
M  V30 7132 O 684.991 3.24156 1.47654 0
M  V30 7133 O 683.85 4.86393 2.49168 0
M  V30 7134 H 680.944 0.719153 0.408348 0
M  V30 7135 H 683.49 1.6937 0.105859 0
M  V30 7136 H 682.262 3.87056 0.57477 0
M  V30 7137 H 681.885 3.31392 2.19694 0
M  V30 7138 N 682.882 -0.391992 1.52647 0
M  V30 7139 C 684.128 -1.13563 1.68745 0
M  V30 7140 C 684.483 -1.87745 0.420685 0
M  V30 7141 O 683.776 -1.82434 -0.585529 0
M  V30 7142 C 683.97 -2.14401 2.85949 0
M  V30 7143 C 683.799 -1.50124 4.23902 0
M  V30 7144 C 682.569 -1.2666 4.89168 0
M  V30 7145 C 684.767 -0.952933 5.05395 0
M  V30 7146 N 682.749 -0.584555 6.11111 0
M  V30 7147 C 684.12 -0.398784 6.18716 0
M  V30 7148 C 686.175 -0.849053 4.90607 0
M  V30 7149 C 684.878 0.249084 7.18869 0
M  V30 7150 C 686.904 -0.215011 5.91009 0
M  V30 7151 C 686.266 0.328382 7.03634 0
M  V30 7152 H 682.365 -0.401628 0.670984 0
M  V30 7153 H 684.949 -0.425585 1.89992 0
M  V30 7154 H 683.12 -2.82746 2.66288 0
M  V30 7155 H 684.852 -2.8125 2.90999 0
M  V30 7156 H 681.607 -1.54078 4.47836 0
M  V30 7157 H 682.031 -0.259663 6.76502 0
M  V30 7158 H 686.673 -1.25497 4.03745 0
M  V30 7159 H 684.391 0.667019 8.05342 0
M  V30 7160 H 687.977 -0.135921 5.81641 0
M  V30 7161 H 686.857 0.811257 7.79992 0
M  V30 7162 N 684.36 -1.4356 -0.65026 0
M  V30 7163 C 685.307 -1.48948 -1.76304 0
M  V30 7164 C 686.277 -0.338919 -1.62605 0
M  V30 7165 O 687.462 -0.54649 -1.82806 0
M  V30 7166 C 684.602 -1.42131 -3.14472 0
M  V30 7167 C 683.715 -2.67415 -3.39284 0
M  V30 7168 C 682.85 -2.52565 -4.67316 0
M  V30 7169 C 681.889 -3.73103 -4.85243 0
M  V30 7170 N 681.026 -3.57046 -6.04535 0
M  V30 7171 H 685.866 -2.44032 -1.71034 0
M  V30 7172 H 683.403 -1.21131 -0.834601 0
M  V30 7173 H 685.361 -1.36172 -3.94351 0
M  V30 7174 H 683.991 -0.506273 -3.18805 0
M  V30 7175 H 683.043 -2.8364 -2.53481 0
M  V30 7176 H 684.355 -3.56943 -3.48415 0
M  V30 7177 H 683.509 -2.44331 -5.55326 0
M  V30 7178 H 682.248 -1.60566 -4.60511 0
M  V30 7179 H 681.253 -3.81743 -3.95667 0
M  V30 7180 H 682.478 -4.66115 -4.93876 0
M  V30 7181 H 680.424 -2.67783 -5.98856 0
M  V30 7182 H 680.341 -4.40178 -6.14638 0
M  V30 7183 H 681.609 -3.52669 -6.95158 0
M  V30 7184 N 685.838 0.888903 -1.30139 0
M  V30 7185 C 686.785 1.99422 -1.16188 0
M  V30 7186 C 687.755 1.66017 -0.0523869 0
M  V30 7187 O 688.94 1.89506 -0.221864 0
M  V30 7188 C 686.08 3.34325 -0.855612 0
M  V30 7189 C 685.193 3.80445 -2.0466 0
M  V30 7190 C 684.328 5.03975 -1.67876 0
M  V30 7191 C 683.367 5.42492 -2.83493 0
M  V30 7192 N 682.504 6.57206 -2.47032 0
M  V30 7193 H 687.344 2.10687 -2.10749 0
M  V30 7194 H 684.881 1.03165 -1.04859 0
M  V30 7195 H 686.839 4.11968 -0.658681 0
M  V30 7196 H 685.469 3.22756 0.0531155 0
M  V30 7197 H 684.521 2.98745 -2.3549 0
M  V30 7198 H 685.833 4.04933 -2.91257 0
M  V30 7199 H 684.987 5.89232 -1.44535 0
M  V30 7200 H 683.726 4.8135 -0.784431 0
M  V30 7201 H 682.731 4.55764 -3.07505 0
M  V30 7202 H 683.956 5.67093 -3.73607 0
M  V30 7203 H 681.902 6.36164 -1.601 0
M  V30 7204 H 681.819 6.81543 -3.27161 0
M  V30 7205 H 683.087 7.45704 -2.27038 0
M  V30 7206 N 687.317 1.12792 1.10072 0
M  V30 7207 C 688.28 0.802264 2.14701 0
M  V30 7208 C 689.28 -0.18515 1.59731 0
M  V30 7209 O 690.47 0.041109 1.74151 0
M  V30 7210 C 687.602 0.19285 3.40354 0
M  V30 7211 H 688.795 1.72932 2.45019 0
M  V30 7212 H 686.348 0.931662 1.25498 0
M  V30 7213 H 687.083 -0.743748 3.15656 0
M  V30 7214 H 686.868 0.903827 3.81541 0
M  V30 7215 H 688.358 -0.0183704 4.17596 0
M  V30 7216 N 688.795 -1.27931 0.920396 0
M  V30 7217 C 690.042 -1.94689 0.557007 0
M  V30 7218 C 690.37 -1.724 -0.900476 0
M  V30 7219 O 689.625 -1.04194 -1.65657 0
M  V30 7220 C 689.924 -3.47853 0.820558 0
M  V30 7221 C 689.59 -3.90252 2.25863 0
M  V30 7222 C 688.252 -4.01539 2.65179 0
M  V30 7223 C 690.604 -4.11853 3.19415 0
M  V30 7224 C 687.932 -4.3181 3.97187 0
M  V30 7225 C 690.284 -4.43606 4.50995 0
M  V30 7226 C 688.948 -4.53105 4.90155 0
M  V30 7227 H 688.218 -0.712416 0.203823 0
M  V30 7228 H 690.865 -1.52142 1.16298 0
M  V30 7229 H 689.17 -3.91578 0.131844 0
M  V30 7230 H 690.867 -3.97634 0.51847 0
M  V30 7231 H 687.457 -3.81999 1.94358 0
M  V30 7232 H 691.641 -4.0258 2.90246 0
M  V30 7233 H 686.897 -4.37371 4.2722 0
M  V30 7234 H 691.071 -4.59268 5.23494 0
M  V30 7235 H 688.698 -4.76315 5.92476 0
M  V30 7236 N 690.273 -0.685099 -1.4193 0
M  V30 7237 C 691.52 -0.211658 -2.01391 0
M  V30 7238 C 691.848 1.18526 -1.54214 0
M  V30 7239 O 691.103 1.81189 -0.739519 0
M  V30 7240 C 691.402 -0.206154 -3.56805 0
M  V30 7241 C 691.068 -1.54915 -4.23453 0
M  V30 7242 C 689.73 -1.91684 -4.41373 0
M  V30 7243 C 692.082 -2.43317 -4.60919 0
M  V30 7244 C 689.41 -3.16461 -4.94034 0
M  V30 7245 C 691.762 -3.67415 -5.14965 0
M  V30 7246 C 690.426 -4.04341 -5.31098 0
M  V30 7247 H 689.696 -0.0774511 -0.736941 0
M  V30 7248 H 692.343 -0.882121 -1.69973 0
M  V30 7249 H 690.648 0.547841 -3.87951 0
M  V30 7250 H 692.345 0.17753 -4.00607 0
M  V30 7251 H 688.935 -1.25314 -4.09871 0
M  V30 7252 H 693.119 -2.16192 -4.46738 0
M  V30 7253 H 688.375 -3.45078 -5.04709 0
M  V30 7254 H 692.549 -4.3611 -5.42938 0
M  V30 7255 H 690.176 -5.01101 -5.71666 0
M  V30 7256 N 691.751 1.51645 -0.429126 0
M  V30 7257 C 692.698 2.27542 0.386446 0
M  V30 7258 C 693.668 1.30786 1.02393 0
M  V30 7259 O 694.853 1.59678 1.0444 0
M  V30 7260 C 691.993 3.11457 1.48623 0
M  V30 7261 C 691.106 4.23196 0.867691 0
M  V30 7262 C 690.241 4.94435 1.94183 0
M  V30 7263 C 689.28 5.98108 1.30129 0
M  V30 7264 N 688.417 6.62786 2.31644 0
M  V30 7265 H 693.257 2.968 -0.267155 0
M  V30 7266 H 690.794 1.46397 -0.143591 0
M  V30 7267 H 692.752 3.58429 2.13506 0
M  V30 7268 H 691.382 2.44329 2.10957 0
M  V30 7269 H 690.434 3.80248 0.107373 0
M  V30 7270 H 691.746 4.97499 0.35997 0
M  V30 7271 H 690.9 5.44914 2.66747 0
M  V30 7272 H 689.639 4.19744 2.48326 0
M  V30 7273 H 688.644 5.4693 0.561082 0
M  V30 7274 H 689.869 6.74751 0.767303 0
M  V30 7275 H 687.815 5.90913 2.84883 0
M  V30 7276 H 687.732 7.32828 1.85741 0
M  V30 7277 H 689 7.17897 3.03717 0
M  V30 7278 N 693.229 0.160201 1.56784 0
M  V30 7279 C 694.457 -0.494165 2.00912 0
M  V30 7280 C 694.872 -1.57548 1.04038 0
M  V30 7281 O 694.229 -1.82457 0.0394581 0
M  V30 7282 C 694.28 -1.08271 3.44905 0
M  V30 7283 O 694.001 -0.0445704 4.38077 0
M  V30 7284 C 695.502 -1.8164 4.04378 0
M  V30 7285 H 692.722 -0.127498 0.658776 0
M  V30 7286 H 695.266 0.258665 2.02858 0
M  V30 7287 H 693.421 -1.78609 3.4377 0
M  V30 7288 H 693.835 -0.477544 5.22322 0
M  V30 7289 H 695.309 -2.18094 5.07089 0
M  V30 7290 H 695.786 -2.70727 3.45838 0
M  V30 7291 H 696.392 -1.15969 4.09184 0
M  V30 7292 N 694.707 -1.5719 -0.113559 0
M  V30 7293 C 695.937 -1.89053 -0.833212 0
M  V30 7294 C 696.345 -0.750139 -1.73694 0
M  V30 7295 O 695.688 0.287808 -1.81431 0
M  V30 7296 C 695.75 -3.15986 -1.71443 0
M  V30 7297 C 695.414 -4.46271 -0.984449 0
M  V30 7298 C 696.411 -5.18897 -0.322741 0
M  V30 7299 C 694.096 -4.92963 -0.964011 0
M  V30 7300 C 696.09 -6.3644 0.349646 0
M  V30 7301 C 693.777 -6.10422 -0.287828 0
M  V30 7302 C 694.775 -6.82009 0.36784 0
M  V30 7303 O 694.463 -7.97233 1.03322 0
M  V30 7304 H 694.195 -0.630225 -0.244526 0
M  V30 7305 H 696.749 -2.05152 -0.100847 0
M  V30 7306 H 694.979 -2.95984 -2.48858 0
M  V30 7307 H 696.668 -3.33826 -2.309 0
M  V30 7308 H 697.434 -4.83875 -0.330114 0
M  V30 7309 H 693.313 -4.37143 -1.46379 0
M  V30 7310 H 696.857 -6.92254 0.861996 0
M  V30 7311 H 692.754 -6.449 -0.278237 0
M  V30 7312 H 693.522 -8.13105 0.938247 0
M  V30 7313 N 696.185 0.383891 -1.52853 0
M  V30 7314 C 697.601 0.724316 -1.42218 0
M  V30 7315 C 697.801 1.93943 -0.546654 0
M  V30 7316 O 696.857 2.5249 -0.0220562 0
M  V30 7317 C 698.17 0.954635 -2.85144 0
M  V30 7318 C 699.718 1.05579 -2.94656 0
M  V30 7319 C 700.193 1.3187 -4.38605 0
M  V30 7320 N 701.684 1.38681 -4.41952 0
M  V30 7321 C 702.419 1.60699 -5.50421 0
M  V30 7322 N 701.915 1.80154 -6.68967 0
M  V30 7323 N 703.708 1.6292 -5.37972 0
M  V30 7324 H 695.859 -0.4156 -2.08294 0
M  V30 7325 H 698.122 -0.123776 -0.939885 0
M  V30 7326 H 697.828 0.133829 -3.51445 0
M  V30 7327 H 697.702 1.86788 -3.27704 0
M  V30 7328 H 700.089 1.86716 -2.2852 0
M  V30 7329 H 700.17 0.120338 -2.55517 0
M  V30 7330 H 699.814 0.512416 -5.05309 0
M  V30 7331 H 699.744 2.26708 -4.75301 0
M  V30 7332 H 702.235 1.25334 -3.56511 0
M  V30 7333 H 702.548 1.96476 -7.47407 0
M  V30 7334 H 700.893 1.77368 -6.71986 0
M  V30 7335 H 704.084 1.47276 -4.44328 0
M  V30 7336 H 704.257 1.79739 -6.22574 0
M  V30 7337 N 697.663 1.43903 0.642637 0
M  V30 7338 C 698.573 1.52349 1.78401 0
M  V30 7339 C 699.589 0.409869 1.69104 0
M  V30 7340 O 700.765 0.665548 1.90085 0
M  V30 7341 C 697.83 1.45408 3.14734 0
M  V30 7342 C 696.891 2.67528 3.35749 0
M  V30 7343 C 696.124 2.60909 4.65577 0
M  V30 7344 O 696.347 1.6627 5.45628 0
M  V30 7345 O 695.281 3.5158 4.88544 0
M  V30 7346 H 699.107 2.48752 1.7423 0
M  V30 7347 H 696.692 1.26021 0.802439 0
M  V30 7348 H 698.574 1.44019 3.96026 0
M  V30 7349 H 697.249 0.521437 3.19473 0
M  V30 7350 H 696.156 2.74487 2.5418 0
M  V30 7351 H 697.489 3.598 3.35864 0
M  V30 7352 N 699.141 -0.881989 1.30609 0
M  V30 7353 C 700.369 -1.66711 1.22536 0
M  V30 7354 C 700.784 -1.87614 -0.2113 0
M  V30 7355 O 700.141 -1.42576 -1.13923 0
M  V30 7356 C 700.192 -3.04182 1.95335 0
M  V30 7357 O 699.913 -2.8422 3.33393 0
M  V30 7358 C 701.414 -3.98617 1.93956 0
M  V30 7359 H 698.634 -0.520124 0.423925 0
M  V30 7360 H 701.178 -1.10174 1.72285 0
M  V30 7361 H 699.333 -3.57442 1.49378 0
M  V30 7362 H 699.747 -3.71452 3.70302 0
M  V30 7363 H 701.221 -4.92433 2.49426 0
M  V30 7364 H 701.698 -4.29473 0.919198 0
M  V30 7365 H 702.304 -3.51292 2.39738 0
M  V30 7366 N 700.619 -1.13374 -1.09472 0
M  V30 7367 C 702.035 -0.871846 -1.33682 0
M  V30 7368 C 702.235 0.492847 -1.9538 0
M  V30 7369 O 701.291 1.23946 -2.19985 0
M  V30 7370 C 702.604 -1.99608 -2.24893 0
M  V30 7371 C 704.152 -2.02812 -2.38404 0
M  V30 7372 C 704.627 -3.14497 -3.3295 0
M  V30 7373 N 706.118 -3.14004 -3.40523 0
M  V30 7374 C 706.853 -3.97061 -4.13679 0
M  V30 7375 N 706.349 -4.90131 -4.89636 0
M  V30 7376 N 708.142 -3.85162 -4.09398 0
M  V30 7377 H 700.293 -2.01288 -0.677995 0
M  V30 7378 H 702.556 -0.876492 -0.361201 0
M  V30 7379 H 702.262 -2.98 -1.86786 0
M  V30 7380 H 702.136 -1.90981 -3.25278 0
M  V30 7381 H 704.523 -1.05034 -2.75775 0
M  V30 7382 H 704.604 -2.15511 -1.37799 0
M  V30 7383 H 704.248 -4.12514 -2.96302 0
M  V30 7384 H 704.178 -2.99035 -4.33458 0
M  V30 7385 H 706.669 -2.46587 -2.86362 0
M  V30 7386 H 706.982 -5.49996 -5.42885 0
M  V30 7387 H 705.327 -4.94138 -4.88726 0
M  V30 7388 H 708.518 -3.11779 -3.49158 0
M  V30 7389 H 708.691 -4.5012 -4.6615 0
M  V30 7390 N 702.098 1.27442 -0.927168 0
M  V30 7391 C 703.323 1.99036 -0.583042 0
M  V30 7392 C 703.748 1.68711 0.83176 0
M  V30 7393 O 703.106 0.927081 1.55804 0
M  V30 7394 C 703.154 3.51271 -0.814925 0
M  V30 7395 O 702.258 4.12226 0.119742 0
M  V30 7396 H 701.599 0.624883 -0.224538 0
M  V30 7397 H 704.129 1.62263 -1.24628 0
M  V30 7398 H 704.139 4.01411 -0.730282 0
M  V30 7399 H 702.814 3.72676 -1.84623 0
M  V30 7400 H 701.391 3.72897 -0.0147688 0
M  V30 7401 N 703.576 0.692616 1.41565 0
M  V30 7402 C 704.822 0.231408 2.02079 0
M  V30 7403 C 705.177 -1.15514 1.53864 0
M  V30 7404 O 704.47 -1.76786 0.73873 0
M  V30 7405 C 704.664 0.225073 3.56691 0
M  V30 7406 C 704.493 1.60947 4.19912 0
M  V30 7407 C 703.263 2.2116 4.54331 0
M  V30 7408 C 705.461 2.55553 4.46315 0
M  V30 7409 N 703.443 3.52195 5.02824 0
M  V30 7410 C 704.814 3.71263 4.96552 0
M  V30 7411 C 706.869 2.53857 4.28323 0
M  V30 7412 C 705.572 4.85555 5.30687 0
M  V30 7413 C 707.598 3.67259 4.63546 0
M  V30 7414 C 706.96 4.81699 5.13951 0
M  V30 7415 H 703.059 0.130001 0.771119 0
M  V30 7416 H 705.643 0.909459 1.72154 0
M  V30 7417 H 703.814 -0.422453 3.86096 0
M  V30 7418 H 705.546 -0.250685 4.03923 0
M  V30 7419 H 702.301 1.73474 4.40685 0
M  V30 7420 H 702.725 4.19354 5.3148 0
M  V30 7421 H 707.367 1.66598 3.88594 0
M  V30 7422 H 705.085 5.73477 5.69341 0
M  V30 7423 H 708.671 3.67195 4.51286 0
M  V30 7424 H 707.551 5.67995 5.40695 0
M  V30 7425 N 705.054 -1.51416 0.437162 0
M  V30 7426 C 706.301 -2.02086 -0.129364 0
M  V30 7427 C 706.629 -1.32133 -1.42728 0
M  V30 7428 O 705.884 -0.424916 -1.91031 0
M  V30 7429 C 706.183 -3.55203 -0.39564 0
M  V30 7430 C 705.849 -4.43447 0.81644 0
M  V30 7431 C 704.511 -4.67285 1.14884 0
M  V30 7432 C 706.863 -4.95219 1.62503 0
M  V30 7433 C 704.191 -5.40141 2.29052 0
M  V30 7434 C 706.543 -5.69327 2.7577 0
M  V30 7435 C 705.207 -5.91429 3.09464 0
M  V30 7436 H 704.477 -0.739486 -0.0473375 0
M  V30 7437 H 707.124 -1.82368 0.584321 0
M  V30 7438 H 705.429 -3.73252 -1.19121 0
M  V30 7439 H 707.126 -3.91944 -0.847399 0
M  V30 7440 H 703.716 -4.2509 0.547422 0
M  V30 7441 H 707.9 -4.76686 1.38144 0
M  V30 7442 H 703.156 -5.55468 2.55471 0
M  V30 7443 H 707.33 -6.08433 3.38795 0
M  V30 7444 H 704.957 -6.47662 3.98042 0
M  V30 7445 N 706.532 -0.168513 -1.56696 0
M  V30 7446 C 707.482 0.7751 -2.14421 0
M  V30 7447 C 708.466 1.19476 -1.07769 0
M  V30 7448 O 709.658 1.15759 -1.33898 0
M  V30 7449 C 706.787 2.00549 -2.7863 0
M  V30 7450 C 705.873 1.60795 -3.92436 0
M  V30 7451 N 706.264 0.919812 -4.97366 0
M  V30 7452 C 704.562 1.89917 -4.03544 0
M  V30 7453 C 705.263 0.724485 -5.77171 0
M  V30 7454 N 704.239 1.26505 -5.28675 0
M  V30 7455 H 708.041 0.240349 -2.92916 0
M  V30 7456 H 705.555 0.0322675 -1.62368 0
M  V30 7457 H 707.552 2.6917 -3.1836 0
M  V30 7458 H 706.212 2.54522 -2.01615 0
M  V30 7459 H 707.223 0.578169 -5.14663 0
M  V30 7460 H 703.9 2.45587 -3.37629 0
M  V30 7461 H 705.29 0.180521 -6.71657 0
M  V30 7462 N 708.01 1.57248 0.105221 0
M  V30 7463 C 708.943 1.96567 1.15916 0
M  V30 7464 C 709.921 0.837355 1.39381 0
M  V30 7465 O 711.105 1.09676 1.53308 0
M  V30 7466 C 708.232 2.27375 2.51035 0
M  V30 7467 C 707.278 3.49869 2.43913 0
M  V30 7468 S 708.111 5.01958 1.86543 0
M  V30 7469 C 709.267 5.35932 3.23307 0
M  V30 7470 H 709.5 2.85655 0.823931 0
M  V30 7471 H 707.033 1.51204 0.312515 0
M  V30 7472 H 708.991 2.45801 3.28774 0
M  V30 7473 H 707.652 1.38876 2.81731 0
M  V30 7474 H 706.845 3.68835 3.43477 0
M  V30 7475 H 706.447 3.30901 1.743 0
M  V30 7476 H 708.739 5.31958 4.19556 0
M  V30 7477 H 709.682 6.37047 3.09155 0
M  V30 7478 H 710.09 4.63397 3.22372 0
M  V30 7479 N 709.488 -0.375779 1.53054 0
M  V30 7480 C 710.737 -1.11674 1.67964 0
M  V30 7481 C 711.05 -1.90755 0.432655 0
M  V30 7482 O 712.256 -2.67538 0.462109 0
M  V30 7483 C 710.712 -2.0344 2.96884 0
M  V30 7484 C 710.32 -1.29719 4.28809 0
M  V30 7485 C 712.064 -2.7759 3.2116 0
M  V30 7486 C 709.971 -2.20327 5.48826 0
M  V30 7487 H 708.901 -0.420597 0.625791 0
M  V30 7488 H 711.552 -0.378499 1.79554 0
M  V30 7489 H 709.934 -2.80953 2.79072 0
M  V30 7490 H 711.108 -0.573394 4.57219 0
M  V30 7491 H 709.423 -0.674735 4.10897 0
M  V30 7492 H 712.02 -3.4559 4.0801 0
M  V30 7493 H 712.363 -3.42399 2.36789 0
M  V30 7494 H 712.896 -2.07164 3.396 0
M  V30 7495 H 709.635 -1.60113 6.35645 0
M  V30 7496 H 709.155 -2.90585 5.2471 0
M  V30 7497 H 710.834 -2.80116 5.83219 0
M  V30 7498 N 710.966 -1.44241 -0.634997 0
M  V30 7499 C 712.194 -1.50296 -1.42193 0
M  V30 7500 C 712.609 -0.12658 -1.88375 0
M  V30 7501 O 711.966 0.86678 -1.60603 0
M  V30 7502 C 712.017 -2.46437 -2.64482 0
M  V30 7503 O 711.738 -3.78724 -2.20226 0
M  V30 7504 C 713.239 -2.61918 -3.57651 0
M  V30 7505 H 710.459 -0.509865 -0.43621 0
M  V30 7506 H 713.003 -1.89167 -0.776921 0
M  V30 7507 H 711.158 -2.10712 -3.25083 0
M  V30 7508 H 711.572 -4.30595 -2.9948 0
M  V30 7509 H 713.046 -3.33225 -4.40074 0
M  V30 7510 H 713.523 -1.67017 -4.06204 0
M  V30 7511 H 714.129 -2.98528 -3.02921 0
M  V30 7512 N 712.444 0.87505 -1.31075 0
M  V30 7513 C 713.392 2.00317 -1.18219 0
M  V30 7514 C 714.386 1.69152 -0.0916872 0
M  V30 7515 O 715.592 1.7821 -0.253229 0
M  V30 7516 H 711.967 0.656981 -0.365895 0
M  V30 7517 H 713.938 2.08293 -2.13674 0
M  V30 7518 C 712.687 3.35821 -0.901095 0
M  V30 7519 H 712.01 3.6032 -1.73233 0
M  V30 7520 H 713.45 4.15366 -0.851295 0
M  V30 7521 C 711.909 3.34563 0.396114 0
M  V30 7522 O 712.439 3.75971 1.41452 0
M  V30 7523 N 710.645 2.87681 0.410832 0
M  V30 7524 H 710.192 2.54179 -0.418415 0
M  V30 7525 H 710.15 2.87223 1.27869 0
M  V30 7526 N 713.922 1.13953 1.08869 0
M  V30 7527 C 715.169 0.90481 1.81161 0
M  V30 7528 C 715.497 -0.568824 1.85996 0
M  V30 7529 O 714.752 -1.43723 1.32823 0
M  V30 7530 C 715.051 1.44495 3.26888 0
M  V30 7531 C 714.717 2.93641 3.42178 0
M  V30 7532 C 713.379 3.34361 3.46059 0
M  V30 7533 C 715.731 3.89568 3.46246 0
M  V30 7534 C 713.059 4.69681 3.51592 0
M  V30 7535 C 715.411 5.2474 3.53314 0
M  V30 7536 C 714.075 5.64979 3.55465 0
M  V30 7537 H 713.345 0.331094 0.662916 0
M  V30 7538 H 715.992 1.42242 1.28217 0
M  V30 7539 H 714.297 0.848169 3.82509 0
M  V30 7540 H 715.994 1.23934 3.81368 0
M  V30 7541 H 712.584 2.61156 3.39846 0
M  V30 7542 H 716.768 3.59192 3.42483 0
M  V30 7543 H 712.024 5.00224 3.51547 0
M  V30 7544 H 716.198 5.98882 3.55406 0
M  V30 7545 H 713.825 6.69821 3.59505 0
M  V30 7546 N 715.4 -1.26948 0.933913 0
M  V30 7547 C 716.348 -2.2862 0.428463 0
M  V30 7548 C 717.342 -1.62144 -0.490464 0
M  V30 7549 O 718.548 -1.76167 -0.36948 0
M  V30 7550 H 714.923 -0.742363 0.120003 0
M  V30 7551 H 716.894 -2.68659 1.29865 0
M  V30 7552 C 715.643 -3.46423 -0.29774 0
M  V30 7553 H 714.966 -3.97792 0.400183 0
M  V30 7554 H 716.406 -4.19505 -0.615736 0
M  V30 7555 C 714.865 -3.01017 -1.51295 0
M  V30 7556 O 715.395 -3.05226 -2.61151 0
M  V30 7557 N 713.601 -2.56442 -1.36696 0
M  V30 7558 H 713.148 -2.53217 -0.473178 0
M  V30 7559 H 713.106 -2.26424 -2.18127 0
M  V30 7560 N 716.879 -0.700114 -1.41195 0
M  V30 7561 C 718.295 -0.372114 -1.55201 0
M  V30 7562 C 718.495 1.12053 -1.6747 0
M  V30 7563 O 717.551 1.90642 -1.65566 0
M  V30 7564 C 718.864 -1.12462 -2.78878 0
M  V30 7565 C 720.412 -1.10941 -2.92679 0
M  V30 7566 C 720.887 -1.84376 -4.19249 0
M  V30 7567 N 722.378 -1.81368 -4.26216 0
M  V30 7568 C 723.113 -2.35024 -5.23021 0
M  V30 7569 N 722.609 -2.9717 -6.25829 0
M  V30 7570 N 724.402 -2.25254 -5.14992 0
M  V30 7571 H 716.553 -1.66816 -1.31477 0
M  V30 7572 H 718.816 -0.704223 -0.634644 0
M  V30 7573 H 718.522 -2.17937 -2.76037 0
M  V30 7574 H 718.396 -0.706152 -3.70531 0
M  V30 7575 H 720.783 -0.062911 -2.95033 0
M  V30 7576 H 720.864 -1.56698 -2.02187 0
M  V30 7577 H 720.508 -2.89008 -4.17656 0
M  V30 7578 H 720.438 -1.3605 -5.08722 0
M  V30 7579 H 722.929 -1.36062 -3.52556 0
M  V30 7580 H 723.242 -3.35668 -6.96094 0
M  V30 7581 H 721.587 -3.01249 -6.26318 0
M  V30 7582 H 724.778 -1.76372 -4.33602 0
M  V30 7583 H 724.951 -2.67373 -5.90268 0
M  V30 7584 N 718.357 1.51182 -0.445186 0
M  V30 7585 C 719.606 2.01342 0.120189 0
M  V30 7586 C 719.919 1.33353 1.43095 0
M  V30 7587 O 721.125 1.74525 2.07974 0
M  V30 7588 C 719.581 3.58925 0.264732 0
M  V30 7589 C 719.189 4.35855 -1.03606 0
M  V30 7590 C 720.933 4.17208 0.783455 0
M  V30 7591 C 718.84 5.85162 -0.856731 0
M  V30 7592 H 717.77 0.752426 0.0486922 0
M  V30 7593 H 720.421 1.74221 -0.576143 0
M  V30 7594 H 718.803 3.82525 1.02425 0
M  V30 7595 H 719.977 4.23997 -1.80452 0
M  V30 7596 H 718.292 3.89062 -1.48391 0
M  V30 7597 H 720.889 5.26475 0.934239 0
M  V30 7598 H 721.232 3.76892 1.768 0
M  V30 7599 H 721.765 3.97715 0.0820346 0
M  V30 7600 H 718.504 6.29904 -1.81388 0
M  V30 7601 H 718.024 5.99663 -0.128206 0
M  V30 7602 H 719.703 6.44963 -0.513027 0
M  V30 7603 N 719.835 0.176821 1.56605 0
M  V30 7604 C 721.081 -0.460868 1.9811 0
M  V30 7605 C 721.436 -1.60488 1.06119 0
M  V30 7606 O 720.729 -1.91329 0.101939 0
M  V30 7607 C 720.923 -0.986208 3.43524 0
M  V30 7608 C 720.752 0.105368 4.49577 0
M  V30 7609 C 719.522 0.556883 5.02222 0
M  V30 7610 C 721.72 0.907756 5.06226 0
M  V30 7611 N 719.702 1.62819 5.91915 0
M  V30 7612 C 721.073 1.82887 5.92412 0
M  V30 7613 C 723.128 0.952221 4.8871 0
M  V30 7614 C 721.831 2.7907 6.62957 0
M  V30 7615 C 723.857 1.90202 5.5998 0
M  V30 7616 C 723.219 2.8106 6.45898 0
M  V30 7617 H 719.318 -0.136589 0.769979 0
M  V30 7618 H 721.902 0.278307 1.92701 0
M  V30 7619 H 720.073 -1.69489 3.49468 0
M  V30 7620 H 721.805 -1.59298 3.7203 0
M  V30 7621 H 718.56 0.153575 4.73351 0
M  V30 7622 H 718.984 2.1645 6.41466 0
M  V30 7623 H 723.626 0.263794 4.21976 0
M  V30 7624 H 721.344 3.48898 7.28901 0
M  V30 7625 H 724.93 1.9426 5.48411 0
M  V30 7626 H 723.81 3.53357 7.00077 0
M  V30 7627 N 721.313 -1.57302 -0.09688 0
M  V30 7628 C 722.559 -1.86273 -0.801885 0
M  V30 7629 C 722.892 -0.765694 -1.78468 0
M  V30 7630 O 722.167 0.226495 -1.93177 0
M  V30 7631 C 722.45 -3.25876 -1.53221 0
M  V30 7632 C 722.303 -4.46205 -0.567529 0
M  V30 7633 C 723.622 -3.63352 -2.48321 0
M  V30 7634 H 720.741 -0.67752 -0.29006 0
M  V30 7635 H 723.383 -1.89887 -0.0655577 0
M  V30 7636 H 721.533 -3.22926 -2.15988 0
M  V30 7637 H 723.205 -4.6127 0.0529982 0
M  V30 7638 H 721.448 -4.33636 0.119233 0
M  V30 7639 H 722.119 -5.40608 -1.11564 0
M  V30 7640 H 724.595 -3.67234 -1.95648 0
M  V30 7641 H 723.471 -4.61968 -2.9644 0
M  V30 7642 H 723.732 -2.91941 -3.31998 0
M  V30 7643 N 722.791 0.367657 -1.53252 0
M  V30 7644 C 724.04 1.10782 -1.68554 0
M  V30 7645 C 724.353 1.90523 -0.442765 0
M  V30 7646 O 725.559 2.6729 -0.47629 0
M  V30 7647 C 724.015 2.01863 -2.97959 0
M  V30 7648 C 723.623 1.27443 -4.29491 0
M  V30 7649 C 725.367 2.75883 -3.22628 0
M  V30 7650 C 723.274 2.17414 -5.49987 0
M  V30 7651 H 722.204 0.417272 -0.628013 0
M  V30 7652 H 724.855 0.368971 -1.79752 0
M  V30 7653 H 723.237 2.7947 -2.80558 0
M  V30 7654 H 724.411 0.549138 -4.57516 0
M  V30 7655 H 722.726 0.652935 -4.11249 0
M  V30 7656 H 725.323 3.43421 -4.09837 0
M  V30 7657 H 725.666 3.41138 -2.38601 0
M  V30 7658 H 726.199 2.0536 -3.40693 0
M  V30 7659 H 722.938 1.5674 -6.36485 0
M  V30 7660 H 722.458 2.87799 -5.26243 0
M  V30 7661 H 724.137 2.77019 -5.84696 0
M  V30 7662 N 724.269 1.44576 0.627338 0
M  V30 7663 C 725.219 1.48168 1.73293 0
M  V30 7664 C 726.203 0.347045 1.57113 0
M  V30 7665 O 727.395 0.592605 1.66785 0
M  V30 7666 C 724.524 1.43236 3.11991 0
M  V30 7667 C 723.61 2.61828 3.33627 0
M  V30 7668 N 724.001 3.87053 3.25612 0
M  V30 7669 C 722.299 2.57104 3.64436 0
M  V30 7670 C 723 4.66093 3.48041 0
M  V30 7671 N 721.976 3.97228 3.71095 0
M  V30 7672 H 725.778 2.42832 1.6556 0
M  V30 7673 H 723.292 1.39592 0.829934 0
M  V30 7674 H 725.289 1.43893 3.91281 0
M  V30 7675 H 723.949 0.496133 3.20887 0
M  V30 7676 H 724.96 4.18966 3.04447 0
M  V30 7677 H 721.637 1.72295 3.8029 0
M  V30 7678 H 723.027 5.75117 3.47404 0
M  V30 7679 N 725.747 -0.868086 1.31537 0
M  V30 7680 C 726.677 -1.99131 1.21939 0
M  V30 7681 C 727.658 -1.69768 0.106166 0
M  V30 7682 O 728.843 -1.92006 0.291081 0
M  V30 7683 C 725.973 -3.34676 0.927879 0
M  V30 7684 C 724.927 -3.7835 2.00088 0
M  V30 7685 C 724.253 -5.11375 1.56203 0
M  V30 7686 C 725.553 -3.95256 3.41424 0
M  V30 7687 H 727.247 -2.07419 2.15911 0
M  V30 7688 H 724.793 -0.996569 1.03945 0
M  V30 7689 H 726.746 -4.12793 0.847327 0
M  V30 7690 H 725.47 -3.26565 -0.0475042 0
M  V30 7691 H 724.129 -3.02474 2.07135 0
M  V30 7692 H 723.777 -4.99709 0.57445 0
M  V30 7693 H 723.477 -5.41568 2.27985 0
M  V30 7694 H 725.001 -5.92001 1.49558 0
M  V30 7695 H 726.415 -4.63764 3.3704 0
M  V30 7696 H 724.812 -4.36849 4.1144 0
M  V30 7697 H 725.882 -2.98579 3.82072 0
M  V30 7698 N 727.225 -1.14528 -1.08264 0
M  V30 7699 C 728.473 -0.912599 -1.80322 0
M  V30 7700 C 728.794 0.562256 -1.86718 0
M  V30 7701 O 728.064 1.40869 -1.36135 0
M  V30 7702 H 726.644 -0.334645 -0.667849 0
M  V30 7703 H 729.306 -1.44415 -1.30883 0
M  V30 7704 H 728.402 -1.31384 -2.83098 0
M  V30 7705 N 728.703 1.26451 -0.940633 0
M  V30 7706 C 729.666 2.24651 -0.454378 0
M  V30 7707 C 730.666 1.54826 0.434222 0
M  V30 7708 O 731.856 1.72628 0.233477 0
M  V30 7709 C 728.988 3.39148 0.345192 0
M  V30 7710 H 730.181 2.69182 -1.32217 0
M  V30 7711 H 727.734 1.38596 -0.722547 0
M  V30 7712 H 728.469 3.00018 1.23125 0
M  V30 7713 H 728.254 3.9101 -0.292107 0
M  V30 7714 H 729.744 4.12103 0.675341 0
M  V30 7715 N 730.181 0.707592 1.40822 0
M  V30 7716 C 731.428 0.243671 2.01029 0
M  V30 7717 C 731.756 -1.16057 1.5608 0
M  V30 7718 O 731.011 -1.7999 0.768251 0
M  V30 7719 C 731.31 0.262892 3.56432 0
M  V30 7720 C 730.976 1.61632 4.20935 0
M  V30 7721 C 729.638 1.98682 4.38268 0
M  V30 7722 C 731.99 2.50619 4.5699 0
M  V30 7723 C 729.318 3.2428 4.88937 0
M  V30 7724 C 731.67 3.75562 5.09054 0
M  V30 7725 C 730.334 4.12739 5.24598 0
M  V30 7726 H 729.604 0.0891654 0.735616 0
M  V30 7727 H 732.251 0.909051 1.68548 0
M  V30 7728 H 730.556 -0.486052 3.88773 0
M  V30 7729 H 732.253 -0.113775 4.00839 0
M  V30 7730 H 728.843 1.31818 4.07826 0
M  V30 7731 H 733.027 2.23272 4.43242 0
M  V30 7732 H 728.283 3.53064 4.99155 0
M  V30 7733 H 732.457 4.44692 5.35931 0
M  V30 7734 H 730.084 5.10132 5.63622 0
M  V30 7735 N 731.66 -1.50943 0.453197 0
M  V30 7736 C 732.906 -2.03153 -0.100277 0
M  V30 7737 C 733.261 -1.33032 -1.38997 0
M  V30 7738 O 732.554 -0.441423 -1.86446 0
M  V30 7739 C 732.748 -3.55603 -0.357944 0
M  V30 7740 C 732.577 -4.40495 0.905223 0
M  V30 7741 C 731.347 -4.84247 1.44337 0
M  V30 7742 C 733.545 -4.81931 1.79575 0
M  V30 7743 N 731.527 -5.53403 2.65742 0
M  V30 7744 C 732.898 -5.50314 2.85577 0
M  V30 7745 C 734.953 -4.63903 1.80828 0
M  V30 7746 C 733.656 -6.02581 3.92797 0
M  V30 7747 C 735.682 -5.17097 2.86993 0
M  V30 7748 C 735.044 -5.8544 3.91713 0
M  V30 7749 H 731.143 -0.781995 0.00287755 0
M  V30 7750 H 733.727 -1.84651 0.617411 0
M  V30 7751 H 731.898 -3.74087 -1.04467 0
M  V30 7752 H 733.63 -3.9447 -0.904175 0
M  V30 7753 H 730.385 -4.63029 0.995045 0
M  V30 7754 H 730.809 -5.92598 3.27348 0
M  V30 7755 H 735.451 -4.10512 1.0119 0
M  V30 7756 H 733.169 -6.55018 4.73262 0
M  V30 7757 H 736.755 -5.0499 2.88923 0
M  V30 7758 H 735.635 -6.25861 4.72512 0
M  V30 7759 N 733.138 -0.185124 -1.56509 0
M  V30 7760 C 734.385 0.456258 -1.97293 0
M  V30 7761 C 734.713 1.62314 -1.07165 0
M  V30 7762 O 733.968 1.95398 -0.108621 0
M  V30 7763 C 734.267 0.967977 -3.44042 0
M  V30 7764 C 733.933 -0.084476 -4.50821 0
M  V30 7765 C 732.595 -0.373689 -4.79747 0
M  V30 7766 C 734.947 -0.79812 -5.15053 0
M  V30 7767 C 732.275 -1.3817 -5.70198 0
M  V30 7768 C 734.627 -1.79521 -6.06593 0
M  V30 7769 C 733.291 -2.09172 -6.3388 0
M  V30 7770 H 732.561 0.166957 -0.721946 0
M  V30 7771 H 735.208 -0.279992 -1.89442 0
M  V30 7772 H 733.513 1.78231 -3.48914 0
M  V30 7773 H 735.21 1.47347 -3.72948 0
M  V30 7774 H 731.8 0.15111 -4.28334 0
M  V30 7775 H 735.984 -0.587903 -4.92806 0
M  V30 7776 H 731.24 -1.61745 -5.89617 0
M  V30 7777 H 735.414 -2.35347 -6.55427 0
M  V30 7778 H 733.041 -2.87427 -7.03768 0
M  V30 7779 N 734.616 1.57351 0.0885366 0
M  V30 7780 C 735.863 1.86419 0.790824 0
M  V30 7781 C 736.191 0.774561 1.78412 0
M  V30 7782 O 735.446 -0.23119 1.9433 0
M  V30 7783 C 735.745 3.22098 1.5488 0
M  V30 7784 C 735.411 4.4548 0.697025 0
M  V30 7785 C 734.073 4.78975 0.462237 0
M  V30 7786 C 736.425 5.21094 0.105315 0
M  V30 7787 C 733.753 5.85507 -0.374016 0
M  V30 7788 C 736.105 6.28509 -0.718298 0
M  V30 7789 C 734.769 6.60515 -0.963116 0
M  V30 7790 H 734.039 0.682157 0.289383 0
M  V30 7791 H 736.686 1.91429 0.0520961 0
M  V30 7792 H 734.991 3.12803 2.35927 0
M  V30 7793 H 736.688 3.41819 2.09669 0
M  V30 7794 H 733.278 4.19255 0.890137 0
M  V30 7795 H 737.462 4.95544 0.273856 0
M  V30 7796 H 732.718 6.08713 -0.572606 0
M  V30 7797 H 736.892 6.86268 -1.18362 0
M  V30 7798 H 734.519 7.42893 -1.6129 0
M  V30 7799 N 736.094 -0.359525 1.53444 0
M  V30 7800 C 737.322 -1.12198 1.73837 0
M  V30 7801 C 737.737 -1.82854 0.470107 0
M  V30 7802 O 737.094 -1.73781 -0.557349 0
M  V30 7803 C 737.145 -2.14769 2.90786 0
M  V30 7804 O 736.866 -1.46989 4.12706 0
M  V30 7805 C 738.367 -3.03514 3.231 0
M  V30 7806 H 735.587 -0.33524 0.581253 0
M  V30 7807 H 738.131 -0.416598 2.00212 0
M  V30 7808 H 736.286 -2.80896 2.66788 0
M  V30 7809 H 736.7 -2.15378 4.78239 0
M  V30 7810 H 738.174 -3.71453 4.08322 0
M  V30 7811 H 738.651 -3.68658 2.38721 0
M  V30 7812 H 739.257 -2.42996 3.49046 0
M  V30 7813 N 737.572 -1.44907 -0.619662 0
M  V30 7814 C 738.535 -1.52282 -1.71297 0
M  V30 7815 C 739.535 -0.40359 -1.55653 0
M  V30 7816 O 740.725 -0.666638 -1.6094 0
M  V30 7817 C 737.857 -1.40778 -3.10474 0
M  V30 7818 H 739.05 -2.49683 -1.66128 0
M  V30 7819 H 736.603 -1.32168 -0.834339 0
M  V30 7820 H 737.338 -0.445156 -3.2123 0
M  V30 7821 H 737.123 -2.21947 -3.23237 0
M  V30 7822 H 738.613 -1.48946 -3.90135 0
M  V30 7823 N 739.05 0.861098 -1.31996 0
M  V30 7824 C 740.28 1.64501 -1.24992 0
M  V30 7825 C 740.688 1.88288 0.185576 0
M  V30 7826 O 740.031 1.44756 1.131 0
M  V30 7827 C 740.093 3.03098 -1.93319 0
M  V30 7828 C 739.757 3.02381 -3.42658 0
M  V30 7829 C 740.754 2.79696 -4.38254 0
M  V30 7830 C 738.439 3.23221 -3.84491 0
M  V30 7831 C 740.433 2.77843 -5.73657 0
M  V30 7832 C 738.12 3.20996 -5.20005 0
M  V30 7833 C 739.118 2.98335 -6.14398 0
M  V30 7834 O 738.806 2.95971 -7.47433 0
M  V30 7835 H 738.538 0.519309 -0.432775 0
M  V30 7836 H 741.092 1.08241 -1.74565 0
M  V30 7837 H 739.322 3.61121 -1.38306 0
M  V30 7838 H 741.011 3.63751 -1.8011 0
M  V30 7839 H 741.777 2.63368 -4.07262 0
M  V30 7840 H 737.656 3.39887 -3.11445 0
M  V30 7841 H 741.2 2.60074 -6.47308 0
M  V30 7842 H 737.097 3.36865 -5.50629 0
M  V30 7843 H 737.865 3.1197 -7.56714 0
M  V30 7844 N 740.528 1.15101 1.07655 0
M  V30 7845 C 741.476 0.840714 2.16875 0
M  V30 7846 C 742.47 -0.184594 1.68391 0
M  V30 7847 O 743.676 -0.0399315 1.79956 0
M  V30 7848 H 740.051 0.254192 0.707736 0
M  V30 7849 H 742.022 1.76959 2.40266 0
M  V30 7850 C 740.771 0.343018 3.46004 0
M  V30 7851 H 740.094 1.12335 3.83694 0
M  V30 7852 H 741.534 0.16453 4.23681 0
M  V30 7853 C 739.993 -0.934881 3.23669 0
M  V30 7854 O 740.523 -2.00706 3.47965 0
M  V30 7855 N 738.729 -0.873167 2.77172 0
M  V30 7856 H 738.276 -0.000479072 2.576 0
M  V30 7857 H 738.234 -1.72873 2.62607 0
M  V30 7858 N 742.006 -1.2595 0.947325 0
M  V30 7859 C 742.969 -2.24407 0.466285 0
M  V30 7860 C 743.969 -1.55054 -0.426005 0
M  V30 7861 O 745.159 -1.7275 -0.224319 0
M  V30 7862 C 742.291 -3.39326 -0.327201 0
M  V30 7863 H 743.484 -2.68477 1.33642 0
M  V30 7864 H 741.037 -1.38211 0.729887 0
M  V30 7865 H 741.772 -3.00667 -1.21532 0
M  V30 7866 H 741.557 -3.9085 0.312839 0
M  V30 7867 H 743.047 -4.12455 -0.653477 0
M  V30 7868 N 743.484 -0.715051 -1.40445 0
M  V30 7869 C 744.895 -0.326763 -1.83818 0
M  V30 7870 C 745.246 1.13851 -1.59789 0
M  V30 7871 O 744.371 1.87611 -1.07848 0
M  V30 7872 C 744.966 -0.586297 -3.33688 0
M  V30 7873 C 743.525 -0.251724 -3.75557 0
M  V30 7874 C 742.672 -0.858928 -2.63662 0
M  V30 7875 H 745.623 -0.914241 -1.2972 0
M  V30 7876 H 745.644 0.148636 -3.8021 0
M  V30 7877 H 745.156 -1.65281 -3.51146 0
M  V30 7878 H 743.257 0.809754 -3.63695 0
M  V30 7879 H 743.37 -0.720348 -4.73654 0
M  V30 7880 H 741.734 -0.287013 -2.53078 0
M  V30 7881 H 742.517 -1.9297 -2.83932 0
M  V30 7882 N 744.962 1.50701 -0.461195 0
M  V30 7883 C 746.19 2.06681 0.0951756 0
M  V30 7884 C 746.605 1.32615 1.34382 0
M  V30 7885 O 745.962 0.392531 1.78229 0
M  V30 7886 C 746.013 3.59354 0.393316 0
M  V30 7887 O 745.734 4.30626 -0.805797 0
M  V30 7888 C 747.235 4.31926 0.997744 0
M  V30 7889 H 744.455 0.670995 -0.00267259 0
M  V30 7890 H 746.999 1.93991 -0.647137 0
M  V30 7891 H 745.154 3.7188 1.08555 0
M  V30 7892 H 745.568 5.21667 -0.544409 0
M  V30 7893 H 747.042 5.39756 1.15619 0
M  V30 7894 H 747.519 3.91772 1.98523 0
M  V30 7895 H 748.125 4.23905 0.344188 0
M  V30 7896 N 746.441 0.193421 1.56409 0
M  V30 7897 C 747.371 -0.723334 2.22014 0
M  V30 7898 C 748.352 -1.22254 1.1827 0
M  V30 7899 O 749.537 -1.27168 1.46771 0
M  V30 7900 C 746.667 -1.94366 2.87818 0
M  V30 7901 C 745.621 -1.57943 3.97791 0
M  V30 7902 C 744.947 -2.87623 4.50752 0
M  V30 7903 C 746.247 -0.790639 5.16281 0
M  V30 7904 H 747.941 -0.176426 2.9888 0
M  V30 7905 H 745.487 -0.0834166 1.43758 0
M  V30 7906 H 747.44 -2.5902 3.32396 0
M  V30 7907 H 746.164 -2.51507 2.08355 0
M  V30 7908 H 744.823 -0.956482 3.53903 0
M  V30 7909 H 744.471 -3.4285 3.68053 0
M  V30 7910 H 744.171 -2.63998 5.24956 0
M  V30 7911 H 745.695 -3.53268 4.9803 0
M  V30 7912 H 747.109 -1.34024 5.57414 0
M  V30 7913 H 745.506 -0.65258 5.96541 0
M  V30 7914 H 746.576 0.208633 4.84451 0
M  V30 7915 N 747.919 -1.57396 -0.0801906 0
M  V30 7916 C 749.149 -1.90778 -0.792924 0
M  V30 7917 C 749.557 -0.786814 -1.72064 0
M  V30 7918 O 748.9 0.249259 -1.82001 0
M  V30 7919 C 748.962 -3.19552 -1.64702 0
M  V30 7920 C 748.626 -4.48259 -0.889567 0
M  V30 7921 C 749.623 -5.19465 -0.212602 0
M  V30 7922 C 747.308 -4.94896 -0.859229 0
M  V30 7923 C 749.302 -6.35555 0.484566 0
M  V30 7924 C 746.989 -6.10895 -0.158284 0
M  V30 7925 C 747.987 -6.81075 0.512421 0
M  V30 7926 O 747.675 -7.94862 1.20209 0
M  V30 7927 H 747.407 -0.63527 -0.231103 0
M  V30 7928 H 749.961 -2.0532 -0.0573081 0
M  V30 7929 H 748.191 -3.01196 -2.42524 0
M  V30 7930 H 749.88 -3.38649 -2.23767 0
M  V30 7931 H 750.646 -4.84467 -0.227403 0
M  V30 7932 H 746.525 -4.4015 -1.37073 0
M  V30 7933 H 750.069 -6.9027 1.00864 0
M  V30 7934 H 745.966 -6.45345 -0.141381 0
M  V30 7935 H 746.734 -8.10932 1.11051 0
M  V30 7936 N 749.397 0.351382 -1.53633 0
M  V30 7937 C 750.625 1.11275 -1.74429 0
M  V30 7938 C 751.04 1.82602 -0.479798 0
M  V30 7939 O 750.397 1.74074 0.548125 0
M  V30 7940 C 750.448 2.13223 -2.91921 0
M  V30 7941 O 750.169 1.44798 -4.13479 0
M  V30 7942 C 751.67 3.01797 -3.24706 0
M  V30 7943 H 748.89 0.332153 -0.583023 0
M  V30 7944 H 751.434 0.405974 -2.0043 0
M  V30 7945 H 749.589 2.79477 -2.68274 0
M  V30 7946 H 750.003 2.12839 -4.79374 0
M  V30 7947 H 751.477 3.69282 -4.10286 0
M  V30 7948 H 751.954 3.67387 -2.40673 0
M  V30 7949 H 752.56 2.41141 -3.5033 0
M  V30 7950 N 750.875 1.45233 0.611969 0
M  V30 7951 C 751.822 1.5357 1.72293 0
M  V30 7952 C 752.792 0.381912 1.6165 0
M  V30 7953 O 753.977 0.594765 1.81293 0
M  V30 7954 C 751.117 1.50419 3.10593 0
M  V30 7955 C 750.23 2.76316 3.32074 0
M  V30 7956 C 749.365 2.64866 4.60456 0
M  V30 7957 C 748.404 3.85838 4.7518 0
M  V30 7958 N 747.541 3.72949 5.94856 0
M  V30 7959 H 752.381 2.4848 1.64504 0
M  V30 7960 H 749.918 1.23302 0.802191 0
M  V30 7961 H 751.876 1.4658 3.90602 0
M  V30 7962 H 750.506 0.590621 3.17351 0
M  V30 7963 H 749.558 2.90261 2.45872 0
M  V30 7964 H 750.87 3.66055 3.38829 0
M  V30 7965 H 750.024 2.58969 5.48653 0
M  V30 7966 H 748.763 1.72719 4.56092 0
M  V30 7967 H 747.768 3.92099 3.85407 0
M  V30 7968 H 748.993 4.79045 4.81344 0
M  V30 7969 H 746.939 2.83567 5.91545 0
M  V30 7970 H 746.856 4.56319 6.02751 0
M  V30 7971 H 748.124 3.70976 6.85563 0
M  V30 7972 N 752.353 -0.854086 1.3245 0
M  V30 7973 C 753.301 -1.98411 1.21391 0
M  V30 7974 C 754.295 -1.68984 0.118586 0
M  V30 7975 O 755.501 -1.77784 0.281549 0
M  V30 7976 H 751.876 -0.651077 0.376301 0
M  V30 7977 H 753.847 -2.04867 2.16961 0
M  V30 7978 C 752.596 -3.34345 0.954407 0
M  V30 7979 H 751.919 -3.57518 1.78944 0
M  V30 7980 H 753.359 -4.13959 0.917269 0
M  V30 7981 C 751.818 -3.35151 -0.342838 0
M  V30 7982 O 752.348 -3.78174 -1.35452 0
M  V30 7983 N 750.554 -2.88298 -0.365012 0
M  V30 7984 H 750.101 -2.53481 0.4588 0
M  V30 7985 H 750.059 -2.8922 -1.23284 0
M  V30 7986 N 753.831 -1.1567 -1.07043 0
M  V30 7987 C 755.061 -0.956083 -1.83146 0
M  V30 7988 C 755.469 0.498969 -1.82502 0
M  V30 7989 O 754.812 1.35791 -1.23719 0
M  V30 7990 C 754.874 -1.39704 -3.31245 0
M  V30 7991 C 754.538 -2.87045 -3.55604 0
M  V30 7992 C 755.535 -3.85092 -3.49285 0
M  V30 7993 C 753.22 -3.24787 -3.8317 0
M  V30 7994 C 755.214 -5.18885 -3.70185 0
M  V30 7995 C 752.901 -4.58751 -4.03721 0
M  V30 7996 C 753.899 -5.55609 -3.97224 0
M  V30 7997 O 753.587 -6.87154 -4.17223 0
M  V30 7998 H 753.319 -0.339473 -0.58458 0
M  V30 7999 H 755.873 -1.53922 -1.36005 0
M  V30 8000 H 754.103 -0.757326 -3.79212 0
M  V30 8001 H 755.792 -1.16503 -3.88821 0
M  V30 8002 H 756.558 -3.5728 -3.27988 0
M  V30 8003 H 752.437 -2.49979 -3.87339 0
M  V30 8004 H 755.981 -5.94473 -3.6503 0
M  V30 8005 H 751.878 -4.86277 -4.24505 0
M  V30 8006 H 752.646 -6.93618 -4.34553 0
M  V30 8007 N 755.309 1.25446 -0.953992 0
M  V30 8008 C 756.241 2.25111 -0.431004 0
M  V30 8009 C 757.254 1.56377 0.452764 0
M  V30 8010 O 758.443 1.76579 0.261144 0
M  V30 8011 C 755.543 3.3655 0.39839 0
M  V30 8012 C 754.716 4.34843 -0.472229 0
M  V30 8013 C 753.775 5.25351 0.29886 0
M  V30 8014 O 752.801 5.68396 -0.302522 0
M  V30 8015 N 754.003 5.5824 1.59211 0
M  V30 8016 H 756.768 2.70619 -1.28785 0
M  V30 8017 H 754.329 1.39346 -0.824281 0
M  V30 8018 H 756.321 3.94059 0.921941 0
M  V30 8019 H 754.891 2.90436 1.15609 0
M  V30 8020 H 754.111 3.76222 -1.17689 0
M  V30 8021 H 755.399 4.97497 -1.06648 0
M  V30 8022 H 754.797 5.25172 2.10264 0
M  V30 8023 H 753.354 6.18336 2.06164 0
M  V30 8024 N 756.787 0.722489 1.40064 0
M  V30 8025 C 757.719 0.0349057 2.29173 0
M  V30 8026 C 758.732 -0.716571 1.46182 0
M  V30 8027 O 759.921 -0.562806 1.69395 0
M  V30 8028 C 757.021 -0.974839 3.24577 0
M  V30 8029 C 756.194 -0.287471 4.36454 0
M  V30 8030 C 755.253 -1.20356 5.12251 0
M  V30 8031 O 754.279 -0.685753 5.65054 0
M  V30 8032 N 755.481 -2.53422 5.22262 0
M  V30 8033 H 758.246 0.800058 2.88824 0
M  V30 8034 H 755.807 0.57068 1.51509 0
M  V30 8035 H 757.799 -1.59002 3.72157 0
M  V30 8036 H 756.369 -1.6413 2.66046 0
M  V30 8037 H 755.589 0.508008 3.90913 0
M  V30 8038 H 756.877 0.189382 5.08447 0
M  V30 8039 H 756.275 -2.97981 4.80857 0
M  V30 8040 H 754.832 -3.10067 5.73325 0
M  V30 8041 N 758.265 -1.50454 0.469181 0
M  V30 8042 C 759.197 -2.26319 -0.362247 0
M  V30 8043 C 760.21 -1.31574 -0.958751 0
M  V30 8044 O 761.399 -1.57099 -0.847482 0
M  V30 8045 C 758.499 -3.02808 -1.52187 0
M  V30 8046 C 757.672 -4.24893 -1.03849 0
M  V30 8047 C 756.731 -4.83691 -2.07194 0
M  V30 8048 O 755.757 -5.44659 -1.65333 0
M  V30 8049 N 756.959 -4.70522 -3.39985 0
M  V30 8050 H 759.724 -2.98312 0.288124 0
M  V30 8051 H 757.285 -1.59099 0.299856 0
M  V30 8052 H 759.277 -3.39023 -2.21011 0
M  V30 8053 H 757.847 -2.33625 -2.07697 0
M  V30 8054 H 757.067 -3.93806 -0.176203 0
M  V30 8055 H 758.355 -5.04053 -0.693435 0
M  V30 8056 H 757.753 -4.2203 -3.76706 0
M  V30 8057 H 756.31 -5.11011 -4.04612 0
M  V30 8058 N 759.743 -0.201713 -1.56304 0
M  V30 8059 C 760.673 0.71155 -2.22394 0
M  V30 8060 C 761.654 1.21625 -1.18917 0
M  V30 8061 O 762.839 1.26388 -1.47444 0
M  V30 8062 C 759.969 1.92837 -2.88845 0
M  V30 8063 C 758.923 1.55831 -3.98623 0
M  V30 8064 C 758.249 2.85228 -4.52271 0
M  V30 8065 C 759.549 0.763249 -5.16693 0
M  V30 8066 H 761.243 0.160573 -2.98969 0
M  V30 8067 H 758.789 0.0757916 -1.438 0
M  V30 8068 H 760.742 2.57253 -3.33764 0
M  V30 8069 H 759.466 2.50398 -2.09686 0
M  V30 8070 H 758.125 0.9377 -3.54405 0
M  V30 8071 H 757.773 3.40893 -3.69866 0
M  V30 8072 H 757.473 2.6121 -5.26349 0
M  V30 8073 H 758.997 3.50622 -4.99897 0
M  V30 8074 H 760.411 1.31066 -5.58117 0
M  V30 8075 H 758.808 0.620935 -5.96879 0
M  V30 8076 H 759.878 -0.234322 -4.84334 0
M  V30 8077 N 761.222 1.57436 0.0718424 0
M  V30 8078 C 762.499 1.78312 0.804006 0
M  V30 8079 C 762.879 0.789273 1.9579 0
M  V30 8080 O 762.227 -0.177605 2.27809 0
M  V30 8081 C 762.437 3.24798 1.277 0
M  V30 8082 C 763.785 3.88627 1.71039 0
M  V30 8083 O 764.809 3.28689 1.37266 0
M  V30 8084 O 763.668 4.94073 2.33567 0
M  V30 8085 H 760.762 0.73178 0.385262 0
M  V30 8086 H 763.308 1.69621 0.0519219 0
M  V30 8087 H 762.08 3.88688 0.45134 0
M  V30 8088 H 761.703 3.38213 2.0904 0
M  V30 8089 N 762.7 -0.34323 1.53817 0
M  V30 8090 C 763.648 -1.44176 1.82527 0
M  V30 8091 C 764.642 -1.54452 0.695772 0
M  V30 8092 O 765.848 -1.57072 0.879114 0
M  V30 8093 H 762.223 -0.480729 0.578277 0
M  V30 8094 H 764.194 -1.17176 2.74431 0
M  V30 8095 C 762.943 -2.80695 2.05197 0
M  V30 8096 H 762.266 -2.73554 2.91561 0
M  V30 8097 H 763.706 -3.56679 2.29251 0
M  V30 8098 C 762.165 -3.26322 0.837589 0
M  V30 8099 O 762.695 -4.01683 0.0371631 0
M  V30 8100 N 760.901 -2.83128 0.654724 0
M  V30 8101 H 760.448 -2.21965 1.30725 0
M  V30 8102 H 760.406 -3.14011 -0.156345 0
M  V30 8103 N 764.178 -1.45556 -0.604258 0
M  V30 8104 C 765.125 -1.54482 -1.71476 0
M  V30 8105 C 766.095 -0.390479 -1.61445 0
M  V30 8106 O 767.28 -0.604371 -1.80975 0
M  V30 8107 C 764.42 -1.52064 -3.09791 0
M  V30 8108 C 763.533 -2.78073 -3.30604 0
M  V30 8109 C 762.668 -2.67304 -4.59044 0
M  V30 8110 C 761.707 -3.88352 -4.73127 0
M  V30 8111 N 760.844 -3.76098 -5.9287 0
M  V30 8112 H 765.684 -2.49349 -1.63184 0
M  V30 8113 H 763.221 -1.23725 -0.795641 0
M  V30 8114 H 765.179 -1.48649 -3.89819 0
M  V30 8115 H 763.809 -0.607442 -3.17033 0
M  V30 8116 H 762.861 -2.91561 -2.44329 0
M  V30 8117 H 764.173 -3.67847 -3.36883 0
M  V30 8118 H 763.327 -2.61875 -5.47272 0
M  V30 8119 H 762.066 -1.75135 -4.55169 0
M  V30 8120 H 761.071 -3.94137 -3.83322 0
M  V30 8121 H 762.296 -4.81591 -4.78797 0
M  V30 8122 H 760.242 -2.867 -5.90033 0
M  V30 8123 H 760.159 -4.59509 -6.00323 0
M  V30 8124 H 761.427 -3.74607 -6.83586 0
M  V30 8125 N 765.656 0.84705 -1.32902 0
M  V30 8126 C 767.067 1.41785 -1.21466 0
M  V30 8127 C 767.418 1.95464 0.169767 0
M  V30 8128 O 766.543 1.88157 1.06892 0
M  V30 8129 C 767.138 2.57734 -2.19906 0
M  V30 8130 C 765.697 3.10791 -2.12334 0
M  V30 8131 C 764.844 1.83562 -2.07847 0
M  V30 8132 H 767.795 0.653532 -1.44619 0
M  V30 8133 H 767.816 3.35123 -1.80202 0
M  V30 8134 H 767.328 2.18635 -3.20656 0
M  V30 8135 H 765.429 3.54455 -1.14858 0
M  V30 8136 H 765.542 3.71519 -3.02506 0
M  V30 8137 H 763.906 2.03475 -1.53199 0
M  V30 8138 H 764.689 1.4667 -3.10392 0
M  V30 8139 N 767.134 1.16236 1.06428 0
M  V30 8140 C 768.097 0.870163 2.1204 0
M  V30 8141 C 769.097 -0.134239 1.60239 0
M  V30 8142 O 770.287 0.0964932 1.73933 0
M  V30 8143 C 767.419 0.301033 3.39568 0
M  V30 8144 H 768.612 1.8064 2.39394 0
M  V30 8145 H 766.165 0.971116 1.2247 0
M  V30 8146 H 766.9 -0.642948 3.17863 0
M  V30 8147 H 766.685 1.02475 3.78472 0
M  V30 8148 H 768.175 0.114494 4.17443 0
M  V30 8149 N 768.612 -1.24939 0.960631 0
M  V30 8150 C 769.86 -1.92437 0.617441 0
M  V30 8151 C 770.181 -1.75543 -0.849101 0
M  V30 8152 O 769.451 -1.12269 -1.60538 0
M  V30 8153 H 768.031 -0.712192 0.225371 0
M  V30 8154 H 770.693 -1.5198 1.22017 0
M  V30 8155 H 769.789 -3.00247 0.851933 0
M  V30 8156 N 770.09 -0.729906 -1.39679 0
M  V30 8157 C 771.315 -0.284345 -2.05442 0
M  V30 8158 C 771.74 1.07056 -1.54663 0
M  V30 8159 O 771.098 1.67732 -0.688157 0
M  V30 8160 C 771.146 -0.290089 -3.59431 0
M  V30 8161 O 770.25 0.723978 -4.05995 0
M  V30 8162 H 769.591 -0.130311 -0.651088 0
M  V30 8163 H 772.121 -0.994403 -1.78809 0
M  V30 8164 H 772.131 -0.132712 -4.07784 0
M  V30 8165 H 770.806 -1.27877 -3.95753 0
M  V30 8166 H 769.383 0.533154 -3.69069 0
M  V30 8167 N 771.568 1.50203 -0.477153 0
M  V30 8168 C 772.515 2.28656 0.31386 0
M  V30 8169 C 773.485 1.33977 0.981802 0
M  V30 8170 O 774.67 1.62919 0.993072 0
M  V30 8171 C 771.81 3.16027 1.38639 0
M  V30 8172 C 770.923 4.25743 0.732615 0
M  V30 8173 C 770.058 5.00363 1.78355 0
M  V30 8174 C 769.097 6.01945 1.11035 0
M  V30 8175 N 768.234 6.6982 2.10441 0
M  V30 8176 H 773.074 2.958 -0.361445 0
M  V30 8177 H 770.611 1.45867 -0.190093 0
M  V30 8178 H 772.569 3.6504 2.01994 0
M  V30 8179 H 771.199 2.50917 2.03077 0
M  V30 8180 H 770.251 3.80398 -0.0136546 0
M  V30 8181 H 771.563 4.98393 0.201513 0
M  V30 8182 H 770.717 5.53124 2.49276 0
M  V30 8183 H 769.456 4.27432 2.34847 0
M  V30 8184 H 768.461 5.48438 0.386797 0
M  V30 8185 H 769.686 6.76851 0.552248 0
M  V30 8186 H 767.632 5.99677 2.65939 0
M  V30 8187 H 767.549 7.38366 1.62332 0
M  V30 8188 H 768.817 7.27196 2.80724 0
M  V30 8189 N 773.046 0.209999 1.56195 0
M  V30 8190 C 774.276 -0.429373 2.02089 0
M  V30 8191 C 774.684 -1.54703 1.0892 0
M  V30 8192 O 774.027 -1.83485 0.0889535 0
M  V30 8193 C 774.089 -1.03266 3.44349 0
M  V30 8194 C 773.753 -0.0518873 4.56971 0
M  V30 8195 C 774.75 0.744249 5.14545 0
M  V30 8196 C 772.435 0.0635185 5.0226 0
M  V30 8197 C 774.429 1.64261 6.15871 0
M  V30 8198 C 772.116 0.965423 6.03426 0
M  V30 8199 C 773.114 1.75352 6.60106 0
M  V30 8200 O 772.802 2.64029 7.59305 0
M  V30 8201 H 772.534 -0.110604 0.66689 0
M  V30 8202 H 775.088 0.320436 2.02885 0
M  V30 8203 H 773.318 -1.83134 3.40586 0
M  V30 8204 H 775.007 -1.57823 3.73961 0
M  V30 8205 H 775.773 0.665476 4.80413 0
M  V30 8206 H 771.652 -0.539762 4.57829 0
M  V30 8207 H 775.196 2.25819 6.60039 0
M  V30 8208 H 771.093 1.04526 6.36981 0
M  V30 8209 H 771.861 2.57974 7.76783 0
M  V30 8210 N 774.524 -1.57472 -0.0634922 0
M  V30 8211 C 775.77 -1.88792 -0.756903 0
M  V30 8212 C 776.125 -0.804679 -1.74765 0
M  V30 8213 O 775.418 0.19033 -1.90652 0
M  V30 8214 C 775.612 -3.24521 -1.49736 0
M  V30 8215 C 775.441 -4.45946 -0.579833 0
M  V30 8216 C 774.211 -5.04848 -0.213667 0
M  V30 8217 C 776.409 -5.14143 0.12703 0
M  V30 8218 N 774.391 -6.09795 0.708712 0
M  V30 8219 C 775.762 -6.1334 0.906295 0
M  V30 8220 C 777.817 -4.97508 0.197625 0
M  V30 8221 C 776.52 -6.97697 1.74961 0
M  V30 8222 C 778.546 -5.82398 1.02794 0
M  V30 8223 C 777.908 -6.81139 1.79523 0
M  V30 8224 H 774.007 -0.740235 -0.252142 0
M  V30 8225 H 776.591 -1.94692 -0.0181026 0
M  V30 8226 H 774.762 -3.19615 -2.20683 0
M  V30 8227 H 776.494 -3.43464 -2.14044 0
M  V30 8228 H 773.249 -4.70177 -0.568357 0
M  V30 8229 H 773.673 -6.66929 1.16339 0
M  V30 8230 H 778.315 -4.21077 -0.381261 0
M  V30 8231 H 776.033 -7.73496 2.33943 0
M  V30 8232 H 779.619 -5.71581 1.08565 0
M  V30 8233 H 778.499 -7.45687 2.42736 0
M  V30 8234 N 776.003 0.335068 -1.53997 0
M  V30 8235 C 777.228 1.09859 -1.75914 0
M  V30 8236 C 777.653 1.81308 -0.500915 0
M  V30 8237 O 777.011 1.72854 0.54693 0
M  V30 8238 C 777.059 2.08122 -2.94478 0
M  V30 8239 O 776.163 3.15805 -2.65219 0
M  V30 8240 H 775.504 0.317313 -0.583274 0
M  V30 8241 H 778.034 0.382872 -2.00986 0
M  V30 8242 H 778.044 2.51195 -3.21504 0
M  V30 8243 H 776.719 1.55517 -3.8573 0
M  V30 8244 H 775.296 2.77489 -2.49107 0
M  V30 8245 N 777.481 1.45874 0.596531 0
M  V30 8246 C 778.444 1.54988 1.68853 0
M  V30 8247 C 779.444 0.428302 1.54991 0
M  V30 8248 O 780.634 0.692158 1.59859 0
M  V30 8249 C 777.766 1.457 3.08195 0
M  V30 8250 H 778.959 2.52294 1.62135 0
M  V30 8251 H 776.512 1.33479 0.813206 0
M  V30 8252 H 777.247 0.496204 3.20481 0
M  V30 8253 H 777.032 2.27061 3.19665 0
M  V30 8254 H 778.522 1.55133 3.87716 0
M  V30 8255 N 778.959 -0.83999 1.33349 0
M  V30 8256 C 780.205 -1.59753 1.24927 0
M  V30 8257 C 780.538 -1.93318 -0.184855 0
M  V30 8258 O 779.813 -1.586 -1.12589 0
M  V30 8259 C 780.096 -2.90829 2.12345 0
M  V30 8260 C 779.949 -2.63953 3.6421 0
M  V30 8261 C 781.268 -3.92246 1.99577 0
M  V30 8262 H 778.387 -0.579654 0.45516 0
M  V30 8263 H 781.029 -0.968909 1.63439 0
M  V30 8264 H 779.179 -3.44478 1.79631 0
M  V30 8265 H 780.851 -2.16745 4.07209 0
M  V30 8266 H 779.094 -1.97671 3.86146 0
M  V30 8267 H 779.765 -3.57348 4.20721 0
M  V30 8268 H 782.241 -3.479 2.28265 0
M  V30 8269 H 781.117 -4.81793 2.62996 0
M  V30 8270 H 781.378 -4.3138 0.967673 0
M  V30 8271 N 780.437 -1.16799 -1.0581 0
M  V30 8272 C 781.685 -0.950642 -1.78346 0
M  V30 8273 C 782.006 0.522524 -1.87869 0
M  V30 8274 O 781.276 1.3795 -1.39092 0
M  V30 8275 H 779.856 -0.348736 -0.6606 0
M  V30 8276 H 782.518 -1.47158 -1.27791 0
M  V30 8277 H 781.614 -1.37359 -2.80248 0
M  V30 8278 N 781.915 1.24427 -0.967243 0
M  V30 8279 C 783.162 1.92487 -0.62888 0
M  V30 8280 C 783.49 1.75623 0.835871 0
M  V30 8281 O 782.745 1.1027 1.61675 0
M  V30 8282 C 783.044 3.44568 -0.949096 0
M  V30 8283 C 782.71 3.816 -2.40192 0
M  V30 8284 C 781.372 3.9142 -2.799 0
M  V30 8285 C 783.724 3.99715 -3.34481 0
M  V30 8286 C 781.052 4.16771 -4.12939 0
M  V30 8287 C 783.404 4.26562 -4.67148 0
M  V30 8288 C 782.068 4.34601 -5.06634 0
M  V30 8289 H 781.338 0.704361 -0.230124 0
M  V30 8290 H 783.985 1.4772 -1.21864 0
M  V30 8291 H 782.29 3.90819 -0.277085 0
M  V30 8292 H 783.987 3.95436 -0.665692 0
M  V30 8293 H 780.577 3.74522 -2.08402 0
M  V30 8294 H 784.761 3.91531 -3.04987 0
M  V30 8295 H 780.017 4.21214 -4.43158 0
M  V30 8296 H 784.191 4.39523 -5.40178 0
M  V30 8297 H 781.818 4.53998 -6.09746 0
M  V30 8298 N 783.393 0.737304 1.3929 0
M  V30 8299 C 784.641 0.285691 2.00071 0
M  V30 8300 C 784.962 -1.13169 1.58801 0
M  V30 8301 O 784.232 -1.77104 0.837308 0
M  V30 8302 H 782.812 0.102638 0.739915 0
M  V30 8303 H 785.474 0.947775 1.70303 0
M  V30 8304 H 784.57 0.335906 3.10287 0
M  V30 8305 N 784.871 -1.49948 0.485112 0
M  V30 8306 C 786.119 -2.01996 -0.0648775 0
M  V30 8307 C 786.44 -1.36819 -1.38945 0
M  V30 8308 O 785.71 -0.518163 -1.88923 0
M  V30 8309 H 784.29 -0.746513 -0.0269662 0
M  V30 8310 H 786.952 -1.84136 0.638733 0
M  V30 8311 H 786.048 -3.11418 -0.20617 0
M  V30 8312 N 786.349 -0.21828 -1.56081 0
M  V30 8313 C 787.312 0.679633 -2.18892 0
M  V30 8314 C 788.312 1.12405 -1.14986 0
M  V30 8315 O 789.502 1.03339 -1.40238 0
M  V30 8316 C 786.634 1.93063 -2.80962 0
M  V30 8317 H 787.827 0.132066 -2.99609 0
M  V30 8318 H 785.38 0.0313374 -1.56269 0
M  V30 8319 H 786.115 2.52015 -2.04106 0
M  V30 8320 H 785.9 1.62046 -3.57048 0
M  V30 8321 H 787.39 2.57043 -3.29118 0
M  V30 8322 N 787.827 1.57504 0.0551401 0
M  V30 8323 C 788.757 2.07864 1.06372 0
M  V30 8324 C 789.738 0.975565 1.39344 0
M  V30 8325 O 790.923 1.24929 1.48682 0
M  V30 8326 C 788.053 2.53643 2.3724 0
M  V30 8327 C 787.007 3.67978 2.18578 0
M  V30 8328 C 786.333 3.9987 3.54976 0
M  V30 8329 C 787.633 4.97405 1.59329 0
M  V30 8330 H 789.327 2.92379 0.644595 0
M  V30 8331 H 786.873 1.40654 0.308619 0
M  V30 8332 H 788.826 2.8749 3.08103 0
M  V30 8333 H 787.55 1.66177 2.81163 0
M  V30 8334 H 786.209 3.3444 1.50152 0
M  V30 8335 H 785.857 3.0951 3.965 0
M  V30 8336 H 785.557 4.76867 3.43324 0
M  V30 8337 H 787.081 4.36228 4.27244 0
M  V30 8338 H 788.495 5.29375 2.20078 0
M  V30 8339 H 786.892 5.78837 1.58327 0
M  V30 8340 H 787.962 4.81697 0.55638 0
M  V30 8341 N 789.305 -0.326896 1.54172 0
M  V30 8342 C 790.551 -1.06681 1.72473 0
M  V30 8343 C 790.884 -1.87779 0.49523 0
M  V30 8344 O 790.159 -1.87754 -0.507803 0
M  V30 8345 C 790.442 -1.99429 2.99834 0
M  V30 8346 C 790.295 -1.21682 4.33028 0
M  V30 8347 C 791.614 -2.99002 3.22933 0
M  V30 8348 H 788.733 -0.386438 0.627563 0
M  V30 8349 H 791.375 -0.343779 1.86864 0
M  V30 8350 H 789.525 -2.61081 2.87696 0
M  V30 8351 H 791.197 -0.625153 4.57044 0
M  V30 8352 H 789.44 -0.519045 4.30684 0
M  V30 8353 H 790.111 -1.89766 5.18356 0
M  V30 8354 H 792.587 -2.4747 3.34511 0
M  V30 8355 H 791.463 -3.61085 4.13412 0
M  V30 8356 H 791.724 -3.71281 2.40006 0
M  V30 8357 N 790.784 -1.46188 -0.588786 0
M  V30 8358 C 792.032 -1.50885 -1.34455 0
M  V30 8359 C 792.353 -0.159555 -1.94346 0
M  V30 8360 O 791.623 0.813239 -1.78222 0
M  V30 8361 H 790.203 -0.555707 -0.499198 0
M  V30 8362 H 792.865 -1.82277 -0.690014 0
M  V30 8363 H 791.961 -2.25816 -2.15438 0
M  V30 8364 N 792.262 0.832906 -1.33792 0
M  V30 8365 C 793.192 1.95828 -1.27176 0
M  V30 8366 C 794.173 1.69427 -0.15114 0
M  V30 8367 O 795.358 1.91167 -0.341886 0
M  V30 8368 C 792.488 3.32098 -1.01629 0
M  V30 8369 C 791.442 3.72912 -2.10049 0
M  V30 8370 C 790.768 5.07054 -1.69706 0
M  V30 8371 C 792.068 3.86064 -3.51783 0
M  V30 8372 H 793.762 2.01622 -2.21334 0
M  V30 8373 H 791.308 0.96866 -1.0655 0
M  V30 8374 H 793.261 4.10402 -0.956474 0
M  V30 8375 H 791.985 3.26577 -0.0390956 0
M  V30 8376 H 790.644 2.96876 -2.15082 0
M  V30 8377 H 790.292 4.9801 -0.706737 0
M  V30 8378 H 789.992 5.35333 -2.42264 0
M  V30 8379 H 791.516 5.87827 -1.65202 0
M  V30 8380 H 792.93 4.54665 -3.49218 0
M  V30 8381 H 791.327 4.25787 -4.22878 0
M  V30 8382 H 792.397 2.88344 -3.89854 0
M  V30 8383 N 793.74 1.17359 1.05189 0
M  V30 8384 C 794.989 0.956412 1.77583 0
M  V30 8385 C 795.302 -0.516018 1.88671 0
M  V30 8386 O 796.508 -0.851401 2.57805 0
M  V30 8387 C 794.964 1.66203 3.19225 0
M  V30 8388 C 794.572 3.17299 3.16267 0
M  V30 8389 C 796.316 1.52725 3.96075 0
M  V30 8390 C 794.223 3.8055 4.52698 0
M  V30 8391 H 793.153 0.354204 0.665624 0
M  V30 8392 H 795.804 1.40612 1.17901 0
M  V30 8393 H 794.186 1.14006 3.79234 0
M  V30 8394 H 795.36 3.76431 2.65776 0
M  V30 8395 H 793.675 3.3079 2.52917 0
M  V30 8396 H 796.272 1.97351 4.96947 0
M  V30 8397 H 796.615 0.477803 4.13549 0
M  V30 8398 H 797.148 2.02139 3.42614 0
M  V30 8399 H 793.887 4.85492 4.4043 0
M  V30 8400 H 793.407 3.26206 5.03339 0
M  V30 8401 H 795.086 3.82757 5.21638 0
M  V30 8402 N 795.218 -1.23913 0.973828 0
M  V30 8403 C 796.15 -2.24397 0.466763 0
M  V30 8404 C 797.163 -1.57078 -0.427828 0
M  V30 8405 O 798.352 -1.76973 -0.233019 0
M  V30 8406 C 795.452 -3.37141 -0.344798 0
M  V30 8407 C 794.625 -4.34037 0.541349 0
M  V30 8408 C 793.684 -5.2576 -0.215243 0
M  V30 8409 O 792.71 -5.67842 0.39291 0
M  V30 8410 N 793.912 -5.60702 -1.5031 0
M  V30 8411 H 796.677 -2.68536 1.33074 0
M  V30 8412 H 794.238 -1.38017 0.846346 0
M  V30 8413 H 796.23 -3.95476 -0.859133 0
M  V30 8414 H 794.8 -2.92239 -1.10974 0
M  V30 8415 H 794.02 -3.74302 1.23659 0
M  V30 8416 H 795.308 -4.95738 1.1455 0
M  V30 8417 H 794.706 -5.28451 -2.01882 0
M  V30 8418 H 793.263 -6.21538 -1.96301 0
M  V30 8419 N 796.696 -0.74468 -1.38897 0
M  V30 8420 C 797.945 -0.293716 -1.9955 0
M  V30 8421 C 798.258 1.12831 -1.59777 0
M  V30 8422 O 799.464 1.67929 -2.13336 0
M  V30 8423 C 797.92 -0.474188 -3.56762 0
M  V30 8424 C 797.528 -1.90472 -4.05493 0
M  V30 8425 C 799.272 -0.0854875 -4.24414 0
M  V30 8426 C 797.179 -2.03423 -5.55314 0
M  V30 8427 H 796.109 -0.106066 -0.746502 0
M  V30 8428 H 798.76 -0.919948 -1.58774 0
M  V30 8429 H 797.142 0.221092 -3.95382 0
M  V30 8430 H 798.316 -2.63274 -3.78184 0
M  V30 8431 H 796.631 -2.24752 -3.50536 0
M  V30 8432 H 799.228 -0.161133 -5.34457 0
M  V30 8433 H 799.571 0.96066 -4.05064 0
M  V30 8434 H 800.104 -0.732286 -3.91002 0
M  V30 8435 H 796.843 -3.0626 -5.79556 0
M  V30 8436 H 796.363 -1.3507 -5.84394 0
M  V30 8437 H 798.042 -1.81996 -6.20876 0
M  V30 8438 N 798.174 1.49689 -0.493057 0
M  V30 8439 C 799.104 2.31826 0.279073 0
M  V30 8440 C 800.085 1.39733 0.969987 0
M  V30 8441 O 801.27 1.68646 0.962925 0
M  V30 8442 C 798.4 3.20046 1.34862 0
M  V30 8443 C 797.354 4.20869 0.77805 0
M  V30 8444 C 796.68 4.97971 1.94753 0
M  V30 8445 C 797.98 5.21813 -0.225543 0
M  V30 8446 H 799.674 2.96627 -0.406512 0
M  V30 8447 H 797.22 1.42647 -0.196943 0
M  V30 8448 H 799.173 3.76315 1.89645 0
M  V30 8449 H 797.897 2.53172 2.06328 0
M  V30 8450 H 796.556 3.65733 0.252036 0
M  V30 8451 H 796.204 4.27552 2.64969 0
M  V30 8452 H 795.904 5.66186 1.57187 0
M  V30 8453 H 797.428 5.57082 2.49984 0
M  V30 8454 H 798.842 5.72823 0.233864 0
M  V30 8455 H 797.239 5.97872 -0.516622 0
M  V30 8456 H 798.309 4.71209 -1.14412 0
M  V30 8457 N 799.652 0.226554 1.55963 0
M  V30 8458 C 800.615 -0.668015 2.19249 0
M  V30 8459 C 801.615 -1.11794 1.1558 0
M  V30 8460 O 802.805 -1.02593 1.40784 0
M  V30 8461 C 799.937 -1.91571 2.81981 0
M  V30 8462 H 801.13 -0.116175 2.99675 0
M  V30 8463 H 798.683 -0.0230497 1.56283 0
M  V30 8464 H 799.418 -2.50929 2.05439 0
M  V30 8465 H 799.203 -1.6015 3.57903 0
M  V30 8466 H 800.693 -2.55294 3.30477 0
M  V30 8467 N 801.13 -1.57531 -0.0467866 0
M  V30 8468 C 802.358 -1.92696 -0.753371 0
M  V30 8469 C 802.773 -0.824792 -1.69831 0
M  V30 8470 O 802.13 0.200155 -1.81399 0
M  V30 8471 C 802.181 -3.27728 -1.52566 0
M  V30 8472 O 801.902 -4.3371 -0.618674 0
M  V30 8473 C 803.403 -3.77066 -2.33101 0
M  V30 8474 H 800.623 -0.636367 -0.212788 0
M  V30 8475 H 803.167 -2.04498 -0.00959361 0
M  V30 8476 H 801.322 -3.17378 -2.22148 0
M  V30 8477 H 801.736 -5.11548 -1.15839 0
M  V30 8478 H 803.21 -4.74109 -2.82709 0
M  V30 8479 H 803.687 -3.07348 -3.13741 0
M  V30 8480 H 804.293 -3.90442 -1.68628 0
M  V30 8481 N 802.608 0.318715 -1.54344 0
M  V30 8482 C 803.538 1.39751 -1.87061 0
M  V30 8483 C 804.519 1.53741 -0.727848 0
M  V30 8484 O 805.704 1.67541 -0.982016 0
M  V30 8485 C 802.834 2.76446 -2.10226 0
M  V30 8486 C 801.788 2.77239 -3.26071 0
M  V30 8487 C 801.114 4.17056 -3.34617 0
M  V30 8488 C 802.414 2.40555 -4.63606 0
M  V30 8489 H 804.108 1.12619 -2.77412 0
M  V30 8490 H 801.654 0.540318 -1.33479 0
M  V30 8491 H 803.607 3.51985 -2.31699 0
M  V30 8492 H 802.331 3.05066 -1.16629 0
M  V30 8493 H 800.99 2.04155 -3.04493 0
M  V30 8494 H 800.638 4.42824 -2.3857 0
M  V30 8495 H 800.338 4.18492 -4.12478 0
M  V30 8496 H 801.862 4.94401 -3.5833 0
M  V30 8497 H 803.276 3.05808 -4.84927 0
M  V30 8498 H 801.673 2.53234 -5.44052 0
M  V30 8499 H 802.743 1.35698 -4.65526 0
M  V30 8500 N 804.086 1.46499 0.581025 0
M  V30 8501 C 805.326 1.53456 1.35021 0
M  V30 8502 C 805.69 0.182542 1.9113 0
M  V30 8503 O 806.891 0.126874 2.685 0
M  V30 8504 C 805.162 2.60387 2.44812 0
M  V30 8505 S 806.721 2.86762 3.32134 0
M  V30 8506 H 803.539 0.54216 0.459982 0
M  V30 8507 H 806.141 1.83742 0.667754 0
M  V30 8508 H 804.845 3.57253 2.01986 0
M  V30 8509 H 804.376 2.31839 3.17828 0
M  V30 8510 H 806.391 2.2216 4.43688 0
M  V30 8511 N 805.565 -0.825799 1.34232 0
M  V30 8512 C 806.475 -1.9684 1.27638 0
M  V30 8513 C 807.491 -1.73018 0.184569 0
M  V30 8514 O 808.667 -1.97172 0.410525 0
M  V30 8515 C 805.732 -3.31084 1.02879 0
M  V30 8516 C 804.793 -3.67933 2.21188 0
M  V30 8517 C 804.026 -4.95772 1.976 0
M  V30 8518 O 804.249 -5.62721 0.93281 0
M  V30 8519 O 803.183 -5.30431 2.84477 0
M  V30 8520 H 807.009 -2.05346 2.23756 0
M  V30 8521 H 804.594 -0.960772 1.1441 0
M  V30 8522 H 806.476 -4.11492 0.908406 0
M  V30 8523 H 805.151 -3.23552 0.0979821 0
M  V30 8524 H 804.058 -2.87981 2.38784 0
M  V30 8525 H 805.391 -3.80147 3.12648 0
M  V30 8526 N 807.043 -1.17915 -1.04565 0
M  V30 8527 C 808.289 -0.982872 -1.78076 0
M  V30 8528 C 808.644 0.482843 -1.86243 0
M  V30 8529 O 807.937 1.35383 -1.3558 0
M  V30 8530 C 808.131 -1.56528 -3.213 0
M  V30 8531 C 807.96 -3.0861 -3.27093 0
M  V30 8532 C 806.73 -3.77389 -3.36014 0
M  V30 8533 C 808.928 -4.06146 -3.15515 0
M  V30 8534 N 806.91 -5.1702 -3.31004 0
M  V30 8535 C 808.281 -5.32268 -3.17948 0
M  V30 8536 C 810.336 -3.97732 -2.99522 0
M  V30 8537 C 809.039 -6.50951 -3.06031 0
M  V30 8538 C 811.065 -5.16007 -2.88948 0
M  V30 8539 C 810.427 -6.41018 -2.9202 0
M  V30 8540 H 806.526 -0.413617 -0.66366 0
M  V30 8541 H 809.11 -1.49607 -1.24603 0
M  V30 8542 H 807.281 -1.07833 -3.73131 0
M  V30 8543 H 809.013 -1.30501 -3.83082 0
M  V30 8544 H 805.768 -3.28098 -3.41538 0
M  V30 8545 H 806.192 -5.90031 -3.31952 0
M  V30 8546 H 810.834 -3.01919 -2.95981 0
M  V30 8547 H 808.552 -7.46968 -3.08326 0
M  V30 8548 H 812.138 -5.11283 -2.77635 0
M  V30 8549 H 811.018 -7.30999 -2.83919 0
M  V30 8550 N 808.521 1.23394 -0.980386 0
M  V30 8551 C 809.454 2.23404 -0.465404 0
M  V30 8552 C 810.432 1.55735 0.467471 0
M  V30 8553 O 811.616 1.84295 0.395921 0
M  V30 8554 C 808.743 3.3712 0.32672 0
M  V30 8555 C 807.789 4.22935 -0.550296 0
M  V30 8556 S 808.622 4.96824 -1.99814 0
M  V30 8557 C 809.778 6.13991 -1.21516 0
M  V30 8558 H 810.011 2.6674 -1.31289 0
M  V30 8559 H 807.544 1.32874 -0.78638 0
M  V30 8560 H 809.502 4.03065 0.777738 0
M  V30 8561 H 808.163 2.92317 1.14933 0
M  V30 8562 H 807.356 5.03966 0.0585298 0
M  V30 8563 H 806.958 3.62058 -0.937558 0
M  V30 8564 H 809.25 6.75822 -0.476476 0
M  V30 8565 H 810.193 6.7926 -2.0003 0
M  V30 8566 H 810.601 5.59708 -0.733949 0
M  V30 8567 N 809.999 0.752036 1.385 0
M  V30 8568 C 811.229 0.317812 2.04141 0
M  V30 8569 C 811.637 -1.05822 1.56839 0
M  V30 8570 O 810.98 -1.68311 0.736016 0
M  V30 8571 C 811.042 0.260205 3.58557 0
M  V30 8572 C 810.706 1.57753 4.28909 0
M  V30 8573 C 811.703 2.52642 4.54387 0
M  V30 8574 C 809.388 1.84653 4.67128 0
M  V30 8575 C 811.382 3.72653 5.17116 0
M  V30 8576 C 809.069 3.04938 5.29581 0
M  V30 8577 C 810.067 3.98759 5.54509 0
M  V30 8578 O 809.755 5.16929 6.15662 0
M  V30 8579 H 809.487 0.133931 0.6626 0
M  V30 8580 H 812.041 1.02138 1.78205 0
M  V30 8581 H 810.271 -0.499596 3.83459 0
M  V30 8582 H 811.96 -0.144295 4.05643 0
M  V30 8583 H 812.726 2.33135 4.25292 0
M  V30 8584 H 808.605 1.12464 4.47071 0
M  V30 8585 H 812.149 4.45898 5.36489 0
M  V30 8586 H 808.046 3.24339 5.58099 0
M  V30 8587 H 808.814 5.1749 6.3415 0
M  V30 8588 N 811.477 -1.49425 0.500989 0
M  V30 8589 C 812.723 -2.02753 -0.0436 0
M  V30 8590 C 813.056 -1.37991 -1.36646 0
M  V30 8591 O 812.331 -0.515597 -1.87542 0
M  V30 8592 C 812.614 -3.59565 -0.19616 0
M  V30 8593 C 812.467 -4.34855 1.14982 0
M  V30 8594 C 813.786 -4.30014 -0.936795 0
M  V30 8595 H 810.905 -0.73686 -0.0143711 0
M  V30 8596 H 813.547 -1.78448 0.652397 0
M  V30 8597 H 811.697 -3.80405 -0.788959 0
M  V30 8598 H 813.369 -4.25512 1.7815 0
M  V30 8599 H 811.612 -3.97414 1.73911 0
M  V30 8600 H 812.283 -5.42933 0.996385 0
M  V30 8601 H 814.759 -4.1383 -0.434036 0
M  V30 8602 H 813.635 -5.39483 -1.01238 0
M  V30 8603 H 813.896 -3.95257 -1.9805 0
M  V30 8604 N 812.955 -0.234822 -1.55841 0
M  V30 8605 C 814.366 0.270588 -1.84729 0
M  V30 8606 C 814.717 1.58494 -1.15646 0
M  V30 8607 O 813.842 2.12071 -0.430667 0
M  V30 8608 C 814.437 0.497733 -3.35124 0
M  V30 8609 C 812.996 0.947428 -3.64281 0
M  V30 8610 C 812.143 0.01787 -2.77294 0
M  V30 8611 H 815.094 -0.457691 -1.51957 0
M  V30 8612 H 815.115 1.34199 -3.56049 0
M  V30 8613 H 814.627 -0.459037 -3.85376 0
M  V30 8614 H 812.728 1.91709 -3.19497 0
M  V30 8615 H 812.841 0.812651 -4.72158 0
M  V30 8616 H 811.205 0.527071 -2.49187 0
M  V30 8617 H 811.988 -0.934056 -3.30349 0
M  V30 8618 N 814.433 1.57553 0.0384317 0
M  V30 8619 C 815.849 1.54663 0.39391 0
M  V30 8620 C 816.049 0.959685 1.77179 0
M  V30 8621 O 815.105 0.576647 2.45827 0
M  V30 8622 C 816.418 2.99156 0.304352 0
M  V30 8623 C 817.966 3.10659 0.382119 0
M  V30 8624 C 818.441 4.56866 0.322111 0
M  V30 8625 N 819.932 4.61629 0.38119 0
M  V30 8626 C 820.667 5.72284 0.357501 0
M  V30 8627 N 820.163 6.92207 0.286654 0
M  V30 8628 N 821.956 5.60628 0.406538 0
M  V30 8629 H 814.107 1.9406 -0.86339 0
M  V30 8630 H 816.37 0.889673 -0.327392 0
M  V30 8631 H 816.076 3.45788 -0.642141 0
M  V30 8632 H 815.95 3.60753 1.10168 0
M  V30 8633 H 818.337 2.6398 1.31904 0
M  V30 8634 H 818.418 2.5191 -0.444391 0
M  V30 8635 H 818.062 5.0421 -0.611104 0
M  V30 8636 H 817.992 5.13515 1.1666 0
M  V30 8637 H 820.483 3.75343 0.438838 0
M  V30 8638 H 820.796 7.72316 0.273421 0
M  V30 8639 H 819.141 6.9454 0.252841 0
M  V30 8640 H 822.332 4.65836 0.459812 0
M  V30 8641 H 822.505 6.46858 0.384608 0
M  V30 8642 N 815.911 -0.310526 1.54511 0
M  V30 8643 C 817.327 -0.655637 1.45511 0
M  V30 8644 C 817.527 -1.91114 0.638564 0
M  V30 8645 O 816.583 -2.52098 0.142497 0
M  V30 8646 C 817.896 -0.817501 2.89374 0
M  V30 8647 C 819.444 -0.914003 2.99358 0
M  V30 8648 C 819.919 -1.10794 4.44397 0
M  V30 8649 N 821.41 -1.17437 4.48066 0
M  V30 8650 C 822.145 -1.34255 5.57461 0
M  V30 8651 N 821.641 -1.48032 6.768 0
M  V30 8652 N 823.434 -1.37067 5.45132 0
M  V30 8653 H 815.585 0.514506 2.06074 0
M  V30 8654 H 817.848 0.168478 0.932909 0
M  V30 8655 H 817.554 0.034003 3.51684 0
M  V30 8656 H 817.428 -1.7094 3.36243 0
M  V30 8657 H 819.815 -1.756 2.37168 0
M  V30 8658 H 819.896 0.00170958 2.558 0
M  V30 8659 H 819.54 -0.270743 5.07178 0
M  V30 8660 H 819.47 -2.03773 4.85576 0
M  V30 8661 H 821.961 -1.08181 3.62084 0
M  V30 8662 H 822.274 -1.60593 7.5593 0
M  V30 8663 H 820.619 -1.45105 6.79683 0
M  V30 8664 H 823.81 -1.25909 4.50849 0
M  V30 8665 H 823.983 -1.49831 6.3044 0
M  V30 8666 N 817.389 -1.46805 -0.573248 0
M  V30 8667 C 818.635 -1.53816 -1.33088 0
M  V30 8668 C 818.99 -0.191162 -1.91448 0
M  V30 8669 O 818.283 0.801299 -1.7404 0
M  V30 8670 C 818.477 -2.58001 -2.47326 0
M  V30 8671 C 818.306 -4.027 -2.00157 0
M  V30 8672 C 817.076 -4.70319 -1.84737 0
M  V30 8673 C 819.274 -4.90211 -1.55557 0
M  V30 8674 N 817.256 -5.99598 -1.31739 0
M  V30 8675 C 818.627 -6.09389 -1.14215 0
M  V30 8676 C 820.682 -4.76784 -1.43461 0
M  V30 8677 C 819.385 -7.16625 -0.619809 0
M  V30 8678 C 821.411 -5.84101 -0.926297 0
M  V30 8679 C 820.773 -7.02458 -0.522715 0
M  V30 8680 H 816.872 -0.617642 -0.479627 0
M  V30 8681 H 819.456 -1.83471 -0.65164 0
M  V30 8682 H 817.627 -2.3024 -3.128 0
M  V30 8683 H 819.359 -2.54951 -3.14296 0
M  V30 8684 H 816.114 -4.25982 -2.06969 0
M  V30 8685 H 816.538 -6.68431 -1.07374 0
M  V30 8686 H 821.18 -3.85661 -1.73279 0
M  V30 8687 H 818.898 -8.07508 -0.309228 0
M  V30 8688 H 822.484 -5.75755 -0.836485 0
M  V30 8689 H 821.364 -7.84083 -0.135467 0
M  V30 8690 N 818.867 0.818669 -1.34668 0
M  V30 8691 C 819.83 1.9114 -1.26483 0
M  V30 8692 C 820.83 1.598 -0.179044 0
M  V30 8693 O 822.02 1.6876 -0.431952 0
M  V30 8694 C 819.152 3.27285 -0.95381 0
M  V30 8695 H 820.345 1.9982 -2.23634 0
M  V30 8696 H 817.898 1.01314 -1.19018 0
M  V30 8697 H 818.633 3.24297 0.0143428 0
M  V30 8698 H 818.418 3.51416 -1.73924 0
M  V30 8699 H 819.908 4.07299 -0.921827 0
M  V30 8700 N 820.346 1.18468 1.03938 0
M  V30 8701 C 821.594 0.978895 1.76811 0
M  V30 8702 C 821.915 -0.49257 1.88676 0
M  V30 8703 O 821.185 -1.3572 1.41269 0
M  V30 8704 H 819.765 0.359201 0.654968 0
M  V30 8705 H 822.427 1.49173 1.25433 0
M  V30 8706 H 821.523 1.418 2.78027 0
M  V30 8707 N 821.824 -1.22873 0.986916 0
M  V30 8708 C 822.787 -2.2281 0.537442 0
M  V30 8709 C 823.787 -1.56331 -0.37646 0
M  V30 8710 O 824.977 -1.73376 -0.169247 0
M  V30 8711 C 822.109 -3.40195 -0.219082 0
M  V30 8712 H 823.302 -2.64089 1.42116 0
M  V30 8713 H 820.855 -1.35819 0.773488 0
M  V30 8714 H 821.59 -3.04381 -1.11905 0
M  V30 8715 H 821.375 -3.89657 0.437026 0
M  V30 8716 H 822.865 -4.14326 -0.521926 0
M  V30 8717 N 823.302 -0.75937 -1.38099 0
M  V30 8718 C 824.234 -0.0956547 -2.29 0
M  V30 8719 C 825.247 0.677561 -1.4803 0
M  V30 8720 O 826.436 0.517696 -1.70828 0
M  V30 8721 C 823.536 0.88844 -3.27047 0
M  V30 8722 C 822.709 0.171652 -4.37063 0
M  V30 8723 C 821.768 1.06733 -5.15262 0
M  V30 8724 O 820.794 0.535698 -5.66674 0
M  V30 8725 N 821.996 2.39486 -5.28797 0
M  V30 8726 H 824.761 -0.876354 -2.86601 0
M  V30 8727 H 822.322 -0.61065 -1.49942 0
M  V30 8728 H 824.314 1.49079 -3.76241 0
M  V30 8729 H 822.884 1.57018 -2.70304 0
M  V30 8730 H 822.104 -0.611473 -3.89429 0
M  V30 8731 H 823.392 -0.324121 -5.07767 0
M  V30 8732 H 822.79 2.85127 -4.88589 0
M  V30 8733 H 821.347 2.94758 -5.81344 0
M  V30 8734 N 824.78 1.49157 -0.508906 0
M  V30 8735 C 825.73 2.26215 0.284705 0
M  V30 8736 C 826.714 1.31401 0.928586 0
M  V30 8737 O 827.906 1.56073 0.834877 0
M  V30 8738 C 825.035 3.15906 1.34382 0
M  V30 8739 C 824.121 4.18186 0.705785 0
M  V30 8740 N 824.512 5.05419 -0.196214 0
M  V30 8741 C 822.81 4.35425 0.965457 0
M  V30 8742 C 823.511 5.78977 -0.562222 0
M  V30 8743 N 822.487 5.43553 0.0717389 0
M  V30 8744 H 826.289 2.91033 -0.409543 0
M  V30 8745 H 823.803 1.59104 -0.325508 0
M  V30 8746 H 825.8 3.6975 1.92589 0
M  V30 8747 H 824.46 2.52642 2.03966 0
M  V30 8748 H 825.471 5.14781 -0.567526 0
M  V30 8749 H 822.148 3.83363 1.65346 0
M  V30 8750 H 823.538 6.59192 -1.30062 0
M  V30 8751 N 826.258 0.243083 1.55714 0
M  V30 8752 C 827.188 -0.652336 2.24203 0
M  V30 8753 C 828.169 -1.1843 1.221 0
M  V30 8754 O 829.354 -1.22435 1.50743 0
M  V30 8755 C 826.484 -1.85111 2.93856 0
M  V30 8756 C 825.438 -1.45208 4.02615 0
M  V30 8757 C 824.764 -2.73137 4.59674 0
M  V30 8758 C 826.064 -0.625988 5.18535 0
M  V30 8759 H 827.758 -0.0812504 2.9929 0
M  V30 8760 H 825.304 -0.0376388 1.43951 0
M  V30 8761 H 827.257 -2.48314 3.40468 0
M  V30 8762 H 825.981 -2.44751 2.16251 0
M  V30 8763 H 824.64 -0.843406 3.56766 0
M  V30 8764 H 824.288 -3.30967 3.78774 0
M  V30 8765 H 823.988 -2.47163 5.33089 0
M  V30 8766 H 825.512 -3.37245 5.09017 0
M  V30 8767 H 826.926 -1.16223 5.61396 0
M  V30 8768 H 825.323 -0.462465 5.98315 0
M  V30 8769 H 826.393 0.362652 4.83542 0
M  V30 8770 N 827.736 -1.57571 -0.0300757 0
M  V30 8771 C 828.961 -1.93879 -0.736601 0
M  V30 8772 C 829.386 -0.842998 -1.68152 0
M  V30 8773 O 828.744 0.20135 -1.80178 0
M  V30 8774 C 828.792 -3.29247 -1.47066 0
M  V30 8775 O 827.896 -3.21426 -2.58378 0
M  V30 8776 H 827.237 -0.633735 -0.198181 0
M  V30 8777 H 829.767 -2.04595 0.0141485 0
M  V30 8778 H 829.777 -3.64113 -1.84081 0
M  V30 8779 H 828.452 -4.08565 -0.77764 0
M  V30 8780 H 827.029 -2.98189 -2.23914 0
M  V30 8781 N 829.214 0.302327 -1.54673 0
M  V30 8782 C 830.161 1.37282 -1.85532 0
M  V30 8783 C 831.131 1.50437 -0.704129 0
M  V30 8784 O 832.316 1.65317 -0.952627 0
M  V30 8785 C 829.456 2.73309 -2.10704 0
M  V30 8786 C 828.569 2.68614 -3.38335 0
M  V30 8787 C 827.704 3.96626 -3.53357 0
M  V30 8788 C 826.743 3.86324 -4.74784 0
M  V30 8789 N 825.88 5.06109 -4.86619 0
M  V30 8790 H 830.72 1.10265 -2.76849 0
M  V30 8791 H 828.257 0.533346 -1.37091 0
M  V30 8792 H 830.215 3.52414 -2.23294 0
M  V30 8793 H 828.845 2.98589 -1.22656 0
M  V30 8794 H 827.897 1.81381 -3.34373 0
M  V30 8795 H 829.209 2.56891 -4.27561 0
M  V30 8796 H 828.363 4.84168 -3.65604 0
M  V30 8797 H 827.102 4.11182 -2.62261 0
M  V30 8798 H 826.107 2.97166 -4.62572 0
M  V30 8799 H 827.332 3.73315 -5.67286 0
M  V30 8800 H 825.278 5.2113 -3.98446 0
M  V30 8801 H 825.195 4.96804 -5.69844 0
M  V30 8802 H 826.463 5.95306 -5.03221 0
M  V30 8803 N 830.692 1.47107 0.565454 0
M  V30 8804 C 832.108 1.32443 0.890566 0
M  V30 8805 C 832.308 0.308735 1.99121 0
M  V30 8806 O 831.364 -0.28265 2.50913 0
M  V30 8807 C 832.677 2.71548 1.2916 0
M  V30 8808 C 834.225 2.7977 1.40349 0
M  V30 8809 C 834.7 4.19497 1.83811 0
M  V30 8810 N 836.191 4.21998 1.90975 0
M  V30 8811 C 836.926 5.2702 2.25916 0
M  V30 8812 N 836.422 6.42353 2.59527 0
M  V30 8813 N 838.215 5.14393 2.26619 0
M  V30 8814 H 830.366 2.11786 -0.161328 0
M  V30 8815 H 832.629 0.947952 -0.00950631 0
M  V30 8816 H 832.335 3.47265 0.556753 0
M  V30 8817 H 832.209 3.02782 2.24951 0
M  V30 8818 H 834.596 2.0433 2.12916 0
M  V30 8819 H 834.677 2.522 0.427655 0
M  V30 8820 H 834.321 4.95439 1.11816 0
M  V30 8821 H 834.251 4.44486 2.82382 0
M  V30 8822 H 836.742 3.38791 1.6742 0
M  V30 8823 H 837.055 7.18252 2.85191 0
M  V30 8824 H 835.4 6.45687 2.57126 0
M  V30 8825 H 838.591 4.2332 1.99794 0
M  V30 8826 H 838.764 5.96349 2.5352 0
M  V30 8827 N 832.17 -0.811516 1.35101 0
M  V30 8828 C 833.1 -1.9378 1.30275 0
M  V30 8829 C 834.081 -1.69165 0.178075 0
M  V30 8830 O 835.266 -1.90599 0.372256 0
M  V30 8831 C 832.396 -3.30439 1.06899 0
M  V30 8832 C 831.35 -3.69523 2.15955 0
M  V30 8833 C 830.676 -5.0429 1.77751 0
M  V30 8834 C 831.976 -3.80419 3.57881 0
M  V30 8835 H 833.67 -1.98075 2.24514 0
M  V30 8836 H 831.216 -0.951586 1.08078 0
M  V30 8837 H 833.169 -4.08828 1.02164 0
M  V30 8838 H 831.893 -3.26473 0.0910462 0
M  V30 8839 H 830.552 -2.93416 2.19778 0
M  V30 8840 H 830.2 -4.96823 0.785876 0
M  V30 8841 H 829.9 -5.31411 2.5075 0
M  V30 8842 H 831.424 -5.85125 1.74533 0
M  V30 8843 H 832.838 -4.49051 3.56407 0
M  V30 8844 H 831.235 -4.19005 4.29598 0
M  V30 8845 H 832.305 -2.82105 3.94391 0
M  V30 8846 N 833.648 -1.19017 -1.03309 0
M  V30 8847 C 834.581 -0.867457 -2.1107 0
M  V30 8848 C 835.559 0.173752 -1.61669 0
M  V30 8849 O 836.743 0.0510077 -1.88431 0
M  V30 8850 C 833.87 -0.297459 -3.37391 0
M  V30 8851 C 832.916 -1.31706 -4.05655 0
M  V30 8852 S 833.749 -2.87591 -4.51721 0
M  V30 8853 C 834.905 -2.32122 -5.81266 0
M  V30 8854 H 835.138 -1.78008 -2.38119 0
M  V30 8855 H 832.671 -1.01686 -1.16187 0
M  V30 8856 H 834.629 0.0248889 -4.10492 0
M  V30 8857 H 833.29 0.5934 -3.08444 0
M  V30 8858 H 832.483 -0.867264 -4.96482 0
M  V30 8859 H 832.085 -1.58603 -3.38705 0
M  V30 8860 H 834.377 -1.70855 -6.55603 0
M  V30 8861 H 835.32 -3.2128 -6.31019 0
M  V30 8862 H 835.728 -1.74858 -5.36736 0
M  V30 8863 N 835.127 1.22348 -0.993418 0
M  V30 8864 C 836.374 1.9111 -0.669568 0
M  V30 8865 C 836.702 1.77357 0.79843 0
M  V30 8866 O 835.957 1.13675 1.593 0
M  V30 8867 C 836.256 3.42477 -1.02197 0
M  V30 8868 C 835.922 3.7642 -2.48232 0
M  V30 8869 C 834.584 3.85395 -2.88139 0
M  V30 8870 C 836.936 3.9253 -3.42884 0
M  V30 8871 C 834.264 4.07918 -4.21687 0
M  V30 8872 C 836.616 4.16557 -4.76091 0
M  V30 8873 C 835.28 4.23757 -5.15739 0
M  V30 8874 H 834.55 0.699321 -0.245012 0
M  V30 8875 H 837.197 1.45102 -1.2497 0
M  V30 8876 H 835.502 3.90143 -0.359921 0
M  V30 8877 H 837.199 3.93935 -0.74942 0
M  V30 8878 H 833.789 3.70017 -2.16299 0
M  V30 8879 H 837.973 3.84974 -3.13224 0
M  V30 8880 H 833.229 4.11719 -4.51993 0
M  V30 8881 H 837.403 4.27966 -5.4938 0
M  V30 8882 H 835.03 4.40962 -6.19239 0
M  V30 8883 N 836.605 0.766683 1.37694 0
M  V30 8884 C 837.535 0.163432 2.32927 0
M  V30 8885 C 838.516 -0.688861 1.55527 0
M  V30 8886 O 839.701 -0.627363 1.83787 0
M  V30 8887 C 836.831 -0.720416 3.39746 0
M  V30 8888 C 835.785 0.0301718 4.27989 0
M  V30 8889 C 835.111 -0.972788 5.25776 0
M  V30 8890 C 836.411 1.20623 5.0818 0
M  V30 8891 H 838.105 0.958988 2.83626 0
M  V30 8892 H 835.651 0.462601 1.36367 0
M  V30 8893 H 837.604 -1.15221 4.05342 0
M  V30 8894 H 836.328 -1.54844 2.8756 0
M  V30 8895 H 834.987 0.442685 3.63917 0
M  V30 8896 H 834.635 -1.79522 4.69873 0
M  V30 8897 H 834.335 -0.475145 5.85676 0
M  V30 8898 H 835.859 -1.40362 5.94248 0
M  V30 8899 H 837.273 0.851341 5.66944 0
M  V30 8900 H 835.67 1.63561 5.7738 0
M  V30 8901 H 836.74 2.01281 4.41151 0
M  V30 8902 N 838.083 -1.48885 0.516809 0
M  V30 8903 C 839.332 -2.01686 -0.0239899 0
M  V30 8904 C 839.645 -1.40029 -1.3657 0
M  V30 8905 O 840.851 -1.84249 -1.9941 0
M  V30 8906 C 839.307 -3.59779 -0.0931825 0
M  V30 8907 C 838.915 -4.30416 1.24283 0
M  V30 8908 C 840.659 -4.20471 -0.583507 0
M  V30 8909 C 838.566 -5.80408 1.13494 0
M  V30 8910 H 837.496 -0.753892 -0.0127376 0
M  V30 8911 H 840.147 -1.71273 0.65861 0
M  V30 8912 H 838.529 -3.86976 -0.840577 0
M  V30 8913 H 839.703 -4.14905 2.00476 0
M  V30 8914 H 838.018 -3.81539 1.66785 0
M  V30 8915 H 840.615 -5.30333 -0.681987 0
M  V30 8916 H 840.958 -3.84898 -1.58617 0
M  V30 8917 H 841.491 -3.97654 0.107814 0
M  V30 8918 H 838.23 -6.20532 2.11235 0
M  V30 8919 H 837.75 -5.98368 0.414167 0
M  V30 8920 H 839.429 -6.41781 0.820162 0
M  V30 8921 N 839.561 -0.251338 -1.55583 0
M  V30 8922 C 840.524 0.63305 -2.20284 0
M  V30 8923 C 841.524 1.09941 -1.17344 0
M  V30 8924 O 842.714 1.00341 -1.42399 0
M  V30 8925 C 839.846 1.8706 -2.84993 0
M  V30 8926 H 841.039 0.0684846 -2.99822 0
M  V30 8927 H 838.592 -0.00181653 -1.563 0
M  V30 8928 H 839.327 2.47629 -2.09405 0
M  V30 8929 H 839.112 1.54436 -3.60405 0
M  V30 8930 H 840.602 2.50004 -3.34496 0
M  V30 8931 N 841.039 1.57585 0.0217189 0
M  V30 8932 C 842.285 1.89887 0.712099 0
M  V30 8933 C 842.618 0.849971 1.74611 0
M  V30 8934 O 841.893 -0.13407 1.94037 0
M  V30 8935 C 842.176 3.32815 1.37499 0
M  V30 8936 C 842.029 4.48405 0.353993 0
M  V30 8937 C 843.348 3.74786 2.30703 0
M  V30 8938 H 840.467 0.690588 0.257405 0
M  V30 8939 H 843.109 1.89983 -0.0251145 0
M  V30 8940 H 841.259 3.32863 2.00335 0
M  V30 8941 H 842.931 4.60491 -0.273015 0
M  V30 8942 H 841.174 4.32573 -0.32599 0
M  V30 8943 H 841.845 5.45316 0.85644 0
M  V30 8944 H 844.321 3.76151 1.77904 0
M  V30 8945 H 843.197 4.75585 2.74061 0
M  V30 8946 H 843.458 3.07449 3.17691 0
M  V30 8947 N 842.517 -0.29412 1.54831 0
M  V30 8948 C 843.764 -1.02846 1.74439 0
M  V30 8949 C 844.092 -1.87029 0.533905 0
M  V30 8950 O 843.347 -1.8962 -0.484035 0
M  V30 8951 C 843.646 -1.95782 2.99006 0
M  V30 8952 C 843.312 -1.2752 4.32492 0
M  V30 8953 C 841.974 -1.08637 4.68777 0
M  V30 8954 C 844.326 -0.787761 5.15212 0
M  V30 8955 C 841.654 -0.39704 5.85355 0
M  V30 8956 C 844.006 -0.112123 6.32501 0
M  V30 8957 C 842.67 0.0886071 6.67441 0
M  V30 8958 H 841.94 -0.376341 0.638317 0
M  V30 8959 H 844.587 -0.302684 1.89093 0
M  V30 8960 H 842.892 -2.74911 2.79162 0
M  V30 8961 H 844.589 -2.52684 3.11371 0
M  V30 8962 H 841.179 -1.43226 4.03961 0
M  V30 8963 H 845.363 -0.921341 4.87673 0
M  V30 8964 H 840.619 -0.230597 6.10965 0
M  V30 8965 H 844.793 0.27344 6.95863 0
M  V30 8966 H 842.42 0.624748 7.57628 0
M  V30 8967 N 843.995 -1.47404 -0.557645 0
M  V30 8968 C 845.244 -1.53268 -1.31118 0
M  V30 8969 C 845.557 -0.199414 -1.94581 0
M  V30 8970 O 846.763 -0.136039 -2.71159 0
M  V30 8971 C 845.219 -2.70178 -2.37764 0
M  V30 8972 C 844.827 -4.10032 -1.80493 0
M  V30 8973 C 846.571 -2.85334 -3.14301 0
M  V30 8974 C 844.478 -5.18244 -2.84916 0
M  V30 8975 H 843.408 -0.570491 -0.493007 0
M  V30 8976 H 846.059 -1.73678 -0.592308 0
M  V30 8977 H 844.441 -2.43147 -3.12563 0
M  V30 8978 H 845.615 -4.46964 -1.12069 0
M  V30 8979 H 843.93 -3.99759 -1.16542 0
M  V30 8980 H 846.527 -3.63347 -3.92279 0
M  V30 8981 H 846.87 -1.93761 -3.68459 0
M  V30 8982 H 847.403 -3.12133 -2.46613 0
M  V30 8983 H 844.142 -6.11691 -2.35614 0
M  V30 8984 H 843.662 -4.85829 -3.51753 0
M  V30 8985 H 845.341 -5.45174 -3.48417 0
M  V30 8986 N 845.473 0.80434 -1.35529 0
M  V30 8987 C 846.719 1.56385 -1.29118 0
M  V30 8988 C 847.052 1.9374 0.133536 0
M  V30 8989 O 846.327 1.6153 1.08344 0
M  V30 8990 C 846.61 2.85097 -2.19981 0
M  V30 8991 C 846.463 2.54204 -3.7108 0
M  V30 8992 C 847.782 3.86817 -2.09907 0
M  V30 8993 H 844.901 0.567382 -0.470368 0
M  V30 8994 H 847.543 0.925235 -1.6595 0
M  V30 8995 H 845.693 3.39594 -1.88701 0
M  V30 8996 H 847.365 2.05872 -4.12813 0
M  V30 8997 H 845.608 1.87364 -3.91251 0
M  V30 8998 H 846.279 3.46068 -4.30048 0
M  V30 8999 H 848.755 3.41725 -2.37409 0
M  V30 9000 H 847.631 4.7465 -2.75678 0
M  V30 9001 H 847.892 4.28663 -1.08171 0
M  V30 9002 N 846.951 1.19563 1.02676 0
M  V30 9003 C 847.899 0.931942 2.13114 0
M  V30 9004 C 848.893 -0.113007 1.69023 0
M  V30 9005 O 850.099 0.0364298 1.79963 0
M  V30 9006 H 846.474 0.283981 0.696318 0
M  V30 9007 H 848.445 1.86991 2.32545 0
M  V30 9008 C 847.194 0.489461 3.44238 0
M  V30 9009 H 846.517 1.28508 3.78584 0
M  V30 9010 H 847.957 0.34408 4.22602 0
M  V30 9011 C 846.416 -0.796761 3.27343 0
M  V30 9012 O 846.946 -1.85767 3.56165 0
M  V30 9013 N 845.152 -0.754824 2.80626 0
M  V30 9014 H 844.699 0.108778 2.5737 0
M  V30 9015 H 844.657 -1.6158 2.69702 0
M  V30 9016 N 848.429 -1.21819 0.999893 0
M  V30 9017 C 849.359 -2.26282 0.576096 0
M  V30 9018 C 850.34 -1.65317 -0.400537 0
M  V30 9019 O 851.525 -1.92028 -0.28964 0
M  V30 9020 C 848.655 -3.47147 -0.103145 0
M  V30 9021 C 847.609 -4.20594 0.792745 0
M  V30 9022 C 846.935 -5.34696 -0.0198026 0
M  V30 9023 C 848.235 -4.78533 2.09293 0
M  V30 9024 H 849.929 -2.61984 1.4493 0
M  V30 9025 H 847.475 -1.25935 0.698316 0
M  V30 9026 H 849.428 -4.1939 -0.411068 0
M  V30 9027 H 848.152 -3.1056 -1.01094 0
M  V30 9028 H 846.811 -3.50194 1.08442 0
M  V30 9029 H 846.459 -4.94352 -0.928729 0
M  V30 9030 H 846.159 -5.84764 0.576661 0
M  V30 9031 H 847.683 -6.09752 -0.321659 0
M  V30 9032 H 849.097 -5.42682 1.8485 0
M  V30 9033 H 847.494 -5.38968 2.63881 0
M  V30 9034 H 848.564 -3.98197 2.76708 0
M  V30 9035 N 849.908 -0.773975 -1.37286 0
M  V30 9036 C 850.871 -0.167974 -2.28584 0
M  V30 9037 C 851.871 0.625662 -1.48129 0
M  V30 9038 O 853.061 0.448924 -1.68316 0
M  V30 9039 C 850.193 0.769364 -3.32105 0
M  V30 9040 H 851.386 -0.972806 -2.83684 0
M  V30 9041 H 848.939 -0.542335 -1.46589 0
M  V30 9042 H 849.674 1.59912 -2.82132 0
M  V30 9043 H 849.459 0.202419 -3.91577 0
M  V30 9044 H 850.949 1.18872 -4.00324 0
M  V30 9045 N 851.386 1.48609 -0.524698 0
M  V30 9046 C 852.797 1.86516 -0.0828846 0
M  V30 9047 C 853.148 1.43478 1.33822 0
M  V30 9048 O 852.273 0.823139 2.00133 0
M  V30 9049 C 852.868 3.38495 -0.143639 0
M  V30 9050 C 851.427 3.75615 0.242951 0
M  V30 9051 C 850.574 2.72649 -0.505747 0
M  V30 9052 H 853.525 1.40589 -0.736233 0
M  V30 9053 H 853.546 3.74977 0.645955 0
M  V30 9054 H 853.058 3.69789 -1.17805 0
M  V30 9055 H 851.159 3.49935 1.27971 0
M  V30 9056 H 851.272 4.7901 -0.0929834 0
M  V30 9057 H 849.636 2.54656 0.0473482 0
M  V30 9058 H 850.419 3.06786 -1.54069 0
M  V30 9059 N 852.864 0.259585 1.55447 0
M  V30 9060 C 854.112 -0.360893 1.98852 0
M  V30 9061 C 854.433 -1.57535 1.14924 0
M  V30 9062 O 853.703 -1.94485 0.235025 0
M  V30 9063 H 852.283 -0.136332 0.734454 0
M  V30 9064 H 854.945 0.361319 1.91522 0
M  V30 9065 H 854.041 -0.661388 3.05012 0
M  V30 9066 N 854.342 -1.57594 -0.0133615 0
M  V30 9067 C 855.588 -1.90262 -0.702019 0
M  V30 9068 C 855.921 -0.859219 -1.74158 0
M  V30 9069 O 855.196 0.123778 -1.94106 0
M  V30 9070 C 855.479 -3.3354 -1.35732 0
M  V30 9071 C 855.332 -4.48586 -0.330208 0
M  V30 9072 C 856.651 -3.76004 -2.28712 0
M  V30 9073 H 853.77 -0.691943 -0.253739 0
M  V30 9074 H 856.412 -1.89967 0.0351894 0
M  V30 9075 H 854.562 -3.33921 -1.98567 0
M  V30 9076 H 856.234 -4.6034 0.297433 0
M  V30 9077 H 854.477 -4.32394 0.348926 0
M  V30 9078 H 855.148 -5.45762 -0.827508 0
M  V30 9079 H 857.624 -3.77089 -1.75906 0
M  V30 9080 H 856.5 -4.77032 -2.71535 0
M  V30 9081 H 856.761 -3.09129 -3.16056 0
M  V30 9082 N 855.82 0.285905 -1.54985 0
M  V30 9083 C 857.066 1.02071 -1.75241 0
M  V30 9084 C 857.399 1.864 -0.544842 0
M  V30 9085 O 856.674 1.89034 0.457844 0
M  V30 9086 C 856.957 1.91409 -3.05016 0
M  V30 9087 C 856.81 1.10158 -4.36102 0
M  V30 9088 C 858.129 2.90335 -3.30747 0
M  V30 9089 H 855.248 0.369663 -0.637588 0
M  V30 9090 H 857.89 0.294114 -1.8771 0
M  V30 9091 H 856.04 2.53362 -2.94517 0
M  V30 9092 H 857.712 0.503756 -4.58541 0
M  V30 9093 H 855.955 0.404675 -4.31908 0
M  V30 9094 H 856.626 1.75956 -5.23205 0
M  V30 9095 H 859.102 2.38514 -3.40955 0
M  V30 9096 H 857.978 3.49997 -4.2284 0
M  V30 9097 H 858.239 3.64787 -2.49765 0
M  V30 9098 N 857.298 1.47698 0.54982 0
M  V30 9099 C 858.544 1.54931 1.30859 0
M  V30 9100 C 858.877 0.214021 1.93017 0
M  V30 9101 O 858.152 -0.778093 1.78258 0
M  V30 9102 C 858.435 2.67286 2.41309 0
M  V30 9103 C 858.288 4.10457 1.83971 0
M  V30 9104 C 859.607 2.75509 3.43195 0
M  V30 9105 H 856.726 0.56399 0.474431 0
M  V30 9106 H 859.368 1.79787 0.614541 0
M  V30 9107 H 857.518 2.46224 3.0051 0
M  V30 9108 H 859.19 4.42903 1.28974 0
M  V30 9109 H 857.433 4.18387 1.14606 0
M  V30 9110 H 858.104 4.84857 2.63851 0
M  V30 9111 H 860.58 2.94531 2.93923 0
M  V30 9112 H 859.456 3.55886 4.17895 0
M  V30 9113 H 859.717 1.82863 4.02509 0
M  V30 9114 N 858.776 -0.797141 1.35954 0
M  V30 9115 C 860.023 -1.55468 1.29754 0
M  V30 9116 C 860.351 -1.94095 -0.125391 0
M  V30 9117 O 859.606 -1.62341 -1.09288 0
M  V30 9118 C 859.905 -2.84847 2.15863 0
M  V30 9119 C 859.571 -2.65394 3.64523 0
M  V30 9120 C 858.233 -2.59796 4.05042 0
M  V30 9121 C 860.585 -2.4727 4.58811 0
M  V30 9122 C 857.913 -2.3403 5.38002 0
M  V30 9123 C 860.265 -2.23032 5.91979 0
M  V30 9124 C 858.929 -2.15862 6.31633 0
M  V30 9125 H 858.199 -0.568897 0.474803 0
M  V30 9126 H 860.846 -0.920299 1.67937 0
M  V30 9127 H 859.151 -3.52712 1.70591 0
M  V30 9128 H 860.848 -3.42597 2.08395 0
M  V30 9129 H 857.438 -2.70602 3.32374 0
M  V30 9130 H 861.622 -2.506 4.28384 0
M  V30 9131 H 856.878 -2.26956 5.67715 0
M  V30 9132 H 861.052 -2.08001 6.64612 0
M  V30 9133 H 858.679 -1.9566 7.34589 0
M  V30 9134 N 860.254 -1.20106 -1.0204 0
M  V30 9135 C 861.502 -1.0069 -1.75231 0
M  V30 9136 C 861.823 0.462491 -1.89436 0
M  V30 9137 O 861.093 1.33455 -1.4341 0
M  V30 9138 H 859.673 -0.369576 -0.649171 0
M  V30 9139 H 862.335 -1.51149 -1.23044 0
M  V30 9140 H 861.431 -1.46205 -2.75736 0
M  V30 9141 N 861.732 1.21287 -1.00634 0
M  V30 9142 C 862.979 1.90389 -0.6898 0
M  V30 9143 C 863.307 1.78193 0.779574 0
M  V30 9144 O 862.562 1.15358 1.58085 0
M  V30 9145 C 862.861 3.41374 -1.05824 0
M  V30 9146 C 862.527 3.73766 -2.5221 0
M  V30 9147 C 861.189 3.82317 -2.92211 0
M  V30 9148 C 863.541 3.88871 -3.47028 0
M  V30 9149 C 860.869 4.03423 -4.2599 0
M  V30 9150 C 863.221 4.11484 -4.80483 0
M  V30 9151 C 861.885 4.18263 -5.20204 0
M  V30 9152 H 861.155 0.696683 -0.252416 0
M  V30 9153 H 863.802 1.43769 -1.26502 0
M  V30 9154 H 862.107 3.8974 -0.401281 0
M  V30 9155 H 863.804 3.93118 -0.79116 0
M  V30 9156 H 860.394 3.67702 -2.20212 0
M  V30 9157 H 864.578 3.8163 -3.17289 0
M  V30 9158 H 859.834 4.06902 -4.56334 0
M  V30 9159 H 864.008 4.22115 -5.53888 0
M  V30 9160 H 861.635 4.34369 -6.23881 0
M  V30 9161 N 863.21 0.781244 1.36873 0
M  V30 9162 C 864.158 0.161889 2.32036 0
M  V30 9163 C 865.152 -0.674225 1.55405 0
M  V30 9164 O 866.358 -0.570223 1.70729 0
M  V30 9165 H 862.733 0.0335702 0.75125 0
M  V30 9166 H 864.704 0.980078 2.81846 0
M  V30 9167 C 863.453 -0.695352 3.40676 0
M  V30 9168 H 862.776 -0.0613425 3.99753 0
M  V30 9169 H 864.216 -1.09553 4.09602 0
M  V30 9170 C 862.675 -1.85008 2.81556 0
M  V30 9171 O 863.205 -2.94616 2.73065 0
M  V30 9172 N 861.411 -1.65364 2.38962 0
M  V30 9173 H 860.958 -0.762106 2.46068 0
M  V30 9174 H 860.916 -2.42789 1.99752 0
M  V30 9175 N 864.689 -1.48329 0.532571 0
M  V30 9176 C 865.637 -2.31336 -0.242133 0
M  V30 9177 C 866.631 -1.41391 -0.933006 0
M  V30 9178 O 867.837 -1.58284 -0.857096 0
M  V30 9179 H 864.212 -0.745724 -0.0969536 0
M  V30 9180 H 866.183 -2.94555 0.477504 0
M  V30 9181 C 864.932 -3.23501 -1.27446 0
M  V30 9182 H 864.255 -3.92659 -0.752261 0
M  V30 9183 H 865.695 -3.84461 -1.78789 0
M  V30 9184 C 864.154 -2.45288 -2.30944 0
M  V30 9185 O 864.684 -2.17955 -3.37429 0
M  V30 9186 N 862.89 -2.06737 -2.04226 0
M  V30 9187 H 862.437 -2.29166 -1.17647 0
M  V30 9188 H 862.395 -1.54719 -2.73696 0
M  V30 9189 N 866.167 -0.267825 -1.55308 0
M  V30 9190 C 867.413 0.351556 -1.9973 0
M  V30 9191 C 867.746 1.56049 -1.15596 0
M  V30 9192 O 867.021 1.93203 -0.224274 0
M  V30 9193 C 867.304 0.74091 -3.52395 0
M  V30 9194 C 867.157 -0.474861 -4.47286 0
M  V30 9195 C 868.476 1.5801 -4.10756 0
M  V30 9196 H 865.595 0.126308 -0.726096 0
M  V30 9197 H 868.237 -0.373316 -1.86296 0
M  V30 9198 H 866.387 1.35851 -3.63973 0
M  V30 9199 H 868.059 -1.1134 -4.47662 0
M  V30 9200 H 866.302 -1.11425 -4.19246 0
M  V30 9201 H 866.973 -0.158782 -5.51772 0
M  V30 9202 H 869.449 1.05857 -4.0241 0
M  V30 9203 H 868.325 1.82135 -5.17801 0
M  V30 9204 H 868.586 2.55878 -3.60526 0
M  V30 9205 N 867.645 1.57599 0.00500368 0
M  V30 9206 C 868.575 2.11143 0.99705 0
M  V30 9207 C 869.556 1.0194 1.3617 0
M  V30 9208 O 870.741 1.29596 1.44632 0
M  V30 9209 C 867.871 2.61062 2.2905 0
M  V30 9210 C 866.825 3.74745 2.0676 0
M  V30 9211 C 866.151 4.10961 3.42075 0
M  V30 9212 C 867.451 5.02222 1.43424 0
M  V30 9213 H 869.145 2.94281 0.551251 0
M  V30 9214 H 866.691 1.41565 0.263715 0
M  V30 9215 H 868.644 2.97146 2.98801 0
M  V30 9216 H 867.368 1.75038 2.75734 0
M  V30 9217 H 866.027 3.39047 1.39436 0
M  V30 9218 H 865.675 3.21968 3.86453 0
M  V30 9219 H 865.375 4.87549 3.27979 0
M  V30 9220 H 866.899 4.49599 4.1315 0
M  V30 9221 H 868.313 5.36109 2.03125 0
M  V30 9222 H 866.71 5.83581 1.39831 0
M  V30 9223 H 867.78 4.83224 0.40285 0
M  V30 9224 N 869.123 -0.277682 1.55134 0
M  V30 9225 C 870.348 -1.03254 1.7987 0
M  V30 9226 C 870.773 -1.79324 0.567861 0
M  V30 9227 O 870.131 -1.74764 -0.4824 0
M  V30 9228 C 870.179 -1.9705 3.02 0
M  V30 9229 O 869.283 -3.05744 2.76757 0
M  V30 9230 H 868.624 -0.295447 0.594649 0
M  V30 9231 H 871.154 -0.308013 2.02268 0
M  V30 9232 H 871.164 -2.3909 3.30606 0
M  V30 9233 H 869.839 -1.41094 3.91236 0
M  V30 9234 H 868.416 -2.68052 2.59235 0
M  V30 9235 N 870.601 -1.47988 -0.541979 0
M  V30 9236 C 871.511 -1.64276 -1.67483 0
M  V30 9237 C 872.527 -0.525387 -1.65879 0
M  V30 9238 O 873.703 -0.794912 -1.85049 0
M  V30 9239 C 870.768 -1.66744 -3.03969 0
M  V30 9240 C 869.829 -2.90021 -3.16522 0
M  V30 9241 C 869.062 -2.92362 -4.46498 0
M  V30 9242 O 869.285 -2.03462 -5.32878 0
M  V30 9243 O 868.219 -3.84399 -4.63164 0
M  V30 9244 H 872.045 -2.60164 -1.5668 0
M  V30 9245 H 869.63 -1.31249 -0.71372 0
M  V30 9246 H 871.512 -1.70958 -3.85164 0
M  V30 9247 H 870.187 -0.740277 -3.15122 0
M  V30 9248 H 869.094 -2.91345 -2.34667 0
M  V30 9249 H 870.427 -3.82082 -3.10281 0
M  V30 9250 N 872.079 0.78992 -1.36375 0
M  V30 9251 C 873.307 1.57873 -1.3373 0
M  V30 9252 C 873.722 1.88624 0.0815544 0
M  V30 9253 O 873.079 1.50085 1.03831 0
M  V30 9254 C 873.13 2.90003 -2.15825 0
M  V30 9255 O 872.851 2.60578 -3.5218 0
M  V30 9256 C 874.352 3.84309 -2.20955 0
M  V30 9257 H 871.572 0.489685 -0.458748 0
M  V30 9258 H 874.116 0.980436 -1.79465 0
M  V30 9259 H 872.271 3.46303 -1.73646 0
M  V30 9260 H 872.685 3.4506 -3.95011 0
M  V30 9261 H 874.159 4.74081 -2.82756 0
M  V30 9262 H 874.636 4.22121 -1.21287 0
M  V30 9263 H 875.242 3.33942 -2.63368 0
M  V30 9264 N 873.557 1.20646 1.01402 0
M  V30 9265 C 874.806 1.01242 1.7445 0
M  V30 9266 C 875.119 -0.455732 1.90217 0
M  V30 9267 O 876.325 -0.768951 2.60383 0
M  V30 9268 C 874.781 1.76275 3.13776 0
M  V30 9269 C 874.389 3.27201 3.06013 0
M  V30 9270 C 876.133 1.65248 3.91016 0
M  V30 9271 C 874.04 3.9476 4.40362 0
M  V30 9272 H 872.97 0.375202 0.654018 0
M  V30 9273 H 875.621 1.44292 1.13367 0
M  V30 9274 H 874.003 1.26013 3.75415 0
M  V30 9275 H 875.177 3.84695 2.53665 0
M  V30 9276 H 873.492 3.38669 2.42265 0
M  V30 9277 H 876.089 2.13061 4.90417 0
M  V30 9278 H 876.432 0.609128 4.1182 0
M  V30 9279 H 876.965 2.12937 3.3601 0
M  V30 9280 H 873.704 4.99258 4.24761 0
M  V30 9281 H 873.224 3.42054 4.92706 0
M  V30 9282 H 874.903 3.99159 5.09196 0
M  V30 9283 N 875.035 -1.20752 1.01276 0
M  V30 9284 C 876.275 -1.91733 0.708372 0
M  V30 9285 C 876.639 -1.76836 -0.747855 0
M  V30 9286 O 877.84 -2.42262 -1.16458 0
M  V30 9287 C 876.111 -3.39155 1.12732 0
M  V30 9288 S 877.67 -4.28518 0.944325 0
M  V30 9289 H 874.488 -0.662394 0.25837 0
M  V30 9290 H 877.09 -1.46085 1.29921 0
M  V30 9291 H 875.794 -3.47516 2.18313 0
M  V30 9292 H 875.325 -3.89826 0.5291 0
M  V30 9293 H 877.34 -4.9596 -0.154278 0
M  V30 9294 N 876.513 -0.788492 -1.36457 0
M  V30 9295 C 877.443 -0.200468 -2.32638 0
M  V30 9296 C 878.424 0.664031 -1.56603 0
M  V30 9297 O 879.609 0.598045 -1.84762 0
M  V30 9298 C 876.739 0.666274 -3.40849 0
M  V30 9299 C 875.693 -0.0982574 -4.27887 0
M  V30 9300 C 875.019 0.889018 -5.27258 0
M  V30 9301 C 876.319 -1.28692 -5.06197 0
M  V30 9302 H 878.013 -1.00399 -2.82065 0
M  V30 9303 H 875.559 -0.484237 -1.35614 0
M  V30 9304 H 877.512 1.08757 -4.07124 0
M  V30 9305 H 876.236 1.50249 -2.89987 0
M  V30 9306 H 874.895 -0.500525 -3.63167 0
M  V30 9307 H 874.543 1.72024 -4.7267 0
M  V30 9308 H 874.243 0.381909 -5.86358 0
M  V30 9309 H 875.767 1.30891 -5.96406 0
M  V30 9310 H 877.181 -0.941429 -5.65517 0
M  V30 9311 H 875.578 -1.72726 -5.74705 0
M  V30 9312 H 876.648 -2.08273 -4.37893 0
M  V30 9313 N 877.991 1.48044 -0.54043 0
M  V30 9314 C 879.24 2.01698 -0.00809961 0
M  V30 9315 C 879.553 1.42184 1.34325 0
M  V30 9316 O 880.759 1.87398 1.96454 0
M  V30 9317 C 879.215 3.59882 0.035933 0
M  V30 9318 C 878.823 4.28384 -1.31115 0
M  V30 9319 C 880.567 4.21346 0.51654 0
M  V30 9320 C 878.474 5.78529 -1.22714 0
M  V30 9321 H 877.404 0.754 0.000742174 0
M  V30 9322 H 880.055 1.70204 -0.685775 0
M  V30 9323 H 878.437 3.88264 0.778906 0
M  V30 9324 H 879.611 4.11663 -2.07051 0
M  V30 9325 H 877.926 3.78837 -1.72834 0
M  V30 9326 H 880.523 5.31351 0.597529 0
M  V30 9327 H 880.866 3.87373 1.52473 0
M  V30 9328 H 881.399 3.97432 -0.171064 0
M  V30 9329 H 878.138 6.17093 -2.21081 0
M  V30 9330 H 877.658 5.97634 -0.50931 0
M  V30 9331 H 879.337 6.40395 -0.92216 0
M  V30 9332 N 879.47 0.276058 1.55163 0
M  V30 9333 C 880.719 -0.341098 1.98795 0
M  V30 9334 C 881.032 -1.56905 1.16791 0
M  V30 9335 O 882.238 -2.25922 1.50571 0
M  V30 9336 C 880.694 -0.658231 3.5383 0
M  V30 9337 C 880.302 0.549972 4.44611 0
M  V30 9338 C 882.046 -1.23796 4.06048 0
M  V30 9339 C 879.953 0.207373 5.91036 0
M  V30 9340 H 878.883 -0.131224 0.742493 0
M  V30 9341 H 881.534 0.380858 1.79504 0
M  V30 9342 H 879.916 -1.43911 3.68925 0
M  V30 9343 H 881.09 1.32681 4.41285 0
M  V30 9344 H 879.405 1.04661 4.03032 0
M  V30 9345 H 882.002 -1.50811 5.12991 0
M  V30 9346 H 882.345 -2.17214 3.55139 0
M  V30 9347 H 882.878 -0.519345 3.94395 0
M  V30 9348 H 879.617 1.10946 6.46043 0
M  V30 9349 H 879.137 -0.532687 5.9743 0
M  V30 9350 H 880.816 -0.200072 6.46691 0
M  V30 9351 N 880.948 -1.576 0.00335426 0
M  V30 9352 C 882.196 -1.90336 -0.679446 0
M  V30 9353 C 882.517 -0.877777 -1.74127 0
M  V30 9354 O 881.787 0.0843585 -1.95718 0
M  V30 9355 H 880.367 -0.702509 -0.253948 0
M  V30 9356 H 883.029 -1.94848 0.0450731 0
M  V30 9357 H 882.125 -2.90197 -1.14857 0
M  V30 9358 N 882.426 0.269451 -1.5528 0
M  V30 9359 C 883.675 0.998381 -1.75258 0
M  V30 9360 C 883.988 1.87321 -0.563034 0
M  V30 9361 O 885.194 2.63719 -0.645313 0
M  V30 9362 C 883.65 1.82505 -3.10193 0
M  V30 9363 C 883.258 0.99871 -4.36726 0
M  V30 9364 C 885.002 2.54807 -3.3952 0
M  V30 9365 C 882.909 1.81997 -5.627 0
M  V30 9366 H 881.839 0.376488 -0.653278 0
M  V30 9367 H 884.49 0.253909 -1.81735 0
M  V30 9368 H 882.872 2.61061 -2.97763 0
M  V30 9369 H 884.046 0.257064 -4.60082 0
M  V30 9370 H 882.361 0.390074 -4.14569 0
M  V30 9371 H 884.958 3.16662 -4.30847 0
M  V30 9372 H 885.301 3.25273 -2.59813 0
M  V30 9373 H 885.834 1.83278 -3.53064 0
M  V30 9374 H 882.573 1.15945 -6.45164 0
M  V30 9375 H 882.093 2.53749 -5.43481 0
M  V30 9376 H 883.772 2.39274 -6.0113 0
M  V30 9377 N 883.904 1.48273 0.534124 0
M  V30 9378 C 885.15 1.56311 1.29208 0
M  V30 9379 C 885.483 0.234481 1.92779 0
M  V30 9380 O 884.758 -0.759143 1.79073 0
M  V30 9381 C 885.041 2.69831 2.3846 0
M  V30 9382 C 884.894 4.12385 1.79608 0
M  V30 9383 C 886.213 2.79133 3.40254 0
M  V30 9384 H 883.332 0.56899 0.468422 0
M  V30 9385 H 885.974 1.80429 0.595438 0
M  V30 9386 H 884.124 2.49397 2.97881 0
M  V30 9387 H 885.796 4.44246 1.24269 0
M  V30 9388 H 884.039 4.19579 1.10162 0
M  V30 9389 H 884.71 4.87629 2.58693 0
M  V30 9390 H 887.186 2.97632 2.90783 0
M  V30 9391 H 886.062 3.60298 4.14097 0
M  V30 9392 H 886.323 1.87122 4.00547 0
M  V30 9393 N 885.382 -0.782676 1.36792 0
M  V30 9394 C 886.332 -1.8855 1.28191 0
M  V30 9395 C 887.316 -1.59978 0.171984 0
M  V30 9396 O 888.508 -1.72295 0.405405 0
M  V30 9397 C 885.637 -3.25862 1.08021 0
M  V30 9398 C 884.723 -3.60422 2.2351 0
M  V30 9399 N 885.114 -3.66241 3.48857 0
M  V30 9400 C 883.412 -3.90523 2.15424 0
M  V30 9401 C 884.113 -3.97233 4.24948 0
M  V30 9402 N 883.089 -4.12567 3.53963 0
M  V30 9403 H 886.891 -1.91285 2.23131 0
M  V30 9404 H 884.405 -0.978554 1.29607 0
M  V30 9405 H 886.402 -4.04742 0.999458 0
M  V30 9406 H 885.062 -3.24399 0.139882 0
M  V30 9407 H 886.073 -3.48717 3.82906 0
M  V30 9408 H 882.75 -3.96945 1.29386 0
M  V30 9409 H 884.14 -4.08602 5.33379 0
M  V30 9410 N 886.86 -1.21182 -1.00761 0
M  V30 9411 C 888.107 -1.02746 -1.74498 0
M  V30 9412 C 888.435 0.439344 -1.89473 0
M  V30 9413 O 887.69 1.34232 -1.42409 0
M  V30 9414 C 887.989 -1.6667 -3.16158 0
M  V30 9415 C 887.655 -3.16515 -3.21137 0
M  V30 9416 C 886.317 -3.57405 -3.22203 0
M  V30 9417 C 888.669 -4.12495 -3.18587 0
M  V30 9418 C 885.997 -4.92786 -3.18401 0
M  V30 9419 C 888.349 -5.47833 -3.16326 0
M  V30 9420 C 887.013 -5.88124 -3.157 0
M  V30 9421 H 886.283 -0.375974 -0.638533 0
M  V30 9422 H 888.93 -1.50736 -1.18114 0
M  V30 9423 H 887.235 -1.10966 -3.75758 0
M  V30 9424 H 888.932 -1.49911 -3.71924 0
M  V30 9425 H 885.522 -2.83947 -3.21048 0
M  V30 9426 H 889.706 -3.81932 -3.16925 0
M  V30 9427 H 884.962 -5.23253 -3.16253 0
M  V30 9428 H 889.136 -6.21942 -3.13306 0
M  V30 9429 H 886.763 -6.92995 -3.12508 0
M  V30 9430 N 888.338 1.20213 -1.01915 0
M  V30 9431 C 889.585 1.89647 -0.709955 0
M  V30 9432 C 889.913 1.7901 0.760631 0
M  V30 9433 O 889.168 1.17028 1.56853 0
M  V30 9434 C 889.467 3.40232 -1.09438 0
M  V30 9435 C 889.133 3.7107 -2.5616 0
M  V30 9436 C 887.795 3.79196 -2.96249 0
M  V30 9437 C 890.147 3.85169 -3.51133 0
M  V30 9438 C 887.475 3.98882 -4.30244 0
M  V30 9439 C 889.827 4.06365 -4.8482 0
M  V30 9440 C 888.491 4.12722 -5.24611 0
M  V30 9441 H 887.761 0.693967 -0.259791 0
M  V30 9442 H 890.408 1.42419 -1.2802 0
M  V30 9443 H 888.713 3.89292 -0.442596 0
M  V30 9444 H 890.41 3.92257 -0.832811 0
M  V30 9445 H 887 3.65346 -2.24099 0
M  V30 9446 H 891.184 3.78243 -3.21319 0
M  V30 9447 H 886.44 4.02039 -4.60624 0
M  V30 9448 H 890.614 4.16216 -5.58334 0
M  V30 9449 H 888.241 4.27728 -6.28453 0
M  V30 9450 N 889.816 0.795718 1.36037 0
M  V30 9451 C 891.065 0.367575 1.98322 0
M  V30 9452 C 891.378 -1.06823 1.63854 0
M  V30 9453 O 892.584 -1.59895 2.19421 0
M  V30 9454 C 891.04 0.606272 3.54757 0
M  V30 9455 C 890.648 2.0539 3.98144 0
M  V30 9456 C 892.392 0.242947 4.23804 0
M  V30 9457 C 890.299 2.23893 5.47381 0
M  V30 9458 H 889.229 0.133699 0.742052 0
M  V30 9459 H 891.88 0.978242 1.5525 0
M  V30 9460 H 890.262 -0.0741957 3.9593 0
M  V30 9461 H 891.436 2.77129 3.68152 0
M  V30 9462 H 889.751 2.37607 3.41953 0
M  V30 9463 H 892.348 0.359382 5.33491 0
M  V30 9464 H 892.691 -0.809661 4.08351 0
M  V30 9465 H 893.224 0.876899 3.88015 0
M  V30 9466 H 889.963 3.27559 5.6779 0
M  V30 9467 H 889.483 1.56666 5.78978 0
M  V30 9468 H 891.162 2.04914 6.13693 0
M  V30 9469 N 891.294 -1.47756 0.548274 0
M  V30 9470 C 892.257 -2.28379 -0.193857 0
M  V30 9471 C 893.257 -1.36436 -0.850986 0
M  V30 9472 O 894.447 -1.59154 -0.70822 0
M  V30 9473 C 891.579 -3.15858 -1.28243 0
M  V30 9474 H 892.772 -2.95458 0.514231 0
M  V30 9475 H 890.325 -1.53298 0.304879 0
M  V30 9476 H 891.06 -2.5345 -2.0232 0
M  V30 9477 H 890.845 -3.83512 -0.816148 0
M  V30 9478 H 892.335 -3.76627 -1.80393 0
M  V30 9479 N 892.772 -0.284283 -1.55015 0
M  V30 9480 C 893.702 0.592663 -2.25853 0
M  V30 9481 C 894.683 1.15151 -1.25197 0
M  V30 9482 O 895.868 1.18395 -1.53936 0
M  V30 9483 C 892.998 1.77254 -2.98661 0
M  V30 9484 C 891.952 1.34482 -4.06323 0
M  V30 9485 C 891.278 2.60853 -4.66754 0
M  V30 9486 C 892.578 0.488288 -5.20013 0
M  V30 9487 H 894.272 0.00187041 -2.994 0
M  V30 9488 H 891.818 -0.000540402 -1.44 0
M  V30 9489 H 893.771 2.39199 -3.46932 0
M  V30 9490 H 892.495 2.38931 -2.22664 0
M  V30 9491 H 891.154 0.748519 -3.58877 0
M  V30 9492 H 890.802 3.20808 -3.87416 0
M  V30 9493 H 890.502 2.32942 -5.39455 0
M  V30 9494 H 892.026 3.23631 -5.1778 0
M  V30 9495 H 893.44 1.01298 -5.6428 0
M  V30 9496 H 891.837 0.303669 -5.99331 0
M  V30 9497 H 892.907 -0.490727 -4.8241 0
M  V30 9498 N 894.251 1.57596 -0.0117121 0
M  V30 9499 C 895.214 2.08089 0.960816 0
M  V30 9500 C 896.214 0.992519 1.26514 0
M  V30 9501 O 897.404 1.25475 1.20837 0
M  V30 9502 C 894.536 2.53217 2.28241 0
M  V30 9503 H 895.729 2.9529 0.523829 0
M  V30 9504 H 893.282 1.54508 0.235995 0
M  V30 9505 H 894.017 1.69294 2.76604 0
M  V30 9506 H 893.802 3.32714 2.0747 0
M  V30 9507 H 895.292 2.92568 2.97983 0
M  V30 9508 N 895.729 -0.261212 1.5542 0
M  V30 9509 C 896.957 -1.00916 1.8062 0
M  V30 9510 C 897.372 -1.79494 0.585444 0
M  V30 9511 O 896.729 -1.76974 -0.445702 0
M  V30 9512 C 896.78 -1.95841 3.03856 0
M  V30 9513 O 896.501 -1.20445 4.21218 0
M  V30 9514 C 898.002 -2.82352 3.41749 0
M  V30 9515 H 895.222 -0.297596 0.601397 0
M  V30 9516 H 897.766 -0.288427 2.02456 0
M  V30 9517 H 895.921 -2.63361 2.84112 0
M  V30 9518 H 896.335 -1.84528 4.90968 0
M  V30 9519 H 897.809 -3.44733 4.31118 0
M  V30 9520 H 898.286 -3.5273 2.61683 0
M  V30 9521 H 898.892 -2.20306 3.63793 0
M  V30 9522 N 897.207 -1.48554 -0.526253 0
M  V30 9523 C 898.454 -1.56761 -1.28188 0
M  V30 9524 C 898.782 -0.24315 -1.92974 0
M  V30 9525 O 898.037 0.766883 -1.80048 0
M  V30 9526 C 898.336 -2.65739 -2.38993 0
M  V30 9527 C 898.002 -4.08057 -1.91834 0
M  V30 9528 C 896.664 -4.46792 -1.78691 0
M  V30 9529 C 899.016 -4.9723 -1.56242 0
M  V30 9530 C 896.344 -5.72501 -1.28296 0
M  V30 9531 C 898.696 -6.23432 -1.07309 0
M  V30 9532 C 897.36 -6.6102 -0.927853 0
M  V30 9533 H 896.63 -0.573631 -0.469072 0
M  V30 9534 H 899.277 -1.82287 -0.586842 0
M  V30 9535 H 897.582 -2.34088 -3.14181 0
M  V30 9536 H 899.279 -2.69304 -2.97113 0
M  V30 9537 H 895.869 -3.77469 -2.03016 0
M  V30 9538 H 900.053 -4.67979 -1.65255 0
M  V30 9539 H 895.309 -6.00345 -1.15742 0
M  V30 9540 H 899.483 -6.91923 -0.788412 0
M  V30 9541 H 897.11 -7.58314 -0.535162 0
M  V30 9542 N 898.685 0.775411 -1.37205 0
M  V30 9543 C 899.932 1.53384 -1.32211 0
M  V30 9544 C 900.26 1.9427 0.0944958 0
M  V30 9545 O 899.515 1.64059 1.06692 0
M  V30 9546 C 899.814 2.81377 -2.20367 0
M  V30 9547 C 899.48 2.59561 -3.68699 0
M  V30 9548 C 898.142 2.53319 -4.09124 0
M  V30 9549 C 900.494 2.39939 -4.62686 0
M  V30 9550 C 897.822 2.25442 -5.41658 0
M  V30 9551 C 900.174 2.13586 -5.95453 0
M  V30 9552 C 898.838 2.05786 -6.34987 0
M  V30 9553 H 898.108 0.561271 -0.483793 0
M  V30 9554 H 900.755 0.893466 -1.6938 0
M  V30 9555 H 899.06 3.49954 -1.76181 0
M  V30 9556 H 900.757 3.39238 -2.13819 0
M  V30 9557 H 897.347 2.6528 -3.36637 0
M  V30 9558 H 901.531 2.43753 -4.32317 0
M  V30 9559 H 896.787 2.17896 -5.71254 0
M  V30 9560 H 900.961 1.97401 -6.67837 0
M  V30 9561 H 898.588 1.83948 -7.37609 0
M  V30 9562 N 900.163 1.21714 1.00117 0
M  V30 9563 C 901.41 1.0367 1.73951 0
M  V30 9564 C 901.738 -0.429289 1.89703 0
M  V30 9565 O 900.993 -1.33475 1.43119 0
M  V30 9566 C 901.292 1.68345 3.15269 0
M  V30 9567 C 900.958 3.18214 3.19454 0
M  V30 9568 C 899.62 3.59109 3.20303 0
M  V30 9569 C 901.972 4.14179 3.16394 0
M  V30 9570 C 899.3 4.94467 3.15783 0
M  V30 9571 C 901.652 5.49502 3.13416 0
M  V30 9572 C 900.316 5.8979 3.12577 0
M  V30 9573 H 899.586 0.379355 0.63653 0
M  V30 9574 H 902.233 1.51361 1.17312 0
M  V30 9575 H 900.538 1.12957 3.75164 0
M  V30 9576 H 902.235 1.51882 3.71124 0
M  V30 9577 H 898.825 2.85646 3.19538 0
M  V30 9578 H 903.009 3.83607 3.14895 0
M  V30 9579 H 898.265 5.24923 3.13473 0
M  V30 9580 H 902.439 6.23595 3.10003 0
M  V30 9581 H 900.066 6.94643 3.08829 0
M  V30 9582 N 901.641 -1.19671 1.02551 0
M  V30 9583 C 902.888 -1.89268 0.720002 0
M  V30 9584 C 903.216 -1.79411 -0.751127 0
M  V30 9585 O 902.471 -1.17859 -1.5623 0
M  V30 9586 C 902.77 -3.39647 1.11241 0
M  V30 9587 C 902.436 -3.69706 2.58125 0
M  V30 9588 C 901.098 -3.7762 2.98256 0
M  V30 9589 C 903.45 -3.83301 3.53171 0
M  V30 9590 C 900.778 -3.96594 4.32354 0
M  V30 9591 C 903.13 -4.03788 4.86968 0
M  V30 9592 C 901.794 -4.09934 5.26793 0
M  V30 9593 H 901.064 -0.692579 0.263467 0
M  V30 9594 H 903.711 -1.41738 1.28774 0
M  V30 9595 H 902.016 -3.89052 0.463234 0
M  V30 9596 H 903.713 -3.91809 0.853602 0
M  V30 9597 H 900.303 -3.64152 2.26033 0
M  V30 9598 H 904.487 -3.76534 3.2332 0
M  V30 9599 H 899.743 -3.9959 4.6275 0
M  V30 9600 H 903.917 -4.1325 5.60533 0
M  V30 9601 H 901.544 -4.24389 6.30712 0
M  V30 9602 N 903.119 -0.802921 -1.35613 0
M  V30 9603 C 904.344 -0.392846 -2.03645 0
M  V30 9604 C 904.769 0.987075 -1.6012 0
M  V30 9605 O 904.127 1.63849 -0.776101 0
M  V30 9606 C 904.175 -0.480208 -3.57388 0
M  V30 9607 O 903.279 0.507751 -4.09262 0
M  V30 9608 H 902.62 -0.16464 -0.643265 0
M  V30 9609 H 905.15 -1.08779 -1.73287 0
M  V30 9610 H 905.16 -0.348683 -4.06507 0
M  V30 9611 H 903.835 -1.48675 -3.88418 0
M  V30 9612 H 902.412 0.336769 -3.71376 0
M  V30 9613 N 904.597 1.47463 -0.556102 0
M  V30 9614 C 905.843 2.02775 -0.0316806 0
M  V30 9615 C 906.176 1.42967 1.3143 0
M  V30 9616 O 905.451 0.584847 1.85499 0
M  V30 9617 C 905.734 3.60046 0.0625742 0
M  V30 9618 C 905.587 4.30288 -1.31043 0
M  V30 9619 C 906.906 4.33195 0.776553 0
M  V30 9620 H 904.025 0.736886 -0.0129869 0
M  V30 9621 H 906.667 1.75904 -0.718177 0
M  V30 9622 H 904.817 3.83071 0.647231 0
M  V30 9623 H 906.489 4.18607 -1.9382 0
M  V30 9624 H 904.732 3.90685 -1.8854 0
M  V30 9625 H 905.403 5.38861 -1.1972 0
M  V30 9626 H 907.879 4.15156 0.280147 0
M  V30 9627 H 906.755 5.42869 0.81146 0
M  V30 9628 H 907.016 4.02336 1.83244 0
M  V30 9629 N 906.075 0.2925 1.54862 0
M  V30 9630 C 907.008 -0.629155 2.19356 0
M  V30 9631 C 907.986 -1.13927 1.16014 0
M  V30 9632 O 909.17 -1.20904 1.44618 0
M  V30 9633 C 906.297 -1.8599 2.83064 0
M  V30 9634 C 905.343 -1.48376 3.99859 0
M  V30 9635 S 906.176 -0.546976 5.32699 0
M  V30 9636 C 907.332 -1.7857 5.99886 0
M  V30 9637 H 907.565 -0.0812166 2.97189 0
M  V30 9638 H 905.098 0.0766721 1.5421 0
M  V30 9639 H 907.056 -2.56623 3.20398 0
M  V30 9640 H 905.717 -2.37899 2.05092 0
M  V30 9641 H 904.91 -2.40002 4.43187 0
M  V30 9642 H 904.512 -0.857447 3.64038 0
M  V30 9643 H 906.804 -2.7274 6.20177 0
M  V30 9644 H 907.747 -1.39513 6.9422 0
M  V30 9645 H 908.155 -1.95856 5.29434 0
M  V30 9646 N 907.553 -1.57587 0.0200696 0
M  V30 9647 C 908.964 -1.79312 -0.520019 0
M  V30 9648 C 909.315 -0.929475 -1.72787 0
M  V30 9649 O 908.44 -0.137389 -2.15963 0
M  V30 9650 C 909.035 -3.25203 -0.950172 0
M  V30 9651 C 907.594 -3.47954 -1.43543 0
M  V30 9652 C 906.741 -2.74459 -0.395917 0
M  V30 9653 H 909.692 -1.56779 0.246153 0
M  V30 9654 H 909.713 -3.34418 -1.81508 0
M  V30 9655 H 909.225 -3.88035 -0.070883 0
M  V30 9656 H 907.326 -2.90363 -2.33495 0
M  V30 9657 H 907.439 -4.56661 -1.44905 0
M  V30 9658 H 905.803 -2.39669 -0.862022 0
M  V30 9659 H 906.586 -3.40001 0.47475 0
M  V30 9660 N 909.032 0.252966 -1.55557 0
M  V30 9661 C 909.962 1.31691 -1.9282 0
M  V30 9662 C 910.943 1.50516 -0.7924 0
M  V30 9663 O 912.128 1.63225 -1.05219 0
M  V30 9664 C 909.258 2.67281 -2.21762 0
M  V30 9665 C 908.212 2.6316 -3.37536 0
M  V30 9666 C 907.538 4.02488 -3.52005 0
M  V30 9667 C 908.838 2.20675 -4.73392 0
M  V30 9668 H 910.532 1.00751 -2.81939 0
M  V30 9669 H 908.078 0.483219 -1.3565 0
M  V30 9670 H 910.031 3.41842 -2.46419 0
M  V30 9671 H 908.755 2.99845 -1.29463 0
M  V30 9672 H 907.414 1.91057 -3.12878 0
M  V30 9673 H 907.062 4.32307 -2.57137 0
M  V30 9674 H 906.762 4.00621 -4.29857 0
M  V30 9675 H 908.286 4.78758 -3.78977 0
M  V30 9676 H 909.7 2.84965 -4.97461 0
M  V30 9677 H 908.097 2.29931 -5.54303 0
M  V30 9678 H 909.167 1.15831 -4.70862 0
M  V30 9679 N 910.51 1.48831 0.518367 0
M  V30 9680 C 911.758 1.57128 1.27103 0
M  V30 9681 C 912.079 0.252098 1.93364 0
M  V30 9682 O 911.349 -0.727281 1.819 0
M  V30 9683 H 909.929 0.578891 0.472116 0
M  V30 9684 H 912.591 1.85361 0.602262 0
M  V30 9685 H 911.687 2.35838 2.04418 0
M  V30 9686 N 911.988 -0.768124 1.37614 0
M  V30 9687 C 913.236 -1.52379 1.3276 0
M  V30 9688 C 913.557 -1.94809 -0.0863564 0
M  V30 9689 O 912.827 -1.66568 -1.03112 0
M  V30 9690 H 911.407 -0.565179 0.488448 0
M  V30 9691 H 914.069 -0.913974 1.72141 0
M  V30 9692 H 913.165 -2.4215 1.96901 0
M  V30 9693 N 913.466 -1.22244 -0.994698 0
M  V30 9694 C 914.396 -1.01513 -2.10279 0
M  V30 9695 C 915.377 0.0633365 -1.69982 0
M  V30 9696 O 916.562 -0.0985268 -1.9395 0
M  V30 9697 C 913.692 -0.59016 -3.42249 0
M  V30 9698 C 912.646 -1.61436 -3.96387 0
M  V30 9699 C 911.972 -1.04528 -5.24383 0
M  V30 9700 C 913.272 -3.00388 -4.27276 0
M  V30 9701 H 914.966 -1.94194 -2.2788 0
M  V30 9702 H 912.512 -0.935094 -1.09508 0
M  V30 9703 H 914.465 -0.432254 -4.19177 0
M  V30 9704 H 913.189 0.372308 -3.24471 0
M  V30 9705 H 911.848 -1.76001 -3.21589 0
M  V30 9706 H 911.496 -0.0742225 -5.02945 0
M  V30 9707 H 911.196 -1.72949 -5.61571 0
M  V30 9708 H 912.72 -0.898922 -6.03947 0
M  V30 9709 H 914.134 -2.89207 -4.95007 0
M  V30 9710 H 912.531 -3.65916 -4.75631 0
M  V30 9711 H 913.601 -3.50456 -3.35125 0
M  V30 9712 N 914.944 1.19125 -1.03184 0
M  V30 9713 C 916.191 1.88883 -0.730029 0
M  V30 9714 C 916.519 1.79807 0.741602 0
M  V30 9715 O 915.774 1.18686 1.55603 0
M  V30 9716 C 916.073 3.39052 -1.13041 0
M  V30 9717 C 915.739 3.68332 -2.60082 0
M  V30 9718 C 914.401 3.76033 -3.00254 0
M  V30 9719 C 916.753 3.81423 -3.55199 0
M  V30 9720 C 914.081 3.94296 -4.34451 0
M  V30 9721 C 916.433 4.012 -4.89103 0
M  V30 9722 C 915.097 4.07134 -5.28959 0
M  V30 9723 H 914.367 0.691172 -0.267137 0
M  V30 9724 H 917.014 1.41053 -1.29523 0
M  V30 9725 H 915.319 3.88801 -0.48386 0
M  V30 9726 H 917.016 3.91351 -0.874368 0
M  V30 9727 H 913.606 3.62948 -2.27961 0
M  V30 9728 H 917.79 3.74814 -3.25313 0
M  V30 9729 H 913.046 3.97131 -4.64863 0
M  V30 9730 H 917.22 4.10271 -5.62717 0
M  V30 9731 H 914.847 4.21038 -6.32954 0
M  V30 9732 N 916.422 0.810101 1.35185 0
M  V30 9733 C 917.67 0.391343 1.98275 0
M  V30 9734 C 917.991 -1.04592 1.64577 0
M  V30 9735 O 917.261 -1.72417 0.93001 0
M  V30 9736 H 915.841 0.141715 0.733434 0
M  V30 9737 H 918.503 1.03672 1.6504 0
M  V30 9738 H 917.599 0.49991 3.0807 0
M  V30 9739 N 917.9 -1.47166 0.563914 0
M  V30 9740 C 919.125 -2.0735 0.0454698 0
M  V30 9741 C 919.55 -1.41281 -1.24182 0
M  V30 9742 O 918.908 -0.490084 -1.7455 0
M  V30 9743 C 918.956 -3.60378 -0.126453 0
M  V30 9744 O 918.06 -3.94934 -1.18746 0
M  V30 9745 H 917.401 -0.661773 0.0543377 0
M  V30 9746 H 919.931 -1.89086 0.781508 0
M  V30 9747 H 919.941 -4.06593 -0.338554 0
M  V30 9748 H 918.616 -4.07862 0.81373 0
M  V30 9749 H 917.193 -3.60455 -0.955318 0
M  V30 9750 N 919.378 -0.300708 -1.54705 0
M  V30 9751 C 920.608 0.310819 -2.04249 0
M  V30 9752 C 921.016 1.4809 -1.17754 0
M  V30 9753 O 920.359 1.82654 -0.195779 0
M  V30 9754 C 920.421 0.83014 -3.49784 0
M  V30 9755 C 920.085 -0.214628 -4.56496 0
M  V30 9756 C 921.082 -1.04298 -5.09331 0
M  V30 9757 C 918.767 -0.356242 -5.01035 0
M  V30 9758 C 920.761 -1.99889 -6.05246 0
M  V30 9759 C 918.448 -1.3156 -5.96771 0
M  V30 9760 C 919.446 -2.1354 -6.4876 0
M  V30 9761 O 919.134 -3.07849 -7.4262 0
M  V30 9762 H 918.866 0.0715341 -0.672204 0
M  V30 9763 H 921.42 -0.438179 -2.00672 0
M  V30 9764 H 919.65 1.62966 -3.50684 0
M  V30 9765 H 921.339 1.35752 -3.82526 0
M  V30 9766 H 922.105 -0.944439 -4.75716 0
M  V30 9767 H 917.984 0.271916 -4.60197 0
M  V30 9768 H 921.528 -2.63917 -6.45751 0
M  V30 9769 H 917.425 -1.41486 -6.29803 0
M  V30 9770 H 918.193 -3.02824 -7.60421 0
M  V30 9771 N 920.856 1.57574 -0.0284266 0
M  V30 9772 C 921.786 2.1321 0.952039 0
M  V30 9773 C 922.767 1.04806 1.33977 0
M  V30 9774 O 923.952 1.32635 1.41851 0
M  V30 9775 C 921.082 2.65862 2.23461 0
M  V30 9776 C 920.036 3.79047 1.98765 0
M  V30 9777 C 919.362 4.18124 3.33281 0
M  V30 9778 C 920.662 5.05151 1.32739 0
M  V30 9779 H 922.356 2.95385 0.488705 0
M  V30 9780 H 919.902 1.42092 0.233628 0
M  V30 9781 H 921.855 3.03417 2.92431 0
M  V30 9782 H 920.579 1.80848 2.71959 0
M  V30 9783 H 919.238 3.41929 1.32213 0
M  V30 9784 H 918.886 3.30092 3.79537 0
M  V30 9785 H 918.586 4.94396 3.17563 0
M  V30 9786 H 920.11 4.58262 4.0352 0
M  V30 9787 H 921.524 5.40297 1.91708 0
M  V30 9788 H 919.921 5.86416 1.27421 0
M  V30 9789 H 920.991 4.83969 0.300261 0
M  V30 9790 N 922.334 -0.244713 1.55689 0
M  V30 9791 C 923.281 -1.30301 1.905 0
M  V30 9792 C 924.251 -1.4772 0.759478 0
M  V30 9793 O 925.436 -1.61667 1.01333 0
M  V30 9794 C 922.576 -2.653 2.20703 0
M  V30 9795 C 921.689 -2.55872 3.48071 0
M  V30 9796 C 920.824 -3.83238 3.67834 0
M  V30 9797 C 919.863 -3.68436 4.88796 0
M  V30 9798 N 919 -4.877 5.05068 0
M  V30 9799 H 923.84 -0.999143 2.80751 0
M  V30 9800 H 921.377 -0.482099 1.38976 0
M  V30 9801 H 923.335 -3.43884 2.36219 0
M  V30 9802 H 921.965 -2.93831 1.33653 0
M  V30 9803 H 921.017 -1.68846 3.40874 0
M  V30 9804 H 922.329 -2.40845 4.36801 0
M  V30 9805 H 921.483 -4.70266 3.83321 0
M  V30 9806 H 920.222 -4.01165 2.77341 0
M  V30 9807 H 919.227 -2.79793 4.73282 0
M  V30 9808 H 920.452 -3.52003 5.8075 0
M  V30 9809 H 918.398 -5.05983 4.17513 0
M  V30 9810 H 918.315 -4.75312 5.8789 0
M  V30 9811 H 919.583 -5.76219 5.24969 0
M  V30 9812 N 923.813 -1.49104 -0.510467 0
M  V30 9813 C 924.76 -1.65074 -1.61305 0
M  V30 9814 C 925.73 -0.492362 -1.58635 0
M  V30 9815 O 926.915 -0.718241 -1.76765 0
M  V30 9816 C 924.055 -1.71457 -2.99493 0
M  V30 9817 C 923.168 -2.98536 -3.12251 0
M  V30 9818 C 922.303 -2.95957 -4.41116 0
M  V30 9819 C 921.342 -4.17655 -4.47471 0
M  V30 9820 N 920.479 -4.13041 -5.67751 0
M  V30 9821 H 925.319 -2.59222 -1.46996 0
M  V30 9822 H 922.856 -1.28535 -0.715346 0
M  V30 9823 H 924.814 -1.7314 -3.79577 0
M  V30 9824 H 923.444 -0.807834 -3.12528 0
M  V30 9825 H 922.496 -3.06509 -2.25292 0
M  V30 9826 H 923.808 -3.88527 -3.12807 0
M  V30 9827 H 922.962 -2.96149 -5.2951 0
M  V30 9828 H 921.701 -2.03728 -4.4311 0
M  V30 9829 H 920.706 -4.17717 -3.57481 0
M  V30 9830 H 921.931 -5.11066 -4.472 0
M  V30 9831 H 919.877 -3.23643 -5.70606 0
M  V30 9832 H 919.794 -4.96757 -5.69884 0
M  V30 9833 H 921.062 -4.17322 -6.58379 0
M  V30 9834 N 925.291 0.760815 -1.38019 0
M  V30 9835 C 926.241 1.86487 -1.31174 0
M  V30 9836 C 927.225 1.59684 -0.197414 0
M  V30 9837 O 928.417 1.71628 -0.432764 0
M  V30 9838 C 925.546 3.24103 -1.13192 0
M  V30 9839 C 924.632 3.5682 -2.29216 0
M  V30 9840 N 925.023 3.60644 -3.5464 0
M  V30 9841 C 923.321 3.87047 -2.2161 0
M  V30 9842 C 924.022 3.90423 -4.31214 0
M  V30 9843 N 922.998 4.06883 -3.60482 0
M  V30 9844 H 926.8 1.87711 -2.26146 0
M  V30 9845 H 924.314 0.957811 -1.31148 0
M  V30 9846 H 926.311 4.03101 -1.06372 0
M  V30 9847 H 924.971 3.24135 -0.191473 0
M  V30 9848 H 925.982 3.42581 -3.88405 0
M  V30 9849 H 922.659 3.94837 -1.35684 0
M  V30 9850 H 924.049 4.00065 -5.39812 0
M  V30 9851 N 926.769 1.22769 0.988202 0
M  V30 9852 C 928.017 1.05301 1.725 0
M  V30 9853 C 928.338 -0.412103 1.90596 0
M  V30 9854 O 927.608 -1.29606 1.46898 0
M  V30 9855 H 926.188 0.386658 0.639144 0
M  V30 9856 H 928.85 1.54359 1.18993 0
M  V30 9857 H 927.946 1.53465 2.71763 0
M  V30 9858 N 928.247 -1.18576 1.03814 0
M  V30 9859 C 929.663 -1.4051 0.756909 0
M  V30 9860 C 929.863 -1.9057 -0.654631 0
M  V30 9861 O 928.919 -2.0884 -1.41922 0
M  V30 9862 C 930.232 -2.4081 1.80087 0
M  V30 9863 C 931.78 -2.54541 1.82148 0
M  V30 9864 C 932.255 -3.58102 2.85529 0
M  V30 9865 N 933.746 -3.65607 2.84404 0
M  V30 9866 C 934.481 -4.45458 3.61047 0
M  V30 9867 N 933.977 -5.28937 4.47434 0
M  V30 9868 N 935.77 -4.40196 3.49548 0
M  V30 9869 H 927.921 -0.844075 1.94908 0
M  V30 9870 H 930.184 -0.433287 0.843188 0
M  V30 9871 H 929.89 -2.1107 2.81322 0
M  V30 9872 H 929.764 -3.4012 1.63089 0
M  V30 9873 H 932.151 -2.83598 0.815855 0
M  V30 9874 H 932.232 -1.55352 2.03223 0
M  V30 9875 H 931.876 -3.29786 3.86269 0
M  V30 9876 H 931.806 -4.56963 2.6171 0
M  V30 9877 H 934.297 -3.05994 2.21756 0
M  V30 9878 H 934.61 -5.8701 5.02632 0
M  V30 9879 H 932.955 -5.28366 4.51503 0
M  V30 9880 H 936.146 -3.74026 2.81464 0
M  V30 9881 H 936.319 -5.02186 4.09528 0
M  V30 9882 N 929.725 -0.817259 -1.34754 0
M  V30 9883 C 930.657 -0.192695 -2.28389 0
M  V30 9884 C 931.67 0.614167 -1.50771 0
M  V30 9885 O 932.859 0.444776 -1.7287 0
M  V30 9886 C 929.959 0.748929 -3.30521 0
M  V30 9887 C 929.132 -0.0138762 -4.37398 0
M  V30 9888 C 928.191 0.847825 -5.19325 0
M  V30 9889 O 927.217 0.29487 -5.68436 0
M  V30 9890 N 928.419 2.16843 -5.38479 0
M  V30 9891 H 931.184 -0.997122 -2.82626 0
M  V30 9892 H 928.745 -0.673696 -1.47217 0
M  V30 9893 H 930.737 1.32987 -3.82226 0
M  V30 9894 H 929.307 1.45412 -2.7672 0
M  V30 9895 H 928.527 -0.776093 -3.86485 0
M  V30 9896 H 929.815 -0.539191 -5.05935 0
M  V30 9897 H 929.213 2.64148 -5.00242 0
M  V30 9898 H 927.77 2.69835 -5.93323 0
M  V30 9899 N 931.203 1.46865 -0.571711 0
M  V30 9900 C 932.433 2.06518 -0.0583129 0
M  V30 9901 C 932.841 1.4227 1.24723 0
M  V30 9902 O 932.184 0.518293 1.76237 0
M  V30 9903 C 932.246 3.5898 0.193214 0
M  V30 9904 C 931.91 4.45355 -1.02507 0
M  V30 9905 C 932.907 4.82575 -1.93435 0
M  V30 9906 C 930.592 4.86656 -1.24382 0
M  V30 9907 C 932.586 5.59912 -3.04595 0
M  V30 9908 C 930.273 5.63754 -2.35849 0
M  V30 9909 C 931.271 6.00294 -3.25785 0
M  V30 9910 O 930.959 6.75836 -4.35318 0
M  V30 9911 H 930.691 0.674188 -0.0494584 0
M  V30 9912 H 933.245 1.89644 -0.788934 0
M  V30 9913 H 931.475 3.7412 0.978319 0
M  V30 9914 H 933.164 4.006 0.653769 0
M  V30 9915 H 933.93 4.51256 -1.77745 0
M  V30 9916 H 929.809 4.57672 -0.55292 0
M  V30 9917 H 933.353 5.88351 -3.74818 0
M  V30 9918 H 929.25 5.94487 -2.51506 0
M  V30 9919 H 930.018 6.94247 -4.33547 0
M  V30 9920 N 932.681 0.308908 1.54543 0
M  V30 9921 C 933.927 -0.298478 2.00592 0
M  V30 9922 C 934.26 -1.52929 1.19692 0
M  V30 9923 O 933.535 -1.9254 0.27542 0
M  V30 9924 C 933.818 -0.647218 3.54236 0
M  V30 9925 C 933.671 0.593284 4.4587 0
M  V30 9926 C 934.99 -1.47064 4.14801 0
M  V30 9927 H 932.109 -0.107012 0.72919 0
M  V30 9928 H 934.751 0.422578 1.85241 0
M  V30 9929 H 932.901 -1.26153 3.67447 0
M  V30 9930 H 934.573 1.2317 4.44552 0
M  V30 9931 H 932.816 1.22501 4.16144 0
M  V30 9932 H 933.487 0.305018 5.51157 0
M  V30 9933 H 935.963 -0.951511 4.05075 0
M  V30 9934 H 934.839 -1.68343 5.22448 0
M  V30 9935 H 935.1 -2.4623 3.67183 0
M  V30 9936 N 934.159 -1.57557 0.0367827 0
M  V30 9937 C 935.122 -2.09591 -0.927589 0
M  V30 9938 C 936.122 -1.01252 -1.24919 0
M  V30 9939 O 937.312 -1.27382 -1.18825 0
M  V30 9940 C 934.444 -2.56816 -2.24184 0
M  V30 9941 H 935.637 -2.96086 -0.476784 0
M  V30 9942 H 933.19 -1.54864 -0.211385 0
M  V30 9943 H 933.925 -1.73673 -2.73876 0
M  V30 9944 H 933.71 -3.35973 -2.0215 0
M  V30 9945 H 935.2 -2.97271 -2.93291 0
M  V30 9946 N 935.637 0.236453 -1.55816 0
M  V30 9947 C 936.862 0.98449 -1.82545 0
M  V30 9948 C 937.287 1.77755 -0.615206 0
M  V30 9949 O 936.645 1.75982 0.435895 0
M  V30 9950 C 936.693 1.88973 -3.07118 0
M  V30 9951 O 935.797 2.98298 -2.84766 0
M  V30 9952 H 935.138 0.279577 -0.602273 0
M  V30 9953 H 937.668 0.254277 -2.03014 0
M  V30 9954 H 937.678 2.3024 -3.36829 0
M  V30 9955 H 936.353 1.30671 -3.94839 0
M  V30 9956 H 934.93 2.61085 -2.6625 0
M  V30 9957 N 937.115 1.49373 0.502552 0
M  V30 9958 C 938.047 1.62045 1.62093 0
M  V30 9959 C 939.06 0.503221 1.54827 0
M  V30 9960 O 940.249 0.775208 1.60788 0
M  V30 9961 C 937.349 1.55971 3.00876 0
M  V30 9962 C 936.522 2.832 3.33341 0
M  V30 9963 C 935.581 2.702 4.51529 0
M  V30 9964 O 934.607 3.44132 4.53389 0
M  V30 9965 N 935.809 1.81642 5.5135 0
M  V30 9966 H 938.574 2.58501 1.51649 0
M  V30 9967 H 936.135 1.46442 0.690396 0
M  V30 9968 H 938.127 1.4493 3.77859 0
M  V30 9969 H 936.697 0.673795 3.05252 0
M  V30 9970 H 935.917 3.08604 2.4527 0
M  V30 9971 H 937.205 3.67551 3.51829 0
M  V30 9972 H 936.603 1.20829 5.52645 0
M  V30 9973 H 935.16 1.76524 6.27441 0
M  V30 9974 N 938.594 -0.753485 1.38421 0
M  V30 9975 C 939.822 -1.54272 1.37868 0
M  V30 9976 C 940.237 -1.88774 -0.0315155 0
M  V30 9977 O 939.594 -1.52785 -0.998148 0
M  V30 9978 C 939.645 -2.84179 2.23438 0
M  V30 9979 O 939.366 -2.51149 3.58965 0
M  V30 9980 C 940.867 -3.78316 2.31067 0
M  V30 9981 H 938.087 -0.47735 0.47157 0
M  V30 9982 H 940.631 -0.932509 1.82001 0
M  V30 9983 H 938.786 -3.41577 1.82767 0
M  V30 9984 H 939.2 -3.34466 4.04021 0
M  V30 9985 H 940.674 -4.66418 2.95226 0
M  V30 9986 H 941.151 -4.18757 1.32436 0
M  V30 9987 H 941.757 -3.26842 2.72129 0
M  V30 9988 N 940.072 -1.23292 -0.981677 0
M  V30 9989 C 941.319 -1.06424 -1.72279 0
M  V30 9990 C 941.647 0.399055 -1.90362 0
M  V30 9991 O 940.902 1.31181 -1.45224 0
M  V30 9992 C 941.201 -1.73339 -3.12551 0
M  V30 9993 C 940.867 -3.23256 -3.14351 0
M  V30 9994 C 939.529 -3.64159 -3.14549 0
M  V30 9995 C 941.881 -4.1916 -3.09765 0
M  V30 9996 C 939.209 -4.99428 -3.07877 0
M  V30 9997 C 941.561 -5.54419 -3.04635 0
M  V30 9998 C 940.225 -5.94688 -3.03154 0
M  V30 9999 H 939.495 -0.389434 -0.630415 0
M  V30 10000 H 942.142 -1.53208 -1.1489 0
M  V30 10001 H 940.447 -1.18911 -3.73319 0
M  V30 10002 H 942.144 -1.57767 -3.68661 0
M  V30 10003 H 938.734 -2.90693 -3.14953 0
M  V30 10004 H 942.918 -3.88569 -3.08753 0
M  V30 10005 H 938.174 -5.29844 -3.05083 0
M  V30 10006 H 942.348 -6.28448 -3.00043 0
M  V30 10007 H 939.975 -6.99468 -2.97739 0
M  V30 10008 N 941.55 1.18024 -1.04442 0
M  V30 10009 C 942.778 1.92032 -0.770161 0
M  V30 10010 C 943.193 1.76391 0.673181 0
M  V30 10011 O 942.55 1.09604 1.45922 0
M  V30 10012 C 942.601 3.43328 -1.13173 0
M  V30 10013 O 942.322 3.5848 -2.51841 0
M  V30 10014 C 943.823 4.34427 -0.882523 0
M  V30 10015 H 941.043 0.609518 -0.280586 0
M  V30 10016 H 943.587 1.49711 -1.39308 0
M  V30 10017 H 941.742 3.83423 -0.553704 0
M  V30 10018 H 942.156 4.52166 -2.65794 0
M  V30 10019 H 943.63 5.39123 -1.18533 0
M  V30 10020 H 944.107 4.3882 0.18257 0
M  V30 10021 H 944.713 4.00035 -1.44403 0
M  V30 10022 N 943.028 0.824394 1.34319 0
M  V30 10023 C 943.991 0.252696 2.27803 0
M  V30 10024 C 944.991 -0.570254 1.50349 0
M  V30 10025 O 946.181 -0.386145 1.69866 0
M  V30 10026 C 943.313 -0.645575 3.34731 0
M  V30 10027 H 944.506 1.07742 2.79878 0
M  V30 10028 H 942.059 0.596367 1.44475 0
M  V30 10029 H 942.794 -1.4933 2.87873 0
M  V30 10030 H 942.579 -0.0569478 3.92059 0
M  V30 10031 H 944.069 -1.03933 4.0446 0
M  V30 10032 N 944.506 -1.46559 0.579492 0
M  V30 10033 C 945.731 -2.0729 0.0674595 0
M  V30 10034 C 946.156 -1.4259 -1.22677 0
M  V30 10035 O 945.514 -0.50857 -1.74021 0
M  V30 10036 C 945.562 -3.60492 -0.0882227 0
M  V30 10037 O 944.666 -3.96172 -1.14551 0
M  V30 10038 H 944.007 -0.661159 0.0613536 0
M  V30 10039 H 946.537 -1.88247 0.801519 0
M  V30 10040 H 946.547 -4.06929 -0.295411 0
M  V30 10041 H 945.222 -4.06976 0.856943 0
M  V30 10042 H 943.799 -3.61448 -0.917033 0
M  V30 10043 N 945.984 -0.3171 -1.54377 0
M  V30 10044 C 947.214 0.289138 -2.04567 0
M  V30 10045 C 947.622 1.46833 -1.19318 0
M  V30 10046 O 946.965 1.82436 -0.215141 0
M  V30 10047 C 947.027 0.792994 -3.50645 0
M  V30 10048 C 946.691 -0.263033 -4.56242 0
M  V30 10049 C 947.688 -1.09694 -5.08196 0
M  V30 10050 C 945.373 -0.409364 -5.00629 0
M  V30 10051 C 947.367 -2.06297 -6.03092 0
M  V30 10052 C 945.054 -1.37882 -5.95342 0
M  V30 10053 C 946.052 -2.20409 -6.46459 0
M  V30 10054 O 945.74 -3.15708 -7.39313 0
M  V30 10055 H 945.472 0.0644005 -0.672925 0
M  V30 10056 H 948.026 -0.459438 -2.00196 0
M  V30 10057 H 946.256 1.59237 -3.52392 0
M  V30 10058 H 947.945 1.31687 -3.83944 0
M  V30 10059 H 948.711 -0.994842 -4.74687 0
M  V30 10060 H 944.59 0.223091 -4.6046 0
M  V30 10061 H 948.134 -2.70751 -6.42915 0
M  V30 10062 H 944.031 -1.48158 -6.28267 0
M  V30 10063 H 944.799 -3.10873 -7.57166 0
M  V30 10064 N 947.462 1.57535 -0.0451378 0
M  V30 10065 C 948.873 1.80116 0.491426 0
M  V30 10066 C 949.224 0.956846 1.71286 0
M  V30 10067 O 948.349 0.17173 2.15718 0
M  V30 10068 C 948.944 3.26674 0.898315 0
M  V30 10069 C 947.503 3.50194 1.37989 0
M  V30 10070 C 946.65 2.75054 0.352202 0
M  V30 10071 H 949.601 1.56368 -0.271065 0
M  V30 10072 H 949.622 3.37263 1.76164 0
M  V30 10073 H 949.134 3.88099 0.009141 0
M  V30 10074 H 947.235 2.94041 2.28846 0
M  V30 10075 H 947.348 4.58909 1.37622 0
M  V30 10076 H 945.712 2.4101 0.823784 0
M  V30 10077 H 946.495 3.39203 -0.528782 0
M  V30 10078 N 948.94 -0.228186 1.55939 0
M  V30 10079 C 950.356 -0.577583 1.48782 0
M  V30 10080 C 950.556 -1.87461 0.738972 0
M  V30 10081 O 949.612 -2.50988 0.275929 0
M  V30 10082 C 950.925 -0.662961 2.93301 0
M  V30 10083 C 952.473 -0.754035 3.03782 0
M  V30 10084 C 952.948 -0.870815 4.49645 0
M  V30 10085 N 954.439 -0.935208 4.53661 0
M  V30 10086 C 955.174 -1.04516 5.63794 0
M  V30 10087 N 954.67 -1.11948 6.83696 0
M  V30 10088 N 956.463 -1.07978 5.51631 0
M  V30 10089 H 948.614 0.623018 2.03057 0
M  V30 10090 H 950.877 0.217692 0.922667 0
M  V30 10091 H 950.583 0.220375 3.51009 0
M  V30 10092 H 950.457 -1.52876 3.44831 0
M  V30 10093 H 952.844 -1.62782 2.46143 0
M  V30 10094 H 952.925 0.137301 2.55431 0
M  V30 10095 H 952.569 -0.0015186 5.079 0
M  V30 10096 H 952.499 -1.77747 4.95695 0
M  V30 10097 H 954.99 -0.88836 3.6731 0
M  V30 10098 H 955.303 -1.20297 7.6338 0
M  V30 10099 H 953.648 -1.08873 6.8642 0
M  V30 10100 H 956.839 -1.01833 4.56889 0
M  V30 10101 H 957.012 -1.16202 6.37496 0
M  V30 10102 N 950.418 -1.49637 -0.494624 0
M  V30 10103 C 951.348 -1.69692 -1.60396 0
M  V30 10104 C 952.329 -0.545648 -1.61111 0
M  V30 10105 O 953.514 -0.782202 -1.77751 0
M  V30 10106 C 950.644 -1.76934 -2.9885 0
M  V30 10107 C 949.598 -2.91915 -3.13001 0
M  V30 10108 C 948.924 -2.84276 -4.5287 0
M  V30 10109 C 950.224 -4.32764 -2.92426 0
M  V30 10110 H 951.918 -2.6257 -1.43866 0
M  V30 10111 H 949.464 -1.26355 -0.690679 0
M  V30 10112 H 951.417 -1.8955 -3.76362 0
M  V30 10113 H 950.141 -0.806609 -3.16483 0
M  V30 10114 H 948.8 -2.78911 -2.37916 0
M  V30 10115 H 948.448 -1.85897 -4.67388 0
M  V30 10116 H 948.148 -3.61452 -4.63278 0
M  V30 10117 H 949.672 -2.98909 -5.32434 0
M  V30 10118 H 951.086 -4.46415 -3.59703 0
M  V30 10119 H 949.483 -5.1121 -3.143 0
M  V30 10120 H 950.553 -4.46765 -1.88491 0
M  V30 10121 N 951.896 0.746133 -1.38819 0
M  V30 10122 C 952.844 1.88137 -1.36774 0
M  V30 10123 C 953.838 1.67508 -0.252495 0
M  V30 10124 O 955.044 1.74985 -0.421935 0
M  V30 10125 H 951.419 0.619116 -0.426849 0
M  V30 10126 H 953.39 1.86978 -2.32555 0
M  V30 10127 C 952.139 3.25703 -1.21708 0
M  V30 10128 H 951.462 3.42168 -2.06788 0
M  V30 10129 H 952.902 4.05361 -1.24332 0
M  V30 10130 C 951.361 3.36816 0.0754257 0
M  V30 10131 O 951.891 3.87742 1.04972 0
M  V30 10132 N 950.097 2.90287 0.134761 0
M  V30 10133 H 949.644 2.49034 -0.658779 0
M  V30 10134 H 949.602 2.98103 0.999109 0
M  V30 10135 N 953.375 1.23811 0.975125 0
M  V30 10136 C 954.623 1.07124 1.71373 0
M  V30 10137 C 954.944 -0.391864 1.91022 0
M  V30 10138 O 954.214 -1.28041 1.48265 0
M  V30 10139 H 952.794 0.393415 0.635007 0
M  V30 10140 H 955.456 1.55612 1.17349 0
M  V30 10141 H 954.552 1.56338 2.7012 0
M  V30 10142 N 954.853 -1.17469 1.05066 0
M  V30 10143 C 955.801 -2.23495 0.644418 0
M  V30 10144 C 956.795 -1.66081 -0.333685 0
M  V30 10145 O 958.001 -1.78887 -0.199886 0
M  V30 10146 H 954.376 -0.727546 0.190214 0
M  V30 10147 H 956.347 -2.55058 1.5488 0
M  V30 10148 C 955.096 -3.47684 0.0338051 0
M  V30 10149 H 954.419 -3.92167 0.777513 0
M  V30 10150 H 955.859 -4.23464 -0.213086 0
M  V30 10151 C 954.318 -3.14067 -1.21915 0
M  V30 10152 O 954.848 -3.28728 -2.3087 0
M  V30 10153 N 953.054 -2.68304 -1.11631 0
M  V30 10154 H 952.601 -2.56574 -0.229673 0
M  V30 10155 H 952.559 -2.46184 -1.95553 0
M  V30 10156 N 956.331 -0.831506 -1.3388 0
M  V30 10157 C 957.608 -0.345907 -1.92517 0
M  V30 10158 C 957.988 1.16784 -1.75854 0
M  V30 10159 O 957.336 1.97889 -1.14245 0
M  V30 10160 C 957.546 -0.784692 -3.40064 0
M  V30 10161 C 958.894 -0.78846 -4.17215 0
M  V30 10162 O 959.918 -0.727823 -3.48685 0
M  V30 10163 O 958.777 -0.869481 -5.39539 0
M  V30 10164 H 955.871 -0.0963568 -0.821367 0
M  V30 10165 H 958.417 -0.916868 -1.42799 0
M  V30 10166 H 957.189 -1.82697 -3.46031 0
M  V30 10167 H 956.812 -0.189897 -3.97146 0
M  V30 10168 N 957.809 1.4625 -0.587256 0
M  V30 10169 C 958.742 2.27392 0.191837 0
M  V30 10170 C 959.72 1.35905 0.89267 0
M  V30 10171 O 960.904 1.65319 0.905643 0
M  V30 10172 C 958.031 3.13758 1.27567 0
M  V30 10173 C 957.077 4.21041 0.680186 0
M  V30 10174 S 957.91 5.33194 -0.496419 0
M  V30 10175 C 959.066 6.23127 0.588506 0
M  V30 10176 H 959.299 2.93123 -0.496635 0
M  V30 10177 H 956.832 1.49795 -0.37426 0
M  V30 10178 H 958.79 3.6408 1.8962 0
M  V30 10179 H 957.451 2.47332 1.93612 0
M  V30 10180 H 956.644 4.81316 1.49503 0
M  V30 10181 H 956.246 3.73755 0.135227 0
M  V30 10182 H 958.538 6.61294 1.47298 0
M  V30 10183 H 959.481 7.08096 0.0224093 0
M  V30 10184 H 959.889 5.57365 0.894696 0
M  V30 10185 N 959.287 0.325282 1.54207 0
M  V30 10186 C 960.533 -0.269944 2.01601 0
M  V30 10187 C 960.888 -1.49643 1.20933 0
M  V30 10188 O 960.181 -1.89486 0.283838 0
M  V30 10189 C 960.375 -0.654292 3.5136 0
M  V30 10190 C 960.204 0.533397 4.46525 0
M  V30 10191 C 958.974 1.03304 4.94628 0
M  V30 10192 C 961.172 1.38613 4.95269 0
M  V30 10193 N 959.154 2.18495 5.73701 0
M  V30 10194 C 960.525 2.38519 5.72284 0
M  V30 10195 C 962.58 1.41369 4.77409 0
M  V30 10196 C 961.283 3.40988 6.3334 0
M  V30 10197 C 963.309 2.4271 5.39301 0
M  V30 10198 C 962.671 3.41343 6.16169 0
M  V30 10199 H 958.77 -0.0625778 0.779492 0
M  V30 10200 H 961.354 0.460711 1.89171 0
M  V30 10201 H 959.525 -1.35408 3.64032 0
M  V30 10202 H 961.257 -1.23114 3.85519 0
M  V30 10203 H 958.012 0.604045 4.69732 0
M  V30 10204 H 958.436 2.76605 6.17915 0
M  V30 10205 H 963.078 0.664796 4.17541 0
M  V30 10206 H 960.796 4.16784 6.92327 0
M  V30 10207 H 964.382 2.45647 5.27398 0
M  V30 10208 H 963.262 4.18476 6.6321 0
M  V30 10209 N 960.765 -1.57509 0.0534917 0
M  V30 10210 C 961.698 -2.0723 -0.955554 0
M  V30 10211 C 962.676 -0.973313 -1.30251 0
M  V30 10212 O 963.86 -1.24541 -1.41498 0
M  V30 10213 C 960.987 -2.51473 -2.2689 0
M  V30 10214 C 960.033 -3.7263 -2.07482 0
M  V30 10215 S 960.866 -5.18177 -1.35104 0
M  V30 10216 C 962.022 -5.65736 -2.67757 0
M  V30 10217 H 962.255 -2.92494 -0.532407 0
M  V30 10218 H 959.788 -1.53581 -0.158831 0
M  V30 10219 H 961.746 -2.77626 -3.02381 0
M  V30 10220 H 960.407 -1.66511 -2.66332 0
M  V30 10221 H 959.6 -4.01515 -3.04633 0
M  V30 10222 H 959.202 -3.46756 -1.4013 0
M  V30 10223 H 961.494 -5.71463 -3.63918 0
M  V30 10224 H 962.437 -6.64914 -2.43506 0
M  V30 10225 H 962.845 -4.93475 -2.74123 0
M  V30 10226 N 962.243 0.219913 -1.56058 0
M  V30 10227 C 963.468 0.965073 -1.83579 0
M  V30 10228 C 963.893 1.77092 -0.634024 0
M  V30 10229 O 963.251 1.76434 0.417205 0
M  V30 10230 C 963.299 1.85705 -3.09105 0
M  V30 10231 O 962.403 2.95261 -2.87914 0
M  V30 10232 H 961.744 0.273173 -0.605204 0
M  V30 10233 H 964.274 0.23273 -2.03272 0
M  V30 10234 H 964.284 2.26655 -3.39252 0
M  V30 10235 H 962.959 1.26476 -3.96203 0
M  V30 10236 H 961.536 2.58246 -2.69005 0
M  V30 10237 N 963.721 1.49897 0.486681 0
M  V30 10238 C 964.951 1.63599 1.2617 0
M  V30 10239 C 965.359 0.312365 1.86604 0
M  V30 10240 O 964.702 -0.713911 1.6926 0
M  V30 10241 C 964.764 2.65736 2.42125 0
M  V30 10242 C 964.428 4.09711 2.0245 0
M  V30 10243 C 965.425 4.9607 1.55596 0
M  V30 10244 C 963.11 4.55534 2.11647 0
M  V30 10245 C 965.104 6.26295 1.18462 0
M  V30 10246 C 962.791 5.85768 1.74124 0
M  V30 10247 C 963.789 6.70973 1.27608 0
M  V30 10248 O 963.477 7.98778 0.905991 0
M  V30 10249 H 963.209 0.55333 0.388332 0
M  V30 10250 H 965.763 1.96768 0.589195 0
M  V30 10251 H 963.993 2.27778 3.12497 0
M  V30 10252 H 965.682 2.68819 3.04123 0
M  V30 10253 H 966.448 4.61891 1.47925 0
M  V30 10254 H 962.327 3.8937 2.46803 0
M  V30 10255 H 965.871 6.92754 0.820839 0
M  V30 10256 H 961.768 6.19473 1.8145 0
M  V30 10257 H 962.536 8.11914 1.03621 0
M  V30 10258 N 965.199 -0.738761 1.39212 0
M  V30 10259 C 966.447 -1.49529 1.35962 0
M  V30 10260 C 966.768 -1.94948 -0.0450152 0
M  V30 10261 O 966.038 -1.68717 -0.995552 0
M  V30 10262 H 964.618 -0.554692 0.500326 0
M  V30 10263 H 967.28 -0.877255 1.74041 0
M  V30 10264 H 966.376 -2.37919 2.01993 0
M  V30 10265 N 966.677 -1.24326 -0.968545 0
M  V30 10266 C 967.607 -1.05951 -2.08079 0
M  V30 10267 C 968.588 0.0272666 -1.70078 0
M  V30 10268 O 969.773 -0.139644 -1.93697 0
M  V30 10269 C 966.903 -0.662623 -3.4092 0
M  V30 10270 C 965.857 -1.69807 -3.92873 0
M  V30 10271 C 965.183 -1.15628 -5.22048 0
M  V30 10272 C 966.483 -3.09383 -4.20808 0
M  V30 10273 H 968.177 -1.98984 -2.23709 0
M  V30 10274 H 965.723 -0.958112 -1.075 0
M  V30 10275 H 967.676 -0.521071 -4.18166 0
M  V30 10276 H 966.4 0.303399 -3.25188 0
M  V30 10277 H 965.059 -1.82783 -3.17783 0
M  V30 10278 H 964.707 -0.180888 -5.02675 0
M  V30 10279 H 964.407 -1.84822 -5.57776 0
M  V30 10280 H 965.931 -1.02683 -6.01904 0
M  V30 10281 H 967.345 -2.99642 -4.88761 0
M  V30 10282 H 965.742 -3.75923 -4.67763 0
M  V30 10283 H 966.812 -3.57486 -3.27616 0
M  V30 10284 N 968.156 1.1691 -1.05688 0
M  V30 10285 C 969.402 1.87814 -0.780871 0
M  V30 10286 C 969.757 1.79796 0.684926 0
M  V30 10287 O 969.05 1.19853 1.49485 0
M  V30 10288 C 969.244 3.36578 -1.20207 0
M  V30 10289 C 969.073 3.59078 -2.70727 0
M  V30 10290 C 967.843 3.75515 -3.38107 0
M  V30 10291 C 970.041 3.58307 -3.68946 0
M  V30 10292 N 968.023 3.85906 -4.77441 0
M  V30 10293 C 969.394 3.74608 -4.94033 0
M  V30 10294 C 971.449 3.41484 -3.62343 0
M  V30 10295 C 970.152 3.75828 -6.13307 0
M  V30 10296 C 972.178 3.43995 -4.81063 0
M  V30 10297 C 971.54 3.60809 -6.04976 0
M  V30 10298 H 967.639 0.705158 -0.338047 0
M  V30 10299 H 970.223 1.40315 -1.34981 0
M  V30 10300 H 968.394 3.82734 -0.661031 0
M  V30 10301 H 970.126 3.95119 -0.875377 0
M  V30 10302 H 966.881 3.7558 -2.88508 0
M  V30 10303 H 967.305 3.94886 -5.49904 0
M  V30 10304 H 971.947 3.27417 -2.67503 0
M  V30 10305 H 969.665 3.88679 -7.08487 0
M  V30 10306 H 973.251 3.3223 -4.77613 0
M  V30 10307 H 972.131 3.62663 -6.95302 0
M  V30 10308 N 969.634 0.838594 1.33437 0
M  V30 10309 C 970.883 0.430484 1.97053 0
M  V30 10310 C 971.196 -1.01556 1.6717 0
M  V30 10311 O 972.402 -1.52834 2.24397 0
M  V30 10312 C 970.858 0.718828 3.52648 0
M  V30 10313 C 970.466 2.17953 3.91408 0
M  V30 10314 C 972.21 0.377654 4.22817 0
M  V30 10315 C 970.117 2.41194 5.39981 0
M  V30 10316 H 969.047 0.157239 0.737422 0
M  V30 10317 H 971.698 1.02714 1.5206 0
M  V30 10318 H 970.08 0.0518042 3.95966 0
M  V30 10319 H 971.254 2.88701 3.59149 0
M  V30 10320 H 969.569 2.48366 3.34221 0
M  V30 10321 H 972.166 0.528926 5.32077 0
M  V30 10322 H 972.509 -0.679338 4.1072 0
M  V30 10323 H 973.042 0.999899 3.85028 0
M  V30 10324 H 969.781 3.45457 5.57081 0
M  V30 10325 H 969.301 1.75007 5.73701 0
M  V30 10326 H 970.98 2.24334 6.06863 0
M  V30 10327 N 971.112 -1.45937 0.595003 0
M  V30 10328 C 972.352 -2.0421 0.0881479 0
M  V30 10329 C 972.716 -1.45498 -1.25277 0
M  V30 10330 O 973.917 -1.95047 -1.8496 0
M  V30 10331 C 972.188 -3.57382 0.0362346 0
M  V30 10332 S 973.747 -4.36869 -0.41126 0
M  V30 10333 H 970.565 -0.709672 0.0434424 0
M  V30 10334 H 973.167 -1.78815 0.790273 0
M  V30 10335 H 971.871 -3.97628 1.0159 0
M  V30 10336 H 971.402 -3.87332 -0.688278 0
M  V30 10337 H 973.417 -4.67486 -1.66347 0
M  V30 10338 N 972.59 -0.333456 -1.54032 0
M  V30 10339 C 973.836 0.266527 -2.01041 0
M  V30 10340 C 974.169 1.51006 -1.2211 0
M  V30 10341 O 973.444 1.92078 -0.306016 0
M  V30 10342 C 973.727 0.59078 -3.55221 0
M  V30 10343 C 973.58 -0.664143 -4.4487 0
M  V30 10344 C 974.899 1.40447 -4.17088 0
M  V30 10345 H 972.018 0.0953979 -0.7308 0
M  V30 10346 H 974.66 -0.451995 -1.84545 0
M  V30 10347 H 972.81 1.20292 -3.69408 0
M  V30 10348 H 974.482 -1.30227 -4.42537 0
M  V30 10349 H 972.725 -1.29106 -4.14143 0
M  V30 10350 H 973.396 -0.392664 -5.50602 0
M  V30 10351 H 975.872 0.886946 -4.06537 0
M  V30 10352 H 974.748 1.6001 -5.2506 0
M  V30 10353 H 975.009 2.40357 -3.71054 0
M  V30 10354 N 974.068 1.57479 -0.061844 0
M  V30 10355 C 975.315 1.93108 0.60954 0
M  V30 10356 C 975.643 0.941086 1.70217 0
M  V30 10357 O 974.898 -0.044914 1.95648 0
M  V30 10358 C 975.197 3.35394 1.23474 0
M  V30 10359 C 974.863 4.50095 0.269247 0
M  V30 10360 C 973.525 4.812 0.00360316 0
M  V30 10361 C 975.877 5.19725 -0.391839 0
M  V30 10362 C 973.205 5.79276 -0.930383 0
M  V30 10363 C 975.557 6.18801 -1.31408 0
M  V30 10364 C 974.221 6.48328 -1.58829 0
M  V30 10365 H 973.491 0.706634 0.223046 0
M  V30 10366 H 976.138 1.91054 -0.1306 0
M  V30 10367 H 974.443 3.33866 2.05039 0
M  V30 10368 H 976.14 3.60247 1.76134 0
M  V30 10369 H 972.73 4.2583 0.486477 0
M  V30 10370 H 976.914 4.95898 -0.199713 0
M  V30 10371 H 972.17 6.00484 -1.15019 0
M  V30 10372 H 976.344 6.71862 -1.83234 0
M  V30 10373 H 973.971 7.24137 -2.31363 0
M  V30 10374 N 975.546 -0.211634 1.56173 0
M  V30 10375 C 976.794 -0.932704 1.7929 0
M  V30 10376 C 977.115 -1.84472 0.632076 0
M  V30 10377 O 976.385 -1.92739 -0.350519 0
M  V30 10378 H 974.965 -0.347393 0.661307 0
M  V30 10379 H 977.627 -0.22111 1.93642 0
M  V30 10380 H 976.723 -1.53365 2.71819 0
M  V30 10381 N 977.024 -1.50153 -0.478725 0
M  V30 10382 C 977.987 -1.67916 -1.56003 0
M  V30 10383 C 978.987 -0.550111 -1.51097 0
M  V30 10384 O 980.177 -0.817001 -1.53853 0
M  V30 10385 C 977.309 -1.6973 -2.95643 0
M  V30 10386 H 978.502 -2.6438 -1.41573 0
M  V30 10387 H 976.055 -1.39519 -0.704565 0
M  V30 10388 H 976.79 -0.749306 -3.15525 0
M  V30 10389 H 976.575 -2.51745 -3.00611 0
M  V30 10390 H 978.065 -1.85453 -3.74162 0
M  V30 10391 N 978.502 0.731368 -1.39602 0
M  V30 10392 C 979.449 1.84541 -1.38612 0
M  V30 10393 C 980.419 1.64279 -0.245287 0
M  V30 10394 O 981.604 1.85635 -0.440954 0
M  V30 10395 C 978.744 3.22092 -1.23897 0
M  V30 10396 C 977.857 3.54034 -2.47555 0
M  V30 10397 C 976.992 4.81007 -2.25402 0
M  V30 10398 C 976.031 5.05804 -3.44716 0
M  V30 10399 N 975.168 6.23981 -3.21857 0
M  V30 10400 H 980.008 1.84722 -2.33841 0
M  V30 10401 H 977.545 0.902569 -1.16156 0
M  V30 10402 H 979.503 4.01499 -1.13376 0
M  V30 10403 H 978.133 3.2118 -0.322958 0
M  V30 10404 H 977.185 2.69301 -2.68665 0
M  V30 10405 H 978.497 3.68275 -3.36415 0
M  V30 10406 H 977.651 5.68401 -2.12143 0
M  V30 10407 H 976.39 4.68946 -1.33943 0
M  V30 10408 H 975.395 4.1687 -3.58468 0
M  V30 10409 H 976.62 5.19747 -4.37081 0
M  V30 10410 H 974.566 6.13202 -2.33065 0
M  V30 10411 H 974.483 6.38826 -4.04274 0
M  V30 10412 H 975.751 7.14205 -3.123 0
M  V30 10413 N 979.98 1.24838 0.961938 0
M  V30 10414 C 980.91 1.07053 2.07514 0
M  V30 10415 C 981.891 -0.0182465 1.7009 0
M  V30 10416 O 983.076 0.149915 1.9362 0
M  V30 10417 C 980.206 0.680693 3.40564 0
M  V30 10418 C 979.16 1.71889 3.91967 0
M  V30 10419 C 978.486 1.18395 5.21428 0
M  V30 10420 C 979.786 3.1161 4.19161 0
M  V30 10421 H 981.48 2.00167 2.22651 0
M  V30 10422 H 979.026 0.963799 1.0699 0
M  V30 10423 H 980.979 0.54324 4.17884 0
M  V30 10424 H 979.703 -0.28615 3.25344 0
M  V30 10425 H 978.362 1.84465 3.16809 0
M  V30 10426 H 978.01 0.207543 5.02572 0
M  V30 10427 H 977.71 1.87778 5.56788 0
M  V30 10428 H 979.234 1.05873 6.01351 0
M  V30 10429 H 980.648 3.0223 4.87165 0
M  V30 10430 H 979.045 3.78398 4.65763 0
M  V30 10431 H 980.115 3.59218 3.25715 0
M  V30 10432 N 981.458 -1.16348 1.06306 0
M  V30 10433 C 982.704 -1.87158 0.781007 0
M  V30 10434 C 983.037 -1.81499 -0.690784 0
M  V30 10435 O 982.312 -1.23074 -1.50609 0
M  V30 10436 C 982.595 -3.3672 1.27639 0
M  V30 10437 C 982.448 -3.51069 2.81194 0
M  V30 10438 C 983.767 -4.31122 0.884388 0
M  V30 10439 H 980.886 -0.679586 0.285187 0
M  V30 10440 H 983.528 -1.36756 1.31901 0
M  V30 10441 H 981.678 -3.79775 0.818715 0
M  V30 10442 H 983.35 -3.16952 3.35171 0
M  V30 10443 H 981.593 -2.92976 3.19918 0
M  V30 10444 H 982.264 -4.56105 3.10921 0
M  V30 10445 H 984.74 -3.95969 1.27858 0
M  V30 10446 H 983.616 -5.34279 1.25847 0
M  V30 10447 H 983.877 -4.41598 -0.210673 0
M  V30 10448 N 982.937 -0.845659 -1.3299 0
M  V30 10449 C 983.847 -0.2864 -2.32845 0
M  V30 10450 C 984.863 0.591105 -1.63652 0
M  V30 10451 O 986.039 0.493615 -1.95257 0
M  V30 10452 C 983.104 0.523636 -3.42723 0
M  V30 10453 C 982.165 -0.378945 -4.27624 0
M  V30 10454 C 981.398 0.392526 -5.32255 0
M  V30 10455 O 981.621 1.6235 -5.46808 0
M  V30 10456 O 980.555 -0.237 -6.01433 0
M  V30 10457 H 984.381 -1.11346 -2.82552 0
M  V30 10458 H 981.966 -0.608356 -1.36453 0
M  V30 10459 H 983.848 0.983718 -4.09757 0
M  V30 10460 H 982.523 1.32764 -2.95221 0
M  V30 10461 H 981.43 -0.887012 -3.63432 0
M  V30 10462 H 982.763 -1.1479 -4.78627 0
M  V30 10463 N 984.415 1.45619 -0.602734 0
M  V30 10464 C 985.64 2.07157 -0.100429 0
M  V30 10465 C 986.065 1.44524 1.20393 0
M  V30 10466 O 985.423 0.536191 1.7319 0
M  V30 10467 C 985.471 3.60587 0.0308604 0
M  V30 10468 O 984.575 3.97944 1.08234 0
M  V30 10469 H 983.916 0.6601 -0.0718643 0
M  V30 10470 H 986.446 1.86948 -0.831366 0
M  V30 10471 H 986.456 4.07348 0.230634 0
M  V30 10472 H 985.131 4.05561 -0.921581 0
M  V30 10473 H 983.708 3.62862 0.859414 0
M  V30 10474 N 985.893 0.34162 1.53853 0
M  V30 10475 C 987.123 -0.256557 2.05001 0
M  V30 10476 C 987.531 -1.44916 1.21639 0
M  V30 10477 O 986.874 -1.8207 0.244138 0
M  V30 10478 C 986.936 -0.737109 3.51862 0
M  V30 10479 C 986.6 0.335584 4.55766 0
M  V30 10480 C 987.597 1.17765 5.06387 0
M  V30 10481 C 985.282 0.488958 4.99914 0
M  V30 10482 C 987.276 2.15865 5.99734 0
M  V30 10483 C 984.963 1.47336 5.93073 0
M  V30 10484 C 985.961 2.30666 6.4287 0
M  V30 10485 O 985.649 3.2743 7.34197 0
M  V30 10486 H 985.381 -0.0536867 0.673865 0
M  V30 10487 H 987.935 0.49123 1.99439 0
M  V30 10488 H 986.165 -1.53611 3.54881 0
M  V30 10489 H 987.854 -1.25562 3.85991 0
M  V30 10490 H 988.62 1.07023 4.73044 0
M  V30 10491 H 984.499 -0.149807 4.60757 0
M  V30 10492 H 988.043 2.80945 6.38526 0
M  V30 10493 H 983.94 1.58134 6.25831 0
M  V30 10494 H 984.708 3.22879 7.52125 0
M  V30 10495 N 987.371 -1.57444 0.0701946 0
M  V30 10496 C 988.618 -1.93429 -0.59929 0
M  V30 10497 C 988.946 -0.9501 -1.69715 0
M  V30 10498 O 988.201 0.0345377 -1.9567 0
M  V30 10499 C 988.5 -3.36044 -1.21694 0
M  V30 10500 C 988.166 -4.50232 -0.245374 0
M  V30 10501 C 986.828 -4.81195 0.0219161 0
M  V30 10502 C 989.18 -5.1951 0.419396 0
M  V30 10503 C 986.508 -5.78775 0.96109 0
M  V30 10504 C 988.86 -6.18095 1.34688 0
M  V30 10505 C 987.524 -6.47477 1.62265 0
M  V30 10506 H 986.794 -0.707807 -0.219296 0
M  V30 10507 H 989.441 -1.90982 0.14073 0
M  V30 10508 H 987.746 -3.34948 -2.03265 0
M  V30 10509 H 989.443 -3.61176 -1.74221 0
M  V30 10510 H 986.033 -4.26082 -0.463887 0
M  V30 10511 H 990.217 -4.95785 0.226009 0
M  V30 10512 H 985.473 -5.99865 1.18202 0
M  V30 10513 H 989.647 -6.7088 1.86795 0
M  V30 10514 H 987.274 -7.229 2.352 0
M  V30 10515 N 988.849 0.203349 -1.56283 0
M  V30 10516 C 990.096 0.92501 -1.80138 0
M  V30 10517 C 990.424 1.83598 -0.64204 0
M  V30 10518 O 989.679 1.92119 0.372658 0
M  V30 10519 C 989.978 1.78016 -3.09912 0
M  V30 10520 C 989.644 1.02088 -4.39191 0
M  V30 10521 C 988.306 0.811208 -4.74313 0
M  V30 10522 C 990.658 0.486037 -5.18929 0
M  V30 10523 C 987.986 0.0550856 -5.86674 0
M  V30 10524 C 990.338 -0.256833 -6.32078 0
M  V30 10525 C 989.002 -0.477594 -6.65789 0
M  V30 10526 H 988.272 0.338485 -0.659173 0
M  V30 10527 H 990.919 0.191923 -1.90536 0
M  V30 10528 H 989.224 2.58167 -2.94715 0
M  V30 10529 H 990.921 2.341 -3.25574 0
M  V30 10530 H 987.511 1.1943 -4.11624 0
M  V30 10531 H 991.695 0.635446 -4.92215 0
M  V30 10532 H 986.951 -0.126006 -6.1127 0
M  V30 10533 H 991.125 -0.678683 -6.93085 0
M  V30 10534 H 988.752 -1.0654 -7.52697 0
M  V30 10535 N 990.327 1.50405 0.470755 0
M  V30 10536 C 991.257 1.72222 1.57676 0
M  V30 10537 C 992.238 0.57121 1.60222 0
M  V30 10538 O 993.423 0.810381 1.76484 0
M  V30 10539 C 990.553 1.81666 2.95998 0
M  V30 10540 C 989.507 2.96857 3.08318 0
M  V30 10541 C 988.833 2.91445 4.4829 0
M  V30 10542 C 990.133 4.37361 2.85504 0
M  V30 10543 H 991.827 2.64825 1.39671 0
M  V30 10544 H 989.373 1.27438 0.67049 0
M  V30 10545 H 991.326 1.95514 3.73299 0
M  V30 10546 H 990.05 0.856856 3.1516 0
M  V30 10547 H 988.709 2.82661 2.33449 0
M  V30 10548 H 988.357 1.93309 4.64371 0
M  V30 10549 H 988.057 3.68776 4.57469 0
M  V30 10550 H 989.581 3.07341 5.27611 0
M  V30 10551 H 990.995 4.52081 3.52555 0
M  V30 10552 H 989.392 5.16145 3.06127 0
M  V30 10553 H 990.462 4.49708 1.81359 0
M  V30 10554 N 991.805 -0.723954 1.39988 0
M  V30 10555 C 993.033 -1.51313 1.4111 0
M  V30 10556 C 993.448 -1.88798 0.00853333 0
M  V30 10557 O 992.805 -1.54868 -0.965516 0
M  V30 10558 C 992.856 -2.79375 2.29416 0
M  V30 10559 O 992.577 -2.43478 3.64211 0
M  V30 10560 C 994.078 -3.7333 2.3904 0
M  V30 10561 H 991.298 -0.46724 0.481589 0
M  V30 10562 H 993.842 -0.893694 1.83938 0
M  V30 10563 H 991.997 -3.37624 1.89971 0
M  V30 10564 H 992.411 -3.25821 4.11024 0
M  V30 10565 H 993.885 -4.60051 3.05053 0
M  V30 10566 H 994.362 -4.15854 1.41289 0
M  V30 10567 H 994.968 -3.20996 2.79001 0
M  V30 10568 N 993.283 -1.25346 -0.955304 0
M  V30 10569 C 994.213 -1.08152 -2.06943 0
M  V30 10570 C 995.194 0.00922598 -1.70097 0
M  V30 10571 O 996.379 -0.160181 -1.93538 0
M  V30 10572 C 993.509 -0.698745 -3.40198 0
M  V30 10573 C 992.463 -1.73965 -3.9105 0
M  V30 10574 C 991.789 -1.21158 -5.20792 0
M  V30 10575 C 993.089 -3.13829 -4.17503 0
M  V30 10576 H 994.783 -2.01345 -2.21586 0
M  V30 10577 H 992.329 -0.969459 -1.06478 0
M  V30 10578 H 994.282 -0.565394 -4.1759 0
M  V30 10579 H 993.006 0.268892 -3.25491 0
M  V30 10580 H 991.665 -1.86143 -3.15827 0
M  V30 10581 H 991.313 -0.234193 -5.02455 0
M  V30 10582 H 991.013 -1.90728 -5.55785 0
M  V30 10583 H 992.537 -1.09061 -6.00781 0
M  V30 10584 H 993.951 -3.04809 -4.85556 0
M  V30 10585 H 992.348 -3.80863 -4.63749 0
M  V30 10586 H 993.418 -3.6094 -3.23806 0
M  V30 10587 N 994.761 1.15782 -1.06922 0
M  V30 10588 C 995.986 1.90896 -0.810771 0
M  V30 10589 C 996.411 1.77246 0.629714 0
M  V30 10590 O 995.769 1.10215 1.43953 0
M  V30 10591 C 995.817 3.39397 -1.21829 0
M  V30 10592 O 994.921 4.10818 -0.360934 0
M  V30 10593 H 994.262 0.594497 -0.295752 0
M  V30 10594 H 996.792 1.46652 -1.42669 0
M  V30 10595 H 996.802 3.90181 -1.19259 0
M  V30 10596 H 995.477 3.4865 -2.2675 0
M  V30 10597 H 994.054 3.7019 -0.448748 0
M  V30 10598 N 996.239 0.8527 1.3254 0
M  V30 10599 C 997.169 0.311234 2.31416 0
M  V30 10600 C 998.15 -0.588557 1.59593 0
M  V30 10601 O 999.335 -0.509211 1.87405 0
M  V30 10602 C 996.465 -0.502892 3.4364 0
M  V30 10603 C 995.419 0.302296 4.26931 0
M  V30 10604 C 994.745 -0.636445 5.30899 0
M  V30 10605 C 996.045 1.52697 4.99481 0
M  V30 10606 H 997.739 1.13742 2.76953 0
M  V30 10607 H 995.285 0.548389 1.33149 0
M  V30 10608 H 997.238 -0.892092 4.11849 0
M  V30 10609 H 995.962 -1.36242 2.96826 0
M  V30 10610 H 994.621 0.673226 3.60365 0
M  V30 10611 H 994.269 -1.49277 4.80339 0
M  V30 10612 H 993.969 -0.101716 5.87512 0
M  V30 10613 H 995.493 -1.02286 6.01972 0
M  V30 10614 H 996.907 1.21017 5.60382 0
M  V30 10615 H 995.304 1.9995 5.65809 0
M  V30 10616 H 996.374 2.28929 4.27457 0
M  V30 10617 N 997.718 -1.45297 0.610449 0
M  V30 10618 C 998.665 -2.30553 -0.106718 0
M  V30 10619 C 999.635 -1.42272 -0.85719 0
M  V30 10620 O 1000.82 -1.71199 -0.842357 0
M  V30 10621 C 997.96 -3.27226 -1.09623 0
M  V30 10622 C 997.073 -4.3061 -0.346329 0
M  V30 10623 C 996.208 -5.14389 -1.32581 0
M  V30 10624 C 995.247 -6.09497 -0.563892 0
M  V30 10625 N 994.384 -6.86047 -1.4928 0
M  V30 10626 H 999.224 -2.91344 0.626296 0
M  V30 10627 H 996.761 -1.43563 0.32065 0
M  V30 10628 H 998.719 -3.81744 -1.68308 0
M  V30 10629 H 997.349 -2.68182 -1.79662 0
M  V30 10630 H 996.401 -3.7873 0.356084 0
M  V30 10631 H 997.713 -4.98183 0.248026 0
M  V30 10632 H 996.867 -5.73321 -1.98464 0
M  V30 10633 H 995.606 -4.4684 -1.9541 0
M  V30 10634 H 994.611 -5.49693 0.108551 0
M  V30 10635 H 995.836 -6.79074 0.0593872 0
M  V30 10636 H 993.782 -6.21185 -2.10868 0
M  V30 10637 H 993.699 -7.49983 -0.951953 0
M  V30 10638 H 994.967 -7.49518 -2.14112 0
M  V30 10639 N 999.196 -0.349774 -1.5367 0
M  V30 10640 C 1000.47 0.300419 -1.93279 0
M  V30 10641 C 1000.85 1.67721 -1.28191 0
M  V30 10642 O 1000.2 2.24319 -0.435127 0
M  V30 10643 C 1000.41 0.366466 -3.47071 0
M  V30 10644 C 1001.76 0.614349 -4.20132 0
M  V30 10645 O 1002.78 0.448327 -3.53367 0
M  V30 10646 O 1001.64 0.936421 -5.38417 0
M  V30 10647 H 998.736 0.176599 -0.807924 0
M  V30 10648 H 1001.28 -0.401405 -1.64884 0
M  V30 10649 H 1000.05 -0.599455 -3.86681 0
M  V30 10650 H 999.677 1.11482 -3.81651 0
M  V30 10651 N 1000.67 1.57404 -0.0785433 0
M  V30 10652 C 1002.08 1.81118 0.45311 0
M  V30 10653 C 1002.44 0.992963 1.69218 0
M  V30 10654 O 1001.56 0.217448 2.15305 0
M  V30 10655 C 1002.16 3.28506 0.82882 0
M  V30 10656 C 1000.71 3.53042 1.3053 0
M  V30 10657 C 999.862 2.75739 0.29378 0
M  V30 10658 H 1002.81 1.55758 -0.304171 0
M  V30 10659 H 1002.83 3.40924 1.68971 0
M  V30 10660 H 1002.35 3.88031 -0.0731826 0
M  V30 10661 H 1000.45 2.98829 2.22558 0
M  V30 10662 H 1000.56 4.61724 1.27857 0
M  V30 10663 H 998.924 2.42703 0.772477 0
M  V30 10664 H 999.707 3.38005 -0.600613 0
M  V30 10665 N 1002.15 -0.195058 1.56388 0
M  V30 10666 C 1003.08 -1.26978 1.8961 0
M  V30 10667 C 1004.06 -1.43946 0.756199 0
M  V30 10668 O 1005.25 -1.59335 1.0072 0
M  V30 10669 C 1002.37 -2.63638 2.12632 0
M  V30 10670 C 1001.42 -2.6354 3.35334 0
M  V30 10671 S 1002.25 -2.1497 4.90457 0
M  V30 10672 C 1003.41 -3.53454 5.16547 0
M  V30 10673 H 1003.64 -0.986091 2.8047 0
M  V30 10674 H 1001.17 -0.398552 1.49167 0
M  V30 10675 H 1003.13 -3.42304 2.26579 0
M  V30 10676 H 1001.79 -2.89218 1.22522 0
M  V30 10677 H 1000.99 -3.64027 3.48569 0
M  V30 10678 H 1000.59 -1.92956 3.20381 0
M  V30 10679 H 1002.88 -4.49318 5.0707 0
M  V30 10680 H 1003.82 -3.45113 6.18306 0
M  V30 10681 H 1004.23 -3.48368 4.44185 0
M  V30 10682 N 1003.63 -1.50653 -0.462772 0
M  V30 10683 C 1005.05 -1.38263 -0.797213 0
M  V30 10684 C 1005.25 -0.445172 -1.96521 0
M  V30 10685 O 1004.3 0.10913 -2.52264 0
M  V30 10686 C 1005.61 -2.798 -1.10146 0
M  V30 10687 C 1007.16 -2.88774 -1.20742 0
M  V30 10688 C 1007.64 -4.31163 -1.54476 0
M  V30 10689 N 1009.13 -4.34152 -1.61451 0
M  V30 10690 C 1009.86 -5.4133 -1.89074 0
M  V30 10691 N 1009.36 -6.58705 -2.1466 0
M  V30 10692 N 1011.15 -5.28783 -1.90645 0
M  V30 10693 H 1003.3 -2.10172 0.30684 0
M  V30 10694 H 1005.57 -0.945046 0.0747862 0
M  V30 10695 H 1005.27 -3.50276 -0.316207 0
M  V30 10696 H 1005.15 -3.17559 -2.03559 0
M  V30 10697 H 1007.53 -2.18512 -1.98334 0
M  V30 10698 H 1007.61 -2.54547 -0.252904 0
M  V30 10699 H 1007.26 -5.01965 -0.774207 0
M  V30 10700 H 1007.19 -4.62883 -2.51092 0
M  V30 10701 H 1009.68 -3.49519 -1.43684 0
M  V30 10702 H 1009.99 -7.36192 -2.35035 0
M  V30 10703 H 1008.34 -6.61866 -2.12035 0
M  V30 10704 H 1011.53 -4.36078 -1.70158 0
M  V30 10705 H 1011.7 -6.12396 -2.11836 0
M  V30 10706 N 1005.11 0.71652 -1.4037 0
M  V30 10707 C 1006.36 1.47193 -1.37903 0
M  V30 10708 C 1006.67 1.95593 0.0159939 0
M  V30 10709 O 1007.88 2.71009 0.163282 0
M  V30 10710 C 1006.33 2.6606 -2.42363 0
M  V30 10711 C 1005.94 2.24533 -3.87671 0
M  V30 10712 C 1007.68 3.438 -2.49001 0
M  V30 10713 C 1005.59 3.40234 -4.8373 0
M  V30 10714 H 1004.52 0.552811 -0.512753 0
M  V30 10715 H 1007.17 0.779894 -1.66102 0
M  V30 10716 H 1005.55 3.37429 -2.07262 0
M  V30 10717 H 1006.73 1.6059 -4.31911 0
M  V30 10718 H 1005.04 1.59839 -3.845 0
M  V30 10719 H 1007.64 4.29893 -3.17956 0
M  V30 10720 H 1007.98 3.8755 -1.52023 0
M  V30 10721 H 1008.52 2.79474 -2.83088 0
M  V30 10722 H 1005.26 3.01517 -5.82037 0
M  V30 10723 H 1004.78 4.03095 -4.44156 0
M  V30 10724 H 1006.45 4.06312 -5.03507 0
M  V30 10725 N 1006.59 1.25851 0.948643 0
M  V30 10726 C 1007.52 1.09248 2.06367 0
M  V30 10727 C 1008.5 -0.000205168 1.701 0
M  V30 10728 O 1009.68 0.170442 1.93451 0
M  V30 10729 C 1006.81 0.716777 3.39823 0
M  V30 10730 C 1005.77 1.76036 3.90122 0
M  V30 10731 C 1005.09 1.23918 5.20143 0
M  V30 10732 C 1006.39 3.16039 4.15833 0
M  V30 10733 H 1008.09 2.02518 2.20515 0
M  V30 10734 H 1005.63 0.975093 1.05962 0
M  V30 10735 H 1007.59 0.587531 4.17284 0
M  V30 10736 H 1006.31 -0.251626 3.25629 0
M  V30 10737 H 1004.97 1.87815 3.14835 0
M  V30 10738 H 1004.62 0.260836 5.02323 0
M  V30 10739 H 1004.32 1.93673 5.54765 0
M  V30 10740 H 1005.84 1.12245 6.00194 0
M  V30 10741 H 1007.25 3.0738 4.83933 0
M  V30 10742 H 1005.65 3.83317 4.61723 0
M  V30 10743 H 1006.72 3.62652 3.21887 0
M  V30 10744 N 1008.06 -1.15214 1.07534 0
M  V30 10745 C 1009.29 -1.90463 0.820883 0
M  V30 10746 C 1009.71 -1.77578 -0.620305 0
M  V30 10747 O 1009.07 -1.10976 -1.43366 0
M  V30 10748 C 1009.12 -3.38746 1.23627 0
M  V30 10749 O 1008.22 -4.1062 0.382715 0
M  V30 10750 H 1007.57 -0.59292 0.298901 0
M  V30 10751 H 1010.1 -1.45893 1.43445 0
M  V30 10752 H 1010.11 -3.89543 1.21327 0
M  V30 10753 H 1008.78 -3.47443 2.28596 0
M  V30 10754 H 1007.36 -3.69947 0.468374 0
M  V30 10755 N 1009.54 -0.859717 -1.32086 0
M  V30 10756 C 1010.95 -0.519529 -1.79326 0
M  V30 10757 C 1011.3 0.96295 -1.70944 0
M  V30 10758 O 1010.43 1.75139 -1.27104 0
M  V30 10759 C 1011.02 -0.936267 -3.25606 0
M  V30 10760 C 1009.58 -0.647899 -3.70782 0
M  V30 10761 C 1008.73 -1.13323 -2.53087 0
M  V30 10762 H 1011.68 -1.04643 -1.19312 0
M  V30 10763 H 1011.7 -0.254714 -3.79646 0
M  V30 10764 H 1011.21 -2.01527 -3.31675 0
M  V30 10765 H 1009.32 0.420172 -3.70223 0
M  V30 10766 H 1009.43 -1.21774 -4.63366 0
M  V30 10767 H 1007.79 -0.553325 -2.48617 0
M  V30 10768 H 1008.58 -2.21945 -2.61907 0
M  V30 10769 N 1011.02 1.44971 -0.618145 0
M  V30 10770 C 1011.95 2.27748 0.143561 0
M  V30 10771 C 1012.93 1.37768 0.863642 0
M  V30 10772 O 1014.12 1.67203 0.870373 0
M  V30 10773 C 1011.24 3.16394 1.20883 0
M  V30 10774 C 1010.29 4.22389 0.590724 0
M  V30 10775 S 1011.12 5.32021 -0.609406 0
M  V30 10776 C 1012.28 6.24235 0.456199 0
M  V30 10777 H 1012.51 2.92003 -0.558699 0
M  V30 10778 H 1010.04 1.48968 -0.40595 0
M  V30 10779 H 1012 3.6802 1.81855 0
M  V30 10780 H 1010.66 2.51384 1.88322 0
M  V30 10781 H 1009.86 4.84379 1.3926 0
M  V30 10782 H 1009.46 3.73958 0.055917 0
M  V30 10783 H 1011.75 6.64269 1.33238 0
M  V30 10784 H 1012.69 7.07985 -0.127794 0
M  V30 10785 H 1013.1 5.59137 0.776269 0
M  V30 10786 N 1012.5 0.357919 1.53482 0
M  V30 10787 C 1013.91 0.00655107 1.59599 0
M  V30 10788 C 1014.11 -1.47449 1.37336 0
M  V30 10789 O 1013.17 -2.2351 1.17472 0
M  V30 10790 C 1014.48 0.455617 2.97228 0
M  V30 10791 C 1016.03 0.409183 3.10314 0
M  V30 10792 C 1016.51 0.833941 4.50344 0
M  V30 10793 N 1018 0.788695 4.56436 0
M  V30 10794 C 1018.73 1.08914 5.62961 0
M  V30 10795 N 1018.23 1.45847 6.77274 0
M  V30 10796 N 1020.02 1.01243 5.52907 0
M  V30 10797 H 1012.17 1.32248 1.66206 0
M  V30 10798 H 1014.44 0.540047 0.779136 0
M  V30 10799 H 1014.14 1.48881 3.18634 0
M  V30 10800 H 1014.02 -0.161751 3.76853 0
M  V30 10801 H 1016.4 -0.614863 2.88623 0
M  V30 10802 H 1016.48 1.06195 2.32715 0
M  V30 10803 H 1016.13 1.85607 4.72771 0
M  V30 10804 H 1016.06 0.158507 5.26361 0
M  V30 10805 H 1018.55 0.516497 3.74354 0
M  V30 10806 H 1018.86 1.67218 7.54492 0
M  V30 10807 H 1017.21 1.49705 6.78685 0
M  V30 10808 H 1020.4 0.723137 4.62481 0
M  V30 10809 H 1020.57 1.24991 6.35831 0
M  V30 10810 N 1013.98 -1.5736 0.0868897 0
M  V30 10811 C 1015.23 -1.93229 -0.578387 0
M  V30 10812 C 1015.54 -0.970127 -1.69847 0
M  V30 10813 O 1016.74 -1.22222 -2.42434 0
M  V30 10814 C 1015.2 -3.43307 -1.0802 0
M  V30 10815 C 1014.81 -4.47999 0.00968135 0
M  V30 10816 C 1016.55 -3.88151 -1.71868 0
M  V30 10817 C 1014.46 -5.89223 -0.507029 0
M  V30 10818 H 1013.39 -0.721245 -0.219823 0
M  V30 10819 H 1016.04 -1.82787 0.161566 0
M  V30 10820 H 1014.42 -3.48873 -1.87359 0
M  V30 10821 H 1015.6 -4.54067 0.784865 0
M  V30 10822 H 1013.91 -4.12714 0.552845 0
M  V30 10823 H 1016.51 -4.91056 -2.11585 0
M  V30 10824 H 1016.85 -3.26347 -2.58464 0
M  V30 10825 H 1017.38 -3.85252 -0.991259 0
M  V30 10826 H 1014.12 -6.54708 0.322121 0
M  V30 10827 H 1013.64 -5.86643 -1.2494 0
M  V30 10828 H 1015.32 -6.39556 -0.978628 0
M  V30 10829 N 1015.45 0.186762 -1.56489 0
M  V30 10830 C 1016.4 1.2357 -1.9161 0
M  V30 10831 C 1017.39 1.4058 -0.782686 0
M  V30 10832 O 1018.58 1.42811 -1.04566 0
M  V30 10833 C 1015.71 2.57865 -2.26628 0
M  V30 10834 C 1014.8 2.44613 -3.46447 0
M  V30 10835 N 1015.19 2.01052 -4.64125 0
M  V30 10836 C 1013.48 2.75483 -3.50749 0
M  V30 10837 C 1014.19 1.99891 -5.46277 0
M  V30 10838 N 1013.16 2.41711 -4.86905 0
M  V30 10839 H 1016.96 0.890359 -2.80089 0
M  V30 10840 H 1014.48 0.395144 -1.57519 0
M  V30 10841 H 1016.47 3.33642 -2.49977 0
M  V30 10842 H 1015.13 2.93215 -1.39481 0
M  V30 10843 H 1016.15 1.7163 -4.88634 0
M  V30 10844 H 1012.82 3.14974 -2.7404 0
M  V30 10845 H 1014.21 1.68042 -6.50547 0
M  V30 10846 N 1016.93 1.50896 0.454776 0
M  V30 10847 C 1017.86 1.6712 1.56855 0
M  V30 10848 C 1018.88 0.552223 1.53148 0
M  V30 10849 O 1020.07 0.825969 1.5824 0
M  V30 10850 C 1017.17 1.65464 2.95762 0
M  V30 10851 C 1016.34 2.93662 3.24163 0
M  V30 10852 C 1015.4 2.84428 4.42704 0
M  V30 10853 O 1014.42 3.58382 4.42211 0
M  V30 10854 N 1015.63 1.9909 5.45292 0
M  V30 10855 H 1018.39 2.63194 1.43349 0
M  V30 10856 H 1015.95 1.48564 0.643457 0
M  V30 10857 H 1017.94 1.56878 3.73057 0
M  V30 10858 H 1016.51 0.770568 3.02954 0
M  V30 10859 H 1015.73 3.16251 2.35328 0
M  V30 10860 H 1017.02 3.78558 3.39957 0
M  V30 10861 H 1016.42 1.3835 5.48521 0
M  V30 10862 H 1014.98 1.96396 6.21508 0
M  V30 10863 N 1018.41 -0.709066 1.40748 0
M  V30 10864 C 1019.65 -1.48139 1.40834 0
M  V30 10865 C 1020.01 -1.91996 0.0117625 0
M  V30 10866 O 1021.22 -2.68564 -0.112524 0
M  V30 10867 C 1019.49 -2.67009 2.37573 0
M  V30 10868 S 1021.05 -3.56331 2.56073 0
M  V30 10869 H 1017.86 -0.506396 0.499084 0
M  V30 10870 H 1020.47 -0.828588 1.77072 0
M  V30 10871 H 1019.17 -2.32971 3.37865 0
M  V30 10872 H 1018.7 -3.37195 2.02641 0
M  V30 10873 H 1020.72 -4.61695 1.81803 0
M  V30 10874 N 1019.89 -1.26353 -0.941956 0
M  V30 10875 C 1020.85 -1.07904 -2.02211 0
M  V30 10876 C 1021.85 -0.0276283 -1.60776 0
M  V30 10877 O 1023.04 -0.270965 -1.7208 0
M  V30 10878 C 1020.17 -0.641084 -3.34818 0
M  V30 10879 H 1021.37 -2.03804 -2.20009 0
M  V30 10880 H 1018.92 -1.08939 -1.12081 0
M  V30 10881 H 1019.66 0.319943 -3.22718 0
M  V30 10882 H 1019.44 -1.40027 -3.66244 0
M  V30 10883 H 1020.93 -0.533826 -4.14174 0
M  V30 10884 N 1021.37 1.14642 -1.08144 0
M  V30 10885 C 1022.62 1.8525 -0.807885 0
M  V30 10886 C 1022.94 1.83194 0.668213 0
M  V30 10887 O 1022.21 1.27848 1.48431 0
M  V30 10888 H 1020.79 0.685909 -0.295868 0
M  V30 10889 H 1023.45 1.38935 -1.36686 0
M  V30 10890 H 1022.54 2.90155 -1.14964 0
M  V30 10891 N 1022.85 0.866709 1.31628 0
M  V30 10892 C 1024.09 0.476731 1.97117 0
M  V30 10893 C 1024.42 -0.967813 1.68366 0
M  V30 10894 O 1023.7 -1.68101 0.978377 0
M  V30 10895 C 1023.98 0.730561 3.52611 0
M  V30 10896 C 1023.84 2.2244 3.90948 0
M  V30 10897 C 1025.15 0.19488 4.39668 0
M  V30 10898 H 1022.27 0.174682 0.715999 0
M  V30 10899 H 1024.92 1.08735 1.5581 0
M  V30 10900 H 1023.07 0.210834 3.87927 0
M  V30 10901 H 1024.74 2.81113 3.6575 0
M  V30 10902 H 1022.98 2.69824 3.39673 0
M  V30 10903 H 1023.65 2.35266 4.99353 0
M  V30 10904 H 1026.13 0.639478 4.11157 0
M  V30 10905 H 1025 0.401958 5.47426 0
M  V30 10906 H 1025.26 -0.90302 4.32779 0
M  V30 10907 N 1024.32 -1.44642 0.625825 0
M  V30 10908 C 1025.55 -2.06458 0.135116 0
M  V30 10909 C 1025.97 -1.46729 -1.18811 0
M  V30 10910 O 1025.32 -0.58818 -1.72762 0
M  V30 10911 C 1025.37 -3.61499 0.00850114 0
M  V30 10912 O 1025.1 -4.19002 1.2794 0
M  V30 10913 C 1026.6 -4.40339 -0.511527 0
M  V30 10914 H 1023.82 -0.666541 0.0772294 0
M  V30 10915 H 1026.36 -1.85597 0.858726 0
M  V30 10916 H 1024.52 -3.81641 -0.665522 0
M  V30 10917 H 1024.93 -5.12385 1.12081 0
M  V30 10918 H 1026.4 -5.49262 -0.549149 0
M  V30 10919 H 1026.88 -4.11409 -1.53752 0
M  V30 10920 H 1027.49 -4.25104 0.129066 0
M  V30 10921 N 1025.8 -0.366053 -1.5329 0
M  V30 10922 C 1027.03 0.22391 -2.05383 0
M  V30 10923 C 1027.44 1.42962 -1.23929 0
M  V30 10924 O 1026.78 1.81659 -0.273072 0
M  V30 10925 C 1026.84 0.681038 -3.5299 0
M  V30 10926 C 1026.51 -0.40805 -4.55175 0
M  V30 10927 C 1027.51 -1.25806 -5.04449 0
M  V30 10928 C 1025.19 -0.568428 -4.99073 0
M  V30 10929 C 1027.18 -2.25379 -5.96224 0
M  V30 10930 C 1024.87 -1.56752 -5.90654 0
M  V30 10931 C 1025.87 -2.40864 -6.39119 0
M  V30 10932 O 1025.56 -3.39069 -7.28895 0
M  V30 10933 H 1025.29 0.0429593 -0.674634 0
M  V30 10934 H 1027.84 -0.522897 -1.98633 0
M  V30 10935 H 1026.07 1.47945 -3.5728 0
M  V30 10936 H 1027.76 1.19406 -3.8794 0
M  V30 10937 H 1028.53 -1.14536 -4.71282 0
M  V30 10938 H 1024.41 0.0764858 -4.60937 0
M  V30 10939 H 1027.95 -2.91068 -6.33976 0
M  V30 10940 H 1023.85 -1.6807 -6.23236 0
M  V30 10941 H 1024.62 -3.34804 -7.46893 0
M  V30 10942 N 1027.28 1.57312 -0.0952337 0
M  V30 10943 C 1028.53 1.93533 0.568131 0
M  V30 10944 C 1028.84 0.979121 1.6933 0
M  V30 10945 O 1030.05 1.23506 2.41782 0
M  V30 10946 C 1028.5 3.43875 1.06198 0
M  V30 10947 C 1028.11 4.47988 -0.0334397 0
M  V30 10948 C 1029.86 3.89057 1.69807 0
M  V30 10949 C 1027.76 5.89483 0.475774 0
M  V30 10950 H 1026.69 0.7224 0.215995 0
M  V30 10951 H 1029.34 1.82699 -0.171257 0
M  V30 10952 H 1027.73 3.49862 1.85506 0
M  V30 10953 H 1028.9 4.53644 -0.808934 0
M  V30 10954 H 1027.21 4.12415 -0.574725 0
M  V30 10955 H 1029.81 4.92171 2.08978 0
M  V30 10956 H 1030.15 3.27713 2.5673 0
M  V30 10957 H 1030.69 3.85772 0.970815 0
M  V30 10958 H 1027.43 6.54528 -0.356837 0
M  V30 10959 H 1026.95 5.87297 1.21827 0
M  V30 10960 H 1028.63 6.40066 0.944697 0
M  V30 10961 N 1028.76 -0.17846 1.56586 0
M  V30 10962 C 1030.17 -0.741599 1.71339 0
M  V30 10963 C 1030.52 -1.83112 0.704579 0
M  V30 10964 O 1029.64 -2.15975 -0.135557 0
M  V30 10965 C 1030.24 -1.35198 3.10656 0
M  V30 10966 C 1028.8 -1.86202 3.27118 0
M  V30 10967 C 1027.95 -0.738255 2.67292 0
M  V30 10968 H 1030.9 0.0468424 1.58631 0
M  V30 10969 H 1030.92 -2.2216 3.0891 0
M  V30 10970 H 1030.43 -0.558776 3.84056 0
M  V30 10971 H 1028.53 -2.68188 2.58661 0
M  V30 10972 H 1028.64 -2.01237 4.34788 0
M  V30 10973 H 1027.01 -1.15686 2.26912 0
M  V30 10974 H 1027.79 0.0429821 3.43273 0
M  V30 10975 N 1030.24 -1.51135 -0.446768 0
M  V30 10976 C 1031.18 -1.72328 -1.56224 0
M  V30 10977 C 1032.18 -0.589411 -1.58815 0
M  V30 10978 O 1033.38 -0.770554 -1.62673 0
M  V30 10979 H 1029.76 -0.544339 -0.518844 0
M  V30 10980 H 1031.73 -2.65851 -1.3552 0
M  V30 10981 C 1030.48 -1.85686 -2.93966 0
M  V30 10982 H 1029.8 -2.72336 -2.927 0
M  V30 10983 H 1031.24 -2.0453 -3.71407 0
M  V30 10984 C 1029.7 -0.614328 -3.31252 0
M  V30 10985 O 1030.23 0.235369 -4.0101 0
M  V30 10986 N 1028.44 -0.461181 -2.86917 0
M  V30 10987 H 1027.98 -1.15369 -2.30321 0
M  V30 10988 H 1027.94 0.368966 -3.12227 0
M  V30 10989 N 1031.71 0.701592 -1.41122 0
M  V30 10990 C 1032.94 1.49553 -1.43696 0
M  V30 10991 C 1033.36 1.88053 -0.0421865 0
M  V30 10992 O 1032.72 1.54223 0.953144 0
M  V30 10993 C 1032.77 2.73834 -2.34622 0
M  V30 10994 O 1031.87 3.71088 -1.7991 0
M  V30 10995 H 1031.21 0.450352 -0.487933 0
M  V30 10996 H 1033.74 0.862886 -1.85514 0
M  V30 10997 H 1033.75 3.22209 -2.5029 0
M  V30 10998 H 1032.43 2.45149 -3.35969 0
M  V30 10999 H 1031.01 3.29994 -1.73661 0
M  V30 11000 N 1033.19 1.2685 0.935242 0
M  V30 11001 C 1034.12 1.1143 2.05196 0
M  V30 11002 C 1035.1 0.0178362 1.70091 0
M  V30 11003 O 1036.29 0.190951 1.93259 0
M  V30 11004 C 1033.42 0.752779 3.39044 0
M  V30 11005 C 1032.37 1.80164 3.88233 0
M  V30 11006 C 1031.7 1.29428 5.18799 0
M  V30 11007 C 1033 3.20431 4.12457 0
M  V30 11008 H 1034.69 2.04845 2.18355 0
M  V30 11009 H 1032.24 0.986276 1.04922 0
M  V30 11010 H 1034.19 0.631757 4.16637 0
M  V30 11011 H 1032.91 -0.217075 3.25878 0
M  V30 11012 H 1031.57 1.91144 3.12825 0
M  V30 11013 H 1031.22 0.3141 5.02018 0
M  V30 11014 H 1030.92 1.99546 5.5268 0
M  V30 11015 H 1032.45 1.18605 5.9897 0
M  V30 11016 H 1033.86 3.12495 4.80645 0
M  V30 11017 H 1032.26 3.88193 4.57631 0
M  V30 11018 H 1033.33 3.66046 3.18023 0
M  V30 11019 N 1034.67 -1.14067 1.0875 0
M  V30 11020 C 1035.91 -1.8684 0.828873 0
M  V30 11021 C 1036.27 -1.81235 -0.633879 0
M  V30 11022 O 1037.48 -2.49178 -1.00815 0
M  V30 11023 C 1035.75 -3.31299 1.34073 0
M  V30 11024 S 1037.31 -4.21645 1.21494 0
M  V30 11025 H 1034.12 -0.644622 0.299972 0
M  V30 11026 H 1036.73 -1.37526 1.38949 0
M  V30 11027 H 1035.43 -3.32929 2.39972 0
M  V30 11028 H 1034.96 -3.85672 0.775944 0
M  V30 11029 H 1036.98 -4.95937 0.161446 0
M  V30 11030 N 1036.15 -0.873678 -1.31166 0
M  V30 11031 C 1037.1 -0.303699 -2.25968 0
M  V30 11032 C 1038.08 0.561387 -1.50789 0
M  V30 11033 O 1039.27 0.407658 -1.72242 0
M  V30 11034 C 1036.4 0.490612 -3.39776 0
M  V30 11035 C 1035.49 -0.387927 -4.22322 0
M  V30 11036 N 1035.88 -1.48313 -4.83567 0
M  V30 11037 C 1034.18 -0.18102 -4.45632 0
M  V30 11038 C 1034.88 -2.0252 -5.45308 0
M  V30 11039 N 1033.86 -1.32169 -5.27288 0
M  V30 11040 H 1037.66 -1.14071 -2.7086 0
M  V30 11041 H 1035.17 -0.721843 -1.45476 0
M  V30 11042 H 1037.17 0.9155 -4.06724 0
M  V30 11043 H 1035.83 1.32519 -2.96427 0
M  V30 11044 H 1036.84 -1.86604 -4.83114 0
M  V30 11045 H 1033.52 0.617304 -4.12911 0
M  V30 11046 H 1034.91 -2.94429 -6.03955 0
M  V30 11047 N 1037.63 1.44308 -0.633487 0
M  V30 11048 C 1038.59 2.2912 0.060376 0
M  V30 11049 C 1039.59 1.41166 0.769992 0
M  V30 11050 O 1040.78 1.63012 0.614224 0
M  V30 11051 C 1037.91 3.22798 1.0961 0
M  V30 11052 H 1039.1 2.91958 -0.685617 0
M  V30 11053 H 1036.66 1.51259 -0.393738 0
M  V30 11054 H 1037.39 2.64815 1.87199 0
M  V30 11055 H 1037.18 3.87618 0.591161 0
M  V30 11056 H 1038.67 3.86504 1.58127 0
M  V30 11057 N 1039.1 0.374177 1.53094 0
M  V30 11058 C 1040.04 -0.503065 2.23611 0
M  V30 11059 C 1041.05 -1.03915 1.25321 0
M  V30 11060 O 1042.24 -0.944064 1.51492 0
M  V30 11061 C 1039.34 -1.70825 2.92698 0
M  V30 11062 C 1038.51 -1.30217 4.17567 0
M  V30 11063 C 1037.57 -2.37036 4.69788 0
M  V30 11064 O 1036.6 -1.99069 5.33254 0
M  V30 11065 N 1037.8 -3.68743 4.4834 0
M  V30 11066 H 1040.56 0.101013 2.9953 0
M  V30 11067 H 1038.12 0.199778 1.60663 0
M  V30 11068 H 1040.12 -2.41779 3.24538 0
M  V30 11069 H 1038.69 -2.219 2.2018 0
M  V30 11070 H 1037.91 -0.422121 3.91933 0
M  V30 11071 H 1039.19 -1.00728 4.9873 0
M  V30 11072 H 1038.59 -4.0236 3.97647 0
M  V30 11073 H 1037.15 -4.35776 4.84709 0
M  V30 11074 N 1040.58 -1.57259 0.103575 0
M  V30 11075 C 1041.99 -1.81816 -0.424239 0
M  V30 11076 C 1042.34 -1.01976 -1.67617 0
M  V30 11077 O 1041.47 -0.251673 -2.14932 0
M  V30 11078 C 1042.06 -3.29783 -0.776453 0
M  V30 11079 C 1040.62 -3.55074 -1.24897 0
M  V30 11080 C 1039.77 -2.76172 -0.249875 0
M  V30 11081 H 1042.72 -1.55254 0.328913 0
M  V30 11082 H 1042.74 -3.43569 -1.63526 0
M  V30 11083 H 1042.25 -3.87865 0.134906 0
M  V30 11084 H 1040.36 -3.02332 -2.17775 0
M  V30 11085 H 1040.47 -4.637 -1.20495 0
M  V30 11086 H 1038.83 -2.43902 -0.733767 0
M  V30 11087 H 1039.62 -3.37007 0.65431 0
M  V30 11088 N 1042.06 0.170153 -1.56679 0
M  V30 11089 C 1042.99 1.23525 -1.93066 0
M  V30 11090 C 1044.01 1.40414 -0.823879 0
M  V30 11091 O 1045.19 1.40396 -1.10232 0
M  V30 11092 C 1042.29 2.60376 -2.16928 0
M  V30 11093 C 1041.47 2.6477 -3.4816 0
M  V30 11094 C 1040.53 3.82993 -3.60837 0
M  V30 11095 O 1039.55 3.68937 -4.33444 0
M  V30 11096 N 1040.75 4.99498 -2.95773 0
M  V30 11097 H 1043.52 0.926172 -2.8503 0
M  V30 11098 H 1041.08 0.359909 -1.57849 0
M  V30 11099 H 1043.07 3.37934 -2.22672 0
M  V30 11100 H 1041.64 2.83669 -1.31342 0
M  V30 11101 H 1040.86 1.73298 -3.54064 0
M  V30 11102 H 1042.15 2.64717 -4.34514 0
M  V30 11103 H 1041.55 5.13819 -2.36657 0
M  V30 11104 H 1040.11 5.74914 -3.07111 0
M  V30 11105 N 1043.54 1.5137 0.438746 0
M  V30 11106 C 1044.79 1.63202 1.18524 0
M  V30 11107 C 1045.1 0.353408 1.92381 0
M  V30 11108 O 1046.31 0.351086 2.6922 0
M  V30 11109 C 1044.76 2.88218 2.15542 0
M  V30 11110 C 1044.37 4.23078 1.47339 0
M  V30 11111 C 1046.11 3.09407 2.90633 0
M  V30 11112 C 1044.02 5.39246 2.42833 0
M  V30 11113 H 1042.95 0.607864 0.446114 0
M  V30 11114 H 1045.6 1.77835 0.452421 0
M  V30 11115 H 1043.98 2.67216 2.92253 0
M  V30 11116 H 1045.16 4.54457 0.761964 0
M  V30 11117 H 1043.47 4.07755 0.844065 0
M  V30 11118 H 1046.07 3.9337 3.62165 0
M  V30 11119 H 1046.41 2.22428 3.51897 0
M  V30 11120 H 1046.95 3.30743 2.21029 0
M  V30 11121 H 1043.69 6.2848 1.8626 0
M  V30 11122 H 1043.21 5.12245 3.12034 0
M  V30 11123 H 1044.88 5.71137 3.03992 0
M  V30 11124 N 1045.02 -0.694098 1.41492 0
M  V30 11125 C 1045.95 -1.82042 1.46229 0
M  V30 11126 C 1046.93 -1.67047 0.320803 0
M  V30 11127 O 1048.11 -1.86758 0.53245 0
M  V30 11128 C 1045.24 -3.2019 1.34519 0
M  V30 11129 C 1044.2 -3.49892 2.46495 0
M  V30 11130 C 1043.52 -4.87411 2.1985 0
M  V30 11131 C 1044.82 -3.4872 3.88834 0
M  V30 11132 H 1046.52 -1.78335 2.40493 0
M  V30 11133 H 1044.06 -0.856566 1.15754 0
M  V30 11134 H 1046.02 -3.98699 1.36445 0
M  V30 11135 H 1044.74 -3.24527 0.367406 0
M  V30 11136 H 1043.4 -2.73734 2.43854 0
M  V30 11137 H 1043.05 -4.88375 1.20411 0
M  V30 11138 H 1042.75 -5.08248 2.94885 0
M  V30 11139 H 1044.27 -5.68228 2.23494 0
M  V30 11140 H 1045.68 -4.1723 3.93182 0
M  V30 11141 H 1044.08 -3.81089 4.63564 0
M  V30 11142 H 1045.15 -2.47665 4.16881 0
M  V30 11143 N 1046.49 -1.27344 -0.928501 0
M  V30 11144 C 1047.42 -1.12517 -2.04602 0
M  V30 11145 C 1048.41 -0.0268563 -1.70079 0
M  V30 11146 O 1049.59 -0.201197 -1.93155 0
M  V30 11147 C 1046.72 -0.770749 -3.3864 0
M  V30 11148 C 1045.67 -1.8222 -3.87272 0
M  V30 11149 C 1045 -1.32178 -5.18105 0
M  V30 11150 C 1046.3 -3.22614 -4.10752 0
M  V30 11151 H 1047.99 -2.06 -2.17265 0
M  V30 11152 H 1045.54 -0.991827 -1.04397 0
M  V30 11153 H 1047.49 -0.653843 -4.16297 0
M  V30 11154 H 1046.22 0.19979 -3.25988 0
M  V30 11155 H 1044.88 -1.928 -3.11807 0
M  V30 11156 H 1044.52 -0.340719 -5.01845 0
M  V30 11157 H 1044.22 -2.02474 -5.51614 0
M  V30 11158 H 1045.75 -1.2178 -5.98333 0
M  V30 11159 H 1047.16 -3.1504 -4.78981 0
M  V30 11160 H 1045.56 -3.90614 -4.55566 0
M  V30 11161 H 1046.63 -3.67727 -3.16077 0
M  V30 11162 N 1047.97 1.13488 -1.09353 0
M  V30 11163 C 1049.22 1.84383 -0.827488 0
M  V30 11164 C 1049.54 1.83892 0.648745 0
M  V30 11165 O 1048.81 1.29415 1.47066 0
M  V30 11166 H 1047.39 0.682732 -0.303127 0
M  V30 11167 H 1050.05 1.37477 -1.38152 0
M  V30 11168 H 1049.15 2.88919 -1.18035 0
M  V30 11169 N 1049.45 0.880621 1.30701 0
M  V30 11170 C 1050.38 0.360251 2.30704 0
M  V30 11171 C 1051.36 -0.554572 1.60806 0
M  V30 11172 O 1052.55 -0.469345 1.88443 0
M  V30 11173 C 1049.68 -0.429888 3.44629 0
M  V30 11174 C 1048.63 0.392786 4.26194 0
M  V30 11175 C 1047.96 -0.52369 5.32129 0
M  V30 11176 C 1049.26 1.63258 4.96129 0
M  V30 11177 H 1050.95 1.19591 2.74478 0
M  V30 11178 H 1048.5 0.576508 1.31956 0
M  V30 11179 H 1050.45 -0.804532 4.13649 0
M  V30 11180 H 1049.17 -1.29916 2.99649 0
M  V30 11181 H 1047.83 0.749514 3.58856 0
M  V30 11182 H 1047.48 -1.39054 4.83397 0
M  V30 11183 H 1047.18 0.0229272 5.87596 0
M  V30 11184 H 1048.71 -0.894946 6.04006 0
M  V30 11185 H 1050.12 1.32877 5.57689 0
M  V30 11186 H 1048.52 2.11906 5.61441 0
M  V30 11187 H 1049.59 2.37944 4.22505 0
M  V30 11188 N 1050.93 -1.4397 0.641131 0
M  V30 11189 C 1051.86 -2.27948 -0.10731 0
M  V30 11190 C 1052.84 -1.39124 -0.841615 0
M  V30 11191 O 1054.02 -1.68566 -0.843662 0
M  V30 11192 C 1051.15 -3.18277 -1.15835 0
M  V30 11193 C 1050.2 -4.23276 -0.52345 0
M  V30 11194 S 1051.03 -5.30984 0.693969 0
M  V30 11195 C 1052.19 -6.24882 -0.356831 0
M  V30 11196 H 1052.42 -2.91077 0.605083 0
M  V30 11197 H 1049.95 -1.48303 0.429598 0
M  V30 11198 H 1051.91 -3.70867 -1.75977 0
M  V30 11199 H 1050.57 -2.54348 -1.84299 0
M  V30 11200 H 1049.76 -4.86533 -1.31536 0
M  V30 11201 H 1049.37 -3.74 0.00358355 0
M  V30 11202 H 1051.66 -6.66305 -1.22653 0
M  V30 11203 H 1052.6 -7.07692 0.240412 0
M  V30 11204 H 1053.01 -5.60301 -0.687217 0
M  V30 11205 N 1052.41 -0.382291 -1.52893 0
M  V30 11206 C 1053.34 0.500194 -2.22651 0
M  V30 11207 C 1054.32 1.06969 -1.22459 0
M  V30 11208 O 1055.5 1.12267 -1.51422 0
M  V30 11209 C 1052.63 1.6917 -2.93427 0
M  V30 11210 C 1051.68 1.24811 -4.07829 0
M  V30 11211 S 1052.51 0.235466 -5.34982 0
M  V30 11212 C 1053.66 1.43292 -6.09277 0
M  V30 11213 H 1053.9 -0.0921913 -2.97157 0
M  V30 11214 H 1051.43 -0.16645 -1.535 0
M  V30 11215 H 1053.39 2.37507 -3.34815 0
M  V30 11216 H 1052.05 2.25537 -2.18613 0
M  V30 11217 H 1051.24 2.13754 -4.56426 0
M  V30 11218 H 1050.84 0.643744 -3.68418 0
M  V30 11219 H 1053.14 2.36118 -6.35023 0
M  V30 11220 H 1054.08 0.988003 -7.01173 0
M  V30 11221 H 1054.49 1.64655 -5.39953 0
M  V30 11222 N 1053.89 1.57202 -0.111913 0
M  V30 11223 C 1055.13 1.9495 0.547795 0
M  V30 11224 C 1055.46 0.994763 1.67137 0
M  V30 11225 O 1054.72 0.0173528 1.95692 0
M  V30 11226 C 1055.01 3.39152 1.12741 0
M  V30 11227 C 1054.68 4.50724 0.125916 0
M  V30 11228 C 1053.34 4.80968 -0.149489 0
M  V30 11229 C 1055.69 5.18215 -0.556987 0
M  V30 11230 C 1053.02 5.76023 -1.1142 0
M  V30 11231 C 1055.37 6.14307 -1.51029 0
M  V30 11232 C 1054.04 6.42947 -1.79375 0
M  V30 11233 H 1053.31 0.713372 0.200453 0
M  V30 11234 H 1055.96 1.90542 -0.191316 0
M  V30 11235 H 1054.26 3.4022 1.94313 0
M  V30 11236 H 1055.96 3.65668 1.64584 0
M  V30 11237 H 1052.55 4.27162 0.350756 0
M  V30 11238 H 1056.73 4.95012 -0.357378 0
M  V30 11239 H 1051.99 5.9652 -1.34064 0
M  V30 11240 H 1056.16 6.65692 -2.04516 0
M  V30 11241 H 1053.79 7.1641 -2.54284 0
M  V30 11242 N 1055.36 -0.161842 1.56767 0
M  V30 11243 C 1056.3 -1.22927 1.9226 0
M  V30 11244 C 1057.27 -1.42309 0.786562 0
M  V30 11245 O 1058.46 -1.57163 1.04078 0
M  V30 11246 C 1055.59 -2.59069 2.18177 0
M  V30 11247 C 1054.63 -2.56368 3.40849 0
M  V30 11248 S 1055.46 -2.04518 4.94907 0
M  V30 11249 C 1056.62 -3.42418 5.23928 0
M  V30 11250 H 1056.85 -0.926377 2.82499 0
M  V30 11251 H 1054.39 -0.366822 1.49979 0
M  V30 11252 H 1056.34 -3.37421 2.33789 0
M  V30 11253 H 1055.01 -2.86554 1.28629 0
M  V30 11254 H 1054.2 -3.56551 3.56213 0
M  V30 11255 H 1053.8 -1.86116 3.24402 0
M  V30 11256 H 1056.09 -4.38461 5.16486 0
M  V30 11257 H 1057.04 -3.3192 6.25487 0
M  V30 11258 H 1057.44 -3.38868 4.51474 0
M  V30 11259 N 1056.84 -1.516 -0.430713 0
M  V30 11260 C 1058.12 -1.55142 -1.19123 0
M  V30 11261 C 1058.5 -0.319596 -2.08667 0
M  V30 11262 O 1057.85 0.694927 -2.17676 0
M  V30 11263 C 1058.06 -2.86891 -1.98732 0
M  V30 11264 C 1059.4 -3.39089 -2.55546 0
M  V30 11265 O 1060.43 -2.88486 -2.08936 0
M  V30 11266 O 1059.29 -4.27401 -3.40574 0
M  V30 11267 H 1056.38 -0.624019 -0.542705 0
M  V30 11268 H 1058.93 -1.63917 -0.439244 0
M  V30 11269 H 1057.7 -3.68002 -1.33005 0
M  V30 11270 H 1057.32 -2.81309 -2.80982 0
M  V30 11271 N 1058.32 0.686584 -1.41858 0
M  V30 11272 C 1059.25 1.81264 -1.47193 0
M  V30 11273 C 1060.23 1.66875 -0.329657 0
M  V30 11274 O 1061.42 1.86473 -0.542347 0
M  V30 11275 C 1058.55 3.19472 -1.36216 0
M  V30 11276 C 1057.5 3.4858 -2.48347 0
M  V30 11277 C 1056.83 4.86239 -2.22432 0
M  V30 11278 C 1058.13 3.46653 -3.90678 0
M  V30 11279 H 1059.82 1.77057 -2.41436 0
M  V30 11280 H 1057.37 0.850415 -1.16206 0
M  V30 11281 H 1059.32 3.97969 -1.38558 0
M  V30 11282 H 1058.04 3.24327 -0.384611 0
M  V30 11283 H 1056.7 2.72437 -2.45303 0
M  V30 11284 H 1056.35 4.8773 -1.22999 0
M  V30 11285 H 1056.05 5.06677 -2.97577 0
M  V30 11286 H 1057.57 5.67034 -2.26505 0
M  V30 11287 H 1058.99 4.15139 -3.95389 0
M  V30 11288 H 1057.38 3.78625 -4.65578 0
M  V30 11289 H 1058.45 2.45451 -4.18189 0
M  V30 11290 N 1059.8 1.27835 0.921735 0
M  V30 11291 C 1061.03 1.17352 1.704 0
M  V30 11292 C 1061.44 -0.268892 1.86875 0
M  V30 11293 O 1060.8 -1.18253 1.39005 0
M  V30 11294 C 1060.85 1.85889 3.10045 0
M  V30 11295 O 1060.57 3.24495 2.94338 0
M  V30 11296 C 1062.07 1.81607 4.04393 0
M  V30 11297 H 1059.29 0.40773 0.532914 0
M  V30 11298 H 1061.83 1.68815 1.15419 0
M  V30 11299 H 1059.99 1.38316 3.61867 0
M  V30 11300 H 1060.4 3.58705 3.82663 0
M  V30 11301 H 1061.88 2.34165 4.99871 0
M  V30 11302 H 1062.35 0.786697 4.32097 0
M  V30 11303 H 1062.96 2.28822 3.58498 0
M  V30 11304 N 1061.28 -1.12907 1.09954 0
M  V30 11305 C 1062.21 -2.20585 0.765799 0
M  V30 11306 C 1063.19 -1.68117 -0.258989 0
M  V30 11307 O 1064.37 -1.93792 -0.125853 0
M  V30 11308 C 1061.5 -3.46772 0.191435 0
M  V30 11309 C 1060.46 -4.12363 1.14635 0
M  V30 11310 C 1059.78 -5.3294 0.433426 0
M  V30 11311 C 1061.08 -4.59073 2.49096 0
M  V30 11312 H 1062.78 -2.48759 1.66612 0
M  V30 11313 H 1060.32 -1.19563 0.802534 0
M  V30 11314 H 1062.27 -4.21365 -0.0541535 0
M  V30 11315 H 1061 -3.18011 -0.744101 0
M  V30 11316 H 1059.66 -3.39744 1.37731 0
M  V30 11317 H 1059.31 -5.00444 -0.506422 0
M  V30 11318 H 1059.01 -5.77772 1.07018 0
M  V30 11319 H 1060.53 -6.10284 0.196267 0
M  V30 11320 H 1061.94 -5.25063 2.30177 0
M  V30 11321 H 1060.34 -5.14665 3.0861 0
M  V30 11322 H 1061.41 -3.73313 3.0946 0
M  V30 11323 N 1062.75 -0.88754 -1.30232 0
M  V30 11324 C 1064 -0.507279 -1.96043 0
M  V30 11325 C 1064.33 0.944059 -1.70052 0
M  V30 11326 O 1063.58 1.68255 -0.999444 0
M  V30 11327 C 1063.88 -0.731765 -3.49828 0
M  V30 11328 C 1063.55 -2.15858 -3.95874 0
M  V30 11329 C 1062.21 -2.54875 -4.08157 0
M  V30 11330 C 1064.56 -3.0883 -4.19849 0
M  V30 11331 C 1061.89 -3.86069 -4.41778 0
M  V30 11332 C 1064.24 -4.39559 -4.5494 0
M  V30 11333 C 1062.91 -4.78465 -4.65432 0
M  V30 11334 H 1062.18 -0.185627 -0.717373 0
M  V30 11335 H 1064.82 -1.12388 -1.55052 0
M  V30 11336 H 1063.13 -0.0321473 -3.91787 0
M  V30 11337 H 1064.83 -0.417107 -3.98825 0
M  V30 11338 H 1061.42 -1.84574 -3.86821 0
M  V30 11339 H 1065.6 -2.79906 -4.09837 0
M  V30 11340 H 1060.86 -4.1595 -4.48102 0
M  V30 11341 H 1065.03 -5.11636 -4.72442 0
M  V30 11342 H 1062.66 -5.80162 -4.91239 0
M  V30 11343 N 1064.23 1.43628 -0.648757 0
M  V30 11344 C 1065.48 2.01864 -0.160336 0
M  V30 11345 C 1065.81 1.51148 1.22412 0
M  V30 11346 O 1065.06 0.693168 1.83013 0
M  V30 11347 C 1065.36 3.57214 -0.115282 0
M  V30 11348 C 1065.03 4.27258 -1.44088 0
M  V30 11349 C 1063.69 4.46109 -1.8039 0
M  V30 11350 C 1066.04 4.66962 -2.31508 0
M  V30 11351 C 1063.37 5.01928 -3.03785 0
M  V30 11352 C 1065.72 5.24148 -3.54191 0
M  V30 11353 C 1064.39 5.41216 -3.90694 0
M  V30 11354 H 1063.66 0.738674 -0.0586712 0
M  V30 11355 H 1066.3 1.72163 -0.838578 0
M  V30 11356 H 1064.61 3.86431 0.646395 0
M  V30 11357 H 1066.3 4.00025 0.279425 0
M  V30 11358 H 1062.89 4.12928 -1.14842 0
M  V30 11359 H 1067.08 4.52095 -2.04753 0
M  V30 11360 H 1062.33 5.13328 -3.32122 0
M  V30 11361 H 1066.51 5.53861 -4.22151 0
M  V30 11362 H 1064.14 5.84234 -4.8639 0
M  V30 11363 N 1065.71 0.390394 1.52688 0
M  V30 11364 C 1066.64 -0.43567 2.294 0
M  V30 11365 C 1067.62 -1.06253 1.32832 0
M  V30 11366 O 1068.81 -1.07509 1.61726 0
M  V30 11367 C 1065.94 -1.56259 3.10162 0
M  V30 11368 C 1064.89 -1.06172 4.14622 0
M  V30 11369 C 1064.22 -2.2808 4.83615 0
M  V30 11370 C 1065.52 -0.128902 5.22141 0
M  V30 11371 H 1067.21 0.204384 2.98702 0
M  V30 11372 H 1064.76 0.0997377 1.43654 0
M  V30 11373 H 1066.71 -2.14732 3.62585 0
M  V30 11374 H 1065.43 -2.23025 2.38595 0
M  V30 11375 H 1064.09 -0.499518 3.63181 0
M  V30 11376 H 1063.74 -2.93358 4.08595 0
M  V30 11377 H 1063.44 -1.95227 5.5422 0
M  V30 11378 H 1064.96 -2.87193 5.38844 0
M  V30 11379 H 1066.38 -0.621849 5.69917 0
M  V30 11380 H 1064.78 0.109919 5.99999 0
M  V30 11381 H 1065.85 0.821884 4.77884 0
M  V30 11382 N 1067.19 -1.57141 0.120249 0
M  V30 11383 C 1068.47 -1.8677 -0.581075 0
M  V30 11384 C 1068.85 -1.02163 -1.84732 0
M  V30 11385 O 1068.19 -0.100897 -2.28277 0
M  V30 11386 C 1068.4 -3.37923 -0.872316 0
M  V30 11387 C 1069.75 -4.0655 -1.22483 0
M  V30 11388 O 1070.78 -3.42948 -0.962539 0
M  V30 11389 O 1069.63 -5.18821 -1.71717 0
M  V30 11390 H 1066.73 -0.773219 -0.293362 0
M  V30 11391 H 1069.27 -1.68992 0.154846 0
M  V30 11392 H 1068.05 -3.91292 0.0249416 0
M  V30 11393 H 1067.67 -3.61135 -1.66335 0
M  V30 11394 N 1068.67 0.153526 -1.5685 0
M  V30 11395 C 1069.89 0.886343 -1.87507 0
M  V30 11396 C 1070.32 1.74244 -0.708565 0
M  V30 11397 O 1069.67 1.78045 0.341997 0
M  V30 11398 C 1069.72 1.72428 -3.16703 0
M  V30 11399 O 1068.83 2.82784 -3.00178 0
M  V30 11400 H 1068.17 0.247259 -0.616246 0
M  V30 11401 H 1070.7 0.146306 -2.04076 0
M  V30 11402 H 1070.71 2.12062 -3.4856 0
M  V30 11403 H 1069.38 1.09558 -4.01211 0
M  V30 11404 H 1067.96 2.46604 -2.79716 0
M  V30 11405 N 1070.14 1.51827 0.422667 0
M  V30 11406 C 1071.37 1.68803 1.19117 0
M  V30 11407 C 1071.78 0.391228 1.85111 0
M  V30 11408 O 1071.13 -0.64148 1.72136 0
M  V30 11409 C 1071.19 2.75767 2.30636 0
M  V30 11410 C 1070.85 4.17929 1.8489 0
M  V30 11411 C 1071.85 5.02223 1.34416 0
M  V30 11412 C 1069.53 4.641 1.92136 0
M  V30 11413 C 1071.53 6.30756 0.917925 0
M  V30 11414 C 1069.21 5.92626 1.49123 0
M  V30 11415 C 1070.21 6.75782 0.990352 0
M  V30 11416 O 1069.9 8.01902 0.566386 0
M  V30 11417 H 1069.63 0.569303 0.364514 0
M  V30 11418 H 1072.19 1.9909 0.505208 0
M  V30 11419 H 1070.42 2.40827 3.02555 0
M  V30 11420 H 1072.11 2.81476 2.92448 0
M  V30 11421 H 1072.87 4.67749 1.28202 0
M  V30 11422 H 1068.75 3.99488 2.30066 0
M  V30 11423 H 1072.29 6.95612 0.52628 0
M  V30 11424 H 1068.19 6.26611 1.55012 0
M  V30 11425 H 1068.96 8.15579 0.690918 0
M  V30 11426 N 1071.62 -0.679052 1.4222 0
M  V30 11427 C 1072.55 -1.80481 1.48152 0
M  V30 11428 C 1073.53 -1.66698 0.338502 0
M  V30 11429 O 1074.72 -1.86183 0.552228 0
M  V30 11430 C 1071.85 -3.18746 1.37908 0
M  V30 11431 C 1070.8 -3.47258 2.50192 0
M  V30 11432 C 1070.13 -4.85052 2.25008 0
M  V30 11433 C 1071.43 -3.44576 3.92511 0
M  V30 11434 H 1073.12 -1.75774 2.42371 0
M  V30 11435 H 1070.67 -0.844241 1.16656 0
M  V30 11436 H 1072.62 -3.97229 1.40666 0
M  V30 11437 H 1071.35 -3.24119 0.401806 0
M  V30 11438 H 1070 -2.71133 2.46744 0
M  V30 11439 H 1069.65 -4.8707 1.25584 0
M  V30 11440 H 1069.35 -5.05092 3.00259 0
M  V30 11441 H 1070.88 -5.65825 2.29508 0
M  V30 11442 H 1072.29 -4.13036 3.97585 0
M  V30 11443 H 1070.69 -3.76151 4.67579 0
M  V30 11444 H 1071.76 -2.4323 4.19484 0
M  V30 11445 N 1073.1 -1.28322 -0.914942 0
M  V30 11446 C 1074.35 -1.16587 -1.6667 0
M  V30 11447 C 1074.7 0.282961 -1.90308 0
M  V30 11448 O 1073.99 1.20269 -1.49151 0
M  V30 11449 C 1074.19 -1.89663 -3.02924 0
M  V30 11450 C 1074.02 -3.41504 -2.92584 0
M  V30 11451 C 1072.79 -4.10841 -2.94173 0
M  V30 11452 C 1074.99 -4.37266 -2.70745 0
M  V30 11453 N 1072.97 -5.49157 -2.74409 0
M  V30 11454 C 1074.34 -5.62937 -2.59812 0
M  V30 11455 C 1076.39 -4.27207 -2.55732 0
M  V30 11456 C 1075.1 -6.79692 -2.35397 0
M  V30 11457 C 1077.12 -5.43697 -2.32697 0
M  V30 11458 C 1076.48 -6.6833 -2.22517 0
M  V30 11459 H 1072.58 -0.481552 -0.616142 0
M  V30 11460 H 1075.17 -1.61957 -1.08065 0
M  V30 11461 H 1073.34 -1.46729 -3.59618 0
M  V30 11462 H 1075.07 -1.70323 -3.67113 0
M  V30 11463 H 1071.83 -3.62412 -3.04884 0
M  V30 11464 H 1072.25 -6.21858 -2.67622 0
M  V30 11465 H 1076.89 -3.31557 -2.62354 0
M  V30 11466 H 1074.61 -7.75412 -2.27514 0
M  V30 11467 H 1078.2 -5.37802 -2.21947 0
M  V30 11468 H 1077.08 -7.56949 -2.04936 0
M  V30 11469 N 1074.58 1.12322 -1.10551 0
M  V30 11470 C 1075.81 1.87407 -0.869607 0
M  V30 11471 C 1076.22 1.79976 0.58356 0
M  V30 11472 O 1075.56 1.1725 1.41415 0
M  V30 11473 C 1075.62 3.37401 -1.24099 0
M  V30 11474 C 1075.29 3.68607 -2.70144 0
M  V30 11475 C 1076.28 3.66869 -3.68379 0
M  V30 11476 C 1073.97 3.97903 -3.06559 0
M  V30 11477 C 1075.96 3.93987 -5.01052 0
M  V30 11478 C 1073.65 4.24681 -4.39419 0
M  V30 11479 C 1074.65 4.2271 -5.36475 0
M  V30 11480 O 1074.33 4.48823 -6.66943 0
M  V30 11481 H 1074.07 0.59978 -0.311834 0
M  V30 11482 H 1076.62 1.43037 -1.4741 0
M  V30 11483 H 1074.85 3.82332 -0.579606 0
M  V30 11484 H 1076.54 3.93833 -0.982378 0
M  V30 11485 H 1077.31 3.44297 -3.41591 0
M  V30 11486 H 1073.18 3.98578 -2.31638 0
M  V30 11487 H 1076.73 3.92364 -5.76798 0
M  V30 11488 H 1072.63 4.46727 -4.65945 0
M  V30 11489 H 1073.39 4.66436 -6.72592 0
M  V30 11490 N 1076.06 0.894434 1.2976 0
M  V30 11491 C 1077.3 0.518435 1.96061 0
M  V30 11492 C 1077.64 -0.931882 1.70381 0
M  V30 11493 O 1076.91 -1.65988 1.01381 0
M  V30 11494 C 1077.19 0.80519 3.50982 0
M  V30 11495 C 1077.05 2.30683 3.86142 0
M  V30 11496 C 1078.37 0.288096 4.39156 0
M  V30 11497 H 1075.48 0.18983 0.712133 0
M  V30 11498 H 1078.13 1.12016 1.53468 0
M  V30 11499 H 1076.28 0.293071 3.87393 0
M  V30 11500 H 1077.95 2.88808 3.59705 0
M  V30 11501 H 1076.19 2.76968 3.33873 0
M  V30 11502 H 1076.86 2.45805 4.94251 0
M  V30 11503 H 1079.34 0.726547 4.09708 0
M  V30 11504 H 1078.21 0.517985 5.4645 0
M  V30 11505 H 1078.48 -0.811018 4.34597 0
M  V30 11506 N 1077.53 -1.43282 0.656365 0
M  V30 11507 C 1078.78 -2.00996 0.168354 0
M  V30 11508 C 1079.1 -1.52408 -1.22601 0
M  V30 11509 O 1080.3 -2.02417 -1.80941 0
M  V30 11510 C 1078.76 -3.5903 0.250161 0
M  V30 11511 C 1078.37 -4.1661 1.64742 0
M  V30 11512 C 1080.11 -4.24118 -0.180084 0
M  V30 11513 C 1078.02 -5.66948 1.68299 0
M  V30 11514 H 1076.95 -0.751674 0.0591769 0
M  V30 11515 H 1079.6 -1.64216 0.818859 0
M  V30 11516 H 1077.98 -3.93226 -0.467908 0
M  V30 11517 H 1079.15 -3.93908 2.3911 0
M  V30 11518 H 1077.47 -3.63905 2.02391 0
M  V30 11519 H 1080.07 -5.34419 -0.173401 0
M  V30 11520 H 1080.41 -3.98264 -1.21208 0
M  V30 11521 H 1080.94 -3.94816 0.486343 0
M  V30 11522 H 1077.68 -5.97573 2.69419 0
M  V30 11523 H 1077.2 -5.91697 0.98261 0
M  V30 11524 H 1078.88 -6.31041 1.42813 0
M  V30 11525 N 1079.01 -0.398486 -1.52479 0
M  V30 11526 C 1080.25 0.180412 -2.03602 0
M  V30 11527 C 1080.62 1.43276 -1.27812 0
M  V30 11528 O 1081.82 2.08941 -1.69107 0
M  V30 11529 C 1080.09 0.432744 -3.5477 0
M  V30 11530 S 1081.65 0.980612 -4.27703 0
M  V30 11531 H 1078.47 0.0499981 -0.70924 0
M  V30 11532 H 1081.07 -0.548952 -1.87635 0
M  V30 11533 H 1079.77 -0.48568 -4.07516 0
M  V30 11534 H 1079.3 1.19028 -3.74961 0
M  V30 11535 H 1081.32 2.26216 -4.41634 0
M  V30 11536 N 1080.49 1.57075 -0.12858 0
M  V30 11537 C 1081.44 2.17084 0.835308 0
M  V30 11538 C 1082.43 1.12268 1.26855 0
M  V30 11539 O 1083.64 1.30554 1.23917 0
M  V30 11540 H 1080.01 0.694866 0.287516 0
M  V30 11541 H 1081.99 2.96839 0.304798 0
M  V30 11542 C 1080.73 2.79237 2.07177 0
M  V30 11543 H 1080.06 3.59594 1.74735 0
M  V30 11544 H 1081.5 3.24751 2.72604 0
M  V30 11545 C 1079.96 1.76803 2.86779 0
M  V30 11546 O 1080.49 1.22723 3.82494 0
M  V30 11547 N 1078.69 1.46525 2.50956 0
M  V30 11548 H 1078.24 1.90694 1.73187 0
M  V30 11549 H 1078.2 0.782326 3.04511 0
M  V30 11550 N 1081.97 -0.145205 1.5693 0
M  V30 11551 C 1083.2 -0.872398 1.87608 0
M  V30 11552 C 1083.61 -1.74657 0.716975 0
M  V30 11553 O 1082.97 -1.79792 -0.3132 0
M  V30 11554 C 1083.02 -1.72762 3.17546 0
M  V30 11555 O 1082.74 -0.888681 4.28992 0
M  V30 11556 C 1084.24 -2.56224 3.61751 0
M  V30 11557 H 1081.46 -0.252166 0.621815 0
M  V30 11558 H 1084.01 -0.137456 2.04038 0
M  V30 11559 H 1082.16 -2.41561 3.02865 0
M  V30 11560 H 1082.58 -1.47601 5.03303 0
M  V30 11561 H 1084.05 -3.11804 4.55502 0
M  V30 11562 H 1084.53 -3.32347 2.87127 0
M  V30 11563 H 1085.13 -1.92714 3.79133 0
M  V30 11564 N 1083.45 -1.52049 -0.414609 0
M  V30 11565 C 1084.7 -1.65067 -1.15912 0
M  V30 11566 C 1085.01 -0.383969 -1.91794 0
M  V30 11567 O 1086.22 -0.393872 -2.68628 0
M  V30 11568 C 1084.67 -2.91611 -2.1093 0
M  V30 11569 C 1084.28 -4.25369 -1.4059 0
M  V30 11570 C 1086.02 -3.13992 -2.85674 0
M  V30 11571 C 1083.93 -5.43041 -2.34223 0
M  V30 11572 H 1082.86 -0.614884 -0.436387 0
M  V30 11573 H 1085.51 -1.78533 -0.424072 0
M  V30 11574 H 1083.89 -2.71831 -2.87965 0
M  V30 11575 H 1085.07 -4.55611 -0.689568 0
M  V30 11576 H 1083.38 -4.09047 -0.779088 0
M  V30 11577 H 1085.98 -3.99082 -3.55861 0
M  V30 11578 H 1086.32 -2.27998 -3.48314 0
M  V30 11579 H 1086.86 -3.34217 -2.1574 0
M  V30 11580 H 1083.59 -6.31364 -1.76238 0
M  V30 11581 H 1083.11 -5.17144 -3.03845 0
M  V30 11582 H 1084.79 -5.75901 -2.94868 0
M  V30 11583 N 1084.93 0.6715 -1.42579 0
M  V30 11584 C 1086.17 1.43154 -1.43224 0
M  V30 11585 C 1086.5 1.94436 -0.0498695 0
M  V30 11586 O 1085.76 1.71521 0.942282 0
M  V30 11587 C 1086.05 2.64256 -2.40632 0
M  V30 11588 C 1085.72 2.31497 -3.86937 0
M  V30 11589 C 1084.38 2.22274 -4.26788 0
M  V30 11590 C 1086.73 2.04957 -4.7921 0
M  V30 11591 C 1084.06 1.84642 -5.56888 0
M  V30 11592 C 1086.41 1.68828 -6.09656 0
M  V30 11593 C 1085.08 1.58118 -6.48502 0
M  V30 11594 H 1084.35 0.523838 -0.524094 0
M  V30 11595 H 1087 0.765363 -1.7554 0
M  V30 11596 H 1085.3 3.35921 -2.01654 0
M  V30 11597 H 1087 3.22443 -2.38394 0
M  V30 11598 H 1083.59 2.39578 -3.55387 0
M  V30 11599 H 1087.77 2.11014 -4.49207 0
M  V30 11600 H 1083.03 1.74921 -5.85843 0
M  V30 11601 H 1087.2 1.47319 -6.8064 0
M  V30 11602 H 1084.83 1.28728 -7.49222 0
M  V30 11603 N 1086.4 1.28806 0.908124 0
M  V30 11604 C 1087.63 1.19271 1.69674 0
M  V30 11605 C 1088.05 -0.244403 1.86505 0
M  V30 11606 O 1087.41 -1.17668 1.37927 0
M  V30 11607 C 1087.46 1.9023 3.06341 0
M  V30 11608 O 1086.56 1.2136 3.94139 0
M  V30 11609 H 1085.9 0.413738 0.519343 0
M  V30 11610 H 1088.43 1.70227 1.13508 0
M  V30 11611 H 1088.44 1.98356 3.56537 0
M  V30 11612 H 1087.12 2.94762 2.93408 0
M  V30 11613 H 1085.7 1.21435 3.52573 0
M  V30 11614 N 1087.88 -1.11734 1.11145 0
M  V30 11615 C 1089.13 -1.83677 0.859684 0
M  V30 11616 C 1089.46 -1.84265 -0.613182 0
M  V30 11617 O 1088.74 -1.29351 -1.45254 0
M  V30 11618 C 1089.02 -3.31003 1.41805 0
M  V30 11619 C 1088.87 -3.38827 2.95831 0
M  V30 11620 C 1090.19 -4.26984 1.06645 0
M  V30 11621 H 1087.31 -0.666879 0.313754 0
M  V30 11622 H 1089.95 -1.31038 1.37583 0
M  V30 11623 H 1088.1 -3.75961 0.979054 0
M  V30 11624 H 1089.77 -3.02451 3.48312 0
M  V30 11625 H 1088.02 -2.79143 3.32056 0
M  V30 11626 H 1088.69 -4.42508 3.29986 0
M  V30 11627 H 1091.16 -3.9019 1.44537 0
M  V30 11628 H 1090.04 -5.2846 1.48394 0
M  V30 11629 H 1090.3 -4.42094 -0.0231866 0
M  V30 11630 N 1089.36 -0.901303 -1.29284 0
M  V30 11631 C 1090.32 -0.385081 -2.25942 0
M  V30 11632 C 1091.32 0.481626 -1.53418 0
M  V30 11633 O 1092.51 0.286451 -1.71829 0
M  V30 11634 C 1089.64 0.449319 -3.37926 0
M  V30 11635 H 1090.84 -1.23877 -2.7312 0
M  V30 11636 H 1088.39 -0.679586 -1.40753 0
M  V30 11637 H 1089.13 1.32292 -2.9609 0
M  V30 11638 H 1088.91 -0.171731 -3.91724 0
M  V30 11639 H 1090.4 0.801746 -4.09831 0
M  V30 11640 N 1090.84 1.42931 -0.663954 0
M  V30 11641 C 1092.25 1.56098 -0.332496 0
M  V30 11642 C 1092.45 1.64564 1.16279 0
M  V30 11643 O 1091.51 1.6066 1.94794 0
M  V30 11644 C 1092.82 2.81649 -1.05329 0
M  V30 11645 C 1094.37 2.95408 -1.03457 0
M  V30 11646 C 1094.85 4.23805 -1.73647 0
M  V30 11647 N 1096.34 4.30693 -1.70462 0
M  V30 11648 C 1097.07 5.28833 -2.21637 0
M  V30 11649 N 1096.57 6.33189 -2.81147 0
M  V30 11650 N 1098.36 5.20558 -2.12075 0
M  V30 11651 H 1090.51 1.3568 -1.63416 0
M  V30 11652 H 1092.77 0.652361 -0.687844 0
M  V30 11653 H 1092.48 2.81494 -2.10842 0
M  V30 11654 H 1092.35 3.72208 -0.611626 0
M  V30 11655 H 1094.74 2.95097 0.0121936 0
M  V30 11656 H 1094.82 2.06109 -1.51502 0
M  V30 11657 H 1094.47 4.24876 -2.78285 0
M  V30 11658 H 1094.4 5.12019 -1.2306 0
M  V30 11659 H 1096.89 3.55904 -1.27046 0
M  V30 11660 H 1097.2 7.04411 -3.17844 0
M  V30 11661 H 1095.55 6.33781 -2.85212 0
M  V30 11662 H 1098.74 4.3795 -1.6528 0
M  V30 11663 H 1098.91 5.96881 -2.52264 0
M  V30 11664 N 1092.32 0.406567 1.52266 0
M  V30 11665 C 1093.54 -0.172101 2.06685 0
M  V30 11666 C 1093.97 -1.38306 1.27488 0
M  V30 11667 O 1093.32 -1.78726 0.304441 0
M  V30 11668 C 1093.37 -0.503463 3.57068 0
M  V30 11669 O 1092.48 -1.59485 3.80314 0
M  V30 11670 H 1091.82 -0.0153209 0.663823 0
M  V30 11671 H 1094.35 0.579025 1.96236 0
M  V30 11672 H 1094.36 -0.762833 4.00805 0
M  V30 11673 H 1093.03 0.381775 4.14144 0
M  V30 11674 H 1091.61 -1.32784 3.48458 0
M  V30 11675 N 1093.79 -1.57004 0.136909 0
M  V30 11676 C 1095.04 -1.95797 -0.516711 0
M  V30 11677 C 1095.37 -1.02123 -1.65533 0
M  V30 11678 O 1094.62 -0.0484835 -1.9564 0
M  V30 11679 C 1094.92 -3.40903 -1.07331 0
M  V30 11680 C 1094.59 -4.50867 -0.0541941 0
M  V30 11681 C 1093.25 -4.80669 0.225988 0
M  V30 11682 C 1095.6 -5.17264 0.639361 0
M  V30 11683 C 1092.93 -5.74177 1.2057 0
M  V30 11684 C 1095.28 -6.11827 1.60783 0
M  V30 11685 C 1093.95 -6.40012 1.89581 0
M  V30 11686 H 1093.22 -0.716471 -0.189078 0
M  V30 11687 H 1095.86 -1.90213 0.221605 0
M  V30 11688 H 1094.17 -3.43268 -1.88876 0
M  V30 11689 H 1095.87 -3.6824 -1.58745 0
M  V30 11690 H 1092.46 -4.27666 -0.282754 0
M  V30 11691 H 1096.64 -4.9438 0.436085 0
M  V30 11692 H 1091.9 -5.94312 1.43538 0
M  V30 11693 H 1096.07 -6.62354 2.15081 0
M  V30 11694 H 1093.7 -7.12274 2.65649 0
M  V30 11695 N 1095.27 0.136881 -1.57004 0
M  V30 11696 C 1096.5 0.861186 -1.87796 0
M  V30 11697 C 1096.91 1.74788 -0.724272 0
M  V30 11698 O 1096.25 1.80984 0.31471 0
M  V30 11699 C 1096.32 1.76115 -3.13407 0
M  V30 11700 C 1095.98 1.05059 -4.4476 0
M  V30 11701 C 1096.98 0.399736 -5.18361 0
M  V30 11702 C 1094.66 1.03709 -4.91477 0
M  V30 11703 C 1096.66 -0.255127 -6.36889 0
M  V30 11704 C 1094.34 0.378414 -6.09927 0
M  V30 11705 C 1095.34 -0.266555 -6.8248 0
M  V30 11706 O 1095.03 -0.914757 -7.98679 0
M  V30 11707 H 1094.76 0.253855 -0.626525 0
M  V30 11708 H 1097.31 0.131291 -2.0498 0
M  V30 11709 H 1095.54 2.53224 -2.92257 0
M  V30 11710 H 1097.23 2.3583 -3.30362 0
M  V30 11711 H 1098 0.401909 -4.83332 0
M  V30 11712 H 1093.88 1.52852 -4.34922 0
M  V30 11713 H 1097.42 -0.759135 -6.93457 0
M  V30 11714 H 1093.32 0.373942 -6.44416 0
M  V30 11715 H 1094.09 -0.817437 -8.14408 0
M  V30 11716 N 1096.75 1.52266 0.40654 0
M  V30 11717 C 1097.68 1.78755 1.50229 0
M  V30 11718 C 1098.66 0.638652 1.57655 0
M  V30 11719 O 1099.85 0.884505 1.72888 0
M  V30 11720 C 1096.98 1.94057 2.88026 0
M  V30 11721 C 1095.93 3.09667 2.95449 0
M  V30 11722 C 1095.26 3.10196 4.35526 0
M  V30 11723 C 1096.56 4.49077 2.66697 0
M  V30 11724 H 1098.25 2.70511 1.28313 0
M  V30 11725 H 1095.8 1.30167 0.615836 0
M  V30 11726 H 1097.75 2.11171 3.64671 0
M  V30 11727 H 1096.47 0.989755 3.11242 0
M  V30 11728 H 1095.13 2.92308 2.2125 0
M  V30 11729 H 1094.78 2.12831 4.55754 0
M  V30 11730 H 1094.48 3.87847 4.41416 0
M  V30 11731 H 1096 3.29443 5.14101 0
M  V30 11732 H 1097.42 4.66628 3.33064 0
M  V30 11733 H 1095.82 5.28665 2.8396 0
M  V30 11734 H 1096.89 4.56995 1.62122 0
M  V30 11735 N 1098.23 -0.663929 1.42933 0
M  V30 11736 C 1099.48 -1.42111 1.43697 0
M  V30 11737 C 1099.8 -1.94913 0.0583858 0
M  V30 11738 O 1099.07 -1.73757 -0.904719 0
M  V30 11739 H 1097.65 -0.527391 0.529026 0
M  V30 11740 H 1100.31 -0.783766 1.78446 0
M  V30 11741 H 1099.41 -2.26877 2.1432 0
M  V30 11742 N 1099.71 -1.29285 -0.901281 0
M  V30 11743 C 1100.95 -1.17339 -1.65407 0
M  V30 11744 C 1101.29 0.274834 -1.92245 0
M  V30 11745 O 1100.56 1.19865 -1.53176 0
M  V30 11746 C 1100.84 -1.98547 -3.00418 0
M  V30 11747 C 1100.7 -3.51501 -2.80655 0
M  V30 11748 C 1102.02 -1.81062 -4.01129 0
M  V30 11749 H 1099.13 -0.427624 -0.600255 0
M  V30 11750 H 1101.78 -1.58741 -1.0441 0
M  V30 11751 H 1099.93 -1.63366 -3.52482 0
M  V30 11752 H 1101.6 -3.96655 -2.35505 0
M  V30 11753 H 1099.84 -3.76504 -2.15469 0
M  V30 11754 H 1100.51 -4.03593 -3.76585 0
M  V30 11755 H 1102.99 -2.11788 -3.58169 0
M  V30 11756 H 1101.86 -2.40235 -4.93536 0
M  V30 11757 H 1102.13 -0.765388 -4.35424 0
M  V30 11758 N 1101.18 1.11143 -1.11736 0
M  V30 11759 C 1102.41 1.87285 -0.891007 0
M  V30 11760 C 1102.83 1.79758 0.553971 0
M  V30 11761 O 1102.19 1.16221 1.39149 0
M  V30 11762 C 1102.24 3.33924 -1.36114 0
M  V30 11763 O 1101.34 4.08917 -0.534851 0
M  V30 11764 H 1100.69 0.581418 -0.320701 0
M  V30 11765 H 1103.22 1.40469 -1.4876 0
M  V30 11766 H 1103.23 3.84772 -1.35701 0
M  V30 11767 H 1101.9 3.38719 -2.41334 0
M  V30 11768 H 1100.48 3.67954 -0.605355 0
M  V30 11769 N 1102.66 0.908147 1.28804 0
M  V30 11770 C 1103.91 0.534332 1.94494 0
M  V30 11771 C 1104.22 -0.92552 1.72318 0
M  V30 11772 O 1105.43 -1.40724 2.32183 0
M  V30 11773 C 1103.89 0.904748 3.48342 0
M  V30 11774 C 1103.49 2.38394 3.79305 0
M  V30 11775 C 1105.24 0.601249 4.2022 0
M  V30 11776 C 1103.15 2.69478 5.26437 0
M  V30 11777 H 1102.08 0.196107 0.728051 0
M  V30 11778 H 1104.73 1.1063 1.46401 0
M  V30 11779 H 1103.11 0.261624 3.95135 0
M  V30 11780 H 1104.28 3.07333 3.43341 0
M  V30 11781 H 1102.6 2.65733 3.20586 0
M  V30 11782 H 1105.19 0.810225 5.28526 0
M  V30 11783 H 1105.54 -0.460669 4.13743 0
M  V30 11784 H 1106.07 1.20259 3.79187 0
M  V30 11785 H 1102.81 3.74501 5.37986 0
M  V30 11786 H 1102.33 2.05171 5.63618 0
M  V30 11787 H 1104.01 2.56187 5.94119 0
M  V30 11788 N 1104.14 -1.42577 0.671525 0
M  V30 11789 C 1105.39 -2.02401 0.201384 0
M  V30 11790 C 1105.74 -1.52133 -1.17786 0
M  V30 11791 O 1105.03 -0.712405 -1.77863 0
M  V30 11792 C 1105.23 -3.56985 0.172097 0
M  V30 11793 C 1105.06 -4.22255 1.54696 0
M  V30 11794 C 1103.83 -4.57564 2.14391 0
M  V30 11795 C 1106.03 -4.5006 2.48899 0
M  V30 11796 N 1104.01 -5.07997 3.44692 0
M  V30 11797 C 1105.38 -5.02008 3.63851 0
M  V30 11798 C 1107.43 -4.32045 2.47471 0
M  V30 11799 C 1106.14 -5.37837 4.77624 0
M  V30 11800 C 1108.16 -4.68947 3.60337 0
M  V30 11801 C 1107.52 -5.21045 4.74016 0
M  V30 11802 H 1103.62 -0.772963 0.118539 0
M  V30 11803 H 1106.21 -1.73485 0.883802 0
M  V30 11804 H 1104.38 -3.85426 -0.479723 0
M  V30 11805 H 1106.11 -4.03506 -0.31062 0
M  V30 11806 H 1102.87 -4.43212 1.66913 0
M  V30 11807 H 1103.29 -5.37647 4.11418 0
M  V30 11808 H 1107.93 -3.91024 1.60811 0
M  V30 11809 H 1105.65 -5.77792 5.64962 0
M  V30 11810 H 1109.24 -4.56687 3.60455 0
M  V30 11811 H 1108.12 -5.49067 5.59906 0
M  V30 11812 N 1105.62 -0.414636 -1.52048 0
M  V30 11813 C 1106.84 0.161137 -2.06773 0
M  V30 11814 C 1107.27 1.37628 -1.2822 0
M  V30 11815 O 1106.63 1.78562 -0.313915 0
M  V30 11816 C 1106.67 0.48452 -3.5733 0
M  V30 11817 O 1105.78 1.57466 -3.81154 0
M  V30 11818 H 1105.12 0.0118003 -0.663895 0
M  V30 11819 H 1107.65 -0.589424 -1.95926 0
M  V30 11820 H 1107.66 0.741567 -4.01204 0
M  V30 11821 H 1106.33 -0.403733 -4.13936 0
M  V30 11822 H 1104.91 1.30935 -3.49157 0
M  V30 11823 N 1107.1 1.56929 -0.145233 0
M  V30 11824 C 1108.51 1.82877 0.375884 0
M  V30 11825 C 1108.86 1.06384 1.64854 0
M  V30 11826 O 1107.98 0.30857 2.14189 0
M  V30 11827 C 1108.58 3.31725 0.688744 0
M  V30 11828 C 1107.14 3.58261 1.15439 0
M  V30 11829 C 1106.28 2.76737 0.176565 0
M  V30 11830 H 1109.24 1.54328 -0.36996 0
M  V30 11831 H 1109.26 3.47784 1.54359 0
M  V30 11832 H 1108.77 3.87371 -0.237694 0
M  V30 11833 H 1106.87 3.08 2.09683 0
M  V30 11834 H 1106.98 4.66732 1.08158 0
M  V30 11835 H 1105.35 2.45761 0.668843 0
M  V30 11836 H 1106.13 3.35154 -0.743432 0
M  V30 11837 N 1108.58 -0.128553 1.57075 0
M  V30 11838 C 1109.82 -0.834322 1.85501 0
M  V30 11839 C 1110.18 -1.77943 0.731725 0
M  V30 11840 O 1109.47 -1.89702 -0.269003 0
M  V30 11841 C 1109.66 -1.63027 3.18052 0
M  V30 11842 C 1109.49 -0.763737 4.43167 0
M  V30 11843 C 1108.26 -0.42224 5.03533 0
M  V30 11844 C 1110.46 -0.0856773 5.14229 0
M  V30 11845 N 1108.44 0.455954 6.12204 0
M  V30 11846 C 1109.81 0.651902 6.16563 0
M  V30 11847 C 1111.87 -0.00826404 4.97899 0
M  V30 11848 C 1110.57 1.45961 7.04335 0
M  V30 11849 C 1112.6 0.786239 5.8615 0
M  V30 11850 C 1111.96 1.51204 6.8798 0
M  V30 11851 H 1108.06 -0.282535 0.729176 0
M  V30 11852 H 1110.64 -0.0985924 1.9445 0
M  V30 11853 H 1108.81 -2.3371 3.10216 0
M  V30 11854 H 1110.55 -2.28063 3.34319 0
M  V30 11855 H 1107.3 -0.76229 4.67425 0
M  V30 11856 H 1107.72 0.886619 6.71169 0
M  V30 11857 H 1112.37 -0.555051 4.19141 0
M  V30 11858 H 1110.08 2.01759 7.82508 0
M  V30 11859 H 1113.67 0.848372 5.75581 0
M  V30 11860 H 1112.55 2.11694 7.55086 0
M  V30 11861 N 1110.05 -1.5248 -0.398459 0
M  V30 11862 C 1111.47 -1.4152 -0.737854 0
M  V30 11863 C 1111.67 -0.528122 -1.94456 0
M  V30 11864 O 1110.73 0.00203799 -2.525 0
M  V30 11865 C 1112.04 -2.8422 -0.9818 0
M  V30 11866 C 1113.59 -2.93635 -1.08386 0
M  V30 11867 C 1114.06 -4.37327 -1.3605 0
M  V30 11868 N 1115.55 -4.40609 -1.42892 0
M  V30 11869 C 1116.29 -5.48863 -1.65944 0
M  V30 11870 N 1115.78 -6.67217 -1.86529 0
M  V30 11871 N 1117.58 -5.36393 -1.68046 0
M  V30 11872 H 1109.73 -2.08681 0.395705 0
M  V30 11873 H 1111.99 -0.941023 0.114801 0
M  V30 11874 H 1111.7 -3.51302 -0.167358 0
M  V30 11875 H 1111.57 -3.25907 -1.89907 0
M  V30 11876 H 1113.96 -2.26728 -1.88888 0
M  V30 11877 H 1114.04 -2.5539 -0.144714 0
M  V30 11878 H 1113.68 -5.04797 -0.56061 0
M  V30 11879 H 1113.61 -4.73116 -2.31233 0
M  V30 11880 H 1116.1 -3.55298 -1.2873 0
M  V30 11881 H 1116.42 -7.45498 -2.03599 0
M  V30 11882 H 1114.76 -6.70263 -1.83773 0
M  V30 11883 H 1117.95 -4.42903 -1.51509 0
M  V30 11884 H 1118.13 -6.2083 -1.85672 0
M  V30 11885 N 1111.53 0.65634 -1.43283 0
M  V30 11886 C 1112.48 1.79058 -1.48462 0
M  V30 11887 C 1113.47 1.65563 -0.358512 0
M  V30 11888 O 1114.68 1.71947 -0.532365 0
M  V30 11889 H 1111.05 0.590716 -0.465358 0
M  V30 11890 H 1113.03 1.7181 -2.43975 0
M  V30 11891 C 1111.77 3.17304 -1.42175 0
M  V30 11892 H 1111.1 3.28324 -2.2813 0
M  V30 11893 H 1112.54 3.96633 -1.4986 0
M  V30 11894 C 1111 3.36613 -0.138929 0
M  V30 11895 O 1111.53 3.93633 0.80101 0
M  V30 11896 N 1109.73 2.90557 -0.0501237 0
M  V30 11897 H 1109.28 2.4434 -0.815821 0
M  V30 11898 H 1109.24 3.03853 0.807504 0
M  V30 11899 N 1113.01 1.29761 0.894412 0
M  V30 11900 C 1114.26 1.17409 1.64006 0
M  V30 11901 C 1114.57 -0.272355 1.93695 0
M  V30 11902 O 1115.78 -0.517269 2.66527 0
M  V30 11903 C 1114.23 2.05379 2.95546 0
M  V30 11904 C 1113.84 3.54878 2.73433 0
M  V30 11905 C 1115.59 2.01765 3.73485 0
M  V30 11906 C 1113.49 4.34935 4.00731 0
M  V30 11907 H 1112.42 0.43583 0.615279 0
M  V30 11908 H 1115.07 1.5444 0.990983 0
M  V30 11909 H 1113.46 1.61222 3.61695 0
M  V30 11910 H 1114.63 4.07122 2.15844 0
M  V30 11911 H 1112.94 3.60218 2.08882 0
M  V30 11912 H 1115.54 2.58835 4.67877 0
M  V30 11913 H 1115.88 0.998876 4.04139 0
M  V30 11914 H 1116.42 2.43994 3.14184 0
M  V30 11915 H 1113.16 5.3747 3.75241 0
M  V30 11916 H 1112.68 3.87458 4.5786 0
M  V30 11917 H 1114.36 4.45875 4.68833 0
M  V30 11918 N 1114.49 -1.10549 1.12324 0
M  V30 11919 C 1115.73 -1.82485 0.877817 0
M  V30 11920 C 1116.06 -1.85131 -0.596373 0
M  V30 11921 O 1115.32 -1.30675 -1.45679 0
M  V30 11922 C 1115.62 -3.28997 1.39626 0
M  V30 11923 C 1115.28 -3.465 2.88529 0
M  V30 11924 C 1113.94 -3.50984 3.29186 0
M  V30 11925 C 1116.3 -3.51991 3.84385 0
M  V30 11926 C 1113.62 -3.58525 4.6441 0
M  V30 11927 C 1115.98 -3.61065 5.19437 0
M  V30 11928 C 1114.64 -3.63813 5.5964 0
M  V30 11929 H 1113.91 -0.667758 0.321216 0
M  V30 11930 H 1116.56 -1.30314 1.40323 0
M  V30 11931 H 1114.86 -3.83726 0.791291 0
M  V30 11932 H 1116.56 -3.83165 1.18259 0
M  V30 11933 H 1113.15 -3.43686 2.56082 0
M  V30 11934 H 1117.33 -3.47777 3.54069 0
M  V30 11935 H 1112.59 -3.58934 4.94951 0
M  V30 11936 H 1116.76 -3.64257 5.9354 0
M  V30 11937 H 1114.39 -3.69409 6.6441 0
M  V30 11938 N 1115.97 -0.914965 -1.28321 0
M  V30 11939 C 1117.19 -0.564023 -1.99583 0
M  V30 11940 C 1117.62 0.847821 -1.6791 0
M  V30 11941 O 1116.97 1.56682 -0.912171 0
M  V30 11942 C 1117.02 -0.781368 -3.52033 0
M  V30 11943 O 1116.13 0.159072 -4.12093 0
M  V30 11944 H 1115.47 -0.218565 -0.626997 0
M  V30 11945 H 1118 -1.23074 -1.63444 0
M  V30 11946 H 1118.01 -0.691946 -4.0209 0
M  V30 11947 H 1116.68 -1.81059 -3.7442 0
M  V30 11948 H 1115.26 0.0208145 -3.72894 0
M  V30 11949 N 1117.44 1.42219 -0.679077 0
M  V30 11950 C 1118.86 1.55737 -0.349034 0
M  V30 11951 C 1119.06 1.65789 1.14527 0
M  V30 11952 O 1118.12 1.62717 1.93079 0
M  V30 11953 C 1119.43 2.80516 -1.0831 0
M  V30 11954 C 1120.98 2.94294 -1.06584 0
M  V30 11955 C 1121.45 4.2194 -1.78132 0
M  V30 11956 N 1122.94 4.28861 -1.75021 0
M  V30 11957 C 1123.68 5.26453 -2.27234 0
M  V30 11958 N 1123.17 6.30171 -2.87847 0
M  V30 11959 N 1124.97 5.1828 -2.17584 0
M  V30 11960 H 1117.12 1.33939 -1.64846 0
M  V30 11961 H 1119.38 0.645029 -0.694725 0
M  V30 11962 H 1119.09 2.79241 -2.13816 0
M  V30 11963 H 1118.96 3.71539 -0.651069 0
M  V30 11964 H 1121.35 2.95094 -0.0191061 0
M  V30 11965 H 1121.43 2.04491 -1.53679 0
M  V30 11966 H 1121.07 4.21901 -2.82776 0
M  V30 11967 H 1121 5.10685 -1.28483 0
M  V30 11968 H 1123.49 3.54537 -1.30814 0
M  V30 11969 H 1123.81 7.01 -3.25298 0
M  V30 11970 H 1122.15 6.30721 -2.91918 0
M  V30 11971 H 1125.34 4.36172 -1.69916 0
M  V30 11972 H 1125.52 5.94172 -2.58581 0
M  V30 11973 N 1118.92 0.422693 1.51826 0
M  V30 11974 C 1119.85 -0.386913 2.30272 0
M  V30 11975 C 1120.83 -1.03411 1.35056 0
M  V30 11976 O 1122.02 -1.04055 1.6397 0
M  V30 11977 C 1119.15 -1.49645 3.13407 0
M  V30 11978 C 1118.1 -0.973532 4.16781 0
M  V30 11979 C 1117.43 -2.1777 4.88344 0
M  V30 11980 C 1118.73 -0.0181194 5.22297 0
M  V30 11981 H 1120.42 0.267697 2.98201 0
M  V30 11982 H 1117.97 0.130186 1.4341 0
M  V30 11983 H 1119.92 -2.06993 3.67059 0
M  V30 11984 H 1118.64 -2.17914 2.43272 0
M  V30 11985 H 1117.3 -0.42237 3.64159 0
M  V30 11986 H 1116.95 -2.84625 4.14726 0
M  V30 11987 H 1116.65 -1.83427 5.58237 0
M  V30 11988 H 1118.18 -2.75699 5.44814 0
M  V30 11989 H 1119.59 -0.500822 5.71108 0
M  V30 11990 H 1117.99 0.237163 5.99631 0
M  V30 11991 H 1119.06 0.923065 4.76033 0
M  V30 11992 N 1120.4 -1.5685 0.153553 0
M  V30 11993 C 1121.81 -1.83074 -0.36618 0
M  V30 11994 C 1122.16 -1.07257 -1.64288 0
M  V30 11995 O 1121.29 -0.319925 -2.14022 0
M  V30 11996 C 1121.88 -3.32086 -0.671142 0
M  V30 11997 C 1120.44 -3.58868 -1.13537 0
M  V30 11998 C 1119.59 -2.76827 -0.161887 0
M  V30 11999 H 1122.54 -1.54129 0.378139 0
M  V30 12000 H 1122.56 -3.48598 -1.52512 0
M  V30 12001 H 1122.07 -3.8724 0.258234 0
M  V30 12002 H 1120.17 -3.09107 -2.08047 0
M  V30 12003 H 1120.29 -4.67299 -1.05682 0
M  V30 12004 H 1118.65 -2.46112 -0.6558 0
M  V30 12005 H 1119.43 -3.34755 0.761195 0
M  V30 12006 N 1121.88 0.120221 -1.57141 0
M  V30 12007 C 1122.82 1.14751 -2.00252 0
M  V30 12008 C 1123.79 1.41217 -0.874462 0
M  V30 12009 O 1124.98 1.53104 -1.13859 0
M  V30 12010 C 1122.12 2.46923 -2.41087 0
M  V30 12011 C 1121.23 2.27403 -3.67303 0
M  V30 12012 C 1120.37 3.52797 -3.97125 0
M  V30 12013 C 1119.41 3.28429 -5.16528 0
M  V30 12014 N 1118.54 4.46022 -5.42226 0
M  V30 12015 H 1123.38 0.772884 -2.87803 0
M  V30 12016 H 1120.92 0.370137 -1.42367 0
M  V30 12017 H 1122.88 3.24025 -2.62799 0
M  V30 12018 H 1121.51 2.82281 -1.5658 0
M  V30 12019 H 1120.56 1.41224 -3.53214 0
M  V30 12020 H 1121.87 2.05373 -4.54558 0
M  V30 12021 H 1121.03 4.38318 -4.19479 0
M  V30 12022 H 1119.77 3.77857 -3.08343 0
M  V30 12023 H 1118.77 2.41299 -4.94019 0
M  V30 12024 H 1120 3.0474 -6.06886 0
M  V30 12025 H 1117.94 4.71205 -4.56401 0
M  V30 12026 H 1117.86 4.27092 -6.23802 0
M  V30 12027 H 1119.13 5.3268 -5.69098 0
M  V30 12028 N 1123.36 1.52689 0.390367 0
M  V30 12029 C 1124.77 1.41909 0.730338 0
M  V30 12030 C 1124.97 0.538427 1.94173 0
M  V30 12031 O 1124.03 0.0113527 2.52497 0
M  V30 12032 C 1125.34 2.84737 0.966714 0
M  V30 12033 C 1126.89 2.94206 1.06827 0
M  V30 12034 C 1127.36 4.38042 1.33728 0
M  V30 12035 N 1128.86 4.4136 1.40553 0
M  V30 12036 C 1129.59 5.49735 1.63031 0
M  V30 12037 N 1129.09 6.68197 1.82988 0
M  V30 12038 N 1130.88 5.37276 1.65199 0
M  V30 12039 H 1123.03 2.08469 -0.406766 0
M  V30 12040 H 1125.29 0.940401 -0.11979 0
M  V30 12041 H 1125 3.51385 0.148725 0
M  V30 12042 H 1124.87 3.26909 1.88176 0
M  V30 12043 H 1127.26 2.27726 1.87683 0
M  V30 12044 H 1127.34 2.55463 0.131168 0
M  V30 12045 H 1126.99 5.05087 0.533832 0
M  V30 12046 H 1126.92 4.74336 2.28721 0
M  V30 12047 H 1129.41 3.55976 1.26844 0
M  V30 12048 H 1129.72 7.46567 1.99643 0
M  V30 12049 H 1128.06 6.71228 1.80215 0
M  V30 12050 H 1131.26 4.437 1.49158 0
M  V30 12051 H 1131.43 6.21806 1.82377 0
M  V30 12052 N 1124.83 -0.648732 1.43629 0
M  V30 12053 C 1126.08 -1.40446 1.44768 0
M  V30 12054 C 1126.4 -1.95447 0.0773445 0
M  V30 12055 O 1127.6 -2.71479 -0.0337942 0
M  V30 12056 C 1126.06 -2.54194 2.54781 0
M  V30 12057 C 1125.67 -2.05781 3.97942 0
M  V30 12058 C 1127.41 -3.31529 2.65121 0
M  V30 12059 C 1125.32 -3.16767 4.99412 0
M  V30 12060 H 1124.25 -0.527717 0.538545 0
M  V30 12061 H 1126.9 -0.699756 1.69634 0
M  V30 12062 H 1125.28 -3.27156 2.23125 0
M  V30 12063 H 1126.45 -1.398 4.39081 0
M  V30 12064 H 1124.77 -1.41312 3.91688 0
M  V30 12065 H 1127.37 -4.14233 3.38105 0
M  V30 12066 H 1127.71 -3.79855 1.70341 0
M  V30 12067 H 1128.24 -2.65649 2.961 0
M  V30 12068 H 1124.98 -2.73404 5.9576 0
M  V30 12069 H 1124.5 -3.81445 4.62882 0
M  V30 12070 H 1126.18 -3.81827 5.22319 0
M  V30 12071 N 1126.31 -1.30234 -0.887518 0
M  V30 12072 C 1127.54 -1.21652 -1.66986 0
M  V30 12073 C 1127.95 0.223473 -1.87876 0
M  V30 12074 O 1127.29 1.15993 -1.42448 0
M  V30 12075 C 1127.36 -1.87173 -3.06931 0
M  V30 12076 C 1127.02 -3.36496 -3.09224 0
M  V30 12077 C 1128.02 -4.3253 -2.88469 0
M  V30 12078 C 1125.7 -3.77901 -3.30902 0
M  V30 12079 C 1127.7 -5.67942 -2.89344 0
M  V30 12080 C 1125.38 -5.13432 -3.31407 0
M  V30 12081 C 1126.38 -6.08263 -3.10653 0
M  V30 12082 O 1126.07 -7.41318 -3.1097 0
M  V30 12083 H 1125.8 -0.422224 -0.527923 0
M  V30 12084 H 1128.35 -1.72349 -1.11736 0
M  V30 12085 H 1126.58 -1.31002 -3.63834 0
M  V30 12086 H 1128.27 -1.72745 -3.67306 0
M  V30 12087 H 1129.04 -4.01873 -2.7152 0
M  V30 12088 H 1124.92 -3.04534 -3.46093 0
M  V30 12089 H 1128.46 -6.41936 -2.73063 0
M  V30 12090 H 1124.36 -5.4373 -3.47891 0
M  V30 12091 H 1125.13 -7.50275 -3.27153 0
M  V30 12092 N 1127.79 1.09952 -1.12909 0
M  V30 12093 C 1129.02 1.8633 -0.910821 0
M  V30 12094 C 1129.44 1.80335 0.534874 0
M  V30 12095 O 1128.8 1.1769 1.37908 0
M  V30 12096 C 1128.85 3.32462 -1.39648 0
M  V30 12097 O 1127.95 4.08327 -0.578192 0
M  V30 12098 H 1127.29 0.577984 -0.32685 0
M  V30 12099 H 1129.82 1.38883 -1.50242 0
M  V30 12100 H 1129.83 3.83311 -1.39774 0
M  V30 12101 H 1128.51 3.36141 -2.44913 0
M  V30 12102 H 1127.08 3.67291 -0.644347 0
M  V30 12103 N 1129.27 0.921757 1.27833 0
M  V30 12104 C 1130.22 0.414838 2.27041 0
M  V30 12105 C 1131.19 -0.515045 1.57913 0
M  V30 12106 O 1132.37 -0.435499 1.85763 0
M  V30 12107 C 1129.51 -0.331744 3.43502 0
M  V30 12108 C 1128.62 0.631565 4.27358 0
M  V30 12109 C 1127.76 -0.134265 5.3103 0
M  V30 12110 C 1126.8 0.822138 6.06554 0
M  V30 12111 N 1125.93 0.0893149 7.02043 0
M  V30 12112 H 1130.77 1.26585 2.69778 0
M  V30 12113 H 1128.31 0.635488 1.32665 0
M  V30 12114 H 1130.27 -0.780866 4.09827 0
M  V30 12115 H 1128.9 -1.14704 3.01733 0
M  V30 12116 H 1127.95 1.19922 3.61003 0
M  V30 12117 H 1129.26 1.36274 4.79824 0
M  V30 12118 H 1128.42 -0.643579 6.03277 0
M  V30 12119 H 1127.16 -0.898443 4.79353 0
M  V30 12120 H 1126.16 1.34275 5.33151 0
M  V30 12121 H 1127.39 1.586 6.6032 0
M  V30 12122 H 1125.33 -0.656725 6.52704 0
M  V30 12123 H 1125.25 0.760167 7.52169 0
M  V30 12124 H 1126.52 -0.399541 7.78475 0
M  V30 12125 N 1130.75 -1.41857 0.686609 0
M  V30 12126 C 1131.99 -2.01666 0.214118 0
M  V30 12127 C 1132.33 -1.5422 -1.18025 0
M  V30 12128 O 1131.6 -0.749482 -1.7948 0
M  V30 12129 C 1131.88 -3.59147 0.261841 0
M  V30 12130 C 1131.74 -4.16742 1.69251 0
M  V30 12131 C 1133.06 -4.38427 -0.383378 0
M  V30 12132 H 1130.17 -0.732724 0.0792785 0
M  V30 12133 H 1132.82 -1.68724 0.873633 0
M  V30 12134 H 1130.97 -3.87342 -0.29971 0
M  V30 12135 H 1132.64 -3.99456 2.30722 0
M  V30 12136 H 1130.88 -3.72124 2.2295 0
M  V30 12137 H 1131.55 -5.25894 1.6775 0
M  V30 12138 H 1134.03 -4.15992 0.0947701 0
M  V30 12139 H 1132.9 -5.4797 -0.319401 0
M  V30 12140 H 1133.17 -4.172 -1.46276 0
M  V30 12141 N 1132.22 -0.430739 -1.51599 0
M  V30 12142 C 1133.15 0.374695 -2.30474 0
M  V30 12143 C 1134.14 1.02694 -1.35602 0
M  V30 12144 O 1135.32 1.03184 -1.6452 0
M  V30 12145 C 1132.45 1.47981 -3.14196 0
M  V30 12146 C 1131.4 0.951415 -4.17291 0
M  V30 12147 C 1130.73 2.15177 -4.89492 0
M  V30 12148 C 1132.03 -0.00957951 -5.22299 0
M  V30 12149 H 1133.72 -0.283508 -2.98055 0
M  V30 12150 H 1131.27 -0.13779 -1.43339 0
M  V30 12151 H 1133.22 2.05043 -3.68151 0
M  V30 12152 H 1131.95 2.16621 -2.44424 0
M  V30 12153 H 1130.61 0.403052 -3.64378 0
M  V30 12154 H 1130.25 2.82421 -4.1623 0
M  V30 12155 H 1129.95 1.80464 -5.59202 0
M  V30 12156 H 1131.48 2.72806 -5.46269 0
M  V30 12157 H 1132.89 0.470527 -5.71366 0
M  V30 12158 H 1131.29 -0.268959 -5.99497 0
M  V30 12159 H 1132.36 -0.948297 -4.75537 0
M  V30 12160 N 1133.7 1.56767 -0.161869 0
M  V30 12161 C 1134.67 2.16299 0.758104 0
M  V30 12162 C 1135.67 1.10859 1.16478 0
M  V30 12163 O 1136.86 1.36422 1.08327 0
M  V30 12164 C 1133.99 2.73819 2.03067 0
M  V30 12165 H 1135.18 2.98938 0.239992 0
M  V30 12166 H 1132.73 1.56054 0.0876532 0
M  V30 12167 H 1133.47 1.94887 2.59209 0
M  V30 12168 H 1133.25 3.50974 1.74813 0
M  V30 12169 H 1134.74 3.19638 2.68741 0
M  V30 12170 N 1135.18 -0.111886 1.57202 0
M  V30 12171 C 1136.41 -0.832407 1.89416 0
M  V30 12172 C 1136.82 -1.73096 0.753861 0
M  V30 12173 O 1136.18 -1.80416 -0.274992 0
M  V30 12174 C 1136.23 -1.65988 3.21139 0
M  V30 12175 O 1135.95 -0.797485 4.3078 0
M  V30 12176 C 1137.45 -2.48493 3.67105 0
M  V30 12177 H 1134.67 -0.238919 0.627024 0
M  V30 12178 H 1137.22 -0.0941456 2.04283 0
M  V30 12179 H 1135.37 -2.35082 3.07921 0
M  V30 12180 H 1135.79 -1.36892 5.06321 0
M  V30 12181 H 1137.26 -3.02072 4.62014 0
M  V30 12182 H 1137.74 -3.26182 2.94112 0
M  V30 12183 H 1138.34 -1.84628 3.83135 0
M  V30 12184 N 1136.66 -1.52894 -0.382264 0
M  V30 12185 C 1137.89 -1.72152 -1.14766 0
M  V30 12186 C 1138.3 -0.442911 -1.83531 0
M  V30 12187 O 1137.66 0.583085 -1.72935 0
M  V30 12188 C 1137.71 -2.87566 -2.19062 0
M  V30 12189 O 1137.43 -4.10478 -1.53099 0
M  V30 12190 C 1138.93 -3.18559 -3.08277 0
M  V30 12191 H 1136.15 -0.576212 -0.343832 0
M  V30 12192 H 1138.7 -1.99571 -0.446273 0
M  V30 12193 H 1136.85 -2.62589 -2.84826 0
M  V30 12194 H 1137.26 -4.74989 -2.22454 0
M  V30 12195 H 1138.74 -4.02763 -3.77473 0
M  V30 12196 H 1139.22 -2.33222 -3.72161 0
M  V30 12197 H 1139.82 -3.454 -2.48151 0
M  V30 12198 N 1138.14 0.641106 -1.43971 0
M  V30 12199 C 1139.41 1.39897 -1.36704 0
M  V30 12200 C 1139.79 2.1109 -0.0208051 0
M  V30 12201 O 1139.14 2.05638 0.99625 0
M  V30 12202 C 1139.35 2.37366 -2.55849 0
M  V30 12203 C 1140.7 3.01 -2.99473 0
M  V30 12204 O 1141.72 2.47692 -2.55982 0
M  V30 12205 O 1140.58 3.9768 -3.74851 0
M  V30 12206 H 1137.68 0.625623 -0.540855 0
M  V30 12207 H 1140.22 0.666997 -1.56042 0
M  V30 12208 H 1139 1.8379 -3.45452 0
M  V30 12209 H 1138.62 3.17995 -2.38673 0
M  V30 12210 N 1139.62 1.30703 0.880598 0
M  V30 12211 C 1140.55 1.11783 1.98947 0
M  V30 12212 C 1141.53 0.0242461 1.62582 0
M  V30 12213 O 1142.71 0.178641 1.87652 0
M  V30 12214 C 1139.84 0.705762 3.31265 0
M  V30 12215 C 1138.88 1.80084 3.86616 0
M  V30 12216 S 1139.72 3.40416 4.13373 0
M  V30 12217 C 1140.87 3.01122 5.48704 0
M  V30 12218 H 1141.11 2.05658 2.14691 0
M  V30 12219 H 1138.64 1.15067 1.02951 0
M  V30 12220 H 1140.6 0.474754 4.07745 0
M  V30 12221 H 1139.26 -0.213699 3.13372 0
M  V30 12222 H 1138.45 1.4649 4.82241 0
M  V30 12223 H 1138.05 1.98636 3.16891 0
M  V30 12224 H 1140.34 2.49355 6.29943 0
M  V30 12225 H 1141.29 3.95671 5.87239 0
M  V30 12226 H 1141.7 2.38865 5.11472 0
M  V30 12227 N 1141.09 -1.09351 1.1349 0
M  V30 12228 C 1142 -2.19564 0.826366 0
M  V30 12229 C 1143.02 -1.72967 -0.189339 0
M  V30 12230 O 1144.2 -2.0139 -0.0202033 0
M  V30 12231 C 1141.26 -3.4542 0.297685 0
M  V30 12232 C 1140.32 -4.06694 1.37473 0
M  V30 12233 C 1139.55 -5.26542 0.871183 0
M  V30 12234 O 1139.78 -5.69657 -0.290958 0
M  V30 12235 O 1138.71 -5.78961 1.64584 0
M  V30 12236 H 1142.54 -2.4841 1.74718 0
M  V30 12237 H 1140.12 -1.18302 0.912414 0
M  V30 12238 H 1142 -4.21399 0.00829479 0
M  V30 12239 H 1140.68 -3.18175 -0.595536 0
M  V30 12240 H 1139.59 -3.32347 1.71745 0
M  V30 12241 H 1140.92 -4.38166 2.24212 0
M  V30 12242 N 1142.57 -0.928524 -1.27343 0
M  V30 12243 C 1143.82 -0.565207 -1.93619 0
M  V30 12244 C 1144.13 0.897988 -1.73769 0
M  V30 12245 O 1145.34 1.37012 -2.34393 0
M  V30 12246 C 1143.8 -0.960052 -3.46859 0
M  V30 12247 C 1143.4 -2.44399 -3.75464 0
M  V30 12248 C 1145.15 -0.668026 -4.19211 0
M  V30 12249 C 1143.05 -2.77819 -5.22083 0
M  V30 12250 H 1141.98 -0.207665 -0.724839 0
M  V30 12251 H 1144.64 -1.12945 -1.44623 0
M  V30 12252 H 1143.02 -0.324454 -3.94669 0
M  V30 12253 H 1144.19 -3.12756 -3.38408 0
M  V30 12254 H 1142.51 -2.70799 -3.16317 0
M  V30 12255 H 1145.1 -0.894207 -5.2717 0
M  V30 12256 H 1145.45 0.394788 -4.14424 0
M  V30 12257 H 1145.98 -1.26276 -3.77226 0
M  V30 12258 H 1142.72 -3.83013 -5.3196 0
M  V30 12259 H 1142.24 -2.14112 -5.60282 0
M  V30 12260 H 1143.92 -2.65607 -5.89968 0
M  V30 12261 N 1144.05 1.41491 -0.694123 0
M  V30 12262 C 1145 2.30783 -0.0278824 0
M  V30 12263 C 1145.97 1.47028 0.772783 0
M  V30 12264 O 1147.15 1.75819 0.74111 0
M  V30 12265 C 1144.29 3.33061 0.903579 0
M  V30 12266 C 1143.4 4.31896 0.0946823 0
M  V30 12267 C 1142.54 5.21243 1.02365 0
M  V30 12268 C 1141.58 6.11748 0.207578 0
M  V30 12269 N 1140.72 6.93583 1.09028 0
M  V30 12270 H 1145.56 2.87197 -0.795092 0
M  V30 12271 H 1143.09 1.41449 -0.403806 0
M  V30 12272 H 1145.05 3.90907 1.45765 0
M  V30 12273 H 1143.68 2.782 1.6372 0
M  V30 12274 H 1142.73 3.76009 -0.576289 0
M  V30 12275 H 1144.04 4.95889 -0.538059 0
M  V30 12276 H 1143.2 5.83917 1.647 0
M  V30 12277 H 1141.94 4.57473 1.69025 0
M  V30 12278 H 1140.94 5.48125 -0.428854 0
M  V30 12279 H 1142.17 6.77573 -0.455206 0
M  V30 12280 H 1140.11 6.32422 1.74292 0
M  V30 12281 H 1140.03 7.54257 0.513073 0
M  V30 12282 H 1141.3 7.60726 1.70048 0
M  V30 12283 N 1145.53 0.438773 1.51369 0
M  V30 12284 C 1146.76 -0.125665 2.06217 0
M  V30 12285 C 1147.17 -1.36887 1.30609 0
M  V30 12286 O 1146.51 -1.80149 0.359433 0
M  V30 12287 C 1146.57 -0.511846 3.55838 0
M  V30 12288 C 1146.23 0.624755 4.52709 0
M  V30 12289 C 1147.23 1.49731 4.97872 0
M  V30 12290 C 1144.92 0.805895 4.95793 0
M  V30 12291 C 1146.91 2.53569 5.84792 0
M  V30 12292 C 1144.6 1.84755 5.82502 0
M  V30 12293 C 1145.6 2.71083 6.269 0
M  V30 12294 O 1145.28 3.7346 7.11887 0
M  V30 12295 H 1145.02 -0.0107227 0.675915 0
M  V30 12296 H 1147.57 0.617071 1.95912 0
M  V30 12297 H 1145.8 -1.30731 3.63932 0
M  V30 12298 H 1147.49 -1.0076 3.93195 0
M  V30 12299 H 1148.25 1.36891 4.65281 0
M  V30 12300 H 1144.13 0.14352 4.60777 0
M  V30 12301 H 1147.68 3.20984 6.19367 0
M  V30 12302 H 1143.57 1.97614 6.14507 0
M  V30 12303 H 1144.34 3.70058 7.30068 0
M  V30 12304 N 1147.01 -1.56678 0.170181 0
M  V30 12305 C 1147.95 -2.17909 -0.760556 0
M  V30 12306 C 1148.92 -1.11875 -1.22773 0
M  V30 12307 O 1150.11 -1.40021 -1.2961 0
M  V30 12308 C 1147.25 -2.82305 -1.9849 0
M  V30 12309 C 1146.36 -4.02796 -1.5614 0
M  V30 12310 C 1145.5 -4.55121 -2.73932 0
M  V30 12311 C 1144.53 -5.68025 -2.28067 0
M  V30 12312 N 1143.67 -6.14865 -3.38947 0
M  V30 12313 H 1148.51 -2.97098 -0.231629 0
M  V30 12314 H 1146.05 -1.46742 -0.102602 0
M  V30 12315 H 1148.01 -3.17797 -2.70298 0
M  V30 12316 H 1146.64 -2.05721 -2.48755 0
M  V30 12317 H 1145.69 -3.73131 -0.740097 0
M  V30 12318 H 1147 -4.84526 -1.18472 0
M  V30 12319 H 1146.15 -4.92789 -3.53898 0
M  V30 12320 H 1144.89 -3.72445 -3.14858 0
M  V30 12321 H 1143.9 -5.2991 -1.46546 0
M  V30 12322 H 1145.12 -6.52501 -1.88199 0
M  V30 12323 H 1143.07 -5.35119 -3.79452 0
M  V30 12324 H 1142.99 -6.91582 -3.05369 0
M  V30 12325 H 1144.25 -6.57183 -4.19203 0
M  V30 12326 N 1148.48 0.103547 -1.57259 0
M  V30 12327 C 1149.89 0.659006 -1.74683 0
M  V30 12328 C 1150.25 1.79542 -0.791142 0
M  V30 12329 O 1149.37 2.16376 0.0323585 0
M  V30 12330 C 1149.97 1.20222 -3.16752 0
M  V30 12331 C 1148.52 1.70382 -3.35629 0
M  V30 12332 C 1147.67 0.609886 -2.7051 0
M  V30 12333 H 1150.62 -0.122474 -1.58227 0
M  V30 12334 H 1150.64 2.07169 -3.19157 0
M  V30 12335 H 1150.16 0.374901 -3.86285 0
M  V30 12336 H 1148.26 2.55542 -2.71162 0
M  V30 12337 H 1148.37 1.80263 -4.43894 0
M  V30 12338 H 1146.73 1.04728 -2.32173 0
M  V30 12339 H 1147.52 -0.206713 -3.42677 0
M  V30 12340 N 1149.96 1.53094 0.37415 0
M  V30 12341 C 1150.91 1.78927 1.45787 0
M  V30 12342 C 1151.88 0.633187 1.53558 0
M  V30 12343 O 1153.06 0.874472 1.69581 0
M  V30 12344 C 1150.2 1.97726 2.8284 0
M  V30 12345 C 1149.32 3.25436 2.84104 0
M  V30 12346 C 1148.45 3.3447 4.12678 0
M  V30 12347 C 1147.49 4.56246 4.08051 0
M  V30 12348 N 1146.63 4.6248 5.28258 0
M  V30 12349 H 1151.47 2.71404 1.2306 0
M  V30 12350 H 1149 1.34453 0.596716 0
M  V30 12351 H 1150.96 2.06611 3.62447 0
M  V30 12352 H 1149.59 1.08593 3.03986 0
M  V30 12353 H 1148.64 3.25548 1.96781 0
M  V30 12354 H 1149.96 4.15112 2.76556 0
M  V30 12355 H 1149.11 3.4262 5.00696 0
M  V30 12356 H 1147.85 2.42795 4.22968 0
M  V30 12357 H 1146.85 4.48206 3.1842 0
M  V30 12358 H 1148.08 5.49254 3.99371 0
M  V30 12359 H 1146.03 3.73703 5.3915 0
M  V30 12360 H 1145.94 5.46049 5.22845 0
M  V30 12361 H 1147.21 4.74903 6.18132 0
M  V30 12362 N 1151.44 -0.633461 1.44309 0
M  V30 12363 C 1152.69 -1.39513 1.47187 0
M  V30 12364 C 1153.02 -1.93926 0.103186 0
M  V30 12365 O 1152.29 -1.73512 -0.878853 0
M  V30 12366 C 1152.58 -2.56213 2.53036 0
M  V30 12367 C 1152.43 -2.07164 3.99253 0
M  V30 12368 C 1153.75 -3.58403 2.55412 0
M  V30 12369 H 1150.87 -0.505936 0.535908 0
M  V30 12370 H 1153.51 -0.716445 1.75975 0
M  V30 12371 H 1151.66 -3.14111 2.28619 0
M  V30 12372 H 1153.33 -1.54115 4.34795 0
M  V30 12373 H 1151.57 -1.38367 4.11141 0
M  V30 12374 H 1152.25 -2.91172 4.6896 0
M  V30 12375 H 1154.72 -3.103 2.77224 0
M  V30 12376 H 1153.6 -4.37581 3.31382 0
M  V30 12377 H 1153.86 -4.12316 1.59523 0
M  V30 12378 N 1152.92 -1.31168 -0.873655 0
M  V30 12379 C 1153.85 -1.21094 -1.99646 0
M  V30 12380 C 1154.83 -0.0989684 -1.69812 0
M  V30 12381 O 1156.01 -0.282939 -1.92128 0
M  V30 12382 C 1153.14 -0.913684 -3.35066 0
M  V30 12383 C 1152.1 -1.98482 -3.79195 0
M  V30 12384 C 1151.42 -1.54033 -5.12033 0
M  V30 12385 C 1152.72 -3.39745 -3.96699 0
M  V30 12386 H 1154.42 -2.1503 -2.08333 0
M  V30 12387 H 1151.96 -1.03521 -1.00097 0
M  V30 12388 H 1153.92 -0.829821 -4.13149 0
M  V30 12389 H 1152.64 0.0613471 -3.26542 0
M  V30 12390 H 1151.3 -2.05851 -3.03349 0
M  V30 12391 H 1150.95 -0.553261 -4.99948 0
M  V30 12392 H 1150.65 -2.25688 -5.4253 0
M  V30 12393 H 1152.17 -1.47047 -5.92629 0
M  V30 12394 H 1153.59 -3.35071 -4.65188 0
M  V30 12395 H 1151.98 -4.09585 -4.38589 0
M  V30 12396 H 1153.05 -3.80802 -3.00196 0
M  V30 12397 N 1154.4 1.08748 -1.14068 0
M  V30 12398 C 1155.65 1.8044 -0.901352 0
M  V30 12399 C 1155.96 1.86995 0.573791 0
M  V30 12400 O 1157.16 2.55065 0.930275 0
M  V30 12401 C 1155.62 3.24185 -1.56308 0
M  V30 12402 C 1155.23 3.25875 -3.07424 0
M  V30 12403 C 1156.97 4.00584 -1.40473 0
M  V30 12404 C 1154.88 4.64186 -3.66449 0
M  V30 12405 H 1153.81 0.676201 -0.333569 0
M  V30 12406 H 1156.46 1.22169 -1.3692 0
M  V30 12407 H 1154.84 3.82561 -1.0229 0
M  V30 12408 H 1156.02 2.77225 -3.6808 0
M  V30 12409 H 1154.33 2.62969 -3.22856 0
M  V30 12410 H 1156.93 5.02781 -1.81976 0
M  V30 12411 H 1157.27 4.14823 -0.350408 0
M  V30 12412 H 1157.8 3.48668 -1.91508 0
M  V30 12413 H 1154.54 4.5515 -4.71719 0
M  V30 12414 H 1154.06 5.13132 -3.10574 0
M  V30 12415 H 1155.74 5.33161 -3.66536 0
M  V30 12416 N 1155.87 0.935264 1.26849 0
M  V30 12417 C 1157.1 0.595704 1.98661 0
M  V30 12418 C 1157.52 -0.821001 1.69237 0
M  V30 12419 O 1156.88 -1.55211 0.936982 0
M  V30 12420 C 1156.93 0.837275 3.50745 0
M  V30 12421 O 1156.03 -0.0934914 4.12294 0
M  V30 12422 H 1155.38 0.228512 0.623441 0
M  V30 12423 H 1157.91 1.25658 1.61466 0
M  V30 12424 H 1157.92 0.755827 4.00938 0
M  V30 12425 H 1156.59 1.86993 3.71492 0
M  V30 12426 H 1155.17 0.0385124 3.7288 0
M  V30 12427 N 1157.35 -1.41121 0.701616 0
M  V30 12428 C 1158.28 -2.292 0.000880842 0
M  V30 12429 C 1159.3 -1.45102 -0.738192 0
M  V30 12430 O 1160.49 -1.68541 -0.587891 0
M  V30 12431 C 1157.59 -3.23094 -1.02292 0
M  V30 12432 C 1156.76 -4.35979 -0.352231 0
M  V30 12433 C 1155.82 -5.10408 -1.27947 0
M  V30 12434 O 1154.84 -5.63974 -0.769561 0
M  V30 12435 N 1156.05 -5.18442 -2.61147 0
M  V30 12436 H 1158.81 -2.8998 0.757094 0
M  V30 12437 H 1156.37 -1.52339 0.548126 0
M  V30 12438 H 1158.36 -3.69755 -1.64509 0
M  V30 12439 H 1156.93 -2.6358 -1.68061 0
M  V30 12440 H 1156.15 -3.91624 0.44992 0
M  V30 12441 H 1157.44 -5.08673 0.113882 0
M  V30 12442 H 1156.84 -4.76381 -3.05087 0
M  V30 12443 H 1155.4 -5.68659 -3.18544 0
M  V30 12444 N 1158.83 -0.446794 -1.51134 0
M  V30 12445 C 1160.08 0.116666 -2.02464 0
M  V30 12446 C 1160.41 1.41532 -1.32975 0
M  V30 12447 O 1159.68 1.89278 -0.447651 0
M  V30 12448 C 1159.97 0.325659 -3.58624 0
M  V30 12449 C 1159.82 -0.992307 -4.38718 0
M  V30 12450 C 1161.14 1.09121 -4.26357 0
M  V30 12451 H 1158.26 0.0409262 -0.735863 0
M  V30 12452 H 1160.9 -0.587641 -1.80684 0
M  V30 12453 H 1159.05 0.925585 -3.77313 0
M  V30 12454 H 1160.72 -1.62694 -4.31658 0
M  V30 12455 H 1158.97 -1.5947 -4.03425 0
M  V30 12456 H 1159.64 -0.800005 -5.46172 0
M  V30 12457 H 1162.11 0.582944 -4.11996 0
M  V30 12458 H 1160.99 1.20621 -5.35483 0
M  V30 12459 H 1161.25 2.12171 -3.87861 0
M  V30 12460 N 1160.31 1.56586 -0.178487 0
M  V30 12461 C 1161.55 1.98159 0.45876 0
M  V30 12462 C 1161.91 1.0629 1.60375 0
M  V30 12463 O 1161.2 0.103975 1.91318 0
M  V30 12464 C 1161.4 3.43629 0.982552 0
M  V30 12465 C 1161.23 4.49565 -0.110152 0
M  V30 12466 C 1160 5.02162 -0.562228 0
M  V30 12467 C 1162.19 5.06129 -0.913143 0
M  V30 12468 N 1160.18 5.91741 -1.63449 0
M  V30 12469 C 1161.55 5.92217 -1.83517 0
M  V30 12470 C 1163.6 4.88608 -0.957421 0
M  V30 12471 C 1162.3 6.6266 -2.79775 0
M  V30 12472 C 1164.33 5.59777 -1.90798 0
M  V30 12473 C 1163.69 6.45599 -2.81747 0
M  V30 12474 H 1159.79 0.770124 0.13577 0
M  V30 12475 H 1162.38 1.92671 -0.280358 0
M  V30 12476 H 1160.55 3.49649 1.69117 0
M  V30 12477 H 1162.28 3.72199 1.58902 0
M  V30 12478 H 1159.03 4.73334 -0.158612 0
M  V30 12479 H 1159.46 6.41235 -2.17132 0
M  V30 12480 H 1164.1 4.21948 -0.268285 0
M  V30 12481 H 1161.82 7.28529 -3.49673 0
M  V30 12482 H 1165.4 5.48204 -1.94844 0
M  V30 12483 H 1164.28 6.99701 -3.54102 0
M  V30 12484 N 1161.79 -0.095206 1.57312 0
M  V30 12485 C 1162.73 -1.13438 2.03063 0
M  V30 12486 C 1163.73 -1.41478 0.931679 0
M  V30 12487 O 1164.93 -1.41161 1.11686 0
M  V30 12488 H 1161.31 -0.383042 0.647134 0
M  V30 12489 H 1163.28 -0.722186 2.89529 0
M  V30 12490 C 1162.03 -2.44641 2.47075 0
M  V30 12491 H 1161.35 -2.23908 3.31218 0
M  V30 12492 H 1162.79 -3.15855 2.82863 0
M  V30 12493 C 1161.25 -3.08931 1.34399 0
M  V30 12494 O 1161.78 -3.96021 0.673071 0
M  V30 12495 N 1159.99 -2.6918 1.09501 0
M  V30 12496 H 1159.53 -1.98451 1.6424 0
M  V30 12497 H 1159.49 -3.12522 0.34311 0
M  V30 12498 N 1163.26 -1.53291 -0.366026 0
M  V30 12499 C 1164.23 -1.79025 -1.43117 0
M  V30 12500 C 1165.23 -0.660676 -1.46601 0
M  V30 12501 O 1166.42 -0.928875 -1.47369 0
M  V30 12502 C 1163.55 -1.91192 -2.82238 0
M  V30 12503 H 1164.74 -2.74154 -1.21572 0
M  V30 12504 H 1162.3 -1.44361 -0.599132 0
M  V30 12505 H 1163.03 -0.98129 -3.09097 0
M  V30 12506 H 1162.82 -2.7335 -2.81109 0
M  V30 12507 H 1164.31 -2.12696 -3.59375 0
M  V30 12508 N 1164.74 0.6258 -1.44643 0
M  V30 12509 C 1165.99 1.38125 -1.46984 0
M  V30 12510 C 1166.3 1.95299 -0.108429 0
M  V30 12511 O 1167.51 2.71498 -0.00940005 0
M  V30 12512 C 1165.97 2.50108 -2.58793 0
M  V30 12513 C 1165.57 1.99424 -4.01166 0
M  V30 12514 C 1167.32 3.27269 -2.70361 0
M  V30 12515 C 1165.23 3.08781 -5.04389 0
M  V30 12516 H 1164.16 0.519083 -0.546872 0
M  V30 12517 H 1166.81 0.67268 -1.70726 0
M  V30 12518 H 1165.19 3.23565 -2.28302 0
M  V30 12519 H 1166.36 1.32797 -4.4125 0
M  V30 12520 H 1164.68 1.35063 -3.93887 0
M  V30 12521 H 1167.27 4.08802 -3.44652 0
M  V30 12522 H 1167.62 3.77097 -1.76362 0
M  V30 12523 H 1168.15 2.60905 -3.00289 0
M  V30 12524 H 1164.89 2.63891 -6.00035 0
M  V30 12525 H 1164.41 3.74033 -4.68892 0
M  V30 12526 H 1166.09 3.73469 -5.28328 0
M  V30 12527 N 1166.22 1.31629 0.866686 0
M  V30 12528 C 1167.47 1.20861 1.61479 0
M  V30 12529 C 1167.78 -0.231208 1.94229 0
M  V30 12530 O 1168.99 -0.460618 2.67564 0
M  V30 12531 C 1167.44 2.11602 2.91123 0
M  V30 12532 C 1167.05 3.60598 2.65844 0
M  V30 12533 C 1168.8 2.09642 3.69121 0
M  V30 12534 C 1166.7 4.43337 3.91415 0
M  V30 12535 H 1165.63 0.448783 0.605896 0
M  V30 12536 H 1168.28 1.56507 0.958001 0
M  V30 12537 H 1166.67 1.68858 3.58194 0
M  V30 12538 H 1167.84 4.11609 2.07159 0
M  V30 12539 H 1166.16 3.64568 2.01194 0
M  V30 12540 H 1168.75 2.68701 4.62281 0
M  V30 12541 H 1169.1 1.08438 4.01929 0
M  V30 12542 H 1169.63 2.50603 3.08938 0
M  V30 12543 H 1166.37 5.45309 3.63756 0
M  V30 12544 H 1165.89 3.97083 4.49539 0
M  V30 12545 H 1167.57 4.5572 4.5927 0
M  V30 12546 N 1167.7 -1.08142 1.14644 0
M  V30 12547 C 1168.95 -1.79959 0.910908 0
M  V30 12548 C 1169.26 -1.87296 -0.563866 0
M  V30 12549 O 1170.47 -2.55555 -0.916735 0
M  V30 12550 C 1168.92 -3.23351 1.58025 0
M  V30 12551 C 1168.53 -3.2424 3.09148 0
M  V30 12552 C 1170.28 -3.99834 1.42595 0
M  V30 12553 C 1168.18 -4.62236 3.68906 0
M  V30 12554 H 1167.11 -0.674423 0.33715 0
M  V30 12555 H 1169.76 -1.21441 1.37566 0
M  V30 12556 H 1168.15 -3.82013 1.04318 0
M  V30 12557 H 1169.32 -2.75269 3.69545 0
M  V30 12558 H 1167.63 -2.61253 3.24246 0
M  V30 12559 H 1170.23 -5.01809 1.8464 0
M  V30 12560 H 1170.57 -4.14631 0.372402 0
M  V30 12561 H 1171.11 -3.47648 1.93354 0
M  V30 12562 H 1167.85 -4.52642 4.74126 0
M  V30 12563 H 1167.37 -5.11477 3.1329 0
M  V30 12564 H 1169.05 -5.3121 3.69358 0
M  V30 12565 N 1169.18 -0.941978 -1.26351 0
M  V30 12566 C 1170.4 -0.606231 -1.98342 0
M  V30 12567 C 1170.83 0.812014 -1.6967 0
M  V30 12568 O 1170.19 1.54712 -0.9452 0
M  V30 12569 C 1170.23 -0.855864 -3.50296 0
M  V30 12570 O 1169.34 0.0716251 -4.12338 0
M  V30 12571 H 1168.68 -0.231815 -0.62222 0
M  V30 12572 H 1171.21 -1.26513 -1.60797 0
M  V30 12573 H 1171.22 -0.777079 -4.00531 0
M  V30 12574 H 1169.89 -1.8896 -3.70496 0
M  V30 12575 H 1168.47 -0.0582866 -3.72854 0
M  V30 12576 N 1170.66 1.40747 -0.709091 0
M  V30 12577 C 1171.59 2.282 -0.00156906 0
M  V30 12578 C 1172.57 1.42981 0.774279 0
M  V30 12579 O 1173.75 1.724 0.762276 0
M  V30 12580 C 1170.88 3.23441 1.00517 0
M  V30 12581 C 1169.92 4.25291 0.320904 0
M  V30 12582 S 1170.76 5.27069 -0.946518 0
M  V30 12583 C 1171.91 6.25873 0.0582856 0
M  V30 12584 H 1172.15 2.87859 -0.743271 0
M  V30 12585 H 1169.68 1.46085 -0.499866 0
M  V30 12586 H 1171.64 3.78841 1.58082 0
M  V30 12587 H 1170.3 2.62851 1.71954 0
M  V30 12588 H 1169.49 4.92255 1.08173 0
M  V30 12589 H 1169.09 3.73557 -0.18202 0
M  V30 12590 H 1171.38 6.71398 0.907233 0
M  V30 12591 H 1172.33 7.05739 -0.577787 0
M  V30 12592 H 1172.74 5.62942 0.419108 0
M  V30 12593 N 1172.13 0.454803 1.50895 0
M  V30 12594 C 1173.36 -0.103785 2.06339 0
M  V30 12595 C 1173.77 -1.35494 1.32053 0
M  V30 12596 O 1173.11 -1.79758 0.37852 0
M  V30 12597 C 1173.18 -0.474076 3.5636 0
M  V30 12598 C 1172.84 0.672736 4.52021 0
M  V30 12599 C 1173.84 1.55003 4.96256 0
M  V30 12600 C 1171.52 0.858435 4.9491 0
M  V30 12601 C 1173.52 2.59757 5.82069 0
M  V30 12602 C 1171.2 1.90922 5.8051 0
M  V30 12603 C 1172.2 2.77717 6.23989 0
M  V30 12604 O 1171.89 3.80989 7.07886 0
M  V30 12605 H 1171.62 -0.0035531 0.675991 0
M  V30 12606 H 1174.18 0.637816 1.95246 0
M  V30 12607 H 1172.41 -1.26863 3.65298 0
M  V30 12608 H 1174.09 -0.965845 3.94241 0
M  V30 12609 H 1174.86 1.41818 4.63802 0
M  V30 12610 H 1170.74 0.192384 4.60598 0
M  V30 12611 H 1174.28 3.27535 6.15927 0
M  V30 12612 H 1170.18 2.04121 6.12376 0
M  V30 12613 H 1170.95 3.7778 7.26102 0
M  V30 12614 N 1173.61 -1.56489 0.186789 0
M  V30 12615 C 1175.03 -1.58701 -0.169176 0
M  V30 12616 C 1175.23 -1.2027 -1.61671 0
M  V30 12617 O 1174.28 -0.92154 -2.35083 0
M  V30 12618 C 1175.6 -3.00437 0.125657 0
M  V30 12619 C 1177.14 -3.12932 0.0651 0
M  V30 12620 C 1177.62 -4.56787 0.333131 0
M  V30 12621 N 1179.11 -4.62344 0.281453 0
M  V30 12622 C 1179.85 -5.71529 0.462805 0
M  V30 12623 N 1179.34 -6.89213 0.704054 0
M  V30 12624 N 1181.13 -5.60692 0.397636 0
M  V30 12625 H 1173.29 -1.79754 1.13148 0
M  V30 12626 H 1175.55 -0.83385 0.450997 0
M  V30 12627 H 1175.25 -3.33086 1.12901 0
M  V30 12628 H 1175.13 -3.72782 -0.575612 0
M  V30 12629 H 1177.52 -2.80101 -0.928845 0
M  V30 12630 H 1177.6 -2.42991 0.799318 0
M  V30 12631 H 1177.24 -4.9033 1.32436 0
M  V30 12632 H 1177.17 -5.24907 -0.421879 0
M  V30 12633 H 1179.66 -3.77764 0.101266 0
M  V30 12634 H 1179.97 -7.68314 0.831468 0
M  V30 12635 H 1178.32 -6.9104 0.740851 0
M  V30 12636 H 1181.51 -4.6763 0.20964 0
M  V30 12637 H 1181.68 -6.45726 0.54239 0
M  V30 12638 N 1175.09 0.086862 -1.5736 0
M  V30 12639 C 1176 1.12297 -2.05977 0
M  V30 12640 C 1177.02 1.43347 -0.986284 0
M  V30 12641 O 1178.19 1.53825 -1.3 0
M  V30 12642 C 1175.26 2.42131 -2.4814 0
M  V30 12643 C 1174.32 2.18189 -3.69719 0
M  V30 12644 C 1173.55 3.41833 -4.09861 0
M  V30 12645 O 1173.77 4.50383 -3.50016 0
M  V30 12646 O 1172.71 3.30934 -5.02759 0
M  V30 12647 H 1176.53 0.740012 -2.94546 0
M  V30 12648 H 1174.12 0.29995 -1.46358 0
M  V30 12649 H 1176 3.18568 -2.75848 0
M  V30 12650 H 1174.68 2.79837 -1.62705 0
M  V30 12651 H 1173.58 1.39506 -3.47115 0
M  V30 12652 H 1174.92 1.85372 -4.55959 0
M  V30 12653 N 1176.57 1.53483 0.357892 0
M  V30 12654 C 1177.52 1.76843 1.43911 0
M  V30 12655 C 1178.5 0.623178 1.48342 0
M  V30 12656 O 1179.69 0.882102 1.53453 0
M  V30 12657 C 1176.82 1.96865 2.81246 0
M  V30 12658 C 1175.91 3.17414 2.81263 0
M  V30 12659 N 1176.3 4.39172 2.50921 0
M  V30 12660 C 1174.6 3.18292 3.1242 0
M  V30 12661 C 1175.3 5.20953 2.58811 0
M  V30 12662 N 1174.27 4.57338 2.93841 0
M  V30 12663 H 1178.08 2.68586 1.19327 0
M  V30 12664 H 1175.59 1.52212 0.566142 0
M  V30 12665 H 1177.59 2.11731 3.59132 0
M  V30 12666 H 1176.25 1.06355 3.06788 0
M  V30 12667 H 1177.26 4.66772 2.24376 0
M  V30 12668 H 1173.94 2.37702 3.43226 0
M  V30 12669 H 1175.33 6.28095 2.38633 0
M  V30 12670 N 1178.05 -0.61812 1.44973 0
M  V30 12671 C 1178.98 -1.74035 1.55673 0
M  V30 12672 C 1179.96 -1.65112 0.4089 0
M  V30 12673 O 1181.14 -1.83673 0.630698 0
M  V30 12674 C 1178.27 -3.1261 1.51303 0
M  V30 12675 C 1177.23 -3.36334 2.64696 0
M  V30 12676 C 1176.55 -4.75072 2.45378 0
M  V30 12677 C 1177.85 -3.27618 4.06772 0
M  V30 12678 H 1179.55 -1.65336 2.49608 0
M  V30 12679 H 1177.09 -0.794003 1.20132 0
M  V30 12680 H 1179.04 -3.90906 1.57388 0
M  V30 12681 H 1177.77 -3.22123 0.538914 0
M  V30 12682 H 1176.43 -2.60423 2.58022 0
M  V30 12683 H 1176.08 -4.81306 1.46129 0
M  V30 12684 H 1175.78 -4.91903 3.21412 0
M  V30 12685 H 1177.3 -5.55582 2.53301 0
M  V30 12686 H 1178.71 -3.95802 4.14746 0
M  V30 12687 H 1177.11 -3.55981 4.83113 0
M  V30 12688 H 1178.18 -2.25219 4.29423 0
M  V30 12689 N 1179.52 -1.32087 -0.859693 0
M  V30 12690 C 1180.45 -1.23204 -1.98351 0
M  V30 12691 C 1181.43 -0.116974 -1.69697 0
M  V30 12692 O 1182.62 -0.303301 -1.91817 0
M  V30 12693 C 1179.75 -0.949171 -3.34078 0
M  V30 12694 C 1178.7 -2.02493 -3.77069 0
M  V30 12695 C 1178.03 -1.59455 -5.1037 0
M  V30 12696 C 1179.33 -3.43934 -3.93074 0
M  V30 12697 H 1181.02 -2.17227 -2.0604 0
M  V30 12698 H 1178.57 -1.04577 -0.989931 0
M  V30 12699 H 1180.52 -0.873594 -4.12245 0
M  V30 12700 H 1179.25 0.0267095 -3.26589 0
M  V30 12701 H 1177.91 -2.09057 -3.01149 0
M  V30 12702 H 1177.55 -0.606256 -4.99333 0
M  V30 12703 H 1177.25 -2.31429 -5.40106 0
M  V30 12704 H 1178.78 -1.53325 -5.91036 0
M  V30 12705 H 1180.19 -3.39986 -4.61608 0
M  V30 12706 H 1178.59 -4.14214 -4.3422 0
M  V30 12707 H 1179.66 -3.83965 -2.9614 0
M  V30 12708 N 1181 1.07532 -1.15215 0
M  V30 12709 C 1181.96 2.1286 -0.84989 0
M  V30 12710 C 1182.96 1.60103 0.149524 0
M  V30 12711 O 1184.15 1.74017 -0.0798918 0
M  V30 12712 C 1181.29 3.3984 -0.268617 0
M  V30 12713 H 1182.48 2.41106 -1.78347 0
M  V30 12714 H 1180.03 1.23392 -0.959386 0
M  V30 12715 H 1180.77 3.17235 0.67325 0
M  V30 12716 H 1180.55 3.79433 -0.988592 0
M  V30 12717 H 1182.04 4.17533 -0.0746554 0
M  V30 12718 N 1182.48 0.948665 1.2585 0
M  V30 12719 C 1183.73 0.595938 1.92695 0
M  V30 12720 C 1184.04 -0.870229 1.75175 0
M  V30 12721 O 1185.25 -1.33266 2.36543 0
M  V30 12722 C 1183.7 1.01511 3.45288 0
M  V30 12723 C 1183.31 2.50341 3.71528 0
M  V30 12724 C 1185.06 0.734635 4.18095 0
M  V30 12725 C 1182.96 2.8609 5.17597 0
M  V30 12726 H 1181.89 0.219171 0.721443 0
M  V30 12727 H 1184.54 1.15231 1.42807 0
M  V30 12728 H 1182.93 0.387201 3.94102 0
M  V30 12729 H 1184.1 3.18101 3.3339 0
M  V30 12730 H 1182.42 2.75797 3.11969 0
M  V30 12731 H 1185.01 0.977962 5.25681 0
M  V30 12732 H 1185.36 -0.328807 4.14999 0
M  V30 12733 H 1185.89 1.32262 3.75169 0
M  V30 12734 H 1182.63 3.91427 5.25799 0
M  V30 12735 H 1182.15 2.22999 5.56805 0
M  V30 12736 H 1183.83 2.74959 5.85668 0
M  V30 12737 N 1183.96 -1.40369 0.716545 0
M  V30 12738 C 1185.24 -1.94737 0.183576 0
M  V30 12739 C 1185.62 -1.65464 -1.31092 0
M  V30 12740 O 1184.96 -0.972832 -2.06756 0
M  V30 12741 C 1185.17 -3.45438 0.497339 0
M  V30 12742 C 1186.52 -4.2235 0.436526 0
M  V30 12743 O 1187.55 -3.53553 0.433454 0
M  V30 12744 O 1186.4 -5.44923 0.41489 0
M  V30 12745 H 1183.5 -0.82655 0.0272785 0
M  V30 12746 H 1186.04 -1.49972 0.794143 0
M  V30 12747 H 1184.82 -3.60107 1.53097 0
M  V30 12748 H 1184.44 -3.97342 -0.143141 0
M  V30 12749 N 1185.44 -0.462799 -1.50652 0
M  V30 12750 C 1186.39 0.354133 -2.25233 0
M  V30 12751 C 1187.37 0.968553 -1.28483 0
M  V30 12752 O 1188.56 0.882476 -1.53432 0
M  V30 12753 C 1185.69 1.44033 -3.11624 0
M  V30 12754 C 1184.78 0.834046 -4.15818 0
M  V30 12755 N 1185.17 -0.0407022 -5.05784 0
M  V30 12756 C 1183.47 1.0989 -4.3225 0
M  V30 12757 C 1184.17 -0.383917 -5.80432 0
M  V30 12758 N 1183.14 0.238851 -5.43075 0
M  V30 12759 H 1186.95 -0.319855 -2.92154 0
M  V30 12760 H 1184.46 -0.276428 -1.6003 0
M  V30 12761 H 1186.46 2.03868 -3.63653 0
M  V30 12762 H 1185.12 2.11639 -2.4625 0
M  V30 12763 H 1186.13 -0.408959 -5.16283 0
M  V30 12764 H 1182.8 1.77056 -3.78097 0
M  V30 12765 H 1184.19 -1.0973 -6.62879 0
M  V30 12766 N 1186.91 1.56388 -0.195085 0
M  V30 12767 C 1188.16 1.97872 0.444344 0
M  V30 12768 C 1188.49 1.0819 1.61271 0
M  V30 12769 O 1187.77 0.133904 1.94039 0
M  V30 12770 C 1188.05 3.48556 0.90449 0
M  V30 12771 C 1187.9 4.49015 -0.265693 0
M  V30 12772 C 1189.22 4.02938 1.76999 0
M  V30 12773 H 1186.34 0.719413 0.160041 0
M  V30 12774 H 1188.98 1.87835 -0.286005 0
M  V30 12775 H 1187.13 3.5724 1.52682 0
M  V30 12776 H 1188.81 4.52368 -0.903363 0
M  V30 12777 H 1187.05 4.23987 -0.917462 0
M  V30 12778 H 1187.72 5.51912 0.0987834 0
M  V30 12779 H 1190.2 3.97033 1.24514 0
M  V30 12780 H 1189.07 5.08741 2.06092 0
M  V30 12781 H 1189.33 3.48197 2.72418 0
M  V30 12782 N 1188.39 -0.0785156 1.57404 0
M  V30 12783 C 1189.32 -1.12058 1.99939 0
M  V30 12784 C 1190.34 -1.35372 0.904343 0
M  V30 12785 O 1191.53 -1.33731 1.1823 0
M  V30 12786 C 1188.63 -2.47285 2.31739 0
M  V30 12787 C 1187.8 -2.44021 3.63005 0
M  V30 12788 C 1186.86 -3.61303 3.82552 0
M  V30 12789 O 1185.88 -3.43039 4.54217 0
M  V30 12790 N 1187.09 -4.81404 3.24392 0
M  V30 12791 H 1189.85 -0.758416 2.89945 0
M  V30 12792 H 1187.41 -0.267266 1.59679 0
M  V30 12793 H 1189.4 -3.24377 2.41995 0
M  V30 12794 H 1187.97 -2.75529 1.47657 0
M  V30 12795 H 1187.19 -1.52361 3.63565 0
M  V30 12796 H 1188.48 -2.38934 4.49208 0
M  V30 12797 H 1187.88 -4.99147 2.66211 0
M  V30 12798 H 1186.44 -5.56031 3.40107 0
M  V30 12799 N 1189.87 -1.5367 -0.349747 0
M  V30 12800 C 1190.82 -1.81223 -1.42922 0
M  V30 12801 C 1191.79 -0.657536 -1.52531 0
M  V30 12802 O 1192.97 -0.90134 -1.68168 0
M  V30 12803 C 1190.11 -2.022 -2.79659 0
M  V30 12804 C 1189.23 -3.29915 -2.78891 0
M  V30 12805 C 1188.36 -3.40993 -4.07305 0
M  V30 12806 C 1187.4 -4.6268 -4.00741 0
M  V30 12807 N 1186.54 -4.70826 -5.20833 0
M  V30 12808 H 1191.38 -2.73328 -1.18727 0
M  V30 12809 H 1188.91 -1.35386 -0.57525 0
M  V30 12810 H 1190.87 -2.12351 -3.59114 0
M  V30 12811 H 1189.5 -1.13416 -3.0222 0
M  V30 12812 H 1188.55 -3.28637 -1.91577 0
M  V30 12813 H 1189.87 -4.19459 -2.69917 0
M  V30 12814 H 1189.02 -3.50542 -4.95182 0
M  V30 12815 H 1187.76 -2.49493 -4.19052 0
M  V30 12816 H 1186.76 -4.53215 -3.11249 0
M  V30 12817 H 1187.99 -5.55538 -3.90582 0
M  V30 12818 H 1185.93 -3.82233 -5.33136 0
M  V30 12819 H 1185.85 -5.54297 -5.14092 0
M  V30 12820 H 1187.12 -4.84677 -6.10499 0
M  V30 12821 N 1191.35 0.610423 -1.45298 0
M  V30 12822 C 1192.28 1.73207 -1.56594 0
M  V30 12823 C 1193.26 1.64893 -0.417651 0
M  V30 12824 O 1194.44 1.83336 -0.64043 0
M  V30 12825 C 1191.57 3.11803 -1.52959 0
M  V30 12826 C 1190.53 3.34925 -2.66475 0
M  V30 12827 C 1189.85 4.73764 -2.47894 0
M  V30 12828 C 1191.15 3.25456 -4.08504 0
M  V30 12829 H 1192.85 1.6401 -2.50482 0
M  V30 12830 H 1190.39 0.787621 -1.20551 0
M  V30 12831 H 1192.35 3.90065 -1.59458 0
M  V30 12832 H 1191.07 3.21833 -0.55599 0
M  V30 12833 H 1189.73 2.59051 -2.59399 0
M  V30 12834 H 1189.38 4.80524 -1.4868 0
M  V30 12835 H 1189.08 4.90191 -3.24016 0
M  V30 12836 H 1190.6 5.54231 -2.56243 0
M  V30 12837 H 1192.02 3.93597 -4.16839 0
M  V30 12838 H 1190.41 3.53414 -4.84994 0
M  V30 12839 H 1191.48 2.22939 -4.30612 0
M  V30 12840 N 1192.83 1.32541 0.852676 0
M  V30 12841 C 1193.76 1.24254 1.97694 0
M  V30 12842 C 1194.74 0.125971 1.69633 0
M  V30 12843 O 1195.92 0.31347 1.91653 0
M  V30 12844 C 1193.05 0.966874 3.3357 0
M  V30 12845 C 1192.01 2.0449 3.75989 0
M  V30 12846 C 1191.33 1.6216 5.09518 0
M  V30 12847 C 1192.63 3.46013 3.91244 0
M  V30 12848 H 1194.33 2.18317 2.04886 0
M  V30 12849 H 1191.87 1.05101 0.984371 0
M  V30 12850 H 1193.83 0.895444 4.11776 0
M  V30 12851 H 1192.55 -0.0093893 3.26599 0
M  V30 12852 H 1191.21 2.10651 3.00036 0
M  V30 12853 H 1190.86 0.632729 4.99005 0
M  V30 12854 H 1190.56 2.3429 5.38871 0
M  V30 12855 H 1192.08 1.56457 5.90215 0
M  V30 12856 H 1193.49 3.4243 4.59799 0
M  V30 12857 H 1191.89 4.1651 4.32017 0
M  V30 12858 H 1192.96 3.8553 2.941 0
M  V30 12859 N 1194.3 -1.0692 1.15784 0
M  V30 12860 C 1195.53 -1.83045 0.958031 0
M  V30 12861 C 1195.94 -1.82555 -0.497027 0
M  V30 12862 O 1195.29 -1.23864 -1.35659 0
M  V30 12863 C 1195.35 -3.31096 1.40056 0
M  V30 12864 C 1195.01 -3.55299 2.87423 0
M  V30 12865 C 1196.01 -3.48875 3.85463 0
M  V30 12866 C 1193.69 -3.82824 3.25194 0
M  V30 12867 C 1195.69 -3.69633 5.19279 0
M  V30 12868 C 1193.37 -4.03232 4.59181 0
M  V30 12869 C 1194.37 -3.96633 5.56032 0
M  V30 12870 O 1194.06 -4.16492 6.87597 0
M  V30 12871 H 1193.79 -0.584218 0.340095 0
M  V30 12872 H 1196.35 -1.35841 1.54066 0
M  V30 12873 H 1194.58 -3.79131 0.761361 0
M  V30 12874 H 1196.27 -3.88697 1.16916 0
M  V30 12875 H 1197.03 -3.27608 3.57629 0
M  V30 12876 H 1192.91 -3.87073 2.50391 0
M  V30 12877 H 1196.45 -3.64398 5.94861 0
M  V30 12878 H 1192.35 -4.23988 4.86729 0
M  V30 12879 H 1193.12 -4.33815 6.9408 0
M  V30 12880 N 1195.78 -0.955326 -1.25345 0
M  V30 12881 C 1196.73 -0.446792 -2.23579 0
M  V30 12882 C 1197.72 0.464354 -1.54054 0
M  V30 12883 O 1198.91 0.297293 -1.74485 0
M  V30 12884 C 1196.04 0.273533 -3.42209 0
M  V30 12885 C 1195.12 -0.655722 -4.19 0
M  V30 12886 N 1195.51 -1.78766 -4.73156 0
M  V30 12887 C 1193.81 -0.464059 -4.43579 0
M  V30 12888 C 1194.51 -2.36789 -5.31324 0
M  V30 12889 N 1193.49 -1.65435 -5.17815 0
M  V30 12890 H 1197.29 -1.31065 -2.63057 0
M  V30 12891 H 1194.81 -0.812899 -1.40591 0
M  V30 12892 H 1196.8 0.654986 -4.11723 0
M  V30 12893 H 1195.46 1.13399 -3.04254 0
M  V30 12894 H 1196.47 -2.1695 -4.70269 0
M  V30 12895 H 1193.15 0.353459 -4.16001 0
M  V30 12896 H 1194.54 -3.32242 -5.84008 0
M  V30 12897 N 1197.26 1.39987 -0.723979 0
M  V30 12898 C 1198.19 2.2917 -0.0373445 0
M  V30 12899 C 1199.21 1.46258 0.715015 0
M  V30 12900 O 1200.4 1.69455 0.561003 0
M  V30 12901 C 1197.5 3.2468 0.971384 0
M  V30 12902 C 1196.67 4.36485 0.282826 0
M  V30 12903 C 1195.73 5.12379 1.19811 0
M  V30 12904 O 1194.75 5.65127 0.67974 0
M  V30 12905 N 1195.96 5.22531 2.52866 0
M  V30 12906 H 1198.72 2.88738 -0.803131 0
M  V30 12907 H 1196.28 1.51448 -0.572292 0
M  V30 12908 H 1198.27 3.72326 1.58606 0
M  V30 12909 H 1196.84 2.6622 1.63846 0
M  V30 12910 H 1196.06 3.90859 -0.512167 0
M  V30 12911 H 1197.35 5.08427 -0.194793 0
M  V30 12912 H 1196.75 4.81174 2.97469 0
M  V30 12913 H 1195.31 5.73655 3.09457 0
M  V30 12914 N 1198.74 0.470782 1.50404 0
M  V30 12915 C 1199.99 -0.0844409 2.02624 0
M  V30 12916 C 1200.32 -1.39398 1.3521 0
M  V30 12917 O 1199.59 -1.88542 0.477707 0
M  V30 12918 C 1199.88 -0.268563 3.59097 0
M  V30 12919 C 1199.73 1.06198 4.37084 0
M  V30 12920 C 1201.05 -1.02324 4.28039 0
M  V30 12921 H 1198.17 -0.0292141 0.736421 0
M  V30 12922 H 1200.81 0.616312 1.79726 0
M  V30 12923 H 1198.96 -0.865441 3.78738 0
M  V30 12924 H 1200.63 1.69541 4.29015 0
M  V30 12925 H 1198.87 1.65868 4.00837 0
M  V30 12926 H 1199.55 0.886795 5.4483 0
M  V30 12927 H 1202.02 -0.517325 4.12872 0
M  V30 12928 H 1200.9 -1.12087 5.37334 0
M  V30 12929 H 1201.16 -2.05974 3.91187 0
M  V30 12930 N 1200.22 -1.56282 0.203376 0
M  V30 12931 C 1201.63 -1.84146 -0.307752 0
M  V30 12932 C 1201.98 -1.12429 -1.60792 0
M  V30 12933 O 1201.1 -0.387852 -2.12896 0
M  V30 12934 C 1201.7 -3.34053 -0.565152 0
M  V30 12935 C 1200.26 -3.62298 -1.02063 0
M  V30 12936 C 1199.41 -2.77202 -0.0737343 0
M  V30 12937 H 1202.36 -1.52848 0.426983 0
M  V30 12938 H 1202.38 -3.53273 -1.41345 0
M  V30 12939 H 1201.89 -3.86222 0.381301 0
M  V30 12940 H 1199.99 -3.1557 -1.98107 0
M  V30 12941 H 1200.1 -4.70424 -0.907614 0
M  V30 12942 H 1198.47 -2.48074 -0.577169 0
M  V30 12943 H 1199.25 -3.32164 0.86731 0
M  V30 12944 N 1201.7 0.070167 -1.57444 0
M  V30 12945 C 1202.92 0.785703 -1.91941 0
M  V30 12946 C 1203.35 1.70243 -0.799932 0
M  V30 12947 O 1202.7 1.79608 0.247139 0
M  V30 12948 C 1202.75 1.55398 -3.25398 0
M  V30 12949 O 1201.86 2.66475 -3.14746 0
M  V30 12950 H 1201.2 0.214245 -0.628486 0
M  V30 12951 H 1203.73 0.0379243 -2.04565 0
M  V30 12952 H 1203.74 1.93287 -3.5931 0
M  V30 12953 H 1202.41 0.881366 -4.06454 0
M  V30 12954 H 1200.99 2.3143 -2.92394 0
M  V30 12955 N 1203.17 1.53854 0.341593 0
M  V30 12956 C 1204.08 1.84975 1.44297 0
M  V30 12957 C 1205.1 0.740057 1.57477 0
M  V30 12958 O 1206.28 1.03256 1.72917 0
M  V30 12959 C 1203.34 2.05464 2.79259 0
M  V30 12960 C 1202.4 3.29318 2.75405 0
M  V30 12961 C 1201.63 3.4882 4.03931 0
M  V30 12962 O 1201.86 2.7212 5.01305 0
M  V30 12963 O 1200.79 4.42253 4.08284 0
M  V30 12964 H 1204.62 2.78592 1.20913 0
M  V30 12965 H 1202.2 1.39532 0.533953 0
M  V30 12966 H 1204.08 2.20374 3.59184 0
M  V30 12967 H 1202.76 1.15035 3.0257 0
M  V30 12968 H 1201.67 3.1981 1.94094 0
M  V30 12969 H 1203 4.19746 2.57049 0
M  V30 12970 N 1204.65 -0.602709 1.4562 0
M  V30 12971 C 1205.58 -1.7271 1.50678 0
M  V30 12972 C 1206.6 -1.57884 0.397048 0
M  V30 12973 O 1207.79 -1.65676 0.664367 0
M  V30 12974 C 1204.89 -3.10762 1.35204 0
M  V30 12975 C 1204.06 -3.51782 2.59939 0
M  V30 12976 C 1203.12 -4.68816 2.38952 0
M  V30 12977 O 1202.14 -4.75686 3.12588 0
M  V30 12978 N 1203.35 -5.624 1.43827 0
M  V30 12979 H 1206.11 -1.68833 2.47619 0
M  V30 12980 H 1203.67 -0.788131 1.41422 0
M  V30 12981 H 1205.66 -3.86819 1.18967 0
M  V30 12982 H 1204.23 -3.09119 0.465203 0
M  V30 12983 H 1203.45 -2.65637 2.91257 0
M  V30 12984 H 1204.74 -3.75948 3.42842 0
M  V30 12985 H 1204.14 -5.59568 0.830669 0
M  V30 12986 H 1202.7 -6.37969 1.33561 0
M  V30 12987 N 1206.13 -1.32992 -0.845635 0
M  V30 12988 C 1207.04 -1.24701 -1.98713 0
M  V30 12989 C 1208.06 -0.158864 -1.73273 0
M  V30 12990 O 1209.23 -0.381209 -1.97759 0
M  V30 12991 C 1206.3 -0.979524 -3.32575 0
M  V30 12992 C 1205.36 -2.15701 -3.71176 0
M  V30 12993 C 1204.59 -1.90219 -4.98651 0
M  V30 12994 O 1204.81 -0.849171 -5.64044 0
M  V30 12995 O 1203.75 -2.76571 -5.34595 0
M  V30 12996 H 1207.57 -2.20683 -2.08645 0
M  V30 12997 H 1205.16 -1.12971 -0.97765 0
M  V30 12998 H 1207.04 -0.847219 -4.12796 0
M  V30 12999 H 1205.72 -0.0499398 -3.23661 0
M  V30 13000 H 1204.62 -2.34483 -2.91494 0
M  V30 13001 H 1205.96 -3.0697 -3.84747 0
M  V30 13002 N 1207.61 1.06304 -1.1635 0
M  V30 13003 C 1208.86 1.78747 -0.943074 0
M  V30 13004 C 1209.18 1.87646 0.530483 0
M  V30 13005 O 1208.45 1.38506 1.38538 0
M  V30 13006 H 1207.03 0.662072 -0.345932 0
M  V30 13007 H 1209.69 1.28413 -1.46615 0
M  V30 13008 H 1208.78 2.80828 -1.3617 0
M  V30 13009 N 1209.09 0.96196 1.24836 0
M  V30 13010 C 1210.03 0.48686 2.25607 0
M  V30 13011 C 1211 -0.464546 1.59472 0
M  V30 13012 O 1212.19 -0.376179 1.87055 0
M  V30 13013 C 1209.33 -0.222294 3.44383 0
M  V30 13014 C 1208.44 0.767206 4.25133 0
M  V30 13015 C 1207.58 0.0347458 5.31189 0
M  V30 13016 C 1206.61 1.01469 6.03631 0
M  V30 13017 N 1205.75 0.312619 7.01404 0
M  V30 13018 H 1210.59 1.35104 2.65614 0
M  V30 13019 H 1208.13 0.677373 1.30576 0
M  V30 13020 H 1210.09 -0.650087 4.12104 0
M  V30 13021 H 1208.72 -1.05047 3.0523 0
M  V30 13022 H 1207.77 1.31346 3.57005 0
M  V30 13023 H 1209.08 1.5147 4.75245 0
M  V30 13024 H 1208.23 -0.451325 6.05019 0
M  V30 13025 H 1206.97 -0.745485 4.81969 0
M  V30 13026 H 1205.98 1.51169 5.28609 0
M  V30 13027 H 1207.2 1.79527 6.5494 0
M  V30 13028 H 1205.15 -0.44874 6.54463 0
M  V30 13029 H 1205.07 0.999079 7.49369 0
M  V30 13030 H 1206.33 -0.151673 7.79352 0
M  V30 13031 N 1210.56 -1.39601 0.731392 0
M  V30 13032 C 1211.98 -1.54334 0.406594 0
M  V30 13033 C 1212.18 -1.69925 -1.08295 0
M  V30 13034 O 1211.24 -1.69771 -1.86906 0
M  V30 13035 C 1212.55 -2.76303 1.18647 0
M  V30 13036 C 1214.1 -2.90135 1.17433 0
M  V30 13037 C 1214.57 -4.15038 1.93669 0
M  V30 13038 N 1216.06 -4.2207 1.90817 0
M  V30 13039 C 1216.8 -5.17656 2.46616 0
M  V30 13040 N 1216.29 -6.19054 3.11037 0
M  V30 13041 N 1218.09 -5.09847 2.3667 0
M  V30 13042 H 1210.24 -1.27728 1.69703 0
M  V30 13043 H 1212.5 -0.6188 0.718186 0
M  V30 13044 H 1212.21 -2.71113 2.24032 0
M  V30 13045 H 1212.08 -3.68866 0.788514 0
M  V30 13046 H 1214.47 -2.9482 0.128615 0
M  V30 13047 H 1214.55 -1.98646 1.61163 0
M  V30 13048 H 1214.19 -4.11115 2.9824 0
M  V30 13049 H 1214.12 -5.05565 1.47349 0
M  V30 13050 H 1216.61 -3.49437 1.43882 0
M  V30 13051 H 1216.93 -6.88444 3.51091 0
M  V30 13052 H 1215.27 -6.19452 3.15126 0
M  V30 13053 H 1218.46 -4.29566 1.85987 0
M  V30 13054 H 1218.64 -5.84165 2.80455 0
M  V30 13055 N 1212.04 -0.478751 -1.50152 0
M  V30 13056 C 1213.27 0.0710485 -2.06778 0
M  V30 13057 C 1213.69 1.32826 -1.34174 0
M  V30 13058 O 1213.04 1.77758 -0.413304 0
M  V30 13059 C 1213.09 0.351351 -3.59789 0
M  V30 13060 O 1212.81 -0.855998 -4.29656 0
M  V30 13061 C 1214.32 0.947269 -4.33061 0
M  V30 13062 H 1211.54 -0.0105032 -0.670918 0
M  V30 13063 H 1214.08 -0.669732 -1.93222 0
M  V30 13064 H 1212.23 1.04207 -3.73121 0
M  V30 13065 H 1212.65 -0.605252 -5.20996 0
M  V30 13066 H 1214.12 1.09312 -5.41068 0
M  V30 13067 H 1214.6 1.93937 -3.94062 0
M  V30 13068 H 1215.21 0.294693 -4.24278 0
M  V30 13069 N 1213.52 1.56172 -0.211661 0
M  V30 13070 C 1214.45 2.22843 0.697375 0
M  V30 13071 C 1215.43 1.19689 1.20866 0
M  V30 13072 O 1216.62 1.48245 1.25447 0
M  V30 13073 C 1213.75 2.90067 1.90993 0
M  V30 13074 C 1212.7 3.99608 1.5329 0
M  V30 13075 C 1212.03 4.54078 2.82343 0
M  V30 13076 C 1213.33 5.17169 0.730333 0
M  V30 13077 H 1215.02 2.99065 0.141533 0
M  V30 13078 H 1212.57 1.43846 0.0666337 0
M  V30 13079 H 1214.52 3.35396 2.55123 0
M  V30 13080 H 1213.24 2.11276 2.49058 0
M  V30 13081 H 1211.9 3.54995 0.915115 0
M  V30 13082 H 1211.55 3.72029 3.38531 0
M  V30 13083 H 1211.25 5.28001 2.57853 0
M  V30 13084 H 1212.77 5.02119 3.47432 0
M  V30 13085 H 1214.19 5.5894 1.2751 0
M  V30 13086 H 1212.59 5.97262 0.582916 0
M  V30 13087 H 1213.66 4.84174 -0.265157 0
M  V30 13088 N 1215 -0.0618163 1.57479 0
M  V30 13089 C 1216.41 -0.416827 1.54061 0
M  V30 13090 C 1216.61 -1.78584 0.933277 0
M  V30 13091 O 1215.67 -2.46656 0.54009 0
M  V30 13092 C 1216.98 -0.348728 2.98671 0
M  V30 13093 C 1218.53 -0.428194 3.10057 0
M  V30 13094 C 1219.01 -0.389898 4.56337 0
M  V30 13095 N 1220.5 -0.449677 4.61012 0
M  V30 13096 C 1221.23 -0.442418 5.71691 0
M  V30 13097 N 1220.73 -0.389381 6.91705 0
M  V30 13098 N 1222.52 -0.489719 5.59963 0
M  V30 13099 H 1214.67 0.834487 1.9532 0
M  V30 13100 H 1216.94 0.314149 0.894435 0
M  V30 13101 H 1216.64 0.590738 3.46703 0
M  V30 13102 H 1216.52 -1.15511 3.59078 0
M  V30 13103 H 1218.9 -1.35808 2.61992 0
M  V30 13104 H 1218.98 0.406946 2.52542 0
M  V30 13105 H 1218.63 0.536186 5.05062 0
M  V30 13106 H 1218.56 -1.24271 5.11727 0
M  V30 13107 H 1221.05 -0.49451 3.74651 0
M  V30 13108 H 1221.36 -0.388042 7.71825 0
M  V30 13109 H 1219.71 -0.355918 6.94088 0
M  V30 13110 H 1222.9 -0.528915 4.65102 0
M  V30 13111 H 1223.07 -0.480592 6.46215 0
M  V30 13112 N 1216.48 -1.54033 -0.333429 0
M  V30 13113 C 1217.44 -1.82021 -1.39288 0
M  V30 13114 C 1218.44 -0.691623 -1.45166 0
M  V30 13115 O 1219.63 -0.959925 -1.45365 0
M  V30 13116 C 1216.76 -1.97136 -2.78119 0
M  V30 13117 H 1217.95 -2.76671 -1.1573 0
M  V30 13118 H 1215.51 -1.45599 -0.568376 0
M  V30 13119 H 1216.24 -1.04663 -3.06946 0
M  V30 13120 H 1216.03 -2.79251 -2.75247 0
M  V30 13121 H 1217.52 -2.20271 -3.54782 0
M  V30 13122 N 1217.95 0.594978 -1.45938 0
M  V30 13123 C 1219.37 1.17703 -1.44924 0
M  V30 13124 C 1219.72 1.9534 -0.183522 0
M  V30 13125 O 1218.84 2.04276 0.714163 0
M  V30 13126 C 1219.44 2.14119 -2.62561 0
M  V30 13127 C 1218 2.67674 -2.64627 0
M  V30 13128 C 1217.14 1.43312 -2.37397 0
M  V30 13129 H 1220.09 0.383583 -1.53995 0
M  V30 13130 H 1220.11 2.97374 -2.3738 0
M  V30 13131 H 1219.63 1.57586 -3.54667 0
M  V30 13132 H 1217.73 3.28111 -1.76562 0
M  V30 13133 H 1217.84 3.11246 -3.64229 0
M  V30 13134 H 1216.2 1.72702 -1.87206 0
M  V30 13135 H 1216.99 0.886276 -3.31663 0
M  V30 13136 N 1219.43 1.33438 0.838571 0
M  V30 13137 C 1220.66 1.27951 1.62592 0
M  V30 13138 C 1221.08 -0.149502 1.88207 0
M  V30 13139 O 1220.43 -1.09174 1.46244 0
M  V30 13140 C 1220.48 2.0523 2.97595 0
M  V30 13141 O 1220.2 3.42557 2.73105 0
M  V30 13142 C 1221.71 2.06957 3.92025 0
M  V30 13143 H 1218.93 0.440796 0.505905 0
M  V30 13144 H 1221.47 1.75814 1.0445 0
M  V30 13145 H 1219.62 1.61049 3.52338 0
M  V30 13146 H 1220.04 3.82314 3.59076 0
M  V30 13147 H 1221.51 2.65481 4.83967 0
M  V30 13148 H 1221.99 1.0599 4.26219 0
M  V30 13149 H 1222.6 2.51158 3.4322 0
M  V30 13150 N 1220.91 -1.05686 1.16912 0
M  V30 13151 C 1222.16 -1.78597 0.954425 0
M  V30 13152 C 1222.49 -1.87494 -0.517315 0
M  V30 13153 O 1221.74 -1.36736 -1.40006 0
M  V30 13154 C 1222.04 -3.22779 1.53455 0
M  V30 13155 C 1221.71 -3.3395 3.02965 0
M  V30 13156 C 1220.37 -3.36706 3.43777 0
M  V30 13157 C 1222.72 -3.35371 3.98969 0
M  V30 13158 C 1220.05 -3.38506 4.79198 0
M  V30 13159 C 1222.4 -3.38708 5.34284 0
M  V30 13160 C 1221.06 -3.39749 5.74567 0
M  V30 13161 H 1220.33 -0.653534 0.349249 0
M  V30 13162 H 1222.98 -1.24245 1.45723 0
M  V30 13163 H 1221.29 -3.80025 0.953331 0
M  V30 13164 H 1222.98 -3.77805 1.34404 0
M  V30 13165 H 1219.57 -3.32515 2.70429 0
M  V30 13166 H 1223.76 -3.32447 3.685 0
M  V30 13167 H 1219.01 -3.37619 5.09729 0
M  V30 13168 H 1223.19 -3.38755 6.08455 0
M  V30 13169 H 1220.81 -3.40897 6.7948 0
M  V30 13170 N 1222.39 -0.968567 -1.24324 0
M  V30 13171 C 1223.64 -0.630928 -1.9242 0
M  V30 13172 C 1223.96 0.834001 -1.75712 0
M  V30 13173 O 1223.22 1.61558 -1.10442 0
M  V30 13174 C 1223.52 -0.952762 -3.44467 0
M  V30 13175 C 1223.18 -2.40597 -3.81345 0
M  V30 13176 C 1221.85 -2.80316 -3.91122 0
M  V30 13177 C 1224.2 -3.34906 -3.99359 0
M  V30 13178 C 1221.53 -4.13383 -4.16331 0
M  V30 13179 C 1223.88 -4.67602 -4.26065 0
M  V30 13180 C 1222.54 -5.07097 -4.34061 0
M  V30 13181 H 1221.81 -0.230873 -0.704116 0
M  V30 13182 H 1224.46 -1.22022 -1.47591 0
M  V30 13183 H 1222.76 -0.281244 -3.90789 0
M  V30 13184 H 1224.46 -0.6699 -3.95365 0
M  V30 13185 H 1221.05 -2.088 -3.743 0
M  V30 13186 H 1225.23 -3.05404 -3.91206 0
M  V30 13187 H 1220.49 -4.43606 -4.20742 0
M  V30 13188 H 1224.66 -5.40646 -4.38948 0
M  V30 13189 H 1222.29 -6.10229 -4.53349 0
M  V30 13190 N 1223.87 1.39211 -0.738786 0
M  V30 13191 C 1225.11 2.00733 -0.288817 0
M  V30 13192 C 1225.45 1.58494 1.1222 0
M  V30 13193 O 1224.72 0.815579 1.76575 0
M  V30 13194 C 1225 3.57928 -0.394956 0
M  V30 13195 C 1224.86 4.10174 -1.84601 0
M  V30 13196 C 1226.18 4.39548 0.220395 0
M  V30 13197 H 1223.29 0.729276 -0.106418 0
M  V30 13198 H 1225.94 1.65365 -0.935652 0
M  V30 13199 H 1224.09 3.88188 0.155744 0
M  V30 13200 H 1225.76 3.90618 -2.45388 0
M  V30 13201 H 1224 3.63593 -2.36607 0
M  V30 13202 H 1224.67 5.19305 -1.87152 0
M  V30 13203 H 1227.15 4.15354 -0.249098 0
M  V30 13204 H 1226.02 5.48778 0.115806 0
M  V30 13205 H 1226.29 4.22341 1.30691 0
M  V30 13206 N 1225.34 0.486708 1.49896 0
M  V30 13207 C 1226.57 -0.0622999 2.07306 0
M  V30 13208 C 1226.99 -1.31353 1.3464 0
M  V30 13209 O 1226.35 -1.76861 0.398752 0
M  V30 13210 C 1226.4 -0.313481 3.59235 0
M  V30 13211 O 1225.5 -1.39101 3.88233 0
M  V30 13212 H 1224.85 0.0198885 0.663702 0
M  V30 13213 H 1227.38 0.682232 1.92891 0
M  V30 13214 H 1227.39 -0.549302 4.04285 0
M  V30 13215 H 1226.06 0.600767 4.11538 0
M  V30 13216 H 1224.64 -1.14127 3.55006 0
M  V30 13217 N 1226.82 -1.56058 0.219941 0
M  V30 13218 C 1227.76 -2.17494 -0.723133 0
M  V30 13219 C 1228.77 -1.14356 -1.15873 0
M  V30 13220 O 1229.96 -1.41343 -1.09016 0
M  V30 13221 C 1227.06 -2.74242 -1.99109 0
M  V30 13222 C 1226.23 -4.02533 -1.71132 0
M  V30 13223 C 1225.29 -4.43862 -2.82618 0
M  V30 13224 O 1224.32 -5.10792 -2.51157 0
M  V30 13225 N 1225.52 -4.09412 -4.11537 0
M  V30 13226 H 1228.28 -2.99048 -0.197619 0
M  V30 13227 H 1225.84 -1.61853 0.0388738 0
M  V30 13228 H 1227.84 -2.98862 -2.7288 0
M  V30 13229 H 1226.41 -1.97 -2.42713 0
M  V30 13230 H 1225.63 -3.85786 -0.810128 0
M  V30 13231 H 1226.91 -4.86227 -1.49868 0
M  V30 13232 H 1226.31 -3.55624 -4.39941 0
M  V30 13233 H 1224.87 -4.38928 -4.81857 0
M  V30 13234 N 1228.3 0.053464 -1.57509 0
M  V30 13235 C 1229.21 1.07902 -2.08313 0
M  V30 13236 C 1230.23 1.41223 -1.01647 0
M  V30 13237 O 1231.4 1.51032 -1.33233 0
M  V30 13238 C 1228.47 2.36813 -2.5322 0
M  V30 13239 C 1227.53 2.10297 -3.74264 0
M  V30 13240 C 1226.76 3.33062 -4.1702 0
M  V30 13241 O 1226.99 4.42857 -3.59491 0
M  V30 13242 O 1225.92 3.20195 -5.09665 0
M  V30 13243 H 1229.75 0.677368 -2.9605 0
M  V30 13244 H 1227.33 0.268838 -1.46961 0
M  V30 13245 H 1229.21 3.12645 -2.82544 0
M  V30 13246 H 1227.89 2.76323 -1.68605 0
M  V30 13247 H 1226.79 1.32111 -3.49996 0
M  V30 13248 H 1228.13 1.75658 -4.59788 0
M  V30 13249 N 1229.78 1.54207 0.325255 0
M  V30 13250 C 1231.06 1.6298 1.08153 0
M  V30 13251 C 1231.44 0.462583 2.05969 0
M  V30 13252 O 1230.78 -0.543323 2.21947 0
M  V30 13253 C 1230.99 2.999 1.78497 0
M  V30 13254 C 1232.34 3.55888 2.3158 0
M  V30 13255 O 1233.37 3.02194 1.88566 0
M  V30 13256 O 1232.23 4.49847 3.10322 0
M  V30 13257 H 1229.32 0.659923 0.498429 0
M  V30 13258 H 1231.87 1.66553 0.325282 0
M  V30 13259 H 1230.64 3.7629 1.07338 0
M  V30 13260 H 1230.26 2.99997 2.60936 0
M  V30 13261 N 1231.26 -0.58723 1.46251 0
M  V30 13262 C 1232.19 -1.71103 1.52501 0
M  V30 13263 C 1233.2 -1.57454 0.413772 0
M  V30 13264 O 1234.39 -1.64962 0.681902 0
M  V30 13265 C 1231.49 -3.0931 1.38493 0
M  V30 13266 C 1230.66 -3.49005 2.63655 0
M  V30 13267 C 1229.72 -4.66255 2.43911 0
M  V30 13268 O 1228.75 -4.72344 3.17616 0
M  V30 13269 N 1229.95 -5.60843 1.49784 0
M  V30 13270 H 1232.72 -1.66198 2.49396 0
M  V30 13271 H 1230.28 -0.773087 1.4225 0
M  V30 13272 H 1232.27 -3.85535 1.23064 0
M  V30 13273 H 1230.84 -3.08608 0.497963 0
M  V30 13274 H 1230.06 -2.62533 2.94058 0
M  V30 13275 H 1231.35 -3.72291 3.4681 0
M  V30 13276 H 1230.75 -5.58656 0.889972 0
M  V30 13277 H 1229.3 -6.36517 1.4032 0
M  V30 13278 N 1232.74 -1.33881 -0.831482 0
M  V30 13279 C 1233.96 -1.28961 -1.62431 0
M  V30 13280 C 1234.39 0.135249 -1.87613 0
M  V30 13281 O 1233.74 1.09426 -1.44553 0
M  V30 13282 C 1233.79 -2.07767 -2.94729 0
M  V30 13283 O 1232.9 -1.44133 -3.86393 0
M  V30 13284 H 1232.24 -0.443313 -0.494337 0
M  V30 13285 H 1234.77 -1.76555 -1.0339 0
M  V30 13286 H 1234.78 -2.18806 -3.44366 0
M  V30 13287 H 1233.45 -3.11367 -2.75724 0
M  V30 13288 H 1232.03 -1.41784 -3.44894 0
M  V30 13289 N 1234.21 1.05064 -1.1747 0
M  V30 13290 C 1235.46 1.78089 -0.963883 0
M  V30 13291 C 1235.79 1.87766 0.507365 0
M  V30 13292 O 1235.04 1.37477 1.39279 0
M  V30 13293 C 1235.34 3.21961 -1.55164 0
M  V30 13294 C 1235.01 3.32339 -3.04732 0
M  V30 13295 C 1233.67 3.34878 -3.45557 0
M  V30 13296 C 1236.02 3.3325 -4.00741 0
M  V30 13297 C 1233.35 3.35959 -4.80987 0
M  V30 13298 C 1235.7 3.3587 -5.36073 0
M  V30 13299 C 1234.37 3.36697 -5.7636 0
M  V30 13300 H 1233.64 0.651672 -0.35271 0
M  V30 13301 H 1236.28 1.23471 -1.4638 0
M  V30 13302 H 1234.59 3.79514 -0.973471 0
M  V30 13303 H 1236.29 3.77087 -1.36406 0
M  V30 13304 H 1232.88 3.31076 -2.72188 0
M  V30 13305 H 1237.06 3.30488 -3.70258 0
M  V30 13306 H 1232.32 3.34911 -5.11512 0
M  V30 13307 H 1236.49 3.35524 -6.10243 0
M  V30 13308 H 1234.12 3.37288 -6.81279 0
M  V30 13309 N 1235.69 0.975146 1.23809 0
M  V30 13310 C 1236.64 0.510761 2.25077 0
M  V30 13311 C 1237.61 -0.447605 1.59955 0
M  V30 13312 O 1238.79 -0.356318 1.87443 0
M  V30 13313 C 1235.93 -0.185755 3.446 0
M  V30 13314 C 1235.05 0.812254 4.24295 0
M  V30 13315 C 1234.18 0.0910835 5.31122 0
M  V30 13316 C 1233.22 1.07866 6.02521 0
M  V30 13317 N 1232.36 0.386995 7.01033 0
M  V30 13318 H 1237.2 1.37913 2.64166 0
M  V30 13319 H 1234.73 0.691184 1.2985 0
M  V30 13320 H 1236.69 -0.606341 4.1277 0
M  V30 13321 H 1235.32 -1.01803 3.06327 0
M  V30 13322 H 1234.37 1.35125 3.55592 0
M  V30 13323 H 1235.69 1.56502 4.73612 0
M  V30 13324 H 1234.84 -0.387129 6.05464 0
M  V30 13325 H 1233.58 -0.694324 4.82732 0
M  V30 13326 H 1232.58 1.56767 5.26976 0
M  V30 13327 H 1233.81 1.86464 6.52999 0
M  V30 13328 H 1231.76 -0.3793 6.54903 0
M  V30 13329 H 1231.67 1.0785 7.48268 0
M  V30 13330 H 1232.94 -0.0690036 7.79469 0
M  V30 13331 N 1237.17 -1.38817 0.746158 0
M  V30 13332 C 1238.4 -2.0457 0.309605 0
M  V30 13333 C 1238.81 -1.5627 -1.05948 0
M  V30 13334 O 1238.17 -0.73248 -1.67156 0
M  V30 13335 C 1238.22 -3.60126 0.314843 0
M  V30 13336 O 1237.94 -4.06652 1.6299 0
M  V30 13337 C 1239.44 -4.4309 -0.136497 0
M  V30 13338 H 1236.66 -0.657597 0.133441 0
M  V30 13339 H 1239.21 -1.77651 1.01293 0
M  V30 13340 H 1237.36 -3.85908 -0.339685 0
M  V30 13341 H 1237.78 -5.01042 1.55103 0
M  V30 13342 H 1239.25 -5.5194 -0.0816714 0
M  V30 13343 H 1239.73 -4.22959 -1.18332 0
M  V30 13344 H 1240.33 -4.22481 0.488879 0
M  V30 13345 N 1238.65 -0.49465 -1.49636 0
M  V30 13346 C 1239.56 0.291881 -2.32777 0
M  V30 13347 C 1240.57 0.973468 -1.44221 0
M  V30 13348 O 1241.75 0.956252 -1.77251 0
M  V30 13349 C 1238.81 1.34609 -3.19502 0
M  V30 13350 C 1237.88 0.678611 -4.23903 0
M  V30 13351 C 1237.11 1.68259 -5.06483 0
M  V30 13352 O 1237.33 2.91176 -4.90482 0
M  V30 13353 O 1236.27 1.24141 -5.88959 0
M  V30 13354 H 1240.09 -0.388459 -3.01205 0
M  V30 13355 H 1237.68 -0.256086 -1.47189 0
M  V30 13356 H 1239.56 1.95617 -3.73245 0
M  V30 13357 H 1238.23 2.00947 -2.53775 0
M  V30 13358 H 1237.14 0.0289541 -3.74089 0
M  V30 13359 H 1238.47 0.0577817 -4.92166 0
M  V30 13360 N 1240.13 1.55939 -0.228214 0
M  V30 13361 C 1241.37 1.98476 0.401677 0
M  V30 13362 C 1241.7 1.116 1.59297 0
M  V30 13363 O 1240.96 0.162465 1.95024 0
M  V30 13364 C 1241.25 3.46581 0.872732 0
M  V30 13365 C 1240.92 4.50416 -0.208767 0
M  V30 13366 C 1239.58 4.78534 -0.505847 0
M  V30 13367 C 1241.93 5.12656 -0.939852 0
M  V30 13368 C 1239.26 5.66171 -1.53841 0
M  V30 13369 C 1241.61 6.01412 -1.9618 0
M  V30 13370 C 1240.28 6.2787 -2.26573 0
M  V30 13371 H 1239.55 0.726276 0.146984 0
M  V30 13372 H 1242.2 1.88598 -0.332128 0
M  V30 13373 H 1240.5 3.53696 1.68541 0
M  V30 13374 H 1242.2 3.76869 1.37006 0
M  V30 13375 H 1238.79 4.28587 0.0329308 0
M  V30 13376 H 1242.97 4.90997 -0.723581 0
M  V30 13377 H 1238.23 5.84933 -1.77944 0
M  V30 13378 H 1242.4 6.48688 -2.53332 0
M  V30 13379 H 1240.03 6.95574 -3.06725 0
M  V30 13380 N 1241.6 -0.0451101 1.57535 0
M  V30 13381 C 1242.85 -0.739114 1.88529 0
M  V30 13382 C 1243.18 -1.76208 0.823468 0
M  V30 13383 O 1242.43 -1.94893 -0.177512 0
M  V30 13384 C 1242.73 -1.45938 3.26247 0
M  V30 13385 C 1242.4 -0.57391 4.47233 0
M  V30 13386 C 1241.06 -0.329974 4.80067 0
M  V30 13387 C 1243.41 0.0384272 5.21186 0
M  V30 13388 C 1240.74 0.535339 5.84253 0
M  V30 13389 C 1243.09 0.891349 6.26289 0
M  V30 13390 C 1241.76 1.1449 6.57608 0
M  V30 13391 H 1241.03 -0.270461 0.689878 0
M  V30 13392 H 1243.67 0.000714103 1.915 0
M  V30 13393 H 1241.98 -2.27212 3.1919 0
M  V30 13394 H 1243.68 -2.00162 3.47471 0
M  V30 13395 H 1240.27 -0.774181 4.2155 0
M  V30 13396 H 1244.45 -0.137096 4.96111 0
M  V30 13397 H 1239.71 0.740253 6.06902 0
M  V30 13398 H 1243.88 1.37243 6.82743 0
M  V30 13399 H 1241.51 1.81715 7.38162 0
M  V30 13400 N 1243.08 -1.54377 -0.317073 0
M  V30 13401 C 1244.49 -1.64062 -0.891105 0
M  V30 13402 C 1244.84 -0.538863 -1.88655 0
M  V30 13403 O 1243.97 0.32718 -2.13912 0
M  V30 13404 C 1244.56 -2.97395 -1.62302 0
M  V30 13405 C 1243.12 -3.09253 -2.14568 0
M  V30 13406 C 1242.27 -2.59664 -0.973146 0
M  V30 13407 H 1245.22 -1.58418 -0.0944829 0
M  V30 13408 H 1245.24 -2.87918 -2.48764 0
M  V30 13409 H 1244.75 -3.77562 -0.898268 0
M  V30 13410 H 1242.86 -2.33774 -2.90139 0
M  V30 13411 H 1242.97 -4.15159 -2.39123 0
M  V30 13412 H 1241.33 -2.15719 -1.35416 0
M  V30 13413 H 1242.12 -3.42294 -0.262611 0
M  V30 13414 N 1244.56 0.579466 -1.4656 0
M  V30 13415 C 1245.52 1.67033 -1.56948 0
M  V30 13416 C 1246.52 1.54481 -0.446361 0
M  V30 13417 O 1247.71 1.5904 -0.710767 0
M  V30 13418 C 1244.85 3.06474 -1.49286 0
M  V30 13419 H 1246.04 1.59179 -2.54169 0
M  V30 13420 H 1243.59 0.797573 -1.34419 0
M  V30 13421 H 1244.33 3.1988 -0.533572 0
M  V30 13422 H 1244.11 3.16993 -2.30776 0
M  V30 13423 H 1245.6 3.85879 -1.59648 0
M  V30 13424 N 1246.04 1.3432 0.824371 0
M  V30 13425 C 1247.29 1.26345 1.57738 0
M  V30 13426 C 1247.61 -0.166836 1.94285 0
M  V30 13427 O 1246.88 -1.09911 1.62162 0
M  V30 13428 H 1245.46 0.46466 0.584893 0
M  V30 13429 H 1248.12 1.68214 0.984373 0
M  V30 13430 H 1247.22 1.8672 2.50084 0
M  V30 13431 N 1247.52 -1.0444 1.18026 0
M  V30 13432 C 1248.74 -1.81772 0.998684 0
M  V30 13433 C 1249.17 -1.82682 -0.448225 0
M  V30 13434 O 1248.52 -1.24136 -1.32136 0
M  V30 13435 C 1248.57 -3.2542 1.55352 0
M  V30 13436 O 1247.68 -4.05103 0.772351 0
M  V30 13437 H 1247.02 -0.561731 0.354054 0
M  V30 13438 H 1249.55 -1.31557 1.56697 0
M  V30 13439 H 1249.56 -3.76206 1.57903 0
M  V30 13440 H 1248.23 -3.24073 2.60672 0
M  V30 13441 H 1246.81 -3.63798 0.818852 0
M  V30 13442 N 1248.99 -0.981699 -1.2329 0
M  V30 13443 C 1249.9 -0.531296 -2.28505 0
M  V30 13444 C 1250.92 0.414531 -1.6899 0
M  V30 13445 O 1252.1 0.284129 -1.99386 0
M  V30 13446 C 1249.16 0.157864 -3.4634 0
M  V30 13447 C 1248.22 -0.829527 -4.21209 0
M  V30 13448 C 1247.46 -0.17316 -5.33419 0
M  V30 13449 O 1247.68 1.03549 -5.60922 0
M  V30 13450 O 1246.61 -0.872385 -5.95544 0
M  V30 13451 H 1250.44 -1.40633 -2.69177 0
M  V30 13452 H 1248.02 -0.749395 -1.29246 0
M  V30 13453 H 1249.91 0.544394 -4.17869 0
M  V30 13454 H 1248.58 1.00764 -3.07617 0
M  V30 13455 H 1247.49 -1.26678 -3.51999 0
M  V30 13456 H 1248.82 -1.64815 -4.63785 0
M  V30 13457 N 1250.47 1.3842 -0.753509 0
M  V30 13458 C 1251.44 2.28808 -0.134022 0
M  V30 13459 C 1252.44 1.47184 0.647583 0
M  V30 13460 O 1253.63 1.67631 0.473861 0
M  V30 13461 C 1250.76 3.30926 0.81858 0
M  V30 13462 H 1251.95 2.85097 -0.930586 0
M  V30 13463 H 1249.5 1.47378 -0.520514 0
M  V30 13464 H 1250.24 2.79728 1.64082 0
M  V30 13465 H 1250.02 3.91234 0.260526 0
M  V30 13466 H 1251.51 3.98515 1.24802 0
M  V30 13467 N 1251.95 0.502579 1.49372 0
M  V30 13468 C 1252.86 -0.279532 2.32929 0
M  V30 13469 C 1253.88 -0.965806 1.44735 0
M  V30 13470 O 1255.05 -0.946839 1.77755 0
M  V30 13471 C 1252.12 -1.32913 3.20211 0
M  V30 13472 C 1251.18 -0.656121 4.24256 0
M  V30 13473 C 1250.41 -1.65571 5.07368 0
M  V30 13474 O 1250.63 -2.88571 4.92019 0
M  V30 13475 O 1249.57 -1.21016 5.89609 0
M  V30 13476 H 1253.39 0.404427 3.00995 0
M  V30 13477 H 1250.98 0.263888 1.47051 0
M  V30 13478 H 1252.86 -1.93635 3.74277 0
M  V30 13479 H 1251.54 -1.99598 2.54837 0
M  V30 13480 H 1250.44 -0.00911489 3.74099 0
M  V30 13481 H 1251.78 -0.0316802 4.9219 0
M  V30 13482 N 1253.43 -1.55816 0.23648 0
M  V30 13483 C 1254.84 -1.59159 -0.118601 0
M  V30 13484 C 1255.04 -1.25352 -1.57763 0
M  V30 13485 O 1254.1 -0.995863 -2.32032 0
M  V30 13486 C 1255.41 -2.99885 0.221175 0
M  V30 13487 C 1256.96 -3.12567 0.164624 0
M  V30 13488 C 1257.44 -4.55496 0.478285 0
M  V30 13489 N 1258.93 -4.61215 0.428402 0
M  V30 13490 C 1259.66 -5.69768 0.644398 0
M  V30 13491 N 1259.16 -6.86624 0.922966 0
M  V30 13492 N 1260.95 -5.59143 0.575814 0
M  V30 13493 H 1253.1 -1.76063 1.18809 0
M  V30 13494 H 1255.37 -0.819079 0.477297 0
M  V30 13495 H 1255.07 -3.29326 1.2344 0
M  V30 13496 H 1254.95 -3.74425 -0.456723 0
M  V30 13497 H 1257.33 -2.82914 -0.839263 0
M  V30 13498 H 1257.41 -2.40325 0.876219 0
M  V30 13499 H 1257.06 -4.85868 1.47968 0
M  V30 13500 H 1256.99 -5.25984 -0.254671 0
M  V30 13501 H 1259.48 -3.77251 0.221398 0
M  V30 13502 H 1259.79 -7.6528 1.07548 0
M  V30 13503 H 1258.14 -6.88333 0.960325 0
M  V30 13504 H 1261.33 -4.66727 0.358307 0
M  V30 13505 H 1261.5 -6.43674 0.747548 0
M  V30 13506 N 1254.91 0.036755 -1.57557 0
M  V30 13507 C 1256.32 0.392264 -1.54704 0
M  V30 13508 C 1256.52 1.77076 -0.96157 0
M  V30 13509 O 1255.58 2.45766 -0.579263 0
M  V30 13510 C 1256.89 0.301168 -2.99188 0
M  V30 13511 C 1258.44 0.378813 -3.10699 0
M  V30 13512 C 1258.91 0.317249 -4.569 0
M  V30 13513 N 1260.41 0.376277 -4.61669 0
M  V30 13514 C 1261.14 0.351411 -5.72322 0
M  V30 13515 N 1260.64 0.279288 -6.92237 0
M  V30 13516 N 1262.43 0.400571 -5.60671 0
M  V30 13517 H 1254.58 -0.865455 -1.93968 0
M  V30 13518 H 1256.84 -0.328339 -0.889324 0
M  V30 13519 H 1256.55 -0.64582 -3.4572 0
M  V30 13520 H 1256.42 1.09784 -3.6087 0
M  V30 13521 H 1258.81 1.31623 -2.6412 0
M  V30 13522 H 1258.89 -0.447072 -2.51863 0
M  V30 13523 H 1258.54 -0.616469 -5.04145 0
M  V30 13524 H 1258.47 1.16114 -5.13639 0
M  V30 13525 H 1260.96 0.434843 -3.7539 0
M  V30 13526 H 1261.27 0.265202 -7.72345 0
M  V30 13527 H 1259.61 0.24545 -6.94566 0
M  V30 13528 H 1262.81 0.454854 -4.65885 0
M  V30 13529 H 1262.98 0.377724 -6.46898 0
M  V30 13530 N 1256.39 1.54543 0.308881 0
M  V30 13531 C 1257.63 1.7266 1.04266 0
M  V30 13532 C 1257.95 0.51518 1.88694 0
M  V30 13533 O 1259.15 0.577988 2.65276 0
M  V30 13534 C 1257.61 3.05448 1.9034 0
M  V30 13535 C 1257.22 4.34043 1.10953 0
M  V30 13536 C 1258.96 3.32925 2.63365 0
M  V30 13537 C 1256.87 5.57886 1.96258 0
M  V30 13538 H 1255.8 0.643485 0.392992 0
M  V30 13539 H 1258.45 1.8103 0.300077 0
M  V30 13540 H 1256.83 2.91023 2.68555 0
M  V30 13541 H 1258.01 4.59279 0.374069 0
M  V30 13542 H 1256.32 4.13442 0.495453 0
M  V30 13543 H 1258.92 4.22649 3.27524 0
M  V30 13544 H 1259.26 2.51451 3.3178 0
M  V30 13545 H 1259.79 3.48285 1.92204 0
M  V30 13546 H 1256.53 6.42005 1.32326 0
M  V30 13547 H 1256.05 5.36847 2.67498 0
M  V30 13548 H 1257.73 5.94846 2.54494 0
M  V30 13549 N 1257.86 -0.571685 1.46866 0
M  V30 13550 C 1259.09 -1.36008 1.56578 0
M  V30 13551 C 1259.51 -1.86909 0.211326 0
M  V30 13552 O 1258.87 -1.62179 -0.810421 0
M  V30 13553 C 1258.92 -2.51598 2.58323 0
M  V30 13554 O 1258.02 -3.53383 2.1259 0
M  V30 13555 H 1257.36 -0.404593 0.526498 0
M  V30 13556 H 1259.89 -0.692357 1.92529 0
M  V30 13557 H 1259.9 -2.98366 2.78283 0
M  V30 13558 H 1258.58 -2.13904 3.56676 0
M  V30 13559 H 1257.16 -3.13019 2.02666 0
M  V30 13560 N 1259.34 -1.34755 -0.817236 0
M  V30 13561 C 1260.59 -1.27432 -1.57377 0
M  V30 13562 C 1260.92 0.15419 -1.93888 0
M  V30 13563 O 1260.17 1.11686 -1.60701 0
M  V30 13564 C 1260.47 -2.11611 -2.8802 0
M  V30 13565 C 1260.14 -3.60543 -2.70776 0
M  V30 13566 C 1258.8 -4.01141 -2.6578 0
M  V30 13567 C 1261.15 -4.55089 -2.54053 0
M  V30 13568 C 1258.48 -5.34469 -2.41991 0
M  V30 13569 C 1260.83 -5.88603 -2.31795 0
M  V30 13570 C 1259.49 -6.28358 -2.25215 0
M  V30 13571 H 1258.76 -0.466305 -0.575882 0
M  V30 13572 H 1261.41 -1.66552 -0.945128 0
M  V30 13573 H 1259.72 -1.65336 -3.55206 0
M  V30 13574 H 1261.41 -2.03287 -3.45652 0
M  V30 13575 H 1258 -3.2832 -2.75506 0
M  V30 13576 H 1262.19 -4.24617 -2.56932 0
M  V30 13577 H 1257.44 -5.64284 -2.35359 0
M  V30 13578 H 1261.62 -6.61451 -2.17844 0
M  V30 13579 H 1259.24 -7.31604 -2.06543 0
M  V30 13580 N 1260.82 1.03812 -1.18578 0
M  V30 13581 C 1262.07 1.77056 -0.982718 0
M  V30 13582 C 1262.39 1.88294 0.487421 0
M  V30 13583 O 1261.65 1.38946 1.37813 0
M  V30 13584 C 1261.95 3.20297 -1.5857 0
M  V30 13585 C 1261.61 3.29088 -3.0824 0
M  V30 13586 C 1260.28 3.31194 -3.4909 0
M  V30 13587 C 1262.63 3.28981 -4.04253 0
M  V30 13588 C 1259.96 3.30839 -4.84523 0
M  V30 13589 C 1262.31 3.30166 -5.39605 0
M  V30 13590 C 1260.97 3.30565 -5.79899 0
M  V30 13591 H 1260.24 0.647895 -0.359602 0
M  V30 13592 H 1262.89 1.21911 -1.47682 0
M  V30 13593 H 1261.19 3.7846 -1.01367 0
M  V30 13594 H 1262.89 3.75619 -1.40398 0
M  V30 13595 H 1259.48 3.28171 -2.75685 0
M  V30 13596 H 1263.67 3.26543 -3.73743 0
M  V30 13597 H 1258.92 3.29467 -5.15035 0
M  V30 13598 H 1263.1 3.29033 -6.13767 0
M  V30 13599 H 1260.72 3.30044 -6.84818 0
M  V30 13600 N 1262.3 0.988223 1.22768 0
M  V30 13601 C 1263.26 0.539813 2.22752 0
M  V30 13602 C 1264.26 -0.374796 1.56371 0
M  V30 13603 O 1265.45 -0.167402 1.73394 0
M  V30 13604 C 1262.58 -0.215461 3.40218 0
M  V30 13605 H 1263.78 1.42397 2.63938 0
M  V30 13606 H 1261.33 0.774933 1.35737 0
M  V30 13607 H 1262.06 -1.11581 3.045 0
M  V30 13608 H 1261.85 0.441173 3.8961 0
M  V30 13609 H 1263.34 -0.517517 4.14381 0
M  V30 13610 N 1263.78 -1.38018 0.760839 0
M  V30 13611 C 1264.71 -2.2899 0.0980916 0
M  V30 13612 C 1265.72 -1.48102 -0.675985 0
M  V30 13613 O 1266.91 -1.70883 -0.515878 0
M  V30 13614 C 1264.01 -3.27142 -0.884959 0
M  V30 13615 C 1263.18 -4.37081 -0.167 0
M  V30 13616 C 1262.24 -5.15375 -1.06184 0
M  V30 13617 O 1261.27 -5.6673 -0.529667 0
M  V30 13618 N 1262.47 -5.29052 -2.38924 0
M  V30 13619 H 1265.23 -2.86508 0.879403 0
M  V30 13620 H 1262.8 -1.49877 0.612245 0
M  V30 13621 H 1264.79 -3.764 -1.48678 0
M  V30 13622 H 1263.36 -2.70471 -1.5673 0
M  V30 13623 H 1262.58 -3.89363 0.615617 0
M  V30 13624 H 1263.87 -5.07732 0.329525 0
M  V30 13625 H 1263.26 -4.88892 -2.84607 0
M  V30 13626 H 1261.82 -5.81658 -2.94139 0
M  V30 13627 N 1265.25 -0.510493 -1.49103 0
M  V30 13628 C 1266.48 0.0293113 -2.07379 0
M  V30 13629 C 1266.9 1.29195 -1.36713 0
M  V30 13630 O 1266.26 1.76204 -0.426838 0
M  V30 13631 C 1266.31 0.25629 -3.59688 0
M  V30 13632 O 1265.41 1.32907 -3.90397 0
M  V30 13633 H 1264.75 -0.0304449 -0.663302 0
M  V30 13634 H 1267.28 -0.712832 -1.91781 0
M  V30 13635 H 1267.29 0.484915 -4.05108 0
M  V30 13636 H 1265.97 -0.666163 -4.1053 0
M  V30 13637 H 1264.55 1.08464 -3.56777 0
M  V30 13638 N 1266.73 1.55688 -0.24474 0
M  V30 13639 C 1267.98 1.99186 0.381167 0
M  V30 13640 C 1268.31 1.13266 1.57748 0
M  V30 13641 O 1267.59 0.195568 1.93514 0
M  V30 13642 C 1267.87 3.51257 0.793142 0
M  V30 13643 C 1267.72 4.47942 -0.408409 0
M  V30 13644 C 1269.04 4.08365 1.64091 0
M  V30 13645 H 1266.16 0.724141 0.137073 0
M  V30 13646 H 1268.8 1.8683 -0.345619 0
M  V30 13647 H 1266.95 3.61917 1.4124 0
M  V30 13648 H 1268.62 4.49265 -1.04682 0
M  V30 13649 H 1266.87 4.20854 -1.05189 0
M  V30 13650 H 1267.54 5.51946 -0.0768531 0
M  V30 13651 H 1270.01 4.00794 1.1182 0
M  V30 13652 H 1268.89 5.1504 1.89802 0
M  V30 13653 H 1269.15 3.56687 2.61202 0
M  V30 13654 N 1268.21 -0.0283989 1.57574 0
M  V30 13655 C 1269.17 -1.01346 2.05576 0
M  V30 13656 C 1270.17 -1.28999 0.960001 0
M  V30 13657 O 1271.36 -1.23991 1.2236 0
M  V30 13658 C 1268.49 -2.34611 2.47327 0
M  V30 13659 H 1269.69 -0.598809 2.93861 0
M  V30 13660 H 1267.24 -0.27524 1.53857 0
M  V30 13661 H 1267.98 -2.80823 1.622 0
M  V30 13662 H 1267.76 -2.1587 3.27326 0
M  V30 13663 H 1269.25 -3.05332 2.84889 0
M  V30 13664 N 1269.69 -1.54705 -0.300681 0
M  V30 13665 C 1270.92 -1.77993 -1.0548 0
M  V30 13666 C 1271.33 -0.539574 -1.80926 0
M  V30 13667 O 1270.69 0.490597 -1.75782 0
M  V30 13668 C 1270.74 -2.98774 -2.0351 0
M  V30 13669 O 1270.46 -4.18016 -1.31126 0
M  V30 13670 C 1271.96 -3.34452 -2.90958 0
M  V30 13671 H 1269.18 -0.593628 -0.312805 0
M  V30 13672 H 1271.72 -2.01656 -0.339858 0
M  V30 13673 H 1269.88 -2.77318 -2.70506 0
M  V30 13674 H 1270.29 -4.86113 -1.96963 0
M  V30 13675 H 1271.77 -4.22206 -3.55593 0
M  V30 13676 H 1272.24 -2.52622 -3.59275 0
M  V30 13677 H 1272.85 -3.58069 -2.29493 0
M  V30 13678 N 1271.17 0.563888 -1.47167 0
M  V30 13679 C 1272.58 1.14603 -1.47388 0
M  V30 13680 C 1272.93 1.94907 -0.224916 0
M  V30 13681 O 1272.05 2.05745 0.670672 0
M  V30 13682 C 1272.65 2.08501 -2.67044 0
M  V30 13683 C 1271.21 2.62 -2.70246 0
M  V30 13684 C 1270.35 1.38244 -2.40383 0
M  V30 13685 H 1273.31 0.350833 -1.54774 0
M  V30 13686 H 1273.33 2.92272 -2.43634 0
M  V30 13687 H 1272.84 1.50027 -3.57929 0
M  V30 13688 H 1270.94 3.24292 -1.83482 0
M  V30 13689 H 1271.05 3.0345 -3.70749 0
M  V30 13690 H 1269.42 1.68692 -1.90827 0
M  V30 13691 H 1270.2 0.815726 -3.33468 0
M  V30 13692 N 1272.64 1.35187 0.810078 0
M  V30 13693 C 1273.58 1.22171 1.92742 0
M  V30 13694 C 1274.56 0.110393 1.62225 0
M  V30 13695 O 1275.74 0.27786 1.86441 0
M  V30 13696 C 1272.87 0.880367 3.27058 0
M  V30 13697 C 1271.91 2.00325 3.76527 0
M  V30 13698 S 1272.75 3.6185 3.94747 0
M  V30 13699 C 1273.9 3.29784 5.31971 0
M  V30 13700 H 1274.13 2.16749 2.03488 0
M  V30 13701 H 1271.67 1.20362 0.967072 0
M  V30 13702 H 1273.63 0.690224 4.04656 0
M  V30 13703 H 1272.29 -0.0472868 3.14064 0
M  V30 13704 H 1271.48 1.71847 4.73798 0
M  V30 13705 H 1271.08 2.15154 3.05916 0
M  V30 13706 H 1273.37 2.82396 6.1584 0
M  V30 13707 H 1274.32 4.26243 5.6544 0
M  V30 13708 H 1274.72 2.65641 4.98092 0
M  V30 13709 N 1274.12 -1.03182 1.19127 0
M  V30 13710 C 1275.53 -1.57984 0.994888 0
M  V30 13711 C 1275.88 -1.90898 -0.453019 0
M  V30 13712 O 1275.01 -1.70556 -1.33191 0
M  V30 13713 C 1275.6 -2.8705 1.79966 0
M  V30 13714 C 1274.16 -3.38435 1.64737 0
M  V30 13715 C 1273.31 -2.11912 1.78854 0
M  V30 13716 H 1276.26 -0.857458 1.33542 0
M  V30 13717 H 1276.28 -3.57821 1.294 0
M  V30 13718 H 1275.79 -2.63062 2.85341 0
M  V30 13719 H 1273.9 -3.67416 0.619358 0
M  V30 13720 H 1274.01 -4.11665 2.45089 0
M  V30 13721 H 1272.37 -2.23642 1.21886 0
M  V30 13722 H 1273.16 -1.90369 2.85682 0
M  V30 13723 N 1275.6 -0.99472 -1.22242 0
M  V30 13724 C 1276.51 -0.555502 -2.27928 0
M  V30 13725 C 1277.53 0.396584 -1.6942 0
M  V30 13726 O 1278.7 0.262965 -1.99676 0
M  V30 13727 C 1275.77 0.121121 -3.46488 0
M  V30 13728 C 1274.83 -0.874155 -4.20306 0
M  V30 13729 C 1274.06 -0.229726 -5.33205 0
M  V30 13730 O 1274.28 0.975935 -5.61989 0
M  V30 13731 O 1273.22 -0.935501 -5.94586 0
M  V30 13732 H 1277.04 -1.4348 -2.6767 0
M  V30 13733 H 1274.63 -0.763061 -1.28444 0
M  V30 13734 H 1276.51 0.500043 -4.18423 0
M  V30 13735 H 1275.19 0.974959 -3.08668 0
M  V30 13736 H 1274.09 -1.30404 -3.50636 0
M  V30 13737 H 1275.43 -1.69725 -4.62011 0
M  V30 13738 N 1277.08 1.37613 -0.768148 0
M  V30 13739 C 1278.49 1.82437 -0.396703 0
M  V30 13740 C 1278.84 1.64019 1.07668 0
M  V30 13741 O 1277.97 1.14932 1.83356 0
M  V30 13742 C 1278.56 3.31207 -0.713265 0
M  V30 13743 C 1277.12 3.74323 -0.39492 0
M  V30 13744 C 1276.27 2.60191 -0.958962 0
M  V30 13745 H 1279.22 1.26135 -0.963099 0
M  V30 13746 H 1279.24 3.805 0.00337228 0
M  V30 13747 H 1278.75 3.4458 -1.78567 0
M  V30 13748 H 1276.85 3.66521 0.670313 0
M  V30 13749 H 1276.96 4.70558 -0.900653 0
M  V30 13750 H 1275.33 2.51797 -0.383423 0
M  V30 13751 H 1276.11 2.76358 -2.03669 0
M  V30 13752 N 1278.56 0.518393 1.4883 0
M  V30 13753 C 1279.49 -0.239685 2.32267 0
M  V30 13754 C 1280.47 -0.94613 1.41359 0
M  V30 13755 O 1281.65 -0.934162 1.70256 0
M  V30 13756 C 1278.78 -1.29411 3.22289 0
M  V30 13757 C 1277.74 -0.706504 4.22129 0
M  V30 13758 C 1277.06 -1.86273 5.01205 0
M  V30 13759 C 1278.36 0.314079 5.21355 0
M  V30 13760 H 1280.06 0.4568 2.95895 0
M  V30 13761 H 1277.6 0.221126 1.42292 0
M  V30 13762 H 1279.56 -1.8323 3.7948 0
M  V30 13763 H 1278.28 -2.02001 2.56638 0
M  V30 13764 H 1276.94 -0.189924 3.66108 0
M  V30 13765 H 1276.59 -2.57674 4.31988 0
M  V30 13766 H 1276.29 -1.47554 5.68772 0
M  V30 13767 H 1277.81 -2.40492 5.61245 0
M  V30 13768 H 1279.22 -0.136604 5.73137 0
M  V30 13769 H 1277.62 0.618026 5.96909 0
M  V30 13770 H 1278.69 1.22394 4.69199 0
M  V30 13771 N 1280.03 -1.55556 0.252993 0
M  V30 13772 C 1281.45 -1.85032 -0.249011 0
M  V30 13773 C 1281.8 -1.17488 -1.57134 0
M  V30 13774 O 1280.92 -0.455387 -2.11554 0
M  V30 13775 C 1281.52 -3.35682 -0.458589 0
M  V30 13776 C 1280.08 -3.65362 -0.90485 0
M  V30 13777 C 1279.22 -2.77296 0.0144927 0
M  V30 13778 H 1282.17 -1.51412 0.475394 0
M  V30 13779 H 1282.19 -3.57591 -1.30034 0
M  V30 13780 H 1281.71 -3.84814 0.503981 0
M  V30 13781 H 1279.81 -3.21713 -1.87967 0
M  V30 13782 H 1279.92 -4.73074 -0.757492 0
M  V30 13783 H 1278.28 -2.49785 -0.497954 0
M  V30 13784 H 1279.07 -3.29236 0.972546 0
M  V30 13785 N 1281.51 0.0200419 -1.57587 0
M  V30 13786 C 1282.76 0.710078 -1.89962 0
M  V30 13787 C 1283.09 1.74521 -0.851829 0
M  V30 13788 O 1282.37 1.94052 0.132005 0
M  V30 13789 C 1282.65 1.37145 -3.32961 0
M  V30 13790 C 1282.5 0.349221 -4.48442 0
M  V30 13791 C 1283.82 2.30304 -3.75031 0
M  V30 13792 H 1280.94 0.25667 -0.690862 0
M  V30 13793 H 1283.58 -0.0271362 -1.89981 0
M  V30 13794 H 1281.73 1.99981 -3.33076 0
M  V30 13795 H 1283.4 -0.277916 -4.60462 0
M  V30 13796 H 1281.65 -0.330594 -4.32538 0
M  V30 13797 H 1282.32 0.850636 -5.45406 0
M  V30 13798 H 1284.79 1.77503 -3.7634 0
M  V30 13799 H 1283.67 2.73555 -4.75877 0
M  V30 13800 H 1283.93 3.17364 -3.07786 0
M  V30 13801 N 1282.99 1.54862 0.292472 0
M  V30 13802 C 1284.27 1.65237 1.04671 0
M  V30 13803 C 1284.65 0.506168 2.04942 0
M  V30 13804 O 1284 -0.496123 2.23049 0
M  V30 13805 C 1284.21 3.03618 1.72095 0
M  V30 13806 C 1285.55 3.6072 2.23979 0
M  V30 13807 O 1286.58 3.06126 1.82114 0
M  V30 13808 O 1285.44 4.56328 3.0071 0
M  V30 13809 H 1282.53 0.670347 0.484319 0
M  V30 13810 H 1285.08 1.67206 0.28988 0
M  V30 13811 H 1283.85 3.78482 0.993324 0
M  V30 13812 H 1283.47 3.05464 2.54514 0
M  V30 13813 N 1284.47 -0.556076 1.47464 0
M  V30 13814 C 1285.42 -1.68406 1.60444 0
M  V30 13815 C 1286.41 -1.627 0.471713 0
M  V30 13816 O 1287.62 -1.67871 0.649551 0
M  V30 13817 H 1283.99 -0.557255 0.504946 0
M  V30 13818 H 1285.96 -1.54595 2.55231 0
M  V30 13819 C 1284.71 -3.06756 1.63695 0
M  V30 13820 H 1284.03 -3.11829 2.50206 0
M  V30 13821 H 1285.47 -3.85368 1.76827 0
M  V30 13822 C 1283.93 -3.34857 0.370485 0
M  V30 13823 O 1284.46 -3.98216 -0.527942 0
M  V30 13824 N 1282.67 -2.89521 0.250163 0
M  V30 13825 H 1282.22 -2.3814 0.982204 0
M  V30 13826 H 1282.17 -3.08694 -0.596268 0
M  V30 13827 N 1285.95 -1.35615 -0.802897 0
M  V30 13828 C 1286.88 -1.23192 -1.92091 0
M  V30 13829 C 1287.86 -0.118995 -1.62164 0
M  V30 13830 O 1289.04 -0.287743 -1.86291 0
M  V30 13831 C 1286.17 -0.897699 -3.26587 0
M  V30 13832 C 1285.22 -2.02319 -3.75459 0
M  V30 13833 S 1286.05 -3.63938 -3.92822 0
M  V30 13834 C 1287.2 -3.32601 -5.30215 0
M  V30 13835 H 1287.44 -2.17825 -2.02335 0
M  V30 13836 H 1284.97 -1.20873 -0.960675 0
M  V30 13837 H 1286.93 -0.711674 -4.04284 0
M  V30 13838 H 1285.59 0.0306305 -3.14085 0
M  V30 13839 H 1284.78 -1.74357 -4.7288 0
M  V30 13840 H 1284.38 -2.16774 -3.04771 0
M  V30 13841 H 1286.68 -2.85658 -6.14334 0
M  V30 13842 H 1287.62 -4.29236 -5.63172 0
M  V30 13843 H 1288.03 -2.68279 -4.96676 0
M  V30 13844 N 1287.43 1.02549 -1.19673 0
M  V30 13845 C 1288.84 1.57454 -1.00325 0
M  V30 13846 C 1289.19 1.91136 0.442889 0
M  V30 13847 O 1288.31 1.7126 1.32284 0
M  V30 13848 C 1288.91 2.86091 -1.81486 0
M  V30 13849 C 1287.47 3.37557 -1.6653 0
M  V30 13850 C 1286.61 2.1096 -1.79975 0
M  V30 13851 H 1289.56 0.850364 -1.33994 0
M  V30 13852 H 1289.59 3.5713 -1.31296 0
M  V30 13853 H 1289.1 2.61546 -2.86733 0
M  V30 13854 H 1287.2 3.67083 -0.638834 0
M  V30 13855 H 1287.31 4.1036 -2.47269 0
M  V30 13856 H 1285.68 2.22993 -1.23071 0
M  V30 13857 H 1286.46 1.88852 -2.86688 0
M  V30 13858 N 1288.9 1.00119 1.21713 0
M  V30 13859 C 1290.13 0.700431 1.94683 0
M  V30 13860 C 1290.55 -0.736333 1.73849 0
M  V30 13861 O 1289.9 -1.49778 1.04272 0
M  V30 13862 C 1289.95 1.00722 3.47185 0
M  V30 13863 O 1289.68 2.38754 3.67326 0
M  V30 13864 C 1291.18 0.725335 4.37326 0
M  V30 13865 H 1288.4 0.25843 0.619238 0
M  V30 13866 H 1290.94 1.3382 1.54636 0
M  V30 13867 H 1289.1 0.415117 3.85169 0
M  V30 13868 H 1289.51 2.49321 4.61454 0
M  V30 13869 H 1290.98 0.990202 5.43046 0
M  V30 13870 H 1291.46 -0.340649 4.37877 0
M  V30 13871 H 1292.07 1.29888 4.04981 0
M  V30 13872 N 1290.38 -1.37203 0.775435 0
M  V30 13873 C 1291.63 -1.99601 0.341431 0
M  V30 13874 C 1291.96 -1.61555 -1.08306 0
M  V30 13875 O 1291.21 -0.855126 -1.76029 0
M  V30 13876 C 1291.51 -3.54725 0.436426 0
M  V30 13877 C 1291.18 -4.1255 1.8197 0
M  V30 13878 C 1289.84 -4.28056 2.19822 0
M  V30 13879 C 1292.19 -4.44222 2.7261 0
M  V30 13880 C 1289.52 -4.72538 3.47742 0
M  V30 13881 C 1291.87 -4.90131 3.99943 0
M  V30 13882 C 1290.53 -5.03842 4.37835 0
M  V30 13883 H 1289.8 -0.730391 0.124938 0
M  V30 13884 H 1292.45 -1.63914 0.990177 0
M  V30 13885 H 1290.76 -3.90681 -0.295852 0
M  V30 13886 H 1292.45 -4.00916 0.0818664 0
M  V30 13887 H 1289.04 -4.00911 1.51553 0
M  V30 13888 H 1293.23 -4.31824 2.44625 0
M  V30 13889 H 1288.48 -4.81341 3.76989 0
M  V30 13890 H 1292.66 -5.13604 4.70302 0
M  V30 13891 H 1290.28 -5.3807 5.37015 0
M  V30 13892 N 1291.86 -0.526279 -1.48553 0
M  V30 13893 C 1293.09 0.0052277 -2.06899 0
M  V30 13894 C 1293.5 1.2849 -1.38332 0
M  V30 13895 O 1292.86 1.76354 -0.469648 0
M  V30 13896 C 1292.91 0.236709 -3.60724 0
M  V30 13897 O 1292.63 -0.992256 -4.26715 0
M  V30 13898 C 1294.13 0.809014 -4.35855 0
M  V30 13899 H 1291.35 -0.0318426 -0.670244 0
M  V30 13900 H 1293.9 -0.730865 -1.90994 0
M  V30 13901 H 1292.05 0.922842 -3.76248 0
M  V30 13902 H 1292.47 -0.770697 -5.18807 0
M  V30 13903 H 1293.94 0.920428 -5.44272 0
M  V30 13904 H 1294.42 1.81302 -4.00033 0
M  V30 13905 H 1295.02 0.159564 -4.25001 0
M  V30 13906 N 1293.34 1.5542 -0.261239 0
M  V30 13907 C 1294.58 1.99579 0.36002 0
M  V30 13908 C 1294.92 1.14933 1.56538 0
M  V30 13909 O 1294.19 0.216082 1.93296 0
M  V30 13910 C 1294.47 3.52078 0.755842 0
M  V30 13911 C 1294.33 4.47484 -0.455896 0
M  V30 13912 C 1295.65 4.10083 1.5975 0
M  V30 13913 H 1292.77 0.725554 0.129385 0
M  V30 13914 H 1295.41 1.86453 -0.365415 0
M  V30 13915 H 1293.56 3.63394 1.37393 0
M  V30 13916 H 1295.23 4.4813 -1.09441 0
M  V30 13917 H 1293.47 4.19714 -1.09646 0
M  V30 13918 H 1294.14 5.51834 -0.13539 0
M  V30 13919 H 1296.62 4.01957 1.07562 0
M  V30 13920 H 1295.5 5.17024 1.84329 0
M  V30 13921 H 1295.76 3.59438 2.57404 0
M  V30 13922 N 1294.82 -0.0116844 1.57596 0
M  V30 13923 C 1295.75 -1.00599 2.10718 0
M  V30 13924 C 1296.73 -1.36601 1.01362 0
M  V30 13925 O 1297.91 -1.4518 1.28982 0
M  V30 13926 C 1295.04 -2.30155 2.60089 0
M  V30 13927 C 1294 -2.08347 3.73866 0
M  V30 13928 C 1293.32 -3.43814 4.09507 0
M  V30 13929 C 1294.62 -1.45552 5.01609 0
M  V30 13930 H 1296.32 -0.563721 2.94045 0
M  V30 13931 H 1293.86 -0.269714 1.41452 0
M  V30 13932 H 1295.81 -3.00058 2.95877 0
M  V30 13933 H 1294.54 -2.76473 1.73868 0
M  V30 13934 H 1293.2 -1.40872 3.38453 0
M  V30 13935 H 1292.85 -3.87814 3.20326 0
M  V30 13936 H 1292.55 -3.30043 4.86154 0
M  V30 13937 H 1294.07 -4.15052 4.47844 0
M  V30 13938 H 1295.48 -2.05396 5.35243 0
M  V30 13939 H 1293.88 -1.42304 5.82983 0
M  V30 13940 H 1294.95 -0.423331 4.83049 0
M  V30 13941 N 1296.29 -1.55015 -0.284256 0
M  V30 13942 C 1297.54 -1.74297 -1.01506 0
M  V30 13943 C 1297.86 -0.545134 -1.8785 0
M  V30 13944 O 1299.06 -0.620118 -2.64323 0
M  V30 13945 C 1297.52 -3.08438 -1.85456 0
M  V30 13946 C 1297.13 -4.35753 -1.04034 0
M  V30 13947 C 1298.87 -3.37073 -2.58035 0
M  V30 13948 C 1296.78 -5.60938 -1.87358 0
M  V30 13949 H 1295.71 -0.649656 -0.382705 0
M  V30 13950 H 1298.36 -1.81484 -0.271239 0
M  V30 13951 H 1296.74 -2.95259 -2.63891 0
M  V30 13952 H 1297.91 -4.59816 -0.300954 0
M  V30 13953 H 1296.23 -4.14178 -0.429616 0
M  V30 13954 H 1298.83 -4.27806 -3.20759 0
M  V30 13955 H 1299.17 -2.56698 -3.27738 0
M  V30 13956 H 1299.7 -3.51299 -1.86638 0
M  V30 13957 H 1296.44 -6.44029 -1.22096 0
M  V30 13958 H 1295.96 -5.41035 -2.58923 0
M  V30 13959 H 1297.64 -5.98819 -2.44999 0
M  V30 13960 N 1297.77 0.548248 -1.47757 0
M  V30 13961 C 1299.18 1.13033 -1.48595 0
M  V30 13962 C 1299.53 1.94657 -0.245575 0
M  V30 13963 O 1298.66 2.06445 0.648813 0
M  V30 13964 C 1299.25 2.05657 -2.69241 0
M  V30 13965 C 1297.81 2.59119 -2.73009 0
M  V30 13966 C 1296.96 1.35686 -2.41836 0
M  V30 13967 H 1299.91 0.334397 -1.55137 0
M  V30 13968 H 1299.93 2.89671 -2.4672 0
M  V30 13969 H 1299.44 1.46222 -3.595 0
M  V30 13970 H 1297.54 3.22327 -1.86912 0
M  V30 13971 H 1297.66 2.99501 -3.73946 0
M  V30 13972 H 1296.02 1.66659 -1.92606 0
M  V30 13973 H 1296.8 0.780311 -3.34314 0
M  V30 13974 N 1299.25 1.36039 0.795694 0
M  V30 13975 C 1300.2 1.26386 1.89765 0
M  V30 13976 C 1301.18 0.156711 1.60135 0
M  V30 13977 O 1302.38 0.388946 1.72674 0
M  V30 13978 C 1299.5 1.04907 3.26878 0
M  V30 13979 C 1298.59 2.20061 3.62538 0
M  V30 13980 N 1298.98 3.45347 3.69553 0
M  V30 13981 C 1297.28 2.11688 3.92561 0
M  V30 13982 C 1297.98 4.21138 4.0127 0
M  V30 13983 N 1296.96 3.5001 4.15925 0
M  V30 13984 H 1300.76 2.21295 1.93405 0
M  V30 13985 H 1298.27 1.28668 0.990877 0
M  V30 13986 H 1300.27 0.960791 4.05678 0
M  V30 13987 H 1298.93 0.108921 3.24517 0
M  V30 13988 H 1299.94 3.79561 3.52355 0
M  V30 13989 H 1296.62 1.25592 3.98162 0
M  V30 13990 H 1298.01 5.29456 4.13673 0
M  V30 13991 N 1300.73 -1.01913 1.20215 0
M  V30 13992 C 1301.96 -1.78817 1.0348 0
M  V30 13993 C 1302.37 -1.84499 -0.419152 0
M  V30 13994 O 1301.71 -1.29506 -1.30284 0
M  V30 13995 C 1301.77 -3.24858 1.53973 0
M  V30 13996 C 1301.44 -3.42788 3.02234 0
M  V30 13997 C 1302.43 -3.32213 3.99914 0
M  V30 13998 C 1300.12 -3.68687 3.41138 0
M  V30 13999 C 1302.11 -3.47276 5.34489 0
M  V30 14000 C 1299.8 -3.83394 4.7587 0
M  V30 14001 C 1300.8 -3.72693 5.72354 0
M  V30 14002 O 1300.48 -3.86953 7.04643 0
M  V30 14003 H 1300.22 -0.569268 0.364568 0
M  V30 14004 H 1302.77 -1.29184 1.59689 0
M  V30 14005 H 1301 -3.7556 0.921478 0
M  V30 14006 H 1302.69 -3.83388 1.33297 0
M  V30 14007 H 1303.46 -3.12145 3.71202 0
M  V30 14008 H 1299.33 -3.76104 2.66583 0
M  V30 14009 H 1302.88 -3.3884 6.09782 0
M  V30 14010 H 1298.78 -4.02962 5.04273 0
M  V30 14011 H 1299.54 -4.03986 7.11855 0
M  V30 14012 N 1302.21 -1.00763 -1.2118 0
M  V30 14013 C 1303.45 -0.690459 -1.8994 0
M  V30 14014 C 1303.78 0.781464 -1.78656 0
M  V30 14015 O 1303.05 1.56135 -1.18316 0
M  V30 14016 H 1301.63 -0.252397 -0.703068 0
M  V30 14017 H 1304.29 -1.2773 -1.47211 0
M  V30 14018 H 1303.38 -0.96594 -2.96776 0
M  V30 14019 N 1303.68 1.3679 -0.7827 0
M  V30 14020 C 1304.59 2.33928 -0.17747 0
M  V30 14021 C 1305.61 1.60716 0.666802 0
M  V30 14022 O 1306.79 1.92742 0.584162 0
M  V30 14023 C 1303.85 3.39907 0.68294 0
M  V30 14024 C 1302.91 4.28926 -0.179053 0
M  V30 14025 C 1302.15 5.29844 0.640386 0
M  V30 14026 O 1302.37 5.38639 1.87681 0
M  V30 14027 O 1301.3 6.01884 0.0438164 0
M  V30 14028 H 1305.13 2.87439 -0.980441 0
M  V30 14029 H 1302.71 1.39142 -0.54404 0
M  V30 14030 H 1304.6 4.04722 1.17379 0
M  V30 14031 H 1303.27 2.88706 1.46391 0
M  V30 14032 H 1302.18 3.67174 -0.716512 0
M  V30 14033 H 1303.51 4.83461 -0.923377 0
M  V30 14034 N 1305.16 0.53415 1.48272 0
M  V30 14035 C 1306.11 -0.226335 2.29688 0
M  V30 14036 C 1307.08 -0.929937 1.37628 0
M  V30 14037 O 1308.26 -0.930149 1.66592 0
M  V30 14038 C 1305.4 -1.26472 3.2109 0
M  V30 14039 C 1304.52 -0.569542 4.28229 0
M  V30 14040 C 1303.65 -1.59122 5.06807 0
M  V30 14041 C 1302.69 -0.879734 6.05745 0
M  V30 14042 N 1301.83 -1.84715 6.77366 0
M  V30 14043 H 1306.67 0.474111 2.94204 0
M  V30 14044 H 1304.21 0.245643 1.45034 0
M  V30 14045 H 1306.16 -1.87911 3.72485 0
M  V30 14046 H 1304.79 -1.9335 2.58487 0
M  V30 14047 H 1303.85 0.158872 3.80068 0
M  V30 14048 H 1305.16 -0.0110904 4.98799 0
M  V30 14049 H 1304.31 -2.27977 5.62238 0
M  V30 14050 H 1303.05 -2.18357 4.36086 0
M  V30 14051 H 1302.06 -0.177134 5.49515 0
M  V30 14052 H 1303.28 -0.293439 6.78466 0
M  V30 14053 H 1301.23 -2.42851 6.09393 0
M  V30 14054 H 1301.14 -1.34025 7.44025 0
M  V30 14055 H 1302.41 -2.52756 7.37384 0
M  V30 14056 N 1306.64 -1.55279 0.269478 0
M  V30 14057 C 1307.89 -1.98649 -0.349522 0
M  V30 14058 C 1308.2 -1.16125 -1.57399 0
M  V30 14059 O 1309.41 -1.49612 -2.26558 0
M  V30 14060 C 1307.86 -3.53547 -0.673224 0
M  V30 14061 C 1307.47 -4.44841 0.531119 0
M  V30 14062 C 1309.22 -4.05519 -1.25516 0
M  V30 14063 C 1307.12 -5.91119 0.182317 0
M  V30 14064 H 1306.05 -0.74193 -0.13437 0
M  V30 14065 H 1308.7 -1.79664 0.373246 0
M  V30 14066 H 1307.09 -3.68311 -1.45474 0
M  V30 14067 H 1308.26 -4.41843 1.3081 0
M  V30 14068 H 1306.58 -4.03472 1.02952 0
M  V30 14069 H 1309.17 -5.12347 -1.52984 0
M  V30 14070 H 1309.52 -3.54215 -2.18718 0
M  V30 14071 H 1310.05 -3.94172 -0.536059 0
M  V30 14072 H 1306.79 -6.46507 1.08206 0
M  V30 14073 H 1306.31 -5.97199 -0.558008 0
M  V30 14074 H 1307.99 -6.466 -0.227484 0
M  V30 14075 N 1308.12 0.00332656 -1.576 0
M  V30 14076 C 1309.05 0.994803 -2.11248 0
M  V30 14077 C 1310.03 1.36061 -1.02085 0
M  V30 14078 O 1311.21 1.44494 -1.2975 0
M  V30 14079 C 1308.34 2.28772 -2.61306 0
M  V30 14080 C 1307.3 2.06362 -3.74965 0
M  V30 14081 C 1306.62 3.41638 -4.11324 0
M  V30 14082 C 1307.92 1.4289 -5.02374 0
M  V30 14083 H 1309.62 0.548119 -2.9434 0
M  V30 14084 H 1307.16 0.262208 -1.41593 0
M  V30 14085 H 1309.12 2.98485 -2.97464 0
M  V30 14086 H 1307.84 2.75547 -1.75332 0
M  V30 14087 H 1306.5 1.39076 -3.39195 0
M  V30 14088 H 1306.15 3.8611 -3.22379 0
M  V30 14089 H 1305.85 3.2746 -4.87897 0
M  V30 14090 H 1307.37 4.12671 -4.50039 0
M  V30 14091 H 1308.79 2.02555 -5.36325 0
M  V30 14092 H 1307.18 1.3921 -5.8373 0
M  V30 14093 H 1308.25 0.397708 -4.83266 0
M  V30 14094 N 1309.6 1.55164 0.276031 0
M  V30 14095 C 1310.53 1.90844 1.34539 0
M  V30 14096 C 1311.51 0.769968 1.51676 0
M  V30 14097 O 1312.69 1.02785 1.64769 0
M  V30 14098 C 1309.82 2.17769 2.70543 0
M  V30 14099 C 1308.78 3.33592 2.68142 0
M  V30 14100 C 1308.1 3.45991 4.07669 0
M  V30 14101 C 1309.4 4.70064 2.27678 0
M  V30 14102 H 1311.1 2.80412 1.04926 0
M  V30 14103 H 1308.64 1.34918 0.503303 0
M  V30 14104 H 1310.6 2.41317 3.45462 0
M  V30 14105 H 1309.32 1.24997 3.01734 0
M  V30 14106 H 1307.98 3.10007 1.95681 0
M  V30 14107 H 1307.63 2.50691 4.36077 0
M  V30 14108 H 1307.33 4.23862 4.06958 0
M  V30 14109 H 1308.85 3.71828 4.84331 0
M  V30 14110 H 1310.26 4.93176 2.92319 0
M  V30 14111 H 1308.66 5.50829 2.38134 0
M  V30 14112 H 1309.73 4.69091 1.22808 0
M  V30 14113 N 1311.07 -0.540404 1.48045 0
M  V30 14114 C 1312.3 -1.32656 1.59427 0
M  V30 14115 C 1312.72 -1.86419 0.250924 0
M  V30 14116 O 1312.08 -1.63861 -0.775838 0
M  V30 14117 C 1312.13 -2.46062 2.63602 0
M  V30 14118 O 1311.23 -3.48794 2.20038 0
M  V30 14119 H 1310.58 -0.393334 0.534962 0
M  V30 14120 H 1313.11 -0.651363 1.93955 0
M  V30 14121 H 1313.12 -2.92396 2.84549 0
M  V30 14122 H 1311.79 -2.06291 3.61133 0
M  V30 14123 H 1310.37 -3.0865 2.0926 0
M  V30 14124 N 1312.55 -1.36459 -0.788468 0
M  V30 14125 C 1313.48 -1.33545 -1.91541 0
M  V30 14126 C 1314.46 -0.206762 -1.68839 0
M  V30 14127 O 1315.65 -0.404553 -1.89939 0
M  V30 14128 C 1312.78 -1.12492 -3.28577 0
M  V30 14129 C 1311.73 -2.22196 -3.65805 0
M  V30 14130 C 1311.06 -1.86285 -5.01201 0
M  V30 14131 C 1312.36 -3.64286 -3.7429 0
M  V30 14132 H 1314.05 -2.27844 -1.94236 0
M  V30 14133 H 1311.6 -1.09677 -0.933105 0
M  V30 14134 H 1313.55 -1.09089 -4.07035 0
M  V30 14135 H 1312.28 -0.146446 -3.26272 0
M  V30 14136 H 1310.93 -2.24727 -2.89644 0
M  V30 14137 H 1310.58 -0.87009 -4.95417 0
M  V30 14138 H 1310.28 -2.59734 -5.27079 0
M  V30 14139 H 1311.81 -1.84439 -5.82078 0
M  V30 14140 H 1313.22 -3.63977 -4.42937 0
M  V30 14141 H 1311.62 -4.36648 -4.11653 0
M  V30 14142 H 1312.69 -3.99123 -2.75371 0
M  V30 14143 N 1314.03 1.01274 -1.20754 0
M  V30 14144 C 1315.45 1.27256 -0.963221 0
M  V30 14145 C 1315.65 1.98349 0.354972 0
M  V30 14146 O 1314.7 2.28116 1.08255 0
M  V30 14147 C 1316.02 2.1038 -2.14851 0
M  V30 14148 C 1317.56 2.23633 -2.18991 0
M  V30 14149 C 1318.04 3.10136 -3.37016 0
M  V30 14150 N 1319.53 3.17724 -3.37054 0
M  V30 14151 C 1320.26 3.84891 -4.25025 0
M  V30 14152 N 1319.76 4.54152 -5.23181 0
M  V30 14153 N 1321.55 3.81454 -4.12855 0
M  V30 14154 H 1313.7 0.535534 -2.05538 0
M  V30 14155 H 1315.97 0.299006 -0.899611 0
M  V30 14156 H 1315.67 1.65484 -3.10335 0
M  V30 14157 H 1315.55 3.11122 -2.13267 0
M  V30 14158 H 1317.93 2.67753 -1.24067 0
M  V30 14159 H 1318.02 1.22387 -2.24622 0
M  V30 14160 H 1317.66 2.66721 -4.32229 0
M  V30 14161 H 1317.59 4.11478 -3.28623 0
M  V30 14162 H 1320.08 2.68412 -2.66014 0
M  V30 14163 H 1320.39 5.03084 -5.86623 0
M  V30 14164 H 1318.74 4.52964 -5.27113 0
M  V30 14165 H 1321.93 3.26494 -3.35439 0
M  V30 14166 H 1322.1 4.33523 -4.81624 0
M  V30 14167 N 1315.51 1.01404 1.20644 0
M  V30 14168 C 1316.42 0.591693 2.27016 0
M  V30 14169 C 1317.44 -0.36958 1.7003 0
M  V30 14170 O 1318.61 -0.231165 2.00069 0
M  V30 14171 C 1315.68 -0.0659827 3.46637 0
M  V30 14172 C 1314.74 0.940911 4.18862 0
M  V30 14173 C 1313.97 0.314526 5.32772 0
M  V30 14174 O 1314.19 -0.886404 5.63471 0
M  V30 14175 O 1313.13 1.02998 5.93022 0
M  V30 14176 H 1316.95 1.4772 2.65353 0
M  V30 14177 H 1314.54 0.783399 1.27213 0
M  V30 14178 H 1316.42 -0.433412 4.19165 0
M  V30 14179 H 1315.1 -0.925729 3.10181 0
M  V30 14180 H 1314 1.35966 3.48517 0
M  V30 14181 H 1315.34 1.77054 4.59252 0
M  V30 14182 N 1316.99 -1.36373 0.789944 0
M  V30 14183 C 1318.24 -1.98476 0.359165 0
M  V30 14184 C 1318.55 -1.634 -1.07517 0
M  V30 14185 O 1319.76 -2.18742 -1.60824 0
M  V30 14186 C 1318.21 -3.55011 0.591228 0
M  V30 14187 C 1317.82 -3.99011 2.03701 0
M  V30 14188 C 1319.56 -4.23903 0.224979 0
M  V30 14189 C 1317.47 -5.48325 2.2157 0
M  V30 14190 H 1316.4 -0.742612 0.130552 0
M  V30 14191 H 1319.05 -1.55664 0.971652 0
M  V30 14192 H 1317.43 -3.95895 -0.0909788 0
M  V30 14193 H 1318.61 -3.69324 2.75566 0
M  V30 14194 H 1316.92 -3.42957 2.36155 0
M  V30 14195 H 1319.52 -5.33638 0.336764 0
M  V30 14196 H 1319.86 -4.08004 -0.826964 0
M  V30 14197 H 1320.4 -3.88383 0.860443 0
M  V30 14198 H 1317.13 -5.69173 3.25149 0
M  V30 14199 H 1316.65 -5.79637 1.54211 0
M  V30 14200 H 1318.33 -6.14556 2.0231 0
M  V30 14201 N 1318.47 -0.542005 -1.47987 0
M  V30 14202 C 1319.71 -0.010246 -2.01697 0
M  V30 14203 C 1320.03 1.34173 -1.42327 0
M  V30 14204 O 1321.23 1.96254 -1.87607 0
M  V30 14205 C 1319.69 0.0321032 -3.59886 0
M  V30 14206 C 1319.3 -1.31571 -4.28244 0
M  V30 14207 C 1321.04 0.512056 -4.214 0
M  V30 14208 C 1318.95 -1.23329 -5.78398 0
M  V30 14209 H 1317.88 -6.02097e-05 -0.754 0
M  V30 14210 H 1320.53 -0.687586 -1.70131 0
M  V30 14211 H 1318.91 0.774774 -3.88347 0
M  V30 14212 H 1320.09 -2.07489 -4.11442 0
M  V30 14213 H 1318.4 -1.73237 -3.78653 0
M  V30 14214 H 1321 0.591875 -5.31414 0
M  V30 14215 H 1321.34 1.52061 -3.87535 0
M  V30 14216 H 1321.87 -0.175293 -3.97414 0
M  V30 14217 H 1318.61 -2.21737 -6.16857 0
M  V30 14218 H 1318.13 -0.51567 -5.97579 0
M  V30 14219 H 1319.81 -0.928975 -6.40296 0
M  V30 14220 N 1319.94 1.55134 -0.277709 0
M  V30 14221 C 1321.36 1.59417 0.0763615 0
M  V30 14222 C 1321.56 1.29491 1.54384 0
M  V30 14223 O 1320.62 1.05703 2.2931 0
M  V30 14224 C 1321.93 2.99194 -0.300607 0
M  V30 14225 C 1323.48 3.1202 -0.247438 0
M  V30 14226 C 1323.95 4.54068 -0.598884 0
M  V30 14227 N 1325.44 4.59917 -0.550534 0
M  V30 14228 C 1326.18 5.67859 -0.795235 0
M  V30 14229 N 1325.67 6.83936 -1.10469 0
M  V30 14230 N 1327.47 5.5742 -0.723859 0
M  V30 14231 H 1319.62 1.72851 -1.23435 0
M  V30 14232 H 1321.88 0.806137 -0.498846 0
M  V30 14233 H 1321.59 3.25937 -1.32129 0
M  V30 14234 H 1321.46 3.75504 0.35729 0
M  V30 14235 H 1323.85 2.8504 0.763959 0
M  V30 14236 H 1323.93 2.37917 -0.939629 0
M  V30 14237 H 1323.57 4.81774 -1.60798 0
M  V30 14238 H 1323.5 5.26474 0.115126 0
M  V30 14239 H 1325.99 3.76531 -0.321341 0
M  V30 14240 H 1326.31 7.62159 -1.278 0
M  V30 14241 H 1324.65 6.85545 -1.14249 0
M  V30 14242 H 1327.84 4.65613 -0.481925 0
M  V30 14243 H 1328.02 6.41465 -0.917944 0
M  V30 14244 N 1321.42 0.00503138 1.57599 0
M  V30 14245 C 1322.33 -1.00097 2.12174 0
M  V30 14246 C 1323.35 -1.37353 1.06818 0
M  V30 14247 O 1324.52 -1.45984 1.38747 0
M  V30 14248 C 1321.59 -2.27252 2.61835 0
M  V30 14249 C 1320.65 -1.96262 3.81811 0
M  V30 14250 C 1319.88 -3.17355 4.29094 0
M  V30 14251 O 1320.11 -4.2921 3.75679 0
M  V30 14252 O 1319.04 -3.01059 5.21198 0
M  V30 14253 H 1322.87 -0.567024 2.9836 0
M  V30 14254 H 1320.45 -0.214109 1.47858 0
M  V30 14255 H 1322.33 -3.01944 2.93952 0
M  V30 14256 H 1321.01 -2.69875 1.78744 0
M  V30 14257 H 1319.91 -1.19031 3.54658 0
M  V30 14258 H 1321.25 -1.58473 4.65991 0
M  V30 14259 N 1322.9 -1.55308 -0.267798 0
M  V30 14260 C 1324.18 -1.66881 -1.02029 0
M  V30 14261 C 1324.56 -0.538708 -2.04111 0
M  V30 14262 O 1323.9 0.460575 -2.2381 0
M  V30 14263 C 1324.11 -3.06318 -1.67243 0
M  V30 14264 C 1325.46 -3.64237 -2.18212 0
M  V30 14265 O 1326.49 -3.08984 -1.77221 0
M  V30 14266 O 1325.35 -4.61055 -2.93413 0
M  V30 14267 H 1322.44 -0.677967 -0.473593 0
M  V30 14268 H 1324.99 -1.67646 -0.263242 0
M  V30 14269 H 1323.76 -3.80015 -0.932985 0
M  V30 14270 H 1323.38 -3.09475 -2.49622 0
M  V30 14271 N 1324.38 0.532545 -1.4833 0
M  V30 14272 C 1325.29 1.66433 -1.65339 0
M  V30 14273 C 1326.3 1.65541 -0.535939 0
M  V30 14274 O 1327.48 1.84539 -0.806679 0
M  V30 14275 C 1324.54 3.02901 -1.68676 0
M  V30 14276 C 1323.61 3.14669 -2.92031 0
M  V30 14277 C 1322.84 4.44627 -2.95199 0
M  V30 14278 O 1323.06 5.31572 -2.06851 0
M  V30 14279 O 1322 4.60707 -3.87341 0
M  V30 14280 H 1325.82 1.5502 -2.61156 0
M  V30 14281 H 1323.41 0.705348 -1.31701 0
M  V30 14282 H 1325.29 3.84068 -1.73407 0
M  V30 14283 H 1323.96 3.14644 -0.760327 0
M  V30 14284 H 1322.87 2.32807 -2.92834 0
M  V30 14285 H 1324.2 3.07841 -3.8405 0
M  V30 14286 N 1325.86 1.36875 0.78122 0
M  V30 14287 C 1327.27 1.28236 1.35692 0
M  V30 14288 C 1327.62 -0.0742286 1.9606 0
M  V30 14289 O 1326.74 -0.97588 1.93146 0
M  V30 14290 C 1327.34 2.32215 2.46702 0
M  V30 14291 C 1325.9 2.2724 3.00065 0
M  V30 14292 C 1325.04 2.16553 1.73206 0
M  V30 14293 H 1327.99 1.47634 0.582217 0
M  V30 14294 H 1328.02 1.96333 3.25935 0
M  V30 14295 H 1327.53 3.30938 2.02735 0
M  V30 14296 H 1325.63 1.3201 3.48431 0
M  V30 14297 H 1325.74 3.20267 3.56323 0
M  V30 14298 H 1324.11 1.62941 1.95761 0
M  V30 14299 H 1324.89 3.17176 1.31356 0
M  V30 14300 N 1327.33 -1.00632 1.21289 0
M  V30 14301 C 1328.56 -1.77709 1.05371 0
M  V30 14302 C 1328.97 -1.84933 -0.39956 0
M  V30 14303 O 1328.31 -1.30881 -1.28903 0
M  V30 14304 C 1328.38 -3.23206 1.5741 0
M  V30 14305 C 1328.04 -3.39563 3.05852 0
M  V30 14306 C 1329.04 -3.27952 4.03415 0
M  V30 14307 C 1326.72 -3.65048 3.4503 0
M  V30 14308 C 1328.72 -3.41587 5.38142 0
M  V30 14309 C 1326.4 -3.78325 4.7991 0
M  V30 14310 C 1327.4 -3.66601 5.76275 0
M  V30 14311 O 1327.09 -3.79458 7.08708 0
M  V30 14312 H 1326.82 -0.565369 0.370585 0
M  V30 14313 H 1329.38 -1.27483 1.6105 0
M  V30 14314 H 1327.61 -3.74562 0.96126 0
M  V30 14315 H 1329.29 -3.81953 1.37356 0
M  V30 14316 H 1330.06 -3.0819 3.74492 0
M  V30 14317 H 1325.94 -3.73256 2.70557 0
M  V30 14318 H 1329.48 -3.32353 6.13341 0
M  V30 14319 H 1325.38 -3.97591 5.08519 0
M  V30 14320 H 1326.15 -3.96413 7.161 0
M  V30 14321 N 1328.81 -1.02043 -1.20104 0
M  V30 14322 C 1330.04 -0.731142 -1.94085 0
M  V30 14323 C 1330.46 0.702467 -1.74491 0
M  V30 14324 O 1329.82 1.48387 -1.04168 0
M  V30 14325 C 1329.87 -1.07691 -3.44144 0
M  V30 14326 O 1328.97 -0.190751 -4.11959 0
M  V30 14327 H 1328.31 -0.270917 -0.606218 0
M  V30 14328 H 1330.84 -1.36483 -1.52426 0
M  V30 14329 H 1330.85 -1.03023 -3.94779 0
M  V30 14330 H 1329.53 -2.1214 -3.57728 0
M  V30 14331 H 1328.1 -0.29529 -3.71729 0
M  V30 14332 N 1330.29 1.35952 -0.797165 0
M  V30 14333 C 1331.71 1.52218 -0.479765 0
M  V30 14334 C 1331.91 1.74898 1.00064 0
M  V30 14335 O 1330.96 1.78495 1.78594 0
M  V30 14336 C 1332.28 2.70328 -1.31694 0
M  V30 14337 C 1333.82 2.84202 -1.31142 0
M  V30 14338 C 1334.3 4.05325 -2.13251 0
M  V30 14339 N 1335.79 4.12485 -2.10737 0
M  V30 14340 C 1336.52 5.053 -2.71033 0
M  V30 14341 N 1336.02 6.03509 -3.40219 0
M  V30 14342 N 1337.81 4.97975 -2.60725 0
M  V30 14343 H 1329.96 1.19486 -1.75604 0
M  V30 14344 H 1332.23 0.58383 -0.746892 0
M  V30 14345 H 1331.93 2.60116 -2.36712 0
M  V30 14346 H 1331.81 3.64684 -0.963607 0
M  V30 14347 H 1334.19 2.9387 -0.269131 0
M  V30 14348 H 1334.28 1.9073 -1.70457 0
M  V30 14349 H 1333.92 3.96417 -3.17515 0
M  V30 14350 H 1333.85 4.97959 -1.71302 0
M  V30 14351 H 1336.34 3.42174 -1.6039 0
M  V30 14352 H 1336.65 6.70909 -3.83537 0
M  V30 14353 H 1335 6.03711 -3.44322 0
M  V30 14354 H 1338.19 4.20203 -2.0627 0
M  V30 14355 H 1338.36 5.70119 -3.08007 0
M  V30 14356 N 1331.77 0.549846 1.47697 0
M  V30 14357 C 1333.01 0.0230845 2.02787 0
M  V30 14358 C 1333.35 -1.32035 1.42409 0
M  V30 14359 O 1332.62 -1.85745 0.576978 0
M  V30 14360 C 1332.91 -0.0778363 3.60016 0
M  V30 14361 C 1332.76 1.29217 4.3084 0
M  V30 14362 C 1334.08 -0.794909 4.32862 0
M  V30 14363 H 1331.2 0.00986307 0.736934 0
M  V30 14364 H 1333.84 0.710714 1.76207 0
M  V30 14365 H 1331.99 -0.663464 3.82793 0
M  V30 14366 H 1333.66 1.92044 4.19424 0
M  V30 14367 H 1331.9 1.86883 3.91481 0
M  V30 14368 H 1332.57 1.17435 5.39364 0
M  V30 14369 H 1335.05 -0.297743 4.15033 0
M  V30 14370 H 1333.93 -0.834466 5.4252 0
M  V30 14371 H 1334.19 -1.84948 4.01555 0
M  V30 14372 N 1333.25 -1.54984 0.285932 0
M  V30 14373 C 1334.47 -2.04239 -0.330774 0
M  V30 14374 C 1334.89 -1.16387 -1.48659 0
M  V30 14375 O 1334.25 -0.186255 -1.81547 0
M  V30 14376 C 1334.3 -3.52504 -0.801456 0
M  V30 14377 O 1334.02 -4.37014 0.30834 0
M  V30 14378 C 1335.52 -4.17692 -1.48487 0
M  V30 14379 H 1332.74 -0.666903 -0.0740351 0
M  V30 14380 H 1335.28 -2.00116 0.421178 0
M  V30 14381 H 1333.44 -3.57036 -1.50347 0
M  V30 14382 H 1333.85 -5.24471 -0.0553891 0
M  V30 14383 H 1335.33 -5.23004 -1.76552 0
M  V30 14384 H 1335.8 -3.66515 -2.41999 0
M  V30 14385 H 1336.41 -4.17193 -0.826428 0
M  V30 14386 N 1334.72 -0.0133892 -1.57594 0
M  V30 14387 C 1335.65 0.972341 -2.12292 0
M  V30 14388 C 1336.64 1.34971 -1.03522 0
M  V30 14389 O 1337.82 1.4311 -1.31275 0
M  V30 14390 C 1334.95 2.25988 -2.63717 0
M  V30 14391 C 1333.9 2.02373 -3.77133 0
M  V30 14392 C 1333.23 3.37256 -4.14925 0
M  V30 14393 C 1334.53 1.37553 -5.03861 0
M  V30 14394 H 1336.22 0.516869 -2.94905 0
M  V30 14395 H 1333.77 0.247176 -1.41863 0
M  V30 14396 H 1335.72 2.95313 -3.00613 0
M  V30 14397 H 1334.45 2.73672 -1.78244 0
M  V30 14398 H 1333.11 1.3547 -3.40651 0
M  V30 14399 H 1332.75 3.82669 -3.26456 0
M  V30 14400 H 1332.45 3.22267 -4.91343 0
M  V30 14401 H 1333.98 4.07875 -4.5439 0
M  V30 14402 H 1335.39 1.96855 -5.38443 0
M  V30 14403 H 1333.79 1.33011 -5.85174 0
M  V30 14404 H 1334.86 0.346429 -4.83661 0
M  V30 14405 N 1336.2 1.55448 0.259558 0
M  V30 14406 C 1337.13 1.9226 1.32508 0
M  V30 14407 C 1338.11 0.786012 1.5085 0
M  V30 14408 O 1339.3 1.04526 1.6367 0
M  V30 14409 C 1336.43 2.20627 2.68218 0
M  V30 14410 C 1335.38 3.36418 2.64589 0
M  V30 14411 C 1334.71 3.50295 4.03977 0
M  V30 14412 C 1336.01 4.72452 2.2268 0
M  V30 14413 H 1337.7 2.81509 1.01945 0
M  V30 14414 H 1335.25 1.35444 0.488965 0
M  V30 14415 H 1337.2 2.44968 3.42883 0
M  V30 14416 H 1335.93 1.28191 3.00391 0
M  V30 14417 H 1334.58 3.12065 1.92382 0
M  V30 14418 H 1334.23 2.55302 4.33394 0
M  V30 14419 H 1333.93 4.28155 4.02439 0
M  V30 14420 H 1335.46 3.76944 4.8036 0
M  V30 14421 H 1336.87 4.96249 2.87071 0
M  V30 14422 H 1335.27 5.53323 2.32279 0
M  V30 14423 H 1336.34 4.70367 1.17826 0
M  V30 14424 N 1337.68 -0.524672 1.4861 0
M  V30 14425 C 1338.59 -1.65554 1.6622 0
M  V30 14426 C 1339.61 -1.65254 0.54471 0
M  V30 14427 O 1340.78 -1.84109 0.816454 0
M  V30 14428 C 1337.85 -3.02003 1.7028 0
M  V30 14429 C 1336.91 -3.13116 2.93695 0
M  V30 14430 C 1336.14 -4.43055 2.97553 0
M  V30 14431 O 1336.36 -5.30468 2.09667 0
M  V30 14432 O 1335.3 -4.58646 3.89779 0
M  V30 14433 H 1339.12 -1.53633 2.61974 0
M  V30 14434 H 1336.71 -0.698354 1.32073 0
M  V30 14435 H 1338.59 -3.83143 1.75441 0
M  V30 14436 H 1337.27 -3.14236 0.777002 0
M  V30 14437 H 1336.17 -2.31251 2.94064 0
M  V30 14438 H 1337.51 -3.058 3.85677 0
M  V30 14439 N 1339.16 -1.37287 -0.77395 0
M  V30 14440 C 1340.39 -1.35366 -1.56075 0
M  V30 14441 C 1340.8 0.0634437 -1.89094 0
M  V30 14442 O 1340.14 1.03503 -1.51766 0
M  V30 14443 C 1340.2 -2.12512 -2.89964 0
M  V30 14444 C 1339.87 -3.61492 -2.79593 0
M  V30 14445 C 1340.86 -4.55421 -2.50774 0
M  V30 14446 C 1338.55 -4.04585 -2.97684 0
M  V30 14447 C 1340.54 -5.90421 -2.4017 0
M  V30 14448 C 1338.23 -5.39672 -2.86701 0
M  V30 14449 C 1339.23 -6.32403 -2.57984 0
M  V30 14450 O 1338.91 -7.65006 -2.47024 0
M  V30 14451 H 1338.65 -0.465447 -0.49024 0
M  V30 14452 H 1341.2 -1.81199 -0.967273 0
M  V30 14453 H 1339.43 -1.61366 -3.51423 0
M  V30 14454 H 1341.12 -2.03253 -3.51345 0
M  V30 14455 H 1341.89 -4.23438 -2.36485 0
M  V30 14456 H 1337.76 -3.32769 -3.19038 0
M  V30 14457 H 1341.31 -6.62769 -2.17676 0
M  V30 14458 H 1337.21 -5.71258 -3.00558 0
M  V30 14459 H 1337.97 -7.75302 -2.6239 0
M  V30 14460 N 1340.64 0.999871 -1.21821 0
M  V30 14461 C 1341.57 2.10708 -1.00621 0
M  V30 14462 C 1342.55 1.69954 0.0705417 0
M  V30 14463 O 1343.73 1.9399 -0.0903042 0
M  V30 14464 C 1340.86 3.42496 -0.575646 0
M  V30 14465 C 1339.82 3.97068 -1.59754 0
M  V30 14466 C 1339.14 5.24822 -1.02304 0
M  V30 14467 C 1340.44 4.28545 -2.98574 0
M  V30 14468 H 1342.14 2.28701 -1.93226 0
M  V30 14469 H 1339.68 1.09903 -0.930443 0
M  V30 14470 H 1341.64 4.19357 -0.414481 0
M  V30 14471 H 1340.36 3.2431 0.386059 0
M  V30 14472 H 1339.02 3.22332 -1.74636 0
M  V30 14473 H 1338.67 5.02972 -0.0529016 0
M  V30 14474 H 1338.37 5.62299 -1.70567 0
M  V30 14475 H 1339.89 6.04322 -0.873312 0
M  V30 14476 H 1341.3 4.96229 -2.87106 0
M  V30 14477 H 1339.7 4.77178 -3.63897 0
M  V30 14478 H 1340.77 3.36607 -3.49032 0
M  V30 14479 N 1342.11 1.02678 1.19562 0
M  V30 14480 C 1343.06 0.605764 2.22709 0
M  V30 14481 C 1344.03 -0.37936 1.6171 0
M  V30 14482 O 1345.22 -0.276496 1.88786 0
M  V30 14483 C 1342.36 -0.0394312 3.45077 0
M  V30 14484 C 1341.47 0.991481 4.20468 0
M  V30 14485 C 1340.6 0.316269 5.30258 0
M  V30 14486 C 1339.64 1.33324 5.97404 0
M  V30 14487 N 1338.78 0.683979 6.9876 0
M  V30 14488 H 1343.62 1.48994 2.58079 0
M  V30 14489 H 1341.16 0.745636 1.26802 0
M  V30 14490 H 1343.12 -0.430726 4.14971 0
M  V30 14491 H 1341.75 -0.887193 3.10369 0
M  V30 14492 H 1340.8 1.50085 3.49541 0
M  V30 14493 H 1342.11 1.76449 4.66548 0
M  V30 14494 H 1341.26 -0.129983 6.06561 0
M  V30 14495 H 1340 -0.488956 4.85243 0
M  V30 14496 H 1339.01 1.78977 5.19853 0
M  V30 14497 H 1340.23 2.13992 6.44503 0
M  V30 14498 H 1338.18 -0.101192 6.55922 0
M  V30 14499 H 1338.1 1.3949 7.4302 0
M  V30 14500 H 1339.36 0.261658 7.79061 0
M  V30 14501 N 1343.59 -1.35528 0.804364 0
M  V30 14502 C 1344.52 -2.28562 0.170893 0
M  V30 14503 C 1345.54 -1.50178 -0.628526 0
M  V30 14504 O 1346.73 -1.72438 -0.461252 0
M  V30 14505 C 1343.83 -3.29792 -0.780434 0
M  V30 14506 C 1343 -4.37391 -0.0278619 0
M  V30 14507 C 1342.06 -5.18492 -0.897341 0
M  V30 14508 O 1341.08 -5.68128 -0.349098 0
M  V30 14509 N 1342.29 -5.36385 -2.21971 0
M  V30 14510 H 1345.05 -2.83565 0.970108 0
M  V30 14511 H 1342.61 -1.47854 0.659617 0
M  V30 14512 H 1344.6 -3.80939 -1.36628 0
M  V30 14513 H 1343.17 -2.7532 -1.48046 0
M  V30 14514 H 1342.39 -3.87208 0.739178 0
M  V30 14515 H 1343.68 -5.06426 0.490889 0
M  V30 14516 H 1343.08 -4.97699 -2.6891 0
M  V30 14517 H 1341.64 -5.90721 -2.75485 0
M  V30 14518 N 1345.07 -0.557671 -1.47404 0
M  V30 14519 C 1346 0.178019 -2.3282 0
M  V30 14520 C 1346.98 0.908318 -1.43818 0
M  V30 14521 O 1348.17 0.888693 -1.72673 0
M  V30 14522 C 1345.3 1.2082 -3.25607 0
M  V30 14523 C 1344.25 0.594335 -4.23853 0
M  V30 14524 C 1343.58 1.72919 -5.05968 0
M  V30 14525 C 1344.88 -0.452196 -5.20339 0
M  V30 14526 H 1346.57 -0.535091 -2.9458 0
M  V30 14527 H 1344.12 -0.258775 -1.41656 0
M  V30 14528 H 1346.07 1.73104 -3.84204 0
M  V30 14529 H 1344.79 1.95126 -2.61903 0
M  V30 14530 H 1343.45 0.0927898 -3.66483 0
M  V30 14531 H 1343.1 2.4613 -4.38668 0
M  V30 14532 H 1342.8 1.32422 -5.72484 0
M  V30 14533 H 1344.33 2.25527 -5.67424 0
M  V30 14534 H 1345.74 -0.0154011 -5.73298 0
M  V30 14535 H 1344.14 -0.776068 -5.95061 0
M  V30 14536 H 1345.21 -1.34791 -4.65789 0
M  V30 14537 N 1346.55 1.54831 -0.294147 0
M  V30 14538 C 1347.5 2.19966 0.599919 0
M  V30 14539 C 1348.48 1.1704 1.1041 0
M  V30 14540 O 1349.68 1.42785 1.04601 0
M  V30 14541 C 1346.8 2.93875 1.77461 0
M  V30 14542 C 1345.89 4.0411 1.28671 0
M  V30 14543 N 1346.28 5.03158 0.516316 0
M  V30 14544 C 1344.58 4.17527 1.56804 0
M  V30 14545 C 1345.28 5.8113 0.257361 0
M  V30 14546 N 1344.26 5.37145 0.835221 0
M  V30 14547 H 1348.06 2.939 0.00369516 0
M  V30 14548 H 1345.57 1.621 -0.0985855 0
M  V30 14549 H 1347.57 3.39001 2.4266 0
M  V30 14550 H 1346.23 2.21456 2.3746 0
M  V30 14551 H 1347.24 5.17647 0.161855 0
M  V30 14552 H 1343.92 3.56309 2.17601 0
M  V30 14553 H 1345.31 6.7093 -0.360924 0
M  V30 14554 N 1348.03 0.0217466 1.57585 0
M  V30 14555 C 1349.44 -0.51811 1.79367 0
M  V30 14556 C 1349.79 -1.72688 0.931313 0
M  V30 14557 O 1348.91 -2.15949 0.139687 0
M  V30 14558 C 1349.51 -0.946711 3.25304 0
M  V30 14559 C 1348.07 -1.43173 3.48107 0
M  V30 14560 C 1347.22 -0.392996 2.74501 0
M  V30 14561 H 1350.17 0.247822 1.56753 0
M  V30 14562 H 1350.19 -1.81152 3.34611 0
M  V30 14563 H 1349.7 -0.0667536 3.88043 0
M  V30 14564 H 1347.8 -2.33186 2.90612 0
M  V30 14565 H 1347.91 -1.44419 4.56815 0
M  V30 14566 H 1346.28 -0.859471 2.39761 0
M  V30 14567 H 1347.06 0.478368 3.39951 0
M  V30 14568 N 1349.51 -1.55583 -0.251311 0
M  V30 14569 C 1350.46 -1.86337 -1.31387 0
M  V30 14570 C 1351.44 -0.723887 -1.43697 0
M  V30 14571 O 1352.63 -0.985717 -1.47012 0
M  V30 14572 C 1349.76 -2.15772 -2.67016 0
M  V30 14573 C 1348.85 -3.36036 -2.58729 0
M  V30 14574 N 1349.24 -4.55414 -2.20071 0
M  V30 14575 C 1347.54 -3.39058 -2.89751 0
M  V30 14576 C 1348.24 -5.37544 -2.22309 0
M  V30 14577 N 1347.21 -4.76494 -2.61638 0
M  V30 14578 H 1351.01 -2.76168 -1.00541 0
M  V30 14579 H 1348.53 -1.55751 -0.459941 0
M  V30 14580 H 1350.53 -2.35967 -3.43693 0
M  V30 14581 H 1349.19 -1.27237 -2.98732 0
M  V30 14582 H 1350.2 -4.8112 -1.91688 0
M  V30 14583 H 1346.87 -2.60781 -3.26036 0
M  V30 14584 H 1348.26 -6.43042 -1.94798 0
M  V30 14585 N 1350.98 0.516783 -1.48886 0
M  V30 14586 C 1351.89 1.6467 -1.67095 0
M  V30 14587 C 1352.91 1.64963 -0.553466 0
M  V30 14588 O 1354.09 1.83673 -0.826206 0
M  V30 14589 C 1351.15 3.01095 -1.71879 0
M  V30 14590 C 1350.21 3.11554 -2.95352 0
M  V30 14591 C 1349.44 4.41471 -2.99898 0
M  V30 14592 O 1349.67 5.29348 -2.12477 0
M  V30 14593 O 1348.6 4.56573 -3.92205 0
M  V30 14594 H 1352.43 1.52242 -2.62785 0
M  V30 14595 H 1350.01 0.69134 -1.32442 0
M  V30 14596 H 1351.89 3.82207 -1.77471 0
M  V30 14597 H 1350.57 3.1382 -0.793656 0
M  V30 14598 H 1349.48 2.29689 -2.95286 0
M  V30 14599 H 1350.81 3.03751 -3.87294 0
M  V30 14600 N 1352.46 1.37696 0.766659 0
M  V30 14601 C 1353.71 1.34388 1.5268 0
M  V30 14602 C 1354.06 -0.0697021 1.92274 0
M  V30 14603 O 1353.36 -1.02947 1.61593 0
M  V30 14604 C 1353.55 2.22154 2.79968 0
M  V30 14605 C 1353.38 3.71905 2.52817 0
M  V30 14606 C 1352.15 4.4099 2.4669 0
M  V30 14607 C 1354.35 4.64647 2.2047 0
M  V30 14608 N 1352.33 5.76252 2.11676 0
M  V30 14609 C 1353.7 5.88324 1.95639 0
M  V30 14610 C 1355.75 4.52982 2.06669 0
M  V30 14611 C 1354.46 7.01643 1.58399 0
M  V30 14612 C 1356.48 5.6619 1.7083 0
M  V30 14613 C 1355.85 6.8892 1.46861 0
M  V30 14614 H 1351.94 0.547046 0.558806 0
M  V30 14615 H 1354.53 1.72964 0.893954 0
M  V30 14616 H 1352.7 1.85788 3.41083 0
M  V30 14617 H 1354.43 2.10068 3.4591 0
M  V30 14618 H 1351.19 3.94051 2.62718 0
M  V30 14619 H 1351.61 6.47749 1.96852 0
M  V30 14620 H 1356.25 3.58661 2.2388 0
M  V30 14621 H 1353.97 7.95893 1.39926 0
M  V30 14622 H 1357.56 5.59137 1.60802 0
M  V30 14623 H 1356.44 7.75035 1.1954 0
M  V30 14624 N 1353.94 -0.993397 1.22349 0
M  V30 14625 C 1355.22 -1.7063 0.956275 0
M  V30 14626 C 1355.6 -2.0437 -0.52877 0
M  V30 14627 O 1354.94 -1.72662 -1.49667 0
M  V30 14628 C 1355.15 -2.95725 1.85331 0
M  V30 14629 C 1356.5 -3.68514 2.10909 0
M  V30 14630 O 1357.53 -3.05732 1.82775 0
M  V30 14631 O 1356.39 -4.81468 2.58556 0
M  V30 14632 H 1353.48 -0.744734 0.359583 0
M  V30 14633 H 1356.03 -1.04979 1.33333 0
M  V30 14634 H 1354.8 -2.6729 2.85782 0
M  V30 14635 H 1354.42 -3.69116 1.47781 0
M  V30 14636 N 1355.42 -1.03311 -1.19015 0
M  V30 14637 C 1356.66 -0.740813 -1.90503 0
M  V30 14638 C 1357.02 0.717732 -1.7808 0
M  V30 14639 O 1358.22 1.12329 -2.44204 0
M  V30 14640 C 1356.49 -1.18473 -3.37193 0
M  V30 14641 S 1358.05 -1.01692 -4.26854 0
M  V30 14642 H 1354.87 -0.269575 -0.657913 0
M  V30 14643 H 1357.47 -1.32382 -1.43858 0
M  V30 14644 H 1356.18 -2.2418 -3.43761 0
M  V30 14645 H 1355.71 -0.59519 -3.88872 0
M  V30 14646 H 1357.72 0.070076 -4.96151 0
M  V30 14647 N 1356.9 1.35099 -0.81154 0
M  V30 14648 C 1358.14 1.98625 -0.394231 0
M  V30 14649 C 1358.47 1.6437 1.03985 0
M  V30 14650 O 1357.73 0.901496 1.737 0
M  V30 14651 C 1358.02 3.53444 -0.530322 0
M  V30 14652 C 1357.69 4.0758 -1.92844 0
M  V30 14653 C 1356.35 4.22077 -2.31094 0
M  V30 14654 C 1358.7 4.36838 -2.84292 0
M  V30 14655 C 1356.03 4.63153 -3.60148 0
M  V30 14656 C 1358.38 4.79355 -4.12798 0
M  V30 14657 C 1357.05 4.92057 -4.51039 0
M  V30 14658 H 1356.32 0.726822 -0.144259 0
M  V30 14659 H 1358.97 1.61231 -1.03329 0
M  V30 14660 H 1357.27 3.91328 0.192166 0
M  V30 14661 H 1358.97 4.00558 -0.188134 0
M  V30 14662 H 1355.56 3.96752 -1.62129 0
M  V30 14663 H 1359.74 4.25187 -2.55988 0
M  V30 14664 H 1355 4.71176 -3.89619 0
M  V30 14665 H 1359.17 5.00954 -4.83754 0
M  V30 14666 H 1356.8 5.23643 -5.51092 0
M  V30 14667 N 1358.37 0.56548 1.47106 0
M  V30 14668 C 1359.62 0.0445914 2.02751 0
M  V30 14669 C 1359.95 -1.30517 1.43801 0
M  V30 14670 O 1359.23 -1.85123 0.596646 0
M  V30 14671 C 1359.51 -0.0396474 3.60078 0
M  V30 14672 C 1359.36 1.3378 4.29445 0
M  V30 14673 C 1360.68 -0.748954 4.3368 0
M  V30 14674 H 1357.8 0.0176787 0.736788 0
M  V30 14675 H 1360.44 0.729363 1.75443 0
M  V30 14676 H 1358.59 -0.622826 3.83475 0
M  V30 14677 H 1360.27 1.96482 4.17364 0
M  V30 14678 H 1358.51 1.91024 3.89477 0
M  V30 14679 H 1359.18 1.23149 5.38088 0
M  V30 14680 H 1361.66 -0.253707 4.15326 0
M  V30 14681 H 1360.53 -0.776877 5.43374 0
M  V30 14682 H 1360.79 -1.80679 4.03494 0
M  V30 14683 N 1359.85 -1.54672 0.302354 0
M  V30 14684 C 1360.8 -2.2357 -0.573141 0
M  V30 14685 C 1361.77 -1.21878 -1.12849 0
M  V30 14686 O 1362.95 -1.50502 -1.17277 0
M  V30 14687 C 1360.09 -2.98111 -1.7385 0
M  V30 14688 C 1359.21 -4.14579 -1.21441 0
M  V30 14689 C 1358.34 -4.76699 -2.34374 0
M  V30 14690 C 1357.38 -5.8531 -1.79106 0
M  V30 14691 N 1356.52 -6.41379 -2.85618 0
M  V30 14692 H 1361.36 -2.97993 0.0209969 0
M  V30 14693 H 1358.9 -1.47083 0.0221318 0
M  V30 14694 H 1360.85 -3.39561 -2.42392 0
M  V30 14695 H 1359.48 -2.26063 -2.30425 0
M  V30 14696 H 1358.54 -3.78061 -0.421204 0
M  V30 14697 H 1359.85 -4.92824 -0.769821 0
M  V30 14698 H 1359 -5.21009 -3.10861 0
M  V30 14699 H 1357.74 -3.9779 -2.8216 0
M  V30 14700 H 1356.75 -5.40423 -1.01109 0
M  V30 14701 H 1357.97 -6.66104 -1.32222 0
M  V30 14702 H 1355.92 -5.65352 -3.32735 0
M  V30 14703 H 1355.83 -7.14974 -2.45659 0
M  V30 14704 H 1357.1 -6.90346 -3.61998 0
M  V30 14705 N 1361.33 -0.0301034 -1.57571 0
M  V30 14706 C 1362.61 0.68703 -1.83137 0
M  V30 14707 C 1362.99 1.90277 -0.914216 0
M  V30 14708 O 1362.34 2.2848 0.0299358 0
M  V30 14709 C 1362.55 1.06431 -3.32375 0
M  V30 14710 C 1363.89 1.45554 -3.98873 0
M  V30 14711 O 1364.92 1.15727 -3.36877 0
M  V30 14712 O 1363.78 2.01133 -5.08142 0
M  V30 14713 H 1360.87 0.337141 -0.755159 0
M  V30 14714 H 1363.42 -0.0578604 -1.69601 0
M  V30 14715 H 1362.19 0.199077 -3.90793 0
M  V30 14716 H 1361.81 1.86734 -3.51022 0
M  V30 14717 N 1362.81 1.55714 0.243056 0
M  V30 14718 C 1364.04 1.81786 0.98801 0
M  V30 14719 C 1364.45 0.606352 1.78798 0
M  V30 14720 O 1363.81 -0.425018 1.77482 0
M  V30 14721 C 1363.86 3.06121 1.92281 0
M  V30 14722 O 1363.58 4.22595 1.15521 0
M  V30 14723 C 1365.08 3.45021 2.78344 0
M  V30 14724 H 1362.3 0.604829 0.290557 0
M  V30 14725 H 1364.85 2.02779 0.26478 0
M  V30 14726 H 1363 2.87167 2.60027 0
M  V30 14727 H 1363.41 4.93088 1.78786 0
M  V30 14728 H 1364.89 4.35112 3.39678 0
M  V30 14729 H 1365.37 2.65782 3.49652 0
M  V30 14730 H 1365.97 3.66339 2.16045 0
M  V30 14731 N 1364.29 -0.50888 1.49158 0
M  V30 14732 C 1365.23 -1.61129 1.65246 0
M  V30 14733 C 1366.2 -1.58582 0.49405 0
M  V30 14734 O 1367.39 -1.76689 0.720122 0
M  V30 14735 C 1364.53 -2.99311 1.71776 0
M  V30 14736 C 1363.64 -3.11933 2.98868 0
M  V30 14737 C 1362.78 -4.408 2.96426 0
M  V30 14738 C 1361.82 -4.47027 4.18131 0
M  V30 14739 N 1360.95 -5.67311 4.13645 0
M  V30 14740 H 1365.79 -1.4672 2.59379 0
M  V30 14741 H 1363.33 -0.713978 1.28611 0
M  V30 14742 H 1365.29 -3.79392 1.73543 0
M  V30 14743 H 1363.92 -3.12442 0.811159 0
M  V30 14744 H 1362.97 -2.24966 3.06748 0
M  V30 14745 H 1364.28 -3.12393 3.8886 0
M  V30 14746 H 1363.44 -5.29194 2.96712 0
M  V30 14747 H 1362.17 -4.42893 2.04199 0
M  V30 14748 H 1361.18 -3.57036 4.18097 0
M  V30 14749 H 1362.4 -4.46656 5.11542 0
M  V30 14750 H 1360.35 -5.70261 3.2425 0
M  V30 14751 H 1360.27 -5.69355 4.97364 0
M  V30 14752 H 1361.54 -6.57934 4.18022 0
M  V30 14753 N 1365.76 -1.381 -0.759346 0
M  V30 14754 C 1367.01 -1.33311 -1.51364 0
M  V30 14755 C 1367.33 0.0761325 -1.95452 0
M  V30 14756 O 1368.53 0.246541 -2.70378 0
M  V30 14757 C 1366.99 -2.34067 -2.73387 0
M  V30 14758 C 1366.6 -3.80583 -2.36348 0
M  V30 14759 C 1368.34 -2.38311 -3.51295 0
M  V30 14760 C 1366.25 -4.73039 -3.54948 0
M  V30 14761 H 1365.18 -0.495512 -0.568317 0
M  V30 14762 H 1367.83 -1.63625 -0.830602 0
M  V30 14763 H 1366.21 -1.96788 -3.43643 0
M  V30 14764 H 1367.38 -4.26769 -1.73796 0
M  V30 14765 H 1365.7 -3.79403 -1.71587 0
M  V30 14766 H 1368.3 -3.04586 -4.39467 0
M  V30 14767 H 1368.64 -1.40034 -3.92041 0
M  V30 14768 H 1369.17 -2.74361 -2.88047 0
M  V30 14769 H 1365.91 -5.7249 -3.19273 0
M  V30 14770 H 1365.43 -4.3155 -4.16563 0
M  V30 14771 H 1367.11 -4.90775 -4.21603 0
M  V30 14772 N 1367.24 0.986894 -1.22875 0
M  V30 14773 C 1368.17 2.09628 -1.0285 0
M  V30 14774 C 1369.15 1.70019 0.0525118 0
M  V30 14775 O 1370.34 1.93883 -0.110874 0
M  V30 14776 C 1367.47 3.41866 -0.61194 0
M  V30 14777 C 1366.42 3.95351 -1.63956 0
M  V30 14778 C 1365.75 5.23707 -1.07865 0
M  V30 14779 C 1367.05 4.25354 -3.03102 0
M  V30 14780 H 1368.74 2.26639 -1.95641 0
M  V30 14781 H 1366.29 1.0891 -0.942048 0
M  V30 14782 H 1368.24 4.18893 -0.458936 0
M  V30 14783 H 1366.97 3.24701 0.35164 0
M  V30 14784 H 1365.62 3.20462 -1.78045 0
M  V30 14785 H 1365.27 5.02888 -0.106246 0
M  V30 14786 H 1364.97 5.60459 -1.76522 0
M  V30 14787 H 1366.5 6.03362 -0.937359 0
M  V30 14788 H 1367.91 4.93156 -2.92353 0
M  V30 14789 H 1366.31 4.73292 -3.68938 0
M  V30 14790 H 1367.38 3.32887 -3.52583 0
M  V30 14791 N 1368.72 1.0394 1.18466 0
M  V30 14792 C 1369.68 0.633804 2.20262 0
M  V30 14793 C 1370.68 -0.308136 1.5782 0
M  V30 14794 O 1371.87 -0.0937087 1.73948 0
M  V30 14795 C 1369.01 -0.0709693 3.40826 0
M  V30 14796 H 1370.2 1.53463 2.57661 0
M  V30 14797 H 1367.75 0.831806 1.32328 0
M  V30 14798 H 1368.49 -0.985659 3.08958 0
M  V30 14799 H 1368.27 0.606023 3.87388 0
M  V30 14800 H 1369.76 -0.341298 4.16203 0
M  V30 14801 N 1370.2 -1.34667 0.818693 0
M  V30 14802 C 1371.48 -1.92838 0.327521 0
M  V30 14803 C 1371.86 -1.74732 -1.18457 0
M  V30 14804 O 1371.2 -1.12352 -1.98971 0
M  V30 14805 C 1371.41 -3.40797 0.752207 0
M  V30 14806 C 1372.76 -4.17948 0.748613 0
M  V30 14807 O 1373.79 -3.49364 0.694517 0
M  V30 14808 O 1372.64 -5.40344 0.817958 0
M  V30 14809 H 1369.74 -0.822249 0.0885148 0
M  V30 14810 H 1372.28 -1.43668 0.9032 0
M  V30 14811 H 1371.06 -3.47759 1.79387 0
M  V30 14812 H 1370.68 -3.97309 0.151992 0
M  V30 14813 N 1371.68 -0.573274 -1.46804 0
M  V30 14814 C 1372.59 0.168081 -2.33997 0
M  V30 14815 C 1373.6 0.895652 -1.49178 0
M  V30 14816 O 1374.78 0.860951 -1.8207 0
M  V30 14817 C 1371.84 1.17483 -3.26188 0
M  V30 14818 C 1370.9 0.452956 -4.26904 0
M  V30 14819 C 1370.14 1.41175 -5.1469 0
M  V30 14820 O 1370.36 2.64767 -5.05227 0
M  V30 14821 O 1369.29 0.927472 -5.94711 0
M  V30 14822 H 1373.12 -0.547576 -2.98723 0
M  V30 14823 H 1370.71 -0.333747 -1.45624 0
M  V30 14824 H 1372.59 1.75557 -3.8309 0
M  V30 14825 H 1371.26 1.87213 -2.6407 0
M  V30 14826 H 1370.17 -0.169383 -3.73716 0
M  V30 14827 H 1371.5 -0.203186 -4.9178 0
M  V30 14828 N 1373.15 1.5451 -0.310553 0
M  V30 14829 C 1374.38 2.04739 0.29824 0
M  V30 14830 C 1374.8 1.18737 1.46788 0
M  V30 14831 O 1374.15 0.215114 1.81228 0
M  V30 14832 C 1374.21 3.53734 0.745274 0
M  V30 14833 O 1373.93 4.36468 -0.377826 0
M  V30 14834 C 1375.43 4.20001 1.41823 0
M  V30 14835 H 1372.65 0.667997 0.0634159 0
M  V30 14836 H 1375.19 1.9942 -0.452961 0
M  V30 14837 H 1373.35 3.59383 1.44648 0
M  V30 14838 H 1373.76 5.24492 -0.0280567 0
M  V30 14839 H 1375.23 5.25747 1.68209 0
M  V30 14840 H 1375.71 3.70319 2.36137 0
M  V30 14841 H 1376.32 4.18455 0.759951 0
M  V30 14842 N 1374.63 0.0384594 1.57553 0
M  V30 14843 C 1375.86 -0.651613 1.96898 0
M  V30 14844 C 1376.28 -1.64328 0.915308 0
M  V30 14845 O 1375.64 -1.80883 -0.122824 0
M  V30 14846 C 1375.69 -1.32613 3.3533 0
M  V30 14847 O 1374.79 -2.44159 3.32355 0
M  V30 14848 H 1374.13 -0.170441 0.641752 0
M  V30 14849 H 1376.66 0.103086 2.0434 0
M  V30 14850 H 1376.67 -1.68076 3.71772 0
M  V30 14851 H 1375.35 -0.599275 4.1156 0
M  V30 14852 H 1373.93 -2.10738 3.07642 0
M  V30 14853 N 1376.11 -1.55841 -0.234795 0
M  V30 14854 C 1377.04 -1.87793 -1.31402 0
M  V30 14855 C 1378.06 -0.765113 -1.43701 0
M  V30 14856 O 1379.25 -1.04332 -1.44834 0
M  V30 14857 C 1376.35 -2.05976 -2.69123 0
M  V30 14858 C 1375.52 -3.36914 -2.7894 0
M  V30 14859 C 1374.58 -3.44691 -3.97586 0
M  V30 14860 O 1373.6 -4.17818 -3.86545 0
M  V30 14861 N 1374.81 -2.74866 -5.11301 0
M  V30 14862 H 1377.57 -2.80957 -1.04324 0
M  V30 14863 H 1375.13 -1.56226 -0.424872 0
M  V30 14864 H 1377.12 -2.08507 -3.46853 0
M  V30 14865 H 1375.69 -1.195 -2.88857 0
M  V30 14866 H 1374.91 -3.46595 -1.87791 0
M  V30 14867 H 1376.2 -4.23196 -2.82458 0
M  V30 14868 H 1375.6 -2.15208 -5.23165 0
M  V30 14869 H 1374.16 -2.83075 -5.87122 0
M  V30 14870 N 1377.59 0.500963 -1.49426 0
M  V30 14871 C 1378.52 1.61114 -1.69011 0
M  V30 14872 C 1379.5 1.61341 -0.538813 0
M  V30 14873 O 1380.69 1.78081 -0.77466 0
M  V30 14874 C 1377.82 2.99598 -1.75666 0
M  V30 14875 C 1376.77 3.14236 -2.90585 0
M  V30 14876 C 1376.1 4.54071 -2.82354 0
M  V30 14877 C 1377.4 2.94258 -4.3152 0
M  V30 14878 H 1379.09 1.44978 -2.61957 0
M  V30 14879 H 1376.64 0.69603 -1.26061 0
M  V30 14880 H 1378.59 3.77163 -1.87953 0
M  V30 14881 H 1377.31 3.16822 -0.793186 0
M  V30 14882 H 1375.97 2.39096 -2.779 0
M  V30 14883 H 1375.62 4.68172 -1.83914 0
M  V30 14884 H 1375.32 4.64806 -3.59485 0
M  V30 14885 H 1376.84 5.33696 -2.96649 0
M  V30 14886 H 1378.26 3.61592 -4.44886 0
M  V30 14887 H 1376.65 3.16464 -5.09873 0
M  V30 14888 H 1377.72 1.90383 -4.45962 0
M  V30 14889 N 1379.07 1.38501 0.752011 0
M  V30 14890 C 1380.02 1.35975 1.88716 0
M  V30 14891 C 1381.01 0.245392 1.67613 0
M  V30 14892 O 1382.22 0.414514 1.75162 0
M  V30 14893 H 1378.59 0.424221 0.620919 0
M  V30 14894 H 1380.56 2.3176 1.87962 0
M  V30 14895 C 1379.31 1.20326 3.26216 0
M  V30 14896 H 1378.63 2.05336 3.43041 0
M  V30 14897 H 1380.07 1.22613 4.05884 0
M  V30 14898 C 1378.53 -0.0897029 3.36781 0
M  V30 14899 O 1379.06 -1.06615 3.87293 0
M  V30 14900 N 1377.27 -0.147065 2.90228 0
M  V30 14901 H 1376.82 0.648216 2.49311 0
M  V30 14902 H 1376.77 -1.01174 2.97676 0
M  V30 14903 N 1380.55 -0.980364 1.23396 0
M  V30 14904 C 1381.79 -1.71826 1.06397 0
M  V30 14905 C 1382.11 -1.90854 -0.399958 0
M  V30 14906 O 1381.38 -1.47721 -1.28668 0
M  V30 14907 H 1379.96 -0.636669 0.390719 0
M  V30 14908 H 1382.63 -1.18008 1.55113 0
M  V30 14909 H 1381.72 -2.7078 1.55192 0
M  V30 14910 N 1382.02 -1.04567 -1.17913 0
M  V30 14911 C 1382.93 -0.651674 -2.25367 0
M  V30 14912 C 1383.95 0.32437 -1.7095 0
M  V30 14913 O 1385.13 0.178039 -2.00612 0
M  V30 14914 C 1382.19 -0.0259452 -3.4669 0
M  V30 14915 C 1381.25 -1.05163 -4.1622 0
M  V30 14916 C 1380.48 -0.45567 -5.31751 0
M  V30 14917 O 1380.71 0.736698 -5.65623 0
M  V30 14918 O 1379.64 -1.18684 -5.90083 0
M  V30 14919 H 1383.47 -1.54704 -2.61344 0
M  V30 14920 H 1381.05 -0.816852 -1.25092 0
M  V30 14921 H 1382.93 0.322126 -4.20167 0
M  V30 14922 H 1381.61 0.843165 -3.12526 0
M  V30 14923 H 1380.52 -1.45159 -3.44789 0
M  V30 14924 H 1381.85 -1.89168 -4.54397 0
M  V30 14925 N 1383.5 1.34231 -0.825823 0
M  V30 14926 C 1384.91 1.8059 -0.473724 0
M  V30 14927 C 1385.26 1.68438 1.00614 0
M  V30 14928 O 1384.39 1.22606 1.78317 0
M  V30 14929 C 1384.98 3.27884 -0.853099 0
M  V30 14930 C 1383.54 3.72311 -0.553327 0
M  V30 14931 C 1382.69 2.55889 -1.06845 0
M  V30 14932 H 1385.64 1.21937 -1.01573 0
M  V30 14933 H 1385.66 3.80172 -0.158014 0
M  V30 14934 H 1385.17 3.36696 -1.93021 0
M  V30 14935 H 1383.27 3.69034 0.514256 0
M  V30 14936 H 1383.39 4.66315 -1.09942 0
M  V30 14937 H 1381.75 2.49945 -0.489874 0
M  V30 14938 H 1382.53 2.67471 -2.15207 0
M  V30 14939 N 1384.98 0.581051 1.46498 0
M  V30 14940 C 1385.89 -0.155669 2.34083 0
M  V30 14941 C 1386.91 -0.887728 1.49651 0
M  V30 14942 O 1388.08 -0.851284 1.82524 0
M  V30 14943 C 1385.15 -1.15752 3.26806 0
M  V30 14944 C 1384.21 -0.43031 4.27138 0
M  V30 14945 C 1383.44 -1.38443 5.15431 0
M  V30 14946 O 1383.66 -2.62084 5.06624 0
M  V30 14947 O 1382.6 -0.89592 5.95195 0
M  V30 14948 H 1386.42 0.56341 2.98428 0
M  V30 14949 H 1384.01 0.341466 1.45445 0
M  V30 14950 H 1385.89 -1.73523 3.84015 0
M  V30 14951 H 1384.57 -1.85809 2.65059 0
M  V30 14952 H 1383.47 0.1892 3.73621 0
M  V30 14953 H 1384.81 0.229263 4.91666 0
M  V30 14954 N 1386.46 -1.54343 0.318742 0
M  V30 14955 C 1387.4 -2.24166 -0.549397 0
M  V30 14956 C 1388.37 -1.23068 -1.1155 0
M  V30 14957 O 1389.56 -1.51737 -1.15674 0
M  V30 14958 C 1386.7 -2.99938 -1.70678 0
M  V30 14959 C 1385.81 -4.15844 -1.17037 0
M  V30 14960 C 1384.95 -4.79158 -2.29305 0
M  V30 14961 C 1383.99 -5.87176 -1.72888 0
M  V30 14962 N 1383.12 -6.44372 -2.78799 0
M  V30 14963 H 1387.96 -2.97954 0.0526018 0
M  V30 14964 H 1385.5 -1.47052 0.0377307 0
M  V30 14965 H 1387.46 -3.42113 -2.38777 0
M  V30 14966 H 1386.09 -2.28494 -2.28014 0
M  V30 14967 H 1385.14 -3.78486 -0.381082 0
M  V30 14968 H 1386.45 -4.93612 -0.717507 0
M  V30 14969 H 1385.61 -5.24277 -3.05317 0
M  V30 14970 H 1384.35 -4.0076 -2.77926 0
M  V30 14971 H 1383.35 -5.41465 -0.953714 0
M  V30 14972 H 1384.58 -6.67469 -1.2515 0
M  V30 14973 H 1382.52 -5.6885 -3.2672 0
M  V30 14974 H 1382.44 -7.17539 -2.38062 0
M  V30 14975 H 1383.71 -6.94147 -3.54655 0
M  V30 14976 N 1387.94 -0.0468143 -1.5753 0
M  V30 14977 C 1388.88 0.946945 -2.12452 0
M  V30 14978 C 1389.88 1.32515 -1.05527 0
M  V30 14979 O 1391.08 1.30532 -1.23941 0
M  V30 14980 H 1387.46 0.323223 -0.678993 0
M  V30 14981 H 1389.43 0.45858 -2.94855 0
M  V30 14982 C 1388.18 2.21402 -2.68098 0
M  V30 14983 H 1387.5 1.93178 -3.50032 0
M  V30 14984 H 1388.94 2.89105 -3.10152 0
M  V30 14985 C 1387.4 2.95576 -1.61668 0
M  V30 14986 O 1387.93 3.88353 -1.02689 0
M  V30 14987 N 1386.14 2.58228 -1.33291 0
M  V30 14988 H 1385.68 1.82858 -1.8144 0
M  V30 14989 H 1385.64 3.08164 -0.623092 0
M  V30 14990 N 1389.41 1.55964 0.226527 0
M  V30 14991 C 1390.32 1.95169 1.30178 0
M  V30 14992 C 1391.34 0.854831 1.51554 0
M  V30 14993 O 1392.52 1.15798 1.64781 0
M  V30 14994 C 1389.58 2.25612 2.63249 0
M  V30 14995 C 1388.64 3.4884 2.50219 0
M  V30 14996 C 1387.88 3.77822 3.76944 0
M  V30 14997 O 1388.1 3.08556 4.79739 0
M  V30 14998 O 1387.03 4.7132 3.74354 0
M  V30 14999 H 1390.86 2.86794 0.999145 0
M  V30 15000 H 1388.44 1.43109 0.42898 0
M  V30 15001 H 1390.33 2.4641 3.41848 0
M  V30 15002 H 1389 1.37162 2.93203 0
M  V30 15003 H 1387.91 3.33326 1.69836 0
M  V30 15004 H 1389.24 4.37657 2.25205 0
M  V30 15005 N 1390.89 -0.493031 1.4969 0
M  V30 15006 C 1391.84 -1.59367 1.66945 0
M  V30 15007 C 1392.81 -1.58049 0.510842 0
M  V30 15008 O 1393.99 -1.75915 0.738822 0
M  V30 15009 C 1391.13 -2.97472 1.74941 0
M  V30 15010 C 1390.25 -3.08745 3.02159 0
M  V30 15011 C 1389.38 -4.37632 3.01085 0
M  V30 15012 C 1388.42 -4.42567 4.22849 0
M  V30 15013 N 1387.56 -5.62892 4.19639 0
M  V30 15014 H 1392.4 -1.4396 2.6092 0
M  V30 15015 H 1389.94 -0.700297 1.29361 0
M  V30 15016 H 1391.89 -3.7753 1.77558 0
M  V30 15017 H 1390.52 -3.11564 0.844252 0
M  V30 15018 H 1389.58 -2.217 3.09117 0
M  V30 15019 H 1390.89 -3.08251 3.92151 0
M  V30 15020 H 1390.04 -5.26018 3.02309 0
M  V30 15021 H 1388.78 -4.40702 2.08885 0
M  V30 15022 H 1387.79 -3.52581 4.21861 0
M  V30 15023 H 1389.01 -4.41205 5.1625 0
M  V30 15024 H 1386.96 -5.6679 3.30281 0
M  V30 15025 H 1386.87 -5.64048 5.03374 0
M  V30 15026 H 1388.14 -6.53464 4.24977 0
M  V30 15027 N 1392.37 -1.38898 -0.744656 0
M  V30 15028 C 1393.65 -1.2611 -1.49518 0
M  V30 15029 C 1394.03 0.133592 -2.10677 0
M  V30 15030 O 1393.38 1.14394 -1.97804 0
M  V30 15031 C 1393.59 -2.37809 -2.55437 0
M  V30 15032 C 1394.93 -2.76664 -3.22091 0
M  V30 15033 O 1395.96 -2.37187 -2.65746 0
M  V30 15034 O 1394.82 -3.44771 -4.24023 0
M  V30 15035 H 1391.91 -0.493664 -0.663494 0
M  V30 15036 H 1394.46 -1.50748 -0.779304 0
M  V30 15037 H 1393.23 -3.31089 -2.08556 0
M  V30 15038 H 1392.85 -2.14783 -3.34595 0
M  V30 15039 N 1393.85 0.973806 -1.23914 0
M  V30 15040 C 1394.81 2.04892 -1.02723 0
M  V30 15041 C 1395.81 1.60795 0.0132972 0
M  V30 15042 O 1397 1.72714 -0.227084 0
M  V30 15043 C 1394.13 3.36341 -0.555667 0
M  V30 15044 H 1395.33 2.25124 -1.98139 0
M  V30 15045 H 1392.88 1.14817 -1.06051 0
M  V30 15046 H 1393.61 3.21799 0.40197 0
M  V30 15047 H 1393.4 3.69689 -1.30661 0
M  V30 15048 H 1394.89 4.15398 -0.428248 0
M  V30 15049 N 1395.33 1.05191 1.17357 0
M  V30 15050 C 1396.26 0.610878 2.20909 0
M  V30 15051 C 1397.27 -0.325369 1.59515 0
M  V30 15052 O 1398.46 -0.118104 1.78109 0
M  V30 15053 C 1395.56 -0.126086 3.38665 0
M  V30 15054 C 1394.73 0.820857 4.29629 0
M  V30 15055 C 1393.79 0.125154 5.26051 0
M  V30 15056 O 1392.82 0.759245 5.64114 0
M  V30 15057 N 1394.02 -1.13742 5.69248 0
M  V30 15058 H 1396.79 1.50158 2.5937 0
M  V30 15059 H 1394.35 0.933814 1.32256 0
M  V30 15060 H 1396.34 -0.601627 4.00203 0
M  V30 15061 H 1394.91 -0.918459 2.98803 0
M  V30 15062 H 1394.13 1.47602 3.65523 0
M  V30 15063 H 1395.42 1.46363 4.87294 0
M  V30 15064 H 1394.81 -1.67291 5.40398 0
M  V30 15065 H 1393.37 -1.55703 6.3293 0
M  V30 15066 N 1396.8 -1.33791 0.83293 0
M  V30 15067 C 1397.75 -2.29332 0.25989 0
M  V30 15068 C 1398.72 -1.54056 -0.620965 0
M  V30 15069 O 1399.91 -1.82382 -0.560492 0
M  V30 15070 C 1397.05 -3.40461 -0.563964 0
M  V30 15071 C 1396.16 -4.30658 0.34025 0
M  V30 15072 C 1395.29 -5.28897 -0.494134 0
M  V30 15073 C 1394.33 -6.10733 0.408842 0
M  V30 15074 N 1393.47 -7.01032 -0.38706 0
M  V30 15075 H 1398.31 -2.77743 1.07996 0
M  V30 15076 H 1395.85 -1.3667 0.544043 0
M  V30 15077 H 1397.81 -4.03587 -1.05704 0
M  V30 15078 H 1396.44 -2.93258 -1.34905 0
M  V30 15079 H 1395.49 -3.68305 0.9516 0
M  V30 15080 H 1396.8 -4.87962 1.03415 0
M  V30 15081 H 1395.95 -5.97522 -1.05128 0
M  V30 15082 H 1394.69 -4.72155 -1.2215 0
M  V30 15083 H 1393.7 -5.41031 0.978046 0
M  V30 15084 H 1394.92 -6.69557 1.13448 0
M  V30 15085 H 1392.87 -6.46747 -1.09792 0
M  V30 15086 H 1392.79 -7.55592 0.248249 0
M  V30 15087 H 1394.05 -7.73973 -0.926631 0
M  V30 15088 N 1398.28 -0.588812 -1.46187 0
M  V30 15089 C 1399.51 -0.0806571 -2.07243 0
M  V30 15090 C 1399.93 1.21766 -1.43369 0
M  V30 15091 O 1399.29 1.73694 -0.51964 0
M  V30 15092 C 1399.34 0.065267 -3.60541 0
M  V30 15093 O 1398.44 1.12026 -3.96893 0
M  V30 15094 H 1397.78 -0.0655622 -0.660755 0
M  V30 15095 H 1400.31 -0.813489 -1.87733 0
M  V30 15096 H 1400.32 0.269494 -4.07109 0
M  V30 15097 H 1399 -0.88284 -4.06422 0
M  V30 15098 H 1397.58 0.894 -3.62025 0
M  V30 15099 N 1399.76 1.54172 -0.326923 0
M  V30 15100 C 1400.71 2.24454 0.537501 0
M  V30 15101 C 1401.68 1.23658 1.10896 0
M  V30 15102 O 1402.86 1.52348 1.14868 0
M  V30 15103 C 1400 3.00839 1.69085 0
M  V30 15104 C 1399.12 4.16459 1.1483 0
M  V30 15105 C 1398.25 4.80368 2.26761 0
M  V30 15106 C 1397.29 5.88085 1.69771 0
M  V30 15107 N 1396.43 6.45842 2.75378 0
M  V30 15108 H 1401.27 2.97921 -0.0684022 0
M  V30 15109 H 1398.8 1.4703 -0.0455287 0
M  V30 15110 H 1400.76 3.43375 2.36959 0
M  V30 15111 H 1399.39 2.297 2.26799 0
M  V30 15112 H 1398.44 3.78683 0.361004 0
M  V30 15113 H 1399.76 4.93986 0.69132 0
M  V30 15114 H 1398.91 5.25889 3.02533 0
M  V30 15115 H 1397.65 4.02228 2.75796 0
M  V30 15116 H 1396.65 5.41963 0.924985 0
M  V30 15117 H 1397.88 6.68123 1.21609 0
M  V30 15118 H 1395.82 5.70574 3.23699 0
M  V30 15119 H 1395.74 7.18792 2.34253 0
M  V30 15120 H 1397.01 6.96018 3.50969 0
M  V30 15121 N 1401.24 0.0551678 1.57503 0
M  V30 15122 C 1402.49 -0.617201 1.92025 0
M  V30 15123 C 1402.8 -1.71767 0.93571 0
M  V30 15124 O 1404.01 -2.44847 1.17312 0
M  V30 15125 C 1402.46 -1.14915 3.41061 0
M  V30 15126 C 1402.07 -0.0805814 4.47928 0
M  V30 15127 C 1403.81 -1.79654 3.8461 0
M  V30 15128 C 1401.72 -0.625639 5.88081 0
M  V30 15129 H 1400.65 -0.23431 0.716669 0
M  V30 15130 H 1403.3 0.124706 1.83076 0
M  V30 15131 H 1401.68 -1.9435 3.45028 0
M  V30 15132 H 1402.86 0.693222 4.55556 0
M  V30 15133 H 1401.17 0.469581 4.13744 0
M  V30 15134 H 1403.77 -2.21436 4.86693 0
M  V30 15135 H 1404.11 -2.64987 3.21073 0
M  V30 15136 H 1404.65 -1.06868 3.83176 0
M  V30 15137 H 1401.39 0.190148 6.55224 0
M  V30 15138 H 1400.91 -1.36734 5.84007 0
M  V30 15139 H 1402.58 -1.10728 6.37454 0
M  V30 15140 N 1402.72 -1.56081 -0.218252 0
M  V30 15141 C 1403.99 -1.70043 -0.966684 0
M  V30 15142 C 1404.37 -0.603372 -2.02293 0
M  V30 15143 O 1403.72 0.389138 -2.25162 0
M  V30 15144 C 1403.93 -3.11484 -1.57413 0
M  V30 15145 C 1405.28 -3.70995 -2.06513 0
M  V30 15146 O 1406.3 -3.14466 -1.67301 0
M  V30 15147 O 1405.16 -4.70156 -2.78596 0
M  V30 15148 H 1402.26 -0.692691 -0.451784 0
M  V30 15149 H 1404.8 -1.68398 -0.209774 0
M  V30 15150 H 1403.57 -3.8279 -0.811614 0
M  V30 15151 H 1403.2 -3.1726 -2.3965 0
M  V30 15152 N 1404.2 0.485086 -1.49949 0
M  V30 15153 C 1405.47 1.24639 -1.50747 0
M  V30 15154 C 1405.85 2.09683 -0.244162 0
M  V30 15155 O 1405.2 2.1503 0.772949 0
M  V30 15156 C 1405.41 2.08946 -2.7954 0
M  V30 15157 C 1406.76 2.67604 -3.29656 0
M  V30 15158 O 1407.78 2.192 -2.80766 0
M  V30 15159 O 1406.64 3.55761 -4.14845 0
M  V30 15160 H 1403.74 0.564849 -0.604049 0
M  V30 15161 H 1406.28 0.498052 -1.62227 0
M  V30 15162 H 1405.05 1.46185 -3.62968 0
M  V30 15163 H 1404.68 2.90941 -2.70997 0
M  V30 15164 N 1405.67 1.39291 0.737279 0
M  V30 15165 C 1406.6 1.40562 1.86452 0
M  V30 15166 C 1407.58 0.269283 1.67955 0
M  V30 15167 O 1408.77 0.474769 1.88307 0
M  V30 15168 C 1405.9 1.2461 3.24175 0
M  V30 15169 C 1404.85 2.35619 3.57306 0
M  V30 15170 C 1404.18 2.04758 4.93941 0
M  V30 15171 C 1405.48 3.77927 3.60512 0
M  V30 15172 H 1407.17 2.34896 1.85646 0
M  V30 15173 H 1404.72 1.13065 0.891756 0
M  V30 15174 H 1406.67 1.2412 4.02706 0
M  V30 15175 H 1405.4 0.267438 3.25503 0
M  V30 15176 H 1404.06 2.35322 2.81104 0
M  V30 15177 H 1403.7 1.05336 4.91847 0
M  V30 15178 H 1403.4 2.79117 5.17076 0
M  V30 15179 H 1404.93 2.05915 5.74832 0
M  V30 15180 H 1406.34 3.80166 4.29123 0
M  V30 15181 H 1404.74 4.51626 3.95164 0
M  V30 15182 H 1405.81 4.09068 2.60368 0
M  V30 15183 N 1407.15 -0.967221 1.24429 0
M  V30 15184 C 1408.56 -1.52488 1.07723 0
M  V30 15185 C 1408.91 -1.93031 -0.351191 0
M  V30 15186 O 1408.04 -1.77376 -1.23963 0
M  V30 15187 C 1408.63 -2.77107 1.94929 0
M  V30 15188 C 1407.19 -3.29227 1.82446 0
M  V30 15189 C 1406.34 -2.02133 1.89835 0
M  V30 15190 H 1409.29 -0.785465 1.37899 0
M  V30 15191 H 1409.31 -3.50459 1.48186 0
M  V30 15192 H 1408.82 -2.47567 2.98885 0
M  V30 15193 H 1406.92 -3.63617 0.813246 0
M  V30 15194 H 1407.04 -3.98095 2.66566 0
M  V30 15195 H 1405.4 -2.16867 1.3357 0
M  V30 15196 H 1406.18 -1.74958 2.95372 0
M  V30 15197 N 1408.63 -1.05812 -1.16797 0
M  V30 15198 C 1409.88 -0.771923 -1.8721 0
M  V30 15199 C 1410.2 0.701365 -1.81414 0
M  V30 15200 O 1409.46 1.5292 -1.22122 0
M  V30 15201 C 1409.76 -1.20565 -3.3645 0
M  V30 15202 C 1409.42 -2.68222 -3.62447 0
M  V30 15203 C 1408.09 -3.08556 -3.69251 0
M  V30 15204 C 1410.44 -3.63607 -3.73416 0
M  V30 15205 C 1407.77 -4.43126 -3.84521 0
M  V30 15206 C 1410.12 -4.97918 -3.90205 0
M  V30 15207 C 1408.78 -5.37897 -3.9525 0
M  V30 15208 H 1408.05 -0.282467 -0.68505 0
M  V30 15209 H 1410.7 -1.32633 -1.38133 0
M  V30 15210 H 1409 -0.570347 -3.87626 0
M  V30 15211 H 1410.7 -0.961326 -3.89306 0
M  V30 15212 H 1407.29 -2.3599 -3.5778 0
M  V30 15213 H 1411.48 -3.33581 -3.67474 0
M  V30 15214 H 1406.73 -4.73593 -3.86677 0
M  V30 15215 H 1410.91 -5.71716 -3.97635 0
M  V30 15216 H 1408.53 -6.42176 -4.06834 0
M  V30 15217 N 1410.11 1.33347 -0.840014 0
M  V30 15218 C 1411.34 2.01659 -0.449141 0
M  V30 15219 C 1411.75 1.63353 0.954597 0
M  V30 15220 O 1411.09 0.843303 1.632 0
M  V30 15221 C 1411.15 3.56124 -0.491497 0
M  V30 15222 C 1410.81 4.17812 -1.85155 0
M  V30 15223 C 1411.81 4.37101 -2.81494 0
M  V30 15224 C 1409.5 4.54211 -2.1447 0
M  V30 15225 C 1411.49 4.91938 -4.05309 0
M  V30 15226 C 1409.18 5.08756 -3.38542 0
M  V30 15227 C 1410.18 5.27566 -4.33778 0
M  V30 15228 O 1409.86 5.8095 -5.55655 0
M  V30 15229 H 1409.6 0.652553 -0.176494 0
M  V30 15230 H 1412.15 1.71228 -1.13447 0
M  V30 15231 H 1410.38 3.85887 0.250613 0
M  V30 15232 H 1412.07 4.05728 -0.118288 0
M  V30 15233 H 1412.83 4.09328 -2.60146 0
M  V30 15234 H 1408.71 4.38864 -1.41135 0
M  V30 15235 H 1412.26 5.06536 -4.79654 0
M  V30 15236 H 1408.15 5.3596 -3.59746 0
M  V30 15237 H 1408.92 5.99363 -5.5741 0
M  V30 15238 N 1411.59 0.596556 1.45873 0
M  V30 15239 C 1412.83 0.090321 2.042 0
M  V30 15240 C 1413.19 -1.25123 1.45631 0
M  V30 15241 O 1414.39 -1.84752 1.95243 0
M  V30 15242 C 1412.66 0.0400377 3.57378 0
M  V30 15243 S 1414.22 -0.40661 4.36912 0
M  V30 15244 H 1411.04 0.0441976 0.709625 0
M  V30 15245 H 1413.64 0.792175 1.78731 0
M  V30 15246 H 1412.34 1.02013 3.97519 0
M  V30 15247 H 1411.88 -0.684156 3.87405 0
M  V30 15248 H 1413.89 -1.65849 4.67663 0
M  V30 15249 N 1413.06 -1.53996 0.335095 0
M  V30 15250 C 1414.31 -1.99952 -0.264954 0
M  V30 15251 C 1414.63 -1.22696 -1.52332 0
M  V30 15252 O 1415.83 -1.59086 -2.20009 0
M  V30 15253 C 1414.29 -3.56085 -0.522667 0
M  V30 15254 C 1413.9 -4.42188 0.719314 0
M  V30 15255 C 1415.64 -4.10478 -1.08204 0
M  V30 15256 C 1413.55 -5.89814 0.432867 0
M  V30 15257 H 1412.48 -0.746962 -0.102782 0
M  V30 15258 H 1415.13 -1.77919 0.449111 0
M  V30 15259 H 1413.51 -3.7415 -1.29722 0
M  V30 15260 H 1414.68 -4.35898 1.49432 0
M  V30 15261 H 1413 -3.98743 1.19972 0
M  V30 15262 H 1415.6 -5.18375 -1.31116 0
M  V30 15263 H 1415.94 -3.63173 -2.03497 0
M  V30 15264 H 1416.47 -3.96091 -0.368395 0
M  V30 15265 H 1413.21 -6.41336 1.35529 0
M  V30 15266 H 1412.73 -5.99028 -0.304214 0
M  V30 15267 H 1414.41 -6.46983 0.0469657 0
M  V30 15268 N 1414.54 -0.0635198 -1.57472 0
M  V30 15269 C 1415.79 0.606285 -1.92792 0
M  V30 15270 C 1416.11 1.70648 -0.943615 0
M  V30 15271 O 1415.38 1.95898 0.00957612 0
M  V30 15272 H 1413.96 0.226943 -0.711692 0
M  V30 15273 H 1416.62 -0.119429 -1.94534 0
M  V30 15274 H 1415.72 1.03694 -2.9437 0
M  V30 15275 N 1416.02 1.56195 0.209972 0
M  V30 15276 C 1417.27 1.79745 0.932638 0
M  V30 15277 C 1417.59 0.634252 1.83868 0
M  V30 15278 O 1416.85 -0.380798 1.91959 0
M  V30 15279 C 1417.15 3.09154 1.79328 0
M  V30 15280 C 1416.81 4.38754 1.03949 0
M  V30 15281 C 1415.48 4.73965 0.831308 0
M  V30 15282 C 1417.83 5.18718 0.508031 0
M  V30 15283 C 1415.16 5.86646 0.0799547 0
M  V30 15284 C 1417.51 6.32182 -0.230037 0
M  V30 15285 C 1416.17 6.65986 -0.449366 0
M  V30 15286 H 1415.44 0.657732 0.341276 0
M  V30 15287 H 1418.09 1.90453 0.199998 0
M  V30 15288 H 1416.39 2.93618 2.59414 0
M  V30 15289 H 1418.09 3.24578 2.35478 0
M  V30 15290 H 1414.68 4.11114 1.21174 0
M  V30 15291 H 1418.87 4.91941 0.656306 0
M  V30 15292 H 1414.12 6.11318 -0.100092 0
M  V30 15293 H 1418.3 6.93367 -0.649296 0
M  V30 15294 H 1415.92 7.53142 -1.03349 0
M  V30 15295 N 1417.5 -0.477127 1.50204 0
M  V30 15296 C 1418.44 -1.57587 1.68626 0
M  V30 15297 C 1419.41 -1.57499 0.527576 0
M  V30 15298 O 1420.6 -1.75121 0.757438 0
M  V30 15299 C 1417.74 -2.956 1.78086 0
M  V30 15300 C 1416.85 -3.05523 3.05417 0
M  V30 15301 C 1415.99 -4.34414 3.05709 0
M  V30 15302 C 1415.03 -4.38057 4.27519 0
M  V30 15303 N 1414.16 -5.5841 4.25585 0
M  V30 15304 H 1419 -1.41185 2.62433 0
M  V30 15305 H 1416.54 -0.686537 1.30096 0
M  V30 15306 H 1418.5 -3.75626 1.81552 0
M  V30 15307 H 1417.13 -3.10651 0.877251 0
M  V30 15308 H 1416.18 -2.18409 3.11451 0
M  V30 15309 H 1417.49 -3.04075 3.95398 0
M  V30 15310 H 1416.65 -5.22782 3.07871 0
M  V30 15311 H 1415.39 -4.38462 2.13548 0
M  V30 15312 H 1414.39 -3.48087 4.25577 0
M  V30 15313 H 1415.62 -4.35705 5.20901 0
M  V30 15314 H 1413.56 -5.63255 3.36274 0
M  V30 15315 H 1413.48 -5.58677 5.09328 0
M  V30 15316 H 1414.75 -6.4892 4.31884 0
M  V30 15317 N 1418.98 -1.3968 -0.729882 0
M  V30 15318 C 1420.2 -1.40654 -1.52418 0
M  V30 15319 C 1420.63 -0.00428997 -1.881 0
M  V30 15320 O 1419.98 0.984023 -1.52272 0
M  V30 15321 C 1420.03 -2.29057 -2.78506 0
M  V30 15322 O 1419.14 -1.72397 -3.74637 0
M  V30 15323 H 1418.48 -0.478761 -0.460091 0
M  V30 15324 H 1421.01 -1.83738 -0.900087 0
M  V30 15325 H 1421.02 -2.43748 -3.27187 0
M  V30 15326 H 1419.69 -3.30961 -2.51868 0
M  V30 15327 H 1418.27 -1.66977 -3.33426 0
M  V30 15328 N 1420.45 0.960609 -1.2494 0
M  V30 15329 C 1421.42 2.03791 -1.04891 0
M  V30 15330 C 1422.42 1.608 -0.00375792 0
M  V30 15331 O 1423.61 1.72463 -0.24539 0
M  V30 15332 C 1420.74 3.35733 -0.591309 0
M  V30 15333 H 1421.93 2.2301 -2.00516 0
M  V30 15334 H 1419.49 1.13686 -1.07263 0
M  V30 15335 H 1420.22 3.22207 0.367816 0
M  V30 15336 H 1420.01 3.68283 -1.34574 0
M  V30 15337 H 1421.5 4.14921 -0.472283 0
M  V30 15338 N 1421.93 1.0643 1.16234 0
M  V30 15339 C 1422.9 0.680383 2.18869 0
M  V30 15340 C 1423.9 -0.274591 1.58438 0
M  V30 15341 O 1425.09 -0.0567907 1.74107 0
M  V30 15342 C 1422.22 0.00134091 3.409 0
M  V30 15343 H 1423.41 1.58894 2.54347 0
M  V30 15344 H 1420.96 0.859688 1.30534 0
M  V30 15345 H 1421.7 -0.919903 3.1098 0
M  V30 15346 H 1421.48 0.688057 3.86016 0
M  V30 15347 H 1422.97 -0.252938 4.16833 0
M  V30 15348 N 1423.41 -1.329 0.847073 0
M  V30 15349 C 1424.82 -1.79813 0.502394 0
M  V30 15350 C 1425.17 -1.70017 -0.979218 0
M  V30 15351 O 1424.3 -1.25427 -1.76344 0
M  V30 15352 C 1424.89 -3.26485 0.905154 0
M  V30 15353 C 1423.45 -3.71383 0.612489 0
M  V30 15354 C 1422.6 -2.54157 1.10903 0
M  V30 15355 H 1425.55 -1.20306 1.035 0
M  V30 15356 H 1425.57 -3.79872 0.218476 0
M  V30 15357 H 1425.08 -3.33583 1.98353 0
M  V30 15358 H 1423.18 -3.69806 -0.45548 0
M  V30 15359 H 1423.3 -4.64507 1.17347 0
M  V30 15360 H 1421.66 -2.49134 0.529576 0
M  V30 15361 H 1422.44 -2.64013 2.19435 0
M  V30 15362 N 1424.89 -0.604284 -1.45555 0
M  V30 15363 C 1425.8 0.118409 -2.34301 0
M  V30 15364 C 1426.81 0.863807 -1.51044 0
M  V30 15365 O 1427.99 0.822138 -1.83856 0
M  V30 15366 C 1425.06 1.10538 -3.28606 0
M  V30 15367 C 1424.12 0.362301 -4.27768 0
M  V30 15368 C 1423.35 1.30226 -5.17568 0
M  V30 15369 O 1423.57 2.53991 -5.10729 0
M  V30 15370 O 1422.51 0.801116 -5.96545 0
M  V30 15371 H 1426.33 -0.610816 -2.97494 0
M  V30 15372 H 1423.92 -0.364562 -1.44884 0
M  V30 15373 H 1425.8 1.67392 -3.86727 0
M  V30 15374 H 1424.47 1.81569 -2.67982 0
M  V30 15375 H 1423.38 -0.248616 -3.73273 0
M  V30 15376 H 1424.71 -0.307454 -4.91239 0
M  V30 15377 N 1426.37 1.53816 -0.343257 0
M  V30 15378 C 1427.6 2.05028 0.254375 0
M  V30 15379 C 1428 1.21793 1.44786 0
M  V30 15380 O 1427.35 0.246075 1.82044 0
M  V30 15381 C 1427.41 3.5194 0.733364 0
M  V30 15382 C 1427.07 4.5573 -0.340434 0
M  V30 15383 C 1428.07 5.06261 -1.18304 0
M  V30 15384 C 1425.76 4.99862 -0.494277 0
M  V30 15385 C 1427.75 5.99504 -2.16503 0
M  V30 15386 C 1425.44 5.92916 -1.47967 0
M  V30 15387 C 1426.43 6.42625 -2.3135 0
M  V30 15388 O 1426.12 7.33848 -3.28211 0
M  V30 15389 H 1425.85 0.673922 0.0529695 0
M  V30 15390 H 1428.41 1.99387 -0.493352 0
M  V30 15391 H 1426.64 3.55044 1.53233 0
M  V30 15392 H 1428.33 3.86124 1.25151 0
M  V30 15393 H 1429.09 4.7293 -1.07527 0
M  V30 15394 H 1424.97 4.60772 0.144904 0
M  V30 15395 H 1428.52 6.38227 -2.81624 0
M  V30 15396 H 1424.41 6.25662 -1.588 0
M  V30 15397 H 1425.18 7.51781 -3.23679 0
M  V30 15398 N 1427.84 0.0718701 1.57436 0
M  V30 15399 C 1429.07 -0.606253 1.97819 0
M  V30 15400 C 1429.49 -1.63144 0.950233 0
M  V30 15401 O 1428.84 -1.82391 -0.0631051 0
M  V30 15402 C 1428.9 -1.27476 3.38278 0
M  V30 15403 O 1428.62 -0.290603 4.37135 0
M  V30 15404 C 1430.12 -2.0407 3.93536 0
M  V30 15405 H 1427.34 -0.164305 0.650573 0
M  V30 15406 H 1429.88 0.144295 2.0399 0
M  V30 15407 H 1428.04 -1.97639 3.33193 0
M  V30 15408 H 1428.45 -0.77022 5.18814 0
M  V30 15409 H 1429.92 -2.46237 4.94036 0
M  V30 15410 H 1430.4 -2.89728 3.30083 0
M  V30 15411 H 1431.01 -1.38773 4.02022 0
M  V30 15412 N 1429.32 -1.56304 -0.201686 0
M  V30 15413 C 1430.25 -1.97046 -1.25281 0
M  V30 15414 C 1431.23 -0.841458 -1.47829 0
M  V30 15415 O 1432.42 -1.10529 -1.59678 0
M  V30 15416 C 1429.55 -2.30429 -2.59845 0
M  V30 15417 C 1428.5 -3.46006 -2.5192 0
M  V30 15418 C 1427.83 -3.65047 -3.90697 0
M  V30 15419 C 1429.13 -4.80391 -2.04992 0
M  V30 15420 H 1430.82 -2.85099 -0.914272 0
M  V30 15421 H 1428.37 -1.37166 -0.438359 0
M  V30 15422 H 1430.32 -2.57525 -3.33555 0
M  V30 15423 H 1429.05 -1.39251 -2.95426 0
M  V30 15424 H 1427.7 -3.18991 -1.80667 0
M  V30 15425 H 1427.35 -2.71211 -4.2362 0
M  V30 15426 H 1427.05 -4.42796 -3.86271 0
M  V30 15427 H 1428.58 -3.94512 -4.66039 0
M  V30 15428 H 1429.99 -5.06561 -2.68456 0
M  V30 15429 H 1428.39 -5.61563 -2.11582 0
M  V30 15430 H 1429.46 -4.74416 -1.00288 0
M  V30 15431 N 1430.8 0.469154 -1.50455 0
M  V30 15432 C 1432.22 0.803067 -1.37924 0
M  V30 15433 C 1432.42 1.96708 -0.436837 0
M  V30 15434 O 1431.47 2.52216 0.119823 0
M  V30 15435 C 1432.79 1.11332 -2.79331 0
M  V30 15436 C 1434.33 1.21965 -2.88259 0
M  V30 15437 C 1434.81 1.56302 -4.30504 0
M  V30 15438 N 1436.3 1.6329 -4.33464 0
M  V30 15439 C 1437.03 1.91367 -5.40524 0
M  V30 15440 N 1436.53 2.17451 -6.57789 0
M  V30 15441 N 1438.32 1.92885 -5.2797 0
M  V30 15442 H 1430.47 -0.297928 -2.103 0
M  V30 15443 H 1432.74 -0.0707794 -0.945354 0
M  V30 15444 H 1432.44 0.331052 -3.50138 0
M  V30 15445 H 1432.32 2.04903 -3.16693 0
M  V30 15446 H 1434.7 1.99259 -2.17669 0
M  V30 15447 H 1434.79 0.263692 -2.54437 0
M  V30 15448 H 1434.43 0.795479 -5.01632 0
M  V30 15449 H 1434.36 2.53052 -4.61814 0
M  V30 15450 H 1436.85 1.45164 -3.48907 0
M  V30 15451 H 1437.16 2.38154 -7.35189 0
M  V30 15452 H 1435.51 2.14839 -6.60961 0
M  V30 15453 H 1438.7 1.72005 -4.35353 0
M  V30 15454 H 1438.87 2.1443 -6.11493 0
M  V30 15455 N 1432.28 1.40065 0.722464 0
M  V30 15456 C 1433.51 1.41271 1.51163 0
M  V30 15457 C 1433.92 0.0105425 1.88797 0
M  V30 15458 O 1433.28 -0.963867 1.5497 0
M  V30 15459 C 1433.33 2.29713 2.79131 0
M  V30 15460 O 1433.05 3.6447 2.43091 0
M  V30 15461 C 1434.55 2.39437 3.73075 0
M  V30 15462 H 1431.77 0.482086 0.466727 0
M  V30 15463 H 1434.32 1.84033 0.891736 0
M  V30 15464 H 1432.47 1.9033 3.37421 0
M  V30 15465 H 1432.88 4.11371 3.25383 0
M  V30 15466 H 1434.36 3.05543 4.59726 0
M  V30 15467 H 1434.84 1.41731 4.15703 0
M  V30 15468 H 1435.44 2.79342 3.20699 0
M  V30 15469 N 1433.76 -0.95397 1.25448 0
M  V30 15470 C 1435.17 -1.22516 1.02284 0
M  V30 15471 C 1435.37 -1.99816 -0.259933 0
M  V30 15472 O 1434.43 -2.33022 -0.972479 0
M  V30 15473 C 1435.74 -1.9989 2.24643 0
M  V30 15474 C 1437.29 -2.1293 2.29412 0
M  V30 15475 C 1437.77 -2.93703 3.51429 0
M  V30 15476 N 1439.26 -3.01281 3.51829 0
M  V30 15477 C 1439.99 -3.64174 4.42905 0
M  V30 15478 N 1439.49 -4.28673 5.44253 0
M  V30 15479 N 1441.28 -3.61321 4.30585 0
M  V30 15480 H 1433.43 -0.436859 2.07859 0
M  V30 15481 H 1435.69 -0.255744 0.912852 0
M  V30 15482 H 1435.4 -1.50489 3.17877 0
M  V30 15483 H 1435.27 -3.00593 2.27868 0
M  V30 15484 H 1437.66 -2.61528 1.367 0
M  V30 15485 H 1437.74 -1.1153 2.30206 0
M  V30 15486 H 1437.39 -2.45795 4.44463 0
M  V30 15487 H 1437.32 -3.95331 3.47881 0
M  V30 15488 H 1439.81 -2.55414 2.78517 0
M  V30 15489 H 1440.12 -4.74522 6.09958 0
M  V30 15490 H 1438.47 -4.27299 5.48125 0
M  V30 15491 H 1441.66 -3.10118 3.50634 0
M  V30 15492 H 1441.83 -4.1005 5.0176 0
M  V30 15493 N 1435.24 -1.07045 -1.15668 0
M  V30 15494 C 1436.48 -0.786751 -1.85723 0
M  V30 15495 C 1436.8 0.689604 -1.83041 0
M  V30 15496 O 1438 1.08796 -2.48748 0
M  V30 15497 C 1436.46 -1.35729 -3.33325 0
M  V30 15498 C 1436.07 -2.86444 -3.44462 0
M  V30 15499 C 1437.81 -1.15148 -4.08584 0
M  V30 15500 C 1435.72 -3.36705 -4.86193 0
M  V30 15501 H 1434.65 -0.29063 -0.695737 0
M  V30 15502 H 1437.3 -1.29012 -1.30492 0
M  V30 15503 H 1435.68 -0.781671 -3.88209 0
M  V30 15504 H 1436.86 -3.50023 -2.997 0
M  V30 15505 H 1435.17 -3.0578 -2.82644 0
M  V30 15506 H 1437.77 -1.50179 -5.13177 0
M  V30 15507 H 1438.11 -0.0903159 -4.16202 0
M  V30 15508 H 1438.64 -1.6933 -3.59962 0
M  V30 15509 H 1435.38 -4.42333 -4.83758 0
M  V30 15510 H 1434.9 -2.77877 -5.31549 0
M  V30 15511 H 1436.58 -3.32478 -5.55038 0
M  V30 15512 N 1436.71 1.32449 -0.85411 0
M  V30 15513 C 1437.96 1.97962 -0.467177 0
M  V30 15514 C 1438.31 1.66368 0.966409 0
M  V30 15515 O 1437.61 0.941277 1.66885 0
M  V30 15516 C 1437.8 3.51577 -0.642499 0
M  V30 15517 C 1437.63 3.98099 -2.09158 0
M  V30 15518 C 1436.4 4.25207 -2.72996 0
M  V30 15519 C 1438.6 4.13207 -3.0621 0
M  V30 15520 N 1436.58 4.57973 -4.0882 0
M  V30 15521 C 1437.95 4.49504 -4.2702 0
M  V30 15522 C 1440.01 3.95539 -3.02412 0
M  V30 15523 C 1438.71 4.69978 -5.4453 0
M  V30 15524 C 1440.74 4.17197 -4.19167 0
M  V30 15525 C 1440.1 4.5381 -5.38735 0
M  V30 15526 H 1436.2 0.75051 -0.21968 0
M  V30 15527 H 1438.78 1.60279 -1.10538 0
M  V30 15528 H 1436.95 3.88385 -0.033996 0
M  V30 15529 H 1438.68 4.04071 -0.225515 0
M  V30 15530 H 1435.44 4.17258 -2.24038 0
M  V30 15531 H 1435.86 4.78541 -4.78881 0
M  V30 15532 H 1440.5 3.66334 -2.1109 0
M  V30 15533 H 1438.22 4.98037 -6.36384 0
M  V30 15534 H 1441.81 4.0503 -4.17663 0
M  V30 15535 H 1440.69 4.70233 -6.27575 0
M  V30 15536 N 1438.19 0.611994 1.45232 0
M  V30 15537 C 1439.42 0.113618 2.07089 0
M  V30 15538 C 1439.84 -1.1947 1.45288 0
M  V30 15539 O 1439.2 -1.72845 0.547207 0
M  V30 15540 C 1439.25 -0.00789978 3.60599 0
M  V30 15541 O 1438.35 -1.05697 3.98625 0
M  V30 15542 H 1437.69 0.076066 0.659629 0
M  V30 15543 H 1440.22 0.843253 1.86415 0
M  V30 15544 H 1440.23 -0.204692 4.07486 0
M  V30 15545 H 1438.91 0.947386 4.04966 0
M  V30 15546 H 1437.48 -0.836291 3.63401 0
M  V30 15547 N 1439.67 -1.53632 0.351409 0
M  V30 15548 C 1440.89 -2.0593 -0.246501 0
M  V30 15549 C 1441.32 -1.22419 -1.42812 0
M  V30 15550 O 1440.68 -0.239811 -1.79707 0
M  V30 15551 C 1440.73 -3.55021 -0.631862 0
M  V30 15552 O 1439.83 -3.74317 -1.73092 0
M  V30 15553 H 1439.17 -0.662839 -0.0392424 0
M  V30 15554 H 1441.7 -1.98196 0.507904 0
M  V30 15555 H 1441.71 -3.97795 -0.906831 0
M  V30 15556 H 1440.39 -4.15251 0.232224 0
M  V30 15557 H 1438.96 -3.43444 -1.4526 0
M  V30 15558 N 1441.15 -0.0802183 -1.57396 0
M  V30 15559 C 1442.08 0.881426 -2.16225 0
M  V30 15560 C 1443.06 1.30459 -1.09154 0
M  V30 15561 O 1444.24 1.37413 -1.37227 0
M  V30 15562 C 1441.37 2.14599 -2.73065 0
M  V30 15563 C 1440.33 1.86195 -3.85377 0
M  V30 15564 C 1439.65 3.19354 -4.28856 0
M  V30 15565 C 1440.95 1.16059 -5.09242 0
M  V30 15566 H 1442.65 0.391325 -2.96832 0
M  V30 15567 H 1440.19 0.186785 -1.42783 0
M  V30 15568 H 1442.15 2.82297 -3.12868 0
M  V30 15569 H 1440.87 2.65866 -1.89691 0
M  V30 15570 H 1439.53 1.209 -3.46091 0
M  V30 15571 H 1439.18 3.68479 -3.42392 0
M  V30 15572 H 1438.88 3.01137 -5.04569 0
M  V30 15573 H 1440.4 3.88235 -4.71281 0
M  V30 15574 H 1441.82 1.7384 -5.46308 0
M  V30 15575 H 1440.21 1.08072 -5.90288 0
M  V30 15576 H 1441.28 0.14098 -4.84695 0
M  V30 15577 N 1442.63 1.56409 0.193394 0
M  V30 15578 C 1444.04 1.50032 0.544298 0
M  V30 15579 C 1444.24 0.780546 1.85768 0
M  V30 15580 O 1443.3 0.331769 2.50311 0
M  V30 15581 C 1444.61 2.94705 0.597463 0
M  V30 15582 C 1446.16 3.05386 0.686179 0
M  V30 15583 C 1446.63 4.51473 0.770439 0
M  V30 15584 N 1448.12 4.55631 0.833921 0
M  V30 15585 C 1448.86 5.65982 0.919314 0
M  V30 15586 N 1448.36 6.8602 0.966904 0
M  V30 15587 N 1450.15 5.539 0.956634 0
M  V30 15588 H 1442.3 2.01619 -0.668096 0
M  V30 15589 H 1444.56 0.917589 -0.238191 0
M  V30 15590 H 1444.27 3.50431 -0.298509 0
M  V30 15591 H 1444.14 3.48151 1.45157 0
M  V30 15592 H 1446.53 2.49708 1.57258 0
M  V30 15593 H 1446.61 2.55062 -0.194165 0
M  V30 15594 H 1446.25 5.07777 -0.111619 0
M  V30 15595 H 1446.18 4.99531 1.66661 0
M  V30 15596 H 1448.68 3.69198 0.80632 0
M  V30 15597 H 1448.99 7.6587 1.03262 0
M  V30 15598 H 1447.33 6.88674 0.935552 0
M  V30 15599 H 1450.52 4.59044 0.916304 0
M  V30 15600 H 1450.7 6.39926 1.01972 0
M  V30 15601 N 1444.1 -0.461169 1.50702 0
M  V30 15602 C 1445.33 -1.24019 1.66235 0
M  V30 15603 C 1445.75 -1.84827 0.349388 0
M  V30 15604 O 1445.11 -1.67743 -0.687888 0
M  V30 15605 C 1445.16 -2.31743 2.76274 0
M  V30 15606 O 1444.26 -3.3664 2.38217 0
M  V30 15607 H 1443.6 -0.364424 0.55506 0
M  V30 15608 H 1446.13 -0.547636 1.97135 0
M  V30 15609 H 1446.14 -2.76902 2.99649 0
M  V30 15610 H 1444.82 -1.86858 3.7156 0
M  V30 15611 H 1443.4 -2.97123 2.25327 0
M  V30 15612 N 1445.58 -1.40446 -0.715026 0
M  V30 15613 C 1446.51 -1.36673 -1.83993 0
M  V30 15614 C 1447.53 -0.272038 -1.60511 0
M  V30 15615 O 1448.72 -0.532425 -1.70375 0
M  V30 15616 C 1445.82 -1.10423 -3.20406 0
M  V30 15617 C 1444.99 -2.31557 -3.71079 0
M  V30 15618 C 1444.05 -2.01459 -4.86108 0
M  V30 15619 O 1443.07 -2.7433 -4.9873 0
M  V30 15620 N 1444.28 -0.992899 -5.71946 0
M  V30 15621 H 1447.04 -2.3362 -1.87728 0
M  V30 15622 H 1444.6 -1.34807 -0.896586 0
M  V30 15623 H 1446.59 -0.88273 -3.94956 0
M  V30 15624 H 1445.16 -0.221408 -3.11815 0
M  V30 15625 H 1444.38 -2.69534 -2.87655 0
M  V30 15626 H 1445.67 -3.1231 -4.01671 0
M  V30 15627 H 1445.07 -0.389387 -5.64358 0
M  V30 15628 H 1443.63 -0.831299 -6.46477 0
M  V30 15629 N 1447.06 0.947303 -1.25952 0
M  V30 15630 C 1448.29 1.7273 -1.13895 0
M  V30 15631 C 1448.7 1.86296 0.306488 0
M  V30 15632 O 1448.06 1.36594 1.2103 0
M  V30 15633 C 1448.11 3.13727 -1.79604 0
M  V30 15634 O 1447.83 3.00816 -3.18499 0
M  V30 15635 C 1449.33 4.0797 -1.73422 0
M  V30 15636 H 1446.55 0.54102 -0.39691 0
M  V30 15637 H 1449.1 1.18797 -1.66456 0
M  V30 15638 H 1447.25 3.6458 -1.30997 0
M  V30 15639 H 1447.67 3.89813 -3.50922 0
M  V30 15640 H 1449.14 5.04487 -2.24047 0
M  V30 15641 H 1449.62 4.33594 -0.699481 0
M  V30 15642 H 1450.22 3.63035 -2.21553 0
M  V30 15643 N 1448.54 1.07657 1.15099 0
M  V30 15644 C 1449.47 0.721201 2.22083 0
M  V30 15645 C 1450.45 -0.292808 1.67561 0
M  V30 15646 O 1451.63 -0.164872 1.93499 0
M  V30 15647 C 1448.76 0.12153 3.47087 0
M  V30 15648 C 1447.72 1.06303 4.14588 0
M  V30 15649 C 1447.04 0.325964 5.33706 0
M  V30 15650 C 1448.34 2.39796 4.63999 0
M  V30 15651 H 1450.04 1.61566 2.52065 0
M  V30 15652 H 1447.58 0.778282 1.21156 0
M  V30 15653 H 1449.54 -0.139037 4.21171 0
M  V30 15654 H 1448.26 -0.808022 3.16447 0
M  V30 15655 H 1446.92 1.30858 3.4245 0
M  V30 15656 H 1446.57 -0.607147 4.99322 0
M  V30 15657 H 1446.27 0.953552 5.79811 0
M  V30 15658 H 1447.79 0.0732695 6.10556 0
M  V30 15659 H 1449.21 2.19552 5.29594 0
M  V30 15660 H 1447.6 2.98178 5.20778 0
M  V30 15661 H 1448.67 3.01876 3.79472 0
M  V30 15662 N 1450.02 -1.31994 0.861122 0
M  V30 15663 C 1451.25 -2.00919 0.481167 0
M  V30 15664 C 1451.65 -1.64851 -0.928488 0
M  V30 15665 O 1451 -0.86916 -1.61837 0
M  V30 15666 C 1451.06 -3.55297 0.548091 0
M  V30 15667 C 1450.72 -4.14813 1.91779 0
M  V30 15668 C 1451.72 -4.32567 2.88412 0
M  V30 15669 C 1449.41 -4.50742 2.21669 0
M  V30 15670 C 1451.4 -4.85428 4.13084 0
M  V30 15671 C 1449.09 -5.03306 3.46593 0
M  V30 15672 C 1450.08 -5.20598 4.42116 0
M  V30 15673 O 1449.77 -5.72037 5.64827 0
M  V30 15674 H 1449.5 -0.649663 0.186853 0
M  V30 15675 H 1452.06 -1.69401 1.16157 0
M  V30 15676 H 1450.29 -3.86237 -0.18919 0
M  V30 15677 H 1451.98 -4.05488 0.182821 0
M  V30 15678 H 1452.74 -4.05137 2.66625 0
M  V30 15679 H 1448.62 -4.36563 1.48099 0
M  V30 15680 H 1452.17 -4.98841 4.87651 0
M  V30 15681 H 1448.06 -5.30169 3.68227 0
M  V30 15682 H 1448.83 -5.9042 5.66875 0
M  V30 15683 N 1451.49 -0.619688 -1.44906 0
M  V30 15684 C 1452.91 -0.284338 -1.57047 0
M  V30 15685 C 1453.11 1.21284 -1.60911 0
M  V30 15686 O 1452.17 1.99642 -1.54594 0
M  V30 15687 C 1453.48 -0.966179 -2.84755 0
M  V30 15688 C 1455.03 -0.943239 -2.98449 0
M  V30 15689 C 1455.5 -1.60532 -4.28945 0
M  V30 15690 N 1456.99 -1.57138 -4.35732 0
M  V30 15691 C 1457.73 -2.05271 -5.35399 0
M  V30 15692 N 1457.22 -2.61543 -6.41535 0
M  V30 15693 N 1459.02 -1.95967 -5.26833 0
M  V30 15694 H 1451.17 -1.59167 -1.40641 0
M  V30 15695 H 1453.43 -0.667458 -0.673204 0
M  V30 15696 H 1453.14 -2.02086 -2.87844 0
M  V30 15697 H 1453.01 -0.49688 -3.73913 0
M  V30 15698 H 1455.4 0.102932 -2.9492 0
M  V30 15699 H 1455.48 -1.45092 -2.1067 0
M  V30 15700 H 1455.12 -2.65088 -4.33233 0
M  V30 15701 H 1455.05 -1.07256 -5.15561 0
M  V30 15702 H 1457.54 -1.16042 -3.59643 0
M  V30 15703 H 1457.86 -2.96033 -7.13852 0
M  V30 15704 H 1456.2 -2.65588 -6.42252 0
M  V30 15705 H 1459.39 -1.51734 -4.42825 0
M  V30 15706 H 1459.57 -2.33791 -6.04356 0
M  V30 15707 N 1452.97 1.53444 -0.359552 0
M  V30 15708 C 1454.2 2.05584 0.232953 0
M  V30 15709 C 1454.62 1.23347 1.42937 0
M  V30 15710 O 1453.97 0.272662 1.80452 0
M  V30 15711 C 1454.02 3.55926 0.632359 0
M  V30 15712 O 1453.74 4.35045 -0.516494 0
M  V30 15713 C 1455.25 4.24301 1.28389 0
M  V30 15714 H 1452.47 0.669676 0.042132 0
M  V30 15715 H 1455.01 1.97878 -0.516176 0
M  V30 15716 H 1453.16 3.63802 1.33141 0
M  V30 15717 H 1453.58 5.24138 -0.194906 0
M  V30 15718 H 1455.05 5.30832 1.51397 0
M  V30 15719 H 1455.53 3.77644 2.24236 0
M  V30 15720 H 1456.14 4.20661 0.626438 0
M  V30 15721 N 1454.45 0.0885642 1.57351 0
M  V30 15722 C 1455.7 -0.57633 1.93291 0
M  V30 15723 C 1456.01 -1.69743 0.971934 0
M  V30 15724 O 1457.22 -2.42304 1.22479 0
M  V30 15725 C 1455.67 -1.07655 3.43422 0
M  V30 15726 C 1455.28 0.0144488 4.47998 0
M  V30 15727 C 1457.03 -1.71455 3.88334 0
M  V30 15728 C 1454.93 -0.500758 5.89276 0
M  V30 15729 H 1453.86 -0.219055 0.721478 0
M  V30 15730 H 1456.51 0.163511 1.8277 0
M  V30 15731 H 1454.9 -1.86988 3.49072 0
M  V30 15732 H 1456.07 0.789696 4.53983 0
M  V30 15733 H 1454.39 0.557237 4.12655 0
M  V30 15734 H 1456.98 -2.11063 4.91281 0
M  V30 15735 H 1457.33 -2.58116 3.26621 0
M  V30 15736 H 1457.86 -0.987159 3.85357 0
M  V30 15737 H 1454.6 0.329088 6.54673 0
M  V30 15738 H 1454.12 -1.24315 5.86776 0
M  V30 15739 H 1455.8 -0.971821 6.3966 0
M  V30 15740 N 1455.93 -1.56509 -0.185096 0
M  V30 15741 C 1457.15 -1.85683 -0.923941 0
M  V30 15742 C 1457.58 -0.673315 -1.75636 0
M  V30 15743 O 1456.94 0.3778 -1.7732 0
M  V30 15744 C 1456.98 -3.13165 -1.78774 0
M  V30 15745 O 1456.09 -2.9442 -2.88775 0
M  V30 15746 H 1455.43 -0.611139 -0.259624 0
M  V30 15747 H 1457.96 -2.0374 -0.187393 0
M  V30 15748 H 1457.97 -3.44216 -2.19042 0
M  V30 15749 H 1456.64 -3.98922 -1.17619 0
M  V30 15750 H 1455.22 -2.7469 -2.5219 0
M  V30 15751 N 1457.41 0.45317 -1.50944 0
M  V30 15752 C 1458.65 1.20151 -1.62506 0
M  V30 15753 C 1458.98 1.92085 -0.335927 0
M  V30 15754 O 1458.25 1.84889 0.64751 0
M  V30 15755 H 1456.83 0.446502 -0.59887 0
M  V30 15756 H 1459.49 0.521103 -1.87804 0
M  V30 15757 H 1458.58 1.93972 -2.44502 0
M  V30 15758 N 1458.88 1.40823 0.707568 0
M  V30 15759 C 1460.13 1.39535 1.46753 0
M  V30 15760 C 1460.46 0.000370511 1.945 0
M  V30 15761 O 1459.71 -0.985628 1.69068 0
M  V30 15762 C 1460.01 2.33829 2.70294 0
M  V30 15763 C 1459.68 3.8092 2.41269 0
M  V30 15764 C 1458.34 4.20993 2.33063 0
M  V30 15765 C 1460.69 4.73839 2.17086 0
M  V30 15766 C 1458.02 5.52009 1.98754 0
M  V30 15767 C 1460.37 6.05161 1.84289 0
M  V30 15768 C 1459.04 6.44268 1.74571 0
M  V30 15769 H 1458.31 0.510593 0.537006 0
M  V30 15770 H 1460.95 1.73536 0.809789 0
M  V30 15771 H 1459.26 1.9304 3.40944 0
M  V30 15772 H 1460.96 2.30111 3.28405 0
M  V30 15773 H 1457.55 3.49175 2.48545 0
M  V30 15774 H 1461.73 4.43691 2.22377 0
M  V30 15775 H 1456.99 5.81202 1.89774 0
M  V30 15776 H 1461.16 6.7667 1.64593 0
M  V30 15777 H 1458.79 7.45703 1.47753 0
M  V30 15778 N 1460.36 -0.94061 1.26453 0
M  V30 15779 C 1461.3 -2.03945 1.0238 0
M  V30 15780 C 1462.27 -1.62518 -0.051622 0
M  V30 15781 O 1463.46 -1.88281 0.09091 0
M  V30 15782 C 1460.58 -3.34197 0.550464 0
M  V30 15783 C 1459.63 -3.94596 1.61853 0
M  V30 15784 S 1460.46 -4.28803 3.20762 0
M  V30 15785 C 1461.62 -5.62154 2.75198 0
M  V30 15786 H 1461.85 -2.24051 1.95419 0
M  V30 15787 H 1459.39 -1.08207 1.10139 0
M  V30 15788 H 1461.34 -4.09516 0.284031 0
M  V30 15789 H 1460 -3.12034 -0.359649 0
M  V30 15790 H 1459.2 -4.8855 1.23835 0
M  V30 15791 H 1458.8 -3.25812 1.83637 0
M  V30 15792 H 1461.09 -6.40889 2.19697 0
M  V30 15793 H 1462.03 -6.05057 3.67847 0
M  V30 15794 H 1462.44 -5.22058 2.14745 0
M  V30 15795 N 1461.84 -1.08266 -1.14527 0
M  V30 15796 C 1462.79 -0.705807 -2.21633 0
M  V30 15797 C 1463.78 0.287758 -1.66938 0
M  V30 15798 O 1464.99 0.150479 -1.7937 0
M  V30 15799 H 1461.36 -0.210206 -0.722023 0
M  V30 15800 H 1463.33 -1.61855 -2.5069 0
M  V30 15801 C 1462.08 -0.129673 -3.47458 0
M  V30 15802 H 1461.41 -0.885365 -3.89873 0
M  V30 15803 H 1462.85 0.0962264 -4.23891 0
M  V30 15804 C 1461.31 1.13208 -3.1731 0
M  V30 15805 O 1461.84 2.21717 -3.34969 0
M  V30 15806 N 1460.04 1.0419 -2.7128 0
M  V30 15807 H 1459.59 0.15883 -2.5711 0
M  V30 15808 H 1459.55 1.88689 -2.51483 0
M  V30 15809 N 1463.32 1.31536 -0.86811 0
M  V30 15810 C 1464.55 2.00661 -0.491815 0
M  V30 15811 C 1464.96 1.65341 0.919733 0
M  V30 15812 O 1464.3 0.87773 1.61374 0
M  V30 15813 C 1464.36 3.55002 -0.566926 0
M  V30 15814 C 1464.03 4.1379 -1.93976 0
M  V30 15815 C 1465.02 4.31032 -2.90702 0
M  V30 15816 C 1462.71 4.4956 -2.24056 0
M  V30 15817 C 1464.7 4.8323 -4.15653 0
M  V30 15818 C 1462.39 5.01461 -3.49257 0
M  V30 15819 C 1463.39 5.18246 -4.44871 0
M  V30 15820 O 1463.08 5.69033 -5.67852 0
M  V30 15821 H 1462.81 0.648663 -0.190296 0
M  V30 15822 H 1465.36 1.68783 -1.17053 0
M  V30 15823 H 1463.59 3.86332 0.168704 0
M  V30 15824 H 1465.28 4.05385 -0.204323 0
M  V30 15825 H 1466.05 4.03717 -2.6877 0
M  V30 15826 H 1461.93 4.35772 -1.50412 0
M  V30 15827 H 1465.47 4.96247 -4.9029 0
M  V30 15828 H 1461.37 5.28209 -3.71033 0
M  V30 15829 H 1462.13 5.87405 -5.69998 0
M  V30 15830 N 1464.8 0.627364 1.44575 0
M  V30 15831 C 1466.02 0.135576 2.06956 0
M  V30 15832 C 1466.45 -1.17922 1.46547 0
M  V30 15833 O 1465.81 -1.72255 0.565509 0
M  V30 15834 C 1465.85 0.030347 3.60587 0
M  V30 15835 O 1464.96 -1.01464 3.99724 0
M  V30 15836 H 1464.3 0.083058 0.658785 0
M  V30 15837 H 1466.83 0.862977 1.8551 0
M  V30 15838 H 1466.84 -0.161461 4.0768 0
M  V30 15839 H 1465.51 0.990285 4.03938 0
M  V30 15840 H 1464.09 -0.797701 3.64268 0
M  V30 15841 N 1466.28 -1.53251 0.367684 0
M  V30 15842 C 1467.69 -1.59591 0.0167132 0
M  V30 15843 C 1467.89 -1.38272 -1.46571 0
M  V30 15844 O 1466.95 -1.18893 -2.22757 0
M  V30 15845 C 1468.26 -2.96932 0.474534 0
M  V30 15846 C 1469.81 -3.10047 0.428934 0
M  V30 15847 C 1470.28 -4.49804 0.862599 0
M  V30 15848 N 1471.77 -4.55925 0.817742 0
M  V30 15849 C 1472.51 -5.62256 1.12496 0
M  V30 15850 N 1472.01 -6.76332 1.50156 0
M  V30 15851 N 1473.8 -5.52251 1.04762 0
M  V30 15852 H 1465.95 -1.6536 1.33303 0
M  V30 15853 H 1468.21 -0.775681 0.544998 0
M  V30 15854 H 1467.92 -3.17679 1.50907 0
M  V30 15855 H 1467.79 -3.76948 -0.137752 0
M  V30 15856 H 1470.18 -2.89009 -0.596473 0
M  V30 15857 H 1470.26 -2.32034 1.07674 0
M  V30 15858 H 1469.9 -4.7158 1.88613 0
M  V30 15859 H 1469.83 -5.2625 0.19202 0
M  V30 15860 H 1472.33 -3.74017 0.540323 0
M  V30 15861 H 1472.64 -7.53412 1.72019 0
M  V30 15862 H 1470.98 -6.77718 1.54024 0
M  V30 15863 H 1474.17 -4.62011 0.752571 0
M  V30 15864 H 1474.35 -6.35022 1.29038 0
M  V30 15865 N 1467.75 -0.0969077 -1.57302 0
M  V30 15866 C 1468.72 0.846895 -2.1298 0
M  V30 15867 C 1469.72 1.20962 -1.05947 0
M  V30 15868 O 1470.91 1.13876 -1.31826 0
M  V30 15869 C 1468.04 2.14215 -2.65188 0
M  V30 15870 H 1469.23 0.363398 -2.9769 0
M  V30 15871 H 1466.78 0.152107 -1.55558 0
M  V30 15872 H 1467.52 2.67046 -1.84002 0
M  V30 15873 H 1467.3 1.89176 -3.43445 0
M  V30 15874 H 1468.79 2.81728 -3.08252 0
M  V30 15875 N 1469.23 1.56605 0.176793 0
M  V30 15876 C 1470.48 1.80875 0.892578 0
M  V30 15877 C 1470.79 0.673245 1.83648 0
M  V30 15878 O 1472 0.800732 2.59423 0
M  V30 15879 C 1470.46 3.20481 1.63768 0
M  V30 15880 C 1470.06 4.41885 0.737685 0
M  V30 15881 C 1471.81 3.54048 2.34202 0
M  V30 15882 C 1469.71 5.72512 1.48271 0
M  V30 15883 H 1468.64 0.674476 0.337042 0
M  V30 15884 H 1471.3 1.82922 0.145574 0
M  V30 15885 H 1469.68 3.12736 2.42924 0
M  V30 15886 H 1470.85 4.60797 -0.0165186 0
M  V30 15887 H 1469.17 4.16153 0.143277 0
M  V30 15888 H 1471.76 4.48886 2.90526 0
M  V30 15889 H 1472.11 2.78665 3.09276 0
M  V30 15890 H 1472.64 3.63322 1.61995 0
M  V30 15891 H 1469.38 6.5091 0.774399 0
M  V30 15892 H 1468.9 5.57586 2.21038 0
M  V30 15893 H 1470.58 6.14274 2.03165 0
M  V30 15894 N 1470.71 -0.445159 1.51182 0
M  V30 15895 C 1471.66 -1.53975 1.71931 0
M  V30 15896 C 1472.63 -1.56344 0.560865 0
M  V30 15897 O 1473.81 -1.73475 0.794414 0
M  V30 15898 C 1470.95 -2.91756 1.84316 0
M  V30 15899 C 1470.06 -2.98976 3.11829 0
M  V30 15900 C 1469.2 -4.27831 3.14855 0
M  V30 15901 C 1468.24 -4.2889 4.36715 0
M  V30 15902 N 1467.38 -5.49257 4.37334 0
M  V30 15903 H 1472.22 -1.35586 2.65368 0
M  V30 15904 H 1469.75 -0.658787 1.31523 0
M  V30 15905 H 1471.71 -3.7169 1.89479 0
M  V30 15906 H 1470.34 -3.08721 0.942947 0
M  V30 15907 H 1469.39 -2.11753 3.16014 0
M  V30 15908 H 1470.7 -2.95619 4.01759 0
M  V30 15909 H 1469.86 -5.16134 3.1889 0
M  V30 15910 H 1468.6 -4.33833 2.228 0
M  V30 15911 H 1467.6 -3.38982 4.32864 0
M  V30 15912 H 1468.83 -4.24558 5.30026 0
M  V30 15913 H 1466.77 -5.55995 3.48145 0
M  V30 15914 H 1466.69 -5.47748 5.21064 0
M  V30 15915 H 1467.96 -6.39613 4.45551 0
M  V30 15916 N 1472.19 -1.41197 -0.700089 0
M  V30 15917 C 1473.12 -1.45456 -1.8266 0
M  V30 15918 C 1474.1 -0.313719 -1.67182 0
M  V30 15919 O 1475.28 -0.524528 -1.86982 0
M  V30 15920 C 1472.41 -1.33161 -3.20758 0
M  V30 15921 C 1471.37 -2.4501 -3.50933 0
M  V30 15922 C 1470.69 -2.17782 -4.88339 0
M  V30 15923 C 1471.99 -3.87352 -3.50365 0
M  V30 15924 H 1473.69 -2.39735 -1.79353 0
M  V30 15925 H 1471.23 -1.1539 -0.861465 0
M  V30 15926 H 1473.19 -1.34754 -3.99274 0
M  V30 15927 H 1471.91 -0.353646 -3.2468 0
M  V30 15928 H 1470.57 -2.42692 -2.74766 0
M  V30 15929 H 1470.22 -1.1834 -4.88881 0
M  V30 15930 H 1469.92 -2.92728 -5.09494 0
M  V30 15931 H 1471.44 -2.21083 -5.6917 0
M  V30 15932 H 1472.86 -3.9141 -4.18893 0
M  V30 15933 H 1471.25 -4.61944 -3.83051 0
M  V30 15934 H 1472.32 -4.15827 -2.4943 0
M  V30 15935 N 1473.67 0.933891 -1.2695 0
M  V30 15936 C 1474.6 2.05078 -1.11649 0
M  V30 15937 C 1475.58 1.70089 -0.0196463 0
M  V30 15938 O 1476.76 1.93239 -0.193007 0
M  V30 15939 C 1473.89 3.38963 -0.756387 0
M  V30 15940 C 1472.85 3.88041 -1.80577 0
M  V30 15941 C 1472.17 5.18661 -1.2998 0
M  V30 15942 C 1473.47 4.12116 -3.2087 0
M  V30 15943 H 1475.17 2.18137 -2.05077 0
M  V30 15944 H 1472.71 1.04817 -0.987392 0
M  V30 15945 H 1474.66 4.1657 -0.63619 0
M  V30 15946 H 1473.39 3.25901 0.213607 0
M  V30 15947 H 1472.05 3.12622 -1.91477 0
M  V30 15948 H 1471.7 5.01985 -0.319442 0
M  V30 15949 H 1471.4 5.52467 -2.00134 0
M  V30 15950 H 1472.92 5.98844 -1.19242 0
M  V30 15951 H 1474.33 4.80312 -3.13006 0
M  V30 15952 H 1472.73 4.57218 -3.88679 0
M  V30 15953 H 1473.8 3.17633 -3.66384 0
M  V30 15954 N 1475.14 1.08871 1.13951 0
M  V30 15955 C 1476.37 0.841691 1.88677 0
M  V30 15956 C 1476.78 -0.610213 1.79089 0
M  V30 15957 O 1476.12 -1.4314 1.15138 0
M  V30 15958 C 1476.19 1.19077 3.39206 0
M  V30 15959 C 1475.85 2.64642 3.72577 0
M  V30 15960 C 1476.85 3.62892 3.72297 0
M  V30 15961 C 1474.53 3.00618 4.0241 0
M  V30 15962 C 1476.53 4.95148 4.01382 0
M  V30 15963 C 1474.21 4.33066 4.31158 0
M  V30 15964 C 1475.21 5.3014 4.30628 0
M  V30 15965 O 1474.9 6.60207 4.58675 0
M  V30 15966 H 1474.63 0.302896 0.604343 0
M  V30 15967 H 1477.19 1.4527 1.45209 0
M  V30 15968 H 1475.42 0.522784 3.8315 0
M  V30 15969 H 1477.1 0.923805 3.95248 0
M  V30 15970 H 1477.87 3.36442 3.4933 0
M  V30 15971 H 1473.75 2.25696 4.01973 0
M  V30 15972 H 1477.29 5.7091 4.00884 0
M  V30 15973 H 1473.19 4.59262 4.53595 0
M  V30 15974 H 1473.96 6.65593 4.7637 0
M  V30 15975 N 1476.62 -1.31073 0.875073 0
M  V30 15976 C 1478.04 -1.49162 0.567697 0
M  V30 15977 C 1478.24 -1.80435 -0.896969 0
M  V30 15978 O 1477.29 -1.88604 -1.67883 0
M  V30 15979 C 1478.61 -2.6219 1.47231 0
M  V30 15980 C 1480.15 -2.76072 1.47489 0
M  V30 15981 C 1480.63 -3.92202 2.36519 0
M  V30 15982 N 1482.12 -3.99497 2.34428 0
M  V30 15983 C 1482.86 -4.88639 3.00033 0
M  V30 15984 N 1482.35 -5.82647 3.74826 0
M  V30 15985 N 1484.14 -4.81926 2.89315 0
M  V30 15986 H 1476.3 -1.09045 1.82272 0
M  V30 15987 H 1478.56 -0.539291 0.77966 0
M  V30 15988 H 1478.26 -2.45872 2.51475 0
M  V30 15989 H 1478.14 -3.58446 1.17459 0
M  V30 15990 H 1480.53 -2.91801 0.440008 0
M  V30 15991 H 1480.61 -1.80468 1.81287 0
M  V30 15992 H 1480.25 -3.77231 3.40087 0
M  V30 15993 H 1480.18 -4.87125 2.00043 0
M  V30 15994 H 1482.67 -3.32241 1.80067 0
M  V30 15995 H 1482.98 -6.47406 4.22001 0
M  V30 15996 H 1481.33 -5.82609 3.78934 0
M  V30 15997 H 1484.52 -4.07462 2.30418 0
M  V30 15998 H 1484.69 -5.51192 3.40722 0
M  V30 15999 N 1478.1 -0.635022 -1.4424 0
M  V30 16000 C 1479.35 -0.141276 -2.02307 0
M  V30 16001 C 1479.68 1.23508 -1.49865 0
M  V30 16002 O 1478.95 1.82065 -0.684291 0
M  V30 16003 C 1479.24 -0.132196 -3.59857 0
M  V30 16004 C 1479.09 -1.54117 -4.22573 0
M  V30 16005 C 1480.41 0.541186 -4.3676 0
M  V30 16006 H 1477.53 -0.0528117 -0.735105 0
M  V30 16007 H 1480.17 -0.812239 -1.71763 0
M  V30 16008 H 1478.32 0.439156 -3.8601 0
M  V30 16009 H 1479.99 -2.16171 -4.07514 0
M  V30 16010 H 1478.24 -2.09389 -3.79919 0
M  V30 16011 H 1478.91 -1.48682 -5.31599 0
M  V30 16012 H 1481.38 0.0552603 -4.16063 0
M  V30 16013 H 1480.26 0.516742 -5.46462 0
M  V30 16014 H 1480.52 1.61222 -4.11655 0
M  V30 16015 N 1479.58 1.53054 -0.375806 0
M  V30 16016 C 1480.49 2.29772 0.47349 0
M  V30 16017 C 1481.5 1.36144 1.08355 0
M  V30 16018 O 1482.68 1.69208 1.09228 0
M  V30 16019 C 1479.75 3.07964 1.59245 0
M  V30 16020 C 1478.81 4.17277 1.00888 0
M  V30 16021 C 1478.04 4.91731 2.07451 0
M  V30 16022 O 1478.26 4.66143 3.28736 0
M  V30 16023 O 1477.2 5.77413 1.69936 0
M  V30 16024 H 1481.02 3.03324 -0.151105 0
M  V30 16025 H 1478.61 1.48744 -0.139895 0
M  V30 16026 H 1480.49 3.56759 2.24279 0
M  V30 16027 H 1479.16 2.37239 2.20226 0
M  V30 16028 H 1478.07 3.7271 0.322167 0
M  V30 16029 H 1479.4 4.90198 0.443483 0
M  V30 16030 N 1481.06 0.105248 1.57248 0
M  V30 16031 C 1482 -0.867443 2.1582 0
M  V30 16032 C 1483 -1.28508 1.10373 0
M  V30 16033 O 1484.2 -1.25842 1.287 0
M  V30 16034 H 1480.58 -0.2978 0.690521 0
M  V30 16035 H 1482.55 -0.348831 2.96354 0
M  V30 16036 C 1481.3 -2.11299 2.7613 0
M  V30 16037 H 1480.62 -1.80054 3.5696 0
M  V30 16038 H 1482.06 -2.77395 3.20668 0
M  V30 16039 C 1480.52 -2.89372 1.72527 0
M  V30 16040 O 1481.05 -3.84274 1.17032 0
M  V30 16041 N 1479.26 -2.53103 1.42784 0
M  V30 16042 H 1478.8 -1.75998 1.88102 0
M  V30 16043 H 1478.76 -3.05639 0.737035 0
M  V30 16044 N 1482.53 -1.56697 -0.168486 0
M  V30 16045 C 1483.95 -1.71808 -0.730674 0
M  V30 16046 C 1484.3 -0.716224 -1.8266 0
M  V30 16047 O 1483.42 0.121803 -2.16057 0
M  V30 16048 C 1484.02 -3.1151 -1.33217 0
M  V30 16049 C 1482.58 -3.28297 -1.84115 0
M  V30 16050 C 1481.72 -2.67757 -0.72122 0
M  V30 16051 H 1484.67 -1.58598 0.0569421 0
M  V30 16052 H 1484.69 -3.10318 -2.20189 0
M  V30 16053 H 1484.21 -3.84404 -0.53431 0
M  V30 16054 H 1482.31 -2.60364 -2.66536 0
M  V30 16055 H 1482.42 -4.3606 -1.98464 0
M  V30 16056 H 1480.78 -2.27644 -1.14239 0
M  V30 16057 H 1481.57 -3.43239 0.0648388 0
M  V30 16058 N 1484.01 0.437135 -1.51416 0
M  V30 16059 C 1484.92 1.55581 -1.75589 0
M  V30 16060 C 1485.94 1.61797 -0.640132 0
M  V30 16061 O 1487.11 1.79035 -0.922406 0
M  V30 16062 C 1484.18 2.91561 -1.87598 0
M  V30 16063 C 1483.24 2.9546 -3.11451 0
M  V30 16064 C 1482.47 4.24954 -3.22878 0
M  V30 16065 O 1482.7 5.17341 -2.40238 0
M  V30 16066 O 1481.63 4.35141 -4.15856 0
M  V30 16067 H 1485.46 1.38098 -2.70486 0
M  V30 16068 H 1483.04 0.620163 -1.3592 0
M  V30 16069 H 1484.92 3.72262 -1.97481 0
M  V30 16070 H 1483.6 3.09171 -0.958889 0
M  V30 16071 H 1482.51 2.13713 -3.07046 0
M  V30 16072 H 1483.84 2.82794 -4.0285 0
M  V30 16073 N 1485.49 1.41566 0.692592 0
M  V30 16074 C 1486.74 1.41292 1.4548 0
M  V30 16075 C 1487.07 0.0229093 1.94186 0
M  V30 16076 O 1486.34 -0.949849 1.6973 0
M  V30 16077 C 1486.63 2.42225 2.66457 0
M  V30 16078 C 1486.48 3.90345 2.23496 0
M  V30 16079 C 1487.8 2.40374 3.68658 0
M  V30 16080 H 1484.92 0.51453 0.527663 0
M  V30 16081 H 1487.56 1.72862 0.788598 0
M  V30 16082 H 1485.71 2.15435 3.23296 0
M  V30 16083 H 1487.38 4.2805 1.71962 0
M  V30 16084 H 1485.63 4.05068 1.55249 0
M  V30 16085 H 1486.3 4.56518 3.10314 0
M  V30 16086 H 1488.77 2.64156 3.21498 0
M  V30 16087 H 1487.65 3.13004 4.5091 0
M  V30 16088 H 1487.91 1.42338 4.1856 0
M  V30 16089 N 1486.97 -0.927146 1.27443 0
M  V30 16090 C 1488.21 -1.67738 1.13982 0
M  V30 16091 C 1488.55 -1.91653 -0.313511 0
M  V30 16092 O 1487.82 -1.50729 -1.22926 0
M  V30 16093 C 1488.11 -3.04357 1.92454 0
M  V30 16094 C 1487.96 -2.8768 3.45775 0
M  V30 16095 C 1489.28 -4.04696 1.72944 0
M  V30 16096 H 1486.4 -0.608749 0.415444 0
M  V30 16097 H 1489.04 -1.07587 1.56605 0
M  V30 16098 H 1487.19 -3.55702 1.56232 0
M  V30 16099 H 1488.86 -2.43449 3.9183 0
M  V30 16100 H 1487.1 -2.23011 3.72087 0
M  V30 16101 H 1487.77 -3.8464 3.95924 0
M  V30 16102 H 1490.25 -3.62364 2.04528 0
M  V30 16103 H 1489.13 -4.98276 2.30243 0
M  V30 16104 H 1489.39 -4.36878 0.677505 0
M  V30 16105 N 1488.45 -1.09474 -1.13372 0
M  V30 16106 C 1489.38 -0.692446 -2.1849 0
M  V30 16107 C 1490.39 0.265942 -1.60613 0
M  V30 16108 O 1491.58 0.0519189 -1.78424 0
M  V30 16109 C 1488.68 0.000306083 -3.389 0
M  V30 16110 C 1487.85 -0.979745 -4.26286 0
M  V30 16111 C 1486.91 -0.320309 -5.25224 0
M  V30 16112 O 1485.94 -0.968089 -5.60907 0
M  V30 16113 N 1487.14 0.92536 -5.73077 0
M  V30 16114 H 1489.91 -1.59681 -2.53618 0
M  V30 16115 H 1487.47 -0.982256 -1.28699 0
M  V30 16116 H 1489.46 0.45268 -4.0216 0
M  V30 16117 H 1488.03 0.806927 -3.02006 0
M  V30 16118 H 1487.25 -1.61067 -3.59793 0
M  V30 16119 H 1488.54 -1.64348 -4.81526 0
M  V30 16120 H 1487.93 1.47119 -5.46235 0
M  V30 16121 H 1486.49 1.32105 -6.38272 0
M  V30 16122 N 1489.92 1.30607 -0.882012 0
M  V30 16123 C 1490.86 2.26334 -0.291222 0
M  V30 16124 C 1491.84 1.51653 0.586522 0
M  V30 16125 O 1493.02 1.80681 0.537275 0
M  V30 16126 C 1490.15 3.33584 0.586482 0
M  V30 16127 C 1489.19 4.25924 -0.221535 0
M  V30 16128 S 1490.03 5.10791 -1.6079 0
M  V30 16129 C 1491.18 6.2155 -0.736638 0
M  V30 16130 H 1491.41 2.76096 -1.10265 0
M  V30 16131 H 1488.95 1.38558 -0.681255 0
M  V30 16132 H 1490.91 3.95842 1.08715 0
M  V30 16133 H 1489.57 2.82552 1.37198 0
M  V30 16134 H 1488.76 5.02004 0.448139 0
M  V30 16135 H 1488.36 3.68225 -0.654722 0
M  V30 16136 H 1490.65 6.77483 0.0476549 0
M  V30 16137 H 1491.6 6.92696 -1.46894 0
M  V30 16138 H 1492 5.63708 -0.298853 0
M  V30 16139 N 1491.4 0.642663 1.43901 0
M  V30 16140 C 1492.65 0.151778 2.0193 0
M  V30 16141 C 1492.98 -1.23052 1.50627 0
M  V30 16142 O 1492.23 -1.83305 0.685404 0
M  V30 16143 C 1492.53 0.100139 3.5726 0
M  V30 16144 C 1492.2 1.42276 4.27865 0
M  V30 16145 C 1490.86 1.78497 4.46869 0
M  V30 16146 C 1493.21 2.29526 4.67939 0
M  V30 16147 C 1490.54 3.01655 5.03211 0
M  V30 16148 C 1492.89 3.51966 5.25645 0
M  V30 16149 C 1491.56 3.88396 5.42867 0
M  V30 16150 H 1490.83 0.0555394 0.738916 0
M  V30 16151 H 1493.47 0.831273 1.72517 0
M  V30 16152 H 1491.78 -0.66277 3.86154 0
M  V30 16153 H 1493.47 -0.29638 3.99903 0
M  V30 16154 H 1490.06 1.13091 4.13411 0
M  V30 16155 H 1494.25 2.02835 4.52959 0
M  V30 16156 H 1489.5 3.29943 5.14731 0
M  V30 16157 H 1493.68 4.19799 5.55645 0
M  V30 16158 H 1491.31 4.83909 5.8629 0
M  V30 16159 N 1492.88 -1.52852 0.383918 0
M  V30 16160 C 1494.13 -2.01112 -0.199594 0
M  V30 16161 C 1494.45 -1.27237 -1.47769 0
M  V30 16162 O 1493.72 -0.390873 -1.91961 0
M  V30 16163 H 1492.3 -0.743047 -0.0767466 0
M  V30 16164 H 1494.96 -1.8799 0.51437 0
M  V30 16165 H 1494.06 -3.09347 -0.413627 0
M  V30 16166 N 1494.36 -0.113586 -1.5719 0
M  V30 16167 C 1495.61 0.544642 -1.94623 0
M  V30 16168 C 1495.93 1.6756 -0.997428 0
M  V30 16169 O 1495.2 1.95829 -0.0527521 0
M  V30 16170 H 1493.78 0.204186 -0.718552 0
M  V30 16171 H 1496.44 -0.181258 -1.94055 0
M  V30 16172 H 1495.54 0.942765 -2.9752 0
M  V30 16173 N 1495.84 1.56784 0.160173 0
M  V30 16174 C 1496.79 1.98199 1.21737 0
M  V30 16175 C 1497.78 0.872381 1.4521 0
M  V30 16176 O 1498.99 1.05753 1.45658 0
M  V30 16177 H 1495.36 0.630742 0.409474 0
M  V30 16178 H 1497.33 2.86295 0.841289 0
M  V30 16179 C 1496.08 2.36748 2.54648 0
M  V30 16180 H 1495.4 3.21676 2.37413 0
M  V30 16181 H 1496.84 2.69561 3.27281 0
M  V30 16182 C 1495.3 1.2151 3.14224 0
M  V30 16183 O 1495.83 0.508739 3.98465 0
M  V30 16184 N 1494.04 0.982766 2.73478 0
M  V30 16185 H 1493.59 1.55893 2.05073 0
M  V30 16186 H 1493.54 0.213589 3.13674 0
M  V30 16187 N 1497.32 -0.429099 1.51646 0
M  V30 16188 C 1498.54 -1.20465 1.68828 0
M  V30 16189 C 1498.97 -1.84044 0.388514 0
M  V30 16190 O 1498.32 -1.69165 -0.652152 0
M  V30 16191 C 1498.37 -2.25831 2.81128 0
M  V30 16192 O 1497.48 -3.31511 2.45305 0
M  V30 16193 H 1496.82 -0.352568 0.562665 0
M  V30 16194 H 1499.35 -0.505698 1.98252 0
M  V30 16195 H 1499.36 -2.70484 3.05455 0
M  V30 16196 H 1498.03 -1.78934 3.7544 0
M  V30 16197 H 1496.61 -2.92277 2.31579 0
M  V30 16198 N 1498.79 -1.41931 -0.685074 0
M  V30 16199 C 1499.7 -1.46985 -1.82846 0
M  V30 16200 C 1500.72 -0.359487 -1.70246 0
M  V30 16201 O 1501.9 -0.608824 -1.91977 0
M  V30 16202 C 1498.96 -1.36001 -3.18912 0
M  V30 16203 C 1498.02 -2.57442 -3.43543 0
M  V30 16204 C 1497.25 -2.46972 -4.73118 0
M  V30 16205 O 1497.48 -1.49999 -5.50324 0
M  V30 16206 O 1496.41 -3.36922 -4.98766 0
M  V30 16207 H 1500.24 -2.4347 -1.81538 0
M  V30 16208 H 1497.82 -1.23583 -0.839497 0
M  V30 16209 H 1499.7 -1.32198 -4.00127 0
M  V30 16210 H 1498.38 -0.426366 -3.2088 0
M  V30 16211 H 1497.29 -2.66821 -2.62217 0
M  V30 16212 H 1498.62 -3.49671 -3.46398 0
M  V30 16213 N 1500.27 0.920374 -1.27933 0
M  V30 16214 C 1501.22 2.02196 -1.1129 0
M  V30 16215 C 1502.19 1.66096 -0.0118871 0
M  V30 16216 O 1503.37 1.8999 -0.175586 0
M  V30 16217 C 1500.51 3.36312 -0.77383 0
M  V30 16218 C 1499.63 3.85322 -1.95322 0
M  V30 16219 C 1498.76 5.07919 -1.55537 0
M  V30 16220 C 1497.8 5.49244 -2.7018 0
M  V30 16221 N 1496.94 6.63034 -2.30933 0
M  V30 16222 H 1501.78 2.15764 -2.05548 0
M  V30 16223 H 1499.31 1.05691 -1.02312 0
M  V30 16224 H 1501.27 4.13451 -0.558024 0
M  V30 16225 H 1499.9 3.22531 0.131806 0
M  V30 16226 H 1498.95 3.04399 -2.28135 0
M  V30 16227 H 1500.27 4.11915 -2.81296 0
M  V30 16228 H 1499.42 5.92581 -1.30123 0
M  V30 16229 H 1498.16 4.8312 -0.666818 0
M  V30 16230 H 1497.16 4.63127 -2.96299 0
M  V30 16231 H 1498.39 5.76035 -3.59667 0
M  V30 16232 H 1496.34 6.39878 -1.44539 0
M  V30 16233 H 1496.25 6.89319 -3.10444 0
M  V30 16234 H 1497.52 7.51018 -2.08786 0
M  V30 16235 N 1501.75 1.10074 1.1279 0
M  V30 16236 C 1502.68 0.768146 2.20503 0
M  V30 16237 C 1503.66 -0.257199 1.68144 0
M  V30 16238 O 1504.85 -0.12379 1.93805 0
M  V30 16239 C 1501.98 0.195125 3.46751 0
M  V30 16240 C 1500.93 1.15074 4.1224 0
M  V30 16241 C 1500.26 0.439098 5.32894 0
M  V30 16242 C 1501.56 2.49584 4.58808 0
M  V30 16243 H 1503.25 1.66876 2.48581 0
M  V30 16244 H 1500.8 0.803806 1.19478 0
M  V30 16245 H 1502.75 -0.0496695 4.21371 0
M  V30 16246 H 1501.47 -0.740717 3.1809 0
M  V30 16247 H 1500.13 1.38092 3.39597 0
M  V30 16248 H 1499.78 -0.501096 5.00498 0
M  V30 16249 H 1499.48 1.07632 5.77658 0
M  V30 16250 H 1501 0.202761 6.10263 0
M  V30 16251 H 1502.42 2.30736 5.24818 0
M  V30 16252 H 1500.81 3.09157 5.14336 0
M  V30 16253 H 1501.88 3.09857 3.72984 0
M  V30 16254 N 1503.23 -1.30138 0.888926 0
M  V30 16255 C 1504.14 -2.31778 0.3628 0
M  V30 16256 C 1505.15 -1.65507 -0.53698 0
M  V30 16257 O 1506.33 -1.96775 -0.429152 0
M  V30 16258 C 1503.39 -3.44259 -0.410673 0
M  V30 16259 C 1502.46 -4.26147 0.519334 0
M  V30 16260 C 1501.69 -5.33257 -0.21732 0
M  V30 16261 O 1501.91 -5.5185 -1.44284 0
M  V30 16262 O 1500.85 -6.00329 0.43461 0
M  V30 16263 H 1504.67 -2.78739 1.20575 0
M  V30 16264 H 1502.26 -1.34379 0.65289 0
M  V30 16265 H 1504.14 -4.1277 -0.848467 0
M  V30 16266 H 1502.81 -2.99426 -1.22986 0
M  V30 16267 H 1501.72 -3.60319 1.00602 0
M  V30 16268 H 1503.05 -4.74595 1.30464 0
M  V30 16269 N 1504.71 -0.650285 -1.43559 0
M  V30 16270 C 1506.12 -0.317586 -1.56408 0
M  V30 16271 C 1506.32 1.17844 -1.63447 0
M  V30 16272 O 1505.38 1.96318 -1.58794 0
M  V30 16273 C 1506.69 -1.02636 -2.82642 0
M  V30 16274 C 1508.24 -1.00633 -2.96381 0
M  V30 16275 C 1508.71 -1.69595 -4.25443 0
M  V30 16276 N 1510.2 -1.66345 -4.323 0
M  V30 16277 C 1510.94 -2.16581 -5.30924 0
M  V30 16278 N 1510.44 -2.75092 -6.35843 0
M  V30 16279 N 1512.23 -2.07098 -5.22558 0
M  V30 16280 H 1504.38 -1.62114 -1.37233 0
M  V30 16281 H 1506.64 -0.681588 -0.658895 0
M  V30 16282 H 1506.35 -2.08146 -2.83493 0
M  V30 16283 H 1506.22 -0.576081 -3.72775 0
M  V30 16284 H 1508.61 0.0403519 -2.95072 0
M  V30 16285 H 1508.69 -1.49528 -2.07545 0
M  V30 16286 H 1508.33 -2.74218 -4.27512 0
M  V30 16287 H 1508.26 -1.18168 -5.1317 0
M  V30 16288 H 1510.76 -1.23644 -3.571 0
M  V30 16289 H 1511.07 -3.11108 -7.07412 0
M  V30 16290 H 1509.41 -2.79152 -6.36474 0
M  V30 16291 H 1512.6 -1.61093 -4.39507 0
M  V30 16292 H 1512.78 -2.46557 -5.99261 0
M  V30 16293 N 1506.18 1.52647 -0.392018 0
M  V30 16294 C 1507.09 2.30261 0.449093 0
M  V30 16295 C 1508.11 1.37286 1.06905 0
M  V30 16296 O 1509.29 1.70357 1.07427 0
M  V30 16297 C 1506.35 3.09636 1.55969 0
M  V30 16298 C 1505.41 4.18324 0.964566 0
M  V30 16299 C 1504.64 4.93904 2.02224 0
M  V30 16300 O 1504.87 4.69603 3.23773 0
M  V30 16301 O 1503.8 5.79183 1.63802 0
M  V30 16302 H 1507.63 3.03147 -0.183269 0
M  V30 16303 H 1505.21 1.48587 -0.155664 0
M  V30 16304 H 1507.09 3.59118 2.20482 0
M  V30 16305 H 1505.77 2.39561 2.17697 0
M  V30 16306 H 1504.68 3.73031 0.282618 0
M  V30 16307 H 1506.01 4.90641 0.391466 0
M  V30 16308 N 1507.66 0.121921 1.57128 0
M  V30 16309 C 1508.59 -0.823788 2.18486 0
M  V30 16310 C 1509.57 -1.27519 1.12574 0
M  V30 16311 O 1510.76 -1.33727 1.40822 0
M  V30 16312 C 1507.89 -2.07284 2.78659 0
M  V30 16313 C 1506.84 -1.75912 3.90178 0
M  V30 16314 C 1506.17 -3.07871 4.37172 0
M  V30 16315 C 1507.47 -1.02517 5.1214 0
M  V30 16316 H 1509.16 -0.312488 2.97765 0
M  V30 16317 H 1506.71 -0.148862 1.43228 0
M  V30 16318 H 1508.66 -2.73903 3.20242 0
M  V30 16319 H 1507.39 -2.60743 1.96673 0
M  V30 16320 H 1506.04 -1.11681 3.49174 0
M  V30 16321 H 1505.69 -3.59271 3.52041 0
M  V30 16322 H 1505.39 -2.87653 5.12376 0
M  V30 16323 H 1506.92 -3.75604 4.81409 0
M  V30 16324 H 1508.33 -1.59295 5.50725 0
M  V30 16325 H 1506.73 -0.923836 5.92946 0
M  V30 16326 H 1507.8 -0.0124219 4.84898 0
M  V30 16327 N 1509.14 -1.56867 -0.151857 0
M  V30 16328 C 1510.05 -2.01157 -1.20718 0
M  V30 16329 C 1511.07 -0.926166 -1.47303 0
M  V30 16330 O 1512.24 -1.23528 -1.59069 0
M  V30 16331 C 1509.31 -2.37915 -2.52185 0
M  V30 16332 C 1508.37 -3.60381 -2.3329 0
M  V30 16333 C 1507.6 -3.95376 -3.58488 0
M  V30 16334 O 1507.82 -3.31093 -4.64471 0
M  V30 16335 O 1506.76 -4.88645 -3.5144 0
M  V30 16336 H 1510.58 -2.91234 -0.861175 0
M  V30 16337 H 1508.17 -1.44993 -0.360213 0
M  V30 16338 H 1510.05 -2.6244 -3.29702 0
M  V30 16339 H 1508.73 -1.50995 -2.86325 0
M  V30 16340 H 1507.63 -3.4105 -1.5374 0
M  V30 16341 H 1508.97 -4.47903 -2.04067 0
M  V30 16342 N 1510.62 0.421051 -1.51871 0
M  V30 16343 C 1512.03 0.758781 -1.40409 0
M  V30 16344 C 1512.23 1.95219 -0.499197 0
M  V30 16345 O 1511.29 2.52469 0.0395216 0
M  V30 16346 C 1512.6 1.02388 -2.82731 0
M  V30 16347 C 1514.15 1.12733 -2.91994 0
M  V30 16348 C 1514.63 1.42527 -4.35259 0
M  V30 16349 N 1516.12 1.49417 -4.38439 0
M  V30 16350 C 1516.85 1.74074 -5.46339 0
M  V30 16351 N 1516.35 1.96414 -6.64375 0
M  V30 16352 N 1518.14 1.7599 -5.33839 0
M  V30 16353 H 1510.29 -0.364682 -2.09246 0
M  V30 16354 H 1512.56 -0.100819 -0.942624 0
M  V30 16355 H 1512.26 0.219491 -3.51014 0
M  V30 16356 H 1512.14 1.94724 -3.23052 0
M  V30 16357 H 1514.52 1.92233 -2.23899 0
M  V30 16358 H 1514.6 0.182611 -2.55147 0
M  V30 16359 H 1514.25 0.635486 -5.03909 0
M  V30 16360 H 1514.18 2.38231 -4.69631 0
M  V30 16361 H 1516.67 1.3399 -3.53348 0
M  V30 16362 H 1516.98 2.14644 -7.42393 0
M  V30 16363 H 1515.33 1.93702 -6.67461 0
M  V30 16364 H 1518.52 1.58067 -4.40605 0
M  V30 16365 H 1518.69 1.94868 -6.18005 0
M  V30 16366 N 1512.1 1.42293 0.677538 0
M  V30 16367 C 1513.03 1.39986 1.8022 0
M  V30 16368 C 1514.01 0.264513 1.60434 0
M  V30 16369 O 1515.19 0.454299 1.82944 0
M  V30 16370 C 1512.32 1.18809 3.17178 0
M  V30 16371 C 1511.36 2.35301 3.55719 0
M  V30 16372 S 1512.2 3.97827 3.5846 0
M  V30 16373 C 1513.35 3.78987 4.98116 0
M  V30 16374 H 1513.59 2.35157 1.81902 0
M  V30 16375 H 1511.12 1.29032 0.847947 0
M  V30 16376 H 1513.08 1.07277 3.96235 0
M  V30 16377 H 1511.74 0.252276 3.13085 0
M  V30 16378 H 1510.93 2.16224 4.55262 0
M  V30 16379 H 1510.53 2.43333 2.84016 0
M  V30 16380 H 1512.83 3.39808 5.8612 0
M  V30 16381 H 1513.77 4.78197 5.22239 0
M  V30 16382 H 1514.18 3.11906 4.70505 0
M  V30 16383 N 1513.57 -0.913576 1.28419 0
M  V30 16384 C 1514.54 -1.99757 1.12382 0
M  V30 16385 C 1515.54 -1.60675 0.063435 0
M  V30 16386 O 1516.73 -1.71433 0.30923 0
M  V30 16387 C 1513.86 -3.33307 0.715506 0
M  V30 16388 H 1515.05 -2.15414 2.08655 0
M  V30 16389 H 1512.61 -1.09626 1.11408 0
M  V30 16390 H 1513.34 -3.23351 -0.247977 0
M  V30 16391 H 1513.13 -3.63034 1.4815 0
M  V30 16392 H 1514.62 -4.12882 0.625953 0
M  V30 16393 N 1515.05 -1.1067 -1.12204 0
M  V30 16394 C 1516.47 -0.838988 -1.35769 0
M  V30 16395 C 1516.67 0.540345 -1.9412 0
M  V30 16396 O 1515.72 1.29274 -2.16897 0
M  V30 16397 C 1517.04 -1.94065 -2.29694 0
M  V30 16398 C 1518.59 -1.96938 -2.43279 0
M  V30 16399 C 1519.06 -3.06284 -3.4052 0
M  V30 16400 N 1520.55 -3.05607 -3.48079 0
M  V30 16401 C 1521.29 -3.86855 -4.23238 0
M  V30 16402 N 1520.78 -4.78046 -5.01442 0
M  V30 16403 N 1522.58 -3.75064 -4.18669 0
M  V30 16404 H 1514.73 -1.99575 -0.726878 0
M  V30 16405 H 1516.99 -0.867423 -0.382467 0
M  V30 16406 H 1516.7 -2.93356 -1.93997 0
M  V30 16407 H 1516.57 -1.82992 -3.29839 0
M  V30 16408 H 1518.96 -0.982774 -2.78254 0
M  V30 16409 H 1519.04 -2.12087 -1.43014 0
M  V30 16410 H 1518.68 -4.05165 -3.06273 0
M  V30 16411 H 1518.61 -2.88376 -4.40621 0
M  V30 16412 H 1521.1 -2.39531 -2.9229 0
M  V30 16413 H 1521.42 -5.36594 -5.56136 0
M  V30 16414 H 1519.76 -4.82073 -5.0063 0
M  V30 16415 H 1522.95 -3.03172 -3.56657 0
M  V30 16416 H 1523.12 -4.38618 -4.76988 0
M  V30 16417 N 1516.53 1.29665 -0.895815 0
M  V30 16418 C 1517.95 1.4824 -0.591355 0
M  V30 16419 C 1518.15 1.81839 0.86815 0
M  V30 16420 O 1517.2 1.91251 1.64861 0
M  V30 16421 C 1518.52 2.59814 -1.51384 0
M  V30 16422 C 1520.06 2.73691 -1.51862 0
M  V30 16423 C 1520.54 3.8839 -2.42729 0
M  V30 16424 N 1522.03 3.95717 -2.40754 0
M  V30 16425 C 1522.76 4.83804 -3.07769 0
M  V30 16426 N 1522.26 5.7661 -3.84048 0
M  V30 16427 N 1524.05 4.77263 -2.96946 0
M  V30 16428 H 1516.2 1.06131 -1.83984 0
M  V30 16429 H 1518.47 0.526819 -0.788141 0
M  V30 16430 H 1518.17 2.4184 -2.55355 0
M  V30 16431 H 1518.05 3.56532 -1.23147 0
M  V30 16432 H 1520.43 2.91064 -0.486375 0
M  V30 16433 H 1520.52 1.77561 -1.84135 0
M  V30 16434 H 1520.16 3.71773 -3.46045 0
M  V30 16435 H 1520.09 4.8388 -2.07767 0
M  V30 16436 H 1522.58 3.29334 -1.8533 0
M  V30 16437 H 1522.89 6.40611 -4.32247 0
M  V30 16438 H 1521.24 5.76507 -3.88155 0
M  V30 16439 H 1524.43 4.03744 -2.36871 0
M  V30 16440 H 1524.6 5.45701 -3.49448 0
M  V30 16441 N 1518.01 0.657889 1.43212 0
M  V30 16442 C 1518.96 -0.0308596 2.30779 0
M  V30 16443 C 1519.93 -0.809951 1.45014 0
M  V30 16444 O 1521.11 -0.785615 1.73876 0
M  V30 16445 C 1518.25 -0.988048 3.30653 0
M  V30 16446 C 1517.36 -0.204567 4.31515 0
M  V30 16447 C 1516.5 -1.15598 5.1847 0
M  V30 16448 C 1515.54 -0.363197 6.11022 0
M  V30 16449 N 1514.67 -1.26644 6.90584 0
M  V30 16450 H 1519.51 0.721745 2.89128 0
M  V30 16451 H 1517.05 0.367677 1.42431 0
M  V30 16452 H 1519.01 -1.55666 3.87071 0
M  V30 16453 H 1517.64 -1.70747 2.73944 0
M  V30 16454 H 1516.69 0.48041 3.77354 0
M  V30 16455 H 1518 0.411684 4.97098 0
M  V30 16456 H 1517.16 -1.79507 5.79536 0
M  V30 16457 H 1515.9 -1.80613 4.53023 0
M  V30 16458 H 1514.9 0.28922 5.49039 0
M  V30 16459 H 1516.13 0.28262 6.78512 0
M  V30 16460 H 1514.07 -1.90331 6.27782 0
M  V30 16461 H 1513.99 -0.70486 7.52707 0
M  V30 16462 H 1515.26 -1.89353 7.56152 0
M  V30 16463 N 1519.49 -1.52437 0.400108 0
M  V30 16464 C 1520.73 -2.01711 -0.178605 0
M  V30 16465 C 1521.06 -1.28613 -1.45908 0
M  V30 16466 O 1520.32 -0.378206 -1.92011 0
M  V30 16467 C 1520.62 -3.54133 -0.482141 0
M  V30 16468 C 1520.28 -4.45306 0.70806 0
M  V30 16469 C 1518.94 -4.69947 1.03455 0
M  V30 16470 C 1521.3 -4.99035 1.50379 0
M  V30 16471 C 1518.62 -5.45566 2.15812 0
M  V30 16472 C 1520.98 -5.75883 2.61805 0
M  V30 16473 C 1519.64 -5.98799 2.9495 0
M  V30 16474 H 1518.91 -0.738112 -0.0653562 0
M  V30 16475 H 1521.56 -1.83738 0.539676 0
M  V30 16476 H 1519.86 -3.70237 -1.28188 0
M  V30 16477 H 1521.56 -3.89761 -0.942725 0
M  V30 16478 H 1518.15 -4.26298 0.443599 0
M  V30 16479 H 1522.33 -4.79913 1.26479 0
M  V30 16480 H 1517.59 -5.61532 2.4185 0
M  V30 16481 H 1521.76 -6.16514 3.23857 0
M  V30 16482 H 1519.39 -6.57176 3.8213 0
M  V30 16483 N 1520.96 -0.130252 -1.57061 0
M  V30 16484 C 1521.91 0.815767 -2.15902 0
M  V30 16485 C 1522.88 1.2558 -1.08715 0
M  V30 16486 O 1524.07 1.33132 -1.36677 0
M  V30 16487 C 1521.21 2.0561 -2.77162 0
M  V30 16488 C 1520.32 1.6634 -3.98692 0
M  V30 16489 C 1519.45 2.85425 -4.48002 0
M  V30 16490 C 1518.49 2.42449 -5.62036 0
M  V30 16491 N 1517.63 3.54486 -6.0604 0
M  V30 16492 H 1522.47 0.307164 -2.96413 0
M  V30 16493 H 1520.01 0.139913 -1.46433 0
M  V30 16494 H 1521.97 2.78298 -3.10815 0
M  V30 16495 H 1520.6 2.5391 -1.99323 0
M  V30 16496 H 1519.65 0.834817 -3.71127 0
M  V30 16497 H 1520.96 1.30765 -4.81354 0
M  V30 16498 H 1520.11 3.66325 -4.83623 0
M  V30 16499 H 1518.85 3.24235 -3.64312 0
M  V30 16500 H 1517.86 1.59985 -5.26008 0
M  V30 16501 H 1519.08 2.04744 -6.475 0
M  V30 16502 H 1517.03 3.92948 -5.25289 0
M  V30 16503 H 1516.95 3.22871 -6.83586 0
M  V30 16504 H 1518.21 4.35792 -6.46302 0
M  V30 16505 N 1522.44 1.56945 0.143535 0
M  V30 16506 C 1523.69 1.82728 0.854011 0
M  V30 16507 C 1524.01 0.712048 1.82179 0
M  V30 16508 O 1525.21 0.855579 2.57667 0
M  V30 16509 C 1523.67 3.23882 1.56934 0
M  V30 16510 C 1523.28 4.4335 0.643789 0
M  V30 16511 C 1525.02 3.58936 2.26639 0
M  V30 16512 C 1522.93 5.75528 1.36094 0
M  V30 16513 H 1521.86 0.681474 0.32266 0
M  V30 16514 H 1524.51 1.83189 0.106741 0
M  V30 16515 H 1522.89 3.17819 2.36236 0
M  V30 16516 H 1524.06 4.60658 -0.114257 0
M  V30 16517 H 1522.38 4.16364 0.0549721 0
M  V30 16518 H 1524.98 4.54948 2.80939 0
M  V30 16519 H 1525.32 2.85163 3.03295 0
M  V30 16520 H 1525.85 3.66676 1.54252 0
M  V30 16521 H 1522.59 6.52406 0.636157 0
M  V30 16522 H 1522.11 5.62149 2.09161 0
M  V30 16523 H 1523.79 6.18445 1.9009 0
M  V30 16524 N 1523.92 -0.412991 1.52093 0
M  V30 16525 C 1525.16 -1.16951 1.67636 0
M  V30 16526 C 1525.53 -1.87875 0.39583 0
M  V30 16527 O 1526.73 -2.65382 0.42732 0
M  V30 16528 C 1525 -2.14052 2.8621 0
M  V30 16529 S 1526.56 -2.97863 3.22215 0
M  V30 16530 H 1523.37 -0.396249 0.590345 0
M  V30 16531 H 1525.98 -0.457386 1.90074 0
M  V30 16532 H 1524.68 -1.60628 3.7766 0
M  V30 16533 H 1524.21 -2.89809 2.66034 0
M  V30 16534 H 1526.23 -4.15961 2.70538 0
M  V30 16535 N 1525.4 -1.4265 -0.669982 0
M  V30 16536 C 1526.65 -1.43589 -1.43213 0
M  V30 16537 C 1526.98 -0.0537998 -1.94125 0
M  V30 16538 O 1526.25 0.922727 -1.71219 0
M  V30 16539 C 1526.54 -2.46433 -2.62569 0
M  V30 16540 C 1526.39 -3.93851 -2.17258 0
M  V30 16541 C 1527.71 -2.46208 -3.64787 0
M  V30 16542 H 1524.83 -0.522859 -0.519411 0
M  V30 16543 H 1527.47 -1.74094 -0.760997 0
M  V30 16544 H 1525.62 -2.20551 -3.19828 0
M  V30 16545 H 1527.29 -4.30732 -1.6513 0
M  V30 16546 H 1525.53 -4.07487 -1.48786 0
M  V30 16547 H 1526.21 -4.61398 -3.03012 0
M  V30 16548 H 1528.68 -2.69237 -3.17255 0
M  V30 16549 H 1527.56 -3.20138 -4.45873 0
M  V30 16550 H 1527.82 -1.48979 -4.16242 0
M  V30 16551 N 1526.88 0.906753 -1.28902 0
M  V30 16552 C 1528.1 1.69547 -1.19452 0
M  V30 16553 C 1528.53 1.86531 0.242418 0
M  V30 16554 O 1527.89 1.38052 1.17521 0
M  V30 16555 C 1527.93 3.06139 -1.90556 0
M  V30 16556 O 1527.04 3.9401 -1.21779 0
M  V30 16557 H 1526.38 0.518902 -0.41429 0
M  V30 16558 H 1528.91 1.13327 -1.70347 0
M  V30 16559 H 1528.92 3.56326 -1.98736 0
M  V30 16560 H 1527.59 2.93094 -2.95074 0
M  V30 16561 H 1526.17 3.52444 -1.2181 0
M  V30 16562 N 1528.36 1.11264 1.11616 0
M  V30 16563 C 1529.29 0.713116 2.16772 0
M  V30 16564 C 1530.27 -0.289791 1.59997 0
M  V30 16565 O 1531.45 -0.186649 1.87574 0
M  V30 16566 C 1528.58 0.0535784 3.38658 0
M  V30 16567 C 1527.62 1.02134 4.14091 0
M  V30 16568 S 1528.46 2.54294 4.71269 0
M  V30 16569 C 1529.61 1.89636 5.96481 0
M  V30 16570 H 1529.85 1.60387 2.50326 0
M  V30 16571 H 1527.38 0.930494 1.23212 0
M  V30 16572 H 1529.34 -0.320604 4.09246 0
M  V30 16573 H 1528 -0.814107 3.03366 0
M  V30 16574 H 1527.19 0.50727 5.01441 0
M  V30 16575 H 1526.79 1.33785 3.49253 0
M  V30 16576 H 1529.08 1.23171 6.66209 0
M  V30 16577 H 1530.03 2.74977 6.52528 0
M  V30 16578 H 1530.44 1.35729 5.4794 0
M  V30 16579 N 1529.83 -1.29188 0.902679 0
M  V30 16580 C 1530.77 -2.26665 0.339964 0
M  V30 16581 C 1531.78 -1.54426 -0.515396 0
M  V30 16582 O 1532.97 -1.75384 -0.332071 0
M  V30 16583 C 1530.07 -3.34672 -0.533653 0
M  V30 16584 C 1529.24 -4.36393 0.296661 0
M  V30 16585 C 1528.3 -5.2372 -0.510264 0
M  V30 16586 O 1527.33 -5.69153 0.0732871 0
M  V30 16587 N 1528.53 -5.51373 -1.81572 0
M  V30 16588 H 1531.29 -2.75588 1.17778 0
M  V30 16589 H 1528.85 -1.42553 0.767474 0
M  V30 16590 H 1530.85 -3.90025 -1.07995 0
M  V30 16591 H 1529.42 -2.85543 -1.27216 0
M  V30 16592 H 1528.64 -3.80658 1.02436 0
M  V30 16593 H 1529.92 -5.0139 0.865191 0
M  V30 16594 H 1529.32 -5.16275 -2.31251 0
M  V30 16595 H 1527.88 -6.09528 -2.30908 0
M  V30 16596 N 1531.31 -0.665475 -1.42861 0
M  V30 16597 C 1532.73 -0.334157 -1.56063 0
M  V30 16598 C 1532.93 1.16104 -1.64688 0
M  V30 16599 O 1531.98 1.94622 -1.60867 0
M  V30 16600 C 1533.3 -1.05628 -2.81537 0
M  V30 16601 C 1534.84 -1.03771 -2.95297 0
M  V30 16602 C 1535.32 -1.74098 -4.2362 0
M  V30 16603 N 1536.81 -1.7092 -4.30512 0
M  V30 16604 C 1537.55 -2.222 -5.28597 0
M  V30 16605 N 1537.04 -2.81821 -6.32889 0
M  V30 16606 N 1538.83 -2.12628 -5.20332 0
M  V30 16607 H 1530.99 -1.6356 -1.35506 0
M  V30 16608 H 1533.25 -0.688538 -0.651628 0
M  V30 16609 H 1532.95 -2.11141 -2.81269 0
M  V30 16610 H 1532.83 -0.615586 -3.72143 0
M  V30 16611 H 1535.22 0.00905324 -2.95099 0
M  V30 16612 H 1535.3 -1.51721 -2.05948 0
M  V30 16613 H 1534.94 -2.78737 -4.2458 0
M  V30 16614 H 1534.87 -1.23604 -5.11888 0
M  V30 16615 H 1537.36 -1.27425 -3.55769 0
M  V30 16616 H 1537.67 -3.18594 -7.04072 0
M  V30 16617 H 1536.02 -2.85887 -6.33478 0
M  V30 16618 H 1539.21 -1.65746 -4.37774 0
M  V30 16619 H 1539.38 -2.52899 -5.96612 0
M  V30 16620 N 1532.79 1.52222 -0.408187 0
M  V30 16621 C 1534.02 2.05922 0.167187 0
M  V30 16622 C 1534.43 1.27824 1.3949 0
M  V30 16623 O 1533.77 0.323065 1.80837 0
M  V30 16624 C 1533.83 3.54734 0.583435 0
M  V30 16625 C 1533.5 4.53876 -0.533419 0
M  V30 16626 C 1534.49 5.00788 -1.3967 0
M  V30 16627 C 1532.18 4.97316 -0.705841 0
M  V30 16628 C 1534.17 5.89782 -2.41736 0
M  V30 16629 C 1531.86 5.86106 -1.72981 0
M  V30 16630 C 1532.86 6.32234 -2.58397 0
M  V30 16631 O 1532.55 7.19267 -3.59041 0
M  V30 16632 H 1532.28 0.675562 0.0243385 0
M  V30 16633 H 1534.83 1.97115 -0.577475 0
M  V30 16634 H 1533.06 3.61224 1.38036 0
M  V30 16635 H 1534.75 3.91085 1.08662 0
M  V30 16636 H 1535.52 4.67944 -1.27489 0
M  V30 16637 H 1531.4 4.60972 -0.0506558 0
M  V30 16638 H 1534.94 6.25708 -3.0844 0
M  V30 16639 H 1530.84 6.18364 -1.85193 0
M  V30 16640 H 1531.6 7.37376 -3.55274 0
M  V30 16641 N 1534.27 0.138579 1.5699 0
M  V30 16642 C 1535.23 -0.79013 2.1515 0
M  V30 16643 C 1536.23 -1.1811 1.09117 0
M  V30 16644 O 1537.42 -1.1034 1.34798 0
M  V30 16645 C 1534.55 -2.07109 2.70774 0
M  V30 16646 H 1535.75 -0.284343 2.98549 0
M  V30 16647 H 1533.3 -0.11081 1.55907 0
M  V30 16648 H 1534.03 -2.62074 1.91018 0
M  V30 16649 H 1533.82 -1.80004 3.4834 0
M  V30 16650 H 1535.31 -2.73456 3.15613 0
M  V30 16651 N 1535.75 -1.57019 -0.13521 0
M  V30 16652 C 1536.69 -1.99148 -1.16657 0
M  V30 16653 C 1537.66 -0.860947 -1.42045 0
M  V30 16654 O 1538.85 -1.12393 -1.54183 0
M  V30 16655 C 1535.99 -2.3872 -2.49212 0
M  V30 16656 C 1535.1 -3.65117 -2.30898 0
M  V30 16657 C 1534.24 -3.9374 -3.5657 0
M  V30 16658 C 1533.27 -5.1337 -3.33343 0
M  V30 16659 N 1532.41 -5.37945 -4.51176 0
M  V30 16660 H 1537.25 -2.87052 -0.800312 0
M  V30 16661 H 1534.79 -1.42007 -0.383705 0
M  V30 16662 H 1536.75 -2.59695 -3.26518 0
M  V30 16663 H 1535.38 -1.53879 -2.83762 0
M  V30 16664 H 1534.43 -3.5185 -1.44588 0
M  V30 16665 H 1535.74 -4.52578 -2.09701 0
M  V30 16666 H 1534.89 -4.15277 -4.423 0
M  V30 16667 H 1533.63 -3.04723 -3.80782 0
M  V30 16668 H 1532.64 -4.91694 -2.46002 0
M  V30 16669 H 1533.86 -6.0395 -3.10517 0
M  V30 16670 H 1531.81 -4.51884 -4.75539 0
M  V30 16671 H 1531.73 -6.19698 -4.33025 0
M  V30 16672 H 1532.99 -5.63989 -5.38086 0
M  V30 16673 N 1537.22 0.404919 -1.52309 0
M  V30 16674 C 1538.47 1.15148 -1.66575 0
M  V30 16675 C 1538.8 1.9039 -0.397754 0
M  V30 16676 O 1538.05 1.85639 0.619407 0
M  V30 16677 C 1538.35 2.16817 -2.84121 0
M  V30 16678 C 1538.02 1.58352 -4.22179 0
M  V30 16679 C 1536.68 1.42132 -4.5973 0
M  V30 16680 C 1539.03 1.15695 -5.08197 0
M  V30 16681 C 1536.36 0.817785 -5.80973 0
M  V30 16682 C 1538.71 0.56758 -6.30049 0
M  V30 16683 C 1537.38 0.392547 -6.66345 0
M  V30 16684 H 1536.65 0.421357 -0.60954 0
M  V30 16685 H 1539.29 0.438148 -1.8642 0
M  V30 16686 H 1537.6 2.94311 -2.58628 0
M  V30 16687 H 1539.3 2.74463 -2.92355 0
M  V30 16688 H 1535.89 1.71961 -3.92591 0
M  V30 16689 H 1540.07 1.27034 -4.79767 0
M  V30 16690 H 1535.33 0.670228 -6.07715 0
M  V30 16691 H 1539.5 0.228674 -6.96024 0
M  V30 16692 H 1537.13 -0.0772156 -7.60161 0
M  V30 16693 N 1538.7 1.43003 0.662408 0
M  V30 16694 C 1539.65 1.47701 1.79686 0
M  V30 16695 C 1540.64 0.351491 1.65713 0
M  V30 16696 O 1541.85 0.525071 1.72171 0
M  V30 16697 H 1538.23 0.46285 0.592684 0
M  V30 16698 H 1540.2 2.43245 1.72843 0
M  V30 16699 C 1538.95 1.40828 3.17904 0
M  V30 16700 H 1538.27 2.26736 3.29288 0
M  V30 16701 H 1539.71 1.48177 3.97265 0
M  V30 16702 C 1538.17 0.124659 3.36669 0
M  V30 16703 O 1538.7 -0.81769 3.9329 0
M  V30 16704 N 1536.9 0.0378063 2.90575 0
M  V30 16705 H 1536.45 0.805456 2.44684 0
M  V30 16706 H 1536.41 -0.820377 3.03508 0
M  V30 16707 N 1540.18 -0.899904 1.29381 0
M  V30 16708 C 1541.13 -2.004 1.14493 0
M  V30 16709 C 1542.1 -1.66056 0.0383099 0
M  V30 16710 O 1543.28 -1.89687 0.20579 0
M  V30 16711 C 1540.42 -3.35039 0.827237 0
M  V30 16712 C 1539.54 -3.82166 2.01427 0
M  V30 16713 C 1538.67 -5.0538 1.63598 0
M  V30 16714 C 1537.71 -5.44876 2.78884 0
M  V30 16715 N 1536.85 -6.59276 2.41452 0
M  V30 16716 H 1541.69 -2.12466 2.08955 0
M  V30 16717 H 1539.22 -1.0405 1.03981 0
M  V30 16718 H 1541.18 -4.12511 0.62373 0
M  V30 16719 H 1539.81 -3.227 -0.0804772 0
M  V30 16720 H 1538.86 -3.00731 2.32949 0
M  V30 16721 H 1540.18 -4.07387 2.87814 0
M  V30 16722 H 1539.33 -5.90436 1.39534 0
M  V30 16723 H 1538.07 -4.81998 0.743593 0
M  V30 16724 H 1537.07 -4.58355 3.0363 0
M  V30 16725 H 1538.3 -5.7024 3.68786 0
M  V30 16726 H 1536.24 -6.37498 1.54701 0
M  V30 16727 H 1536.16 -6.84293 3.21372 0
M  V30 16728 H 1537.43 -7.47602 2.20708 0
M  V30 16729 N 1541.66 -1.11854 -1.11024 0
M  V30 16730 C 1542.57 -0.79368 -2.20767 0
M  V30 16731 C 1543.58 0.214996 -1.72667 0
M  V30 16732 O 1544.76 0.0500976 -2.01338 0
M  V30 16733 C 1541.83 -0.246375 -3.45823 0
M  V30 16734 C 1540.89 -1.31421 -4.0869 0
M  V30 16735 C 1540.12 -0.792922 -5.27777 0
M  V30 16736 O 1540.34 0.375492 -5.69163 0
M  V30 16737 O 1539.28 -1.55971 -5.8134 0
M  V30 16738 H 1543.1 -1.71011 -2.50976 0
M  V30 16739 H 1540.69 -0.894752 -1.19643 0
M  V30 16740 H 1542.57 0.0542632 -4.21365 0
M  V30 16741 H 1541.24 0.642703 -3.17255 0
M  V30 16742 H 1540.15 -1.66792 -3.3486 0
M  V30 16743 H 1541.48 -2.17683 -4.41446 0
M  V30 16744 N 1543.14 1.28707 -0.909517 0
M  V30 16745 C 1544.05 2.31171 -0.399628 0
M  V30 16746 C 1545.06 1.6634 0.510582 0
M  V30 16747 O 1546.24 1.97432 0.397792 0
M  V30 16748 C 1543.3 3.44869 0.355852 0
M  V30 16749 C 1542.36 4.25267 -0.587065 0
M  V30 16750 C 1541.6 5.33536 0.132456 0
M  V30 16751 O 1541.82 5.54075 1.35486 0
M  V30 16752 O 1540.75 5.99561 -0.530062 0
M  V30 16753 H 1544.58 2.76785 -1.24995 0
M  V30 16754 H 1542.17 1.33323 -0.674186 0
M  V30 16755 H 1544.05 4.14068 0.782692 0
M  V30 16756 H 1542.72 3.01345 1.18207 0
M  V30 16757 H 1541.63 3.58673 -1.06322 0
M  V30 16758 H 1542.96 4.72459 -1.37998 0
M  V30 16759 N 1544.61 0.673042 1.42506 0
M  V30 16760 C 1546.03 0.342429 1.55883 0
M  V30 16761 C 1546.23 -1.15229 1.65302 0
M  V30 16762 O 1545.29 -1.93767 1.61897 0
M  V30 16763 C 1546.6 1.0712 2.80973 0
M  V30 16764 C 1548.15 1.05336 2.94743 0
M  V30 16765 C 1548.62 1.76342 4.22691 0
M  V30 16766 N 1550.11 1.73201 4.29599 0
M  V30 16767 C 1550.85 2.25 5.27411 0
M  V30 16768 N 1550.34 2.85173 6.31386 0
M  V30 16769 N 1552.14 2.15385 5.19197 0
M  V30 16770 H 1544.29 1.64277 1.34636 0
M  V30 16771 H 1546.55 0.691984 0.647968 0
M  V30 16772 H 1546.26 2.1263 2.80145 0
M  V30 16773 H 1546.13 0.635313 3.71811 0
M  V30 16774 H 1548.52 0.00659669 2.95099 0
M  V30 16775 H 1548.6 1.52811 2.0514 0
M  V30 16776 H 1548.24 2.80985 4.23096 0
M  V30 16777 H 1548.17 1.26317 5.11225 0
M  V30 16778 H 1550.66 1.2931 3.55088 0
M  V30 16779 H 1550.98 3.22323 7.02373 0
M  V30 16780 H 1549.32 2.89242 6.31953 0
M  V30 16781 H 1552.51 1.68065 4.36889 0
M  V30 16782 H 1552.69 2.5606 5.95262 0
M  V30 16783 N 1546.09 -1.52004 0.416254 0
M  V30 16784 C 1547 -2.30947 -0.412403 0
M  V30 16785 C 1548.02 -1.38969 -1.04707 0
M  V30 16786 O 1549.19 -1.72044 -1.04703 0
M  V30 16787 C 1546.26 -3.12078 -1.51024 0
M  V30 16788 C 1545.32 -4.19805 -0.897892 0
M  V30 16789 C 1544.55 -4.97059 -1.94341 0
M  V30 16790 O 1544.78 -4.74695 -3.16261 0
M  V30 16791 O 1543.71 -5.81715 -1.54567 0
M  V30 16792 H 1547.54 -3.02817 0.231473 0
M  V30 16793 H 1545.12 -1.4832 0.179283 0
M  V30 16794 H 1547 -3.6258 -2.14741 0
M  V30 16795 H 1545.68 -2.42995 -2.13858 0
M  V30 16796 H 1544.59 -3.73433 -0.223236 0
M  V30 16797 H 1545.92 -4.91201 -0.31336 0
M  V30 16798 N 1547.57 -0.146903 -1.56914 0
M  V30 16799 C 1548.52 0.809917 -2.18044 0
M  V30 16800 C 1549.51 1.25536 -1.13741 0
M  V30 16801 O 1550.72 1.22385 -1.31992 0
M  V30 16802 H 1547.09 0.279387 -0.698174 0
M  V30 16803 H 1549.06 0.270135 -2.97175 0
M  V30 16804 C 1547.81 2.03904 -2.81635 0
M  V30 16805 H 1547.14 1.70526 -3.61609 0
M  V30 16806 H 1548.58 2.68795 -3.2791 0
M  V30 16807 C 1547.04 2.84696 -1.80138 0
M  V30 16808 O 1547.57 3.81036 -1.27179 0
M  V30 16809 N 1545.77 2.49229 -1.49444 0
M  V30 16810 H 1545.32 1.70949 -1.92702 0
M  V30 16811 H 1545.28 3.03577 -0.817811 0
M  V30 16812 N 1549.05 1.57088 0.126881 0
M  V30 16813 C 1550.28 1.88614 0.850444 0
M  V30 16814 C 1550.69 0.737309 1.73808 0
M  V30 16815 O 1550.05 -0.292196 1.80146 0
M  V30 16816 C 1550.1 3.19541 1.69044 0
M  V30 16817 O 1549.82 4.3 0.838555 0
M  V30 16818 C 1551.32 3.64717 2.51985 0
M  V30 16819 H 1548.54 0.624715 0.244892 0
M  V30 16820 H 1551.09 2.04184 0.113634 0
M  V30 16821 H 1549.24 3.05664 2.38009 0
M  V30 16822 H 1549.65 5.04992 1.41717 0
M  V30 16823 H 1551.13 4.5911 3.06467 0
M  V30 16824 H 1551.61 2.90986 3.28974 0
M  V30 16825 H 1552.21 3.81356 1.88276 0
M  V30 16826 N 1550.53 -0.396836 1.52522 0
M  V30 16827 C 1551.44 -1.50871 1.79653 0
M  V30 16828 C 1552.45 -1.60043 0.682804 0
M  V30 16829 O 1553.63 -1.76527 0.96955 0
M  V30 16830 C 1550.69 -2.86485 1.95263 0
M  V30 16831 C 1549.75 -2.87099 3.19175 0
M  V30 16832 C 1548.99 -4.16244 3.34031 0
M  V30 16833 O 1549.21 -5.1079 2.5387 0
M  V30 16834 O 1548.14 -4.23962 4.27247 0
M  V30 16835 H 1551.97 -1.30878 2.74052 0
M  V30 16836 H 1549.56 -0.583908 1.37517 0
M  V30 16837 H 1551.44 -3.66895 2.07282 0
M  V30 16838 H 1550.11 -3.0652 1.04052 0
M  V30 16839 H 1549.02 -2.05497 3.12605 0
M  V30 16840 H 1550.35 -2.72014 4.10206 0
M  V30 16841 N 1552.01 -1.43353 -0.654814 0
M  V30 16842 C 1553.25 -1.44885 -1.41473 0
M  V30 16843 C 1553.58 -0.0725577 -1.94365 0
M  V30 16844 O 1552.84 0.9222 -1.72609 0
M  V30 16845 C 1553.13 -2.437 -2.61429 0
M  V30 16846 C 1552.8 -3.89612 -2.26965 0
M  V30 16847 C 1551.46 -4.29353 -2.17278 0
M  V30 16848 C 1553.81 -4.81569 -1.99351 0
M  V30 16849 C 1551.14 -5.59005 -1.7813 0
M  V30 16850 C 1553.49 -6.11584 -1.61702 0
M  V30 16851 C 1552.16 -6.50303 -1.50539 0
M  V30 16852 H 1551.43 -0.530172 -0.517686 0
M  V30 16853 H 1554.08 -1.76422 -0.744824 0
M  V30 16854 H 1552.38 -2.05561 -3.33544 0
M  V30 16855 H 1554.08 -2.42141 -3.19638 0
M  V30 16856 H 1550.67 -3.58159 -2.35414 0
M  V30 16857 H 1554.85 -4.51639 -2.05757 0
M  V30 16858 H 1550.11 -5.87845 -1.68072 0
M  V30 16859 H 1554.28 -6.82312 -1.39365 0
M  V30 16860 H 1551.91 -7.50673 -1.19975 0
M  V30 16861 N 1553.48 0.89303 -1.29857 0
M  V30 16862 C 1554.41 2.01422 -1.18117 0
M  V30 16863 C 1555.39 1.6994 -0.0737487 0
M  V30 16864 O 1556.58 1.92527 -0.254387 0
M  V30 16865 C 1553.71 3.36385 -0.863842 0
M  V30 16866 C 1552.66 3.821 -1.92831 0
M  V30 16867 C 1551.99 5.14263 -1.46415 0
M  V30 16868 C 1553.29 4.01699 -3.33819 0
M  V30 16869 H 1554.98 2.11502 -2.11913 0
M  V30 16870 H 1552.53 1.01622 -1.02024 0
M  V30 16871 H 1554.48 4.14335 -0.768397 0
M  V30 16872 H 1553.21 3.26415 0.109816 0
M  V30 16873 H 1551.87 3.06372 -2.01325 0
M  V30 16874 H 1551.51 5.00714 -0.478983 0
M  V30 16875 H 1551.21 5.45821 -2.17609 0
M  V30 16876 H 1552.74 5.94747 -1.38234 0
M  V30 16877 H 1554.15 4.70111 -3.28129 0
M  V30 16878 H 1552.55 4.44621 -4.03029 0
M  V30 16879 H 1553.62 3.05816 -3.76304 0
M  V30 16880 N 1554.96 1.12442 1.10429 0
M  V30 16881 C 1555.89 0.814745 2.18824 0
M  V30 16882 C 1556.87 -0.221476 1.68652 0
M  V30 16883 O 1558.06 -0.0826537 1.94024 0
M  V30 16884 C 1555.19 0.268632 3.4626 0
M  V30 16885 C 1554.14 1.23792 4.09707 0
M  V30 16886 C 1553.47 0.552034 5.31843 0
M  V30 16887 C 1554.77 2.5926 4.53411 0
M  V30 16888 H 1556.46 1.72111 2.44986 0
M  V30 16889 H 1554.01 0.828968 1.17746 0
M  V30 16890 H 1555.96 0.0397207 4.21381 0
M  V30 16891 H 1554.68 -0.673079 3.19589 0
M  V30 16892 H 1553.34 1.45264 3.36592 0
M  V30 16893 H 1552.99 -0.394821 5.01448 0
M  V30 16894 H 1552.69 1.19861 5.75245 0
M  V30 16895 H 1554.22 0.332161 6.09696 0
M  V30 16896 H 1555.63 2.41816 5.19806 0
M  V30 16897 H 1554.03 3.19997 5.07663 0
M  V30 16898 H 1555.1 3.17699 3.66327 0
M  V30 16899 N 1556.44 -1.28223 0.91633 0
M  V30 16900 C 1557.86 -1.47281 0.614864 0
M  V30 16901 C 1558.06 -1.83197 -0.839111 0
M  V30 16902 O 1557.11 -1.9385 -1.61798 0
M  V30 16903 C 1558.42 -2.57373 1.55498 0
M  V30 16904 C 1559.97 -2.71241 1.56197 0
M  V30 16905 C 1560.45 -3.84479 2.48877 0
M  V30 16906 N 1561.94 -3.91837 2.47019 0
M  V30 16907 C 1562.67 -4.78846 3.15427 0
M  V30 16908 N 1562.17 -5.70427 3.93173 0
M  V30 16909 N 1563.96 -4.72478 3.04501 0
M  V30 16910 H 1556.11 -1.03191 1.85649 0
M  V30 16911 H 1558.38 -0.514213 0.796422 0
M  V30 16912 H 1558.08 -2.37747 2.5917 0
M  V30 16913 H 1557.96 -3.54527 1.28803 0
M  V30 16914 H 1560.34 -2.90254 0.532619 0
M  V30 16915 H 1560.42 -1.74609 1.86937 0
M  V30 16916 H 1560.07 -3.6622 3.51916 0
M  V30 16917 H 1560 -4.80514 2.15439 0
M  V30 16918 H 1562.49 -3.26344 1.90546 0
M  V30 16919 H 1562.8 -6.33653 4.42384 0
M  V30 16920 H 1561.15 -5.70259 3.97278 0
M  V30 16921 H 1564.34 -3.99925 2.43265 0
M  V30 16922 H 1564.51 -5.40073 3.58086 0
M  V30 16923 N 1557.92 -0.68059 -1.42147 0
M  V30 16924 C 1558.88 -0.0149865 -2.29195 0
M  V30 16925 C 1559.88 0.723163 -1.43621 0
M  V30 16926 O 1561.07 0.560297 -1.64943 0
M  V30 16927 C 1558.2 0.989375 -3.26227 0
M  V30 16928 H 1559.4 -0.781236 -2.89546 0
M  V30 16929 H 1556.95 -0.443256 -1.49883 0
M  V30 16930 H 1557.68 1.78391 -2.70827 0
M  V30 16931 H 1557.47 0.463401 -3.89352 0
M  V30 16932 H 1558.96 1.45334 -3.91494 0
M  V30 16933 N 1559.4 1.51781 -0.424309 0
M  V30 16934 C 1560.63 2.06088 0.145337 0
M  V30 16935 C 1561.03 1.29297 1.38127 0
M  V30 16936 O 1560.38 0.342227 1.80484 0
M  V30 16937 C 1560.44 3.55333 0.545777 0
M  V30 16938 C 1560.1 4.53285 -0.581528 0
M  V30 16939 C 1561.1 4.99278 -1.44973 0
M  V30 16940 C 1558.78 4.96539 -0.758549 0
M  V30 16941 C 1560.78 5.87185 -2.47977 0
M  V30 16942 C 1558.47 5.84239 -1.79188 0
M  V30 16943 C 1559.46 6.29458 -2.65089 0
M  V30 16944 O 1559.15 7.15418 -3.6665 0
M  V30 16945 H 1558.88 0.675782 0.0171719 0
M  V30 16946 H 1561.44 1.96492 -0.598349 0
M  V30 16947 H 1559.67 3.62668 1.34197 0
M  V30 16948 H 1561.36 3.92215 1.04508 0
M  V30 16949 H 1562.12 4.66566 -1.32445 0
M  V30 16950 H 1558 4.60893 -0.0995452 0
M  V30 16951 H 1561.55 6.22401 -3.15059 0
M  V30 16952 H 1557.44 6.16365 -1.91742 0
M  V30 16953 H 1558.21 7.33566 -3.63074 0
M  V30 16954 N 1560.87 0.155222 1.56834 0
M  V30 16955 C 1562.28 -0.364232 1.83113 0
M  V30 16956 C 1562.64 -1.64173 1.07432 0
M  V30 16957 O 1561.76 -2.13988 0.322202 0
M  V30 16958 C 1562.36 -0.667608 3.32157 0
M  V30 16959 C 1560.91 -1.13156 3.58989 0
M  V30 16960 C 1560.06 -0.158941 2.76844 0
M  V30 16961 H 1563.01 0.379779 1.54089 0
M  V30 16962 H 1563.03 -1.52141 3.4876 0
M  V30 16963 H 1562.55 0.262355 3.87212 0
M  V30 16964 H 1560.65 -2.07717 3.09329 0
M  V30 16965 H 1560.76 -1.05184 4.67411 0
M  V30 16966 H 1559.12 -0.653181 2.46182 0
M  V30 16967 H 1559.91 0.764757 3.34674 0
M  V30 16968 N 1562.35 -1.57153 -0.118549 0
M  V30 16969 C 1563.63 -1.75846 -0.856587 0
M  V30 16970 C 1564.01 -0.730801 -1.98047 0
M  V30 16971 O 1563.36 0.245156 -2.27181 0
M  V30 16972 C 1563.57 -3.20864 -1.37286 0
M  V30 16973 C 1564.91 -3.83378 -1.82501 0
M  V30 16974 O 1565.94 -3.24469 -1.46964 0
M  V30 16975 O 1564.8 -4.86922 -2.48132 0
M  V30 16976 H 1561.89 -0.72002 -0.406817 0
M  V30 16977 H 1564.44 -1.69392 -0.102254 0
M  V30 16978 H 1563.21 -3.87177 -0.566531 0
M  V30 16979 H 1562.83 -3.31858 -2.18988 0
M  V30 16980 N 1563.83 0.388742 -1.5273 0
M  V30 16981 C 1564.76 1.48133 -1.80496 0
M  V30 16982 C 1565.74 1.56899 -0.657008 0
M  V30 16983 O 1566.93 1.71844 -0.904621 0
M  V30 16984 C 1564.06 2.85742 -1.97405 0
M  V30 16985 C 1563.01 2.91815 -3.13094 0
M  V30 16986 C 1562.34 4.31876 -3.15258 0
M  V30 16987 C 1563.64 2.61438 -4.52159 0
M  V30 16988 H 1565.33 1.25147 -2.7199 0
M  V30 16989 H 1562.88 0.600603 -1.30877 0
M  V30 16990 H 1564.83 3.62182 -2.15412 0
M  V30 16991 H 1563.55 3.10065 -1.02601 0
M  V30 16992 H 1562.21 2.17824 -2.9487 0
M  V30 16993 H 1561.86 4.53239 -2.18135 0
M  V30 16994 H 1561.56 4.3686 -3.92972 0
M  V30 16995 H 1563.08 5.10221 -3.3542 0
M  V30 16996 H 1564.5 3.27596 -4.70483 0
M  V30 16997 H 1562.89 2.77771 -5.31943 0
M  V30 16998 H 1563.96 1.56778 -4.58856 0
M  V30 16999 N 1565.31 1.43698 0.647203 0
M  V30 17000 C 1566.24 1.45295 1.77262 0
M  V30 17001 C 1567.25 0.34831 1.5903 0
M  V30 17002 O 1568.44 0.613106 1.6764 0
M  V30 17003 C 1565.54 1.25584 3.14773 0
M  V30 17004 C 1564.71 2.48998 3.59609 0
M  V30 17005 C 1563.77 2.24423 4.75942 0
M  V30 17006 O 1562.8 2.97813 4.85073 0
M  V30 17007 N 1564 1.26465 5.66557 0
M  V30 17008 H 1566.77 2.42311 1.76368 0
M  V30 17009 H 1564.33 1.38931 0.831247 0
M  V30 17010 H 1566.32 1.07016 3.90294 0
M  V30 17011 H 1564.89 0.369927 3.10403 0
M  V30 17012 H 1564.11 2.82951 2.74467 0
M  V30 17013 H 1565.4 3.31119 3.86313 0
M  V30 17014 H 1564.8 0.658206 5.61858 0
M  V30 17015 H 1563.35 1.13879 6.41775 0
M  V30 17016 N 1566.79 -0.886131 1.30328 0
M  V30 17017 C 1568.04 -1.63255 1.18451 0
M  V30 17018 C 1568.35 -1.93864 -0.260016 0
M  V30 17019 O 1569.55 -2.66851 -0.500288 0
M  V30 17020 C 1568.01 -2.94232 2.07257 0
M  V30 17021 C 1567.62 -2.71168 3.56612 0
M  V30 17022 C 1569.36 -3.72193 2.04139 0
M  V30 17023 C 1567.27 -3.97954 4.37478 0
M  V30 17024 H 1566.2 -0.612491 0.439739 0
M  V30 17025 H 1568.85 -0.981129 1.55068 0
M  V30 17026 H 1567.23 -3.60661 1.63522 0
M  V30 17027 H 1568.41 -2.13247 4.08488 0
M  V30 17028 H 1566.72 -2.06584 3.61541 0
M  V30 17029 H 1569.32 -4.66219 2.61809 0
M  V30 17030 H 1569.66 -4.03495 1.02459 0
M  V30 17031 H 1570.19 -3.12624 2.45989 0
M  V30 17032 H 1566.93 -3.71811 5.39849 0
M  V30 17033 H 1566.45 -4.55384 3.90366 0
M  V30 17034 H 1568.13 -4.65984 4.48852 0
M  V30 17035 N 1568.26 -1.13026 -1.09832 0
M  V30 17036 C 1569.23 -0.806832 -2.14529 0
M  V30 17037 C 1570.23 0.18175 -1.5977 0
M  V30 17038 O 1571.42 -0.0448155 -1.74142 0
M  V30 17039 C 1568.55 -0.200093 -3.40312 0
M  V30 17040 H 1569.74 -1.73453 -2.44651 0
M  V30 17041 H 1567.3 -0.934331 -1.25299 0
M  V30 17042 H 1568.03 0.737028 -3.15814 0
M  V30 17043 H 1567.82 -0.911945 -3.81348 0
M  V30 17044 H 1569.31 0.00948247 -4.17599 0
M  V30 17045 N 1569.74 1.27735 -0.923117 0
M  V30 17046 C 1570.97 1.98394 -0.57648 0
M  V30 17047 C 1571.38 1.69093 0.848778 0
M  V30 17048 O 1570.72 0.945385 1.57506 0
M  V30 17049 C 1570.79 3.52278 -0.716984 0
M  V30 17050 C 1570.45 4.05191 -2.11351 0
M  V30 17051 C 1571.45 4.18314 -3.08722 0
M  V30 17052 C 1569.13 4.39652 -2.42922 0
M  V30 17053 C 1571.13 4.65166 -4.35774 0
M  V30 17054 C 1568.81 4.86196 -3.70211 0
M  V30 17055 C 1569.81 4.98911 -4.66451 0
M  V30 17056 O 1569.5 5.44437 -5.91476 0
M  V30 17057 H 1569.23 0.640008 -0.217636 0
M  V30 17058 H 1571.78 1.63666 -1.24107 0
M  V30 17059 H 1570.01 3.867 0.00469601 0
M  V30 17060 H 1571.7 4.04154 -0.376077 0
M  V30 17061 H 1572.47 3.91955 -2.85651 0
M  V30 17062 H 1568.35 4.29 -1.6876 0
M  V30 17063 H 1571.89 4.75006 -5.10896 0
M  V30 17064 H 1567.79 5.11997 -3.93103 0
M  V30 17065 H 1568.56 5.62701 -5.94399 0
M  V30 17066 N 1571.22 0.688118 1.41784 0
M  V30 17067 C 1572.15 0.0323199 2.33478 0
M  V30 17068 C 1573.13 -0.775145 1.51412 0
M  V30 17069 O 1574.32 -0.72962 1.79973 0
M  V30 17070 C 1571.45 -0.910141 3.35162 0
M  V30 17071 C 1570.4 -0.210312 4.27483 0
M  V30 17072 C 1569.73 -1.26662 5.19481 0
M  V30 17073 C 1571.03 0.918839 5.14154 0
M  V30 17074 H 1572.72 0.798138 2.88566 0
M  V30 17075 H 1570.27 0.385262 1.38751 0
M  V30 17076 H 1572.22 -1.3781 3.98229 0
M  V30 17077 H 1570.94 -1.70754 2.78408 0
M  V30 17078 H 1569.6 0.237544 3.6583 0
M  V30 17079 H 1569.25 -2.05635 4.59046 0
M  V30 17080 H 1568.95 -0.803416 5.82082 0
M  V30 17081 H 1570.47 -1.73524 5.85424 0
M  V30 17082 H 1571.89 0.531499 5.70831 0
M  V30 17083 H 1570.29 1.30867 5.85657 0
M  V30 17084 H 1571.36 1.7618 4.51762 0
M  V30 17085 N 1572.7 -1.51554 0.432352 0
M  V30 17086 C 1573.98 -1.94621 -0.195472 0
M  V30 17087 C 1574.36 -1.37072 -1.60544 0
M  V30 17088 O 1573.7 -0.555781 -2.21638 0
M  V30 17089 C 1573.91 -3.48544 -0.178267 0
M  V30 17090 C 1575.26 -4.22839 -0.386283 0
M  V30 17091 O 1576.29 -3.55275 -0.256604 0
M  V30 17092 O 1575.14 -5.42693 -0.643927 0
M  V30 17093 H 1572.24 -0.816291 -0.132656 0
M  V30 17094 H 1574.78 -1.62473 0.489972 0
M  V30 17095 H 1573.56 -3.82874 0.807658 0
M  V30 17096 H 1573.18 -3.87121 -0.906832 0
M  V30 17097 N 1574.18 -0.163538 -1.56749 0
M  V30 17098 C 1575.09 0.782461 -2.21167 0
M  V30 17099 C 1576.1 1.25911 -1.20093 0
M  V30 17100 O 1577.28 1.31286 -1.52728 0
M  V30 17101 C 1574.34 1.99761 -2.83366 0
M  V30 17102 C 1573.4 1.56859 -3.99617 0
M  V30 17103 C 1572.64 2.72582 -4.58841 0
M  V30 17104 O 1572.86 3.89243 -4.16949 0
M  V30 17105 O 1571.79 2.47104 -5.48838 0
M  V30 17106 H 1575.62 0.264023 -3.0255 0
M  V30 17107 H 1573.21 0.06429 -1.49262 0
M  V30 17108 H 1575.09 2.70843 -3.22835 0
M  V30 17109 H 1573.76 2.50526 -2.04984 0
M  V30 17110 H 1572.67 0.827511 -3.64833 0
M  V30 17111 H 1574 1.10794 -4.79568 0
M  V30 17112 N 1575.65 1.57214 0.110213 0
M  V30 17113 C 1576.56 2.04287 1.15342 0
M  V30 17114 C 1577.58 0.964895 1.44796 0
M  V30 17115 O 1578.76 1.27702 1.55737 0
M  V30 17116 C 1575.82 2.44518 2.45788 0
M  V30 17117 C 1574.88 3.66439 2.23653 0
M  V30 17118 C 1574.12 4.04742 3.47879 0
M  V30 17119 O 1574.34 3.43291 4.5553 0
M  V30 17120 O 1573.27 4.97791 3.38361 0
M  V30 17121 H 1577.1 2.93415 0.783656 0
M  V30 17122 H 1574.68 1.45897 0.321644 0
M  V30 17123 H 1576.57 2.71089 3.22628 0
M  V30 17124 H 1575.24 1.58533 2.82221 0
M  V30 17125 H 1574.15 3.45006 1.44643 0
M  V30 17126 H 1575.48 4.53156 1.9212 0
M  V30 17127 N 1577.13 -0.380637 1.52934 0
M  V30 17128 C 1578.54 -0.958182 1.60237 0
M  V30 17129 C 1578.89 -1.90722 0.460393 0
M  V30 17130 O 1578.02 -2.12376 -0.415354 0
M  V30 17131 C 1578.61 -1.7446 2.90429 0
M  V30 17132 C 1577.17 -2.27172 3.00116 0
M  V30 17133 C 1576.32 -1.07969 2.55417 0
M  V30 17134 H 1579.27 -0.159908 1.57892 0
M  V30 17135 H 1579.29 -2.60456 2.77385 0
M  V30 17136 H 1578.8 -1.05362 3.73524 0
M  V30 17137 H 1576.91 -2.99557 2.21577 0
M  V30 17138 H 1577.02 -2.56086 4.04916 0
M  V30 17139 H 1575.38 -1.4422 2.09935 0
M  V30 17140 H 1576.17 -0.403925 3.40915 0
M  V30 17141 N 1578.61 -1.44039 -0.639573 0
M  V30 17142 C 1580.02 -1.41236 -1.22104 0
M  V30 17143 C 1580.37 -0.123367 -1.95812 0
M  V30 17144 O 1579.5 0.776641 -2.01983 0
M  V30 17145 C 1580.09 -2.55853 -2.22092 0
M  V30 17146 C 1578.65 -2.56271 -2.75685 0
M  V30 17147 C 1577.8 -2.32877 -1.50544 0
M  V30 17148 H 1580.75 -1.52742 -0.430756 0
M  V30 17149 H 1580.77 -2.28123 -3.04533 0
M  V30 17150 H 1580.28 -3.49653 -1.68417 0
M  V30 17151 H 1578.38 -1.66389 -3.33385 0
M  V30 17152 H 1578.5 -3.54486 -3.22299 0
M  V30 17153 H 1576.86 -1.81807 -1.78377 0
M  V30 17154 H 1577.64 -3.2878 -0.987845 0
M  V30 17155 N 1580.09 0.879207 -1.30796 0
M  V30 17156 C 1581.05 1.96707 -1.17639 0
M  V30 17157 C 1582.05 1.6045 -0.106013 0
M  V30 17158 O 1583.24 1.70553 -0.354573 0
M  V30 17159 C 1580.37 3.31292 -0.803625 0
M  V30 17160 H 1581.57 2.09806 -2.14293 0
M  V30 17161 H 1579.12 1.06634 -1.14276 0
M  V30 17162 H 1579.85 3.23894 0.162159 0
M  V30 17163 H 1579.64 3.58979 -1.57723 0
M  V30 17164 H 1581.13 4.11077 -0.735201 0
M  V30 17165 N 1581.57 1.13606 1.09231 0
M  V30 17166 C 1582.52 0.810747 2.18013 0
M  V30 17167 C 1583.51 -0.207782 1.68121 0
M  V30 17168 O 1584.72 -0.0647274 1.79884 0
M  V30 17169 H 1581.09 0.244415 0.711172 0
M  V30 17170 H 1583.06 1.73632 2.42682 0
M  V30 17171 C 1581.81 0.295302 3.46444 0
M  V30 17172 H 1581.13 1.07037 3.85205 0
M  V30 17173 H 1582.57 0.106127 4.23867 0
M  V30 17174 C 1581.03 -0.979398 3.2235 0
M  V30 17175 O 1581.56 -2.05483 3.45166 0
M  V30 17176 N 1579.77 -0.911282 2.75942 0
M  V30 17177 H 1579.32 -0.035979 2.57575 0
M  V30 17178 H 1579.27 -1.76476 2.60199 0
M  V30 17179 N 1583.05 -1.27244 0.929878 0
M  V30 17180 C 1583.96 -2.30506 0.436355 0
M  V30 17181 C 1584.97 -1.67131 -0.484054 0
M  V30 17182 O 1586.15 -1.9804 -0.366332 0
M  V30 17183 C 1583.21 -3.45391 -0.300942 0
M  V30 17184 C 1582.27 -4.24279 0.654647 0
M  V30 17185 C 1581.51 -5.33679 -0.047558 0
M  V30 17186 O 1581.73 -5.56161 -1.26654 0
M  V30 17187 O 1580.66 -5.98642 0.62538 0
M  V30 17188 H 1584.49 -2.74762 1.29382 0
M  V30 17189 H 1582.07 -1.32234 0.695311 0
M  V30 17190 H 1583.96 -4.1526 -0.716718 0
M  V30 17191 H 1582.63 -3.03187 -1.13398 0
M  V30 17192 H 1581.54 -3.56936 1.12015 0
M  V30 17193 H 1582.87 -4.70204 1.45497 0
M  V30 17194 N 1584.52 -0.695628 -1.41417 0
M  V30 17195 C 1585.77 -0.226171 -2.0083 0
M  V30 17196 C 1586.09 1.17833 -1.55371 0
M  V30 17197 O 1585.36 1.79512 -0.784362 0
M  V30 17198 H 1583.94 -0.0806271 -0.742636 0
M  V30 17199 H 1586.6 -0.8968 -1.73042 0
M  V30 17200 H 1585.7 -0.243643 -3.11148 0
M  V30 17201 N 1586 1.51322 -0.440383 0
M  V30 17202 C 1586.91 2.31574 0.37561 0
M  V30 17203 C 1587.93 1.40617 1.02483 0
M  V30 17204 O 1589.1 1.73688 1.01953 0
M  V30 17205 C 1586.17 3.14441 1.4604 0
M  V30 17206 C 1585.23 4.21181 0.830991 0
M  V30 17207 C 1584.46 5.00087 1.86409 0
M  V30 17208 O 1584.69 4.79666 3.08669 0
M  V30 17209 O 1583.62 5.84101 1.45293 0
M  V30 17210 H 1587.45 3.0241 -0.27962 0
M  V30 17211 H 1585.03 1.48016 -0.202857 0
M  V30 17212 H 1586.91 3.6595 2.08946 0
M  V30 17213 H 1585.59 2.46366 2.09965 0
M  V30 17214 H 1584.49 3.73741 0.163798 0
M  V30 17215 H 1585.83 4.91638 0.235174 0
M  V30 17216 N 1587.48 0.171848 1.5666 0
M  V30 17217 C 1588.39 -0.770721 2.21579 0
M  V30 17218 C 1589.41 -1.25273 1.20759 0
M  V30 17219 O 1590.58 -1.30474 1.53422 0
M  V30 17220 C 1587.65 -1.98256 2.84422 0
M  V30 17221 C 1586.71 -1.54738 4.00443 0
M  V30 17222 C 1585.94 -2.70145 4.6028 0
M  V30 17223 O 1586.16 -3.87026 4.19007 0
M  V30 17224 O 1585.1 -2.44189 5.50141 0
M  V30 17225 H 1588.92 -0.247974 3.02686 0
M  V30 17226 H 1586.51 -0.0563734 1.49294 0
M  V30 17227 H 1588.39 -2.69127 3.24266 0
M  V30 17228 H 1587.07 -2.49435 2.0631 0
M  V30 17229 H 1585.97 -0.808152 3.65267 0
M  V30 17230 H 1587.31 -1.08249 4.80149 0
M  V30 17231 N 1588.96 -1.5727 -0.101874 0
M  V30 17232 C 1590.37 -1.74753 -0.657147 0
M  V30 17233 C 1590.72 -0.793052 -1.79458 0
M  V30 17234 O 1589.84 0.0300559 -2.16379 0
M  V30 17235 C 1590.44 -3.1688 -1.19885 0
M  V30 17236 C 1589 -3.3581 -1.70025 0
M  V30 17237 C 1588.15 -2.70575 -0.607007 0
M  V30 17238 H 1591.1 -1.58214 0.124158 0
M  V30 17239 H 1591.12 -3.19378 -2.06829 0
M  V30 17240 H 1590.63 -3.86325 -0.37079 0
M  V30 17241 H 1588.73 -2.71434 -2.55253 0
M  V30 17242 H 1588.84 -4.44086 -1.79791 0
M  V30 17243 H 1587.21 -2.32284 -1.04481 0
M  V30 17244 H 1587.99 -3.42655 0.21036 0
M  V30 17245 N 1590.44 0.372521 -1.53134 0
M  V30 17246 C 1591.85 0.713727 -1.42752 0
M  V30 17247 C 1592.05 1.93532 -0.561051 0
M  V30 17248 O 1591.11 2.52467 -0.0408195 0
M  V30 17249 C 1592.42 0.933418 -2.85846 0
M  V30 17250 C 1593.97 1.03386 -2.95432 0
M  V30 17251 C 1594.44 1.28607 -4.39573 0
M  V30 17252 N 1595.93 1.35393 -4.42971 0
M  V30 17253 C 1596.67 1.56604 -5.516 0
M  V30 17254 N 1596.17 1.75178 -6.70287 0
M  V30 17255 N 1597.96 1.58917 -5.39168 0
M  V30 17256 H 1590.11 -0.431068 -2.0798 0
M  V30 17257 H 1592.37 -0.130757 -0.938939 0
M  V30 17258 H 1592.08 0.107707 -3.51535 0
M  V30 17259 H 1591.95 1.84348 -3.29083 0
M  V30 17260 H 1594.34 1.85012 -2.29901 0
M  V30 17261 H 1594.42 0.101346 -2.55599 0
M  V30 17262 H 1594.06 0.47485 -5.05675 0
M  V30 17263 H 1593.99 2.2317 -4.76973 0
M  V30 17264 H 1596.49 1.22681 -3.57432 0
M  V30 17265 H 1596.8 1.90916 -7.48846 0
M  V30 17266 H 1595.14 1.7237 -6.73286 0
M  V30 17267 H 1598.33 1.4397 -4.4541 0
M  V30 17268 H 1598.51 1.75108 -6.23892 0
M  V30 17269 N 1591.91 1.44376 0.631925 0
M  V30 17270 C 1592.84 1.54005 1.75512 0
M  V30 17271 C 1593.82 0.393126 1.65495 0
M  V30 17272 O 1595.01 0.613143 1.84267 0
M  V30 17273 C 1592.14 1.48313 3.14039 0
M  V30 17274 C 1591.09 2.61474 3.38844 0
M  V30 17275 C 1590.42 2.40834 4.77392 0
M  V30 17276 C 1591.72 4.03627 3.31485 0
M  V30 17277 H 1593.41 2.48019 1.6771 0
M  V30 17278 H 1590.96 1.19368 0.80543 0
M  V30 17279 H 1592.91 1.5365 3.9239 0
M  V30 17280 H 1591.64 0.508152 3.22623 0
M  V30 17281 H 1590.3 2.55525 2.62874 0
M  V30 17282 H 1589.94 1.4153 4.82678 0
M  V30 17283 H 1589.64 3.16703 4.94947 0
M  V30 17284 H 1591.17 2.47988 5.57974 0
M  V30 17285 H 1592.58 4.1095 3.99741 0
M  V30 17286 H 1590.98 4.79694 3.60574 0
M  V30 17287 H 1592.05 4.27255 2.29307 0
M  V30 17288 N 1593.39 -0.872258 1.31261 0
M  V30 17289 C 1594.62 -1.65555 1.23593 0
M  V30 17290 C 1595.03 -1.88124 -0.201532 0
M  V30 17291 O 1594.37 -1.43792 -1.14323 0
M  V30 17292 C 1594.43 -3.04726 1.90742 0
M  V30 17293 C 1594.1 -3.05276 3.40082 0
M  V30 17294 C 1595.1 -2.83401 4.35867 0
M  V30 17295 C 1592.78 -3.26469 3.81737 0
M  V30 17296 C 1594.77 -2.82697 5.71281 0
M  V30 17297 C 1592.46 -3.25393 5.17265 0
M  V30 17298 C 1593.46 -3.03533 6.11847 0
M  V30 17299 O 1593.15 -3.02297 7.44897 0
M  V30 17300 H 1592.88 -0.52296 0.428356 0
M  V30 17301 H 1595.43 -1.09717 1.73641 0
M  V30 17302 H 1593.66 -3.62281 1.35239 0
M  V30 17303 H 1595.35 -3.65265 1.7702 0
M  V30 17304 H 1596.12 -2.66812 4.05014 0
M  V30 17305 H 1592 -3.42515 3.08552 0
M  V30 17306 H 1595.54 -2.65553 6.45079 0
M  V30 17307 H 1591.44 -3.41522 5.47753 0
M  V30 17308 H 1592.21 -3.18375 7.54042 0
M  V30 17309 N 1594.87 -1.14184 -1.08627 0
M  V30 17310 C 1596.09 -0.932504 -1.85254 0
M  V30 17311 C 1596.52 0.513792 -1.80947 0
M  V30 17312 O 1595.88 1.36525 -1.19292 0
M  V30 17313 C 1595.93 -1.43519 -3.30809 0
M  V30 17314 O 1595.03 -0.625806 -4.07624 0
M  V30 17315 H 1594.37 -0.333573 -0.57413 0
M  V30 17316 H 1596.9 -1.51853 -1.3712 0
M  V30 17317 H 1596.91 -1.44238 -3.81654 0
M  V30 17318 H 1595.59 -2.48819 -3.3326 0
M  V30 17319 H 1594.16 -0.687168 -3.66514 0
M  V30 17320 N 1596.35 1.26749 -0.936613 0
M  V30 17321 C 1597.31 2.24794 -0.447243 0
M  V30 17322 C 1598.31 1.54688 0.439135 0
M  V30 17323 O 1599.5 1.72553 0.238957 0
M  V30 17324 C 1596.63 3.39036 0.355958 0
M  V30 17325 H 1597.83 2.696 -1.31361 0
M  V30 17326 H 1595.38 1.38825 -0.718143 0
M  V30 17327 H 1596.11 2.99625 1.24077 0
M  V30 17328 H 1595.9 3.91101 -0.279691 0
M  V30 17329 H 1597.39 4.11887 0.688421 0
M  V30 17330 N 1597.83 0.703118 1.41046 0
M  V30 17331 C 1598.76 0.0570815 2.3343 0
M  V30 17332 C 1599.74 -0.759042 1.52225 0
M  V30 17333 O 1600.92 -0.710491 1.80736 0
M  V30 17334 C 1598.05 -0.874541 3.36109 0
M  V30 17335 C 1597.01 -0.16496 4.27682 0
M  V30 17336 C 1596.33 -1.21145 5.20795 0
M  V30 17337 C 1597.63 0.97332 5.13151 0
M  V30 17338 H 1599.33 0.828699 2.87703 0
M  V30 17339 H 1596.87 0.399956 1.38334 0
M  V30 17340 H 1598.83 -1.33579 3.99668 0
M  V30 17341 H 1597.55 -1.67791 2.80203 0
M  V30 17342 H 1596.21 0.276332 3.65557 0
M  V30 17343 H 1595.86 -2.00755 4.61201 0
M  V30 17344 H 1595.56 -0.741633 5.82901 0
M  V30 17345 H 1597.08 -1.67305 5.87232 0
M  V30 17346 H 1598.49 0.592013 5.70235 0
M  V30 17347 H 1596.89 1.37071 5.84236 0
M  V30 17348 H 1597.96 1.80961 4.49868 0
M  V30 17349 N 1599.3 -1.51086 0.448402 0
M  V30 17350 C 1600.55 -2.01367 -0.115904 0
M  V30 17351 C 1600.87 -1.33658 -1.42811 0
M  V30 17352 O 1602.07 -1.74968 -2.07602 0
M  V30 17353 C 1600.53 -3.58981 -0.257092 0
M  V30 17354 C 1600.14 -4.35634 1.04534 0
M  V30 17355 C 1601.88 -4.17373 -0.774573 0
M  V30 17356 C 1599.79 -5.84978 0.869184 0
M  V30 17357 H 1598.72 -0.752528 -0.0470907 0
M  V30 17358 H 1601.37 -1.74098 0.57985 0
M  V30 17359 H 1599.75 -3.82742 -1.01611 0
M  V30 17360 H 1600.92 -4.23612 1.81354 0
M  V30 17361 H 1599.24 -3.88745 1.49219 0
M  V30 17362 H 1601.84 -5.26673 -0.923032 0
M  V30 17363 H 1602.18 -3.77267 -1.75997 0
M  V30 17364 H 1602.71 -3.97732 -0.0735697 0
M  V30 17365 H 1599.45 -6.29516 1.82729 0
M  V30 17366 H 1598.97 -5.99634 0.140969 0
M  V30 17367 H 1600.65 -6.44852 0.526752 0
M  V30 17368 N 1600.78 -0.180154 -1.56567 0
M  V30 17369 C 1602.06 0.509347 -1.88852 0
M  V30 17370 C 1602.44 1.80697 -1.09141 0
M  V30 17371 O 1601.79 2.27726 -0.187974 0
M  V30 17372 C 1602 0.742669 -3.41006 0
M  V30 17373 C 1603.35 1.06873 -4.1093 0
M  V30 17374 O 1604.37 0.830907 -3.46373 0
M  V30 17375 O 1603.23 1.51784 -5.24999 0
M  V30 17376 H 1600.32 0.263629 -0.783855 0
M  V30 17377 H 1602.87 -0.219251 -1.68278 0
M  V30 17378 H 1601.64 -0.17431 -3.90912 0
M  V30 17379 H 1601.26 1.52427 -3.67222 0
M  V30 17380 N 1602.26 1.57322 0.0935319 0
M  V30 17381 C 1603.51 1.858 0.795165 0
M  V30 17382 C 1603.83 0.769078 1.79193 0
M  V30 17383 O 1603.1 -0.204511 1.9483 0
M  V30 17384 H 1601.68 0.68557 0.296653 0
M  V30 17385 H 1604.34 1.94756 0.0747892 0
M  V30 17386 H 1603.44 2.82588 1.32479 0
M  V30 17387 N 1603.74 -0.364395 1.53329 0
M  V30 17388 C 1604.69 -1.4466 1.76232 0
M  V30 17389 C 1605.67 -1.48605 0.616884 0
M  V30 17390 O 1606.86 -1.53826 0.875589 0
M  V30 17391 C 1603.99 -2.82078 1.95671 0
M  V30 17392 C 1603.08 -2.82606 3.16219 0
M  V30 17393 N 1603.47 -2.52781 4.38105 0
M  V30 17394 C 1601.77 -3.13766 3.16965 0
M  V30 17395 C 1602.47 -2.61017 5.19851 0
M  V30 17396 N 1601.45 -2.95777 4.56088 0
M  V30 17397 H 1605.25 -1.20465 2.68077 0
M  V30 17398 H 1602.76 -0.572589 1.51971 0
M  V30 17399 H 1604.76 -3.60026 2.10206 0
M  V30 17400 H 1603.42 -3.07236 1.05054 0
M  V30 17401 H 1604.43 -2.26353 4.65816 0
M  V30 17402 H 1601.11 -3.44231 2.36245 0
M  V30 17403 H 1602.5 -2.41294 6.27078 0
M  V30 17404 N 1605.22 -1.44709 -0.62426 0
M  V30 17405 C 1606.46 -1.4938 -1.39517 0
M  V30 17406 C 1606.82 -0.125721 -1.91588 0
M  V30 17407 O 1608.02 -0.0471087 -2.68759 0
M  V30 17408 C 1606.29 -2.53005 -2.52435 0
M  V30 17409 S 1607.85 -2.76776 -3.40501 0
M  V30 17410 H 1604.67 -0.528266 -0.475874 0
M  V30 17411 H 1607.27 -1.81679 -0.722007 0
M  V30 17412 H 1605.98 -3.51099 -2.12502 0
M  V30 17413 H 1605.51 -2.22301 -3.2457 0
M  V30 17414 H 1607.52 -2.08891 -4.50088 0
M  V30 17415 N 1606.69 0.865285 -1.31722 0
M  V30 17416 C 1607.6 2.00542 -1.21738 0
M  V30 17417 C 1608.62 1.7349 -0.133124 0
M  V30 17418 O 1609.8 1.98303 -0.351809 0
M  V30 17419 C 1606.86 3.33993 -0.930045 0
M  V30 17420 C 1605.92 3.74337 -2.10167 0
M  V30 17421 C 1605.16 5.0142 -1.82795 0
M  V30 17422 O 1605.38 5.65242 -0.765345 0
M  V30 17423 O 1604.31 5.38642 -2.68604 0
M  V30 17424 H 1608.14 2.11898 -2.17561 0
M  V30 17425 H 1605.72 0.994313 -1.11507 0
M  V30 17426 H 1607.61 4.14008 -0.785846 0
M  V30 17427 H 1606.28 3.237 -0.00188642 0
M  V30 17428 H 1605.19 2.94943 -2.3013 0
M  V30 17429 H 1606.52 3.89261 -3.01225 0
M  V30 17430 N 1608.17 1.14759 1.0802 0
M  V30 17431 C 1609.1 0.860977 2.17047 0
M  V30 17432 C 1610.08 -0.185652 1.69084 0
M  V30 17433 O 1611.27 -0.0414797 1.94156 0
M  V30 17434 C 1608.4 0.342018 3.45612 0
M  V30 17435 C 1607.35 1.32455 4.06989 0
M  V30 17436 C 1606.68 0.664721 5.30552 0
M  V30 17437 C 1607.98 2.68819 4.4781 0
M  V30 17438 H 1609.67 1.77269 2.4128 0
M  V30 17439 H 1607.22 0.853757 1.15961 0
M  V30 17440 H 1609.17 0.129093 4.21202 0
M  V30 17441 H 1607.9 -0.605138 3.20945 0
M  V30 17442 H 1606.55 1.52371 3.33435 0
M  V30 17443 H 1606.2 -0.288367 5.02173 0
M  V30 17444 H 1605.9 1.32036 5.72573 0
M  V30 17445 H 1607.43 0.461412 6.08854 0
M  V30 17446 H 1608.84 2.52787 5.14559 0
M  V30 17447 H 1607.24 3.30694 5.00761 0
M  V30 17448 H 1608.31 3.25398 3.59506 0
M  V30 17449 N 1609.65 -1.26251 0.943322 0
M  V30 17450 C 1610.58 -2.28673 0.472347 0
M  V30 17451 C 1611.56 -1.63319 -0.475481 0
M  V30 17452 O 1612.75 -1.90508 -0.376875 0
M  V30 17453 C 1609.88 -3.46316 -0.261286 0
M  V30 17454 C 1608.83 -4.23771 0.600192 0
M  V30 17455 C 1608.16 -5.3405 -0.263525 0
M  V30 17456 C 1609.46 -4.87576 1.87262 0
M  V30 17457 H 1611.15 -2.68319 1.32836 0
M  V30 17458 H 1608.7 -1.28987 0.640182 0
M  V30 17459 H 1610.65 -4.1708 -0.601821 0
M  V30 17460 H 1609.37 -3.05629 -1.15146 0
M  V30 17461 H 1608.03 -3.54774 0.923651 0
M  V30 17462 H 1607.68 -4.89604 -1.15312 0
M  V30 17463 H 1607.38 -5.86784 0.309495 0
M  V30 17464 H 1608.9 -6.07652 -0.599281 0
M  V30 17465 H 1610.32 -5.50544 1.59919 0
M  V30 17466 H 1608.72 -5.50437 2.39038 0
M  V30 17467 H 1609.79 -4.10397 2.58268 0
M  V30 17468 N 1611.13 -0.710588 -1.40671 0
M  V30 17469 C 1612.41 -0.175319 -1.94813 0
M  V30 17470 C 1612.79 1.31792 -1.64906 0
M  V30 17471 O 1612.13 2.07167 -0.964058 0
M  V30 17472 C 1612.34 -0.482691 -3.45646 0
M  V30 17473 C 1613.69 -0.418619 -4.22531 0
M  V30 17474 O 1614.72 -0.418463 -3.53733 0
M  V30 17475 O 1613.58 -0.391787 -5.45094 0
M  V30 17476 H 1610.67 -0.0237744 -0.826658 0
M  V30 17477 H 1613.22 -0.787778 -1.50307 0
M  V30 17478 H 1611.99 -1.51569 -3.60753 0
M  V30 17479 H 1611.61 0.159984 -3.97278 0
M  V30 17480 N 1612.61 1.50847 -0.456408 0
M  V30 17481 C 1613.56 2.29805 0.359529 0
M  V30 17482 C 1614.55 1.3646 1.00374 0
M  V30 17483 O 1615.76 1.53718 0.936524 0
M  V30 17484 H 1612.13 0.739825 0.134772 0
M  V30 17485 H 1614.1 2.96603 -0.327009 0
M  V30 17486 C 1612.85 3.16597 1.43741 0
M  V30 17487 H 1612.17 3.88323 0.95108 0
M  V30 17488 H 1613.61 3.74866 1.98119 0
M  V30 17489 C 1612.07 2.3322 2.43126 0
M  V30 17490 O 1612.6 2.00504 3.48082 0
M  V30 17491 N 1610.81 1.96078 2.1448 0
M  V30 17492 H 1610.36 2.22883 1.29155 0
M  V30 17493 H 1610.31 1.40592 2.81214 0
M  V30 17494 N 1614.09 0.188454 1.56469 0
M  V30 17495 C 1615.33 -0.451165 1.97 0
M  V30 17496 C 1615.65 -1.6261 1.07624 0
M  V30 17497 O 1614.92 -1.95354 0.146125 0
M  V30 17498 H 1613.5 -0.16967 0.727476 0
M  V30 17499 H 1616.17 0.273638 1.9297 0
M  V30 17500 H 1615.26 -0.799741 3.0168 0
M  V30 17501 N 1615.56 -1.5737 -0.0851874 0
M  V30 17502 C 1616.5 -1.98027 -1.13404 0
M  V30 17503 C 1617.47 -0.855036 -1.38304 0
M  V30 17504 O 1618.66 -1.11619 -1.51899 0
M  V30 17505 C 1615.79 -2.30553 -2.48119 0
M  V30 17506 C 1614.83 -3.52947 -2.39438 0
M  V30 17507 S 1615.66 -5.04293 -1.80136 0
M  V30 17508 C 1616.82 -5.40006 -3.16456 0
M  V30 17509 H 1617.05 -2.86681 -0.787488 0
M  V30 17510 H 1614.59 -1.5159 -0.293234 0
M  V30 17511 H 1616.54 -2.49968 -3.25617 0
M  V30 17512 H 1615.21 -1.42452 -2.7994 0
M  V30 17513 H 1614.4 -3.73179 -3.38753 0
M  V30 17514 H 1614 -3.33094 -1.70072 0
M  V30 17515 H 1616.29 -5.37257 -4.12748 0
M  V30 17516 H 1617.24 -6.40932 -3.01018 0
M  V30 17517 H 1617.64 -4.67465 -3.16444 0
M  V30 17518 N 1617.04 0.356258 -1.53521 0
M  V30 17519 C 1618.46 0.698546 -1.43501 0
M  V30 17520 C 1618.66 1.92926 -0.581547 0
M  V30 17521 O 1617.71 2.5241 -0.0675947 0
M  V30 17522 C 1619.03 0.903047 -2.8682 0
M  V30 17523 C 1620.57 1.00247 -2.96512 0
M  V30 17524 C 1621.05 1.23938 -4.40912 0
M  V30 17525 N 1622.54 1.30687 -4.44382 0
M  V30 17526 C 1623.28 1.50745 -5.5323 0
M  V30 17527 N 1622.77 1.68058 -6.72107 0
M  V30 17528 N 1624.56 1.5319 -5.40823 0
M  V30 17529 H 1616.72 -0.453102 -2.07511 0
M  V30 17530 H 1618.98 -0.140708 -0.937499 0
M  V30 17531 H 1618.68 0.070416 -3.5163 0
M  V30 17532 H 1618.56 1.80847 -3.3102 0
M  V30 17533 H 1620.95 1.82564 -2.3185 0
M  V30 17534 H 1621.03 0.0742303 -2.55692 0
M  V30 17535 H 1620.67 0.421189 -5.06151 0
M  V30 17536 H 1620.6 2.18098 -4.79313 0
M  V30 17537 H 1623.09 1.18883 -3.58713 0
M  V30 17538 H 1623.4 1.82963 -7.50829 0
M  V30 17539 H 1621.75 1.65219 -6.75076 0
M  V30 17540 H 1624.94 1.39237 -4.46912 0
M  V30 17541 H 1625.11 1.6848 -6.25714 0
M  V30 17542 N 1618.52 1.45038 0.616577 0
M  V30 17543 C 1619.47 1.53022 1.7278 0
M  V30 17544 C 1620.44 0.376778 1.6177 0
M  V30 17545 O 1621.62 0.589006 1.81481 0
M  V30 17546 C 1618.76 1.49432 3.11069 0
M  V30 17547 C 1617.87 2.7526 3.3295 0
M  V30 17548 C 1617.01 2.63403 4.61294 0
M  V30 17549 C 1616.05 3.84327 4.76402 0
M  V30 17550 N 1615.19 3.71058 5.96037 0
M  V30 17551 H 1620.03 2.47957 1.65292 0
M  V30 17552 H 1617.56 1.23046 0.806102 0
M  V30 17553 H 1619.52 1.45339 3.91066 0
M  V30 17554 H 1618.15 0.580542 3.17537 0
M  V30 17555 H 1617.2 2.89479 2.46792 0
M  V30 17556 H 1618.51 3.64978 3.39989 0
M  V30 17557 H 1617.67 2.57226 5.49472 0
M  V30 17558 H 1616.41 1.7127 4.56638 0
M  V30 17559 H 1615.41 3.90873 3.8665 0
M  V30 17560 H 1616.64 4.77515 4.82863 0
M  V30 17561 H 1614.58 2.81687 5.92443 0
M  V30 17562 H 1614.5 4.54403 6.04197 0
M  V30 17563 H 1615.77 3.68798 6.86738 0
M  V30 17564 N 1620 -0.858287 1.32179 0
M  V30 17565 C 1621.41 -1.4281 1.20259 0
M  V30 17566 C 1621.76 -1.95313 -0.186332 0
M  V30 17567 O 1620.88 -1.87244 -1.08484 0
M  V30 17568 C 1621.48 -2.59589 2.17713 0
M  V30 17569 C 1620.04 -3.1258 2.09691 0
M  V30 17570 C 1619.19 -1.85317 2.06283 0
M  V30 17571 H 1622.14 -0.665769 1.4406 0
M  V30 17572 H 1622.16 -3.36639 1.77354 0
M  V30 17573 H 1621.67 -2.21346 3.18791 0
M  V30 17574 H 1619.77 -3.55416 1.11849 0
M  V30 17575 H 1619.88 -3.74071 2.99346 0
M  V30 17576 H 1618.25 -2.04766 1.51469 0
M  V30 17577 H 1619.03 -1.49296 3.09137 0
M  V30 17578 N 1621.48 -1.1533 -1.07409 0
M  V30 17579 C 1622.42 -0.849527 -2.14597 0
M  V30 17580 C 1623.39 0.197288 -1.64924 0
M  V30 17581 O 1624.58 0.0649694 -1.90689 0
M  V30 17582 C 1621.72 -0.344327 -3.43378 0
M  V30 17583 C 1620.83 -1.45264 -4.06844 0
M  V30 17584 C 1619.97 -0.90363 -5.23458 0
M  V30 17585 C 1619 -1.98892 -5.78885 0
M  V30 17586 N 1618.14 -1.45633 -6.8683 0
M  V30 17587 H 1622.98 -1.76753 -2.39922 0
M  V30 17588 H 1620.52 -0.881942 -1.17729 0
M  V30 17589 H 1622.48 -0.0331352 -4.17187 0
M  V30 17590 H 1621.11 0.536757 -3.18306 0
M  V30 17591 H 1620.16 -1.88003 -3.30695 0
M  V30 17592 H 1621.47 -2.27207 -4.44048 0
M  V30 17593 H 1620.62 -0.544945 -6.04248 0
M  V30 17594 H 1619.36 -0.0533648 -4.87671 0
M  V30 17595 H 1618.37 -2.35644 -4.96741 0
M  V30 17596 H 1619.59 -2.84295 -6.16728 0
M  V30 17597 H 1617.54 -0.628417 -6.52983 0
M  V30 17598 H 1617.46 -2.21204 -7.22914 0
M  V30 17599 H 1618.72 -1.12587 -7.71326 0
M  V30 17600 N 1622.95 1.25748 -0.950004 0
M  V30 17601 C 1624.2 1.93336 -0.602294 0
M  V30 17602 C 1624.53 1.74454 0.859994 0
M  V30 17603 O 1623.78 1.08032 1.6318 0
M  V30 17604 C 1624.08 3.45843 -0.901521 0
M  V30 17605 C 1623.75 3.84874 -2.3491 0
M  V30 17606 C 1622.41 3.9524 -2.74479 0
M  V30 17607 C 1624.76 4.04286 -3.28941 0
M  V30 17608 C 1622.09 4.22422 -4.07157 0
M  V30 17609 C 1624.44 4.32959 -4.61225 0
M  V30 17610 C 1623.11 4.41541 -5.00597 0
M  V30 17611 H 1622.38 0.707465 -0.220395 0
M  V30 17612 H 1625.02 1.49386 -1.19817 0
M  V30 17613 H 1623.33 3.91164 -0.2232 0
M  V30 17614 H 1625.03 3.96316 -0.611134 0
M  V30 17615 H 1621.62 3.77358 -2.03221 0
M  V30 17616 H 1625.8 3.95697 -2.99563 0
M  V30 17617 H 1621.06 4.27281 -4.37311 0
M  V30 17618 H 1625.23 4.46925 -5.3407 0
M  V30 17619 H 1622.86 4.62358 -6.03431 0
M  V30 17620 N 1624.43 0.718038 1.40292 0
M  V30 17621 C 1625.85 0.391848 1.54715 0
M  V30 17622 C 1626.05 -1.09911 1.68884 0
M  V30 17623 O 1625.1 -1.88518 1.6798 0
M  V30 17624 C 1626.42 1.16005 2.77423 0
M  V30 17625 C 1627.96 1.14659 2.91243 0
M  V30 17626 C 1628.44 1.897 4.16867 0
M  V30 17627 N 1629.93 1.86781 4.23872 0
M  V30 17628 C 1630.67 2.41665 5.19986 0
M  V30 17629 N 1630.16 3.05116 6.21994 0
M  V30 17630 N 1631.95 2.31794 5.12082 0
M  V30 17631 H 1624.11 1.68477 1.29342 0
M  V30 17632 H 1626.37 0.712248 0.625625 0
M  V30 17633 H 1626.07 2.21435 2.73239 0
M  V30 17634 H 1625.95 0.75328 3.69602 0
M  V30 17635 H 1628.34 0.100477 2.94929 0
M  V30 17636 H 1628.42 1.5926 2.00175 0
M  V30 17637 H 1628.06 2.94303 4.13942 0
M  V30 17638 H 1627.99 1.42518 5.06948 0
M  V30 17639 H 1630.48 1.40541 3.50794 0
M  V30 17640 H 1630.79 3.44505 6.91763 0
M  V30 17641 H 1629.14 3.09201 6.22431 0
M  V30 17642 H 1632.33 1.81879 4.31321 0
M  V30 17643 H 1632.5 2.74868 5.86815 0
M  V30 17644 N 1625.91 -1.50602 0.464402 0
M  V30 17645 C 1627.16 -2.01478 -0.0945398 0
M  V30 17646 C 1627.47 -1.35165 -1.41386 0
M  V30 17647 O 1628.68 -1.7716 -2.05735 0
M  V30 17648 C 1627.13 -3.59233 -0.219003 0
M  V30 17649 C 1626.74 -4.345 1.09148 0
M  V30 17650 C 1628.49 -4.18172 -0.730262 0
M  V30 17651 C 1626.39 -5.84023 0.931179 0
M  V30 17652 H 1625.32 -0.752985 -0.0391065 0
M  V30 17653 H 1627.97 -1.73473 0.598283 0
M  V30 17654 H 1626.36 -3.83798 -0.975455 0
M  V30 17655 H 1627.53 -4.21665 1.85837 0
M  V30 17656 H 1625.85 -3.8714 1.53334 0
M  V30 17657 H 1628.44 -5.27622 -0.867119 0
M  V30 17658 H 1628.79 -3.79113 -1.71986 0
M  V30 17659 H 1629.32 -3.97788 -0.0313808 0
M  V30 17660 H 1626.06 -6.27543 1.89395 0
M  V30 17661 H 1625.58 -5.99451 0.20456 0
M  V30 17662 H 1627.26 -6.44257 0.595118 0
M  V30 17663 N 1627.39 -0.19675 -1.56367 0
M  V30 17664 C 1628.32 0.75534 -2.16396 0
M  V30 17665 C 1629.33 1.17558 -1.12623 0
M  V30 17666 O 1630.52 1.11102 -1.39709 0
M  V30 17667 C 1627.62 2.03159 -2.71256 0
M  V30 17668 C 1626.8 1.77088 -3.99948 0
M  V30 17669 C 1625.85 2.89176 -4.39618 0
M  V30 17670 O 1624.88 2.58712 -5.07007 0
M  V30 17671 N 1626.08 4.17569 -4.03257 0
M  V30 17672 H 1628.85 0.241991 -2.98721 0
M  V30 17673 H 1626.41 -0.0148423 -1.61893 0
M  V30 17674 H 1628.4 2.77287 -2.94778 0
M  V30 17675 H 1626.97 2.45611 -1.93375 0
M  V30 17676 H 1626.19 0.867309 -3.84541 0
M  V30 17677 H 1627.48 1.5707 -4.83949 0
M  V30 17678 H 1626.88 4.45171 -3.49054 0
M  V30 17679 H 1625.43 4.88319 -4.31726 0
M  V30 17680 N 1628.87 1.57413 0.0768405 0
M  V30 17681 C 1629.8 2.06378 1.09226 0
M  V30 17682 C 1630.78 0.956269 1.40675 0
M  V30 17683 O 1631.96 1.22868 1.5039 0
M  V30 17684 C 1629.09 2.50349 2.40712 0
M  V30 17685 C 1628.05 3.64931 2.23628 0
M  V30 17686 C 1627.37 3.9494 3.60453 0
M  V30 17687 C 1628.67 4.95162 1.66169 0
M  V30 17688 H 1630.37 2.91463 0.684827 0
M  V30 17689 H 1627.91 1.40215 0.327974 0
M  V30 17690 H 1629.87 2.83216 3.12036 0
M  V30 17691 H 1628.59 1.62287 2.83426 0
M  V30 17692 H 1627.25 3.32339 1.54747 0
M  V30 17693 H 1626.9 3.04016 4.00728 0
M  V30 17694 H 1626.6 4.72091 3.49863 0
M  V30 17695 H 1628.12 4.30299 4.33215 0
M  V30 17696 H 1629.53 5.26292 2.27353 0
M  V30 17697 H 1627.93 5.76601 1.66289 0
M  V30 17698 H 1629 4.80885 0.62271 0
M  V30 17699 N 1630.34 -0.348112 1.53707 0
M  V30 17700 C 1631.57 -1.11346 1.74976 0
M  V30 17701 C 1631.99 -1.81726 0.485525 0
M  V30 17702 O 1631.35 -1.72384 -0.561565 0
M  V30 17703 C 1631.4 -2.10611 2.92703 0
M  V30 17704 O 1630.5 -3.18042 2.62532 0
M  V30 17705 H 1629.85 -0.322247 0.580563 0
M  V30 17706 H 1632.38 -0.399898 2.00654 0
M  V30 17707 H 1632.39 -2.53912 3.19363 0
M  V30 17708 H 1631.06 -1.58782 3.84397 0
M  V30 17709 H 1629.64 -2.79591 2.46746 0
M  V30 17710 N 1631.82 -1.45363 -0.608876 0
M  V30 17711 C 1633.07 -1.49018 -1.36522 0
M  V30 17712 C 1633.39 -0.132757 -1.94548 0
M  V30 17713 O 1632.66 0.837723 -1.77085 0
M  V30 17714 H 1631.24 -0.548775 -0.506809 0
M  V30 17715 H 1633.9 -1.81309 -0.715068 0
M  V30 17716 H 1633 -2.22826 -2.18529 0
M  V30 17717 N 1633.3 0.851265 -1.32632 0
M  V30 17718 C 1634.25 1.98152 -1.21813 0
M  V30 17719 C 1635.24 1.68959 -0.122182 0
M  V30 17720 O 1636.45 1.77724 -0.285332 0
M  V30 17721 H 1632.82 0.650275 -0.377686 0
M  V30 17722 H 1634.79 2.04405 -2.17397 0
M  V30 17723 C 1633.54 3.34141 -0.961521 0
M  V30 17724 H 1632.87 3.57136 -1.79704 0
M  V30 17725 H 1634.31 4.13763 -0.926077 0
M  V30 17726 C 1632.77 3.35223 0.335704 0
M  V30 17727 O 1633.3 3.78461 1.34647 0
M  V30 17728 N 1631.5 2.88376 0.358875 0
M  V30 17729 H 1631.05 2.53383 -0.464194 0
M  V30 17730 H 1631.01 2.89482 1.22668 0
M  V30 17731 N 1634.78 1.15898 1.06796 0
M  V30 17732 C 1636.19 0.945837 1.60968 0
M  V30 17733 C 1636.54 -0.511507 1.89415 0
M  V30 17734 O 1635.67 -1.38372 1.66379 0
M  V30 17735 C 1636.26 1.71054 2.92448 0
M  V30 17736 C 1634.82 1.54252 3.43341 0
M  V30 17737 C 1633.97 1.72253 2.17311 0
M  V30 17738 H 1636.92 1.30842 0.898118 0
M  V30 17739 H 1636.94 1.18336 3.61631 0
M  V30 17740 H 1636.45 2.77117 2.71712 0
M  V30 17741 H 1634.55 0.506082 3.69147 0
M  V30 17742 H 1634.66 2.32314 4.19007 0
M  V30 17743 H 1633.03 1.14952 2.27284 0
M  V30 17744 H 1633.81 2.79693 1.99064 0
M  V30 17745 N 1636.26 -1.25243 0.956659 0
M  V30 17746 C 1637.51 -1.92312 0.608196 0
M  V30 17747 C 1637.82 -1.75726 -0.859058 0
M  V30 17748 O 1639.02 -2.37386 -1.31757 0
M  V30 17749 C 1637.48 -3.44634 1.03708 0
M  V30 17750 C 1637.09 -3.69927 2.52702 0
M  V30 17751 C 1638.83 -4.17619 0.761242 0
M  V30 17752 C 1636.74 -5.15765 2.8938 0
M  V30 17753 H 1635.67 -0.720033 0.22376 0
M  V30 17754 H 1638.32 -1.42071 1.16138 0
M  V30 17755 H 1636.7 -3.93848 0.412287 0
M  V30 17756 H 1637.88 -3.31357 3.20217 0
M  V30 17757 H 1636.19 -3.10207 2.77778 0
M  V30 17758 H 1638.79 -5.25047 1.01141 0
M  V30 17759 H 1639.13 -4.152 -0.302375 0
M  V30 17760 H 1639.66 -3.74319 1.34648 0
M  V30 17761 H 1636.4 -5.23296 3.94767 0
M  V30 17762 H 1635.92 -5.55374 2.26539 0
M  V30 17763 H 1637.6 -5.83905 2.78683 0
M  V30 17764 N 1637.73 -0.725468 -1.3991 0
M  V30 17765 C 1638.66 -0.094211 -2.3331 0
M  V30 17766 C 1639.65 0.734728 -1.53414 0
M  V30 17767 O 1640.83 0.681647 -1.81844 0
M  V30 17768 C 1637.96 0.820958 -3.37457 0
M  V30 17769 C 1636.91 0.0968983 -4.2789 0
M  V30 17770 C 1636.24 1.12845 -5.22657 0
M  V30 17771 C 1637.54 -1.05483 -5.11537 0
M  V30 17772 H 1639.23 -0.874365 -2.86348 0
M  V30 17773 H 1636.78 -0.421913 -1.3768 0
M  V30 17774 H 1638.73 1.27203 -4.01743 0
M  V30 17775 H 1637.46 1.63312 -2.82837 0
M  V30 17776 H 1636.12 -0.334454 -3.65071 0
M  V30 17777 H 1635.76 1.93392 -4.64337 0
M  V30 17778 H 1635.46 0.648805 -5.84007 0
M  V30 17779 H 1636.99 1.57942 -5.89819 0
M  V30 17780 H 1638.4 -0.682657 -5.69221 0
M  V30 17781 H 1636.8 -1.46349 -5.81981 0
M  V30 17782 H 1637.87 -1.88095 -4.46932 0
M  V30 17783 N 1639.21 1.50354 -0.472382 0
M  V30 17784 C 1640.46 2.01934 0.0820006 0
M  V30 17785 C 1640.78 1.35636 1.401 0
M  V30 17786 O 1640.05 0.502127 1.89355 0
M  V30 17787 H 1638.63 0.746258 0.0332943 0
M  V30 17788 H 1641.29 1.84671 -0.623099 0
M  V30 17789 H 1640.39 3.11232 0.232565 0
M  V30 17790 N 1640.69 0.205039 1.56261 0
M  V30 17791 C 1641.97 -0.479238 1.89638 0
M  V30 17792 C 1642.35 -1.78938 1.12002 0
M  V30 17793 O 1641.7 -2.27398 0.224179 0
M  V30 17794 C 1641.91 -0.688324 3.42145 0
M  V30 17795 C 1643.25 -1.00322 4.12578 0
M  V30 17796 O 1644.28 -0.775697 3.47651 0
M  V30 17797 O 1643.14 -1.43412 5.27347 0
M  V30 17798 H 1640.23 -0.251125 0.78795 0
M  V30 17799 H 1642.78 0.245994 1.67908 0
M  V30 17800 H 1641.55 0.236479 3.90585 0
M  V30 17801 H 1641.17 -1.46565 3.696 0
M  V30 17802 N 1642.17 -1.57451 -0.0684915 0
M  V30 17803 C 1643.42 -1.87041 -0.765505 0
M  V30 17804 C 1643.74 -0.797489 -1.77947 0
M  V30 17805 O 1643.01 0.17349 -1.9513 0
M  V30 17806 H 1641.59 -0.690203 -0.285708 0
M  V30 17807 H 1644.25 -1.94851 -0.0437957 0
M  V30 17808 H 1643.35 -2.8466 -1.27966 0
M  V30 17809 N 1643.65 0.339955 -1.5389 0
M  V30 17810 C 1644.59 1.41765 -1.8213 0
M  V30 17811 C 1645.56 1.52109 -0.667235 0
M  V30 17812 O 1646.75 1.67591 -0.91203 0
M  V30 17813 C 1643.89 2.78366 -2.03977 0
M  V30 17814 C 1643 2.76785 -3.31684 0
M  V30 17815 C 1642.14 4.05125 -3.4358 0
M  V30 17816 C 1641.18 3.97787 -4.65223 0
M  V30 17817 N 1640.31 5.17825 -4.74133 0
M  V30 17818 H 1645.15 1.16984 -2.74078 0
M  V30 17819 H 1642.69 0.566618 -1.35749 0
M  V30 17820 H 1644.65 3.57755 -2.14633 0
M  V30 17821 H 1643.28 3.01491 -1.15338 0
M  V30 17822 H 1642.33 1.89481 -3.2985 0
M  V30 17823 H 1643.64 2.67241 -4.2117 0
M  V30 17824 H 1642.8 4.9294 -3.53688 0
M  V30 17825 H 1641.54 4.17455 -2.52157 0
M  V30 17826 H 1640.54 3.08357 -4.55188 0
M  V30 17827 H 1641.77 3.87037 -5.58014 0
M  V30 17828 H 1639.71 5.30691 -3.8562 0
M  V30 17829 H 1639.63 5.10552 -5.5756 0
M  V30 17830 H 1640.9 6.074 -4.88554 0
M  V30 17831 N 1645.13 1.45684 0.601159 0
M  V30 17832 C 1646.35 1.53806 1.39135 0
M  V30 17833 C 1646.78 0.173625 1.87297 0
M  V30 17834 O 1646.13 -0.842931 1.60513 0
M  V30 17835 C 1646.18 2.53201 2.56752 0
M  V30 17836 O 1645.29 2.05427 3.57594 0
M  V30 17837 H 1644.63 0.51824 0.415118 0
M  V30 17838 H 1647.16 1.91095 0.731006 0
M  V30 17839 H 1647.17 2.72215 3.03912 0
M  V30 17840 H 1645.84 3.52294 2.21047 0
M  V30 17841 H 1644.42 1.96318 3.17039 0
M  V30 17842 N 1646.6 -0.84422 1.33082 0
M  V30 17843 C 1647.88 -1.58339 1.1484 0
M  V30 17844 C 1648.26 -2.09136 -0.287273 0
M  V30 17845 O 1647.61 -1.8891 -1.2855 0
M  V30 17846 C 1647.82 -2.72141 2.18496 0
M  V30 17847 C 1649.17 -3.41457 2.52373 0
M  V30 17848 O 1650.19 -2.82377 2.17122 0
M  V30 17849 O 1649.05 -4.48096 3.12845 0
M  V30 17850 H 1646.14 -0.697813 0.443831 0
M  V30 17851 H 1648.69 -0.88744 1.44646 0
M  V30 17852 H 1647.46 -2.32206 3.14954 0
M  V30 17853 H 1647.08 -3.49404 1.89744 0
M  V30 17854 N 1648.08 -1.16463 -1.0618 0
M  V30 17855 C 1649.03 -0.868264 -2.15787 0
M  V30 17856 C 1650.02 0.163135 -1.68613 0
M  V30 17857 O 1651.23 0.0170117 -1.79992 0
M  V30 17858 H 1647.6 -0.263184 -0.704442 0
M  V30 17859 H 1649.58 -1.80005 -2.37993 0
M  V30 17860 C 1648.32 -0.387052 -3.45539 0
M  V30 17861 H 1647.65 -1.17212 -3.82232 0
M  V30 17862 H 1649.09 -0.218471 -4.23437 0
M  V30 17863 C 1647.55 0.893588 -3.24833 0
M  V30 17864 O 1648.08 1.96259 -3.50493 0
M  V30 17865 N 1646.28 0.8378 -2.78261 0
M  V30 17866 H 1645.83 -0.0323251 -2.5758 0
M  V30 17867 H 1645.79 1.69515 -2.64787 0
M  V30 17868 N 1649.56 1.24734 -0.963288 0
M  V30 17869 C 1650.49 2.24785 -0.447722 0
M  V30 17870 C 1651.5 1.5671 0.44113 0
M  V30 17871 O 1652.69 1.76769 0.248015 0
M  V30 17872 C 1649.79 3.36837 0.373368 0
M  V30 17873 C 1648.97 4.3448 -0.504532 0
M  V30 17874 C 1648.03 5.25558 0.25981 0
M  V30 17875 O 1647.05 5.68155 -0.344754 0
M  V30 17876 N 1648.25 5.59408 1.55058 0
M  V30 17877 H 1651.02 2.69654 -1.30792 0
M  V30 17878 H 1648.58 1.38729 -0.834614 0
M  V30 17879 H 1650.57 3.94733 0.892631 0
M  V30 17880 H 1649.14 2.91288 1.13447 0
M  V30 17881 H 1648.36 3.75337 -1.20481 0
M  V30 17882 H 1649.65 4.96691 -1.10343 0
M  V30 17883 H 1649.05 5.2672 2.06355 0
M  V30 17884 H 1647.6 6.19851 2.01563 0
M  V30 17885 N 1651.04 0.732878 1.39523 0
M  V30 17886 C 1651.99 0.0806066 2.3246 0
M  V30 17887 C 1652.98 -0.728184 1.5295 0
M  V30 17888 O 1654.19 -0.629608 1.6863 0
M  V30 17889 H 1650.56 0.00726537 0.751965 0
M  V30 17890 H 1652.53 0.880867 2.85102 0
M  V30 17891 C 1651.28 -0.81412 3.38035 0
M  V30 17892 H 1650.6 -0.201168 3.99294 0
M  V30 17893 H 1652.04 -1.23817 4.05519 0
M  V30 17894 C 1650.5 -1.94745 2.74911 0
M  V30 17895 O 1651.03 -3.03989 2.6259 0
M  V30 17896 N 1649.24 -1.73624 2.3303 0
M  V30 17897 H 1648.79 -0.847733 2.43251 0
M  V30 17898 H 1648.74 -2.49629 1.91135 0
M  V30 17899 N 1652.52 -1.50101 0.480349 0
M  V30 17900 C 1653.47 -2.25631 -0.327823 0
M  V30 17901 C 1654.45 -1.29605 -0.953492 0
M  V30 17902 O 1655.64 -1.54451 -0.86451 0
M  V30 17903 C 1652.77 -3.13284 -1.40386 0
M  V30 17904 C 1651.86 -4.16763 -0.785461 0
M  V30 17905 N 1652.25 -5.05702 0.0997266 0
M  V30 17906 C 1650.55 -4.33503 -1.04838 0
M  V30 17907 C 1651.25 -5.79944 0.45163 0
M  V30 17908 N 1650.22 -5.43317 -0.175455 0
M  V30 17909 H 1654.02 -2.91761 0.353929 0
M  V30 17910 H 1651.54 -1.59697 0.295085 0
M  V30 17911 H 1653.54 -3.66008 -1.9961 0
M  V30 17912 H 1652.2 -2.48703 -2.08751 0
M  V30 17913 H 1653.21 -5.1577 0.469184 0
M  V30 17914 H 1649.88 -3.80138 -1.72631 0
M  V30 17915 H 1651.27 -6.61554 1.17458 0
M  V30 17916 N 1653.99 -0.213323 -1.5615 0
M  V30 17917 C 1655.22 0.428746 -2.0292 0
M  V30 17918 C 1655.64 1.53137 -1.09227 0
M  V30 17919 O 1655 1.81128 -0.0789684 0
M  V30 17920 C 1655.05 0.945231 -3.47991 0
M  V30 17921 O 1654.15 2.05709 -3.57432 0
M  V30 17922 H 1653.49 0.0980619 -0.656719 0
M  V30 17923 H 1656.02 -0.329548 -2.01929 0
M  V30 17924 H 1656.03 1.25717 -3.88149 0
M  V30 17925 H 1654.71 0.138161 -4.1567 0
M  V30 17926 H 1653.29 1.75242 -3.29158 0
M  V30 17927 N 1655.47 1.57485 0.0601405 0
M  V30 17928 C 1656.72 1.86998 0.75595 0
M  V30 17929 C 1657.03 0.807616 1.78149 0
M  V30 17930 O 1658.24 0.99096 2.52769 0
M  V30 17931 C 1656.7 3.31746 1.39545 0
M  V30 17932 C 1656.3 4.46139 0.407874 0
M  V30 17933 C 1658.05 3.70445 2.07294 0
M  V30 17934 C 1655.96 5.81933 1.05395 0
M  V30 17935 H 1654.89 0.697619 0.286083 0
M  V30 17936 H 1657.54 1.83498 0.00948593 0
M  V30 17937 H 1655.92 3.29894 2.19057 0
M  V30 17938 H 1657.09 4.59405 -0.358281 0
M  V30 17939 H 1655.41 4.1607 -0.16581 0
M  V30 17940 H 1658 4.692 2.56428 0
M  V30 17941 H 1658.35 3.00839 2.87753 0
M  V30 17942 H 1658.88 3.74337 1.34598 0
M  V30 17943 H 1655.62 6.54861 0.289437 0
M  V30 17944 H 1655.14 5.72446 1.79068 0
M  V30 17945 H 1656.82 6.27652 1.5704 0
M  V30 17946 N 1656.95 -0.331789 1.54068 0
M  V30 17947 C 1658.2 -1.06818 1.71093 0
M  V30 17948 C 1658.51 -1.89438 0.487111 0
M  V30 17949 O 1659.72 -2.66105 0.538544 0
M  V30 17950 C 1658.17 -1.94853 3.02589 0
M  V30 17951 C 1657.78 -1.17384 4.32348 0
M  V30 17952 C 1659.53 -2.68278 3.28979 0
M  V30 17953 C 1657.43 -2.04518 5.54911 0
M  V30 17954 H 1656.36 -0.402501 0.63758 0
M  V30 17955 H 1659.01 -0.326918 1.80564 0
M  V30 17956 H 1657.4 -2.72845 2.87004 0
M  V30 17957 H 1658.57 -0.442208 4.58673 0
M  V30 17958 H 1656.89 -0.556775 4.12661 0
M  V30 17959 H 1659.48 -3.33762 4.1774 0
M  V30 17960 H 1659.83 -3.35476 2.46498 0
M  V30 17961 H 1660.36 -1.97353 3.45394 0
M  V30 17962 H 1657.1 -1.41842 6.3997 0
M  V30 17963 H 1656.62 -2.75438 5.32817 0
M  V30 17964 H 1658.3 -2.63297 5.91002 0
M  V30 17965 N 1658.43 -1.46001 -0.593424 0
M  V30 17966 C 1659.68 -1.50755 -1.352 0
M  V30 17967 C 1660 -0.154929 -1.93882 0
M  V30 17968 O 1659.26 0.848161 -1.76365 0
M  V30 17969 C 1659.56 -2.54568 -2.50858 0
M  V30 17970 C 1659.22 -3.98888 -2.10236 0
M  V30 17971 C 1657.89 -4.38182 -1.98872 0
M  V30 17972 C 1660.24 -4.89591 -1.78746 0
M  V30 17973 C 1657.57 -5.66057 -1.5426 0
M  V30 17974 C 1659.92 -6.17892 -1.35617 0
M  V30 17975 C 1658.58 -6.56103 -1.22822 0
M  V30 17976 H 1657.85 -0.551652 -0.494734 0
M  V30 17977 H 1660.5 -1.79422 -0.669327 0
M  V30 17978 H 1658.8 -2.19523 -3.24526 0
M  V30 17979 H 1660.5 -2.5548 -3.09081 0
M  V30 17980 H 1657.09 -3.67822 -2.20012 0
M  V30 17981 H 1661.27 -4.59959 -1.86416 0
M  V30 17982 H 1656.53 -5.94444 -1.42988 0
M  V30 17983 H 1660.7 -6.87609 -1.10301 0
M  V30 17984 H 1658.33 -7.55086 -0.880285 0
M  V30 17985 N 1659.91 0.83715 -1.33527 0
M  V30 17986 C 1661.14 1.6222 -1.27938 0
M  V30 17987 C 1661.54 1.88592 0.151584 0
M  V30 17988 O 1660.89 1.46772 1.1047 0
M  V30 17989 C 1660.95 2.99561 -1.98754 0
M  V30 17990 C 1660.61 2.96152 -3.48056 0
M  V30 17991 C 1661.61 2.71745 -4.43227 0
M  V30 17992 C 1659.3 3.16233 -3.90259 0
M  V30 17993 C 1661.29 2.67451 -5.78575 0
M  V30 17994 C 1658.98 3.11564 -5.2571 0
M  V30 17995 C 1659.97 2.87204 -6.1968 0
M  V30 17996 O 1659.66 2.82441 -7.5265 0
M  V30 17997 H 1659.39 0.511419 -0.442071 0
M  V30 17998 H 1661.95 1.05075 -1.76489 0
M  V30 17999 H 1660.18 3.58568 -1.44797 0
M  V30 18000 H 1661.87 3.60444 -1.86642 0
M  V30 18001 H 1662.63 2.5598 -4.11946 0
M  V30 18002 H 1658.51 3.34214 -3.17525 0
M  V30 18003 H 1662.06 2.48356 -6.51893 0
M  V30 18004 H 1657.95 3.26879 -5.56615 0
M  V30 18005 H 1658.72 2.98271 -7.62218 0
M  V30 18006 N 1661.38 1.17024 1.05561 0
M  V30 18007 C 1662.8 0.916718 1.30646 0
M  V30 18008 C 1663 -0.426248 1.9694 0
M  V30 18009 O 1662.06 -1.16408 2.24065 0
M  V30 18010 C 1663.37 2.07126 2.17989 0
M  V30 18011 C 1664.92 2.10787 2.31383 0
M  V30 18012 C 1665.39 3.25616 3.22084 0
M  V30 18013 N 1666.88 3.25381 3.29669 0
M  V30 18014 C 1667.62 4.10873 3.99964 0
M  V30 18015 N 1667.11 5.06468 4.72718 0
M  V30 18016 N 1668.91 3.98835 3.9609 0
M  V30 18017 H 1661.06 2.03474 0.609284 0
M  V30 18018 H 1663.32 0.888247 0.331243 0
M  V30 18019 H 1663.03 3.04168 1.76564 0
M  V30 18020 H 1662.9 2.01912 3.18609 0
M  V30 18021 H 1665.29 1.14333 2.72051 0
M  V30 18022 H 1665.37 2.20064 1.30405 0
M  V30 18023 H 1665.01 4.22333 2.8213 0
M  V30 18024 H 1664.94 3.13575 4.23058 0
M  V30 18025 H 1667.43 2.56164 2.77828 0
M  V30 18026 H 1667.75 5.68105 5.23905 0
M  V30 18027 H 1666.09 5.10441 4.71673 0
M  V30 18028 H 1669.28 3.23451 3.38375 0
M  V30 18029 H 1669.46 4.65682 4.50604 0
M  V30 18030 N 1662.86 -1.24221 0.969889 0
M  V30 18031 C 1664.11 -1.91973 0.631725 0
M  V30 18032 C 1664.43 -1.76169 -0.836032 0
M  V30 18033 O 1663.7 -1.13459 -1.597 0
M  V30 18034 H 1662.28 -0.710497 0.230658 0
M  V30 18035 H 1664.94 -1.51069 1.23143 0
M  V30 18036 H 1664.04 -2.99606 0.874223 0
M  V30 18037 N 1664.34 -0.740267 -1.39132 0
M  V30 18038 C 1665.25 -0.105452 -2.34363 0
M  V30 18039 C 1666.27 0.715908 -1.5859 0
M  V30 18040 O 1667.44 0.643155 -1.90855 0
M  V30 18041 C 1664.51 0.787141 -3.37646 0
M  V30 18042 C 1663.57 -0.047071 -4.29274 0
M  V30 18043 C 1662.8 0.803014 -5.27624 0
M  V30 18044 O 1663.02 2.04155 -5.32613 0
M  V30 18045 O 1661.96 0.228879 -6.01465 0
M  V30 18046 H 1665.78 -0.891588 -2.90318 0
M  V30 18047 H 1663.37 -0.500996 -1.40749 0
M  V30 18048 H 1665.25 1.29769 -4.00921 0
M  V30 18049 H 1663.93 1.552 -2.84068 0
M  V30 18050 H 1662.83 -0.603265 -3.69204 0
M  V30 18051 H 1664.17 -0.774273 -4.86072 0
M  V30 18052 N 1665.82 1.49844 -0.488302 0
M  V30 18053 C 1667.05 2.06519 0.0577968 0
M  V30 18054 C 1667.46 1.35039 1.32519 0
M  V30 18055 O 1666.8 0.418468 1.7887 0
M  V30 18056 C 1666.86 3.57328 0.394577 0
M  V30 18057 C 1666.53 4.50411 -0.773259 0
M  V30 18058 C 1667.52 4.9268 -1.66019 0
M  V30 18059 C 1665.21 4.92875 -0.968465 0
M  V30 18060 C 1667.2 5.76139 -2.72659 0
M  V30 18061 C 1664.89 5.76113 -2.03806 0
M  V30 18062 C 1665.89 6.17648 -2.91548 0
M  V30 18063 O 1665.57 6.99224 -3.96663 0
M  V30 18064 H 1665.31 0.675902 -0.0115057 0
M  V30 18065 H 1667.86 1.93777 -0.681149 0
M  V30 18066 H 1666.09 3.68033 1.18695 0
M  V30 18067 H 1667.78 3.96295 0.877786 0
M  V30 18068 H 1668.55 4.60528 -1.52114 0
M  V30 18069 H 1664.42 4.60056 -0.294936 0
M  V30 18070 H 1667.97 6.08478 -3.41174 0
M  V30 18071 H 1663.87 6.07678 -2.17711 0
M  V30 18072 H 1664.63 7.17507 -3.93861 0
M  V30 18073 N 1667.3 0.221601 1.56034 0
M  V30 18074 C 1668.55 -0.410442 1.9748 0
M  V30 18075 C 1668.86 -1.60895 1.1123 0
M  V30 18076 O 1670.06 -2.31052 1.42574 0
M  V30 18077 C 1668.52 -0.781624 3.5131 0
M  V30 18078 C 1668.13 0.394077 4.46263 0
M  V30 18079 C 1669.87 -1.37927 4.01468 0
M  V30 18080 C 1667.78 0.000458181 5.914 0
M  V30 18081 H 1666.71 -0.157122 0.737447 0
M  V30 18082 H 1669.36 0.317821 1.80727 0
M  V30 18083 H 1667.74 -1.56731 3.63664 0
M  V30 18084 H 1668.92 1.17161 4.45657 0
M  V30 18085 H 1667.23 0.904959 4.06447 0
M  V30 18086 H 1669.83 -1.68667 5.07401 0
M  V30 18087 H 1670.17 -2.29507 3.47322 0
M  V30 18088 H 1670.7 -0.657015 3.92337 0
M  V30 18089 H 1667.44 0.882743 6.49529 0
M  V30 18090 H 1666.96 -0.741386 5.952 0
M  V30 18091 H 1668.64 -0.42621 6.45595 0
M  V30 18092 N 1668.77 -1.57515 -0.0517878 0
M  V30 18093 C 1669.71 -2.01812 -1.08649 0
M  V30 18094 C 1670.72 -0.92719 -1.33817 0
M  V30 18095 O 1671.91 -1.20483 -1.31705 0
M  V30 18096 C 1669.01 -2.35903 -2.43316 0
M  V30 18097 C 1668.18 -3.67095 -2.37824 0
M  V30 18098 C 1667.24 -3.8863 -3.54758 0
M  V30 18099 O 1666.27 -4.59974 -3.3528 0
M  V30 18100 N 1667.47 -3.32516 -4.75829 0
M  V30 18101 H 1670.23 -2.91191 -0.709094 0
M  V30 18102 H 1667.79 -1.60109 -0.240125 0
M  V30 18103 H 1669.79 -2.47466 -3.20223 0
M  V30 18104 H 1668.36 -1.52312 -2.72983 0
M  V30 18105 H 1667.58 -3.66099 -1.46168 0
M  V30 18106 H 1668.86 -4.53199 -2.31275 0
M  V30 18107 H 1668.26 -2.74645 -4.94557 0
M  V30 18108 H 1666.82 -3.49496 -5.50178 0
M  V30 18109 N 1670.25 0.323614 -1.54242 0
M  V30 18110 C 1671.5 1.06314 -1.727 0
M  V30 18111 C 1671.83 1.87674 -0.499225 0
M  V30 18112 O 1671.11 1.87862 0.503805 0
M  V30 18113 C 1671.39 1.9879 -3.00258 0
M  V30 18114 C 1671.24 1.2076 -4.33286 0
M  V30 18115 C 1672.56 2.98314 -3.23569 0
M  V30 18116 H 1669.68 0.385101 -0.628384 0
M  V30 18117 H 1672.32 0.339801 -1.86937 0
M  V30 18118 H 1670.47 2.60468 -2.88251 0
M  V30 18119 H 1672.15 0.615425 -4.57176 0
M  V30 18120 H 1670.39 0.509878 -4.30793 0
M  V30 18121 H 1671.06 1.88662 -5.18759 0
M  V30 18122 H 1673.54 2.46757 -3.35037 0
M  V30 18123 H 1672.41 3.60204 -4.14179 0
M  V30 18124 H 1672.67 3.7077 -2.40795 0
M  V30 18125 N 1671.73 1.46313 0.585673 0
M  V30 18126 C 1672.98 1.50738 1.34019 0
M  V30 18127 C 1673.29 0.162245 1.94926 0
M  V30 18128 O 1674.5 0.0842676 2.71369 0
M  V30 18129 C 1672.96 2.65592 2.42876 0
M  V30 18130 C 1672.56 4.06513 1.88285 0
M  V30 18131 C 1674.31 2.79284 3.19689 0
M  V30 18132 C 1672.21 5.12712 2.94754 0
M  V30 18133 H 1671.14 0.560979 0.503804 0
M  V30 18134 H 1673.8 1.72516 0.625344 0
M  V30 18135 H 1672.18 2.37138 3.17146 0
M  V30 18136 H 1673.35 4.44744 1.20578 0
M  V30 18137 H 1671.67 3.97462 1.2415 0
M  V30 18138 H 1674.26 3.55795 3.99142 0
M  V30 18139 H 1674.61 1.86694 3.7209 0
M  V30 18140 H 1675.14 3.0737 2.52525 0
M  V30 18141 H 1671.88 6.07084 2.47244 0
M  V30 18142 H 1671.4 4.79028 3.6096 0
M  V30 18143 H 1673.08 5.38426 3.58757 0
M  V30 18144 N 1673.21 -0.830057 1.33969 0
M  V30 18145 C 1674.49 -1.57112 1.16513 0
M  V30 18146 C 1674.87 -2.09429 -0.265075 0
M  V30 18147 O 1674.21 -1.90263 -1.26539 0
M  V30 18148 C 1674.42 -2.69808 2.2137 0
M  V30 18149 C 1675.77 -3.38761 2.55981 0
M  V30 18150 O 1676.8 -2.80058 2.20104 0
M  V30 18151 O 1675.66 -4.44753 3.1758 0
M  V30 18152 H 1672.75 -0.693066 0.451207 0
M  V30 18153 H 1675.3 -0.872048 1.4558 0
M  V30 18154 H 1674.07 -2.28852 3.17399 0
M  V30 18155 H 1673.69 -3.47372 1.93439 0
M  V30 18156 N 1674.69 -1.17582 -1.04939 0
M  V30 18157 C 1675.65 -0.897095 -2.10914 0
M  V30 18158 C 1676.65 0.113823 -1.60397 0
M  V30 18159 O 1677.84 -0.118635 -1.73796 0
M  V30 18160 C 1674.97 -0.344251 -3.39157 0
M  V30 18161 H 1676.17 -1.83674 -2.37074 0
M  V30 18162 H 1673.72 -0.986634 -1.21224 0
M  V30 18163 H 1674.45 0.602417 -3.18656 0
M  V30 18164 H 1674.24 -1.07287 -3.77137 0
M  V30 18165 H 1675.73 -0.167644 -4.17263 0
M  V30 18166 N 1676.17 1.23705 -0.976463 0
M  V30 18167 C 1677.11 2.27034 -0.505813 0
M  V30 18168 C 1678.11 1.63716 0.435148 0
M  V30 18169 O 1679.31 1.7732 0.309474 0
M  V30 18170 H 1675.69 0.737862 -0.145131 0
M  V30 18171 H 1677.66 2.64097 -1.38908 0
M  V30 18172 C 1676.41 3.47234 0.179987 0
M  V30 18173 H 1675.73 3.96205 -0.534969 0
M  V30 18174 H 1677.17 4.21353 0.472996 0
M  V30 18175 C 1675.63 3.05979 1.40991 0
M  V30 18176 O 1676.16 3.13914 2.50641 0
M  V30 18177 N 1674.37 2.60934 1.27913 0
M  V30 18178 H 1673.91 2.54677 0.38696 0
M  V30 18179 H 1673.87 2.33697 2.10316 0
M  V30 18180 N 1677.64 0.747635 1.38738 0
M  V30 18181 C 1678.58 0.0762364 2.29073 0
M  V30 18182 C 1679.59 -0.690087 1.4745 0
M  V30 18183 O 1680.78 -0.53216 1.70383 0
M  V30 18184 C 1677.88 -0.916136 3.26282 0
M  V30 18185 C 1677.05 -0.2087 4.36902 0
M  V30 18186 C 1676.11 -1.11097 5.14338 0
M  V30 18187 O 1675.14 -0.583722 5.66199 0
M  V30 18188 N 1676.34 -2.43961 5.26748 0
M  V30 18189 H 1679.1 0.852024 2.87334 0
M  V30 18190 H 1676.66 0.597915 1.50455 0
M  V30 18191 H 1678.66 -1.52263 3.74964 0
M  V30 18192 H 1677.23 -1.59304 2.68963 0
M  V30 18193 H 1676.45 0.578435 3.89933 0
M  V30 18194 H 1677.73 0.281061 5.08023 0
M  V30 18195 H 1677.13 -2.89259 4.86154 0
M  V30 18196 H 1675.69 -2.99676 5.78824 0
M  V30 18197 N 1679.12 -1.49583 0.496242 0
M  V30 18198 C 1680.4 -1.95275 -0.112751 0
M  V30 18199 C 1680.78 -1.43758 -1.54586 0
M  V30 18200 O 1680.13 -0.649285 -2.19081 0
M  V30 18201 C 1680.34 -3.48987 -0.0302774 0
M  V30 18202 C 1681.68 -4.24097 -0.206595 0
M  V30 18203 O 1682.71 -3.56043 -0.105689 0
M  V30 18204 O 1681.57 -5.44936 -0.413172 0
M  V30 18205 H 1678.66 -0.821183 -0.0979145 0
M  V30 18206 H 1681.21 -1.60248 0.558441 0
M  V30 18207 H 1679.98 -3.79104 0.969322 0
M  V30 18208 H 1679.6 -3.90618 -0.741825 0
M  V30 18209 N 1680.6 -0.229873 -1.55915 0
M  V30 18210 C 1681.55 0.693198 -2.2203 0
M  V30 18211 C 1682.54 1.1933 -1.20236 0
M  V30 18212 O 1683.75 1.15217 -1.38294 0
M  V30 18213 H 1680.12 0.241986 -0.712002 0
M  V30 18214 H 1682.09 0.112229 -2.98189 0
M  V30 18215 C 1680.84 1.88688 -2.92048 0
M  V30 18216 H 1680.17 1.51119 -3.70139 0
M  V30 18217 H 1681.61 2.51036 -3.41697 0
M  V30 18218 C 1680.06 2.74747 -1.94976 0
M  V30 18219 O 1680.59 3.73759 -1.47198 0
M  V30 18220 N 1678.8 2.40956 -1.62445 0
M  V30 18221 H 1678.35 1.60494 -2.01493 0
M  V30 18222 H 1678.31 2.98816 -0.977581 0
M  V30 18223 N 1682.08 1.5754 0.0434337 0
M  V30 18224 C 1683.31 1.92577 0.748182 0
M  V30 18225 C 1683.72 0.826758 1.7018 0
M  V30 18226 O 1683.06 -0.206713 1.82533 0
M  V30 18227 C 1683.12 3.23309 1.57199 0
M  V30 18228 C 1682.78 4.50213 0.784705 0
M  V30 18229 C 1683.78 5.1982 0.091305 0
M  V30 18230 C 1681.47 4.96767 0.74349 0
M  V30 18231 C 1683.46 6.34251 -0.632768 0
M  V30 18232 C 1681.15 6.11098 0.0156621 0
M  V30 18233 C 1682.15 6.79694 -0.67124 0
M  V30 18234 O 1681.83 7.91839 -1.38728 0
M  V30 18235 H 1681.57 0.64049 0.216213 0
M  V30 18236 H 1684.12 2.05398 0.00937223 0
M  V30 18237 H 1682.35 3.06775 2.35428 0
M  V30 18238 H 1684.04 3.43779 2.15802 0
M  V30 18239 H 1684.8 4.84865 0.11427 0
M  V30 18240 H 1680.68 4.43229 1.26763 0
M  V30 18241 H 1684.23 6.87728 -1.16947 0
M  V30 18242 H 1680.12 6.45499 -0.00927628 0
M  V30 18243 H 1680.89 8.08119 -1.29947 0
M  V30 18244 N 1683.56 -0.31543 1.54411 0
M  V30 18245 C 1684.49 -1.39353 1.87358 0
M  V30 18246 C 1685.47 -1.53586 0.731118 0
M  V30 18247 O 1686.65 -1.67332 0.98558 0
M  V30 18248 C 1683.78 -2.75998 2.10814 0
M  V30 18249 C 1682.74 -2.76545 3.2666 0
M  V30 18250 C 1682.06 -4.16343 3.35504 0
M  V30 18251 C 1683.36 -2.39567 4.64117 0
M  V30 18252 H 1685.06 -1.12028 2.77651 0
M  V30 18253 H 1682.6 -0.537476 1.33593 0
M  V30 18254 H 1684.55 -3.51491 2.32447 0
M  V30 18255 H 1683.28 -3.04817 1.17278 0
M  V30 18256 H 1681.94 -2.03507 3.04927 0
M  V30 18257 H 1681.59 -4.42316 2.39512 0
M  V30 18258 H 1681.29 -4.17613 4.13368 0
M  V30 18259 H 1682.81 -4.93637 3.59381 0
M  V30 18260 H 1684.22 -3.04775 4.85577 0
M  V30 18261 H 1682.62 -2.52075 5.4459 0
M  V30 18262 H 1683.69 -1.34707 4.65813 0
M  V30 18263 N 1685.03 -1.46622 -0.577906 0
M  V30 18264 C 1685.94 -1.60143 -1.71439 0
M  V30 18265 C 1686.96 -0.484781 -1.6711 0
M  V30 18266 O 1688.14 -0.749551 -1.86932 0
M  V30 18267 C 1685.2 -1.59282 -3.07945 0
M  V30 18268 C 1684.26 -2.82216 -3.235 0
M  V30 18269 C 1683.5 -2.81387 -4.53495 0
M  V30 18270 O 1683.72 -1.90407 -5.37681 0
M  V30 18271 O 1682.65 -3.72991 -4.724 0
M  V30 18272 H 1686.48 -2.56265 -1.62978 0
M  V30 18273 H 1684.06 -1.2947 -0.745514 0
M  V30 18274 H 1685.95 -1.61515 -3.89218 0
M  V30 18275 H 1684.62 -0.663212 -3.16833 0
M  V30 18276 H 1683.53 -2.85536 -2.41702 0
M  V30 18277 H 1684.86 -3.74402 -3.19506 0
M  V30 18278 N 1686.51 0.822941 -1.34408 0
M  V30 18279 C 1687.42 1.96567 -1.28056 0
M  V30 18280 C 1688.44 1.72979 -0.188251 0
M  V30 18281 O 1689.61 1.97084 -0.41472 0
M  V30 18282 C 1686.68 3.30865 -1.03583 0
M  V30 18283 C 1685.74 3.67461 -2.2197 0
M  V30 18284 C 1684.97 4.9535 -1.98655 0
M  V30 18285 O 1685.2 5.62521 -0.944785 0
M  V30 18286 O 1684.13 5.29824 -2.85605 0
M  V30 18287 H 1687.96 2.0487 -2.24192 0
M  V30 18288 H 1685.54 0.958334 -1.14614 0
M  V30 18289 H 1687.42 4.11298 -0.917162 0
M  V30 18290 H 1686.1 3.2353 -0.104868 0
M  V30 18291 H 1685.01 2.87472 -2.39396 0
M  V30 18292 H 1686.34 3.79481 -3.13456 0
M  V30 18293 N 1687.99 1.18137 1.04314 0
M  V30 18294 C 1689.23 0.986144 1.79038 0
M  V30 18295 C 1689.59 -0.476023 1.86005 0
M  V30 18296 O 1690.8 -0.790612 2.5691 0
M  V30 18297 C 1689.07 1.62008 3.18572 0
M  V30 18298 S 1690.63 1.57227 4.09665 0
M  V30 18299 H 1687.44 0.354181 0.616503 0
M  V30 18300 H 1690.05 1.50237 1.25096 0
M  V30 18301 H 1688.75 2.67655 3.11109 0
M  V30 18302 H 1688.28 1.10403 3.77591 0
M  V30 18303 H 1690.3 0.586418 4.92723 0
M  V30 18304 N 1689.47 -1.23186 0.98301 0
M  V30 18305 C 1690.4 -2.27054 0.544858 0
M  V30 18306 C 1691.38 -1.64749 -0.423281 0
M  V30 18307 O 1692.56 -1.91611 -0.316075 0
M  V30 18308 C 1689.69 -3.46972 -0.150976 0
M  V30 18309 C 1688.65 -4.21647 0.734707 0
M  V30 18310 C 1687.97 -5.34618 -0.0934874 0
M  V30 18311 C 1689.27 -4.81372 2.02679 0
M  V30 18312 H 1690.97 -2.63957 1.41305 0
M  V30 18313 H 1688.51 -1.26885 0.680895 0
M  V30 18314 H 1690.47 -4.18784 -0.468825 0
M  V30 18315 H 1689.19 -3.09137 -1.05364 0
M  V30 18316 H 1687.85 -3.51655 1.03605 0
M  V30 18317 H 1687.5 -4.93025 -0.996768 0
M  V30 18318 H 1687.2 -5.85503 0.496019 0
M  V30 18319 H 1688.72 -6.09251 -0.405658 0
M  V30 18320 H 1690.14 -5.45178 1.77353 0
M  V30 18321 H 1688.53 -5.42554 2.56429 0
M  V30 18322 H 1689.6 -4.01972 2.71194 0
M  V30 18323 N 1690.95 -0.754982 -1.38339 0
M  V30 18324 C 1691.89 -0.128193 -2.30444 0
M  V30 18325 C 1692.86 0.70813 -1.50249 0
M  V30 18326 O 1694.05 0.663969 -1.78875 0
M  V30 18327 C 1691.19 0.757921 -3.36674 0
M  V30 18328 C 1690.3 -0.093181 -4.31899 0
M  V30 18329 C 1689.44 0.796067 -5.25201 0
M  V30 18330 C 1688.48 -0.0585854 -6.12072 0
M  V30 18331 N 1687.61 0.7877 -6.97667 0
M  V30 18332 H 1692.45 -0.919204 -2.83469 0
M  V30 18333 H 1689.99 -0.464921 -1.3956 0
M  V30 18334 H 1691.95 1.28632 -3.96875 0
M  V30 18335 H 1690.58 1.5147 -2.85055 0
M  V30 18336 H 1689.63 -0.73922 -3.73148 0
M  V30 18337 H 1690.94 -0.753146 -4.93081 0
M  V30 18338 H 1690.1 1.39158 -5.90525 0
M  V30 18339 H 1688.83 1.48976 -4.64389 0
M  V30 18340 H 1687.84 -0.666754 -5.45742 0
M  V30 18341 H 1689.06 -0.749361 -6.74953 0
M  V30 18342 H 1687.01 1.46632 -6.39402 0
M  V30 18343 H 1686.93 0.184662 -7.55774 0
M  V30 18344 H 1688.2 1.36814 -7.674 0
M  V30 18345 N 1692.42 1.49318 -0.504168 0
M  V30 18346 C 1693.67 2.01658 0.0410881 0
M  V30 18347 C 1693.99 1.38866 1.37752 0
M  V30 18348 O 1695.19 1.82552 2.00965 0
M  V30 18349 C 1693.65 3.59687 0.123682 0
M  V30 18350 C 1693.26 4.31454 -1.2063 0
M  V30 18351 C 1695 4.19961 0.619134 0
M  V30 18352 C 1692.91 5.81349 -1.0857 0
M  V30 18353 H 1691.84 0.753757 0.0191287 0
M  V30 18354 H 1694.49 1.71826 -0.644066 0
M  V30 18355 H 1692.87 3.86249 0.873355 0
M  V30 18356 H 1694.04 4.1659 -1.96951 0
M  V30 18357 H 1692.36 3.82939 -1.63544 0
M  V30 18358 H 1694.96 5.29736 0.726925 0
M  V30 18359 H 1695.3 3.83539 1.61874 0
M  V30 18360 H 1695.83 3.97731 -0.0740966 0
M  V30 18361 H 1692.57 6.22301 -2.05967 0
M  V30 18362 H 1692.09 5.98698 -0.363422 0
M  V30 18363 H 1693.77 6.42453 -0.765722 0
M  V30 18364 N 1693.9 0.238138 1.5579 0
M  V30 18365 C 1695.32 -0.116908 1.59171 0
M  V30 18366 C 1695.52 -1.57629 1.2552 0
M  V30 18367 O 1694.57 -2.31926 0.998332 0
M  V30 18368 C 1695.89 0.224366 2.99862 0
M  V30 18369 C 1697.44 0.16795 3.12549 0
M  V30 18370 C 1697.91 0.483132 4.55445 0
M  V30 18371 N 1699.4 0.43331 4.61169 0
M  V30 18372 C 1700.14 0.650461 5.69699 0
M  V30 18373 N 1699.63 0.930272 6.86526 0
M  V30 18374 N 1701.43 0.581764 5.59081 0
M  V30 18375 H 1693.58 1.18996 1.75936 0
M  V30 18376 H 1695.84 0.478169 0.818571 0
M  V30 18377 H 1695.55 1.23791 3.29194 0
M  V30 18378 H 1695.42 -0.452738 3.74473 0
M  V30 18379 H 1697.81 -0.836252 2.83003 0
M  V30 18380 H 1697.89 0.878776 2.40231 0
M  V30 18381 H 1697.53 1.48485 4.8571 0
M  V30 18382 H 1697.46 -0.249073 5.26011 0
M  V30 18383 H 1699.95 0.225412 3.77227 0
M  V30 18384 H 1700.27 1.08362 7.65165 0
M  V30 18385 H 1698.61 0.96765 6.88231 0
M  V30 18386 H 1701.8 0.363273 4.66688 0
M  V30 18387 H 1701.97 0.754398 6.43594 0
M  V30 18388 N 1695.38 -1.57561 -0.0350783 0
M  V30 18389 C 1696.61 -1.93644 -0.742753 0
M  V30 18390 C 1697.03 -0.837655 -1.68419 0
M  V30 18391 O 1696.39 0.207069 -1.80114 0
M  V30 18392 C 1696.44 -3.28779 -1.48111 0
M  V30 18393 O 1695.54 -3.20604 -2.59398 0
M  V30 18394 H 1694.88 -0.633103 -0.200192 0
M  V30 18395 H 1697.41 -2.04599 0.00765271 0
M  V30 18396 H 1697.42 -3.63527 -1.85236 0
M  V30 18397 H 1696.1 -4.08316 -0.790608 0
M  V30 18398 H 1694.67 -2.97477 -2.2486 0
M  V30 18399 N 1696.86 0.307236 -1.54576 0
M  V30 18400 C 1698.1 1.04476 -1.73818 0
M  V30 18401 C 1698.44 1.87134 -0.519102 0
M  V30 18402 O 1697.71 1.88386 0.483852 0
M  V30 18403 C 1698 1.95594 -3.02349 0
M  V30 18404 C 1697.85 1.16158 -4.34543 0
M  V30 18405 C 1699.17 2.94865 -3.26715 0
M  V30 18406 H 1696.29 0.378415 -0.632433 0
M  V30 18407 H 1698.93 0.319955 -1.87287 0
M  V30 18408 H 1697.08 2.57396 -2.90997 0
M  V30 18409 H 1698.75 0.5669 -4.57803 0
M  V30 18410 H 1696.99 0.464158 -4.3131 0
M  V30 18411 H 1697.66 1.8315 -5.2073 0
M  V30 18412 H 1700.14 2.4319 -3.37636 0
M  V30 18413 H 1699.02 3.55791 -4.17976 0
M  V30 18414 H 1699.28 3.68195 -2.44714 0
M  V30 18415 N 1698.34 1.46926 0.570122 0
M  V30 18416 C 1699.27 1.61311 1.68822 0
M  V30 18417 C 1700.25 0.462964 1.63678 0
M  V30 18418 O 1701.43 0.690745 1.815 0
M  V30 18419 C 1698.56 1.61499 3.07466 0
M  V30 18420 C 1697.52 2.7561 3.27449 0
M  V30 18421 C 1696.84 2.60865 4.66748 0
M  V30 18422 C 1698.14 4.17324 3.14067 0
M  V30 18423 H 1699.84 2.54909 1.5704 0
M  V30 18424 H 1697.38 1.22677 0.754077 0
M  V30 18425 H 1699.34 1.70155 3.8552 0
M  V30 18426 H 1698.06 0.64453 3.20177 0
M  V30 18427 H 1696.72 2.66444 2.51799 0
M  V30 18428 H 1696.37 1.61875 4.76241 0
M  V30 18429 H 1696.07 3.37411 4.81069 0
M  V30 18430 H 1697.59 2.7143 5.46954 0
M  V30 18431 H 1699 4.27534 3.81952 0
M  V30 18432 H 1697.4 4.94555 3.39905 0
M  V30 18433 H 1698.47 4.36596 2.10979 0
M  V30 18434 N 1699.82 -0.815801 1.34842 0
M  V30 18435 C 1700.78 -1.90871 1.2689 0
M  V30 18436 C 1701.78 -1.59762 0.182445 0
M  V30 18437 O 1702.97 -1.68667 0.435543 0
M  V30 18438 C 1700.1 -3.27081 0.960774 0
M  V30 18439 H 1701.29 -1.99343 2.24059 0
M  V30 18440 H 1698.85 -1.0106 1.19233 0
M  V30 18441 H 1699.58 -3.24299 -0.00744059 0
M  V30 18442 H 1699.37 -3.51045 1.74671 0
M  V30 18443 H 1700.86 -4.07101 0.930494 0
M  V30 18444 N 1701.29 -1.18689 -1.03686 0
M  V30 18445 C 1702.2 -0.932473 -2.15272 0
M  V30 18446 C 1703.22 0.104751 -1.73684 0
M  V30 18447 O 1704.4 -0.0780471 -2.01249 0
M  V30 18448 C 1701.46 -0.465807 -3.43557 0
M  V30 18449 C 1700.52 -1.57146 -3.99504 0
M  V30 18450 C 1699.75 -1.12696 -5.21666 0
M  V30 18451 O 1699.98 0.0127657 -5.70399 0
M  V30 18452 O 1698.91 -1.92627 -5.70244 0
M  V30 18453 H 1702.74 -1.86626 -2.39592 0
M  V30 18454 H 1700.32 -0.969029 -1.13711 0
M  V30 18455 H 1702.2 -0.213819 -4.20857 0
M  V30 18456 H 1700.88 0.43964 -3.20701 0
M  V30 18457 H 1699.79 -1.8775 -3.23575 0
M  V30 18458 H 1701.12 -2.45317 -4.26709 0
M  V30 18459 N 1702.77 1.22662 -0.989529 0
M  V30 18460 C 1704.02 1.91322 -0.663497 0
M  V30 18461 C 1704.35 1.77102 0.804057 0
M  V30 18462 O 1703.6 1.13169 1.5966 0
M  V30 18463 C 1703.9 3.428 -1.01109 0
M  V30 18464 C 1703.57 3.77206 -2.47035 0
M  V30 18465 C 1702.23 3.86308 -2.86914 0
M  V30 18466 C 1704.58 3.93617 -3.41636 0
M  V30 18467 C 1701.91 4.09255 -4.20389 0
M  V30 18468 C 1704.26 4.18067 -4.74766 0
M  V30 18469 C 1702.92 4.25392 -5.14391 0
M  V30 18470 H 1702.19 0.700095 -0.242791 0
M  V30 18471 H 1704.84 1.45498 -1.24509 0
M  V30 18472 H 1703.15 3.90256 -0.347533 0
M  V30 18473 H 1704.84 3.94171 -0.736909 0
M  V30 18474 H 1701.43 3.70702 -2.15123 0
M  V30 18475 H 1705.62 3.85966 -3.12 0
M  V30 18476 H 1700.87 4.13152 -4.50683 0
M  V30 18477 H 1705.05 4.29708 -5.48018 0
M  V30 18478 H 1702.67 4.42926 -6.17835 0
M  V30 18479 N 1704.25 0.762308 1.37937 0
M  V30 18480 C 1705.16 0.142724 2.34165 0
M  V30 18481 C 1706.18 -0.690588 1.59709 0
M  V30 18482 O 1707.35 -0.61271 1.91854 0
M  V30 18483 C 1704.42 -0.733325 3.38856 0
M  V30 18484 C 1703.48 0.115359 4.29145 0
M  V30 18485 C 1702.71 -0.718972 5.28835 0
M  V30 18486 O 1702.93 -1.95656 5.35794 0
M  V30 18487 O 1701.87 -0.133162 6.01753 0
M  V30 18488 H 1705.69 0.937662 2.88863 0
M  V30 18489 H 1703.28 0.523325 1.39935 0
M  V30 18490 H 1705.16 -1.23374 4.02935 0
M  V30 18491 H 1703.84 -1.50661 2.86501 0
M  V30 18492 H 1702.74 0.661926 3.68197 0
M  V30 18493 H 1704.08 0.851505 4.84779 0
M  V30 18494 N 1705.73 -1.49049 0.51208 0
M  V30 18495 C 1706.64 -2.33102 -0.264695 0
M  V30 18496 C 1707.65 -1.45347 -0.956571 0
M  V30 18497 O 1708.83 -1.78355 -0.935501 0
M  V30 18498 C 1705.89 -3.21051 -1.30871 0
M  V30 18499 C 1704.96 -4.24666 -0.629094 0
M  V30 18500 C 1704.19 -5.08412 -1.62337 0
M  V30 18501 O 1704.41 -4.93847 -2.85432 0
M  V30 18502 O 1703.35 -5.90368 -1.17259 0
M  V30 18503 H 1707.17 -3.00732 0.423585 0
M  V30 18504 H 1704.76 -1.4688 0.273246 0
M  V30 18505 H 1706.64 -3.75503 -1.91248 0
M  V30 18506 H 1705.31 -2.56103 -1.97972 0
M  V30 18507 H 1704.22 -3.74097 0.0147056 0
M  V30 18508 H 1705.55 -4.922 -0.000339859 0
M  V30 18509 N 1707.21 -0.246397 -1.55662 0
M  V30 18510 C 1708.14 0.647563 -2.24341 0
M  V30 18511 C 1709.12 1.1817 -1.22352 0
M  V30 18512 O 1710.3 1.22114 -1.51003 0
M  V30 18513 C 1707.43 1.84485 -2.94249 0
M  V30 18514 C 1706.39 1.4435 -4.02923 0
M  V30 18515 C 1705.71 2.72158 -4.60255 0
M  V30 18516 C 1707.01 0.614951 -5.18667 0
M  V30 18517 H 1708.71 0.0748803 -2.99306 0
M  V30 18518 H 1706.25 0.034575 -1.43958 0
M  V30 18519 H 1708.2 2.47588 -3.40995 0
M  V30 18520 H 1706.93 2.4429 -2.16772 0
M  V30 18521 H 1705.59 0.835811 -3.56945 0
M  V30 18522 H 1705.24 3.3016 -3.79478 0
M  V30 18523 H 1704.94 2.46028 -5.33614 0
M  V30 18524 H 1706.46 3.36161 -5.09734 0
M  V30 18525 H 1707.87 1.15028 -5.61642 0
M  V30 18526 H 1706.27 0.449729 -5.98412 0
M  V30 18527 H 1707.34 -0.372943 -4.83464 0
M  V30 18528 N 1708.68 1.57577 0.026722 0
M  V30 18529 C 1709.91 1.9364 0.728771 0
M  V30 18530 C 1710.33 0.846352 1.68767 0
M  V30 18531 O 1709.68 -0.177038 1.81639 0
M  V30 18532 C 1709.73 3.29644 1.48381 0
M  V30 18533 O 1709.46 4.34462 0.563393 0
M  V30 18534 C 1710.96 3.80004 2.2828 0
M  V30 18535 H 1708.18 0.639025 0.204666 0
M  V30 18536 H 1710.72 2.04493 -0.016449 0
M  V30 18537 H 1708.88 3.20181 2.18089 0
M  V30 18538 H 1709.29 5.12982 1.09315 0
M  V30 18539 H 1710.76 4.77671 2.76649 0
M  V30 18540 H 1711.24 3.11319 3.09802 0
M  V30 18541 H 1711.85 3.92558 1.63642 0
M  V30 18542 N 1710.16 -0.299034 1.54737 0
M  V30 18543 C 1711.39 -1.0529 1.78105 0
M  V30 18544 C 1711.8 -1.80868 0.541499 0
M  V30 18545 O 1711.16 -1.75834 -0.488726 0
M  V30 18546 C 1711.21 -2.03192 2.9899 0
M  V30 18547 O 1710.93 -1.30681 4.18156 0
M  V30 18548 C 1712.43 -2.90602 3.34762 0
M  V30 18549 H 1709.65 -0.312173 0.593961 0
M  V30 18550 H 1712.2 -0.337712 2.01692 0
M  V30 18551 H 1710.35 -2.70211 2.77606 0
M  V30 18552 H 1710.77 -1.96446 4.86322 0
M  V30 18553 H 1712.24 -3.55144 4.22584 0
M  V30 18554 H 1712.72 -3.59006 2.53004 0
M  V30 18555 H 1713.32 -2.29112 3.58313 0
M  V30 18556 N 1711.64 -1.47227 -0.562322 0
M  V30 18557 C 1712.92 -1.44069 -1.32301 0
M  V30 18558 C 1713.3 -0.134912 -2.10668 0
M  V30 18559 O 1712.64 0.883603 -2.10724 0
M  V30 18560 C 1712.85 -2.68309 -2.23184 0
M  V30 18561 C 1714.2 -3.1531 -2.84367 0
M  V30 18562 O 1715.23 -2.69001 -2.33489 0
M  V30 18563 O 1714.09 -3.95805 -3.7683 0
M  V30 18564 H 1711.18 -0.573892 -0.595464 0
M  V30 18565 H 1713.73 -1.59421 -0.581648 0
M  V30 18566 H 1712.5 -3.54884 -1.64842 0
M  V30 18567 H 1712.12 -2.55518 -3.04625 0
M  V30 18568 N 1713.12 0.808639 -1.35273 0
M  V30 18569 C 1714.07 1.94177 -1.28055 0
M  V30 18570 C 1715.06 1.68485 -0.175874 0
M  V30 18571 O 1716.27 1.76726 -0.341729 0
M  V30 18572 H 1712.64 0.63793 -0.398183 0
M  V30 18573 H 1714.61 1.97385 -2.2379 0
M  V30 18574 C 1713.36 3.30913 -1.06734 0
M  V30 18575 H 1712.68 3.51238 -1.90975 0
M  V30 18576 H 1714.12 4.10607 -1.05724 0
M  V30 18577 C 1712.58 3.36122 0.228886 0
M  V30 18578 O 1713.11 3.82553 1.22539 0
M  V30 18579 N 1711.32 2.89371 0.266949 0
M  V30 18580 H 1710.87 2.51778 -0.544571 0
M  V30 18581 H 1710.82 2.93238 1.13396 0
M  V30 18582 N 1714.6 1.19237 1.03055 0
M  V30 18583 C 1715.84 0.995444 1.76688 0
M  V30 18584 C 1716.18 -0.472805 1.88357 0
M  V30 18585 O 1715.45 -1.3511 1.39913 0
M  V30 18586 C 1715.73 1.66308 3.19396 0
M  V30 18587 C 1715.59 3.20486 3.15609 0
M  V30 18588 C 1716.91 1.38468 4.17749 0
M  V30 18589 H 1714.02 0.36304 0.641382 0
M  V30 18590 H 1716.67 1.47052 1.20315 0
M  V30 18591 H 1714.82 1.25915 3.67529 0
M  V30 18592 H 1716.49 3.70081 2.75387 0
M  V30 18593 H 1714.73 3.52118 2.53369 0
M  V30 18594 H 1715.4 3.62345 4.16426 0
M  V30 18595 H 1717.88 1.73485 3.78209 0
M  V30 18596 H 1716.75 1.87735 5.15797 0
M  V30 18597 H 1717.02 0.309505 4.41015 0
M  V30 18598 N 1716.07 -1.22136 0.99602 0
M  V30 18599 C 1717.3 -1.95519 0.69189 0
M  V30 18600 C 1717.72 -1.7304 -0.73748 0
M  V30 18601 O 1717.08 -1.01157 -1.50456 0
M  V30 18602 C 1717.13 -3.46244 1.00735 0
M  V30 18603 O 1716.23 -4.12259 0.107713 0
M  V30 18604 H 1715.58 -0.611553 0.258648 0
M  V30 18605 H 1718.11 -1.55145 1.33384 0
M  V30 18606 H 1718.12 -3.96774 0.950482 0
M  V30 18607 H 1716.79 -3.6193 2.04889 0
M  V30 18608 H 1715.37 -3.72248 0.220336 0
M  V30 18609 N 1717.55 -0.769612 -1.37531 0
M  V30 18610 C 1718.96 -0.398644 -1.82394 0
M  V30 18611 C 1719.31 1.07493 -1.64133 0
M  V30 18612 O 1718.44 1.83234 -1.15127 0
M  V30 18613 C 1719.03 -0.716789 -3.31131 0
M  V30 18614 C 1717.59 -0.398903 -3.7428 0
M  V30 18615 C 1716.74 -0.96173 -2.60089 0
M  V30 18616 H 1719.69 -0.964441 -1.26033 0
M  V30 18617 H 1719.71 -0.00067688 -3.805 0
M  V30 18618 H 1719.22 -1.78933 -3.4439 0
M  V30 18619 H 1717.33 0.666412 -3.66592 0
M  V30 18620 H 1717.44 -0.90566 -4.70462 0
M  V30 18621 H 1715.8 -0.386103 -2.51757 0
M  V30 18622 H 1716.59 -2.03963 -2.76141 0
M  V30 18623 N 1719.03 1.48775 -0.519977 0
M  V30 18624 C 1720.26 2.06595 0.013978 0
M  V30 18625 C 1720.67 1.37819 1.29624 0
M  V30 18626 O 1720.01 0.456315 1.77942 0
M  V30 18627 C 1720.07 3.58085 0.318694 0
M  V30 18628 C 1719.74 4.48669 -0.868623 0
M  V30 18629 C 1720.73 4.89048 -1.76432 0
M  V30 18630 C 1718.42 4.9071 -1.07279 0
M  V30 18631 C 1720.41 5.70226 -2.84818 0
M  V30 18632 C 1718.1 5.7166 -2.15981 0
M  V30 18633 C 1719.1 6.11325 -3.04583 0
M  V30 18634 O 1718.79 6.90653 -4.11405 0
M  V30 18635 H 1718.52 0.675506 -0.02584 0
M  V30 18636 H 1721.07 1.92289 -0.722099 0
M  V30 18637 H 1719.3 3.70468 1.10861 0
M  V30 18638 H 1720.99 3.98068 0.793529 0
M  V30 18639 H 1721.76 4.57198 -1.61848 0
M  V30 18640 H 1717.64 4.59326 -0.392454 0
M  V30 18641 H 1721.18 6.01105 -3.54004 0
M  V30 18642 H 1717.08 6.02923 -2.30552 0
M  V30 18643 H 1717.85 7.08991 -4.08992 0
M  V30 18644 N 1720.51 0.254649 1.55529 0
M  V30 18645 C 1721.74 -0.371856 2.03531 0
M  V30 18646 C 1722.15 -1.50974 1.13368 0
M  V30 18647 O 1721.51 -1.81885 0.14964 0
M  V30 18648 C 1721.56 -0.872314 3.50818 0
M  V30 18649 O 1721.28 0.22023 4.37546 0
M  V30 18650 C 1722.78 -1.56872 4.14616 0
M  V30 18651 H 1720 -0.0874565 0.665276 0
M  V30 18652 H 1722.55 0.380774 2.00924 0
M  V30 18653 H 1720.7 -1.5751 3.53934 0
M  V30 18654 H 1721.11 -0.161046 5.24253 0
M  V30 18655 H 1722.59 -1.87053 5.19341 0
M  V30 18656 H 1723.07 -2.49334 3.61565 0
M  V30 18657 H 1723.67 -0.910314 4.15444 0
M  V30 18658 N 1721.99 -1.57589 -0.0183649 0
M  V30 18659 C 1723.4 -1.7799 -0.563591 0
M  V30 18660 C 1723.75 -0.887064 -1.75002 0
M  V30 18661 O 1722.87 -0.0846843 -2.16234 0
M  V30 18662 C 1723.47 -3.2279 -1.02919 0
M  V30 18663 C 1722.03 -3.44351 -1.51986 0
M  V30 18664 C 1721.17 -2.73412 -0.462727 0
M  V30 18665 H 1724.13 -1.57333 0.207849 0
M  V30 18666 H 1724.15 -3.29892 -1.89609 0
M  V30 18667 H 1723.66 -3.87747 -0.165487 0
M  V30 18668 H 1721.76 -2.84583 -2.40506 0
M  V30 18669 H 1721.87 -4.52992 -1.55998 0
M  V30 18670 H 1720.24 -2.37496 -0.920211 0
M  V30 18671 H 1721.02 -3.41058 0.391698 0
M  V30 18672 N 1723.46 0.290824 -1.54893 0
M  V30 18673 C 1724.71 1.02272 -1.74312 0
M  V30 18674 C 1725.03 1.87449 -0.537393 0
M  V30 18675 O 1724.3 1.90705 0.448135 0
M  V30 18676 H 1722.88 0.380592 -0.642774 0
M  V30 18677 H 1725.55 0.319353 -1.92266 0
M  V30 18678 H 1724.64 1.66997 -2.63663 0
M  V30 18679 N 1724.94 1.47523 0.554506 0
M  V30 18680 C 1726.19 1.53546 1.30791 0
M  V30 18681 C 1726.5 0.203555 1.94538 0
M  V30 18682 O 1727.71 0.14181 2.71129 0
M  V30 18683 C 1726.17 2.70684 2.37188 0
M  V30 18684 C 1725.77 4.10415 1.7962 0
M  V30 18685 C 1727.52 2.86002 3.13693 0
M  V30 18686 C 1725.43 5.18849 2.83813 0
M  V30 18687 H 1724.36 0.571539 0.491792 0
M  V30 18688 H 1727.01 1.73803 0.58861 0
M  V30 18689 H 1725.39 2.43812 3.12045 0
M  V30 18690 H 1726.56 4.47202 1.11117 0
M  V30 18691 H 1724.88 4.00006 1.15691 0
M  V30 18692 H 1727.47 3.64181 3.91505 0
M  V30 18693 H 1727.82 1.94545 3.68046 0
M  V30 18694 H 1728.35 3.12657 2.45948 0
M  V30 18695 H 1725.09 6.12192 2.34311 0
M  V30 18696 H 1724.61 4.86577 3.50718 0
M  V30 18697 H 1726.29 5.45915 3.47255 0
M  V30 18698 N 1726.42 -0.801453 1.357 0
M  V30 18699 C 1727.38 -1.89514 1.28907 0
M  V30 18700 C 1728.38 -1.59559 0.19938 0
M  V30 18701 O 1729.57 -1.68196 0.453408 0
M  V30 18702 C 1726.71 -3.26044 0.995411 0
M  V30 18703 H 1727.9 -1.96956 2.2616 0
M  V30 18704 H 1725.45 -0.997899 1.20298 0
M  V30 18705 H 1726.19 -3.24289 0.0269561 0
M  V30 18706 H 1725.97 -3.49172 1.78385 0
M  V30 18707 H 1727.46 -4.06092 0.97362 0
M  V30 18708 N 1727.9 -1.19782 -1.02421 0
M  V30 18709 C 1729.13 -1.02871 -1.79514 0
M  V30 18710 C 1729.54 0.422387 -1.84014 0
M  V30 18711 O 1728.9 1.29335 -1.28758 0
M  V30 18712 C 1728.95 -1.59634 -3.24344 0
M  V30 18713 O 1728.67 -2.99064 -3.20144 0
M  V30 18714 C 1730.17 -1.47571 -4.18016 0
M  V30 18715 H 1727.39 -0.362301 -0.564782 0
M  V30 18716 H 1729.94 -1.58701 -1.28974 0
M  V30 18717 H 1728.09 -1.07942 -3.72058 0
M  V30 18718 H 1728.5 -3.25859 -4.10994 0
M  V30 18719 H 1729.98 -1.92061 -5.1751 0
M  V30 18720 H 1730.46 -0.426967 -4.3712 0
M  V30 18721 H 1731.06 -1.98417 -3.76179 0
M  V30 18722 N 1729.38 1.21606 -1.00248 0
M  V30 18723 C 1730.29 2.2757 -0.570004 0
M  V30 18724 C 1731.3 1.69669 0.385788 0
M  V30 18725 O 1732.48 1.99839 0.250246 0
M  V30 18726 C 1729.54 3.46558 0.0990566 0
M  V30 18727 C 1728.61 4.19741 -0.9009 0
M  V30 18728 C 1727.84 5.33048 -0.263673 0
M  V30 18729 O 1728.06 5.62599 0.940131 0
M  V30 18730 O 1727 5.93978 -0.973342 0
M  V30 18731 H 1730.82 2.66751 -1.45182 0
M  V30 18732 H 1728.41 1.27955 -0.771224 0
M  V30 18733 H 1730.29 4.18733 0.47339 0
M  V30 18734 H 1728.96 3.09283 0.955285 0
M  V30 18735 H 1727.87 3.49798 -1.32634 0
M  V30 18736 H 1729.2 4.60921 -1.72664 0
M  V30 18737 N 1730.86 0.776895 1.37121 0
M  V30 18738 C 1731.82 0.172839 2.28547 0
M  V30 18739 C 1732.82 -0.622508 1.48262 0
M  V30 18740 O 1734.01 -0.44534 1.68411 0
M  V30 18741 C 1731.14 -0.762294 3.32268 0
M  V30 18742 H 1732.33 0.978842 2.83476 0
M  V30 18743 H 1729.89 0.545454 1.46474 0
M  V30 18744 H 1730.62 -1.59311 2.82472 0
M  V30 18745 H 1730.41 -0.194084 3.91619 0
M  V30 18746 H 1731.9 -1.1802 4.00576 0
M  V30 18747 N 1732.33 -1.48497 0.527859 0
M  V30 18748 C 1733.24 -2.3337 -0.239957 0
M  V30 18749 C 1734.26 -1.46353 -0.941101 0
M  V30 18750 O 1735.44 -1.79337 -0.916532 0
M  V30 18751 C 1732.5 -3.22421 -1.27458 0
M  V30 18752 C 1731.56 -4.25309 -0.584017 0
M  V30 18753 C 1730.79 -5.10105 -1.56935 0
M  V30 18754 O 1731.02 -4.96846 -2.80178 0
M  V30 18755 O 1729.95 -5.91578 -1.10991 0
M  V30 18756 H 1733.78 -3.00265 0.455458 0
M  V30 18757 H 1731.36 -1.46582 0.288809 0
M  V30 18758 H 1733.24 -3.7751 -1.87254 0
M  V30 18759 H 1731.92 -2.58189 -1.95244 0
M  V30 18760 H 1730.83 -3.7406 0.0543828 0
M  V30 18761 H 1732.16 -4.92173 0.0518646 0
M  V30 18762 N 1733.81 -0.262893 -1.55392 0
M  V30 18763 C 1735.04 0.361057 -2.03725 0
M  V30 18764 C 1735.45 1.5037 -1.14168 0
M  V30 18765 O 1734.81 1.81804 -0.159284 0
M  V30 18766 C 1734.86 0.853697 -3.51275 0
M  V30 18767 O 1734.58 -0.243431 -4.37423 0
M  V30 18768 C 1736.08 1.54671 -4.15442 0
M  V30 18769 H 1733.3 0.0839272 -0.665731 0
M  V30 18770 H 1735.85 -0.391424 -2.00719 0
M  V30 18771 H 1734 1.55631 -3.54765 0
M  V30 18772 H 1734.42 0.133241 -5.24331 0
M  V30 18773 H 1735.89 1.84296 -5.20326 0
M  V30 18774 H 1736.37 2.47413 -3.62882 0
M  V30 18775 H 1736.97 0.888269 -4.15921 0
M  V30 18776 N 1735.29 1.57597 0.0100073 0
M  V30 18777 C 1736.7 1.78287 0.554143 0
M  V30 18778 C 1737.05 0.896332 1.74529 0
M  V30 18779 O 1736.18 0.0961505 2.16186 0
M  V30 18780 C 1736.77 3.23331 1.01206 0
M  V30 18781 C 1735.33 3.45152 1.50157 0
M  V30 18782 C 1734.48 2.73654 0.448221 0
M  V30 18783 H 1737.43 1.57221 -0.216189 0
M  V30 18784 H 1737.45 3.30893 1.87856 0
M  V30 18785 H 1736.96 3.87829 0.144921 0
M  V30 18786 H 1735.06 2.85854 2.38994 0
M  V30 18787 H 1735.18 4.53813 1.53594 0
M  V30 18788 H 1733.54 2.3798 0.907603 0
M  V30 18789 H 1734.32 3.40846 -0.40978 0
M  V30 18790 N 1736.77 -0.282606 1.55045 0
M  V30 18791 C 1738.01 -1.01698 1.75458 0
M  V30 18792 C 1738.35 -1.86284 0.548808 0
M  V30 18793 O 1737.62 -1.89131 -0.45382 0
M  V30 18794 C 1737.9 -1.90759 3.05423 0
M  V30 18795 C 1737.76 -1.0923 4.36336 0
M  V30 18796 C 1739.08 -2.8963 3.31364 0
M  V30 18797 H 1736.2 -0.368305 0.638373 0
M  V30 18798 H 1738.84 -0.290118 1.87772 0
M  V30 18799 H 1736.99 -2.52734 2.95055 0
M  V30 18800 H 1738.66 -0.493996 4.58647 0
M  V30 18801 H 1736.9 -0.395481 4.31994 0
M  V30 18802 H 1737.57 -1.74842 5.23578 0
M  V30 18803 H 1740.05 -2.37788 3.41462 0
M  V30 18804 H 1738.93 -3.49096 4.23584 0
M  V30 18805 H 1739.19 -3.64255 2.50541 0
M  V30 18806 N 1738.25 -1.47815 -0.546675 0
M  V30 18807 C 1739.21 -1.6063 -1.63495 0
M  V30 18808 C 1740.21 -0.480661 -1.53448 0
M  V30 18809 O 1741.4 -0.746017 -1.57417 0
M  V30 18810 C 1738.53 -1.56076 -3.03073 0
M  V30 18811 H 1739.72 -2.57652 -1.53478 0
M  V30 18812 H 1737.28 -1.36162 -0.767433 0
M  V30 18813 H 1738.01 -0.604694 -3.18613 0
M  V30 18814 H 1737.8 -2.3778 -3.11774 0
M  V30 18815 H 1739.29 -1.68204 -3.82227 0
M  V30 18816 N 1739.72 0.794246 -1.36123 0
M  V30 18817 C 1740.97 1.54708 -1.29416 0
M  V30 18818 C 1741.29 1.95195 0.125849 0
M  V30 18819 O 1742.49 2.69663 0.315271 0
M  V30 18820 C 1740.95 2.79256 -2.27034 0
M  V30 18821 C 1740.56 2.45957 -3.74445 0
M  V30 18822 C 1742.3 3.57246 -2.29294 0
M  V30 18823 C 1740.21 3.66871 -4.63853 0
M  V30 18824 H 1739.14 0.580743 -0.480888 0
M  V30 18825 H 1741.79 0.871975 -1.61458 0
M  V30 18826 H 1740.17 3.4854 -1.87979 0
M  V30 18827 H 1741.34 1.846 -4.22208 0
M  V30 18828 H 1739.66 1.81187 -3.74913 0
M  V30 18829 H 1742.26 4.47076 -2.93304 0
M  V30 18830 H 1742.6 3.95478 -1.30011 0
M  V30 18831 H 1743.13 2.94936 -2.66941 0
M  V30 18832 H 1739.87 3.33739 -5.6418 0
M  V30 18833 H 1739.39 4.27411 -4.20809 0
M  V30 18834 H 1741.07 4.33957 -4.79886 0
M  V30 18835 N 1741.2 1.20323 1.01785 0
M  V30 18836 C 1742.13 0.974819 2.12178 0
M  V30 18837 C 1743.11 -0.0957637 1.6983 0
M  V30 18838 O 1744.3 0.0614963 1.94103 0
M  V30 18839 C 1741.43 0.524739 3.43313 0
M  V30 18840 C 1740.38 1.53842 3.99395 0
M  V30 18841 C 1739.71 0.945021 5.26283 0
M  V30 18842 C 1741.01 2.92179 4.3293 0
M  V30 18843 H 1742.7 1.8981 2.31544 0
M  V30 18844 H 1740.25 0.914025 1.11273 0
M  V30 18845 H 1742.2 0.352182 4.19926 0
M  V30 18846 H 1740.92 -0.434161 3.23701 0
M  V30 18847 H 1739.58 1.69832 3.24889 0
M  V30 18848 H 1739.23 -0.0217709 5.02995 0
M  V30 18849 H 1738.93 1.62201 5.64769 0
M  V30 18850 H 1740.46 0.783504 6.05552 0
M  V30 18851 H 1741.87 2.79708 5.00436 0
M  V30 18852 H 1740.27 3.56773 4.82528 0
M  V30 18853 H 1741.34 3.43997 3.41752 0
M  V30 18854 N 1742.68 -1.21073 1.00892 0
M  V30 18855 C 1743.93 -1.89866 0.69248 0
M  V30 18856 C 1744.25 -1.7874 -0.779562 0
M  V30 18857 O 1743.52 -1.18482 -1.56009 0
M  V30 18858 H 1742.1 -0.702799 0.253145 0
M  V30 18859 H 1744.76 -1.47075 1.27887 0
M  V30 18860 H 1743.86 -2.96673 0.969098 0
M  V30 18861 N 1744.16 -0.784156 -1.36707 0
M  V30 18862 C 1745.12 -0.184957 -2.28453 0
M  V30 18863 C 1746.12 0.614637 -1.4859 0
M  V30 18864 O 1747.31 0.436403 -1.68645 0
M  V30 18865 C 1744.44 0.744662 -3.32667 0
M  V30 18866 H 1745.64 -0.993861 -2.82953 0
M  V30 18867 H 1743.19 -0.553214 -1.46182 0
M  V30 18868 H 1743.92 1.57811 -2.83313 0
M  V30 18869 H 1743.71 0.173313 -3.91717 0
M  V30 18870 H 1745.2 1.15894 -4.01196 0
M  V30 18871 N 1745.64 1.48215 -0.535727 0
M  V30 18872 C 1747.05 1.58417 -0.193977 0
M  V30 18873 C 1747.25 1.53705 1.30296 0
M  V30 18874 O 1746.31 1.42913 2.08164 0
M  V30 18875 C 1747.62 2.89819 -0.8016 0
M  V30 18876 C 1749.17 3.03359 -0.770858 0
M  V30 18877 C 1749.64 4.3743 -1.35716 0
M  V30 18878 N 1751.14 4.44012 -1.31938 0
M  V30 18879 C 1751.87 5.4627 -1.74287 0
M  V30 18880 N 1751.37 6.55454 -2.24393 0
M  V30 18881 N 1753.16 5.37187 -1.65489 0
M  V30 18882 H 1745.31 1.49521 -1.50855 0
M  V30 18883 H 1747.57 0.710306 -0.627829 0
M  V30 18884 H 1747.28 2.98939 -1.85278 0
M  V30 18885 H 1747.15 3.76144 -0.282036 0
M  V30 18886 H 1749.54 2.93848 0.271577 0
M  V30 18887 H 1749.62 2.1863 -1.32795 0
M  V30 18888 H 1749.27 4.47696 -2.39855 0
M  V30 18889 H 1749.2 5.20856 -0.775696 0
M  V30 18890 H 1751.69 3.65695 -0.952653 0
M  V30 18891 H 1752 7.29626 -2.54686 0
M  V30 18892 H 1750.34 6.56402 -2.2839 0
M  V30 18893 H 1753.54 4.50785 -1.26138 0
M  V30 18894 H 1753.71 6.16747 -1.98814 0
M  V30 18895 N 1747.11 0.27113 1.5525 0
M  V30 18896 C 1748.02 -0.628245 2.26031 0
M  V30 18897 C 1749.04 -1.17339 1.28481 0
M  V30 18898 O 1750.22 -1.20453 1.61409 0
M  V30 18899 C 1747.28 -1.79766 2.96454 0
M  V30 18900 C 1746.34 -1.28958 4.09473 0
M  V30 18901 C 1745.58 -2.40326 4.76528 0
M  V30 18902 O 1745.8 -3.59595 4.42772 0
M  V30 18903 O 1744.73 -2.08708 5.64557 0
M  V30 18904 H 1748.56 -0.0549756 3.0365 0
M  V30 18905 H 1746.14 0.0386859 1.4935 0
M  V30 18906 H 1748.03 -2.4796 3.40725 0
M  V30 18907 H 1746.7 -2.35809 2.21756 0
M  V30 18908 H 1745.61 -0.57422 3.69667 0
M  V30 18909 H 1746.94 -0.774945 4.86061 0
M  V30 18910 N 1748.59 -1.576 -0.00164943 0
M  V30 18911 C 1749.82 -1.94493 -0.69686 0
M  V30 18912 C 1750.23 -0.871587 -1.67929 0
M  V30 18913 O 1749.57 0.158245 -1.83017 0
M  V30 18914 C 1749.64 -3.27363 -1.48572 0
M  V30 18915 C 1749.3 -4.52135 -0.665063 0
M  V30 18916 C 1750.3 -5.19879 0.0465481 0
M  V30 18917 C 1747.98 -4.98564 -0.611519 0
M  V30 18918 C 1749.98 -6.32351 0.800706 0
M  V30 18919 C 1747.66 -6.10925 0.146365 0
M  V30 18920 C 1748.66 -6.77675 0.851213 0
M  V30 18921 O 1748.35 -7.87883 1.59674 0
M  V30 18922 H 1748.08 -0.645998 -0.199156 0
M  V30 18923 H 1750.63 -2.05351 0.0450887 0
M  V30 18924 H 1748.86 -3.12909 -2.27211 0
M  V30 18925 H 1750.55 -3.4938 -2.06611 0
M  V30 18926 H 1751.32 -4.84998 0.014324 0
M  V30 18927 H 1747.2 -4.46434 -1.14967 0
M  V30 18928 H 1750.74 -6.84385 1.3514 0
M  V30 18929 H 1746.64 -6.45248 0.180416 0
M  V30 18930 H 1747.41 -8.04389 1.51327 0
M  V30 18931 N 1750.07 0.274379 -1.55193 0
M  V30 18932 C 1751.32 1.00394 -1.7494 0
M  V30 18933 C 1751.63 1.87499 -0.557084 0
M  V30 18934 O 1752.84 2.63923 -0.636936 0
M  V30 18935 C 1751.29 1.83489 -3.09612 0
M  V30 18936 C 1750.9 1.01257 -4.36407 0
M  V30 18937 C 1752.65 2.55883 -3.38709 0
M  V30 18938 C 1750.55 1.83782 -5.62119 0
M  V30 18939 H 1749.48 0.378561 -0.65208 0
M  V30 18940 H 1752.13 0.259678 -1.81653 0
M  V30 18941 H 1750.52 2.62005 -2.96933 0
M  V30 18942 H 1751.69 0.27167 -4.59998 0
M  V30 18943 H 1750.01 0.403235 -4.14443 0
M  V30 18944 H 1752.6 3.18028 -4.2984 0
M  V30 18945 H 1752.95 3.26096 -2.58779 0
M  V30 18946 H 1753.48 1.84398 -3.5248 0
M  V30 18947 H 1750.22 1.17992 -6.44793 0
M  V30 18948 H 1749.74 2.55473 -5.42673 0
M  V30 18949 H 1751.42 2.41181 -6.00367 0
M  V30 18950 N 1751.55 1.48103 0.538828 0
M  V30 18951 C 1752.8 1.55669 1.29512 0
M  V30 18952 C 1753.12 0.22678 1.93173 0
M  V30 18953 O 1752.38 -0.78212 1.79392 0
M  V30 18954 C 1752.68 2.63703 2.41237 0
M  V30 18955 C 1752.34 4.06416 1.95287 0
M  V30 18956 C 1751.01 4.45261 1.82472 0
M  V30 18957 C 1753.36 4.95888 1.60452 0
M  V30 18958 C 1750.69 5.71392 1.33145 0
M  V30 18959 C 1753.04 6.225 1.12591 0
M  V30 18960 C 1751.7 6.60209 0.983861 0
M  V30 18961 H 1750.97 0.569633 0.473919 0
M  V30 18962 H 1753.62 1.81783 0.602275 0
M  V30 18963 H 1751.92 2.31416 3.16155 0
M  V30 18964 H 1753.62 2.66775 2.99386 0
M  V30 18965 H 1750.21 3.75734 2.06209 0
M  V30 18966 H 1754.39 4.66561 1.69217 0
M  V30 18967 H 1749.65 5.99342 1.20828 0
M  V30 18968 H 1753.82 6.91229 0.847045 0
M  V30 18969 H 1751.45 7.57833 0.599433 0
M  V30 18970 N 1753.03 -0.787016 1.36542 0
M  V30 18971 C 1754.25 -1.58103 1.34231 0
M  V30 18972 C 1754.68 -1.87956 -0.0734932 0
M  V30 18973 O 1754.03 -1.48073 -1.04615 0
M  V30 18974 C 1754.08 -2.87739 2.17345 0
M  V30 18975 O 1753.19 -3.81445 1.56759 0
M  V30 18976 H 1752.53 -0.479495 0.459326 0
M  V30 18977 H 1755.06 -0.975294 1.79859 0
M  V30 18978 H 1755.07 -3.36986 2.3001 0
M  V30 18979 H 1753.74 -2.65338 3.20264 0
M  V30 18980 H 1752.32 -3.40046 1.53047 0
M  V30 18981 N 1754.5 -1.20861 -1.01145 0
M  V30 18982 C 1755.41 -0.977926 -2.13246 0
M  V30 18983 C 1756.43 0.0678862 -1.73868 0
M  V30 18984 O 1757.61 -0.120717 -2.01038 0
M  V30 18985 C 1754.67 -0.538575 -3.42491 0
M  V30 18986 C 1753.73 -1.65584 -3.96081 0
M  V30 18987 C 1752.97 -1.23736 -5.19158 0
M  V30 18988 O 1753.19 -0.108227 -5.70297 0
M  V30 18989 O 1752.12 -2.04679 -5.6603 0
M  V30 18990 H 1755.95 -1.91666 -2.3558 0
M  V30 18991 H 1753.53 -0.992931 -1.1163 0
M  V30 18992 H 1755.42 -0.303041 -4.20309 0
M  V30 18993 H 1754.09 0.371515 -3.21561 0
M  V30 18994 H 1753 -1.94572 -3.19519 0
M  V30 18995 H 1754.33 -2.54313 -4.21409 0
M  V30 18996 N 1755.98 1.20536 -1.01532 0
M  V30 18997 C 1756.93 2.2531 -0.577786 0
M  V30 18998 C 1757.92 1.65017 0.382843 0
M  V30 18999 O 1759.13 1.78214 0.252904 0
M  V30 19000 H 1755.51 0.732872 -0.168532 0
M  V30 19001 H 1757.48 2.59544 -1.4724 0
M  V30 19002 C 1756.23 3.47631 0.0694263 0
M  V30 19003 H 1755.55 3.94302 -0.660748 0
M  V30 19004 H 1756.99 4.22645 0.338706 0
M  V30 19005 C 1755.45 3.1031 1.31185 0
M  V30 19006 O 1755.98 3.21729 2.40527 0
M  V30 19007 N 1754.18 2.64871 1.19547 0
M  V30 19008 H 1753.73 2.55779 0.305741 0
M  V30 19009 H 1753.69 2.4027 2.02775 0
M  V30 19010 N 1757.46 0.791395 1.36289 0
M  V30 19011 C 1758.71 0.365242 1.99484 0
M  V30 19012 C 1759.04 -1.06087 1.62663 0
M  V30 19013 O 1758.31 -1.73332 0.882396 0
M  V30 19014 C 1758.6 0.531317 3.56159 0
M  V30 19015 C 1758.45 2.00126 4.02827 0
M  V30 19016 C 1759.77 -0.0524248 4.40069 0
M  V30 19017 H 1756.89 0.134183 0.724682 0
M  V30 19018 H 1759.53 0.998102 1.61672 0
M  V30 19019 H 1757.68 -0.0074293 3.88499 0
M  V30 19020 H 1759.35 2.60122 3.80965 0
M  V30 19021 H 1757.6 2.50316 3.54294 0
M  V30 19022 H 1758.27 2.06842 5.11782 0
M  V30 19023 H 1760.74 0.407489 4.141 0
M  V30 19024 H 1759.62 0.0937898 5.4882 0
M  V30 19025 H 1759.88 -1.14472 4.27023 0
M  V30 19026 N 1758.94 -1.47929 0.54358 0
M  V30 19027 C 1760.19 -2.02095 0.0144379 0
M  V30 19028 C 1760.51 -1.42166 -1.33469 0
M  V30 19029 O 1759.78 -0.591899 -1.86744 0
M  V30 19030 H 1758.36 -0.746996 0.00234858 0
M  V30 19031 H 1761.02 -1.81488 0.710498 0
M  V30 19032 H 1760.12 -3.11987 -0.0838074 0
M  V30 19033 N 1760.42 -0.27936 -1.55104 0
M  V30 19034 C 1761.66 0.336703 -1.99985 0
M  V30 19035 C 1762 1.55186 -1.16752 0
M  V30 19036 O 1761.27 1.93031 -0.238626 0
M  V30 19037 C 1761.55 0.714701 -3.52936 0
M  V30 19038 C 1761.41 -0.508088 -4.46921 0
M  V30 19039 C 1762.73 1.54953 -4.11919 0
M  V30 19040 H 1759.85 0.120908 -0.727015 0
M  V30 19041 H 1762.49 -0.38715 -1.86014 0
M  V30 19042 H 1760.64 1.33143 -3.64973 0
M  V30 19043 H 1762.31 -1.14664 -4.46822 0
M  V30 19044 H 1760.55 -1.14537 -4.18406 0
M  V30 19045 H 1761.22 -0.199782 -5.51638 0
M  V30 19046 H 1763.7 1.02864 -4.03185 0
M  V30 19047 H 1762.58 1.78282 -5.1914 0
M  V30 19048 H 1762.84 2.53192 -3.62417 0
M  V30 19049 N 1761.9 1.57599 -0.0067085 0
M  V30 19050 C 1762.83 2.11878 0.981331 0
M  V30 19051 C 1763.81 1.02949 1.35408 0
M  V30 19052 O 1764.99 1.30667 1.43665 0
M  V30 19053 C 1762.12 2.62757 2.27104 0
M  V30 19054 C 1761.08 3.76272 2.0397 0
M  V30 19055 C 1760.4 4.13491 3.39012 0
M  V30 19056 C 1761.7 5.03274 1.39688 0
M  V30 19057 H 1763.4 2.94683 0.529366 0
M  V30 19058 H 1760.94 1.41757 0.253187 0
M  V30 19059 H 1762.89 2.99359 2.96585 0
M  V30 19060 H 1761.62 1.77082 2.74426 0
M  V30 19061 H 1760.28 3.40074 1.36913 0
M  V30 19062 H 1759.93 3.24831 3.8405 0
M  V30 19063 H 1759.63 4.89972 3.24347 0
M  V30 19064 H 1761.15 4.52657 4.09797 0
M  V30 19065 H 1762.56 5.37604 1.99136 0
M  V30 19066 H 1760.96 5.84604 1.3549 0
M  V30 19067 H 1762.03 4.8351 0.366928 0
M  V30 19068 N 1763.37 -0.266145 1.55336 0
M  V30 19069 C 1764.62 -0.994862 1.75917 0
M  V30 19070 C 1764.94 -1.8657 0.567147 0
M  V30 19071 O 1764.21 -1.91394 -0.417738 0
M  V30 19072 H 1762.79 -0.370318 0.648748 0
M  V30 19073 H 1765.45 -0.288724 1.9275 0
M  V30 19074 H 1764.55 -1.62781 2.66287 0
M  V30 19075 N 1764.85 -1.48386 -0.530967 0
M  V30 19076 C 1766.13 -1.46843 -1.29215 0
M  V30 19077 C 1766.51 -0.179567 -2.10335 0
M  V30 19078 O 1765.86 0.838706 -2.12551 0
M  V30 19079 C 1766.07 -2.72983 -2.17443 0
M  V30 19080 C 1767.41 -3.21271 -2.77615 0
M  V30 19081 O 1768.44 -2.73893 -2.2773 0
M  V30 19082 O 1767.3 -4.03709 -3.68349 0
M  V30 19083 H 1764.39 -0.586393 -0.583157 0
M  V30 19084 H 1766.94 -1.60619 -0.547702 0
M  V30 19085 H 1765.71 -3.58301 -1.57278 0
M  V30 19086 H 1765.33 -2.61922 -2.99137 0
M  V30 19087 N 1766.33 0.779763 -1.36958 0
M  V30 19088 C 1767.58 1.54031 -1.31918 0
M  V30 19089 C 1767.91 1.9395 0.0985685 0
M  V30 19090 O 1767.18 1.63458 1.05413 0
M  V30 19091 C 1767.47 2.81083 -2.25088 0
M  V30 19092 C 1767.32 2.47469 -3.75605 0
M  V30 19093 C 1768.64 3.82968 -2.1685 0
M  V30 19094 H 1765.76 0.558806 -0.480526 0
M  V30 19095 H 1768.4 0.895152 -1.67592 0
M  V30 19096 H 1766.55 3.36135 -1.94796 0
M  V30 19097 H 1768.22 1.98393 -4.16459 0
M  V30 19098 H 1766.46 1.80276 -3.94567 0
M  V30 19099 H 1767.14 3.38255 -4.3622 0
M  V30 19100 H 1769.61 3.37388 -2.43534 0
M  V30 19101 H 1768.49 4.69601 -2.84194 0
M  V30 19102 H 1768.75 4.26642 -1.15885 0
M  V30 19103 N 1767.81 1.21396 1.00503 0
M  V30 19104 C 1768.77 0.974756 2.07439 0
M  V30 19105 C 1769.77 -0.0542142 1.60709 0
M  V30 19106 O 1770.96 0.183056 1.73236 0
M  V30 19107 C 1768.09 0.46989 3.37646 0
M  V30 19108 H 1769.29 1.92346 2.30094 0
M  V30 19109 H 1766.84 1.03095 1.17479 0
M  V30 19110 H 1767.57 -0.483735 3.20672 0
M  V30 19111 H 1767.36 1.2121 3.72895 0
M  V30 19112 H 1768.85 0.322393 4.16354 0
M  V30 19113 N 1769.29 -1.19996 1.0217 0
M  V30 19114 C 1770.25 -2.21179 0.601036 0
M  V30 19115 C 1771.25 -1.57345 -0.331531 0
M  V30 19116 O 1772.44 -1.73789 -0.119521 0
M  V30 19117 C 1769.57 -3.40683 -0.121557 0
M  V30 19118 H 1770.76 -2.5991 1.49622 0
M  V30 19119 H 1768.32 -1.33548 0.812071 0
M  V30 19120 H 1769.05 -3.07461 -1.03142 0
M  V30 19121 H 1768.84 -3.88245 0.548448 0
M  V30 19122 H 1770.33 -4.1565 -0.403046 0
M  V30 19123 N 1770.76 -0.798611 -1.35867 0
M  V30 19124 C 1771.99 -0.386378 -2.03769 0
M  V30 19125 C 1772.41 0.992154 -1.59806 0
M  V30 19126 O 1771.77 1.64094 -0.770895 0
M  V30 19127 C 1771.82 -0.468859 -3.57539 0
M  V30 19128 O 1770.92 0.520742 -4.09099 0
M  V30 19129 H 1770.26 -0.162597 -0.643784 0
M  V30 19130 H 1772.79 -1.08228 -1.73631 0
M  V30 19131 H 1772.8 -0.335775 -4.06616 0
M  V30 19132 H 1771.48 -1.47441 -3.88888 0
M  V30 19133 H 1770.06 0.348559 -3.71267 0
M  V30 19134 N 1772.24 1.47639 -0.551417 0
M  V30 19135 C 1773.19 2.29936 0.199514 0
M  V30 19136 C 1774.16 1.38704 0.913811 0
M  V30 19137 O 1775.34 1.67666 0.910643 0
M  V30 19138 C 1772.48 3.22544 1.22717 0
M  V30 19139 C 1771.6 4.28865 0.519527 0
M  V30 19140 C 1770.73 5.0863 1.53197 0
M  V30 19141 C 1769.77 6.06731 0.808981 0
M  V30 19142 N 1768.91 6.79476 1.76798 0
M  V30 19143 H 1773.75 2.93631 -0.508414 0
M  V30 19144 H 1771.28 1.44738 -0.262553 0
M  V30 19145 H 1773.24 3.74653 1.83551 0
M  V30 19146 H 1771.87 2.60726 1.9032 0
M  V30 19147 H 1770.92 3.79857 -0.203217 0
M  V30 19148 H 1772.24 4.98778 -0.0471224 0
M  V30 19149 H 1771.39 5.6486 2.214 0
M  V30 19150 H 1770.13 4.38605 2.13253 0
M  V30 19151 H 1769.13 5.49684 0.112991 0
M  V30 19152 H 1770.36 6.78762 0.214239 0
M  V30 19153 H 1768.31 6.12185 2.35722 0
M  V30 19154 H 1768.22 7.45539 1.25333 0
M  V30 19155 H 1769.49 7.40283 2.44133 0
M  V30 19156 N 1773.72 0.287581 1.54954 0
M  V30 19157 C 1774.63 -0.604236 2.26685 0
M  V30 19158 C 1775.65 -1.1597 1.29719 0
M  V30 19159 O 1776.82 -1.18735 1.62678 0
M  V30 19160 C 1773.89 -1.76612 2.98344 0
M  V30 19161 C 1772.95 -1.24608 4.10818 0
M  V30 19162 C 1772.18 -2.35258 4.7905 0
M  V30 19163 O 1772.4 -3.54879 4.46561 0
M  V30 19164 O 1771.34 -2.02709 5.66739 0
M  V30 19165 H 1775.16 -0.0227663 3.03691 0
M  V30 19166 H 1772.75 0.0545243 1.493 0
M  V30 19167 H 1774.63 -2.44332 3.43336 0
M  V30 19168 H 1773.31 -2.33444 2.24244 0
M  V30 19169 H 1772.21 -0.53498 3.70255 0
M  V30 19170 H 1773.55 -0.723348 4.86856 0
M  V30 19171 N 1775.2 -1.57593 0.0150662 0
M  V30 19172 C 1776.13 -2.06239 -0.999912 0
M  V30 19173 C 1777.14 -0.983112 -1.29764 0
M  V30 19174 O 1778.33 -1.25961 -1.26476 0
M  V30 19175 C 1775.43 -2.46011 -2.33092 0
M  V30 19176 C 1774.61 -3.76851 -2.2204 0
M  V30 19177 C 1773.66 -4.03326 -3.37956 0
M  V30 19178 O 1772.69 -4.73781 -3.15469 0
M  V30 19179 N 1773.89 -3.52399 -4.61298 0
M  V30 19180 H 1776.66 -2.93936 -0.584952 0
M  V30 19181 H 1774.22 -1.60984 -0.172001 0
M  V30 19182 H 1776.21 -2.60825 -3.09439 0
M  V30 19183 H 1774.78 -1.63753 -2.66277 0
M  V30 19184 H 1774 -3.71969 -1.30509 0
M  V30 19185 H 1775.29 -4.626 -2.11845 0
M  V30 19186 H 1774.69 -2.95374 -4.82463 0
M  V30 19187 H 1773.24 -3.72516 -5.3486 0
M  V30 19188 N 1776.68 0.257904 -1.55475 0
M  V30 19189 C 1777.9 1.00531 -1.80834 0
M  V30 19190 C 1778.32 1.79369 -0.589263 0
M  V30 19191 O 1777.68 1.77068 0.441935 0
M  V30 19192 C 1777.73 1.95194 -3.04272 0
M  V30 19193 O 1777.45 1.19548 -4.21473 0
M  V30 19194 C 1778.95 2.81624 -3.42349 0
M  V30 19195 H 1776.17 0.296315 -0.602029 0
M  V30 19196 H 1778.71 0.284118 -2.02517 0
M  V30 19197 H 1776.87 2.62756 -2.84672 0
M  V30 19198 H 1777.28 1.83483 -4.9136 0
M  V30 19199 H 1778.76 3.43815 -4.31851 0
M  V30 19200 H 1779.23 3.52172 -2.62434 0
M  V30 19201 H 1779.84 2.19531 -3.64261 0
M  V30 19202 N 1778.15 1.48666 0.52309 0
M  V30 19203 C 1779.4 1.57034 1.27854 0
M  V30 19204 C 1779.73 0.247256 1.92922 0
M  V30 19205 O 1778.98 -0.763049 1.80211 0
M  V30 19206 C 1779.28 2.66247 2.38426 0
M  V30 19207 C 1778.95 4.08464 1.90965 0
M  V30 19208 C 1777.61 4.47171 1.77739 0
M  V30 19209 C 1779.96 4.97562 1.55184 0
M  V30 19210 C 1777.29 5.72772 1.27077 0
M  V30 19211 C 1779.64 6.23659 1.05982 0
M  V30 19212 C 1778.31 6.61216 0.913782 0
M  V30 19213 H 1777.58 0.574628 0.46785 0
M  V30 19214 H 1780.22 1.82411 0.582961 0
M  V30 19215 H 1778.53 2.34756 3.13682 0
M  V30 19216 H 1780.23 2.69936 2.9654 0
M  V30 19217 H 1776.82 3.779 2.02212 0
M  V30 19218 H 1781 4.6833 1.64259 0
M  V30 19219 H 1776.26 6.0059 1.14464 0
M  V30 19220 H 1780.43 6.92089 0.773684 0
M  V30 19221 H 1778.06 7.58426 0.519021 0
M  V30 19222 N 1779.63 -0.772489 1.37369 0
M  V30 19223 C 1780.88 -1.528 1.32275 0
M  V30 19224 C 1781.2 -1.9478 -0.092541 0
M  V30 19225 O 1780.47 -1.6624 -1.0364 0
M  V30 19226 H 1779.05 -0.566727 0.486651 0
M  V30 19227 H 1781.71 -0.919435 1.7185 0
M  V30 19228 H 1780.81 -2.42774 1.96131 0
M  V30 19229 N 1781.11 -1.21927 -0.998575 0
M  V30 19230 C 1782.34 -1.06655 -1.77291 0
M  V30 19231 C 1782.75 0.38326 -1.84869 0
M  V30 19232 O 1782.11 1.26575 -1.31473 0
M  V30 19233 C 1782.16 -1.66478 -3.20885 0
M  V30 19234 O 1781.88 -3.05788 -3.13728 0
M  V30 19235 C 1783.38 -1.56404 -4.14792 0
M  V30 19236 H 1780.6 -0.3742 -0.55697 0
M  V30 19237 H 1783.15 -1.61401 -1.25579 0
M  V30 19238 H 1781.3 -1.15809 -3.69685 0
M  V30 19239 H 1781.72 -3.34503 -4.0399 0
M  V30 19240 H 1783.19 -2.02995 -5.1332 0
M  V30 19241 H 1783.67 -0.519591 -4.36116 0
M  V30 19242 H 1784.27 -2.06352 -3.71886 0
M  V30 19243 N 1782.59 1.19452 -1.02805 0
M  V30 19244 C 1783.52 2.24875 -0.628752 0
M  V30 19245 C 1784.5 1.66207 0.361844 0
M  V30 19246 O 1785.68 1.92652 0.244743 0
M  V30 19247 C 1782.81 3.47293 0.0220954 0
M  V30 19248 C 1781.77 4.1863 -0.890693 0
M  V30 19249 C 1781.09 5.34597 -0.104997 0
M  V30 19250 C 1782.39 4.73518 -2.20405 0
M  V30 19251 H 1784.09 2.5853 -1.51005 0
M  V30 19252 H 1781.63 1.24271 -0.727518 0
M  V30 19253 H 1783.59 4.20235 0.313073 0
M  V30 19254 H 1782.31 3.12835 0.938182 0
M  V30 19255 H 1780.97 3.47568 -1.16585 0
M  V30 19256 H 1780.62 4.96385 0.813098 0
M  V30 19257 H 1780.32 5.83258 -0.712983 0
M  V30 19258 H 1781.84 6.10337 0.179259 0
M  V30 19259 H 1783.26 5.3822 -1.97465 0
M  V30 19260 H 1781.65 5.32663 -2.76388 0
M  V30 19261 H 1782.72 3.9163 -2.85926 0
M  V30 19262 N 1784.07 0.805805 1.35442 0
M  V30 19263 C 1785.31 0.385808 1.98791 0
M  V30 19264 C 1785.64 -1.04681 1.63927 0
M  V30 19265 O 1784.9 -1.7408 0.894125 0
M  V30 19266 C 1785.2 0.515335 3.53665 0
M  V30 19267 C 1784.86 1.91115 4.08394 0
M  V30 19268 C 1783.52 2.29302 4.23053 0
M  V30 19269 C 1785.88 2.82437 4.38039 0
M  V30 19270 C 1783.2 3.58182 4.64675 0
M  V30 19271 C 1785.56 4.10762 4.811 0
M  V30 19272 C 1784.22 4.48949 4.93964 0
M  V30 19273 H 1783.49 0.141177 0.727427 0
M  V30 19274 H 1786.14 1.02644 1.61667 0
M  V30 19275 H 1784.44 -0.208753 3.91243 0
M  V30 19276 H 1786.14 0.171152 4.00635 0
M  V30 19277 H 1782.73 1.60446 3.97436 0
M  V30 19278 H 1786.91 2.54183 4.26268 0
M  V30 19279 H 1782.17 3.87618 4.72824 0
M  V30 19280 H 1786.34 4.81626 5.03 0
M  V30 19281 H 1783.97 5.48867 5.25974 0
M  V30 19282 N 1785.54 -1.47344 0.559239 0
M  V30 19283 C 1786.51 -2.28516 -0.17688 0
M  V30 19284 C 1787.51 -1.37065 -0.840823 0
M  V30 19285 O 1788.7 -1.59676 -0.696373 0
M  V30 19286 C 1785.83 -3.16803 -1.25892 0
M  V30 19287 H 1787.02 -2.95068 0.536174 0
M  V30 19288 H 1784.58 -1.53067 0.316263 0
M  V30 19289 H 1785.31 -2.54947 -2.00431 0
M  V30 19290 H 1785.1 -3.84108 -0.787625 0
M  V30 19291 H 1786.59 -3.77958 -1.77589 0
M  V30 19292 N 1787.02 -0.295795 -1.54799 0
M  V30 19293 C 1788.44 0.0577516 -1.59495 0
M  V30 19294 C 1788.64 1.52862 -1.31284 0
M  V30 19295 O 1787.69 2.28061 -1.08372 0
M  V30 19296 C 1789.01 -0.335503 -2.98822 0
M  V30 19297 C 1790.56 -0.283835 -3.1171 0
M  V30 19298 C 1791.03 -0.651835 -4.53338 0
M  V30 19299 N 1792.52 -0.604171 -4.59243 0
M  V30 19300 C 1793.26 -0.861453 -5.66892 0
M  V30 19301 N 1792.75 -1.18443 -6.826 0
M  V30 19302 N 1794.55 -0.788863 -5.56537 0
M  V30 19303 H 1786.7 -1.25444 -1.71399 0
M  V30 19304 H 1788.96 -0.50822 -0.80026 0
M  V30 19305 H 1788.67 -1.35923 -3.24373 0
M  V30 19306 H 1788.54 0.313443 -3.75895 0
M  V30 19307 H 1790.93 0.730641 -2.85912 0
M  V30 19308 H 1791.01 -0.967331 -2.36804 0
M  V30 19309 H 1790.65 -1.66409 -4.79865 0
M  V30 19310 H 1790.58 0.053676 -5.26573 0
M  V30 19311 H 1793.07 -0.365262 -3.76131 0
M  V30 19312 H 1793.39 -1.36686 -7.60616 0
M  V30 19313 H 1791.73 -1.22242 -6.84165 0
M  V30 19314 H 1794.92 -0.536231 -4.65018 0
M  V30 19315 H 1795.09 -0.992744 -6.4035 0
M  V30 19316 N 1788.5 1.57583 -0.0234236 0
M  V30 19317 C 1789.73 1.95861 0.666797 0
M  V30 19318 C 1790.14 0.899616 1.65989 0
M  V30 19319 O 1789.5 -0.119162 1.82111 0
M  V30 19320 C 1789.55 3.34198 1.37818 0
M  V30 19321 O 1789.27 4.36035 0.424887 0
M  V30 19322 C 1790.77 3.87074 2.16075 0
M  V30 19323 H 1787.99 0.645213 0.184233 0
M  V30 19324 H 1790.54 2.04338 -0.0814987 0
M  V30 19325 H 1788.69 3.26958 2.07792 0
M  V30 19326 H 1789.11 5.162 0.929394 0
M  V30 19327 H 1790.58 4.8623 2.61312 0
M  V30 19328 H 1791.06 3.21017 2.99741 0
M  V30 19329 H 1791.66 3.97565 1.5107 0
M  V30 19330 N 1789.98 -0.249655 1.5561 0
M  V30 19331 C 1790.91 -1.31281 1.931 0
M  V30 19332 C 1791.89 -1.50347 0.795601 0
M  V30 19333 O 1793.08 -1.63001 1.05566 0
M  V30 19334 C 1790.21 -2.66808 2.2233 0
M  V30 19335 C 1789.16 -2.62441 3.38096 0
M  V30 19336 C 1788.49 -4.01738 3.52861 0
M  V30 19337 C 1789.79 -2.19667 4.7386 0
M  V30 19338 H 1791.48 -1.00151 2.82153 0
M  V30 19339 H 1789.03 -0.480331 1.35753 0
M  V30 19340 H 1790.98 -3.41316 2.47146 0
M  V30 19341 H 1789.7 -2.99569 1.30101 0
M  V30 19342 H 1788.36 -1.90391 3.13284 0
M  V30 19343 H 1788.01 -4.31759 2.58056 0
M  V30 19344 H 1787.71 -3.99705 4.30708 0
M  V30 19345 H 1789.23 -4.7795 3.79995 0
M  V30 19346 H 1790.65 -2.83906 4.98067 0
M  V30 19347 H 1789.04 -2.28751 5.54791 0
M  V30 19348 H 1790.11 -1.14829 4.71108 0
M  V30 19349 N 1791.46 -1.48941 -0.515198 0
M  V30 19350 C 1792.42 -1.64062 -1.60051 0
M  V30 19351 C 1793.42 -0.513101 -1.52394 0
M  V30 19352 O 1794.61 -0.77924 -1.558 0
M  V30 19353 C 1791.74 -1.6247 -2.99694 0
M  V30 19354 H 1792.94 -2.60849 -1.47978 0
M  V30 19355 H 1790.49 -1.37759 -0.738378 0
M  V30 19356 H 1791.22 -0.672141 -3.17258 0
M  V30 19357 H 1791.01 -2.4434 -3.0666 0
M  V30 19358 H 1792.5 -1.76273 -3.78573 0
M  V30 19359 N 1792.94 0.765193 -1.37777 0
M  V30 19360 C 1793.87 1.888 -1.29951 0
M  V30 19361 C 1794.88 1.61387 -0.213996 0
M  V30 19362 O 1796.07 1.72183 -0.470657 0
M  V30 19363 C 1793.17 3.24178 -0.988004 0
M  V30 19364 C 1792.34 3.79186 -2.18029 0
M  V30 19365 C 1791.4 4.93054 -1.83804 0
M  V30 19366 O 1790.43 5.08296 -2.56172 0
M  V30 19367 N 1791.63 5.75153 -0.786062 0
M  V30 19368 H 1794.39 1.96028 -2.267 0
M  V30 19369 H 1791.96 0.944602 -1.31487 0
M  V30 19370 H 1793.95 3.97881 -0.739771 0
M  V30 19371 H 1792.52 3.1241 -0.108852 0
M  V30 19372 H 1791.74 2.97185 -2.58988 0
M  V30 19373 H 1793.03 4.12669 -2.97627 0
M  V30 19374 H 1792.42 5.65395 -0.185678 0
M  V30 19375 H 1790.98 6.49054 -0.597697 0
M  V30 19376 N 1794.41 1.22455 0.992094 0
M  V30 19377 C 1795.66 1.04373 1.72596 0
M  V30 19378 C 1795.98 -0.421349 1.91008 0
M  V30 19379 O 1797.18 -0.72186 2.61728 0
M  V30 19380 C 1795.64 1.81906 3.10545 0
M  V30 19381 C 1795.25 3.32667 3.00061 0
M  V30 19382 C 1796.99 1.72274 3.87972 0
M  V30 19383 C 1794.9 4.02638 4.3317 0
M  V30 19384 H 1793.83 0.386937 0.647144 0
M  V30 19385 H 1796.48 1.46313 1.10746 0
M  V30 19386 H 1794.86 1.32764 3.73081 0
M  V30 19387 H 1796.03 3.89208 2.46685 0
M  V30 19388 H 1794.35 3.42984 2.36117 0
M  V30 19389 H 1796.95 2.21872 4.86494 0
M  V30 19390 H 1797.29 0.68331 4.10654 0
M  V30 19391 H 1797.82 2.18963 3.32115 0
M  V30 19392 H 1794.56 5.06838 4.15687 0
M  V30 19393 H 1794.08 3.50885 4.86456 0
M  V30 19394 H 1795.76 4.08279 5.01914 0
M  V30 19395 N 1795.89 -1.18905 1.03437 0
M  V30 19396 C 1797.14 -1.88354 0.732598 0
M  V30 19397 C 1797.46 -1.80353 -0.741474 0
M  V30 19398 O 1796.73 -1.21764 -1.53461 0
M  V30 19399 H 1795.31 -0.697272 0.267995 0
M  V30 19400 H 1797.97 -1.44329 1.30978 0
M  V30 19401 H 1797.07 -2.94551 1.03181 0
M  V30 19402 N 1797.37 -0.812977 -1.35013 0
M  V30 19403 C 1798.62 -0.395562 -1.98191 0
M  V30 19404 C 1798.94 1.04242 -1.64799 0
M  V30 19405 O 1798.21 1.72219 -0.933678 0
M  V30 19406 H 1796.79 -0.143276 -0.733131 0
M  V30 19407 H 1799.45 -1.04023 -1.64819 0
M  V30 19408 H 1798.55 -0.506466 -3.07963 0
M  V30 19409 N 1798.85 1.47045 -0.567045 0
M  V30 19410 C 1799.79 2.30135 0.175115 0
M  V30 19411 C 1800.76 1.39665 0.899049 0
M  V30 19412 O 1801.95 1.68623 0.892809 0
M  V30 19413 C 1799.09 3.23827 1.19289 0
M  V30 19414 C 1798.2 4.29392 0.474011 0
M  V30 19415 C 1797.34 5.10226 1.47793 0
M  V30 19416 C 1796.38 6.07554 0.744584 0
M  V30 19417 N 1795.51 6.81313 1.69581 0
M  V30 19418 H 1800.35 2.93075 -0.539529 0
M  V30 19419 H 1797.89 1.44451 -0.277889 0
M  V30 19420 H 1799.85 3.76579 1.79567 0
M  V30 19421 H 1798.48 2.6273 1.87544 0
M  V30 19422 H 1797.53 3.7962 -0.243494 0
M  V30 19423 H 1798.84 4.987 -0.100022 0
M  V30 19424 H 1798 5.67176 2.15397 0
M  V30 19425 H 1796.74 4.40842 2.08589 0
M  V30 19426 H 1795.74 5.49773 0.0546832 0
M  V30 19427 H 1796.97 6.78951 0.142235 0
M  V30 19428 H 1794.91 6.14651 2.29216 0
M  V30 19429 H 1794.83 7.46826 1.17418 0
M  V30 19430 H 1796.1 7.42831 2.36268 0
M  V30 19431 N 1800.33 0.304 1.5464 0
M  V30 19432 C 1801.26 -0.563854 2.2659 0
M  V30 19433 C 1802.24 -1.13547 1.26653 0
M  V30 19434 O 1803.42 -1.16425 1.55431 0
M  V30 19435 C 1800.55 -1.73437 3.00894 0
M  V30 19436 C 1799.51 -1.29297 4.08003 0
M  V30 19437 C 1798.83 -2.54888 4.70038 0
M  V30 19438 C 1800.13 -0.422027 5.20592 0
M  V30 19439 H 1801.83 0.0362569 2.99378 0
M  V30 19440 H 1799.37 0.0188781 1.43988 0
M  V30 19441 H 1801.32 -2.34762 3.4995 0
M  V30 19442 H 1800.05 -2.36076 2.25689 0
M  V30 19443 H 1798.71 -0.702757 3.59801 0
M  V30 19444 H 1798.36 -3.15848 3.9147 0
M  V30 19445 H 1798.06 -2.26054 5.42378 0
M  V30 19446 H 1799.58 -3.17011 5.21859 0
M  V30 19447 H 1800.99 -0.941036 5.65524 0
M  V30 19448 H 1799.39 -0.227323 5.99669 0
M  V30 19449 H 1800.46 0.55212 4.81746 0
M  V30 19450 N 1801.8 -1.57568 0.0317802 0
M  V30 19451 C 1802.75 -2.06878 -0.958403 0
M  V30 19452 C 1803.74 -0.96985 -1.28385 0
M  V30 19453 O 1804.93 -1.23338 -1.26951 0
M  V30 19454 C 1802.06 -2.60159 -2.23991 0
M  V30 19455 C 1801.14 -3.76987 -1.94272 0
M  V30 19456 N 1801.54 -4.87498 -1.34832 0
M  V30 19457 C 1799.83 -3.85524 -2.24248 0
M  V30 19458 C 1800.53 -5.68697 -1.22304 0
M  V30 19459 N 1799.51 -5.1569 -1.71944 0
M  V30 19460 H 1803.31 -2.89721 -0.493848 0
M  V30 19461 H 1800.83 -1.61474 -0.173168 0
M  V30 19462 H 1802.82 -2.93778 -2.95804 0
M  V30 19463 H 1801.48 -1.78747 -2.71071 0
M  V30 19464 H 1802.49 -5.07696 -1.02299 0
M  V30 19465 H 1799.17 -3.15023 -2.73983 0
M  V30 19466 H 1800.56 -6.67551 -0.763197 0
M  V30 19467 N 1803.28 0.241399 -1.5574 0
M  V30 19468 C 1804.51 0.984645 -1.81627 0
M  V30 19469 C 1804.92 1.79234 -0.605959 0
M  V30 19470 O 1804.26 1.78479 0.434841 0
M  V30 19471 C 1804.33 1.96647 -3.00949 0
M  V30 19472 C 1803.99 1.34519 -4.36754 0
M  V30 19473 C 1804.99 0.744925 -5.14536 0
M  V30 19474 C 1802.67 1.3629 -4.83457 0
M  V30 19475 C 1804.67 0.170657 -6.37171 0
M  V30 19476 C 1802.35 0.784784 -6.0604 0
M  V30 19477 C 1803.35 0.189694 -6.82737 0
M  V30 19478 O 1803.04 -0.379483 -8.03004 0
M  V30 19479 H 1802.77 0.295118 -0.608179 0
M  V30 19480 H 1805.32 0.267851 -2.03646 0
M  V30 19481 H 1803.55 2.72172 -2.74699 0
M  V30 19482 H 1805.24 2.5736 -3.1388 0
M  V30 19483 H 1806.01 0.723706 -4.7957 0
M  V30 19484 H 1801.89 1.81548 -4.23747 0
M  V30 19485 H 1805.43 -0.294459 -6.96978 0
M  V30 19486 H 1801.33 0.803348 -6.40482 0
M  V30 19487 H 1802.1 -0.271879 -8.18048 0
M  V30 19488 N 1804.76 1.49212 0.507292 0
M  V30 19489 C 1806.01 1.58068 1.25932 0
M  V30 19490 C 1806.33 0.266461 1.93171 0
M  V30 19491 O 1805.6 -0.713743 1.82435 0
M  V30 19492 H 1804.18 0.582384 0.467801 0
M  V30 19493 H 1806.84 1.85804 0.58847 0
M  V30 19494 H 1805.94 2.37351 2.0266 0
M  V30 19495 N 1806.24 -0.757876 1.38181 0
M  V30 19496 C 1807.19 -1.86207 1.31571 0
M  V30 19497 C 1808.17 -1.59642 0.200812 0
M  V30 19498 O 1809.36 -1.71535 0.436416 0
M  V30 19499 C 1806.49 -3.23861 1.13881 0
M  V30 19500 C 1805.58 -3.56332 2.29975 0
M  V30 19501 N 1805.97 -3.59889 3.55406 0
M  V30 19502 C 1804.27 -3.86574 2.22433 0
M  V30 19503 C 1804.97 -3.89504 4.32044 0
M  V30 19504 N 1803.95 -4.06115 3.61347 0
M  V30 19505 H 1807.75 -1.87229 2.26545 0
M  V30 19506 H 1805.26 -0.955018 1.31351 0
M  V30 19507 H 1807.26 -4.02874 1.0723 0
M  V30 19508 H 1805.92 -3.24093 0.198371 0
M  V30 19509 H 1806.93 -3.41754 3.89133 0
M  V30 19510 H 1803.61 -3.94547 1.36524 0
M  V30 19511 H 1805 -3.98915 5.40663 0
M  V30 19512 N 1807.72 -1.22979 -0.985586 0
M  V30 19513 C 1809.13 -1.05448 -1.5407 0
M  V30 19514 C 1809.48 0.379808 -1.92489 0
M  V30 19515 O 1808.6 1.26582 -1.75516 0
M  V30 19516 C 1809.2 -1.90794 -2.7997 0
M  V30 19517 C 1807.76 -1.77538 -3.31899 0
M  V30 19518 C 1806.9 -1.86814 -2.04929 0
M  V30 19519 H 1809.86 -1.36718 -0.80585 0
M  V30 19520 H 1809.88 -1.42967 -3.5262 0
M  V30 19521 H 1809.39 -2.95177 -2.51977 0
M  V30 19522 H 1807.49 -0.759177 -3.64784 0
M  V30 19523 H 1807.6 -2.60627 -4.02008 0
M  V30 19524 H 1805.97 -1.30336 -2.18826 0
M  V30 19525 H 1806.75 -2.92742 -1.79324 0
M  V30 19526 N 1809.19 1.18355 -1.04066 0
M  V30 19527 C 1810.47 1.8419 -0.65828 0
M  V30 19528 C 1810.85 1.92688 0.862238 0
M  V30 19529 O 1810.2 1.4528 1.76369 0
M  V30 19530 C 1810.41 3.22495 -1.3341 0
M  V30 19531 C 1811.76 3.9853 -1.46489 0
M  V30 19532 O 1812.78 3.31934 -1.29221 0
M  V30 19533 O 1811.64 5.17848 -1.74629 0
M  V30 19534 H 1808.73 0.794278 -0.230329 0
M  V30 19535 H 1811.28 1.25747 -1.13955 0
M  V30 19536 H 1810.05 3.11213 -2.37197 0
M  V30 19537 H 1809.68 3.88594 -0.841449 0
M  V30 19538 N 1810.67 0.820125 1.3458 0
M  V30 19539 C 1811.92 0.406871 1.9837 0
M  V30 19540 C 1812.25 -1.02936 1.65028 0
M  V30 19541 O 1811.5 -1.73122 0.912538 0
M  V30 19542 C 1811.8 0.552817 3.53099 0
M  V30 19543 C 1811.47 1.95436 4.06344 0
M  V30 19544 C 1810.13 2.33776 4.20597 0
M  V30 19545 C 1812.48 2.87068 4.35019 0
M  V30 19546 C 1809.81 3.6309 4.6085 0
M  V30 19547 C 1812.16 4.15841 4.76716 0
M  V30 19548 C 1810.83 4.54163 4.89175 0
M  V30 19549 H 1810.1 0.148884 0.725889 0
M  V30 19550 H 1812.74 1.04353 1.6057 0
M  V30 19551 H 1811.05 -0.167245 3.91443 0
M  V30 19552 H 1812.74 0.213635 4.00431 0
M  V30 19553 H 1809.33 1.64652 3.95712 0
M  V30 19554 H 1813.52 2.5869 4.23548 0
M  V30 19555 H 1808.77 3.92611 4.68686 0
M  V30 19556 H 1812.95 4.86934 4.97863 0
M  V30 19557 H 1810.58 5.54415 5.20123 0
M  V30 19558 N 1812.15 -1.46743 0.574835 0
M  V30 19559 C 1813.08 -2.33012 -0.150836 0
M  V30 19560 C 1814.06 -1.44868 -0.891472 0
M  V30 19561 O 1815.25 -1.73698 -0.868481 0
M  V30 19562 C 1812.38 -3.26995 -1.17012 0
M  V30 19563 C 1811.33 -4.24518 -0.544829 0
M  V30 19564 C 1810.66 -5.07951 -1.67002 0
M  V30 19565 C 1811.96 -5.19776 0.512891 0
M  V30 19566 H 1813.65 -2.93935 0.569433 0
M  V30 19567 H 1811.2 -1.41344 0.275289 0
M  V30 19568 H 1813.15 -3.86198 -1.68609 0
M  V30 19569 H 1811.87 -2.64163 -1.92056 0
M  V30 19570 H 1810.53 -3.66566 -0.0500133 0
M  V30 19571 H 1810.18 -4.4151 -2.40993 0
M  V30 19572 H 1809.88 -5.73991 -1.25732 0
M  V30 19573 H 1811.4 -5.70017 -2.1889 0
M  V30 19574 H 1812.82 -5.73241 0.0823064 0
M  V30 19575 H 1811.22 -5.94114 0.845462 0
M  V30 19576 H 1812.29 -4.64184 1.40217 0
M  V30 19577 N 1813.63 -0.312197 -1.54477 0
M  V30 19578 C 1814.58 0.57453 -2.25393 0
M  V30 19579 C 1815.57 1.12789 -1.26392 0
M  V30 19580 O 1816.78 1.07724 -1.44207 0
M  V30 19581 H 1813.15 0.203904 -0.723828 0
M  V30 19582 H 1815.12 -0.0459918 -2.98365 0
M  V30 19583 C 1813.87 1.72942 -3.01639 0
M  V30 19584 H 1813.19 1.31286 -3.7763 0
M  V30 19585 H 1814.63 2.3257 -3.54524 0
M  V30 19586 C 1813.09 2.64026 -2.09266 0
M  V30 19587 O 1813.62 3.65431 -1.66803 0
M  V30 19588 N 1811.83 2.32007 -1.74989 0
M  V30 19589 H 1811.38 1.49588 -2.09717 0
M  V30 19590 H 1811.33 2.93213 -1.1346 0
M  V30 19591 N 1815.11 1.57549 -0.040136 0
M  V30 19592 C 1816.35 1.9187 0.634838 0
M  V30 19593 C 1816.68 0.918178 1.7203 0
M  V30 19594 O 1815.95 -0.0386563 1.95862 0
M  V30 19595 H 1814.53 0.708245 0.237483 0
M  V30 19596 H 1817.19 1.9469 -0.0905369 0
M  V30 19597 H 1816.28 2.92799 1.08053 0
M  V30 19598 N 1816.58 -0.233136 1.55866 0
M  V30 19599 C 1817.83 -0.957205 1.7754 0
M  V30 19600 C 1818.15 -1.85956 0.606601 0
M  V30 19601 O 1819.35 -2.62142 0.706687 0
M  V30 19602 C 1817.81 -1.75215 3.14369 0
M  V30 19603 C 1817.42 -0.896509 4.38938 0
M  V30 19604 C 1819.16 -2.46813 3.45374 0
M  V30 19605 C 1817.07 -1.68814 5.66794 0
M  V30 19606 H 1816 -0.361139 0.661887 0
M  V30 19607 H 1818.65 -0.211424 1.82278 0
M  V30 19608 H 1817.03 -2.54041 3.03775 0
M  V30 19609 H 1818.2 -0.149614 4.60557 0
M  V30 19610 H 1816.52 -0.293211 4.15366 0
M  V30 19611 H 1819.12 -3.0652 4.38121 0
M  V30 19612 H 1819.46 -3.19121 2.67334 0
M  V30 19613 H 1819.99 -1.74987 3.57245 0
M  V30 19614 H 1816.73 -1.00855 6.47695 0
M  V30 19615 H 1816.25 -2.40995 5.49255 0
M  V30 19616 H 1817.93 -2.25178 6.06551 0
M  V30 19617 N 1818.06 -1.49479 -0.499372 0
M  V30 19618 C 1819.31 -1.59048 -1.25339 0
M  V30 19619 C 1819.64 -0.277917 -1.92504 0
M  V30 19620 O 1818.89 0.734282 -1.81402 0
M  V30 19621 C 1819.19 -2.70007 -2.3416 0
M  V30 19622 C 1818.86 -4.11451 -1.84443 0
M  V30 19623 C 1817.52 -4.49942 -1.70603 0
M  V30 19624 C 1819.87 -4.99967 -1.47248 0
M  V30 19625 C 1817.2 -5.74722 -1.17949 0
M  V30 19626 C 1819.55 -6.25266 -0.960465 0
M  V30 19627 C 1818.22 -6.62586 -0.808473 0
M  V30 19628 H 1817.49 -0.581998 -0.458649 0
M  V30 19629 H 1820.13 -1.83315 -0.553867 0
M  V30 19630 H 1818.44 -2.39717 -3.09908 0
M  V30 19631 H 1820.14 -2.74619 -2.92208 0
M  V30 19632 H 1816.73 -3.81069 -1.96174 0
M  V30 19633 H 1820.91 -4.70884 -1.56787 0
M  V30 19634 H 1816.17 -6.02335 -1.04895 0
M  V30 19635 H 1820.34 -6.93232 -0.66348 0
M  V30 19636 H 1817.97 -7.59156 -0.398296 0
M  V30 19637 N 1819.54 0.750537 -1.38581 0
M  V30 19638 C 1820.47 1.87248 -1.30435 0
M  V30 19639 C 1821.45 1.61591 -0.180819 0
M  V30 19640 O 1822.64 1.85057 -0.358655 0
M  V30 19641 C 1819.76 3.22922 -1.02173 0
M  V30 19642 C 1818.81 3.67461 -2.16505 0
M  V30 19643 S 1819.64 3.78642 -3.7867 0
M  V30 19644 C 1820.8 5.1713 -3.52601 0
M  V30 19645 H 1821.03 1.93872 -2.25391 0
M  V30 19646 H 1818.56 0.913828 -1.24453 0
M  V30 19647 H 1820.52 4.01272 -0.865502 0
M  V30 19648 H 1819.18 3.13973 -0.0893025 0
M  V30 19649 H 1818.38 4.65879 -1.92284 0
M  V30 19650 H 1817.98 2.96273 -2.28251 0
M  V30 19651 H 1820.27 6.0298 -3.08904 0
M  V30 19652 H 1821.21 5.46374 -4.50423 0
M  V30 19653 H 1821.62 4.86071 -2.87045 0
M  V30 19654 N 1821.02 1.235 0.979051 0
M  V30 19655 C 1822.25 1.09462 1.75572 0
M  V30 19656 C 1822.66 -0.3538 1.85455 0
M  V30 19657 O 1822.02 -1.24467 1.3347 0
M  V30 19658 C 1822.07 1.71562 3.18196 0
M  V30 19659 O 1821.79 3.1074 3.08824 0
M  V30 19660 C 1823.29 1.62984 4.12251 0
M  V30 19661 H 1820.51 0.383013 0.550946 0
M  V30 19662 H 1823.06 1.63378 1.22995 0
M  V30 19663 H 1821.21 1.21676 3.67796 0
M  V30 19664 H 1821.63 3.40888 3.98617 0
M  V30 19665 H 1823.1 2.11135 5.10025 0
M  V30 19666 H 1823.58 0.588907 4.35234 0
M  V30 19667 H 1824.18 2.12242 3.68556 0
M  V30 19668 N 1822.5 -1.17802 1.04693 0
M  V30 19669 C 1823.73 -1.91867 0.774246 0
M  V30 19670 C 1824.14 -1.76534 -0.669425 0
M  V30 19671 O 1823.5 -1.09915 -1.45688 0
M  V30 19672 C 1823.55 -3.43086 1.13904 0
M  V30 19673 O 1823.27 -3.57943 2.52604 0
M  V30 19674 C 1824.77 -4.34238 0.891767 0
M  V30 19675 H 1821.99 -0.60892 0.281882 0
M  V30 19676 H 1824.53 -1.49414 1.39627 0
M  V30 19677 H 1822.69 -3.83304 0.561863 0
M  V30 19678 H 1823.1 -4.51599 2.66756 0
M  V30 19679 H 1824.58 -5.3887 1.1968 0
M  V30 19680 H 1825.05 -4.38858 -0.17323 0
M  V30 19681 H 1825.66 -3.99727 1.45254 0
M  V30 19682 N 1823.98 -0.827251 -1.34143 0
M  V30 19683 C 1825.39 -0.513554 -1.51112 0
M  V30 19684 C 1825.59 0.961434 -1.77084 0
M  V30 19685 O 1824.65 1.74573 -1.82429 0
M  V30 19686 C 1825.96 -1.37683 -2.67327 0
M  V30 19687 C 1827.51 -1.3744 -2.8121 0
M  V30 19688 C 1827.98 -2.22226 -4.00474 0
M  V30 19689 N 1829.47 -2.19873 -4.07689 0
M  V30 19690 C 1830.21 -2.82222 -4.99138 0
M  V30 19691 N 1829.71 -3.53578 -5.95781 0
M  V30 19692 N 1831.5 -2.71753 -4.92043 0
M  V30 19693 H 1823.65 -1.78222 -1.15545 0
M  V30 19694 H 1825.91 -0.759711 -0.567047 0
M  V30 19695 H 1825.62 -2.42448 -2.54778 0
M  V30 19696 H 1825.49 -1.0446 -3.62447 0
M  V30 19697 H 1827.88 -0.334525 -2.93198 0
M  V30 19698 H 1827.96 -1.74663 -1.86886 0
M  V30 19699 H 1827.6 -3.26266 -3.89246 0
M  V30 19700 H 1827.53 -1.82352 -4.9402 0
M  V30 19701 H 1830.03 -1.67972 -3.38517 0
M  V30 19702 H 1830.34 -3.98387 -6.62199 0
M  V30 19703 H 1828.68 -3.57685 -5.95892 0
M  V30 19704 H 1831.87 -2.15579 -4.15504 0
M  V30 19705 H 1832.05 -3.2063 -5.63117 0
M  V30 19706 N 1825.45 1.46436 -0.582609 0
M  V30 19707 C 1826.7 2.01986 -0.0680147 0
M  V30 19708 C 1827.02 1.45654 1.29653 0
M  V30 19709 O 1826.29 0.641203 1.85109 0
M  V30 19710 H 1824.87 0.746671 -0.022153 0
M  V30 19711 H 1827.53 1.79541 -0.758367 0
M  V30 19712 H 1826.63 3.121 0.00106001 0
M  V30 19713 N 1826.93 0.320385 1.54309 0
M  V30 19714 C 1828.18 -0.282584 2.00115 0
M  V30 19715 C 1828.5 -1.52904 1.21018 0
M  V30 19716 O 1827.77 -1.93413 0.311163 0
M  V30 19717 H 1826.35 -0.107406 0.739238 0
M  V30 19718 H 1829.01 0.436196 1.89956 0
M  V30 19719 H 1828.11 -0.541189 3.07372 0
M  V30 19720 N 1828.41 -1.57525 0.0484906 0
M  V30 19721 C 1829.66 -1.91761 -0.625335 0
M  V30 19722 C 1829.97 -0.928421 -1.72162 0
M  V30 19723 O 1831.18 -1.16273 -2.45342 0
M  V30 19724 C 1829.63 -3.40571 -1.1636 0
M  V30 19725 C 1829.24 -4.47889 -0.0995687 0
M  V30 19726 C 1830.99 -3.83845 -1.81282 0
M  V30 19727 C 1828.89 -5.87811 -0.650563 0
M  V30 19728 H 1827.82 -0.71567 -0.237346 0
M  V30 19729 H 1830.47 -1.83127 0.116944 0
M  V30 19730 H 1828.86 -3.44201 -1.95811 0
M  V30 19731 H 1830.03 -4.55846 0.673904 0
M  V30 19732 H 1828.34 -4.13939 0.452038 0
M  V30 19733 H 1830.94 -4.8575 -2.23497 0
M  V30 19734 H 1831.28 -3.19947 -2.66345 0
M  V30 19735 H 1831.82 -3.8272 -1.08491 0
M  V30 19736 H 1828.56 -6.55299 0.162371 0
M  V30 19737 H 1828.08 -5.83422 -1.39208 0
M  V30 19738 H 1829.76 -6.36979 -1.1343 0
M  V30 19739 N 1829.89 0.224867 -1.55988 0
M  V30 19740 C 1831.11 0.970897 -1.83271 0
M  V30 19741 C 1831.54 1.77293 -0.628399 0
M  V30 19742 O 1830.9 1.76301 0.422804 0
M  V30 19743 C 1830.94 1.86686 -3.08514 0
M  V30 19744 O 1830.05 2.96174 -2.86975 0
M  V30 19745 H 1829.39 0.275093 -0.604334 0
M  V30 19746 H 1831.92 0.239183 -2.03197 0
M  V30 19747 H 1831.93 2.27731 -3.3853 0
M  V30 19748 H 1830.6 1.27733 -3.95799 0
M  V30 19749 H 1829.18 2.59099 -2.68183 0
M  V30 19750 N 1831.37 1.49742 0.491438 0
M  V30 19751 C 1832.31 1.67115 1.59189 0
M  V30 19752 C 1833.28 0.512523 1.57995 0
M  V30 19753 O 1834.47 0.740693 1.75836 0
M  V30 19754 C 1831.61 1.75258 2.97286 0
M  V30 19755 C 1830.72 3.02488 3.08424 0
M  V30 19756 C 1829.86 3.0155 4.37311 0
M  V30 19757 C 1828.89 4.2332 4.42116 0
M  V30 19758 N 1828.03 4.20238 5.62445 0
M  V30 19759 H 1832.87 2.61073 1.43683 0
M  V30 19760 H 1830.41 1.29435 0.69892 0
M  V30 19761 H 1832.37 1.77959 3.77341 0
M  V30 19762 H 1831 0.847568 3.11474 0
M  V30 19763 H 1830.05 3.09353 2.21371 0
M  V30 19764 H 1831.36 3.92479 3.07834 0
M  V30 19765 H 1830.51 3.02868 5.25695 0
M  V30 19766 H 1829.25 2.09354 4.4048 0
M  V30 19767 H 1828.26 4.22236 3.52132 0
M  V30 19768 H 1829.48 5.1672 4.40656 0
M  V30 19769 H 1827.43 3.30884 5.66438 0
M  V30 19770 H 1827.35 5.03974 5.63512 0
M  V30 19771 H 1828.61 4.25672 6.53011 0
M  V30 19772 N 1832.84 -0.743177 1.38977 0
M  V30 19773 C 1833.81 -1.83876 1.36829 0
M  V30 19774 C 1834.81 -1.5857 0.266875 0
M  V30 19775 O 1836 -1.66121 0.524337 0
M  V30 19776 C 1833.13 -3.21528 1.1328 0
M  V30 19777 H 1834.32 -1.87186 2.3431 0
M  V30 19778 H 1831.88 -0.945979 1.24422 0
M  V30 19779 H 1832.61 -3.23883 0.164474 0
M  V30 19780 H 1832.4 -3.41292 1.93034 0
M  V30 19781 H 1833.89 -4.01597 1.14498 0
M  V30 19782 N 1834.32 -1.24018 -0.972487 0
M  V30 19783 C 1835.25 -0.986185 -2.06899 0
M  V30 19784 C 1836.27 0.0426574 -1.62744 0
M  V30 19785 O 1837.46 -0.193816 -1.77445 0
M  V30 19786 C 1834.56 -0.46551 -3.35688 0
M  V30 19787 C 1833.73 -1.55637 -4.08774 0
M  V30 19788 C 1832.79 -1.03918 -5.15837 0
M  V30 19789 O 1831.81 -1.72986 -5.42277 0
M  V30 19790 N 1833.02 0.128891 -5.80357 0
M  V30 19791 H 1835.78 -1.93025 -2.29263 0
M  V30 19792 H 1833.34 -1.14983 -1.13976 0
M  V30 19793 H 1835.33 -0.104379 -4.04565 0
M  V30 19794 H 1833.9 0.384166 -3.1023 0
M  V30 19795 H 1833.12 -2.08991 -3.3424 0
M  V30 19796 H 1834.41 -2.28973 -4.54366 0
M  V30 19797 H 1833.81 0.706438 -5.61272 0
M  V30 19798 H 1832.37 0.431211 -6.50372 0
M  V30 19799 N 1835.8 1.17245 -1.05316 0
M  V30 19800 C 1836.75 2.21304 -0.655223 0
M  V30 19801 C 1837.72 1.62515 0.343244 0
M  V30 19802 O 1838.9 1.89355 0.234375 0
M  V30 19803 C 1836.04 3.4508 -0.037446 0
M  V30 19804 C 1835.16 4.18155 -1.0849 0
M  V30 19805 C 1834.29 5.29422 -0.434307 0
M  V30 19806 C 1833.33 5.94286 -1.46598 0
M  V30 19807 N 1832.47 6.97063 -0.839461 0
M  V30 19808 H 1837.31 2.54696 -1.54705 0
M  V30 19809 H 1834.84 1.25109 -0.773697 0
M  V30 19810 H 1836.8 4.15827 0.338182 0
M  V30 19811 H 1835.43 3.12268 0.817837 0
M  V30 19812 H 1834.48 3.46111 -1.57834 0
M  V30 19813 H 1835.8 4.62502 -1.86798 0
M  V30 19814 H 1834.95 6.067 -0.00516288 0
M  V30 19815 H 1833.69 4.86212 0.380745 0
M  V30 19816 H 1832.69 5.15737 -1.90513 0
M  V30 19817 H 1833.92 6.39576 -2.28295 0
M  V30 19818 H 1831.86 6.55985 -0.0449421 0
M  V30 19819 H 1831.78 7.39728 -1.56006 0
M  V30 19820 H 1833.05 7.78285 -0.435132 0
M  V30 19821 N 1837.28 0.834353 1.33702 0
M  V30 19822 C 1838.53 0.427042 1.97537 0
M  V30 19823 C 1838.85 -1.01607 1.66436 0
M  V30 19824 O 1838.12 -1.70711 0.960958 0
M  V30 19825 H 1836.7 0.154921 0.730759 0
M  V30 19826 H 1839.36 1.06632 1.63143 0
M  V30 19827 H 1838.46 0.555396 3.07118 0
M  V30 19828 N 1838.76 -1.46125 0.590367 0
M  V30 19829 C 1839.69 -2.33159 -0.126114 0
M  V30 19830 C 1840.67 -1.45806 -0.876057 0
M  V30 19831 O 1841.85 -1.7461 -0.850009 0
M  V30 19832 C 1838.98 -3.28217 -1.13537 0
M  V30 19833 C 1837.94 -4.25072 -0.499773 0
M  V30 19834 C 1837.26 -5.09694 -1.61605 0
M  V30 19835 C 1838.56 -5.19202 0.567992 0
M  V30 19836 H 1840.26 -2.93315 0.600577 0
M  V30 19837 H 1837.8 -1.41044 0.290265 0
M  V30 19838 H 1839.76 -3.87965 -1.64503 0
M  V30 19839 H 1838.48 -2.66185 -1.89244 0
M  V30 19840 H 1837.14 -3.66598 -0.0111313 0
M  V30 19841 H 1836.79 -4.44041 -2.36297 0
M  V30 19842 H 1836.49 -5.75292 -1.19637 0
M  V30 19843 H 1838.01 -5.72307 -2.12832 0
M  V30 19844 H 1839.42 -5.73121 0.143102 0
M  V30 19845 H 1837.82 -5.93184 0.908428 0
M  V30 19846 H 1838.89 -4.62671 1.45133 0
M  V30 19847 N 1840.23 -0.328564 -1.54137 0
M  V30 19848 C 1841.18 0.550772 -2.21248 0
M  V30 19849 C 1842.17 1.07776 -1.19471 0
M  V30 19850 O 1843.36 1.01395 -1.4508 0
M  V30 19851 C 1840.49 1.70871 -2.97755 0
M  V30 19852 C 1839.58 1.19638 -4.06875 0
M  V30 19853 N 1839.97 0.404108 -5.04183 0
M  V30 19854 C 1838.26 1.47465 -4.20916 0
M  V30 19855 C 1838.97 0.127848 -5.81559 0
M  V30 19856 N 1837.94 0.715362 -5.38872 0
M  V30 19857 H 1841.74 -0.0617731 -2.93835 0
M  V30 19858 H 1839.26 -0.13467 -1.61841 0
M  V30 19859 H 1841.25 2.35048 -3.44322 0
M  V30 19860 H 1839.91 2.32468 -2.26691 0
M  V30 19861 H 1840.93 0.046507 -5.17879 0
M  V30 19862 H 1837.6 2.0961 -3.61067 0
M  V30 19863 H 1838.99 -0.510286 -6.69959 0
M  V30 19864 N 1841.71 1.57497 -0.0568439 0
M  V30 19865 C 1842.64 2.14892 0.913427 0
M  V30 19866 C 1843.62 1.07205 1.32065 0
M  V30 19867 O 1844.81 1.35172 1.39435 0
M  V30 19868 C 1841.94 2.69849 2.18629 0
M  V30 19869 C 1840.89 3.8257 1.91896 0
M  V30 19870 C 1840.22 4.24068 3.25685 0
M  V30 19871 C 1841.52 5.07463 1.23606 0
M  V30 19872 H 1843.21 2.96218 0.435347 0
M  V30 19873 H 1840.76 1.4249 0.20796 0
M  V30 19874 H 1842.71 3.08643 2.86911 0
M  V30 19875 H 1841.44 1.85723 2.68653 0
M  V30 19876 H 1840.09 3.44258 1.26024 0
M  V30 19877 H 1839.74 3.36884 3.73521 0
M  V30 19878 H 1839.44 5.00043 3.08594 0
M  V30 19879 H 1840.97 4.65466 3.95189 0
M  V30 19880 H 1842.38 5.43667 1.81931 0
M  V30 19881 H 1840.78 5.88619 1.16823 0
M  V30 19882 H 1841.85 4.84432 0.212918 0
M  V30 19883 N 1843.19 -0.216591 1.56105 0
M  V30 19884 C 1844.14 -1.28803 1.93681 0
M  V30 19885 C 1845.13 -1.4826 0.819464 0
M  V30 19886 O 1846.34 -1.49376 1.00433 0
M  V30 19887 H 1842.71 -0.431947 0.61557 0
M  V30 19888 H 1844.68 -0.943954 2.83076 0
M  V30 19889 C 1843.43 -2.63017 2.27414 0
M  V30 19890 H 1842.76 -2.48855 3.12908 0
M  V30 19891 H 1844.2 -3.36787 2.57587 0
M  V30 19892 C 1842.66 -3.18401 1.10103 0
M  V30 19893 O 1843.19 -4.00041 0.364758 0
M  V30 19894 N 1841.39 -2.76843 0.883536 0
M  V30 19895 H 1840.94 -2.1056 1.48399 0
M  V30 19896 H 1840.9 -3.1424 0.100368 0
M  V30 19897 N 1844.67 -1.5 -0.48349 0
M  V30 19898 C 1845.58 -1.70722 -1.60907 0
M  V30 19899 C 1846.59 -0.590075 -1.63689 0
M  V30 19900 O 1847.77 -0.866915 -1.81787 0
M  V30 19901 C 1844.84 -1.78544 -2.97192 0
M  V30 19902 C 1843.9 -3.02218 -3.04898 0
M  V30 19903 C 1843.13 -3.09658 -4.34681 0
M  V30 19904 O 1843.35 -2.24216 -5.24484 0
M  V30 19905 O 1842.29 -4.02278 -4.47723 0
M  V30 19906 H 1846.11 -2.66111 -1.4635 0
M  V30 19907 H 1843.7 -1.33949 -0.661666 0
M  V30 19908 H 1845.58 -1.85941 -3.78159 0
M  V30 19909 H 1844.25 -0.863364 -3.11974 0
M  V30 19910 H 1843.16 -3.00329 -2.23054 0
M  V30 19911 H 1844.49 -3.93964 -2.95048 0
M  V30 19912 N 1846.15 0.735796 -1.39369 0
M  V30 19913 C 1847.42 1.48712 -1.27059 0
M  V30 19914 C 1847.8 2.10758 0.120174 0
M  V30 19915 O 1847.15 1.98528 1.13132 0
M  V30 19916 C 1847.36 2.53918 -2.3943 0
M  V30 19917 C 1848.71 3.20322 -2.78709 0
M  V30 19918 O 1849.73 2.6423 -2.38874 0
M  V30 19919 O 1848.59 4.21819 -3.47463 0
M  V30 19920 H 1845.69 0.660337 -0.497879 0
M  V30 19921 H 1848.23 0.76969 -1.51241 0
M  V30 19922 H 1847 2.06444 -3.3241 0
M  V30 19923 H 1846.63 3.33221 -2.16909 0
M  V30 19924 N 1847.63 1.24532 0.965897 0
M  V30 19925 C 1848.87 1.0801 1.70343 0
M  V30 19926 C 1849.19 -0.380738 1.91859 0
M  V30 19927 O 1850.39 -0.666181 2.632 0
M  V30 19928 C 1848.85 1.88452 3.06617 0
M  V30 19929 C 1848.46 3.38957 2.92937 0
M  V30 19930 C 1850.2 1.80465 3.8423 0
M  V30 19931 C 1848.11 4.11736 4.24532 0
M  V30 19932 H 1847.04 0.400577 0.638791 0
M  V30 19933 H 1849.69 1.48629 1.07618 0
M  V30 19934 H 1848.07 1.40648 3.70181 0
M  V30 19935 H 1849.25 3.94353 2.38374 0
M  V30 19936 H 1847.56 3.47915 2.28788 0
M  V30 19937 H 1850.16 2.32142 4.81679 0
M  V30 19938 H 1850.5 0.770262 4.09112 0
M  V30 19939 H 1851.03 2.25958 3.27395 0
M  V30 19940 H 1847.77 5.15541 4.04842 0
M  V30 19941 H 1847.29 3.61125 4.78904 0
M  V30 19942 H 1848.97 4.18833 4.93141 0
M  V30 19943 N 1849.1 -1.16685 1.05936 0
M  V30 19944 C 1850.33 -1.90758 0.793401 0
M  V30 19945 C 1850.74 -1.77479 -0.655593 0
M  V30 19946 O 1850.08 -1.11458 -1.46023 0
M  V30 19947 C 1850.15 -3.42127 1.10406 0
M  V30 19948 C 1849.81 -3.79191 2.55074 0
M  V30 19949 C 1850.81 -3.81412 3.533 0
M  V30 19950 C 1848.49 -4.09931 2.9028 0
M  V30 19951 C 1850.49 -4.13853 4.84772 0
M  V30 19952 C 1848.17 -4.42039 4.21953 0
M  V30 19953 C 1849.17 -4.4398 5.19009 0
M  V30 19954 O 1848.86 -4.75328 6.4832 0
M  V30 19955 H 1848.59 -0.611855 0.287418 0
M  V30 19956 H 1851.15 -1.48859 1.41527 0
M  V30 19957 H 1849.38 -3.84356 0.425106 0
M  V30 19958 H 1851.06 -3.97471 0.822918 0
M  V30 19959 H 1851.83 -3.5778 3.27443 0
M  V30 19960 H 1847.71 -4.07587 2.15393 0
M  V30 19961 H 1851.25 -4.15283 5.60523 0
M  V30 19962 H 1847.15 -4.65136 4.4757 0
M  V30 19963 H 1847.92 -4.93154 6.53254 0
M  V30 19964 N 1850.58 -0.841432 -1.33258 0
M  V30 19965 C 1851.54 -0.281685 -2.27462 0
M  V30 19966 C 1852.54 0.551062 -1.51063 0
M  V30 19967 O 1853.73 0.364482 -1.70344 0
M  V30 19968 C 1850.87 0.602896 -3.35526 0
M  V30 19969 H 1852.06 -1.11298 -2.78483 0
M  V30 19970 H 1849.61 -0.614717 -1.43704 0
M  V30 19971 H 1850.35 1.45652 -2.89751 0
M  V30 19972 H 1850.13 0.00701634 -3.92099 0
M  V30 19973 H 1851.62 0.987735 -4.05751 0
M  V30 19974 N 1852.06 1.4581 -0.598108 0
M  V30 19975 C 1853.31 2.01902 -0.0894342 0
M  V30 19976 C 1853.63 1.47021 1.281 0
M  V30 19977 O 1852.9 0.6608 1.84419 0
M  V30 19978 H 1851.48 0.746394 -0.0300712 0
M  V30 19979 H 1854.14 1.78726 -0.777367 0
M  V30 19980 H 1853.24 3.12084 -0.0320424 0
M  V30 19981 N 1853.54 0.336733 1.53961 0
M  V30 19982 C 1854.47 -0.566072 2.21068 0
M  V30 19983 C 1855.45 -1.10558 1.1923 0
M  V30 19984 O 1856.63 -1.16712 1.48022 0
M  V30 19985 C 1853.76 -1.77806 2.88275 0
M  V30 19986 C 1852.81 -1.36863 4.03944 0
M  V30 19987 S 1853.64 -0.394182 5.34047 0
M  V30 19988 C 1854.79 -1.61316 6.04754 0
M  V30 19989 H 1855.03 0.00393395 2.973 0
M  V30 19990 H 1852.56 0.120807 1.53927 0
M  V30 19991 H 1854.52 -2.47342 3.27616 0
M  V30 19992 H 1853.18 -2.31928 2.11822 0
M  V30 19993 H 1852.37 -2.2721 4.49879 0
M  V30 19994 H 1851.97 -0.752832 3.66345 0
M  V30 19995 H 1854.27 -2.54866 6.27734 0
M  V30 19996 H 1855.21 -1.19572 6.97931 0
M  V30 19997 H 1855.62 -1.80612 5.34827 0
M  V30 19998 N 1855.02 -1.57465 0.0651956 0
M  V30 19999 C 1856.24 -1.9756 -0.614633 0
M  V30 20000 C 1856.66 -0.943308 -1.63546 0
M  V30 20001 O 1856.02 0.0708362 -1.82362 0
M  V30 20002 C 1856.07 -3.37735 -1.28909 0
M  V30 20003 O 1855.79 -4.37008 -0.309131 0
M  V30 20004 C 1857.29 -3.92667 -2.05736 0
M  V30 20005 H 1854.51 -0.64987 -0.167061 0
M  V30 20006 H 1857.05 -2.0405 0.135647 0
M  V30 20007 H 1855.21 -3.32352 -1.9905 0
M  V30 20008 H 1855.62 -5.18483 -0.792206 0
M  V30 20009 H 1857.1 -4.92988 -2.48329 0
M  V30 20010 H 1857.57 -3.28851 -2.91124 0
M  V30 20011 H 1858.18 -4.01431 -1.40476 0
M  V30 20012 N 1856.49 0.20831 -1.56217 0
M  V30 20013 C 1857.46 1.24178 -1.92646 0
M  V30 20014 C 1858.46 1.39125 -0.806274 0
M  V30 20015 O 1859.65 1.37163 -1.07386 0
M  V30 20016 C 1856.78 2.61342 -2.18891 0
M  V30 20017 H 1857.97 0.930748 -2.85091 0
M  V30 20018 H 1855.52 0.449285 -1.49703 0
M  V30 20019 H 1856.26 2.97521 -1.29041 0
M  V30 20020 H 1856.04 2.51866 -3.00509 0
M  V30 20021 H 1857.53 3.35892 -2.48125 0
M  V30 20022 N 1857.97 1.50255 0.475528 0
M  V30 20023 C 1858.9 1.71721 1.58222 0
M  V30 20024 C 1859.88 0.56612 1.60403 0
M  V30 20025 O 1861.07 0.804774 1.7674 0
M  V30 20026 C 1858.2 1.80726 2.96573 0
M  V30 20027 C 1857.15 2.95877 3.09258 0
M  V30 20028 C 1856.48 2.9002 4.49213 0
M  V30 20029 C 1857.78 4.36452 2.86891 0
M  V30 20030 H 1859.47 2.6438 1.40511 0
M  V30 20031 H 1857.02 1.27224 0.674533 0
M  V30 20032 H 1858.97 1.94328 3.73918 0
M  V30 20033 H 1857.69 0.846846 3.1543 0
M  V30 20034 H 1856.35 2.81918 2.34345 0
M  V30 20035 H 1856 1.91834 4.64982 0
M  V30 20036 H 1855.7 3.67322 4.58637 0
M  V30 20037 H 1857.23 3.05665 5.28584 0
M  V30 20038 H 1858.64 4.5096 3.53989 0
M  V30 20039 H 1857.04 5.15171 3.07765 0
M  V30 20040 H 1858.11 4.49129 1.82786 0
M  V30 20041 N 1859.45 -0.728395 1.39758 0
M  V30 20042 C 1860.69 -1.50065 1.38779 0
M  V30 20043 C 1861.05 -1.91994 -0.0146977 0
M  V30 20044 O 1862.25 -2.68384 -0.149524 0
M  V30 20045 C 1860.53 -2.70258 2.33871 0
M  V30 20046 S 1862.08 -3.59826 2.51139 0
M  V30 20047 H 1858.9 -0.513225 0.492058 0
M  V30 20048 H 1861.5 -0.852912 1.75914 0
M  V30 20049 H 1860.21 -2.37605 3.34622 0
M  V30 20050 H 1859.74 -3.39955 1.97975 0
M  V30 20051 H 1861.75 -4.64157 1.75423 0
M  V30 20052 N 1860.93 -1.25042 -0.959279 0
M  V30 20053 C 1862.34 -1.01764 -1.22948 0
M  V30 20054 C 1862.54 0.268402 -1.99704 0
M  V30 20055 O 1861.6 0.982348 -2.32607 0
M  V30 20056 C 1862.91 -2.23794 -2.0084 0
M  V30 20057 C 1864.46 -2.28507 -2.13901 0
M  V30 20058 C 1864.94 -3.50181 -2.9519 0
M  V30 20059 N 1866.43 -3.50549 -3.0277 0
M  V30 20060 C 1867.16 -4.41357 -3.66049 0
M  V30 20061 N 1866.66 -5.42431 -4.30976 0
M  V30 20062 N 1868.45 -4.29049 -3.63143 0
M  V30 20063 H 1860.6 -2.07672 -0.445667 0
M  V30 20064 H 1862.86 -0.91176 -0.259611 0
M  V30 20065 H 1862.57 -3.17237 -1.51835 0
M  V30 20066 H 1862.44 -2.26592 -3.01556 0
M  V30 20067 H 1864.83 -1.3559 -2.62105 0
M  V30 20068 H 1864.91 -2.29731 -1.12505 0
M  V30 20069 H 1864.56 -4.43417 -2.47677 0
M  V30 20070 H 1864.49 -3.46202 -3.96802 0
M  V30 20071 H 1866.98 -2.77432 -2.56593 0
M  V30 20072 H 1867.29 -6.07941 -4.77104 0
M  V30 20073 H 1865.64 -5.46308 -4.29619 0
M  V30 20074 H 1868.83 -3.49317 -3.11601 0
M  V30 20075 H 1869 -5.00017 -4.12174 0
M  V30 20076 N 1862.41 1.16121 -1.06553 0
M  V30 20077 C 1863.65 1.86346 -0.782279 0
M  V30 20078 C 1863.98 1.82255 0.693395 0
M  V30 20079 O 1863.25 1.2579 1.50179 0
M  V30 20080 H 1861.83 0.689921 -0.286388 0
M  V30 20081 H 1864.49 1.40805 -1.34758 0
M  V30 20082 H 1863.58 2.91712 -1.10954 0
M  V30 20083 N 1863.88 0.848487 1.3281 0
M  V30 20084 C 1865.13 0.44797 1.97073 0
M  V30 20085 C 1865.45 -0.998358 1.67505 0
M  V30 20086 O 1864.72 -1.69683 0.97901 0
M  V30 20087 H 1863.3 0.162663 0.729075 0
M  V30 20088 H 1865.97 1.08356 1.62003 0
M  V30 20089 H 1865.06 0.587939 3.06512 0
M  V30 20090 N 1865.36 -1.4549 0.605832 0
M  V30 20091 C 1866.78 -1.57311 0.269339 0
M  V30 20092 C 1866.98 -1.59746 -1.22814 0
M  V30 20093 O 1866.03 -1.52682 -2.01108 0
M  V30 20094 C 1867.35 -2.85664 0.938963 0
M  V30 20095 C 1868.9 -2.99336 0.914717 0
M  V30 20096 C 1869.37 -4.30457 1.56432 0
M  V30 20097 N 1870.86 -4.37211 1.52973 0
M  V30 20098 C 1871.6 -5.37333 2.00152 0
M  V30 20099 N 1871.09 -6.44001 2.5541 0
M  V30 20100 N 1872.89 -5.28679 1.90931 0
M  V30 20101 H 1865.04 -1.42153 1.57817 0
M  V30 20102 H 1867.3 -0.679542 0.661004 0
M  V30 20103 H 1867.01 -2.89759 1.9933 0
M  V30 20104 H 1866.88 -3.7437 0.461178 0
M  V30 20105 H 1869.27 -2.94809 -0.131069 0
M  V30 20106 H 1869.35 -2.12045 1.43075 0
M  V30 20107 H 1868.99 -4.35742 2.60942 0
M  V30 20108 H 1868.92 -5.16561 1.02332 0
M  V30 20109 H 1871.41 -3.60733 1.12605 0
M  V30 20110 H 1871.73 -7.16644 2.89208 0
M  V30 20111 H 1870.07 -6.44757 2.59448 0
M  V30 20112 H 1873.26 -4.44253 1.47502 0
M  V30 20113 H 1873.43 -6.06559 2.28013 0
M  V30 20114 N 1866.84 -0.344893 -1.5378 0
M  V30 20115 C 1868.09 0.252216 -2.00117 0
M  V30 20116 C 1868.4 1.51548 -1.23663 0
M  V30 20117 O 1869.61 2.18991 -1.60484 0
M  V30 20118 C 1868.06 0.499983 -3.5641 0
M  V30 20119 C 1867.67 -0.747455 -4.41721 0
M  V30 20120 C 1869.42 1.05588 -4.11159 0
M  V30 20121 C 1867.32 -0.470414 -5.89526 0
M  V30 20122 H 1866.25 0.0980234 -0.747601 0
M  V30 20123 H 1868.9 -0.460431 -1.7763 0
M  V30 20124 H 1867.29 1.27337 -3.74969 0
M  V30 20125 H 1868.46 -1.52204 -4.34937 0
M  V30 20126 H 1866.78 -1.22508 -3.97971 0
M  V30 20127 H 1869.37 1.27813 -5.19199 0
M  V30 20128 H 1869.72 2.01181 -3.64461 0
M  V30 20129 H 1870.25 0.343167 -3.96317 0
M  V30 20130 H 1866.99 -1.3961 -6.4046 0
M  V30 20131 H 1866.51 0.266065 -5.9921 0
M  V30 20132 H 1868.19 -0.0881607 -6.4694 0
M  V30 20133 N 1868.32 1.57428 -0.0735454 0
M  V30 20134 C 1869.27 2.12821 0.893071 0
M  V30 20135 C 1870.24 1.04117 1.29418 0
M  V30 20136 O 1871.42 1.31789 1.37972 0
M  V30 20137 C 1868.56 2.69569 2.15468 0
M  V30 20138 C 1867.67 3.92436 1.80605 0
M  V30 20139 C 1866.81 4.37421 3.01391 0
M  V30 20140 C 1865.85 5.52931 2.62553 0
M  V30 20141 N 1864.98 5.92866 3.76104 0
M  V30 20142 H 1869.82 2.95113 0.413823 0
M  V30 20143 H 1867.36 1.45834 0.192613 0
M  V30 20144 H 1869.32 3.0058 2.89323 0
M  V30 20145 H 1867.95 1.9004 2.6093 0
M  V30 20146 H 1867 3.67876 0.968068 0
M  V30 20147 H 1868.31 4.76327 1.48033 0
M  V30 20148 H 1867.47 4.70102 3.83522 0
M  V30 20149 H 1866.21 3.52386 3.37158 0
M  V30 20150 H 1865.21 5.19899 1.78844 0
M  V30 20151 H 1866.44 6.39698 2.27954 0
M  V30 20152 H 1864.38 5.10781 4.11629 0
M  V30 20153 H 1864.3 6.71502 3.47305 0
M  V30 20154 H 1865.57 6.30171 4.58808 0
M  V30 20155 N 1869.8 -0.200022 1.56326 0
M  V30 20156 C 1870.75 -1.2519 1.90556 0
M  V30 20157 C 1871.73 -1.41239 0.77074 0
M  V30 20158 O 1872.92 -1.43692 1.03352 0
M  V30 20159 C 1870.05 -2.59777 2.24434 0
M  V30 20160 C 1869.14 -2.47541 3.4436 0
M  V30 20161 N 1869.53 -2.04979 4.62404 0
M  V30 20162 C 1867.83 -2.78447 3.48401 0
M  V30 20163 C 1868.53 -2.04515 5.44562 0
M  V30 20164 N 1867.5 -2.45831 4.84838 0
M  V30 20165 H 1871.31 -0.914073 2.79324 0
M  V30 20166 H 1868.82 -0.408485 1.57179 0
M  V30 20167 H 1870.82 -3.35749 2.4714 0
M  V30 20168 H 1869.48 -2.94387 1.3699 0
M  V30 20169 H 1870.49 -1.75766 4.87162 0
M  V30 20170 H 1867.16 -3.17286 2.71359 0
M  V30 20171 H 1868.55 -1.73551 6.49099 0
M  V30 20172 N 1871.27 -1.50505 -0.467553 0
M  V30 20173 C 1872.51 -1.63311 -1.22918 0
M  V30 20174 C 1872.88 -0.327842 -1.8918 0
M  V30 20175 O 1874.08 -0.33137 -2.6675 0
M  V30 20176 C 1872.35 -2.78308 -2.24231 0
M  V30 20177 S 1873.91 -3.11268 -3.09286 0
M  V30 20178 H 1870.73 -0.575676 -0.417274 0
M  V30 20179 H 1873.33 -1.88302 -0.525612 0
M  V30 20180 H 1872.03 -3.71623 -1.74139 0
M  V30 20181 H 1871.56 -2.55413 -2.99212 0
M  V30 20182 H 1873.58 -2.55366 -4.25444 0
M  V30 20183 N 1872.75 0.720973 -1.40142 0
M  V30 20184 C 1873.66 1.86527 -1.42284 0
M  V30 20185 C 1874.68 1.71106 -0.316044 0
M  V30 20186 O 1875.85 1.93465 -0.55977 0
M  V30 20187 C 1872.92 3.2227 -1.27841 0
M  V30 20188 C 1871.98 3.49984 -2.48616 0
M  V30 20189 C 1871.21 4.7925 -2.34852 0
M  V30 20190 O 1871.44 5.53963 -1.35945 0
M  V30 20191 O 1870.37 5.07179 -3.24119 0
M  V30 20192 H 1874.2 1.87675 -2.38771 0
M  V30 20193 H 1871.78 0.870677 -1.21407 0
M  V30 20194 H 1873.66 4.03362 -1.21973 0
M  V30 20195 H 1872.34 3.21861 -0.344566 0
M  V30 20196 H 1871.25 2.68922 -2.60061 0
M  V30 20197 H 1872.58 3.55184 -3.40742 0
M  V30 20198 N 1874.23 1.25549 0.952634 0
M  V30 20199 C 1875.46 1.12998 1.7296 0
M  V30 20200 C 1875.87 -0.318779 1.86495 0
M  V30 20201 O 1875.21 -1.23091 1.36361 0
M  V30 20202 C 1875.27 1.71313 3.16057 0
M  V30 20203 C 1874.94 3.20326 3.25945 0
M  V30 20204 C 1875.93 4.17291 3.10103 0
M  V30 20205 C 1873.62 3.60574 3.49702 0
M  V30 20206 C 1875.61 5.52484 3.17868 0
M  V30 20207 C 1873.3 4.95904 3.57103 0
M  V30 20208 C 1874.3 5.91668 3.412 0
M  V30 20209 O 1873.99 7.24535 3.48287 0
M  V30 20210 H 1873.72 0.394815 0.548723 0
M  V30 20211 H 1876.27 1.66441 1.20361 0
M  V30 20212 H 1874.5 1.1232 3.70029 0
M  V30 20213 H 1876.19 1.53832 3.7562 0
M  V30 20214 H 1876.96 3.87537 2.91617 0
M  V30 20215 H 1872.84 2.86529 3.6114 0
M  V30 20216 H 1876.38 6.27211 3.05373 0
M  V30 20217 H 1872.28 5.25324 3.75106 0
M  V30 20218 H 1873.05 7.32657 3.64905 0
M  V30 20219 N 1875.71 -1.15554 1.07168 0
M  V30 20220 C 1876.96 -1.86296 0.793718 0
M  V30 20221 C 1877.28 -1.8222 -0.680145 0
M  V30 20222 O 1876.54 -1.23899 -1.51485 0
M  V30 20223 C 1876.84 -3.3502 1.24484 0
M  V30 20224 C 1876.5 -3.59292 2.72434 0
M  V30 20225 C 1875.17 -3.65625 3.12844 0
M  V30 20226 C 1877.52 -3.69147 3.6794 0
M  V30 20227 C 1874.85 -3.79323 4.47584 0
M  V30 20228 C 1877.2 -3.84368 5.02438 0
M  V30 20229 C 1875.86 -3.88946 5.42473 0
M  V30 20230 H 1875.13 -0.681707 0.290442 0
M  V30 20231 H 1877.78 -1.36575 1.34236 0
M  V30 20232 H 1876.08 -3.86934 0.615546 0
M  V30 20233 H 1877.78 -3.88158 1.00669 0
M  V30 20234 H 1874.37 -3.55002 2.40149 0
M  V30 20235 H 1878.55 -3.63556 3.37847 0
M  V30 20236 H 1873.81 -3.81124 4.78074 0
M  V30 20237 H 1877.98 -3.90935 5.76318 0
M  V30 20238 H 1875.61 -3.99312 6.4688 0
M  V30 20239 N 1877.19 -0.855519 -1.32358 0
M  V30 20240 C 1878.12 -0.258029 -2.27743 0
M  V30 20241 C 1879.13 0.570733 -1.52468 0
M  V30 20242 O 1880.32 0.395082 -1.74073 0
M  V30 20243 C 1877.42 0.653958 -3.32531 0
M  V30 20244 C 1876.59 -0.139145 -4.37179 0
M  V30 20245 C 1875.65 0.698738 -5.2154 0
M  V30 20246 O 1874.68 0.131945 -5.69047 0
M  V30 20247 N 1875.88 2.01331 -5.44468 0
M  V30 20248 H 1878.65 -1.07766 -2.79654 0
M  V30 20249 H 1876.21 -0.715584 -1.45227 0
M  V30 20250 H 1878.2 1.21985 -3.85878 0
M  V30 20251 H 1876.77 1.37427 -2.80771 0
M  V30 20252 H 1875.99 -0.886466 -3.84103 0
M  V30 20253 H 1877.28 -0.683873 -5.04183 0
M  V30 20254 H 1876.68 2.49712 -5.07602 0
M  V30 20255 H 1875.23 2.52732 -6.00808 0
M  V30 20256 N 1878.67 1.45167 -0.61354 0
M  V30 20257 C 1879.91 2.04081 -0.114146 0
M  V30 20258 C 1880.27 1.47081 1.23414 0
M  V30 20259 O 1881.47 1.97386 1.82461 0
M  V30 20260 C 1879.74 3.57307 -0.0817425 0
M  V30 20261 S 1881.3 4.37357 0.355593 0
M  V30 20262 H 1878.12 0.709061 -0.0524763 0
M  V30 20263 H 1880.72 1.77795 -0.81298 0
M  V30 20264 H 1879.42 3.96302 -1.06645 0
M  V30 20265 H 1878.96 3.88177 0.638898 0
M  V30 20266 H 1880.97 4.69566 1.6038 0
M  V30 20267 N 1880.14 0.353044 1.53595 0
M  V30 20268 C 1881.39 -0.240073 2.00669 0
M  V30 20269 C 1881.71 -1.50303 1.24234 0
M  V30 20270 O 1880.98 -1.92709 0.352118 0
M  V30 20271 H 1879.56 -0.0917016 0.74135 0
M  V30 20272 H 1882.22 0.47639 1.88988 0
M  V30 20273 H 1881.32 -0.475869 3.08451 0
M  V30 20274 N 1881.62 -1.57387 0.0818932 0
M  V30 20275 C 1882.57 -2.13292 -0.881772 0
M  V30 20276 C 1883.54 -1.04801 -1.28864 0
M  V30 20277 O 1884.72 -1.32519 -1.37272 0
M  V30 20278 C 1881.86 -2.70708 -2.14035 0
M  V30 20279 C 1880.98 -3.93388 -1.78522 0
M  V30 20280 C 1880.11 -4.39013 -2.99067 0
M  V30 20281 C 1879.15 -5.54315 -2.59617 0
M  V30 20282 N 1878.29 -5.94853 -3.72954 0
M  V30 20283 H 1883.13 -2.95328 -0.398167 0
M  V30 20284 H 1880.66 -1.45934 -0.184876 0
M  V30 20285 H 1882.62 -3.0211 -2.87724 0
M  V30 20286 H 1881.25 -1.91421 -2.59919 0
M  V30 20287 H 1880.3 -3.68384 -0.948546 0
M  V30 20288 H 1881.62 -4.77106 -1.45505 0
M  V30 20289 H 1880.77 -4.72129 -3.81023 0
M  V30 20290 H 1879.51 -3.54169 -3.35284 0
M  V30 20291 H 1878.51 -5.2084 -1.76084 0
M  V30 20292 H 1879.74 -6.40898 -2.24558 0
M  V30 20293 H 1877.69 -5.12957 -4.08915 0
M  V30 20294 H 1877.6 -6.73335 -3.43739 0
M  V30 20295 H 1878.87 -6.32595 -4.5546 0
M  V30 20296 N 1883.1 0.191729 -1.56429 0
M  V30 20297 C 1884.35 0.909797 -1.80464 0
M  V30 20298 C 1884.67 1.83652 -0.655516 0
M  V30 20299 O 1883.94 1.93169 0.325946 0
M  V30 20300 H 1882.52 0.338944 -0.665677 0
M  V30 20301 H 1885.18 0.196432 -1.93908 0
M  V30 20302 H 1884.28 1.49891 -2.7375 0
M  V30 20303 N 1884.58 1.50751 0.459565 0
M  V30 20304 C 1885.99 1.38432 0.794269 0
M  V30 20305 C 1886.19 0.449353 1.96426 0
M  V30 20306 O 1885.25 -0.103761 2.52287 0
M  V30 20307 C 1886.56 2.80034 1.09551 0
M  V30 20308 C 1888.11 2.8903 1.20127 0
M  V30 20309 C 1888.59 4.3149 1.53558 0
M  V30 20310 N 1890.08 4.34494 1.60527 0
M  V30 20311 C 1890.81 5.41732 1.87921 0
M  V30 20312 N 1890.31 6.59161 2.13258 0
M  V30 20313 N 1892.1 5.29187 1.89519 0
M  V30 20314 H 1884.25 2.10106 -0.311312 0
M  V30 20315 H 1886.51 0.944884 -0.0767974 0
M  V30 20316 H 1886.22 3.50342 0.308751 0
M  V30 20317 H 1886.09 3.17992 2.02882 0
M  V30 20318 H 1888.48 2.18934 1.97869 0
M  V30 20319 H 1888.56 2.546 0.247486 0
M  V30 20320 H 1888.21 5.02128 0.763522 0
M  V30 20321 H 1888.14 4.63416 2.50106 0
M  V30 20322 H 1890.63 3.49824 1.42939 0
M  V30 20323 H 1890.94 7.3669 2.33468 0
M  V30 20324 H 1889.29 6.62315 2.10626 0
M  V30 20325 H 1892.48 4.36439 1.69229 0
M  V30 20326 H 1892.65 6.12846 2.10532 0
M  V30 20327 N 1886.06 -0.713531 1.40522 0
M  V30 20328 C 1887.33 -1.46672 1.29409 0
M  V30 20329 C 1887.71 -2.10922 -0.0866293 0
M  V30 20330 O 1887.06 -2.00303 -1.09959 0
M  V30 20331 C 1887.27 -2.50076 2.4344 0
M  V30 20332 C 1888.62 -3.15848 2.8377 0
M  V30 20333 O 1889.64 -2.60396 2.43048 0
M  V30 20334 O 1888.5 -4.16238 3.5413 0
M  V30 20335 H 1885.6 -0.652333 0.508322 0
M  V30 20336 H 1888.14 -0.745531 1.52446 0
M  V30 20337 H 1886.91 -2.01129 3.35653 0
M  V30 20338 H 1886.54 -3.29728 2.22183 0
M  V30 20339 N 1887.53 -1.26053 -0.945962 0
M  V30 20340 C 1888.46 -1.09687 -2.06134 0
M  V30 20341 C 1889.44 -0.00341513 -1.701 0
M  V30 20342 O 1890.63 -0.174559 -1.93414 0
M  V30 20343 C 1887.76 -0.724007 -3.3967 0
M  V30 20344 C 1886.71 -1.76866 -3.89747 0
M  V30 20345 C 1886.04 -1.25025 -5.19878 0
M  V30 20346 C 1887.34 -3.16923 -4.15159 0
M  V30 20347 H 1889.03 -2.02986 -2.20084 0
M  V30 20348 H 1886.58 -0.977346 -1.05754 0
M  V30 20349 H 1888.53 -0.596411 -4.17158 0
M  V30 20350 H 1887.26 0.244695 -3.25682 0
M  V30 20351 H 1885.92 -1.88485 -3.14435 0
M  V30 20352 H 1885.56 -0.271527 -5.02267 0
M  V30 20353 H 1885.26 -1.94853 -5.54352 0
M  V30 20354 H 1886.79 -1.13523 -5.99954 0
M  V30 20355 H 1888.2 -3.08409 -4.83277 0
M  V30 20356 H 1886.6 -3.84299 -4.60906 0
M  V30 20357 H 1887.67 -3.63337 -3.21114 0
M  V30 20358 N 1889.01 1.14984 -1.07779 0
M  V30 20359 C 1890.26 1.85506 -0.802 0
M  V30 20360 C 1890.58 1.82981 0.674026 0
M  V30 20361 O 1889.85 1.27376 1.48836 0
M  V30 20362 H 1888.43 0.686845 -0.293689 0
M  V30 20363 H 1891.09 1.39368 -1.36244 0
M  V30 20364 H 1890.19 2.90518 -1.14042 0
M  V30 20365 N 1890.49 0.862526 1.31902 0
M  V30 20366 C 1891.74 0.469775 1.96976 0
M  V30 20367 C 1892.06 -0.976339 1.6822 0
M  V30 20368 O 1891.32 -1.70131 0.967153 0
M  V30 20369 C 1891.62 0.664872 3.51161 0
M  V30 20370 C 1891.28 2.08264 3.99921 0
M  V30 20371 C 1889.95 2.47039 4.12947 0
M  V30 20372 C 1892.3 3.00762 4.25666 0
M  V30 20373 C 1889.63 3.77568 4.49065 0
M  V30 20374 C 1891.98 4.30797 4.63245 0
M  V30 20375 C 1890.64 4.69496 4.74478 0
M  V30 20376 H 1889.91 0.171903 0.720785 0
M  V30 20377 H 1892.56 1.09409 1.57169 0
M  V30 20378 H 1890.86 -0.0426255 3.91777 0
M  V30 20379 H 1892.56 0.340921 3.99548 0
M  V30 20380 H 1889.15 1.77158 3.90273 0
M  V30 20381 H 1893.34 2.72034 4.15104 0
M  V30 20382 H 1888.59 4.07323 4.55958 0
M  V30 20383 H 1892.77 5.02527 4.8212 0
M  V30 20384 H 1890.39 5.70682 5.02221 0
M  V30 20385 N 1891.97 -1.4484 0.62123 0
M  V30 20386 C 1893.22 -2.01734 0.121544 0
M  V30 20387 C 1893.54 -1.49041 -1.25745 0
M  V30 20388 O 1892.81 -0.690056 -1.83344 0
M  V30 20389 H 1891.39 -0.745822 0.0419419 0
M  V30 20390 H 1894.05 -1.77467 0.805702 0
M  V30 20391 H 1893.15 -3.11993 0.0816882 0
M  V30 20392 N 1893.45 -0.361184 -1.53405 0
M  V30 20393 C 1894.67 0.233383 -2.06083 0
M  V30 20394 C 1895.1 1.42029 -1.23326 0
M  V30 20395 O 1894.45 1.79551 -0.251249 0
M  V30 20396 C 1894.5 0.609243 -3.55416 0
M  V30 20397 O 1893.61 1.70705 -3.75411 0
M  V30 20398 H 1892.95 0.035021 -0.663076 0
M  V30 20399 H 1895.48 -0.520514 -1.97868 0
M  V30 20400 H 1895.49 0.881483 -3.98364 0
M  V30 20401 H 1894.16 -0.25866 -4.15095 0
M  V30 20402 H 1892.74 1.4307 -3.44362 0
M  V30 20403 N 1894.92 1.57341 -0.0902386 0
M  V30 20404 C 1896.17 1.93352 0.574273 0
M  V30 20405 C 1896.49 0.97374 1.6964 0
M  V30 20406 O 1897.69 1.22737 2.42173 0
M  V30 20407 C 1896.15 3.43536 1.07289 0
M  V30 20408 C 1895.76 4.47996 -0.0192163 0
M  V30 20409 C 1897.5 3.88516 1.71042 0
M  V30 20410 C 1895.41 5.89329 0.494487 0
M  V30 20411 H 1894.34 0.721711 0.218287 0
M  V30 20412 H 1896.99 1.82753 -0.165456 0
M  V30 20413 H 1895.37 3.49271 1.86616 0
M  V30 20414 H 1896.54 4.53899 -0.794527 0
M  V30 20415 H 1894.86 4.12595 -0.561628 0
M  V30 20416 H 1897.46 4.91505 2.1054 0
M  V30 20417 H 1897.8 3.26896 2.57769 0
M  V30 20418 H 1898.33 3.85462 0.983058 0
M  V30 20419 H 1895.07 6.54638 -0.336054 0
M  V30 20420 H 1894.59 5.86908 1.23691 0
M  V30 20421 H 1896.27 6.39763 0.965014 0
M  V30 20422 N 1896.4 -0.183431 1.56529 0
M  V30 20423 C 1897.33 -1.22973 1.98494 0
M  V30 20424 C 1898.31 -1.46837 0.858653 0
M  V30 20425 O 1899.5 -1.58377 1.12385 0
M  V30 20426 C 1896.63 -2.57138 2.33446 0
M  V30 20427 C 1895.58 -2.47865 3.48922 0
M  V30 20428 C 1894.91 -3.8641 3.69582 0
M  V30 20429 C 1896.21 -1.99371 4.82751 0
M  V30 20430 H 1897.9 -0.880938 2.86147 0
M  V30 20431 H 1895.45 -0.422321 1.37668 0
M  V30 20432 H 1897.4 -3.30527 2.614 0
M  V30 20433 H 1896.13 -2.93781 1.42689 0
M  V30 20434 H 1894.78 -1.76932 3.21077 0
M  V30 20435 H 1894.43 -4.20426 2.76136 0
M  V30 20436 H 1894.13 -3.81077 4.47274 0
M  V30 20437 H 1895.66 -4.61403 3.99924 0
M  V30 20438 H 1897.07 -2.62526 5.0966 0
M  V30 20439 H 1895.47 -2.05014 5.63994 0
M  V30 20440 H 1896.54 -0.947442 4.75554 0
M  V30 20441 N 1897.88 -1.50992 -0.451564 0
M  V30 20442 C 1898.83 -1.71831 -1.5677 0
M  V30 20443 C 1899.82 -0.584366 -1.59002 0
M  V30 20444 O 1901.03 -0.765385 -1.62917 0
M  V30 20445 H 1897.4 -0.542689 -0.52057 0
M  V30 20446 H 1899.37 -2.6542 -1.36363 0
M  V30 20447 C 1898.12 -1.84752 -2.94554 0
M  V30 20448 H 1897.45 -2.71405 -2.93563 0
M  V30 20449 H 1898.89 -2.0335 -3.72055 0
M  V30 20450 C 1897.35 -0.603808 -3.31445 0
M  V30 20451 O 1897.88 0.248099 -4.00933 0
M  V30 20452 N 1896.08 -0.452069 -2.87062 0
M  V30 20453 H 1895.63 -1.14638 -2.30686 0
M  V30 20454 H 1895.59 0.378877 -3.12109 0
M  V30 20455 N 1899.36 0.706069 -1.40899 0
M  V30 20456 C 1900.61 1.46604 -1.39691 0
M  V30 20457 C 1900.93 1.945 -0.00244032 0
M  V30 20458 O 1900.19 1.69172 0.983828 0
M  V30 20459 C 1900.49 2.70045 -2.34116 0
M  V30 20460 C 1900.15 2.40863 -3.81177 0
M  V30 20461 C 1898.82 2.32615 -4.21241 0
M  V30 20462 C 1901.17 2.16582 -4.74069 0
M  V30 20463 C 1898.5 1.98167 -5.5222 0
M  V30 20464 C 1900.85 1.83645 -6.05357 0
M  V30 20465 C 1899.51 1.73885 -6.44454 0
M  V30 20466 H 1898.78 0.536463 -0.511164 0
M  V30 20467 H 1901.43 0.807941 -1.73622 0
M  V30 20468 H 1899.73 3.40738 -1.93403 0
M  V30 20469 H 1901.43 3.2816 -2.3046 0
M  V30 20470 H 1898.02 2.48173 -3.49439 0
M  V30 20471 H 1902.2 2.21905 -4.43928 0
M  V30 20472 H 1897.46 1.89155 -5.81404 0
M  V30 20473 H 1901.63 1.63873 -6.76845 0
M  V30 20474 H 1899.26 1.46959 -7.4586 0
M  V30 20475 N 1900.84 1.26553 0.939264 0
M  V30 20476 C 1902.06 1.14993 1.72001 0
M  V30 20477 C 1902.48 -0.29462 1.86487 0
M  V30 20478 O 1901.84 -1.20158 1.37362 0
M  V30 20479 C 1901.89 1.81598 3.12577 0
M  V30 20480 O 1901.61 3.20408 2.98781 0
M  V30 20481 C 1903.11 1.76017 4.06858 0
M  V30 20482 H 1900.33 0.400347 0.538482 0
M  V30 20483 H 1902.87 1.67209 1.17735 0
M  V30 20484 H 1901.03 1.33316 3.63739 0
M  V30 20485 H 1901.44 3.53397 3.8757 0
M  V30 20486 H 1902.92 2.27255 5.0305 0
M  V30 20487 H 1903.39 0.727075 4.3314 0
M  V30 20488 H 1904 2.2386 3.61617 0
M  V30 20489 N 1902.31 -1.14411 1.08387 0
M  V30 20490 C 1903.54 -1.89307 0.834895 0
M  V30 20491 C 1903.96 -1.78574 -0.612923 0
M  V30 20492 O 1903.31 -1.14494 -1.42118 0
M  V30 20493 C 1903.37 -3.39289 1.24761 0
M  V30 20494 O 1903.09 -3.49725 2.63863 0
M  V30 20495 C 1904.59 -4.31181 1.02947 0
M  V30 20496 H 1901.81 -0.599644 0.301112 0
M  V30 20497 H 1904.35 -1.44897 1.44309 0
M  V30 20498 H 1902.51 -3.81322 0.683524 0
M  V30 20499 H 1902.92 -4.42884 2.80988 0
M  V30 20500 H 1904.39 -5.34789 1.36763 0
M  V30 20501 H 1904.87 -4.39187 -0.0335224 0
M  V30 20502 H 1905.48 -3.94903 1.57898 0
M  V30 20503 N 1903.79 -0.869509 -1.31443 0
M  V30 20504 C 1904.74 -0.323034 -2.28528 0
M  V30 20505 C 1905.71 0.578245 -1.5571 0
M  V30 20506 O 1906.89 0.509983 -1.83858 0
M  V30 20507 C 1904.03 0.469861 -3.41886 0
M  V30 20508 C 1903.15 -0.458883 -4.29556 0
M  V30 20509 C 1902.28 0.348092 -5.30058 0
M  V30 20510 C 1901.32 -0.577109 -6.09373 0
M  V30 20511 N 1900.46 0.193589 -7.01833 0
M  V30 20512 H 1905.3 -1.15614 -2.74659 0
M  V30 20513 H 1902.84 -0.581526 -1.35117 0
M  V30 20514 H 1904.79 0.945338 -4.06349 0
M  V30 20515 H 1903.42 1.26767 -2.96867 0
M  V30 20516 H 1902.48 -1.05281 -3.65541 0
M  V30 20517 H 1903.79 -1.16833 -4.84924 0
M  V30 20518 H 1902.94 0.886098 -6.00194 0
M  V30 20519 H 1901.68 1.09083 -4.75344 0
M  V30 20520 H 1900.69 -1.12687 -5.38128 0
M  V30 20521 H 1901.91 -1.31869 -6.66174 0
M  V30 20522 H 1899.86 0.919147 -6.49529 0
M  V30 20523 H 1899.77 -0.456525 -7.5462 0
M  V30 20524 H 1901.04 0.71284 -7.76234 0
M  V30 20525 N 1905.27 1.44508 -0.628902 0
M  V30 20526 C 1906.52 2.01281 -0.129966 0
M  V30 20527 C 1906.83 1.50041 1.25488 0
M  V30 20528 O 1908.04 1.98927 1.84771 0
M  V30 20529 C 1906.49 3.59442 -0.1816 0
M  V30 20530 C 1906.1 4.19678 -1.56762 0
M  V30 20531 C 1907.85 4.23697 0.260988 0
M  V30 20532 C 1905.75 5.70056 -1.57449 0
M  V30 20533 H 1904.68 0.752667 -0.0448215 0
M  V30 20534 H 1907.33 1.65749 -0.787372 0
M  V30 20535 H 1905.72 3.92261 0.542864 0
M  V30 20536 H 1906.89 3.98399 -2.31549 0
M  V30 20537 H 1905.21 3.67701 -1.9541 0
M  V30 20538 H 1907.8 5.33991 0.275356 0
M  V30 20539 H 1908.15 3.95878 1.28787 0
M  V30 20540 H 1908.68 3.95672 -0.410909 0
M  V30 20541 H 1905.42 6.02606 -2.57966 0
M  V30 20542 H 1904.94 5.93464 -0.869514 0
M  V30 20543 H 1906.62 6.33652 -1.30745 0
M  V30 20544 N 1906.75 0.369315 1.53212 0
M  V30 20545 C 1908 -0.218776 2.00912 0
M  V30 20546 C 1908.32 -1.48977 1.25821 0
M  V30 20547 O 1907.59 -1.92325 0.372538 0
M  V30 20548 H 1906.17 -0.0838334 0.742281 0
M  V30 20549 H 1908.83 0.496408 1.88472 0
M  V30 20550 H 1907.93 -0.443127 3.08938 0
M  V30 20551 N 1908.23 -1.57291 0.0985816 0
M  V30 20552 C 1909.46 -1.98819 -0.57259 0
M  V30 20553 C 1909.87 -0.977787 -1.61508 0
M  V30 20554 O 1909.23 0.0321385 -1.82472 0
M  V30 20555 C 1909.28 -3.40393 -1.21716 0
M  V30 20556 O 1909 -4.37565 -0.216366 0
M  V30 20557 C 1910.5 -3.96943 -1.97361 0
M  V30 20558 H 1907.72 -0.653268 -0.153239 0
M  V30 20559 H 1910.26 -2.03716 0.178898 0
M  V30 20560 H 1908.42 -3.36499 -1.91956 0
M  V30 20561 H 1908.83 -5.20046 -0.68205 0
M  V30 20562 H 1910.31 -4.98144 -2.37816 0
M  V30 20563 H 1910.78 -3.34953 -2.84083 0
M  V30 20564 H 1911.39 -4.0432 -1.3193 0
M  V30 20565 N 1909.71 0.175127 -1.56624 0
M  V30 20566 C 1910.95 0.890605 -1.81418 0
M  V30 20567 C 1911.27 1.82946 -0.674958 0
M  V30 20568 O 1910.54 1.93504 0.305439 0
M  V30 20569 H 1909.12 0.331864 -0.669235 0
M  V30 20570 H 1911.79 0.175855 -1.94105 0
M  V30 20571 H 1910.88 1.46979 -2.75325 0
M  V30 20572 N 1911.18 1.5123 0.44355 0
M  V30 20573 C 1912.12 1.6677 1.55766 0
M  V30 20574 C 1913.09 0.515345 1.54217 0
M  V30 20575 O 1914.28 0.738395 1.73436 0
M  V30 20576 C 1911.41 1.67558 2.9435 0
M  V30 20577 C 1910.45 2.88685 3.13948 0
M  V30 20578 S 1911.28 4.49593 2.90907 0
M  V30 20579 C 1912.44 4.53116 4.31783 0
M  V30 20580 H 1912.67 2.61006 1.42349 0
M  V30 20581 H 1910.21 1.40836 0.632816 0
M  V30 20582 H 1912.16 1.68697 3.74235 0
M  V30 20583 H 1910.83 0.745103 3.05134 0
M  V30 20584 H 1910.02 2.8562 4.15256 0
M  V30 20585 H 1909.62 2.85256 2.41879 0
M  V30 20586 H 1911.91 4.28374 5.24882 0
M  V30 20587 H 1912.86 5.54895 4.39884 0
M  V30 20588 H 1913.26 3.82508 4.15148 0
M  V30 20589 N 1912.66 -0.698586 1.41271 0
M  V30 20590 C 1913.91 -1.45573 1.40189 0
M  V30 20591 C 1914.23 -1.94997 0.0108379 0
M  V30 20592 O 1913.5 -1.715 -0.946822 0
M  V30 20593 H 1912.08 -0.540134 0.516008 0
M  V30 20594 H 1914.74 -0.827048 1.76482 0
M  V30 20595 H 1913.84 -2.32036 2.08724 0
M  V30 20596 N 1914.14 -1.27049 -0.93254 0
M  V30 20597 C 1915.05 -1.11156 -2.06595 0
M  V30 20598 C 1916.07 -0.0428245 -1.73947 0
M  V30 20599 O 1917.24 -0.248326 -1.99863 0
M  V30 20600 C 1914.31 -0.755297 -3.38373 0
M  V30 20601 C 1913.37 -1.90439 -3.84749 0
M  V30 20602 C 1912.6 -1.56502 -5.10238 0
M  V30 20603 O 1912.82 -0.470696 -5.68455 0
M  V30 20604 O 1911.76 -2.40262 -5.51868 0
M  V30 20605 H 1915.58 -2.0626 -2.22914 0
M  V30 20606 H 1913.17 -1.06191 -1.05089 0
M  V30 20607 H 1915.05 -0.569728 -4.17531 0
M  V30 20608 H 1913.73 0.166262 -3.23273 0
M  V30 20609 H 1912.63 -2.14498 -3.06499 0
M  V30 20610 H 1913.97 -2.80598 -4.04383 0
M  V30 20611 N 1915.62 1.13835 -1.08993 0
M  V30 20612 C 1916.55 2.18781 -0.683177 0
M  V30 20613 C 1917.56 1.60499 0.272748 0
M  V30 20614 O 1918.75 1.78401 0.059482 0
M  V30 20615 C 1915.85 3.38897 0.0146723 0
M  V30 20616 C 1915.02 4.26697 -0.961666 0
M  V30 20617 C 1914.08 5.25355 -0.298041 0
M  V30 20618 O 1913.11 5.61312 -0.944303 0
M  V30 20619 N 1914.31 5.7268 0.949645 0
M  V30 20620 H 1917.08 2.54293 -1.58605 0
M  V30 20621 H 1914.64 1.29114 -0.976792 0
M  V30 20622 H 1916.63 4.01965 0.469724 0
M  V30 20623 H 1915.2 3.01661 0.819722 0
M  V30 20624 H 1914.42 3.60473 -1.5954 0
M  V30 20625 H 1915.71 4.82218 -1.62305 0
M  V30 20626 H 1915.11 5.45606 1.49433 0
M  V30 20627 H 1913.66 6.37707 1.34809 0
M  V30 20628 N 1917.1 0.876467 1.3098 0
M  V30 20629 C 1918.03 0.281625 2.26456 0
M  V30 20630 C 1919.01 -0.592945 1.51403 0
M  V30 20631 O 1920.19 -0.544929 1.80452 0
M  V30 20632 C 1917.32 -0.600618 3.33332 0
M  V30 20633 C 1916.36 0.203478 4.26014 0
M  V30 20634 S 1917.2 1.58623 5.11468 0
M  V30 20635 C 1918.35 0.710283 6.21857 0
M  V30 20636 H 1918.59 1.09094 2.76561 0
M  V30 20637 H 1916.12 0.675375 1.38845 0
M  V30 20638 H 1918.08 -1.10392 3.95378 0
M  V30 20639 H 1916.74 -1.38394 2.81968 0
M  V30 20640 H 1915.93 -0.469415 5.01809 0
M  V30 20641 H 1915.53 0.639107 3.68499 0
M  V30 20642 H 1917.82 -0.0763736 6.77457 0
M  V30 20643 H 1918.77 1.43957 6.93312 0
M  V30 20644 H 1919.18 0.274955 5.6383 0
M  V30 20645 N 1918.57 -1.44173 0.636557 0
M  V30 20646 C 1919.5 -2.33442 -0.0518719 0
M  V30 20647 C 1920.48 -1.48519 -0.829226 0
M  V30 20648 O 1921.67 -1.77225 -0.794028 0
M  V30 20649 C 1918.8 -3.31663 -1.03038 0
M  V30 20650 C 1917.75 -4.26447 -0.364286 0
M  V30 20651 C 1917.08 -5.14577 -1.45308 0
M  V30 20652 C 1918.38 -5.17133 0.732884 0
M  V30 20653 H 1920.07 -2.91255 0.693589 0
M  V30 20654 H 1917.62 -1.40049 0.33499 0
M  V30 20655 H 1919.57 -3.93002 -1.52077 0
M  V30 20656 H 1918.3 -2.72071 -1.80679 0
M  V30 20657 H 1916.96 -3.66448 0.105505 0
M  V30 20658 H 1916.6 -4.51334 -2.22051 0
M  V30 20659 H 1916.3 -5.78807 -1.01274 0
M  V30 20660 H 1917.83 -5.78788 -1.94517 0
M  V30 20661 H 1919.24 -5.72376 0.325363 0
M  V30 20662 H 1917.64 -5.89994 1.09669 0
M  V30 20663 H 1918.71 -4.5782 1.59779 0
M  V30 20664 N 1920.05 -0.377435 -1.53014 0
M  V30 20665 C 1921.28 0.211512 -2.06319 0
M  V30 20666 C 1921.7 1.40713 -1.24825 0
M  V30 20667 O 1921.06 1.79274 -0.270279 0
M  V30 20668 C 1921.11 0.571512 -3.56042 0
M  V30 20669 O 1920.21 1.66713 -3.77201 0
M  V30 20670 H 1919.55 0.0279862 -0.66341 0
M  V30 20671 H 1922.08 -0.541471 -1.97305 0
M  V30 20672 H 1922.09 0.839182 -3.99277 0
M  V30 20673 H 1920.77 -0.302672 -4.14797 0
M  V30 20674 H 1919.34 1.3941 -3.4586 0
M  V30 20675 N 1921.53 1.57237 -0.106922 0
M  V30 20676 C 1922.95 1.57634 0.249708 0
M  V30 20677 C 1923.15 1.11888 1.67581 0
M  V30 20678 O 1922.2 0.80073 2.39467 0
M  V30 20679 C 1923.52 3.00688 0.0273757 0
M  V30 20680 C 1925.06 3.12858 0.0942116 0
M  V30 20681 C 1925.54 4.5789 -0.100275 0
M  V30 20682 N 1927.03 4.63177 -0.045837 0
M  V30 20683 C 1927.76 5.73144 -0.171398 0
M  V30 20684 N 1927.26 6.91903 -0.352455 0
M  V30 20685 N 1929.05 5.61989 -0.111827 0
M  V30 20686 H 1921.2 1.85278 -1.03855 0
M  V30 20687 H 1923.47 0.855717 -0.407985 0
M  V30 20688 H 1923.17 3.38399 -0.958063 0
M  V30 20689 H 1923.05 3.6937 0.764546 0
M  V30 20690 H 1925.43 2.75012 1.07016 0
M  V30 20691 H 1925.52 2.46743 -0.674643 0
M  V30 20692 H 1925.16 4.96433 -1.07315 0
M  V30 20693 H 1925.09 5.22081 0.688418 0
M  V30 20694 H 1927.58 3.7779 0.0910806 0
M  V30 20695 H 1927.89 7.7155 -0.439454 0
M  V30 20696 H 1926.24 6.93915 -0.388274 0
M  V30 20697 H 1929.43 4.68091 0.0285732 0
M  V30 20698 H 1929.6 6.47649 -0.213127 0
M  V30 20699 N 1923.01 -0.166818 1.56715 0
M  V30 20700 C 1923.92 -1.22632 1.99996 0
M  V30 20701 C 1924.93 -1.4818 0.912068 0
M  V30 20702 O 1926.11 -1.6024 1.22005 0
M  V30 20703 C 1923.18 -2.54444 2.35498 0
M  V30 20704 C 1922.24 -2.36718 3.58138 0
M  V30 20705 C 1921.47 -3.62244 3.91937 0
M  V30 20706 O 1921.69 -4.67609 3.26646 0
M  V30 20707 O 1920.63 -3.56087 4.85269 0
M  V30 20708 H 1924.45 -0.888926 2.90399 0
M  V30 20709 H 1922.04 -0.374032 1.44642 0
M  V30 20710 H 1923.92 -3.32191 2.59281 0
M  V30 20711 H 1922.59 -2.87753 1.48256 0
M  V30 20712 H 1921.5 -1.56987 3.39567 0
M  V30 20713 H 1922.83 -2.08332 4.45936 0
M  V30 20714 N 1924.49 -1.51463 -0.435524 0
M  V30 20715 C 1925.72 -1.67787 -1.20544 0
M  V30 20716 C 1926.12 -0.375521 -1.85436 0
M  V30 20717 O 1925.47 0.656051 -1.71586 0
M  V30 20718 C 1925.53 -2.73801 -2.32966 0
M  V30 20719 C 1925.19 -4.16346 -1.88427 0
M  V30 20720 C 1926.19 -5.01066 -1.38669 0
M  V30 20721 C 1923.88 -4.62455 -1.96063 0
M  V30 20722 C 1925.87 -6.29955 -0.971368 0
M  V30 20723 C 1923.56 -5.9134 -1.54142 0
M  V30 20724 C 1924.55 -6.74918 -1.04761 0
M  V30 20725 O 1924.24 -8.01393 -0.634352 0
M  V30 20726 H 1923.97 -0.566192 -0.369328 0
M  V30 20727 H 1926.53 -1.98654 -0.522069 0
M  V30 20728 H 1924.76 -2.38253 -3.04586 0
M  V30 20729 H 1926.45 -2.78987 -2.94824 0
M  V30 20730 H 1927.21 -4.66645 -1.32163 0
M  V30 20731 H 1923.09 -3.97523 -2.33445 0
M  V30 20732 H 1926.64 -6.95141 -0.585236 0
M  V30 20733 H 1922.53 -6.25274 -1.60319 0
M  V30 20734 H 1923.3 -8.14964 -0.760039 0
M  V30 20735 N 1925.96 0.691085 -1.4164 0
M  V30 20736 C 1927.19 1.47764 -1.44393 0
M  V30 20737 C 1927.6 1.89137 -0.0489239 0
M  V30 20738 O 1926.95 1.57642 0.943111 0
M  V30 20739 C 1927.01 2.76837 -2.29351 0
M  V30 20740 C 1926.67 2.5764 -3.77453 0
M  V30 20741 C 1927.67 2.23295 -4.69505 0
M  V30 20742 C 1925.35 2.73141 -4.21544 0
M  V30 20743 C 1927.35 2.04696 -6.03638 0
M  V30 20744 C 1925.03 2.54158 -5.5574 0
M  V30 20745 C 1926.03 2.19987 -6.46603 0
M  V30 20746 O 1925.72 2.01173 -7.78322 0
M  V30 20747 H 1925.45 0.461744 -0.493729 0
M  V30 20748 H 1928.01 0.857998 -1.86621 0
M  V30 20749 H 1926.24 3.41223 -1.81944 0
M  V30 20750 H 1927.93 3.38659 -2.23752 0
M  V30 20751 H 1928.69 2.1093 -4.36731 0
M  V30 20752 H 1924.57 2.98721 -3.51122 0
M  V30 20753 H 1928.11 1.77947 -6.74523 0
M  V30 20754 H 1924.01 2.66115 -5.88093 0
M  V30 20755 H 1924.78 2.15901 -7.89512 0
M  V30 20756 N 1927.44 1.27542 0.925789 0
M  V30 20757 C 1928.67 1.16641 1.70524 0
M  V30 20758 C 1929.08 -0.279149 1.87129 0
M  V30 20759 O 1928.42 -1.20171 1.38941 0
M  V30 20760 C 1928.49 1.77978 3.12352 0
M  V30 20761 C 1928.15 3.27168 3.19077 0
M  V30 20762 C 1929.15 4.23775 3.01182 0
M  V30 20763 C 1926.83 3.67911 3.41975 0
M  V30 20764 C 1928.83 5.59102 3.06077 0
M  V30 20765 C 1926.51 5.03367 3.46504 0
M  V30 20766 C 1927.51 5.98773 3.28573 0
M  V30 20767 O 1927.2 7.3176 3.3284 0
M  V30 20768 H 1926.93 0.406366 0.540225 0
M  V30 20769 H 1929.48 1.68956 1.16803 0
M  V30 20770 H 1927.71 1.20143 3.67563 0
M  V30 20771 H 1929.4 1.61765 3.72273 0
M  V30 20772 H 1930.17 3.93635 2.83331 0
M  V30 20773 H 1926.05 2.94125 3.54981 0
M  V30 20774 H 1929.59 6.33547 2.92 0
M  V30 20775 H 1925.49 5.33162 3.63879 0
M  V30 20776 H 1926.26 7.40233 3.49282 0
M  V30 20777 N 1928.92 -1.13255 1.09595 0
M  V30 20778 C 1929.85 -2.20827 0.758791 0
M  V30 20779 C 1930.83 -1.68034 -0.264325 0
M  V30 20780 O 1932.02 -1.93751 -0.132005 0
M  V30 20781 C 1929.15 -3.46831 0.180424 0
M  V30 20782 C 1928.1 -4.12724 1.13325 0
M  V30 20783 C 1927.43 -5.33075 0.416504 0
M  V30 20784 C 1928.73 -4.59862 2.47637 0
M  V30 20785 H 1930.42 -2.49287 1.65821 0
M  V30 20786 H 1927.97 -1.19818 0.798734 0
M  V30 20787 H 1929.92 -4.21346 -0.0675313 0
M  V30 20788 H 1928.64 -3.17773 -0.754194 0
M  V30 20789 H 1927.3 -3.40179 1.36651 0
M  V30 20790 H 1926.95 -5.00281 -0.522308 0
M  V30 20791 H 1926.65 -5.78109 1.05183 0
M  V30 20792 H 1928.17 -6.10344 0.17689 0
M  V30 20793 H 1929.59 -5.25791 2.28509 0
M  V30 20794 H 1927.99 -5.15642 3.06974 0
M  V30 20795 H 1929.06 -3.74294 3.08273 0
M  V30 20796 N 1930.4 -0.883401 -1.30514 0
M  V30 20797 C 1931.65 -0.500062 -1.95816 0
M  V30 20798 C 1931.97 0.953596 -1.70093 0
M  V30 20799 O 1931.24 1.67027 -1.02365 0
M  V30 20800 H 1929.82 -0.181936 -0.724506 0
M  V30 20801 H 1932.48 -1.12613 -1.59073 0
M  V30 20802 H 1931.58 -0.668998 -3.04846 0
M  V30 20803 N 1931.88 1.43833 -0.644194 0
M  V30 20804 C 1933.1 2.0627 -0.161397 0
M  V30 20805 C 1933.52 1.4823 1.16933 0
M  V30 20806 O 1932.88 0.610133 1.71999 0
M  V30 20807 C 1932.93 3.61459 -0.0545357 0
M  V30 20808 O 1932.65 4.17339 -1.33265 0
M  V30 20809 C 1934.15 4.40955 0.455411 0
M  V30 20810 H 1931.37 0.665503 -0.0857112 0
M  V30 20811 H 1933.91 1.84488 -0.882291 0
M  V30 20812 H 1932.07 3.82457 0.616868 0
M  V30 20813 H 1932.48 5.10916 -1.18597 0
M  V30 20814 H 1933.96 5.49916 0.479159 0
M  V30 20815 H 1934.43 4.13333 1.485 0
M  V30 20816 H 1935.04 4.24905 -0.18319 0
M  V30 20817 N 1933.35 0.385544 1.52811 0
M  V30 20818 C 1934.29 -0.486433 2.23979 0
M  V30 20819 C 1935.3 -1.02981 1.2609 0
M  V30 20820 O 1936.49 -0.932779 1.52189 0
M  V30 20821 C 1933.59 -1.68645 2.93959 0
M  V30 20822 C 1932.76 -1.2711 4.18523 0
M  V30 20823 C 1931.82 -2.33538 4.71536 0
M  V30 20824 O 1930.85 -1.95101 5.34719 0
M  V30 20825 N 1932.05 -3.65401 4.51068 0
M  V30 20826 H 1934.81 0.12327 2.99446 0
M  V30 20827 H 1932.37 0.211712 1.6051 0
M  V30 20828 H 1934.37 -2.3936 3.26326 0
M  V30 20829 H 1932.94 -2.20257 2.21823 0
M  V30 20830 H 1932.16 -0.392983 3.92236 0
M  V30 20831 H 1933.44 -0.970192 4.99464 0
M  V30 20832 H 1932.84 -3.99393 4.00626 0
M  V30 20833 H 1931.4 -4.32162 4.87934 0
M  V30 20834 N 1934.83 -1.57178 0.115259 0
M  V30 20835 C 1935.76 -2.18134 -0.833042 0
M  V30 20836 C 1936.74 -1.12033 -1.27995 0
M  V30 20837 O 1937.93 -1.40254 -1.34323 0
M  V30 20838 C 1935.06 -2.77778 -2.08463 0
M  V30 20839 C 1934.01 -3.89429 -1.77565 0
M  V30 20840 C 1933.34 -4.35863 -3.09722 0
M  V30 20841 C 1934.64 -5.11701 -1.04687 0
M  V30 20842 H 1936.33 -2.9763 -0.325107 0
M  V30 20843 H 1933.88 -1.43164 -0.154933 0
M  V30 20844 H 1935.83 -3.19079 -2.75258 0
M  V30 20845 H 1934.56 -1.95566 -2.61575 0
M  V30 20846 H 1933.21 -3.48698 -1.13161 0
M  V30 20847 H 1932.86 -3.50515 -3.6076 0
M  V30 20848 H 1932.56 -5.11152 -2.89823 0
M  V30 20849 H 1934.09 -4.79812 -3.77641 0
M  V30 20850 H 1935.5 -5.50045 -1.61628 0
M  V30 20851 H 1933.9 -5.92549 -0.948964 0
M  V30 20852 H 1934.97 -4.84889 -0.032977 0
M  V30 20853 N 1936.31 0.158505 -1.56801 0
M  V30 20854 C 1937.72 0.71972 -1.7227 0
M  V30 20855 C 1938.07 1.822 -0.72784 0
M  V30 20856 O 1937.2 2.1613 0.108043 0
M  V30 20857 C 1937.79 1.31231 -3.12352 0
M  V30 20858 C 1936.35 1.82021 -3.29462 0
M  V30 20859 C 1935.5 0.704157 -2.68211 0
M  V30 20860 H 1938.45 -0.0670395 -1.58558 0
M  V30 20861 H 1938.47 2.18208 -3.11714 0
M  V30 20862 H 1937.98 0.509823 -3.84737 0
M  V30 20863 H 1936.08 2.64873 -2.62056 0
M  V30 20864 H 1936.2 1.95684 -4.37315 0
M  V30 20865 H 1934.56 1.12787 -2.28366 0
M  V30 20866 H 1935.34 -0.0866929 -3.43191 0
M  V30 20867 N 1937.79 1.51692 0.427485 0
M  V30 20868 C 1938.72 1.76668 1.52679 0
M  V30 20869 C 1939.7 0.616865 1.58521 0
M  V30 20870 O 1940.89 0.860595 1.7409 0
M  V30 20871 C 1938.02 1.9007 2.90673 0
M  V30 20872 C 1936.97 3.05566 2.99689 0
M  V30 20873 C 1936.3 3.04165 4.39759 0
M  V30 20874 C 1937.6 4.45359 2.72861 0
M  V30 20875 H 1939.29 2.68717 1.32029 0
M  V30 20876 H 1936.84 1.29306 0.633716 0
M  V30 20877 H 1938.79 2.06125 3.67546 0
M  V30 20878 H 1937.51 0.946769 3.12576 0
M  V30 20879 H 1936.17 2.89231 2.25257 0
M  V30 20880 H 1935.82 2.0653 4.58644 0
M  V30 20881 H 1935.52 3.81727 4.46719 0
M  V30 20882 H 1937.04 3.22326 5.18592 0
M  V30 20883 H 1938.46 4.61993 3.39463 0
M  V30 20884 H 1936.85 5.24701 2.91219 0
M  V30 20885 H 1937.92 4.54717 1.68405 0
M  V30 20886 N 1939.27 -0.683564 1.42004 0
M  V30 20887 C 1940.54 -1.43894 1.32491 0
M  V30 20888 C 1940.92 -2.11058 -0.0418701 0
M  V30 20889 O 1940.27 -2.0259 -1.05686 0
M  V30 20890 C 1940.48 -2.44856 2.48689 0
M  V30 20891 C 1941.83 -3.09758 2.90405 0
M  V30 20892 O 1942.85 -2.55182 2.48516 0
M  V30 20893 O 1941.71 -4.08633 3.6288 0
M  V30 20894 H 1938.81 -0.641404 0.522044 0
M  V30 20895 H 1941.35 -0.713027 1.53994 0
M  V30 20896 H 1940.13 -1.93964 3.39843 0
M  V30 20897 H 1939.75 -3.24941 2.29127 0
M  V30 20898 N 1940.75 -1.28031 -0.919012 0
M  V30 20899 C 1942.16 -1.05624 -1.19649 0
M  V30 20900 C 1942.36 0.204731 -2.00457 0
M  V30 20901 O 1941.42 0.907849 -2.35615 0
M  V30 20902 C 1942.73 -2.3007 -1.93619 0
M  V30 20903 C 1944.28 -2.35196 -2.06523 0
M  V30 20904 C 1944.75 -3.59395 -2.839 0
M  V30 20905 N 1946.24 -3.60004 -2.91464 0
M  V30 20906 C 1946.98 -4.52779 -3.51822 0
M  V30 20907 N 1946.48 -5.55868 -4.13501 0
M  V30 20908 N 1948.27 -4.40385 -3.4931 0
M  V30 20909 H 1940.42 -2.08985 -0.379372 0
M  V30 20910 H 1942.68 -0.919558 -0.230473 0
M  V30 20911 H 1942.39 -3.21907 -1.41665 0
M  V30 20912 H 1942.26 -2.36071 -2.94195 0
M  V30 20913 H 1944.65 -1.4386 -2.57659 0
M  V30 20914 H 1944.73 -2.33194 -1.0514 0
M  V30 20915 H 1944.37 -4.51072 -2.33445 0
M  V30 20916 H 1944.3 -3.58651 -3.85587 0
M  V30 20917 H 1946.8 -2.85455 -2.47637 0
M  V30 20918 H 1947.11 -6.22812 -4.57521 0
M  V30 20919 H 1945.45 -5.597 -4.12021 0
M  V30 20920 H 1948.64 -3.59053 -3.0033 0
M  V30 20921 H 1948.82 -5.12877 -3.96057 0
M  V30 20922 N 1942.22 1.12672 -1.10194 0
M  V30 20923 C 1943.47 1.84127 -0.842833 0
M  V30 20924 C 1943.8 1.8396 0.631594 0
M  V30 20925 O 1943.05 1.27871 1.48147 0
M  V30 20926 C 1943.35 3.31602 -1.33322 0
M  V30 20927 C 1943.02 3.51943 -2.81864 0
M  V30 20928 C 1941.68 3.57202 -3.22428 0
M  V30 20929 C 1944.03 3.59262 -3.77598 0
M  V30 20930 C 1941.36 3.67323 -4.57483 0
M  V30 20931 C 1943.71 3.70911 -5.12452 0
M  V30 20932 C 1942.38 3.74427 -5.52595 0
M  V30 20933 H 1941.65 0.673767 -0.308414 0
M  V30 20934 H 1944.29 1.32968 -1.3781 0
M  V30 20935 H 1942.6 3.85166 -0.717918 0
M  V30 20936 H 1944.3 3.85353 -1.10925 0
M  V30 20937 H 1940.89 3.4851 -2.49477 0
M  V30 20938 H 1945.07 3.54471 -3.47367 0
M  V30 20939 H 1940.33 3.68315 -4.88011 0
M  V30 20940 H 1944.5 3.75518 -5.8648 0
M  V30 20941 H 1942.13 3.82021 -6.5724 0
M  V30 20942 N 1943.7 0.89031 1.30043 0
M  V30 20943 C 1944.63 0.377386 2.3043 0
M  V30 20944 C 1945.61 -0.542607 1.61213 0
M  V30 20945 O 1946.8 -0.455328 1.88787 0
M  V30 20946 C 1943.93 -0.404264 3.44939 0
M  V30 20947 C 1942.88 0.424448 4.2589 0
M  V30 20948 C 1942.21 -0.48413 5.32504 0
M  V30 20949 C 1943.51 1.6694 4.94902 0
M  V30 20950 H 1945.2 1.21628 2.73582 0
M  V30 20951 H 1942.75 0.586299 1.31524 0
M  V30 20952 H 1944.7 -0.773769 4.14235 0
M  V30 20953 H 1943.42 -1.27685 3.00606 0
M  V30 20954 H 1942.08 0.776162 3.58289 0
M  V30 20955 H 1941.73 -1.35458 4.84417 0
M  V30 20956 H 1941.43 0.0665939 5.87562 0
M  V30 20957 H 1942.96 -0.850034 6.04654 0
M  V30 20958 H 1944.37 1.37017 5.56686 0
M  V30 20959 H 1942.77 2.16073 5.59851 0
M  V30 20960 H 1943.84 2.41077 4.20725 0
M  V30 20961 N 1945.18 -1.43489 0.651812 0
M  V30 20962 C 1946.4 -2.06696 0.170683 0
M  V30 20963 C 1946.83 -1.48527 -1.15418 0
M  V30 20964 O 1946.19 -0.594665 -1.7127 0
M  V30 20965 C 1946.24 -3.60484 0.0915457 0
M  V30 20966 O 1945.34 -4.01388 -0.946644 0
M  V30 20967 H 1944.68 -0.65728 0.0942276 0
M  V30 20968 H 1947.21 -1.84018 0.89434 0
M  V30 20969 H 1947.22 -4.07896 -0.0922419 0
M  V30 20970 H 1945.9 -4.02199 1.0587 0
M  V30 20971 H 1944.47 -3.65569 -0.735758 0
M  V30 20972 N 1946.66 -0.393643 -1.52605 0
M  V30 20973 C 1947.9 0.187154 -2.01633 0
M  V30 20974 C 1948.23 1.46451 -1.27993 0
M  V30 20975 O 1947.49 1.92169 -0.370063 0
M  V30 20976 C 1947.79 0.497148 -3.53925 0
M  V30 20977 C 1947.45 -0.689176 -4.45602 0
M  V30 20978 C 1946.11 -1.01462 -4.70382 0
M  V30 20979 C 1948.47 -1.48262 -4.99668 0
M  V30 20980 C 1945.79 -2.13497 -5.46476 0
M  V30 20981 C 1948.15 -2.59361 -5.76987 0
M  V30 20982 C 1946.81 -2.92409 -6.00044 0
M  V30 20983 H 1946.08 0.0684846 -0.737828 0
M  V30 20984 H 1948.73 -0.531882 -1.83965 0
M  V30 20985 H 1947.03 1.29756 -3.6969 0
M  V30 20986 H 1948.73 0.959239 -3.89358 0
M  V30 20987 H 1945.32 -0.425524 -4.26482 0
M  V30 20988 H 1949.5 -1.24443 -4.80445 0
M  V30 20989 H 1944.76 -2.39467 -5.62553 0
M  V30 20990 H 1948.93 -3.21241 -6.17881 0
M  V30 20991 H 1946.56 -3.79341 -6.5879 0
M  V30 20992 N 1948.14 1.57115 -0.123593 0
M  V30 20993 C 1949.37 1.99415 0.540103 0
M  V30 20994 C 1949.77 1.00228 1.60471 0
M  V30 20995 O 1949.12 -0.0123101 1.83696 0
M  V30 20996 C 1949.18 3.38134 1.22088 0
M  V30 20997 C 1948.84 4.5599 0.30367 0
M  V30 20998 C 1949.84 5.17865 -0.459524 0
M  V30 20999 C 1947.52 5.01846 0.213401 0
M  V30 21000 C 1949.52 6.23988 -1.30067 0
M  V30 21001 C 1947.21 6.0783 -0.631375 0
M  V30 21002 C 1948.2 6.68768 -1.38704 0
M  V30 21003 O 1947.89 7.72703 -2.21778 0
M  V30 21004 H 1947.62 0.659781 0.147192 0
M  V30 21005 H 1950.18 2.04343 -0.208128 0
M  V30 21006 H 1948.41 3.29975 2.01628 0
M  V30 21007 H 1950.1 3.64694 1.78195 0
M  V30 21008 H 1950.86 4.8335 -0.399683 0
M  V30 21009 H 1946.74 4.54158 0.791276 0
M  V30 21010 H 1950.29 6.71482 -1.89097 0
M  V30 21011 H 1946.18 6.41774 -0.692592 0
M  V30 21012 H 1946.95 7.8982 -2.1477 0
M  V30 21013 N 1949.61 -0.150187 1.56883 0
M  V30 21014 C 1950.84 -0.877076 1.87059 0
M  V30 21015 C 1951.25 -1.75396 0.709427 0
M  V30 21016 O 1950.59 -1.80711 -0.330043 0
M  V30 21017 C 1950.66 -1.78766 3.11902 0
M  V30 21018 C 1950.32 -1.08826 4.43853 0
M  V30 21019 C 1951.32 -0.443669 5.18003 0
M  V30 21020 C 1949 -1.07872 4.9058 0
M  V30 21021 C 1951 0.201122 6.37083 0
M  V30 21022 C 1948.68 -0.430111 6.09584 0
M  V30 21023 C 1949.68 0.208684 6.82681 0
M  V30 21024 O 1949.37 0.847012 7.99425 0
M  V30 21025 H 1949.1 -0.259157 0.62435 0
M  V30 21026 H 1951.66 -0.148664 2.04861 0
M  V30 21027 H 1949.89 -2.55693 2.901 0
M  V30 21028 H 1951.57 -2.38622 3.28351 0
M  V30 21029 H 1952.34 -0.442872 4.82974 0
M  V30 21030 H 1948.22 -1.56534 4.33611 0
M  V30 21031 H 1951.76 0.700316 6.94076 0
M  V30 21032 H 1947.66 -0.428563 6.44076 0
M  V30 21033 H 1948.43 0.748362 8.15072 0
M  V30 21034 N 1951.09 -1.51916 -0.419434 0
M  V30 21035 C 1952.06 -1.73908 -1.49293 0
M  V30 21036 C 1953.06 -0.60898 -1.48822 0
M  V30 21037 O 1954.25 -0.876745 -1.50528 0
M  V30 21038 C 1951.38 -1.812 -2.88755 0
M  V30 21039 H 1952.57 -2.69732 -1.3109 0
M  V30 21040 H 1950.12 -1.42176 -0.649274 0
M  V30 21041 H 1950.86 -0.872544 -3.12341 0
M  V30 21042 H 1950.64 -2.63348 -2.905 0
M  V30 21043 H 1952.13 -1.99992 -3.66596 0
M  V30 21044 N 1952.57 0.676023 -1.42365 0
M  V30 21045 C 1953.52 1.78219 -1.42204 0
M  V30 21046 C 1954.5 1.582 -0.293546 0
M  V30 21047 O 1955.7 1.68699 -0.535684 0
M  V30 21048 C 1952.83 3.1667 -1.3257 0
M  V30 21049 C 1951.91 3.42317 -2.50359 0
M  V30 21050 N 1952.3 3.38555 -3.75784 0
M  V30 21051 C 1950.6 3.72948 -2.44593 0
M  V30 21052 C 1951.3 3.63652 -4.54018 0
M  V30 21053 N 1950.28 3.84357 -3.8441 0
M  V30 21054 H 1954.08 1.73702 -2.37075 0
M  V30 21055 H 1951.59 0.876812 -1.36696 0
M  V30 21056 H 1953.59 3.95937 -1.30536 0
M  V30 21057 H 1952.25 3.22386 -0.38699 0
M  V30 21058 H 1953.26 3.18485 -4.08396 0
M  V30 21059 H 1949.94 3.85916 -1.59295 0
M  V30 21060 H 1951.33 3.66715 -5.63001 0
M  V30 21061 N 1954.05 1.28517 0.912209 0
M  V30 21062 C 1955.46 1.14251 1.4766 0
M  V30 21063 C 1955.81 -0.266935 1.94376 0
M  V30 21064 O 1954.94 -1.16134 1.82598 0
M  V30 21065 C 1955.53 2.06792 2.6837 0
M  V30 21066 C 1954.09 1.96587 3.20984 0
M  V30 21067 C 1953.24 1.98444 1.93689 0
M  V30 21068 H 1956.19 1.41184 0.724769 0
M  V30 21069 H 1956.21 1.63282 3.43685 0
M  V30 21070 H 1955.72 3.09365 2.34339 0
M  V30 21071 H 1953.82 0.970565 3.59737 0
M  V30 21072 H 1953.93 2.83622 3.86129 0
M  V30 21073 H 1952.3 1.42872 2.10855 0
M  V30 21074 H 1953.08 3.02699 1.61951 0
M  V30 21075 N 1955.53 -1.12086 1.1079 0
M  V30 21076 C 1956.77 -1.83314 0.850901 0
M  V30 21077 C 1957.1 -1.84703 -0.625275 0
M  V30 21078 O 1956.37 -1.31277 -1.45406 0
M  V30 21079 H 1954.95 -0.678817 0.311797 0
M  V30 21080 H 1957.61 -1.35707 1.39891 0
M  V30 21081 H 1956.7 -2.87393 1.21704 0
M  V30 21082 N 1957 -0.897194 -1.29569 0
M  V30 21083 C 1958.25 -0.521834 -1.95661 0
M  V30 21084 C 1958.58 0.931396 -1.70749 0
M  V30 21085 O 1957.83 1.67507 -1.01192 0
M  V30 21086 C 1958.13 -0.757743 -3.49275 0
M  V30 21087 C 1957.8 -2.18794 -3.94259 0
M  V30 21088 C 1956.46 -2.57901 -4.06252 0
M  V30 21089 C 1958.81 -3.11942 -4.17542 0
M  V30 21090 C 1956.14 -3.89341 -4.38897 0
M  V30 21091 C 1958.49 -4.42928 -4.51661 0
M  V30 21092 C 1957.16 -4.81911 -4.61864 0
M  V30 21093 H 1956.43 -0.190953 -0.715974 0
M  V30 21094 H 1959.07 -1.13537 -1.54212 0
M  V30 21095 H 1957.38 -0.0612622 -3.91752 0
M  V30 21096 H 1959.08 -0.446734 -3.98504 0
M  V30 21097 H 1955.67 -1.87443 -3.85439 0
M  V30 21098 H 1959.85 -2.82944 -4.07745 0
M  V30 21099 H 1955.11 -4.19269 -4.44998 0
M  V30 21100 H 1959.28 -5.15133 -4.68627 0
M  V30 21101 H 1956.91 -5.83797 -4.86914 0
M  V30 21102 N 1958.48 1.43142 -0.659413 0
M  V30 21103 C 1959.43 2.27943 0.0508556 0
M  V30 21104 C 1960.42 1.40243 0.788715 0
M  V30 21105 O 1961.61 1.63823 0.670161 0
M  V30 21106 C 1958.74 3.28037 1.01225 0
M  V30 21107 C 1957.82 4.23223 0.272538 0
M  V30 21108 N 1958.21 5.00731 -0.714288 0
M  V30 21109 C 1956.51 4.43038 0.51313 0
M  V30 21110 C 1957.21 5.7014 -1.15391 0
M  V30 21111 N 1956.19 5.41415 -0.486918 0
M  V30 21112 H 1959.99 2.85287 -0.706293 0
M  V30 21113 H 1957.51 1.5492 -0.487201 0
M  V30 21114 H 1959.5 3.87575 1.53594 0
M  V30 21115 H 1958.16 2.72255 1.76939 0
M  V30 21116 H 1959.17 5.0623 -1.09325 0
M  V30 21117 H 1955.85 3.98318 1.25096 0
M  V30 21118 H 1957.24 6.42347 -1.97079 0
M  V30 21119 N 1959.96 0.40173 1.52394 0
M  V30 21120 C 1960.89 -0.41861 2.29717 0
M  V30 21121 C 1961.87 -1.05263 1.33618 0
M  V30 21122 O 1963.06 -1.06304 1.62521 0
M  V30 21123 C 1960.19 -1.5395 3.11314 0
M  V30 21124 C 1959.14 -1.03088 4.154 0
M  V30 21125 C 1958.47 -2.2448 4.85297 0
M  V30 21126 C 1959.77 -0.0900956 5.22222 0
M  V30 21127 H 1961.46 0.226577 2.98541 0
M  V30 21128 H 1959.01 0.110411 1.43576 0
M  V30 21129 H 1960.96 -2.12031 3.64171 0
M  V30 21130 H 1959.68 -2.21246 2.40246 0
M  V30 21131 H 1958.34 -0.472515 3.63542 0
M  V30 21132 H 1957.99 -2.90313 4.10764 0
M  V30 21133 H 1957.69 -1.91103 5.55656 0
M  V30 21134 H 1959.21 -2.83181 5.40963 0
M  V30 21135 H 1960.63 -0.579479 5.70364 0
M  V30 21136 H 1959.03 0.154505 5.99901 0
M  V30 21137 H 1960.1 0.857375 4.7726 0
M  V30 21138 N 1961.44 -1.57047 0.131923 0
M  V30 21139 C 1962.39 -2.17261 -0.830686 0
M  V30 21140 C 1963.38 -1.12538 -1.26616 0
M  V30 21141 O 1964.59 -1.30818 -1.23639 0
M  V30 21142 H 1960.96 -0.695476 -0.286037 0
M  V30 21143 H 1962.93 -2.96903 -0.29848 0
M  V30 21144 C 1961.68 -2.79677 -2.06582 0
M  V30 21145 H 1961 -3.59965 -1.73969 0
M  V30 21146 H 1962.44 -3.2533 -2.71912 0
M  V30 21147 C 1960.9 -1.77413 -2.86402 0
M  V30 21148 O 1961.43 -1.23537 -3.82232 0
M  V30 21149 N 1959.64 -1.47059 -2.50643 0
M  V30 21150 H 1959.19 -1.91062 -1.7278 0
M  V30 21151 H 1959.14 -0.788806 -3.04344 0
M  V30 21152 N 1962.92 0.141865 -1.5696 0
M  V30 21153 C 1963.86 1.19416 -1.99606 0
M  V30 21154 C 1964.86 1.44182 -0.889268 0
M  V30 21155 O 1966.06 1.44414 -1.07446 0
M  V30 21156 H 1962.44 0.402085 -0.635477 0
M  V30 21157 H 1964.41 0.80782 -2.87257 0
M  V30 21158 C 1963.16 2.51868 -2.39704 0
M  V30 21159 H 1962.48 2.33642 -3.24425 0
M  V30 21160 H 1963.92 3.24113 -2.73362 0
M  V30 21161 C 1962.38 3.12785 -1.25169 0
M  V30 21162 O 1962.91 3.97845 -0.555208 0
M  V30 21163 N 1961.12 2.72312 -1.01461 0
M  V30 21164 H 1960.66 2.0324 -1.58276 0
M  V30 21165 H 1960.62 3.13403 -0.250181 0
M  V30 21166 N 1964.39 1.52136 0.411372 0
M  V30 21167 C 1965.33 1.70036 1.52194 0
M  V30 21168 C 1966.31 0.547941 1.53089 0
M  V30 21169 O 1967.49 0.775017 1.71831 0
M  V30 21170 C 1964.62 1.73764 2.9073 0
M  V30 21171 C 1963.66 2.95279 3.07754 0
M  V30 21172 S 1964.5 4.55662 2.81305 0
M  V30 21173 C 1965.65 4.62173 4.22075 0
M  V30 21174 H 1965.88 2.63966 1.36781 0
M  V30 21175 H 1963.42 1.42147 0.6028 0
M  V30 21176 H 1965.38 1.76597 3.70572 0
M  V30 21177 H 1964.04 0.809659 3.03485 0
M  V30 21178 H 1963.23 2.94363 4.09104 0
M  V30 21179 H 1962.83 2.90322 2.35773 0
M  V30 21180 H 1965.12 4.39412 5.15678 0
M  V30 21181 H 1966.07 5.641 4.28015 0
M  V30 21182 H 1966.47 3.91228 4.06941 0
M  V30 21183 N 1965.87 -0.668464 1.42721 0
M  V30 21184 C 1967.12 -1.42849 1.43528 0
M  V30 21185 C 1967.45 -1.94425 0.0540077 0
M  V30 21186 O 1966.7 -1.71721 -0.938629 0
M  V30 21187 C 1967 -2.63743 2.41194 0
M  V30 21188 C 1966.67 -2.30672 3.87429 0
M  V30 21189 C 1965.33 -2.21365 4.2726 0
M  V30 21190 C 1967.68 -2.03937 4.79645 0
M  V30 21191 C 1965.01 -1.83456 5.5728 0
M  V30 21192 C 1967.36 -1.6753 6.10013 0
M  V30 21193 C 1966.03 -1.56737 6.48837 0
M  V30 21194 H 1965.3 -0.522721 0.525208 0
M  V30 21195 H 1967.94 -0.761625 1.75703 0
M  V30 21196 H 1966.25 -3.35491 2.02369 0
M  V30 21197 H 1967.95 -3.21934 2.3908 0
M  V30 21198 H 1964.54 -2.38821 3.55896 0
M  V30 21199 H 1968.72 -2.10057 4.49655 0
M  V30 21200 H 1963.98 -1.73674 5.86214 0
M  V30 21201 H 1968.15 -1.4587 6.80952 0
M  V30 21202 H 1965.78 -1.27133 7.49494 0
M  V30 21203 N 1967.35 -1.28999 -0.905381 0
M  V30 21204 C 1968.6 -1.16014 -1.64996 0
M  V30 21205 C 1968.91 0.288766 -1.93457 0
M  V30 21206 O 1970.12 0.539847 -2.66079 0
M  V30 21207 C 1968.58 -2.02866 -2.97276 0
M  V30 21208 C 1968.18 -3.52547 -2.76432 0
M  V30 21209 C 1969.93 -1.98591 -3.75182 0
M  V30 21210 C 1967.83 -4.31522 -4.04404 0
M  V30 21211 H 1966.76 -0.430598 -0.618952 0
M  V30 21212 H 1969.42 -1.53594 -1.00404 0
M  V30 21213 H 1967.8 -1.5815 -3.63049 0
M  V30 21214 H 1968.97 -4.05277 -2.19287 0
M  V30 21215 H 1967.29 -3.58435 -2.11928 0
M  V30 21216 H 1969.88 -2.54859 -4.70054 0
M  V30 21217 H 1970.23 -0.964577 -4.04971 0
M  V30 21218 H 1970.76 -2.41321 -3.16242 0
M  V30 21219 H 1967.5 -5.3427 -3.79784 0
M  V30 21220 H 1967.02 -3.83563 -4.61129 0
M  V30 21221 H 1968.7 -4.41885 -4.72596 0
M  V30 21222 N 1968.83 1.11497 -1.11383 0
M  V30 21223 C 1969.76 2.16696 -0.715422 0
M  V30 21224 C 1970.74 1.60028 0.288088 0
M  V30 21225 O 1971.92 1.87593 0.184653 0
M  V30 21226 C 1969.05 3.38652 -0.0571822 0
M  V30 21227 C 1968.1 4.13982 -1.02574 0
M  V30 21228 S 1968.93 4.70998 -2.54796 0
M  V30 21229 C 1970.09 5.96278 -1.90271 0
M  V30 21230 H 1970.32 2.50155 -1.60654 0
M  V30 21231 H 1967.85 1.23113 -0.931804 0
M  V30 21232 H 1969.81 4.0928 0.316249 0
M  V30 21233 H 1968.47 3.03453 0.810878 0
M  V30 21234 H 1967.66 5.01386 -0.512606 0
M  V30 21235 H 1967.27 3.4911 -1.34157 0
M  V30 21236 H 1969.56 6.66078 -1.2388 0
M  V30 21237 H 1970.5 6.52235 -2.75671 0
M  V30 21238 H 1970.91 5.47795 -1.36312 0
M  V30 21239 N 1970.31 0.904053 1.29092 0
M  V30 21240 C 1971.24 0.401805 2.30017 0
M  V30 21241 C 1972.22 -0.525477 1.6178 0
M  V30 21242 O 1973.4 -0.435279 1.89259 0
M  V30 21243 C 1970.53 -0.367656 3.45348 0
M  V30 21244 C 1969.49 0.469596 4.25416 0
M  V30 21245 C 1968.81 -0.427624 5.32987 0
M  V30 21246 C 1970.11 1.7218 4.93104 0
M  V30 21247 H 1971.81 1.24523 2.72276 0
M  V30 21248 H 1969.35 0.600215 1.30895 0
M  V30 21249 H 1971.31 -0.729791 4.15033 0
M  V30 21250 H 1970.03 -1.2449 3.01944 0
M  V30 21251 H 1968.69 0.814119 3.57446 0
M  V30 21252 H 1968.34 -1.30313 4.85827 0
M  V30 21253 H 1968.04 0.128909 5.87459 0
M  V30 21254 H 1969.56 -0.785855 6.05522 0
M  V30 21255 H 1970.98 1.42914 5.55201 0
M  V30 21256 H 1969.37 2.21999 5.57527 0
M  V30 21257 H 1970.44 2.45526 4.18145 0
M  V30 21258 N 1971.79 -1.4279 0.666995 0
M  V30 21259 C 1973.01 -2.06504 0.192596 0
M  V30 21260 C 1973.44 -1.49743 -1.13836 0
M  V30 21261 O 1972.79 -0.612797 -1.7063 0
M  V30 21262 C 1972.84 -3.60366 0.129775 0
M  V30 21263 O 1971.95 -4.0237 -0.904018 0
M  V30 21264 H 1971.29 -0.656244 0.101194 0
M  V30 21265 H 1973.82 -1.83059 0.913807 0
M  V30 21266 H 1973.83 -4.07971 -0.0489739 0
M  V30 21267 H 1972.5 -4.01054 1.1013 0
M  V30 21268 H 1971.08 -3.66329 -0.696943 0
M  V30 21269 N 1973.26 -0.409806 -1.52179 0
M  V30 21270 C 1974.51 0.166003 -2.02119 0
M  V30 21271 C 1974.84 1.44732 -1.29484 0
M  V30 21272 O 1974.12 1.90314 -0.401362 0
M  V30 21273 C 1974.4 0.413015 -3.57724 0
M  V30 21274 C 1974.25 -0.885028 -4.41007 0
M  V30 21275 C 1975.57 1.19486 -4.2357 0
M  V30 21276 H 1972.69 0.0588585 -0.734646 0
M  V30 21277 H 1975.33 -0.543405 -1.82063 0
M  V30 21278 H 1973.48 1.01732 -3.74944 0
M  V30 21279 H 1975.16 -1.5212 -4.35497 0
M  V30 21280 H 1973.4 -1.49585 -4.07194 0
M  V30 21281 H 1974.07 -0.66658 -5.47961 0
M  V30 21282 H 1976.55 0.683238 -4.10452 0
M  V30 21283 H 1975.42 1.33644 -5.32382 0
M  V30 21284 H 1975.68 2.21566 -3.82571 0
M  V30 21285 N 1974.74 1.56975 -0.14025 0
M  V30 21286 C 1975.67 2.13532 0.832862 0
M  V30 21287 C 1976.69 1.08312 1.21542 0
M  V30 21288 O 1977.88 1.35613 1.16067 0
M  V30 21289 C 1974.98 2.63756 2.12806 0
M  V30 21290 C 1974.15 3.93304 1.91392 0
M  V30 21291 C 1973.21 4.28907 3.04837 0
M  V30 21292 O 1972.23 4.97351 2.76822 0
M  V30 21293 N 1973.44 3.87941 4.31835 0
M  V30 21294 H 1976.2 2.97655 0.349525 0
M  V30 21295 H 1973.76 1.61841 0.0435313 0
M  V30 21296 H 1975.75 2.8459 2.87734 0
M  V30 21297 H 1974.32 1.84395 2.52423 0
M  V30 21298 H 1973.54 3.81164 1.00538 0
M  V30 21299 H 1974.83 4.77972 1.74414 0
M  V30 21300 H 1974.23 3.32779 4.57466 0
M  V30 21301 H 1972.79 4.13841 5.03566 0
M  V30 21302 N 1976.22 -0.133539 1.57033 0
M  V30 21303 C 1977.15 -1.1944 1.94446 0
M  V30 21304 C 1978.13 -1.40868 0.812103 0
M  V30 21305 O 1979.31 -1.5526 1.06895 0
M  V30 21306 C 1976.44 -2.55091 2.22814 0
M  V30 21307 C 1975.49 -2.50178 3.45417 0
M  V30 21308 S 1976.32 -1.95558 4.98515 0
M  V30 21309 C 1977.48 -3.32912 5.30019 0
M  V30 21310 H 1977.71 -0.875271 2.84124 0
M  V30 21311 H 1975.24 -0.33971 1.50616 0
M  V30 21312 H 1977.2 -3.3315 2.39837 0
M  V30 21313 H 1975.86 -2.84188 1.33777 0
M  V30 21314 H 1975.05 -3.50068 3.62586 0
M  V30 21315 H 1974.66 -1.80235 3.27706 0
M  V30 21316 H 1976.95 -4.29074 5.24311 0
M  V30 21317 H 1977.89 -3.20584 6.31373 0
M  V30 21318 H 1978.3 -3.30669 4.57513 0
M  V30 21319 N 1977.7 -1.52352 -0.403298 0
M  V30 21320 C 1978.94 -1.66697 -1.14971 0
M  V30 21321 C 1979.27 -0.39978 -1.90347 0
M  V30 21322 O 1978.53 0.617431 -1.85705 0
M  V30 21323 C 1978.83 -2.84352 -2.16515 0
M  V30 21324 C 1978.49 -4.22348 -1.57903 0
M  V30 21325 C 1977.15 -4.59881 -1.41643 0
M  V30 21326 C 1979.51 -5.0832 -1.15154 0
M  V30 21327 C 1976.83 -5.81059 -0.811602 0
M  V30 21328 C 1979.19 -6.30109 -0.560875 0
M  V30 21329 C 1977.85 -6.66386 -0.385456 0
M  V30 21330 H 1977.12 -0.609988 -0.420708 0
M  V30 21331 H 1979.77 -1.86467 -0.436164 0
M  V30 21332 H 1978.07 -2.58941 -2.94036 0
M  V30 21333 H 1979.77 -2.92647 -2.74151 0
M  V30 21334 H 1976.36 -3.92774 -1.71543 0
M  V30 21335 H 1980.54 -4.79902 -1.26523 0
M  V30 21336 H 1975.8 -6.07786 -0.66376 0
M  V30 21337 H 1979.97 -6.96048 -0.221267 0
M  V30 21338 H 1977.6 -7.60152 0.0853049 0
M  V30 21339 N 1979.18 0.660885 -1.43074 0
M  V30 21340 C 1980.11 1.78574 -1.4208 0
M  V30 21341 C 1981.09 1.60114 -0.283219 0
M  V30 21342 O 1982.27 1.82401 -0.475618 0
M  V30 21343 C 1979.4 3.1577 -1.22503 0
M  V30 21344 C 1978.44 3.52948 -2.39436 0
M  V30 21345 S 1979.28 3.53793 -4.01983 0
M  V30 21346 C 1980.43 4.93659 -3.84775 0
M  V30 21347 H 1980.67 1.79145 -2.37264 0
M  V30 21348 H 1978.2 0.832831 -1.30013 0
M  V30 21349 H 1980.16 3.94956 -1.11894 0
M  V30 21350 H 1978.82 3.1277 -0.288797 0
M  V30 21351 H 1978.01 4.52707 -2.21523 0
M  V30 21352 H 1977.61 2.81157 -2.46631 0
M  V30 21353 H 1979.9 5.82114 -3.46626 0
M  V30 21354 H 1980.85 5.16623 -4.84259 0
M  V30 21355 H 1981.26 4.66833 -3.17376 0
M  V30 21356 N 1980.65 1.29477 0.898527 0
M  V30 21357 C 1981.9 1.16888 1.64378 0
M  V30 21358 C 1982.22 -0.278503 1.93607 0
M  V30 21359 O 1983.42 -0.525728 2.66361 0
M  V30 21360 C 1981.88 2.0444 2.96196 0
M  V30 21361 C 1981.49 3.54008 2.74558 0
M  V30 21362 C 1983.23 2.00578 3.74124 0
M  V30 21363 C 1981.14 4.33661 4.0211 0
M  V30 21364 H 1980.07 0.433875 0.616659 0
M  V30 21365 H 1982.72 1.54125 0.995881 0
M  V30 21366 H 1981.1 1.60073 3.62205 0
M  V30 21367 H 1982.27 4.06435 2.17135 0
M  V30 21368 H 1980.59 3.59553 2.10025 0
M  V30 21369 H 1983.19 2.57348 4.68696 0
M  V30 21370 H 1983.53 0.98604 4.04454 0
M  V30 21371 H 1984.06 2.42995 3.14957 0
M  V30 21372 H 1980.8 5.36276 3.76946 0
M  V30 21373 H 1980.32 3.86003 4.59088 0
M  V30 21374 H 1982 4.44385 4.70246 0
M  V30 21375 N 1982.13 -1.10905 1.11972 0
M  V30 21376 C 1983.38 -1.83033 0.873311 0
M  V30 21377 C 1983.71 -1.84716 -0.599472 0
M  V30 21378 O 1982.99 -1.30427 -1.44288 0
M  V30 21379 C 1983.27 -3.29941 1.44261 0
M  V30 21380 C 1983.12 -3.36619 2.98341 0
M  V30 21381 C 1984.44 -4.26179 1.09815 0
M  V30 21382 H 1981.56 -0.664529 0.318701 0
M  V30 21383 H 1984.2 -1.30012 1.38553 0
M  V30 21384 H 1982.35 -3.75223 1.00697 0
M  V30 21385 H 1984.02 -2.99854 3.5055 0
M  V30 21386 H 1982.27 -2.76668 3.34122 0
M  V30 21387 H 1982.94 -4.40043 3.33266 0
M  V30 21388 H 1985.41 -3.89105 1.47433 0
M  V30 21389 H 1984.29 -5.27343 1.52318 0
M  V30 21390 H 1984.55 -4.42099 0.00966838 0
M  V30 21391 N 1983.61 -0.910886 -1.2861 0
M  V30 21392 C 1984.54 -0.413998 -2.29801 0
M  V30 21393 C 1985.52 0.51689 -1.62056 0
M  V30 21394 O 1986.71 0.425236 -1.89487 0
M  V30 21395 C 1983.84 0.349336 -3.45539 0
M  V30 21396 C 1982.79 -0.49215 -4.25161 0
M  V30 21397 C 1982.12 0.399352 -5.33207 0
M  V30 21398 C 1983.42 -1.74792 -4.92184 0
M  V30 21399 H 1985.11 -1.25965 -2.71612 0
M  V30 21400 H 1982.66 -0.607149 -1.30575 0
M  V30 21401 H 1984.61 0.70777 -4.15414 0
M  V30 21402 H 1983.33 1.22887 -3.02599 0
M  V30 21403 H 1981.99 -0.833064 -3.57009 0
M  V30 21404 H 1981.64 1.27734 -4.86511 0
M  V30 21405 H 1981.34 -0.160062 -5.87382 0
M  V30 21406 H 1982.86 0.753731 -6.0593 0
M  V30 21407 H 1984.28 -1.45856 -5.54436 0
M  V30 21408 H 1982.68 -2.24952 -5.56342 0
M  V30 21409 H 1983.75 -2.4774 -4.16837 0
M  V30 21410 N 1985.09 1.42434 -0.674558 0
M  V30 21411 C 1986.34 2.00765 -0.193936 0
M  V30 21412 C 1986.65 1.53957 1.20651 0
M  V30 21413 O 1987.86 2.04705 1.78348 0
M  V30 21414 C 1986.31 3.58682 -0.295862 0
M  V30 21415 C 1985.92 4.14478 -1.70034 0
M  V30 21416 C 1987.66 4.24313 0.12606 0
M  V30 21417 C 1985.57 5.64758 -1.75505 0
M  V30 21418 H 1984.5 0.75086 -0.0687443 0
M  V30 21419 H 1987.15 1.6316 -0.839705 0
M  V30 21420 H 1985.53 3.9379 0.417795 0
M  V30 21421 H 1986.71 3.90831 -2.44106 0
M  V30 21422 H 1985.02 3.61298 -2.07009 0
M  V30 21423 H 1987.62 5.34596 0.105331 0
M  V30 21424 H 1987.96 3.99775 1.16127 0
M  V30 21425 H 1988.5 3.94164 -0.536581 0
M  V30 21426 H 1985.24 5.94094 -2.77007 0
M  V30 21427 H 1984.76 5.90397 -1.05788 0
M  V30 21428 H 1986.43 6.29172 -1.50838 0
M  V30 21429 N 1986.57 0.417871 1.51959 0
M  V30 21430 C 1987.51 -0.417897 2.28815 0
M  V30 21431 C 1988.51 -1.03814 1.33862 0
M  V30 21432 O 1989.71 -0.975341 1.51285 0
M  V30 21433 H 1986.09 -0.153557 0.736155 0
M  V30 21434 H 1988.06 0.25142 2.97339 0
M  V30 21435 C 1986.81 -1.51752 3.12836 0
M  V30 21436 H 1986.13 -1.0496 3.85776 0
M  V30 21437 H 1987.57 -2.07595 3.69703 0
M  V30 21438 C 1986.03 -2.48983 2.26957 0
M  V30 21439 O 1986.56 -3.53072 1.91581 0
M  V30 21440 N 1984.77 -2.19401 1.90556 0
M  V30 21441 H 1984.31 -1.34786 2.19524 0
M  V30 21442 H 1984.27 -2.84701 1.3339 0
M  V30 21443 N 1988.04 -1.56898 0.148573 0
M  V30 21444 C 1988.97 -2.19852 -0.786585 0
M  V30 21445 C 1989.96 -1.14723 -1.2559 0
M  V30 21446 O 1991.14 -1.43071 -1.31317 0
M  V30 21447 C 1988.27 -2.82137 -2.02524 0
M  V30 21448 C 1987.22 -3.93108 -1.69264 0
M  V30 21449 C 1986.55 -4.42335 -3.00407 0
M  V30 21450 C 1987.85 -5.13807 -0.938092 0
M  V30 21451 H 1989.54 -2.98252 -0.261903 0
M  V30 21452 H 1987.09 -1.43461 -0.124531 0
M  V30 21453 H 1989.04 -3.24845 -2.68428 0
M  V30 21454 H 1987.77 -2.01071 -2.57368 0
M  V30 21455 H 1986.43 -3.5102 -1.05739 0
M  V30 21456 H 1986.07 -3.58089 -3.53244 0
M  V30 21457 H 1985.77 -5.17185 -2.78915 0
M  V30 21458 H 1987.3 -4.87714 -3.67378 0
M  V30 21459 H 1988.71 -5.53349 -1.49924 0
M  V30 21460 H 1987.11 -5.94429 -0.823062 0
M  V30 21461 H 1988.18 -4.8485 0.0698825 0
M  V30 21462 N 1989.52 0.125209 -1.57102 0
M  V30 21463 C 1990.77 0.832437 -1.8416 0
M  V30 21464 C 1991.09 1.80706 -0.732819 0
M  V30 21465 O 1990.36 1.94378 0.243723 0
M  V30 21466 H 1988.94 0.310405 -0.679454 0
M  V30 21467 H 1991.6 0.114013 -1.94566 0
M  V30 21468 H 1990.7 1.38145 -2.79861 0
M  V30 21469 N 1991 1.52564 0.395213 0
M  V30 21470 C 1991.96 1.76262 1.46508 0
M  V30 21471 C 1992.96 0.632579 1.47835 0
M  V30 21472 O 1994.15 0.900582 1.49115 0
M  V30 21473 C 1991.29 1.85771 2.85835 0
M  V30 21474 H 1992.48 2.71784 1.26782 0
M  V30 21475 H 1990.03 1.43191 0.626572 0
M  V30 21476 H 1990.77 0.922125 3.10914 0
M  V30 21477 H 1990.55 2.67936 2.86274 0
M  V30 21478 H 1992.04 2.05799 3.63368 0
M  V30 21479 N 1992.48 -0.653289 1.43422 0
M  V30 21480 C 1993.41 -1.77779 1.51383 0
M  V30 21481 C 1994.39 -1.6606 0.368515 0
M  V30 21482 O 1995.57 -1.85157 0.585721 0
M  V30 21483 C 1992.7 -3.16206 1.43635 0
M  V30 21484 C 1991.66 -3.42688 2.56415 0
M  V30 21485 C 1990.98 -4.80915 2.3372 0
M  V30 21486 C 1992.28 -3.3744 3.98662 0
M  V30 21487 H 1993.98 -1.71374 2.45502 0
M  V30 21488 H 1991.52 -0.823062 1.1816 0
M  V30 21489 H 1993.48 -3.94627 1.47808 0
M  V30 21490 H 1992.2 -3.23341 0.460202 0
M  V30 21491 H 1990.86 -2.66638 2.51594 0
M  V30 21492 H 1990.51 -4.84726 1.34349 0
M  V30 21493 H 1990.21 -4.99594 3.09321 0
M  V30 21494 H 1991.73 -5.61594 2.39677 0
M  V30 21495 H 1993.15 -4.05798 4.0497 0
M  V30 21496 H 1991.54 -3.67656 4.74288 0
M  V30 21497 H 1992.61 -2.35624 4.23803 0
M  V30 21498 N 1993.96 -1.29952 -0.891648 0
M  V30 21499 C 1994.9 -1.15767 -1.99667 0
M  V30 21500 C 1995.87 -0.0488826 -1.66028 0
M  V30 21501 O 1997.06 -0.217864 -1.89552 0
M  V30 21502 C 1994.2 -0.848553 -3.34505 0
M  V30 21503 C 1993.31 -2.03857 -3.80876 0
M  V30 21504 C 1992.45 -1.66812 -5.04328 0
M  V30 21505 C 1991.49 -2.82348 -5.4309 0
M  V30 21506 N 1990.62 -2.45645 -6.57726 0
M  V30 21507 H 1995.46 -2.10304 -2.11131 0
M  V30 21508 H 1993 -1.04641 -1.03386 0
M  V30 21509 H 1994.96 -0.649983 -4.12106 0
M  V30 21510 H 1993.59 0.059928 -3.22744 0
M  V30 21511 H 1992.64 -2.34859 -2.99241 0
M  V30 21512 H 1993.95 -2.90402 -4.05547 0
M  V30 21513 H 1993.11 -1.43291 -5.89536 0
M  V30 21514 H 1991.84 -0.774269 -4.81515 0
M  V30 21515 H 1990.85 -3.06542 -4.56412 0
M  V30 21516 H 1992.07 -3.72409 -5.6788 0
M  V30 21517 H 1990.02 -1.58757 -6.365 0
M  V30 21518 H 1989.94 -3.25722 -6.82232 0
M  V30 21519 H 1991.21 -2.25463 -7.46181 0
M  V30 21520 N 1995.44 1.1031 -1.12559 0
M  V30 21521 C 1996.39 2.14835 -0.763553 0
M  V30 21522 C 1997.37 1.59129 0.238075 0
M  V30 21523 O 1998.56 1.76947 0.043378 0
M  V30 21524 C 1995.69 3.42586 -0.221241 0
M  V30 21525 C 1994.78 4.05222 -1.25124 0
M  V30 21526 N 1995.17 4.42543 -2.44927 0
M  V30 21527 C 1993.47 4.32301 -1.0969 0
M  V30 21528 C 1994.17 4.91767 -3.10709 0
M  V30 21529 N 1993.14 4.88655 -2.38154 0
M  V30 21530 H 1996.94 2.41484 -1.67519 0
M  V30 21531 H 1994.46 1.27445 -1.00656 0
M  V30 21532 H 1996.46 4.16862 0.0563207 0
M  V30 21533 H 1995.12 3.17396 0.684837 0
M  V30 21534 H 1996.13 4.34197 -2.82299 0
M  V30 21535 H 1992.8 4.16761 -0.248225 0
M  V30 21536 H 1994.19 5.30181 -4.12744 0
M  V30 21537 N 1996.91 0.917694 1.28125 0
M  V30 21538 C 1997.82 0.414339 2.30912 0
M  V30 21539 C 1998.84 -0.49998 1.66662 0
M  V30 21540 O 2000.02 -0.385213 1.97682 0
M  V30 21541 C 1997.08 -0.333886 3.45089 0
M  V30 21542 C 1996.14 0.614131 4.24885 0
M  V30 21543 C 1995.37 -0.0984806 5.33609 0
M  V30 21544 O 1995.6 -1.31956 5.54927 0
M  V30 21545 O 1994.53 0.568228 5.99212 0
M  V30 21546 H 1998.36 1.26755 2.75984 0
M  V30 21547 H 1995.94 0.682661 1.32891 0
M  V30 21548 H 1997.82 -0.756311 4.14557 0
M  V30 21549 H 1996.5 -1.16286 3.02091 0
M  V30 21550 H 1995.41 1.08603 3.57989 0
M  V30 21551 H 1996.74 1.41003 4.71571 0
M  V30 21552 N 1998.39 -1.42074 0.682102 0
M  V30 21553 C 1999.62 -2.05769 0.216029 0
M  V30 21554 C 2000.03 -1.51278 -1.12962 0
M  V30 21555 O 1999.39 -0.655521 -1.70321 0
M  V30 21556 C 1999.44 -3.61187 0.150351 0
M  V30 21557 O 1999.16 -4.13659 1.44283 0
M  V30 21558 C 2000.66 -4.42007 -0.338339 0
M  V30 21559 H 1997.88 -0.662997 0.103326 0
M  V30 21560 H 2000.43 -1.82084 0.930895 0
M  V30 21561 H 1998.58 -3.83958 -0.515249 0
M  V30 21562 H 1999 -5.07592 1.32101 0
M  V30 21563 H 2000.47 -5.50994 -0.33319 0
M  V30 21564 H 2000.95 -4.17125 -1.37489 0
M  V30 21565 H 2001.55 -4.2427 0.295782 0
M  V30 21566 N 1999.87 -0.425924 -1.51735 0
M  V30 21567 C 2001.12 0.145784 -2.01172 0
M  V30 21568 C 2001.43 1.4478 -1.31523 0
M  V30 21569 O 2002.64 2.10177 -1.71866 0
M  V30 21570 C 2001.09 0.310355 -3.58559 0
M  V30 21571 C 2000.7 -0.98055 -4.37138 0
M  V30 21572 C 2002.45 0.836447 -4.16178 0
M  V30 21573 C 2000.35 -0.782247 -5.86204 0
M  V30 21574 H 1999.28 0.0582569 -0.751746 0
M  V30 21575 H 2001.93 -0.553941 -1.74939 0
M  V30 21576 H 2000.32 1.07281 -3.81191 0
M  V30 21577 H 2001.49 -1.75046 -4.26258 0
M  V30 21578 H 1999.8 -1.43431 -3.90917 0
M  V30 21579 H 2002.4 1.00112 -5.25244 0
M  V30 21580 H 2002.74 1.81579 -3.74613 0
M  V30 21581 H 2003.28 0.132605 -3.97579 0
M  V30 21582 H 2000.02 -1.73363 -6.32159 0
M  V30 21583 H 1999.54 -0.0519371 -5.99778 0
M  V30 21584 H 2001.22 -0.430966 -6.45563 0
M  V30 21585 N 2001.35 1.56817 -0.156891 0
M  V30 21586 C 2002.58 2.00807 0.498405 0
M  V30 21587 C 2002.99 1.03706 1.57768 0
M  V30 21588 O 2002.35 0.0356068 1.82465 0
M  V30 21589 C 2002.4 3.44676 1.08999 0
M  V30 21590 O 2002.12 4.38067 0.053817 0
M  V30 21591 C 2003.62 4.03994 1.82493 0
M  V30 21592 H 2000.84 0.658505 0.128888 0
M  V30 21593 H 2003.38 2.02912 -0.254383 0
M  V30 21594 H 2001.54 3.43392 1.79334 0
M  V30 21595 H 2001.95 5.2222 0.488568 0
M  V30 21596 H 2003.43 5.06627 2.19164 0
M  V30 21597 H 2003.9 3.45265 2.71456 0
M  V30 21598 H 2004.51 4.08938 1.16833 0
M  V30 21599 N 2002.83 -0.116876 1.57166 0
M  V30 21600 C 2004.07 -0.830154 1.86783 0
M  V30 21601 C 2004.43 -1.76951 0.74515 0
M  V30 21602 O 2005.63 -2.52451 0.923144 0
M  V30 21603 C 2003.9 -1.55852 3.21629 0
M  V30 21604 S 2005.46 -2.31308 3.72884 0
M  V30 21605 H 2002.28 -0.277026 0.654811 0
M  V30 21606 H 2004.88 -0.0883909 1.953 0
M  V30 21607 H 2003.58 -0.860448 4.01279 0
M  V30 21608 H 2003.12 -2.34061 3.16194 0
M  V30 21609 H 2005.13 -3.57066 3.44555 0
M  V30 21610 N 2004.3 -1.52772 -0.387116 0
M  V30 21611 C 2005.72 -1.42064 -0.727316 0
M  V30 21612 C 2005.92 -0.542559 -1.94058 0
M  V30 21613 O 2004.98 -0.0167267 -2.52494 0
M  V30 21614 C 2006.29 -2.84942 -0.960651 0
M  V30 21615 C 2007.84 -2.94432 -1.06201 0
M  V30 21616 C 2008.31 -4.38326 -1.32796 0
M  V30 21617 N 2009.8 -4.41659 -1.39613 0
M  V30 21618 C 2010.54 -5.50081 -1.6186 0
M  V30 21619 N 2010.03 -6.68585 -1.81566 0
M  V30 21620 N 2011.83 -5.37627 -1.64055 0
M  V30 21621 H 2003.98 -2.08382 0.411202 0
M  V30 21622 H 2006.24 -0.940144 0.121792 0
M  V30 21623 H 2005.95 -3.51416 -0.141246 0
M  V30 21624 H 2005.82 -3.27309 -1.87479 0
M  V30 21625 H 2008.21 -2.28125 -1.87198 0
M  V30 21626 H 2008.29 -2.55491 -0.125731 0
M  V30 21627 H 2007.93 -5.05199 -0.523081 0
M  V30 21628 H 2007.86 -4.74821 -2.27711 0
M  V30 21629 H 2010.35 -3.56245 -1.26086 0
M  V30 21630 H 2010.67 -7.4699 -1.98053 0
M  V30 21631 H 2009.01 -6.7161 -1.78786 0
M  V30 21632 H 2012.2 -4.44016 -1.48213 0
M  V30 21633 H 2012.38 -6.22193 -1.81053 0
M  V30 21634 N 2005.78 0.645673 -1.43767 0
M  V30 21635 C 2007.01 1.43095 -1.49021 0
M  V30 21636 C 2007.42 1.88885 -0.109072 0
M  V30 21637 O 2006.76 1.60563 0.89248 0
M  V30 21638 C 2006.82 2.694 -2.38042 0
M  V30 21639 C 2006.49 2.45501 -3.85458 0
M  V30 21640 C 2007.49 2.08245 -4.76372 0
M  V30 21641 C 2005.17 2.59592 -4.3002 0
M  V30 21642 C 2007.16 1.85388 -6.09844 0
M  V30 21643 C 2004.85 2.36349 -5.63544 0
M  V30 21644 C 2005.85 1.99304 -6.53274 0
M  V30 21645 O 2005.54 1.7631 -7.84328 0
M  V30 21646 H 2005.27 0.445803 -0.508169 0
M  V30 21647 H 2007.82 0.798192 -1.89257 0
M  V30 21648 H 2006.05 3.35262 -1.92707 0
M  V30 21649 H 2007.74 3.31369 -2.34413 0
M  V30 21650 H 2008.51 1.96929 -4.4322 0
M  V30 21651 H 2004.39 2.87399 -3.60448 0
M  V30 21652 H 2007.93 1.56397 -6.79842 0
M  V30 21653 H 2003.83 2.4727 -5.96261 0
M  V30 21654 H 2004.6 1.90674 -7.95981 0
M  V30 21655 N 2007.26 1.30423 0.884744 0
M  V30 21656 C 2008.21 1.1673 2.01188 0
M  V30 21657 C 2009.2 0.0791439 1.69215 0
M  V30 21658 O 2010.41 0.24001 1.78393 0
M  V30 21659 H 2006.78 0.361014 0.659676 0
M  V30 21660 H 2008.75 2.12124 2.09871 0
M  V30 21661 C 2007.5 0.876173 3.3648 0
M  V30 21662 H 2006.83 1.70557 3.61594 0
M  V30 21663 H 2008.27 0.820477 4.15986 0
M  V30 21664 C 2006.72 -0.420908 3.3426 0
M  V30 21665 O 2007.25 -1.44235 3.74912 0
M  V30 21666 N 2005.46 -0.432149 2.87369 0
M  V30 21667 H 2005.01 0.399559 2.54482 0
M  V30 21668 H 2004.97 -1.29995 2.86267 0
M  V30 21669 N 2008.74 -1.09711 1.13142 0
M  V30 21670 C 2009.96 -1.86136 0.914785 0
M  V30 21671 C 2010.39 -1.80448 -0.531035 0
M  V30 21672 O 2009.75 -1.17983 -1.37658 0
M  V30 21673 C 2009.79 -3.32164 1.40356 0
M  V30 21674 O 2008.9 -4.08203 0.586881 0
M  V30 21675 H 2008.24 -0.577287 0.328079 0
M  V30 21676 H 2010.77 -1.38563 1.50537 0
M  V30 21677 H 2010.78 -3.83013 1.40589 0
M  V30 21678 H 2009.45 -3.35619 2.45628 0
M  V30 21679 H 2008.03 -3.67153 0.652163 0
M  V30 21680 N 2010.22 -0.924476 -1.27637 0
M  V30 21681 C 2011.16 -0.411501 -2.28931 0
M  V30 21682 C 2012.16 0.502472 -1.61776 0
M  V30 21683 O 2013.36 0.382531 -1.75888 0
M  V30 21684 H 2009.74 -0.114496 -0.743233 0
M  V30 21685 H 2011.71 -1.27869 -2.69615 0
M  V30 21686 C 2010.46 0.323415 -3.46193 0
M  V30 21687 H 2009.78 -0.37068 -3.98078 0
M  V30 21688 H 2011.22 0.646821 -4.19037 0
M  V30 21689 C 2009.68 1.53523 -2.99887 0
M  V30 21690 O 2010.21 2.63407 -3.03281 0
M  V30 21691 N 2008.42 1.38594 -2.55421 0
M  V30 21692 H 2007.96 0.491939 -2.52859 0
M  V30 21693 H 2007.92 2.198 -2.24801 0
M  V30 21694 N 2011.69 1.41711 -0.689627 0
M  V30 21695 C 2012.62 2.33474 -0.0348045 0
M  V30 21696 C 2013.61 1.51494 0.773533 0
M  V30 21697 O 2014.79 1.8005 0.727705 0
M  V30 21698 C 2011.92 3.35259 0.906573 0
M  V30 21699 C 2010.87 4.27505 0.205762 0
M  V30 21700 C 2010.2 5.19616 1.26109 0
M  V30 21701 C 2011.5 5.14056 -0.92431 0
M  V30 21702 H 2013.19 2.88481 -0.801208 0
M  V30 21703 H 2010.74 1.3871 -0.386738 0
M  V30 21704 H 2012.69 3.98375 1.37386 0
M  V30 21705 H 2011.42 2.78589 1.70457 0
M  V30 21706 H 2010.08 3.65804 -0.241437 0
M  V30 21707 H 2009.72 4.59264 2.05147 0
M  V30 21708 H 2009.42 5.82167 0.797221 0
M  V30 21709 H 2010.95 5.85609 1.72901 0
M  V30 21710 H 2012.36 5.70774 -0.537573 0
M  V30 21711 H 2010.76 5.85517 -1.3149 0
M  V30 21712 H 2011.83 4.51574 -1.7666 0
M  V30 21713 N 2013.17 0.433965 1.51507 0
M  V30 21714 C 2014.58 -0.0299408 1.86676 0
M  V30 21715 C 2014.93 -1.42245 1.35132 0
M  V30 21716 O 2014.06 -2.0474 0.700735 0
M  V30 21717 C 2014.65 -0.0611079 3.38745 0
M  V30 21718 C 2013.21 -0.469416 3.73461 0
M  V30 21719 C 2012.36 0.340116 2.75206 0
M  V30 21720 H 2015.31 0.649958 1.4478 0
M  V30 21721 H 2015.33 -0.871298 3.7039 0
M  V30 21722 H 2014.84 0.952511 3.7623 0
M  V30 21723 H 2012.95 -1.48876 3.41565 0
M  V30 21724 H 2013.06 -0.196556 4.78697 0
M  V30 21725 H 2011.42 -0.201099 2.53905 0
M  V30 21726 H 2012.21 1.35255 3.15533 0
M  V30 21727 N 2014.65 -1.56732 0.165206 0
M  V30 21728 C 2015.9 -1.95872 -0.481368 0
M  V30 21729 C 2016.21 -1.05357 -1.64801 0
M  V30 21730 O 2017.42 -1.34152 -2.36041 0
M  V30 21731 C 2015.87 -3.48264 -0.907766 0
M  V30 21732 C 2015.48 -4.47394 0.232939 0
M  V30 21733 C 2017.23 -3.96235 -1.5231 0
M  V30 21734 C 2015.13 -5.91017 -0.212747 0
M  V30 21735 H 2014.06 -0.731304 -0.183605 0
M  V30 21736 H 2016.71 -1.81755 0.252461 0
M  V30 21737 H 2015.1 -3.57777 -1.69739 0
M  V30 21738 H 2016.27 -4.49591 1.01018 0
M  V30 21739 H 2014.59 -4.09446 0.757843 0
M  V30 21740 H 2017.18 -5.0099 -1.8685 0
M  V30 21741 H 2017.53 -3.38822 -2.41879 0
M  V30 21742 H 2018.06 -3.89713 -0.798029 0
M  V30 21743 H 2014.8 -6.52289 0.648008 0
M  V30 21744 H 2014.32 -5.92141 -0.955479 0
M  V30 21745 H 2016 -6.43638 -0.658675 0
M  V30 21746 N 2016.13 0.10854 -1.57226 0
M  V30 21747 C 2017.36 0.828374 -1.89593 0
M  V30 21748 C 2017.77 1.72936 -0.757543 0
M  V30 21749 O 2017.13 1.80474 0.271152 0
M  V30 21750 C 2017.18 1.65304 -3.21492 0
M  V30 21751 O 2016.9 0.788315 -4.30949 0
M  V30 21752 C 2018.4 2.47711 -3.67633 0
M  V30 21753 H 2015.62 0.237584 -0.627531 0
M  V30 21754 H 2018.17 0.0897975 -2.04303 0
M  V30 21755 H 2016.32 2.34426 -3.0842 0
M  V30 21756 H 2016.73 1.35814 -5.06611 0
M  V30 21757 H 2018.21 3.01088 -4.62655 0
M  V30 21758 H 2018.69 3.25555 -2.94806 0
M  V30 21759 H 2019.29 1.83812 -3.83527 0
M  V30 21760 N 2017.61 1.52975 0.379009 0
M  V30 21761 C 2018.88 1.59096 1.13789 0
M  V30 21762 C 2019.26 0.390236 2.07462 0
M  V30 21763 O 2018.61 -0.620644 2.1991 0
M  V30 21764 C 2018.82 2.93471 1.8888 0
M  V30 21765 C 2020.17 3.47567 2.43889 0
M  V30 21766 O 2021.19 2.95411 1.99024 0
M  V30 21767 O 2020.05 4.38714 3.25871 0
M  V30 21768 H 2017.15 0.64208 0.521213 0
M  V30 21769 H 2019.69 1.65313 0.383355 0
M  V30 21770 H 2018.46 3.72304 1.20438 0
M  V30 21771 H 2018.09 2.90684 2.71272 0
M  V30 21772 N 2019.08 -0.63804 1.44107 0
M  V30 21773 C 2020.5 -1.21954 1.41365 0
M  V30 21774 C 2020.85 -1.95799 0.125451 0
M  V30 21775 O 2019.97 -2.02066 -0.774492 0
M  V30 21776 C 2020.57 -2.21819 2.56089 0
M  V30 21777 C 2019.13 -2.75412 2.56564 0
M  V30 21778 C 2018.27 -1.50296 2.33037 0
M  V30 21779 H 2021.22 -0.429131 1.52788 0
M  V30 21780 H 2021.24 -3.0429 2.28447 0
M  V30 21781 H 2020.76 -1.68045 3.49832 0
M  V30 21782 H 2018.86 -3.33207 1.66744 0
M  V30 21783 H 2018.97 -3.21922 3.54828 0
M  V30 21784 H 2017.33 -1.78184 1.81996 0
M  V30 21785 H 2018.12 -0.984346 3.28885 0
M  V30 21786 N 2020.56 -1.3089 -0.877815 0
M  V30 21787 C 2021.49 -1.20459 -2.0003 0
M  V30 21788 C 2022.47 -0.0935765 -1.69842 0
M  V30 21789 O 2023.66 -0.276838 -1.92217 0
M  V30 21790 C 2020.79 -0.903041 -3.35354 0
M  V30 21791 C 2019.74 -1.97277 -3.79823 0
M  V30 21792 C 2019.07 -1.52407 -5.12519 0
M  V30 21793 C 2020.37 -3.38484 -3.97776 0
M  V30 21794 H 2022.06 -2.14367 -2.09014 0
M  V30 21795 H 2019.61 -1.03203 -1.00425 0
M  V30 21796 H 2021.56 -0.816699 -4.1341 0
M  V30 21797 H 2020.29 0.0717143 -3.26521 0
M  V30 21798 H 2018.94 -2.04887 -3.04001 0
M  V30 21799 H 2018.59 -0.537386 -5.00121 0
M  V30 21800 H 2018.29 -2.23964 -5.43244 0
M  V30 21801 H 2019.82 -1.45165 -5.93093 0
M  V30 21802 H 2021.23 -3.33593 -4.6625 0
M  V30 21803 H 2019.63 -4.0819 -4.39887 0
M  V30 21804 H 2020.7 -3.79847 -3.01403 0
M  V30 21805 N 2022.04 1.0911 -1.13723 0
M  V30 21806 C 2023.46 1.33403 -0.87611 0
M  V30 21807 C 2023.66 1.95536 0.486607 0
M  V30 21808 O 2022.71 2.2038 1.23243 0
M  V30 21809 C 2024.03 2.24255 -2.00325 0
M  V30 21810 C 2025.57 2.37755 -2.03572 0
M  V30 21811 C 2026.05 3.31944 -3.15558 0
M  V30 21812 N 2027.54 3.39519 -3.15089 0
M  V30 21813 C 2028.27 4.12409 -3.9838 0
M  V30 21814 N 2027.77 4.88068 -4.91692 0
M  V30 21815 N 2029.56 4.08167 -3.86467 0
M  V30 21816 H 2021.71 0.671565 -2.01504 0
M  V30 21817 H 2023.98 0.358401 -0.877641 0
M  V30 21818 H 2023.68 1.85834 -2.98595 0
M  V30 21819 H 2023.56 3.24667 -1.92019 0
M  V30 21820 H 2025.94 2.75438 -1.05913 0
M  V30 21821 H 2026.03 1.3711 -2.1595 0
M  V30 21822 H 2025.67 2.94984 -4.13458 0
M  V30 21823 H 2025.6 4.32501 -3.00418 0
M  V30 21824 H 2028.09 2.85573 -2.475 0
M  V30 21825 H 2028.4 5.41127 -5.51726 0
M  V30 21826 H 2026.75 4.87146 -4.95695 0
M  V30 21827 H 2029.94 3.48161 -3.12892 0
M  V30 21828 H 2030.11 4.64711 -4.51606 0
M  V30 21829 N 2023.52 0.931232 1.27145 0
M  V30 21830 C 2024.93 0.617607 1.76189 0
M  V30 21831 C 2025.28 -0.867239 1.75993 0
M  V30 21832 O 2024.41 -1.67865 1.36567 0
M  V30 21833 C 2025 1.11436 3.19949 0
M  V30 21834 C 2023.56 0.851337 3.66646 0
M  V30 21835 C 2022.71 1.27104 2.46454 0
M  V30 21836 H 2025.66 1.11062 1.13362 0
M  V30 21837 H 2025.68 0.463637 3.77665 0
M  V30 21838 H 2025.19 2.19507 3.2006 0
M  V30 21839 H 2023.29 -0.215418 3.71977 0
M  V30 21840 H 2023.4 1.47136 4.55947 0
M  V30 21841 H 2021.77 0.689554 2.45188 0
M  V30 21842 H 2022.55 2.36047 2.49273 0
M  V30 21843 N 2025 -1.41343 0.697132 0
M  V30 21844 C 2026.23 -2.05528 0.237841 0
M  V30 21845 C 2026.64 -1.52468 -1.11351 0
M  V30 21846 O 2026 -0.673549 -1.69616 0
M  V30 21847 C 2026.05 -3.61007 0.188651 0
M  V30 21848 O 2025.77 -4.12106 1.48662 0
M  V30 21849 C 2027.27 -4.42341 -0.291439 0
M  V30 21850 H 2024.49 -0.661864 0.110352 0
M  V30 21851 H 2027.03 -1.81086 0.950155 0
M  V30 21852 H 2025.19 -3.84483 -0.474496 0
M  V30 21853 H 2025.6 -5.06162 1.37477 0
M  V30 21854 H 2027.08 -5.51316 -0.274731 0
M  V30 21855 H 2027.55 -4.1856 -1.33057 0
M  V30 21856 H 2028.16 -4.23933 0.340765 0
M  V30 21857 N 2026.48 -0.441993 -1.51275 0
M  V30 21858 C 2027.71 0.121275 -2.06244 0
M  V30 21859 C 2028.11 1.36608 -1.309 0
M  V30 21860 O 2027.46 1.80072 -0.363267 0
M  V30 21861 C 2027.52 0.504271 -3.55946 0
M  V30 21862 C 2027.18 -0.634389 -4.52575 0
M  V30 21863 C 2028.18 -1.5079 -4.97552 0
M  V30 21864 C 2025.86 -0.816445 -4.9562 0
M  V30 21865 C 2027.86 -2.54813 -5.84251 0
M  V30 21866 C 2025.55 -1.85994 -5.82108 0
M  V30 21867 C 2026.54 -2.72417 -6.26321 0
M  V30 21868 O 2026.23 -3.74974 -7.11091 0
M  V30 21869 H 2025.96 0.00928409 -0.675936 0
M  V30 21870 H 2028.52 -0.62124 -1.9578 0
M  V30 21871 H 2026.75 1.29956 -3.64209 0
M  V30 21872 H 2028.44 0.999234 -3.93408 0
M  V30 21873 H 2029.2 -1.37881 -4.64988 0
M  V30 21874 H 2025.08 -0.153327 -4.60745 0
M  V30 21875 H 2028.63 -3.22302 -6.18682 0
M  V30 21876 H 2024.52 -1.98922 -6.14085 0
M  V30 21877 H 2025.29 -3.71611 -7.29279 0
M  V30 21878 N 2027.95 1.56642 -0.173515 0
M  V30 21879 C 2029.19 1.98845 0.473303 0
M  V30 21880 C 2029.56 1.05721 1.60272 0
M  V30 21881 O 2030.76 1.37073 2.31224 0
M  V30 21882 C 2029.03 3.44767 0.94185 0
M  V30 21883 S 2030.59 4.08998 1.58954 0
M  V30 21884 H 2027.41 0.694527 0.152161 0
M  V30 21885 H 2030.01 1.93606 -0.271494 0
M  V30 21886 H 2028.71 4.10254 0.109473 0
M  V30 21887 H 2028.24 3.53776 1.72063 0
M  V30 21888 H 2030.26 4.04227 2.87775 0
M  V30 21889 N 2029.43 -0.1002 1.57281 0
M  V30 21890 C 2030.39 -1.10612 2.00743 0
M  V30 21891 C 2031.39 -1.33241 0.900199 0
M  V30 21892 O 2032.58 -1.2944 1.1658 0
M  V30 21893 C 2029.72 -2.45642 2.36375 0
M  V30 21894 H 2030.91 -0.732144 2.90826 0
M  V30 21895 H 2028.46 -0.345091 1.52443 0
M  V30 21896 H 2029.2 -2.87925 1.4923 0
M  V30 21897 H 2028.98 -2.30567 3.17146 0
M  V30 21898 H 2030.47 -3.18002 2.70674 0
M  V30 21899 N 2030.91 -1.53174 -0.370891 0
M  V30 21900 C 2032.19 -1.59697 -1.12943 0
M  V30 21901 C 2032.57 -0.401233 -2.07252 0
M  V30 21902 O 2031.91 0.608973 -2.20236 0
M  V30 21903 C 2032.12 -2.94469 -1.87321 0
M  V30 21904 C 2033.47 -3.48856 -2.42043 0
M  V30 21905 O 2034.5 -2.96463 -1.97455 0
M  V30 21906 O 2033.36 -4.40436 -3.2354 0
M  V30 21907 H 2030.45 -0.644835 -0.5178 0
M  V30 21908 H 2033 -1.65514 -0.374583 0
M  V30 21909 H 2031.77 -3.72938 -1.18462 0
M  V30 21910 H 2031.39 -2.92119 -2.69727 0
M  V30 21911 N 2032.39 0.630389 -1.44443 0
M  V30 21912 C 2033.32 1.75348 -1.54192 0
M  V30 21913 C 2034.3 1.65453 -0.394887 0
M  V30 21914 O 2035.48 1.84201 -0.615103 0
M  V30 21915 C 2032.61 3.13881 -1.48647 0
M  V30 21916 C 2031.57 3.38566 -2.61835 0
M  V30 21917 C 2030.89 4.77136 -2.41341 0
M  V30 21918 C 2032.19 3.31055 -4.0398 0
M  V30 21919 H 2033.89 1.67446 -2.48198 0
M  V30 21920 H 2031.43 0.804159 -1.19454 0
M  V30 21921 H 2033.39 3.92226 -1.54068 0
M  V30 21922 H 2032.11 3.22568 -0.511585 0
M  V30 21923 H 2030.77 2.62602 -2.55805 0
M  V30 21924 H 2030.42 4.82527 -1.42043 0
M  V30 21925 H 2030.12 4.9461 -3.1723 0
M  V30 21926 H 2031.64 5.57709 -2.48581 0
M  V30 21927 H 2033.06 3.99304 -4.11375 0
M  V30 21928 H 2031.45 3.60064 -4.80077 0
M  V30 21929 H 2032.52 2.28852 -4.27498 0
M  V30 21930 N 2033.87 1.31354 0.870861 0
M  V30 21931 C 2035.09 1.23948 1.65664 0
M  V30 21932 C 2035.51 -0.195353 1.87787 0
M  V30 21933 O 2034.87 -1.12708 1.43538 0
M  V30 21934 C 2034.92 1.97912 3.02511 0
M  V30 21935 O 2034.64 3.35795 2.81377 0
M  V30 21936 C 2036.14 1.97336 3.96955 0
M  V30 21937 H 2033.36 0.428328 0.516504 0
M  V30 21938 H 2035.9 1.73214 1.08706 0
M  V30 21939 H 2034.06 1.52409 3.5616 0
M  V30 21940 H 2034.47 3.73444 3.68293 0
M  V30 21941 H 2035.95 2.53601 4.90297 0
M  V30 21942 H 2036.42 0.955651 4.28677 0
M  V30 21943 H 2037.03 2.42714 3.49242 0
M  V30 21944 N 2035.34 -1.08505 1.143 0
M  V30 21945 C 2036.75 -1.62355 0.921836 0
M  V30 21946 C 2037.11 -1.88635 -0.539569 0
M  V30 21947 O 2036.23 -1.64307 -1.40827 0
M  V30 21948 C 2036.83 -2.94955 1.66694 0
M  V30 21949 C 2035.38 -3.45593 1.49139 0
M  V30 21950 C 2034.53 -2.19845 1.69008 0
M  V30 21951 H 2037.48 -0.917442 1.29494 0
M  V30 21952 H 2037.5 -3.63348 1.12954 0
M  V30 21953 H 2037.02 -2.75796 2.73053 0
M  V30 21954 H 2035.12 -3.69858 0.451226 0
M  V30 21955 H 2035.23 -4.2241 2.26068 0
M  V30 21956 H 2033.59 -2.28966 1.11565 0
M  V30 21957 H 2034.38 -2.03194 2.76707 0
M  V30 21958 N 2036.82 -0.937962 -1.26649 0
M  V30 21959 C 2038.07 -0.57958 -1.93194 0
M  V30 21960 C 2038.38 0.88505 -1.74431 0
M  V30 21961 O 2039.59 1.35267 -2.35404 0
M  V30 21962 C 2038.05 -0.985803 -3.46136 0
M  V30 21963 C 2037.65 -2.47182 -3.73637 0
M  V30 21964 C 2039.4 -0.699162 -4.18703 0
M  V30 21965 C 2037.3 -2.81691 -5.20004 0
M  V30 21966 H 2036.23 -0.213046 -0.723275 0
M  V30 21967 H 2038.89 -1.14017 -1.43779 0
M  V30 21968 H 2037.27 -0.353775 -3.94417 0
M  V30 21969 H 2038.44 -3.15263 -3.36075 0
M  V30 21970 H 2036.76 -2.73143 -3.14296 0
M  V30 21971 H 2039.35 -0.933359 -5.26491 0
M  V30 21972 H 2039.7 0.363979 -4.14706 0
M  V30 21973 H 2040.23 -1.29076 -3.76277 0
M  V30 21974 H 2036.97 -3.86955 -5.29099 0
M  V30 21975 H 2036.49 -2.1827 -5.58675 0
M  V30 21976 H 2038.17 -2.69984 -5.87978 0
M  V30 21977 N 2038.3 1.40971 -0.704618 0
M  V30 21978 C 2039.55 2.00309 -0.236478 0
M  V30 21979 C 2039.86 1.56482 1.17358 0
M  V30 21980 O 2041.07 2.08442 1.73966 0
M  V30 21981 C 2039.52 3.57974 -0.371877 0
M  V30 21982 C 2039.13 4.10779 -1.78788 0
M  V30 21983 C 2040.88 4.24485 0.0360284 0
M  V30 21984 C 2038.78 5.60909 -1.87445 0
M  V30 21985 H 2037.71 0.749233 -0.0846557 0
M  V30 21986 H 2040.36 1.61342 -0.874125 0
M  V30 21987 H 2038.75 3.94587 0.334172 0
M  V30 21988 H 2039.92 3.85565 -2.52342 0
M  V30 21989 H 2038.23 3.56826 -2.14626 0
M  V30 21990 H 2040.83 5.34699 -0.00808813 0
M  V30 21991 H 2041.17 4.02149 1.07621 0
M  V30 21992 H 2041.71 3.92938 -0.620069 0
M  V30 21993 H 2038.45 5.88084 -2.89546 0
M  V30 21994 H 2037.97 5.88021 -1.18287 0
M  V30 21995 H 2039.65 6.25831 -1.6415 0
M  V30 21996 N 2039.78 0.45001 1.51039 0
M  V30 21997 C 2040.74 -0.343489 2.26612 0
M  V30 21998 C 2041.74 -0.938789 1.3055 0
M  V30 21999 O 2042.93 -0.811258 1.54157 0
M  V30 22000 C 2040.06 -1.48719 3.0675 0
M  V30 22001 H 2041.26 0.318996 2.98199 0
M  V30 22002 H 2038.81 0.2035 1.5497 0
M  V30 22003 H 2039.54 -2.18535 2.3961 0
M  V30 22004 H 2039.33 -1.06636 3.77321 0
M  V30 22005 H 2040.82 -2.04748 3.63961 0
M  V30 22006 N 2041.26 -1.56548 0.18182 0
M  V30 22007 C 2042.5 -1.98256 -0.454541 0
M  V30 22008 C 2042.86 -1.06631 -1.60148 0
M  V30 22009 O 2042.15 -0.108046 -1.91295 0
M  V30 22010 C 2042.34 -3.43837 -0.975236 0
M  V30 22011 C 2042.17 -4.49541 0.11972 0
M  V30 22012 C 2040.94 -5.02042 0.572914 0
M  V30 22013 C 2043.14 -5.05933 0.923913 0
M  V30 22014 N 2041.12 -5.91392 1.64708 0
M  V30 22015 C 2042.49 -5.91826 1.84777 0
M  V30 22016 C 2044.55 -4.88403 0.967818 0
M  V30 22017 C 2043.25 -6.62063 2.81185 0
M  V30 22018 C 2045.28 -5.5937 1.91989 0
M  V30 22019 C 2044.64 -6.44998 2.83121 0
M  V30 22020 H 2040.74 -0.770411 -0.13413 0
M  V30 22021 H 2043.32 -1.92611 0.284458 0
M  V30 22022 H 2041.49 -3.50008 -1.68372 0
M  V30 22023 H 2043.23 -3.72536 -1.5811 0
M  V30 22024 H 2039.98 -4.73299 0.168686 0
M  V30 22025 H 2040.41 -6.40772 2.18496 0
M  V30 22026 H 2045.05 -4.2189 0.277265 0
M  V30 22027 H 2042.77 -7.27783 3.51223 0
M  V30 22028 H 2046.35 -5.47788 1.9601 0
M  V30 22029 H 2045.23 -6.98946 3.55591 0
M  V30 22030 N 2042.73 0.0918577 -1.57332 0
M  V30 22031 C 2043.98 0.795934 -1.86528 0
M  V30 22032 C 2044.31 1.78222 -0.771388 0
M  V30 22033 O 2043.59 1.93248 0.220326 0
M  V30 22034 C 2043.87 1.5218 -3.26364 0
M  V30 22035 C 2043.72 0.553281 -4.46384 0
M  V30 22036 C 2045.04 2.4716 -3.64143 0
M  V30 22037 H 2042.16 0.287896 -0.678443 0
M  V30 22038 H 2044.8 0.0594952 -1.89907 0
M  V30 22039 H 2042.95 2.14956 -3.23614 0
M  V30 22040 H 2044.63 -0.0677239 -4.6125 0
M  V30 22041 H 2042.87 -0.133076 -4.33596 0
M  V30 22042 H 2043.54 1.09838 -5.40962 0
M  V30 22043 H 2046.02 1.94474 -3.67857 0
M  V30 22044 H 2044.89 2.94964 -4.62912 0
M  V30 22045 H 2045.15 3.31065 -2.92999 0
M  V30 22046 N 2044.21 1.53368 0.362763 0
M  V30 22047 C 2045.16 1.80679 1.46485 0
M  V30 22048 C 2046.15 0.676074 1.55324 0
M  V30 22049 O 2047.36 0.859068 1.58177 0
M  V30 22050 H 2043.74 0.572116 0.488044 0
M  V30 22051 H 2045.71 2.72919 1.20656 0
M  V30 22052 C 2044.46 2.01611 2.83281 0
M  V30 22053 H 2043.78 2.88059 2.7724 0
M  V30 22054 H 2045.22 2.24696 3.59566 0
M  V30 22055 C 2043.68 0.796023 3.27361 0
M  V30 22056 O 2044.21 -0.0139218 4.01698 0
M  V30 22057 N 2042.41 0.618665 2.83938 0
M  V30 22058 H 2041.96 1.27892 2.2361 0
M  V30 22059 H 2041.92 -0.196265 3.13787 0
M  V30 22060 N 2045.69 -0.62272 1.44776 0
M  V30 22061 C 2047.11 -0.941829 1.28848 0
M  V30 22062 C 2047.31 -2.00178 0.230395 0
M  V30 22063 O 2046.36 -2.49611 -0.38085 0
M  V30 22064 C 2047.68 -1.39711 2.66273 0
M  V30 22065 C 2049.22 -1.51214 2.7405 0
M  V30 22066 C 2049.7 -2.00123 4.11964 0
M  V30 22067 N 2051.19 -2.07381 4.14183 0
M  V30 22068 C 2051.92 -2.46413 5.17753 0
M  V30 22069 N 2051.42 -2.84523 6.31679 0
M  V30 22070 N 2053.21 -2.46621 5.05109 0
M  V30 22071 H 2045.36 0.0781334 2.12256 0
M  V30 22072 H 2047.63 -0.0276831 0.947596 0
M  V30 22073 H 2047.33 -0.692534 3.44814 0
M  V30 22074 H 2047.21 -2.36654 2.93726 0
M  V30 22075 H 2049.59 -2.20767 1.95822 0
M  V30 22076 H 2049.68 -0.526248 2.50328 0
M  V30 22077 H 2049.32 -1.31163 4.90672 0
M  V30 22078 H 2049.25 -2.99599 4.33068 0
M  V30 22079 H 2051.74 -1.8058 3.31963 0
M  V30 22080 H 2052.05 -3.13144 7.06513 0
M  V30 22081 H 2050.4 -2.82254 6.35104 0
M  V30 22082 H 2053.59 -2.16244 4.15158 0
M  V30 22083 H 2053.76 -2.76715 5.85946 0
M  V30 22084 N 2047.17 -1.31814 -0.863883 0
M  V30 22085 C 2048.41 -1.23154 -1.63133 0
M  V30 22086 C 2048.77 0.205722 -1.90895 0
M  V30 22087 O 2049.97 0.415911 -2.65563 0
M  V30 22088 C 2048.24 -2.0581 -2.92194 0
M  V30 22089 S 2049.8 -2.14077 -3.83036 0
M  V30 22090 H 2046.62 -0.438531 -0.559653 0
M  V30 22091 H 2049.22 -1.66551 -1.02377 0
M  V30 22092 H 2047.93 -3.09311 -2.69731 0
M  V30 22093 H 2047.46 -1.63155 -3.57972 0
M  V30 22094 H 2049.47 -1.28353 -4.79312 0
M  V30 22095 N 2048.65 1.07897 -1.14873 0
M  V30 22096 C 2049.89 1.80653 -0.921532 0
M  V30 22097 C 2050.23 1.8624 0.550287 0
M  V30 22098 O 2049.5 1.34206 1.4078 0
M  V30 22099 C 2049.78 3.26 -1.52958 0
M  V30 22100 C 2049.64 3.28591 -3.07161 0
M  V30 22101 C 2050.96 4.23118 -1.21076 0
M  V30 22102 H 2048.07 0.655845 -0.336208 0
M  V30 22103 H 2050.72 1.26293 -1.41951 0
M  V30 22104 H 2048.87 3.72421 -1.1061 0
M  V30 22105 H 2050.54 2.90454 -3.58377 0
M  V30 22106 H 2048.78 2.67712 -3.4134 0
M  V30 22107 H 2049.45 4.31053 -3.44815 0
M  V30 22108 H 2051.93 3.85059 -1.57697 0
M  V30 22109 H 2050.8 5.23119 -1.66246 0
M  V30 22110 H 2051.07 4.41918 -0.12688 0
M  V30 22111 N 2050.12 0.944665 1.2615 0
M  V30 22112 C 2051.37 0.594973 1.93876 0
M  V30 22113 C 2051.7 -0.864305 1.73906 0
M  V30 22114 O 2050.98 -1.61882 1.07817 0
M  V30 22115 C 2051.26 0.9423 3.47552 0
M  V30 22116 C 2051.11 2.45658 3.76792 0
M  V30 22117 C 2052.43 0.460204 4.37687 0
M  V30 22118 H 2049.55 0.217629 0.704135 0
M  V30 22119 H 2052.19 1.17952 1.48954 0
M  V30 22120 H 2050.34 0.444863 3.85945 0
M  V30 22121 H 2052.02 3.02701 3.48095 0
M  V30 22122 H 2050.26 2.89856 3.22747 0
M  V30 22123 H 2050.93 2.65011 4.84224 0
M  V30 22124 H 2053.41 0.886761 4.06541 0
M  V30 22125 H 2052.28 0.732019 5.43997 0
M  V30 22126 H 2052.54 -0.639853 4.37445 0
M  V30 22127 N 2051.6 -1.40596 0.712085 0
M  V30 22128 C 2052.83 -2.05787 0.258197 0
M  V30 22129 C 2053.25 -1.53289 -1.09015 0
M  V30 22130 O 2052.61 -0.666771 -1.68594 0
M  V30 22131 C 2052.66 -3.59771 0.244357 0
M  V30 22132 O 2051.76 -4.05042 -0.77555 0
M  V30 22133 H 2051.1 -0.652692 0.12202 0
M  V30 22134 H 2053.63 -1.80059 0.971583 0
M  V30 22135 H 2053.64 -4.0792 0.0808437 0
M  V30 22136 H 2052.32 -3.97347 1.22834 0
M  V30 22137 H 2050.9 -3.68361 -0.580045 0
M  V30 22138 N 2053.08 -0.458013 -1.50798 0
M  V30 22139 C 2054.33 0.10308 -2.01436 0
M  V30 22140 C 2054.64 1.41957 -1.34564 0
M  V30 22141 O 2055.85 2.06484 -1.76286 0
M  V30 22142 C 2054.3 0.234229 -3.59137 0
M  V30 22143 C 2053.91 -1.07305 -4.34959 0
M  V30 22144 C 2055.66 0.747982 -4.17858 0
M  V30 22145 C 2053.56 -0.906414 -5.84413 0
M  V30 22146 H 2052.49 0.0422981 -0.752813 0
M  V30 22147 H 2055.14 -0.590924 -1.73725 0
M  V30 22148 H 2053.53 0.991716 -3.83381 0
M  V30 22149 H 2054.7 -1.84048 -4.22449 0
M  V30 22150 H 2053.02 -1.51691 -3.87787 0
M  V30 22151 H 2055.61 0.889478 -5.2725 0
M  V30 22152 H 2055.96 1.73592 -3.7838 0
M  V30 22153 H 2056.49 0.048243 -3.97771 0
M  V30 22154 H 2053.23 -1.86733 -6.2834 0
M  V30 22155 H 2052.75 -0.179147 -5.99532 0
M  V30 22156 H 2054.43 -0.567802 -6.44504 0
M  V30 22157 N 2054.56 1.56449 -0.190119 0
M  V30 22158 C 2055.81 1.97438 0.449957 0
M  V30 22159 C 2056.13 1.07682 1.61972 0
M  V30 22160 O 2055.39 0.114859 1.95363 0
M  V30 22161 C 2055.69 3.44349 0.956988 0
M  V30 22162 C 2055.35 4.50792 -0.098868 0
M  V30 22163 C 2054.02 4.79625 -0.389003 0
M  V30 22164 C 2056.37 5.14795 -0.814559 0
M  V30 22165 C 2053.7 5.69754 -1.39989 0
M  V30 22166 C 2056.05 6.06017 -1.81456 0
M  V30 22167 C 2054.71 6.33209 -2.11195 0
M  V30 22168 H 2053.98 0.722476 0.164651 0
M  V30 22169 H 2056.63 1.89352 -0.286039 0
M  V30 22170 H 2054.93 3.49481 1.77116 0
M  V30 22171 H 2056.63 3.73416 1.46155 0
M  V30 22172 H 2053.22 4.2838 0.137435 0
M  V30 22173 H 2057.41 4.92615 -0.603633 0
M  V30 22174 H 2052.66 5.89098 -1.63627 0
M  V30 22175 H 2056.84 6.54672 -2.37438 0
M  V30 22176 H 2054.46 7.02847 -2.89672 0
M  V30 22177 N 2056.04 -0.0835127 1.57379 0
M  V30 22178 C 2057.29 -0.783627 1.85855 0
M  V30 22179 C 2057.6 -1.79328 0.781081 0
M  V30 22180 O 2058.81 -2.54212 0.953327 0
M  V30 22181 C 2057.26 -1.44454 3.29638 0
M  V30 22182 C 2056.87 -0.474058 4.45485 0
M  V30 22183 C 2058.61 -2.1277 3.67327 0
M  V30 22184 C 2056.52 -1.14022 5.80304 0
M  V30 22185 H 2055.45 -0.296407 0.693295 0
M  V30 22186 H 2058.1 -0.0367253 1.83463 0
M  V30 22187 H 2056.48 -2.2393 3.26606 0
M  V30 22188 H 2057.66 0.290043 4.59886 0
M  V30 22189 H 2055.97 0.104026 4.1627 0
M  V30 22190 H 2058.57 -2.63365 4.65342 0
M  V30 22191 H 2058.91 -2.92187 2.96534 0
M  V30 22192 H 2059.45 -1.4014 3.72298 0
M  V30 22193 H 2056.18 -0.386619 6.54359 0
M  V30 22194 H 2055.7 -1.87547 5.69725 0
M  V30 22195 H 2057.38 -1.66341 6.25252 0
M  V30 22196 N 2057.52 -1.53558 -0.354624 0
M  V30 22197 C 2058.76 -1.70523 -1.09772 0
M  V30 22198 C 2059.09 -0.461312 -1.88641 0
M  V30 22199 O 2058.37 0.541553 -1.86809 0
M  V30 22200 C 2058.65 -2.96191 -2.04799 0
M  V30 22201 C 2058.51 -4.30765 -1.29465 0
M  V30 22202 C 2059.82 -3.17493 -3.04772 0
M  V30 22203 H 2056.94 -0.620497 -0.397683 0
M  V30 22204 H 2059.59 -1.86214 -0.377395 0
M  V30 22205 H 2057.74 -2.82944 -2.66223 0
M  V30 22206 H 2059.41 -4.55844 -0.707409 0
M  V30 22207 H 2057.65 -4.29678 -0.596569 0
M  V30 22208 H 2058.32 -5.14852 -1.99076 0
M  V30 22209 H 2060.8 -3.29998 -2.53458 0
M  V30 22210 H 2059.67 -4.06838 -3.68476 0
M  V30 22211 H 2059.93 -2.33276 -3.75546 0
M  V30 22212 N 2058.99 0.615033 -1.45104 0
M  V30 22213 C 2060.24 1.37424 -1.48731 0
M  V30 22214 C 2060.57 1.94091 -0.12613 0
M  V30 22215 O 2059.82 1.75087 0.874249 0
M  V30 22216 C 2060.12 2.54609 -2.50816 0
M  V30 22217 C 2059.79 2.16134 -3.95723 0
M  V30 22218 C 2058.45 2.05355 -4.35181 0
M  V30 22219 C 2060.8 1.85994 -4.86883 0
M  V30 22220 C 2058.13 1.62647 -5.63705 0
M  V30 22221 C 2060.48 1.44774 -6.15811 0
M  V30 22222 C 2059.15 1.32548 -6.54207 0
M  V30 22223 H 2058.42 0.502868 -0.544247 0
M  V30 22224 H 2061.06 0.695889 -1.78409 0
M  V30 22225 H 2059.37 3.27749 -2.14681 0
M  V30 22226 H 2061.07 3.12839 -2.50864 0
M  V30 22227 H 2057.66 2.25448 -3.64515 0
M  V30 22228 H 2061.84 1.93224 -4.57141 0
M  V30 22229 H 2057.1 1.51797 -5.92256 0
M  V30 22230 H 2061.27 1.20496 -6.85896 0
M  V30 22231 H 2058.9 0.992281 -7.53696 0
M  V30 22232 N 2060.47 1.3227 0.85688 0
M  V30 22233 C 2061.72 1.22703 1.6109 0
M  V30 22234 C 2062.05 -0.211682 1.93345 0
M  V30 22235 O 2061.3 -1.16408 1.57314 0
M  V30 22236 C 2061.6 2.02967 2.94175 0
M  V30 22237 C 2061.27 3.52346 2.8136 0
M  V30 22238 C 2059.93 3.93074 2.77572 0
M  V30 22239 C 2062.28 4.47347 2.67452 0
M  V30 22240 C 2059.61 5.27049 2.57751 0
M  V30 22241 C 2061.96 5.81463 2.49167 0
M  V30 22242 C 2060.62 6.21396 2.4377 0
M  V30 22243 H 2059.89 0.449003 0.589472 0
M  V30 22244 H 2062.54 1.63673 0.994156 0
M  V30 22245 H 2060.85 1.54719 3.59957 0
M  V30 22246 H 2062.54 1.92936 3.51535 0
M  V30 22247 H 2059.13 3.19997 2.85132 0
M  V30 22248 H 2063.32 4.16802 2.69424 0
M  V30 22249 H 2058.57 5.57048 2.52007 0
M  V30 22250 H 2062.75 6.54692 2.37384 0
M  V30 22251 H 2060.37 7.2515 2.28171 0
M  V30 22252 N 2061.95 -1.07287 1.15444 0
M  V30 22253 C 2063.2 -1.79277 0.924257 0
M  V30 22254 C 2063.51 -1.8771 -0.549932 0
M  V30 22255 O 2064.72 -2.56229 -0.897718 0
M  V30 22256 C 2063.17 -3.22168 1.60424 0
M  V30 22257 C 2062.78 -3.21934 3.11549 0
M  V30 22258 C 2064.53 -3.98763 1.45563 0
M  V30 22259 C 2062.43 -4.59482 3.72331 0
M  V30 22260 H 2061.36 -0.671898 0.342153 0
M  V30 22261 H 2064.01 -1.20415 1.38465 0
M  V30 22262 H 2062.4 -3.81227 1.07154 0
M  V30 22263 H 2063.57 -2.72516 3.7158 0
M  V30 22264 H 2061.88 -2.58836 3.26179 0
M  V30 22265 H 2064.48 -5.00423 1.88364 0
M  V30 22266 H 2064.82 -4.14343 0.403205 0
M  V30 22267 H 2065.36 -3.46201 1.95933 0
M  V30 22268 H 2062.1 -4.49106 4.77476 0
M  V30 22269 H 2061.62 -5.09135 3.17083 0
M  V30 22270 H 2063.3 -5.2845 3.73296 0
M  V30 22271 N 2063.43 -0.951342 -1.25647 0
M  V30 22272 C 2064.65 -0.620954 -1.97886 0
M  V30 22273 C 2065.08 0.799383 -1.70269 0
M  V30 22274 O 2064.44 1.54005 -0.956672 0
M  V30 22275 C 2064.48 -0.881873 -3.4965 0
M  V30 22276 O 2063.59 0.0409801 -4.1238 0
M  V30 22277 H 2062.93 -0.236433 -0.62048 0
M  V30 22278 H 2065.46 -1.27704 -1.59852 0
M  V30 22279 H 2065.47 -0.806823 -3.99943 0
M  V30 22280 H 2064.14 -1.91708 -3.69081 0
M  V30 22281 H 2062.72 -0.0859938 -3.72801 0
M  V30 22282 N 2064.91 1.40216 -0.719531 0
M  V30 22283 C 2066.15 2.00814 -0.26074 0
M  V30 22284 C 2066.48 1.5706 1.14727 0
M  V30 22285 O 2065.74 0.783515 1.79331 0
M  V30 22286 C 2066.03 3.56196 -0.293164 0
M  V30 22287 C 2065.7 4.19546 -1.65202 0
M  V30 22288 C 2064.36 4.36564 -2.02398 0
M  V30 22289 C 2066.71 4.54844 -2.54492 0
M  V30 22290 C 2064.04 4.86164 -3.28422 0
M  V30 22291 C 2066.39 5.05845 -3.79873 0
M  V30 22292 C 2065.06 5.21072 -4.17181 0
M  V30 22293 H 2064.33 0.734832 -0.0954117 0
M  V30 22294 H 2066.98 1.6777 -0.923337 0
M  V30 22295 H 2065.28 3.89172 0.453006 0
M  V30 22296 H 2066.98 4.00921 0.0797168 0
M  V30 22297 H 2063.57 4.06691 -1.35278 0
M  V30 22298 H 2067.75 4.41329 -2.2703 0
M  V30 22299 H 2063.01 4.96138 -3.57292 0
M  V30 22300 H 2067.18 5.32134 -4.49229 0
M  V30 22301 H 2064.81 5.59268 -5.14902 0
M  V30 22302 N 2066.38 0.466004 1.50553 0
M  V30 22303 C 2067.63 -0.0908736 2.02596 0
M  V30 22304 C 2067.96 -1.39827 1.34767 0
M  V30 22305 O 2067.24 -1.88693 0.471719 0
M  V30 22306 C 2067.52 -0.279963 3.5901 0
M  V30 22307 C 2067.37 1.0481 4.37419 0
M  V30 22308 C 2068.69 -1.03683 4.27712 0
M  V30 22309 H 2065.81 -0.031552 0.736324 0
M  V30 22310 H 2068.45 0.610602 1.79921 0
M  V30 22311 H 2066.6 -0.877461 3.78461 0
M  V30 22312 H 2068.28 1.68178 4.29551 0
M  V30 22313 H 2066.52 1.64595 4.01361 0
M  V30 22314 H 2067.19 0.869493 5.45109 0
M  V30 22315 H 2069.67 -0.53043 4.12705 0
M  V30 22316 H 2068.54 -1.13792 5.36975 0
M  V30 22317 H 2068.8 -2.07215 3.90531 0
M  V30 22318 N 2067.86 -1.56346 0.198413 0
M  V30 22319 C 2069.27 -1.84047 -0.313597 0
M  V30 22320 C 2069.62 -1.11918 -1.61148 0
M  V30 22321 O 2068.75 -0.381091 -2.13018 0
M  V30 22322 C 2069.34 -3.33872 -0.575755 0
M  V30 22323 C 2067.9 -3.61973 -1.03213 0
M  V30 22324 C 2067.05 -2.77177 -0.0825349 0
M  V30 22325 H 2070 -1.52983 0.422128 0
M  V30 22326 H 2070.02 -3.52823 -1.42466 0
M  V30 22327 H 2069.53 -3.86341 0.369036 0
M  V30 22328 H 2067.63 -3.14939 -1.99108 0
M  V30 22329 H 2067.75 -4.70134 -0.922545 0
M  V30 22330 H 2066.11 -2.4789 -0.585043 0
M  V30 22331 H 2066.89 -3.32437 0.856759 0
M  V30 22332 N 2069.34 0.0751653 -1.57421 0
M  V30 22333 C 2070.27 1.09007 -2.06494 0
M  V30 22334 C 2071.25 1.40573 -0.957766 0
M  V30 22335 O 2072.44 1.50259 -1.23028 0
M  V30 22336 C 2069.57 2.40446 -2.50605 0
M  V30 22337 C 2068.52 2.2324 -3.65168 0
M  V30 22338 C 2067.85 3.60033 -3.95323 0
M  V30 22339 C 2069.15 1.65642 -4.95338 0
M  V30 22340 H 2070.84 0.681725 -2.91535 0
M  V30 22341 H 2068.39 0.326481 -1.4025 0
M  V30 22342 H 2070.34 3.11734 -2.83548 0
M  V30 22343 H 2069.06 2.83254 -1.62588 0
M  V30 22344 H 2067.72 1.54393 -3.32503 0
M  V30 22345 H 2067.37 4.00404 -3.04443 0
M  V30 22346 H 2067.07 3.4936 -4.72463 0
M  V30 22347 H 2068.59 4.32757 -4.30759 0
M  V30 22348 H 2070.01 2.26793 -5.26534 0
M  V30 22349 H 2068.41 1.65675 -5.76777 0
M  V30 22350 H 2069.48 0.617593 -4.80951 0
M  V30 22351 N 2070.82 1.53744 0.346476 0
M  V30 22352 C 2071.78 1.80833 1.40826 0
M  V30 22353 C 2072.78 0.679291 1.45747 0
M  V30 22354 O 2073.97 0.947566 1.46174 0
M  V30 22355 C 2071.1 1.94771 2.79781 0
M  V30 22356 H 2072.3 2.75679 1.18071 0
M  V30 22357 H 2069.85 1.45112 0.5807 0
M  V30 22358 H 2070.58 1.02057 3.07823 0
M  V30 22359 H 2070.37 2.76908 2.77605 0
M  V30 22360 H 2071.86 2.17255 3.56637 0
M  V30 22361 N 2072.3 -0.607329 1.45428 0
M  V30 22362 C 2073.54 -1.36835 1.49679 0
M  V30 22363 C 2073.88 -1.93708 0.138148 0
M  V30 22364 O 2073.15 -1.75069 -0.847414 0
M  V30 22365 C 2073.43 -2.51607 2.57616 0
M  V30 22366 C 2073.29 -1.99929 4.02925 0
M  V30 22367 C 2074.61 -3.53738 2.61835 0
M  V30 22368 H 2071.72 -0.496187 0.544947 0
M  V30 22369 H 2074.37 -0.684587 1.77238 0
M  V30 22370 H 2072.52 -3.09936 2.34247 0
M  V30 22371 H 2074.19 -1.46247 4.37504 0
M  V30 22372 H 2072.43 -1.30929 4.1357 0
M  V30 22373 H 2073.1 -2.82666 4.74135 0
M  V30 22374 H 2075.58 -3.0525 2.82775 0
M  V30 22375 H 2074.45 -4.31533 3.39221 0
M  V30 22376 H 2074.72 -4.09372 1.66935 0
M  V30 22377 N 2073.77 -1.32722 -0.849853 0
M  V30 22378 C 2074.71 -1.1789 -1.96557 0
M  V30 22379 C 2075.72 -0.112655 -1.6241 0
M  V30 22380 O 2076.91 -0.362063 -1.74789 0
M  V30 22381 C 2074.01 -0.783347 -3.29722 0
M  V30 22382 C 2073.18 -1.9389 -3.92078 0
M  V30 22383 C 2072.24 -1.52611 -5.03583 0
M  V30 22384 O 2071.27 -2.23885 -5.2332 0
M  V30 22385 N 2072.47 -0.424856 -5.78943 0
M  V30 22386 H 2075.23 -2.13998 -2.09821 0
M  V30 22387 H 2072.79 -1.25323 -1.02498 0
M  V30 22388 H 2074.79 -0.489511 -4.01729 0
M  V30 22389 H 2073.36 0.0867245 -3.1248 0
M  V30 22390 H 2072.58 -2.39897 -3.12799 0
M  V30 22391 H 2073.86 -2.71238 -4.30473 0
M  V30 22392 H 2073.26 0.168251 -5.6545 0
M  V30 22393 H 2071.82 -0.190647 -6.51521 0
M  V30 22394 N 2075.25 1.06673 -1.16011 0
M  V30 22395 C 2076.16 2.17576 -0.877386 0
M  V30 22396 C 2077.18 1.73362 0.148919 0
M  V30 22397 O 2078.35 2.01382 -0.0268051 0
M  V30 22398 C 2075.42 3.44631 -0.378223 0
M  V30 22399 C 2074.48 4.03374 -1.46928 0
M  V30 22400 C 2073.71 5.24365 -0.993837 0
M  V30 22401 O 2073.94 5.70181 0.157925 0
M  V30 22402 O 2072.87 5.74962 -1.78052 0
M  V30 22403 H 2076.7 2.44264 -1.80468 0
M  V30 22404 H 2074.28 1.1614 -0.939777 0
M  V30 22405 H 2076.16 4.21265 -0.106644 0
M  V30 22406 H 2074.84 3.19478 0.521114 0
M  V30 22407 H 2073.75 3.28248 -1.79455 0
M  V30 22408 H 2075.08 4.32814 -2.34378 0
M  V30 22409 N 2076.73 0.957992 1.25141 0
M  V30 22410 C 2077.66 0.499001 2.28106 0
M  V30 22411 C 2078.64 -0.456388 1.63863 0
M  V30 22412 O 2079.83 -0.354616 1.90935 0
M  V30 22413 C 2076.96 -0.220851 3.46597 0
M  V30 22414 C 2075.91 0.649607 4.23042 0
M  V30 22415 C 2075.24 -0.201181 5.34321 0
M  V30 22416 C 2076.54 1.92939 4.85357 0
M  V30 22417 H 2078.23 1.35959 2.6675 0
M  V30 22418 H 2075.78 0.655192 1.28231 0
M  V30 22419 H 2077.73 -0.553105 4.17754 0
M  V30 22420 H 2076.45 -1.11571 3.06952 0
M  V30 22421 H 2075.11 0.964992 3.53671 0
M  V30 22422 H 2074.76 -1.0959 4.90917 0
M  V30 22423 H 2074.46 0.377954 5.86383 0
M  V30 22424 H 2075.98 -0.528325 6.0831 0
M  V30 22425 H 2077.4 1.66333 5.4864 0
M  V30 22426 H 2075.8 2.45445 5.4761 0
M  V30 22427 H 2076.87 2.6304 4.07355 0
M  V30 22428 N 2078.21 -1.39832 0.726957 0
M  V30 22429 C 2079.44 -2.04978 0.281383 0
M  V30 22430 C 2079.85 -1.54795 -1.08092 0
M  V30 22431 O 2079.21 -0.709375 -1.68149 0
M  V30 22432 C 2079.26 -3.60526 0.265184 0
M  V30 22433 O 2078.98 -4.0886 1.5737 0
M  V30 22434 C 2080.48 -4.4286 -0.197547 0
M  V30 22435 H 2077.7 -0.659374 0.124366 0
M  V30 22436 H 2080.25 -1.7903 0.988352 0
M  V30 22437 H 2078.4 -3.85403 -0.392835 0
M  V30 22438 H 2078.81 -5.03132 1.48183 0
M  V30 22439 H 2080.29 -5.51775 -0.157727 0
M  V30 22440 H 2080.77 -4.21288 -1.24149 0
M  V30 22441 H 2081.37 -4.23114 0.430611 0
M  V30 22442 N 2079.69 -0.473982 -1.50304 0
M  V30 22443 C 2080.6 0.323933 -2.32353 0
M  V30 22444 C 2081.61 0.993251 -1.42865 0
M  V30 22445 O 2082.79 0.980589 -1.75916 0
M  V30 22446 C 2079.85 1.38999 -3.17616 0
M  V30 22447 C 2078.91 0.736965 -4.22927 0
M  V30 22448 C 2078.15 1.75223 -5.04116 0
M  V30 22449 O 2078.37 2.97908 -4.86423 0
M  V30 22450 O 2077.3 1.32246 -5.87192 0
M  V30 22451 H 2081.13 -0.346913 -3.01712 0
M  V30 22452 H 2078.72 -0.235777 -1.47528 0
M  V30 22453 H 2080.6 2.00742 -3.70514 0
M  V30 22454 H 2079.27 2.04425 -2.50982 0
M  V30 22455 H 2078.18 0.0805047 -3.74013 0
M  V30 22456 H 2079.51 0.125602 -4.9204 0
M  V30 22457 N 2081.16 1.56239 -0.206702 0
M  V30 22458 C 2082.58 1.58903 0.148953 0
M  V30 22459 C 2082.78 1.22319 1.60126 0
M  V30 22460 O 2081.84 0.951402 2.3389 0
M  V30 22461 C 2083.15 3.00253 -0.163906 0
M  V30 22462 C 2084.7 3.12824 -0.104945 0
M  V30 22463 C 2085.17 4.56326 -0.391273 0
M  V30 22464 N 2086.66 4.61948 -0.340308 0
M  V30 22465 C 2087.4 5.70894 -0.535549 0
M  V30 22466 N 2086.89 6.88261 -0.791765 0
M  V30 22467 N 2088.69 5.6014 -0.469005 0
M  V30 22468 H 2080.84 1.78298 -1.15428 0
M  V30 22469 H 2083.1 0.828039 -0.46158 0
M  V30 22470 H 2082.81 3.31621 -1.17133 0
M  V30 22471 H 2082.68 3.73485 0.528093 0
M  V30 22472 H 2085.07 2.81261 0.893101 0
M  V30 22473 H 2085.15 2.41953 -0.830197 0
M  V30 22474 H 2084.79 4.88603 -1.38669 0
M  V30 22475 H 2084.72 5.25402 0.355001 0
M  V30 22476 H 2087.21 3.77605 -0.149364 0
M  V30 22477 H 2087.53 7.67193 -0.929241 0
M  V30 22478 H 2085.87 6.90041 -0.828792 0
M  V30 22479 H 2089.06 4.67325 -0.269173 0
M  V30 22480 H 2089.24 6.44983 -0.624576 0
M  V30 22481 N 2082.64 -0.0668159 1.57458 0
M  V30 22482 C 2083.89 -0.763514 1.87123 0
M  V30 22483 C 2084.21 -1.77862 0.799382 0
M  V30 22484 O 2083.48 -1.95149 -0.171413 0
M  V30 22485 H 2082.06 -0.284974 0.690506 0
M  V30 22486 H 2084.72 -0.0417221 1.94855 0
M  V30 22487 H 2083.82 -1.27663 2.84796 0
M  V30 22488 N 2084.12 -1.53926 -0.338317 0
M  V30 22489 C 2085.05 -1.85269 -1.42119 0
M  V30 22490 C 2086.03 -0.708238 -1.54654 0
M  V30 22491 O 2087.22 -0.960631 -1.68777 0
M  V30 22492 C 2084.35 -2.06693 -2.79097 0
M  V30 22493 C 2083.3 -3.22519 -2.81364 0
M  V30 22494 C 2082.63 -3.29286 -4.21277 0
M  V30 22495 C 2083.93 -4.6051 -2.46431 0
M  V30 22496 H 2085.62 -2.75957 -1.16137 0
M  V30 22497 H 2083.17 -1.32781 -0.557249 0
M  V30 22498 H 2085.12 -2.27204 -3.54903 0
M  V30 22499 H 2083.84 -1.1274 -3.06524 0
M  V30 22500 H 2082.5 -3.01872 -2.08011 0
M  V30 22501 H 2082.15 -2.32919 -4.45823 0
M  V30 22502 H 2081.85 -4.07123 -4.23704 0
M  V30 22503 H 2083.38 -3.52014 -4.98918 0
M  V30 22504 H 2084.79 -4.80999 -3.1195 0
M  V30 22505 H 2083.19 -5.40788 -2.60132 0
M  V30 22506 H 2084.26 -4.63762 -1.41607 0
M  V30 22507 N 2085.6 0.599608 -1.45748 0
M  V30 22508 C 2086.85 1.35838 -1.51393 0
M  V30 22509 C 2087.2 1.91761 -0.156633 0
M  V30 22510 O 2086.49 1.72567 0.832531 0
M  V30 22511 C 2086.69 2.51935 -2.53503 0
M  V30 22512 C 2086.52 2.07381 -3.99028 0
M  V30 22513 C 2085.29 1.93182 -4.66914 0
M  V30 22514 C 2087.48 1.64365 -4.87328 0
M  V30 22515 N 2085.47 1.42522 -5.97127 0
M  V30 22516 C 2086.84 1.25177 -6.07232 0
M  V30 22517 C 2088.89 1.52029 -4.74122 0
M  V30 22518 C 2087.6 0.748841 -7.15391 0
M  V30 22519 C 2089.62 1.0314 -5.82337 0
M  V30 22520 C 2088.98 0.64921 -7.01402 0
M  V30 22521 H 2085.08 0.490679 -0.608899 0
M  V30 22522 H 2087.67 0.684595 -1.82267 0
M  V30 22523 H 2085.84 3.16898 -2.24566 0
M  V30 22524 H 2087.57 3.18839 -2.49246 0
M  V30 22525 H 2084.32 2.14612 -4.22183 0
M  V30 22526 H 2084.75 1.19401 -6.66387 0
M  V30 22527 H 2089.39 1.802 -3.82476 0
M  V30 22528 H 2087.11 0.454687 -8.0682 0
M  V30 22529 H 2090.69 0.940098 -5.74155 0
M  V30 22530 H 2089.57 0.276733 -7.83712 0
M  V30 22531 N 2087.08 1.33171 0.842803 0
M  V30 22532 C 2088.49 1.1242 1.13287 0
M  V30 22533 C 2088.69 -0.0875106 2.0131 0
M  V30 22534 O 2087.75 -0.768934 2.40507 0
M  V30 22535 C 2089.06 2.40967 1.79876 0
M  V30 22536 C 2090.61 2.46837 1.92459 0
M  V30 22537 C 2091.09 3.75336 2.62463 0
M  V30 22538 N 2092.58 3.76385 2.69979 0
M  V30 22539 C 2093.31 4.72521 3.24825 0
M  V30 22540 N 2092.81 5.7903 3.80389 0
M  V30 22541 N 2094.6 4.60002 3.2304 0
M  V30 22542 H 2086.75 2.10841 0.256882 0
M  V30 22543 H 2089.01 0.931431 0.176468 0
M  V30 22544 H 2088.72 3.29618 1.22656 0
M  V30 22545 H 2088.59 2.52821 2.79931 0
M  V30 22546 H 2090.98 1.58638 2.48833 0
M  V30 22547 H 2091.06 2.38927 0.913649 0
M  V30 22548 H 2090.71 4.63915 2.06749 0
M  V30 22549 H 2090.64 3.80521 3.64021 0
M  V30 22550 H 2093.13 2.99407 2.30573 0
M  V30 22551 H 2093.44 6.48427 4.20431 0
M  V30 22552 H 2091.79 5.8277 3.78688 0
M  V30 22553 H 2094.98 3.75953 2.78886 0
M  V30 22554 H 2095.15 5.35096 3.65482 0
M  V30 22555 N 2088.56 -1.06056 1.16576 0
M  V30 22556 C 2089.49 -2.13035 0.817996 0
M  V30 22557 C 2090.47 -1.6122 -0.211409 0
M  V30 22558 O 2091.65 -1.88261 -0.0949392 0
M  V30 22559 C 2088.78 -3.37993 0.218692 0
M  V30 22560 C 2087.82 -4.08616 1.22209 0
M  V30 22561 S 2088.66 -4.58305 2.76978 0
M  V30 22562 C 2089.81 -5.86521 2.18503 0
M  V30 22563 H 2090.05 -2.42205 1.72406 0
M  V30 22564 H 2087.58 -1.18527 0.989482 0
M  V30 22565 H 2089.54 -4.10323 -0.120616 0
M  V30 22566 H 2088.2 -3.06976 -0.665173 0
M  V30 22567 H 2087.39 -4.9837 0.75124 0
M  V30 22568 H 2086.99 -3.42312 1.50661 0
M  V30 22569 H 2089.28 -6.59409 1.55519 0
M  V30 22570 H 2090.23 -6.3834 3.06476 0
M  V30 22571 H 2090.64 -5.40668 1.62292 0
M  V30 22572 N 2090.03 -0.964615 -1.24631 0
M  V30 22573 C 2091 -0.497206 -2.23742 0
M  V30 22574 C 2092 0.404569 -1.55627 0
M  V30 22575 O 2093.19 0.200461 -1.73043 0
M  V30 22576 C 2090.32 0.280348 -3.39745 0
M  V30 22577 H 2091.51 -1.37334 -2.66607 0
M  V30 22578 H 2089.06 -0.748889 -1.37191 0
M  V30 22579 H 2089.8 1.17372 -3.02315 0
M  V30 22580 H 2089.58 -0.366741 -3.90381 0
M  V30 22581 H 2091.07 0.596501 -4.13318 0
M  V30 22582 N 2091.51 1.39445 -0.734362 0
M  V30 22583 C 2092.74 2.04826 -0.29225 0
M  V30 22584 C 2093.15 1.55366 1.0727 0
M  V30 22585 O 2092.51 0.718282 1.67771 0
M  V30 22586 C 2092.56 3.6038 -0.2843 0
M  V30 22587 O 2092.28 4.08019 -1.59536 0
M  V30 22588 C 2093.78 4.42958 0.174058 0
M  V30 22589 H 2091 0.658705 -0.127861 0
M  V30 22590 H 2093.55 1.78504 -0.997833 0
M  V30 22591 H 2091.7 3.85606 0.372391 0
M  V30 22592 H 2092.12 5.02339 -1.50849 0
M  V30 22593 H 2093.59 5.5185 0.128462 0
M  V30 22594 H 2094.07 4.21941 1.21913 0
M  V30 22595 H 2094.67 4.2288 -0.453043 0
M  V30 22596 N 2092.99 0.481946 1.5005 0
M  V30 22597 C 2094.41 0.13674 1.59013 0
M  V30 22598 C 2094.61 -1.35753 1.48908 0
M  V30 22599 O 2093.66 -2.1318 1.35316 0
M  V30 22600 C 2094.97 0.696597 2.9252 0
M  V30 22601 C 2096.52 0.660993 3.05941 0
M  V30 22602 C 2097 1.19858 4.42038 0
M  V30 22603 N 2098.49 1.15846 4.4848 0
M  V30 22604 C 2099.22 1.54481 5.52199 0
M  V30 22605 N 2098.72 2.00617 6.63117 0
M  V30 22606 N 2100.51 1.46016 5.42804 0
M  V30 22607 H 2092.66 1.45367 1.54862 0
M  V30 22608 H 2094.93 0.601814 0.732478 0
M  V30 22609 H 2094.63 1.74381 3.05425 0
M  V30 22610 H 2094.51 0.146249 3.76916 0
M  V30 22611 H 2096.89 -0.377335 2.92678 0
M  V30 22612 H 2096.97 1.24827 2.23275 0
M  V30 22613 H 2096.62 2.2356 4.56052 0
M  V30 22614 H 2096.55 0.587419 5.23313 0
M  V30 22615 H 2099.04 0.820197 3.68892 0
M  V30 22616 H 2099.35 2.28217 7.38334 0
M  V30 22617 H 2097.7 2.04578 6.64209 0
M  V30 22618 H 2100.89 1.09805 4.55039 0
M  V30 22619 H 2101.06 1.7645 6.23514 0
M  V30 22620 N 2094.47 -1.56127 0.214985 0
M  V30 22621 C 2095.4 -2.22991 -0.69263 0
M  V30 22622 C 2096.38 -1.19946 -1.20611 0
M  V30 22623 O 2097.56 -1.48512 -1.25131 0
M  V30 22624 C 2094.69 -2.90473 -1.90376 0
M  V30 22625 C 2093.65 -3.99933 -1.52439 0
M  V30 22626 C 2092.97 -4.54678 -2.81375 0
M  V30 22627 C 2094.27 -5.17323 -0.719325 0
M  V30 22628 H 2095.97 -2.99095 -0.135168 0
M  V30 22629 H 2093.51 -1.4386 -0.0635721 0
M  V30 22630 H 2095.47 -3.35938 -2.54408 0
M  V30 22631 H 2094.19 -2.11806 -2.48608 0
M  V30 22632 H 2092.85 -3.55189 -0.907557 0
M  V30 22633 H 2092.5 -3.72749 -3.37739 0
M  V30 22634 H 2092.2 -5.28549 -2.56729 0
M  V30 22635 H 2093.72 -5.02857 -3.46362 0
M  V30 22636 H 2095.14 -5.5921 -1.2632 0
M  V30 22637 H 2093.53 -5.97385 -0.570203 0
M  V30 22638 H 2094.6 -4.84117 0.275461 0
M  V30 22639 N 2095.95 0.0584645 -1.57492 0
M  V30 22640 C 2096.91 1.05251 -2.03605 0
M  V30 22641 C 2097.91 1.30807 -0.935209 0
M  V30 22642 O 2099.1 1.26304 -1.19971 0
M  V30 22643 C 2096.23 2.39288 -2.42804 0
M  V30 22644 H 2097.42 0.654779 -2.92665 0
M  V30 22645 H 2094.98 0.304552 -1.53304 0
M  V30 22646 H 2095.71 2.83868 -1.56811 0
M  V30 22647 H 2095.5 2.22077 -3.23147 0
M  V30 22648 H 2096.99 3.10713 -2.79011 0
M  V30 22649 N 2097.42 1.54103 0.330149 0
M  V30 22650 C 2098.37 1.83029 1.40603 0
M  V30 22651 C 2099.34 0.676907 1.51681 0
M  V30 22652 O 2100.53 0.922683 1.67007 0
M  V30 22653 C 2097.67 2.05745 2.77061 0
M  V30 22654 C 2096.78 3.3344 2.74667 0
M  V30 22655 C 2095.91 3.46152 4.02929 0
M  V30 22656 C 2094.95 4.67746 3.94817 0
M  V30 22657 N 2094.09 4.7742 5.14796 0
M  V30 22658 H 2098.93 2.74817 1.15236 0
M  V30 22659 H 2096.47 1.36107 0.557963 0
M  V30 22660 H 2098.42 2.16907 3.56381 0
M  V30 22661 H 2097.05 1.17255 3.00751 0
M  V30 22662 H 2096.11 3.3105 1.87376 0
M  V30 22663 H 2097.42 4.22863 2.64554 0
M  V30 22664 H 2096.57 3.5682 4.90678 0
M  V30 22665 H 2095.31 2.5481 4.15841 0
M  V30 22666 H 2094.32 4.57142 3.05453 0
M  V30 22667 H 2095.54 5.60467 3.83476 0
M  V30 22668 H 2093.49 3.88991 5.28225 0
M  V30 22669 H 2093.4 5.60799 5.06991 0
M  V30 22670 H 2094.67 4.92412 6.04277 0
M  V30 22671 N 2098.9 -0.59187 1.46064 0
M  V30 22672 C 2099.85 -1.69625 1.52352 0
M  V30 22673 C 2100.84 -1.56219 0.385282 0
M  V30 22674 O 2102.03 -1.65289 0.633129 0
M  V30 22675 C 2099.16 -3.08403 1.50807 0
M  V30 22676 C 2098.24 -3.27138 2.69891 0
M  V30 22677 N 2098.63 -3.1607 3.94884 0
M  V30 22678 C 2096.93 -3.58053 2.65921 0
M  V30 22679 C 2097.63 -3.36563 4.74447 0
M  V30 22680 N 2096.61 -3.6129 4.06165 0
M  V30 22681 H 2100.41 -1.59585 2.468 0
M  V30 22682 H 2097.93 -0.795623 1.41575 0
M  V30 22683 H 2099.92 -3.87653 1.53398 0
M  V30 22684 H 2098.58 -3.19581 0.574291 0
M  V30 22685 H 2099.59 -2.94133 4.2627 0
M  V30 22686 H 2096.27 -3.75972 1.81524 0
M  V30 22687 H 2097.66 -3.33266 5.83424 0
M  V30 22688 N 2100.38 -1.33616 -0.835729 0
M  V30 22689 C 2101.63 -1.25251 -1.59118 0
M  V30 22690 C 2101.96 0.180895 -1.93657 0
M  V30 22691 O 2101.21 1.1389 -1.59146 0
M  V30 22692 C 2101.51 -2.07621 -2.90909 0
M  V30 22693 C 2101.18 -3.56777 -2.75719 0
M  V30 22694 C 2099.84 -3.9744 -2.71283 0
M  V30 22695 C 2102.19 -4.51545 -2.60301 0
M  V30 22696 C 2099.52 -5.31083 -2.49334 0
M  V30 22697 C 2101.87 -5.85353 -2.39885 0
M  V30 22698 C 2100.53 -6.25195 -2.33853 0
M  V30 22699 H 2099.8 -0.458325 -0.582254 0
M  V30 22700 H 2102.45 -1.65234 -0.967991 0
M  V30 22701 H 2100.76 -1.60426 -3.5745 0
M  V30 22702 H 2102.45 -1.98504 -3.48421 0
M  V30 22703 H 2099.04 -3.24492 -2.80005 0
M  V30 22704 H 2103.23 -4.21036 -2.62759 0
M  V30 22705 H 2098.48 -5.60987 -2.43113 0
M  V30 22706 H 2102.66 -6.58386 -2.26939 0
M  V30 22707 H 2100.28 -7.28688 -2.16606 0
M  V30 22708 N 2101.86 1.05436 -1.17136 0
M  V30 22709 C 2103.11 1.78041 -0.956331 0
M  V30 22710 C 2103.43 1.88035 0.516524 0
M  V30 22711 O 2102.7 1.39532 1.37505 0
M  V30 22712 H 2101.28 0.659483 -0.350843 0
M  V30 22713 H 2103.94 1.2732 -1.47566 0
M  V30 22714 H 2103.04 2.79808 -1.38253 0
M  V30 22715 N 2103.34 0.971211 1.24118 0
M  V30 22716 C 2104.56 0.652357 1.96873 0
M  V30 22717 C 2104.99 -0.772193 1.71519 0
M  V30 22718 O 2104.34 -1.52463 0.981051 0
M  V30 22719 C 2104.39 0.937388 3.48203 0
M  V30 22720 O 2103.5 0.0246311 4.12393 0
M  V30 22721 H 2102.84 0.246274 0.61664 0
M  V30 22722 H 2105.37 1.30231 1.578 0
M  V30 22723 H 2105.38 0.870349 3.98609 0
M  V30 22724 H 2104.05 1.97556 3.65984 0
M  V30 22725 H 2102.63 0.145292 3.72617 0
M  V30 22726 N 2104.81 -1.39054 0.741747 0
M  V30 22727 C 2106.06 -2.00374 0.292655 0
M  V30 22728 C 2106.39 -1.58866 -1.12214 0
M  V30 22729 O 2105.64 -0.811946 -1.78062 0
M  V30 22730 C 2105.94 -3.55684 0.349795 0
M  V30 22731 C 2105.61 -4.16865 1.71856 0
M  V30 22732 C 2104.27 -4.33289 2.09318 0
M  V30 22733 C 2106.62 -4.50738 2.61696 0
M  V30 22734 C 2103.95 -4.80878 3.36115 0
M  V30 22735 C 2106.3 -4.99738 3.87872 0
M  V30 22736 C 2104.97 -5.14369 4.25418 0
M  V30 22737 H 2104.24 -0.733221 0.10709 0
M  V30 22738 H 2106.88 -1.6628 0.949911 0
M  V30 22739 H 2105.19 -3.89844 -0.391034 0
M  V30 22740 H 2106.89 -4.00997 -0.0159237 0
M  V30 22741 H 2103.48 -4.04488 1.41731 0
M  V30 22742 H 2107.66 -4.37661 2.34022 0
M  V30 22743 H 2102.92 -4.90391 3.6514 0
M  V30 22744 H 2107.09 -5.24919 4.57638 0
M  V30 22745 H 2104.72 -5.51005 5.23734 0
M  V30 22746 N 2106.29 -0.489897 -1.49792 0
M  V30 22747 C 2107.52 0.0578875 -2.07319 0
M  V30 22748 C 2107.94 1.31067 -1.34919 0
M  V30 22749 O 2107.3 1.76775 -0.402515 0
M  V30 22750 C 2107.35 0.305835 -3.59301 0
M  V30 22751 O 2106.45 1.38274 -3.88528 0
M  V30 22752 H 2105.79 -0.021301 -0.663658 0
M  V30 22753 H 2108.32 -0.686335 -1.92745 0
M  V30 22754 H 2108.33 0.540697 -4.04401 0
M  V30 22755 H 2107.01 -0.609525 -4.11409 0
M  V30 22756 H 2105.59 1.13371 -3.55248 0
M  V30 22757 N 2107.77 1.56011 -0.223262 0
M  V30 22758 C 2109.02 1.98348 0.407977 0
M  V30 22759 C 2109.35 1.11094 1.59651 0
M  V30 22760 O 2108.6 0.156272 1.95075 0
M  V30 22761 C 2108.9 3.46302 0.883731 0
M  V30 22762 C 2108.57 4.5048 -0.194465 0
M  V30 22763 C 2107.23 4.78692 -0.490651 0
M  V30 22764 C 2109.58 5.12952 -0.923571 0
M  V30 22765 C 2106.91 5.66657 -1.52043 0
M  V30 22766 C 2109.26 6.02032 -1.9427 0
M  V30 22767 C 2107.92 6.28586 -2.24579 0
M  V30 22768 H 2107.19 0.725806 0.149289 0
M  V30 22769 H 2109.84 1.88702 -0.326139 0
M  V30 22770 H 2108.15 3.53159 1.69664 0
M  V30 22771 H 2109.84 3.76432 1.38202 0
M  V30 22772 H 2106.43 4.28575 0.046538 0
M  V30 22773 H 2110.62 4.91224 -0.707988 0
M  V30 22774 H 2105.87 5.85495 -1.76086 0
M  V30 22775 H 2110.05 6.49489 -2.51272 0
M  V30 22776 H 2107.67 6.96545 -3.04515 0
M  V30 22777 N 2109.25 -0.0501116 1.5752 0
M  V30 22778 C 2110.18 -1.08964 2.00504 0
M  V30 22779 C 2111.16 -1.36365 0.885632 0
M  V30 22780 O 2112.34 -1.49375 1.14975 0
M  V30 22781 C 2109.47 -2.42922 2.36023 0
M  V30 22782 C 2108.52 -2.31517 3.58193 0
M  V30 22783 S 2109.35 -1.68858 5.0818 0
M  V30 22784 C 2110.51 -3.04349 5.46921 0
M  V30 22785 H 2110.74 -0.723433 2.88364 0
M  V30 22786 H 2108.27 -0.259394 1.52205 0
M  V30 22787 H 2110.23 -3.19968 2.57159 0
M  V30 22788 H 2108.89 -2.76697 1.48653 0
M  V30 22789 H 2108.08 -3.30356 3.80632 0
M  V30 22790 H 2107.69 -1.6261 3.36799 0
M  V30 22791 H 2109.98 -4.00678 5.46318 0
M  V30 22792 H 2110.92 -2.86666 6.47478 0
M  V30 22793 H 2111.33 -3.05953 4.74398 0
M  V30 22794 N 2110.73 -1.54276 -0.321972 0
M  V30 22795 C 2111.97 -1.72557 -1.05973 0
M  V30 22796 C 2112.3 -0.500117 -1.8796 0
M  V30 22797 O 2111.56 0.518125 -1.88717 0
M  V30 22798 C 2111.86 -2.95429 -2.01138 0
M  V30 22799 C 2111.52 -4.30124 -1.35293 0
M  V30 22800 C 2110.18 -4.66743 -1.17066 0
M  V30 22801 C 2112.54 -5.13709 -0.880472 0
M  V30 22802 C 2109.86 -5.84545 -0.502454 0
M  V30 22803 C 2112.22 -6.32196 -0.226079 0
M  V30 22804 C 2110.88 -6.67492 -0.0316775 0
M  V30 22805 H 2110.15 -0.631432 -0.387782 0
M  V30 22806 H 2112.8 -1.88517 -0.336709 0
M  V30 22807 H 2111.1 -2.74163 -2.79896 0
M  V30 22808 H 2112.8 -3.06767 -2.58253 0
M  V30 22809 H 2109.39 -4.01314 -1.50481 0
M  V30 22810 H 2113.57 -4.85934 -1.00907 0
M  V30 22811 H 2108.83 -6.1045 -0.340653 0
M  V30 22812 H 2113 -6.96243 0.148004 0
M  V30 22813 H 2110.63 -7.58631 0.488125 0
M  V30 22814 N 2112.2 0.584116 -1.46376 0
M  V30 22815 C 2113.11 1.72116 -1.59415 0
M  V30 22816 C 2114.13 1.67314 -0.477692 0
M  V30 22817 O 2115.31 1.87248 -0.74162 0
M  V30 22818 C 2112.37 3.08617 -1.57975 0
M  V30 22819 C 2111.43 3.24694 -2.80842 0
M  V30 22820 C 2110.67 4.54683 -2.79462 0
M  V30 22821 O 2110.89 5.38484 -1.88126 0
M  V30 22822 O 2109.82 4.73977 -3.70985 0
M  V30 22823 H 2113.65 1.64062 -2.55572 0
M  V30 22824 H 2111.23 0.750995 -1.29153 0
M  V30 22825 H 2113.12 3.899 -1.59863 0
M  V30 22826 H 2111.79 3.17111 -0.649775 0
M  V30 22827 H 2110.7 2.4291 -2.84509 0
M  V30 22828 H 2112.03 3.2109 -3.73044 0
M  V30 22829 N 2113.68 1.34058 0.828631 0
M  V30 22830 C 2114.93 1.2628 1.58686 0
M  V30 22831 C 2115.26 -0.168425 1.93468 0
M  V30 22832 O 2114.54 -1.11237 1.59551 0
M  V30 22833 C 2114.82 2.14808 2.89015 0
M  V30 22834 C 2114.67 3.66439 2.60849 0
M  V30 22835 C 2115.99 2.02902 3.90536 0
M  V30 22836 H 2113.11 0.460068 0.575766 0
M  V30 22837 H 2115.75 1.64256 0.954988 0
M  V30 22838 H 2113.9 1.82551 3.42939 0
M  V30 22839 H 2115.58 4.09036 2.13278 0
M  V30 22840 H 2113.82 3.87811 1.94384 0
M  V30 22841 H 2114.49 4.23742 3.53761 0
M  V30 22842 H 2116.97 2.31212 3.45948 0
M  V30 22843 H 2115.84 2.6708 4.79541 0
M  V30 22844 H 2116.1 1.00429 4.30542 0
M  V30 22845 N 2115.16 -1.04814 1.17694 0
M  V30 22846 C 2116.41 -1.77883 0.967671 0
M  V30 22847 C 2116.74 -1.87874 -0.503367 0
M  V30 22848 O 2115.99 -1.37773 -1.38986 0
M  V30 22849 C 2116.29 -3.2163 1.55849 0
M  V30 22850 C 2115.96 -3.3169 3.05439 0
M  V30 22851 C 2114.62 -3.34142 3.46269 0
M  V30 22852 C 2116.97 -3.32397 4.0145 0
M  V30 22853 C 2114.3 -3.34935 4.81701 0
M  V30 22854 C 2116.65 -3.34729 5.36786 0
M  V30 22855 C 2115.31 -3.3547 5.77076 0
M  V30 22856 H 2114.58 -0.65092 0.354096 0
M  V30 22857 H 2117.23 -1.23159 1.46643 0
M  V30 22858 H 2115.54 -3.79306 0.981546 0
M  V30 22859 H 2117.23 -3.76796 1.37208 0
M  V30 22860 H 2113.82 -3.30496 2.72892 0
M  V30 22861 H 2118.01 -3.29699 3.70961 0
M  V30 22862 H 2113.26 -3.33822 5.12224 0
M  V30 22863 H 2117.44 -3.34224 6.10956 0
M  V30 22864 H 2115.06 -3.35838 6.81995 0
M  V30 22865 N 2116.64 -0.977779 -1.23601 0
M  V30 22866 C 2117.89 -0.646167 -1.9223 0
M  V30 22867 C 2118.22 0.817893 -1.76137 0
M  V30 22868 O 2117.49 1.58966 -1.12071 0
M  V30 22869 C 2117.78 -1.03412 -3.44932 0
M  V30 22870 C 2117.63 -2.55561 -3.70147 0
M  V30 22871 C 2118.95 -0.576087 -4.36313 0
M  V30 22872 H 2116.07 -0.236222 -0.698118 0
M  V30 22873 H 2118.71 -1.21859 -1.45775 0
M  V30 22874 H 2116.86 -0.547033 -3.84629 0
M  V30 22875 H 2118.53 -3.11824 -3.39947 0
M  V30 22876 H 2116.77 -2.98312 -3.14949 0
M  V30 22877 H 2117.45 -2.77756 -4.77028 0
M  V30 22878 H 2119.92 -0.994237 -4.04047 0
M  V30 22879 H 2118.8 -0.875993 -5.41865 0
M  V30 22880 H 2119.06 0.523647 -4.38988 0
M  V30 22881 N 2118.12 1.38658 -0.749111 0
M  V30 22882 C 2119.36 2.02064 -0.308144 0
M  V30 22883 C 2119.72 1.58175 1.08834 0
M  V30 22884 O 2120.92 2.13879 1.62817 0
M  V30 22885 C 2119.19 3.54901 -0.421933 0
M  V30 22886 S 2120.75 4.38755 -0.0628878 0
M  V30 22887 H 2117.57 0.700831 -0.119821 0
M  V30 22888 H 2120.17 1.69236 -0.978742 0
M  V30 22889 H 2118.88 3.84333 -1.43933 0
M  V30 22890 H 2118.41 3.925 0.266002 0
M  V30 22891 H 2120.42 4.82715 1.14894 0
M  V30 22892 N 2119.6 0.497834 1.49531 0
M  V30 22893 C 2120.53 -0.318951 2.2697 0
M  V30 22894 C 2121.54 -0.933444 1.33382 0
M  V30 22895 O 2122.73 -0.81732 1.58689 0
M  V30 22896 C 2119.83 -1.46375 3.05659 0
M  V30 22897 C 2119 -0.957146 4.26799 0
M  V30 22898 C 2118.06 -1.97917 4.8756 0
M  V30 22899 O 2117.09 -1.54899 5.47718 0
M  V30 22900 N 2118.29 -3.30935 4.7693 0
M  V30 22901 H 2121.05 0.345053 2.97707 0
M  V30 22902 H 2118.62 0.330191 1.58497 0
M  V30 22903 H 2120.61 -2.14495 3.43182 0
M  V30 22904 H 2119.18 -2.03196 2.3755 0
M  V30 22905 H 2118.4 -0.100949 3.94071 0
M  V30 22906 H 2119.69 -0.597028 5.05285 0
M  V30 22907 H 2119.08 -3.68576 4.29149 0
M  V30 22908 H 2117.64 -3.94778 5.18646 0
M  V30 22909 N 2121.07 -1.5589 0.231532 0
M  V30 22910 C 2122.32 -1.97737 -0.397859 0
M  V30 22911 C 2122.64 -1.12252 -1.60184 0
M  V30 22912 O 2123.84 -1.44042 -2.30139 0
M  V30 22913 C 2122.3 -3.518 -0.759238 0
M  V30 22914 C 2121.91 -4.46003 0.422484 0
M  V30 22915 C 2123.65 -4.02338 -1.35368 0
M  V30 22916 C 2121.56 -5.91388 0.0381149 0
M  V30 22917 H 2120.49 -0.738433 -0.152423 0
M  V30 22918 H 2123.14 -1.80521 0.329322 0
M  V30 22919 H 2121.52 -3.64654 -1.54412 0
M  V30 22920 H 2122.69 -4.44902 1.19996 0
M  V30 22921 H 2121.01 -4.05863 0.930821 0
M  V30 22922 H 2123.61 -5.08464 -1.65433 0
M  V30 22923 H 2123.95 -3.48776 -2.2729 0
M  V30 22924 H 2124.48 -3.92747 -0.632021 0
M  V30 22925 H 2121.22 -6.48954 0.924083 0
M  V30 22926 H 2120.74 -5.9566 -0.703473 0
M  V30 22927 H 2122.42 -6.45853 -0.385094 0
M  V30 22928 N 2122.55 0.0417572 -1.57545 0
M  V30 22929 C 2123.78 0.746132 -1.92656 0
M  V30 22930 C 2124.19 1.70092 -0.828568 0
M  V30 22931 O 2123.53 1.82555 0.204771 0
M  V30 22932 C 2123.59 1.56855 -3.23476 0
M  V30 22933 C 2123.26 0.779913 -4.50296 0
M  V30 22934 C 2124.26 0.0857732 -5.19829 0
M  V30 22935 C 2121.94 0.738203 -4.96846 0
M  V30 22936 C 2123.93 -0.639517 -6.34184 0
M  V30 22937 C 2121.62 0.00915893 -6.11099 0
M  V30 22938 C 2122.62 -0.678473 -6.79622 0
M  V30 22939 O 2122.31 -1.39571 -7.91691 0
M  V30 22940 H 2122.04 0.215532 -0.64072 0
M  V30 22941 H 2124.59 0.00718644 -2.05399 0
M  V30 22942 H 2122.82 2.35101 -3.07025 0
M  V30 22943 H 2124.51 2.15436 -3.44009 0
M  V30 22944 H 2125.28 0.10911 -4.84877 0
M  V30 22945 H 2121.16 1.26291 -4.43364 0
M  V30 22946 H 2124.7 -1.17679 -6.87603 0
M  V30 22947 H 2120.6 -0.0161455 -6.45498 0
M  V30 22948 H 2121.37 -1.30807 -8.0798 0
M  V30 22949 N 2124.03 1.54445 0.313786 0
M  V30 22950 C 2124.99 1.8378 1.36959 0
M  V30 22951 C 2125.99 0.710053 1.44274 0
M  V30 22952 O 2127.18 0.978359 1.44131 0
M  V30 22953 C 2124.31 2.00661 2.75586 0
M  V30 22954 H 2125.51 2.78122 1.12197 0
M  V30 22955 H 2123.06 1.46311 0.549789 0
M  V30 22956 H 2123.8 1.08564 3.05589 0
M  V30 22957 H 2123.58 2.82734 2.71669 0
M  V30 22958 H 2125.07 2.24771 3.51948 0
M  V30 22959 N 2125.51 -0.576345 1.46683 0
M  V30 22960 C 2126.46 -1.70601 1.58108 0
M  V30 22961 C 2127.45 -1.63334 0.449247 0
M  V30 22962 O 2128.66 -1.68751 0.626355 0
M  V30 22963 H 2125.03 -0.564161 0.497218 0
M  V30 22964 H 2127 -1.58098 2.53076 0
M  V30 22965 C 2125.75 -3.08983 1.59452 0
M  V30 22966 H 2125.07 -3.15247 2.45885 0
M  V30 22967 H 2126.51 -3.87768 1.715 0
M  V30 22968 C 2124.97 -3.35335 0.324303 0
M  V30 22969 O 2125.5 -3.9745 -0.58277 0
M  V30 22970 N 2123.71 -2.89838 0.21024 0
M  V30 22971 H 2123.26 -2.39471 0.949293 0
M  V30 22972 H 2123.21 -3.07843 -0.638752 0
M  V30 22973 N 2126.99 -1.34495 -0.82151 0
M  V30 22974 C 2127.95 -1.2608 -1.91407 0
M  V30 22975 C 2128.95 -0.175671 -1.59838 0
M  V30 22976 O 2130.14 -0.428389 -1.6885 0
M  V30 22977 C 2127.27 -0.9469 -3.27485 0
M  V30 22978 H 2128.46 -2.23212 -2.00291 0
M  V30 22979 H 2126.02 -1.18804 -1.01565 0
M  V30 22980 H 2126.75 0.0211878 -3.24293 0
M  V30 22981 H 2126.54 -1.73181 -3.51782 0
M  V30 22982 H 2128.03 -0.913228 -4.07492 0
M  V30 22983 N 2128.46 1.04188 -1.18248 0
M  V30 22984 C 2129.71 1.7763 -0.978539 0
M  V30 22985 C 2130.04 1.87897 0.490757 0
M  V30 22986 O 2129.32 1.38617 1.36439 0
M  V30 22987 C 2129.6 3.20968 -1.63252 0
M  V30 22988 C 2129.45 3.18653 -3.1746 0
M  V30 22989 C 2130.77 4.19052 -1.34475 0
M  V30 22990 H 2127.89 0.644817 -0.356903 0
M  V30 22991 H 2130.53 1.21713 -1.45897 0
M  V30 22992 H 2128.68 3.68714 -1.22402 0
M  V30 22993 H 2130.36 2.78906 -3.67436 0
M  V30 22994 H 2128.6 2.56717 -3.49684 0
M  V30 22995 H 2129.27 4.19864 -3.58354 0
M  V30 22996 H 2131.75 3.79848 -1.69868 0
M  V30 22997 H 2130.62 5.17565 -1.82804 0
M  V30 22998 H 2130.88 4.41291 -0.267408 0
M  V30 22999 N 2129.94 0.98432 1.23081 0
M  V30 23000 C 2130.89 0.498852 2.22476 0
M  V30 23001 C 2131.88 -0.428273 1.55096 0
M  V30 23002 O 2133.07 -0.256489 1.75132 0
M  V30 23003 C 2130.2 -0.19359 3.42754 0
M  V30 23004 C 2129.28 0.753335 4.17356 0
M  V30 23005 N 2129.67 1.89761 4.68855 0
M  V30 23006 C 2127.97 0.567461 4.42375 0
M  V30 23007 C 2128.67 2.49126 5.25653 0
M  V30 23008 N 2127.65 1.77476 5.13813 0
M  V30 23009 H 2131.45 1.37169 2.59927 0
M  V30 23010 H 2128.97 0.84549 1.38655 0
M  V30 23011 H 2130.96 -0.558714 4.13139 0
M  V30 23012 H 2129.62 -1.06267 3.06818 0
M  V30 23013 H 2130.63 2.27867 4.65077 0
M  V30 23014 H 2127.31 -0.256271 4.16713 0
M  V30 23015 H 2128.7 3.45782 5.76094 0
M  V30 23016 N 2131.42 -1.38259 0.756453 0
M  V30 23017 C 2132.35 -2.2902 0.0908208 0
M  V30 23018 C 2133.37 -1.47887 -0.680684 0
M  V30 23019 O 2134.55 -1.70718 -0.521301 0
M  V30 23020 C 2131.65 -3.26859 -0.895342 0
M  V30 23021 C 2130.83 -4.37026 -0.180877 0
M  V30 23022 C 2129.89 -5.15035 -1.0782 0
M  V30 23023 O 2128.91 -5.66559 -0.547658 0
M  V30 23024 N 2130.11 -5.28291 -2.40602 0
M  V30 23025 H 2132.88 -2.86785 0.870302 0
M  V30 23026 H 2130.44 -1.50071 0.607483 0
M  V30 23027 H 2132.43 -3.75926 -1.49873 0
M  V30 23028 H 2131 -2.69972 -1.57588 0
M  V30 23029 H 2130.22 -3.89557 0.603252 0
M  V30 23030 H 2131.51 -5.07834 0.313403 0
M  V30 23031 H 2130.91 -4.87986 -2.86158 0
M  V30 23032 H 2129.47 -5.80721 -2.95984 0
M  V30 23033 N 2132.9 -0.505757 -1.49264 0
M  V30 23034 C 2133.85 0.28378 -2.30862 0
M  V30 23035 C 2134.84 0.958332 -1.39687 0
M  V30 23036 O 2136.05 0.885479 -1.56714 0
M  V30 23037 H 2132.42 0.110376 -0.743856 0
M  V30 23038 H 2134.39 -0.424349 -2.95367 0
M  V30 23039 C 2133.14 1.33255 -3.21152 0
M  V30 23040 H 2132.46 0.822894 -3.9124 0
M  V30 23041 H 2133.9 1.85687 -3.81177 0
M  V30 23042 C 2132.36 2.35327 -2.41087 0
M  V30 23043 O 2132.89 3.41302 -2.1184 0
M  V30 23044 N 2131.1 2.07918 -2.03023 0
M  V30 23045 H 2130.65 1.21758 -2.27009 0
M  V30 23046 H 2130.6 2.7644 -1.49762 0
M  V30 23047 N 2134.38 1.55765 -0.239796 0
M  V30 23048 C 2135.31 2.24064 0.657067 0
M  V30 23049 C 2136.29 1.2185 1.18687 0
M  V30 23050 O 2137.47 1.50484 1.22753 0
M  V30 23051 C 2134.6 2.93465 1.8573 0
M  V30 23052 C 2133.56 4.02307 1.46057 0
M  V30 23053 C 2132.88 4.59097 2.74106 0
M  V30 23054 C 2134.18 5.18402 0.636932 0
M  V30 23055 H 2135.88 2.99272 0.0875675 0
M  V30 23056 H 2133.42 1.43943 0.0406772 0
M  V30 23057 H 2135.38 3.39943 2.49032 0
M  V30 23058 H 2134.1 2.15734 2.45207 0
M  V30 23059 H 2132.76 3.56588 0.850935 0
M  V30 23060 H 2132.41 3.78075 3.31766 0
M  V30 23061 H 2132.11 5.32566 2.48288 0
M  V30 23062 H 2133.63 5.08304 3.38318 0
M  V30 23063 H 2135.04 5.61149 1.17408 0
M  V30 23064 H 2133.44 5.98216 0.475092 0
M  V30 23065 H 2134.51 4.83617 -0.352445 0
M  V30 23066 N 2135.85 -0.0334016 1.57565 0
M  V30 23067 C 2137.08 -0.740692 1.93723 0
M  V30 23068 C 2137.5 -1.6833 0.839447 0
M  V30 23069 O 2136.86 -1.80136 -0.205152 0
M  V30 23070 C 2136.91 -1.47761 3.28936 0
M  V30 23071 O 2136.01 -2.59056 3.2088 0
M  V30 23072 H 2135.36 -0.199518 0.633315 0
M  V30 23073 H 2137.89 0.00982998 2.04598 0
M  V30 23074 H 2137.9 -1.84849 3.63724 0
M  V30 23075 H 2136.57 -0.786263 4.084 0
M  V30 23076 H 2135.15 -2.24543 2.97716 0
M  V30 23077 N 2137.33 -1.54609 -0.305591 0
M  V30 23078 C 2138.58 -1.73672 -1.04137 0
M  V30 23079 C 2138.91 -0.520024 -1.87419 0
M  V30 23080 O 2138.16 0.49808 -1.89256 0
M  V30 23081 C 2138.46 -2.97546 -1.97993 0
M  V30 23082 C 2138.13 -4.31535 -1.30723 0
M  V30 23083 C 2136.79 -4.67958 -1.12109 0
M  V30 23084 C 2139.14 -5.14614 -0.825937 0
M  V30 23085 C 2136.47 -5.85045 -0.440427 0
M  V30 23086 C 2138.82 -6.324 -0.159014 0
M  V30 23087 C 2137.49 -6.67489 0.0391208 0
M  V30 23088 H 2136.76 -0.635509 -0.381063 0
M  V30 23089 H 2139.4 -1.88863 -0.316695 0
M  V30 23090 H 2137.71 -2.77116 -2.76973 0
M  V30 23091 H 2139.4 -3.09489 -2.54985 0
M  V30 23092 H 2135.99 -4.02888 -1.46217 0
M  V30 23093 H 2140.18 -4.86977 -0.957472 0
M  V30 23094 H 2135.43 -6.10777 -0.275887 0
M  V30 23095 H 2139.61 -6.96047 0.221841 0
M  V30 23096 H 2137.24 -7.58071 0.568561 0
M  V30 23097 N 2138.81 0.568558 -1.46987 0
M  V30 23098 C 2140.06 1.3236 -1.52726 0
M  V30 23099 C 2140.38 1.94107 -0.186356 0
M  V30 23100 O 2139.65 1.79328 0.78857 0
M  V30 23101 H 2138.23 0.491483 -0.562542 0
M  V30 23102 H 2140.89 0.664797 -1.83212 0
M  V30 23103 H 2139.99 2.12301 -2.28768 0
M  V30 23104 N 2140.29 1.34929 0.814366 0
M  V30 23105 C 2141.54 1.27514 1.56795 0
M  V30 23106 C 2141.86 -0.152393 1.94404 0
M  V30 23107 O 2141.13 -1.08703 1.62974 0
M  V30 23108 H 2139.71 0.468993 0.581424 0
M  V30 23109 H 2142.37 1.68941 0.971845 0
M  V30 23110 H 2141.47 1.88573 2.4869 0
M  V30 23111 N 2141.77 -1.0356 1.18799 0
M  V30 23112 C 2142.73 -2.09853 0.921649 0
M  V30 23113 C 2143.73 -1.60519 -0.095096 0
M  V30 23114 O 2144.92 -1.73645 0.138909 0
M  V30 23115 C 2142.05 -3.38733 0.383809 0
M  V30 23116 H 2143.24 -2.34914 1.86428 0
M  V30 23117 H 2140.8 -1.20064 1.00071 0
M  V30 23118 H 2141.53 -3.19337 -0.565188 0
M  V30 23119 H 2141.32 -3.75859 1.11681 0
M  V30 23120 H 2142.81 -4.17039 0.216329 0
M  V30 23121 N 2143.25 -0.990834 -1.22557 0
M  V30 23122 C 2144.66 -0.701213 -1.43371 0
M  V30 23123 C 2144.86 0.728876 -1.87855 0
M  V30 23124 O 2143.92 1.50004 -2.03113 0
M  V30 23125 C 2145.23 -1.70503 -2.47688 0
M  V30 23126 C 2146.78 -1.72024 -2.61489 0
M  V30 23127 C 2147.25 -2.71263 -3.69026 0
M  V30 23128 N 2148.74 -2.69845 -3.76481 0
M  V30 23129 C 2149.48 -3.43297 -4.59276 0
M  V30 23130 N 2148.98 -4.26343 -5.4608 0
M  V30 23131 N 2150.77 -3.32013 -4.53568 0
M  V30 23132 H 2142.92 -1.91447 -0.919875 0
M  V30 23133 H 2145.18 -0.825544 -0.466027 0
M  V30 23134 H 2144.89 -2.72827 -2.21942 0
M  V30 23135 H 2144.76 -1.49623 -3.46256 0
M  V30 23136 H 2147.15 -0.70399 -2.8658 0
M  V30 23137 H 2147.23 -1.96973 -1.63203 0
M  V30 23138 H 2146.87 -3.73036 -3.44683 0
M  V30 23139 H 2146.8 -2.43585 -4.66877 0
M  V30 23140 H 2149.3 -2.09583 -3.14457 0
M  V30 23141 H 2149.61 -4.79221 -6.06273 0
M  V30 23142 H 2147.95 -4.30431 -5.45669 0
M  V30 23143 H 2151.14 -2.66577 -3.84778 0
M  V30 23144 H 2151.32 -3.89516 -5.17862 0
M  V30 23145 N 2144.72 1.37856 -0.763775 0
M  V30 23146 C 2145.95 2.03864 -0.335144 0
M  V30 23147 C 2146.36 1.57732 1.04486 0
M  V30 23148 O 2145.7 0.750289 1.67679 0
M  V30 23149 C 2145.77 3.58323 -0.290657 0
M  V30 23150 C 2145.43 4.27554 -1.61391 0
M  V30 23151 C 2146.43 4.52225 -2.56494 0
M  V30 23152 C 2144.11 4.65542 -1.88615 0
M  V30 23153 C 2146.11 5.13931 -3.77033 0
M  V30 23154 C 2143.79 5.26971 -3.09426 0
M  V30 23155 C 2144.79 5.51102 -4.03455 0
M  V30 23156 O 2144.48 6.11248 -5.2214 0
M  V30 23157 H 2144.21 0.661438 -0.139556 0
M  V30 23158 H 2146.77 1.77331 -1.03648 0
M  V30 23159 H 2145 3.8387 0.467001 0
M  V30 23160 H 2146.68 4.05751 0.109828 0
M  V30 23161 H 2147.45 4.23296 -2.3674 0
M  V30 23162 H 2143.33 4.461 -1.16258 0
M  V30 23163 H 2146.87 5.32682 -4.5044 0
M  V30 23164 H 2142.77 5.55324 -3.29068 0
M  V30 23165 H 2143.54 6.29731 -5.22859 0
M  V30 23166 N 2146.2 0.513665 1.48994 0
M  V30 23167 C 2147.45 -0.0282469 2.0168 0
M  V30 23168 C 2147.76 -1.36865 1.3974 0
M  V30 23169 O 2148.97 -1.99799 1.83828 0
M  V30 23170 C 2147.43 -0.100776 3.59759 0
M  V30 23171 C 2147.03 1.23375 4.30677 0
M  V30 23172 C 2148.78 -0.592381 4.20346 0
M  V30 23173 C 2146.68 1.12269 5.80646 0
M  V30 23174 H 2145.61 -0.0143288 0.753864 0
M  V30 23175 H 2148.27 0.654994 1.71412 0
M  V30 23176 H 2146.65 -0.848743 3.86798 0
M  V30 23177 H 2147.82 1.996 4.15327 0
M  V30 23178 H 2146.14 1.65979 3.8189 0
M  V30 23179 H 2148.73 -0.69318 5.30188 0
M  V30 23180 H 2149.08 -1.59429 3.84562 0
M  V30 23181 H 2149.61 0.0994202 3.97676 0
M  V30 23182 H 2146.35 2.09925 6.20976 0
M  V30 23183 H 2145.87 0.401536 5.98454 0
M  V30 23184 H 2147.55 0.806614 6.41952 0
M  V30 23185 N 2147.68 -1.55636 0.248053 0
M  V30 23186 C 2148.93 -1.98579 -0.375626 0
M  V30 23187 C 2149.25 -1.13753 -1.58383 0
M  V30 23188 O 2148.52 -0.2206 -1.94654 0
M  V30 23189 H 2147.1 -0.733423 -0.141773 0
M  V30 23190 H 2149.76 -1.91784 0.34711 0
M  V30 23191 H 2148.86 -3.04513 -0.683983 0
M  V30 23192 N 2149.16 0.0250451 -1.5758 0
M  V30 23193 C 2150.39 0.72671 -1.93718 0
M  V30 23194 C 2150.8 1.68677 -0.848148 0
M  V30 23195 O 2150.16 1.81658 0.175105 0
M  V30 23196 C 2150.21 1.4803 -3.29802 0
M  V30 23197 O 2149.93 0.55877 -4.34522 0
M  V30 23198 C 2151.43 2.27876 -3.80247 0
M  V30 23199 H 2148.65 0.203986 -0.639242 0
M  V30 23200 H 2151.19 -0.0186251 -2.04492 0
M  V30 23201 H 2149.35 2.17748 -3.20413 0
M  V30 23202 H 2149.76 1.08769 -5.13098 0
M  V30 23203 H 2151.24 2.7614 -4.77965 0
M  V30 23204 H 2151.71 3.09471 -3.11648 0
M  V30 23205 H 2152.32 1.63224 -3.92731 0
M  V30 23206 N 2150.64 1.54769 0.297388 0
M  V30 23207 C 2151.88 1.73877 1.0301 0
M  V30 23208 C 2152.2 0.529442 1.87675 0
M  V30 23209 O 2151.47 -0.456215 1.90514 0
M  V30 23210 H 2150.05 0.641155 0.383313 0
M  V30 23211 H 2152.72 1.92129 0.3275 0
M  V30 23212 H 2151.81 2.62953 1.68113 0
M  V30 23213 N 2152.11 -0.560755 1.47286 0
M  V30 23214 C 2153.53 -0.886333 1.32726 0
M  V30 23215 C 2153.73 -1.99021 0.31509 0
M  V30 23216 O 2152.79 -2.51002 -0.274638 0
M  V30 23217 C 2154.1 -1.28292 2.71959 0
M  V30 23218 C 2155.65 -1.39455 2.80217 0
M  V30 23219 C 2156.12 -1.8247 4.20082 0
M  V30 23220 N 2157.61 -1.89627 4.22606 0
M  V30 23221 C 2158.35 -2.24232 5.27738 0
M  V30 23222 N 2157.84 -2.57475 6.43178 0
M  V30 23223 N 2159.64 -2.24975 5.15114 0
M  V30 23224 H 2151.79 0.168088 2.11734 0
M  V30 23225 H 2154.05 0.0125326 0.947917 0
M  V30 23226 H 2153.76 -0.545664 3.47441 0
M  V30 23227 H 2153.63 -2.23983 3.03499 0
M  V30 23228 H 2156.02 -2.12262 2.05009 0
M  V30 23229 H 2156.1 -0.419601 2.52335 0
M  V30 23230 H 2155.74 -1.10234 4.95793 0
M  V30 23231 H 2155.67 -2.80962 4.45385 0
M  V30 23232 H 2158.16 -1.66337 3.39323 0
M  V30 23233 H 2158.48 -2.82897 7.19159 0
M  V30 23234 H 2156.82 -2.55063 6.46504 0
M  V30 23235 H 2160.01 -1.98441 4.23956 0
M  V30 23236 H 2160.19 -2.51614 5.97155 0
M  V30 23237 N 2153.59 -1.35359 -0.807199 0
M  V30 23238 C 2154.84 -1.28344 -1.56116 0
M  V30 23239 C 2155.16 0.142081 -1.94482 0
M  V30 23240 O 2154.43 1.07837 -1.63548 0
M  V30 23241 H 2153.01 -0.47207 -0.578929 0
M  V30 23242 H 2155.67 -1.69454 -0.962872 0
M  V30 23243 H 2154.77 -1.89889 -2.47686 0
M  V30 23244 N 2155.07 1.02928 -1.19346 0
M  V30 23245 C 2156.32 1.76321 -0.995848 0
M  V30 23246 C 2156.64 1.88651 0.473415 0
M  V30 23247 O 2155.9 1.39967 1.36776 0
M  V30 23248 C 2156.2 3.1911 -1.60946 0
M  V30 23249 C 2155.86 3.26788 -3.10677 0
M  V30 23250 C 2154.53 3.28591 -3.51541 0
M  V30 23251 C 2156.88 3.25968 -4.06687 0
M  V30 23252 C 2154.21 3.27229 -4.86968 0
M  V30 23253 C 2156.56 3.26146 -5.42044 0
M  V30 23254 C 2155.22 3.26247 -5.8234 0
M  V30 23255 H 2154.49 0.645204 -0.364407 0
M  V30 23256 H 2157.14 1.20811 -1.48584 0
M  V30 23257 H 2155.44 3.77696 -1.04177 0
M  V30 23258 H 2157.14 3.74565 -1.43185 0
M  V30 23259 H 2153.73 3.26113 -2.78116 0
M  V30 23260 H 2157.92 3.23756 -3.76159 0
M  V30 23261 H 2153.17 3.2563 -5.1747 0
M  V30 23262 H 2157.35 3.24462 -6.16196 0
M  V30 23263 H 2154.97 3.24945 -6.87252 0
M  V30 23264 N 2156.55 0.997319 1.2203 0
M  V30 23265 C 2157.51 0.556352 2.22345 0
M  V30 23266 C 2158.51 -0.363165 1.56645 0
M  V30 23267 O 2159.7 -0.154511 1.73513 0
M  V30 23268 C 2156.83 -0.190172 3.40369 0
M  V30 23269 H 2158.03 1.44355 2.62872 0
M  V30 23270 H 2155.58 0.784999 1.35157 0
M  V30 23271 H 2156.31 -1.09315 3.05321 0
M  V30 23272 H 2156.1 0.470115 3.89272 0
M  V30 23273 H 2157.59 -0.486708 4.14754 0
M  V30 23274 N 2158.03 -1.37449 0.771075 0
M  V30 23275 C 2159.25 -2.03979 0.346453 0
M  V30 23276 C 2159.67 -1.58156 -1.03113 0
M  V30 23277 O 2159.03 -0.762511 -1.65807 0
M  V30 23278 C 2159.08 -3.595 0.379748 0
M  V30 23279 O 2158.8 -4.03646 1.70298 0
M  V30 23280 C 2160.3 -4.43264 -0.0565544 0
M  V30 23281 H 2157.52 -0.655084 0.145281 0
M  V30 23282 H 2160.06 -1.75795 1.04481 0
M  V30 23283 H 2158.22 -3.86458 -0.270023 0
M  V30 23284 H 2158.63 -4.98163 1.64115 0
M  V30 23285 H 2160.11 -5.51997 0.0178961 0
M  V30 23286 H 2160.58 -4.25025 -1.10683 0
M  V30 23287 H 2161.19 -4.2153 0.565003 0
M  V30 23288 N 2159.5 -0.52156 -1.4872 0
M  V30 23289 C 2160.47 0.234979 -2.27992 0
M  V30 23290 C 2161.47 0.875433 -1.34881 0
M  V30 23291 O 2162.66 0.736784 -1.57852 0
M  V30 23292 C 2159.79 1.33914 -3.13496 0
M  V30 23293 H 2160.98 -0.460907 -2.96337 0
M  V30 23294 H 2158.54 -0.277206 -1.53822 0
M  V30 23295 H 2159.27 2.06854 -2.49763 0
M  V30 23296 H 2159.06 0.885123 -3.81979 0
M  V30 23297 H 2160.55 1.8715 -3.73316 0
M  V30 23298 N 2160.98 1.55502 -0.256304 0
M  V30 23299 C 2162.4 1.59297 0.0983236 0
M  V30 23300 C 2162.6 1.27351 1.56154 0
M  V30 23301 O 2161.65 1.02533 2.30745 0
M  V30 23302 C 2162.97 2.9958 -0.259346 0
M  V30 23303 C 2164.52 3.12332 -0.204415 0
M  V30 23304 C 2164.99 4.5485 -0.536252 0
M  V30 23305 N 2166.48 4.60632 -0.487101 0
M  V30 23306 C 2167.22 5.68901 -0.716903 0
M  V30 23307 N 2166.71 6.85393 -1.01033 0
M  V30 23308 N 2168.51 5.58364 -0.646972 0
M  V30 23309 H 2160.66 1.74536 -1.21042 0
M  V30 23310 H 2162.92 0.812935 -0.487689 0
M  V30 23311 H 2162.63 3.27727 -1.27624 0
M  V30 23312 H 2162.5 3.74976 0.409004 0
M  V30 23313 H 2164.89 2.8396 0.803168 0
M  V30 23314 H 2164.97 2.3919 -0.906752 0
M  V30 23315 H 2164.61 4.83944 -1.54143 0
M  V30 23316 H 2164.54 5.26265 0.187668 0
M  V30 23317 H 2167.03 3.76938 -0.269421 0
M  V30 23318 H 2167.35 7.63848 -1.17285 0
M  V30 23319 H 2165.69 6.87055 -1.0479 0
M  V30 23320 H 2168.88 4.66233 -0.417713 0
M  V30 23321 H 2169.05 6.42669 -0.829457 0
M  V30 23322 N 2162.46 -0.0166879 1.57591 0
M  V30 23323 C 2163.71 -0.704094 1.89012 0
M  V30 23324 C 2164.02 -1.75854 0.856437 0
M  V30 23325 O 2165.23 -2.4994 1.06029 0
M  V30 23326 C 2163.68 -1.30343 3.35468 0
M  V30 23327 C 2163.29 -0.284687 4.47095 0
M  V30 23328 C 2165.04 -1.96999 3.76021 0
M  V30 23329 C 2162.94 -0.893068 5.84618 0
M  V30 23330 H 2161.87 -0.266736 0.705243 0
M  V30 23331 H 2164.52 0.0411208 1.83454 0
M  V30 23332 H 2162.91 -2.09876 3.3581 0
M  V30 23333 H 2164.08 0.484835 4.58242 0
M  V30 23334 H 2162.4 0.280487 4.15454 0
M  V30 23335 H 2164.99 -2.43392 4.76093 0
M  V30 23336 H 2165.34 -2.79347 3.0866 0
M  V30 23337 H 2165.87 -1.24224 3.77906 0
M  V30 23338 H 2162.61 -0.108736 6.5541 0
M  V30 23339 H 2162.13 -1.63214 5.77167 0
M  V30 23340 H 2163.81 -1.39672 6.31744 0
M  V30 23341 N 2163.94 -1.54924 -0.289176 0
M  V30 23342 C 2165.35 -1.65642 -0.861368 0
M  V30 23343 C 2165.7 -0.572803 -1.87652 0
M  V30 23344 O 2164.83 0.288543 -2.14468 0
M  V30 23345 C 2165.42 -3.00274 -1.56911 0
M  V30 23346 C 2163.98 -3.13073 -2.08955 0
M  V30 23347 C 2163.13 -2.61377 -0.926152 0
M  V30 23348 H 2166.08 -1.58563 -0.0658933 0
M  V30 23349 H 2166.1 -2.92358 -2.4353 0
M  V30 23350 H 2165.61 -3.7912 -0.830021 0
M  V30 23351 H 2163.71 -2.38969 -2.85875 0
M  V30 23352 H 2163.82 -4.19404 -2.31596 0
M  V30 23353 H 2162.19 -2.18126 -1.31503 0
M  V30 23354 H 2162.97 -3.42712 -0.200828 0
M  V30 23355 N 2165.42 0.552936 -1.47582 0
M  V30 23356 C 2166.66 1.30992 -1.54426 0
M  V30 23357 C 2166.99 1.93381 -0.208337 0
M  V30 23358 O 2166.25 1.78637 0.799202 0
M  V30 23359 C 2166.55 2.43742 -2.6139 0
M  V30 23360 C 2166.21 1.99156 -4.04534 0
M  V30 23361 C 2164.87 1.86713 -4.435 0
M  V30 23362 C 2167.23 1.65177 -4.94334 0
M  V30 23363 C 2164.55 1.38592 -5.70096 0
M  V30 23364 C 2166.91 1.18525 -6.21397 0
M  V30 23365 C 2165.57 1.04682 -6.5924 0
M  V30 23366 H 2164.84 0.479333 -0.565085 0
M  V30 23367 H 2167.49 0.619594 -1.812 0
M  V30 23368 H 2165.79 3.18349 -2.28389 0
M  V30 23369 H 2167.49 3.01918 -2.63906 0
M  V30 23370 H 2164.08 2.09785 -3.73749 0
M  V30 23371 H 2168.26 1.73661 -4.64925 0
M  V30 23372 H 2163.52 1.26541 -5.98162 0
M  V30 23373 H 2167.69 0.912965 -6.9039 0
M  V30 23374 H 2165.32 0.67172 -7.57226 0
M  V30 23375 N 2166.89 1.35785 0.800009 0
M  V30 23376 C 2168.14 1.2917 1.55434 0
M  V30 23377 C 2168.46 -0.131766 1.94554 0
M  V30 23378 O 2167.73 -1.06968 1.64118 0
M  V30 23379 H 2166.31 0.475134 0.576417 0
M  V30 23380 H 2168.98 1.69963 0.953872 0
M  V30 23381 H 2168.07 1.912 2.46676 0
M  V30 23382 N 2168.37 -1.02294 1.19891 0
M  V30 23383 C 2169.62 -1.76051 1.00667 0
M  V30 23384 C 2169.95 -1.88654 -0.460802 0
M  V30 23385 O 2169.23 -1.4077 -1.34216 0
M  V30 23386 C 2169.51 -3.18331 1.68338 0
M  V30 23387 C 2169.36 -3.13562 3.22489 0
M  V30 23388 C 2170.68 -4.16859 1.41125 0
M  V30 23389 H 2167.8 -0.639057 0.367117 0
M  V30 23390 H 2170.44 -1.19377 1.47815 0
M  V30 23391 H 2168.59 -3.6672 1.28252 0
M  V30 23392 H 2170.26 -2.73025 3.71827 0
M  V30 23393 H 2168.51 -2.51121 3.53724 0
M  V30 23394 H 2169.18 -4.1411 3.64989 0
M  V30 23395 H 2171.65 -3.77097 1.75889 0
M  V30 23396 H 2170.53 -5.14592 1.91015 0
M  V30 23397 H 2170.79 -4.40809 0.33758 0
M  V30 23398 N 2169.85 -1.00378 -1.21499 0
M  V30 23399 C 2170.78 -0.583318 -2.26097 0
M  V30 23400 C 2171.76 0.395257 -1.65444 0
M  V30 23401 O 2172.95 0.283508 -1.92119 0
M  V30 23402 C 2170.08 0.0920619 -3.47178 0
M  V30 23403 C 2169.03 -0.806168 -4.20339 0
M  V30 23404 C 2168.36 0.0027323 -5.347 0
M  V30 23405 C 2169.66 -2.1082 -4.77862 0
M  V30 23406 H 2171.35 -1.45765 -2.6152 0
M  V30 23407 H 2168.9 -0.702333 -1.25711 0
M  V30 23408 H 2170.85 0.397677 -4.19519 0
M  V30 23409 H 2169.57 1.00102 -3.10881 0
M  V30 23410 H 2168.23 -1.09559 -3.49846 0
M  V30 23411 H 2167.88 0.912942 -4.94646 0
M  V30 23412 H 2167.58 -0.595326 -5.84576 0
M  V30 23413 H 2169.1 0.302191 -6.09852 0
M  V30 23414 H 2170.52 -1.86581 -5.42089 0
M  V30 23415 H 2168.92 -2.656 -5.38123 0
M  V30 23416 H 2169.99 -2.77978 -3.97311 0
M  V30 23417 N 2171.33 1.37038 -0.778354 0
M  V30 23418 C 2172.56 2.03497 -0.356748 0
M  V30 23419 C 2172.97 1.58831 1.02807 0
M  V30 23420 O 2172.31 0.768031 1.66874 0
M  V30 23421 C 2172.37 3.57995 -0.328646 0
M  V30 23422 C 2172.04 4.25818 -1.65916 0
M  V30 23423 C 2173.03 4.49479 -2.61276 0
M  V30 23424 C 2170.72 4.63516 -1.93542 0
M  V30 23425 C 2172.71 5.09903 -3.82463 0
M  V30 23426 C 2170.4 5.2366 -3.14998 0
M  V30 23427 C 2171.4 5.46791 -4.09278 0
M  V30 23428 O 2171.08 6.05676 -5.28594 0
M  V30 23429 H 2170.82 0.659921 -0.146563 0
M  V30 23430 H 2173.37 1.76221 -1.05523 0
M  V30 23431 H 2171.6 3.84343 0.42626 0
M  V30 23432 H 2173.29 4.05845 0.0667865 0
M  V30 23433 H 2174.06 4.20761 -2.41216 0
M  V30 23434 H 2169.93 4.44842 -1.20983 0
M  V30 23435 H 2173.48 5.27874 -4.56064 0
M  V30 23436 H 2169.38 5.51802 -3.3494 0
M  V30 23437 H 2170.14 6.2415 -5.29508 0
M  V30 23438 N 2172.81 0.529439 1.48441 0
M  V30 23439 C 2174.03 -0.00290016 2.074 0
M  V30 23440 C 2174.46 -1.27443 1.38347 0
M  V30 23441 O 2173.82 -1.75646 0.449242 0
M  V30 23442 C 2173.86 -0.210465 3.59985 0
M  V30 23443 O 2172.97 -1.27924 3.92057 0
M  V30 23444 H 2172.31 0.0388892 0.66286 0
M  V30 23445 H 2174.84 0.737197 1.90857 0
M  V30 23446 H 2174.85 -0.433287 4.05693 0
M  V30 23447 H 2173.52 0.718388 4.09649 0
M  V30 23448 H 2172.1 -1.03912 3.58129 0
M  V30 23449 N 2174.29 -1.55364 0.264547 0
M  V30 23450 C 2175.7 -1.59347 -0.0898743 0
M  V30 23451 C 2175.9 -1.28177 -1.55476 0
M  V30 23452 O 2174.96 -1.03755 -2.30198 0
M  V30 23453 C 2176.27 -2.99438 0.27523 0
M  V30 23454 C 2177.82 -3.12219 0.220976 0
M  V30 23455 C 2178.29 -4.54559 0.560366 0
M  V30 23456 N 2179.78 -4.60367 0.511522 0
M  V30 23457 C 2180.52 -5.68513 0.747063 0
M  V30 23458 N 2180.02 -6.84848 1.04666 0
M  V30 23459 N 2181.81 -5.58013 0.676574 0
M  V30 23460 H 2173.96 -1.73891 1.21966 0
M  V30 23461 H 2176.22 -0.810337 0.491994 0
M  V30 23462 H 2175.93 -3.27046 1.2936 0
M  V30 23463 H 2175.8 -3.75188 -0.389113 0
M  V30 23464 H 2178.19 -2.84382 -0.788097 0
M  V30 23465 H 2178.27 -2.38705 0.919424 0
M  V30 23466 H 2177.91 -4.8312 1.56708 0
M  V30 23467 H 2177.84 -5.26358 -0.159757 0
M  V30 23468 H 2180.34 -3.7679 0.289407 0
M  V30 23469 H 2180.65 -7.63216 1.21334 0
M  V30 23470 H 2178.99 -6.86489 1.08433 0
M  V30 23471 H 2182.18 -4.66004 0.442433 0
M  V30 23472 H 2182.36 -6.42221 0.863527 0
M  V30 23473 N 2175.76 0.00833021 -1.57598 0
M  V30 23474 C 2177.01 0.694911 -1.90203 0
M  V30 23475 C 2177.34 1.74238 -0.864369 0
M  V30 23476 O 2176.59 1.95254 0.131976 0
M  V30 23477 C 2176.89 1.38284 -3.29564 0
M  V30 23478 C 2176.56 0.469372 -4.4845 0
M  V30 23479 C 2175.22 0.21784 -4.80707 0
M  V30 23480 C 2177.57 -0.160058 -5.20954 0
M  V30 23481 C 2174.9 -0.671554 -5.82844 0
M  V30 23482 C 2177.25 -1.03728 -6.24038 0
M  V30 23483 C 2175.92 -1.29807 -6.54757 0
M  V30 23484 H 2175.19 0.254286 -0.696003 0
M  V30 23485 H 2177.83 -0.0454086 -1.91446 0
M  V30 23486 H 2176.14 2.197 -3.24406 0
M  V30 23487 H 2177.84 1.91998 -3.52048 0
M  V30 23488 H 2174.43 0.675583 -4.23242 0
M  V30 23489 H 2178.61 0.0212698 -4.96295 0
M  V30 23490 H 2173.87 -0.881698 -6.05009 0
M  V30 23491 H 2178.04 -1.5314 -6.79353 0
M  V30 23492 H 2175.67 -1.98894 -7.3372 0
M  V30 23493 N 2177.24 1.55075 0.280956 0
M  V30 23494 C 2178.2 1.86644 1.33029 0
M  V30 23495 C 2179.2 0.740496 1.42735 0
M  V30 23496 O 2180.39 1.00871 1.42023 0
M  V30 23497 C 2177.53 2.06462 2.71268 0
M  V30 23498 H 2178.72 2.80439 1.06273 0
M  V30 23499 H 2176.27 1.47445 0.51863 0
M  V30 23500 H 2177.01 1.15021 3.03217 0
M  V30 23501 H 2176.79 2.88433 2.65611 0
M  V30 23502 H 2178.28 2.32186 3.47101 0
M  V30 23503 N 2178.72 -0.545102 1.47873 0
M  V30 23504 C 2179.97 -1.29914 1.54812 0
M  V30 23505 C 2180.29 -1.93786 0.217214 0
M  V30 23506 O 2179.56 -1.80559 -0.759941 0
M  V30 23507 H 2178.14 -0.482471 0.57029 0
M  V30 23508 H 2180.8 -0.635565 1.84246 0
M  V30 23509 H 2179.9 -2.08635 2.32116 0
M  V30 23510 N 2180.2 -1.36208 -0.792797 0
M  V30 23511 C 2181.61 -1.27081 -1.36774 0
M  V30 23512 C 2181.96 0.0908481 -1.9599 0
M  V30 23513 O 2181.08 0.992221 -1.92312 0
M  V30 23514 C 2181.68 -2.30115 -2.48662 0
M  V30 23515 C 2180.24 -2.24688 -3.01981 0
M  V30 23516 C 2179.39 -2.15076 -1.75035 0
M  V30 23517 H 2182.34 -1.47135 -0.594713 0
M  V30 23518 H 2182.36 -1.93562 -3.27588 0
M  V30 23519 H 2181.87 -3.29207 -2.05534 0
M  V30 23520 H 2179.97 -1.29051 -3.49538 0
M  V30 23521 H 2180.08 -3.17234 -3.59025 0
M  V30 23522 H 2178.45 -1.61276 -1.97135 0
M  V30 23523 H 2179.23 -3.16051 -1.3404 0
M  V30 23524 N 2181.68 1.01656 -1.20431 0
M  V30 23525 C 2182.9 1.79392 -1.04084 0
M  V30 23526 C 2183.33 1.83678 0.405466 0
M  V30 23527 O 2182.68 1.27186 1.29203 0
M  V30 23528 C 2182.73 3.21706 -1.62904 0
M  V30 23529 O 2181.84 4.0319 -0.866689 0
M  V30 23530 H 2181.18 0.553315 -0.367068 0
M  V30 23531 H 2183.71 1.27864 -1.59725 0
M  V30 23532 H 2183.72 3.72418 -1.6664 0
M  V30 23533 H 2182.39 3.17901 -2.68164 0
M  V30 23534 H 2180.97 3.61788 -0.903537 0
M  V30 23535 N 2183.15 1.01021 1.20965 0
M  V30 23536 C 2184.4 0.691231 1.89486 0
M  V30 23537 C 2184.72 -0.781846 1.79295 0
M  V30 23538 O 2185.92 -1.21312 2.4289 0
M  V30 23539 C 2184.38 1.18593 3.39799 0
M  V30 23540 C 2183.99 2.68546 3.5859 0
M  V30 23541 C 2185.73 0.942088 4.13914 0
M  V30 23542 C 2183.64 3.1153 5.02696 0
M  V30 23543 H 2182.57 0.254853 0.709624 0
M  V30 23544 H 2185.22 1.22205 1.36887 0
M  V30 23545 H 2183.6 0.583129 3.91683 0
M  V30 23546 H 2184.77 3.3432 3.17122 0
M  V30 23547 H 2183.09 2.91002 2.97837 0
M  V30 23548 H 2185.69 1.23873 5.20153 0
M  V30 23549 H 2186.03 -0.121574 4.16122 0
M  V30 23550 H 2186.56 1.50794 3.68111 0
M  V30 23551 H 2183.3 4.17145 5.05638 0
M  V30 23552 H 2182.82 2.50471 5.44999 0
M  V30 23553 H 2184.5 3.03805 5.71237 0
M  V30 23554 N 2184.63 -1.36623 0.78561 0
M  V30 23555 C 2185.86 -2.03305 0.367534 0
M  V30 23556 C 2186.27 -1.59374 -1.01963 0
M  V30 23557 O 2185.61 -0.77687 -1.66464 0
M  V30 23558 C 2185.67 -3.57815 0.347627 0
M  V30 23559 C 2185.34 -4.24932 1.68172 0
M  V30 23560 C 2186.34 -4.48087 2.63656 0
M  V30 23561 C 2184.02 -4.62483 1.95997 0
M  V30 23562 C 2186.01 -5.07868 3.85161 0
M  V30 23563 C 2183.7 -5.21982 3.17771 0
M  V30 23564 C 2184.7 -5.44613 4.12172 0
M  V30 23565 O 2184.39 -6.02864 5.31799 0
M  V30 23566 H 2184.12 -0.659134 0.150061 0
M  V30 23567 H 2186.67 -1.75659 1.06456 0
M  V30 23568 H 2184.9 -3.84564 -0.405872 0
M  V30 23569 H 2186.59 -4.05875 -0.0452626 0
M  V30 23570 H 2187.36 -4.19476 2.43444 0
M  V30 23571 H 2183.24 -4.44194 1.2334 0
M  V30 23572 H 2186.78 -5.25448 4.58857 0
M  V30 23573 H 2182.68 -5.50018 3.37861 0
M  V30 23574 H 2183.45 -6.21333 5.32811 0
M  V30 23575 N 2186.11 -0.537304 -1.48158 0
M  V30 23576 C 2187.07 0.210784 -2.28229 0
M  V30 23577 C 2188.07 0.861078 -1.35802 0
M  V30 23578 O 2189.26 0.72 -1.58624 0
M  V30 23579 C 2186.39 1.30581 -3.14899 0
M  V30 23580 H 2187.59 -0.492311 -2.95832 0
M  V30 23581 H 2185.14 -0.293505 -1.53519 0
M  V30 23582 H 2185.88 2.04194 -2.51943 0
M  V30 23583 H 2185.66 0.844559 -3.82896 0
M  V30 23584 H 2187.15 1.8318 -3.7528 0
M  V30 23585 N 2187.59 1.55221 -0.272782 0
M  V30 23586 C 2188.84 1.99151 0.343986 0
M  V30 23587 C 2189.16 1.16259 1.56553 0
M  V30 23588 O 2188.43 0.25154 1.94278 0
M  V30 23589 H 2187.01 0.735586 0.130087 0
M  V30 23590 H 2189.67 1.91208 -0.377577 0
M  V30 23591 H 2188.77 3.05562 0.635452 0
M  V30 23592 N 2189.07 2.77022e-05 1.576 0
M  V30 23593 C 2190.29 -0.699433 1.9525 0
M  V30 23594 C 2190.72 -1.66511 0.874964 0
M  V30 23595 O 2190.07 -1.8053 -0.166897 0
M  V30 23596 C 2190.12 -1.4075 3.31996 0
M  V30 23597 O 2189.23 -2.52192 3.26302 0
M  V30 23598 H 2188.57 -0.18604 0.637405 0
M  V30 23599 H 2191.1 0.053226 2.04531 0
M  V30 23600 H 2191.11 -1.77092 3.67563 0
M  V30 23601 H 2189.78 -0.699458 4.09976 0
M  V30 23602 H 2188.36 -2.18177 3.02412 0
M  V30 23603 N 2190.54 -1.55222 -0.272728 0
M  V30 23604 C 2191.96 -1.47068 -0.619933 0
M  V30 23605 C 2192.16 -0.685012 -1.89499 0
M  V30 23606 O 2191.22 -0.203975 -2.51675 0
M  V30 23607 C 2192.53 -2.91283 -0.746642 0
M  V30 23608 C 2194.08 -3.01499 -0.840678 0
M  V30 23609 C 2194.55 -4.46968 -0.999161 0
M  V30 23610 N 2196.04 -4.50798 -1.06468 0
M  V30 23611 C 2196.78 -5.60572 -1.20611 0
M  V30 23612 N 2196.27 -6.80211 -1.31471 0
M  V30 23613 N 2198.07 -5.48315 -1.23723 0
M  V30 23614 H 2190.22 -2.04757 0.564642 0
M  V30 23615 H 2192.48 -0.92852 0.191194 0
M  V30 23616 H 2192.19 -3.51496 0.119815 0
M  V30 23617 H 2192.06 -3.40314 -1.62684 0
M  V30 23618 H 2194.45 -2.41382 -1.6976 0
M  V30 23619 H 2194.53 -2.5572 0.0641323 0
M  V30 23620 H 2194.17 -5.07688 -0.146895 0
M  V30 23621 H 2194.1 -4.90404 -1.91862 0
M  V30 23622 H 2196.59 -3.64617 -0.993132 0
M  V30 23623 H 2196.91 -7.59624 -1.42098 0
M  V30 23624 H 2195.25 -6.83022 -1.28475 0
M  V30 23625 H 2198.44 -4.53787 -1.14869 0
M  V30 23626 H 2198.62 -6.33909 -1.34401 0
M  V30 23627 N 2192.02 0.537252 -1.4816 0
M  V30 23628 C 2192.95 1.65187 -1.65032 0
M  V30 23629 C 2193.93 1.62607 -0.499309 0
M  V30 23630 O 2195.12 1.79917 -0.731003 0
M  V30 23631 C 2192.25 3.03792 -1.68308 0
M  V30 23632 C 2191.2 3.21229 -2.82836 0
M  V30 23633 C 2190.53 4.60821 -2.71197 0
M  V30 23634 C 2191.83 3.04693 -4.24216 0
M  V30 23635 H 2193.52 1.51323 -2.58344 0
M  V30 23636 H 2191.07 0.726563 -1.24326 0
M  V30 23637 H 2193.02 3.81634 -1.787 0
M  V30 23638 H 2191.75 3.18662 -0.715691 0
M  V30 23639 H 2190.4 2.45802 -2.71987 0
M  V30 23640 H 2190.05 4.72517 -1.72443 0
M  V30 23641 H 2189.75 4.73434 -3.48043 0
M  V30 23642 H 2191.28 5.40772 -2.83546 0
M  V30 23643 H 2192.69 3.72334 -4.35936 0
M  V30 23644 H 2191.09 3.28804 -5.02004 0
M  V30 23645 H 2192.16 2.01201 -4.41187 0
M  V30 23646 N 2193.5 1.36626 0.785562 0
M  V30 23647 C 2194.43 1.33953 1.91256 0
M  V30 23648 C 2195.41 0.210355 1.68794 0
M  V30 23649 O 2196.6 0.408594 1.89853 0
M  V30 23650 C 2193.73 1.13191 3.28337 0
M  V30 23651 C 2192.68 2.22974 3.65331 0
M  V30 23652 C 2192.01 1.87351 5.00803 0
M  V30 23653 C 2193.31 3.65082 3.73514 0
M  V30 23654 H 2195 2.28257 1.93751 0
M  V30 23655 H 2192.55 1.09876 0.930768 0
M  V30 23656 H 2194.5 1.09955 4.06802 0
M  V30 23657 H 2193.22 0.15339 3.2624 0
M  V30 23658 H 2191.88 2.25342 2.89165 0
M  V30 23659 H 2191.53 0.880632 4.95231 0
M  V30 23660 H 2191.23 2.60855 5.26525 0
M  V30 23661 H 2192.75 1.85677 5.81684 0
M  V30 23662 H 2194.17 3.64919 4.42162 0
M  V30 23663 H 2192.57 4.37523 4.10723 0
M  V30 23664 H 2193.64 3.99708 2.7452 0
M  V30 23665 N 2194.98 -1.01016 1.20969 0
M  V30 23666 C 2195.91 -2.11553 0.988309 0
M  V30 23667 C 2196.89 -1.69888 -0.084948 0
M  V30 23668 O 2198.07 -1.9406 0.0738543 0
M  V30 23669 C 2195.2 -3.42972 0.546588 0
M  V30 23670 C 2194.16 -3.98408 1.56382 0
M  V30 23671 C 2193.48 -5.2567 0.978512 0
M  V30 23672 C 2194.78 -4.31061 2.9493 0
M  V30 23673 H 2196.48 -2.30331 1.9128 0
M  V30 23674 H 2194.02 -1.10688 0.921092 0
M  V30 23675 H 2195.98 -4.19693 0.378913 0
M  V30 23676 H 2194.7 -3.23971 -0.413541 0
M  V30 23677 H 2193.36 -3.23801 1.71897 0
M  V30 23678 H 2193.01 -5.02999 0.0102572 0
M  V30 23679 H 2192.71 -5.63725 1.65794 0
M  V30 23680 H 2194.23 -6.05041 0.822046 0
M  V30 23681 H 2195.65 -4.98645 2.82889 0
M  V30 23682 H 2194.04 -4.80246 3.59838 0
M  V30 23683 H 2195.11 -3.39555 3.46166 0
M  V30 23684 N 2196.46 -1.01661 -1.20428 0
M  V30 23685 C 2197.39 -0.53156 -2.21923 0
M  V30 23686 C 2198.37 0.421005 -1.57055 0
M  V30 23687 O 2199.55 0.341002 -1.8539 0
M  V30 23688 C 2196.68 0.226436 -3.37942 0
M  V30 23689 C 2195.72 -0.675684 -4.21114 0
M  V30 23690 S 2196.56 -2.14484 -4.9067 0
M  V30 23691 C 2197.71 -1.39701 -6.1011 0
M  V30 23692 H 2197.95 -1.39155 -2.62723 0
M  V30 23693 H 2195.48 -0.825502 -1.30479 0
M  V30 23694 H 2197.44 0.657666 -4.05197 0
M  V30 23695 H 2196.1 1.06199 -2.95602 0
M  V30 23696 H 2195.29 -0.0911965 -5.03917 0
M  V30 23697 H 2194.89 -1.04469 -3.59113 0
M  V30 23698 H 2197.19 -0.677015 -6.74109 0
M  V30 23699 H 2198.13 -2.20118 -6.73018 0
M  V30 23700 H 2198.54 -0.899884 -5.57281 0
M  V30 23701 N 2197.93 1.36205 -0.792844 0
M  V30 23702 C 2198.86 2.32573 -0.207894 0
M  V30 23703 C 2199.85 1.56815 0.659028 0
M  V30 23704 O 2201.03 1.84952 0.592143 0
M  V30 23705 C 2198.16 3.4106 0.655389 0
M  V30 23706 C 2197.11 4.27854 -0.111917 0
M  V30 23707 C 2196.44 5.27539 0.872181 0
M  V30 23708 C 2197.74 5.05784 -1.30308 0
M  V30 23709 H 2199.43 2.81743 -1.01299 0
M  V30 23710 H 2196.98 1.35459 -0.488564 0
M  V30 23711 H 2198.93 4.07469 1.07457 0
M  V30 23712 H 2197.66 2.90466 1.49323 0
M  V30 23713 H 2196.32 3.63005 -0.512116 0
M  V30 23714 H 2195.96 4.73217 1.70514 0
M  V30 23715 H 2195.66 5.86477 0.363188 0
M  V30 23716 H 2197.19 5.96821 1.28986 0
M  V30 23717 H 2198.6 5.65214 -0.959478 0
M  V30 23718 H 2197 5.7415 -1.7456 0
M  V30 23719 H 2198.07 4.37226 -2.0967 0
M  V30 23720 N 2199.41 0.545154 1.47871 0
M  V30 23721 C 2200.34 -0.197752 2.32661 0
M  V30 23722 C 2201.32 -0.920479 1.43043 0
M  V30 23723 O 2202.51 -0.9033 1.71913 0
M  V30 23724 C 2199.64 -1.23576 3.24571 0
M  V30 23725 C 2198.59 -0.630249 4.23334 0
M  V30 23726 C 2197.92 -1.77202 5.04483 0
M  V30 23727 C 2199.22 0.408065 5.20703 0
M  V30 23728 H 2200.91 0.510097 2.95023 0
M  V30 23729 H 2198.46 0.246756 1.4187 0
M  V30 23730 H 2200.41 -1.76355 3.82723 0
M  V30 23731 H 2199.14 -1.9734 2.6024 0
M  V30 23732 H 2197.79 -0.123857 3.66391 0
M  V30 23733 H 2197.44 -2.4984 4.36565 0
M  V30 23734 H 2197.14 -1.37271 5.71341 0
M  V30 23735 H 2198.67 -2.3033 5.65491 0
M  V30 23736 H 2200.08 -0.0332043 5.7329 0
M  V30 23737 H 2198.48 0.725591 5.95697 0
M  V30 23738 H 2199.55 1.30837 4.66915 0
M  V30 23739 N 2200.89 -1.55074 0.28101 0
M  V30 23740 C 2202.14 -1.99725 -0.33408 0
M  V30 23741 C 2202.47 -1.16943 -1.55418 0
M  V30 23742 O 2201.72 -0.228565 -1.94361 0
M  V30 23743 C 2202.02 -3.49343 -0.754595 0
M  V30 23744 C 2201.69 -4.49448 0.361524 0
M  V30 23745 C 2200.35 -4.76541 0.667977 0
M  V30 23746 C 2202.7 -5.09171 1.11331 0
M  V30 23747 C 2200.03 -5.60623 1.72969 0
M  V30 23748 C 2202.38 -5.94407 2.1648 0
M  V30 23749 C 2201.04 -6.19818 2.47753 0
M  V30 23750 H 2200.31 -0.730846 -0.122249 0
M  V30 23751 H 2202.96 -1.87362 0.39595 0
M  V30 23752 H 2201.27 -3.59213 -1.56439 0
M  V30 23753 H 2202.96 -3.81302 -1.24136 0
M  V30 23754 H 2199.55 -4.28452 0.112557 0
M  V30 23755 H 2203.74 -4.88258 0.889815 0
M  V30 23756 H 2198.99 -5.78556 1.97694 0
M  V30 23757 H 2203.17 -6.39715 2.75204 0
M  V30 23758 H 2200.79 -6.84763 3.30157 0
M  V30 23759 N 2202.37 -0.00838561 -1.57598 0
M  V30 23760 C 2203.33 0.965206 -2.07886 0
M  V30 23761 C 2204.33 1.26723 -0.989847 0
M  V30 23762 O 2205.52 1.21101 -1.2522 0
M  V30 23763 C 2202.65 2.28775 -2.52735 0
M  V30 23764 H 2203.85 0.53006 -2.95179 0
M  V30 23765 H 2201.4 0.239256 -1.54458 0
M  V30 23766 H 2202.14 2.76961 -1.6871 0
M  V30 23767 H 2201.92 2.08172 -3.32276 0
M  V30 23768 H 2203.41 2.986 -2.91938 0
M  V30 23769 N 2203.85 1.55365 0.264492 0
M  V30 23770 C 2205.08 1.80407 1.01297 0
M  V30 23771 C 2205.49 0.581654 1.79617 0
M  V30 23772 O 2204.85 -0.449437 1.76879 0
M  V30 23773 C 2204.9 3.03442 1.96482 0
M  V30 23774 O 2204.62 4.20963 1.21334 0
M  V30 23775 C 2206.12 3.41152 2.83073 0
M  V30 23776 H 2203.34 0.600767 0.298865 0
M  V30 23777 H 2205.88 2.02394 0.2927 0
M  V30 23778 H 2204.04 2.83556 2.6396 0
M  V30 23779 H 2204.45 4.90577 1.85564 0
M  V30 23780 H 2205.93 4.3039 3.45642 0
M  V30 23781 H 2206.4 2.60938 3.53282 0
M  V30 23782 H 2207.01 3.63327 2.21073 0
M  V30 23783 N 2205.33 -0.529387 1.48443 0
M  V30 23784 C 2206.55 -1.31468 1.60409 0
M  V30 23785 C 2206.98 -1.86227 0.264771 0
M  V30 23786 O 2206.33 -1.64433 -0.763639 0
M  V30 23787 C 2206.38 -2.44096 2.65423 0
M  V30 23788 O 2205.49 -3.47149 2.22624 0
M  V30 23789 H 2204.83 -0.389348 0.53787 0
M  V30 23790 H 2207.36 -0.636931 1.94433 0
M  V30 23791 H 2207.37 -2.90274 2.86715 0
M  V30 23792 H 2206.04 -2.03601 3.62656 0
M  V30 23793 H 2204.62 -3.07086 2.11548 0
M  V30 23794 N 2206.8 -1.37041 -0.778305 0
M  V30 23795 C 2208.03 -1.35066 -1.56731 0
M  V30 23796 C 2208.45 0.0655266 -1.88686 0
M  V30 23797 O 2207.8 1.02552 -1.50962 0
M  V30 23798 C 2207.85 -2.18281 -2.88159 0
M  V30 23799 O 2207.58 -3.54381 -2.57577 0
M  V30 23800 C 2209.08 -2.24212 -3.82418 0
M  V30 23801 H 2206.3 -0.462891 -0.48577 0
M  V30 23802 H 2208.84 -1.80292 -0.965154 0
M  V30 23803 H 2207 -1.76582 -3.44815 0
M  V30 23804 H 2207.41 -3.97928 -3.41692 0
M  V30 23805 H 2208.88 -2.86774 -4.71662 0
M  V30 23806 H 2209.36 -1.24869 -4.21075 0
M  V30 23807 H 2209.97 -2.66196 -3.31693 0
M  V30 23808 N 2208.28 1.00373 -1.21503 0
M  V30 23809 C 2209.53 1.74427 -1.03456 0
M  V30 23810 C 2209.86 1.89363 0.430731 0
M  V30 23811 O 2209.14 1.42888 1.31959 0
M  V30 23812 C 2209.42 3.15612 -1.73381 0
M  V30 23813 C 2209.27 3.08391 -3.27437 0
M  V30 23814 C 2210.59 4.14561 -1.47739 0
M  V30 23815 H 2207.71 0.633136 -0.377237 0
M  V30 23816 H 2210.35 1.1701 -1.49695 0
M  V30 23817 H 2208.5 3.64633 -1.3407 0
M  V30 23818 H 2210.17 2.67075 -3.76123 0
M  V30 23819 H 2208.42 2.45462 -3.57674 0
M  V30 23820 H 2209.09 4.08251 -3.71531 0
M  V30 23821 H 2211.56 3.74251 -1.81866 0
M  V30 23822 H 2210.44 5.11488 -1.99178 0
M  V30 23823 H 2210.7 4.40216 -0.407666 0
M  V30 23824 N 2209.76 1.02298 1.19887 0
M  V30 23825 C 2211.01 0.726793 1.89972 0
M  V30 23826 C 2211.36 -0.736109 1.77762 0
M  V30 23827 O 2210.65 -1.52854 1.15525 0
M  V30 23828 C 2210.85 1.10524 3.39881 0
M  V30 23829 C 2210.68 2.60339 3.6668 0
M  V30 23830 C 2209.45 3.2722 3.85039 0
M  V30 23831 C 2211.64 3.58538 3.6872 0
M  V30 23832 N 2209.63 4.66199 3.99414 0
M  V30 23833 C 2211 4.83108 3.88596 0
M  V30 23834 C 2213.05 3.52421 3.51716 0
M  V30 23835 C 2211.76 6.02298 3.93229 0
M  V30 23836 C 2213.78 4.7102 3.57624 0
M  V30 23837 C 2213.14 5.94401 3.77978 0
M  V30 23838 H 2209.24 0.317725 0.714545 0
M  V30 23839 H 2211.83 1.30909 1.44121 0
M  V30 23840 H 2210 0.55121 3.84469 0
M  V30 23841 H 2211.73 0.761923 3.97463 0
M  V30 23842 H 2208.48 2.77639 3.83684 0
M  V30 23843 H 2208.91 5.38376 4.10464 0
M  V30 23844 H 2213.55 2.58021 3.3494 0
M  V30 23845 H 2211.27 6.97072 4.08799 0
M  V30 23846 H 2214.85 4.67908 3.45765 0
M  V30 23847 H 2213.73 6.84637 3.82416 0
M  V30 23848 N 2211.24 -1.35782 0.800057 0
M  V30 23849 C 2212.47 -2.03198 0.389642 0
M  V30 23850 C 2212.88 -1.60307 -0.997347 0
M  V30 23851 O 2212.24 -0.79751 -1.64152 0
M  V30 23852 C 2212.29 -3.58613 0.455918 0
M  V30 23853 O 2212.01 -3.99943 1.78822 0
M  V30 23854 C 2213.51 -4.43284 0.0374812 0
M  V30 23855 H 2210.73 -0.651855 0.159143 0
M  V30 23856 H 2213.27 -1.7354 1.08186 0
M  V30 23857 H 2211.43 -3.86944 -0.187989 0
M  V30 23858 H 2211.84 -4.9457 1.74645 0
M  V30 23859 H 2213.32 -5.51835 0.134979 0
M  V30 23860 H 2213.79 -4.27277 -1.01643 0
M  V30 23861 H 2214.4 -4.20237 0.654289 0
M  V30 23862 N 2212.72 -0.552988 -1.4758 0
M  V30 23863 C 2214.13 -0.118496 -1.86324 0
M  V30 23864 C 2214.48 1.31057 -1.46008 0
M  V30 23865 O 2213.6 1.98525 -0.861217 0
M  V30 23866 C 2214.2 -0.208269 -3.38159 0
M  V30 23867 C 2212.76 0.17116 -3.76011 0
M  V30 23868 C 2211.9 -0.557734 -2.71633 0
M  V30 23869 H 2214.85 -0.762953 -1.39157 0
M  V30 23870 H 2214.88 0.574212 -3.76142 0
M  V30 23871 H 2214.39 -1.24847 -3.67471 0
M  V30 23872 H 2212.49 1.21263 -3.52315 0
M  V30 23873 H 2212.6 -0.184463 -4.78745 0
M  V30 23874 H 2210.97 -0.00130269 -2.547 0
M  V30 23875 H 2211.75 -1.59901 -3.03787 0
M  V30 23876 N 2214.19 1.54923 -0.28923 0
M  V30 23877 C 2215.16 2.21763 0.579105 0
M  V30 23878 C 2216.16 1.19992 1.07045 0
M  V30 23879 O 2217.35 1.44805 0.968359 0
M  V30 23880 C 2214.48 2.89473 1.8005 0
M  V30 23881 H 2215.67 2.999 -0.00470179 0
M  V30 23882 H 2213.22 1.56249 -0.0399581 0
M  V30 23883 H 2213.96 2.15386 2.42445 0
M  V30 23884 H 2213.74 3.64067 1.45595 0
M  V30 23885 H 2215.23 3.40498 2.41767 0
M  V30 23886 N 2215.67 0.0167433 1.57591 0
M  V30 23887 C 2216.6 -0.96782 2.12498 0
M  V30 23888 C 2217.58 -1.3475 1.03809 0
M  V30 23889 O 2218.77 -1.4283 1.31579 0
M  V30 23890 C 2215.9 -2.25426 2.64198 0
M  V30 23891 C 2214.85 -2.0157 3.77563 0
M  V30 23892 C 2214.18 -3.36372 4.15642 0
M  V30 23893 C 2215.48 -1.36481 5.04153 0
M  V30 23894 H 2217.17 -0.510591 2.95014 0
M  V30 23895 H 2214.72 -0.244156 1.41915 0
M  V30 23896 H 2216.67 -2.94672 3.01241 0
M  V30 23897 H 2215.39 -2.73292 1.78826 0
M  V30 23898 H 2214.05 -1.34745 3.40939 0
M  V30 23899 H 2213.7 -3.81973 3.27269 0
M  V30 23900 H 2213.4 -3.2122 4.92028 0
M  V30 23901 H 2214.93 -4.06907 4.55258 0
M  V30 23902 H 2216.34 -1.95708 5.38861 0
M  V30 23903 H 2214.74 -1.31765 5.85455 0
M  V30 23904 H 2215.81 -0.336134 4.83734 0
M  V30 23905 N 2217.15 -1.55503 -0.256249 0
M  V30 23906 C 2218.4 -1.761 -0.983455 0
M  V30 23907 C 2218.71 -0.578928 -1.86836 0
M  V30 23908 O 2219.92 -0.667694 -2.63162 0
M  V30 23909 C 2218.37 -3.11733 -1.79863 0
M  V30 23910 C 2217.98 -4.37559 -0.961571 0
M  V30 23911 C 2219.73 -3.41672 -2.51913 0
M  V30 23912 C 2217.63 -5.64226 -1.7721 0
M  V30 23913 H 2216.56 -0.656453 -0.370925 0
M  V30 23914 H 2219.21 -1.81944 -0.23846 0
M  V30 23915 H 2217.6 -2.9997 -2.58522 0
M  V30 23916 H 2218.77 -4.60284 -0.217967 0
M  V30 23917 H 2217.09 -4.14885 -0.35484 0
M  V30 23918 H 2219.68 -4.33522 -3.1299 0
M  V30 23919 H 2220.03 -2.62567 -3.23054 0
M  V30 23920 H 2220.56 -3.54608 -1.80271 0
M  V30 23921 H 2217.3 -6.46126 -1.10459 0
M  V30 23922 H 2216.82 -5.45617 -2.49123 0
M  V30 23923 H 2218.5 -6.03141 -2.34158 0
M  V30 23924 N 2218.63 0.521507 -1.48721 0
M  V30 23925 C 2219.87 1.27622 -1.5838 0
M  V30 23926 C 2220.23 1.90661 -0.258062 0
M  V30 23927 O 2219.52 1.76738 0.739886 0
M  V30 23928 C 2219.72 2.38143 -2.66501 0
M  V30 23929 C 2219.55 1.85938 -4.0946 0
M  V30 23930 C 2218.32 1.6816 -4.76498 0
M  V30 23931 C 2220.51 1.38301 -4.95356 0
M  V30 23932 N 2218.5 1.10669 -6.03842 0
M  V30 23933 C 2219.87 0.92813 -6.13014 0
M  V30 23934 C 2221.92 1.26683 -4.81514 0
M  V30 23935 C 2220.62 0.368575 -7.18355 0
M  V30 23936 C 2222.65 0.721265 -5.86985 0
M  V30 23937 C 2222.01 0.276499 -7.03857 0
M  V30 23938 H 2218.11 0.457713 -0.634053 0
M  V30 23939 H 2220.7 0.587016 -1.8564 0
M  V30 23940 H 2218.87 3.04549 -2.41049 0
M  V30 23941 H 2220.6 3.05179 -2.65797 0
M  V30 23942 H 2217.35 1.91931 -4.32966 0
M  V30 23943 H 2217.78 0.839099 -6.7178 0
M  V30 23944 H 2222.42 1.59673 -3.9149 0
M  V30 23945 H 2220.14 0.0263701 -8.08096 0
M  V30 23946 H 2223.72 0.634429 -5.78331 0
M  V30 23947 H 2222.6 -0.139084 -7.84077 0
M  V30 23948 N 2220.11 1.37452 0.771027 0
M  V30 23949 C 2221.35 1.327 1.52961 0
M  V30 23950 C 2221.68 -0.0882932 1.94299 0
M  V30 23951 O 2220.94 -1.06167 1.64399 0
M  V30 23952 C 2221.24 2.21264 2.80672 0
M  V30 23953 C 2220.9 3.69526 2.58382 0
M  V30 23954 C 2219.56 4.09931 2.52012 0
M  V30 23955 C 2221.92 4.6345 2.38461 0
M  V30 23956 C 2219.24 5.42375 2.23711 0
M  V30 23957 C 2221.6 5.96132 2.11684 0
M  V30 23958 C 2220.26 6.35641 2.03758 0
M  V30 23959 H 2219.53 0.485583 0.559724 0
M  V30 23960 H 2222.18 1.69664 0.888054 0
M  V30 23961 H 2220.48 1.77297 3.49389 0
M  V30 23962 H 2222.18 2.14901 3.38553 0
M  V30 23963 H 2218.77 3.37482 2.64204 0
M  V30 23964 H 2222.95 4.33093 2.42372 0
M  V30 23965 H 2218.21 5.71947 2.16071 0
M  V30 23966 H 2222.38 6.68463 1.95268 0
M  V30 23967 H 2220.01 7.38193 1.81593 0
M  V30 23968 N 2221.58 -0.997276 1.22033 0
M  V30 23969 C 2222.83 -1.7397 1.05385 0
M  V30 23970 C 2223.19 -1.88038 -0.407386 0
M  V30 23971 O 2222.48 -1.40927 -1.29808 0
M  V30 23972 C 2222.67 -3.1473 1.6935 0
M  V30 23973 C 2222.5 -3.14389 3.21542 0
M  V30 23974 C 2221.27 -3.2053 3.90626 0
M  V30 23975 C 2223.47 -2.98889 4.18533 0
M  V30 23976 N 2221.45 -3.09897 5.29941 0
M  V30 23977 C 2222.82 -2.96237 5.4465 0
M  V30 23978 C 2224.88 -2.83248 4.09481 0
M  V30 23979 C 2223.58 -2.79546 6.62757 0
M  V30 23980 C 2225.61 -2.67916 5.27233 0
M  V30 23981 C 2224.97 -2.65947 6.52266 0
M  V30 23982 H 2221.07 -0.64645 0.44003 0
M  V30 23983 H 2223.65 -1.18472 1.54507 0
M  V30 23984 H 2221.82 -3.68481 1.22784 0
M  V30 23985 H 2223.55 -3.77511 1.45835 0
M  V30 23986 H 2220.31 -3.28037 3.41597 0
M  V30 23987 H 2220.73 -3.07901 6.02931 0
M  V30 23988 H 2225.38 -2.83571 3.13603 0
M  V30 23989 H 2223.09 -2.77969 7.58788 0
M  V30 23990 H 2226.68 -2.56802 5.22057 0
M  V30 23991 H 2225.56 -2.54226 7.41848 0
M  V30 23992 N 2223.06 -1.02932 -1.19343 0
M  V30 23993 C 2224.31 -0.727117 -1.89317 0
M  V30 23994 C 2224.64 0.742451 -1.79447 0
M  V30 23995 O 2223.92 1.5407 -1.18712 0
M  V30 23996 C 2224.2 -1.17948 -3.40236 0
M  V30 23997 C 2224.05 -2.7103 -3.58974 0
M  V30 23998 C 2225.37 -0.760624 -4.33477 0
M  V30 23999 H 2222.49 -0.265619 -0.687471 0
M  V30 24000 H 2225.13 -1.27932 -1.40475 0
M  V30 24001 H 2223.28 -0.709675 -3.81963 0
M  V30 24002 H 2224.95 -3.25961 -3.26415 0
M  V30 24003 H 2223.2 -3.11401 -3.02013 0
M  V30 24004 H 2223.87 -2.97738 -4.64818 0
M  V30 24005 H 2226.34 -1.16471 -3.99467 0
M  V30 24006 H 2225.22 -1.10503 -5.37662 0
M  V30 24007 H 2225.48 0.336986 -4.40814 0
M  V30 24008 N 2224.54 1.35356 -0.807246 0
M  V30 24009 C 2225.77 2.03519 -0.399345 0
M  V30 24010 C 2226.19 1.60434 0.981958 0
M  V30 24011 O 2225.55 0.781328 1.636 0
M  V30 24012 C 2225.6 3.57233 -0.491615 0
M  V30 24013 O 2224.7 4.09422 0.494682 0
M  V30 24014 H 2224.04 0.642736 -0.166693 0
M  V30 24015 H 2226.57 1.72939 -1.09331 0
M  V30 24016 H 2226.58 4.06394 -0.361659 0
M  V30 24017 H 2225.26 3.87941 -1.49914 0
M  V30 24018 H 2223.83 3.71482 0.324911 0
M  V30 24019 N 2226.02 0.560807 1.47284 0
M  V30 24020 C 2226.95 -0.173064 2.32858 0
M  V30 24021 C 2227.93 -0.905255 1.44011 0
M  V30 24022 O 2229.11 -0.885016 1.72862 0
M  V30 24023 C 2226.24 -1.20127 3.25863 0
M  V30 24024 C 2225.2 -0.585313 4.23979 0
M  V30 24025 C 2224.52 -1.71841 5.06335 0
M  V30 24026 C 2225.82 0.46327 5.20241 0
M  V30 24027 H 2227.52 0.541359 2.94465 0
M  V30 24028 H 2225.06 0.261789 1.416 0
M  V30 24029 H 2227.02 -1.72286 3.84572 0
M  V30 24030 H 2225.74 -1.94568 2.62318 0
M  V30 24031 H 2224.4 -0.0849896 3.66501 0
M  V30 24032 H 2224.05 -2.45195 4.3919 0
M  V30 24033 H 2223.75 -1.31203 5.72765 0
M  V30 24034 H 2225.27 -2.24319 5.67902 0
M  V30 24035 H 2226.69 0.0276027 5.73293 0
M  V30 24036 H 2225.08 0.788731 5.94894 0
M  V30 24037 H 2226.15 1.35782 4.65501 0
M  V30 24038 N 2227.5 -1.54768 0.297442 0
M  V30 24039 C 2228.43 -2.26349 -0.573454 0
M  V30 24040 C 2229.41 -1.26171 -1.14083 0
M  V30 24041 O 2230.59 -1.54936 -1.17083 0
M  V30 24042 C 2227.72 -3.00156 -1.74711 0
M  V30 24043 C 2226.68 -4.07451 -1.31025 0
M  V30 24044 C 2226 -4.68954 -2.56878 0
M  V30 24045 C 2227.3 -5.20409 -0.444092 0
M  V30 24046 H 2229 -2.99391 0.0235657 0
M  V30 24047 H 2226.54 -1.43994 0.0127742 0
M  V30 24048 H 2228.5 -3.48951 -2.36243 0
M  V30 24049 H 2227.22 -2.24686 -2.37031 0
M  V30 24050 H 2225.88 -3.595 -0.718003 0
M  V30 24051 H 2225.53 -3.90128 -3.17505 0
M  V30 24052 H 2225.23 -5.41415 -2.28351 0
M  V30 24053 H 2226.75 -5.2051 -3.1922 0
M  V30 24054 H 2228.16 -5.6512 -0.965 0
M  V30 24055 H 2226.56 -5.99568 -0.252741 0
M  V30 24056 H 2227.63 -4.81976 0.531693 0
M  V30 24057 N 2228.97 -0.0251005 -1.5758 0
M  V30 24058 C 2229.94 0.943102 -2.08898 0
M  V30 24059 C 2230.94 1.25666 -1.00323 0
M  V30 24060 O 2232.13 1.19767 -1.26498 0
M  V30 24061 C 2229.26 2.26081 -2.55147 0
M  V30 24062 H 2230.45 0.498723 -2.95724 0
M  V30 24063 H 2228.01 0.22286 -1.54703 0
M  V30 24064 H 2228.74 2.75156 -1.71638 0
M  V30 24065 H 2228.53 2.04636 -3.34465 0
M  V30 24066 H 2230.02 2.95487 -2.95089 0
M  V30 24067 N 2230.45 1.55637 0.247999 0
M  V30 24068 C 2231.38 1.9324 1.31075 0
M  V30 24069 C 2232.36 0.797201 1.50262 0
M  V30 24070 O 2233.55 1.0574 1.62889 0
M  V30 24071 C 2230.68 2.22614 2.66571 0
M  V30 24072 C 2229.63 3.38375 2.62081 0
M  V30 24073 C 2228.96 3.53288 4.01362 0
M  V30 24074 C 2230.26 4.74094 2.19163 0
M  V30 24075 H 2231.95 2.82259 0.998506 0
M  V30 24076 H 2229.5 1.35804 0.478886 0
M  V30 24077 H 2231.45 2.47509 3.41053 0
M  V30 24078 H 2230.18 1.30419 2.9943 0
M  V30 24079 H 2228.83 3.13487 1.90057 0
M  V30 24080 H 2228.48 2.58515 4.31484 0
M  V30 24081 H 2228.18 4.31134 3.99246 0
M  V30 24082 H 2229.71 3.80503 4.77546 0
M  V30 24083 H 2231.12 4.98368 2.83376 0
M  V30 24084 H 2229.52 5.55034 2.2816 0
M  V30 24085 H 2230.59 4.7123 1.14327 0
M  V30 24086 N 2231.93 -0.513613 1.48996 0
M  V30 24087 C 2233.17 -1.27882 1.59454 0
M  V30 24088 C 2233.54 -1.90099 0.269513 0
M  V30 24089 O 2234.74 -2.67642 0.249186 0
M  V30 24090 C 2233.01 -2.32683 2.71281 0
M  V30 24091 S 2234.57 -3.18711 3.0161 0
M  V30 24092 H 2231.38 -0.434779 0.562573 0
M  V30 24093 H 2233.99 -0.583268 1.86596 0
M  V30 24094 H 2232.69 -1.85484 3.66093 0
M  V30 24095 H 2232.22 -3.06924 2.46091 0
M  V30 24096 H 2234.24 -4.33095 2.42163 0
M  V30 24097 N 2233.41 -1.37859 -0.763727 0
M  V30 24098 C 2234.66 -1.3283 -1.51786 0
M  V30 24099 C 2234.97 0.0823376 -1.95427 0
M  V30 24100 O 2236.18 0.255124 -2.70299 0
M  V30 24101 C 2234.63 -2.33198 -2.74129 0
M  V30 24102 C 2234.24 -3.79831 -2.37555 0
M  V30 24103 C 2235.99 -2.37195 -3.5205 0
M  V30 24104 C 2233.89 -4.7191 -3.56448 0
M  V30 24105 H 2232.82 -0.493705 -0.569887 0
M  V30 24106 H 2235.47 -1.63361 -0.835793 0
M  V30 24107 H 2233.86 -1.95696 -3.44266 0
M  V30 24108 H 2235.03 -4.26215 -1.7515 0
M  V30 24109 H 2233.34 -3.78856 -1.72791 0
M  V30 24110 H 2235.94 -3.0319 -4.40432 0
M  V30 24111 H 2236.28 -1.38789 -3.92484 0
M  V30 24112 H 2236.82 -2.73445 -2.88917 0
M  V30 24113 H 2233.56 -5.71474 -3.21089 0
M  V30 24114 H 2233.08 -4.30225 -4.17931 0
M  V30 24115 H 2234.76 -4.89433 -4.23159 0
M  V30 24116 N 2234.89 0.990791 -1.22561 0
M  V30 24117 C 2236.11 1.77144 -1.07865 0
M  V30 24118 C 2236.54 1.84497 0.366414 0
M  V30 24119 O 2235.9 1.29898 1.26476 0
M  V30 24120 C 2235.94 3.18178 -1.69691 0
M  V30 24121 O 2235.05 4.01261 -0.952017 0
M  V30 24122 H 2234.39 0.545404 -0.378722 0
M  V30 24123 H 2236.92 1.24447 -1.62401 0
M  V30 24124 H 2236.93 3.68799 -1.74502 0
M  V30 24125 H 2235.6 3.12141 -2.74847 0
M  V30 24126 H 2234.18 3.5979 -0.980075 0
M  V30 24127 N 2236.37 1.03564 1.18795 0
M  V30 24128 C 2237.78 0.764706 1.70321 0
M  V30 24129 C 2238.13 -0.714964 1.82709 0
M  V30 24130 O 2237.25 -1.55687 1.50302 0
M  V30 24131 C 2237.85 1.38151 3.09354 0
M  V30 24132 C 2236.41 1.15901 3.58112 0
M  V30 24133 C 2235.55 1.47534 2.34796 0
M  V30 24134 H 2238.5 1.2027 1.03541 0
M  V30 24135 H 2238.53 0.782042 3.72377 0
M  V30 24136 H 2238.04 2.45842 3.00305 0
M  V30 24137 H 2236.14 0.10061 3.72464 0
M  V30 24138 H 2236.25 1.85248 4.41837 0
M  V30 24139 H 2234.62 0.894871 2.38462 0
M  V30 24140 H 2235.4 2.56323 2.28371 0
M  V30 24141 N 2237.84 -1.34926 0.814413 0
M  V30 24142 C 2239.09 -1.98541 0.398458 0
M  V30 24143 C 2239.42 -1.64591 -1.03635 0
M  V30 24144 O 2238.67 -0.905191 -1.73507 0
M  V30 24145 C 2238.97 -3.5333 0.537843 0
M  V30 24146 C 2238.64 -4.07169 1.93711 0
M  V30 24147 C 2237.3 -4.21584 2.31991 0
M  V30 24148 C 2239.65 -4.36232 2.85221 0
M  V30 24149 C 2236.98 -4.62385 3.61133 0
M  V30 24150 C 2239.33 -4.78475 4.13817 0
M  V30 24151 C 2238 -4.91096 4.52086 0
M  V30 24152 H 2237.27 -0.726513 0.145806 0
M  V30 24153 H 2239.91 -1.61011 1.03672 0
M  V30 24154 H 2238.22 -3.91368 -0.183837 0
M  V30 24155 H 2239.92 -4.00517 0.196658 0
M  V30 24156 H 2236.51 -3.96406 1.62973 0
M  V30 24157 H 2240.69 -4.24641 2.56893 0
M  V30 24158 H 2235.95 -4.70346 3.90621 0
M  V30 24159 H 2240.12 -4.99923 4.84819 0
M  V30 24160 H 2237.75 -5.22468 5.52205 0
M  V30 24161 N 2239.32 -0.56861 -1.46985 0
M  V30 24162 C 2240.25 0.160712 -2.32946 0
M  V30 24163 C 2241.23 0.897605 -1.44489 0
M  V30 24164 O 2242.42 0.875836 -1.73328 0
M  V30 24165 C 2239.55 1.18397 -3.26496 0
M  V30 24166 C 2238.5 0.56282 -4.24283 0
M  V30 24167 C 2237.83 1.69154 -5.07239 0
M  V30 24168 C 2239.13 -0.490853 -5.19988 0
M  V30 24169 H 2240.82 -0.556968 -2.94174 0
M  V30 24170 H 2238.37 -0.269295 -1.4146 0
M  V30 24171 H 2240.32 1.70244 -3.8548 0
M  V30 24172 H 2239.04 1.93174 -2.63346 0
M  V30 24173 H 2237.7 0.0655519 -3.66541 0
M  V30 24174 H 2237.35 2.42863 -4.40485 0
M  V30 24175 H 2237.05 1.28164 -5.73452 0
M  V30 24176 H 2238.58 2.21304 -5.69084 0
M  V30 24177 H 2239.99 -0.0580055 -5.73271 0
M  V30 24178 H 2238.39 -0.820269 -5.94467 0
M  V30 24179 H 2239.46 -1.38248 -4.64775 0
M  V30 24180 N 2240.8 1.54608 -0.305646 0
M  V30 24181 C 2242.05 2.00231 0.302263 0
M  V30 24182 C 2242.37 1.194 1.53538 0
M  V30 24183 O 2241.63 0.259457 1.93972 0
M  V30 24184 C 2241.93 3.50499 0.698922 0
M  V30 24185 C 2241.59 4.48816 -0.432982 0
M  V30 24186 C 2240.26 4.75418 -0.743706 0
M  V30 24187 C 2242.61 5.07335 -1.19418 0
M  V30 24188 C 2239.94 5.57801 -1.81867 0
M  V30 24189 C 2242.29 5.90887 -2.25909 0
M  V30 24190 C 2240.95 6.15798 -2.57583 0
M  V30 24191 H 2240.22 0.732699 0.110606 0
M  V30 24192 H 2242.87 1.86708 -0.425707 0
M  V30 24193 H 2241.17 3.61656 1.50705 0
M  V30 24194 H 2242.87 3.83229 1.18054 0
M  V30 24195 H 2239.46 4.28219 -0.180706 0
M  V30 24196 H 2243.65 4.86781 -0.96738 0
M  V30 24197 H 2238.9 5.75337 -2.06874 0
M  V30 24198 H 2243.08 6.35256 -2.85346 0
M  V30 24199 H 2240.7 6.79424 -3.41009 0
M  V30 24200 N 2242.28 0.033457 1.57564 0
M  V30 24201 C 2243.23 -0.964923 2.11641 0
M  V30 24202 C 2244.22 -1.33405 1.044 0
M  V30 24203 O 2245.43 -1.31578 1.2283 0
M  V30 24204 H 2241.8 -0.328968 0.676228 0
M  V30 24205 H 2243.77 -0.483562 2.94456 0
M  V30 24206 C 2242.52 -2.23667 2.66211 0
M  V30 24207 H 2241.84 -1.96139 3.48381 0
M  V30 24208 H 2243.28 -2.91724 3.0769 0
M  V30 24209 C 2241.74 -2.96936 1.59156 0
M  V30 24210 O 2242.27 -3.89209 0.993927 0
M  V30 24211 N 2240.48 -2.59349 1.31097 0
M  V30 24212 H 2240.03 -1.8439 1.79883 0
M  V30 24213 H 2239.98 -3.08681 0.596943 0
M  V30 24214 N 2243.76 -1.55766 -0.239741 0
M  V30 24215 C 2245.17 -1.68299 -0.808234 0
M  V30 24216 C 2245.52 -0.632214 -1.85735 0
M  V30 24217 O 2244.64 0.220166 -2.15277 0
M  V30 24218 C 2245.24 -3.05114 -1.47279 0
M  V30 24219 C 2243.8 -3.19562 -1.98889 0
M  V30 24220 C 2242.94 -2.64191 -0.842528 0
M  V30 24221 H 2245.89 -1.58693 -0.0154143 0
M  V30 24222 H 2245.92 -2.99958 -2.34106 0
M  V30 24223 H 2245.43 -3.81569 -0.708986 0
M  V30 24224 H 2243.53 -2.47943 -2.78128 0
M  V30 24225 H 2243.64 -4.2656 -2.18136 0
M  V30 24226 H 2242.01 -2.22199 -1.24497 0
M  V30 24227 H 2242.79 -3.43178 -0.0916949 0
M  V30 24228 N 2245.23 0.505704 -1.49266 0
M  V30 24229 C 2246.18 1.60454 -1.61983 0
M  V30 24230 C 2247.17 1.53707 -0.475707 0
M  V30 24231 O 2248.36 1.61317 -0.72842 0
M  V30 24232 C 2245.49 2.99086 -1.68531 0
M  V30 24233 C 2244.57 3.10847 -2.88505 0
M  V30 24234 N 2244.97 2.9251 -4.1264 0
M  V30 24235 C 2243.26 3.4194 -2.86344 0
M  V30 24236 C 2243.96 3.08329 -4.93263 0
M  V30 24237 N 2242.94 3.36995 -4.26539 0
M  V30 24238 H 2246.74 1.44924 -2.55684 0
M  V30 24239 H 2244.26 0.711727 -1.45973 0
M  V30 24240 H 2246.25 3.7805 -1.75739 0
M  V30 24241 H 2244.91 3.15689 -0.759639 0
M  V30 24242 H 2245.92 2.6878 -4.42694 0
M  V30 24243 H 2242.6 3.64749 -2.03136 0
M  V30 24244 H 2243.99 2.98684 -6.01862 0
M  V30 24245 N 2246.71 1.38262 0.756405 0
M  V30 24246 C 2247.64 1.3115 1.87969 0
M  V30 24247 C 2248.66 0.224268 1.61248 0
M  V30 24248 O 2249.85 0.481611 1.7188 0
M  V30 24249 C 2246.95 1.00863 3.23543 0
M  V30 24250 C 2246.12 2.20439 3.7779 0
M  V30 24251 C 2245.18 1.8694 4.91874 0
M  V30 24252 O 2244.2 2.59403 5.06654 0
M  V30 24253 N 2245.41 0.822669 5.74641 0
M  V30 24254 H 2248.17 2.27944 1.94581 0
M  V30 24255 H 2245.73 1.32086 0.936211 0
M  V30 24256 H 2247.72 0.765091 3.97402 0
M  V30 24257 H 2246.29 0.128742 3.12335 0
M  V30 24258 H 2245.51 2.60875 2.9553 0
M  V30 24259 H 2246.8 3.00248 4.10766 0
M  V30 24260 H 2246.2 0.221675 5.65266 0
M  V30 24261 H 2244.76 0.639013 6.4866 0
M  V30 24262 N 2248.19 -0.984277 1.23084 0
M  V30 24263 C 2249.44 -1.72504 1.0606 0
M  V30 24264 C 2249.77 -1.90278 -0.403072 0
M  V30 24265 O 2249.02 -1.44947 -1.31487 0
M  V30 24266 C 2249.32 -3.12917 1.72679 0
M  V30 24267 C 2248.99 -3.15033 3.22591 0
M  V30 24268 C 2247.65 -3.15317 3.63495 0
M  V30 24269 C 2250 -3.10649 4.18505 0
M  V30 24270 C 2247.33 -3.0893 4.98777 0
M  V30 24271 C 2249.68 -3.05804 5.53775 0
M  V30 24272 C 2248.34 -3.04409 5.94047 0
M  V30 24273 H 2247.61 -0.631235 0.388102 0
M  V30 24274 H 2250.26 -1.15213 1.52965 0
M  V30 24275 H 2248.57 -3.7357 1.18123 0
M  V30 24276 H 2250.26 -3.68993 1.56988 0
M  V30 24277 H 2246.85 -3.15566 2.90028 0
M  V30 24278 H 2251.04 -3.09572 3.87916 0
M  V30 24279 H 2246.29 -3.062 5.29199 0
M  V30 24280 H 2250.47 -3.01369 6.27813 0
M  V30 24281 H 2248.09 -2.99214 6.98838 0
M  V30 24282 N 2249.67 -1.04192 -1.18244 0
M  V30 24283 C 2250.63 -0.638491 -2.20127 0
M  V30 24284 C 2251.63 0.304777 -1.57885 0
M  V30 24285 O 2252.82 0.0900063 -1.73967 0
M  V30 24286 C 2249.95 0.0637152 -3.4084 0
M  V30 24287 H 2251.15 -1.54012 -2.57333 0
M  V30 24288 H 2248.7 -0.834621 -1.32151 0
M  V30 24289 H 2249.43 0.979081 -3.09167 0
M  V30 24290 H 2249.22 -0.614266 -3.87259 0
M  V30 24291 H 2250.71 0.332439 -4.16275 0
M  V30 24292 N 2251.15 1.34492 -0.821557 0
M  V30 24293 C 2252.39 1.99043 -0.418764 0
M  V30 24294 C 2252.75 1.63962 1.00669 0
M  V30 24295 O 2252.04 0.900301 1.69131 0
M  V30 24296 C 2252.23 3.5304 -0.556574 0
M  V30 24297 C 2252.06 4.03082 -1.99388 0
M  V30 24298 C 2250.83 4.31738 -2.62546 0
M  V30 24299 C 2253.03 4.20551 -2.96043 0
M  V30 24300 N 2251.01 4.67806 -3.97531 0
M  V30 24301 C 2252.38 4.59783 -4.15932 0
M  V30 24302 C 2254.44 4.02796 -2.92677 0
M  V30 24303 C 2253.14 4.83117 -5.32908 0
M  V30 24304 C 2255.17 4.27295 -4.08868 0
M  V30 24305 C 2254.53 4.66813 -5.27509 0
M  V30 24306 H 2250.63 0.755644 -0.201313 0
M  V30 24307 H 2253.21 1.62927 -1.06597 0
M  V30 24308 H 2251.38 3.88353 0.0607241 0
M  V30 24309 H 2253.12 4.04501 -0.126913 0
M  V30 24310 H 2249.87 4.22597 -2.13796 0
M  V30 24311 H 2250.3 4.90077 -4.67069 0
M  V30 24312 H 2254.94 3.71373 -2.02094 0
M  V30 24313 H 2252.66 5.13407 -6.2405 0
M  V30 24314 H 2256.24 4.15094 -4.07662 0
M  V30 24315 H 2255.12 4.85397 -6.15922 0
M  V30 24316 N 2252.62 0.576397 1.46681 0
M  V30 24317 C 2253.57 -0.181248 2.27278 0
M  V30 24318 C 2254.56 -0.867697 1.35498 0
M  V30 24319 O 2255.75 -0.762835 1.59718 0
M  V30 24320 C 2252.88 -1.19836 3.21705 0
M  V30 24321 C 2251.97 -0.514346 4.20969 0
M  V30 24322 N 2252.36 0.426496 5.03999 0
M  V30 24323 C 2250.65 -0.765886 4.39375 0
M  V30 24324 C 2251.36 0.825667 5.7581 0
M  V30 24325 N 2250.33 0.176211 5.43314 0
M  V30 24326 H 2254.13 0.541836 2.88862 0
M  V30 24327 H 2251.65 0.397725 1.57454 0
M  V30 24328 H 2253.64 -1.75527 3.78148 0
M  V30 24329 H 2252.3 -1.92233 2.6168 0
M  V30 24330 H 2253.32 0.80169 5.11657 0
M  V30 24331 H 2249.99 -1.47691 3.90504 0
M  V30 24332 H 2251.38 1.59987 6.52575 0
M  V30 24333 N 2254.1 -1.54444 0.313841 0
M  V30 24334 C 2255.38 -1.92526 -0.345413 0
M  V30 24335 C 2255.76 -1.24245 -1.70665 0
M  V30 24336 O 2255.11 -0.382694 -2.25273 0
M  V30 24337 C 2255.32 -3.46122 -0.447309 0
M  V30 24338 C 2256.67 -4.18585 -0.712164 0
M  V30 24339 O 2257.69 -3.52226 -0.530616 0
M  V30 24340 O 2256.55 -5.36087 -1.06173 0
M  V30 24341 H 2253.64 -0.803586 -0.195393 0
M  V30 24342 H 2256.19 -1.65776 0.362842 0
M  V30 24343 H 2254.96 -3.87974 0.509111 0
M  V30 24344 H 2254.58 -3.78947 -1.20353 0
M  V30 24345 N 2255.58 -0.0418125 -1.57545 0
M  V30 24346 C 2256.83 0.634048 -1.92318 0
M  V30 24347 C 2257.16 1.714 -0.919364 0
M  V30 24348 O 2256.41 1.95576 0.0697909 0
M  V30 24349 C 2256.71 1.27729 -3.33796 0
M  V30 24350 C 2256.38 0.326464 -4.49717 0
M  V30 24351 C 2255.04 0.0647968 -4.81156 0
M  V30 24352 C 2257.39 -0.325714 -5.20181 0
M  V30 24353 C 2254.72 -0.856641 -5.80412 0
M  V30 24354 C 2257.07 -1.23529 -6.20422 0
M  V30 24355 C 2255.73 -1.50572 -6.50296 0
M  V30 24356 H 2255 0.232015 -0.70374 0
M  V30 24357 H 2257.65 -0.106293 -1.91205 0
M  V30 24358 H 2255.96 2.09268 -3.31231 0
M  V30 24359 H 2257.65 1.80701 -3.57978 0
M  V30 24360 H 2254.24 0.54059 -4.25177 0
M  V30 24361 H 2258.43 -0.136634 -4.96112 0
M  V30 24362 H 2253.68 -1.07373 -6.01898 0
M  V30 24363 H 2257.86 -1.74676 -6.74138 0
M  V30 24364 H 2255.48 -2.22136 -7.27021 0
M  V30 24365 N 2257.06 1.55891 0.231477 0
M  V30 24366 C 2258.31 1.78442 0.95732 0
M  V30 24367 C 2258.63 0.608852 1.84725 0
M  V30 24368 O 2257.89 -0.407216 1.91416 0
M  V30 24369 C 2258.19 3.06653 1.83571 0
M  V30 24370 C 2257.85 4.3728 1.09985 0
M  V30 24371 C 2256.52 4.72774 0.896546 0
M  V30 24372 C 2258.87 5.17969 0.579467 0
M  V30 24373 C 2256.2 5.8648 0.160793 0
M  V30 24374 C 2258.55 6.32439 -0.142894 0
M  V30 24375 C 2257.21 6.66542 -0.357544 0
M  V30 24376 H 2256.48 0.652966 0.350308 0
M  V30 24377 H 2259.13 1.90159 0.226225 0
M  V30 24378 H 2257.43 2.90015 2.63436 0
M  V30 24379 H 2259.13 3.21302 2.39929 0
M  V30 24380 H 2255.72 4.09405 1.26828 0
M  V30 24381 H 2259.9 4.9099 0.724038 0
M  V30 24382 H 2255.16 6.11398 -0.0158367 0
M  V30 24383 H 2259.33 6.94195 -0.553681 0
M  V30 24384 H 2256.96 7.54495 -0.929599 0
M  V30 24385 N 2258.54 -0.497781 1.49532 0
M  V30 24386 C 2259.79 -1.24834 1.58428 0
M  V30 24387 C 2260.1 -1.93619 0.277677 0
M  V30 24388 O 2261.3 -2.7039 0.245218 0
M  V30 24389 C 2259.76 -2.26681 2.79542 0
M  V30 24390 C 2259.37 -1.63821 4.16973 0
M  V30 24391 C 2261.11 -3.02545 2.97769 0
M  V30 24392 C 2259.02 -2.63797 5.29306 0
M  V30 24393 H 2257.95 -0.469613 0.589898 0
M  V30 24394 H 2260.6 -0.521826 1.75924 0
M  V30 24395 H 2258.98 -3.02509 2.55547 0
M  V30 24396 H 2260.16 -0.939632 4.51118 0
M  V30 24397 H 2258.47 -1.00335 4.04131 0
M  V30 24398 H 2261.07 -3.77316 3.78862 0
M  V30 24399 H 2261.41 -3.60351 2.08454 0
M  V30 24400 H 2261.94 -2.33832 3.21819 0
M  V30 24401 H 2258.68 -2.10768 6.20691 0
M  V30 24402 H 2258.2 -3.31886 4.99612 0
M  V30 24403 H 2259.88 -3.2616 5.58774 0
M  V30 24404 N 2260.01 -1.38661 -0.749062 0
M  V30 24405 C 2261.29 -1.25634 -1.49918 0
M  V30 24406 C 2261.67 0.14028 -2.10633 0
M  V30 24407 O 2261.02 1.15021 -1.97439 0
M  V30 24408 C 2261.23 -2.36997 -2.56191 0
M  V30 24409 C 2262.58 -2.7564 -3.22967 0
M  V30 24410 O 2263.6 -2.36342 -2.66498 0
M  V30 24411 O 2262.46 -3.43423 -4.25116 0
M  V30 24412 H 2259.55 -0.491555 -0.665058 0
M  V30 24413 H 2262.1 -1.505 -0.784086 0
M  V30 24414 H 2260.87 -3.30425 -2.09606 0
M  V30 24415 H 2260.5 -2.1372 -3.35275 0
M  V30 24416 N 2261.49 0.977736 -1.23605 0
M  V30 24417 C 2262.72 1.75201 -1.0949 0
M  V30 24418 C 2263.13 1.85815 0.356289 0
M  V30 24419 O 2262.47 1.33853 1.25813 0
M  V30 24420 C 2262.54 3.19445 -1.6491 0
M  V30 24421 C 2262.2 3.32333 -3.13694 0
M  V30 24422 C 2263.2 3.18448 -4.10959 0
M  V30 24423 C 2260.88 3.56896 -3.53456 0
M  V30 24424 C 2262.88 3.28934 -5.45968 0
M  V30 24425 C 2260.56 3.67022 -4.88609 0
M  V30 24426 C 2261.56 3.53052 -5.84674 0
M  V30 24427 O 2261.25 3.62814 -7.17371 0
M  V30 24428 H 2260.98 0.556566 -0.38368 0
M  V30 24429 H 2263.54 1.2369 -1.63982 0
M  V30 24430 H 2261.77 3.72216 -1.04842 0
M  V30 24431 H 2263.45 3.78643 -1.46233 0
M  V30 24432 H 2264.22 2.99366 -3.81583 0
M  V30 24433 H 2260.1 3.6684 -2.79195 0
M  V30 24434 H 2263.64 3.17947 -6.20931 0
M  V30 24435 H 2259.54 3.85614 -5.1766 0
M  V30 24436 H 2260.31 3.79592 -7.25157 0
M  V30 24437 N 2262.97 1.04818 1.1769 0
M  V30 24438 C 2264.39 0.768819 1.39862 0
M  V30 24439 C 2264.59 -0.638418 1.91119 0
M  V30 24440 O 2263.64 -1.40143 2.10039 0
M  V30 24441 C 2264.96 1.82126 2.39271 0
M  V30 24442 C 2266.5 1.84304 2.52984 0
M  V30 24443 C 2266.98 2.88561 3.55664 0
M  V30 24444 N 2268.47 2.875 3.63178 0
M  V30 24445 C 2269.21 3.64819 4.42374 0
M  V30 24446 N 2268.7 4.51912 5.25117 0
M  V30 24447 N 2270.49 3.53275 4.37211 0
M  V30 24448 H 2262.65 1.95618 0.827485 0
M  V30 24449 H 2264.91 0.846839 0.426108 0
M  V30 24450 H 2264.61 2.83105 2.08673 0
M  V30 24451 H 2264.49 1.65972 3.38723 0
M  V30 24452 H 2266.88 0.839919 2.82895 0
M  V30 24453 H 2266.96 2.04535 1.5362 0
M  V30 24454 H 2266.6 3.89057 3.26492 0
M  V30 24455 H 2266.53 2.65583 4.54723 0
M  V30 24456 H 2269.02 2.24348 3.04099 0
M  V30 24457 H 2269.33 5.07601 5.82719 0
M  V30 24458 H 2267.68 4.55975 5.24511 0
M  V30 24459 H 2270.87 2.84632 3.71621 0
M  V30 24460 H 2271.04 4.1378 4.98688 0
M  V30 24461 N 2264.45 -1.34055 0.828678 0
M  V30 24462 C 2265.73 -1.9259 0.341842 0
M  V30 24463 C 2266.11 -1.75607 -1.17155 0
M  V30 24464 O 2265.45 -1.13827 -1.9813 0
M  V30 24465 C 2265.66 -3.40229 0.777512 0
M  V30 24466 C 2267.01 -4.17381 0.779652 0
M  V30 24467 O 2268.04 -3.48838 0.720461 0
M  V30 24468 O 2266.9 -5.39721 0.858091 0
M  V30 24469 H 2263.99 -0.821569 0.0946229 0
M  V30 24470 H 2266.54 -1.42992 0.913852 0
M  V30 24471 H 2265.31 -3.46416 1.81966 0
M  V30 24472 H 2264.93 -3.97185 0.181514 0
M  V30 24473 N 2265.93 -0.584167 -1.46374 0
M  V30 24474 C 2267.16 -0.0758558 -2.06461 0
M  V30 24475 C 2267.57 1.2351 -1.43325 0
M  V30 24476 O 2266.91 1.7579 -0.533247 0
M  V30 24477 C 2266.97 0.16271 -3.59132 0
M  V30 24478 C 2266.63 -1.06287 -4.44468 0
M  V30 24479 C 2267.63 -1.97527 -4.80915 0
M  V30 24480 C 2265.32 -1.28512 -4.85582 0
M  V30 24481 C 2267.31 -3.0934 -5.57304 0
M  V30 24482 C 2265 -2.4063 -5.6173 0
M  V30 24483 C 2266 -3.30873 -5.97505 0
M  V30 24484 O 2265.68 -4.41044 -6.72113 0
M  V30 24485 H 2265.42 -0.0551843 -0.673744 0
M  V30 24486 H 2267.97 -0.805017 -1.88967 0
M  V30 24487 H 2266.2 0.946499 -3.74938 0
M  V30 24488 H 2267.89 0.619712 -4.01141 0
M  V30 24489 H 2268.65 -1.81573 -4.49729 0
M  V30 24490 H 2264.53 -0.591783 -4.57186 0
M  V30 24491 H 2268.08 -3.79803 -5.85146 0
M  V30 24492 H 2263.97 -2.56547 -5.92329 0
M  V30 24493 H 2264.74 -4.39429 -6.90539 0
M  V30 24494 N 2267.41 1.54275 -0.322027 0
M  V30 24495 C 2268.65 1.9972 0.281896 0
M  V30 24496 C 2268.97 1.214 1.53367 0
M  V30 24497 O 2270.17 1.57215 2.2135 0
M  V30 24498 C 2268.63 3.55629 0.552837 0
M  V30 24499 C 2268.24 4.42782 -0.681799 0
M  V30 24500 C 2269.98 4.09546 1.1168 0
M  V30 24501 C 2267.89 5.9016 -0.382846 0
M  V30 24502 H 2266.82 0.746064 0.109111 0
M  V30 24503 H 2269.47 1.78294 -0.434011 0
M  V30 24504 H 2267.85 3.73037 1.32889 0
M  V30 24505 H 2269.03 4.37149 -1.45731 0
M  V30 24506 H 2267.34 3.99746 -1.16587 0
M  V30 24507 H 2269.94 5.17245 1.35506 0
M  V30 24508 H 2270.28 3.61435 2.06569 0
M  V30 24509 H 2270.81 3.95764 0.401963 0
M  V30 24510 H 2267.55 6.42462 -1.30087 0
M  V30 24511 H 2267.07 5.98749 0.354989 0
M  V30 24512 H 2268.75 6.47 0.00788784 0
M  V30 24513 N 2268.88 0.0501669 1.5752 0
M  V30 24514 C 2270.3 -0.306374 1.56632 0
M  V30 24515 C 2270.5 -1.71506 1.05774 0
M  V30 24516 O 2269.56 -2.42198 0.71388 0
M  V30 24517 C 2270.87 -0.135758 3.00393 0
M  V30 24518 C 2272.42 -0.206939 3.12315 0
M  V30 24519 C 2272.89 -0.0648635 4.57954 0
M  V30 24520 N 2274.38 -0.121172 4.63041 0
M  V30 24521 C 2275.12 -0.0353374 5.73389 0
M  V30 24522 N 2274.61 0.102788 6.92724 0
M  V30 24523 N 2276.41 -0.0908472 5.62027 0
M  V30 24524 H 2268.56 0.971079 1.88902 0
M  V30 24525 H 2270.82 0.37687 0.869869 0
M  V30 24526 H 2270.53 0.835444 3.41633 0
M  V30 24527 H 2270.4 -0.897211 3.66374 0
M  V30 24528 H 2272.79 -1.16861 2.70975 0
M  V30 24529 H 2272.87 0.585251 2.49015 0
M  V30 24530 H 2272.51 0.893482 4.99979 0
M  V30 24531 H 2272.44 -0.876185 5.1926 0
M  V30 24532 H 2274.93 -0.227218 3.77216 0
M  V30 24533 H 2275.25 0.161018 7.72632 0
M  V30 24534 H 2273.59 0.137859 6.94863 0
M  V30 24535 H 2276.78 -0.197306 4.67684 0
M  V30 24536 H 2276.96 -0.020495 6.47997 0
M  V30 24537 N 2270.36 -1.56011 -0.223207 0
M  V30 24538 C 2271.61 -1.80122 -0.944859 0
M  V30 24539 C 2271.96 -0.622894 -1.82038 0
M  V30 24540 O 2271.26 0.38311 -1.87731 0
M  V30 24541 C 2271.45 -3.07623 -1.81942 0
M  V30 24542 C 2271.28 -4.37744 -1.03006 0
M  V30 24543 C 2270.05 -5.00062 -0.725652 0
M  V30 24544 C 2272.25 -5.12772 -0.396166 0
M  V30 24545 N 2270.23 -6.13841 0.0852895 0
M  V30 24546 C 2271.6 -6.19375 0.278246 0
M  V30 24547 C 2273.65 -4.9694 -0.309029 0
M  V30 24548 C 2272.36 -7.11866 1.03146 0
M  V30 24549 C 2274.38 -5.8983 0.430711 0
M  V30 24550 C 2273.75 -6.95858 1.09367 0
M  V30 24551 H 2269.84 -0.710776 -0.326069 0
M  V30 24552 H 2272.43 -1.93499 -0.21588 0
M  V30 24553 H 2270.6 -2.95531 -2.52023 0
M  V30 24554 H 2272.33 -3.19931 -2.47843 0
M  V30 24555 H 2269.09 -4.61966 -1.04327 0
M  V30 24556 H 2269.51 -6.75299 0.479547 0
M  V30 24557 H 2274.15 -4.15022 -0.80724 0
M  V30 24558 H 2271.87 -7.93267 1.54119 0
M  V30 24559 H 2275.46 -5.79655 0.499114 0
M  V30 24560 H 2274.34 -7.66496 1.65693 0
M  V30 24561 N 2271.84 0.489844 -1.49794 0
M  V30 24562 C 2272.77 1.59853 -1.70203 0
M  V30 24563 C 2273.75 1.60936 -0.550789 0
M  V30 24564 O 2274.94 1.775 -0.787872 0
M  V30 24565 C 2272.07 2.98284 -1.77888 0
M  V30 24566 C 2271.02 3.12068 -2.92912 0
M  V30 24567 C 2270.35 4.5196 -2.8572 0
M  V30 24568 C 2271.65 2.91043 -4.33695 0
M  V30 24569 H 2273.34 1.43027 -2.63028 0
M  V30 24570 H 2270.89 0.686642 -1.26575 0
M  V30 24571 H 2272.84 3.75755 -1.90751 0
M  V30 24572 H 2271.56 3.16224 -0.816708 0
M  V30 24573 H 2270.22 2.37024 -2.79669 0
M  V30 24574 H 2269.87 4.66792 -1.87388 0
M  V30 24575 H 2269.57 4.62122 -3.62929 0
M  V30 24576 H 2271.09 5.31477 -3.00607 0
M  V30 24577 H 2272.51 3.58276 -4.47561 0
M  V30 24578 H 2270.9 3.12666 -5.12211 0
M  V30 24579 H 2271.97 1.87063 -4.47365 0
M  V30 24580 N 2273.32 1.39056 0.741698 0
M  V30 24581 C 2274.54 1.39357 1.53605 0
M  V30 24582 C 2274.97 -0.0116574 1.88096 0
M  V30 24583 O 2274.33 -0.996898 1.51432 0
M  V30 24584 C 2274.37 2.26687 2.80438 0
M  V30 24585 O 2273.48 1.69215 3.76085 0
M  V30 24586 H 2272.82 0.474843 0.464134 0
M  V30 24587 H 2275.35 1.82968 0.915633 0
M  V30 24588 H 2275.36 2.40965 3.29241 0
M  V30 24589 H 2274.03 3.28814 2.54665 0
M  V30 24590 H 2272.61 1.64144 3.3483 0
M  V30 24591 N 2274.8 -0.971167 1.24121 0
M  V30 24592 C 2276.21 -1.23914 1.00586 0
M  V30 24593 C 2276.41 -1.99439 -0.287446 0
M  V30 24594 O 2275.47 -2.31659 -1.0045 0
M  V30 24595 C 2276.78 -2.02966 2.21867 0
M  V30 24596 C 2278.33 -2.16072 2.26455 0
M  V30 24597 C 2278.8 -2.98518 3.47348 0
M  V30 24598 N 2280.29 -3.06101 3.47644 0
M  V30 24599 C 2281.03 -3.70243 4.37844 0
M  V30 24600 N 2280.53 -4.36133 5.38294 0
M  V30 24601 N 2282.32 -3.67221 4.25565 0
M  V30 24602 H 2274.47 -0.465463 2.07237 0
M  V30 24603 H 2276.73 -0.268299 0.909241 0
M  V30 24604 H 2276.44 -1.54855 3.15773 0
M  V30 24605 H 2276.31 -3.03705 2.23704 0
M  V30 24606 H 2278.7 -2.63387 1.33083 0
M  V30 24607 H 2278.78 -1.14692 2.28647 0
M  V30 24608 H 2278.42 -2.51897 4.41033 0
M  V30 24609 H 2278.35 -4.00087 3.424 0
M  V30 24610 H 2280.85 -2.59228 2.74971 0
M  V30 24611 H 2281.16 -4.82883 6.03361 0
M  V30 24612 H 2279.5 -4.34812 5.42184 0
M  V30 24613 H 2282.69 -3.14921 3.46327 0
M  V30 24614 H 2282.87 -4.16926 4.96061 0
M  V30 24615 N 2276.27 -1.05441 -1.17133 0
M  V30 24616 C 2277.52 -0.764462 -1.87084 0
M  V30 24617 C 2277.84 0.710755 -1.81585 0
M  V30 24618 O 2277.11 1.51372 -1.24352 0
M  V30 24619 H 2275.69 -0.279791 -0.692622 0
M  V30 24620 H 2278.36 -1.33409 -1.42085 0
M  V30 24621 H 2277.45 -1.08165 -2.92757 0
M  V30 24622 N 2277.75 1.33613 -0.835776 0
M  V30 24623 C 2278.7 2.31195 -0.255278 0
M  V30 24624 C 2279.69 1.57996 0.611042 0
M  V30 24625 O 2280.9 1.72889 0.500948 0
M  V30 24626 H 2277.28 0.749287 -0.0638217 0
M  V30 24627 H 2279.25 2.77667 -1.09288 0
M  V30 24628 C 2278 3.43202 0.55748 0
M  V30 24629 H 2277.32 3.99675 -0.0998256 0
M  V30 24630 H 2278.76 4.13685 0.929549 0
M  V30 24631 C 2277.22 2.88784 1.7351 0
M  V30 24632 O 2277.75 2.84717 2.83371 0
M  V30 24633 N 2275.95 2.45433 1.55599 0
M  V30 24634 H 2275.5 2.4894 0.662311 0
M  V30 24635 H 2275.46 2.09375 2.34541 0
M  V30 24636 N 2279.23 0.591922 1.46062 0
M  V30 24637 C 2280.46 0.0850678 2.07225 0
M  V30 24638 C 2280.88 -1.21461 1.43628 0
M  V30 24639 O 2280.24 -1.73583 0.523336 0
M  V30 24640 C 2280.29 -0.0575933 3.60554 0
M  V30 24641 O 2279.39 -1.11181 3.9713 0
M  V30 24642 H 2278.73 0.0669684 0.660614 0
M  V30 24643 H 2281.26 0.817483 1.87559 0
M  V30 24644 H 2281.27 -0.260829 4.07165 0
M  V30 24645 H 2279.95 0.891488 4.06233 0
M  V30 24646 H 2278.52 -0.886292 3.62214 0
M  V30 24647 N 2280.71 -1.54102 0.330204 0
M  V30 24648 C 2282.12 -1.59585 -0.022209 0
M  V30 24649 C 2282.32 -1.34656 -1.499 0
M  V30 24650 O 2281.38 -1.13425 -2.2559 0
M  V30 24651 C 2282.69 -2.98001 0.401984 0
M  V30 24652 C 2284.24 -3.11001 0.353199 0
M  V30 24653 C 2284.72 -4.51773 0.752656 0
M  V30 24654 N 2286.21 -4.57783 0.706319 0
M  V30 24655 C 2286.94 -5.64832 0.987516 0
M  V30 24656 N 2286.44 -6.79792 1.33619 0
M  V30 24657 N 2288.23 -5.54642 0.912638 0
M  V30 24658 H 2280.38 -1.68562 1.29231 0
M  V30 24659 H 2282.65 -0.788741 0.52592 0
M  V30 24660 H 2282.35 -3.21265 1.43115 0
M  V30 24661 H 2282.23 -3.765 -0.229633 0
M  V30 24662 H 2284.61 -2.87469 -0.666772 0
M  V30 24663 H 2284.69 -2.34591 1.01984 0
M  V30 24664 H 2284.34 -4.76039 1.77057 0
M  V30 24665 H 2284.27 -5.26562 0.0636335 0
M  V30 24666 H 2286.76 -3.75224 0.448956 0
M  V30 24667 H 2287.07 -7.57383 1.53595 0
M  V30 24668 H 2285.42 -6.81272 1.37451 0
M  V30 24669 H 2288.61 -4.63709 0.639683 0
M  V30 24670 H 2288.78 -6.3798 1.13514 0
M  V30 24671 N 2282.19 -0.0585199 -1.57491 0
M  V30 24672 C 2283.41 0.626486 -1.97712 0
M  V30 24673 C 2283.84 1.63149 -0.93616 0
M  V30 24674 O 2283.19 1.81025 0.0997792 0
M  V30 24675 C 2283.24 1.28332 -3.36992 0
M  V30 24676 O 2282.35 2.39907 -3.35437 0
M  V30 24677 H 2281.69 0.162255 -0.643871 0
M  V30 24678 H 2284.22 -0.1291 -2.04192 0
M  V30 24679 H 2284.23 1.63328 -3.73882 0
M  V30 24680 H 2282.9 0.546816 -4.1229 0
M  V30 24681 H 2281.48 2.06803 -3.10301 0
M  V30 24682 N 2283.66 1.56128 0.21493 0
M  V30 24683 C 2284.61 1.89353 1.27002 0
M  V30 24684 C 2285.6 0.757227 1.41968 0
M  V30 24685 O 2286.79 1.01976 1.44672 0
M  V30 24686 C 2283.92 2.21945 2.61907 0
M  V30 24687 C 2283.01 3.41983 2.50816 0
M  V30 24688 N 2283.4 4.60427 2.09382 0
M  V30 24689 C 2281.69 3.45728 2.81759 0
M  V30 24690 C 2282.4 5.42586 2.09702 0
M  V30 24691 N 2281.37 4.82471 2.50446 0
M  V30 24692 H 2285.17 2.78439 0.940685 0
M  V30 24693 H 2282.69 1.56782 0.423465 0
M  V30 24694 H 2284.68 2.43925 3.38092 0
M  V30 24695 H 2283.34 1.34174 2.95681 0
M  V30 24696 H 2284.36 4.85462 1.80407 0
M  V30 24697 H 2281.03 2.68319 3.19861 0
M  V30 24698 H 2282.42 6.47414 1.79737 0
M  V30 24699 N 2285.14 -0.481893 1.50052 0
M  V30 24700 C 2286.11 -1.56357 1.67586 0
M  V30 24701 C 2287.11 -1.51213 0.54692 0
M  V30 24702 O 2288.3 -1.54025 0.813752 0
M  V30 24703 C 2285.43 -2.96 1.69105 0
M  V30 24704 H 2286.62 -1.42131 2.64081 0
M  V30 24705 H 2284.17 -0.707509 1.3937 0
M  V30 24706 H 2284.91 -3.15682 0.742644 0
M  V30 24707 H 2284.69 -3.01141 2.5111 0
M  V30 24708 H 2286.18 -3.74552 1.84662 0
M  V30 24709 N 2286.62 -1.39448 -0.734313 0
M  V30 24710 C 2287.85 -1.4017 -1.52864 0
M  V30 24711 C 2288.27 0.00168206 -1.881 0
M  V30 24712 O 2287.63 0.988853 -1.51959 0
M  V30 24713 C 2287.68 -2.28171 -2.79231 0
M  V30 24714 O 2286.78 -1.71207 -3.75182 0
M  V30 24715 H 2286.12 -0.477298 -0.461609 0
M  V30 24716 H 2288.65 -1.83451 -0.905916 0
M  V30 24717 H 2288.66 -2.42708 -3.27959 0
M  V30 24718 H 2287.34 -3.3016 -2.52917 0
M  V30 24719 H 2285.91 -1.65918 -3.33955 0
M  V30 24720 N 2288.1 0.964571 -1.24635 0
M  V30 24721 C 2289.32 1.74816 -1.11599 0
M  V30 24722 C 2289.75 1.85232 0.327197 0
M  V30 24723 O 2289.11 1.32552 1.23692 0
M  V30 24724 C 2289.15 3.14507 -1.76402 0
M  V30 24725 O 2288.26 3.99151 -1.03692 0
M  V30 24726 H 2287.6 0.537248 -0.390205 0
M  V30 24727 H 2290.13 1.20974 -1.65004 0
M  V30 24728 H 2290.14 3.65015 -1.82286 0
M  V30 24729 H 2288.81 3.06241 -2.81406 0
M  V30 24730 H 2287.39 3.5763 -1.05617 0
M  V30 24731 N 2289.58 1.0606 1.16572 0
M  V30 24732 C 2290.82 0.786863 1.87563 0
M  V30 24733 C 2291.18 -0.679183 1.80014 0
M  V30 24734 O 2290.47 -1.49102 1.2033 0
M  V30 24735 C 2290.66 1.21281 3.36193 0
M  V30 24736 C 2290.49 2.71872 3.58211 0
M  V30 24737 C 2289.26 3.39304 3.74434 0
M  V30 24738 C 2291.46 3.70088 3.57127 0
M  V30 24739 N 2289.44 4.7867 3.8438 0
M  V30 24740 C 2290.81 4.95226 3.73029 0
M  V30 24741 C 2292.87 3.63432 3.40326 0
M  V30 24742 C 2291.57 6.14504 3.73868 0
M  V30 24743 C 2293.6 4.82159 3.42457 0
M  V30 24744 C 2292.96 6.06125 3.58876 0
M  V30 24745 H 2289.06 0.340297 0.704075 0
M  V30 24746 H 2291.64 1.35428 1.39883 0
M  V30 24747 H 2289.81 0.673246 3.82521 0
M  V30 24748 H 2291.55 0.887987 3.94838 0
M  V30 24749 H 2288.3 2.89705 3.74657 0
M  V30 24750 H 2288.73 5.51162 3.93128 0
M  V30 24751 H 2293.37 2.68547 3.26562 0
M  V30 24752 H 2291.09 7.09725 3.86415 0
M  V30 24753 H 2294.67 4.78671 3.30704 0
M  V30 24754 H 2293.55 6.96456 3.60441 0
M  V30 24755 N 2291.06 -1.33168 0.84285 0
M  V30 24756 C 2292.3 -1.96914 0.436773 0
M  V30 24757 C 2292.62 -1.67493 -1.01022 0
M  V30 24758 O 2293.82 -2.24884 -1.52116 0
M  V30 24759 C 2292.28 -3.52417 0.730082 0
M  V30 24760 C 2291.89 -3.9071 2.19202 0
M  V30 24761 C 2293.63 -4.22694 0.391151 0
M  V30 24762 C 2291.54 -5.39208 2.42917 0
M  V30 24763 H 2290.47 -0.736917 0.159593 0
M  V30 24764 H 2293.12 -1.51731 1.03199 0
M  V30 24765 H 2291.5 -3.95948 0.0644451 0
M  V30 24766 H 2292.68 -3.58226 2.89846 0
M  V30 24767 H 2290.99 -3.33426 2.49431 0
M  V30 24768 H 2293.59 -5.31906 0.54591 0
M  V30 24769 H 2293.93 -4.10935 -0.666222 0
M  V30 24770 H 2294.46 -3.84707 1.01219 0
M  V30 24771 H 2291.2 -5.55976 3.47234 0
M  V30 24772 H 2290.72 -5.73139 1.76837 0
M  V30 24773 H 2292.4 -6.06144 2.2627 0
M  V30 24774 N 2292.53 -0.599659 -1.45746 0
M  V30 24775 C 2293.5 0.113794 -2.28917 0
M  V30 24776 C 2294.5 0.802705 -1.39332 0
M  V30 24777 O 2295.69 0.652074 -1.61535 0
M  V30 24778 C 2292.82 1.17108 -3.20154 0
M  V30 24779 H 2294.01 -0.617341 -2.93477 0
M  V30 24780 H 2291.56 -0.358354 -1.52136 0
M  V30 24781 H 2292.3 1.93324 -2.60377 0
M  V30 24782 H 2292.08 0.6814 -3.86134 0
M  V30 24783 H 2293.57 1.67098 -3.82711 0
M  V30 24784 N 2294.01 1.53925 -0.338371 0
M  V30 24785 C 2295.26 2.00828 0.259723 0
M  V30 24786 C 2295.59 1.2263 1.5097 0
M  V30 24787 O 2294.84 0.300543 1.93378 0
M  V30 24788 C 2295.14 3.51903 0.624418 0
M  V30 24789 C 2294.81 4.47797 -0.528085 0
M  V30 24790 C 2293.47 4.73734 -0.844382 0
M  V30 24791 C 2295.82 5.04688 -1.30152 0
M  V30 24792 C 2293.15 5.53817 -1.93657 0
M  V30 24793 C 2295.5 5.85963 -2.38392 0
M  V30 24794 C 2294.16 6.10196 -2.70587 0
M  V30 24795 H 2293.43 0.73488 0.0950394 0
M  V30 24796 H 2296.08 1.85763 -0.465215 0
M  V30 24797 H 2294.39 3.64772 1.43 0
M  V30 24798 H 2296.08 3.85647 1.09898 0
M  V30 24799 H 2292.67 4.27739 -0.271496 0
M  V30 24800 H 2296.86 4.84619 -1.07042 0
M  V30 24801 H 2292.11 5.7082 -2.19031 0
M  V30 24802 H 2296.29 6.29061 -2.98757 0
M  V30 24803 H 2293.91 6.72038 -3.55344 0
M  V30 24804 N 2295.49 0.0668712 1.57458 0
M  V30 24805 C 2296.73 -0.607082 1.95177 0
M  V30 24806 C 2297.09 -1.67073 0.946068 0
M  V30 24807 O 2298.29 -2.39989 1.21074 0
M  V30 24808 C 2296.57 -1.17352 3.37584 0
M  V30 24809 S 2298.12 -1.86329 3.97274 0
M  V30 24810 H 2294.94 -0.198918 0.682607 0
M  V30 24811 H 2297.54 0.139554 1.95001 0
M  V30 24812 H 2296.25 -0.387481 4.08567 0
M  V30 24813 H 2295.78 -1.95663 3.41291 0
M  V30 24814 H 2297.79 -3.1453 3.83778 0
M  V30 24815 N 2296.97 -1.56239 -0.206647 0
M  V30 24816 C 2298.38 -1.49565 -0.556998 0
M  V30 24817 C 2298.58 -0.764768 -1.86423 0
M  V30 24818 O 2297.64 -0.310535 -2.50583 0
M  V30 24819 C 2298.95 -2.94188 -0.622427 0
M  V30 24820 C 2300.5 -3.04793 -0.712046 0
M  V30 24821 C 2300.98 -4.50804 -0.808688 0
M  V30 24822 N 2302.47 -4.54908 -0.87252 0
M  V30 24823 C 2303.2 -5.65183 -0.967266 0
M  V30 24824 N 2302.7 -6.85175 -1.02503 0
M  V30 24825 N 2304.49 -5.53069 -1.00356 0
M  V30 24826 H 2296.64 -2.02178 0.650978 0
M  V30 24827 H 2298.9 -0.919575 0.230403 0
M  V30 24828 H 2298.61 -3.50671 0.268788 0
M  V30 24829 H 2298.48 -3.46908 -1.48104 0
M  V30 24830 H 2300.87 -2.48365 -1.5937 0
M  V30 24831 H 2300.95 -2.55217 0.172534 0
M  V30 24832 H 2300.6 -5.07854 0.0685647 0
M  V30 24833 H 2300.53 -4.98101 -1.7089 0
M  V30 24834 H 2303.02 -3.68501 -0.837592 0
M  V30 24835 H 2303.33 -7.64967 -1.09752 0
M  V30 24836 H 2301.68 -6.87856 -0.993905 0
M  V30 24837 H 2304.87 -4.58251 -0.955189 0
M  V30 24838 H 2305.04 -6.39039 -1.07394 0
M  V30 24839 N 2298.45 0.473929 -1.50305 0
M  V30 24840 C 2299.38 1.58039 -1.71889 0
M  V30 24841 C 2300.36 1.60343 -0.567827 0
M  V30 24842 O 2301.54 1.76654 -0.806654 0
M  V30 24843 C 2298.67 2.9638 -1.81041 0
M  V30 24844 C 2297.63 3.08943 -2.96206 0
M  V30 24845 C 2296.95 4.48904 -2.90498 0
M  V30 24846 C 2298.25 2.86427 -4.36757 0
M  V30 24847 H 2299.95 1.4023 -2.6453 0
M  V30 24848 H 2297.49 0.673178 -1.27296 0
M  V30 24849 H 2299.44 3.73711 -1.94726 0
M  V30 24850 H 2298.17 3.1534 -0.850202 0
M  V30 24851 H 2296.83 2.34045 -2.82168 0
M  V30 24852 H 2296.48 4.64778 -1.92329 0
M  V30 24853 H 2296.18 4.58246 -3.6781 0
M  V30 24854 H 2297.7 5.28259 -3.06227 0
M  V30 24855 H 2299.11 3.53509 -4.51336 0
M  V30 24856 H 2297.51 3.07216 -5.15498 0
M  V30 24857 H 2298.58 1.82308 -4.49324 0
M  V30 24858 N 2299.92 1.39835 0.726907 0
M  V30 24859 C 2301.15 1.40978 1.52118 0
M  V30 24860 C 2301.57 0.00829336 1.88098 0
M  V30 24861 O 2300.93 -0.98078 1.52481 0
M  V30 24862 C 2300.98 2.29649 2.78017 0
M  V30 24863 O 2300.08 1.73194 3.74269 0
M  V30 24864 H 2299.42 0.479739 0.459071 0
M  V30 24865 H 2301.95 1.83929 0.896175 0
M  V30 24866 H 2301.96 2.44443 3.26667 0
M  V30 24867 H 2300.64 3.31497 2.51163 0
M  V30 24868 H 2299.22 1.67686 3.3307 0
M  V30 24869 N 2301.4 -0.957948 1.25144 0
M  V30 24870 C 2302.82 -1.2284 1.01894 0
M  V30 24871 C 2303.02 -1.99733 -0.266276 0
M  V30 24872 O 2302.07 -2.32712 -0.979872 0
M  V30 24873 C 2303.39 -2.00602 2.24008 0
M  V30 24874 C 2304.93 -2.13658 2.28734 0
M  V30 24875 C 2305.41 -2.94817 3.50495 0
M  V30 24876 N 2306.9 -3.02397 3.50871 0
M  V30 24877 C 2307.64 -3.65579 4.41746 0
M  V30 24878 N 2307.13 -4.30399 5.42889 0
M  V30 24879 N 2308.92 -3.62687 4.29435 0
M  V30 24880 H 2301.08 -0.443456 2.07719 0
M  V30 24881 H 2303.34 -0.258641 0.912036 0
M  V30 24882 H 2303.04 -1.51497 3.17398 0
M  V30 24883 H 2302.92 -3.01315 2.26912 0
M  V30 24884 H 2305.31 -2.61961 1.35869 0
M  V30 24885 H 2305.39 -1.12261 2.2985 0
M  V30 24886 H 2305.03 -2.47205 4.4368 0
M  V30 24887 H 2304.96 -3.96433 3.46624 0
M  V30 24888 H 2307.45 -2.56297 2.77705 0
M  V30 24889 H 2307.76 -4.76456 6.08448 0
M  V30 24890 H 2306.11 -4.29037 5.46765 0
M  V30 24891 H 2309.3 -3.1123 3.49648 0
M  V30 24892 H 2309.47 -4.11641 5.00455 0
M  V30 24893 N 2302.88 -1.06677 -1.16008 0
M  V30 24894 C 2304.11 -0.806701 -1.90525 0
M  V30 24895 C 2304.52 0.639365 -1.77644 0
M  V30 24896 O 2303.88 1.43802 -1.12372 0
M  V30 24897 C 2303.93 -1.19711 -3.41104 0
M  V30 24898 O 2303.65 -2.58643 -3.53604 0
M  V30 24899 C 2305.15 -0.965343 -4.32662 0
M  V30 24900 H 2302.37 -0.292177 -0.604048 0
M  V30 24901 H 2304.92 -1.42142 -1.47023 0
M  V30 24902 H 2303.07 -0.626841 -3.82295 0
M  V30 24903 H 2303.49 -2.74383 -4.47006 0
M  V30 24904 H 2304.96 -1.28809 -5.36761 0
M  V30 24905 H 2305.44 0.0987165 -4.39089 0
M  V30 24906 H 2306.04 -1.52018 -3.97204 0
M  V30 24907 N 2304.36 1.32719 -0.8499 0
M  V30 24908 C 2305.77 1.50218 -0.539128 0
M  V30 24909 C 2305.97 1.7869 0.931239 0
M  V30 24910 O 2305.03 1.85366 1.71452 0
M  V30 24911 C 2306.34 2.64952 -1.42201 0
M  V30 24912 C 2307.89 2.78837 -1.42194 0
M  V30 24913 C 2308.37 3.96644 -2.28992 0
M  V30 24914 N 2309.86 4.03898 -2.26761 0
M  V30 24915 C 2310.59 4.94276 -2.90653 0
M  V30 24916 N 2310.09 5.89693 -3.63639 0
M  V30 24917 N 2311.88 4.8736 -2.80066 0
M  V30 24918 H 2304.03 1.12503 -1.80158 0
M  V30 24919 H 2306.29 0.554071 -0.769226 0
M  V30 24920 H 2306 2.50627 -2.46737 0
M  V30 24921 H 2305.87 3.60622 -1.10597 0
M  V30 24922 H 2308.26 2.92588 -0.384242 0
M  V30 24923 H 2308.34 1.83895 -1.7781 0
M  V30 24924 H 2307.99 3.83652 -3.32826 0
M  V30 24925 H 2307.92 4.90853 -1.9071 0
M  V30 24926 H 2310.41 3.35617 -1.73694 0
M  V30 24927 H 2310.72 6.55342 -4.09569 0
M  V30 24928 H 2309.07 5.89735 -3.67747 0
M  V30 24929 H 2312.26 4.11785 -2.226 0
M  V30 24930 H 2312.43 5.57593 -3.30142 0
M  V30 24931 N 2305.84 0.60738 1.45426 0
M  V30 24932 C 2306.77 -0.0988942 2.3329 0
M  V30 24933 C 2307.75 -0.858981 1.46818 0
M  V30 24934 O 2308.93 -0.829573 1.7559 0
M  V30 24935 C 2306.06 -1.09699 3.2952 0
M  V30 24936 C 2305.02 -0.450131 4.25626 0
M  V30 24937 C 2304.34 -1.55646 5.11545 0
M  V30 24938 C 2305.64 0.628546 5.18504 0
M  V30 24939 H 2307.34 0.634767 2.92594 0
M  V30 24940 H 2304.88 0.306706 1.40696 0
M  V30 24941 H 2306.84 -1.59964 3.89858 0
M  V30 24942 H 2305.56 -1.86124 2.68375 0
M  V30 24943 H 2304.22 0.0316531 3.66586 0
M  V30 24944 H 2303.87 -2.31099 4.46769 0
M  V30 24945 H 2303.57 -1.12915 5.76649 0
M  V30 24946 H 2305.09 -2.06138 5.74752 0
M  V30 24947 H 2306.5 0.209978 5.72915 0
M  V30 24948 H 2304.9 0.977593 5.92084 0
M  V30 24949 H 2305.97 1.50522 4.60946 0
M  V30 24950 N 2307.31 -1.53743 0.34653 0
M  V30 24951 C 2308.54 -2.0538 -0.250374 0
M  V30 24952 C 2308.96 -1.22131 -1.43977 0
M  V30 24953 O 2308.31 -0.257353 -1.80676 0
M  V30 24954 C 2308.37 -3.55377 -0.662512 0
M  V30 24955 O 2308.09 -4.35467 0.479592 0
M  V30 24956 C 2309.59 -4.23197 -1.31982 0
M  V30 24957 H 2306.81 -0.669295 -0.047808 0
M  V30 24958 H 2309.35 -1.98309 0.499381 0
M  V30 24959 H 2307.51 -3.62661 -1.36221 0
M  V30 24960 H 2307.92 -5.24284 0.150462 0
M  V30 24961 H 2309.39 -5.2953 -1.55892 0
M  V30 24962 H 2309.87 -3.75729 -2.2743 0
M  V30 24963 H 2310.48 -4.20115 -0.66208 0
M  V30 24964 N 2308.79 -0.0752207 -1.5742 0
M  V30 24965 C 2310.04 0.59194 -1.93237 0
M  V30 24966 C 2310.36 1.69943 -0.956271 0
M  V30 24967 O 2309.63 1.95899 -0.00498235 0
M  V30 24968 H 2308.21 0.221648 -0.713359 0
M  V30 24969 H 2310.87 -0.133882 -1.9444 0
M  V30 24970 H 2309.97 1.01504 -2.95133 0
M  V30 24971 N 2310.27 1.56347 0.198358 0
M  V30 24972 C 2311.5 1.84273 0.934183 0
M  V30 24973 C 2311.91 0.655156 1.77495 0
M  V30 24974 O 2311.25 -0.385456 1.7961 0
M  V30 24975 C 2311.31 3.06257 1.88273 0
M  V30 24976 C 2310.98 4.40297 1.22423 0
M  V30 24977 C 2311.97 5.16394 0.602748 0
M  V30 24978 C 2309.66 4.87031 1.22906 0
M  V30 24979 C 2311.65 6.374 -0.00512033 0
M  V30 24980 C 2309.34 6.07974 0.617358 0
M  V30 24981 C 2310.34 6.83 0.00134335 0
M  V30 24982 O 2310.03 8.01652 -0.600783 0
M  V30 24983 H 2309.76 0.616086 0.278234 0
M  V30 24984 H 2312.31 2.04307 0.21159 0
M  V30 24985 H 2310.54 2.821 2.64493 0
M  V30 24986 H 2312.23 3.20858 2.48606 0
M  V30 24987 H 2313 4.81383 0.59118 0
M  V30 24988 H 2308.88 4.28592 1.69794 0
M  V30 24989 H 2312.42 6.95901 -0.486553 0
M  V30 24990 H 2308.32 6.42453 0.626417 0
M  V30 24991 H 2309.09 8.16987 -0.497369 0
M  V30 24992 N 2311.75 -0.465951 1.50554 0
M  V30 24993 C 2312.7 -1.5633 1.69793 0
M  V30 24994 C 2313.67 -1.57102 0.539266 0
M  V30 24995 O 2314.85 -1.74554 0.770432 0
M  V30 24996 C 2311.99 -2.94268 1.80278 0
M  V30 24997 C 2311.1 -3.03245 3.07679 0
M  V30 24998 C 2310.24 -4.3213 3.08929 0
M  V30 24999 C 2309.28 -4.34868 4.30763 0
M  V30 25000 N 2308.41 -5.55232 4.29723 0
M  V30 25001 H 2313.25 -1.39231 2.63475 0
M  V30 25002 H 2310.79 -0.67685 1.30603 0
M  V30 25003 H 2312.75 -3.74266 1.84338 0
M  V30 25004 H 2311.38 -3.09991 0.900312 0
M  V30 25005 H 2310.43 -2.16088 3.13066 0
M  V30 25006 H 2311.74 -3.01128 3.97647 0
M  V30 25007 H 2310.9 -5.20479 3.11747 0
M  V30 25008 H 2309.64 -4.36863 2.168 0
M  V30 25009 H 2308.64 -3.44915 4.28152 0
M  V30 25010 H 2309.87 -4.31822 5.24125 0
M  V30 25011 H 2307.81 -5.6074 3.4045 0
M  V30 25012 H 2307.73 -5.54877 5.13466 0
M  V30 25013 H 2309 -6.45692 4.36694 0
M  V30 25014 N 2313.23 -1.40218 -0.719481 0
M  V30 25015 C 2314.64 -1.22163 -1.02705 0
M  V30 25016 C 2314.84 -0.094091 -2.0128 0
M  V30 25017 O 2313.9 0.549274 -2.46453 0
M  V30 25018 C 2315.21 -2.56184 -1.5745 0
M  V30 25019 C 2316.76 -2.63162 -1.69454 0
M  V30 25020 C 2317.23 -3.97442 -2.27605 0
M  V30 25021 N 2318.73 -3.99163 -2.34995 0
M  V30 25022 C 2319.46 -4.99847 -2.80963 0
M  V30 25023 N 2318.96 -6.10926 -3.26712 0
M  V30 25024 N 2320.75 -4.87218 -2.80312 0
M  V30 25025 H 2312.9 -2.12297 -0.0660118 0
M  V30 25026 H 2315.16 -0.943536 -0.0918912 0
M  V30 25027 H 2314.87 -3.39323 -0.924814 0
M  V30 25028 H 2314.74 -2.76998 -2.56031 0
M  V30 25029 H 2317.13 -1.80397 -2.3354 0
M  V30 25030 H 2317.21 -2.46183 -0.694824 0
M  V30 25031 H 2316.86 -4.80645 -1.64141 0
M  V30 25032 H 2316.79 -4.1175 -3.28283 0
M  V30 25033 H 2319.28 -3.18951 -2.0268 0
M  V30 25034 H 2319.59 -6.83647 -3.60343 0
M  V30 25035 H 2317.93 -6.14497 -3.24681 0
M  V30 25036 H 2321.13 -3.99535 -2.43905 0
M  V30 25037 H 2321.3 -5.65828 -3.15821 0
M  V30 25038 N 2314.7 0.951297 -1.25651 0
M  V30 25039 C 2315.65 2.0485 -1.06326 0
M  V30 25040 C 2316.62 1.66075 0.0286199 0
M  V30 25041 O 2317.81 1.90362 -0.129204 0
M  V30 25042 C 2314.95 3.38099 -0.691589 0
M  V30 25043 C 2314.06 3.89971 -1.85868 0
M  V30 25044 C 2313.19 5.11561 -1.43105 0
M  V30 25045 C 2312.23 5.55669 -2.56706 0
M  V30 25046 N 2311.37 6.68469 -2.14696 0
M  V30 25047 H 2316.21 2.20712 -2.00226 0
M  V30 25048 H 2313.75 1.08155 -0.997046 0
M  V30 25049 H 2315.71 4.14689 -0.457036 0
M  V30 25050 H 2314.34 3.22113 0.210418 0
M  V30 25051 H 2313.39 3.09871 -2.20644 0
M  V30 25052 H 2314.7 4.18652 -2.71168 0
M  V30 25053 H 2313.85 5.95578 -1.15634 0
M  V30 25054 H 2312.59 4.84602 -0.548808 0
M  V30 25055 H 2311.6 4.70215 -2.84917 0
M  V30 25056 H 2312.82 5.84634 -3.45513 0
M  V30 25057 H 2310.77 6.43213 -1.28892 0
M  V30 25058 H 2310.69 6.96684 -2.93543 0
M  V30 25059 H 2311.95 7.55886 -1.9041 0
M  V30 25060 N 2316.18 1.07291 1.1544 0
M  V30 25061 C 2317.11 0.714146 2.22311 0
M  V30 25062 C 2318.09 -0.298126 1.67467 0
M  V30 25063 O 2319.28 -0.171014 1.93446 0
M  V30 25064 C 2316.41 0.110509 3.47124 0
M  V30 25065 C 2315.36 1.04987 4.14924 0
M  V30 25066 C 2314.69 0.309018 5.33806 0
M  V30 25067 C 2315.99 2.38322 4.64758 0
M  V30 25068 H 2317.68 1.60765 2.52577 0
M  V30 25069 H 2315.23 0.774431 1.21402 0
M  V30 25070 H 2317.18 -0.152408 4.21124 0
M  V30 25071 H 2315.91 -0.818065 3.16189 0
M  V30 25072 H 2314.56 1.2977 3.42864 0
M  V30 25073 H 2314.21 -0.622997 4.99127 0
M  V30 25074 H 2313.91 0.935138 5.80111 0
M  V30 25075 H 2315.44 0.0538844 6.10576 0
M  V30 25076 H 2316.85 2.17869 5.30289 0
M  V30 25077 H 2315.25 2.96523 5.21722 0
M  V30 25078 H 2316.32 3.00669 3.80429 0
M  V30 25079 N 2317.66 -1.32267 0.856927 0
M  V30 25080 C 2318.59 -2.31316 0.318621 0
M  V30 25081 C 2319.57 -1.5978 -0.583459 0
M  V30 25082 O 2320.76 -1.87567 -0.503226 0
M  V30 25083 C 2317.89 -3.43799 -0.491918 0
M  V30 25084 C 2316.84 -4.26832 0.315924 0
M  V30 25085 C 2316.17 -5.31099 -0.619492 0
M  V30 25086 C 2317.47 -4.98991 1.54291 0
M  V30 25087 H 2319.16 -2.76589 1.14626 0
M  V30 25088 H 2316.71 -1.32973 0.552637 0
M  V30 25089 H 2318.66 -4.12132 -0.878939 0
M  V30 25090 H 2317.38 -2.97259 -1.35294 0
M  V30 25091 H 2316.04 -3.60149 0.684728 0
M  V30 25092 H 2315.69 -4.80813 -1.47742 0
M  V30 25093 H 2315.39 -5.87541 -0.0829589 0
M  V30 25094 H 2316.91 -6.02295 -1.00364 0
M  V30 25095 H 2318.33 -5.59993 1.22806 0
M  V30 25096 H 2316.73 -5.65168 2.01755 0
M  V30 25097 H 2317.8 -4.26724 2.30292 0
M  V30 25098 N 2319.14 -0.615084 -1.45102 0
M  V30 25099 C 2320.39 -0.112991 -2.01784 0
M  V30 25100 C 2320.71 1.26376 -1.48506 0
M  V30 25101 O 2319.98 1.83635 -0.682277 0
M  V30 25102 H 2318.56 -0.0387799 -0.745993 0
M  V30 25103 H 2321.22 -0.798172 -1.77807 0
M  V30 25104 H 2320.32 -0.0684618 -3.12025 0
M  V30 25105 N 2320.62 1.53557 -0.354678 0
M  V30 25106 C 2321.86 2.0139 0.238761 0
M  V30 25107 C 2322.2 1.24182 1.49306 0
M  V30 25108 O 2321.47 0.332491 1.91637 0
M  V30 25109 C 2321.75 3.56002 0.541709 0
M  V30 25110 C 2321.61 4.43911 -0.725466 0
M  V30 25111 C 2322.93 4.18987 1.34678 0
M  V30 25112 H 2320.05 0.732047 0.0853048 0
M  V30 25113 H 2322.69 1.83904 -0.477416 0
M  V30 25114 H 2320.84 3.71033 1.15183 0
M  V30 25115 H 2322.51 4.40698 -1.36321 0
M  V30 25116 H 2320.75 4.12322 -1.34808 0
M  V30 25117 H 2321.42 5.50007 -0.468602 0
M  V30 25118 H 2323.9 4.07722 0.830765 0
M  V30 25119 H 2322.78 5.27218 1.5275 0
M  V30 25120 H 2323.04 3.74335 2.35214 0
M  V30 25121 N 2322.1 0.083568 1.57378 0
M  V30 25122 C 2323.51 -0.447326 1.81262 0
M  V30 25123 C 2323.86 -1.689 0.998361 0
M  V30 25124 O 2322.98 -2.15234 0.22432 0
M  V30 25125 C 2323.58 -0.818328 3.28769 0
M  V30 25126 C 2322.14 -1.29402 3.53457 0
M  V30 25127 C 2321.28 -0.284976 2.75832 0
M  V30 25128 H 2324.23 0.309142 1.5566 0
M  V30 25129 H 2324.26 -1.67881 3.41462 0
M  V30 25130 H 2323.77 0.0855701 3.88006 0
M  V30 25131 H 2321.87 -2.21602 2.99538 0
M  V30 25132 H 2321.98 -1.26382 4.6213 0
M  V30 25133 H 2320.35 -0.764725 2.42949 0
M  V30 25134 H 2321.13 0.6114 3.37812 0
M  V30 25135 N 2323.57 -1.5645 -0.190064 0
M  V30 25136 C 2324.8 -1.85389 -0.929831 0
M  V30 25137 C 2325.22 -0.667735 -1.75849 0
M  V30 25138 O 2324.58 0.383428 -1.77199 0
M  V30 25139 C 2324.63 -3.12596 -1.79767 0
M  V30 25140 O 2323.73 -2.93502 -2.89708 0
M  V30 25141 H 2323.07 -0.610312 -0.261563 0
M  V30 25142 H 2325.6 -2.0368 -0.193861 0
M  V30 25143 H 2325.61 -3.43519 -2.20133 0
M  V30 25144 H 2324.29 -3.98546 -1.18885 0
M  V30 25145 H 2322.87 -2.73888 -2.5306 0
M  V30 25146 N 2325.05 0.45796 -1.50799 0
M  V30 25147 C 2325.96 1.57986 -1.73429 0
M  V30 25148 C 2326.98 1.62664 -0.617773 0
M  V30 25149 O 2328.15 1.80289 -0.897646 0
M  V30 25150 C 2325.22 2.94119 -1.83562 0
M  V30 25151 C 2324.28 2.99724 -3.0735 0
M  V30 25152 C 2323.51 4.29363 -3.16991 0
M  V30 25153 O 2323.74 5.20603 -2.33086 0
M  V30 25154 O 2322.67 4.4083 -4.0982 0
M  V30 25155 H 2326.5 1.41812 -2.68557 0
M  V30 25156 H 2324.08 0.638836 -1.35053 0
M  V30 25157 H 2325.96 3.74948 -1.92332 0
M  V30 25158 H 2324.64 3.10464 -0.916191 0
M  V30 25159 H 2323.54 2.17924 -3.04072 0
M  V30 25160 H 2324.88 2.88319 -3.98915 0
M  V30 25161 N 2326.53 1.40598 0.712035 0
M  V30 25162 C 2327.48 1.41145 1.82611 0
M  V30 25163 C 2328.45 0.267932 1.63925 0
M  V30 25164 O 2329.63 0.466527 1.85009 0
M  V30 25165 C 2326.77 1.2833 3.20352 0
M  V30 25166 C 2325.88 2.52417 3.50585 0
M  V30 25167 C 2325.02 2.32017 4.77851 0
M  V30 25168 C 2324.06 3.51663 5.00999 0
M  V30 25169 N 2323.2 3.30436 6.19481 0
M  V30 25170 H 2328.04 2.36368 1.81478 0
M  V30 25171 H 2325.57 1.1739 0.886455 0
M  V30 25172 H 2327.53 1.18906 3.99897 0
M  V30 25173 H 2326.16 0.367245 3.20704 0
M  V30 25174 H 2325.21 2.72356 2.65568 0
M  V30 25175 H 2326.52 3.41464 3.63598 0
M  V30 25176 H 2325.68 2.19966 5.6542 0
M  V30 25177 H 2324.42 1.40401 4.67054 0
M  V30 25178 H 2323.42 3.64187 4.11884 0
M  V30 25179 H 2324.65 4.44211 5.13666 0
M  V30 25180 H 2322.59 2.41505 6.09927 0
M  V30 25181 H 2322.51 4.1305 6.33187 0
M  V30 25182 H 2323.78 3.22125 7.09828 0
M  V30 25183 N 2328.01 -0.94462 1.26153 0
M  V30 25184 C 2329.26 -1.68708 1.11274 0
M  V30 25185 C 2329.58 -1.91921 -0.345132 0
M  V30 25186 O 2328.85 -1.51345 -1.24384 0
M  V30 25187 H 2327.43 -0.625217 0.408794 0
M  V30 25188 H 2330.09 -1.13517 1.58429 0
M  V30 25189 H 2329.18 -2.66224 1.62884 0
M  V30 25190 N 2329.49 -1.07901 -1.1487 0
M  V30 25191 C 2330.71 -0.82696 -1.902 0
M  V30 25192 C 2331.14 0.614633 -1.77775 0
M  V30 25193 O 2330.49 1.43011 -1.11434 0
M  V30 25194 C 2330.54 -1.24708 -3.38349 0
M  V30 25195 O 2329.65 -0.395823 -4.10496 0
M  V30 25196 H 2328.99 -0.300792 -0.591963 0
M  V30 25197 H 2331.52 -1.4391 -1.45434 0
M  V30 25198 H 2331.53 -1.2257 -3.89154 0
M  V30 25199 H 2330.2 -2.29704 -3.46711 0
M  V30 25200 H 2328.78 -0.480182 -3.69795 0
M  V30 25201 N 2330.96 1.31811 -0.863929 0
M  V30 25202 C 2332.21 1.96536 -0.470938 0
M  V30 25203 C 2332.53 1.68658 0.978741 0
M  V30 25204 O 2331.8 0.998746 1.68529 0
M  V30 25205 H 2330.38 0.727127 -0.171161 0
M  V30 25206 H 2333.04 1.60727 -1.10239 0
M  V30 25207 H 2332.14 3.05805 -0.62367 0
M  V30 25208 N 2332.44 0.62277 1.44773 0
M  V30 25209 C 2333.72 0.0552318 1.95522 0
M  V30 25210 C 2334.1 -1.4168 1.56493 0
M  V30 25211 O 2333.45 -2.12701 0.834885 0
M  V30 25212 C 2333.66 0.269303 3.47959 0
M  V30 25213 C 2335 0.158088 4.24306 0
M  V30 25214 O 2336.03 0.200224 3.55637 0
M  V30 25215 O 2334.89 0.0559654 5.46471 0
M  V30 25216 H 2331.98 -0.027087 0.826556 0
M  V30 25217 H 2334.53 0.693892 1.54865 0
M  V30 25218 H 2333.3 1.29106 3.69388 0
M  V30 25219 H 2332.92 -0.403896 3.95543 0
M  V30 25220 N 2333.92 -1.53367 0.362817 0
M  V30 25221 C 2335.17 -2.01513 -0.228078 0
M  V30 25222 C 2335.5 -1.24972 -1.48646 0
M  V30 25223 O 2334.77 -0.342649 -1.91458 0
M  V30 25224 C 2335.06 -3.56284 -0.522821 0
M  V30 25225 C 2334.91 -4.4352 0.748997 0
M  V30 25226 C 2336.23 -4.19695 -1.32454 0
M  V30 25227 H 2333.35 -0.732489 -0.0814214 0
M  V30 25228 H 2335.99 -1.83648 0.487162 0
M  V30 25229 H 2334.14 -3.71638 -1.13214 0
M  V30 25230 H 2335.81 -4.39968 1.38656 0
M  V30 25231 H 2334.05 -4.11601 1.36993 0
M  V30 25232 H 2334.73 -5.49751 0.497763 0
M  V30 25233 H 2337.2 -4.08157 -0.809131 0
M  V30 25234 H 2336.08 -5.28021 -1.49951 0
M  V30 25235 H 2336.34 -3.75577 -2.33226 0
M  V30 25236 N 2335.4 -0.091913 -1.57332 0
M  V30 25237 C 2336.81 0.437707 -1.81497 0
M  V30 25238 C 2337.16 1.68368 -1.0073 0
M  V30 25239 O 2336.29 2.15112 -0.235732 0
M  V30 25240 C 2336.88 0.800881 -3.29198 0
M  V30 25241 C 2335.44 1.27526 -3.54138 0
M  V30 25242 C 2334.59 0.270344 -2.75979 0
M  V30 25243 H 2337.54 -0.317393 -1.55494 0
M  V30 25244 H 2337.56 1.66068 -3.42347 0
M  V30 25245 H 2337.07 -0.106146 -3.87955 0
M  V30 25246 H 2335.17 2.20011 -3.00709 0
M  V30 25247 H 2335.28 1.23929 -4.62794 0
M  V30 25248 H 2333.65 0.75183 -2.43351 0
M  V30 25249 H 2334.43 -0.629307 -3.37483 0
M  V30 25250 N 2336.88 1.56548 0.181765 0
M  V30 25251 C 2338.29 1.50432 0.533133 0
M  V30 25252 C 2338.49 0.79433 1.85183 0
M  V30 25253 O 2337.55 0.350361 2.50057 0
M  V30 25254 C 2338.86 2.95141 0.575545 0
M  V30 25255 C 2340.41 3.05887 0.663466 0
M  V30 25256 C 2340.88 4.52033 0.736866 0
M  V30 25257 N 2342.38 4.56239 0.800037 0
M  V30 25258 C 2343.11 5.6665 0.877227 0
M  V30 25259 N 2342.61 6.86719 0.915895 0
M  V30 25260 N 2344.4 5.54595 0.915444 0
M  V30 25261 H 2336.55 2.01117 -0.68306 0
M  V30 25262 H 2338.81 0.915793 -0.245004 0
M  V30 25263 H 2338.52 3.50199 -0.324543 0
M  V30 25264 H 2338.39 3.4922 1.42566 0
M  V30 25265 H 2340.78 2.50869 1.55398 0
M  V30 25266 H 2340.86 2.54911 -0.213115 0
M  V30 25267 H 2340.51 5.0768 -0.149351 0
M  V30 25268 H 2340.44 5.00756 1.62944 0
M  V30 25269 H 2342.93 3.69787 0.778861 0
M  V30 25270 H 2343.24 7.66616 0.975678 0
M  V30 25271 H 2341.58 6.89351 0.884348 0
M  V30 25272 H 2344.78 4.59712 0.882164 0
M  V30 25273 H 2344.95 6.40666 0.97214 0
M  V30 25274 N 2338.35 -0.449957 1.5104 0
M  V30 25275 C 2339.32 -1.52767 1.70865 0
M  V30 25276 C 2340.32 -1.50019 0.578872 0
M  V30 25277 O 2341.51 -1.52264 0.84624 0
M  V30 25278 C 2338.64 -2.92347 1.75346 0
M  V30 25279 H 2339.83 -1.36498 2.67036 0
M  V30 25280 H 2337.39 -0.677787 1.40839 0
M  V30 25281 H 2338.12 -3.14036 0.809438 0
M  V30 25282 H 2337.91 -2.95747 2.57441 0
M  V30 25283 H 2339.4 -3.70551 1.92566 0
M  V30 25284 N 2339.83 -1.40974 -0.704569 0
M  V30 25285 C 2340.78 -1.42112 -1.8186 0
M  V30 25286 C 2341.75 -0.276622 -1.6378 0
M  V30 25287 O 2342.93 -0.476332 -1.84759 0
M  V30 25288 C 2340.07 -1.30027 -3.19667 0
M  V30 25289 C 2339.19 -2.54273 -3.49241 0
M  V30 25290 C 2338.32 -2.34548 -4.76614 0
M  V30 25291 C 2337.36 -3.54315 -4.99127 0
M  V30 25292 N 2336.5 -3.33717 -6.1772 0
M  V30 25293 H 2341.34 -2.37327 -1.80222 0
M  V30 25294 H 2338.88 -1.17858 -0.880217 0
M  V30 25295 H 2340.83 -1.21025 -3.9926 0
M  V30 25296 H 2339.46 -0.384248 -3.20505 0
M  V30 25297 H 2338.52 -2.7376 -2.6412 0
M  V30 25298 H 2339.83 -3.43388 -3.61782 0
M  V30 25299 H 2338.98 -2.22962 -5.64245 0
M  V30 25300 H 2337.72 -1.42875 -4.66302 0
M  V30 25301 H 2336.73 -3.66366 -4.09947 0
M  V30 25302 H 2337.95 -4.46929 -5.11303 0
M  V30 25303 H 2335.9 -2.44736 -6.08638 0
M  V30 25304 H 2335.81 -4.16403 -6.30987 0
M  V30 25305 H 2337.08 -3.25885 -7.0811 0
M  V30 25306 N 2341.31 0.937917 -1.26653 0
M  V30 25307 C 2342.56 1.68448 -1.1239 0
M  V30 25308 C 2342.89 1.91643 0.332174 0
M  V30 25309 O 2342.14 1.49727 1.26017 0
M  V30 25310 C 2342.44 3.06292 -1.84174 0
M  V30 25311 C 2342.11 3.02843 -3.34061 0
M  V30 25312 C 2340.77 3.01609 -3.74947 0
M  V30 25313 C 2343.12 2.94903 -4.29746 0
M  V30 25314 C 2340.45 2.90206 -5.099 0
M  V30 25315 C 2342.8 2.8504 -5.64743 0
M  V30 25316 C 2341.46 2.82151 -6.04935 0
M  V30 25317 H 2340.73 0.616396 -0.411263 0
M  V30 25318 H 2343.38 1.09456 -1.57136 0
M  V30 25319 H 2341.69 3.68928 -1.31906 0
M  V30 25320 H 2343.38 3.62912 -1.70575 0
M  V30 25321 H 2339.97 3.04584 -3.0154 0
M  V30 25322 H 2344.16 2.94962 -3.99138 0
M  V30 25323 H 2339.41 2.86349 -5.40199 0
M  V30 25324 H 2343.59 2.77861 -6.38566 0
M  V30 25325 H 2341.21 2.73071 -7.09462 0
M  V30 25326 N 2342.79 1.08509 1.14296 0
M  V30 25327 C 2344.02 0.836909 1.89218 0
M  V30 25328 C 2344.43 -0.611022 1.78639 0
M  V30 25329 O 2343.79 -1.41996 1.14645 0
M  V30 25330 C 2343.84 1.25122 3.39156 0
M  V30 25331 O 2343.56 2.64235 3.49444 0
M  V30 25332 C 2345.06 1.03405 4.31071 0
M  V30 25333 H 2342.28 0.30175 0.599323 0
M  V30 25334 H 2344.83 1.44463 1.44743 0
M  V30 25335 H 2342.98 0.687581 3.81249 0
M  V30 25336 H 2343.39 2.81459 4.42584 0
M  V30 25337 H 2344.87 1.37332 5.34644 0
M  V30 25338 H 2345.35 -0.0288487 4.39191 0
M  V30 25339 H 2345.95 1.58318 3.94735 0
M  V30 25340 N 2344.27 -1.31351 0.870907 0
M  V30 25341 C 2345.21 -2.30437 0.316486 0
M  V30 25342 C 2346.21 -1.5956 -0.568937 0
M  V30 25343 O 2347.41 -1.74156 -0.454934 0
M  V30 25344 H 2343.79 -0.747331 0.0836653 0
M  V30 25345 H 2345.76 -2.74671 1.16611 0
M  V30 25346 C 2344.51 -3.44559 -0.46629 0
M  V30 25347 H 2343.83 -3.9927 0.205757 0
M  V30 25348 H 2345.27 -4.16004 -0.819541 0
M  V30 25349 C 2343.73 -2.93283 -1.65792 0
M  V30 25350 O 2344.26 -2.9213 -2.75723 0
M  V30 25351 N 2342.47 -2.49472 -1.49037 0
M  V30 25352 H 2342.01 -2.50609 -0.596076 0
M  V30 25353 H 2341.97 -2.1552 -2.28907 0
M  V30 25354 N 2345.74 -0.630439 -1.44441 0
M  V30 25355 C 2346.99 -0.132108 -2.01267 0
M  V30 25356 C 2347.31 1.25328 -1.50174 0
M  V30 25357 O 2348.51 1.84559 -1.99124 0
M  V30 25358 C 2346.97 -0.185425 -3.59422 0
M  V30 25359 C 2346.58 -1.57208 -4.19511 0
M  V30 25360 C 2348.32 0.256479 -4.23724 0
M  V30 25361 C 2346.23 -1.58055 -5.69888 0
M  V30 25362 H 2345.16 -0.0456224 -0.752618 0
M  V30 25363 H 2347.81 -0.789135 -1.65665 0
M  V30 25364 H 2346.19 0.53869 -3.92319 0
M  V30 25365 H 2347.36 -2.31973 -3.98152 0
M  V30 25366 H 2345.68 -1.95801 -3.67493 0
M  V30 25367 H 2348.28 0.269673 -5.3402 0
M  V30 25368 H 2348.62 1.28365 -3.96015 0
M  V30 25369 H 2349.15 -0.415119 -3.95628 0
M  V30 25370 H 2345.89 -2.58607 -6.02331 0
M  V30 25371 H 2345.41 -0.875829 -5.93371 0
M  V30 25372 H 2347.09 -1.31419 -6.33512 0
M  V30 25373 N 2347.22 1.53172 -0.370945 0
M  V30 25374 C 2348.47 2.01333 0.217066 0
M  V30 25375 C 2348.8 1.25805 1.48335 0
M  V30 25376 O 2348.05 0.341494 1.92697 0
M  V30 25377 C 2348.35 3.53148 0.549634 0
M  V30 25378 C 2348.02 4.46576 -0.622951 0
M  V30 25379 C 2346.68 4.71836 -0.944678 0
M  V30 25380 C 2349.03 5.01814 -1.40828 0
M  V30 25381 C 2346.36 5.49585 -2.05361 0
M  V30 25382 C 2348.71 5.80774 -2.50767 0
M  V30 25383 C 2347.38 6.04319 -2.83469 0
M  V30 25384 H 2346.65 0.736731 0.0794301 0
M  V30 25385 H 2349.29 1.84735 -0.504514 0
M  V30 25386 H 2347.6 3.67723 1.3523 0
M  V30 25387 H 2349.29 3.87891 1.01693 0
M  V30 25388 H 2345.88 4.27067 -0.362165 0
M  V30 25389 H 2350.07 4.8224 -1.17297 0
M  V30 25390 H 2345.32 5.66046 -2.3109 0
M  V30 25391 H 2349.5 6.22582 -3.12033 0
M  V30 25392 H 2347.13 6.64349 -3.69519 0
M  V30 25393 N 2348.7 0.100255 1.57281 0
M  V30 25394 C 2349.95 -0.562234 1.94538 0
M  V30 25395 C 2350.28 -1.6787 0.982344 0
M  V30 25396 O 2349.53 -1.957 0.00284375 0
M  V30 25397 C 2349.83 -1.15253 3.38307 0
M  V30 25398 C 2349.5 -0.159329 4.50618 0
M  V30 25399 C 2348.16 0.113826 4.81065 0
M  V30 25400 C 2350.51 0.518552 5.18614 0
M  V30 25401 C 2347.84 1.07147 5.76833 0
M  V30 25402 C 2350.19 1.4647 6.1541 0
M  V30 25403 C 2348.85 1.74603 6.44259 0
M  V30 25404 H 2348.12 -0.205736 0.711866 0
M  V30 25405 H 2350.77 0.177184 1.90679 0
M  V30 25406 H 2349.08 -1.9683 3.3877 0
M  V30 25407 H 2350.77 -1.6729 3.64438 0
M  V30 25408 H 2347.36 -0.382416 4.26891 0
M  V30 25409 H 2351.55 0.320668 4.95263 0
M  V30 25410 H 2346.8 1.29638 5.97498 0
M  V30 25411 H 2350.98 1.99575 6.6719 0
M  V30 25412 H 2348.6 2.48966 7.18276 0
M  V30 25413 N 2350.18 -1.56643 -0.17346 0
M  V30 25414 C 2351.4 -1.86364 -0.910116 0
M  V30 25415 C 2351.83 -0.686349 -1.75131 0
M  V30 25416 O 2351.19 0.364612 -1.77596 0
M  V30 25417 C 2351.24 -3.14485 -1.76442 0
M  V30 25418 O 2350.34 -2.96558 -2.86579 0
M  V30 25419 H 2349.68 -0.613052 -0.255076 0
M  V30 25420 H 2352.21 -2.03874 -0.172247 0
M  V30 25421 H 2352.22 -3.45835 -2.16477 0
M  V30 25422 H 2350.9 -3.99785 -1.14651 0
M  V30 25423 H 2349.47 -2.76557 -2.50141 0
M  V30 25424 N 2351.66 0.44194 -1.51277 0
M  V30 25425 C 2352.57 1.56138 -1.75094 0
M  V30 25426 C 2353.58 1.62 -0.634991 0
M  V30 25427 O 2354.76 1.79327 -0.916717 0
M  V30 25428 C 2351.82 2.92155 -1.86672 0
M  V30 25429 C 2350.89 2.96447 -3.10512 0
M  V30 25430 C 2350.12 4.25977 -3.21527 0
M  V30 25431 O 2350.34 5.18101 -2.38595 0
M  V30 25432 O 2349.28 4.36459 -4.14472 0
M  V30 25433 H 2353.1 1.38956 -2.70046 0
M  V30 25434 H 2350.69 0.624476 -1.35723 0
M  V30 25435 H 2352.57 3.72887 -1.96298 0
M  V30 25436 H 2351.24 3.09474 -0.949068 0
M  V30 25437 H 2350.15 2.14687 -3.06366 0
M  V30 25438 H 2351.48 2.84072 -4.0195 0
M  V30 25439 N 2353.14 1.41345 0.697083 0
M  V30 25440 C 2354.38 1.39921 1.45276 0
M  V30 25441 C 2354.7 0.0109968 1.95597 0
M  V30 25442 O 2355.9 -0.125871 2.71208 0
M  V30 25443 C 2354.36 2.46011 2.62691 0
M  V30 25444 C 2353.97 3.90732 2.19162 0
M  V30 25445 C 2355.71 2.53721 3.40332 0
M  V30 25446 C 2353.62 4.88379 3.33526 0
M  V30 25447 H 2352.55 0.520333 0.545683 0
M  V30 25448 H 2355.2 1.67162 0.7569 0
M  V30 25449 H 2353.58 2.11898 3.34537 0
M  V30 25450 H 2354.76 4.34086 1.54615 0
M  V30 25451 H 2353.07 3.86669 1.54519 0
M  V30 25452 H 2355.67 3.23858 4.25465 0
M  V30 25453 H 2356.01 1.57356 3.85415 0
M  V30 25454 H 2356.54 2.86918 2.75541 0
M  V30 25455 H 2353.28 5.86143 2.93457 0
M  V30 25456 H 2352.8 4.49675 3.96928 0
M  V30 25457 H 2354.48 5.09066 3.99326 0
M  V30 25458 N 2354.61 -0.931187 1.27148 0
M  V30 25459 C 2355.86 -1.673 1.12667 0
M  V30 25460 C 2356.18 -1.92836 -0.327685 0
M  V30 25461 O 2357.38 -2.64937 -0.593345 0
M  V30 25462 C 2355.84 -3.01303 1.96836 0
M  V30 25463 C 2355.45 -2.83478 3.46906 0
M  V30 25464 C 2357.19 -3.79107 1.90992 0
M  V30 25465 C 2355.1 -4.13016 4.23287 0
M  V30 25466 H 2354.03 -0.627501 0.418041 0
M  V30 25467 H 2356.68 -1.03478 1.5154 0
M  V30 25468 H 2355.06 -3.66162 1.50803 0
M  V30 25469 H 2356.23 -2.27408 4.00777 0
M  V30 25470 H 2354.55 -2.19107 3.54092 0
M  V30 25471 H 2357.15 -4.75094 2.45337 0
M  V30 25472 H 2357.49 -4.06832 0.88279 0
M  V30 25473 H 2358.02 -3.2104 2.34901 0
M  V30 25474 H 2354.76 -3.90471 5.2651 0
M  V30 25475 H 2354.28 -4.68763 3.74194 0
M  V30 25476 H 2355.96 -4.81403 4.32273 0
M  V30 25477 N 2356.09 -1.09114 -1.13719 0
M  V30 25478 C 2357.05 -0.73128 -2.17221 0
M  V30 25479 C 2358.05 0.237538 -1.59036 0
M  V30 25480 O 2359.24 0.0161398 -1.74193 0
M  V30 25481 C 2356.38 -0.0809042 -3.40804 0
M  V30 25482 H 2357.57 -1.64787 -2.5057 0
M  V30 25483 H 2355.12 -0.889919 -1.28492 0
M  V30 25484 H 2355.86 0.847072 -3.13042 0
M  V30 25485 H 2355.64 -0.777963 -3.84305 0
M  V30 25486 H 2357.13 0.155584 -4.1731 0
M  V30 25487 N 2357.57 1.30887 -0.877861 0
M  V30 25488 C 2358.98 1.78592 -0.544224 0
M  V30 25489 C 2359.33 1.72256 0.939271 0
M  V30 25490 O 2358.46 1.29508 1.73368 0
M  V30 25491 C 2359.05 3.24283 -0.981107 0
M  V30 25492 C 2357.61 3.69853 -0.699 0
M  V30 25493 C 2356.76 2.51499 -1.16805 0
M  V30 25494 H 2359.71 1.17857 -1.0628 0
M  V30 25495 H 2359.73 3.79259 -0.307076 0
M  V30 25496 H 2359.24 3.28863 -2.06085 0
M  V30 25497 H 2357.34 3.70768 0.369046 0
M  V30 25498 H 2357.46 4.61641 -1.28156 0
M  V30 25499 H 2355.82 2.4783 -0.587578 0
M  V30 25500 H 2356.6 2.5882 -2.25537 0
M  V30 25501 N 2359.05 0.638091 1.44105 0
M  V30 25502 C 2359.98 -0.0493876 2.33448 0
M  V30 25503 C 2360.96 -0.827646 1.48607 0
M  V30 25504 O 2362.14 -0.792141 1.7731 0
M  V30 25505 C 2359.27 -1.02685 3.31773 0
M  V30 25506 C 2358.23 -0.359748 4.26485 0
M  V30 25507 C 2357.55 -1.4476 5.14732 0
M  V30 25508 C 2358.85 0.738387 5.17054 0
M  V30 25509 H 2360.55 0.696688 2.91181 0
M  V30 25510 H 2358.09 0.336481 1.40014 0
M  V30 25511 H 2360.05 -1.51659 3.93164 0
M  V30 25512 H 2358.77 -1.8039 2.72263 0
M  V30 25513 H 2357.43 0.109404 3.66437 0
M  V30 25514 H 2357.08 -2.2157 4.5157 0
M  V30 25515 H 2356.78 -1.00658 5.78914 0
M  V30 25516 H 2358.3 -1.93901 5.78995 0
M  V30 25517 H 2359.72 0.331454 5.72341 0
M  V30 25518 H 2358.11 1.10296 5.89877 0
M  V30 25519 H 2359.18 1.60266 4.57649 0
M  V30 25520 N 2360.53 -1.52973 0.379063 0
M  V30 25521 C 2361.77 -2.01744 -0.206692 0
M  V30 25522 C 2362.1 -1.26542 -1.47312 0
M  V30 25523 O 2361.38 -0.362937 -1.91084 0
M  V30 25524 C 2361.66 -3.56819 -0.485003 0
M  V30 25525 C 2361.52 -4.42701 0.795997 0
M  V30 25526 C 2362.83 -4.21076 -1.27995 0
M  V30 25527 H 2359.95 -0.733311 -0.0736478 0
M  V30 25528 H 2362.6 -1.83121 0.506613 0
M  V30 25529 H 2360.75 -3.72818 -1.09266 0
M  V30 25530 H 2362.42 -4.38473 1.43315 0
M  V30 25531 H 2360.66 -4.10125 1.41351 0
M  V30 25532 H 2361.33 -5.49192 0.556044 0
M  V30 25533 H 2363.81 -4.08992 -0.765795 0
M  V30 25534 H 2362.68 -5.29581 -1.44343 0
M  V30 25535 H 2362.94 -3.7803 -2.29229 0
M  V30 25536 N 2362 -0.108595 -1.57225 0
M  V30 25537 C 2362.94 0.875714 -2.11811 0
M  V30 25538 C 2363.95 1.23699 -1.05841 0
M  V30 25539 O 2365.14 1.18775 -1.33247 0
M  V30 25540 C 2362.24 2.18076 -2.59415 0
M  V30 25541 C 2361.41 1.99277 -3.89368 0
M  V30 25542 C 2360.47 3.13416 -4.22678 0
M  V30 25543 O 2359.5 2.86786 -4.91673 0
M  V30 25544 N 2360.7 4.39564 -3.79162 0
M  V30 25545 H 2363.46 0.409424 -2.9689 0
M  V30 25546 H 2361.02 0.0761296 -1.61721 0
M  V30 25547 H 2363.02 2.93409 -2.78735 0
M  V30 25548 H 2361.59 2.56086 -1.79272 0
M  V30 25549 H 2360.81 1.08197 -3.79061 0
M  V30 25550 H 2362.09 1.84009 -4.74361 0
M  V30 25551 H 2361.49 4.64078 -3.23494 0
M  V30 25552 H 2360.05 5.11802 -4.03611 0
M  V30 25553 N 2363.48 1.56732 0.16515 0
M  V30 25554 C 2364.73 1.82612 0.88208 0
M  V30 25555 C 2365.06 0.68741 1.81627 0
M  V30 25556 O 2364.34 -0.310234 1.9201 0
M  V30 25557 C 2364.62 3.18909 1.67239 0
M  V30 25558 C 2364.47 4.43317 0.76091 0
M  V30 25559 C 2365.79 3.52217 2.63878 0
M  V30 25560 H 2362.91 0.664275 0.319231 0
M  V30 25561 H 2365.55 1.89423 0.148019 0
M  V30 25562 H 2363.7 3.13234 2.29818 0
M  V30 25563 H 2365.37 4.61064 0.147515 0
M  V30 25564 H 2363.62 4.33745 0.069334 0
M  V30 25565 H 2364.29 5.35249 1.34953 0
M  V30 25566 H 2366.76 3.58385 2.11423 0
M  V30 25567 H 2365.64 4.48649 3.16237 0
M  V30 25568 H 2365.9 2.77237 3.44372 0
M  V30 25569 N 2364.96 -0.433911 1.51509 0
M  V30 25570 C 2365.92 -1.50946 1.72476 0
M  V30 25571 C 2366.92 -1.49397 0.594751 0
M  V30 25572 O 2368.11 -1.51358 0.862342 0
M  V30 25573 C 2365.24 -2.90471 1.78437 0
M  V30 25574 H 2366.44 -1.33658 2.68469 0
M  V30 25575 H 2363.99 -0.662811 1.4155 0
M  V30 25576 H 2364.73 -3.1316 0.8427 0
M  V30 25577 H 2364.51 -2.93 2.60563 0
M  V30 25578 H 2366 -3.68488 1.96485 0
M  V30 25579 N 2366.44 -1.41713 -0.689577 0
M  V30 25580 C 2367.68 -1.41602 -1.45179 0
M  V30 25581 C 2368.02 -0.0270422 -1.94181 0
M  V30 25582 O 2367.29 0.946235 -1.69931 0
M  V30 25583 C 2367.58 -2.42791 -2.65941 0
M  V30 25584 C 2367.43 -3.9082 -2.22665 0
M  V30 25585 C 2368.75 -2.41158 -3.68145 0
M  V30 25586 H 2365.87 -0.515651 -0.526567 0
M  V30 25587 H 2368.51 -1.73029 -0.784917 0
M  V30 25588 H 2366.66 -2.16122 -3.22837 0
M  V30 25589 H 2368.33 -4.28415 -1.7105 0
M  V30 25590 H 2366.57 -4.05397 -1.54387 0
M  V30 25591 H 2367.24 -4.57178 -3.09342 0
M  V30 25592 H 2369.72 -2.64839 -3.20935 0
M  V30 25593 H 2368.6 -3.13963 -4.50242 0
M  V30 25594 H 2368.86 -1.43228 -4.18256 0
M  V30 25595 N 2367.92 0.924431 -1.2764 0
M  V30 25596 C 2369.14 1.70647 -1.16992 0
M  V30 25597 C 2369.56 1.86818 0.272836 0
M  V30 25598 O 2368.92 1.38755 1.18546 0
M  V30 25599 C 2368.97 3.10436 -1.85234 0
M  V30 25600 O 2368.69 2.95022 -3.23873 0
M  V30 25601 C 2370.19 4.04776 -1.80753 0
M  V30 25602 H 2367.41 0.533773 -0.406604 0
M  V30 25603 H 2369.95 1.15775 -1.68571 0
M  V30 25604 H 2368.11 3.62158 -1.37551 0
M  V30 25605 H 2368.52 3.8342 -3.57896 0
M  V30 25606 H 2370 5.00364 -2.3311 0
M  V30 25607 H 2370.47 4.32262 -0.777575 0
M  V30 25608 H 2371.08 3.5898 -2.28065 0
M  V30 25609 N 2369.39 1.09715 1.13139 0
M  V30 25610 C 2370.32 0.761141 2.20746 0
M  V30 25611 C 2371.31 -0.262537 1.68062 0
M  V30 25612 O 2372.49 -0.129943 1.93765 0
M  V30 25613 C 2369.62 0.184115 3.46812 0
M  V30 25614 C 2368.57 1.13764 4.12604 0
M  V30 25615 C 2367.9 0.422176 5.33031 0
M  V30 25616 C 2369.2 2.48127 4.59598 0
M  V30 25617 H 2370.89 1.66086 2.4911 0
M  V30 25618 H 2368.44 0.800008 1.19732 0
M  V30 25619 H 2370.39 -0.0630474 4.21353 0
M  V30 25620 H 2369.12 -0.750812 3.17853 0
M  V30 25621 H 2367.78 1.37013 3.40034 0
M  V30 25622 H 2367.42 -0.516984 5.00336 0
M  V30 25623 H 2367.12 1.05798 5.77997 0
M  V30 25624 H 2368.65 0.183385 6.10325 0
M  V30 25625 H 2370.06 2.29068 5.25548 0
M  V30 25626 H 2368.46 3.07523 5.15315 0
M  V30 25627 H 2369.53 3.08671 3.73965 0
M  V30 25628 N 2370.87 -1.30419 0.88479 0
M  V30 25629 C 2372.12 -1.9644 0.503885 0
M  V30 25630 C 2372.45 -1.69685 -0.944488 0
M  V30 25631 O 2371.73 -1.00148 -1.66735 0
M  V30 25632 C 2372.01 -3.5157 0.779147 0
M  V30 25633 C 2371.86 -3.87842 2.27813 0
M  V30 25634 C 2373.18 -4.39358 0.255529 0
M  V30 25635 H 2370.3 -0.713521 0.184545 0
M  V30 25636 H 2372.94 -1.54295 1.10875 0
M  V30 25637 H 2371.09 -3.876 0.264342 0
M  V30 25638 H 2372.76 -3.61836 2.86133 0
M  V30 25639 H 2371.01 -3.35917 2.74485 0
M  V30 25640 H 2371.68 -4.9606 2.42134 0
M  V30 25641 H 2374.15 -4.10235 0.696151 0
M  V30 25642 H 2373.03 -5.46819 0.477457 0
M  V30 25643 H 2373.29 -4.33984 -0.843217 0
M  V30 25644 N 2372.35 -0.645724 -1.43764 0
M  V30 25645 C 2373.76 -0.236751 -1.85193 0
M  V30 25646 C 2374.11 1.21506 -1.54047 0
M  V30 25647 O 2373.24 1.92646 -0.985727 0
M  V30 25648 C 2373.83 -0.422904 -3.3615 0
M  V30 25649 C 2372.39 -0.0683154 -3.76338 0
M  V30 25650 C 2371.54 -0.729353 -2.67536 0
M  V30 25651 H 2374.49 -0.849907 -1.34023 0
M  V30 25652 H 2374.51 0.333837 -3.79033 0
M  V30 25653 H 2374.02 -1.47964 -3.58787 0
M  V30 25654 H 2372.12 0.986116 -3.59314 0
M  V30 25655 H 2372.24 -0.488553 -4.76603 0
M  V30 25656 H 2370.6 -0.16328 -2.54176 0
M  V30 25657 H 2371.38 -1.78897 -2.93003 0
M  V30 25658 N 2373.83 1.5277 -0.38717 0
M  V30 25659 C 2375.06 2.05672 0.195549 0
M  V30 25660 C 2375.47 1.2589 1.41239 0
M  V30 25661 O 2374.81 0.298113 1.81265 0
M  V30 25662 C 2374.87 3.53896 0.632265 0
M  V30 25663 C 2374.54 4.54568 -0.470819 0
M  V30 25664 C 2375.53 5.02665 -1.32755 0
M  V30 25665 C 2373.22 4.98241 -0.637239 0
M  V30 25666 C 2375.21 5.93057 -2.33585 0
M  V30 25667 C 2372.9 5.88435 -1.64888 0
M  V30 25668 C 2373.9 6.35735 -2.4966 0
M  V30 25669 O 2373.58 7.24146 -3.49095 0
M  V30 25670 H 2373.32 0.675162 0.0336462 0
M  V30 25671 H 2375.87 1.97892 -0.550255 0
M  V30 25672 H 2374.1 3.59287 1.43001 0
M  V30 25673 H 2375.79 3.8955 1.14041 0
M  V30 25674 H 2376.56 4.69657 -1.21028 0
M  V30 25675 H 2372.43 4.60998 0.0128757 0
M  V30 25676 H 2375.98 6.29899 -2.99788 0
M  V30 25677 H 2371.88 6.20857 -1.76654 0
M  V30 25678 H 2372.64 7.42202 -3.45078 0
M  V30 25679 N 2375.31 0.116931 1.57166 0
M  V30 25680 C 2376.24 -0.83072 2.18223 0
M  V30 25681 C 2377.22 -1.27875 1.12169 0
M  V30 25682 O 2378.4 -1.34173 1.40396 0
M  V30 25683 C 2375.53 -2.08168 2.77999 0
M  V30 25684 C 2374.49 -1.7715 3.89618 0
M  V30 25685 C 2373.81 -3.09258 4.36192 0
M  V30 25686 C 2375.11 -1.04142 5.11812 0
M  V30 25687 H 2376.81 -0.32194 2.97664 0
M  V30 25688 H 2374.35 -0.153409 1.43181 0
M  V30 25689 H 2376.31 -2.74918 3.19371 0
M  V30 25690 H 2375.03 -2.61366 1.95845 0
M  V30 25691 H 2373.69 -1.1279 3.48818 0
M  V30 25692 H 2373.34 -3.60387 3.50899 0
M  V30 25693 H 2373.04 -2.89279 5.1146 0
M  V30 25694 H 2374.56 -3.7713 4.80214 0
M  V30 25695 H 2375.97 -1.61043 5.50216 0
M  V30 25696 H 2374.37 -0.942657 5.9265 0
M  V30 25697 H 2375.44 -0.027817 4.84892 0
M  V30 25698 N 2376.78 -1.56818 -0.156836 0
M  V30 25699 C 2378.01 -1.86685 -0.884998 0
M  V30 25700 C 2378.42 -0.701985 -1.75695 0
M  V30 25701 O 2377.77 0.3377 -1.80569 0
M  V30 25702 C 2377.83 -3.11142 -1.80087 0
M  V30 25703 C 2377.49 -4.43388 -1.10707 0
M  V30 25704 C 2378.49 -5.17811 -0.465623 0
M  V30 25705 C 2376.17 -4.90119 -1.0995 0
M  V30 25706 C 2378.17 -6.37162 0.174114 0
M  V30 25707 C 2375.85 -6.09397 -0.455947 0
M  V30 25708 C 2376.85 -6.82763 0.179742 0
M  V30 25709 O 2376.54 -7.99777 0.813116 0
M  V30 25710 H 2376.27 -0.623246 -0.261802 0
M  V30 25711 H 2378.83 -2.04796 -0.157347 0
M  V30 25712 H 2377.06 -2.89013 -2.5692 0
M  V30 25713 H 2378.75 -3.27336 -2.40012 0
M  V30 25714 H 2379.51 -4.82782 -0.463342 0
M  V30 25715 H 2375.39 -4.32943 -1.5837 0
M  V30 25716 H 2378.93 -6.94367 0.670887 0
M  V30 25717 H 2374.83 -6.43888 -0.455862 0
M  V30 25718 H 2375.6 -8.15382 0.713803 0
M  V30 25719 N 2378.26 0.425871 -1.51737 0
M  V30 25720 C 2379.51 1.17133 -1.64203 0
M  V30 25721 C 2379.82 1.92074 -0.369739 0
M  V30 25722 O 2381.03 2.68912 -0.373945 0
M  V30 25723 C 2379.49 2.13086 -2.90039 0
M  V30 25724 C 2379.09 1.4374 -4.24315 0
M  V30 25725 C 2380.84 2.87994 -3.11865 0
M  V30 25726 C 2378.75 2.38243 -5.41289 0
M  V30 25727 H 2377.68 0.440933 -0.611632 0
M  V30 25728 H 2380.33 0.437296 -1.78213 0
M  V30 25729 H 2378.71 2.89972 -2.69689 0
M  V30 25730 H 2379.88 0.723328 -4.55087 0
M  V30 25731 H 2378.2 0.809393 -4.08458 0
M  V30 25732 H 2380.79 3.5881 -3.96433 0
M  V30 25733 H 2381.14 3.49995 -2.2541 0
M  V30 25734 H 2381.67 2.18212 -3.32609 0
M  V30 25735 H 2378.41 1.80914 -6.3004 0
M  V30 25736 H 2377.93 3.07671 -5.14878 0
M  V30 25737 H 2379.61 2.99129 -5.73699 0
M  V30 25738 N 2379.74 1.42077 0.682052 0
M  V30 25739 C 2380.69 1.45211 1.81705 0
M  V30 25740 C 2381.68 0.32862 1.66182 0
M  V30 25741 O 2382.89 0.501294 1.72879 0
M  V30 25742 H 2379.26 0.454638 0.599006 0
M  V30 25743 H 2381.23 2.4084 1.76179 0
M  V30 25744 C 2379.98 1.36434 3.19814 0
M  V30 25745 H 2379.31 2.22177 3.32382 0
M  V30 25746 H 2380.75 1.42688 3.99269 0
M  V30 25747 C 2379.21 0.0782502 3.36809 0
M  V30 25748 O 2379.74 -0.871811 3.92125 0
M  V30 25749 N 2377.94 -0.00224158 2.906 0
M  V30 25750 H 2377.49 0.77166 2.45771 0
M  V30 25751 H 2377.45 -0.862126 3.02349 0
M  V30 25752 N 2381.22 -0.917649 1.28129 0
M  V30 25753 C 2382.44 -1.70553 1.1801 0
M  V30 25754 C 2382.87 -1.86319 -0.258224 0
M  V30 25755 O 2382.23 -1.37051 -1.18687 0
M  V30 25756 C 2382.28 -3.07743 1.87954 0
M  V30 25757 O 2381.38 -3.95028 1.18434 0
M  V30 25758 H 2380.72 -0.522396 0.409876 0
M  V30 25759 H 2383.25 -1.14767 1.69381 0
M  V30 25760 H 2383.26 -3.57998 1.95708 0
M  V30 25761 H 2381.94 -2.95586 2.92578 0
M  V30 25762 H 2380.51 -3.53464 1.18818 0
M  V30 25763 N 2382.7 -1.10314 -1.12555 0
M  V30 25764 C 2384.11 -0.834673 -1.36034 0
M  V30 25765 C 2384.31 0.546505 -1.93947 0
M  V30 25766 O 2383.37 1.29962 -2.16486 0
M  V30 25767 C 2384.68 -1.93335 -2.30309 0
M  V30 25768 C 2386.23 -1.96164 -2.43903 0
M  V30 25769 C 2386.71 -3.05201 -3.41491 0
M  V30 25770 N 2388.2 -3.045 -3.49047 0
M  V30 25771 C 2388.93 -3.8551 -4.24464 0
M  V30 25772 N 2388.43 -4.76451 -5.02957 0
M  V30 25773 N 2390.22 -3.73732 -4.19858 0
M  V30 25774 H 2382.37 -1.99343 -0.733211 0
M  V30 25775 H 2384.63 -0.866204 -0.385219 0
M  V30 25776 H 2384.34 -2.92739 -1.94928 0
M  V30 25777 H 2384.21 -1.81944 -3.30418 0
M  V30 25778 H 2386.6 -0.973935 -2.78565 0
M  V30 25779 H 2386.68 -2.11632 -1.43686 0
M  V30 25780 H 2386.33 -4.04191 -3.07558 0
M  V30 25781 H 2386.26 -2.86976 -4.41534 0
M  V30 25782 H 2388.75 -2.38601 -2.93049 0
M  V30 25783 H 2389.06 -5.34825 -5.57837 0
M  V30 25784 H 2387.41 -4.80481 -5.02158 0
M  V30 25785 H 2390.6 -3.02038 -3.57618 0
M  V30 25786 H 2390.77 -4.37102 -4.78378 0
M  V30 25787 N 2384.18 1.29948 -0.891694 0
M  V30 25788 C 2385.4 2.00031 -0.528695 0
M  V30 25789 C 2385.82 1.66797 0.884545 0
M  V30 25790 O 2385.18 0.908697 1.58269 0
M  V30 25791 C 2385.23 3.54621 -0.701876 0
M  V30 25792 O 2384.95 3.86674 -2.05948 0
M  V30 25793 C 2386.45 4.41973 -0.342761 0
M  V30 25794 H 2383.67 0.639343 -0.20367 0
M  V30 25795 H 2386.21 1.65675 -1.19884 0
M  V30 25796 H 2384.37 3.87319 -0.0790149 0
M  V30 25797 H 2384.78 4.81364 -2.083 0
M  V30 25798 H 2386.26 5.49594 -0.514806 0
M  V30 25799 H 2386.73 4.33264 0.719674 0
M  V30 25800 H 2387.34 4.14731 -0.942227 0
M  V30 25801 N 2385.65 0.653339 1.4342 0
M  V30 25802 C 2386.9 0.166451 2.01413 0
M  V30 25803 C 2387.22 -1.22394 1.51805 0
M  V30 25804 O 2386.49 -1.81761 0.730725 0
M  V30 25805 H 2385.07 0.058545 0.744702 0
M  V30 25806 H 2387.73 0.845034 1.75628 0
M  V30 25807 H 2386.83 0.151166 3.11734 0
M  V30 25808 N 2387.13 -1.52563 0.395266 0
M  V30 25809 C 2388.38 -2.00838 -0.186286 0
M  V30 25810 C 2388.69 -1.28579 -1.474 0
M  V30 25811 O 2389.9 -1.67597 -2.13597 0
M  V30 25812 C 2388.36 -3.57861 -0.382533 0
M  V30 25813 C 2387.96 -4.39024 0.892279 0
M  V30 25814 C 2389.71 -4.14408 -0.920127 0
M  V30 25815 C 2387.61 -5.87661 0.663983 0
M  V30 25816 H 2386.54 -0.75042 -0.0733909 0
M  V30 25817 H 2389.2 -1.7602 0.518583 0
M  V30 25818 H 2387.58 -3.78952 -1.1494 0
M  V30 25819 H 2388.75 -4.29698 1.66422 0
M  V30 25820 H 2387.07 -3.93728 1.35526 0
M  V30 25821 H 2389.66 -5.23121 -1.10674 0
M  V30 25822 H 2390.01 -3.70879 -1.89089 0
M  V30 25823 H 2390.54 -3.97231 -0.212681 0
M  V30 25824 H 2387.28 -6.35524 1.60592 0
M  V30 25825 H 2386.8 -5.9976 -0.0689139 0
M  V30 25826 H 2388.48 -6.463 0.300813 0
M  V30 25827 N 2388.61 -0.125265 -1.57101 0
M  V30 25828 C 2389.83 0.542066 -2.00191 0
M  V30 25829 C 2390.26 1.59032 -1.00452 0
M  V30 25830 O 2389.62 1.81286 0.0229104 0
M  V30 25831 C 2389.67 1.13923 -3.42131 0
M  V30 25832 O 2388.77 2.25464 -3.45311 0
M  V30 25833 H 2388.11 0.1348 -0.650173 0
M  V30 25834 H 2390.64 -0.215588 -2.03461 0
M  V30 25835 H 2390.65 1.47324 -3.80473 0
M  V30 25836 H 2389.33 0.371458 -4.14238 0
M  V30 25837 H 2387.9 1.93456 -3.18793 0
M  V30 25838 N 2390.09 1.56899 0.148518 0
M  V30 25839 C 2391.04 1.99098 1.20261 0
M  V30 25840 C 2392.03 0.883148 1.44557 0
M  V30 25841 O 2393.24 1.06833 1.44868 0
M  V30 25842 H 2389.61 0.633767 0.404775 0
M  V30 25843 H 2391.58 2.86912 0.81999 0
M  V30 25844 C 2390.33 2.38634 2.52882 0
M  V30 25845 H 2389.65 3.23431 2.35015 0
M  V30 25846 H 2391.09 2.71985 3.25269 0
M  V30 25847 C 2389.55 1.23842 3.13313 0
M  V30 25848 O 2390.08 0.538338 3.98076 0
M  V30 25849 N 2388.29 1.00306 2.7274 0
M  V30 25850 H 2387.84 1.57413 2.03909 0
M  V30 25851 H 2387.79 0.236893 3.13506 0
M  V30 25852 N 2391.57 -0.417818 1.51961 0
M  V30 25853 C 2392.84 -1.17801 1.56148 0
M  V30 25854 C 2393.22 -2.08388 0.337312 0
M  V30 25855 O 2392.57 -2.18259 -0.676408 0
M  V30 25856 C 2392.78 -1.96288 2.88569 0
M  V30 25857 C 2394.13 -2.52656 3.41248 0
M  V30 25858 O 2395.15 -2.06478 2.90251 0
M  V30 25859 O 2394.01 -3.36931 4.30279 0
M  V30 25860 H 2391.11 -0.537384 0.628607 0
M  V30 25861 H 2393.65 -0.425302 1.64284 0
M  V30 25862 H 2392.42 -1.29874 3.69119 0
M  V30 25863 H 2392.05 -2.78582 2.83686 0
M  V30 25864 N 2393.04 -1.42436 -0.674508 0
M  V30 25865 C 2393.99 -1.46173 -1.80932 0
M  V30 25866 C 2394.99 -0.337429 -1.66005 0
M  V30 25867 O 2396.19 -0.510455 -1.7261 0
M  V30 25868 H 2392.57 -0.457809 -0.596586 0
M  V30 25869 H 2394.54 -2.4177 -1.74899 0
M  V30 25870 C 2393.29 -1.38128 -3.19086 0
M  V30 25871 H 2392.61 -2.23936 -3.31199 0
M  V30 25872 H 2394.05 -1.44804 -3.98507 0
M  V30 25873 C 2392.51 -0.0961109 -3.36763 0
M  V30 25874 O 2393.04 0.851004 -3.92582 0
M  V30 25875 N 2391.24 -0.0131697 -2.90597 0
M  V30 25876 H 2390.79 -0.784683 -2.45358 0
M  V30 25877 H 2390.75 0.84608 -3.02802 0
M  V30 25878 N 2394.52 0.910841 -1.28614 0
M  V30 25879 C 2395.43 2.04678 -1.14647 0
M  V30 25880 C 2396.45 1.7385 -0.0723427 0
M  V30 25881 O 2397.62 1.99413 -0.282213 0
M  V30 25882 C 2394.69 3.37042 -0.812621 0
M  V30 25883 C 2393.75 3.81461 -1.96941 0
M  V30 25884 C 2392.98 5.07508 -1.6514 0
M  V30 25885 O 2393.21 5.67574 -0.567113 0
M  V30 25886 O 2392.14 5.4771 -2.49594 0
M  V30 25887 H 2395.97 2.19381 -2.10014 0
M  V30 25888 H 2393.55 1.03272 -1.0796 0
M  V30 25889 H 2395.43 4.16504 -0.640515 0
M  V30 25890 H 2394.11 3.23508 0.111369 0
M  V30 25891 H 2393.01 3.02814 -2.19669 0
M  V30 25892 H 2394.35 3.99562 -2.87421 0
M  V30 25893 N 2396 1.10909 1.11969 0
M  V30 25894 C 2397.42 0.841876 1.3559 0
M  V30 25895 C 2397.62 -0.536212 1.94234 0
M  V30 25896 O 2396.67 -1.28812 2.17172 0
M  V30 25897 C 2397.99 1.94553 2.29281 0
M  V30 25898 C 2399.53 1.97455 2.42859 0
M  V30 25899 C 2400.01 3.07008 3.39868 0
M  V30 25900 N 2401.5 3.06347 3.47427 0
M  V30 25901 C 2402.23 3.87755 4.22414 0
M  V30 25902 N 2401.73 4.79112 5.00424 0
M  V30 25903 N 2403.52 3.75954 4.1787 0
M  V30 25904 H 2395.67 1.99729 0.722629 0
M  V30 25905 H 2397.94 0.868235 0.38062 0
M  V30 25906 H 2397.64 2.93769 1.93373 0
M  V30 25907 H 2397.52 1.83694 3.29449 0
M  V30 25908 H 2399.9 0.988694 2.78045 0
M  V30 25909 H 2399.99 2.12391 1.42562 0
M  V30 25910 H 2399.63 4.05816 3.0541 0
M  V30 25911 H 2399.56 2.89313 4.40006 0
M  V30 25912 H 2402.05 2.40152 2.9178 0
M  V30 25913 H 2402.36 5.37776 5.54993 0
M  V30 25914 H 2400.71 4.83137 4.99603 0
M  V30 25915 H 2403.9 3.03931 3.56011 0
M  V30 25916 H 2404.07 4.39633 4.76054 0
M  V30 25917 N 2397.48 -1.29474 0.898573 0
M  V30 25918 C 2398.44 -2.26023 0.380311 0
M  V30 25919 C 2399.44 -1.53316 -0.484864 0
M  V30 25920 O 2400.63 -1.71768 -0.290077 0
M  V30 25921 C 2397.76 -3.3783 -0.456451 0
M  V30 25922 H 2398.96 -2.73381 1.233 0
M  V30 25923 H 2396.51 -1.40896 0.676614 0
M  V30 25924 H 2397.24 -2.9581 -1.32917 0
M  V30 25925 H 2397.03 -3.91759 0.163462 0
M  V30 25926 H 2398.52 -4.09661 -0.810394 0
M  V30 25927 N 2398.96 -0.660936 -1.43071 0
M  V30 25928 C 2400.18 -0.183841 -2.06584 0
M  V30 25929 C 2400.61 1.1447 -1.49259 0
M  V30 25930 O 2399.96 1.70888 -0.605558 0
M  V30 25931 C 2400.01 -0.114497 -3.60418 0
M  V30 25932 O 2399.12 0.921067 -4.01983 0
M  V30 25933 H 2398.46 -0.0984109 -0.656667 0
M  V30 25934 H 2400.99 -0.906039 -1.83445 0
M  V30 25935 H 2401 0.0662677 -4.07946 0
M  V30 25936 H 2399.67 -1.08429 -4.01517 0
M  V30 25937 H 2398.25 0.712466 -3.66031 0
M  V30 25938 N 2400.43 1.52351 -0.403352 0
M  V30 25939 C 2401.38 2.28406 0.439712 0
M  V30 25940 C 2402.38 1.32865 1.05087 0
M  V30 25941 O 2403.58 1.50347 0.989733 0
M  V30 25942 H 2399.96 0.734656 0.160574 0
M  V30 25943 H 2401.93 2.97565 -0.223035 0
M  V30 25944 C 2400.68 3.11374 1.5473 0
M  V30 25945 H 2400 3.84757 1.08636 0
M  V30 25946 H 2401.44 3.67705 2.11114 0
M  V30 25947 C 2399.9 2.2457 2.51137 0
M  V30 25948 O 2400.43 1.88203 3.54884 0
M  V30 25949 N 2398.64 1.88454 2.21209 0
M  V30 25950 H 2398.18 2.18227 1.36874 0
M  V30 25951 H 2398.14 1.30667 2.85961 0
M  V30 25952 N 2401.91 0.133594 1.57033 0
M  V30 25953 C 2402.88 -0.796957 2.14898 0
M  V30 25954 C 2403.88 -1.18456 1.08742 0
M  V30 25955 O 2405.07 -1.10768 1.34447 0
M  V30 25956 C 2402.2 -2.07968 2.70115 0
M  V30 25957 H 2403.39 -0.29382 2.98457 0
M  V30 25958 H 2400.94 -0.115759 1.55871 0
M  V30 25959 H 2401.68 -2.62679 1.90185 0
M  V30 25960 H 2401.46 -1.81109 3.47767 0
M  V30 25961 H 2402.95 -2.74457 3.14743 0
M  V30 25962 N 2403.39 -1.56975 -0.140195 0
M  V30 25963 C 2404.64 -1.83992 -0.852917 0
M  V30 25964 C 2404.97 -0.716218 -1.8051 0
M  V30 25965 O 2404.24 0.279647 -1.92479 0
M  V30 25966 C 2404.53 -3.2153 -1.62144 0
M  V30 25967 C 2404.38 -4.44472 -0.690285 0
M  V30 25968 C 2405.7 -3.5637 -2.58241 0
M  V30 25969 H 2402.82 -0.669269 -0.308622 0
M  V30 25970 H 2405.46 -1.89634 -0.117865 0
M  V30 25971 H 2403.61 -3.16851 -2.24806 0
M  V30 25972 H 2405.28 -4.6124 -0.0741453 0
M  V30 25973 H 2403.53 -4.338 -0.000320181 0
M  V30 25974 H 2404.2 -5.37328 -1.26421 0
M  V30 25975 H 2406.67 -3.61703 -2.05694 0
M  V30 25976 H 2405.55 -4.53623 -3.09059 0
M  V30 25977 H 2405.81 -2.8268 -3.39918 0
M  V30 25978 N 2404.87 0.409753 -1.5218 0
M  V30 25979 C 2406.11 1.15848 -1.66455 0
M  V30 25980 C 2406.45 1.90182 -0.393005 0
M  V30 25981 O 2405.72 1.84735 0.608547 0
M  V30 25982 C 2406.01 2.15344 -2.88616 0
M  V30 25983 C 2405.86 1.44911 -4.25818 0
M  V30 25984 C 2407.18 3.1602 -3.06299 0
M  V30 25985 H 2404.3 0.419794 -0.605757 0
M  V30 25986 H 2406.94 0.444282 -1.84733 0
M  V30 25987 H 2405.09 2.7625 -2.73163 0
M  V30 25988 H 2406.76 0.871285 -4.52997 0
M  V30 25989 H 2405 0.751084 -4.27248 0
M  V30 25990 H 2405.67 2.17507 -5.07341 0
M  V30 25991 H 2408.15 2.6519 -3.20646 0
M  V30 25992 H 2407.03 3.82903 -3.93289 0
M  V30 25993 H 2407.29 3.83711 -2.19586 0
M  V30 25994 N 2406.35 1.42792 0.666944 0
M  V30 25995 C 2407.76 1.25891 0.981005 0
M  V30 25996 C 2407.96 0.16873 2.00792 0
M  V30 25997 O 2407.02 -0.457426 2.48322 0
M  V30 25998 C 2408.33 2.61851 1.47833 0
M  V30 25999 C 2409.88 2.6927 1.5957 0
M  V30 26000 C 2410.35 4.05616 2.12697 0
M  V30 26001 N 2411.85 4.0761 2.20019 0
M  V30 26002 C 2412.58 5.09931 2.62218 0
M  V30 26003 N 2412.08 6.22631 3.03813 0
M  V30 26004 N 2413.87 4.97286 2.62036 0
M  V30 26005 H 2406.02 2.12396 -0.0128264 0
M  V30 26006 H 2408.28 0.946296 0.0568091 0
M  V30 26007 H 2407.99 3.42522 0.798239 0
M  V30 26008 H 2407.86 2.86309 2.45574 0
M  V30 26009 H 2410.25 1.8894 2.26684 0
M  V30 26010 H 2410.33 2.48592 0.602976 0
M  V30 26011 H 2409.98 4.86406 1.46189 0
M  V30 26012 H 2409.91 4.2365 3.12775 0
M  V30 26013 H 2412.4 3.26253 1.90702 0
M  V30 26014 H 2412.71 6.96549 3.34722 0
M  V30 26015 H 2411.05 6.26124 3.01651 0
M  V30 26016 H 2414.25 4.08312 2.28908 0
M  V30 26017 H 2414.42 5.7716 2.94603 0
M  V30 26018 N 2407.82 -0.904008 1.29095 0
M  V30 26019 C 2409.07 -1.64872 1.1619 0
M  V30 26020 C 2409.39 -1.93487 -0.286708 0
M  V30 26021 O 2410.59 -2.66136 -0.537015 0
M  V30 26022 C 2409.05 -2.9706 2.03183 0
M  V30 26023 C 2408.66 -2.76056 3.52841 0
M  V30 26024 C 2410.4 -3.74971 1.98991 0
M  V30 26025 C 2408.31 -4.03945 4.31952 0
M  V30 26026 H 2407.24 -0.618493 0.431257 0
M  V30 26027 H 2409.89 -1.00241 1.53701 0
M  V30 26028 H 2408.27 -3.62881 1.58536 0
M  V30 26029 H 2409.44 -2.18856 4.0551 0
M  V30 26030 H 2407.76 -2.11547 3.5866 0
M  V30 26031 H 2410.36 -4.69783 2.55359 0
M  V30 26032 H 2410.7 -4.04868 0.968886 0
M  V30 26033 H 2411.23 -3.15985 2.41658 0
M  V30 26034 H 2407.97 -3.79215 5.34674 0
M  V30 26035 H 2407.49 -4.6072 3.84053 0
M  V30 26036 H 2409.17 -4.72126 4.42387 0
M  V30 26037 N 2409.3 -1.11501 -1.11379 0
M  V30 26038 C 2410.27 -0.777191 -2.15621 0
M  V30 26039 C 2411.27 0.203751 -1.59504 0
M  V30 26040 O 2412.46 -0.0208126 -1.74188 0
M  V30 26041 C 2409.59 -0.153176 -3.40556 0
M  V30 26042 H 2410.78 -1.70065 -2.47018 0
M  V30 26043 H 2408.33 -0.916974 -1.26575 0
M  V30 26044 H 2409.07 0.780481 -3.14768 0
M  V30 26045 H 2408.85 -0.859305 -3.82568 0
M  V30 26046 H 2410.34 0.067031 -4.17546 0
M  V30 26047 N 2410.78 1.28995 -0.905426 0
M  V30 26048 C 2412.03 1.94606 -0.530225 0
M  V30 26049 C 2412.34 1.72122 0.929155 0
M  V30 26050 O 2413.55 2.31886 1.41214 0
M  V30 26051 C 2412.01 3.48532 -0.897394 0
M  V30 26052 C 2411.61 3.79807 -2.37593 0
M  V30 26053 C 2413.36 4.20346 -0.592378 0
M  V30 26054 C 2411.26 5.27004 -2.68366 0
M  V30 26055 H 2410.19 0.728463 -0.19457 0
M  V30 26056 H 2412.85 1.46634 -1.10321 0
M  V30 26057 H 2411.23 3.95189 -0.253283 0
M  V30 26058 H 2412.4 3.43989 -3.06608 0
M  V30 26059 H 2410.72 3.21146 -2.65055 0
M  V30 26060 H 2413.31 5.28696 -0.799068 0
M  V30 26061 H 2413.66 4.13645 0.469401 0
M  V30 26062 H 2414.19 3.7944 -1.19458 0
M  V30 26063 H 2410.93 5.38775 -3.73365 0
M  V30 26064 H 2410.45 5.64049 -2.03981 0
M  V30 26065 H 2412.13 5.94658 -2.54933 0
M  V30 26066 N 2412.26 0.668514 1.42719 0
M  V30 26067 C 2413.51 0.188454 2.01922 0
M  V30 26068 C 2413.84 -1.19976 1.52707 0
M  V30 26069 O 2413.11 -1.80418 0.726597 0
M  V30 26070 C 2413.4 0.216148 3.59451 0
M  V30 26071 C 2413.25 1.63937 4.18861 0
M  V30 26072 C 2414.57 -0.439102 4.37904 0
M  V30 26073 H 2411.69 0.0699541 0.733673 0
M  V30 26074 H 2414.33 0.852106 1.69821 0
M  V30 26075 H 2412.48 -0.348944 3.8693 0
M  V30 26076 H 2414.15 2.25623 4.02358 0
M  V30 26077 H 2412.39 2.18199 3.74929 0
M  V30 26078 H 2413.07 1.61048 5.27984 0
M  V30 26079 H 2415.54 0.0418609 4.16079 0
M  V30 26080 H 2414.42 -0.389061 5.47519 0
M  V30 26081 H 2414.68 -1.5157 4.15306 0
M  V30 26082 N 2413.74 -1.52135 0.411426 0
M  V30 26083 C 2414.7 -2.25664 -0.401049 0
M  V30 26084 C 2415.7 -1.28119 -0.97171 0
M  V30 26085 O 2416.89 -1.52042 -0.850227 0
M  V30 26086 C 2414.02 -3.02866 -1.56477 0
M  V30 26087 H 2415.22 -2.98914 0.243003 0
M  V30 26088 H 2412.77 -1.55437 0.163995 0
M  V30 26089 H 2413.5 -2.33971 -2.24562 0
M  V30 26090 H 2413.29 -3.74485 -1.16204 0
M  V30 26091 H 2414.78 -3.58633 -2.13945 0
M  V30 26092 N 2415.22 -0.14192 -1.5696 0
M  V30 26093 C 2416.46 0.510458 -1.95961 0
M  V30 26094 C 2416.79 1.65206 -1.02651 0
M  V30 26095 O 2416.05 1.95623 -0.0547291 0
M  V30 26096 C 2416.34 1.06243 -3.41244 0
M  V30 26097 C 2416.01 0.0397998 -4.50882 0
M  V30 26098 C 2414.67 -0.241332 -4.80594 0
M  V30 26099 C 2417.02 -0.655871 -5.17057 0
M  V30 26100 C 2414.35 -1.22403 -5.7379 0
M  V30 26101 C 2416.7 -1.62735 -6.1131 0
M  V30 26102 C 2415.37 -1.91623 -6.39403 0
M  V30 26103 H 2414.64 0.18679 -0.717071 0
M  V30 26104 H 2417.29 -0.227677 -1.90142 0
M  V30 26105 H 2415.59 1.87779 -3.43869 0
M  V30 26106 H 2417.29 1.57569 -3.68745 0
M  V30 26107 H 2413.88 0.269099 -4.27754 0
M  V30 26108 H 2418.06 -0.451866 -4.94239 0
M  V30 26109 H 2413.32 -1.45434 -5.93851 0
M  V30 26110 H 2417.49 -2.17195 -6.61664 0
M  V30 26111 H 2415.12 -2.67922 -7.11422 0
M  V30 26112 N 2416.69 1.57047 0.131868 0
M  V30 26113 C 2417.94 1.83805 0.840237 0
M  V30 26114 C 2418.26 0.725152 1.81015 0
M  V30 26115 O 2417.53 -0.251961 1.94273 0
M  V30 26116 H 2416.11 0.678132 0.313282 0
M  V30 26117 H 2418.77 1.94516 0.122259 0
M  V30 26118 H 2417.87 2.79273 1.3933 0
M  V30 26119 N 2418.17 -0.401677 1.52395 0
M  V30 26120 C 2419.58 -0.980174 1.58901 0
M  V30 26121 C 2419.93 -1.91338 0.434066 0
M  V30 26122 O 2419.06 -2.11784 -0.444582 0
M  V30 26123 C 2419.65 -1.78446 2.87997 0
M  V30 26124 C 2418.21 -2.31287 2.96957 0
M  V30 26125 C 2417.36 -1.11478 2.53905 0
M  V30 26126 H 2420.31 -0.181652 1.57657 0
M  V30 26127 H 2420.33 -2.64254 2.7377 0
M  V30 26128 H 2419.84 -1.105 3.72037 0
M  V30 26129 H 2417.94 -3.02582 2.17427 0
M  V30 26130 H 2418.06 -2.61642 4.01348 0
M  V30 26131 H 2416.42 -1.471 2.07927 0
M  V30 26132 H 2417.2 -0.450869 3.40326 0
M  V30 26133 N 2419.65 -1.43144 -0.659362 0
M  V30 26134 C 2420.9 -1.43723 -1.41515 0
M  V30 26135 C 2421.21 -0.062852 -1.95499 0
M  V30 26136 O 2422.42 0.0539206 -2.71446 0
M  V30 26137 C 2420.87 -2.5289 -2.56076 0
M  V30 26138 C 2420.48 -3.96406 -2.08726 0
M  V30 26139 C 2422.23 -2.62655 -3.33485 0
M  V30 26140 C 2420.13 -4.9705 -3.20461 0
M  V30 26141 H 2419.06 -0.534618 -0.531696 0
M  V30 26142 H 2421.71 -1.6911 -0.712314 0
M  V30 26143 H 2420.1 -2.20693 -3.28801 0
M  V30 26144 H 2421.27 -4.38033 -1.43052 0
M  V30 26145 H 2419.58 -3.9063 -1.44212 0
M  V30 26146 H 2422.18 -3.35025 -4.16729 0
M  V30 26147 H 2422.52 -1.6752 -3.81107 0
M  V30 26148 H 2423.06 -2.94123 -2.67837 0
M  V30 26149 H 2419.8 -5.93717 -2.77814 0
M  V30 26150 H 2419.32 -4.60041 -3.84866 0
M  V30 26151 H 2421 -5.19474 -3.85689 0
M  V30 26152 N 2421.13 0.897149 -1.29572 0
M  V30 26153 C 2422.38 1.64462 -1.17459 0
M  V30 26154 C 2422.7 1.9307 0.273664 0
M  V30 26155 O 2421.97 1.55857 1.18682 0
M  V30 26156 H 2420.55 0.609614 -0.431717 0
M  V30 26157 H 2423.21 1.07559 -1.62533 0
M  V30 26158 H 2422.3 2.59995 -1.72652 0
M  V30 26159 N 2422.61 1.1209 1.10786 0
M  V30 26160 C 2423.85 0.875258 1.8294 0
M  V30 26161 C 2424.18 -0.597506 1.8478 0
M  V30 26162 O 2423.46 -1.44149 1.3058 0
M  V30 26163 C 2423.74 1.44612 3.29787 0
M  V30 26164 C 2423.6 2.98699 3.36302 0
M  V30 26165 C 2424.91 1.10268 4.26062 0
M  V30 26166 H 2422.03 0.319408 0.664189 0
M  V30 26167 H 2424.68 1.38691 1.29865 0
M  V30 26168 H 2422.83 1.01096 3.75116 0
M  V30 26169 H 2424.5 3.50869 2.99481 0
M  V30 26170 H 2422.74 3.34416 2.76312 0
M  V30 26171 H 2423.41 3.33734 4.39688 0
M  V30 26172 H 2425.89 1.47847 3.88948 0
M  V30 26173 H 2424.76 1.52879 5.27181 0
M  V30 26174 H 2425.02 0.0143731 4.42098 0
M  V30 26175 N 2424.08 -1.28513 0.912254 0
M  V30 26176 C 2425.03 -2.29313 0.389637 0
M  V30 26177 C 2426.03 -1.61289 -0.517887 0
M  V30 26178 O 2427.23 -1.75515 -0.399297 0
M  V30 26179 H 2423.61 -0.744291 0.107399 0
M  V30 26180 H 2425.58 -2.70822 1.25291 0
M  V30 26181 C 2424.33 -3.45868 -0.356435 0
M  V30 26182 H 2423.65 -3.98413 0.332678 0
M  V30 26183 H 2425.09 -4.18401 -0.686777 0
M  V30 26184 C 2423.55 -2.98409 -1.56377 0
M  V30 26185 O 2424.08 -3.00754 -2.66289 0
M  V30 26186 N 2422.28 -2.54087 -1.41025 0
M  V30 26187 H 2421.83 -2.52378 -0.516045 0
M  V30 26188 H 2421.79 -2.22693 -2.21935 0
M  V30 26189 N 2425.56 -0.676073 -1.42362 0
M  V30 26190 C 2426.53 -0.00770969 -2.29199 0
M  V30 26191 C 2427.53 0.72772 -1.43391 0
M  V30 26192 O 2428.72 0.565531 -1.64765 0
M  V30 26193 C 2425.85 0.999727 -3.25911 0
M  V30 26194 H 2427.04 -0.772039 -2.89792 0
M  V30 26195 H 2424.59 -0.438495 -1.50023 0
M  V30 26196 H 2425.33 1.7925 -2.70259 0
M  V30 26197 H 2425.11 0.475761 -3.89203 0
M  V30 26198 H 2426.6 1.46577 -3.91031 0
M  V30 26199 N 2427.04 1.51915 -0.419488 0
M  V30 26200 C 2428.29 2.01523 0.152602 0
M  V30 26201 C 2428.61 1.30651 1.44759 0
M  V30 26202 O 2427.88 0.435569 1.90996 0
M  V30 26203 H 2426.46 0.744636 0.0593835 0
M  V30 26204 H 2429.12 1.86738 -0.558105 0
M  V30 26205 H 2428.22 3.10228 0.341315 0
M  V30 26206 N 2428.52 0.150242 1.56882 0
M  V30 26207 C 2429.76 -0.500799 1.96519 0
M  V30 26208 C 2430.1 -1.64302 1.0353 0
M  V30 26209 O 2429.37 -1.94342 0.0783093 0
M  V30 26210 C 2429.66 -1.00389 3.45824 0
M  V30 26211 C 2429.51 0.137062 4.49591 0
M  V30 26212 C 2430.83 -1.8846 3.97707 0
M  V30 26213 H 2427.95 -0.180568 0.714538 0
M  V30 26214 H 2430.59 0.232124 1.88577 0
M  V30 26215 H 2428.74 -1.62845 3.52723 0
M  V30 26216 H 2430.41 0.77351 4.54769 0
M  V30 26217 H 2428.65 0.795727 4.26439 0
M  V30 26218 H 2429.32 -0.256718 5.51403 0
M  V30 26219 H 2431.8 -1.35827 3.93307 0
M  V30 26220 H 2430.68 -2.20569 5.02634 0
M  V30 26221 H 2430.94 -2.82273 3.40257 0
M  V30 26222 N 2430 -1.57115 -0.123538 0
M  V30 26223 C 2431.22 -1.89165 -0.850365 0
M  V30 26224 C 2431.65 -0.741718 -1.72859 0
M  V30 26225 O 2431 0.307926 -1.78666 0
M  V30 26226 C 2431.05 -3.19939 -1.66347 0
M  V30 26227 O 2430.16 -3.05525 -2.76999 0
M  V30 26228 H 2429.5 -0.620856 -0.235443 0
M  V30 26229 H 2432.03 -2.04318 -0.107299 0
M  V30 26230 H 2432.04 -3.52547 -2.05365 0
M  V30 26231 H 2430.71 -4.0323 -1.01874 0
M  V30 26232 H 2429.29 -2.84375 -2.41216 0
M  V30 26233 N 2431.47 0.393589 -1.52606 0
M  V30 26234 C 2432.72 1.13682 -1.67095 0
M  V30 26235 C 2433.04 1.90619 -0.411045 0
M  V30 26236 O 2432.31 1.87288 0.574458 0
M  V30 26237 H 2430.89 0.422657 -0.61593 0
M  V30 26238 H 2433.56 0.447005 -1.89705 0
M  V30 26239 H 2432.65 1.84228 -2.51926 0
M  V30 26240 N 2432.95 1.43492 0.651762 0
M  V30 26241 C 2433.89 1.43214 1.77665 0
M  V30 26242 C 2434.86 0.293408 1.59931 0
M  V30 26243 O 2436.05 0.487223 1.82094 0
M  V30 26244 C 2433.17 1.24511 3.14984 0
M  V30 26245 C 2432.22 2.41679 3.51417 0
M  V30 26246 S 2433.05 4.04228 3.51226 0
M  V30 26247 C 2434.21 3.8791 4.91199 0
M  V30 26248 H 2434.44 2.384 1.77631 0
M  V30 26249 H 2431.98 1.3054 0.824535 0
M  V30 26250 H 2433.93 1.14407 3.94235 0
M  V30 26251 H 2432.59 0.308706 3.12579 0
M  V30 26252 H 2431.79 2.24401 4.51287 0
M  V30 26253 H 2431.39 2.48416 2.79581 0
M  V30 26254 H 2433.68 3.50325 5.79895 0
M  V30 26255 H 2434.62 4.87539 5.13529 0
M  V30 26256 H 2435.03 3.20342 4.64802 0
M  V30 26257 N 2434.43 -0.890264 1.30046 0
M  V30 26258 C 2435.68 -1.64161 1.18564 0
M  V30 26259 C 2436.01 -1.92743 -0.260818 0
M  V30 26260 O 2435.26 -1.54301 -1.20373 0
M  V30 26261 C 2435.56 -2.99246 1.95415 0
M  V30 26262 C 2435.23 -2.90236 3.45071 0
M  V30 26263 C 2433.89 -2.87486 3.85883 0
M  V30 26264 C 2436.24 -2.7875 4.40395 0
M  V30 26265 C 2433.57 -2.71081 5.20319 0
M  V30 26266 C 2435.92 -2.63884 5.74933 0
M  V30 26267 C 2434.58 -2.59505 6.1499 0
M  V30 26268 H 2433.85 -0.600708 0.433856 0
M  V30 26269 H 2436.5 -1.03549 1.6109 0
M  V30 26270 H 2434.81 -3.63778 1.45508 0
M  V30 26271 H 2436.5 -3.56331 1.83927 0
M  V30 26272 H 2433.09 -2.93183 3.12637 0
M  V30 26273 H 2437.28 -2.79945 4.09811 0
M  V30 26274 H 2432.53 -2.66102 5.50454 0
M  V30 26275 H 2436.71 -2.53969 6.48439 0
M  V30 26276 H 2434.33 -2.46552 7.19108 0
M  V30 26277 N 2435.91 -1.12676 -1.1019 0
M  V30 26278 C 2437.16 -0.883638 -1.82203 0
M  V30 26279 C 2437.48 0.590459 -1.85321 0
M  V30 26280 O 2436.74 1.45261 -1.3114 0
M  V30 26281 C 2437.04 -1.40676 -3.2855 0
M  V30 26282 C 2436.7 -2.89633 -3.45577 0
M  V30 26283 C 2435.37 -3.30305 -3.49931 0
M  V30 26284 C 2437.72 -3.85507 -3.50762 0
M  V30 26285 C 2435.05 -4.65552 -3.57041 0
M  V30 26286 C 2437.4 -5.20587 -3.59404 0
M  V30 26287 C 2436.06 -5.60798 -3.62024 0
M  V30 26288 H 2435.33 -0.323346 -0.66673 0
M  V30 26289 H 2437.98 -1.40738 -1.29866 0
M  V30 26290 H 2436.28 -0.803538 -3.83472 0
M  V30 26291 H 2437.98 -1.19482 -3.82786 0
M  V30 26292 H 2434.57 -2.57178 -3.42866 0
M  V30 26293 H 2438.75 -3.55177 -3.46645 0
M  V30 26294 H 2434.01 -4.96094 -3.57353 0
M  V30 26295 H 2438.18 -5.947 -3.62361 0
M  V30 26296 H 2435.81 -6.65586 -3.67286 0
M  V30 26297 N 2437.39 1.28028 -0.919057 0
M  V30 26298 C 2438.63 1.94362 -0.553872 0
M  V30 26299 C 2438.96 1.72658 0.906326 0
M  V30 26300 O 2438.23 1.06933 1.64141 0
M  V30 26301 H 2436.81 0.719213 -0.201847 0
M  V30 26302 H 2439.47 1.55907 -1.16957 0
M  V30 26303 H 2438.56 3.02885 -0.752811 0
M  V30 26304 N 2438.86 0.683613 1.42002 0
M  V30 26305 C 2439.8 -0.0395519 2.28166 0
M  V30 26306 C 2440.78 -0.799918 1.41563 0
M  V30 26307 O 2441.96 -0.793218 1.70998 0
M  V30 26308 C 2439.09 -1.06329 3.21577 0
M  V30 26309 C 2438.13 -0.397488 4.24644 0
M  V30 26310 S 2438.97 0.851389 5.28689 0
M  V30 26311 C 2440.12 -0.171056 6.25666 0
M  V30 26312 H 2440.35 0.691279 2.89152 0
M  V30 26313 H 2437.89 0.473461 1.46962 0
M  V30 26314 H 2439.85 -1.64883 3.75931 0
M  V30 26315 H 2438.51 -1.76662 2.5971 0
M  V30 26316 H 2437.7 -1.17026 4.90225 0
M  V30 26317 H 2437.3 0.114677 3.73824 0
M  V30 26318 H 2439.59 -1.02807 6.69654 0
M  V30 26319 H 2440.54 0.450522 7.06665 0
M  V30 26320 H 2440.94 -0.520479 5.62095 0
M  V30 26321 N 2440.34 -1.5169 0.427538 0
M  V30 26322 C 2441.31 -2.26077 -0.377092 0
M  V30 26323 C 2442.31 -1.29142 -0.958066 0
M  V30 26324 O 2443.5 -1.52935 -0.834053 0
M  V30 26325 C 2440.63 -3.04508 -1.53256 0
M  V30 26326 H 2441.82 -2.98639 0.274693 0
M  V30 26327 H 2439.37 -1.55255 0.180472 0
M  V30 26328 H 2440.11 -2.36339 -2.22068 0
M  V30 26329 H 2439.89 -3.75696 -1.12226 0
M  V30 26330 H 2441.38 -3.60882 -2.10129 0
M  V30 26331 N 2441.82 -0.15856 -1.568 0
M  V30 26332 C 2443.06 0.492255 -1.98384 0
M  V30 26333 C 2443.43 1.61273 -1.04187 0
M  V30 26334 O 2444.63 2.32521 -1.3486 0
M  V30 26335 C 2442.9 0.974706 -3.43852 0
M  V30 26336 S 2444.46 1.6285 -4.07462 0
M  V30 26337 H 2441.27 0.158781 -0.693044 0
M  V30 26338 H 2443.88 -0.253008 -1.93856 0
M  V30 26339 H 2442.58 0.148616 -4.10131 0
M  V30 26340 H 2442.11 1.75431 -3.52118 0
M  V30 26341 H 2444.13 2.9162 -4.01463 0
M  V30 26342 N 2443.3 1.57178 0.115204 0
M  V30 26343 C 2444.54 1.86871 0.828166 0
M  V30 26344 C 2444.9 0.747033 1.76871 0
M  V30 26345 O 2446.1 0.92583 2.52353 0
M  V30 26346 C 2444.38 3.21794 1.55509 0
M  V30 26347 S 2445.93 3.73129 2.30911 0
M  V30 26348 H 2442.75 0.655106 0.276329 0
M  V30 26349 H 2445.35 1.95309 0.0863126 0
M  V30 26350 H 2444.06 4.0137 0.856178 0
M  V30 26351 H 2443.59 3.16443 2.33725 0
M  V30 26352 H 2445.6 3.44935 3.56699 0
M  V30 26353 N 2444.78 -0.38549 1.52813 0
M  V30 26354 C 2445.71 -1.49286 1.72595 0
M  V30 26355 C 2446.69 -1.52137 0.573846 0
M  V30 26356 O 2447.87 -1.7049 0.80407 0
M  V30 26357 C 2445 -2.87738 1.78674 0
M  V30 26358 C 2444.05 -3.02698 3.0046 0
M  V30 26359 S 2444.88 -2.7353 4.60371 0
M  V30 26360 C 2446.03 -4.14169 4.6927 0
M  V30 26361 H 2446.27 -1.32281 2.6625 0
M  V30 26362 H 2443.8 -0.578586 1.43149 0
M  V30 26363 H 2445.76 -3.67521 1.82862 0
M  V30 26364 H 2444.42 -3.02067 0.861054 0
M  V30 26365 H 2443.61 -4.04049 3.01265 0
M  V30 26366 H 2443.21 -2.30812 2.94282 0
M  V30 26367 H 2445.51 -5.08145 4.48101 0
M  V30 26368 H 2446.45 -4.18378 5.71284 0
M  V30 26369 H 2446.86 -4.00242 3.98079 0
M  V30 26370 N 2446.26 -1.43835 -0.644143 0
M  V30 26371 C 2447.5 -1.45644 -1.40115 0
M  V30 26372 C 2447.82 -0.0852755 -1.94813 0
M  V30 26373 O 2447.09 0.880657 -1.74989 0
M  V30 26374 H 2445.67 -0.536253 -0.520041 0
M  V30 26375 H 2448.34 -1.79511 -0.759069 0
M  V30 26376 H 2447.43 -2.17431 -2.23898 0
M  V30 26377 N 2447.73 0.883355 -1.30517 0
M  V30 26378 C 2449.14 1.45079 -1.17512 0
M  V30 26379 C 2449.5 1.94922 0.223571 0
M  V30 26380 O 2448.62 1.85139 1.12037 0
M  V30 26381 C 2449.22 2.63697 -2.12719 0
M  V30 26382 C 2447.77 3.16525 -2.03688 0
M  V30 26383 C 2446.92 1.8922 -2.02709 0
M  V30 26384 H 2449.87 0.69314 -1.42763 0
M  V30 26385 H 2449.89 3.39962 -1.70897 0
M  V30 26386 H 2449.41 2.27389 -3.14509 0
M  V30 26387 H 2447.51 3.57486 -1.05046 0
M  V30 26388 H 2447.62 3.79715 -2.92153 0
M  V30 26389 H 2445.98 2.0762 -1.47534 0
M  V30 26390 H 2446.77 1.55168 -3.06231 0
M  V30 26391 N 2449.21 1.13259 1.09591 0
M  V30 26392 C 2450.46 0.887949 1.81103 0
M  V30 26393 C 2450.77 -0.587639 1.86564 0
M  V30 26394 O 2451.98 -0.94916 2.54368 0
M  V30 26395 C 2450.44 1.539 3.25335 0
M  V30 26396 C 2450.04 3.05 3.28145 0
M  V30 26397 C 2451.79 1.37499 4.01615 0
M  V30 26398 C 2449.69 3.62998 4.6689 0
M  V30 26399 H 2448.62 0.328546 0.678656 0
M  V30 26400 H 2451.28 1.3601 1.2318 0
M  V30 26401 H 2449.66 0.994514 3.83309 0
M  V30 26402 H 2450.83 3.66014 2.79947 0
M  V30 26403 H 2449.15 3.20898 2.65355 0
M  V30 26404 H 2451.74 1.78244 5.04116 0
M  V30 26405 H 2452.09 0.319643 4.15071 0
M  V30 26406 H 2452.62 1.88918 3.50078 0
M  V30 26407 H 2449.36 4.68331 4.58635 0
M  V30 26408 H 2448.88 3.06761 5.1542 0
M  V30 26409 H 2450.56 3.62573 5.35864 0
M  V30 26410 N 2450.69 -1.27539 0.925834 0
M  V30 26411 C 2451.94 -1.9445 0.565289 0
M  V30 26412 C 2452.26 -1.72781 -0.89313 0
M  V30 26413 O 2451.52 -1.04898 -1.65212 0
M  V30 26414 C 2451.82 -3.475 0.835357 0
M  V30 26415 C 2451.48 -3.89287 2.27522 0
M  V30 26416 C 2450.15 -4.00406 2.66886 0
M  V30 26417 C 2452.5 -4.1049 3.21166 0
M  V30 26418 C 2449.83 -4.30115 3.99021 0
M  V30 26419 C 2452.18 -4.41682 4.52879 0
M  V30 26420 C 2450.84 -4.51014 4.9208 0
M  V30 26421 H 2450.11 -0.711542 0.206854 0
M  V30 26422 H 2452.76 -1.51645 1.16944 0
M  V30 26423 H 2451.06 -3.91518 0.148511 0
M  V30 26424 H 2452.76 -3.9741 0.535391 0
M  V30 26425 H 2449.35 -3.81168 1.95982 0
M  V30 26426 H 2453.54 -4.01341 2.91957 0
M  V30 26427 H 2448.79 -4.35549 4.29077 0
M  V30 26428 H 2452.97 -4.57036 5.25444 0
M  V30 26429 H 2450.59 -4.73789 5.94498 0
M  V30 26430 N 2452.17 -0.691135 -1.41637 0
M  V30 26431 C 2453.42 -0.219793 -2.00901 0
M  V30 26432 C 2453.74 1.18326 -1.54996 0
M  V30 26433 O 2453.01 1.7976 -0.778659 0
M  V30 26434 H 2451.59 -0.0782689 -0.742888 0
M  V30 26435 H 2454.25 -0.891301 -1.73326 0
M  V30 26436 H 2453.34 -0.233763 -3.11223 0
M  V30 26437 N 2453.65 1.51461 -0.435577 0
M  V30 26438 C 2454.58 2.24265 0.421949 0
M  V30 26439 C 2455.56 1.26129 1.02617 0
M  V30 26440 O 2456.74 1.55259 1.06897 0
M  V30 26441 C 2453.87 2.99169 1.58795 0
M  V30 26442 C 2452.91 4.11948 1.10458 0
M  V30 26443 S 2453.75 5.35478 0.0480519 0
M  V30 26444 C 2454.9 6.13919 1.21876 0
M  V30 26445 H 2455.14 2.96652 -0.196155 0
M  V30 26446 H 2452.67 1.52823 -0.220081 0
M  V30 26447 H 2454.63 3.42923 2.25641 0
M  V30 26448 H 2453.29 2.26374 2.17746 0
M  V30 26449 H 2452.48 4.63629 1.97646 0
M  V30 26450 H 2452.08 3.70446 0.514385 0
M  V30 26451 H 2454.37 6.42899 2.13745 0
M  V30 26452 H 2455.32 7.04202 0.741952 0
M  V30 26453 H 2455.73 5.45386 1.45653 0
M  V30 26454 N 2455.12 0.166873 1.56714 0
M  V30 26455 C 2456.36 -0.481728 1.98642 0
M  V30 26456 C 2456.73 -1.60719 1.05041 0
M  V30 26457 O 2457.93 -2.31803 1.36091 0
M  V30 26458 C 2456.2 -0.956457 3.44364 0
M  V30 26459 S 2457.76 -1.60687 4.0832 0
M  V30 26460 H 2454.58 -0.155104 0.693876 0
M  V30 26461 H 2457.18 0.263285 1.93719 0
M  V30 26462 H 2455.88 -0.126863 4.10204 0
M  V30 26463 H 2455.41 -1.73562 3.53044 0
M  V30 26464 H 2457.43 -2.89486 4.03004 0
M  V30 26465 N 2456.6 -1.57237 -0.106866 0
M  V30 26466 C 2457.84 -1.87308 -0.818244 0
M  V30 26467 C 2458.21 -0.756402 -1.76473 0
M  V30 26468 O 2459.41 -0.9392 -2.51858 0
M  V30 26469 C 2457.68 -3.22614 -1.53801 0
M  V30 26470 S 2459.24 -3.74349 -2.28929 0
M  V30 26471 H 2456.06 -0.656562 -0.272851 0
M  V30 26472 H 2458.66 -1.95352 -0.0759536 0
M  V30 26473 H 2457.36 -4.01818 -0.83488 0
M  V30 26474 H 2456.89 -3.17678 -2.32043 0
M  V30 26475 H 2458.91 -3.46822 -3.54865 0
M  V30 26476 N 2458.08 0.377381 -1.53015 0
M  V30 26477 C 2459.03 1.46165 -1.78618 0
M  V30 26478 C 2460 1.53691 -0.629944 0
M  V30 26479 O 2461.18 1.69765 -0.870891 0
M  V30 26480 C 2458.32 2.83257 -1.97128 0
M  V30 26481 C 2457.44 2.84791 -3.24836 0
M  V30 26482 C 2456.57 4.13383 -3.33598 0
M  V30 26483 C 2455.61 4.09013 -4.55384 0
M  V30 26484 N 2454.75 5.29233 -4.61364 0
M  V30 26485 H 2459.59 1.23632 -2.71144 0
M  V30 26486 H 2457.12 0.599553 -1.34327 0
M  V30 26487 H 2459.08 3.62882 -2.05846 0
M  V30 26488 H 2457.71 3.04214 -1.07951 0
M  V30 26489 H 2456.76 1.97468 -3.25132 0
M  V30 26490 H 2458.08 2.77432 -4.14527 0
M  V30 26491 H 2457.23 5.01418 -3.41562 0
M  V30 26492 H 2455.97 4.23479 -2.41902 0
M  V30 26493 H 2454.97 3.19366 -4.47533 0
M  V30 26494 H 2456.2 4.00529 -5.48409 0
M  V30 26495 H 2454.14 5.39937 -3.72564 0
M  V30 26496 H 2454.06 5.23996 -5.44944 0
M  V30 26497 H 2455.33 6.19133 -4.73597 0
M  V30 26498 N 2459.56 1.44175 0.636506 0
M  V30 26499 C 2460.51 1.50627 1.74872 0
M  V30 26500 C 2461.48 0.354448 1.62274 0
M  V30 26501 O 2462.66 0.56394 1.82275 0
M  V30 26502 C 2459.8 1.45131 3.13099 0
M  V30 26503 C 2458.91 2.70646 3.36712 0
M  V30 26504 C 2458.05 2.57021 4.6488 0
M  V30 26505 C 2457.09 3.77725 4.81654 0
M  V30 26506 N 2456.22 3.62809 6.01094 0
M  V30 26507 H 2461.06 2.45655 1.68693 0
M  V30 26508 H 2458.6 1.21924 0.822983 0
M  V30 26509 H 2460.56 1.39936 3.93031 0
M  V30 26510 H 2459.19 0.536727 3.18307 0
M  V30 26511 H 2458.24 2.8605 2.50758 0
M  V30 26512 H 2459.55 3.60258 3.44987 0
M  V30 26513 H 2458.71 2.49629 5.52965 0
M  V30 26514 H 2457.45 1.64961 4.58955 0
M  V30 26515 H 2456.45 3.85508 3.92 0
M  V30 26516 H 2457.68 4.70815 4.89397 0
M  V30 26517 H 2455.62 2.73496 5.96268 0
M  V30 26518 H 2455.54 4.46034 6.10402 0
M  V30 26519 H 2456.81 3.59299 6.91755 0
M  V30 26520 N 2461.04 -0.876421 1.30983 0
M  V30 26521 C 2462.28 -1.62894 1.20298 0
M  V30 26522 C 2462.61 -1.93009 -0.240361 0
M  V30 26523 O 2461.87 -1.55569 -1.1873 0
M  V30 26524 C 2462.17 -2.97156 1.98577 0
M  V30 26525 C 2461.83 -2.86559 3.4813 0
M  V30 26526 C 2460.49 -2.83377 3.8891 0
M  V30 26527 C 2462.85 -2.74063 4.43327 0
M  V30 26528 C 2460.17 -2.65547 5.23165 0
M  V30 26529 C 2462.53 -2.57771 5.777 0
M  V30 26530 C 2461.19 -2.52968 6.17708 0
M  V30 26531 H 2460.46 -0.596072 0.440203 0
M  V30 26532 H 2463.11 -1.01834 1.62179 0
M  V30 26533 H 2461.41 -3.62215 1.49358 0
M  V30 26534 H 2463.11 -3.5436 1.87696 0
M  V30 26535 H 2459.7 -2.89851 3.15729 0
M  V30 26536 H 2463.88 -2.75582 4.12757 0
M  V30 26537 H 2459.14 -2.60249 5.53245 0
M  V30 26538 H 2463.31 -2.47077 6.51096 0
M  V30 26539 H 2460.94 -2.38911 7.21682 0
M  V30 26540 N 2462.51 -1.13839 -1.08989 0
M  V30 26541 C 2463.76 -0.90113 -1.80898 0
M  V30 26542 C 2464.08 0.574101 -1.86357 0
M  V30 26543 O 2463.35 1.41731 -1.35237 0
M  V30 26544 H 2461.93 -0.330398 -0.66996 0
M  V30 26545 H 2464.6 -1.43581 -1.31798 0
M  V30 26546 H 2463.69 -1.29583 -2.83927 0
M  V30 26547 N 2463.99 1.27046 -0.932584 0
M  V30 26548 C 2464.96 2.24935 -0.440104 0
M  V30 26549 C 2465.96 1.54547 0.444044 0
M  V30 26550 O 2467.15 1.72477 0.244434 0
M  V30 26551 C 2464.28 3.38922 0.36672 0
M  V30 26552 H 2465.47 2.70016 -1.30505 0
M  V30 26553 H 2463.02 1.39052 -0.713732 0
M  V30 26554 H 2463.76 2.9923 1.25028 0
M  V30 26555 H 2463.54 3.91188 -0.267272 0
M  V30 26556 H 2465.03 4.11666 0.701495 0
M  V30 26557 N 2465.47 0.698636 1.41269 0
M  V30 26558 C 2466.72 0.231243 2.01477 0
M  V30 26559 C 2467.05 -1.1671 1.55217 0
M  V30 26560 O 2466.32 -1.78837 0.764703 0
M  V30 26561 C 2466.61 0.292344 3.58911 0
M  V30 26562 C 2466.46 1.72785 4.15289 0
M  V30 26563 C 2467.78 -0.346117 4.38737 0
M  V30 26564 H 2464.9 0.0855006 0.732024 0
M  V30 26565 H 2467.54 0.887936 1.67975 0
M  V30 26566 H 2465.69 -0.266792 3.87583 0
M  V30 26567 H 2467.36 2.34107 3.97482 0
M  V30 26568 H 2465.61 2.26103 3.70216 0
M  V30 26569 H 2466.28 1.72211 5.24449 0
M  V30 26570 H 2468.75 0.130108 4.15897 0
M  V30 26571 H 2467.63 -0.272836 5.48222 0
M  V30 26572 H 2467.89 -1.42727 4.18427 0
M  V30 26573 N 2466.95 -1.51228 0.443603 0
M  V30 26574 C 2467.88 -2.30784 -0.355102 0
M  V30 26575 C 2468.86 -1.3647 -1.01538 0
M  V30 26576 O 2470.04 -1.65391 -1.01782 0
M  V30 26577 C 2467.17 -3.15442 -1.45306 0
M  V30 26578 C 2466.13 -4.18085 -0.915929 0
M  V30 26579 C 2465.45 -4.91303 -2.11011 0
M  V30 26580 C 2466.75 -5.22272 0.053952 0
M  V30 26581 H 2468.45 -2.97803 0.308819 0
M  V30 26582 H 2465.99 -1.43217 0.149963 0
M  V30 26583 H 2467.95 -3.6988 -2.01908 0
M  V30 26584 H 2466.67 -2.46255 -2.14536 0
M  V30 26585 H 2465.33 -3.64707 -0.372081 0
M  V30 26586 H 2464.98 -4.18614 -2.78875 0
M  V30 26587 H 2464.68 -5.60715 -1.75707 0
M  V30 26588 H 2466.2 -5.48567 -2.68155 0
M  V30 26589 H 2467.62 -5.71745 -0.421969 0
M  V30 26590 H 2466.01 -5.99247 0.319881 0
M  V30 26591 H 2467.08 -4.74714 0.988663 0
M  V30 26592 N 2468.43 -0.175182 -1.56623 0
M  V30 26593 C 2469.39 0.7397 -2.16936 0
M  V30 26594 C 2470.39 1.15532 -1.11844 0
M  V30 26595 O 2471.58 1.07164 -1.37337 0
M  V30 26596 C 2468.71 2.00733 -2.75534 0
M  V30 26597 H 2469.9 0.214586 -2.99131 0
M  V30 26598 H 2467.46 0.0743922 -1.56123 0
M  V30 26599 H 2468.19 2.57544 -1.97083 0
M  V30 26600 H 2467.98 1.71825 -3.52447 0
M  V30 26601 H 2469.47 2.66016 -3.21909 0
M  V30 26602 N 2469.91 1.57292 0.0985263 0
M  V30 26603 C 2470.87 2.0086 1.10398 0
M  V30 26604 C 2471.87 0.901616 1.33145 0
M  V30 26605 O 2473.06 1.16718 1.29316 0
M  V30 26606 C 2470.19 2.36636 2.4539 0
M  V30 26607 H 2471.38 2.90904 0.729048 0
M  V30 26608 H 2468.94 1.52479 0.343468 0
M  V30 26609 H 2469.67 1.49536 2.87766 0
M  V30 26610 H 2469.46 3.17391 2.30229 0
M  V30 26611 H 2470.95 2.71013 3.17713 0
M  V30 26612 N 2471.38 -0.369261 1.53213 0
M  V30 26613 C 2472.63 -1.10958 1.68438 0
M  V30 26614 C 2472.95 -1.90569 0.440771 0
M  V30 26615 O 2474.15 -2.67339 0.473493 0
M  V30 26616 C 2472.61 -2.02174 2.97747 0
M  V30 26617 C 2472.22 -1.27892 4.29357 0
M  V30 26618 C 2473.96 -2.76221 3.22339 0
M  V30 26619 C 2471.87 -2.17989 5.49759 0
M  V30 26620 H 2470.8 -0.417929 0.627576 0
M  V30 26621 H 2473.45 -0.370853 1.79713 0
M  V30 26622 H 2471.83 -2.79763 2.80265 0
M  V30 26623 H 2473 -0.553926 4.57459 0
M  V30 26624 H 2471.32 -0.657239 4.1118 0
M  V30 26625 H 2473.92 -3.4385 4.09477 0
M  V30 26626 H 2474.26 -3.41387 2.38244 0
M  V30 26627 H 2474.79 -2.05717 3.40478 0
M  V30 26628 H 2471.53 -1.57406 6.3632 0
M  V30 26629 H 2471.05 -2.88349 5.25942 0
M  V30 26630 H 2472.73 -2.77631 5.84406 0
M  V30 26631 N 2472.86 -1.4451 -0.628851 0
M  V30 26632 C 2473.82 -1.51192 -1.72261 0
M  V30 26633 C 2474.82 -0.393698 -1.55906 0
M  V30 26634 O 2476.01 -0.656405 -1.6136 0
M  V30 26635 C 2473.15 -1.38804 -3.11362 0
M  V30 26636 H 2474.34 -2.48623 -1.6771 0
M  V30 26637 H 2471.89 -1.31636 -0.842714 0
M  V30 26638 H 2472.63 -0.424749 -3.21506 0
M  V30 26639 H 2472.41 -2.1989 -3.2464 0
M  V30 26640 H 2473.9 -1.46465 -3.91072 0
M  V30 26641 N 2474.34 0.869463 -1.31446 0
M  V30 26642 C 2475.29 1.96442 -1.15735 0
M  V30 26643 C 2476.27 1.60755 -0.0682138 0
M  V30 26644 O 2477.47 1.74555 -0.293184 0
M  V30 26645 C 2474.59 3.32163 -0.867313 0
M  V30 26646 C 2473.68 3.74116 -1.99745 0
M  V30 26647 N 2474.07 3.88025 -3.24454 0
M  V30 26648 C 2472.37 4.03632 -1.8973 0
M  V30 26649 C 2473.07 4.23872 -3.98381 0
M  V30 26650 N 2472.05 4.34584 -3.26554 0
M  V30 26651 H 2475.85 2.05308 -2.10299 0
M  V30 26652 H 2473.36 1.06029 -1.23011 0
M  V30 26653 H 2475.36 4.10357 -0.73574 0
M  V30 26654 H 2474.02 3.24624 0.0701043 0
M  V30 26655 H 2475.03 3.72739 -3.59563 0
M  V30 26656 H 2471.71 4.04479 -1.03456 0
M  V30 26657 H 2473.1 4.42226 -5.05852 0
M  V30 26658 N 2475.82 1.14415 1.08383 0
M  V30 26659 C 2476.78 0.834086 2.13485 0
M  V30 26660 C 2477.78 -0.161389 1.59988 0
M  V30 26661 O 2478.97 0.0669881 1.74071 0
M  V30 26662 C 2476.1 0.243414 3.4003 0
M  V30 26663 H 2477.3 1.76555 2.42422 0
M  V30 26664 H 2474.85 0.950211 1.24099 0
M  V30 26665 H 2475.58 -0.696751 3.16727 0
M  V30 26666 H 2475.37 0.960434 3.80155 0
M  V30 26667 H 2476.86 0.0436976 4.17577 0
M  V30 26668 N 2477.3 -1.26549 0.939309 0
M  V30 26669 C 2478.54 -1.93132 0.581635 0
M  V30 26670 C 2478.86 -1.74525 -0.883193 0
M  V30 26671 O 2480.06 -2.35548 -1.35016 0
M  V30 26672 C 2478.52 -3.46031 0.989486 0
M  V30 26673 C 2478.13 -3.73374 2.4758 0
M  V30 26674 C 2479.87 -4.18628 0.703617 0
M  V30 26675 C 2477.78 -5.19704 2.82245 0
M  V30 26676 H 2476.71 -0.723048 0.213816 0
M  V30 26677 H 2479.36 -1.43658 1.14169 0
M  V30 26678 H 2477.74 -3.94379 0.357972 0
M  V30 26679 H 2478.92 -3.35739 3.1562 0
M  V30 26680 H 2477.23 -3.14005 2.73477 0
M  V30 26681 H 2479.83 -5.26391 0.938961 0
M  V30 26682 H 2480.17 -4.14744 -0.359566 0
M  V30 26683 H 2480.7 -3.76139 1.29476 0
M  V30 26684 H 2477.44 -5.28687 3.87518 0
M  V30 26685 H 2476.96 -5.58443 2.18864 0
M  V30 26686 H 2478.64 -5.8769 2.70609 0
M  V30 26687 N 2478.77 -0.706118 -1.40896 0
M  V30 26688 C 2479.74 -0.0563244 -2.29131 0
M  V30 26689 C 2480.74 0.697141 -1.44902 0
M  V30 26690 O 2481.93 0.530455 -1.65927 0
M  V30 26691 C 2479.06 0.930372 -3.27959 0
M  V30 26692 H 2480.25 -0.833334 -2.88089 0
M  V30 26693 H 2477.8 -0.470218 -1.49059 0
M  V30 26694 H 2478.54 1.73477 -2.74 0
M  V30 26695 H 2478.32 0.393098 -3.90125 0
M  V30 26696 H 2479.81 1.38249 -3.94052 0
M  V30 26697 N 2480.25 1.50991 -0.451617 0
M  V30 26698 C 2481.5 2.025 0.110202 0
M  V30 26699 C 2481.83 1.33426 1.41107 0
M  V30 26700 O 2481.11 0.453692 1.89135 0
M  V30 26701 C 2481.39 3.58727 0.314208 0
M  V30 26702 C 2481.24 4.38399 -1.00631 0
M  V30 26703 C 2482.56 4.26704 1.07759 0
M  V30 26704 H 2479.68 0.73599 0.0385767 0
M  V30 26705 H 2482.32 1.80496 -0.593406 0
M  V30 26706 H 2480.47 3.77607 0.913535 0
M  V30 26707 H 2482.14 4.31136 -1.64072 0
M  V30 26708 H 2480.39 4.02914 -1.60757 0
M  V30 26709 H 2481.06 5.45914 -0.817437 0
M  V30 26710 H 2483.53 4.1218 0.569788 0
M  V30 26711 H 2482.41 5.35865 1.18911 0
M  V30 26712 H 2482.67 3.88536 2.10932 0
M  V30 26713 N 2481.73 0.183486 1.56528 0
M  V30 26714 C 2482.98 -0.458477 1.9642 0
M  V30 26715 C 2483.29 -1.6356 1.07273 0
M  V30 26716 O 2484.5 -2.3446 1.36897 0
M  V30 26717 C 2482.95 -0.86706 3.49299 0
M  V30 26718 C 2482.56 0.285136 4.47092 0
M  V30 26719 C 2484.31 -1.47676 3.97985 0
M  V30 26720 C 2482.21 -0.143758 5.91225 0
M  V30 26721 H 2481.14 -0.175058 0.733397 0
M  V30 26722 H 2483.79 0.273656 1.81448 0
M  V30 26723 H 2482.18 -1.65552 3.59734 0
M  V30 26724 H 2483.35 1.06258 4.48381 0
M  V30 26725 H 2481.66 0.805575 4.08533 0
M  V30 26726 H 2484.26 -1.8099 5.03137 0
M  V30 26727 H 2484.6 -2.37908 3.41622 0
M  V30 26728 H 2485.14 -0.752494 3.90618 0
M  V30 26729 H 2481.88 0.724089 6.51488 0
M  V30 26730 H 2481.4 -0.886309 5.93215 0
M  V30 26731 H 2483.08 -0.583515 6.44363 0
M  V30 26732 N 2483.21 -1.57342 -0.0901833 0
M  V30 26733 C 2484.46 -1.85521 -0.791498 0
M  V30 26734 C 2484.77 -0.773472 -1.79657 0
M  V30 26735 O 2485.98 -0.942542 -2.54614 0
M  V30 26736 C 2484.43 -3.29022 -1.4585 0
M  V30 26737 C 2484.04 -4.4528 -0.492939 0
M  V30 26738 C 2485.78 -3.66422 -2.14326 0
M  V30 26739 C 2483.69 -5.79816 -1.16481 0
M  V30 26740 H 2482.62 -0.692033 -0.299344 0
M  V30 26741 H 2485.27 -1.83446 -0.0445021 0
M  V30 26742 H 2483.65 -3.25654 -2.25313 0
M  V30 26743 H 2484.83 -4.60005 0.270545 0
M  V30 26744 H 2483.14 -4.1631 0.0863793 0
M  V30 26745 H 2485.74 -4.64221 -2.65336 0
M  V30 26746 H 2486.08 -2.95293 -2.93442 0
M  V30 26747 H 2486.62 -3.717 -1.41717 0
M  V30 26748 H 2483.35 -6.54189 -0.414355 0
M  V30 26749 H 2482.87 -5.68925 -1.8996 0
M  V30 26750 H 2484.55 -6.24541 -1.6899 0
M  V30 26751 N 2484.69 0.36113 -1.53407 0
M  V30 26752 C 2485.62 1.44853 -1.83139 0
M  V30 26753 C 2486.6 1.55689 -0.685201 0
M  V30 26754 O 2487.78 1.70184 -0.93547 0
M  V30 26755 C 2484.91 2.82135 -2.02527 0
M  V30 26756 C 2483.87 2.8612 -3.18307 0
M  V30 26757 C 2483.19 4.26119 -3.22996 0
M  V30 26758 C 2484.49 2.5324 -4.56801 0
M  V30 26759 H 2486.19 1.20221 -2.74203 0
M  V30 26760 H 2483.73 0.576899 -1.31939 0
M  V30 26761 H 2485.69 3.58237 -2.2191 0
M  V30 26762 H 2484.41 3.08164 -1.08177 0
M  V30 26763 H 2483.07 2.12469 -2.98751 0
M  V30 26764 H 2482.72 4.49231 -2.26275 0
M  V30 26765 H 2482.42 4.29701 -4.00788 0
M  V30 26766 H 2483.94 5.04088 -3.44568 0
M  V30 26767 H 2485.35 3.19056 -4.76315 0
M  V30 26768 H 2483.75 2.68131 -5.36866 0
M  V30 26769 H 2484.82 1.48476 -4.61609 0
M  V30 26770 N 2486.16 1.44842 0.621179 0
M  V30 26771 C 2487.09 1.55306 1.74363 0
M  V30 26772 C 2488.08 0.405414 1.65198 0
M  V30 26773 O 2489.26 0.62682 1.83806 0
M  V30 26774 C 2486.39 1.50643 3.12928 0
M  V30 26775 C 2485.34 2.63985 3.36892 0
M  V30 26776 C 2484.67 2.44375 4.75589 0
M  V30 26777 C 2485.97 4.0608 3.28476 0
M  V30 26778 H 2487.66 2.49259 1.65863 0
M  V30 26779 H 2485.21 1.19964 0.796537 0
M  V30 26780 H 2487.16 1.56562 3.91237 0
M  V30 26781 H 2485.89 0.532114 3.22236 0
M  V30 26782 H 2484.55 2.57471 2.60967 0
M  V30 26783 H 2484.19 1.45113 4.81613 0
M  V30 26784 H 2483.89 3.20373 4.9258 0
M  V30 26785 H 2485.42 2.52127 5.56115 0
M  V30 26786 H 2486.83 4.13909 3.96676 0
M  V30 26787 H 2485.23 4.8236 3.57 0
M  V30 26788 H 2486.3 4.28947 2.26125 0
M  V30 26789 N 2487.64 -0.862479 1.31905 0
M  V30 26790 C 2488.89 -1.61849 1.222 0
M  V30 26791 C 2489.22 -1.92977 -0.217607 0
M  V30 26792 O 2488.5 -1.56668 -1.15262 0
M  V30 26793 C 2488.78 -2.94388 2.07384 0
M  V30 26794 C 2488.63 -2.7009 3.59682 0
M  V30 26795 C 2489.95 -3.95574 1.92898 0
M  V30 26796 H 2487.07 -0.587288 0.445266 0
M  V30 26797 H 2489.71 -0.996481 1.61772 0
M  V30 26798 H 2487.86 -3.47474 1.73765 0
M  V30 26799 H 2489.53 -2.23618 4.03476 0
M  V30 26800 H 2487.78 -2.0419 3.82739 0
M  V30 26801 H 2488.45 -3.6443 4.14602 0
M  V30 26802 H 2490.92 -3.5172 2.22333 0
M  V30 26803 H 2489.8 -4.86183 2.5479 0
M  V30 26804 H 2490.06 -4.32958 0.894391 0
M  V30 26805 N 2489.12 -1.14988 -1.07775 0
M  V30 26806 C 2490.37 -0.916649 -1.79668 0
M  V30 26807 C 2490.68 0.557884 -1.87475 0
M  V30 26808 O 2491.89 0.908572 -2.55846 0
M  V30 26809 C 2490.34 -1.59057 -3.22845 0
M  V30 26810 C 2489.95 -3.10181 -3.23251 0
M  V30 26811 C 2491.7 -1.43871 -3.99376 0
M  V30 26812 C 2489.6 -3.7038 -4.61056 0
M  V30 26813 H 2488.53 -0.339301 -0.673343 0
M  V30 26814 H 2491.18 -1.37953 -1.21001 0
M  V30 26815 H 2489.57 -1.05537 -3.81678 0
M  V30 26816 H 2490.74 -3.70422 -2.74088 0
M  V30 26817 H 2489.06 -3.25079 -2.60217 0
M  V30 26818 H 2491.65 -1.86241 -5.01217 0
M  V30 26819 H 2492 -0.385637 -4.1451 0
M  V30 26820 H 2492.53 -1.94463 -3.47029 0
M  V30 26821 H 2489.27 -4.75568 -4.51126 0
M  V30 26822 H 2488.79 -3.14922 -5.10475 0
M  V30 26823 H 2490.47 -3.71052 -5.30028 0
M  V30 26824 N 2490.6 1.26049 -0.946007 0
M  V30 26825 C 2491.85 1.93526 -0.596153 0
M  V30 26826 C 2492.17 1.74181 0.865528 0
M  V30 26827 O 2491.43 1.07513 1.63522 0
M  V30 26828 C 2491.73 3.46127 -0.890536 0
M  V30 26829 C 2491.39 3.85618 -2.33687 0
M  V30 26830 C 2490.06 3.9611 -2.73223 0
M  V30 26831 C 2492.41 4.05329 -3.27655 0
M  V30 26832 C 2489.74 4.23713 -4.05813 0
M  V30 26833 C 2492.09 4.34422 -4.59849 0
M  V30 26834 C 2490.75 4.43129 -4.99193 0
M  V30 26835 H 2490.02 0.708161 -0.218148 0
M  V30 26836 H 2492.67 1.49765 -1.19342 0
M  V30 26837 H 2490.97 3.91233 -0.21078 0
M  V30 26838 H 2492.67 3.96508 -0.598548 0
M  V30 26839 H 2489.26 3.78002 -2.02022 0
M  V30 26840 H 2493.44 3.96646 -2.98305 0
M  V30 26841 H 2488.7 4.28667 -4.35952 0
M  V30 26842 H 2492.87 4.48619 -5.32648 0
M  V30 26843 H 2490.5 4.64271 -6.0196 0
M  V30 26844 N 2492.08 0.71358 1.4052 0
M  V30 26845 C 2492.99 0.0607079 2.34521 0
M  V30 26846 C 2494 -0.746043 1.57195 0
M  V30 26847 O 2495.18 -0.67946 1.89592 0
M  V30 26848 C 2492.24 -0.851432 3.36083 0
M  V30 26849 C 2491.3 -0.0348584 4.29286 0
M  V30 26850 C 2490.54 -0.903557 5.25996 0
M  V30 26851 O 2490.76 -2.14282 5.2862 0
M  V30 26852 O 2489.69 -0.343618 6.00918 0
M  V30 26853 H 2493.52 0.836023 2.91966 0
M  V30 26854 H 2491.11 0.474045 1.4168 0
M  V30 26855 H 2492.99 -1.37397 3.98372 0
M  V30 26856 H 2491.66 -1.60593 2.81055 0
M  V30 26857 H 2490.57 0.532698 3.70288 0
M  V30 26858 H 2491.9 0.681372 4.87461 0
M  V30 26859 N 2493.55 -1.50749 0.459618 0
M  V30 26860 C 2494.8 -2.02556 -0.099461 0
M  V30 26861 C 2495.13 -1.34173 -1.40397 0
M  V30 26862 O 2494.41 -0.463716 -1.88891 0
M  V30 26863 C 2494.69 -3.58888 -0.295179 0
M  V30 26864 C 2494.54 -4.37859 1.02954 0
M  V30 26865 C 2495.86 -4.27269 -1.05495 0
M  V30 26866 H 2492.98 -0.736184 -0.0346731 0
M  V30 26867 H 2495.62 -1.80178 0.60297 0
M  V30 26868 H 2493.77 -3.78086 -0.893497 0
M  V30 26869 H 2495.45 -4.3026 1.66356 0
M  V30 26870 H 2493.69 -4.02056 1.62892 0
M  V30 26871 H 2494.36 -5.45473 0.846377 0
M  V30 26872 H 2496.84 -4.12477 -0.547921 0
M  V30 26873 H 2495.71 -5.36488 -1.16068 0
M  V30 26874 H 2495.97 -3.89649 -2.08868 0
M  V30 26875 N 2495.03 -0.191784 -1.56429 0
M  V30 26876 C 2495.97 0.769632 -2.1483 0
M  V30 26877 C 2496.94 1.21188 -1.08407 0
M  V30 26878 O 2498.13 1.29999 -1.36501 0
M  V30 26879 C 2495.25 2.03898 -2.7045 0
M  V30 26880 C 2494.3 1.73913 -3.89431 0
M  V30 26881 S 2495.13 0.890172 -5.28049 0
M  V30 26882 C 2496.29 2.16974 -5.87089 0
M  V30 26883 H 2496.52 0.273152 -2.96043 0
M  V30 26884 H 2494.06 0.0231703 -1.54383 0
M  V30 26885 H 2496.01 2.76797 -3.03139 0
M  V30 26886 H 2494.67 2.50659 -1.89285 0
M  V30 26887 H 2493.87 2.68148 -4.26747 0
M  V30 26888 H 2493.47 1.09097 -3.57734 0
M  V30 26889 H 2495.76 3.12259 -6.01249 0
M  V30 26890 H 2496.7 1.84096 -6.8375 0
M  V30 26891 H 2497.11 2.29669 -5.15667 0
M  V30 26892 N 2496.51 1.57387 0.0818378 0
M  V30 26893 C 2497.76 1.86754 0.782882 0
M  V30 26894 C 2498.09 0.782149 1.78081 0
M  V30 26895 O 2497.34 -0.222916 1.94426 0
M  V30 26896 C 2497.64 3.22754 1.53507 0
M  V30 26897 C 2497.31 4.45773 0.678056 0
M  V30 26898 C 2495.97 4.79167 0.441845 0
M  V30 26899 C 2498.32 5.21134 0.0831327 0
M  V30 26900 C 2495.65 5.85342 -0.398936 0
M  V30 26901 C 2498 6.28197 -0.745045 0
M  V30 26902 C 2496.66 6.60099 -0.991223 0
M  V30 26903 H 2495.93 0.683383 0.286477 0
M  V30 26904 H 2498.58 1.9145 0.0439472 0
M  V30 26905 H 2496.89 3.13804 2.34594 0
M  V30 26906 H 2498.58 3.42708 2.08212 0
M  V30 26907 H 2495.17 4.1963 0.872283 0
M  V30 26908 H 2499.36 4.95656 0.25276 0
M  V30 26909 H 2494.61 6.08463 -0.598512 0
M  V30 26910 H 2498.79 6.85758 -1.21283 0
M  V30 26911 H 2496.41 7.42199 -1.6445 0
M  V30 26912 N 2497.99 -0.35299 1.53596 0
M  V30 26913 C 2499.24 -1.09428 1.70387 0
M  V30 26914 C 2499.56 -1.8893 0.462146 0
M  V30 26915 O 2498.82 -1.87634 -0.556041 0
M  V30 26916 C 2499.12 -2.07049 2.91317 0
M  V30 26917 C 2498.78 -1.43931 4.27311 0
M  V30 26918 C 2497.45 -1.26446 4.6429 0
M  V30 26919 C 2499.8 -0.983793 5.11831 0
M  V30 26920 C 2497.13 -0.620123 5.83414 0
M  V30 26921 C 2499.48 -0.353405 6.31612 0
M  V30 26922 C 2498.14 -0.166154 6.67293 0
M  V30 26923 H 2497.41 -0.400425 0.623491 0
M  V30 26924 H 2500.06 -0.374622 1.878 0
M  V30 26925 H 2498.36 -2.85363 2.68468 0
M  V30 26926 H 2500.06 -2.64381 3.01502 0
M  V30 26927 H 2496.65 -1.58536 3.98201 0
M  V30 26928 H 2500.83 -1.10677 4.83802 0
M  V30 26929 H 2496.09 -0.463574 6.0964 0
M  V30 26930 H 2500.26 0.00769796 6.964 0
M  V30 26931 H 2497.89 0.335181 7.59461 0
M  V30 26932 N 2499.47 -1.45169 -0.613489 0
M  V30 26933 C 2500.4 -1.56228 -1.73537 0
M  V30 26934 C 2501.38 -0.414169 -1.64981 0
M  V30 26935 O 2502.56 -0.636558 -1.83471 0
M  V30 26936 C 2499.69 -1.523 -3.12125 0
M  V30 26937 C 2498.65 -2.65768 -3.35487 0
M  V30 26938 C 2497.97 -2.46893 -4.74287 0
M  V30 26939 C 2499.27 -4.07816 -3.26318 0
M  V30 26940 H 2500.97 -2.50135 -1.64538 0
M  V30 26941 H 2498.51 -1.20384 -0.790164 0
M  V30 26942 H 2500.47 -1.58635 -3.90401 0
M  V30 26943 H 2499.19 -0.549195 -3.21949 0
M  V30 26944 H 2497.85 -2.58852 -2.59598 0
M  V30 26945 H 2497.5 -1.47665 -4.80837 0
M  V30 26946 H 2497.2 -3.22981 -4.90874 0
M  V30 26947 H 2498.72 -2.55073 -5.5477 0
M  V30 26948 H 2500.14 -4.16007 -3.94476 0
M  V30 26949 H 2498.53 -4.84247 -3.54437 0
M  V30 26950 H 2499.6 -4.3014 -2.23847 0
M  V30 26951 N 2500.95 0.855472 -1.32361 0
M  V30 26952 C 2501.86 1.99632 -1.23225 0
M  V30 26953 C 2502.87 1.73386 -0.146013 0
M  V30 26954 O 2504.05 1.98037 -0.366537 0
M  V30 26955 C 2501.11 3.33292 -0.95484 0
M  V30 26956 C 2500.17 3.72765 -2.12943 0
M  V30 26957 C 2499.41 5.00047 -1.86517 0
M  V30 26958 O 2499.63 5.64658 -0.80733 0
M  V30 26959 O 2498.56 5.36631 -2.726 0
M  V30 26960 H 2502.39 2.10276 -2.1913 0
M  V30 26961 H 2499.97 0.985999 -1.12243 0
M  V30 26962 H 2501.86 4.13412 -0.816592 0
M  V30 26963 H 2500.53 3.2369 -0.0259423 0
M  V30 26964 H 2499.44 2.93224 -2.32315 0
M  V30 26965 H 2500.77 3.87012 -3.04109 0
M  V30 26966 N 2502.42 1.15558 1.07164 0
M  V30 26967 C 2503.65 0.95602 1.84052 0
M  V30 26968 C 2504.07 -0.490707 1.81587 0
M  V30 26969 O 2503.43 -1.34995 1.21021 0
M  V30 26970 C 2503.48 1.4772 3.28955 0
M  V30 26971 O 2502.58 0.677664 4.06794 0
M  V30 26972 H 2501.92 0.340857 0.569836 0
M  V30 26973 H 2504.45 1.53586 1.35175 0
M  V30 26974 H 2504.46 1.49086 3.79786 0
M  V30 26975 H 2503.14 2.53043 3.30064 0
M  V30 26976 H 2501.72 0.733786 3.65609 0
M  V30 26977 N 2503.9 -1.25546 0.952678 0
M  V30 26978 C 2505.15 -1.93821 0.61686 0
M  V30 26979 C 2505.5 -1.73257 -0.836654 0
M  V30 26980 O 2504.8 -1.06587 -1.59216 0
M  V30 26981 C 2504.99 -3.4565 0.908879 0
M  V30 26982 C 2504.82 -3.8098 2.38923 0
M  V30 26983 C 2503.59 -4.03138 3.04644 0
M  V30 26984 C 2505.79 -3.88639 3.36845 0
M  V30 26985 N 2503.77 -4.25445 4.42572 0
M  V30 26986 C 2505.14 -4.15612 4.60073 0
M  V30 26987 C 2507.19 -3.71312 3.3171 0
M  V30 26988 C 2505.9 -4.2706 5.78802 0
M  V30 26989 C 2507.92 -3.83999 4.49777 0
M  V30 26990 C 2507.29 -4.11382 5.7179 0
M  V30 26991 H 2503.38 -0.73156 0.276303 0
M  V30 26992 H 2505.97 -1.51378 1.22445 0
M  V30 26993 H 2504.14 -3.86994 0.330234 0
M  V30 26994 H 2505.87 -4.01173 0.533164 0
M  V30 26995 H 2502.63 -3.98947 2.55222 0
M  V30 26996 H 2503.05 -4.40608 5.13998 0
M  V30 26997 H 2507.69 -3.4916 2.38426 0
M  V30 26998 H 2505.41 -4.48029 6.72529 0
M  V30 26999 H 2509 -3.71981 4.47349 0
M  V30 27000 H 2507.88 -4.20978 6.61625 0
M  V30 27001 N 2505.38 -0.721022 -1.40139 0
M  V30 27002 C 2506.6 -0.271295 -2.05618 0
M  V30 27003 C 2507.03 1.08036 -1.5398 0
M  V30 27004 O 2506.39 1.68166 -0.677493 0
M  V30 27005 C 2506.44 -0.26726 -3.59608 0
M  V30 27006 O 2505.54 0.749743 -4.05528 0
M  V30 27007 H 2504.88 -0.126174 -0.651902 0
M  V30 27008 H 2507.41 -0.983029 -1.79437 0
M  V30 27009 H 2507.42 -0.106816 -4.0786 0
M  V30 27010 H 2506.1 -1.25361 -3.96557 0
M  V30 27011 H 2504.67 0.556579 -3.68723 0
M  V30 27012 N 2506.86 1.50503 -0.467606 0
M  V30 27013 C 2508.1 2.03239 0.0808512 0
M  V30 27014 C 2508.46 1.34355 1.37719 0
M  V30 27015 O 2507.75 0.459226 1.86015 0
M  V30 27016 C 2507.95 3.55929 0.323932 0
M  V30 27017 C 2507.77 4.39609 -0.947292 0
M  V30 27018 C 2506.54 4.82845 -1.48959 0
M  V30 27019 C 2508.74 4.80192 -1.84174 0
M  V30 27020 N 2506.72 5.50837 -2.7102 0
M  V30 27021 C 2508.1 5.47559 -2.90825 0
M  V30 27022 C 2510.15 4.62153 -1.85254 0
M  V30 27023 C 2508.85 5.98798 -3.98539 0
M  V30 27024 C 2510.88 5.1433 -2.91923 0
M  V30 27025 C 2510.24 5.81669 -3.97292 0
M  V30 27026 H 2506.34 0.781931 -0.0103531 0
M  V30 27027 H 2508.92 1.84053 -0.635036 0
M  V30 27028 H 2507.1 3.75069 1.00886 0
M  V30 27029 H 2508.83 3.95317 0.866423 0
M  V30 27030 H 2505.58 4.62057 -1.03926 0
M  V30 27031 H 2506.01 5.89442 -3.32998 0
M  V30 27032 H 2510.65 4.09526 -1.0511 0
M  V30 27033 H 2508.37 6.50464 -4.79503 0
M  V30 27034 H 2511.95 5.02205 -2.93738 0
M  V30 27035 H 2510.83 6.21316 -4.78473 0
M  V30 27036 N 2508.34 0.200077 1.56325 0
M  V30 27037 C 2509.75 -0.311638 1.84081 0
M  V30 27038 C 2510.1 -1.61029 1.1209 0
M  V30 27039 O 2509.22 -2.12977 0.383358 0
M  V30 27040 C 2509.82 -0.572201 3.33933 0
M  V30 27041 C 2508.38 -1.02827 3.62082 0
M  V30 27042 C 2507.52 -0.0795852 2.77186 0
M  V30 27043 H 2510.47 0.423756 1.52938 0
M  V30 27044 H 2510.5 -1.4209 3.52974 0
M  V30 27045 H 2510.01 0.373147 3.86302 0
M  V30 27046 H 2508.11 -1.98773 3.15151 0
M  V30 27047 H 2508.22 -0.917541 4.70232 0
M  V30 27048 H 2506.59 -0.582404 2.47952 0
M  V30 27049 H 2507.37 0.860297 3.32346 0
M  V30 27050 N 2509.81 -1.57429 -0.0734901 0
M  V30 27051 C 2511.23 -1.53747 -0.428237 0
M  V30 27052 C 2511.43 -0.920011 -1.79271 0
M  V30 27053 O 2510.49 -0.521788 -2.4705 0
M  V30 27054 C 2511.8 -2.98404 -0.370862 0
M  V30 27055 C 2513.35 -3.09731 -0.45117 0
M  V30 27056 C 2513.82 -4.56036 -0.42372 0
M  V30 27057 N 2515.31 -4.60666 -0.483844 0
M  V30 27058 C 2516.05 -5.71347 -0.48479 0
M  V30 27059 N 2515.54 -6.91397 -0.440653 0
M  V30 27060 N 2517.34 -5.59584 -0.531221 0
M  V30 27061 H 2509.49 -1.95934 0.819983 0
M  V30 27062 H 2511.75 -0.89674 0.307509 0
M  V30 27063 H 2511.46 -3.47132 0.565017 0
M  V30 27064 H 2511.33 -3.58212 -1.1817 0
M  V30 27065 H 2513.72 -2.60978 -1.37747 0
M  V30 27066 H 2513.8 -2.52837 0.388211 0
M  V30 27067 H 2513.44 -5.05445 0.498727 0
M  V30 27068 H 2513.37 -5.10791 -1.28061 0
M  V30 27069 H 2515.86 -3.74274 -0.522272 0
M  V30 27070 H 2516.18 -7.71516 -0.445254 0
M  V30 27071 H 2514.52 -6.93805 -0.407368 0
M  V30 27072 H 2517.71 -4.64697 -0.563383 0
M  V30 27073 H 2517.89 -6.45841 -0.528489 0
M  V30 27074 N 2511.29 0.344839 -1.53781 0
M  V30 27075 C 2512.22 1.44657 -1.76492 0
M  V30 27076 C 2513.2 1.50562 -0.613981 0
M  V30 27077 O 2514.39 1.68299 -0.84899 0
M  V30 27078 C 2511.51 2.829 -1.8624 0
M  V30 27079 C 2510.56 2.94625 -3.0838 0
M  V30 27080 S 2511.39 2.61228 -4.67461 0
M  V30 27081 C 2512.55 4.01582 -4.80086 0
M  V30 27082 H 2512.78 1.25175 -2.69664 0
M  V30 27083 H 2510.31 0.540429 -1.44633 0
M  V30 27084 H 2512.27 3.62544 -1.92541 0
M  V30 27085 H 2510.93 2.99678 -0.940839 0
M  V30 27086 H 2510.13 3.95919 -3.11872 0
M  V30 27087 H 2509.73 2.22928 -3.00298 0
M  V30 27088 H 2512.02 4.96086 -4.61416 0
M  V30 27089 H 2512.96 4.03085 -5.82175 0
M  V30 27090 H 2513.37 3.89547 -4.08551 0
M  V30 27091 N 2512.77 1.45492 0.605781 0
M  V30 27092 C 2514.02 1.49825 1.36676 0
M  V30 27093 C 2514.35 0.140209 1.93693 0
M  V30 27094 O 2513.62 -0.84555 1.75159 0
M  V30 27095 C 2513.91 2.57883 2.51333 0
M  V30 27096 C 2513.76 4.03137 1.995 0
M  V30 27097 C 2515.08 2.62212 3.53459 0
M  V30 27098 H 2512.2 0.545475 0.495607 0
M  V30 27099 H 2514.84 1.77311 0.682701 0
M  V30 27100 H 2512.99 2.34577 3.09687 0
M  V30 27101 H 2514.66 4.37659 1.45782 0
M  V30 27102 H 2512.9 4.13709 1.30489 0
M  V30 27103 H 2513.58 4.74436 2.82161 0
M  V30 27104 H 2516.05 2.831 3.04948 0
M  V30 27105 H 2514.93 3.3968 4.31172 0
M  V30 27106 H 2515.19 1.6737 4.09194 0
M  V30 27107 N 2514.25 -0.848441 1.32813 0
M  V30 27108 C 2515.18 -1.97297 1.24885 0
M  V30 27109 C 2516.16 -1.69592 0.131386 0
M  V30 27110 O 2517.34 -1.91552 0.319586 0
M  V30 27111 C 2514.47 -3.33259 0.977518 0
M  V30 27112 C 2513.43 -3.75335 2.05689 0
M  V30 27113 C 2512.75 -5.08997 1.63786 0
M  V30 27114 C 2514.05 -3.90137 3.47261 0
M  V30 27115 H 2515.75 -2.04187 2.1897 0
M  V30 27116 H 2513.29 -0.98101 1.05414 0
M  V30 27117 H 2515.25 -4.11488 0.908585 0
M  V30 27118 H 2513.97 -3.266 0.00103742 0
M  V30 27119 H 2512.63 -2.99362 2.11608 0
M  V30 27120 H 2512.28 -4.988 0.648656 0
M  V30 27121 H 2511.98 -5.3812 2.36009 0
M  V30 27122 H 2513.5 -5.89712 1.58341 0
M  V30 27123 H 2514.92 -4.58703 3.43896 0
M  V30 27124 H 2513.31 -4.30685 4.17888 0
M  V30 27125 H 2514.38 -2.92867 3.86467 0
M  V30 27126 N 2515.73 -1.16125 -1.06549 0
M  V30 27127 C 2516.97 -0.939299 -1.78946 0
M  V30 27128 C 2517.3 0.534443 -1.87533 0
M  V30 27129 O 2516.57 1.3883 -1.38213 0
M  V30 27130 H 2515.15 -0.344534 -0.662801 0
M  V30 27131 H 2517.81 -1.46344 -1.28722 0
M  V30 27132 H 2516.9 -1.35577 -2.81114 0
M  V30 27133 N 2517.2 1.25039 -0.959323 0
M  V30 27134 C 2518.14 2.24161 -0.427458 0
M  V30 27135 C 2519.12 1.5492 0.49381 0
M  V30 27136 O 2520.3 1.83597 0.427112 0
M  V30 27137 C 2517.43 3.36518 0.383834 0
M  V30 27138 C 2516.47 4.23807 -0.478506 0
M  V30 27139 S 2517.31 5.00141 -1.91362 0
M  V30 27140 C 2518.46 6.15963 -1.11088 0
M  V30 27141 H 2518.69 2.68928 -1.26748 0
M  V30 27142 H 2516.23 1.34188 -0.763737 0
M  V30 27143 H 2518.19 4.01688 0.845968 0
M  V30 27144 H 2516.85 2.90326 1.19873 0
M  V30 27145 H 2516.04 5.03794 0.143972 0
M  V30 27146 H 2515.64 3.63595 -0.876034 0
M  V30 27147 H 2517.93 6.76533 -0.361818 0
M  V30 27148 H 2518.88 6.82554 -1.88484 0
M  V30 27149 H 2519.28 5.60872 -0.638942 0
M  V30 27150 N 2518.68 0.728444 1.39755 0
M  V30 27151 C 2519.93 0.270443 1.99879 0
M  V30 27152 C 2520.24 -1.14685 1.58451 0
M  V30 27153 O 2521.45 -1.70403 2.11365 0
M  V30 27154 C 2519.91 0.432583 3.57291 0
M  V30 27155 C 2519.51 1.85734 4.07685 0
M  V30 27156 C 2521.26 0.0360253 4.24485 0
M  V30 27157 C 2519.17 1.96938 5.57646 0
M  V30 27158 H 2518.1 0.0973603 0.747688 0
M  V30 27159 H 2520.75 0.901384 1.59835 0
M  V30 27160 H 2519.13 -0.26715 3.95098 0
M  V30 27161 H 2520.3 2.58849 3.81226 0
M  V30 27162 H 2518.62 2.20652 3.53131 0
M  V30 27163 H 2521.21 0.0988423 5.34609 0
M  V30 27164 H 2521.56 -1.0078 4.03917 0
M  V30 27165 H 2522.09 0.686673 3.91829 0
M  V30 27166 H 2518.83 2.99486 5.83085 0
M  V30 27167 H 2518.35 1.28251 5.85928 0
M  V30 27168 H 2520.03 1.74748 6.22954 0
M  V30 27169 N 2520.16 -1.50253 0.475581 0
M  V30 27170 C 2521.39 -2.07255 -0.0776678 0
M  V30 27171 C 2521.81 -1.33662 -1.32348 0
M  V30 27172 O 2521.17 -0.385628 -1.77151 0
M  V30 27173 C 2521.22 -3.58993 -0.340106 0
M  V30 27174 O 2520.32 -3.87191 -1.41975 0
M  V30 27175 H 2519.66 -0.663831 0.0149673 0
M  V30 27176 H 2522.19 -1.93391 0.667912 0
M  V30 27177 H 2522.2 -4.03867 -0.579261 0
M  V30 27178 H 2520.88 -4.11972 0.570239 0
M  V30 27179 H 2519.45 -3.5415 -1.16756 0
M  V30 27180 N 2521.64 -0.208365 -1.56217 0
M  V30 27181 C 2522.6 0.693518 -2.18456 0
M  V30 27182 C 2523.6 1.13133 -1.1427 0
M  V30 27183 O 2524.79 1.04227 -1.39579 0
M  V30 27184 C 2521.92 1.94843 -2.7973 0
M  V30 27185 H 2523.12 0.151088 -2.99519 0
M  V30 27186 H 2520.67 0.0412595 -1.56246 0
M  V30 27187 H 2521.4 2.53306 -2.02501 0
M  V30 27188 H 2521.19 1.6431 -3.56012 0
M  V30 27189 H 2522.68 2.59128 -3.27479 0
M  V30 27190 N 2523.12 1.57465 0.0651402 0
M  V30 27191 C 2524.08 2.03157 1.06113 0
M  V30 27192 C 2525.08 0.929655 1.31202 0
M  V30 27193 O 2526.27 1.19435 1.26811 0
M  V30 27194 C 2523.4 2.41788 2.40315 0
M  V30 27195 H 2524.59 2.92385 0.667179 0
M  V30 27196 H 2522.15 1.53174 0.311048 0
M  V30 27197 H 2522.88 1.55606 2.8453 0
M  V30 27198 H 2522.67 3.22203 2.23445 0
M  V30 27199 H 2524.16 2.77691 3.11893 0
M  V30 27200 N 2524.59 -0.336679 1.53962 0
M  V30 27201 C 2525.56 -1.39672 1.81726 0
M  V30 27202 C 2526.56 -1.45312 0.688558 0
M  V30 27203 O 2527.75 -1.45568 0.956854 0
M  V30 27204 C 2524.88 -2.78535 1.96548 0
M  V30 27205 H 2526.07 -1.16314 2.76426 0
M  V30 27206 H 2523.63 -0.571448 1.45479 0
M  V30 27207 H 2524.36 -3.07167 1.04015 0
M  V30 27208 H 2524.15 -2.75836 2.7867 0
M  V30 27209 H 2525.64 -3.55246 2.19522 0
M  V30 27210 N 2526.07 -1.45812 -0.598057 0
M  V30 27211 C 2527.32 -1.49596 -1.35292 0
M  V30 27212 C 2527.63 -0.145713 -1.95056 0
M  V30 27213 O 2528.84 -0.0612576 -2.71431 0
M  V30 27214 C 2527.3 -2.63523 -2.45119 0
M  V30 27215 C 2526.9 -4.04902 -1.91725 0
M  V30 27216 C 2528.65 -2.76563 -3.22045 0
M  V30 27217 C 2526.56 -5.10195 -2.99091 0
M  V30 27218 H 2525.49 -0.556687 -0.508542 0
M  V30 27219 H 2528.14 -1.71979 -0.639947 0
M  V30 27220 H 2526.52 -2.3444 -3.19145 0
M  V30 27221 H 2527.69 -4.43706 -1.24344 0
M  V30 27222 H 2526.01 -3.96395 -1.27515 0
M  V30 27223 H 2528.6 -3.52398 -4.02144 0
M  V30 27224 H 2528.95 -1.83533 -3.73659 0
M  V30 27225 H 2529.48 -3.05218 -2.55121 0
M  V30 27226 H 2526.22 -6.04966 -2.52382 0
M  V30 27227 H 2525.74 -4.75951 -3.65008 0
M  V30 27228 H 2527.42 -5.35365 -3.63309 0
M  V30 27229 N 2527.55 0.841385 -1.33261 0
M  V30 27230 C 2528.48 1.95802 -1.19139 0
M  V30 27231 C 2529.5 1.62335 -0.122994 0
M  V30 27232 O 2530.68 1.74555 -0.373185 0
M  V30 27233 C 2527.78 3.29217 -0.804326 0
M  V30 27234 C 2526.96 3.90836 -1.96383 0
M  V30 27235 C 2526.02 5.02601 -1.55815 0
M  V30 27236 O 2525.04 5.21884 -2.27213 0
M  V30 27237 N 2526.24 5.78661 -0.461711 0
M  V30 27238 H 2529.01 2.08454 -2.1533 0
M  V30 27239 H 2526.57 1.01698 -1.25973 0
M  V30 27240 H 2528.56 4.01409 -0.515081 0
M  V30 27241 H 2527.13 3.12529 0.0668259 0
M  V30 27242 H 2526.35 3.11265 -2.41884 0
M  V30 27243 H 2527.64 4.28737 -2.73974 0
M  V30 27244 H 2527.04 5.65545 0.132243 0
M  V30 27245 H 2525.6 6.51387 -0.232128 0
M  V30 27246 N 2529.03 1.16688 1.05932 0
M  V30 27247 C 2530.45 0.912565 1.30937 0
M  V30 27248 C 2530.65 -0.432499 1.96804 0
M  V30 27249 O 2529.7 -1.17119 2.23695 0
M  V30 27250 C 2531.01 2.06433 2.18645 0
M  V30 27251 C 2532.56 2.10051 2.32051 0
M  V30 27252 C 2533.04 3.24592 3.23116 0
M  V30 27253 N 2534.53 3.24333 3.307 0
M  V30 27254 C 2535.26 4.09601 4.01266 0
M  V30 27255 N 2534.76 5.04965 4.74323 0
M  V30 27256 N 2536.55 3.97576 3.97354 0
M  V30 27257 H 2528.7 2.03279 0.615741 0
M  V30 27258 H 2530.97 0.88719 0.334062 0
M  V30 27259 H 2530.67 3.03606 1.77529 0
M  V30 27260 H 2530.55 2.00899 3.19248 0
M  V30 27261 H 2532.93 1.13469 2.72413 0
M  V30 27262 H 2533.01 2.19649 1.31103 0
M  V30 27263 H 2532.66 4.21435 2.83469 0
M  V30 27264 H 2532.59 3.1223 4.24052 0
M  V30 27265 H 2535.08 2.55281 2.78639 0
M  V30 27266 H 2535.39 5.66439 5.25706 0
M  V30 27267 H 2533.74 5.08941 4.73291 0
M  V30 27268 H 2536.93 3.22375 3.394 0
M  V30 27269 H 2537.1 4.64249 4.5208 0
M  V30 27270 N 2530.51 -1.24529 0.96594 0
M  V30 27271 C 2531.75 -1.92553 0.626865 0
M  V30 27272 C 2532.08 -1.75535 -0.837708 0
M  V30 27273 O 2531.34 -1.10101 -1.61791 0
M  V30 27274 C 2531.64 -3.44667 0.945489 0
M  V30 27275 C 2531.3 -3.81852 2.39792 0
M  V30 27276 C 2529.96 -3.91713 2.7949 0
M  V30 27277 C 2532.32 -4.00065 3.34062 0
M  V30 27278 C 2529.64 -4.17203 4.12503 0
M  V30 27279 C 2532 -4.27051 4.66702 0
M  V30 27280 C 2530.66 -4.35131 5.06179 0
M  V30 27281 H 2529.93 -0.704601 0.229386 0
M  V30 27282 H 2532.58 -1.47848 1.2171 0
M  V30 27283 H 2530.88 -3.90848 0.272995 0
M  V30 27284 H 2532.58 -3.95505 0.661553 0
M  V30 27285 H 2529.17 -3.7474 2.0801 0
M  V30 27286 H 2533.35 -3.9185 3.04577 0
M  V30 27287 H 2528.61 -4.21677 4.42717 0
M  V30 27288 H 2532.78 -4.40088 5.39718 0
M  V30 27289 H 2530.41 -4.54636 6.0927 0
M  V30 27290 N 2531.99 -0.735845 -1.39367 0
M  V30 27291 C 2533.23 -0.281039 -1.99732 0
M  V30 27292 C 2533.55 1.13843 -1.59057 0
M  V30 27293 O 2534.75 1.6928 -2.12265 0
M  V30 27294 C 2533.21 -0.451525 -3.57056 0
M  V30 27295 C 2532.82 -1.87893 -4.06694 0
M  V30 27296 C 2534.56 -0.0585362 -4.2446 0
M  V30 27297 C 2532.47 -1.99893 -5.56594 0
M  V30 27298 H 2531.4 -0.101324 -0.747161 0
M  V30 27299 H 2534.05 -0.909847 -1.59355 0
M  V30 27300 H 2532.43 0.246193 -3.95234 0
M  V30 27301 H 2533.61 -2.60868 -3.79848 0
M  V30 27302 H 2531.92 -2.22521 -3.51956 0
M  V30 27303 H 2534.52 -0.127193 -5.34549 0
M  V30 27304 H 2534.86 0.986362 -4.04446 0
M  V30 27305 H 2535.39 -0.707443 -3.91459 0
M  V30 27306 H 2532.13 -3.02574 -5.81489 0
M  V30 27307 H 2531.65 -1.31356 -5.8524 0
M  V30 27308 H 2533.33 -1.7805 -6.22019 0
M  V30 27309 N 2533.46 1.49999 -0.483543 0
M  V30 27310 C 2534.69 2.065 0.0643533 0
M  V30 27311 C 2535.1 1.34617 1.32947 0
M  V30 27312 O 2534.44 0.412787 1.79002 0
M  V30 27313 C 2534.51 3.57201 0.40592 0
M  V30 27314 C 2534.17 4.50654 -0.758954 0
M  V30 27315 C 2535.17 4.93205 -1.64454 0
M  V30 27316 C 2532.85 4.9318 -0.952812 0
M  V30 27317 C 2534.85 5.77002 -2.70828 0
M  V30 27318 C 2532.53 5.76757 -2.01976 0
M  V30 27319 C 2533.53 6.18571 -2.89585 0
M  V30 27320 O 2533.22 7.00479 -3.94441 0
M  V30 27321 H 2532.95 0.675935 -0.00935974 0
M  V30 27322 H 2535.51 1.93992 -0.674994 0
M  V30 27323 H 2533.74 3.67655 1.19863 0
M  V30 27324 H 2535.42 3.96014 0.890364 0
M  V30 27325 H 2536.19 4.61009 -1.50651 0
M  V30 27326 H 2532.07 4.60147 -0.280328 0
M  V30 27327 H 2535.61 6.09559 -3.3924 0
M  V30 27328 H 2531.51 6.08366 -2.15781 0
M  V30 27329 H 2532.28 7.18754 -3.91581 0
M  V30 27330 N 2534.94 0.216646 1.56104 0
M  V30 27331 C 2535.89 -0.695492 2.20072 0
M  V30 27332 C 2536.86 -1.19395 1.15473 0
M  V30 27333 O 2538.04 -1.25394 1.43809 0
M  V30 27334 C 2535.18 -1.90016 2.88076 0
M  V30 27335 C 2534.3 -1.44106 4.07256 0
M  V30 27336 C 2533.43 -2.60292 4.63057 0
M  V30 27337 C 2532.47 -2.11093 5.74549 0
M  V30 27338 N 2531.61 -3.20534 6.24662 0
M  V30 27339 H 2536.45 -0.143275 2.97655 0
M  V30 27340 H 2533.98 -0.0589676 1.46982 0
M  V30 27341 H 2535.94 -2.60739 3.25686 0
M  V30 27342 H 2534.57 -2.42534 2.13019 0
M  V30 27343 H 2533.62 -0.628934 3.75165 0
M  V30 27344 H 2534.94 -1.04027 4.87832 0
M  V30 27345 H 2534.09 -3.39104 5.03084 0
M  V30 27346 H 2532.83 -3.03656 3.81634 0
M  V30 27347 H 2531.83 -1.30741 5.34029 0
M  V30 27348 H 2533.06 -1.68734 6.57804 0
M  V30 27349 H 2531.01 -3.63389 5.46154 0
M  V30 27350 H 2530.92 -2.84691 7.00348 0
M  V30 27351 H 2532.19 -3.99496 6.69345 0
M  V30 27352 N 2536.42 -1.57498 -0.0567885 0
M  V30 27353 C 2537.35 -2.07752 -1.06589 0
M  V30 27354 C 2538.33 -0.974106 -1.39446 0
M  V30 27355 O 2539.52 -1.24773 -1.48813 0
M  V30 27356 C 2536.65 -2.53394 -2.37505 0
M  V30 27357 C 2535.6 -3.67749 -2.18963 0
M  V30 27358 C 2534.93 -3.99498 -3.55395 0
M  V30 27359 C 2536.23 -4.97238 -1.5985 0
M  V30 27360 H 2537.92 -2.92311 -0.647655 0
M  V30 27361 H 2535.47 -1.40622 -0.310091 0
M  V30 27362 H 2537.42 -2.87167 -3.08404 0
M  V30 27363 H 2536.14 -1.65883 -2.81337 0
M  V30 27364 H 2534.8 -3.34282 -1.50502 0
M  V30 27365 H 2534.45 -3.09095 -3.96824 0
M  V30 27366 H 2534.15 -4.76508 -3.43823 0
M  V30 27367 H 2535.67 -4.3578 -4.27701 0
M  V30 27368 H 2537.09 -5.29145 -2.20632 0
M  V30 27369 H 2535.48 -5.78671 -1.58932 0
M  V30 27370 H 2536.55 -4.81639 -0.561421 0
M  V30 27371 N 2537.9 0.328509 -1.54138 0
M  V30 27372 C 2539.15 1.06453 -1.7132 0
M  V30 27373 C 2539.46 1.89333 -0.491142 0
M  V30 27374 O 2540.67 2.6599 -0.544207 0
M  V30 27375 C 2539.12 1.94209 -3.03003 0
M  V30 27376 C 2538.73 1.16464 -4.32597 0
M  V30 27377 C 2540.47 2.67577 -3.29549 0
M  V30 27378 C 2538.38 2.03337 -5.55345 0
M  V30 27379 H 2537.31 0.401143 -0.638436 0
M  V30 27380 H 2539.96 0.323074 -1.80634 0
M  V30 27381 H 2538.34 2.72234 -2.87584 0
M  V30 27382 H 2539.52 0.432445 -4.58766 0
M  V30 27383 H 2537.83 0.54799 -4.12778 0
M  V30 27384 H 2540.43 3.32872 -4.1845 0
M  V30 27385 H 2540.77 3.34951 -2.47212 0
M  V30 27386 H 2541.31 1.96617 -3.45813 0
M  V30 27387 H 2538.04 1.4048 -6.4027 0
M  V30 27388 H 2537.56 2.74303 -5.33402 0
M  V30 27389 H 2539.24 2.62039 -5.91561 0
M  V30 27390 N 2539.38 1.46127 0.590316 0
M  V30 27391 C 2540.62 1.50311 1.34497 0
M  V30 27392 C 2540.94 0.156055 1.94976 0
M  V30 27393 O 2542.14 0.0756514 2.71395 0
M  V30 27394 C 2540.6 2.64819 2.43718 0
M  V30 27395 C 2540.21 4.05913 1.89575 0
M  V30 27396 C 2541.95 2.78267 3.20574 0
M  V30 27397 C 2539.86 5.11774 2.96381 0
M  V30 27398 H 2538.79 0.559377 0.505583 0
M  V30 27399 H 2541.44 1.72316 0.630818 0
M  V30 27400 H 2539.82 2.3613 3.17897 0
M  V30 27401 H 2541 4.44359 1.2199 0
M  V30 27402 H 2539.31 3.97066 1.25411 0
M  V30 27403 H 2541.91 3.54526 4.00269 0
M  V30 27404 H 2542.25 1.85512 3.72681 0
M  V30 27405 H 2542.78 3.06566 2.53499 0
M  V30 27406 H 2539.52 6.06296 2.4917 0
M  V30 27407 H 2539.04 4.7788 3.62479 0
M  V30 27408 H 2540.72 5.37284 3.60465 0
M  V30 27409 N 2540.85 -0.834306 1.33705 0
M  V30 27410 C 2542.08 -1.62703 1.28618 0
M  V30 27411 C 2542.5 -1.87584 -0.139209 0
M  V30 27412 O 2541.86 -1.44322 -1.09731 0
M  V30 27413 C 2541.91 -2.95167 2.07144 0
M  V30 27414 O 2541.01 -3.86696 1.43317 0
M  V30 27415 H 2540.35 -0.495272 0.442269 0
M  V30 27416 H 2542.88 -1.03762 1.76336 0
M  V30 27417 H 2542.89 -3.44827 2.18079 0
M  V30 27418 H 2541.57 -2.7638 3.10784 0
M  V30 27419 H 2540.15 -3.45192 1.41056 0
M  V30 27420 N 2542.33 -1.17248 -1.05312 0
M  V30 27421 C 2543.26 -0.9114 -2.14978 0
M  V30 27422 C 2544.24 0.146139 -1.69471 0
M  V30 27423 O 2545.43 -0.00384614 -1.942 0
M  V30 27424 C 2542.56 -0.422589 -3.44719 0
M  V30 27425 C 2541.51 -1.41917 -4.03786 0
M  V30 27426 C 2540.84 -0.788367 -5.28856 0
M  V30 27427 C 2542.14 -2.79198 -4.41413 0
M  V30 27428 H 2543.83 -1.82852 -2.37077 0
M  V30 27429 H 2541.38 -0.880589 -1.13937 0
M  V30 27430 H 2543.33 -0.227363 -4.20786 0
M  V30 27431 H 2542.05 0.530067 -3.2227 0
M  V30 27432 H 2540.71 -1.60112 -3.29787 0
M  V30 27433 H 2540.36 0.171085 -5.02709 0
M  V30 27434 H 2540.06 -1.45363 -5.69336 0
M  V30 27435 H 2541.59 -0.603389 -6.07611 0
M  V30 27436 H 2543 -2.64728 -5.08519 0
M  V30 27437 H 2541.4 -3.42291 -4.92907 0
M  V30 27438 H 2542.47 -3.337 -3.51813 0
M  V30 27439 N 2543.81 1.24015 -0.972531 0
M  V30 27440 C 2544.77 2.23421 -0.511442 0
M  V30 27441 C 2545.77 1.55882 0.394651 0
M  V30 27442 O 2546.96 1.73167 0.189438 0
M  V30 27443 C 2544.1 3.39917 0.258709 0
M  V30 27444 H 2545.29 2.65727 -1.39029 0
M  V30 27445 H 2542.84 1.36711 -0.757609 0
M  V30 27446 H 2543.58 3.03056 1.15445 0
M  V30 27447 H 2543.36 3.9014 -0.391591 0
M  V30 27448 H 2544.85 4.13689 0.570172 0
M  V30 27449 N 2545.29 0.743226 1.38974 0
M  V30 27450 C 2546.22 0.123914 2.33171 0
M  V30 27451 C 2547.2 -0.715132 1.54337 0
M  V30 27452 O 2548.38 -0.658435 1.82697 0
M  V30 27453 C 2545.51 -0.777918 3.38476 0
M  V30 27454 C 2544.47 -0.0424006 4.27979 0
M  V30 27455 C 2543.79 -1.0618 5.24051 0
M  V30 27456 C 2545.09 1.11989 5.10153 0
M  V30 27457 H 2546.79 0.91076 2.85211 0
M  V30 27458 H 2544.33 0.439412 1.37132 0
M  V30 27459 H 2546.29 -1.22077 4.0333 0
M  V30 27460 H 2545.01 -1.59697 2.84894 0
M  V30 27461 H 2543.67 0.380917 3.64616 0
M  V30 27462 H 2543.32 -1.87463 4.66762 0
M  V30 27463 H 2543.02 -0.574382 5.84786 0
M  V30 27464 H 2544.54 -1.50418 5.91783 0
M  V30 27465 H 2545.96 0.75509 5.68306 0
M  V30 27466 H 2544.35 1.53748 5.8007 0
M  V30 27467 H 2545.42 1.93772 4.445 0
M  V30 27468 N 2546.77 -1.4974 0.491491 0
M  V30 27469 C 2547.99 -2.06831 -0.0534788 0
M  V30 27470 C 2548.41 -1.35298 -1.31681 0
M  V30 27471 O 2547.77 -0.428391 -1.77401 0
M  V30 27472 C 2547.82 -3.60074 -0.320772 0
M  V30 27473 O 2547.54 -4.28913 0.892469 0
M  V30 27474 C 2549.04 -4.3385 -0.910443 0
M  V30 27475 H 2546.26 -0.670804 0.0162027 0
M  V30 27476 H 2548.8 -1.92646 0.686124 0
M  V30 27477 H 2546.96 -3.73993 -1.01034 0
M  V30 27478 H 2547.37 -5.20463 0.649493 0
M  V30 27479 H 2548.85 -5.41977 -1.04711 0
M  V30 27480 H 2549.32 -3.95696 -1.90582 0
M  V30 27481 H 2549.93 -4.24513 -0.258638 0
M  V30 27482 N 2548.24 -0.224922 -1.55987 0
M  V30 27483 C 2549.66 0.130398 -1.59066 0
M  V30 27484 C 2549.86 1.58688 -1.24179 0
M  V30 27485 O 2548.92 2.32764 -0.978633 0
M  V30 27486 C 2550.23 -0.198935 -3.00041 0
M  V30 27487 C 2551.78 -0.141446 -3.1268 0
M  V30 27488 C 2552.25 -0.444502 -4.55838 0
M  V30 27489 N 2553.74 -0.394196 -4.6152 0
M  V30 27490 C 2554.48 -0.602138 -5.7023 0
M  V30 27491 N 2553.97 -0.872035 -6.8729 0
M  V30 27492 N 2555.77 -0.534344 -5.59554 0
M  V30 27493 H 2547.92 -1.17501 -1.76939 0
M  V30 27494 H 2550.18 -0.471212 -0.822596 0
M  V30 27495 H 2549.89 -1.20995 -3.30232 0
M  V30 27496 H 2549.76 0.48447 -3.74076 0
M  V30 27497 H 2552.15 0.860215 -2.82284 0
M  V30 27498 H 2552.23 -0.858377 -2.40968 0
M  V30 27499 H 2551.87 -1.44362 -4.86952 0
M  V30 27500 H 2551.8 0.29366 -5.25781 0
M  V30 27501 H 2554.29 -0.193422 -3.77405 0
M  V30 27502 H 2554.61 -1.01871 -7.66056 0
M  V30 27503 H 2552.95 -0.909266 -6.89026 0
M  V30 27504 H 2556.14 -0.323694 -4.66979 0
M  V30 27505 H 2556.32 -0.699806 -6.4421 0
M  V30 27506 N 2549.72 1.57526 0.0484352 0
M  V30 27507 C 2550.63 2.08656 1.07237 0
M  V30 27508 C 2551.65 1.02097 1.40898 0
M  V30 27509 O 2552.82 1.33715 1.50606 0
M  V30 27510 C 2549.89 2.53975 2.36004 0
M  V30 27511 C 2548.95 3.74933 2.09101 0
M  V30 27512 C 2548.18 4.18081 3.31729 0
M  V30 27513 O 2548.41 3.60903 4.41708 0
M  V30 27514 O 2547.34 5.10685 3.18567 0
M  V30 27515 H 2551.17 2.96264 0.667913 0
M  V30 27516 H 2548.75 1.47046 0.264144 0
M  V30 27517 H 2550.63 2.8354 3.11742 0
M  V30 27518 H 2549.31 1.69486 2.75783 0
M  V30 27519 H 2548.22 3.50416 1.30993 0
M  V30 27520 H 2549.55 4.60346 1.7419 0
M  V30 27521 N 2551.2 -0.32033 1.5431 0
M  V30 27522 C 2552.45 -1.05789 1.7267 0
M  V30 27523 C 2552.78 -1.87907 0.502117 0
M  V30 27524 O 2552.03 -1.88772 -0.516116 0
M  V30 27525 C 2552.33 -2.00823 2.95643 0
M  V30 27526 C 2552 -1.34835 4.30268 0
M  V30 27527 C 2550.66 -1.16569 4.66867 0
M  V30 27528 C 2553.01 -0.875005 5.13803 0
M  V30 27529 C 2550.34 -0.496233 5.84598 0
M  V30 27530 C 2552.69 -0.219351 6.3222 0
M  V30 27531 C 2551.35 -0.0245742 6.67495 0
M  V30 27532 H 2550.62 -0.38711 0.631844 0
M  V30 27533 H 2553.27 -0.334702 1.88552 0
M  V30 27534 H 2551.58 -2.79604 2.74461 0
M  V30 27535 H 2553.27 -2.57927 3.07042 0
M  V30 27536 H 2549.86 -1.50054 4.01474 0
M  V30 27537 H 2554.05 -1.0039 4.86041 0
M  V30 27538 H 2549.3 -0.334156 6.10486 0
M  V30 27539 H 2553.48 0.155413 6.96227 0
M  V30 27540 H 2551.1 0.496198 7.58579 0
M  V30 27541 N 2552.68 -1.46438 -0.582558 0
M  V30 27542 C 2553.63 -1.57013 -1.69161 0
M  V30 27543 C 2554.6 -0.414431 -1.60847 0
M  V30 27544 O 2555.78 -0.631202 -1.80057 0
M  V30 27545 C 2552.92 -1.56651 -3.07497 0
M  V30 27546 C 2552.03 -2.82956 -3.26435 0
M  V30 27547 C 2551.17 -2.74098 -4.55021 0
M  V30 27548 C 2550.21 -3.95341 -4.67303 0
M  V30 27549 N 2549.34 -3.84868 -5.87215 0
M  V30 27550 H 2554.18 -2.51747 -1.5946 0
M  V30 27551 H 2551.72 -1.24894 -0.777164 0
M  V30 27552 H 2553.68 -1.54427 -3.87567 0
M  V30 27553 H 2552.31 -0.654495 -3.16095 0
M  V30 27554 H 2551.36 -2.9516 -2.39969 0
M  V30 27555 H 2552.67 -3.72813 -3.31378 0
M  V30 27556 H 2551.83 -2.6998 -5.43319 0
M  V30 27557 H 2550.57 -1.81881 -4.52516 0
M  V30 27558 H 2549.57 -3.99791 -3.77422 0
M  V30 27559 H 2550.8 -4.88654 -4.71586 0
M  V30 27560 H 2548.74 -2.95438 -5.85707 0
M  V30 27561 H 2548.66 -4.68381 -5.93427 0
M  V30 27562 H 2549.93 -3.84725 -6.77943 0
M  V30 27563 N 2554.16 0.827204 -1.34146 0
M  V30 27564 C 2555.11 1.9266 -1.21926 0
M  V30 27565 C 2556.09 1.60457 -0.119322 0
M  V30 27566 O 2557.28 1.73534 -0.348569 0
M  V30 27567 C 2554.41 3.29236 -0.972549 0
M  V30 27568 C 2553.5 3.67572 -2.11546 0
M  V30 27569 N 2553.89 3.77507 -3.36634 0
M  V30 27570 C 2552.19 3.97391 -2.02475 0
M  V30 27571 C 2552.89 4.10983 -4.11665 0
M  V30 27572 N 2551.86 4.23975 -3.40215 0
M  V30 27573 H 2555.67 1.98513 -2.16725 0
M  V30 27574 H 2553.18 1.02062 -1.26322 0
M  V30 27575 H 2555.18 4.07808 -0.865919 0
M  V30 27576 H 2553.84 3.24683 -0.0332079 0
M  V30 27577 H 2554.85 3.61111 -3.7124 0
M  V30 27578 H 2551.52 4.00983 -1.16272 0
M  V30 27579 H 2552.91 4.25909 -5.19665 0
M  V30 27580 N 2555.63 1.17805 1.04688 0
M  V30 27581 C 2556.91 0.879359 1.74719 0
M  V30 27582 C 2557.29 -0.619236 2.01813 0
M  V30 27583 O 2556.64 -1.57206 1.65827 0
M  V30 27584 C 2556.85 1.71981 3.03683 0
M  V30 27585 C 2558.2 1.94293 3.77539 0
M  V30 27586 O 2559.22 1.68982 3.13566 0
M  V30 27587 O 2558.08 2.36864 4.92502 0
M  V30 27588 H 2555.17 0.326069 0.760005 0
M  V30 27589 H 2557.72 1.28527 1.10811 0
M  V30 27590 H 2556.49 2.73599 2.79749 0
M  V30 27591 H 2556.12 1.31201 3.75329 0
M  V30 27592 N 2557.11 -1.23497 0.979094 0
M  V30 27593 C 2558.04 -2.24196 0.476311 0
M  V30 27594 C 2559.06 -1.57259 -0.421138 0
M  V30 27595 O 2560.25 -1.7707 -0.225484 0
M  V30 27596 C 2557.35 -3.37285 -0.330444 0
M  V30 27597 C 2556.52 -4.33803 0.55982 0
M  V30 27598 C 2555.58 -5.25846 -0.192861 0
M  V30 27599 O 2554.6 -5.6767 0.417078 0
M  V30 27600 N 2555.81 -5.61337 -1.47922 0
M  V30 27601 H 2558.57 -2.67967 1.34216 0
M  V30 27602 H 2556.13 -1.37655 0.852213 0
M  V30 27603 H 2558.12 -3.95838 -0.842291 0
M  V30 27604 H 2556.69 -2.92709 -1.09729 0
M  V30 27605 H 2555.91 -3.73772 1.25251 0
M  V30 27606 H 2557.2 -4.95246 1.16659 0
M  V30 27607 H 2556.6 -5.29305 -1.99631 0
M  V30 27608 H 2555.16 -6.22368 -1.93653 0
M  V30 27609 N 2558.59 -0.750586 -1.38578 0
M  V30 27610 C 2559.82 -0.314848 -2.04996 0
M  V30 27611 C 2560.24 1.04746 -1.56237 0
M  V30 27612 O 2559.6 1.66691 -0.713011 0
M  V30 27613 C 2559.65 -0.343478 -3.5896 0
M  V30 27614 O 2558.75 0.663556 -4.07027 0
M  V30 27615 H 2558.09 -0.139973 -0.649079 0
M  V30 27616 H 2560.62 -1.02087 -1.77312 0
M  V30 27617 H 2560.63 -0.193305 -4.07542 0
M  V30 27618 H 2559.31 -1.33745 -3.93809 0
M  V30 27619 H 2557.88 0.478242 -3.69821 0
M  V30 27620 N 2560.07 1.49477 -0.499425 0
M  V30 27621 C 2561.02 2.3074 0.293564 0
M  V30 27622 C 2562.01 1.39279 0.964245 0
M  V30 27623 O 2563.22 1.56337 0.892114 0
M  V30 27624 H 2559.59 0.743381 0.113528 0
M  V30 27625 H 2561.56 2.95545 -0.411824 0
M  V30 27626 C 2560.31 3.20584 1.34615 0
M  V30 27627 H 2559.64 3.90887 0.839472 0
M  V30 27628 H 2561.08 3.80387 1.87302 0
M  V30 27629 C 2559.53 2.40087 2.36347 0
M  V30 27630 O 2560.06 2.10391 3.42197 0
M  V30 27631 N 2558.27 2.0214 2.08777 0
M  V30 27632 H 2557.82 2.2649 1.22719 0
M  V30 27633 H 2557.78 1.48588 2.77072 0
M  V30 27634 N 2561.55 0.233191 1.55865 0
M  V30 27635 C 2562.8 -0.395755 1.97779 0
M  V30 27636 C 2563.11 -1.60064 1.12422 0
M  V30 27637 O 2564.32 -2.29986 1.44287 0
M  V30 27638 C 2562.77 -0.755494 3.51881 0
M  V30 27639 C 2562.38 0.42723 4.45958 0
M  V30 27640 C 2564.12 -1.34939 4.02482 0
M  V30 27641 C 2562.03 0.0444083 5.91383 0
M  V30 27642 H 2560.96 -0.151637 0.738595 0
M  V30 27643 H 2563.61 0.331243 1.80486 0
M  V30 27644 H 2561.99 -1.54024 3.64819 0
M  V30 27645 H 2563.17 1.20469 4.44774 0
M  V30 27646 H 2561.48 0.935139 4.05764 0
M  V30 27647 H 2564.08 -1.64891 5.0864 0
M  V30 27648 H 2564.42 -2.26919 3.49018 0
M  V30 27649 H 2564.96 -0.627841 3.92814 0
M  V30 27650 H 2561.69 0.930988 6.48855 0
M  V30 27651 H 2561.21 -0.697133 5.95735 0
M  V30 27652 H 2562.89 -0.378221 6.45894 0
M  V30 27653 N 2563.03 -1.57549 -0.0400806 0
M  V30 27654 C 2563.99 -2.04819 -1.02868 0
M  V30 27655 C 2564.99 -0.950411 -1.29707 0
M  V30 27656 O 2566.18 -1.21437 -1.24895 0
M  V30 27657 C 2563.31 -2.4558 -2.36438 0
M  V30 27658 H 2564.5 -2.93409 -0.620579 0
M  V30 27659 H 2562.06 -1.53649 -0.28664 0
M  V30 27660 H 2562.79 -1.60113 -2.82018 0
M  V30 27661 H 2562.58 -3.25717 -2.18291 0
M  V30 27662 H 2564.07 -2.82618 -3.07436 0
M  V30 27663 N 2564.5 0.312142 -1.54478 0
M  V30 27664 C 2565.75 1.04641 -1.74418 0
M  V30 27665 C 2566.1 1.85305 -0.517674 0
M  V30 27666 O 2565.4 1.8523 0.48994 0
M  V30 27667 C 2565.59 1.99253 -2.96704 0
M  V30 27668 C 2565.42 1.27894 -4.3113 0
M  V30 27669 C 2564.19 1.0107 -4.95089 0
M  V30 27670 C 2566.39 0.689029 -5.09663 0
M  V30 27671 N 2564.37 0.266216 -6.13323 0
M  V30 27672 C 2565.74 0.0767433 -6.19953 0
M  V30 27673 C 2567.8 0.592974 -4.94356 0
M  V30 27674 C 2566.5 -0.622291 -7.16603 0
M  V30 27675 C 2568.53 -0.0923832 -5.91328 0
M  V30 27676 C 2567.89 -0.693566 -7.00977 0
M  V30 27677 H 2563.99 0.366219 -0.690947 0
M  V30 27678 H 2566.57 0.326286 -1.91947 0
M  V30 27679 H 2564.74 2.68527 -2.80621 0
M  V30 27680 H 2566.47 2.65749 -3.0522 0
M  V30 27681 H 2563.23 1.30599 -4.55237 0
M  V30 27682 H 2563.65 -0.0922163 -6.76937 0
M  V30 27683 H 2568.29 1.04348 -4.09721 0
M  V30 27684 H 2566.01 -1.0846 -8.00788 0
M  V30 27685 H 2569.6 -0.166499 -5.81562 0
M  V30 27686 H 2568.48 -1.21547 -7.74723 0
M  V30 27687 N 2565.98 1.46745 0.574784 0
M  V30 27688 C 2567.23 1.53676 1.33248 0
M  V30 27689 C 2567.58 0.189159 1.91468 0
M  V30 27690 O 2566.88 -0.80312 1.73956 0
M  V30 27691 C 2567.07 2.57742 2.47596 0
M  V30 27692 C 2566.9 4.0249 2.00579 0
M  V30 27693 C 2565.67 4.70126 1.85229 0
M  V30 27694 C 2567.87 4.90048 1.5607 0
M  V30 27695 N 2565.85 5.9946 1.32366 0
M  V30 27696 C 2567.22 6.09269 1.14852 0
M  V30 27697 C 2569.27 4.76634 1.4396 0
M  V30 27698 C 2567.98 7.16559 0.627309 0
M  V30 27699 C 2570 5.84004 0.932409 0
M  V30 27700 C 2569.37 7.02403 0.530066 0
M  V30 27701 H 2565.46 0.61714 0.480274 0
M  V30 27702 H 2568.05 1.83403 0.65356 0
M  V30 27703 H 2566.22 2.29913 3.13041 0
M  V30 27704 H 2567.95 2.54622 3.14563 0
M  V30 27705 H 2564.71 4.25765 2.07415 0
M  V30 27706 H 2565.13 6.68318 1.08074 0
M  V30 27707 H 2569.77 3.85479 1.73683 0
M  V30 27708 H 2567.49 8.07475 0.317679 0
M  V30 27709 H 2571.08 5.75667 0.84251 0
M  V30 27710 H 2569.96 7.84068 0.143673 0
M  V30 27711 N 2567.46 -0.820078 1.34583 0
M  V30 27712 C 2568.69 -1.60811 1.30183 0
M  V30 27713 C 2569.1 -1.88396 -0.123518 0
M  V30 27714 O 2568.46 -1.47737 -1.07145 0
M  V30 27715 C 2568.51 -2.94735 2.09317 0
M  V30 27716 O 2568.23 -2.68352 3.46293 0
M  V30 27717 C 2569.73 -3.89132 2.12347 0
M  V30 27718 H 2566.95 -0.499774 0.447735 0
M  V30 27719 H 2569.5 -1.02014 1.77238 0
M  V30 27720 H 2567.65 -3.50082 1.65895 0
M  V30 27721 H 2568.07 -3.53767 3.87233 0
M  V30 27722 H 2569.54 -4.80257 2.72134 0
M  V30 27723 H 2570.02 -4.24716 1.11861 0
M  V30 27724 H 2570.62 -3.39721 2.5587 0
M  V30 27725 N 2568.94 -1.18359 -1.04062 0
M  V30 27726 C 2570.19 -0.977044 -1.76913 0
M  V30 27727 C 2570.51 0.494544 -1.88625 0
M  V30 27728 O 2569.78 1.35868 -1.41127 0
M  V30 27729 H 2568.36 -0.358516 -0.655344 0
M  V30 27730 H 2571.02 -1.49041 -1.25589 0
M  V30 27731 H 2570.11 -1.41509 -2.78175 0
M  V30 27732 N 2570.42 1.22976 -0.98563 0
M  V30 27733 C 2571.36 2.24635 -0.529864 0
M  V30 27734 C 2572.33 1.6033 0.434 0
M  V30 27735 O 2573.52 1.87739 0.340381 0
M  V30 27736 C 2570.66 3.44745 0.156472 0
M  V30 27737 C 2569.77 4.2359 -0.848271 0
M  V30 27738 C 2568.91 5.31025 -0.136203 0
M  V30 27739 C 2567.94 6.01583 -1.12981 0
M  V30 27740 N 2567.08 7.00679 -0.446538 0
M  V30 27741 H 2571.92 2.62985 -1.40153 0
M  V30 27742 H 2569.46 1.29258 -0.702191 0
M  V30 27743 H 2571.42 4.13271 0.571252 0
M  V30 27744 H 2570.05 3.0718 0.991971 0
M  V30 27745 H 2569.1 3.54431 -1.38141 0
M  V30 27746 H 2570.41 4.72266 -1.6052 0
M  V30 27747 H 2569.56 6.05771 0.335677 0
M  V30 27748 H 2568.3 4.83305 0.653288 0
M  V30 27749 H 2567.31 5.25625 -1.61239 0
M  V30 27750 H 2568.53 6.51392 -1.92005 0
M  V30 27751 H 2566.48 6.55201 0.323648 0
M  V30 27752 H 2566.4 7.47324 -1.14204 0
M  V30 27753 H 2567.66 7.795 0.00277995 0
M  V30 27754 N 2571.89 0.757924 1.38178 0
M  V30 27755 C 2573.14 0.325458 2.00779 0
M  V30 27756 C 2573.49 -1.08208 1.59087 0
M  V30 27757 O 2572.79 -1.73146 0.820424 0
M  V30 27758 C 2572.98 0.391281 3.55252 0
M  V30 27759 C 2572.81 1.80367 4.11944 0
M  V30 27760 C 2571.58 2.42121 4.43515 0
M  V30 27761 C 2573.78 2.76102 4.33903 0
M  V30 27762 N 2571.76 3.75276 4.85841 0
M  V30 27763 C 2573.13 3.94031 4.78685 0
M  V30 27764 C 2575.19 2.73569 4.1601 0
M  V30 27765 C 2573.89 5.09791 5.0745 0
M  V30 27766 C 2575.92 3.88491 4.45902 0
M  V30 27767 C 2575.28 5.05158 4.90912 0
M  V30 27768 H 2571.38 0.165844 0.764212 0
M  V30 27769 H 2573.96 0.988805 1.67722 0
M  V30 27770 H 2572.13 -0.241818 3.87646 0
M  V30 27771 H 2573.86 -0.0619179 4.04653 0
M  V30 27772 H 2570.62 1.9385 4.3211 0
M  V30 27773 H 2571.04 4.43699 5.11331 0
M  V30 27774 H 2575.68 1.8455 3.80396 0
M  V30 27775 H 2573.4 5.99421 5.41959 0
M  V30 27776 H 2576.99 3.87855 4.33659 0
M  V30 27777 H 2575.87 5.92608 5.136 0
M  V30 27778 N 2573.37 -1.4921 0.507345 0
M  V30 27779 C 2574.6 -2.06576 -0.0314928 0
M  V30 27780 C 2575.01 -1.36715 -1.30788 0
M  V30 27781 O 2574.35 -0.441213 -1.78323 0
M  V30 27782 C 2574.42 -3.57802 -0.349041 0
M  V30 27783 C 2574.08 -4.49389 0.830554 0
M  V30 27784 C 2575.08 -4.90526 1.7228 0
M  V30 27785 C 2572.76 -4.91602 1.03115 0
M  V30 27786 C 2574.76 -5.7262 2.79974 0
M  V30 27787 C 2572.44 -5.73471 2.11126 0
M  V30 27788 C 2573.44 -6.13885 2.99389 0
M  V30 27789 O 2573.13 -6.94116 4.05535 0
M  V30 27790 H 2572.86 -0.675701 0.0201121 0
M  V30 27791 H 2575.41 -1.92894 0.705771 0
M  V30 27792 H 2573.64 -3.69515 -1.13998 0
M  V30 27793 H 2575.33 -3.97381 -0.827249 0
M  V30 27794 H 2576.1 -4.58554 1.57966 0
M  V30 27795 H 2571.98 -4.59643 0.353498 0
M  V30 27796 H 2575.52 -6.04084 3.48895 0
M  V30 27797 H 2571.42 -6.04856 2.25432 0
M  V30 27798 H 2572.19 -7.12433 4.02966 0
M  V30 27799 N 2574.85 -0.241454 -1.55739 0
M  V30 27800 C 2575.8 0.676679 -2.22539 0
M  V30 27801 C 2576.79 1.18434 -1.21119 0
M  V30 27802 O 2578 1.14186 -1.39146 0
M  V30 27803 H 2574.37 0.236688 -0.713781 0
M  V30 27804 H 2576.34 0.0900663 -2.98264 0
M  V30 27805 C 2575.09 1.86513 -2.93442 0
M  V30 27806 H 2574.42 1.48364 -3.71252 0
M  V30 27807 H 2575.86 2.48489 -3.43553 0
M  V30 27808 C 2574.32 2.73291 -1.97012 0
M  V30 27809 O 2574.85 3.72655 -1.49971 0
M  V30 27810 N 2573.05 2.39743 -1.64231 0
M  V30 27811 H 2572.6 1.58992 -2.0268 0
M  V30 27812 H 2572.56 2.98081 -0.999761 0
M  V30 27813 N 2576.33 1.57568 0.0317248 0
M  V30 27814 C 2577.26 2.01762 1.06617 0
M  V30 27815 C 2578.24 0.901486 1.35322 0
M  V30 27816 O 2579.42 1.16711 1.48023 0
M  V30 27817 C 2576.55 2.38842 2.40151 0
M  V30 27818 C 2575.6 3.60871 2.27321 0
M  V30 27819 S 2576.43 5.10116 1.62916 0
M  V30 27820 C 2577.59 5.50436 2.97945 0
M  V30 27821 H 2577.82 2.89189 0.68973 0
M  V30 27822 H 2575.35 1.52498 0.241614 0
M  V30 27823 H 2577.31 2.60876 3.16945 0
M  V30 27824 H 2575.97 1.51872 2.74943 0
M  V30 27825 H 2575.16 3.84462 3.25891 0
M  V30 27826 H 2574.77 3.38674 1.58669 0
M  V30 27827 H 2577.06 5.50957 3.94275 0
M  V30 27828 H 2578 6.5078 2.7909 0
M  V30 27829 H 2578.41 4.77936 3.00396 0
M  V30 27830 N 2577.81 -0.303946 1.54641 0
M  V30 27831 C 2579.05 -1.03746 1.73439 0
M  V30 27832 C 2579.38 -1.87898 0.521482 0
M  V30 27833 O 2578.65 -1.90319 -0.464287 0
M  V30 27834 H 2577.23 -0.386028 0.639524 0
M  V30 27835 H 2579.89 -0.335642 1.91988 0
M  V30 27836 H 2578.98 -1.69226 2.62238 0
M  V30 27837 N 2579.28 -1.47047 -0.566994 0
M  V30 27838 C 2580.53 -1.54381 -1.32432 0
M  V30 27839 C 2580.89 -0.19931 -1.91365 0
M  V30 27840 O 2580.18 0.793884 -1.74379 0
M  V30 27841 C 2580.37 -2.59052 -2.46225 0
M  V30 27842 C 2580.2 -4.03548 -1.98441 0
M  V30 27843 C 2578.97 -4.71102 -1.82733 0
M  V30 27844 C 2581.17 -4.90869 -1.53469 0
M  V30 27845 N 2579.15 -6.00154 -1.29185 0
M  V30 27846 C 2580.52 -6.0987 -1.1162 0
M  V30 27847 C 2582.58 -4.77391 -1.4143 0
M  V30 27848 C 2581.28 -7.16882 -0.589299 0
M  V30 27849 C 2583.31 -5.8449 -0.901425 0
M  V30 27850 C 2582.67 -7.02674 -0.492809 0
M  V30 27851 H 2578.77 -0.619678 -0.476994 0
M  V30 27852 H 2581.35 -1.83747 -0.643824 0
M  V30 27853 H 2579.52 -2.3157 -3.11817 0
M  V30 27854 H 2581.25 -2.56286 -3.13208 0
M  V30 27855 H 2578.01 -4.26859 -2.05154 0
M  V30 27856 H 2578.43 -6.68882 -1.04528 0
M  V30 27857 H 2583.08 -3.86395 -1.71636 0
M  V30 27858 H 2580.79 -8.07632 -0.274852 0
M  V30 27859 H 2584.38 -5.76106 -0.811969 0
M  V30 27860 H 2583.26 -7.84134 -0.10209 0
M  V30 27861 N 2580.76 0.812929 -1.35016 0
M  V30 27862 C 2581.71 1.91356 -1.23963 0
M  V30 27863 C 2582.7 1.60321 -0.136334 0
M  V30 27864 O 2583.89 1.73154 -0.366955 0
M  V30 27865 C 2581.02 3.28186 -1.00741 0
M  V30 27866 C 2580.1 3.65307 -2.15433 0
M  V30 27867 N 2580.49 3.73915 -3.40619 0
M  V30 27868 C 2578.79 3.95221 -2.06679 0
M  V30 27869 C 2579.49 4.06593 -4.16001 0
M  V30 27870 N 2578.47 4.20343 -3.44693 0
M  V30 27871 H 2582.27 1.96204 -2.18818 0
M  V30 27872 H 2579.79 1.00716 -1.27397 0
M  V30 27873 H 2581.78 4.06867 -0.909124 0
M  V30 27874 H 2580.44 3.2463 -0.067643 0
M  V30 27875 H 2581.45 3.57154 -3.75049 0
M  V30 27876 H 2578.13 3.99727 -1.20518 0
M  V30 27877 H 2579.52 4.20373 -5.24153 0
M  V30 27878 N 2582.24 1.18909 1.03433 0
M  V30 27879 C 2583.47 1.01409 1.80917 0
M  V30 27880 C 2583.89 -0.432689 1.83056 0
M  V30 27881 O 2583.25 -1.31077 1.25254 0
M  V30 27882 C 2583.3 1.58111 3.24089 0
M  V30 27883 O 2582.4 0.80674 4.04432 0
M  V30 27884 H 2581.74 0.358813 0.558703 0
M  V30 27885 H 2584.27 1.57809 1.30221 0
M  V30 27886 H 2584.28 1.61093 3.74851 0
M  V30 27887 H 2582.96 2.63415 3.21846 0
M  V30 27888 H 2581.53 0.84973 3.6309 0
M  V30 27889 N 2583.72 -1.22452 0.992137 0
M  V30 27890 C 2584.65 -2.26643 0.561716 0
M  V30 27891 C 2585.63 -1.65059 -0.411026 0
M  V30 27892 O 2586.81 -1.9184 -0.301827 0
M  V30 27893 C 2583.94 -3.47074 -0.125186 0
M  V30 27894 C 2582.9 -4.21089 0.766022 0
M  V30 27895 C 2582.22 -5.34673 -0.0537544 0
M  V30 27896 C 2583.52 -4.79852 2.0625 0
M  V30 27897 H 2585.22 -2.62899 1.43263 0
M  V30 27898 H 2582.76 -1.26376 0.690305 0
M  V30 27899 H 2584.72 -4.19121 -0.43769 0
M  V30 27900 H 2583.44 -3.09912 -1.03064 0
M  V30 27901 H 2582.1 -3.50876 1.06216 0
M  V30 27902 H 2581.75 -4.93752 -0.960101 0
M  V30 27903 H 2581.45 -5.85118 0.539517 0
M  V30 27904 H 2582.97 -6.09536 -0.36037 0
M  V30 27905 H 2584.39 -5.43845 1.814 0
M  V30 27906 H 2582.78 -5.40633 2.60453 0
M  V30 27907 H 2583.85 -3.99946 2.74174 0
M  V30 27908 N 2585.2 -0.765242 -1.37774 0
M  V30 27909 C 2586.42 -0.336573 -2.04651 0
M  V30 27910 C 2586.85 1.03083 -1.57339 0
M  V30 27911 O 2586.2 1.65925 -0.73065 0
M  V30 27912 C 2586.25 -0.381531 -3.58576 0
M  V30 27913 O 2585.36 0.620348 -4.07708 0
M  V30 27914 H 2584.7 -0.14685 -0.647558 0
M  V30 27915 H 2587.23 -1.03962 -1.76219 0
M  V30 27916 H 2587.24 -0.236519 -4.07314 0
M  V30 27917 H 2585.91 -1.37914 -3.92368 0
M  V30 27918 H 2584.49 0.438991 -3.70307 0
M  V30 27919 N 2586.67 1.48939 -0.515251 0
M  V30 27920 C 2587.61 2.27327 0.292441 0
M  V30 27921 C 2588.62 1.34462 0.917814 0
M  V30 27922 O 2589.81 1.59632 0.798744 0
M  V30 27923 C 2586.91 3.07347 1.42798 0
M  V30 27924 C 2586.08 4.27887 0.907272 0
M  V30 27925 C 2585.14 4.89837 1.92214 0
M  V30 27926 O 2584.17 5.49488 1.48497 0
M  V30 27927 N 2585.37 4.80759 3.25347 0
M  V30 27928 H 2588.13 2.97284 -0.379773 0
M  V30 27929 H 2585.69 1.58101 -0.348666 0
M  V30 27930 H 2587.69 3.45662 2.10475 0
M  V30 27931 H 2586.26 2.39905 2.0041 0
M  V30 27932 H 2585.48 3.94162 0.0549525 0
M  V30 27933 H 2586.76 5.05947 0.538019 0
M  V30 27934 H 2586.16 4.33421 3.63542 0
M  V30 27935 H 2584.72 5.23218 3.88698 0
M  V30 27936 N 2588.15 0.249709 1.55609 0
M  V30 27937 C 2589.56 -0.252916 1.84979 0
M  V30 27938 C 2589.92 -1.57382 1.17156 0
M  V30 27939 O 2589.04 -2.1165 0.450921 0
M  V30 27940 C 2589.64 -0.465673 3.35584 0
M  V30 27941 C 2588.19 -0.91256 3.6517 0
M  V30 27942 C 2587.34 0.00863959 2.77299 0
M  V30 27943 H 2590.29 0.472197 1.51512 0
M  V30 27944 H 2590.31 -1.30789 3.57316 0
M  V30 27945 H 2589.83 0.495858 3.84919 0
M  V30 27946 H 2587.93 -1.88646 3.21315 0
M  V30 27947 H 2588.04 -0.767476 4.72913 0
M  V30 27948 H 2586.4 -0.503226 2.49679 0
M  V30 27949 H 2587.19 0.965594 3.29441 0
M  V30 27950 N 2589.63 -1.57583 -0.0233682 0
M  V30 27951 C 2590.88 -1.89157 -0.711621 0
M  V30 27952 C 2591.2 -0.848127 -1.7559 0
M  V30 27953 O 2590.47 0.117532 -1.95547 0
M  V30 27954 H 2589.05 -0.698102 -0.265823 0
M  V30 27955 H 2591.71 -1.94896 0.012029 0
M  V30 27956 H 2590.81 -2.88208 -1.19761 0
M  V30 27957 N 2591.11 0.29574 -1.548 0
M  V30 27958 C 2592.53 0.641697 -1.46131 0
M  V30 27959 C 2592.73 1.90495 -0.656805 0
M  V30 27960 O 2591.78 2.5195 -0.166591 0
M  V30 27961 C 2593.09 0.789801 -2.90142 0
M  V30 27962 C 2594.64 0.885343 -3.00218 0
M  V30 27963 C 2595.12 1.0654 -4.45436 0
M  V30 27964 N 2596.61 1.13148 -4.49168 0
M  V30 27965 C 2597.34 1.28919 -5.58719 0
M  V30 27966 N 2596.84 1.41555 -6.78184 0
M  V30 27967 N 2598.63 1.31849 -5.46418 0
M  V30 27968 H 2590.78 -0.534183 -2.05573 0
M  V30 27969 H 2593.05 -0.177389 -0.931256 0
M  V30 27970 H 2592.75 -0.0676217 -3.51635 0
M  V30 27971 H 2592.63 1.67718 -3.37862 0
M  V30 27972 H 2595.01 1.73325 -2.38836 0
M  V30 27973 H 2595.09 -0.0261635 -2.55787 0
M  V30 27974 H 2594.74 0.222246 -5.07414 0
M  V30 27975 H 2594.67 1.99121 -4.87502 0
M  V30 27976 H 2597.16 1.04715 -3.63102 0
M  V30 27977 H 2597.47 1.53359 -7.5743 0
M  V30 27978 H 2595.82 1.38601 -6.8104 0
M  V30 27979 H 2599.01 1.21593 -4.52032 0
M  V30 27980 H 2599.18 1.43797 -6.31844 0
M  V30 27981 N 2592.59 1.47346 0.559187 0
M  V30 27982 C 2593.5 1.62314 1.69386 0
M  V30 27983 C 2594.51 0.506022 1.66479 0
M  V30 27984 O 2595.69 0.773295 1.85963 0
M  V30 27985 C 2592.75 1.63191 3.05892 0
M  V30 27986 C 2591.82 2.86313 3.1988 0
M  V30 27987 C 2591.05 2.87139 4.49874 0
M  V30 27988 O 2591.27 1.97239 5.35213 0
M  V30 27989 O 2590.21 3.78976 4.67612 0
M  V30 27990 H 2594.03 2.5832 1.59701 0
M  V30 27991 H 2591.62 1.30409 0.728966 0
M  V30 27992 H 2593.5 1.66458 3.8713 0
M  V30 27993 H 2592.17 0.703506 3.15963 0
M  V30 27994 H 2591.08 2.88591 2.38046 0
M  V30 27995 H 2592.41 3.78441 3.14712 0
M  V30 27996 N 2594.07 -0.805758 1.35445 0
M  V30 27997 C 2595.31 -1.56288 1.28764 0
M  V30 27998 C 2595.64 -1.94012 -0.137713 0
M  V30 27999 O 2594.9 -1.61644 -1.10317 0
M  V30 28000 C 2595.19 -2.86212 2.1405 0
M  V30 28001 C 2594.86 -2.67703 3.6283 0
M  V30 28002 C 2593.52 -2.62363 4.03385 0
M  V30 28003 C 2595.87 -2.50178 4.57231 0
M  V30 28004 C 2593.2 -2.37442 5.36506 0
M  V30 28005 C 2595.55 -2.26786 5.90551 0
M  V30 28006 C 2594.22 -2.19869 6.30249 0
M  V30 28007 H 2593.49 -0.5719 0.471181 0
M  V30 28008 H 2596.14 -0.930944 1.67349 0
M  V30 28009 H 2594.44 -3.53788 1.68348 0
M  V30 28010 H 2596.14 -3.43913 2.06216 0
M  V30 28011 H 2592.73 -2.72707 3.30649 0
M  V30 28012 H 2596.91 -2.53315 4.26784 0
M  V30 28013 H 2592.17 -2.30557 5.66263 0
M  V30 28014 H 2596.34 -2.12217 6.63277 0
M  V30 28015 H 2593.97 -2.0032 7.33332 0
M  V30 28016 N 2595.54 -1.19456 -1.02801 0
M  V30 28017 C 2596.47 -0.956795 -2.12997 0
M  V30 28018 C 2597.45 0.110159 -1.69743 0
M  V30 28019 O 2598.64 -0.0450379 -1.94148 0
M  V30 28020 C 2595.77 -0.495614 -3.43745 0
M  V30 28021 C 2594.72 -1.5045 -4.00685 0
M  V30 28022 C 2594.05 -0.900368 -5.27065 0
M  V30 28023 C 2595.35 -2.88498 -4.35392 0
M  V30 28024 H 2597.04 -1.8784 -2.33145 0
M  V30 28025 H 2594.59 -0.904559 -1.12043 0
M  V30 28026 H 2596.54 -0.316567 -4.20209 0
M  V30 28027 H 2595.27 0.461589 -3.23322 0
M  V30 28028 H 2593.93 -1.67071 -3.26317 0
M  V30 28029 H 2593.57 0.0644145 -5.02959 0
M  V30 28030 H 2593.27 -1.57407 -5.66124 0
M  V30 28031 H 2594.8 -0.732136 -6.06195 0
M  V30 28032 H 2596.21 -2.75455 -5.0279 0
M  V30 28033 H 2594.61 -3.52669 -4.85535 0
M  V30 28034 H 2595.68 -3.41087 -3.44656 0
M  V30 28035 N 2597.02 1.21924 -0.998617 0
M  V30 28036 C 2598.26 1.92545 -0.685981 0
M  V30 28037 C 2598.63 1.75953 0.76841 0
M  V30 28038 O 2599.83 2.40889 1.19273 0
M  V30 28039 C 2598.1 3.40446 -1.08773 0
M  V30 28040 S 2599.66 4.2959 -0.894326 0
M  V30 28041 H 2596.47 0.66536 -0.250633 0
M  V30 28042 H 2599.08 1.47589 -1.2821 0
M  V30 28043 H 2597.78 3.50037 -2.14248 0
M  V30 28044 H 2597.31 3.90416 -0.483638 0
M  V30 28045 H 2599.33 4.95747 0.212061 0
M  V30 28046 N 2598.5 0.772537 1.37367 0
M  V30 28047 C 2599.45 0.157528 2.30262 0
M  V30 28048 C 2600.42 -0.688939 1.51138 0
M  V30 28049 O 2601.6 -0.641137 1.79706 0
M  V30 28050 C 2598.74 -0.714986 3.37612 0
M  V30 28051 C 2597.85 0.148174 4.31746 0
M  V30 28052 C 2596.99 -0.72912 5.26172 0
M  V30 28053 C 2596.03 0.136525 6.11948 0
M  V30 28054 N 2595.17 -0.698791 6.98614 0
M  V30 28055 H 2600.01 0.955228 2.82275 0
M  V30 28056 H 2597.54 0.482656 1.38956 0
M  V30 28057 H 2599.5 -1.23568 3.98481 0
M  V30 28058 H 2598.13 -1.47828 2.86961 0
M  V30 28059 H 2597.18 0.786679 3.72177 0
M  V30 28060 H 2598.49 0.815877 4.92082 0
M  V30 28061 H 2597.65 -1.31626 5.92249 0
M  V30 28062 H 2596.39 -1.4305 4.66249 0
M  V30 28063 H 2595.39 0.736198 5.44849 0
M  V30 28064 H 2596.62 0.835252 6.73944 0
M  V30 28065 H 2594.56 -1.38477 6.41218 0
M  V30 28066 H 2594.48 -0.0884029 7.55948 0
M  V30 28067 H 2595.75 -1.2703 7.6908 0
M  V30 28068 N 2599.98 -1.48664 0.523142 0
M  V30 28069 C 2601.23 -2.01694 -0.0154046 0
M  V30 28070 C 2601.54 -1.40609 -1.35973 0
M  V30 28071 O 2602.75 -1.85096 -1.98624 0
M  V30 28072 C 2601.2 -3.59816 -0.0778671 0
M  V30 28073 C 2600.81 -4.29883 1.26114 0
M  V30 28074 C 2602.55 -4.20715 -0.565604 0
M  V30 28075 C 2600.46 -5.79919 1.15964 0
M  V30 28076 H 2599.39 -0.75394 -0.00952838 0
M  V30 28077 H 2602.04 -1.70991 0.665895 0
M  V30 28078 H 2600.42 -3.8733 -0.824097 0
M  V30 28079 H 2601.6 -4.14048 2.0224 0
M  V30 28080 H 2599.91 -3.80825 1.68407 0
M  V30 28081 H 2602.51 -5.30618 -0.659406 0
M  V30 28082 H 2602.85 -3.8557 -1.56977 0
M  V30 28083 H 2603.39 -3.97604 0.12474 0
M  V30 28084 H 2600.12 -6.19627 2.13875 0
M  V30 28085 H 2599.64 -5.98187 0.439634 0
M  V30 28086 H 2601.32 -6.41426 0.847473 0
M  V30 28087 N 2601.46 -0.257958 -1.55475 0
M  V30 28088 C 2602.68 0.367524 -2.0361 0
M  V30 28089 C 2603.1 1.50732 -1.1369 0
M  V30 28090 O 2602.46 1.81853 -0.153511 0
M  V30 28091 C 2602.51 0.864846 -3.51002 0
M  V30 28092 O 2602.23 -0.229542 -4.37498 0
M  V30 28093 C 2603.73 1.55989 -4.14948 0
M  V30 28094 H 2600.95 0.0860404 -0.665461 0
M  V30 28095 H 2603.49 -0.385049 -2.00842 0
M  V30 28096 H 2601.65 1.56756 -3.54269 0
M  V30 28097 H 2602.06 0.149888 -5.24286 0
M  V30 28098 H 2603.54 1.85947 -5.19738 0
M  V30 28099 H 2604.01 2.48564 -3.62095 0
M  V30 28100 H 2604.62 0.90147 -4.15636 0
M  V30 28101 N 2602.93 1.57593 0.0150108 0
M  V30 28102 C 2603.84 2.10884 1.02787 0
M  V30 28103 C 2604.86 1.05063 1.387 0
M  V30 28104 O 2606.04 1.36879 1.47736 0
M  V30 28105 C 2603.1 2.58923 2.30564 0
M  V30 28106 C 2602.16 3.79284 2.01102 0
M  V30 28107 C 2601.4 4.25023 3.22786 0
M  V30 28108 O 2601.62 3.70191 4.33953 0
M  V30 28109 O 2600.55 5.17327 3.07662 0
M  V30 28110 H 2604.38 2.97615 0.604921 0
M  V30 28111 H 2601.96 1.47574 0.232894 0
M  V30 28112 H 2603.85 2.90089 3.05657 0
M  V30 28113 H 2602.52 1.75297 2.72126 0
M  V30 28114 H 2601.43 3.53116 1.23531 0
M  V30 28115 H 2602.76 4.63938 1.64386 0
M  V30 28116 N 2604.41 -0.287527 1.54955 0
M  V30 28117 C 2605.34 -1.35951 1.89841 0
M  V30 28118 C 2606.32 -1.52242 0.758702 0
M  V30 28119 O 2607.51 -1.65527 1.0156 0
M  V30 28120 C 2604.64 -2.72151 2.15758 0
M  V30 28121 C 2603.59 -2.70608 3.31595 0
M  V30 28122 C 2602.92 -4.10223 3.42959 0
M  V30 28123 C 2604.22 -2.31157 4.68363 0
M  V30 28124 H 2605.91 -1.07002 2.79627 0
M  V30 28125 H 2603.46 -0.513292 1.34541 0
M  V30 28126 H 2605.41 -3.47242 2.38749 0
M  V30 28127 H 2604.14 -3.02652 1.22757 0
M  V30 28128 H 2602.79 -1.97974 3.08548 0
M  V30 28129 H 2602.44 -4.37924 2.47451 0
M  V30 28130 H 2602.14 -4.10089 4.20833 0
M  V30 28131 H 2603.67 -4.87074 3.68227 0
M  V30 28132 H 2605.08 -2.95967 4.90995 0
M  V30 28133 H 2603.48 -2.42212 5.49048 0
M  V30 28134 H 2604.55 -1.26283 4.68167 0
M  V30 28135 N 2605.89 -1.47641 -0.551365 0
M  V30 28136 C 2607.14 -1.5426 -1.30569 0
M  V30 28137 C 2607.46 -0.208997 -1.93877 0
M  V30 28138 O 2606.73 0.767588 -1.80236 0
M  V30 28139 H 2605.31 -0.56824 -0.484884 0
M  V30 28140 H 2607.97 -1.83975 -0.64337 0
M  V30 28141 H 2607.07 -2.3123 -2.09617 0
M  V30 28142 N 2607.37 0.798563 -1.3587 0
M  V30 28143 C 2608.6 1.58489 -1.32532 0
M  V30 28144 C 2609.01 1.88949 0.0975073 0
M  V30 28145 O 2608.35 1.49876 1.06221 0
M  V30 28146 C 2608.41 2.93746 -2.07252 0
M  V30 28147 C 2608.08 2.86062 -3.56396 0
M  V30 28148 C 2609.07 2.58939 -4.50829 0
M  V30 28149 C 2606.76 3.04926 -3.99156 0
M  V30 28150 C 2608.75 2.5077 -5.85998 0
M  V30 28151 C 2606.44 2.9638 -5.34418 0
M  V30 28152 C 2607.44 2.69338 -6.27651 0
M  V30 28153 O 2607.12 2.60769 -7.60431 0
M  V30 28154 H 2606.86 0.498548 -0.456537 0
M  V30 28155 H 2609.41 0.999767 -1.79426 0
M  V30 28156 H 2607.64 3.54273 -1.55007 0
M  V30 28157 H 2609.33 3.5495 -1.96889 0
M  V30 28158 H 2610.1 2.44076 -4.19108 0
M  V30 28159 H 2605.97 3.24983 -3.26966 0
M  V30 28160 H 2609.52 2.29584 -6.58739 0
M  V30 28161 H 2605.42 3.10803 -5.65749 0
M  V30 28162 H 2606.18 2.76318 -7.70448 0
M  V30 28163 N 2608.85 1.19999 1.02166 0
M  V30 28164 C 2610.09 1.00706 1.75683 0
M  V30 28165 C 2610.42 -0.461393 1.88948 0
M  V30 28166 O 2609.68 -1.35882 1.40835 0
M  V30 28167 C 2609.98 1.62975 3.18079 0
M  V30 28168 C 2609.64 3.12751 3.24804 0
M  V30 28169 C 2608.3 3.53627 3.26346 0
M  V30 28170 C 2610.66 4.08754 3.23372 0
M  V30 28171 C 2607.98 4.89042 3.24122 0
M  V30 28172 C 2610.34 5.44109 3.22688 0
M  V30 28173 C 2609 5.84405 3.22532 0
M  V30 28174 H 2608.27 0.368508 0.642871 0
M  V30 28175 H 2610.92 1.4935 1.19862 0
M  V30 28176 H 2609.22 1.06579 3.77025 0
M  V30 28177 H 2610.92 1.45567 3.73646 0
M  V30 28178 H 2607.51 2.80187 3.24335 0
M  V30 28179 H 2611.69 3.78213 3.21354 0
M  V30 28180 H 2606.95 5.19533 3.22329 0
M  V30 28181 H 2611.12 6.18249 3.20532 0
M  V30 28182 H 2608.75 6.89307 3.20563 0
M  V30 28183 N 2610.32 -1.21392 1.00507 0
M  V30 28184 C 2611.55 -1.94999 0.706401 0
M  V30 28185 C 2611.97 -1.73583 -0.7246 0
M  V30 28186 O 2611.33 -1.02272 -1.497 0
M  V30 28187 C 2611.38 -3.45486 1.03306 0
M  V30 28188 O 2610.48 -4.12168 0.138347 0
M  V30 28189 H 2609.83 -0.609614 0.263186 0
M  V30 28190 H 2612.36 -1.54149 1.34533 0
M  V30 28191 H 2612.37 -3.96057 0.979942 0
M  V30 28192 H 2611.04 -3.60397 2.07573 0
M  V30 28193 H 2609.62 -3.72074 0.247994 0
M  V30 28194 N 2611.8 -0.779811 -1.36955 0
M  V30 28195 C 2612.77 -0.177702 -2.2851 0
M  V30 28196 C 2613.77 0.619351 -1.48394 0
M  V30 28197 O 2614.96 0.441755 -1.68506 0
M  V30 28198 C 2612.09 0.75522 -3.32429 0
M  V30 28199 H 2613.28 -0.984873 -2.83267 0
M  V30 28200 H 2610.83 -0.54857 -1.46357 0
M  V30 28201 H 2611.57 1.58709 -2.82811 0
M  V30 28202 H 2611.35 0.185749 -3.9166 0
M  V30 28203 H 2612.84 1.17167 -4.00826 0
M  V30 28204 N 2613.28 1.48384 -0.531019 0
M  V30 28205 C 2614.56 1.95485 0.0671445 0
M  V30 28206 C 2614.94 1.47327 1.51189 0
M  V30 28207 O 2614.29 0.70024 2.17506 0
M  V30 28208 C 2614.5 3.48962 -0.0511819 0
M  V30 28209 C 2615.84 4.24464 0.107557 0
M  V30 28210 O 2616.87 3.56193 0.0225622 0
M  V30 28211 O 2615.73 5.45752 0.285876 0
M  V30 28212 H 2612.82 0.823245 0.078722 0
M  V30 28213 H 2615.37 1.58901 -0.59569 0
M  V30 28214 H 2614.14 3.76738 -1.05754 0
M  V30 28215 H 2613.76 3.92243 0.650456 0
M  V30 28216 N 2614.76 0.2662 1.55336 0
M  V30 28217 C 2616.01 -0.353123 1.99397 0
M  V30 28218 C 2616.33 -1.56527 1.15454 0
M  V30 28219 O 2615.59 -1.9457 0.210008 0
M  V30 28220 C 2615.89 -0.787895 3.48607 0
M  V30 28221 C 2615.55 0.31862 4.49773 0
M  V30 28222 C 2614.22 0.622474 4.77157 0
M  V30 28223 C 2616.57 1.06468 5.1021 0
M  V30 28224 C 2613.9 1.67612 5.62248 0
M  V30 28225 C 2616.25 2.10798 5.96445 0
M  V30 28226 C 2614.91 2.41828 6.22154 0
M  V30 28227 H 2614.18 -0.129217 0.729646 0
M  V30 28228 H 2616.83 0.378053 1.87731 0
M  V30 28229 H 2615.13 -1.5986 3.57704 0
M  V30 28230 H 2616.83 -1.27768 3.801 0
M  V30 28231 H 2613.42 0.0716678 4.2854 0
M  V30 28232 H 2617.6 0.843184 4.89085 0
M  V30 28233 H 2612.86 1.92165 5.80416 0
M  V30 28234 H 2617.03 2.69087 6.42312 0
M  V30 28235 H 2614.66 3.23608 6.87882 0
M  V30 28236 N 2616.24 -1.57599 -0.0066531 0
M  V30 28237 C 2617.48 -1.90559 -0.693914 0
M  V30 28238 C 2617.82 -0.866625 -1.73791 0
M  V30 28239 O 2617.09 0.115514 -1.94157 0
M  V30 28240 C 2617.37 -3.34115 -1.34311 0
M  V30 28241 C 2617.23 -4.48723 -0.31111 0
M  V30 28242 C 2618.55 -3.76974 -2.27109 0
M  V30 28243 H 2615.66 -0.693017 -0.250791 0
M  V30 28244 H 2618.31 -1.89951 0.0432754 0
M  V30 28245 H 2616.46 -3.34763 -1.97144 0
M  V30 28246 H 2618.13 -4.60209 0.317025 0
M  V30 28247 H 2616.37 -4.32242 0.367329 0
M  V30 28248 H 2617.04 -5.46109 -0.80427 0
M  V30 28249 H 2619.52 -3.77834 -1.743 0
M  V30 28250 H 2618.39 -4.78184 -2.69502 0
M  V30 28251 H 2618.66 -3.10472 -3.14738 0
M  V30 28252 N 2617.72 0.279305 -1.55105 0
M  V30 28253 C 2618.65 1.34942 -1.90559 0
M  V30 28254 C 2619.63 1.51838 -0.766765 0
M  V30 28255 O 2620.81 1.64986 -1.02437 0
M  V30 28256 C 2617.94 2.71002 -2.17198 0
M  V30 28257 C 2616.9 2.68845 -3.33026 0
M  V30 28258 C 2616.22 4.08399 -3.4513 0
M  V30 28259 C 2617.52 2.2867 -4.69582 0
M  V30 28260 H 2619.22 1.05517 -2.8019 0
M  V30 28261 H 2616.76 0.50615 -1.34811 0
M  V30 28262 H 2618.71 3.45971 -2.40587 0
M  V30 28263 H 2617.44 3.01997 -1.2436 0
M  V30 28264 H 2616.1 1.96335 -3.09594 0
M  V30 28265 H 2615.75 4.36605 -2.4977 0
M  V30 28266 H 2615.45 4.07852 -4.23002 0
M  V30 28267 H 2616.97 4.85115 -3.70805 0
M  V30 28268 H 2618.38 2.93359 -4.92558 0
M  V30 28269 H 2616.78 2.39296 -5.50325 0
M  V30 28270 H 2617.85 1.23798 -4.6883 0
M  V30 28271 N 2619.19 1.47931 0.543528 0
M  V30 28272 C 2620.44 1.5495 1.29749 0
M  V30 28273 C 2620.76 0.219276 1.93763 0
M  V30 28274 O 2620.03 -0.758019 1.8064 0
M  V30 28275 H 2618.61 0.570803 0.481864 0
M  V30 28276 H 2621.27 1.84314 0.633604 0
M  V30 28277 H 2620.37 2.32338 2.08388 0
M  V30 28278 N 2620.67 -0.791347 1.36292 0
M  V30 28279 C 2621.62 -1.8936 1.26991 0
M  V30 28280 C 2622.61 -1.60084 0.161823 0
M  V30 28281 O 2623.8 -1.72549 0.394456 0
M  V30 28282 C 2620.93 -3.26542 1.0595 0
M  V30 28283 C 2620.01 -3.61834 2.21217 0
M  V30 28284 N 2620.4 -3.68449 3.46525 0
M  V30 28285 C 2618.7 -3.91883 2.1294 0
M  V30 28286 C 2619.4 -3.99924 4.22417 0
M  V30 28287 N 2618.38 -4.14806 3.51336 0
M  V30 28288 H 2622.18 -1.92698 2.21912 0
M  V30 28289 H 2619.69 -0.986765 1.28983 0
M  V30 28290 H 2621.69 -4.05369 0.973738 0
M  V30 28291 H 2620.35 -3.24481 0.11928 0
M  V30 28292 H 2621.36 -3.51142 3.80684 0
M  V30 28293 H 2618.04 -3.97759 1.26862 0
M  V30 28294 H 2619.43 -4.11981 5.30774 0
M  V30 28295 N 2622.15 -1.2054 -1.01528 0
M  V30 28296 C 2623.4 -1.0106 -1.74556 0
M  V30 28297 C 2623.71 0.457723 -1.90169 0
M  V30 28298 O 2624.92 0.771676 -2.60303 0
M  V30 28299 C 2623.37 -1.75946 -3.1396 0
M  V30 28300 C 2622.98 -3.2688 -3.06355 0
M  V30 28301 C 2624.73 -1.64839 -3.91188 0
M  V30 28302 C 2622.63 -3.94299 -4.40775 0
M  V30 28303 H 2621.56 -0.374517 -0.654411 0
M  V30 28304 H 2624.21 -1.44173 -1.13518 0
M  V30 28305 H 2622.6 -1.2562 -3.75547 0
M  V30 28306 H 2623.77 -3.8443 -2.54068 0
M  V30 28307 H 2622.08 -3.38415 -2.42619 0
M  V30 28308 H 2624.68 -2.12548 -4.9064 0
M  V30 28309 H 2625.02 -0.604818 -4.11883 0
M  V30 28310 H 2625.56 -2.12585 -3.36233 0
M  V30 28311 H 2622.3 -4.98813 -4.25283 0
M  V30 28312 H 2621.82 -3.41538 -4.93064 0
M  V30 28313 H 2623.5 -3.98626 -5.09614 0
M  V30 28314 N 2623.63 1.20858 -1.01149 0
M  V30 28315 C 2624.56 2.25721 -0.597702 0
M  V30 28316 C 2625.54 1.65692 0.384714 0
M  V30 28317 O 2626.72 1.92296 0.271269 0
M  V30 28318 C 2623.85 3.4723 0.0699539 0
M  V30 28319 C 2622.81 4.19817 -0.832917 0
M  V30 28320 C 2622.13 5.34691 -0.0313142 0
M  V30 28321 C 2623.43 4.7651 -2.13858 0
M  V30 28322 H 2625.13 2.60587 -1.47428 0
M  V30 28323 H 2622.67 1.25261 -0.710323 0
M  V30 28324 H 2624.63 4.19764 0.370956 0
M  V30 28325 H 2623.35 3.11512 0.981205 0
M  V30 28326 H 2622.01 3.49142 -1.11784 0
M  V30 28327 H 2621.66 4.95217 0.881428 0
M  V30 28328 H 2621.36 5.84186 -0.632536 0
M  V30 28329 H 2622.88 6.10032 0.263353 0
M  V30 28330 H 2624.3 5.4089 -1.90029 0
M  V30 28331 H 2622.69 5.36421 -2.69022 0
M  V30 28332 H 2623.76 3.95533 -2.80502 0
M  V30 28333 N 2625.11 0.787064 1.3654 0
M  V30 28334 C 2626.04 0.198033 2.32659 0
M  V30 28335 C 2627.02 -0.665669 1.56534 0
M  V30 28336 O 2628.2 -0.599978 1.84699 0
M  V30 28337 C 2625.33 -0.669841 3.40779 0
M  V30 28338 C 2624.29 0.0937791 4.27897 0
M  V30 28339 C 2623.61 -0.894536 5.27164 0
M  V30 28340 C 2624.91 1.28163 5.06332 0
M  V30 28341 H 2626.61 1.00104 2.82169 0
M  V30 28342 H 2624.15 0.482817 1.35665 0
M  V30 28343 H 2626.1 -1.09184 4.0701 0
M  V30 28344 H 2624.83 -1.50553 2.8983 0
M  V30 28345 H 2623.49 0.496724 3.63219 0
M  V30 28346 H 2623.14 -1.72519 4.72489 0
M  V30 28347 H 2622.84 -0.388046 5.86317 0
M  V30 28348 H 2624.36 -1.31515 5.96269 0
M  V30 28349 H 2625.77 0.93551 5.65616 0
M  V30 28350 H 2624.17 1.72125 5.74885 0
M  V30 28351 H 2625.24 2.07815 4.38111 0
M  V30 28352 N 2626.58 -1.48101 0.53888 0
M  V30 28353 C 2627.83 -2.02498 0.00803739 0
M  V30 28354 C 2628.16 -1.41511 -1.33435 0
M  V30 28355 O 2627.41 -0.55354 -1.87708 0
M  V30 28356 C 2627.71 -3.57069 -0.153745 0
M  V30 28357 C 2627.38 -4.36886 1.11541 0
M  V30 28358 C 2626.04 -4.58414 1.46322 0
M  V30 28359 C 2628.39 -4.83053 1.95726 0
M  V30 28360 C 2625.72 -5.23357 2.65169 0
M  V30 28361 C 2628.07 -5.49306 3.1376 0
M  V30 28362 C 2626.74 -5.69071 3.48876 0
M  V30 28363 H 2626.01 -0.740994 0.00294109 0
M  V30 28364 H 2628.65 -1.77983 0.706699 0
M  V30 28365 H 2626.96 -3.80474 -0.935242 0
M  V30 28366 H 2628.66 -3.9679 -0.579537 0
M  V30 28367 H 2625.25 -4.20396 0.834558 0
M  V30 28368 H 2629.43 -4.66216 1.70166 0
M  V30 28369 H 2624.69 -5.36856 2.92567 0
M  V30 28370 H 2628.86 -5.84046 3.79293 0
M  V30 28371 H 2626.49 -6.19165 4.41065 0
M  V30 28372 N 2628.06 -0.274434 -1.55192 0
M  V30 28373 C 2629.31 0.343051 -1.99877 0
M  V30 28374 C 2629.64 1.55555 -1.16259 0
M  V30 28375 O 2628.92 1.93105 -0.232496 0
M  V30 28376 C 2629.2 0.725903 -3.52708 0
M  V30 28377 C 2629.05 -0.493896 -4.4708 0
M  V30 28378 C 2630.37 1.5626 -4.11425 0
M  V30 28379 H 2627.49 0.123216 -0.726627 0
M  V30 28380 H 2630.13 -0.381243 -1.86136 0
M  V30 28381 H 2628.28 1.34301 -3.64548 0
M  V30 28382 H 2629.95 -1.13245 -4.47184 0
M  V30 28383 H 2628.2 -1.13208 -4.18768 0
M  V30 28384 H 2628.87 -0.182267 -5.51699 0
M  V30 28385 H 2631.34 1.04144 -4.02856 0
M  V30 28386 H 2630.22 1.7993 -5.18572 0
M  V30 28387 H 2630.48 2.54341 -3.61611 0
M  V30 28388 N 2629.54 1.576 -0.00170483 0
M  V30 28389 C 2630.47 2.03978 1.02313 0
M  V30 28390 C 2631.45 0.929987 1.33379 0
M  V30 28391 O 2632.63 1.19824 1.45514 0
M  V30 28392 C 2629.76 2.43882 2.35031 0
M  V30 28393 C 2628.81 3.65611 2.19615 0
M  V30 28394 S 2629.64 5.13457 1.52059 0
M  V30 28395 C 2630.8 5.56632 2.86203 0
M  V30 28396 H 2631.03 2.90586 0.628234 0
M  V30 28397 H 2628.56 1.52976 0.209212 0
M  V30 28398 H 2630.52 2.6754 3.1134 0
M  V30 28399 H 2629.18 1.5767 2.7166 0
M  V30 28400 H 2628.37 3.91288 3.17663 0
M  V30 28401 H 2627.98 3.41964 1.51449 0
M  V30 28402 H 2630.27 5.59196 3.825 0
M  V30 28403 H 2631.21 6.56553 2.65223 0
M  V30 28404 H 2631.62 4.842 2.9019 0
M  V30 28405 N 2631.02 -0.271076 1.55251 0
M  V30 28406 C 2631.95 -1.33929 1.91272 0
M  V30 28407 C 2632.93 -1.51429 0.774806 0
M  V30 28408 O 2634.11 -1.6444 1.0331 0
M  V30 28409 C 2631.24 -2.69847 2.18632 0
M  V30 28410 C 2630.2 -2.67076 3.34447 0
M  V30 28411 C 2629.52 -4.06563 3.47291 0
M  V30 28412 C 2630.82 -2.26176 4.70788 0
M  V30 28413 H 2632.52 -1.0403 2.80746 0
M  V30 28414 H 2630.06 -0.498993 1.35078 0
M  V30 28415 H 2632.02 -3.4469 2.42419 0
M  V30 28416 H 2630.74 -3.01333 1.2596 0
M  V30 28417 H 2629.4 -1.9469 3.10631 0
M  V30 28418 H 2629.05 -4.35274 2.52082 0
M  V30 28419 H 2628.75 -4.05603 4.25159 0
M  V30 28420 H 2630.27 -4.83142 3.73372 0
M  V30 28421 H 2631.69 -2.90743 4.94107 0
M  V30 28422 H 2630.08 -2.36375 5.51586 0
M  V30 28423 H 2631.15 -1.2131 4.6948 0
M  V30 28424 N 2632.5 -1.48217 -0.535675 0
M  V30 28425 C 2633.91 -1.4955 -1.11767 0
M  V30 28426 C 2634.26 -0.262104 -1.94441 0
M  V30 28427 O 2633.38 0.63125 -2.06988 0
M  V30 28428 C 2633.98 -2.70978 -2.03363 0
M  V30 28429 C 2632.54 -2.75201 -2.56791 0
M  V30 28430 C 2631.68 -2.4298 -1.33627 0
M  V30 28431 H 2634.64 -1.55415 -0.321205 0
M  V30 28432 H 2634.66 -2.49172 -2.87565 0
M  V30 28433 H 2634.17 -3.6073 -1.43163 0
M  V30 28434 H 2632.27 -1.89643 -3.20728 0
M  V30 28435 H 2632.38 -3.76477 -2.96313 0
M  V30 28436 H 2630.75 -1.94015 -1.65017 0
M  V30 28437 H 2631.53 -3.34965 -0.751881 0
M  V30 28438 N 2633.97 0.784108 -1.3671 0
M  V30 28439 C 2634.94 1.87857 -1.3131 0
M  V30 28440 C 2635.94 1.59292 -0.219682 0
M  V30 28441 O 2637.13 1.67605 -0.47479 0
M  V30 28442 C 2634.26 3.24749 -1.03685 0
M  V30 28443 H 2635.45 1.9406 -2.2865 0
M  V30 28444 H 2633.01 0.982499 -1.21559 0
M  V30 28445 H 2633.74 3.24228 -0.0682506 0
M  V30 28446 H 2633.53 3.46872 -1.82817 0
M  V30 28447 H 2635.02 4.04819 -1.02526 0
M  V30 28448 N 2635.45 1.21076 1.00888 0
M  V30 28449 C 2636.38 0.99056 2.11448 0
M  V30 28450 C 2637.36 -0.08314 1.69897 0
M  V30 28451 O 2638.55 0.0759194 1.94052 0
M  V30 28452 C 2635.68 0.550238 3.42914 0
M  V30 28453 C 2634.63 1.56806 3.98241 0
M  V30 28454 C 2633.96 0.984105 5.25566 0
M  V30 28455 C 2635.26 2.95388 4.30747 0
M  V30 28456 H 2636.95 1.91525 2.30127 0
M  V30 28457 H 2634.5 0.922269 1.1059 0
M  V30 28458 H 2636.45 0.383379 4.19652 0
M  V30 28459 H 2635.18 -0.410093 3.24015 0
M  V30 28460 H 2633.83 1.72241 3.23618 0
M  V30 28461 H 2633.48 0.01561 5.02998 0
M  V30 28462 H 2633.18 1.66394 5.63548 0
M  V30 28463 H 2634.71 0.828484 6.04953 0
M  V30 28464 H 2636.12 2.83419 4.98344 0
M  V30 28465 H 2634.52 3.60349 4.79863 0
M  V30 28466 H 2635.59 3.46527 3.39186 0
M  V30 28467 N 2636.93 -1.2032 1.01789 0
M  V30 28468 C 2638.17 -1.91429 0.716527 0
M  V30 28469 C 2638.53 -1.77153 -0.740321 0
M  V30 28470 O 2639.74 -2.42756 -1.15426 0
M  V30 28471 C 2638.01 -3.38672 1.14175 0
M  V30 28472 S 2639.57 -4.28112 0.962557 0
M  V30 28473 H 2636.38 -0.661288 0.261187 0
M  V30 28474 H 2638.99 -1.4553 1.30542 0
M  V30 28475 H 2637.69 -3.46584 2.1979 0
M  V30 28476 H 2637.22 -3.89597 0.545689 0
M  V30 28477 H 2639.24 -4.96021 -0.133166 0
M  V30 28478 N 2638.41 -0.794293 -1.3612 0
M  V30 28479 C 2639.66 -0.365499 -1.98361 0
M  V30 28480 C 2639.97 1.06994 -1.63742 0
M  V30 28481 O 2641.18 1.60125 -2.19254 0
M  V30 28482 C 2639.63 -0.602558 -3.5482 0
M  V30 28483 C 2639.24 -2.04974 -3.98359 0
M  V30 28484 C 2640.98 -0.238511 -4.23829 0
M  V30 28485 C 2638.89 -2.2332 -5.47615 0
M  V30 28486 H 2637.82 -0.132923 -0.742191 0
M  V30 28487 H 2640.47 -0.976617 -1.55353 0
M  V30 28488 H 2638.85 0.0783394 -3.95923 0
M  V30 28489 H 2640.03 -2.76743 -3.68442 0
M  V30 28490 H 2638.34 -2.37249 -3.42202 0
M  V30 28491 H 2640.94 -0.353798 -5.33528 0
M  V30 28492 H 2641.28 0.813935 -4.08266 0
M  V30 28493 H 2641.82 -0.872838 -3.88106 0
M  V30 28494 H 2638.56 -3.26965 -5.68132 0
M  V30 28495 H 2638.08 -1.5606 -5.79142 0
M  V30 28496 H 2639.75 -2.04271 -6.13907 0
M  V30 28497 N 2639.89 1.47813 -0.546727 0
M  V30 28498 C 2641.3 1.86372 -0.110597 0
M  V30 28499 C 2641.65 1.45451 1.31675 0
M  V30 28500 O 2640.77 0.852793 1.98888 0
M  V30 28501 C 2641.37 3.38244 -0.193933 0
M  V30 28502 C 2639.93 3.75935 0.187098 0
M  V30 28503 C 2639.07 2.71867 -0.546214 0
M  V30 28504 H 2642.03 1.39479 -0.757047 0
M  V30 28505 H 2642.05 3.75896 0.590152 0
M  V30 28506 H 2641.56 3.67997 -1.23288 0
M  V30 28507 H 2639.66 3.51798 1.22755 0
M  V30 28508 H 2639.77 4.78819 -0.164167 0
M  V30 28509 H 2638.14 2.54698 0.00949427 0
M  V30 28510 H 2638.92 3.04462 -1.58612 0
M  V30 28511 N 2641.36 0.28266 1.55044 0
M  V30 28512 C 2642.59 -0.334599 2.03873 0
M  V30 28513 C 2643 -1.49452 1.1602 0
M  V30 28514 O 2642.35 -1.82869 0.174481 0
M  V30 28515 C 2642.41 -0.870844 3.48793 0
M  V30 28516 C 2642.07 0.161419 4.56715 0
M  V30 28517 C 2643.07 0.983555 5.10512 0
M  V30 28518 C 2640.75 0.297833 5.01416 0
M  V30 28519 C 2642.75 1.92822 6.07535 0
M  V30 28520 C 2640.43 1.24597 5.98263 0
M  V30 28521 C 2641.43 2.05966 6.51204 0
M  V30 28522 O 2641.12 2.99175 7.46157 0
M  V30 28523 H 2640.85 -0.0793624 0.671325 0
M  V30 28524 H 2643.41 0.414765 2.01169 0
M  V30 28525 H 2641.64 -1.67041 3.48761 0
M  V30 28526 H 2643.33 -1.402 3.80918 0
M  V30 28527 H 2644.09 0.88894 4.76784 0
M  V30 28528 H 2639.97 -0.325524 4.59849 0
M  V30 28529 H 2643.51 2.56374 6.48782 0
M  V30 28530 H 2639.41 1.34137 6.31409 0
M  V30 28531 H 2640.18 2.93943 7.63898 0
M  V30 28532 N 2642.84 -1.57597 0.0100627 0
M  V30 28533 C 2644.09 -1.91284 -0.673663 0
M  V30 28534 C 2644.42 -0.885009 -1.72862 0
M  V30 28535 O 2643.7 0.0949146 -1.94268 0
M  V30 28536 C 2643.98 -3.3552 -1.3076 0
M  V30 28537 C 2643.83 -4.49028 -0.263499 0
M  V30 28538 C 2645.15 -3.79362 -2.23098 0
M  V30 28539 H 2642.27 -0.695638 -0.243427 0
M  V30 28540 H 2644.91 -1.89894 0.0634197 0
M  V30 28541 H 2643.06 -3.36836 -1.93582 0
M  V30 28542 H 2644.73 -4.59847 0.365819 0
M  V30 28543 H 2642.98 -4.31828 0.413153 0
M  V30 28544 H 2643.65 -5.46932 -0.746302 0
M  V30 28545 H 2646.12 -3.79662 -1.70282 0
M  V30 28546 H 2645 -4.81015 -2.64415 0
M  V30 28547 H 2645.26 -3.13792 -3.11427 0
M  V30 28548 N 2644.32 0.262839 -1.55393 0
M  V30 28549 C 2645.6 1.01496 -1.67206 0
M  V30 28550 C 2645.98 2.03938 -0.545222 0
M  V30 28551 O 2645.33 2.23956 0.453427 0
M  V30 28552 C 2645.54 1.66265 -3.0685 0
M  V30 28553 C 2646.88 2.17048 -3.64932 0
M  V30 28554 O 2647.91 1.76234 -3.09548 0
M  V30 28555 O 2646.77 2.91939 -4.61989 0
M  V30 28556 H 2643.86 0.471426 -0.679475 0
M  V30 28557 H 2646.41 0.257889 -1.67729 0
M  V30 28558 H 2645.18 0.920848 -3.8031 0
M  V30 28559 H 2644.8 2.48633 -3.1027 0
M  V30 28560 N 2645.8 1.48499 0.527807 0
M  V30 28561 C 2646.75 1.63183 1.63217 0
M  V30 28562 C 2647.72 0.473843 1.59198 0
M  V30 28563 O 2648.9 0.697594 1.7759 0
M  V30 28564 C 2646.04 1.67956 3.01471 0
M  V30 28565 C 2645.15 2.94877 3.15708 0
M  V30 28566 C 2644.29 2.90797 4.44534 0
M  V30 28567 C 2643.33 4.12412 4.52308 0
M  V30 28568 N 2642.46 4.06397 5.72526 0
M  V30 28569 H 2647.3 2.57492 1.50006 0
M  V30 28570 H 2644.84 1.27693 0.730275 0
M  V30 28571 H 2646.8 1.68705 3.81569 0
M  V30 28572 H 2645.43 0.771361 3.13448 0
M  V30 28573 H 2644.48 3.03863 2.28849 0
M  V30 28574 H 2645.79 3.84855 3.17313 0
M  V30 28575 H 2644.95 2.89959 5.32925 0
M  V30 28576 H 2643.69 1.9855 4.45454 0
M  V30 28577 H 2642.69 4.13523 3.62324 0
M  V30 28578 H 2643.92 5.0582 4.53125 0
M  V30 28579 H 2641.86 3.16972 5.74338 0
M  V30 28580 H 2641.78 4.90083 5.75634 0
M  V30 28581 H 2643.05 4.09621 6.63197 0
M  V30 28582 N 2647.28 -0.776847 1.37123 0
M  V30 28583 C 2648.52 -1.53522 1.3205 0
M  V30 28584 C 2648.85 -1.9426 -0.096529 0
M  V30 28585 O 2648.11 -1.63947 -1.06863 0
M  V30 28586 C 2648.41 -2.81607 2.20073 0
M  V30 28587 C 2648.07 -2.59947 3.68427 0
M  V30 28588 C 2646.73 -2.53747 4.08859 0
M  V30 28589 C 2649.09 -2.40423 4.62435 0
M  V30 28590 C 2646.41 -2.26008 5.41421 0
M  V30 28591 C 2648.77 -2.14209 5.95229 0
M  V30 28592 C 2647.43 -2.06451 6.34771 0
M  V30 28593 H 2646.7 -0.561777 0.483206 0
M  V30 28594 H 2649.35 -0.895238 1.69286 0
M  V30 28595 H 2647.65 -3.50138 1.75815 0
M  V30 28596 H 2649.35 -3.39461 2.13464 0
M  V30 28597 H 2645.94 -2.65632 3.36359 0
M  V30 28598 H 2650.12 -2.44206 4.32062 0
M  V30 28599 H 2645.38 -2.18494 5.71026 0
M  V30 28600 H 2649.55 -1.981 6.6763 0
M  V30 28601 H 2647.18 -1.8472 7.37416 0
M  V30 28602 N 2648.76 -1.2161 -1.00244 0
M  V30 28603 C 2649.71 -0.945088 -2.0749 0
M  V30 28604 C 2650.69 0.100647 -1.60585 0
M  V30 28605 O 2651.88 -0.108621 -1.76666 0
M  V30 28606 C 2649.01 -0.514401 -3.39424 0
M  V30 28607 C 2648.1 -1.59434 -3.9299 0
M  V30 28608 N 2648.49 -2.81998 -4.19894 0
M  V30 28609 C 2646.79 -1.46381 -4.21294 0
M  V30 28610 C 2647.49 -3.51762 -4.63291 0
M  V30 28611 N 2646.46 -2.79208 -4.66416 0
M  V30 28612 H 2650.26 -1.87623 -2.26218 0
M  V30 28613 H 2647.78 -1.11221 -1.18337 0
M  V30 28614 H 2649.78 -0.3016 -4.15808 0
M  V30 28615 H 2648.44 0.409952 -3.22102 0
M  V30 28616 H 2649.45 -3.18517 -4.08372 0
M  V30 28617 H 2646.12 -0.604936 -4.13094 0
M  V30 28618 H 2647.51 -4.56717 -4.92808 0
M  V30 28619 N 2650.23 1.19778 -1.02425 0
M  V30 28620 C 2651.46 1.93851 -0.737334 0
M  V30 28621 C 2651.88 1.74714 0.696893 0
M  V30 28622 O 2651.24 1.04641 1.48054 0
M  V30 28623 C 2651.29 3.43798 -1.08789 0
M  V30 28624 O 2650.39 4.11896 -0.203902 0
M  V30 28625 H 2649.73 0.60535 -0.272851 0
M  V30 28626 H 2652.26 1.51989 -1.36969 0
M  V30 28627 H 2652.27 3.94448 -1.04283 0
M  V30 28628 H 2650.95 3.57049 -2.13281 0
M  V30 28629 H 2649.53 3.71633 -0.307156 0
M  V30 28630 N 2651.71 0.801501 1.35697 0
M  V30 28631 C 2652.96 0.380057 1.99207 0
M  V30 28632 C 2653.29 -1.04875 1.63447 0
M  V30 28633 O 2652.57 -1.72672 0.895253 0
M  V30 28634 C 2652.85 0.55777 3.55754 0
M  V30 28635 C 2652.7 2.03114 4.01329 0
M  V30 28636 C 2654.02 -0.0197195 4.40096 0
M  V30 28637 H 2651.14 0.139565 0.723665 0
M  V30 28638 H 2653.78 1.01009 1.60926 0
M  V30 28639 H 2651.93 0.0214424 3.88494 0
M  V30 28640 H 2653.6 2.62946 3.79021 0
M  V30 28641 H 2651.85 2.52942 3.52424 0
M  V30 28642 H 2652.52 2.10639 5.1023 0
M  V30 28643 H 2654.99 0.438251 4.13786 0
M  V30 28644 H 2653.87 0.134573 5.48735 0
M  V30 28645 H 2654.13 -1.11296 4.27862 0
M  V30 28646 N 2653.19 -1.47521 0.554558 0
M  V30 28647 C 2654.44 -2.01681 0.0273812 0
M  V30 28648 C 2654.75 -1.43461 -1.32959 0
M  V30 28649 O 2655.96 -1.89268 -1.94653 0
M  V30 28650 C 2654.41 -3.599 -0.00152731 0
M  V30 28651 C 2654.02 -4.27111 1.35204 0
M  V30 28652 C 2655.77 -4.2182 -0.476237 0
M  V30 28653 C 2653.67 -5.77329 1.28239 0
M  V30 28654 H 2652.6 -0.753972 0.00646594 0
M  V30 28655 H 2655.25 -1.69541 0.702015 0
M  V30 28656 H 2653.64 -3.88991 -0.741753 0
M  V30 28657 H 2654.81 -4.09665 2.10977 0
M  V30 28658 H 2653.12 -3.77167 1.76447 0
M  V30 28659 H 2655.72 -5.31898 -0.546706 0
M  V30 28660 H 2656.06 -3.88813 -1.48763 0
M  V30 28661 H 2656.6 -3.9725 0.20905 0
M  V30 28662 H 2653.34 -6.14951 2.2697 0
M  V30 28663 H 2652.86 -5.9712 0.566419 0
M  V30 28664 H 2654.54 -6.39484 0.983339 0
M  V30 28665 N 2654.67 -0.290879 -1.54892 0
M  V30 28666 C 2655.6 0.583044 -2.26104 0
M  V30 28667 C 2656.58 1.14617 -1.25686 0
M  V30 28668 O 2657.76 1.17739 -1.54439 0
M  V30 28669 C 2654.89 1.75982 -2.99412 0
M  V30 28670 C 2653.85 1.32751 -4.06892 0
M  V30 28671 C 2653.17 2.58864 -4.67861 0
M  V30 28672 C 2654.47 0.466148 -5.20216 0
M  V30 28673 H 2656.17 -0.0108741 -2.99398 0
M  V30 28674 H 2653.71 -0.00666999 -1.43998 0
M  V30 28675 H 2655.67 2.3772 -3.47947 0
M  V30 28676 H 2654.39 2.37981 -2.23679 0
M  V30 28677 H 2653.05 0.733236 -3.59192 0
M  V30 28678 H 2652.7 3.19156 -3.88778 0
M  V30 28679 H 2652.4 2.30644 -5.40442 0
M  V30 28680 H 2653.92 3.21424 -5.19152 0
M  V30 28681 H 2655.34 0.988948 -5.64706 0
M  V30 28682 H 2653.73 0.278155 -5.99455 0
M  V30 28683 H 2654.8 -0.511257 -4.82197 0
M  V30 28684 N 2656.15 1.57589 -0.0184203 0
M  V30 28685 C 2657.39 1.91355 0.662528 0
M  V30 28686 C 2657.72 0.893818 1.72746 0
M  V30 28687 O 2656.98 -0.0988166 1.9545 0
M  V30 28688 C 2657.27 3.31863 1.3267 0
M  V30 28689 C 2656.94 4.49182 0.393189 0
M  V30 28690 C 2655.6 4.81007 0.136218 0
M  V30 28691 C 2657.95 5.20607 -0.248457 0
M  V30 28692 C 2655.28 5.8162 -0.770384 0
M  V30 28693 C 2657.63 6.22187 -1.14305 0
M  V30 28694 C 2656.3 6.52459 -1.40901 0
M  V30 28695 H 2655.57 0.700218 0.242436 0
M  V30 28696 H 2658.22 1.91342 -0.0778966 0
M  V30 28697 H 2656.52 3.28088 2.14162 0
M  V30 28698 H 2658.22 3.55256 1.85995 0
M  V30 28699 H 2654.81 4.24328 0.603648 0
M  V30 28700 H 2658.99 4.9626 -0.0629703 0
M  V30 28701 H 2654.25 6.03425 -0.98426 0
M  V30 28702 H 2658.42 6.76656 -1.64649 0
M  V30 28703 H 2656.05 7.30239 -2.11319 0
M  V30 28704 N 2657.62 -0.254594 1.5553 0
M  V30 28705 C 2658.87 -0.980957 1.78182 0
M  V30 28706 C 2659.22 -1.83256 0.586092 0
M  V30 28707 O 2658.52 -1.86921 -0.420856 0
M  V30 28708 C 2658.71 -1.88103 3.03895 0
M  V30 28709 C 2658.54 -1.11804 4.3558 0
M  V30 28710 C 2657.31 -0.826255 4.98499 0
M  V30 28711 C 2659.51 -0.499396 5.1187 0
M  V30 28712 N 2657.49 -0.0384016 6.13888 0
M  V30 28713 C 2658.86 0.153401 6.1981 0
M  V30 28714 C 2660.92 -0.409088 4.96217 0
M  V30 28715 C 2659.62 0.887825 7.138 0
M  V30 28716 C 2661.65 0.311787 5.90578 0
M  V30 28717 C 2661.01 0.953251 6.9792 0
M  V30 28718 H 2657.11 -0.340323 0.704063 0
M  V30 28719 H 2659.69 -0.254821 1.93025 0
M  V30 28720 H 2657.86 -2.57927 2.90394 0
M  V30 28721 H 2659.59 -2.54238 3.14873 0
M  V30 28722 H 2656.35 -1.13613 4.59771 0
M  V30 28723 H 2656.77 0.343394 6.76129 0
M  V30 28724 H 2661.41 -0.890693 4.13312 0
M  V30 28725 H 2659.13 1.38106 7.96211 0
M  V30 28726 H 2662.72 0.382227 5.80543 0
M  V30 28727 H 2661.6 1.50216 7.69678 0
M  V30 28728 N 2659.1 -1.48777 -0.519925 0
M  V30 28729 C 2660.03 -1.66948 -1.6325 0
M  V30 28730 C 2661.01 -0.518252 -1.62013 0
M  V30 28731 O 2662.2 -0.75195 -1.79051 0
M  V30 28732 C 2659.33 -1.71842 -3.01807 0
M  V30 28733 C 2658.28 -2.86566 -3.17906 0
M  V30 28734 C 2657.61 -2.76556 -4.57625 0
M  V30 28735 C 2658.91 -4.27743 -2.99722 0
M  V30 28736 H 2660.6 -2.60093 -1.48298 0
M  V30 28737 H 2658.15 -1.25166 -0.712004 0
M  V30 28738 H 2660.1 -1.83142 -3.79522 0
M  V30 28739 H 2658.82 -0.752831 -3.17805 0
M  V30 28740 H 2657.48 -2.74837 -2.42611 0
M  V30 28741 H 2657.13 -1.77946 -4.70472 0
M  V30 28742 H 2656.83 -3.53545 -4.6934 0
M  V30 28743 H 2658.36 -2.89838 -5.37426 0
M  V30 28744 H 2659.77 -4.40252 -3.67221 0
M  V30 28745 H 2658.17 -5.05807 -3.22923 0
M  V30 28746 H 2659.24 -4.43505 -1.96039 0
M  V30 28747 N 2660.58 0.769564 -1.37534 0
M  V30 28748 C 2662 1.07043 -1.18381 0
M  V30 28749 C 2662.2 2.01489 -0.0214666 0
M  V30 28750 O 2661.25 2.44313 0.637766 0
M  V30 28751 C 2662.56 1.66583 -2.50341 0
M  V30 28752 C 2664.11 1.78831 -2.56882 0
M  V30 28753 C 2664.59 2.41785 -3.88978 0
M  V30 28754 N 2666.08 2.49233 -3.90432 0
M  V30 28755 C 2666.81 2.988 -4.89393 0
M  V30 28756 N 2666.31 3.48524 -5.98751 0
M  V30 28757 N 2668.1 2.97695 -4.76796 0
M  V30 28758 H 2660.25 0.142504 -2.11921 0
M  V30 28759 H 2662.52 0.125847 -0.93961 0
M  V30 28760 H 2662.22 1.04654 -3.35768 0
M  V30 28761 H 2662.1 2.65851 -2.67588 0
M  V30 28762 H 2664.48 2.39892 -1.7186 0
M  V30 28763 H 2664.56 0.783123 -2.43518 0
M  V30 28764 H 2664.21 1.81362 -4.74416 0
M  V30 28765 H 2664.14 3.42913 -3.99647 0
M  V30 28766 H 2666.63 2.14046 -3.11436 0
M  V30 28767 H 2666.94 3.84755 -6.70211 0
M  V30 28768 H 2665.29 3.46623 -6.02393 0
M  V30 28769 H 2668.48 2.5815 -3.90482 0
M  V30 28770 H 2668.65 3.36014 -5.54075 0
M  V30 28771 N 2662.06 1.22139 0.995977 0
M  V30 28772 C 2663.47 1.04138 1.54959 0
M  V30 28773 C 2663.82 -0.396114 1.9216 0
M  V30 28774 O 2662.95 -1.28066 1.74437 0
M  V30 28775 C 2663.54 1.88413 2.81577 0
M  V30 28776 C 2662.1 1.74718 3.33393 0
M  V30 28777 C 2661.25 1.8507 2.06506 0
M  V30 28778 H 2664.2 1.3603 0.817412 0
M  V30 28779 H 2664.22 1.39972 3.53819 0
M  V30 28780 H 2663.73 2.9303 2.5447 0
M  V30 28781 H 2661.83 0.728223 3.65414 0
M  V30 28782 H 2661.94 2.57209 4.04203 0
M  V30 28783 H 2660.31 1.28476 2.19923 0
M  V30 28784 H 2661.09 2.91211 1.81799 0
M  V30 28785 N 2663.54 -1.19233 1.03059 0
M  V30 28786 C 2664.76 -1.93457 0.747604 0
M  V30 28787 C 2665.19 -1.75081 -0.687617 0
M  V30 28788 O 2664.54 -1.05425 -1.47497 0
M  V30 28789 C 2664.59 -3.43217 1.10611 0
M  V30 28790 O 2663.7 -4.11782 0.225743 0
M  V30 28791 H 2663.04 -0.603894 0.276057 0
M  V30 28792 H 2665.57 -1.51261 1.37773 0
M  V30 28793 H 2665.58 -3.93889 1.06373 0
M  V30 28794 H 2664.25 -3.55913 2.15171 0
M  V30 28795 H 2662.83 -3.71465 0.32686 0
M  V30 28796 N 2665.01 -0.808686 -1.3527 0
M  V30 28797 C 2666.43 -0.49268 -1.51805 0
M  V30 28798 C 2666.63 0.985747 -1.75742 0
M  V30 28799 O 2665.69 1.77071 -1.80006 0
M  V30 28800 C 2667 -1.33986 -2.69199 0
M  V30 28801 C 2668.55 -1.33552 -2.83078 0
M  V30 28802 C 2669.02 -2.16686 -4.03498 0
M  V30 28803 N 2670.51 -2.14234 -4.1068 0
M  V30 28804 C 2671.25 -2.75316 -5.0298 0
M  V30 28805 N 2670.74 -3.45334 -6.00597 0
M  V30 28806 N 2672.54 -2.64947 -4.95742 0
M  V30 28807 H 2664.69 -1.76613 -1.1799 0
M  V30 28808 H 2666.95 -0.751825 -0.577463 0
M  V30 28809 H 2666.66 -2.38913 -2.58095 0
M  V30 28810 H 2666.53 -0.994555 -3.63852 0
M  V30 28811 H 2668.92 -0.294087 -2.93631 0
M  V30 28812 H 2669 -1.72071 -1.89275 0
M  V30 28813 H 2668.64 -3.20871 -3.93706 0
M  V30 28814 H 2668.57 -1.75526 -4.96486 0
M  V30 28815 H 2671.06 -1.63291 -3.408 0
M  V30 28816 H 2671.38 -3.89223 -6.67626 0
M  V30 28817 H 2669.72 -3.49439 -6.00764 0
M  V30 28818 H 2672.91 -2.09832 -4.18435 0
M  V30 28819 H 2673.09 -3.12839 -5.67482 0
M  V30 28820 N 2666.49 1.47225 -0.562374 0
M  V30 28821 C 2667.42 2.28142 0.21997 0
M  V30 28822 C 2668.44 1.37314 0.874571 0
M  V30 28823 O 2669.63 1.62092 0.747554 0
M  V30 28824 C 2666.73 3.11734 1.32947 0
M  V30 28825 C 2665.9 4.30557 0.770683 0
M  V30 28826 C 2664.96 4.95704 1.76533 0
M  V30 28827 O 2663.98 5.53934 1.3094 0
M  V30 28828 N 2665.19 4.90867 3.09887 0
M  V30 28829 H 2667.95 2.95925 -0.474159 0
M  V30 28830 H 2665.51 1.56912 -0.398788 0
M  V30 28831 H 2667.5 3.52183 1.99372 0
M  V30 28832 H 2666.07 2.4616 1.92676 0
M  V30 28833 H 2665.29 3.94137 -0.0704749 0
M  V30 28834 H 2666.58 5.07403 0.376783 0
M  V30 28835 H 2665.98 4.44767 3.49569 0
M  V30 28836 H 2664.54 5.35319 3.71855 0
M  V30 28837 N 2667.97 0.299089 1.54736 0
M  V30 28838 C 2669.22 -0.311514 1.9928 0
M  V30 28839 C 2669.53 -1.55152 1.1911 0
M  V30 28840 O 2670.74 -2.23659 1.53912 0
M  V30 28841 C 2669.19 -0.60557 3.54769 0
M  V30 28842 C 2668.8 0.615992 4.43745 0
M  V30 28843 C 2670.55 -1.17747 4.07843 0
M  V30 28844 C 2668.45 0.295194 5.90663 0
M  V30 28845 H 2667.38 -0.120174 0.744362 0
M  V30 28846 H 2670.03 0.407495 1.78918 0
M  V30 28847 H 2668.42 -1.38412 3.71023 0
M  V30 28848 H 2669.59 1.39225 4.39264 0
M  V30 28849 H 2667.91 1.1064 4.01432 0
M  V30 28850 H 2670.5 -1.4317 5.15176 0
M  V30 28851 H 2670.85 -2.11912 3.58328 0
M  V30 28852 H 2671.38 -0.46067 3.95124 0
M  V30 28853 H 2668.12 1.20535 6.44323 0
M  V30 28854 H 2667.64 -0.443834 5.98156 0
M  V30 28855 H 2669.32 -0.103935 6.46917 0
M  V30 28856 N 2669.45 -1.57577 0.0267774 0
M  V30 28857 C 2670.86 -1.5616 -0.329593 0
M  V30 28858 C 2671.06 -1.03216 -1.73057 0
M  V30 28859 O 2670.12 -0.677847 -2.43231 0
M  V30 28860 C 2671.43 -3.00159 -0.180337 0
M  V30 28861 C 2672.98 -3.11974 -0.253279 0
M  V30 28862 C 2673.46 -4.57807 -0.13284 0
M  V30 28863 N 2674.95 -4.62811 -0.189898 0
M  V30 28864 C 2675.68 -5.73273 -0.120454 0
M  V30 28865 N 2675.18 -6.928 -5.85384e-05 0
M  V30 28866 N 2676.97 -5.6183 -0.174271 0
M  V30 28867 H 2669.12 -1.90322 0.94293 0
M  V30 28868 H 2671.39 -0.875368 0.363916 0
M  V30 28869 H 2671.09 -3.42836 0.784636 0
M  V30 28870 H 2670.97 -3.65002 -0.951501 0
M  V30 28871 H 2673.35 -2.6921 -1.20871 0
M  V30 28872 H 2673.43 -2.49856 0.54822 0
M  V30 28873 H 2673.08 -5.01251 0.819161 0
M  V30 28874 H 2673.01 -5.17902 -0.953173 0
M  V30 28875 H 2675.5 -3.76837 -0.283191 0
M  V30 28876 H 2675.81 -7.72786 0.0463024 0
M  V30 28877 H 2674.16 -6.94991 0.0346911 0
M  V30 28878 H 2677.35 -4.6734 -0.266712 0
M  V30 28879 H 2677.52 -6.47895 -0.116688 0
M  V30 28880 N 2670.93 0.246342 -1.55663 0
M  V30 28881 C 2672.34 0.815361 -1.67955 0
M  V30 28882 C 2672.69 1.86001 -0.624334 0
M  V30 28883 O 2671.81 2.15182 0.22929 0
M  V30 28884 C 2672.41 1.48571 -3.04487 0
M  V30 28885 C 2670.97 2.00242 -3.18716 0
M  V30 28886 C 2670.11 0.85372 -2.63831 0
M  V30 28887 H 2673.07 0.0221413 -1.58685 0
M  V30 28888 H 2673.09 2.35375 -2.98963 0
M  V30 28889 H 2672.6 0.725155 -3.81265 0
M  V30 28890 H 2670.7 2.79176 -2.46762 0
M  V30 28891 H 2670.81 2.19942 -4.25632 0
M  V30 28892 H 2669.18 1.25438 -2.2167 0
M  V30 28893 H 2669.96 0.106242 -3.43136 0
M  V30 28894 N 2672.4 1.4905 0.512027 0
M  V30 28895 C 2673.82 1.51309 1.09373 0
M  V30 28896 C 2674.17 0.293005 1.94 0
M  V30 28897 O 2673.29 -0.59824 2.07966 0
M  V30 28898 C 2673.89 2.74179 1.99026 0
M  V30 28899 C 2672.45 2.79251 2.5238 0
M  V30 28900 C 2671.59 2.45075 1.29744 0
M  V30 28901 H 2674.54 1.55907 0.296439 0
M  V30 28902 H 2674.56 2.53716 2.83564 0
M  V30 28903 H 2674.08 3.62962 1.37406 0
M  V30 28904 H 2672.18 1.94722 3.1767 0
M  V30 28905 H 2672.29 3.81144 2.90286 0
M  V30 28906 H 2670.65 1.96615 1.61909 0
M  V30 28907 H 2671.44 3.36119 0.698496 0
M  V30 28908 N 2673.88 -0.762259 1.3794 0
M  V30 28909 C 2675.13 -1.51645 1.32991 0
M  V30 28910 C 2675.44 -1.95435 -0.0802578 0
M  V30 28911 O 2676.65 -2.70326 -0.252248 0
M  V30 28912 C 2675.11 -2.73881 2.3349 0
M  V30 28913 C 2674.71 -2.37151 3.80084 0
M  V30 28914 C 2676.46 -3.51797 2.37569 0
M  V30 28915 C 2674.37 -3.55945 4.72289 0
M  V30 28916 H 2673.3 -0.569362 0.494311 0
M  V30 28917 H 2675.95 -0.834054 1.6345 0
M  V30 28918 H 2674.33 -3.44058 1.96062 0
M  V30 28919 H 2675.5 -1.74696 4.26401 0
M  V30 28920 H 2673.82 -1.72388 3.7904 0
M  V30 28921 H 2676.41 -4.40109 3.03658 0
M  V30 28922 H 2676.76 -3.92336 1.39206 0
M  V30 28923 H 2677.29 -2.88625 2.73752 0
M  V30 28924 H 2674.03 -3.2048 5.71815 0
M  V30 28925 H 2673.55 -4.17473 4.3067 0
M  V30 28926 H 2675.23 -4.22638 4.89884 0
M  V30 28927 N 2675.36 -1.22666 -0.989486 0
M  V30 28928 C 2676.59 -1.07813 -1.76238 0
M  V30 28929 C 2677 0.374003 -1.85467 0
M  V30 28930 O 2676.34 1.27085 -1.32647 0
M  V30 28931 C 2676.4 -1.61855 -3.21004 0
M  V30 28932 C 2676.07 -3.10509 -3.35311 0
M  V30 28933 C 2677.06 -4.07901 -3.22354 0
M  V30 28934 C 2674.75 -3.50034 -3.60252 0
M  V30 28935 C 2676.74 -5.42804 -3.34129 0
M  V30 28936 C 2674.43 -4.85084 -3.71667 0
M  V30 28937 C 2675.43 -5.81278 -3.58615 0
M  V30 28938 O 2675.12 -7.13876 -3.69643 0
M  V30 28939 H 2674.85 -0.378351 -0.560202 0
M  V30 28940 H 2677.4 -1.62794 -1.25249 0
M  V30 28941 H 2675.63 -1.01285 -3.732 0
M  V30 28942 H 2677.32 -1.42613 -3.80021 0
M  V30 28943 H 2678.09 -3.78709 -3.02993 0
M  V30 28944 H 2673.97 -2.75682 -3.69487 0
M  V30 28945 H 2677.51 -6.17869 -3.23858 0
M  V30 28946 H 2673.41 -5.13957 -3.90536 0
M  V30 28947 H 2674.18 -7.21501 -3.86494 0
M  V30 28948 N 2676.84 1.18685 -1.0369 0
M  V30 28949 C 2678.06 1.93058 -0.757853 0
M  V30 28950 C 2678.49 1.75443 0.678323 0
M  V30 28951 O 2677.85 1.06205 1.46936 0
M  V30 28952 C 2677.9 3.42625 -1.12429 0
M  V30 28953 O 2677 4.11656 -0.247578 0
M  V30 28954 H 2676.34 0.602422 -0.279256 0
M  V30 28955 H 2678.87 1.50528 -1.38573 0
M  V30 28956 H 2678.88 3.9332 -1.0846 0
M  V30 28957 H 2677.56 3.54767 -2.17056 0
M  V30 28958 H 2676.13 3.71286 -0.346555 0
M  V30 28959 N 2678.32 0.815849 1.34839 0
M  V30 28960 C 2679.25 0.247339 2.32186 0
M  V30 28961 C 2680.23 -0.632316 1.57911 0
M  V30 28962 O 2681.41 -0.560665 1.85931 0
M  V30 28963 C 2678.54 -0.597406 3.42123 0
M  V30 28964 C 2677.5 0.184521 4.27602 0
M  V30 28965 C 2676.82 -0.782516 5.28943 0
M  V30 28966 C 2678.12 1.38874 5.03499 0
M  V30 28967 H 2679.82 1.06066 2.79983 0
M  V30 28968 H 2677.36 0.511485 1.3461 0
M  V30 28969 H 2679.32 -1.00526 4.09234 0
M  V30 28970 H 2678.04 -1.44371 2.92958 0
M  V30 28971 H 2676.7 0.573656 3.62084 0
M  V30 28972 H 2676.35 -1.62458 4.76043 0
M  V30 28973 H 2676.05 -0.263592 5.87008 0
M  V30 28974 H 2677.57 -1.18837 5.98924 0
M  V30 28975 H 2678.99 1.05527 5.63504 0
M  V30 28976 H 2677.38 1.8428 5.71105 0
M  V30 28977 H 2678.45 2.17061 4.33604 0
M  V30 28978 N 2679.8 -1.46924 0.570174 0
M  V30 28979 C 2680.74 -2.30171 -0.170217 0
M  V30 28980 C 2681.71 -1.39856 -0.896074 0
M  V30 28981 O 2682.9 -1.68812 -0.889218 0
M  V30 28982 C 2680.04 -3.24081 -1.18599 0
M  V30 28983 C 2679.15 -4.29491 -0.464871 0
M  V30 28984 C 2678.29 -5.10539 -1.46707 0
M  V30 28985 C 2677.32 -6.07712 -0.731651 0
M  V30 28986 N 2676.46 -6.81672 -1.6813 0
M  V30 28987 H 2681.3 -2.9296 0.545765 0
M  V30 28988 H 2678.84 -1.44392 0.280963 0
M  V30 28989 H 2680.8 -3.7696 -1.78765 0
M  V30 28990 H 2679.43 -2.63129 -1.86984 0
M  V30 28991 H 2678.48 -3.79567 0.251573 0
M  V30 28992 H 2679.79 -4.98677 0.110636 0
M  V30 28993 H 2678.94 -5.67634 -2.14189 0
M  V30 28994 H 2677.68 -4.41285 -2.0765 0
M  V30 28995 H 2676.69 -5.49783 -0.042982 0
M  V30 28996 H 2677.91 -6.7898 -0.127784 0
M  V30 28997 H 2675.86 -6.15138 -2.27907 0
M  V30 28998 H 2675.78 -7.47074 -1.15828 0
M  V30 28999 H 2677.04 -7.43332 -2.34687 0
M  V30 29000 N 2681.27 -0.307291 -1.54575 0
M  V30 29001 C 2682.21 0.599768 -2.21214 0
M  V30 29002 C 2683.22 1.09264 -1.20687 0
M  V30 29003 O 2684.41 1.00901 -1.47246 0
M  V30 29004 C 2681.51 1.83384 -2.84998 0
M  V30 29005 C 2680.68 1.48241 -4.11514 0
M  V30 29006 C 2679.74 2.57229 -4.59042 0
M  V30 29007 O 2678.77 2.22056 -5.24099 0
M  V30 29008 N 2679.97 3.87879 -4.31891 0
M  V30 29009 H 2682.73 0.0292548 -2.99686 0
M  V30 29010 H 2680.29 -0.129767 -1.61379 0
M  V30 29011 H 2682.29 2.55654 -3.13724 0
M  V30 29012 H 2680.86 2.31259 -2.10328 0
M  V30 29013 H 2680.08 0.592053 -3.89729 0
M  V30 29014 H 2681.36 1.22307 -4.93881 0
M  V30 29015 H 2680.76 4.19261 -3.79785 0
M  V30 29016 H 2679.32 4.56429 -4.65312 0
M  V30 29017 N 2682.75 1.57561 -0.0351337 0
M  V30 29018 C 2683.98 1.9676 0.655767 0
M  V30 29019 C 2684.4 0.911837 1.64521 0
M  V30 29020 O 2683.76 -0.126642 1.80857 0
M  V30 29021 C 2683.81 3.35049 1.3332 0
M  V30 29022 O 2682.91 3.31839 2.4486 0
M  V30 29023 H 2682.25 0.641391 0.171795 0
M  V30 29024 H 2684.78 2.04361 -0.0987728 0
M  V30 29025 H 2684.79 3.71416 1.6886 0
M  V30 29026 H 2683.47 4.11432 0.607961 0
M  V30 29027 H 2682.04 3.07197 2.11387 0
M  V30 29028 N 2684.23 -0.238084 1.55791 0
M  V30 29029 C 2685.18 -1.29489 1.91053 0
M  V30 29030 C 2686.15 -1.47395 0.765759 0
M  V30 29031 O 2687.33 -1.61235 1.0202 0
M  V30 29032 C 2684.47 -2.64358 2.2183 0
M  V30 29033 C 2683.58 -2.54388 3.49157 0
M  V30 29034 C 2682.72 -3.81669 3.69462 0
M  V30 29035 C 2681.76 -3.66352 4.90359 0
M  V30 29036 N 2680.9 -4.85545 5.07139 0
M  V30 29037 H 2685.74 -0.987183 2.81174 0
M  V30 29038 H 2683.27 -0.476179 1.3918 0
M  V30 29039 H 2685.23 -3.42875 2.37681 0
M  V30 29040 H 2683.86 -2.9326 1.34902 0
M  V30 29041 H 2682.91 -1.67393 3.4159 0
M  V30 29042 H 2684.22 -2.38984 4.37822 0
M  V30 29043 H 2683.38 -4.6863 3.8532 0
M  V30 29044 H 2682.12 -3.9998 2.79047 0
M  V30 29045 H 2681.12 -2.77776 4.74469 0
M  V30 29046 H 2682.35 -3.49528 5.82243 0
M  V30 29047 H 2680.29 -5.04201 4.19663 0
M  V30 29048 H 2680.21 -4.72805 5.89908 0
M  V30 29049 H 2681.48 -5.73979 5.27417 0
M  V30 29050 N 2685.71 -1.4932 -0.504115 0
M  V30 29051 C 2686.64 -1.6867 -1.6147 0
M  V30 29052 C 2687.62 -0.535407 -1.61454 0
M  V30 29053 O 2688.8 -0.770899 -1.78244 0
M  V30 29054 C 2685.93 -1.75033 -2.99968 0
M  V30 29055 C 2684.89 -2.89921 -3.14849 0
M  V30 29056 C 2684.21 -2.81395 -4.54666 0
M  V30 29057 C 2685.51 -4.30898 -2.95168 0
M  V30 29058 H 2687.21 -2.61651 -1.45531 0
M  V30 29059 H 2684.75 -1.25914 -0.698689 0
M  V30 29060 H 2686.71 -1.87157 -3.77558 0
M  V30 29061 H 2685.43 -0.786496 -3.16989 0
M  V30 29062 H 2684.09 -2.77395 -2.39682 0
M  V30 29063 H 2683.74 -1.82926 -4.68559 0
M  V30 29064 H 2683.44 -3.58503 -4.65564 0
M  V30 29065 H 2684.96 -2.95522 -5.34321 0
M  V30 29066 H 2686.38 -4.44122 -3.62531 0
M  V30 29067 H 2684.77 -5.09204 -3.1754 0
M  V30 29068 H 2685.84 -4.45559 -1.91324 0
M  V30 29069 N 2687.19 0.754933 -1.38342 0
M  V30 29070 C 2688.6 1.05781 -1.1951 0
M  V30 29071 C 2688.8 2.01454 -0.0428359 0
M  V30 29072 O 2687.86 2.44976 0.611817 0
M  V30 29073 C 2689.17 1.63919 -2.52094 0
M  V30 29074 C 2690.72 1.76096 -2.58765 0
M  V30 29075 C 2691.19 2.37645 -3.91521 0
M  V30 29076 N 2692.68 2.45078 -3.93054 0
M  V30 29077 C 2693.42 2.93593 -4.92535 0
M  V30 29078 N 2692.92 3.42154 -6.02414 0
M  V30 29079 N 2694.71 2.92621 -4.79926 0
M  V30 29080 H 2686.86 0.120019 -2.12061 0
M  V30 29081 H 2689.12 0.115874 -0.940892 0
M  V30 29082 H 2688.83 1.01087 -3.36859 0
M  V30 29083 H 2688.7 2.62998 -2.70392 0
M  V30 29084 H 2691.09 2.38055 -1.74395 0
M  V30 29085 H 2691.17 0.757251 -2.44335 0
M  V30 29086 H 2690.81 1.7632 -4.76312 0
M  V30 29087 H 2690.74 3.38655 -4.03262 0
M  V30 29088 H 2693.24 2.10731 -3.13689 0
M  V30 29089 H 2693.55 3.77625 -6.74255 0
M  V30 29090 H 2691.89 3.40215 -6.06036 0
M  V30 29091 H 2695.08 2.53994 -3.93198 0
M  V30 29092 H 2695.26 3.30118 -5.57607 0
M  V30 29093 N 2688.66 1.23189 0.982967 0
M  V30 29094 C 2689.61 1.01079 2.07489 0
M  V30 29095 C 2690.58 -0.0708758 1.65949 0
M  V30 29096 O 2691.77 0.0807157 1.90629 0
M  V30 29097 C 2688.91 0.60532 3.3975 0
M  V30 29098 C 2688.02 1.75883 3.94575 0
M  V30 29099 C 2687.15 1.30039 5.15037 0
M  V30 29100 C 2686.19 2.42481 5.62022 0
M  V30 29101 N 2685.33 1.97614 6.73716 0
M  V30 29102 H 2690.17 1.94544 2.25736 0
M  V30 29103 H 2687.71 0.969199 1.10657 0
M  V30 29104 H 2689.66 0.351352 4.15718 0
M  V30 29105 H 2688.29 -0.292325 3.21474 0
M  V30 29106 H 2687.35 2.12687 3.15386 0
M  V30 29107 H 2688.66 2.60426 4.25417 0
M  V30 29108 H 2687.81 1.0044 5.98328 0
M  V30 29109 H 2686.55 0.425301 4.85842 0
M  V30 29110 H 2685.56 2.72858 4.77314 0
M  V30 29111 H 2686.78 3.30523 5.93238 0
M  V30 29112 H 2684.73 1.12481 6.46285 0
M  V30 29113 H 2684.64 2.75717 7.03929 0
M  V30 29114 H 2685.91 1.71111 7.60487 0
M  V30 29115 N 2690.14 -1.18133 1.04318 0
M  V30 29116 C 2691.56 -1.40187 0.762883 0
M  V30 29117 C 2691.76 -1.90847 -0.646514 0
M  V30 29118 O 2690.81 -2.09443 -1.41032 0
M  V30 29119 C 2692.13 -2.40041 1.8111 0
M  V30 29120 C 2693.67 -2.53763 1.8323 0
M  V30 29121 C 2694.15 -3.56884 2.87051 0
M  V30 29122 N 2695.64 -3.64393 2.85958 0
M  V30 29123 C 2696.38 -4.43917 3.6294 0
M  V30 29124 N 2695.87 -5.27028 4.49682 0
M  V30 29125 N 2697.66 -4.38704 3.51418 0
M  V30 29126 H 2689.82 -0.83577 1.95266 0
M  V30 29127 H 2692.08 -0.429694 0.845025 0
M  V30 29128 H 2691.78 -2.09871 2.82218 0
M  V30 29129 H 2691.66 -3.39423 1.64535 0
M  V30 29130 H 2694.05 -2.83248 0.827919 0
M  V30 29131 H 2694.13 -1.54485 2.03882 0
M  V30 29132 H 2693.77 -3.28139 3.87669 0
M  V30 29133 H 2693.7 -4.55845 2.63653 0
M  V30 29134 H 2696.19 -3.05048 2.23057 0
M  V30 29135 H 2696.5 -5.84865 5.05126 0
M  V30 29136 H 2694.85 -5.26439 4.53748 0
M  V30 29137 H 2698.04 -3.72824 2.83054 0
M  V30 29138 H 2698.21 -5.00438 4.11662 0
M  V30 29139 N 2691.62 -0.822988 -1.34405 0
M  V30 29140 C 2693.04 -0.508753 -1.51274 0
M  V30 29141 C 2693.24 0.967052 -1.76778 0
M  V30 29142 O 2692.29 1.75152 -1.81874 0
M  V30 29143 C 2693.61 -1.36834 -2.67763 0
M  V30 29144 C 2695.15 -1.36547 -2.81645 0
M  V30 29145 C 2695.63 -2.20954 -4.01177 0
M  V30 29146 N 2697.12 -2.18578 -4.08385 0
M  V30 29147 C 2697.85 -2.80636 -5.00031 0
M  V30 29148 N 2697.35 -3.51684 -5.969 0
M  V30 29149 N 2699.14 -2.7019 -4.92904 0
M  V30 29150 H 2691.29 -1.77854 -1.1611 0
M  V30 29151 H 2693.56 -0.757907 -0.569457 0
M  V30 29152 H 2693.26 -2.41637 -2.55547 0
M  V30 29153 H 2693.14 -1.03309 -3.62777 0
M  V30 29154 H 2695.52 -0.325214 -2.93303 0
M  V30 29155 H 2695.61 -1.74069 -1.8744 0
M  V30 29156 H 2695.25 -3.25029 -3.9028 0
M  V30 29157 H 2695.18 -1.80782 -4.94596 0
M  V30 29158 H 2697.67 -1.66897 -3.39048 0
M  V30 29159 H 2697.98 -3.96283 -6.63461 0
M  V30 29160 H 2696.33 -3.55791 -5.97024 0
M  V30 29161 H 2699.52 -2.14259 -4.16186 0
M  V30 29162 H 2699.69 -3.18841 -5.64132 0
M  V30 29163 N 2693.1 1.4662 -0.577957 0
M  V30 29164 C 2694.34 2.02706 -0.0618149 0
M  V30 29165 C 2694.68 1.44905 1.29291 0
M  V30 29166 O 2693.95 0.612352 1.84609 0
M  V30 29167 C 2694.24 3.60099 0.00905495 0
M  V30 29168 C 2694.09 4.28293 -1.37423 0
M  V30 29169 C 2695.41 4.34301 0.712082 0
M  V30 29170 H 2692.53 0.736611 -0.0239376 0
M  V30 29171 H 2695.17 1.74817 -0.744242 0
M  V30 29172 H 2693.32 3.8399 0.590225 0
M  V30 29173 H 2694.99 4.1568 -2.0002 0
M  V30 29174 H 2693.23 3.8784 -1.94326 0
M  V30 29175 H 2693.9 5.37022 -1.27716 0
M  V30 29176 H 2696.38 4.15526 0.218413 0
M  V30 29177 H 2695.26 5.44015 0.730686 0
M  V30 29178 H 2695.52 4.05015 1.77244 0
M  V30 29179 N 2694.58 0.315484 1.5441 0
M  V30 29180 C 2695.82 -0.289936 2.00717 0
M  V30 29181 C 2696.16 -1.52418 1.20342 0
M  V30 29182 O 2695.43 -1.92421 0.283613 0
M  V30 29183 C 2695.71 -0.632134 3.54508 0
M  V30 29184 C 2695.57 0.612258 4.45614 0
M  V30 29185 C 2696.89 -1.45297 4.15424 0
M  V30 29186 H 2694 -0.103907 0.729638 0
M  V30 29187 H 2696.65 0.430459 1.8506 0
M  V30 29188 H 2694.8 -1.24588 3.67981 0
M  V30 29189 H 2696.47 1.25061 4.44024 0
M  V30 29190 H 2694.71 1.24271 4.15619 0
M  V30 29191 H 2695.38 0.328476 5.51022 0
M  V30 29192 H 2697.86 -0.934259 4.05476 0
M  V30 29193 H 2696.73 -1.66117 5.2316 0
M  V30 29194 H 2697 -2.44665 3.68228 0
M  V30 29195 N 2696.05 -1.5754 0.0434891 0
M  V30 29196 C 2697.47 -1.565 -0.313011 0
M  V30 29197 C 2697.67 -1.05046 -1.71953 0
M  V30 29198 O 2696.73 -0.703606 -2.42499 0
M  V30 29199 C 2698.04 -3.00333 -0.148491 0
M  V30 29200 C 2699.59 -3.12225 -0.220176 0
M  V30 29201 C 2700.06 -4.57922 -0.084276 0
M  V30 29202 N 2701.55 -4.62986 -0.1408 0
M  V30 29203 C 2702.29 -5.73369 -0.0596435 0
M  V30 29204 N 2701.78 -6.92761 0.0734222 0
M  V30 29205 N 2703.58 -5.61983 -0.114671 0
M  V30 29206 H 2695.73 -1.89312 0.963063 0
M  V30 29207 H 2697.99 -0.871459 0.37318 0
M  V30 29208 H 2697.7 -3.41984 0.820954 0
M  V30 29209 H 2697.57 -3.6599 -0.912734 0
M  V30 29210 H 2699.96 -2.70477 -1.18009 0
M  V30 29211 H 2700.04 -2.49261 0.57469 0
M  V30 29212 H 2699.68 -5.00354 0.87228 0
M  V30 29213 H 2699.61 -5.18884 -0.898189 0
M  V30 29214 H 2702.1 -3.77117 -0.243207 0
M  V30 29215 H 2702.42 -7.72694 0.128264 0
M  V30 29216 H 2700.76 -6.94915 0.108402 0
M  V30 29217 H 2703.95 -4.67596 -0.217129 0
M  V30 29218 H 2704.13 -6.47982 -0.047964 0
M  V30 29219 N 2697.53 0.229818 -1.55915 0
M  V30 29220 C 2698.78 0.955421 -1.78544 0
M  V30 29221 C 2699.11 1.8466 -0.610818 0
M  V30 29222 O 2698.36 1.9146 0.405179 0
M  V30 29223 C 2698.66 1.83245 -3.06849 0
M  V30 29224 C 2698.33 1.0952 -4.37397 0
M  V30 29225 C 2696.99 0.891514 -4.72869 0
M  V30 29226 C 2699.34 0.573955 -5.1803 0
M  V30 29227 C 2696.67 0.154552 -5.86496 0
M  V30 29228 C 2699.02 -0.149624 -6.32423 0
M  V30 29229 C 2697.69 -0.364637 -6.66503 0
M  V30 29230 H 2696.96 0.349613 -0.653339 0
M  V30 29231 H 2699.6 0.224201 -1.90183 0
M  V30 29232 H 2697.91 2.63127 -2.90295 0
M  V30 29233 H 2699.6 2.39587 -3.21558 0
M  V30 29234 H 2696.19 1.26392 -4.0954 0
M  V30 29235 H 2700.38 0.718813 -4.91067 0
M  V30 29236 H 2695.63 -0.022343 -6.11396 0
M  V30 29237 H 2699.81 -0.561069 -6.94136 0
M  V30 29238 H 2697.44 -0.937627 -7.54396 0
M  V30 29239 N 2699.01 1.49585 0.49619 0
M  V30 29240 C 2699.97 1.66087 1.57949 0
M  V30 29241 C 2700.97 0.532466 1.51728 0
M  V30 29242 O 2702.16 0.799017 1.54795 0
M  V30 29243 C 2699.3 1.66273 2.97601 0
M  V30 29244 H 2700.49 2.62713 1.44645 0
M  V30 29245 H 2698.04 1.38689 0.720775 0
M  V30 29246 H 2698.78 0.712487 3.16377 0
M  V30 29247 H 2698.56 2.48225 3.03524 0
M  V30 29248 H 2700.05 1.8108 3.76297 0
M  V30 29249 N 2700.49 -0.747586 1.3874 0
M  V30 29250 C 2701.74 -1.50226 1.34592 0
M  V30 29251 C 2702.05 -1.95509 -0.0595248 0
M  V30 29252 O 2703.26 -2.70578 -0.223562 0
M  V30 29253 C 2701.71 -2.71389 2.36381 0
M  V30 29254 C 2701.32 -2.33106 3.82577 0
M  V30 29255 C 2703.06 -3.49258 2.41287 0
M  V30 29256 C 2700.97 -3.50916 4.76038 0
M  V30 29257 H 2699.9 -0.564087 0.500322 0
M  V30 29258 H 2702.55 -0.816671 1.64325 0
M  V30 29259 H 2700.93 -3.41959 1.997 0
M  V30 29260 H 2702.11 -1.70164 4.2823 0
M  V30 29261 H 2700.42 -1.68358 3.80847 0
M  V30 29262 H 2703.02 -4.36863 3.08309 0
M  V30 29263 H 2703.36 -3.90837 1.4336 0
M  V30 29264 H 2703.9 -2.85706 2.76798 0
M  V30 29265 H 2700.64 -3.14397 5.75182 0
M  V30 29266 H 2700.16 -4.12881 4.35073 0
M  V30 29267 H 2701.83 -4.17419 4.94339 0
M  V30 29268 N 2701.97 -1.23709 -0.97642 0
M  V30 29269 C 2702.9 -1.04627 -2.08747 0
M  V30 29270 C 2703.88 0.0380657 -1.70057 0
M  V30 29271 O 2705.06 -0.127342 -1.93782 0
M  V30 29272 C 2702.19 -0.640962 -3.41334 0
M  V30 29273 C 2701.15 -1.67309 -3.93944 0
M  V30 29274 C 2700.47 -1.1231 -5.22772 0
M  V30 29275 C 2701.77 -3.06705 -4.22764 0
M  V30 29276 H 2703.47 -1.97559 -2.24968 0
M  V30 29277 H 2701.01 -0.951266 -1.08106 0
M  V30 29278 H 2702.97 -0.494507 -4.18488 0
M  V30 29279 H 2701.69 0.324042 -3.24989 0
M  V30 29280 H 2700.35 -1.80761 -3.18937 0
M  V30 29281 H 2700 -0.148965 -5.02779 0
M  V30 29282 H 2699.7 -1.81277 -5.58939 0
M  V30 29283 H 2701.22 -0.988585 -6.02544 0
M  V30 29284 H 2702.63 -2.96532 -4.90654 0
M  V30 29285 H 2701.03 -3.72945 -4.7014 0
M  V30 29286 H 2702.1 -3.55398 -3.29879 0
M  V30 29287 N 2703.44 1.17579 -1.04943 0
M  V30 29288 C 2704.67 1.91424 -0.777199 0
M  V30 29289 C 2705.08 1.76916 0.670616 0
M  V30 29290 O 2704.43 1.10216 1.46963 0
M  V30 29291 C 2704.49 3.43051 -1.07501 0
M  V30 29292 C 2704.15 3.8134 -2.5185 0
M  V30 29293 C 2705.15 3.84394 -3.50054 0
M  V30 29294 C 2702.83 4.12377 -2.86794 0
M  V30 29295 C 2704.83 4.17948 -4.81246 0
M  V30 29296 C 2702.51 4.45601 -4.1819 0
M  V30 29297 C 2703.51 4.48364 -5.15227 0
M  V30 29298 O 2703.2 4.80807 -6.44267 0
M  V30 29299 H 2702.93 0.61427 -0.28222 0
M  V30 29300 H 2705.49 1.50054 -1.4026 0
M  V30 29301 H 2703.72 3.84703 -0.392504 0
M  V30 29302 H 2705.41 3.98154 -0.78919 0
M  V30 29303 H 2706.17 3.60543 -3.24398 0
M  V30 29304 H 2702.05 4.09398 -2.11929 0
M  V30 29305 H 2705.59 4.2002 -5.56982 0
M  V30 29306 H 2701.49 4.68914 -4.4361 0
M  V30 29307 H 2702.26 4.98675 -6.4905 0
M  V30 29308 N 2704.92 0.830104 1.33967 0
M  V30 29309 C 2706.17 0.421601 1.98063 0
M  V30 29310 C 2706.5 -1.01707 1.65789 0
M  V30 29311 O 2705.75 -1.72439 0.925378 0
M  V30 29312 C 2706.05 0.579042 3.52678 0
M  V30 29313 C 2705.72 1.9845 4.04881 0
M  V30 29314 C 2704.38 2.36896 4.18848 0
M  V30 29315 C 2706.73 2.90292 4.32874 0
M  V30 29316 C 2704.06 3.66505 4.58139 0
M  V30 29317 C 2706.41 4.19373 4.73613 0
M  V30 29318 C 2705.08 4.57786 4.85786 0
M  V30 29319 H 2704.35 0.154275 0.724762 0
M  V30 29320 H 2706.99 1.05544 1.5979 0
M  V30 29321 H 2705.3 -0.13815 3.91556 0
M  V30 29322 H 2706.99 0.243387 4.00261 0
M  V30 29323 H 2703.58 1.67588 3.94477 0
M  V30 29324 H 2707.77 2.61831 4.21614 0
M  V30 29325 H 2703.02 3.96083 4.65755 0
M  V30 29326 H 2707.2 4.90621 4.94231 0
M  V30 29327 H 2704.83 5.58265 5.15988 0
M  V30 29328 N 2706.4 -1.46311 0.585725 0
M  V30 29329 C 2707.63 -2.06752 0.0781662 0
M  V30 29330 C 2708.04 -1.43399 -1.2281 0
M  V30 29331 O 2707.4 -0.540344 -1.74317 0
M  V30 29332 C 2707.45 -3.61385 -0.0911292 0
M  V30 29333 O 2707.17 -4.22369 1.16344 0
M  V30 29334 C 2708.67 -4.38762 -0.632688 0
M  V30 29335 H 2705.89 -0.668416 0.0588306 0
M  V30 29336 H 2708.44 -1.87893 0.807251 0
M  V30 29337 H 2706.59 -3.79662 -0.770447 0
M  V30 29338 H 2707.01 -5.15279 0.979173 0
M  V30 29339 H 2708.48 -5.4754 -0.700314 0
M  V30 29340 H 2708.96 -4.07015 -1.65032 0
M  V30 29341 H 2709.56 -4.25298 0.0118603 0
M  V30 29342 N 2707.88 -0.323668 -1.54241 0
M  V30 29343 C 2708.81 0.584794 -2.2058 0
M  V30 29344 C 2709.79 1.11565 -1.18288 0
M  V30 29345 O 2710.97 1.17963 -1.47027 0
M  V30 29346 C 2708.1 1.80244 -2.86757 0
M  V30 29347 C 2707.15 1.40282 -4.02769 0
M  V30 29348 S 2707.98 0.439445 -5.33694 0
M  V30 29349 C 2709.14 1.66437 -6.03365 0
M  V30 29350 H 2709.37 0.0212716 -2.97292 0
M  V30 29351 H 2706.9 -0.107753 -1.54024 0
M  V30 29352 H 2708.86 2.5011 -3.25507 0
M  V30 29353 H 2707.52 2.33715 -2.09848 0
M  V30 29354 H 2706.71 2.31016 -4.47937 0
M  V30 29355 H 2706.32 0.783864 -3.65693 0
M  V30 29356 H 2708.61 2.60179 -6.2555 0
M  V30 29357 H 2709.55 1.25485 -6.96892 0
M  V30 29358 H 2709.96 1.8514 -5.33276 0
M  V30 29359 N 2709.36 1.57515 -0.0518432 0
M  V30 29360 C 2710.29 2.14601 0.920246 0
M  V30 29361 C 2711.27 1.06785 1.32404 0
M  V30 29362 O 2712.45 1.34728 1.39864 0
M  V30 29363 C 2709.58 2.69154 2.19485 0
M  V30 29364 C 2708.54 3.81959 1.93109 0
M  V30 29365 C 2707.86 4.23031 3.2703 0
M  V30 29366 C 2709.16 5.07068 1.25217 0
M  V30 29367 H 2710.86 2.96078 0.444749 0
M  V30 29368 H 2708.4 1.42424 0.212483 0
M  V30 29369 H 2710.36 3.0773 2.87889 0
M  V30 29370 H 2709.08 1.8487 2.69241 0
M  V30 29371 H 2707.74 3.43856 1.27117 0
M  V30 29372 H 2707.39 3.35697 3.74589 0
M  V30 29373 H 2707.09 4.99061 3.1018 0
M  V30 29374 H 2708.61 4.64209 3.96665 0
M  V30 29375 H 2710.03 5.43087 1.83656 0
M  V30 29376 H 2708.42 5.88245 1.18691 0
M  V30 29377 H 2709.49 4.84362 0.228297 0
M  V30 29378 N 2710.84 -0.221546 1.56035 0
M  V30 29379 C 2712.08 -0.94734 1.79313 0
M  V30 29380 C 2712.41 -1.83987 0.621485 0
M  V30 29381 O 2711.69 -1.90767 -0.379253 0
M  V30 29382 C 2711.97 -1.78627 3.12673 0
M  V30 29383 C 2711.83 -0.920235 4.40286 0
M  V30 29384 C 2713.14 -2.76404 3.42475 0
M  V30 29385 H 2710.26 -0.342971 0.652334 0
M  V30 29386 H 2712.91 -0.216211 1.88766 0
M  V30 29387 H 2711.06 -2.40961 3.04746 0
M  V30 29388 H 2712.73 -0.313637 4.60233 0
M  V30 29389 H 2710.97 -0.225658 4.33213 0
M  V30 29390 H 2711.64 -1.54162 5.30036 0
M  V30 29391 H 2714.12 -2.24205 3.5053 0
M  V30 29392 H 2712.99 -3.32205 4.36956 0
M  V30 29393 H 2713.25 -3.54143 2.64642 0
M  V30 29394 N 2712.31 -1.49846 -0.48825 0
M  V30 29395 C 2713.24 -1.70373 -1.59672 0
M  V30 29396 C 2714.22 -0.552501 -1.60877 0
M  V30 29397 O 2715.41 -0.789761 -1.77416 0
M  V30 29398 C 2712.54 -1.78205 -2.98094 0
M  V30 29399 C 2711.49 -2.93244 -3.11756 0
M  V30 29400 C 2710.82 -2.86201 -4.51656 0
M  V30 29401 C 2712.12 -4.34004 -2.90581 0
M  V30 29402 H 2713.81 -2.6318 -1.42747 0
M  V30 29403 H 2711.36 -1.26648 -0.685295 0
M  V30 29404 H 2713.31 -1.91151 -3.75552 0
M  V30 29405 H 2712.04 -0.820073 -3.16137 0
M  V30 29406 H 2710.7 -2.79922 -2.36727 0
M  V30 29407 H 2710.34 -1.87885 -4.66592 0
M  V30 29408 H 2710.04 -3.6342 -4.61735 0
M  V30 29409 H 2711.57 -3.01172 -5.31157 0
M  V30 29410 H 2712.98 -4.47942 -3.578 0
M  V30 29411 H 2711.38 -5.12543 -3.12121 0
M  V30 29412 H 2712.45 -4.47564 -1.86587 0
M  V30 29413 N 2713.79 0.740218 -1.39135 0
M  V30 29414 C 2715.04 1.49967 -1.36074 0
M  V30 29415 C 2715.37 1.94448 0.0449903 0
M  V30 29416 O 2714.62 1.66723 1.02479 0
M  V30 29417 C 2714.92 2.75674 -2.27462 0
M  V30 29418 C 2714.59 2.50087 -3.7519 0
M  V30 29419 C 2713.25 2.42818 -4.15443 0
M  V30 29420 C 2715.6 2.28078 -4.68647 0
M  V30 29421 C 2712.93 2.11574 -5.47223 0
M  V30 29422 C 2715.28 1.98352 -6.00699 0
M  V30 29423 C 2713.94 1.89548 -6.40022 0
M  V30 29424 H 2713.21 0.548768 -0.49793 0
M  V30 29425 H 2715.86 0.85004 -1.716 0
M  V30 29426 H 2714.17 3.45353 -1.85036 0
M  V30 29427 H 2715.86 3.33682 -2.22389 0
M  V30 29428 H 2712.45 2.56621 -3.43284 0
M  V30 29429 H 2716.64 2.32665 -4.38384 0
M  V30 29430 H 2711.89 2.03277 -5.76618 0
M  V30 29431 H 2716.07 1.80329 -6.72647 0
M  V30 29432 H 2713.69 1.65104 -7.42054 0
M  V30 29433 N 2715.27 1.24225 0.969846 0
M  V30 29434 C 2716.2 1.05733 2.08189 0
M  V30 29435 C 2717.18 -0.0290466 1.70075 0
M  V30 29436 O 2718.37 0.137617 1.93712 0
M  V30 29437 C 2715.5 0.659055 3.40989 0
M  V30 29438 C 2714.45 1.69396 3.93051 0
M  V30 29439 C 2713.78 1.15081 5.22169 0
M  V30 29440 C 2715.08 3.08943 4.21132 0
M  V30 29441 H 2716.77 1.9875 2.23917 0
M  V30 29442 H 2714.32 0.956986 1.076 0
M  V30 29443 H 2716.27 0.516694 4.1822 0
M  V30 29444 H 2714.99 -0.306802 3.25156 0
M  V30 29445 H 2713.65 1.8245 3.17974 0
M  V30 29446 H 2713.3 0.175627 5.02693 0
M  V30 29447 H 2713 1.84238 5.57969 0
M  V30 29448 H 2714.52 1.02053 6.02011 0
M  V30 29449 H 2715.94 2.9913 4.89075 0
M  V30 29450 H 2714.33 3.75433 4.68156 0
M  V30 29451 H 2715.4 3.57142 3.2799 0
M  V30 29452 N 2716.75 -1.1702 1.05565 0
M  V30 29453 C 2718 -1.86709 0.763069 0
M  V30 29454 C 2718.31 -1.82149 -0.712825 0
M  V30 29455 O 2719.52 -2.47345 -1.1195 0
M  V30 29456 C 2717.97 -3.35024 1.3148 0
M  V30 29457 C 2717.58 -3.48077 2.8204 0
M  V30 29458 C 2719.32 -4.10016 1.09942 0
M  V30 29459 C 2717.23 -4.90436 3.30495 0
M  V30 29460 H 2716.16 -0.699377 0.281759 0
M  V30 29461 H 2718.81 -1.32122 1.27342 0
M  V30 29462 H 2717.19 -3.89171 0.73224 0
M  V30 29463 H 2718.37 -3.04127 3.46184 0
M  V30 29464 H 2716.68 -2.8651 3.02161 0
M  V30 29465 H 2719.28 -5.15045 1.43641 0
M  V30 29466 H 2719.62 -4.16283 0.0373804 0
M  V30 29467 H 2720.16 -3.62086 1.64738 0
M  V30 29468 H 2716.89 -4.89344 4.36145 0
M  V30 29469 H 2716.41 -5.3504 2.71095 0
M  V30 29470 H 2718.09 -5.59222 3.25392 0
M  V30 29471 N 2718.23 -0.837197 -1.33524 0
M  V30 29472 C 2719.16 -0.284246 -2.31763 0
M  V30 29473 C 2720.14 0.607114 -1.58897 0
M  V30 29474 O 2721.32 0.531015 -1.86799 0
M  V30 29475 C 2718.45 0.542901 -3.4303 0
M  V30 29476 C 2717.41 -0.252526 -4.27254 0
M  V30 29477 C 2716.73 0.698266 -5.30121 0
M  V30 29478 C 2718.03 -1.46866 -5.01226 0
M  V30 29479 H 2719.73 -1.10507 -2.7826 0
M  V30 29480 H 2717.27 -0.532836 -1.33779 0
M  V30 29481 H 2719.22 0.940024 -4.10782 0
M  V30 29482 H 2717.95 1.39692 -2.95218 0
M  V30 29483 H 2716.61 -0.631188 -3.61125 0
M  V30 29484 H 2716.26 1.54864 -4.78567 0
M  V30 29485 H 2715.96 0.170171 -5.87354 0
M  V30 29486 H 2717.48 1.09294 -6.00739 0
M  V30 29487 H 2718.89 -1.14479 -5.61754 0
M  V30 29488 H 2717.29 -1.93343 -5.68101 0
M  V30 29489 H 2718.36 -2.23932 -4.30096 0
M  V30 29490 N 2719.7 1.45999 -0.593476 0
M  V30 29491 C 2720.63 2.33185 0.121151 0
M  V30 29492 C 2721.61 1.45992 0.872952 0
M  V30 29493 O 2722.8 1.7479 0.846291 0
M  V30 29494 C 2719.93 3.28458 1.12838 0
M  V30 29495 C 2718.88 4.25177 0.490725 0
M  V30 29496 C 2718.21 5.10037 1.6052 0
M  V30 29497 C 2719.51 5.1908 -0.579041 0
M  V30 29498 H 2721.2 2.93186 -0.606818 0
M  V30 29499 H 2718.75 1.40982 -0.293266 0
M  V30 29500 H 2720.7 3.88314 1.63677 0
M  V30 29501 H 2719.43 2.66587 1.88677 0
M  V30 29502 H 2718.09 3.666 0.00332884 0
M  V30 29503 H 2717.73 4.44543 2.35351 0
M  V30 29504 H 2717.43 5.75545 1.18412 0
M  V30 29505 H 2718.96 5.72758 2.11613 0
M  V30 29506 H 2720.37 5.7309 -0.155299 0
M  V30 29507 H 2718.77 5.9299 -0.921051 0
M  V30 29508 H 2719.84 4.62361 -1.46117 0
M  V30 29509 N 2721.18 0.331843 1.54067 0
M  V30 29510 C 2722.43 -0.269173 1.99896 0
M  V30 29511 C 2722.74 -1.52591 1.22374 0
M  V30 29512 O 2723.95 -2.20344 1.58621 0
M  V30 29513 C 2722.41 -0.530182 3.55973 0
M  V30 29514 C 2722.01 0.709978 4.42338 0
M  V30 29515 C 2723.76 -1.0907 4.10249 0
M  V30 29516 C 2721.67 0.420416 5.89904 0
M  V30 29517 H 2720.6 -0.104358 0.746743 0
M  V30 29518 H 2723.25 0.445355 1.78014 0
M  V30 29519 H 2721.63 -1.30511 3.73875 0
M  V30 29520 H 2722.8 1.48512 4.36212 0
M  V30 29521 H 2721.12 1.1913 3.98995 0
M  V30 29522 H 2723.71 -1.3221 5.18097 0
M  V30 29523 H 2724.06 -2.04263 3.62743 0
M  V30 29524 H 2724.59 -0.376755 3.96012 0
M  V30 29525 H 2721.33 1.34175 6.41621 0
M  V30 29526 H 2720.85 -0.316857 5.98962 0
M  V30 29527 H 2722.53 0.0333093 6.46991 0
M  V30 29528 N 2722.66 -1.57485 0.0601958 0
M  V30 29529 C 2723.62 -2.10947 -0.896336 0
M  V30 29530 C 2724.62 -1.03098 -1.234 0
M  V30 29531 O 2725.81 -1.29134 -1.16919 0
M  V30 29532 C 2722.95 -2.6012 -2.20342 0
M  V30 29533 H 2724.14 -2.96762 -0.432726 0
M  V30 29534 H 2721.69 -1.55161 -0.188344 0
M  V30 29535 H 2722.43 -1.77724 -2.71265 0
M  V30 29536 H 2722.21 -3.3894 -1.97134 0
M  V30 29537 H 2723.7 -3.01597 -2.8884 0
M  V30 29538 N 2724.14 0.213268 -1.5615 0
M  V30 29539 C 2725.55 0.779552 -1.69646 0
M  V30 29540 C 2725.9 1.84635 -0.663648 0
M  V30 29541 O 2725.03 2.1562 0.183595 0
M  V30 29542 C 2725.62 1.42079 -3.0757 0
M  V30 29543 C 2724.18 1.93437 -3.22892 0
M  V30 29544 C 2723.33 0.797565 -2.65583 0
M  V30 29545 H 2726.28 -0.011523 -1.58696 0
M  V30 29546 H 2726.3 2.28981 -3.03888 0
M  V30 29547 H 2725.81 0.64412 -3.82718 0
M  V30 29548 H 2723.91 2.73879 -2.52628 0
M  V30 29549 H 2724.02 2.10864 -4.30201 0
M  V30 29550 H 2722.39 1.20708 -2.2428 0
M  V30 29551 H 2723.17 0.0334336 -3.43284 0
M  V30 29552 N 2725.62 1.50103 0.480296 0
M  V30 29553 C 2726.55 1.71218 1.58766 0
M  V30 29554 C 2727.53 0.561025 1.60582 0
M  V30 29555 O 2728.71 0.799158 1.76995 0
M  V30 29556 C 2725.84 1.79783 2.97145 0
M  V30 29557 C 2724.8 2.94894 3.10196 0
M  V30 29558 C 2724.12 2.88592 4.50132 0
M  V30 29559 C 2725.42 4.35539 2.88276 0
M  V30 29560 H 2727.12 2.63933 1.4135 0
M  V30 29561 H 2724.66 1.2701 0.678569 0
M  V30 29562 H 2726.62 1.9314 3.74533 0
M  V30 29563 H 2725.34 0.836827 3.15697 0
M  V30 29564 H 2724 2.81173 2.35239 0
M  V30 29565 H 2723.65 1.90357 4.65589 0
M  V30 29566 H 2723.35 3.65864 4.59801 0
M  V30 29567 H 2724.87 3.03985 5.29552 0
M  V30 29568 H 2726.28 4.49834 3.55419 0
M  V30 29569 H 2724.68 5.14191 3.09399 0
M  V30 29570 H 2725.75 4.48547 1.84211 0
M  V30 29571 N 2727.09 -0.732829 1.39526 0
M  V30 29572 C 2728.34 -1.49464 1.3707 0
M  V30 29573 C 2728.67 -1.94172 -0.0326825 0
M  V30 29574 O 2727.95 -1.66941 -0.998042 0
M  V30 29575 C 2728.23 -2.73281 2.34499 0
M  V30 29576 C 2728.08 -2.34578 3.83788 0
M  V30 29577 C 2729.4 -3.75387 2.29723 0
M  V30 29578 H 2726.52 -0.542174 0.499215 0
M  V30 29579 H 2729.16 -0.837753 1.70534 0
M  V30 29580 H 2727.31 -3.2933 2.06093 0
M  V30 29581 H 2728.99 -1.84143 4.22953 0
M  V30 29582 H 2727.23 -1.6678 4.00458 0
M  V30 29583 H 2727.9 -3.23254 4.47449 0
M  V30 29584 H 2730.38 -3.28927 2.54845 0
M  V30 29585 H 2729.25 -4.59684 2.9997 0
M  V30 29586 H 2729.51 -4.22463 1.30299 0
M  V30 29587 N 2728.57 -1.24737 -0.963244 0
M  V30 29588 C 2729.54 -1.0446 -2.04011 0
M  V30 29589 C 2730.54 -0.00036382 -1.608 0
M  V30 29590 O 2731.73 -0.241749 -1.72514 0
M  V30 29591 C 2728.86 -0.584221 -3.35857 0
M  V30 29592 H 2730.05 -2.00045 -2.23433 0
M  V30 29593 H 2727.6 -1.07023 -1.13912 0
M  V30 29594 H 2728.34 0.374616 -3.22129 0
M  V30 29595 H 2728.12 -1.33797 -3.68566 0
M  V30 29596 H 2729.61 -0.463524 -4.1502 0
M  V30 29597 N 2730.05 1.16459 -1.06184 0
M  V30 29598 C 2731.47 1.38955 -0.785089 0
M  V30 29599 C 2731.67 1.91851 0.61607 0
M  V30 29600 O 2730.72 2.1166 1.37682 0
M  V30 29601 C 2732.04 2.37129 -1.84906 0
M  V30 29602 C 2733.58 2.50816 -1.87244 0
M  V30 29603 C 2734.06 3.52272 -2.92692 0
M  V30 29604 N 2735.55 3.59798 -2.91719 0
M  V30 29605 C 2736.28 4.38086 -3.69957 0
M  V30 29606 N 2735.78 5.19807 -4.58009 0
M  V30 29607 N 2737.57 4.33058 -3.58353 0
M  V30 29608 H 2729.72 0.8046 -1.9657 0
M  V30 29609 H 2731.99 0.416196 -0.851754 0
M  V30 29610 H 2731.69 2.05355 -2.85521 0
M  V30 29611 H 2731.57 3.36763 -1.69914 0
M  V30 29612 H 2733.95 2.81895 -0.872877 0
M  V30 29613 H 2734.04 1.51222 -2.06314 0
M  V30 29614 H 2733.68 3.2193 -3.92841 0
M  V30 29615 H 2733.61 4.51593 -2.70872 0
M  V30 29616 H 2736.1 3.0146 -2.27882 0
M  V30 29617 H 2736.41 5.76755 -5.14367 0
M  V30 29618 H 2734.76 5.19154 -4.62065 0
M  V30 29619 H 2737.95 3.68274 -2.88949 0
M  V30 29620 H 2738.12 4.93825 -4.19572 0
M  V30 29621 N 2731.53 0.844266 1.33079 0
M  V30 29622 C 2732.81 0.364295 1.92178 0
M  V30 29623 C 2733.19 -1.15098 1.76963 0
M  V30 29624 O 2732.53 -1.96788 1.16132 0
M  V30 29625 C 2732.74 0.817166 3.39298 0
M  V30 29626 C 2734.09 0.828309 4.16442 0
M  V30 29627 O 2735.12 0.761123 3.47973 0
M  V30 29628 O 2733.97 0.921021 5.38683 0
M  V30 29629 H 2731.07 0.104205 0.820409 0
M  V30 29630 H 2733.61 0.930478 1.41916 0
M  V30 29631 H 2732.39 1.85997 3.44269 0
M  V30 29632 H 2732.01 0.227855 3.96947 0
M  V30 29633 N 2733.01 -1.45682 0.60121 0
M  V30 29634 C 2733.92 -2.34275 -0.123354 0
M  V30 29635 C 2734.93 -1.50862 -0.866994 0
M  V30 29636 O 2736.11 -1.83682 -0.826017 0
M  V30 29637 C 2733.17 -3.28372 -1.11231 0
M  V30 29638 C 2732.23 -4.27691 -0.37133 0
M  V30 29639 C 2731.47 -5.17292 -1.31318 0
M  V30 29640 O 2731.69 -5.10192 -2.55069 0
M  V30 29641 O 2730.62 -5.96374 -0.813706 0
M  V30 29642 H 2734.45 -2.97622 0.604535 0
M  V30 29643 H 2732.04 -1.4496 0.361503 0
M  V30 29644 H 2733.92 -3.86373 -1.68208 0
M  V30 29645 H 2732.59 -2.67598 -1.82134 0
M  V30 29646 H 2731.5 -3.73325 0.240736 0
M  V30 29647 H 2732.83 -4.91303 0.297085 0
M  V30 29648 N 2734.48 -0.340009 -1.53889 0
M  V30 29649 C 2735.73 0.257077 -2.00458 0
M  V30 29650 C 2736.05 1.51351 -1.22955 0
M  V30 29651 O 2735.32 1.93001 -0.335768 0
M  V30 29652 H 2733.9 0.0979835 -0.740546 0
M  V30 29653 H 2736.57 -0.46035 -1.89385 0
M  V30 29654 H 2735.66 0.502002 -3.08036 0
M  V30 29655 N 2735.96 1.57451 -0.0685468 0
M  V30 29656 C 2737.21 1.92542 0.600864 0
M  V30 29657 C 2737.53 0.950269 1.70966 0
M  V30 29658 O 2738.73 1.19388 2.43842 0
M  V30 29659 C 2737.19 3.42025 1.12013 0
M  V30 29660 C 2736.8 4.4798 0.042524 0
M  V30 29661 C 2738.54 3.86122 1.7638 0
M  V30 29662 C 2736.45 5.88592 0.575655 0
M  V30 29663 H 2735.38 0.718634 0.228213 0
M  V30 29664 H 2738.03 1.82963 -0.140255 0
M  V30 29665 H 2736.41 3.46666 1.91412 0
M  V30 29666 H 2737.58 4.5495 -0.7319 0
M  V30 29667 H 2735.9 4.1333 -0.504715 0
M  V30 29668 H 2738.5 4.88557 2.17293 0
M  V30 29669 H 2738.84 3.23313 2.62249 0
M  V30 29670 H 2739.37 3.8407 1.03608 0
M  V30 29671 H 2736.11 6.55039 -0.245807 0
M  V30 29672 H 2735.63 5.85147 1.31767 0
M  V30 29673 H 2737.31 6.38372 1.05309 0
M  V30 29674 N 2737.44 -0.204984 1.56261 0
M  V30 29675 C 2738.67 -0.947479 1.84493 0
M  V30 29676 C 2739.09 -1.76478 0.650925 0
M  V30 29677 O 2738.45 -1.76825 -0.400319 0
M  V30 29678 C 2738.5 -1.82742 3.10866 0
M  V30 29679 O 2737.6 -2.92495 2.90724 0
M  V30 29680 H 2736.94 -0.267375 0.607788 0
M  V30 29681 H 2739.47 -0.213287 2.03485 0
M  V30 29682 H 2739.48 -2.23401 3.41403 0
M  V30 29683 H 2738.16 -1.22683 3.97394 0
M  V30 29684 H 2736.73 -2.55662 2.71461 0
M  V30 29685 N 2738.92 -1.50356 -0.472329 0
M  V30 29686 C 2740.17 -1.61522 -1.22632 0
M  V30 29687 C 2740.5 -0.314029 -1.91644 0
M  V30 29688 O 2739.77 0.684414 -1.8206 0
M  V30 29689 C 2740.06 -2.79464 -2.27094 0
M  V30 29690 C 2739.91 -4.19462 -1.62394 0
M  V30 29691 C 2741.23 -2.9297 -3.28415 0
M  V30 29692 H 2738.35 -0.587881 -0.444483 0
M  V30 29693 H 2740.99 -1.82738 -0.520289 0
M  V30 29694 H 2739.14 -2.61506 -2.87309 0
M  V30 29695 H 2740.81 -4.49007 -1.05786 0
M  V30 29696 H 2739.05 -4.23777 -0.927109 0
M  V30 29697 H 2739.73 -4.97913 -2.383 0
M  V30 29698 H 2742.2 -3.09406 -2.78221 0
M  V30 29699 H 2741.08 -3.7712 -3.98838 0
M  V30 29700 H 2741.34 -2.03532 -3.92463 0
M  V30 29701 N 2740.4 0.725419 -1.39912 0
M  V30 29702 C 2741.35 1.86084 -1.39555 0
M  V30 29703 C 2742.34 1.67114 -0.277363 0
M  V30 29704 O 2743.55 1.74338 -0.447896 0
M  V30 29705 H 2739.92 0.612703 -0.436003 0
M  V30 29706 H 2741.89 1.83501 -2.35308 0
M  V30 29707 C 2740.64 3.23858 -1.26535 0
M  V30 29708 H 2739.96 3.39056 -2.11851 0
M  V30 29709 H 2741.4 4.03468 -1.30343 0
M  V30 29710 C 2739.86 3.3689 0.0253576 0
M  V30 29711 O 2740.39 3.89259 0.99198 0
M  V30 29712 N 2738.6 2.90456 0.0916017 0
M  V30 29713 H 2738.15 2.48027 -0.695719 0
M  V30 29714 H 2738.1 2.99555 0.954692 0
M  V30 29715 N 2741.88 1.25246 0.956615 0
M  V30 29716 C 2742.81 1.07935 2.07056 0
M  V30 29717 C 2743.79 -0.0110062 1.70096 0
M  V30 29718 O 2744.97 0.158155 1.93555 0
M  V30 29719 C 2742.1 0.695184 3.40271 0
M  V30 29720 C 2741.06 1.73555 3.91232 0
M  V30 29721 C 2740.38 1.20613 5.20919 0
M  V30 29722 C 2741.68 3.13392 4.17831 0
M  V30 29723 H 2743.38 2.01113 2.21797 0
M  V30 29724 H 2740.92 0.968345 1.06579 0
M  V30 29725 H 2742.87 0.561023 4.17649 0
M  V30 29726 H 2741.6 -0.272298 3.25463 0
M  V30 29727 H 2740.26 1.85812 3.16021 0
M  V30 29728 H 2739.91 0.228934 5.02479 0
M  V30 29729 H 2739.61 1.90146 5.55984 0
M  V30 29730 H 2741.13 1.08432 6.00895 0
M  V30 29731 H 2742.54 3.043 4.85875 0
M  V30 29732 H 2740.94 3.80377 4.64148 0
M  V30 29733 H 2742.01 3.60601 3.24183 0
M  V30 29734 N 2743.35 -1.15894 1.068 0
M  V30 29735 C 2744.3 -2.22513 0.677565 0
M  V30 29736 C 2745.3 -1.66559 -0.308964 0
M  V30 29737 O 2746.5 -1.79164 -0.173277 0
M  V30 29738 H 2742.88 -0.724638 0.201007 0
M  V30 29739 H 2744.85 -2.52728 1.58654 0
M  V30 29740 C 2743.6 -3.47595 0.0854764 0
M  V30 29741 H 2742.92 -3.90968 0.835713 0
M  V30 29742 H 2744.36 -4.23734 -0.150125 0
M  V30 29743 C 2742.82 -3.15845 -1.17234 0
M  V30 29744 O 2743.35 -3.32123 -2.25959 0
M  V30 29745 N 2741.55 -2.69933 -1.07631 0
M  V30 29746 H 2741.1 -2.56887 -0.191514 0
M  V30 29747 H 2741.06 -2.49063 -1.91872 0
M  V30 29748 N 2744.83 -0.851312 -1.32629 0
M  V30 29749 C 2746.08 -0.449302 -1.96632 0
M  V30 29750 C 2746.39 0.999533 -1.68133 0
M  V30 29751 O 2747.6 1.50681 -2.25848 0
M  V30 29752 C 2746.06 -0.752507 -3.51945 0
M  V30 29753 C 2745.66 -2.21685 -3.89307 0
M  V30 29754 C 2747.41 -0.418057 -4.22436 0
M  V30 29755 C 2745.31 -2.46345 -5.37651 0
M  V30 29756 H 2744.24 -0.164282 -0.735886 0
M  V30 29757 H 2746.9 -1.04163 -1.51071 0
M  V30 29758 H 2745.28 -0.0896554 -3.95898 0
M  V30 29759 H 2746.45 -2.92121 -3.56373 0
M  V30 29760 H 2744.77 -2.51549 -3.31831 0
M  V30 29761 H 2747.36 -0.579768 -5.31548 0
M  V30 29762 H 2747.71 0.640043 -4.1135 0
M  V30 29763 H 2748.24 -1.03666 -3.84055 0
M  V30 29764 H 2744.98 -3.50767 -5.53753 0
M  V30 29765 H 2744.5 -1.80483 -5.72002 0
M  V30 29766 H 2746.18 -2.30125 -6.04691 0
M  V30 29767 N 2746.31 1.45361 -0.608928 0
M  V30 29768 C 2747.24 2.27652 0.158019 0
M  V30 29769 C 2748.22 1.37217 0.872373 0
M  V30 29770 O 2749.4 1.66647 0.880972 0
M  V30 29771 C 2746.53 3.1562 1.2289 0
M  V30 29772 C 2745.58 4.22006 0.617533 0
M  V30 29773 S 2746.41 5.32397 -0.575611 0
M  V30 29774 C 2747.57 6.23933 0.495828 0
M  V30 29775 H 2747.8 2.92352 -0.540146 0
M  V30 29776 H 2745.33 1.49223 -0.396482 0
M  V30 29777 H 2747.29 3.66858 1.84188 0
M  V30 29778 H 2745.95 2.50183 1.89914 0
M  V30 29779 H 2745.14 4.83485 1.42333 0
M  V30 29780 H 2744.75 3.73915 0.0796616 0
M  V30 29781 H 2747.04 6.6341 1.37453 0
M  V30 29782 H 2747.98 7.08052 -0.0828352 0
M  V30 29783 H 2748.39 5.58633 0.811758 0
M  V30 29784 N 2747.79 0.348166 1.53706 0
M  V30 29785 C 2749.01 -0.250847 2.05877 0
M  V30 29786 C 2749.44 -1.4307 1.22117 0
M  V30 29787 O 2748.8 -1.79757 0.236017 0
M  V30 29788 C 2748.84 -0.639354 3.54887 0
M  V30 29789 O 2747.95 -1.73881 3.73951 0
M  V30 29790 H 2747.29 -0.0406414 0.662755 0
M  V30 29791 H 2749.82 0.50372 1.98302 0
M  V30 29792 H 2749.83 -0.915225 3.97602 0
M  V30 29793 H 2748.5 0.223459 4.15299 0
M  V30 29794 H 2747.08 -1.45985 3.43137 0
M  V30 29795 N 2749.27 -1.57412 0.0768958 0
M  V30 29796 C 2750.2 -2.16038 -0.885988 0
M  V30 29797 C 2751.18 -1.08878 -1.30689 0
M  V30 29798 O 2752.36 -1.36936 -1.37703 0
M  V30 29799 C 2749.49 -2.72611 -2.15175 0
M  V30 29800 C 2748.45 -3.84983 -1.87008 0
M  V30 29801 C 2747.77 -4.28181 -3.20258 0
M  V30 29802 C 2749.07 -5.08996 -1.17134 0
M  V30 29803 H 2750.77 -2.96748 -0.397589 0
M  V30 29804 H 2748.31 -1.42744 -0.189798 0
M  V30 29805 H 2750.26 -3.12271 -2.82957 0
M  V30 29806 H 2748.99 -1.8913 -2.66266 0
M  V30 29807 H 2747.65 -3.45835 -1.2163 0
M  V30 29808 H 2747.3 -3.41614 -3.69201 0
M  V30 29809 H 2747 -5.03933 -3.02201 0
M  V30 29810 H 2748.52 -4.7046 -3.89229 0
M  V30 29811 H 2749.93 -5.4594 -1.74993 0
M  V30 29812 H 2748.33 -5.90059 -1.09318 0
M  V30 29813 H 2749.4 -4.84664 -0.15121 0
M  V30 29814 N 2750.74 0.196695 -1.56368 0
M  V30 29815 C 2751.68 1.27176 -1.89477 0
M  V30 29816 C 2752.66 1.44025 -0.754692 0
M  V30 29817 O 2753.84 1.5944 -1.00554 0
M  V30 29818 C 2750.97 2.63861 -2.12356 0
M  V30 29819 C 2750.01 2.63891 -3.35058 0
M  V30 29820 S 2750.85 2.15483 -4.90232 0
M  V30 29821 C 2752 3.53995 -5.16177 0
M  V30 29822 H 2752.23 0.989025 -2.80367 0
M  V30 29823 H 2749.77 0.400113 -1.49126 0
M  V30 29824 H 2751.73 3.42541 -2.2622 0
M  V30 29825 H 2750.39 2.89346 -1.22219 0
M  V30 29826 H 2749.58 3.64391 -3.48188 0
M  V30 29827 H 2749.18 1.93291 -3.20179 0
M  V30 29828 H 2751.47 4.49848 -5.06599 0
M  V30 29829 H 2752.42 3.4576 -6.17945 0
M  V30 29830 H 2752.82 3.48833 -4.4382 0
M  V30 29831 N 2752.22 1.50604 0.464349 0
M  V30 29832 C 2753.15 1.6612 1.57913 0
M  V30 29833 C 2754.17 0.542487 1.53496 0
M  V30 29834 O 2755.36 0.815905 1.58762 0
M  V30 29835 C 2752.46 1.63583 2.96806 0
M  V30 29836 C 2751.63 2.91598 3.26021 0
M  V30 29837 C 2750.69 2.81611 4.44501 0
M  V30 29838 O 2749.71 3.55567 4.44478 0
M  V30 29839 N 2750.92 1.95624 5.46545 0
M  V30 29840 H 2753.68 2.62279 1.45017 0
M  V30 29841 H 2751.24 1.48152 0.652877 0
M  V30 29842 H 2753.23 1.54506 3.74045 0
M  V30 29843 H 2751.8 0.751315 3.03437 0
M  V30 29844 H 2751.02 3.1475 2.37331 0
M  V30 29845 H 2752.31 3.76392 3.42354 0
M  V30 29846 H 2751.71 1.34864 5.49389 0
M  V30 29847 H 2750.27 1.92446 6.22742 0
M  V30 29848 N 2753.7 -0.717989 1.40295 0
M  V30 29849 C 2755.11 -1.29703 1.34291 0
M  V30 29850 C 2755.46 -1.96194 0.0152573 0
M  V30 29851 O 2754.59 -1.97396 -0.886785 0
M  V30 29852 C 2755.18 -2.35855 2.43223 0
M  V30 29853 C 2753.74 -2.8939 2.40687 0
M  V30 29854 C 2752.89 -1.6315 2.24226 0
M  V30 29855 H 2755.84 -0.514286 1.50136 0
M  V30 29856 H 2755.86 -3.16643 2.10992 0
M  V30 29857 H 2755.37 -1.87433 3.39839 0
M  V30 29858 H 2753.47 -3.42049 1.47762 0
M  V30 29859 H 2753.59 -3.41347 3.36183 0
M  V30 29860 H 2751.95 -1.88126 1.71699 0
M  V30 29861 H 2752.73 -1.16755 3.22836 0
M  V30 29862 N 2755.18 -1.25752 -0.94996 0
M  V30 29863 C 2756.11 -1.09032 -2.06481 0
M  V30 29864 C 2757.09 0.00198542 -1.701 0
M  V30 29865 O 2758.27 -0.168417 -1.93468 0
M  V30 29866 C 2755.4 -0.71322 -3.39898 0
M  V30 29867 C 2754.36 -1.75628 -3.90306 0
M  V30 29868 C 2753.68 -1.23374 -5.20272 0
M  V30 29869 C 2754.98 -3.15603 -4.16163 0
M  V30 29870 H 2756.68 -2.02287 -2.20727 0
M  V30 29871 H 2754.22 -0.973983 -1.06064 0
M  V30 29872 H 2756.18 -0.583164 -4.17345 0
M  V30 29873 H 2754.9 0.255034 -3.25603 0
M  V30 29874 H 2753.56 -1.87485 -3.15031 0
M  V30 29875 H 2753.21 -0.255579 -5.0235 0
M  V30 29876 H 2752.91 -1.93092 -5.54968 0
M  V30 29877 H 2754.43 -1.11617 -6.00312 0
M  V30 29878 H 2755.85 -3.06873 -4.84254 0
M  V30 29879 H 2754.24 -3.82834 -4.62124 0
M  V30 29880 H 2755.31 -3.62315 -3.22266 0
M  V30 29881 N 2756.66 1.15326 -1.07413 0
M  V30 29882 C 2757.93 1.82229 -0.710764 0
M  V30 29883 C 2758.31 1.95078 0.806697 0
M  V30 29884 O 2757.66 1.50271 1.72136 0
M  V30 29885 C 2757.87 3.18541 -1.42592 0
M  V30 29886 C 2759.22 3.94171 -1.57843 0
M  V30 29887 O 2760.24 3.28097 -1.38674 0
M  V30 29888 O 2759.1 5.12635 -1.89389 0
M  V30 29889 H 2756.2 0.787355 -0.252984 0
M  V30 29890 H 2758.74 1.22432 -1.1751 0
M  V30 29891 H 2757.51 3.04291 -2.46013 0
M  V30 29892 H 2757.14 3.86025 -0.9524 0
M  V30 29893 N 2758.13 0.858334 1.32176 0
M  V30 29894 C 2759.36 0.477617 2.01312 0
M  V30 29895 C 2759.78 -0.926707 1.64492 0
M  V30 29896 O 2759.13 -1.6053 0.868124 0
M  V30 29897 C 2759.19 0.6114 3.56292 0
M  V30 29898 O 2758.91 1.96041 3.9179 0
M  V30 29899 C 2760.41 0.230171 4.42702 0
M  V30 29900 H 2757.63 0.187333 0.644319 0
M  V30 29901 H 2760.17 1.15629 1.68672 0
M  V30 29902 H 2758.33 -0.0195813 3.87395 0
M  V30 29903 H 2758.74 1.95982 4.86509 0
M  V30 29904 H 2760.21 0.37477 5.50726 0
M  V30 29905 H 2760.69 -0.829704 4.31292 0
M  V30 29906 H 2761.3 0.836375 4.16995 0
M  V30 29907 N 2759.61 -1.45036 0.616628 0
M  V30 29908 C 2760.89 -1.95544 0.046943 0
M  V30 29909 C 2761.27 -1.55891 -1.42342 0
M  V30 29910 O 2760.62 -0.825861 -2.13053 0
M  V30 29911 C 2760.83 -3.4807 0.25455 0
M  V30 29912 C 2762.18 -4.24369 0.1401 0
M  V30 29913 O 2763.2 -3.55718 0.185147 0
M  V30 29914 O 2762.06 -5.4649 0.0327995 0
M  V30 29915 H 2759.15 -0.826434 -0.0305906 0
M  V30 29916 H 2761.7 -1.55158 0.687321 0
M  V30 29917 H 2760.47 -3.69932 1.27539 0
M  V30 29918 H 2760.09 -3.95368 -0.42066 0
M  V30 29919 N 2761.09 -0.356312 -1.53519 0
M  V30 29920 C 2762.04 0.50974 -2.26946 0
M  V30 29921 C 2763.03 1.09123 -1.29571 0
M  V30 29922 O 2764.24 1.0355 -1.47233 0
M  V30 29923 H 2760.61 0.183089 -0.729371 0
M  V30 29924 H 2762.58 -0.131427 -2.9811 0
M  V30 29925 C 2761.33 1.64232 -3.06469 0
M  V30 29926 H 2760.66 1.20416 -3.81235 0
M  V30 29927 H 2762.1 2.22321 -3.61039 0
M  V30 29928 C 2760.56 2.57924 -2.16742 0
M  V30 29929 O 2761.09 3.60503 -1.77201 0
M  V30 29930 N 2759.29 2.269 -1.81562 0
M  V30 29931 H 2758.84 1.4352 -2.13915 0
M  V30 29932 H 2758.8 2.89844 -1.21812 0
M  V30 29933 N 2762.57 1.57369 -0.0852427 0
M  V30 29934 C 2763.52 2.14699 0.894818 0
M  V30 29935 C 2764.51 1.0873 1.29901 0
M  V30 29936 O 2765.72 1.2709 1.27468 0
M  V30 29937 H 2762.09 0.686678 0.306557 0
M  V30 29938 H 2764.06 2.95886 0.38649 0
M  V30 29939 C 2762.81 2.73421 2.14794 0
M  V30 29940 H 2762.13 3.54642 1.84579 0
M  V30 29941 H 2763.57 3.17115 2.8145 0
M  V30 29942 C 2762.03 1.68833 2.91543 0
M  V30 29943 O 2762.56 1.12135 3.85731 0
M  V30 29944 N 2760.77 1.39553 2.54898 0
M  V30 29945 H 2760.32 1.85849 1.78376 0
M  V30 29946 H 2760.27 0.698108 3.06551 0
M  V30 29947 N 2764.05 -0.188399 1.5647 0
M  V30 29948 C 2765.32 -0.934028 1.71858 0
M  V30 29949 C 2765.7 -2.01104 0.641902 0
M  V30 29950 O 2765.05 -2.25864 -0.346058 0
M  V30 29951 C 2765.26 -1.51435 3.14434 0
M  V30 29952 C 2766.61 -1.99389 3.74872 0
M  V30 29953 O 2767.63 -1.61264 3.17604 0
M  V30 29954 O 2766.49 -2.69565 4.75392 0
M  V30 29955 H 2763.59 -0.43847 0.701194 0
M  V30 29956 H 2766.13 -0.17757 1.68768 0
M  V30 29957 H 2764.9 -0.738349 3.84271 0
M  V30 29958 H 2764.53 -2.33546 3.21779 0
M  V30 29959 N 2765.53 -1.50848 -0.456355 0
M  V30 29960 C 2766.75 -1.66351 -1.23024 0
M  V30 29961 C 2767.17 -0.3529 -1.85473 0
M  V30 29962 O 2766.53 0.666709 -1.69886 0
M  V30 29963 C 2766.58 -2.76543 -2.32822 0
M  V30 29964 O 2766.3 -4.02525 -1.72931 0
M  V30 29965 C 2767.8 -3.0315 -3.23443 0
M  V30 29966 H 2765.02 -0.558763 -0.371517 0
M  V30 29967 H 2767.56 -1.97158 -0.543047 0
M  V30 29968 H 2765.72 -2.4839 -2.9729 0
M  V30 29969 H 2766.13 -4.63578 -2.45349 0
M  V30 29970 H 2767.61 -3.83879 -3.96662 0
M  V30 29971 H 2768.08 -2.148 -3.8309 0
M  V30 29972 H 2768.69 -3.32891 -2.64696 0
M  V30 29973 N 2767 0.710538 -1.40674 0
M  V30 29974 C 2768.25 1.46605 -1.38528 0
M  V30 29975 C 2768.57 1.95598 0.00766802 0
M  V30 29976 O 2769.77 2.71076 0.151744 0
M  V30 29977 C 2768.23 2.65026 -2.43494 0
M  V30 29978 C 2767.84 2.22881 -3.88623 0
M  V30 29979 C 2769.58 3.42737 -2.50462 0
M  V30 29980 C 2767.49 3.38171 -4.85174 0
M  V30 29981 H 2766.42 0.550623 -0.515102 0
M  V30 29982 H 2769.07 0.772816 -1.66433 0
M  V30 29983 H 2767.45 3.36544 -2.08696 0
M  V30 29984 H 2768.62 1.5875 -4.32591 0
M  V30 29985 H 2766.94 1.58201 -3.85177 0
M  V30 29986 H 2769.54 4.28536 -3.19783 0
M  V30 29987 H 2769.88 3.86899 -1.53672 0
M  V30 29988 H 2770.41 2.78267 -2.84276 0
M  V30 29989 H 2767.15 2.99037 -5.83316 0
M  V30 29990 H 2766.67 4.01201 -4.45867 0
M  V30 29991 H 2768.35 4.04165 -5.05232 0
M  V30 29992 N 2768.48 1.26254 0.943277 0
M  V30 29993 C 2769.71 1.1455 1.72896 0
M  V30 29994 C 2770.13 -0.29571 1.85761 0
M  V30 29995 O 2769.49 -1.21425 1.34632 0
M  V30 29996 C 2769.54 1.81715 3.11467 0
M  V30 29997 O 2768.64 1.10452 3.97334 0
M  V30 29998 H 2767.98 0.399268 0.530548 0
M  V30 29999 H 2770.51 1.67034 1.18156 0
M  V30 30000 H 2770.52 1.88455 3.61868 0
M  V30 30001 H 2769.2 2.86563 3.0142 0
M  V30 30002 H 2767.77 1.11672 3.55786 0
M  V30 30003 N 2769.96 -1.14755 1.08024 0
M  V30 30004 C 2771.18 -1.90112 0.828983 0
M  V30 30005 C 2771.61 -1.7784 -0.612741 0
M  V30 30006 O 2770.97 -1.11586 -1.42893 0
M  V30 30007 C 2771.02 -3.38216 1.25068 0
M  V30 30008 O 2770.12 -4.10454 0.400191 0
M  V30 30009 H 2769.46 -0.591642 0.301422 0
M  V30 30010 H 2771.99 -1.45281 1.44064 0
M  V30 30011 H 2772 -3.89023 1.22984 0
M  V30 30012 H 2770.68 -3.46467 2.30073 0
M  V30 30013 H 2769.25 -3.69744 0.484117 0
M  V30 30014 N 2771.44 -0.865331 -1.31719 0
M  V30 30015 C 2772.67 -0.487578 -2.00764 0
M  V30 30016 C 2773.08 0.923221 -1.65146 0
M  V30 30017 O 2772.42 1.61559 -0.874322 0
M  V30 30018 C 2772.48 -0.559431 -3.55121 0
M  V30 30019 C 2772.14 -1.93102 -4.14199 0
M  V30 30020 C 2773.14 -2.89791 -4.31645 0
M  V30 30021 C 2770.83 -2.23107 -4.50032 0
M  V30 30022 C 2772.82 -4.14632 -4.84107 0
M  V30 30023 C 2770.51 -3.48198 -5.02197 0
M  V30 30024 C 2771.51 -4.43776 -5.19184 0
M  V30 30025 O 2771.19 -5.6665 -5.70231 0
M  V30 30026 H 2770.93 -0.188926 -0.649063 0
M  V30 30027 H 2773.48 -1.16697 -1.6903 0
M  V30 30028 H 2771.71 0.176859 -3.86295 0
M  V30 30029 H 2773.4 -0.195766 -4.05428 0
M  V30 30030 H 2774.16 -2.67917 -4.04284 0
M  V30 30031 H 2770.04 -1.49492 -4.36088 0
M  V30 30032 H 2773.59 -4.89241 -4.97281 0
M  V30 30033 H 2769.48 -3.69918 -5.28991 0
M  V30 30034 H 2770.25 -5.68757 -5.88607 0
M  V30 30035 N 2772.92 1.44707 -0.624311 0
M  V30 30036 C 2774.14 2.06472 -0.132955 0
M  V30 30037 C 2774.56 1.46604 1.18965 0
M  V30 30038 O 2773.92 0.586371 1.72823 0
M  V30 30039 C 2773.97 3.615 -0.00471772 0
M  V30 30040 O 2773.69 4.19136 -1.27501 0
M  V30 30041 C 2775.19 4.40285 0.516135 0
M  V30 30042 H 2772.41 0.666621 -0.0765318 0
M  V30 30043 H 2774.95 1.85686 -0.856783 0
M  V30 30044 H 2773.11 3.81571 0.669516 0
M  V30 30045 H 2773.52 5.12502 -1.11545 0
M  V30 30046 H 2775 5.49204 0.554897 0
M  V30 30047 H 2775.47 4.11247 1.54182 0
M  V30 30048 H 2776.08 4.25117 -0.124616 0
M  V30 30049 N 2774.39 0.364449 1.53328 0
M  V30 30050 C 2775.64 -0.225153 2.00842 0
M  V30 30051 C 2775.96 -1.49375 1.25347 0
M  V30 30052 O 2775.23 -1.92442 0.36643 0
M  V30 30053 H 2773.81 -0.0861897 0.742011 0
M  V30 30054 H 2776.47 0.490422 1.88629 0
M  V30 30055 H 2775.57 -0.452933 3.08796 0
M  V30 30056 N 2775.87 -1.57322 0.0935872 0
M  V30 30057 C 2776.82 -2.15171 -0.88342 0
M  V30 30058 C 2777.81 -1.09417 -1.29322 0
M  V30 30059 O 2779.02 -1.27764 -1.26793 0
M  V30 30060 H 2775.39 -0.688294 -0.302911 0
M  V30 30061 H 2777.37 -2.96087 -0.370793 0
M  V30 30062 C 2776.11 -2.74556 -2.13341 0
M  V30 30063 H 2775.44 -3.55616 -1.82695 0
M  V30 30064 H 2776.88 -3.18603 -2.79765 0
M  V30 30065 C 2775.34 -1.70376 -2.90643 0
M  V30 30066 O 2775.87 -1.14179 -3.85131 0
M  V30 30067 N 2774.07 -1.40903 -2.54155 0
M  V30 30068 H 2773.62 -1.86792 -1.77388 0
M  V30 30069 H 2773.58 -0.714355 -3.06177 0
M  V30 30070 N 2777.35 0.180099 -1.56568 0
M  V30 30071 C 2778.6 0.896361 -1.81135 0
M  V30 30072 C 2778.92 1.8316 -0.669146 0
M  V30 30073 O 2778.19 1.93406 0.311582 0
M  V30 30074 H 2776.77 0.333987 -0.668178 0
M  V30 30075 H 2779.43 0.182017 -1.94048 0
M  V30 30076 H 2778.53 1.47852 -2.74856 0
M  V30 30077 N 2778.83 1.51088 0.448349 0
M  V30 30078 C 2779.76 1.74547 1.55099 0
M  V30 30079 C 2780.74 0.594961 1.59356 0
M  V30 30080 O 2781.92 0.836522 1.7526 0
M  V30 30081 C 2779.05 1.86046 2.93265 0
M  V30 30082 C 2778.01 3.01407 3.03871 0
M  V30 30083 C 2777.33 2.98075 4.43909 0
M  V30 30084 C 2778.63 4.41556 2.78972 0
M  V30 30085 H 2780.33 2.66872 1.3572 0
M  V30 30086 H 2777.87 1.2842 0.651475 0
M  V30 30087 H 2779.83 2.01041 3.70352 0
M  V30 30088 H 2778.55 0.903603 3.13851 0
M  V30 30089 H 2777.21 2.861 2.29222 0
M  V30 30090 H 2776.86 2.0019 4.61447 0
M  V30 30091 H 2776.56 3.75535 4.51937 0
M  V30 30092 H 2778.08 3.15149 5.22985 0
M  V30 30093 H 2779.5 4.57271 3.45797 0
M  V30 30094 H 2777.89 5.20638 2.98422 0
M  V30 30095 H 2778.96 4.52353 1.74655 0
M  V30 30096 N 2780.31 -0.703068 1.41049 0
M  V30 30097 C 2781.72 -1.28271 1.35659 0
M  V30 30098 C 2782.07 -1.96167 0.0360654 0
M  V30 30099 O 2781.19 -1.98325 -0.865799 0
M  V30 30100 C 2781.79 -2.33262 2.45711 0
M  V30 30101 C 2780.35 -2.86821 2.43743 0
M  V30 30102 C 2779.49 -1.60763 2.25944 0
M  V30 30103 H 2782.45 -0.498333 1.50673 0
M  V30 30104 H 2782.47 -3.14387 2.14338 0
M  V30 30105 H 2781.98 -1.83818 3.41808 0
M  V30 30106 H 2780.08 -3.40462 1.51381 0
M  V30 30107 H 2780.19 -3.37762 3.39785 0
M  V30 30108 H 2778.56 -1.86295 1.73685 0
M  V30 30109 H 2779.34 -1.13325 3.24056 0
M  V30 30110 N 2781.78 -1.26752 -0.936569 0
M  V30 30111 C 2783.03 -1.12736 -1.68578 0
M  V30 30112 C 2783.36 0.327711 -1.91415 0
M  V30 30113 O 2782.64 1.2404 -1.49814 0
M  V30 30114 C 2782.92 -1.90193 -3.05776 0
M  V30 30115 C 2782.77 -3.43632 -2.90236 0
M  V30 30116 C 2784.09 -1.69939 -4.05967 0
M  V30 30117 H 2781.21 -0.410919 -0.611812 0
M  V30 30118 H 2783.85 -1.55803 -1.08745 0
M  V30 30119 H 2782 -1.5359 -3.56851 0
M  V30 30120 H 2783.68 -3.90014 -2.46347 0
M  V30 30121 H 2781.92 -3.70423 -2.25763 0
M  V30 30122 H 2782.59 -3.93062 -3.87565 0
M  V30 30123 H 2785.07 -2.01836 -3.6387 0
M  V30 30124 H 2783.94 -2.26543 -4.9997 0
M  V30 30125 H 2784.2 -0.645097 -4.37368 0
M  V30 30126 N 2783.26 1.1418 -1.08631 0
M  V30 30127 C 2784.51 1.84905 -0.815763 0
M  V30 30128 C 2784.83 1.83476 0.660409 0
M  V30 30129 O 2784.1 1.28479 1.47885 0
M  V30 30130 H 2782.68 0.684643 -0.298785 0
M  V30 30131 H 2785.34 1.38352 -1.37276 0
M  V30 30132 H 2784.44 2.89663 -1.16198 0
M  V30 30133 N 2784.74 0.872304 1.31258 0
M  V30 30134 C 2785.97 0.498219 2.00503 0
M  V30 30135 C 2786.38 -0.91445 1.65634 0
M  V30 30136 O 2785.72 -1.61093 0.882878 0
M  V30 30137 C 2785.78 0.578256 3.54819 0
M  V30 30138 C 2785.45 1.95296 4.13169 0
M  V30 30139 C 2786.44 2.92076 4.30102 0
M  V30 30140 C 2784.13 2.25491 4.48842 0
M  V30 30141 C 2786.12 4.17193 4.81901 0
M  V30 30142 C 2783.81 3.50856 5.00343 0
M  V30 30143 C 2784.81 4.46523 5.16823 0
M  V30 30144 O 2784.5 5.69666 5.67218 0
M  V30 30145 H 2784.23 0.192366 0.648052 0
M  V30 30146 H 2786.78 1.17592 1.68408 0
M  V30 30147 H 2785.01 -0.15637 3.86384 0
M  V30 30148 H 2786.7 0.217264 4.05318 0
M  V30 30149 H 2787.47 2.70058 4.02857 0
M  V30 30150 H 2783.35 1.51803 4.35289 0
M  V30 30151 H 2786.89 4.91872 4.9468 0
M  V30 30152 H 2782.79 3.72718 5.27022 0
M  V30 30153 H 2783.56 5.7187 5.85582 0
M  V30 30154 N 2786.22 -1.44374 0.631976 0
M  V30 30155 C 2787.44 -2.06912 0.142182 0
M  V30 30156 C 2787.87 -1.46922 -1.17454 0
M  V30 30157 O 2787.23 -0.571005 -1.72073 0
M  V30 30158 C 2787.27 -3.60576 0.0418586 0
M  V30 30159 O 2786.38 -4.00045 -1.00187 0
M  V30 30160 H 2785.72 -0.658516 0.0851607 0
M  V30 30161 H 2788.25 -1.85233 0.868895 0
M  V30 30162 H 2788.26 -4.0773 -0.148445 0
M  V30 30163 H 2786.93 -4.0362 1.00318 0
M  V30 30164 H 2785.51 -3.64521 -0.786067 0
M  V30 30165 N 2787.7 -0.372575 -1.53133 0
M  V30 30166 C 2788.66 0.458349 -2.2457 0
M  V30 30167 C 2789.66 1.004 -1.25604 0
M  V30 30168 O 2790.85 0.888646 -1.49829 0
M  V30 30169 C 2787.98 1.64134 -2.98785 0
M  V30 30170 H 2789.17 -0.166852 -2.99435 0
M  V30 30171 H 2786.73 -0.124384 -1.55804 0
M  V30 30172 H 2787.46 2.30444 -2.2818 0
M  V30 30173 H 2787.25 1.25697 -3.71406 0
M  V30 30174 H 2788.74 2.23002 -3.53072 0
M  V30 30175 N 2789.17 1.5727 -0.101929 0
M  V30 30176 C 2790.42 1.95686 0.55483 0
M  V30 30177 C 2790.78 0.983444 1.65367 0
M  V30 30178 O 2790.07 0.0105711 1.91597 0
M  V30 30179 C 2790.26 3.38429 1.14893 0
M  V30 30180 C 2790.09 4.49567 0.109172 0
M  V30 30181 C 2788.86 5.04306 -0.316721 0
M  V30 30182 C 2791.06 5.09979 -0.665285 0
M  V30 30183 N 2789.04 5.99007 -1.34403 0
M  V30 30184 C 2790.41 6.00461 -1.54424 0
M  V30 30185 C 2792.47 4.92695 -0.718053 0
M  V30 30186 C 2791.17 6.75513 -2.47133 0
M  V30 30187 C 2793.2 5.68414 -1.63278 0
M  V30 30188 C 2792.56 6.58568 -2.49935 0
M  V30 30189 H 2788.66 0.762588 0.173157 0
M  V30 30190 H 2791.24 1.93809 -0.186084 0
M  V30 30191 H 2789.41 3.40987 1.85963 0
M  V30 30192 H 2791.14 3.64009 1.76861 0
M  V30 30193 H 2787.9 4.73545 0.0723587 0
M  V30 30194 H 2788.32 6.51059 -1.85609 0
M  V30 30195 H 2792.97 4.22754 -0.062238 0
M  V30 30196 H 2790.68 7.44711 -3.13737 0
M  V30 30197 H 2794.27 5.57052 -1.67883 0
M  V30 30198 H 2793.15 7.16134 -3.19566 0
M  V30 30199 N 2790.65 -0.171793 1.56661 0
M  V30 30200 C 2791.88 -0.904082 1.86102 0
M  V30 30201 C 2792.3 -1.75847 0.687258 0
M  V30 30202 O 2791.65 -1.79236 -0.343639 0
M  V30 30203 C 2791.7 -1.78121 3.14571 0
M  V30 30204 O 2791.42 -0.961291 4.27423 0
M  V30 30205 C 2792.93 -2.62321 3.57355 0
M  V30 30206 H 2790.15 -0.262673 0.61745 0
M  V30 30207 H 2792.69 -0.172032 2.03775 0
M  V30 30208 H 2790.84 -2.46661 2.98726 0
M  V30 30209 H 2791.26 -1.56114 5.00728 0
M  V30 30210 H 2792.73 -3.19482 4.5015 0
M  V30 30211 H 2793.21 -3.37168 2.81451 0
M  V30 30212 H 2793.82 -1.99114 3.75811 0
M  V30 30213 N 2792.13 -1.51324 -0.44033 0
M  V30 30214 C 2793.54 -1.56355 -1.0203 0
M  V30 30215 C 2793.89 -0.385231 -1.92381 0
M  V30 30216 O 2793.02 0.498336 -2.10584 0
M  V30 30217 C 2793.61 -2.83363 -1.85718 0
M  V30 30218 C 2792.17 -2.90975 -2.38769 0
M  V30 30219 C 2791.32 -2.50986 -1.17904 0
M  V30 30220 H 2794.27 -1.57144 -0.221716 0
M  V30 30221 H 2794.29 -2.66956 -2.71136 0
M  V30 30222 H 2793.8 -3.69104 -1.19932 0
M  V30 30223 H 2791.9 -2.09656 -3.08018 0
M  V30 30224 H 2792.02 -3.9456 -2.71771 0
M  V30 30225 H 2790.38 -2.04116 -1.52344 0
M  V30 30226 H 2791.16 -3.39069 -0.537334 0
M  V30 30227 N 2793.61 0.695578 -1.41419 0
M  V30 30228 C 2794.83 1.4894 -1.44332 0
M  V30 30229 C 2795.26 1.88033 -0.0501909 0
M  V30 30230 O 2794.62 1.54628 0.946571 0
M  V30 30231 C 2794.66 2.72833 -2.35785 0
M  V30 30232 O 2793.77 3.70318 -1.81488 0
M  V30 30233 H 2793.11 0.448271 -0.489846 0
M  V30 30234 H 2795.64 0.854982 -1.8588 0
M  V30 30235 H 2795.65 3.21141 -2.51659 0
M  V30 30236 H 2794.32 2.43716 -3.37009 0
M  V30 30237 H 2792.9 3.29252 -1.75064 0
M  V30 30238 N 2795.09 1.27247 0.929833 0
M  V30 30239 C 2796.05 1.09833 2.0117 0
M  V30 30240 C 2797.05 0.042997 1.60743 0
M  V30 30241 O 2798.24 0.287404 1.71813 0
M  V30 30242 C 2795.37 0.673062 3.3419 0
M  V30 30243 H 2796.57 2.05898 2.1805 0
M  V30 30244 H 2794.12 1.10005 1.11034 0
M  V30 30245 H 2794.85 -0.289078 3.23009 0
M  V30 30246 H 2794.64 1.43522 3.64889 0
M  V30 30247 H 2796.13 0.573396 4.13645 0
M  V30 30248 N 2796.57 -1.13603 1.09235 0
M  V30 30249 C 2797.53 -2.17143 0.733591 0
M  V30 30250 C 2798.53 -1.59061 -0.235845 0
M  V30 30251 O 2799.72 -1.74194 -0.0142861 0
M  V30 30252 C 2796.85 -3.40795 0.0845309 0
M  V30 30253 H 2798.04 -2.50394 1.65054 0
M  V30 30254 H 2795.6 -1.28397 0.891286 0
M  V30 30255 H 2796.33 -3.13132 -0.84374 0
M  V30 30256 H 2796.12 -3.84222 0.782052 0
M  V30 30257 H 2797.61 -4.17326 -0.151143 0
M  V30 30258 N 2798.04 -0.879253 -1.30793 0
M  V30 30259 C 2799.27 -0.508805 -2.01062 0
M  V30 30260 C 2799.69 0.893774 -1.65509 0
M  V30 30261 O 2799.05 1.59136 -0.868644 0
M  V30 30262 C 2799.1 -0.684053 -3.54052 0
M  V30 30263 O 2798.2 0.272582 -4.11498 0
M  V30 30264 H 2797.54 -0.201202 -0.632782 0
M  V30 30265 H 2800.07 -1.18522 -1.66774 0
M  V30 30266 H 2800.08 -0.580869 -4.03844 0
M  V30 30267 H 2798.76 -1.70671 -3.79268 0
M  V30 30268 H 2797.34 0.123574 -3.72695 0
M  V30 30269 N 2799.52 1.44037 -0.639624 0
M  V30 30270 C 2800.48 2.29144 0.0506226 0
M  V30 30271 C 2801.48 1.41492 0.763976 0
M  V30 30272 O 2802.67 1.63272 0.60728 0
M  V30 30273 C 2799.81 3.23262 1.08235 0
M  V30 30274 H 2801 2.91663 -0.698038 0
M  V30 30275 H 2798.55 1.5109 -0.400173 0
M  V30 30276 H 2799.29 2.65609 1.8607 0
M  V30 30277 H 2799.07 3.87866 0.574656 0
M  V30 30278 H 2800.56 3.87174 1.56481 0
M  V30 30279 N 2801 0.380691 1.52933 0
M  V30 30280 C 2802.22 -0.207121 2.06363 0
M  V30 30281 C 2802.65 -1.40447 1.25124 0
M  V30 30282 O 2802.01 -1.79216 0.274094 0
M  V30 30283 C 2802.06 -0.563933 3.56163 0
M  V30 30284 O 2801.16 -1.6591 3.77555 0
M  V30 30285 H 2800.5 -0.0265742 0.663468 0
M  V30 30286 H 2803.03 0.545669 1.97189 0
M  V30 30287 H 2803.04 -0.830682 3.99454 0
M  V30 30288 H 2801.72 0.3115 4.14732 0
M  V30 30289 H 2800.29 -1.38674 3.46156 0
M  V30 30290 N 2802.48 -1.57214 0.110268 0
M  V30 30291 C 2803.44 -2.13691 -0.828771 0
M  V30 30292 C 2804.44 -1.06971 -1.20057 0
M  V30 30293 O 2805.63 -1.32788 -1.12752 0
M  V30 30294 C 2802.76 -2.66998 -2.11955 0
M  V30 30295 H 2803.96 -2.97988 -0.338094 0
M  V30 30296 H 2801.51 -1.55682 -0.138886 0
M  V30 30297 H 2802.24 -1.86265 -2.65473 0
M  V30 30298 H 2802.03 -3.4504 -1.86252 0
M  V30 30299 H 2803.52 -3.10634 -2.79099 0
M  V30 30300 O 2803.99 0.0293582 -1.61473 0
M  V30 30301 H 2804.69 0.649943 -1.8247 0
M  V30 END ATOM
M  V30 BEGIN BOND
M  V30 END BOND
M  V30 END CTAB
M  END
$$$$
