drugbank_target|A3FMN7 Restriction endonuclease R.BpuJI (DB02580)
 OpenBabel12092120503D

  0  0  0     0  0            999 V3000
M  V30 BEGIN CTAB
M  V30 COUNTS 7561 7644 0 0 0
M  V30 BEGIN ATOM
M  V30 1 H -0.908 1.98254 -0.117106 0
M  V30 2 N 0 1.576 0 0
M  V30 3 C 0.933 2.03868 1.02534 0
M  V30 4 C 1.911 0.928543 1.3348 0
M  V30 5 O 3.095 1.19667 1.45644 0
M  V30 6 C 0.222 2.43627 2.35294 0
M  V30 7 C -0.732 3.65373 2.2001 0
M  V30 8 S 0.101 5.13292 1.52614 0
M  V30 9 C 1.257 5.56322 2.86805 0
M  V30 10 H 1.49 2.90518 0.631377 0
M  V30 11 H -0.977 1.52953 0.210867 0
M  V30 12 H 0.981 2.67203 3.11629 0
M  V30 13 H -0.358 1.57376 2.7183 0
M  V30 14 H -1.165 3.90944 3.18086 0
M  V30 15 H -1.563 3.418 1.51819 0
M  V30 16 H 0.729 5.58782 3.83104 0
M  V30 17 H 1.672 6.56266 2.65933 0
M  V30 18 H 2.08 4.83886 2.90714 0
M  V30 19 N 1.4781 -0.272755 1.55222 0
M  V30 20 C 2.4261 -1.35705 1.88909 0
M  V30 21 C 3.4201 -1.5112 0.765456 0
M  V30 22 O 4.6261 -1.52901 0.949802 0
M  V30 23 H 1.0011 -0.453868 0.59959 0
M  V30 24 H 2.9721 -1.04544 2.79487 0
M  V30 25 C 1.7211 -2.71049 2.17779 0
M  V30 26 H 1.0441 -2.59979 3.03728 0
M  V30 27 H 2.4841 -3.45858 2.45272 0
M  V30 28 C 0.9431 -3.22165 0.985473 0
M  V30 29 O 1.4731 -4.01096 0.220233 0
M  V30 30 N -0.3209 -2.7985 0.783108 0
M  V30 31 H -0.7739 -2.15775 1.40708 0
M  V30 32 H -0.8159 -3.14397 -0.0130392 0
M  V30 33 N 2.9562 -1.48159 -0.537278 0
M  V30 34 C 4.1862 -1.59223 -1.3165 0
M  V30 35 C 4.5942 -0.248849 -1.87556 0
M  V30 36 O 3.9372 0.770949 -1.6674 0
M  V30 37 C 3.9992 -2.57365 -2.51005 0
M  V30 38 C 3.6632 -4.02603 -2.16239 0
M  V30 39 C 4.6602 -4.90503 -1.72344 0
M  V30 40 C 2.3452 -4.48088 -2.26986 0
M  V30 41 C 4.3392 -6.21913 -1.39651 0
M  V30 42 C 2.0262 -5.7952 -1.93906 0
M  V30 43 C 3.0242 -6.66255 -1.50309 0
M  V30 44 O 2.7122 -7.95243 -1.17659 0
M  V30 45 H 2.4442 -0.539831 -0.406889 0
M  V30 46 H 4.9982 -1.94655 -0.655641 0
M  V30 47 H 3.2282 -2.1704 -3.20048 0
M  V30 48 H 4.9172 -2.58342 -3.13072 0
M  V30 49 H 5.6832 -4.56604 -1.63517 0
M  V30 50 H 1.5622 -3.80769 -2.59877 0
M  V30 51 H 5.1062 -6.89569 -1.0555 0
M  V30 52 H 1.0032 -6.12957 -2.02371 0
M  V30 53 H 1.7712 -8.0793 -1.31119 0
M  V30 54 N 4.4343 0.785586 -1.36625 0
M  V30 55 C 5.3823 1.91978 -1.31329 0
M  V30 56 C 6.3763 1.68162 -0.204416 0
M  V30 57 O 7.5823 1.76122 -0.371645 0
M  V30 58 H 3.9573 0.631087 -0.408942 0
M  V30 59 H 5.9283 1.93562 -2.27104 0
M  V30 60 C 4.6773 3.29055 -1.12329 0
M  V30 61 H 4.0003 3.4795 -1.96903 0
M  V30 62 H 5.4403 4.08756 -1.12671 0
M  V30 63 C 3.8993 3.36461 0.171861 0
M  V30 64 O 4.4293 3.84576 1.16035 0
M  V30 65 N 2.6353 2.89782 0.217846 0
M  V30 66 H 2.1823 2.50819 -0.587183 0
M  V30 67 H 2.1403 2.95119 1.08408 0
M  V30 68 N 5.9124 1.20967 1.01018 0
M  V30 69 C 7.3234 1.02319 1.56165 0
M  V30 70 C 7.6744 -0.418546 1.91684 0
M  V30 71 O 6.7994 -1.30096 1.72928 0
M  V30 72 C 7.3944 1.85109 2.8376 0
M  V30 73 C 5.9534 1.70809 3.35412 0
M  V30 74 C 5.1004 1.82643 2.08655 0
M  V30 75 H 8.0514 1.35065 0.833255 0
M  V30 76 H 8.0724 1.35827 3.55431 0
M  V30 77 H 7.5844 2.90035 2.57878 0
M  V30 78 H 5.6854 0.685464 3.66241 0
M  V30 79 H 5.7984 2.52467 4.07182 0
M  V30 80 H 4.1624 1.25896 2.21409 0
M  V30 81 H 4.9454 2.89066 1.85191 0
M  V30 82 N 7.3905 -1.2043 1.01659 0
M  V30 83 C 8.3005 -2.2689 0.596484 0
M  V30 84 C 9.3165 -1.70107 -0.36599 0
M  V30 85 O 10.4925 -2.00117 -0.226942 0
M  V30 86 C 7.5575 -3.4665 -0.0586659 0
M  V30 87 C 6.6185 -4.18662 0.949751 0
M  V30 88 C 5.8515 -5.32705 0.32577 0
M  V30 89 O 6.0745 -5.63656 -0.874509 0
M  V30 90 O 5.0085 -5.92803 1.04249 0
M  V30 91 H 8.8345 -2.65041 1.4828 0
M  V30 92 H 6.4195 -1.27048 0.786082 0
M  V30 93 H 8.3015 -4.19256 -0.424564 0
M  V30 94 H 6.9765 -3.10375 -0.91918 0
M  V30 95 H 5.8835 -3.48229 1.36702 0
M  V30 96 H 7.2165 -4.58878 1.78023 0
M  V30 97 N 8.8686 -0.792821 -1.36206 0
M  V30 98 C 9.7786 -0.194808 -2.3379 0
M  V30 99 C 10.7946 0.654869 -1.61206 0
M  V30 100 O 11.9706 0.569856 -1.9317 0
M  V30 101 C 9.0356 0.657721 -3.40404 0
M  V30 102 C 8.0966 -0.210849 -4.28782 0
M  V30 103 C 7.3296 0.601086 -5.30304 0
M  V30 104 O 7.5526 1.83682 -5.40016 0
M  V30 105 O 6.4866 -0.000808277 -6.019 0
M  V30 106 H 10.3126 -1.00172 -2.86704 0
M  V30 107 H 7.8976 -0.554341 -1.38735 0
M  V30 108 H 9.7796 1.14375 -4.05581 0
M  V30 109 H 8.4546 1.44247 -2.89784 0
M  V30 110 H 7.3616 -0.743714 -3.66633 0
M  V30 111 H 8.6946 -0.959195 -4.82763 0
M  V30 112 N 10.3467 1.47872 -0.545128 0
M  V30 113 C 11.2787 2.27869 0.246621 0
M  V30 114 C 12.2917 1.36282 0.890561 0
M  V30 115 O 13.4807 1.61207 0.766449 0
M  V30 116 C 10.5807 3.10159 1.36582 0
M  V30 117 C 9.7537 4.29627 0.820954 0
M  V30 118 C 8.8127 4.93607 1.82314 0
M  V30 119 O 7.8387 5.52366 1.37406 0
M  V30 120 N 9.0407 4.87211 3.15603 0
M  V30 121 H 11.8057 2.96459 -0.439539 0
M  V30 122 H 9.3667 1.57367 -0.380421 0
M  V30 123 H 11.3587 3.49829 2.03474 0
M  V30 124 H 9.9287 2.43891 1.9554 0
M  V30 125 H 9.1487 3.94192 -0.0244032 0
M  V30 126 H 10.4367 5.06928 0.436063 0
M  V30 127 H 9.8347 4.40651 3.54744 0
M  V30 128 H 8.3917 5.30937 3.78087 0
M  V30 129 N 11.8248 0.280983 1.55075 0
M  V30 130 C 13.0718 -0.334115 1.99725 0
M  V30 131 C 13.3998 -1.5542 1.1694 0
M  V30 132 O 12.6548 -1.94361 0.228531 0
M  V30 133 C 12.9538 -0.754656 3.49342 0
M  V30 134 C 12.6198 0.361445 4.49449 0
M  V30 135 C 11.2818 0.667893 4.76542 0
M  V30 136 C 13.6338 1.11322 5.09173 0
M  V30 137 C 10.9618 1.7296 5.60626 0
M  V30 138 C 13.3138 2.1647 5.9441 0
M  V30 139 C 11.9778 2.47742 6.19822 0
M  V30 140 H 11.2478 -0.122261 0.730844 0
M  V30 141 H 13.8948 0.395917 1.87363 0
M  V30 142 H 12.1998 -1.56446 3.5921 0
M  V30 143 H 13.8968 -1.24142 3.813 0
M  V30 144 H 10.4868 0.112481 4.28452 0
M  V30 145 H 14.6708 0.88973 4.8826 0
M  V30 146 H 9.9268 1.97684 5.78559 0
M  V30 147 H 14.1008 2.75193 6.3972 0
M  V30 148 H 11.7278 3.30145 6.84769 0
M  V30 149 N 13.3029 -1.57598 0.00835791 0
M  V30 150 C 14.7189 -1.55764 -0.347822 0
M  V30 151 C 14.9189 -1.01186 -1.74252 0
M  V30 152 O 13.9749 -0.649371 -2.44007 0
M  V30 153 C 15.2879 -2.99927 -0.215407 0
M  V30 154 C 16.8359 -3.11656 -0.289725 0
M  V30 155 C 17.3109 -4.57621 -0.18634 0
M  V30 156 N 18.8019 -4.62557 -0.243978 0
M  V30 157 C 19.5369 -5.73094 -0.18745 0
M  V30 158 N 19.0329 -6.92753 -0.0810331 0
M  V30 159 N 20.8259 -5.61588 -0.239925 0
M  V30 160 H 12.9769 -1.91411 0.92062 0
M  V30 161 H 15.2399 -0.879562 0.353659 0
M  V30 162 H 14.9459 -3.43729 0.744512 0
M  V30 163 H 14.8199 -3.63865 -0.994097 0
M  V30 164 H 17.2069 -2.67779 -1.24009 0
M  V30 165 H 17.2879 -2.5048 0.51898 0
M  V30 166 H 16.9319 -5.02174 0.760519 0
M  V30 167 H 16.8619 -5.16752 -1.01364 0
M  V30 168 H 19.3529 -3.76481 -0.327217 0
M  V30 169 H 19.6659 -7.72787 -0.0440241 0
M  V30 170 H 18.0109 -6.94984 -0.0465419 0
M  V30 171 H 21.2019 -4.66996 -0.321317 0
M  V30 172 H 21.3749 -6.47714 -0.192407 0
M  V30 173 N 14.781 0.264519 -1.55364 0
M  V30 174 C 16.021 1.00254 -1.78125 0
M  V30 175 C 16.385 1.83187 -0.575017 0
M  V30 176 O 17.586 2.60029 -0.681042 0
M  V30 177 C 15.857 1.85478 -3.05504 0
M  V30 178 S 17.416 2.6543 -3.49417 0
M  V30 179 H 14.234 0.337522 -0.625779 0
M  V30 180 H 16.836 0.272111 -1.93597 0
M  V30 181 H 15.54 1.23491 -3.9138 0
M  V30 182 H 15.071 2.62827 -2.92721 0
M  V30 183 H 17.086 3.87958 -3.09359 0
M  V30 184 N 16.2591 1.48442 0.529413 0
M  V30 185 C 17.4871 1.60151 1.30994 0
M  V30 186 C 17.9021 0.261985 1.86973 0
M  V30 187 O 17.2591 -0.748805 1.66431 0
M  V30 188 C 17.3101 2.64854 2.46038 0
M  V30 189 O 17.0311 3.93608 1.92365 0
M  V30 190 C 18.5321 2.87007 3.37849 0
M  V30 191 H 15.7521 0.539971 0.398338 0
M  V30 192 H 18.2961 1.94273 0.638597 0
M  V30 193 H 16.4511 2.33589 3.09055 0
M  V30 194 H 16.8651 4.51055 2.67675 0
M  V30 195 H 18.3391 3.64068 4.14919 0
M  V30 196 H 18.8161 1.95852 3.93114 0
M  V30 197 H 19.4221 3.19579 2.80623 0
M  V30 198 N 17.7372 -0.778329 1.37039 0
M  V30 199 C 18.9862 -1.53189 1.3121 0
M  V30 200 C 19.2992 -1.95328 -0.103095 0
M  V30 201 O 20.5052 -2.70012 -0.283826 0
M  V30 202 C 18.9612 -2.76591 2.30272 0
M  V30 203 C 18.5692 -2.41577 3.77286 0
M  V30 204 C 20.3132 -3.5455 2.33441 0
M  V30 205 C 18.2202 -3.61441 4.68096 0
M  V30 206 H 17.1502 -0.5751 0.487622 0
M  V30 207 H 19.8012 -0.853101 1.62464 0
M  V30 208 H 18.1832 -3.46326 1.92027 0
M  V30 209 H 19.3572 -1.79668 4.2433 0
M  V30 210 H 17.6722 -1.76806 3.76999 0
M  V30 211 H 20.2692 -4.43628 2.98493 0
M  V30 212 H 20.6122 -3.93936 1.34611 0
M  V30 213 H 21.1452 -2.91805 2.7036 0
M  V30 214 H 17.8842 -3.27142 5.6803 0
M  V30 215 H 17.4042 -4.22478 4.25761 0
M  V30 216 H 19.0832 -4.28335 4.8491 0
M  V30 217 N 19.2153 -1.21501 -1.00376 0
M  V30 218 C 20.4643 -1.02718 -1.73586 0
M  V30 219 C 20.7773 0.439589 -1.90596 0
M  V30 220 O 21.9833 0.746848 -2.61026 0
M  V30 221 C 20.4393 -1.78929 -3.1227 0
M  V30 222 C 20.0473 -3.29783 -3.03228 0
M  V30 223 C 21.7913 -1.68557 -3.89601 0
M  V30 224 C 19.6983 -3.98479 -4.36999 0
M  V30 225 H 18.6283 -0.380733 -0.650814 0
M  V30 226 H 21.2793 -1.45248 -1.1214 0
M  V30 227 H 19.6613 -1.29192 -3.74333 0
M  V30 228 H 20.8353 -3.86832 -2.50395 0
M  V30 229 H 19.1503 -3.40711 -2.39385 0
M  V30 230 H 21.7473 -2.17211 -4.88593 0
M  V30 231 H 22.0903 -0.644021 -4.11288 0
M  V30 232 H 22.6233 -2.15778 -3.34193 0
M  V30 233 H 19.3623 -5.02841 -4.20513 0
M  V30 234 H 18.8823 -3.46219 -4.89788 0
M  V30 235 H 20.5613 -4.03462 -5.05794 0
M  V30 236 N 20.6934 1.19889 -1.02296 0
M  V30 237 C 22.1094 1.41462 -0.738954 0
M  V30 238 C 22.3094 1.89721 0.678846 0
M  V30 239 O 21.3654 2.07016 1.4457 0
M  V30 240 C 22.6784 2.43083 -1.77005 0
M  V30 241 C 24.2264 2.5684 -1.78892 0
M  V30 242 C 24.7014 3.61709 -2.80945 0
M  V30 243 N 26.1924 3.69199 -2.79725 0
M  V30 244 C 26.9274 4.50019 -3.55345 0
M  V30 245 N 26.4234 5.34592 -4.40662 0
M  V30 246 N 28.2164 4.44612 -3.43914 0
M  V30 247 H 20.3674 0.868827 -1.93817 0
M  V30 248 H 22.6304 0.44399 -0.837602 0
M  V30 249 H 22.3364 2.14636 -2.78612 0
M  V30 250 H 22.2104 3.4217 -1.58744 0
M  V30 251 H 24.5974 2.84614 -0.779674 0
M  V30 252 H 24.6784 1.57927 -2.01228 0
M  V30 253 H 24.3224 3.34678 -3.82038 0
M  V30 254 H 24.2524 4.60259 -2.5587 0
M  V30 255 H 26.7434 3.08794 -2.17842 0
M  V30 256 H 27.0564 5.93363 -4.95116 0
M  V30 257 H 25.4014 5.34073 -4.44737 0
M  V30 258 H 28.5924 3.7758 -2.76679 0
M  V30 259 H 28.7654 5.0736 -4.031 0
M  V30 260 N 22.1715 0.800033 1.35784 0
M  V30 261 C 23.4195 0.376597 1.9856 0
M  V30 262 C 23.7405 -1.05812 1.63795 0
M  V30 263 O 23.0105 -1.73103 0.917171 0
M  V30 264 H 21.5905 0.136261 0.734467 0
M  V30 265 H 24.2525 1.02442 1.65806 0
M  V30 266 H 23.3485 0.477002 3.08433 0
M  V30 267 N 23.6496 -1.47581 0.552962 0
M  V30 268 C 24.5966 -2.29957 -0.197108 0
M  V30 269 C 25.5666 -1.38799 -0.912359 0
M  V30 270 O 26.7516 -1.67761 -0.908888 0
M  V30 271 C 23.8916 -3.22672 -1.22379 0
M  V30 272 C 23.0046 -4.28919 -0.515038 0
M  V30 273 C 22.1396 -5.0879 -1.52664 0
M  V30 274 C 21.1786 -6.06815 -0.802631 0
M  V30 275 N 20.3156 -6.7966 -1.76086 0
M  V30 276 H 25.1556 -2.93578 0.511486 0
M  V30 277 H 22.6926 -1.4471 0.264067 0
M  V30 278 H 24.6506 -3.74845 -1.83159 0
M  V30 279 H 23.2806 -2.60925 -1.90047 0
M  V30 280 H 22.3326 -3.79835 0.207192 0
M  V30 281 H 23.6446 -4.98773 0.0523425 0
M  V30 282 H 22.7986 -5.65091 -2.20809 0
M  V30 283 H 21.5376 -4.38828 -2.12794 0
M  V30 284 H 20.5426 -5.49695 -0.107238 0
M  V30 285 H 21.7676 -6.78784 -0.207135 0
M  V30 286 H 19.7136 -6.12432 -2.35081 0
M  V30 287 H 19.6306 -7.45669 -1.24552 0
M  V30 288 H 20.8986 -7.40538 -2.43359 0
M  V30 289 N 25.1277 -0.289203 -1.54924 0
M  V30 290 C 26.0907 0.579144 -2.21762 0
M  V30 291 C 27.0907 1.07047 -1.1999 0
M  V30 292 O 28.2807 0.968384 -1.44803 0
M  V30 293 C 25.4127 1.80055 -2.8947 0
M  V30 294 H 26.6057 -0.00464908 -2.999 0
M  V30 295 H 24.1587 -0.0399306 -1.56249 0
M  V30 296 H 24.8937 2.42449 -2.15381 0
M  V30 297 H 24.6787 1.45602 -3.64064 0
M  V30 298 H 26.1687 2.41773 -3.40493 0
M  V30 299 N 26.6058 1.57591 -0.0167156 0
M  V30 300 C 27.5528 2.09462 0.969251 0
M  V30 301 C 28.5228 0.99381 1.33089 0
M  V30 302 O 29.7078 1.26726 1.42636 0
M  V30 303 C 26.8478 2.61622 2.25051 0
M  V30 304 C 25.9608 3.85666 1.94642 0
M  V30 305 C 25.0958 4.26266 3.16972 0
M  V30 306 C 24.1348 5.43101 2.82326 0
M  V30 307 N 23.2718 5.78915 3.97243 0
M  V30 308 H 28.1118 2.93428 0.519997 0
M  V30 309 H 25.6488 1.45044 0.245087 0
M  V30 310 H 27.6068 2.89949 2.99976 0
M  V30 311 H 26.2368 1.80505 2.67615 0
M  V30 312 H 25.2888 3.64145 1.10013 0
M  V30 313 H 26.6008 4.70678 1.65117 0
M  V30 314 H 25.7548 4.55963 4.00228 0
M  V30 315 H 24.4938 3.39996 3.49648 0
M  V30 316 H 23.4988 5.1311 1.97479 0
M  V30 317 H 24.7238 6.3106 2.50879 0
M  V30 318 H 22.6698 4.95602 4.29785 0
M  V30 319 H 22.5868 6.58539 3.71299 0
M  V30 320 H 23.8548 6.13212 4.81239 0
M  V30 321 N 28.0839 -0.256276 1.55502 0
M  V30 322 C 29.0319 -1.33694 1.90338 0
M  V30 323 C 30.0259 -1.50299 0.781441 0
M  V30 324 O 31.2319 -1.51885 0.965966 0
M  V30 325 H 27.6069 -0.447483 0.60437 0
M  V30 326 H 29.5779 -1.01574 2.8058 0
M  V30 327 C 28.3269 -2.68724 2.20642 0
M  V30 328 H 27.6499 -2.56743 3.06469 0
M  V30 329 H 29.0899 -3.43237 2.48926 0
M  V30 330 C 27.5489 -3.21101 1.01959 0
M  V30 331 O 28.0789 -4.0084 0.262762 0
M  V30 332 N 26.2849 -2.79003 0.812746 0
M  V30 333 H 25.8319 -2.14271 1.42989 0
M  V30 334 H 25.7899 -3.14393 0.0203076 0
M  V30 335 N 29.562 -1.4872 -0.521534 0
M  V30 336 C 30.495 -1.58451 -1.64221 0
M  V30 337 C 31.473 -0.434513 -1.56687 0
M  V30 338 O 32.657 -0.647275 -1.77038 0
M  V30 339 C 29.784 -1.52037 -3.02659 0
M  V30 340 C 28.83 -2.71981 -3.28525 0
M  V30 341 S 29.663 -4.33869 -3.13876 0
M  V30 342 C 30.819 -4.30067 -4.54745 0
M  V30 343 H 31.052 -2.53256 -1.55719 0
M  V30 344 H 28.585 -1.37358 -0.705143 0
M  V30 345 H 30.543 -1.49023 -3.82495 0
M  V30 346 H 29.204 -0.585541 -3.08594 0
M  V30 347 H 28.397 -2.63656 -4.29536 0
M  V30 348 H 27.999 -2.72302 -2.56374 0
M  V30 349 H 30.291 -4.00521 -5.46433 0
M  V30 350 H 31.234 -5.31287 -4.68123 0
M  V30 351 H 31.642 -3.60419 -4.34463 0
M  V30 352 N 31.0401 0.771051 -1.3745 0
M  V30 353 C 31.9701 1.89827 -1.3597 0
M  V30 354 C 32.9511 1.68562 -0.228216 0
M  V30 355 O 34.1361 1.8941 -0.428675 0
M  V30 356 C 31.2661 3.2712 -1.16662 0
M  V30 357 C 30.2201 3.6295 -2.2683 0
M  V30 358 C 29.5461 4.98791 -1.92644 0
M  V30 359 C 30.8461 3.69627 -3.69017 0
M  V30 360 H 32.5401 1.91323 -2.30295 0
M  V30 361 H 30.0861 0.919082 -1.10855 0
M  V30 362 H 32.0391 4.05615 -1.14256 0
M  V30 363 H 30.7631 3.26059 -0.187926 0
M  V30 364 H 29.4221 2.86763 -2.28392 0
M  V30 365 H 29.0701 4.94271 -0.933021 0
M  V30 366 H 28.7701 5.23733 -2.66416 0
M  V30 367 H 30.2941 5.79685 -1.91826 0
M  V30 368 H 31.7081 4.38273 -3.69581 0
M  V30 369 H 30.1051 4.06067 -4.41848 0
M  V30 370 H 31.1751 2.70273 -4.02592 0
M  V30 371 N 32.5182 1.22032 0.997298 0
M  V30 372 C 33.7952 0.950823 1.70935 0
M  V30 373 C 34.1752 -0.535292 2.042 0
M  V30 374 O 33.5232 -1.50217 1.72183 0
M  V30 375 C 33.7332 1.84386 2.96315 0
M  V30 376 C 35.0812 2.09732 3.69185 0
M  V30 377 O 36.1052 1.81798 3.06314 0
M  V30 378 O 34.9642 2.57018 4.82291 0
M  V30 379 H 32.0582 0.357204 0.745878 0
M  V30 380 H 34.6042 1.32997 1.05404 0
M  V30 381 H 33.3762 2.84928 2.68201 0
M  V30 382 H 32.9992 1.46602 3.69586 0
M  V30 383 N 33.9963 -1.19345 1.0293 0
M  V30 384 C 34.9443 -2.24621 0.604001 0
M  V30 385 C 35.9383 -1.65452 -0.363587 0
M  V30 386 O 37.1443 -1.78497 -0.23212 0
M  V30 387 H 33.5193 -0.730858 0.177061 0
M  V30 388 H 35.4903 -2.5781 1.50255 0
M  V30 389 C 34.2393 -3.47688 -0.0289127 0
M  V30 390 H 33.5623 -3.93505 0.706651 0
M  V30 391 H 35.0023 -4.23011 -0.289432 0
M  V30 392 C 33.4613 -3.11817 -1.2756 0
M  V30 393 O 33.9913 -3.2451 -2.36762 0
M  V30 394 N 32.1973 -2.66246 -1.16453 0
M  V30 395 H 31.7443 -2.56118 -0.275914 0
M  V30 396 H 31.7023 -2.42617 -1.99961 0
M  V30 397 N 35.4744 -0.807222 -1.35358 0
M  V30 398 C 36.4044 -0.232509 -2.3234 0
M  V30 399 C 37.3854 0.642386 -1.57504 0
M  V30 400 O 38.5704 0.572526 -1.85569 0
M  V30 401 C 35.7004 0.619238 -3.41735 0
M  V30 402 C 34.6544 -0.157215 -4.27711 0
M  V30 403 C 33.9804 0.816273 -5.28433 0
M  V30 404 C 35.2804 -1.35656 -5.04376 0
M  V30 405 H 36.9744 -1.04276 -2.80654 0
M  V30 406 H 34.5204 -0.50288 -1.34934 0
M  V30 407 H 36.4734 1.03137 -4.08584 0
M  V30 408 H 35.1974 1.46239 -2.92031 0
M  V30 409 H 33.8564 -0.550525 -3.62443 0
M  V30 410 H 33.5044 1.65494 -4.74996 0
M  V30 411 H 33.2044 0.301067 -5.86828 0
M  V30 412 H 34.7284 1.22659 -5.98153 0
M  V30 413 H 36.1424 -1.01927 -5.64166 0
M  V30 414 H 34.5394 -1.8063 -5.7227 0
M  V30 415 H 35.6094 -2.14288 -4.34981 0
M  V30 416 N 36.9525 1.47285 -0.560781 0
M  V30 417 C 37.8825 2.32857 0.173105 0
M  V30 418 C 38.8635 1.44009 0.905281 0
M  V30 419 O 40.0485 1.7286 0.885046 0
M  V30 420 C 37.1785 3.25861 1.20133 0
M  V30 421 C 36.1325 4.23978 0.585388 0
M  V30 422 C 35.4585 5.06332 1.7185 0
M  V30 423 C 36.7585 5.20242 -0.463178 0
M  V30 424 H 38.4525 2.94466 -0.541307 0
M  V30 425 H 35.9985 1.41601 -0.261764 0
M  V30 426 H 37.9515 3.84569 1.72293 0
M  V30 427 H 36.6755 2.62315 1.94573 0
M  V30 428 H 35.3345 3.66501 0.085054 0
M  V30 429 H 34.9825 4.39186 2.45203 0
M  V30 430 H 34.6825 5.72762 1.31213 0
M  V30 431 H 36.2065 5.67899 2.24329 0
M  V30 432 H 37.6205 5.73293 -0.027502 0
M  V30 433 H 36.0175 5.94896 -0.788627 0
M  V30 434 H 37.0875 4.65504 -1.35773 0
M  V30 435 N 38.4306 0.297415 1.54768 0
M  V30 436 C 39.8416 -0.195947 1.85669 0
M  V30 437 C 40.1926 -1.53707 1.21937 0
M  V30 438 O 39.3176 -2.10164 0.515754 0
M  V30 439 C 39.9126 -0.362318 3.36857 0
M  V30 440 C 38.4716 -0.799901 3.67802 0
M  V30 441 C 37.6186 0.0938578 2.77141 0
M  V30 442 H 40.5696 0.518538 1.4999 0
M  V30 443 H 40.5906 -1.19745 3.61167 0
M  V30 444 H 40.1026 0.613921 3.83214 0
M  V30 445 H 38.2036 -1.78682 3.26961 0
M  V30 446 H 38.3166 -0.621773 4.75048 0
M  V30 447 H 36.6806 -0.426254 2.51108 0
M  V30 448 H 37.4636 1.06639 3.26318 0
M  V30 449 N 39.9087 -1.5758 0.0250728 0
M  V30 450 C 40.8717 -2.08896 -0.943139 0
M  V30 451 C 41.8717 -1.00321 -1.25668 0
M  V30 452 O 43.0617 -1.26495 -1.19769 0
M  V30 453 C 40.1937 -2.55143 -2.26086 0
M  V30 454 H 41.3867 -2.95723 -0.498775 0
M  V30 455 H 38.9397 -1.54703 -0.222888 0
M  V30 456 H 39.6747 -1.71633 -2.75159 0
M  V30 457 H 39.4597 -3.34461 -2.04641 0
M  V30 458 H 40.9497 -2.95083 -2.95492 0
M  V30 459 N 41.3868 0.248026 -1.55636 0
M  V30 460 C 42.6168 0.992367 -1.81206 0
M  V30 461 C 43.0248 1.7949 -0.598324 0
M  V30 462 O 42.3678 1.78292 0.442434 0
M  V30 463 C 42.4298 1.97926 -3.00109 0
M  V30 464 C 42.0938 1.36377 -4.36177 0
M  V30 465 C 43.0908 0.76682 -5.14214 0
M  V30 466 C 40.7758 1.38347 -4.82872 0
M  V30 467 C 42.7698 0.197778 -6.37093 0
M  V30 468 C 40.4568 0.810574 -6.057 0
M  V30 469 C 41.4548 0.218754 -6.8265 0
M  V30 470 O 41.1428 -0.345298 -8.03158 0
M  V30 471 H 40.8748 0.297704 -0.606917 0
M  V30 472 H 43.4288 0.276517 -2.0353 0
M  V30 473 H 41.6588 2.73339 -2.73538 0
M  V30 474 H 43.3478 2.58694 -3.12781 0
M  V30 475 H 44.1138 0.744114 -4.79258 0
M  V30 476 H 39.9928 1.8335 -4.2297 0
M  V30 477 H 43.5368 -0.264788 -6.97097 0
M  V30 478 H 39.4338 0.830604 -6.40134 0
M  V30 479 H 40.2018 -0.237055 -8.18157 0
M  V30 480 N 42.8649 1.48995 0.513639 0
M  V30 481 C 43.8279 1.64229 1.59879 0
M  V30 482 C 44.8279 0.514696 1.5234 0
M  V30 483 O 46.0179 0.78087 1.55718 0
M  V30 484 C 43.1499 1.62783 2.99524 0
M  V30 485 H 44.3429 2.61004 1.47705 0
M  V30 486 H 41.8959 1.37837 0.736936 0
M  V30 487 H 42.6309 0.675461 3.17188 0
M  V30 488 H 42.4159 2.4466 3.06404 0
M  V30 489 H 43.9059 1.76669 3.78388 0
M  V30 490 N 44.343 -0.763751 1.37857 0
M  V30 491 C 45.291 -1.89864 1.34367 0
M  V30 492 C 46.285 -1.67816 0.231143 0
M  V30 493 O 47.491 -1.75508 0.399617 0
M  V30 494 H 43.866 -0.624501 0.41893 0
M  V30 495 H 45.837 -1.89925 2.30155 0
M  V30 496 C 44.586 -3.27227 1.1755 0
M  V30 497 H 43.909 -3.44773 2.02414 0
M  V30 498 H 45.349 -4.06911 1.1916 0
M  V30 499 C 43.808 -3.36692 -0.118311 0
M  V30 500 O 44.338 -3.86374 -1.09902 0
M  V30 501 N 42.544 -2.90092 -0.171717 0
M  V30 502 H 42.091 -2.49853 0.627012 0
M  V30 503 H 42.049 -2.96806 -1.03699 0
M  V30 504 N 45.8211 -1.22559 -0.990812 0
M  V30 505 C 47.0701 -1.04553 -1.72486 0
M  V30 506 C 47.3831 0.419349 -1.91052 0
M  V30 507 O 48.5891 0.719121 -2.61803 0
M  V30 508 C 47.0451 -1.82231 -3.10355 0
M  V30 509 C 46.6531 -3.32981 -2.99713 0
M  V30 510 C 48.3971 -1.7268 -3.87791 0
M  V30 511 C 46.3041 -4.03091 -4.32748 0
M  V30 512 H 45.2341 -0.387614 -0.646739 0
M  V30 513 H 47.8851 -1.46429 -1.10593 0
M  V30 514 H 46.2671 -1.33155 -3.72942 0
M  V30 515 H 47.4411 -3.89466 -2.46278 0
M  V30 516 H 45.7561 -3.43231 -2.35758 0
M  V30 517 H 48.3531 -2.22381 -4.86262 0
M  V30 518 H 48.6961 -0.687607 -4.10582 0
M  V30 519 H 49.2291 -2.1931 -3.31885 0
M  V30 520 H 45.9681 -5.07273 -4.15156 0
M  V30 521 H 45.4881 -3.51394 -4.86089 0
M  V30 522 H 47.1671 -4.08804 -5.01486 0
M  V30 523 N 47.2992 1.18797 -1.03562 0
M  V30 524 C 48.5482 1.87978 -0.731235 0
M  V30 525 C 48.8612 1.80911 0.743671 0
M  V30 526 O 50.0672 2.45407 1.16137 0
M  V30 527 C 48.5232 3.3721 -1.25768 0
M  V30 528 C 48.1312 3.52818 -2.76085 0
M  V30 529 C 49.8752 4.11825 -1.0296 0
M  V30 530 C 47.7822 4.9598 -3.22114 0
M  V30 531 H 46.7122 0.704063 -0.269835 0
M  V30 532 H 49.3632 1.34266 -1.25079 0
M  V30 533 H 47.7452 3.90359 -0.666011 0
M  V30 534 H 48.9192 3.09965 -3.40966 0
M  V30 535 H 47.2342 2.91602 -2.97249 0
M  V30 536 H 49.8312 5.17411 -1.34869 0
M  V30 537 H 50.1742 4.16287 0.0333546 0
M  V30 538 H 50.7072 3.64833 -1.58562 0
M  V30 539 H 47.4462 4.96684 -4.27768 0
M  V30 540 H 46.9662 5.39569 -2.61965 0
M  V30 541 H 48.6452 5.6467 -3.15844 0
M  V30 542 N 48.7773 0.814389 1.34928 0
M  V30 543 C 50.0543 0.321363 1.92942 0
M  V30 544 C 50.4343 -1.19014 1.74353 0
M  V30 545 O 49.7823 -1.99328 1.11716 0
M  V30 546 C 49.9923 0.741323 3.41036 0
M  V30 547 C 51.3403 0.735266 4.18185 0
M  V30 548 O 52.3643 0.68336 3.49584 0
M  V30 549 O 51.2233 0.800703 5.40602 0
M  V30 550 H 48.3173 0.0858893 0.822528 0
M  V30 551 H 50.8633 0.898609 1.43955 0
M  V30 552 H 49.6353 1.78276 3.4833 0
M  V30 553 H 49.2583 0.139307 3.97356 0
M  V30 554 N 50.2554 -1.46986 0.568584 0
M  V30 555 C 51.5324 -1.95592 -0.0174074 0
M  V30 556 C 51.9124 -1.51124 -1.47393 0
M  V30 557 O 51.2604 -0.755329 -2.15655 0
M  V30 558 C 51.4704 -3.48719 0.139913 0
M  V30 559 C 52.8184 -4.246 0.000426376 0
M  V30 560 O 53.8424 -3.56135 0.0680316 0
M  V30 561 O 52.7014 -5.46302 -0.146988 0
M  V30 562 H 49.7954 -0.82498 -0.0577599 0
M  V30 563 H 52.3414 -1.57335 0.635909 0
M  V30 564 H 51.1134 -3.73927 1.15301 0
M  V30 565 H 50.7364 -3.93771 -0.550491 0
M  V30 566 N 51.7335 -0.305618 -1.54608 0
M  V30 567 C 52.9825 0.303098 -1.9941 0
M  V30 568 C 53.2955 1.54648 -1.19764 0
M  V30 569 O 54.5015 2.23007 -1.54855 0
M  V30 570 C 52.9575 0.590588 -3.55021 0
M  V30 571 C 52.5655 -0.634719 -4.43481 0
M  V30 572 C 54.3095 1.16025 -4.08336 0
M  V30 573 C 52.2165 -0.320126 -5.90533 0
M  V30 574 H 51.1465 0.117031 -0.744862 0
M  V30 575 H 53.7975 -0.415045 -1.78745 0
M  V30 576 H 52.1795 1.36845 -3.71604 0
M  V30 577 H 53.3535 -1.41079 -4.38672 0
M  V30 578 H 51.6685 -1.12333 -4.00962 0
M  V30 579 H 54.2655 1.40994 -5.15776 0
M  V30 580 H 54.6085 2.10397 -3.5922 0
M  V30 581 H 55.1415 0.443985 -3.95315 0
M  V30 582 H 51.8805 -1.23254 -6.43808 0
M  V30 583 H 51.4005 0.418579 -5.98338 0
M  V30 584 H 53.0795 0.0766241 -6.46955 0
M  V30 585 N 53.2116 1.57565 -0.0334293 0
M  V30 586 C 54.4516 1.93844 0.648379 0
M  V30 587 C 54.8156 0.910387 1.69044 0
M  V30 588 O 56.0166 1.15952 2.42505 0
M  V30 589 C 54.2876 3.35017 1.24492 0
M  V30 590 S 55.8466 3.93229 1.94721 0
M  V30 591 H 52.6646 0.678231 0.213364 0
M  V30 592 H 55.2666 1.95254 -0.0981253 0
M  V30 593 H 53.9706 4.07652 0.474128 0
M  V30 594 H 53.5016 3.37061 2.02864 0
M  V30 595 H 55.5166 3.77014 3.22606 0
M  V30 596 N 54.6897 -0.239769 1.55765 0
M  V30 597 C 56.1007 -0.808263 1.68297 0
M  V30 598 C 56.4517 -1.85736 0.632181 0
M  V30 599 O 55.5767 -2.15277 -0.220204 0
M  V30 600 C 56.1717 -1.47284 3.05111 0
M  V30 601 C 54.7307 -1.98895 3.19559 0
M  V30 602 C 53.8777 -0.842575 2.64189 0
M  V30 603 H 56.8287 -0.0154422 1.58692 0
M  V30 604 H 56.8497 -2.34111 2.99954 0
M  V30 605 H 56.3617 -0.709053 3.81568 0
M  V30 606 H 54.4627 -2.78132 2.47938 0
M  V30 607 H 54.5757 -2.18143 4.26556 0
M  V30 608 H 52.9397 -1.24501 2.22197 0
M  V30 609 H 53.7227 -0.0917552 3.43177 0
M  V30 610 N 56.1678 -1.49265 -0.50573 0
M  V30 611 C 57.4078 -1.60128 -1.27038 0
M  V30 612 C 57.7718 -0.279557 -1.89954 0
M  V30 613 O 58.9728 -0.263329 -2.67507 0
M  V30 614 C 57.2438 -2.72507 -2.31246 0
M  V30 615 S 58.8028 -3.0329 -3.17113 0
M  V30 616 H 55.6208 -0.564863 -0.4318 0
M  V30 617 H 58.2228 -1.86902 -0.573397 0
M  V30 618 H 56.9268 -3.67068 -1.83546 0
M  V30 619 H 56.4578 -2.4771 -3.05619 0
M  V30 620 H 58.4728 -2.44448 -4.31809 0
M  V30 621 N 57.6459 0.756429 -1.3826 0
M  V30 622 C 58.9229 1.50584 -1.24835 0
M  V30 623 C 59.3029 2.10556 0.151485 0
M  V30 624 O 58.6509 1.96825 1.1607 0
M  V30 625 C 58.8609 2.57448 -2.3563 0
M  V30 626 C 60.2089 3.24429 -2.73917 0
M  V30 627 O 61.2329 2.67751 -2.34921 0
M  V30 628 O 60.0919 4.26937 -3.41156 0
M  V30 629 H 57.1859 0.667664 -0.48801 0
M  V30 630 H 59.7319 0.792083 -1.5008 0
M  V30 631 H 58.5039 2.11362 -3.29305 0
M  V30 632 H 58.1269 3.36408 -2.11933 0
M  V30 633 N 59.124 1.23083 0.984299 0
M  V30 634 C 60.071 1.00854 2.07598 0
M  V30 635 C 61.041 -0.0726709 1.65941 0
M  V30 636 O 62.226 0.0786535 1.90638 0
M  V30 637 C 59.366 0.601645 3.39815 0
M  V30 638 C 58.479 1.75456 3.94765 0
M  V30 639 C 57.614 1.29482 5.15177 0
M  V30 640 C 56.653 2.41873 5.62284 0
M  V30 641 N 55.79 1.96885 6.73929 0
M  V30 642 H 60.63 1.943 2.25946 0
M  V30 643 H 58.167 0.968001 1.10762 0
M  V30 644 H 60.125 0.346854 4.15756 0
M  V30 645 H 58.755 -0.295803 3.21442 0
M  V30 646 H 57.807 2.12346 3.15616 0
M  V30 647 H 59.119 2.59965 4.25699 0
M  V30 648 H 58.273 0.997923 5.98437 0
M  V30 649 H 57.012 0.420046 4.85888 0
M  V30 650 H 56.017 2.72342 4.77608 0
M  V30 651 H 57.242 3.29881 5.93595 0
M  V30 652 H 55.188 1.11782 6.46406 0
M  V30 653 H 55.105 2.74956 7.04227 0
M  V30 654 H 56.373 1.70289 7.60672 0
M  V30 655 N 60.6021 -1.18246 1.0419 0
M  V30 656 C 61.5651 -2.20128 0.638452 0
M  V30 657 C 62.5651 -1.57885 -0.304805 0
M  V30 658 O 63.7551 -1.73967 -0.0900369 0
M  V30 659 C 60.8871 -3.4084 -0.0637751 0
M  V30 660 H 62.0801 -2.57336 1.54007 0
M  V30 661 H 59.6331 -1.32152 0.834598 0
M  V30 662 H 60.3681 -3.09166 -0.979136 0
M  V30 663 H 60.1531 -3.8726 0.614198 0
M  V30 664 H 61.6431 -4.16274 -0.332512 0
M  V30 665 N 62.0802 -0.821533 -1.34494 0
M  V30 666 C 63.3052 -0.420873 -2.03085 0
M  V30 667 C 63.7302 0.964915 -1.61465 0
M  V30 668 O 63.0882 1.62763 -0.798607 0
M  V30 669 C 63.1362 -0.529414 -3.56693 0
M  V30 670 O 62.2402 0.451302 -4.09923 0
M  V30 671 H 61.5812 -0.173489 -0.640935 0
M  V30 672 H 64.1112 -1.11157 -1.71771 0
M  V30 673 H 64.1212 -0.404671 -4.05988 0
M  V30 674 H 62.7962 -1.54014 -3.86332 0
M  V30 675 H 61.3732 0.285558 -3.71805 0
M  V30 676 N 63.5583 1.46682 -0.576371 0
M  V30 677 C 64.8053 2.02412 -0.0595339 0
M  V30 678 C 65.1333 1.44859 1.29793 0
M  V30 679 O 64.3883 0.601099 1.8624 0
M  V30 680 C 64.6873 3.57345 0.062886 0
M  V30 681 C 64.3533 4.33908 -1.22616 0
M  V30 682 C 63.0153 4.54544 -1.57933 0
M  V30 683 C 65.3673 4.77919 -2.07948 0
M  V30 684 C 62.6953 5.16444 -2.78393 0
M  V30 685 C 65.0473 5.41149 -3.27629 0
M  V30 686 C 63.7113 5.60014 -3.63236 0
M  V30 687 H 62.9813 0.74068 -0.021785 0
M  V30 688 H 65.6283 1.76128 -0.751735 0
M  V30 689 H 63.9333 3.82729 0.838178 0
M  V30 690 H 65.6303 3.98136 0.478439 0
M  V30 691 H 62.2203 4.18138 -0.941202 0
M  V30 692 H 66.4043 4.61738 -1.81967 0
M  V30 693 H 61.6603 5.29242 -3.06126 0
M  V30 694 H 65.8343 5.74211 -3.94023 0
M  V30 695 H 63.4613 6.07748 -4.56669 0
M  V30 696 N 65.0364 0.313813 1.54444 0
M  V30 697 C 66.2824 -0.292108 2.00685 0
M  V30 698 C 66.6154 -1.52548 1.20177 0
M  V30 699 O 65.8904 -1.92452 0.281531 0
M  V30 700 C 66.1734 -0.635968 3.5444 0
M  V30 701 C 66.0264 0.607437 4.4568 0
M  V30 702 C 67.3454 -1.45747 4.15266 0
M  V30 703 H 64.4644 -0.104697 0.729526 0
M  V30 704 H 67.1064 0.428457 1.85106 0
M  V30 705 H 65.2564 -1.24986 3.67846 0
M  V30 706 H 66.9284 1.24581 4.44159 0
M  V30 707 H 65.1714 1.23822 4.15753 0
M  V30 708 H 65.8424 0.322515 5.51057 0
M  V30 709 H 68.3184 -0.938645 4.05375 0
M  V30 710 H 67.1944 -1.66683 5.2298 0
M  V30 711 H 67.4554 -2.45063 3.67963 0
M  V30 712 N 66.5145 -1.57545 0.0417849 0
M  V30 713 C 67.4615 -2.10977 -0.935805 0
M  V30 714 C 68.4315 -1.01486 -1.31491 0
M  V30 715 O 69.6165 -1.2898 -1.40602 0
M  V30 716 C 66.7565 -2.65169 -2.2086 0
M  V30 717 C 65.8695 -3.88714 -1.88482 0
M  V30 718 C 65.0045 -4.31254 -3.1015 0
M  V30 719 C 64.0435 -5.47524 -2.7365 0
M  V30 720 N 63.1805 -5.85162 -3.87982 0
M  V30 721 H 68.0205 -2.94218 -0.473249 0
M  V30 722 H 65.5575 -1.45415 -0.221981 0
M  V30 723 H 67.5155 -2.94685 -2.95325 0
M  V30 724 H 66.1455 -1.8474 -2.64709 0
M  V30 725 H 65.1975 -3.65849 -1.04205 0
M  V30 726 H 66.5095 -4.73245 -1.57608 0
M  V30 727 H 65.6635 -4.62273 -3.92923 0
M  V30 728 H 64.4025 -3.45516 -3.44195 0
M  V30 729 H 63.4075 -5.16187 -1.89291 0
M  V30 730 H 64.6325 -6.34971 -2.40807 0
M  V30 731 H 62.5785 -5.02377 -4.21846 0
M  V30 732 H 62.4955 -6.64362 -3.60775 0
M  V30 733 H 63.7635 -6.20791 -4.71422 0
M  V30 734 N 67.9926 0.231505 -1.5589 0
M  V30 735 C 69.2696 0.981096 -1.69215 0
M  V30 736 C 69.6496 2.02799 -0.586164 0
M  V30 737 O 68.9976 2.24823 0.408253 0
M  V30 738 C 69.2076 1.60054 -3.10135 0
M  V30 739 C 70.5556 2.09658 -3.69227 0
M  V30 740 O 71.5796 1.69967 -3.13033 0
M  V30 741 O 70.4386 2.8258 -4.67772 0
M  V30 742 H 67.5326 0.457653 -0.688827 0
M  V30 743 H 70.0786 0.224073 -1.68214 0
M  V30 744 H 68.8506 0.844105 -3.82087 0
M  V30 745 H 68.4736 2.42336 -3.15212 0
M  V30 746 N 69.4707 1.49531 0.497807 0
M  V30 747 C 70.7177 1.59179 1.25173 0
M  V30 748 C 71.0457 0.279932 1.92475 0
M  V30 749 O 70.3007 -0.732383 1.81479 0
M  V30 750 C 70.5997 2.70252 2.33878 0
M  V30 751 C 70.2657 4.11644 1.84012 0
M  V30 752 C 68.9277 4.50121 1.70132 0
M  V30 753 C 71.2797 5.00121 1.46725 0
M  V30 754 C 68.6077 5.74845 1.17348 0
M  V30 755 C 70.9597 6.25366 0.95392 0
M  V30 756 C 69.6237 6.6267 0.801538 0
M  V30 757 H 68.8937 0.582478 0.45804 0
M  V30 758 H 71.5407 1.83373 0.551948 0
M  V30 759 H 69.8457 2.40041 3.09657 0
M  V30 760 H 71.5427 2.74925 2.9192 0
M  V30 761 H 68.1327 3.81274 1.95775 0
M  V30 762 H 72.3167 4.71048 1.56294 0
M  V30 763 H 67.5727 6.02444 1.04264 0
M  V30 764 H 71.7467 6.93301 0.656225 0
M  V30 765 H 69.3737 7.59197 0.390351 0
M  V30 766 N 70.9488 -0.749086 1.3866 0
M  V30 767 C 71.8968 -1.88428 1.36373 0
M  V30 768 C 72.8908 -1.67561 0.248929 0
M  V30 769 O 74.0968 -1.75074 0.41821 0
M  V30 770 H 70.4718 -0.620023 0.42553 0
M  V30 771 H 72.4428 -1.87473 2.32156 0
M  V30 772 C 71.1918 -3.25961 1.21014 0
M  V30 773 H 70.5148 -3.42607 2.06059 0
M  V30 774 H 71.9548 -4.05625 1.23469 0
M  V30 775 C 70.4138 -3.36799 -0.0825941 0
M  V30 776 O 70.9438 -3.87517 -1.05797 0
M  V30 777 N 69.1498 -2.90258 -0.140939 0
M  V30 778 H 68.6968 -2.49174 0.653477 0
M  V30 779 H 68.6548 -2.97889 -1.00545 0
M  V30 780 N 72.4269 -1.23603 -0.977757 0
M  V30 781 C 73.3749 -1.01704 -2.09187 0
M  V30 782 C 74.3689 0.0448214 -1.69341 0
M  V30 783 O 75.5749 -0.108902 -1.7967 0
M  V30 784 H 71.9499 -0.311803 -0.684312 0
M  V30 785 H 73.9209 -1.96207 -2.24823 0
M  V30 786 C 72.6699 -0.627746 -3.41986 0
M  V30 787 H 71.9929 -1.43656 -3.73099 0
M  V30 788 H 73.4329 -0.514053 -4.20872 0
M  V30 789 C 71.8919 0.664238 -3.30287 0
M  V30 790 O 72.4219 1.71268 -3.6336 0
M  V30 791 N 70.6279 0.641156 -2.83439 0
M  V30 792 H 70.1749 -0.212376 -2.56723 0
M  V30 793 H 70.1329 1.50583 -2.75993 0
M  V30 794 N 73.905 1.17692 -1.04816 0
M  V30 795 C 75.321 1.39863 -0.768794 0
M  V30 796 C 75.521 1.91118 0.638451 0
M  V30 797 O 74.577 2.10036 1.40146 0
M  V30 798 C 75.89 2.39274 -1.82122 0
M  V30 799 C 77.438 2.52987 -1.843 0
M  V30 800 C 77.913 3.55669 -2.88555 0
M  V30 801 N 79.404 3.63183 -2.87493 0
M  V30 802 C 80.139 4.42381 -3.64811 0
M  V30 803 N 79.635 5.25125 -4.51903 0
M  V30 804 N 81.428 4.37217 -3.53267 0
M  V30 805 H 73.579 0.82752 -1.95617 0
M  V30 806 H 75.842 0.426123 -0.846831 0
M  V30 807 H 75.548 2.08678 -2.83102 0
M  V30 808 H 75.422 3.38725 -1.65967 0
M  V30 809 H 77.809 2.82896 -0.839869 0
M  V30 810 H 77.89 1.53623 -2.04532 0
M  V30 811 H 77.534 3.26499 -3.89051 0
M  V30 812 H 77.464 4.54728 -2.65575 0
M  V30 813 H 79.955 3.04103 -2.24343 0
M  V30 814 H 80.268 5.82728 -5.07591 0
M  V30 815 H 78.613 5.24519 -4.55966 0
M  V30 816 H 81.804 3.71626 -2.84625 0
M  V30 817 H 81.977 4.98696 -4.13771 0
M  V30 818 N 75.3831 0.828654 1.34056 0
M  V30 819 C 76.3131 0.269443 2.3194 0
M  V30 820 C 77.2941 -0.617247 1.58506 0
M  V30 821 O 78.4791 -0.542931 1.86456 0
M  V30 822 C 75.6091 -0.564793 3.42677 0
M  V30 823 C 74.5631 0.225241 4.27407 0
M  V30 824 C 73.8891 -0.7321 5.29664 0
M  V30 825 C 75.1891 1.43663 5.02154 0
M  V30 826 H 76.8831 1.08728 2.7896 0
M  V30 827 H 74.4291 0.524283 1.34117 0
M  V30 828 H 76.3821 -0.966233 4.10173 0
M  V30 829 H 75.1061 -1.41574 2.9432 0
M  V30 830 H 73.7651 0.608117 3.61521 0
M  V30 831 H 73.4131 -1.57916 4.77568 0
M  V30 832 H 73.1131 -0.20767 5.87233 0
M  V30 833 H 74.6371 -1.13128 6.00029 0
M  V30 834 H 76.0511 1.1089 5.62473 0
M  V30 835 H 74.4481 1.89711 5.69324 0
M  V30 836 H 75.5181 2.21181 4.31517 0
M  V30 837 N 76.8612 -1.46375 0.584142 0
M  V30 838 C 78.1102 -2.01585 0.0679741 0
M  V30 839 C 78.4232 -1.46109 -1.30045 0
M  V30 840 O 79.6292 -1.93148 -1.90804 0
M  V30 841 C 78.0852 -3.5983 0.0709207 0
M  V30 842 C 77.6932 -4.24303 1.43775 0
M  V30 843 C 79.4372 -4.22693 -0.391228 0
M  V30 844 C 77.3442 -5.74631 1.39834 0
M  V30 845 H 76.2742 -0.753689 0.0216421 0
M  V30 846 H 78.9252 -1.68093 0.736001 0
M  V30 847 H 77.3072 -3.90405 -0.663299 0
M  V30 848 H 78.4812 -4.05335 2.19181 0
M  V30 849 H 76.7962 -3.73539 1.84004 0
M  V30 850 H 79.3932 -5.3289 -0.439524 0
M  V30 851 H 79.7362 -3.91728 -1.40906 0
M  V30 852 H 80.2692 -3.96749 0.288974 0
M  V30 853 H 77.0082 -6.10258 2.39303 0
M  V30 854 H 76.5282 -5.95858 0.686505 0
M  V30 855 H 78.2072 -6.37375 1.11187 0
M  V30 856 N 78.3393 -0.321999 -1.54275 0
M  V30 857 C 79.2493 0.553631 -2.27974 0
M  V30 858 C 80.2653 1.13054 -1.32268 0
M  V30 859 O 81.4413 1.15084 -1.6528 0
M  V30 860 C 78.5063 1.69927 -3.02201 0
M  V30 861 C 77.5673 1.15433 -4.1349 0
M  V30 862 C 76.8003 2.24537 -4.84168 0
M  V30 863 O 77.0233 3.44852 -4.5435 0
M  V30 864 O 75.9573 1.90044 -5.7111 0
M  V30 865 H 79.7833 -0.0448345 -3.03667 0
M  V30 866 H 77.3683 -0.0877418 -1.49142 0
M  V30 867 H 79.2503 2.3663 -3.48689 0
M  V30 868 H 77.9253 2.28395 -2.29385 0
M  V30 869 H 76.8323 0.452436 -3.71354 0
M  V30 870 H 78.1653 0.614805 -4.88345 0
M  V30 871 N 79.8174 1.5752 -0.0501392 0
M  V30 872 C 81.0664 1.91827 0.623328 0
M  V30 873 C 81.3794 0.930222 1.72065 0
M  V30 874 O 82.5854 1.1653 2.4522 0
M  V30 875 C 81.0414 3.40692 1.16003 0
M  V30 876 C 80.6494 4.479 0.0948811 0
M  V30 877 C 82.3934 3.84034 1.80881 0
M  V30 878 C 80.3004 5.87879 0.644411 0
M  V30 879 H 79.2304 0.715918 0.236596 0
M  V30 880 H 81.8814 1.83115 -0.118861 0
M  V30 881 H 80.2634 3.44405 1.9545 0
M  V30 882 H 81.4374 4.55775 -0.678675 0
M  V30 883 H 79.7524 4.13892 -0.45637 0
M  V30 884 H 82.3494 4.85984 2.22988 0
M  V30 885 H 82.6924 3.20225 2.6601 0
M  V30 886 H 83.2254 3.82833 1.0809 0
M  V30 887 H 79.9644 6.55282 -0.169229 0
M  V30 888 H 79.4844 5.83567 1.38598 0
M  V30 889 H 81.1634 6.37098 1.12763 0
M  V30 890 N 81.2955 -0.223234 1.56011 0
M  V30 891 C 82.2255 -1.27988 1.95298 0
M  V30 892 C 83.2065 -1.48976 0.820979 0
M  V30 893 O 84.3915 -1.61188 1.08315 0
M  V30 894 C 81.5215 -2.63 2.26822 0
M  V30 895 C 80.4755 -2.56671 3.42497 0
M  V30 896 C 79.8015 -3.95697 3.59622 0
M  V30 897 C 81.1015 -2.11601 4.77517 0
M  V30 898 H 82.7955 -0.953525 2.8381 0
M  V30 899 H 80.3415 -0.457244 1.36548 0
M  V30 900 H 82.2945 -3.37077 2.52898 0
M  V30 901 H 81.0185 -2.9732 1.35161 0
M  V30 902 H 79.6775 -1.85051 3.16467 0
M  V30 903 H 79.3255 -4.27322 2.6534 0
M  V30 904 H 79.0255 -3.92345 4.37424 0
M  V30 905 H 80.5495 -4.71438 3.88044 0
M  V30 906 H 81.9635 -2.7542 5.02809 0
M  V30 907 H 80.3605 -2.19311 5.5859 0
M  V30 908 H 81.4305 -1.06824 4.72987 0
M  V30 909 N 82.7736 -1.49793 -0.48987 0
M  V30 910 C 84.0216 -1.59525 -1.24081 0
M  V30 911 C 84.3426 -0.288953 -1.92847 0
M  V30 912 O 83.6126 0.692436 -1.83254 0
M  V30 913 H 82.1926 -0.587796 -0.460983 0
M  V30 914 H 84.8546 -1.86477 -0.566778 0
M  V30 915 H 83.9506 -2.39696 -1.99881 0
M  V30 916 N 84.2517 0.741722 -1.39055 0
M  V30 917 C 85.1617 1.88621 -1.39496 0
M  V30 918 C 86.1777 1.71557 -0.290578 0
M  V30 919 O 87.3537 1.94275 -0.530954 0
M  V30 920 C 84.4187 3.24134 -1.23037 0
M  V30 921 C 83.4797 3.5364 -2.43387 0
M  V30 922 C 82.7127 4.82687 -2.27703 0
M  V30 923 O 82.9357 5.55922 -1.27696 0
M  V30 924 O 81.8697 5.1194 -3.16545 0
M  V30 925 H 85.6957 1.91203 -2.35956 0
M  V30 926 H 83.2807 0.888625 -1.20099 0
M  V30 927 H 85.1627 4.0513 -1.15964 0
M  V30 928 H 83.8377 3.22337 -0.296691 0
M  V30 929 H 82.7447 2.72758 -2.56035 0
M  V30 930 H 84.0777 3.60209 -3.35425 0
M  V30 931 N 85.7298 1.2412 0.971189 0
M  V30 932 C 86.6398 1.04747 2.09917 0
M  V30 933 C 87.6558 -0.0107162 1.73997 0
M  V30 934 O 88.8318 0.186714 2.00533 0
M  V30 935 C 85.8968 0.650828 3.40537 0
M  V30 936 C 84.9578 1.7851 3.90426 0
M  V30 937 C 84.1908 1.40729 5.14812 0
M  V30 938 O 84.4138 0.29557 5.69634 0
M  V30 939 O 83.3478 2.23168 5.58999 0
M  V30 940 H 87.1738 1.99304 2.29154 0
M  V30 941 H 84.7588 1.02908 1.08307 0
M  V30 942 H 86.6408 0.440992 4.19086 0
M  V30 943 H 85.3158 -0.265649 3.22608 0
M  V30 944 H 84.2228 2.04966 3.12953 0
M  V30 945 H 85.5558 2.68023 4.12825 0
M  V30 946 N 87.2079 -1.17134 1.05439 0
M  V30 947 C 88.4359 -1.91372 0.786414 0
M  V30 948 C 88.8509 -1.76955 -0.658202 0
M  V30 949 O 88.2079 -1.10838 -1.44987 0
M  V30 950 C 88.2589 -3.42356 1.1608 0
M  V30 951 O 87.9799 -3.56332 2.54871 0
M  V30 952 C 89.4809 -4.33663 0.919322 0
M  V30 953 H 86.7009 -0.607118 0.285743 0
M  V30 954 H 89.2449 -1.48525 1.40572 0
M  V30 955 H 87.3999 -3.82939 0.586191 0
M  V30 956 H 87.8139 -4.49896 2.69618 0
M  V30 957 H 89.2879 -5.38099 1.231 0
M  V30 958 H 89.7649 -4.38959 -0.145359 0
M  V30 959 H 90.3709 -3.98796 1.47789 0
M  V30 960 N 88.686 -0.835752 -1.33615 0
M  V30 961 C 89.914 -0.443344 -2.02094 0
M  V30 962 C 90.329 0.954522 -1.62894 0
M  V30 963 O 89.686 1.61982 -0.840723 0
M  V30 964 C 89.737 -0.550775 -3.5728 0
M  V30 965 O 89.458 -1.89356 -3.95065 0
M  V30 966 C 90.959 -0.154919 -4.43029 0
M  V30 967 H 88.179 -0.176359 -0.647409 0
M  V30 968 H 90.723 -1.12746 -1.70612 0
M  V30 969 H 88.878 0.0853997 -3.87306 0
M  V30 970 H 89.292 -1.87687 -4.89769 0
M  V30 971 H 90.766 -0.281144 -5.51284 0
M  V30 972 H 91.243 0.902863 -4.2982 0
M  V30 973 H 91.849 -0.765404 -4.18356 0
M  V30 974 N 90.1641 1.46063 -0.591896 0
M  V30 975 C 91.1111 2.30399 0.136069 0
M  V30 976 C 92.0811 1.41169 0.875238 0
M  V30 977 O 93.2661 1.70112 0.86409 0
M  V30 978 C 90.4061 3.25804 1.13781 0
M  V30 979 C 89.5191 4.30134 0.401137 0
M  V30 980 C 88.6541 5.12659 1.39121 0
M  V30 981 C 87.6931 6.0873 0.641462 0
M  V30 982 N 86.8301 6.8409 1.58004 0
M  V30 983 H 91.6701 2.92118 -0.589144 0
M  V30 984 H 89.2071 1.43959 -0.302342 0
M  V30 985 H 91.1651 3.79569 1.73156 0
M  V30 986 H 89.7951 2.65872 1.83062 0
M  V30 987 H 88.8471 3.79152 -0.307826 0
M  V30 988 H 90.1591 4.98458 -0.184565 0
M  V30 989 H 89.3131 5.70747 2.05749 0
M  V30 990 H 88.0521 4.44316 2.01084 0
M  V30 991 H 87.0571 5.49786 -0.0385419 0
M  V30 992 H 88.2821 6.79095 0.0270945 0
M  V30 993 H 86.2281 6.18449 2.18761 0
M  V30 994 H 86.1451 7.48709 1.04738 0
M  V30 995 H 87.4131 7.4673 2.23639 0
M  V30 996 N 91.6422 0.330177 1.54103 0
M  V30 997 C 92.5892 -0.532762 2.24567 0
M  V30 998 C 93.5592 -1.10635 1.23892 0
M  V30 999 O 94.7442 -1.14546 1.5259 0
M  V30 1000 C 91.8842 -1.6845 3.01195 0
M  V30 1001 C 90.9972 -1.13951 4.167 0
M  V30 1002 C 90.1322 -2.25746 4.80845 0
M  V30 1003 C 89.1712 -1.6853 5.88442 0
M  V30 1004 N 88.3082 -2.74014 6.46421 0
M  V30 1005 H 93.1482 0.0746905 2.97906 0
M  V30 1006 H 90.6852 0.048632 1.4702 0
M  V30 1007 H 92.6432 -2.36234 3.43874 0
M  V30 1008 H 91.2732 -2.26314 2.30178 0
M  V30 1009 H 90.3252 -0.35301 3.78758 0
M  V30 1010 H 91.6372 -0.680892 4.94131 0
M  V30 1011 H 90.7912 -3.01422 5.26526 0
M  V30 1012 H 89.5302 -2.74947 4.0281 0
M  V30 1013 H 88.5352 -0.913543 5.42157 0
M  V30 1014 H 89.7602 -1.20198 6.68378 0
M  V30 1015 H 87.7062 -3.22494 5.71256 0
M  V30 1016 H 87.6232 -2.32735 7.19285 0
M  V30 1017 H 88.8912 -3.49499 6.96757 0
M  V30 1018 N 93.1203 -1.57491 0.0584922 0
M  V30 1019 C 94.3483 -1.97296 -0.623037 0
M  V30 1020 C 94.7633 -0.936338 -1.63946 0
M  V30 1021 O 94.1203 0.0785981 -1.82331 0
M  V30 1022 C 94.1713 -3.37183 -1.30345 0
M  V30 1023 O 93.8923 -4.36872 -0.32773 0
M  V30 1024 C 95.3933 -3.91788 -2.07406 0
M  V30 1025 H 92.6133 -0.649153 -0.169826 0
M  V30 1026 H 95.1573 -2.04106 0.12696 0
M  V30 1027 H 93.3123 -3.31502 -2.00463 0
M  V30 1028 H 93.7263 -5.18141 -0.814269 0
M  V30 1029 H 95.2003 -4.91926 -2.50425 0
M  V30 1030 H 95.6773 -3.27609 -2.92521 0
M  V30 1031 H 96.2833 -4.00829 -1.42184 0
M  V30 1032 N 94.5984 0.214957 -1.56127 0
M  V30 1033 C 95.5284 1.2695 -1.95974 0
M  V30 1034 C 96.5094 1.48539 -0.828868 0
M  V30 1035 O 97.6944 1.60611 -1.09168 0
M  V30 1036 C 94.8244 2.61794 -2.28214 0
M  V30 1037 C 93.7784 2.54851 -3.43853 0
M  V30 1038 C 93.1044 3.93785 -3.61715 0
M  V30 1039 C 94.4044 2.09065 -4.78632 0
M  V30 1040 H 96.0984 0.93846 -2.84312 0
M  V30 1041 H 93.6444 0.449996 -1.36788 0
M  V30 1042 H 95.5974 3.35731 -2.54682 0
M  V30 1043 H 94.3214 2.96599 -1.36736 0
M  V30 1044 H 92.9804 1.8337 -3.17444 0
M  V30 1045 H 92.6284 4.25908 -2.67602 0
M  V30 1046 H 92.3284 3.90019 -4.39498 0
M  V30 1047 H 93.8524 4.69374 -3.90539 0
M  V30 1048 H 95.2664 2.7275 -5.04262 0
M  V30 1049 H 93.6634 2.16346 -5.59745 0
M  V30 1050 H 94.7334 1.04315 -4.73547 0
M  V30 1051 N 96.0765 1.50051 0.48192 0
M  V30 1052 C 97.3535 1.51009 1.2432 0
M  V30 1053 C 97.7335 0.248587 2.09631 0
M  V30 1054 O 97.0815 -0.768409 2.15192 0
M  V30 1055 C 97.2915 2.79981 2.08355 0
M  V30 1056 C 98.6395 3.3022 2.66908 0
M  V30 1057 O 99.6635 2.81228 2.18607 0
M  V30 1058 O 98.5225 4.15595 3.54884 0
M  V30 1059 H 95.6165 0.605239 0.563573 0
M  V30 1060 H 98.1625 1.62332 0.494627 0
M  V30 1061 H 96.9345 3.63275 1.45419 0
M  V30 1062 H 96.5575 2.7161 2.90368 0
M  V30 1063 N 97.5546 -0.734337 1.39446 0
M  V30 1064 C 98.5026 -1.86971 1.38364 0
M  V30 1065 C 99.4966 -1.67288 0.266687 0
M  V30 1066 O 100.703 -1.74621 0.436755 0
M  V30 1067 H 97.0776 -0.615474 0.432082 0
M  V30 1068 H 99.0486 -1.85 2.34132 0
M  V30 1069 C 97.7976 -3.2466 1.24465 0
M  V30 1070 H 97.1206 -3.40402 2.09682 0
M  V30 1071 H 98.5606 -4.04292 1.27764 0
M  V30 1072 C 97.0196 -3.36867 -0.0468674 0
M  V30 1073 O 97.5496 -3.88618 -1.01681 0
M  V30 1074 N 95.7556 -2.90391 -0.110145 0
M  V30 1075 H 95.3026 -2.48466 0.679868 0
M  V30 1076 H 95.2606 -2.98939 -0.973799 0
M  V30 1077 N 99.0327 -1.24633 -0.964593 0
M  V30 1078 C 99.9827 -1.00841 -2.04487 0
M  V30 1079 C 100.967 0.0512468 -1.60818 0
M  V30 1080 O 102.159 -0.162865 -1.76249 0
M  V30 1081 C 99.2877 -0.618474 -3.37683 0
M  V30 1082 C 98.3737 -1.71437 -3.87905 0
M  V30 1083 N 98.7647 -2.9477 -4.11029 0
M  V30 1084 C 97.0627 -1.5926 -4.16596 0
M  V30 1085 C 97.7637 -3.65834 -4.52261 0
M  V30 1086 N 96.7397 -2.9341 -4.57615 0
M  V30 1087 H 100.542 -1.94487 -2.20345 0
M  V30 1088 H 98.0557 -1.14805 -1.14863 0
M  V30 1089 H 100.053 -0.429247 -4.14684 0
M  V30 1090 H 98.7127 0.310766 -3.23209 0
M  V30 1091 H 99.7237 -3.30917 -3.9839 0
M  V30 1092 H 96.4007 -0.731606 -4.1104 0
M  V30 1093 H 97.7907 -4.71646 -4.78539 0
M  V30 1094 N 100.511 1.16574 -1.06058 0
M  V30 1095 C 101.927 1.3904 -0.783585 0
M  V30 1096 C 102.127 1.91784 0.618145 0
M  V30 1097 O 101.183 2.11511 1.37911 0
M  V30 1098 C 102.496 2.37329 -1.84649 0
M  V30 1099 C 104.044 2.51018 -1.86973 0
M  V30 1100 C 104.519 3.52588 -2.92311 0
M  V30 1101 N 106.01 3.60113 -2.91329 0
M  V30 1102 C 106.745 4.38486 -3.69482 0
M  V30 1103 N 106.241 5.20302 -4.57447 0
M  V30 1104 N 108.034 4.33446 -3.57885 0
M  V30 1105 H 100.185 0.806725 -1.96483 0
M  V30 1106 H 102.448 0.417117 -0.851303 0
M  V30 1107 H 102.154 2.05663 -2.85299 0
M  V30 1108 H 102.028 3.36946 -1.6955 0
M  V30 1109 H 104.415 2.81989 -0.869827 0
M  V30 1110 H 104.496 1.51445 -2.0615 0
M  V30 1111 H 104.14 3.22354 -3.92492 0
M  V30 1112 H 104.07 4.51886 -2.70383 0
M  V30 1113 H 106.561 3.01707 -2.27555 0
M  V30 1114 H 106.874 5.77311 -5.13743 0
M  V30 1115 H 105.219 5.19653 -4.61503 0
M  V30 1116 H 108.41 3.68586 -2.88551 0
M  V30 1117 H 108.583 4.94279 -4.19037 0
M  V30 1118 N 101.989 0.842826 1.3317 0
M  V30 1119 C 103.217 0.454055 2.01856 0
M  V30 1120 C 103.632 -0.94587 1.63397 0
M  V30 1121 O 102.989 -1.61534 0.849302 0
M  V30 1122 C 103.04 0.569715 3.56982 0
M  V30 1123 O 102.761 1.91448 3.94055 0
M  V30 1124 C 104.262 0.178412 4.42941 0
M  V30 1125 H 101.482 0.17979 0.646465 0
M  V30 1126 H 104.026 1.1365 1.70012 0
M  V30 1127 H 102.181 -0.0648587 3.87346 0
M  V30 1128 H 102.595 1.90282 4.88767 0
M  V30 1129 H 104.069 0.310376 5.51127 0
M  V30 1130 H 104.546 -0.880056 4.30293 0
M  V30 1131 H 105.152 0.787579 4.17944 0
M  V30 1132 N 103.467 -1.45747 0.599634 0
M  V30 1133 C 104.377 -2.34262 -0.125888 0
M  V30 1134 C 105.393 -1.50768 -0.868625 0
M  V30 1135 O 106.569 -1.83592 -0.828003 0
M  V30 1136 C 103.634 -3.28252 -1.11587 0
M  V30 1137 C 102.695 -4.27651 -0.375956 0
M  V30 1138 C 101.928 -5.1715 -1.31877 0
M  V30 1139 O 102.151 -5.09916 -2.55621 0
M  V30 1140 O 101.085 -5.96286 -0.820157 0
M  V30 1141 H 104.911 -2.97688 0.601315 0
M  V30 1142 H 102.496 -1.44999 0.359934 0
M  V30 1143 H 104.378 -3.86191 -1.68626 0
M  V30 1144 H 103.053 -2.67401 -1.82424 0
M  V30 1145 H 101.96 -3.7335 0.236698 0
M  V30 1146 H 103.293 -4.91334 0.29177 0
M  V30 1147 N 104.945 -0.338344 -1.53925 0
M  V30 1148 C 106.194 0.260732 -2.00008 0
M  V30 1149 C 106.507 1.52073 -1.23017 0
M  V30 1150 O 107.713 2.19672 -1.5955 0
M  V30 1151 C 106.169 0.51515 -3.56194 0
M  V30 1152 C 105.777 -0.728645 -4.42035 0
M  V30 1153 C 107.521 1.07337 -4.10706 0
M  V30 1154 C 105.428 -0.445315 -5.89721 0
M  V30 1155 H 104.358 0.101205 -0.747177 0
M  V30 1156 H 107.009 -0.452866 -1.77824 0
M  V30 1157 H 105.391 1.28932 -3.74423 0
M  V30 1158 H 106.565 -1.50352 -4.35581 0
M  V30 1159 H 104.88 -1.20813 -3.98489 0
M  V30 1160 H 107.477 1.30022 -5.18651 0
M  V30 1161 H 107.82 2.0273 -3.63602 0
M  V30 1162 H 108.353 0.360034 -3.96167 0
M  V30 1163 H 105.092 -1.36883 -6.41049 0
M  V30 1164 H 104.612 0.291569 -5.99091 0
M  V30 1165 H 106.291 -0.0606218 -6.46972 0
M  V30 1166 N 106.423 1.57458 -0.0668435 0
M  V30 1167 C 107.386 2.11323 0.887422 0
M  V30 1168 C 108.386 1.03618 1.22964 0
M  V30 1169 O 109.576 1.29626 1.16373 0
M  V30 1170 C 106.708 2.61048 2.19242 0
M  V30 1171 H 107.901 2.96942 0.420194 0
M  V30 1172 H 105.454 1.55239 0.181793 0
M  V30 1173 H 106.189 1.78868 2.70512 0
M  V30 1174 H 105.974 3.39769 1.95702 0
M  V30 1175 H 107.464 3.02814 2.87565 0
M  V30 1176 N 107.901 -0.206675 1.56239 0
M  V30 1177 C 109.149 -0.927007 1.79586 0
M  V30 1178 C 109.47 -1.8427 0.637929 0
M  V30 1179 O 108.74 -1.92849 -0.344398 0
M  V30 1180 H 107.32 -0.345292 0.662407 0
M  V30 1181 H 109.982 -0.21496 1.93711 0
M  V30 1182 H 109.078 -1.52501 2.72305 0
M  V30 1183 N 109.379 -1.50304 -0.473955 0
M  V30 1184 C 110.326 -1.68959 -1.57231 0
M  V30 1185 C 111.296 -0.530899 -1.57387 0
M  V30 1186 O 112.481 -0.761133 -1.74961 0
M  V30 1187 C 109.621 -1.7871 -2.95223 0
M  V30 1188 C 108.734 -3.06061 -3.04878 0
M  V30 1189 C 107.869 -3.06626 -4.33767 0
M  V30 1190 C 106.908 -4.28443 -4.37154 0
M  V30 1191 N 106.045 -4.26763 -5.5751 0
M  V30 1192 H 110.885 -2.6273 -1.40631 0
M  V30 1193 H 108.422 -1.30241 -0.683789 0
M  V30 1194 H 110.38 -1.82344 -3.75242 0
M  V30 1195 H 109.01 -0.883806 -3.10465 0
M  V30 1196 H 108.062 -3.11911 -2.17751 0
M  V30 1197 H 109.374 -3.96039 -3.0324 0
M  V30 1198 H 108.528 -3.08973 -5.22131 0
M  V30 1199 H 107.267 -2.14473 -4.3801 0
M  V30 1200 H 106.272 -4.2631 -3.47188 0
M  V30 1201 H 107.497 -5.2182 -4.34605 0
M  V30 1202 H 105.443 -3.37462 -5.62544 0
M  V30 1203 H 105.36 -5.10507 -5.57601 0
M  V30 1204 H 106.628 -4.33253 -6.48006 0
M  V30 1205 N 110.857 0.726932 -1.39834 0
M  V30 1206 C 111.787 1.85405 -1.41941 0
M  V30 1207 C 112.768 1.67751 -0.281728 0
M  V30 1208 O 113.953 1.8795 -0.488717 0
M  V30 1209 C 111.083 3.23243 -1.2701 0
M  V30 1210 C 110.037 3.55549 -2.38262 0
M  V30 1211 C 109.363 4.9241 -2.08415 0
M  V30 1212 C 110.663 3.577 -3.80589 0
M  V30 1213 H 112.357 1.83899 -2.36266 0
M  V30 1214 H 109.903 0.883349 -1.13723 0
M  V30 1215 H 111.856 4.01775 -1.27103 0
M  V30 1216 H 110.58 3.25296 -0.291564 0
M  V30 1217 H 109.239 2.79351 -2.37399 0
M  V30 1218 H 108.887 4.91052 -1.0898 0
M  V30 1219 H 108.587 5.14992 -2.82943 0
M  V30 1220 H 110.111 5.73289 -2.10171 0
M  V30 1221 H 111.525 4.26293 -3.83337 0
M  V30 1222 H 109.922 3.91804 -4.54543 0
M  V30 1223 H 110.992 2.57328 -4.10987 0
M  V30 1224 N 112.336 1.25143 0.95797 0
M  V30 1225 C 113.583 1.09692 1.70217 0
M  V30 1226 C 113.911 -0.362654 1.91089 0
M  V30 1227 O 113.166 -1.28386 1.47701 0
M  V30 1228 C 113.465 1.79272 3.09187 0
M  V30 1229 C 113.131 3.29196 3.08125 0
M  V30 1230 C 111.793 3.70096 3.07543 0
M  V30 1231 C 114.145 4.24995 3.0171 0
M  V30 1232 C 111.473 5.05213 2.9829 0
M  V30 1233 C 113.825 5.60132 2.93999 0
M  V30 1234 C 112.489 6.00365 2.9175 0
M  V30 1235 H 111.759 0.401393 0.622868 0
M  V30 1236 H 114.406 1.55372 1.11945 0
M  V30 1237 H 112.711 1.26014 3.70982 0
M  V30 1238 H 114.408 1.64773 3.65583 0
M  V30 1239 H 110.998 2.96651 3.09348 0
M  V30 1240 H 115.182 3.9439 3.01281 0
M  V30 1241 H 110.438 5.35569 2.94916 0
M  V30 1242 H 114.612 6.3406 2.87996 0
M  V30 1243 H 112.239 7.05023 2.84336 0
M  V30 1244 N 113.814 -1.1601 1.06675 0
M  V30 1245 C 115.062 -1.86264 0.784229 0
M  V30 1246 C 115.383 -1.82328 -0.691488 0
M  V30 1247 O 114.653 -1.25947 -1.50047 0
M  V30 1248 H 113.233 -0.689621 0.28711 0
M  V30 1249 H 115.895 -1.40664 1.34906 0
M  V30 1250 H 114.991 -2.91595 1.11259 0
M  V30 1251 N 115.292 -0.849877 -1.32721 0
M  V30 1252 C 116.225 -0.235903 -2.26977 0
M  V30 1253 C 117.203 0.623355 -1.50177 0
M  V30 1254 O 118.387 0.581207 -1.79316 0
M  V30 1255 C 115.514 0.667712 -3.32053 0
M  V30 1256 C 114.56 -0.11753 -4.26338 0
M  V30 1257 S 115.393 -1.48277 -5.14562 0
M  V30 1258 C 116.549 -0.584741 -6.23163 0
M  V30 1259 H 116.782 -1.03495 -2.78704 0
M  V30 1260 H 114.315 -0.64724 -1.40179 0
M  V30 1261 H 116.273 1.18343 -3.93072 0
M  V30 1262 H 114.934 1.44052 -2.7912 0
M  V30 1263 H 114.127 0.57051 -5.00761 0
M  V30 1264 H 113.729 -0.564668 -3.69713 0
M  V30 1265 H 116.021 0.212968 -6.77165 0
M  V30 1266 H 116.964 -1.29947 -6.96074 0
M  V30 1267 H 117.372 -0.161202 -5.6427 0
M  V30 1268 N 116.77 1.45427 -0.607355 0
M  V30 1269 C 118.017 2.02241 -0.102455 0
M  V30 1270 C 118.345 1.4758 1.26691 0
M  V30 1271 O 117.6 0.640468 1.84923 0
M  V30 1272 C 117.899 3.57398 -0.0129263 0
M  V30 1273 C 117.565 4.3121 -1.31792 0
M  V30 1274 C 116.227 4.51092 -1.67539 0
M  V30 1275 C 118.579 4.73401 -2.18039 0
M  V30 1276 C 115.907 5.10422 -2.89285 0
M  V30 1277 C 118.259 5.34078 -3.39034 0
M  V30 1278 C 116.923 5.52184 -3.75033 0
M  V30 1279 H 116.193 0.740051 -0.037491 0
M  V30 1280 H 118.84 1.74494 -0.788926 0
M  V30 1281 H 117.145 3.84421 0.756806 0
M  V30 1282 H 118.842 3.99061 0.393881 0
M  V30 1283 H 115.432 4.16047 -1.02968 0
M  V30 1284 H 119.616 4.57774 -1.91721 0
M  V30 1285 H 114.872 5.22629 -3.17283 0
M  V30 1286 H 119.046 5.65724 -4.06115 0
M  V30 1287 H 116.673 5.97925 -4.69457 0
M  V30 1288 N 118.248 0.346503 1.53744 0
M  V30 1289 C 119.478 -0.250047 2.05081 0
M  V30 1290 C 119.886 -1.44529 1.22098 0
M  V30 1291 O 119.229 -1.81992 0.249917 0
M  V30 1292 C 119.291 -0.725934 3.52094 0
M  V30 1293 C 118.955 0.350053 4.55657 0
M  V30 1294 C 119.952 1.19372 5.0601 0
M  V30 1295 C 117.637 0.504827 4.99757 0
M  V30 1296 C 119.631 2.17768 5.99046 0
M  V30 1297 C 117.318 1.49218 5.92602 0
M  V30 1298 C 118.316 2.32706 6.42135 0
M  V30 1299 O 118.004 3.2976 7.33153 0
M  V30 1300 H 117.736 -0.0515469 0.674032 0
M  V30 1301 H 120.29 0.497559 1.99282 0
M  V30 1302 H 118.52 -1.52483 3.55367 0
M  V30 1303 H 120.209 -1.24336 3.86388 0
M  V30 1304 H 120.975 1.08525 4.72702 0
M  V30 1305 H 116.854 -0.135178 4.60802 0
M  V30 1306 H 120.398 2.82971 6.37631 0
M  V30 1307 H 116.295 1.6012 6.25325 0
M  V30 1308 H 117.063 3.25265 7.51096 0
M  V30 1309 N 119.726 -1.57421 0.075193 0
M  V30 1310 C 120.636 -2.1642 -0.905511 0
M  V30 1311 C 121.652 -1.12828 -1.32461 0
M  V30 1312 O 122.828 -1.45109 -1.39661 0
M  V30 1313 C 119.893 -2.71693 -2.15369 0
M  V30 1314 C 118.954 -3.90171 -1.79068 0
M  V30 1315 C 118.187 -4.42798 -2.97936 0
M  V30 1316 O 118.41 -3.94416 -4.12058 0
M  V30 1317 O 117.344 -5.34085 -2.77555 0
M  V30 1318 H 121.17 -3.00588 -0.433626 0
M  V30 1319 H 118.755 -1.48664 -0.148067 0
M  V30 1320 H 120.637 -3.07104 -2.88557 0
M  V30 1321 H 119.312 -1.90582 -2.61649 0
M  V30 1322 H 118.219 -3.59606 -1.03122 0
M  V30 1323 H 119.552 -4.72584 -1.37569 0
M  V30 1324 N 121.204 0.198386 -1.56346 0
M  V30 1325 C 122.481 0.944982 -1.71258 0
M  V30 1326 C 122.861 2.0151 -0.629048 0
M  V30 1327 O 122.209 2.25639 0.360473 0
M  V30 1328 C 122.419 1.5344 -3.1346 0
M  V30 1329 C 123.767 2.01778 -3.73591 0
M  V30 1330 O 124.791 1.63288 -3.16568 0
M  V30 1331 O 123.65 2.72594 -4.73661 0
M  V30 1332 H 120.744 0.442939 -0.69838 0
M  V30 1333 H 123.29 0.188342 -1.68652 0
M  V30 1334 H 122.062 0.762869 -3.83792 0
M  V30 1335 H 121.685 2.35596 -3.20282 0
M  V30 1336 N 122.682 1.50554 0.465978 0
M  V30 1337 C 123.959 1.5232 1.22712 0
M  V30 1338 C 124.339 0.270807 2.09356 0
M  V30 1339 O 123.687 -0.745541 2.15995 0
M  V30 1340 C 123.897 2.82175 2.05374 0
M  V30 1341 C 125.245 3.33033 2.6339 0
M  V30 1342 O 126.269 2.83531 2.15612 0
M  V30 1343 O 125.128 4.19336 3.50456 0
M  V30 1344 H 122.222 0.611183 0.557122 0
M  V30 1345 H 124.768 1.62847 0.477381 0
M  V30 1346 H 123.54 3.64797 1.41558 0
M  V30 1347 H 123.163 2.74675 2.87471 0
M  V30 1348 N 124.16 -0.719506 1.40217 0
M  V30 1349 C 125.07 -1.86378 1.42479 0
M  V30 1350 C 126.086 -1.71073 0.317834 0
M  V30 1351 O 127.262 -1.93406 0.561794 0
M  V30 1352 C 124.327 -3.22136 1.28178 0
M  V30 1353 C 123.388 -3.49723 2.48982 0
M  V30 1354 C 122.621 -4.79004 2.35353 0
M  V30 1355 O 122.844 -5.53821 1.36524 0
M  V30 1356 O 121.778 -5.06839 3.2465 0
M  V30 1357 H 125.604 -1.87425 2.38968 0
M  V30 1358 H 123.189 -0.869405 1.21498 0
M  V30 1359 H 125.071 -4.03234 1.22395 0
M  V30 1360 H 123.746 -3.21825 0.347934 0
M  V30 1361 H 122.653 -2.6865 2.60342 0
M  V30 1362 H 123.986 -3.54828 3.41113 0
M  V30 1363 N 125.638 -1.25649 -0.95132 0
M  V30 1364 C 126.884 -1.10757 -1.69884 0
M  V30 1365 C 127.217 0.350061 -1.91019 0
M  V30 1366 O 126.492 1.25783 -1.48354 0
M  V30 1367 C 126.775 -1.86606 -3.07978 0
M  V30 1368 C 126.628 -3.40217 -2.94232 0
M  V30 1369 C 127.947 -1.65182 -4.07925 0
M  V30 1370 H 125.066 -0.40374 -0.616574 0
M  V30 1371 H 127.708 -1.54521 -1.10558 0
M  V30 1372 H 125.858 -1.49409 -3.58621 0
M  V30 1373 H 127.53 -3.87108 -2.50889 0
M  V30 1374 H 125.773 -3.67759 -2.30078 0
M  V30 1375 H 126.444 -3.88505 -3.92133 0
M  V30 1376 H 128.92 -1.9757 -3.66204 0
M  V30 1377 H 127.796 -2.20683 -5.02583 0
M  V30 1378 H 128.057 -0.593933 -4.38092 0
M  V30 1379 N 127.117 1.15442 -1.07289 0
M  V30 1380 C 128.366 1.85557 -0.790669 0
M  V30 1381 C 128.679 1.83186 0.685739 0
M  V30 1382 O 129.885 2.48977 1.0827 0
M  V30 1383 C 128.341 3.33038 -1.36433 0
M  V30 1384 C 127.949 3.43856 -2.8717 0
M  V30 1385 C 129.693 4.0834 -1.1601 0
M  V30 1386 C 127.6 4.85482 -3.3773 0
M  V30 1387 H 126.53 0.695122 -0.292098 0
M  V30 1388 H 129.181 1.30219 -1.29287 0
M  V30 1389 H 127.563 3.88043 -0.789864 0
M  V30 1390 H 128.737 2.98961 -3.50655 0
M  V30 1391 H 127.052 2.81998 -3.06376 0
M  V30 1392 H 129.649 5.12859 -1.51262 0
M  V30 1393 H 129.992 4.16182 -0.0991007 0
M  V30 1394 H 130.525 3.59603 -1.70089 0
M  V30 1395 H 127.264 4.82823 -4.43353 0
M  V30 1396 H 126.784 5.30961 -2.78999 0
M  V30 1397 H 128.463 5.54335 -3.33648 0
M  V30 1398 N 128.595 0.856903 1.32268 0
M  V30 1399 C 129.842 0.461386 1.97174 0
M  V30 1400 C 130.17 -0.983491 1.67803 0
M  V30 1401 O 129.425 -1.70541 0.959903 0
M  V30 1402 C 129.724 0.649919 3.51441 0
M  V30 1403 C 129.39 2.0656 4.00804 0
M  V30 1404 C 128.052 2.45279 4.13995 0
M  V30 1405 C 130.404 2.98947 4.26943 0
M  V30 1406 C 127.732 3.75653 4.50668 0
M  V30 1407 C 130.084 4.28822 4.65075 0
M  V30 1408 C 128.748 4.67472 4.76472 0
M  V30 1409 H 128.018 0.168833 0.72151 0
M  V30 1410 H 130.665 1.08739 1.57633 0
M  V30 1411 H 128.97 -0.0593018 3.91755 0
M  V30 1412 H 130.667 0.32391 3.9969 0
M  V30 1413 H 127.257 1.75495 3.91024 0
M  V30 1414 H 131.441 2.70265 4.16258 0
M  V30 1415 H 126.697 4.05379 4.57688 0
M  V30 1416 H 130.871 5.0047 4.84255 0
M  V30 1417 H 128.498 5.68539 5.04646 0
M  V30 1418 N 130.073 -1.45103 0.615059 0
M  V30 1419 C 131.484 -1.85654 0.197383 0
M  V30 1420 C 131.835 -1.51433 -1.24749 0
M  V30 1421 O 130.96 -0.944608 -1.94695 0
M  V30 1422 C 131.555 -3.36972 0.351448 0
M  V30 1423 C 130.114 -3.76398 -0.011593 0
M  V30 1424 C 129.261 -2.69024 0.672394 0
M  V30 1425 H 132.212 -1.35797 0.821263 0
M  V30 1426 H 132.233 -3.78239 -0.414227 0
M  V30 1427 H 131.745 -3.61847 1.40314 0
M  V30 1428 H 129.846 -3.5714 -1.06217 0
M  V30 1429 H 129.959 -4.77532 0.387265 0
M  V30 1430 H 128.323 -2.54465 0.109284 0
M  V30 1431 H 129.106 -2.96735 1.72636 0
M  V30 1432 N 131.551 -0.354651 -1.53558 0
M  V30 1433 C 132.776 0.242153 -2.05981 0
M  V30 1434 C 133.201 1.42553 -1.2272 0
M  V30 1435 O 132.559 1.79656 -0.243604 0
M  V30 1436 C 132.607 0.624367 -3.55154 0
M  V30 1437 O 131.711 1.72301 -3.74681 0
M  V30 1438 H 131.052 0.0378432 -0.662921 0
M  V30 1439 H 133.582 -0.512087 -1.98088 0
M  V30 1440 H 133.592 0.898433 -3.97985 0
M  V30 1441 H 132.267 -0.240989 -4.15201 0
M  V30 1442 H 130.844 1.44535 -3.4375 0
M  V30 1443 N 133.029 1.57378 -0.0835403 0
M  V30 1444 C 134.277 1.93547 0.581718 0
M  V30 1445 C 134.598 0.96524 1.69435 0
M  V30 1446 O 133.868 0.0153369 1.95894 0
M  V30 1447 H 132.448 0.714521 0.217874 0
M  V30 1448 H 135.11 1.94366 -0.144158 0
M  V30 1449 H 134.206 2.95665 0.999423 0
M  V30 1450 N 134.507 -0.190092 1.56449 0
M  V30 1451 C 135.923 -0.54113 1.50146 0
M  V30 1452 C 136.123 -1.85603 0.784465 0
M  V30 1453 O 135.179 -2.5024 0.337051 0
M  V30 1454 C 136.492 -0.591241 2.9483 0
M  V30 1455 C 138.04 -0.679732 3.0553 0
M  V30 1456 C 138.515 -0.760908 4.51635 0
M  V30 1457 N 140.006 -0.824302 4.55806 0
M  V30 1458 C 140.741 -0.907365 5.66175 0
M  V30 1459 N 140.237 -0.952422 6.86222 0
M  V30 1460 N 142.03 -0.94494 5.541 0
M  V30 1461 H 134.181 0.67235 2.01478 0
M  V30 1462 H 136.444 0.240127 0.917084 0
M  V30 1463 H 136.15 0.305905 3.50367 0
M  V30 1464 H 136.024 -1.44422 3.48457 0
M  V30 1465 H 138.411 -1.56731 2.50039 0
M  V30 1466 H 138.492 0.199549 2.5502 0
M  V30 1467 H 138.136 0.122336 5.07753 0
M  V30 1468 H 138.066 -1.65606 4.99882 0
M  V30 1469 H 140.557 -0.798526 3.69367 0
M  V30 1470 H 140.87 -1.01645 7.66086 0
M  V30 1471 H 139.215 -0.921014 6.8887 0
M  V30 1472 H 142.406 -0.906612 4.59236 0
M  V30 1473 H 142.579 -1.00622 6.4014 0
M  V30 1474 N 135.985 -1.50799 -0.457987 0
M  V30 1475 C 137.213 -1.66218 -1.23203 0
M  V30 1476 C 137.628 -0.350894 -1.85511 0
M  V30 1477 O 136.985 0.668546 -1.69814 0
M  V30 1478 C 137.036 -2.76291 -2.33121 0
M  V30 1479 O 136.757 -4.02338 -1.73366 0
M  V30 1480 C 138.258 -3.028 -3.2377 0
M  V30 1481 H 135.478 -0.558361 -0.372121 0
M  V30 1482 H 138.022 -1.97099 -0.545179 0
M  V30 1483 H 136.177 -2.48068 -2.97558 0
M  V30 1484 H 136.591 -4.63312 -2.4585 0
M  V30 1485 H 138.065 -3.8345 -3.97077 0
M  V30 1486 H 138.542 -2.14385 -3.83322 0
M  V30 1487 H 139.148 -3.32604 -2.65056 0
M  V30 1488 N 137.463 0.71206 -1.40597 0
M  V30 1489 C 138.411 1.84746 -1.41321 0
M  V30 1490 C 139.405 1.66842 -0.293268 0
M  V30 1491 O 140.611 1.73904 -0.464481 0
M  V30 1492 H 136.986 0.608522 -0.441819 0
M  V30 1493 H 138.957 1.81252 -2.37045 0
M  V30 1494 C 137.706 3.22638 -1.29614 0
M  V30 1495 H 137.029 3.37023 -2.15071 0
M  V30 1496 H 138.469 4.02209 -1.3418 0
M  V30 1497 C 136.928 3.36899 -0.00673121 0
M  V30 1498 O 137.458 3.90186 0.954859 0
M  V30 1499 N 135.664 2.9053 0.0639327 0
M  V30 1500 H 135.211 2.47353 -0.719311 0
M  V30 1501 H 135.169 3.0045 0.926118 0
M  V30 1502 N 138.941 1.26152 0.944643 0
M  V30 1503 C 139.888 1.07408 2.04285 0
M  V30 1504 C 140.858 -0.0198413 1.66088 0
M  V30 1505 O 142.043 0.139264 1.90291 0
M  V30 1506 C 139.183 0.70945 3.37729 0
M  V30 1507 C 138.296 1.87926 3.88983 0
M  V30 1508 C 137.431 1.45807 5.10797 0
M  V30 1509 C 136.47 2.5964 5.54305 0
M  V30 1510 N 135.607 2.18226 6.67324 0
M  V30 1511 H 140.447 2.01389 2.1965 0
M  V30 1512 H 137.984 1.00275 1.07626 0
M  V30 1513 H 139.942 0.478948 4.14442 0
M  V30 1514 H 138.572 -0.193389 3.2222 0
M  V30 1515 H 137.624 2.22279 3.08701 0
M  V30 1516 H 138.936 2.73377 4.17213 0
M  V30 1517 H 138.09 1.18781 5.94959 0
M  V30 1518 H 136.829 0.574414 4.84305 0
M  V30 1519 H 135.834 2.87399 4.68702 0
M  V30 1520 H 137.059 3.48599 5.828 0
M  V30 1521 H 135.005 1.3229 6.42523 0
M  V30 1522 H 134.922 2.97221 6.95123 0
M  V30 1523 H 136.19 1.94403 7.54869 0
M  V30 1524 N 140.419 -1.14872 1.07899 0
M  V30 1525 C 141.649 -1.89386 0.825631 0
M  V30 1526 C 142.057 -1.78565 -0.625406 0
M  V30 1527 O 141.4 -1.13918 -1.44113 0
M  V30 1528 C 141.462 -3.40206 1.16191 0
M  V30 1529 C 141.126 -3.74812 2.61467 0
M  V30 1530 C 142.123 -3.75367 3.59716 0
M  V30 1531 C 139.808 -4.0495 2.97189 0
M  V30 1532 C 141.802 -4.05574 4.9172 0
M  V30 1533 C 139.489 -4.34821 4.29388 0
M  V30 1534 C 140.487 -4.35116 5.26463 0
M  V30 1535 O 140.175 -4.64267 6.56286 0
M  V30 1536 H 139.907 -0.606894 0.297751 0
M  V30 1537 H 142.461 -1.46438 1.44031 0
M  V30 1538 H 140.691 -3.8358 0.490214 0
M  V30 1539 H 142.38 -3.96018 0.890193 0
M  V30 1540 H 143.146 -3.52176 3.33462 0
M  V30 1541 H 139.025 -4.03876 2.22273 0
M  V30 1542 H 142.569 -4.05719 5.67484 0
M  V30 1543 H 138.466 -4.5748 4.55392 0
M  V30 1544 H 139.234 -4.82007 6.61522 0
M  V30 1545 N 141.898 -0.863906 -1.31812 0
M  V30 1546 C 143.147 -0.46801 -1.96195 0
M  V30 1547 C 143.46 0.983474 -1.69077 0
M  V30 1548 O 144.666 1.48523 -2.27273 0
M  V30 1549 C 143.122 -0.785995 -3.51212 0
M  V30 1550 C 142.73 -2.25383 -3.87178 0
M  V30 1551 C 144.474 -0.458274 -4.22019 0
M  V30 1552 C 142.381 -2.51455 -5.3528 0
M  V30 1553 H 141.311 -0.171283 -0.734287 0
M  V30 1554 H 143.962 -1.05597 -1.50072 0
M  V30 1555 H 142.344 -0.127359 -3.95795 0
M  V30 1556 H 143.518 -2.95502 -3.53575 0
M  V30 1557 H 141.833 -2.54698 -3.2942 0
M  V30 1558 H 144.43 -0.630369 -5.30971 0
M  V30 1559 H 144.773 0.600834 -4.11941 0
M  V30 1560 H 145.306 -1.07319 -3.8305 0
M  V30 1561 H 142.045 -3.56025 -5.50387 0
M  V30 1562 H 141.565 -1.85923 -5.70257 0
M  V30 1563 H 143.244 -2.35874 -6.02472 0
M  V30 1564 N 143.376 1.44774 -0.622745 0
M  V30 1565 C 144.286 2.34433 0.0886031 0
M  V30 1566 C 145.302 1.52131 0.844529 0
M  V30 1567 O 146.478 1.84886 0.798691 0
M  V30 1568 C 143.543 3.29986 1.0635 0
M  V30 1569 C 142.604 4.28195 0.307873 0
M  V30 1570 C 141.837 5.19183 1.23633 0
M  V30 1571 O 142.06 5.13918 2.47476 0
M  V30 1572 O 140.994 5.97515 0.725189 0
M  V30 1573 H 144.82 2.96693 -0.648599 0
M  V30 1574 H 142.405 1.44408 -0.382957 0
M  V30 1575 H 144.287 3.88825 1.6246 0
M  V30 1576 H 142.962 2.70269 1.78146 0
M  V30 1577 H 141.869 3.72927 -0.296064 0
M  V30 1578 H 143.202 4.90808 -0.3699 0
M  V30 1579 N 144.854 0.36279 1.53368 0
M  V30 1580 C 146.131 -0.284021 1.93527 0
M  V30 1581 C 146.511 -1.66628 1.29608 0
M  V30 1582 O 145.859 -2.23942 0.45413 0
M  V30 1583 C 146.069 -0.337028 3.47369 0
M  V30 1584 C 147.417 -0.578708 4.20638 0
M  V30 1585 O 148.441 -0.418352 3.53735 0
M  V30 1586 O 147.3 -0.89074 5.39192 0
M  V30 1587 H 144.394 -0.169743 0.809393 0
M  V30 1588 H 146.94 0.41537 1.64538 0
M  V30 1589 H 145.712 0.632217 3.86159 0
M  V30 1590 H 145.335 -1.08243 3.82582 0
M  V30 1591 N 146.332 -1.57332 0.0918853 0
M  V30 1592 C 147.557 -1.98995 -0.584442 0
M  V30 1593 C 147.982 -0.970528 -1.61128 0
M  V30 1594 O 147.34 0.0613904 -1.81196 0
M  V30 1595 C 147.388 -3.39636 -1.21161 0
M  V30 1596 O 146.492 -3.40447 -2.32744 0
M  V30 1597 H 145.833 -0.647165 -0.148572 0
M  V30 1598 H 148.363 -2.03873 0.172347 0
M  V30 1599 H 148.373 -3.7726 -1.55367 0
M  V30 1600 H 147.048 -4.13356 -0.459313 0
M  V30 1601 H 145.625 -3.14614 -2.0018 0
M  V30 1602 N 147.81 0.181792 -1.56548 0
M  V30 1603 C 149.087 0.926765 -1.72251 0
M  V30 1604 C 149.467 2.00831 -0.650386 0
M  V30 1605 O 148.815 2.26008 0.336521 0
M  V30 1606 C 149.025 1.50106 -3.1507 0
M  V30 1607 C 150.373 1.97805 -3.75711 0
M  V30 1608 O 151.397 1.59922 -3.18282 0
M  V30 1609 O 150.256 2.67555 -4.76525 0
M  V30 1610 H 147.35 0.435506 -0.703039 0
M  V30 1611 H 149.896 0.170443 -1.68842 0
M  V30 1612 H 148.668 0.72212 -3.84579 0
M  V30 1613 H 148.291 2.32186 -3.22763 0
M  V30 1614 N 149.288 1.51039 0.449983 0
M  V30 1615 C 150.22 1.67617 1.56324 0
M  V30 1616 C 151.233 0.557083 1.52972 0
M  V30 1617 O 152.422 0.830989 1.57977 0
M  V30 1618 C 149.522 1.66402 2.95235 0
M  V30 1619 C 148.695 2.9469 3.23229 0
M  V30 1620 C 147.754 2.85832 4.41799 0
M  V30 1621 O 146.78 3.59785 4.41071 0
M  V30 1622 N 147.982 2.00821 5.44657 0
M  V30 1623 H 150.747 2.63648 1.42512 0
M  V30 1624 H 148.308 1.48767 0.638737 0
M  V30 1625 H 150.3 1.58062 3.72557 0
M  V30 1626 H 148.87 0.780182 3.02708 0
M  V30 1627 H 148.09 3.16996 2.34323 0
M  V30 1628 H 149.378 3.79636 3.38754 0
M  V30 1629 H 148.776 1.40091 5.48079 0
M  V30 1630 H 147.333 1.98368 6.20881 0
M  V30 1631 N 150.766 -0.704594 1.40972 0
M  V30 1632 C 152.177 -1.28418 1.3552 0
M  V30 1633 C 152.528 -1.96171 0.0339434 0
M  V30 1634 O 151.653 -1.98231 -0.867944 0
M  V30 1635 C 152.248 -2.33528 2.45459 0
M  V30 1636 C 150.807 -2.87085 2.43433 0
M  V30 1637 C 149.954 -1.61007 2.2577 0
M  V30 1638 H 152.905 -0.499963 1.50619 0
M  V30 1639 H 152.926 -3.14619 2.13998 0
M  V30 1640 H 152.438 -1.84187 3.41609 0
M  V30 1641 H 150.539 -3.40626 1.51013 0
M  V30 1642 H 150.652 -3.3813 3.39419 0
M  V30 1643 H 149.016 -1.86482 1.73483 0
M  V30 1644 H 149.799 -1.13675 3.23933 0
M  V30 1645 N 152.244 -1.26651 -0.937939 0
M  V30 1646 C 153.207 -1.08546 -2.01867 0
M  V30 1647 C 154.207 -0.0327327 -1.60767 0
M  V30 1648 O 155.397 -0.276427 -1.71993 0
M  V30 1649 C 152.529 -0.651711 -3.34613 0
M  V30 1650 H 153.722 -2.04502 -2.1936 0
M  V30 1651 H 151.275 -1.09294 -1.11734 0
M  V30 1652 H 152.01 0.309696 -3.22818 0
M  V30 1653 H 151.795 -1.41189 -3.65798 0
M  V30 1654 H 153.285 -0.546973 -4.14002 0
M  V30 1655 N 153.722 1.14298 -1.08507 0
M  V30 1656 C 154.969 1.85359 -0.815373 0
M  V30 1657 C 155.297 1.83001 0.658865 0
M  V30 1658 O 154.552 1.25655 1.50031 0
M  V30 1659 C 154.851 3.33547 -1.28379 0
M  V30 1660 C 154.517 3.56093 -2.76602 0
M  V30 1661 C 153.179 3.61955 -3.17084 0
M  V30 1662 C 155.531 3.64834 -3.72217 0
M  V30 1663 C 152.859 3.74082 -4.51973 0
M  V30 1664 C 155.211 3.78487 -5.06883 0
M  V30 1665 C 153.875 3.82598 -5.46969 0
M  V30 1666 H 153.145 0.678276 -0.298366 0
M  V30 1667 H 155.792 1.35002 -1.35819 0
M  V30 1668 H 154.097 3.86191 -0.660593 0
M  V30 1669 H 155.794 3.86959 -1.05186 0
M  V30 1670 H 152.384 3.52179 -2.4427 0
M  V30 1671 H 156.568 3.59595 -3.42061 0
M  V30 1672 H 151.824 3.75527 -4.82483 0
M  V30 1673 H 155.998 3.84193 -5.80834 0
M  V30 1674 H 153.625 3.91747 -6.51489 0
M  V30 1675 N 155.201 0.870884 1.31352 0
M  V30 1676 C 156.448 0.482273 1.96673 0
M  V30 1677 C 156.776 -0.965638 1.68836 0
M  V30 1678 O 156.031 -1.69514 0.977937 0
M  V30 1679 C 156.33 0.687157 3.50732 0
M  V30 1680 C 155.996 2.108 3.9859 0
M  V30 1681 C 154.658 2.49656 4.1137 0
M  V30 1682 C 157.01 3.03459 4.23748 0
M  V30 1683 C 154.338 3.80412 4.46659 0
M  V30 1684 C 156.69 4.3373 4.60501 0
M  V30 1685 C 155.354 4.725 4.71487 0
M  V30 1686 H 154.624 0.176476 0.719679 0
M  V30 1687 H 157.271 1.10405 1.56471 0
M  V30 1688 H 155.576 -0.0177476 3.91796 0
M  V30 1689 H 157.273 0.366284 3.99324 0
M  V30 1690 H 153.863 1.79633 3.8914 0
M  V30 1691 H 158.047 2.74665 4.13368 0
M  V30 1692 H 153.303 4.1021 4.53362 0
M  V30 1693 H 157.477 5.05578 4.78919 0
M  V30 1694 H 155.104 5.73859 4.98588 0
M  V30 1695 N 156.679 -1.44442 0.630414 0
M  V30 1696 C 157.626 -2.30678 -0.0749355 0
M  V30 1697 C 158.596 -1.4344 -0.837502 0
M  V30 1698 O 159.781 -1.72343 -0.818684 0
M  V30 1699 C 156.921 -3.28706 -1.05103 0
M  V30 1700 C 156.034 -4.31046 -0.286954 0
M  V30 1701 C 155.169 -5.16167 -1.2548 0
M  V30 1702 C 154.208 -6.10216 -0.479843 0
M  V30 1703 N 153.345 -6.88039 -1.39811 0
M  V30 1704 H 158.185 -2.90454 0.666386 0
M  V30 1705 H 155.722 -1.43107 0.340404 0
M  V30 1706 H 157.68 -3.84027 -1.63031 0
M  V30 1707 H 156.31 -2.70632 -1.75949 0
M  V30 1708 H 155.362 -3.78203 0.408243 0
M  V30 1709 H 156.674 -4.97794 0.316657 0
M  V30 1710 H 155.828 -5.76002 -1.90544 0
M  V30 1711 H 154.567 -4.49491 -1.89233 0
M  V30 1712 H 153.572 -5.49491 0.184295 0
M  V30 1713 H 154.797 -6.78928 0.152965 0
M  V30 1714 H 152.743 -6.24032 -2.02287 0
M  V30 1715 H 152.66 -7.51223 -0.848508 0
M  V30 1716 H 153.928 -7.52397 -2.03762 0
M  V30 1717 N 158.157 -0.370918 -1.53173 0
M  V30 1718 C 159.434 0.273754 -1.93675 0
M  V30 1719 C 159.814 1.65938 -1.3049 0
M  V30 1720 O 159.162 2.23698 -0.465999 0
M  V30 1721 C 159.372 0.318602 -3.47543 0
M  V30 1722 C 160.72 0.556392 -4.20939 0
M  V30 1723 O 161.744 0.399587 -3.53952 0
M  V30 1724 O 160.603 0.862133 -5.39657 0
M  V30 1725 H 157.697 0.165448 -0.810281 0
M  V30 1726 H 160.243 -0.42409 -1.64315 0
M  V30 1727 H 159.015 -0.652687 -3.85818 0
M  V30 1728 H 158.638 1.06212 -3.83151 0
M  V30 1729 N 159.635 1.57281 -0.100228 0
M  V30 1730 C 160.884 1.93713 0.561984 0
M  V30 1731 C 161.197 0.984492 1.69018 0
M  V30 1732 O 162.403 1.24273 2.41389 0
M  V30 1733 C 160.859 3.4421 1.05106 0
M  V30 1734 C 160.467 4.47975 -0.0476628 0
M  V30 1735 C 162.211 3.89595 1.68571 0
M  V30 1736 C 160.118 5.89631 0.457055 0
M  V30 1737 H 159.048 0.723082 0.2137 0
M  V30 1738 H 161.699 1.82644 -0.177057 0
M  V30 1739 H 160.081 3.50449 1.84395 0
M  V30 1740 H 161.255 4.53385 -0.823333 0
M  V30 1741 H 159.57 4.1223 -0.587816 0
M  V30 1742 H 162.167 4.92832 2.07414 0
M  V30 1743 H 162.51 3.28526 2.55688 0
M  V30 1744 H 163.043 3.86078 0.958562 0
M  V30 1745 H 159.782 6.54411 -0.377616 0
M  V30 1746 H 159.302 5.87681 1.19962 0
M  V30 1747 H 160.981 6.40363 0.92437 0
M  V30 1748 N 161.113 -0.173488 1.56642 0
M  V30 1749 C 162.353 -0.896984 1.83667 0
M  V30 1750 C 162.717 -1.79523 0.680842 0
M  V30 1751 O 163.918 -2.55616 0.831488 0
M  V30 1752 C 162.189 -1.67351 3.15798 0
M  V30 1753 S 163.748 -2.44607 3.64298 0
M  V30 1754 H 160.566 -0.300464 0.644393 0
M  V30 1755 H 163.168 -0.158775 1.94854 0
M  V30 1756 H 161.872 -1.00462 3.97914 0
M  V30 1757 H 161.403 -2.45313 3.07546 0
M  V30 1758 H 163.418 -3.69261 3.31452 0
M  V30 1759 N 162.591 -1.51276 -0.441967 0
M  V30 1760 C 163.838 -1.63715 -1.19179 0
M  V30 1761 C 164.166 -0.351175 -1.91303 0
M  V30 1762 O 163.421 0.664524 -1.84072 0
M  V30 1763 C 163.72 -2.78746 -2.23686 0
M  V30 1764 C 163.386 -4.18189 -1.68607 0
M  V30 1765 C 162.048 -4.56125 -1.53308 0
M  V30 1766 C 164.4 -5.05222 -1.28062 0
M  V30 1767 C 161.728 -5.78804 -0.959317 0
M  V30 1768 C 164.08 -6.28476 -0.721162 0
M  V30 1769 C 162.744 -6.65188 -0.55504 0
M  V30 1770 H 162.014 -0.599076 -0.436106 0
M  V30 1771 H 164.661 -1.85296 -0.48351 0
M  V30 1772 H 162.966 -2.51369 -3.00535 0
M  V30 1773 H 164.663 -2.8557 -2.81515 0
M  V30 1774 H 161.253 -3.88277 -1.8149 0
M  V30 1775 H 165.437 -4.76524 -1.38704 0
M  V30 1776 H 160.693 -6.05899 -0.81833 0
M  V30 1777 H 164.867 -6.95259 -0.398458 0
M  V30 1778 H 162.494 -7.60123 -0.108311 0
M  V30 1779 N 164.069 0.697108 -1.41344 0
M  V30 1780 C 165.016 1.81106 -1.43071 0
M  V30 1781 C 165.986 1.63632 -0.285275 0
M  V30 1782 O 167.171 1.84504 -0.486091 0
M  V30 1783 C 164.311 3.18975 -1.31715 0
M  V30 1784 C 163.424 3.47892 -2.56115 0
M  V30 1785 C 162.559 4.75367 -2.37064 0
M  V30 1786 C 161.598 4.97247 -3.56948 0
M  V30 1787 N 160.735 6.15947 -3.36977 0
M  V30 1788 H 165.575 1.78965 -2.38276 0
M  V30 1789 H 163.112 0.873975 -1.18322 0
M  V30 1790 H 165.07 3.98615 -1.23133 0
M  V30 1791 H 163.7 3.20297 -0.401183 0
M  V30 1792 H 162.752 2.62669 -2.75153 0
M  V30 1793 H 164.064 3.59962 -3.45295 0
M  V30 1794 H 163.218 5.63059 -2.25941 0
M  V30 1795 H 161.957 4.65541 -1.45338 0
M  V30 1796 H 160.962 4.08004 -3.68527 0
M  V30 1797 H 162.187 5.08934 -4.49626 0
M  V30 1798 H 160.133 6.07336 -2.47949 0
M  V30 1799 H 160.05 6.28777 -4.19732 0
M  V30 1800 H 161.318 7.06377 -3.29623 0
M  V30 1801 N 165.547 1.27147 0.931209 0
M  V30 1802 C 166.794 1.13278 1.67852 0
M  V30 1803 C 167.122 -0.32204 1.91815 0
M  V30 1804 O 166.377 -1.25224 1.50391 0
M  V30 1805 C 166.676 1.8579 3.05314 0
M  V30 1806 C 166.342 3.35657 3.01073 0
M  V30 1807 C 165.004 3.76536 2.99623 0
M  V30 1808 C 167.356 4.31299 2.92627 0
M  V30 1809 C 164.684 5.11426 2.87506 0
M  V30 1810 C 167.036 5.66242 2.82051 0
M  V30 1811 C 165.7 6.06418 2.7895 0
M  V30 1812 H 164.97 0.414515 0.614214 0
M  V30 1813 H 167.617 1.57712 1.08624 0
M  V30 1814 H 165.922 1.33854 3.68226 0
M  V30 1815 H 167.619 1.72491 3.62005 0
M  V30 1816 H 164.209 3.03146 3.02986 0
M  V30 1817 H 168.393 4.00692 2.92848 0
M  V30 1818 H 163.649 5.41705 2.83489 0
M  V30 1819 H 167.823 6.40026 2.74481 0
M  V30 1820 H 165.45 7.10895 2.69318 0
M  V30 1821 N 167.025 -1.13721 1.09112 0
M  V30 1822 C 167.957 -2.1871 0.685467 0
M  V30 1823 C 168.97 -1.60527 -0.271068 0
M  V30 1824 O 170.159 -1.78407 -0.0576148 0
M  V30 1825 C 167.259 -3.38898 -0.0111255 0
M  V30 1826 C 166.432 -4.26597 0.966131 0
M  V30 1827 C 165.491 -5.25324 0.303539 0
M  V30 1828 O 164.517 -5.61213 0.950177 0
M  V30 1829 N 165.719 -5.72779 -0.943651 0
M  V30 1830 H 168.484 -2.54126 1.58871 0
M  V30 1831 H 166.045 -1.29012 0.978143 0
M  V30 1832 H 168.037 -4.02014 -0.465517 0
M  V30 1833 H 166.607 -3.01747 -0.816565 0
M  V30 1834 H 165.827 -3.60306 1.59917 0
M  V30 1835 H 167.115 -4.82048 1.6281 0
M  V30 1836 H 166.513 -5.45762 -1.48862 0
M  V30 1837 H 165.07 -6.37847 -1.34142 0
M  V30 1838 N 168.503 -0.877838 -1.30888 0
M  V30 1839 C 169.75 -0.492696 -1.96415 0
M  V30 1840 C 170.078 0.956671 -1.69346 0
M  V30 1841 O 169.333 1.68993 -0.986913 0
M  V30 1842 C 169.632 -0.705748 -3.50363 0
M  V30 1843 C 169.298 -2.1291 -3.97467 0
M  V30 1844 C 167.96 -2.51834 -4.1004 0
M  V30 1845 C 170.312 -3.05702 -4.22132 0
M  V30 1846 C 167.64 -3.82775 -4.44635 0
M  V30 1847 C 169.992 -4.36166 -4.58194 0
M  V30 1848 C 168.656 -4.74993 -4.68975 0
M  V30 1849 H 167.926 -0.18029 -0.718733 0
M  V30 1850 H 170.573 -1.11233 -1.55883 0
M  V30 1851 H 168.878 -0.00303058 -3.918 0
M  V30 1852 H 170.575 -0.387456 -3.99124 0
M  V30 1853 H 167.165 -1.81694 -3.88182 0
M  V30 1854 H 171.349 -2.76853 -4.11906 0
M  V30 1855 H 166.605 -4.12609 -4.51181 0
M  V30 1856 H 170.779 -5.08111 -4.76231 0
M  V30 1857 H 168.406 -5.76495 -4.95537 0
M  V30 1858 N 169.982 1.44106 -0.638065 0
M  V30 1859 C 171.393 1.85316 -0.226894 0
M  V30 1860 C 171.744 1.53399 1.22324 0
M  V30 1861 O 170.869 0.975463 1.93167 0
M  V30 1862 C 171.464 3.3637 -0.405013 0
M  V30 1863 C 170.023 3.76369 -0.0482902 0
M  V30 1864 C 169.17 2.67921 -0.715108 0
M  V30 1865 H 172.121 1.34474 -0.842764 0
M  V30 1866 H 172.142 3.7885 0.354 0
M  V30 1867 H 171.654 3.59569 -1.46053 0
M  V30 1868 H 169.755 3.58784 1.00522 0
M  V30 1869 H 169.868 4.76856 -0.463187 0
M  V30 1870 H 168.232 2.54259 -0.149753 0
M  V30 1871 H 169.015 2.93951 -1.77335 0
M  V30 1872 N 171.46 0.379036 1.52974 0
M  V30 1873 C 172.408 -0.476033 2.27677 0
M  V30 1874 C 173.402 -1.0719 1.31174 0
M  V30 1875 O 174.608 -1.01355 1.48752 0
M  V30 1876 H 170.983 -0.172255 0.732006 0
M  V30 1877 H 172.954 0.175615 2.97883 0
M  V30 1878 C 171.703 -1.5967 3.0887 0
M  V30 1879 H 171.026 -1.1475 3.82978 0
M  V30 1880 H 172.466 -2.16943 3.64296 0
M  V30 1881 C 170.925 -2.54682 2.20542 0
M  V30 1882 O 171.455 -3.57836 1.82527 0
M  V30 1883 N 169.661 -2.24183 1.84907 0
M  V30 1884 H 169.208 -1.40333 2.1602 0
M  V30 1885 H 169.166 -2.88006 1.26096 0
M  V30 1886 N 172.938 -1.57226 0.108567 0
M  V30 1887 C 174.186 -1.94448 -0.550853 0
M  V30 1888 C 174.507 -0.992074 -1.67878 0
M  V30 1889 O 173.777 -0.0465 -1.95845 0
M  V30 1890 H 172.357 -0.717897 -0.206479 0
M  V30 1891 H 175.019 -1.94112 0.175062 0
M  V30 1892 H 174.115 -2.97218 -0.952259 0
M  V30 1893 N 174.416 0.165178 -1.56732 0
M  V30 1894 C 175.349 1.23336 -1.91998 0
M  V30 1895 C 176.327 1.42476 -0.783531 0
M  V30 1896 O 177.511 1.57384 -1.03743 0
M  V30 1897 C 174.638 2.59533 -2.17625 0
M  V30 1898 C 173.684 2.57093 -3.40302 0
M  V30 1899 S 174.517 2.05571 -4.9447 0
M  V30 1900 C 175.673 3.43532 -5.23198 0
M  V30 1901 H 175.906 0.932387 -2.82301 0
M  V30 1902 H 173.439 0.370013 -1.49901 0
M  V30 1903 H 175.397 3.37918 -2.3307 0
M  V30 1904 H 174.058 2.86827 -1.28019 0
M  V30 1905 H 173.251 3.57308 -3.55453 0
M  V30 1906 H 172.853 1.86806 -3.24005 0
M  V30 1907 H 175.145 4.39559 -5.15552 0
M  V30 1908 H 176.088 3.33251 -6.2478 0
M  V30 1909 H 176.496 3.39828 -4.50752 0
M  V30 1910 N 175.894 1.51508 0.433938 0
M  V30 1911 C 177.171 1.54888 1.19453 0
M  V30 1912 C 177.551 0.315154 2.08734 0
M  V30 1913 O 176.899 -0.699558 2.17528 0
M  V30 1914 C 177.109 2.86467 1.99342 0
M  V30 1915 C 178.457 3.38545 2.56267 0
M  V30 1916 O 179.481 2.88041 2.0955 0
M  V30 1917 O 178.34 4.26675 3.41483 0
M  V30 1918 H 175.434 0.622863 0.544032 0
M  V30 1919 H 177.98 1.63823 0.442732 0
M  V30 1920 H 176.752 3.67718 1.33788 0
M  V30 1921 H 176.375 2.8071 2.8158 0
M  V30 1922 N 177.372 -0.689602 1.41712 0
M  V30 1923 C 178.319 -1.80345 1.44029 0
M  V30 1924 C 179.289 -1.63478 0.293948 0
M  V30 1925 O 180.474 -1.84244 0.495869 0
M  V30 1926 C 177.614 -3.18272 1.33405 0
M  V30 1927 C 176.727 -3.46529 2.57956 0
M  V30 1928 C 175.862 -4.74103 2.39582 0
M  V30 1929 C 174.901 -4.95347 3.5958 0
M  V30 1930 N 174.038 -6.14151 3.40239 0
M  V30 1931 H 178.878 -1.77698 2.39222 0
M  V30 1932 H 176.415 -0.867688 1.18784 0
M  V30 1933 H 178.373 -3.97956 1.25246 0
M  V30 1934 H 177.003 -3.2008 0.418164 0
M  V30 1935 H 176.055 -2.61207 2.76542 0
M  V30 1936 H 177.367 -3.58126 3.47199 0
M  V30 1937 H 176.521 -5.61853 2.28924 0
M  V30 1938 H 175.26 -4.64763 1.47805 0
M  V30 1939 H 174.265 -4.06044 3.70686 0
M  V30 1940 H 175.49 -5.06542 4.52318 0
M  V30 1941 H 173.436 -6.06013 2.51167 0
M  V30 1942 H 173.353 -6.26543 4.23061 0
M  V30 1943 H 174.621 -7.04619 3.33365 0
M  V30 1944 N 178.85 -1.27639 -0.924453 0
M  V30 1945 C 179.78 -1.13166 -2.04244 0
M  V30 1946 C 180.761 -0.032256 -1.70069 0
M  V30 1947 O 181.946 -0.207328 -1.9309 0
M  V30 1948 C 179.076 -0.781496 -3.38393 0
M  V30 1949 C 178.03 -1.83449 -3.86692 0
M  V30 1950 C 177.356 -1.33822 -5.17683 0
M  V30 1951 C 178.656 -3.23917 -4.09726 0
M  V30 1952 H 180.35 -2.06689 -2.1661 0
M  V30 1953 H 177.896 -0.995136 -1.04082 0
M  V30 1954 H 179.849 -0.667057 -4.16087 0
M  V30 1955 H 178.573 0.189439 -3.2605 0
M  V30 1956 H 177.232 -1.93789 -3.11193 0
M  V30 1957 H 176.88 -0.35665 -5.01734 0
M  V30 1958 H 176.58 -2.04224 -5.50968 0
M  V30 1959 H 178.104 -1.23679 -5.97943 0
M  V30 1960 H 179.518 -3.16559 -4.77978 0
M  V30 1961 H 177.915 -3.92059 -4.54324 0
M  V30 1962 H 178.985 -3.68729 -3.14908 0
M  V30 1963 N 180.328 1.1314 -1.09713 0
M  V30 1964 C 181.605 1.80762 -0.747302 0
M  V30 1965 C 181.985 1.96663 0.767265 0
M  V30 1966 O 181.333 1.53706 1.69076 0
M  V30 1967 C 181.543 3.15606 -1.48975 0
M  V30 1968 C 182.891 3.90914 -1.65746 0
M  V30 1969 O 183.915 3.25239 -1.45251 0
M  V30 1970 O 182.774 5.08718 -1.9967 0
M  V30 1971 H 179.868 0.782103 -0.268782 0
M  V30 1972 H 182.414 1.20041 -1.19951 0
M  V30 1973 H 181.186 2.99278 -2.52088 0
M  V30 1974 H 180.809 3.84029 -1.02991 0
M  V30 1975 N 181.806 0.884767 1.30421 0
M  V30 1976 C 182.753 0.349642 2.28136 0
M  V30 1977 C 183.723 -0.560061 1.56373 0
M  V30 1978 O 184.908 -0.488524 1.8444 0
M  V30 1979 C 182.048 -0.42999 3.42411 0
M  V30 1980 C 181.161 0.508907 4.28992 0
M  V30 1981 C 180.296 -0.286301 5.30428 0
M  V30 1982 C 179.335 0.648079 6.08659 0
M  V30 1983 N 178.472 -0.111792 7.02011 0
M  V30 1984 H 183.312 1.18807 2.73293 0
M  V30 1985 H 180.849 0.597231 1.3443 0
M  V30 1986 H 182.807 -0.897923 4.07423 0
M  V30 1987 H 181.437 -1.23299 2.98324 0
M  V30 1988 H 180.489 1.09533 3.64289 0
M  V30 1989 H 181.801 1.22475 4.8353 0
M  V30 1990 H 180.955 -0.816098 6.01186 0
M  V30 1991 H 179.694 -1.03536 4.76583 0
M  V30 1992 H 178.699 1.18951 5.36778 0
M  V30 1993 H 179.924 1.39623 6.64592 0
M  V30 1994 H 177.87 -0.843395 6.50556 0
M  V30 1995 H 177.787 0.544429 7.54037 0
M  V30 1996 H 179.055 -0.622339 7.77012 0
M  V30 1997 N 183.284 -1.43765 0.645699 0
M  V30 1998 C 184.53 -2.02197 0.156271 0
M  V30 1999 C 184.863 -1.50776 -1.22393 0
M  V30 2000 O 184.138 -0.697771 -1.81553 0
M  V30 2001 C 184.421 -3.59749 0.158872 0
M  V30 2002 C 184.274 -4.21419 1.57245 0
M  V30 2003 C 185.593 -4.37149 -0.50879 0
M  V30 2004 H 182.712 -0.734694 0.0582602 0
M  V30 2005 H 185.354 -1.71157 0.824951 0
M  V30 2006 H 183.504 -3.86325 -0.410525 0
M  V30 2007 H 185.176 -4.059 2.19186 0
M  V30 2008 H 183.419 -3.78356 2.122 0
M  V30 2009 H 184.09 -5.30482 1.52619 0
M  V30 2010 H 186.566 -4.16093 -0.024412 0
M  V30 2011 H 185.442 -5.4683 -0.476213 0
M  V30 2012 H 185.703 -4.12839 -1.58165 0
M  V30 2013 N 184.763 -0.387143 -1.52771 0
M  V30 2014 C 186.012 0.19697 -2.00736 0
M  V30 2015 C 186.325 1.48082 -1.27793 0
M  V30 2016 O 187.531 2.14485 -1.66458 0
M  V30 2017 C 185.987 0.401568 -3.57653 0
M  V30 2018 C 185.595 -0.868907 -4.39493 0
M  V30 2019 C 187.339 0.942164 -4.13912 0
M  V30 2020 C 185.246 -0.632705 -5.88006 0
M  V30 2021 H 184.176 0.0773827 -0.750019 0
M  V30 2022 H 186.827 -0.50921 -1.76293 0
M  V30 2023 H 185.209 1.16954 -3.78335 0
M  V30 2024 H 186.383 -1.64133 -4.30577 0
M  V30 2025 H 184.698 -1.33429 -3.94443 0
M  V30 2026 H 187.295 1.13455 -5.22525 0
M  V30 2027 H 187.638 1.9106 -3.69867 0
M  V30 2028 H 188.171 0.233814 -3.97112 0
M  V30 2029 H 184.91 -1.57208 -6.36369 0
M  V30 2030 H 184.43 0.100825 -5.99715 0
M  V30 2031 H 186.109 -0.26642 -6.46451 0
M  V30 2032 N 186.241 1.57166 -0.116904 0
M  V30 2033 C 187.151 2.18745 0.847812 0
M  V30 2034 C 188.167 1.163 1.29423 0
M  V30 2035 O 189.343 1.48761 1.35765 0
M  V30 2036 C 186.408 2.77307 2.0809 0
M  V30 2037 C 185.469 3.94781 1.68661 0
M  V30 2038 C 184.702 4.50541 2.86091 0
M  V30 2039 O 184.925 4.05202 4.01456 0
M  V30 2040 O 183.859 5.41256 2.63298 0
M  V30 2041 H 187.685 3.01632 0.353778 0
M  V30 2042 H 185.27 1.49005 0.108599 0
M  V30 2043 H 187.152 3.14647 2.80313 0
M  V30 2044 H 185.827 1.97452 2.56504 0
M  V30 2045 H 184.734 3.62214 0.935518 0
M  V30 2046 H 186.067 4.76065 1.24991 0
M  V30 2047 N 187.719 -0.156864 1.56817 0
M  V30 2048 C 188.666 -1.19394 1.97519 0
M  V30 2049 C 189.636 -1.4322 0.841265 0
M  V30 2050 O 190.821 -1.55719 1.10255 0
M  V30 2051 C 187.961 -2.52483 2.35258 0
M  V30 2052 C 187.074 -2.35914 3.61896 0
M  V30 2053 C 186.209 -3.61969 3.88782 0
M  V30 2054 C 185.248 -3.40395 5.08722 0
M  V30 2055 N 184.385 -4.58556 5.31668 0
M  V30 2056 H 189.225 -0.839845 2.85921 0
M  V30 2057 H 186.762 -0.403264 1.41464 0
M  V30 2058 H 188.72 -3.30071 2.55165 0
M  V30 2059 H 187.35 -2.85859 1.49949 0
M  V30 2060 H 186.402 -1.49429 3.49821 0
M  V30 2061 H 187.714 -2.15926 4.49641 0
M  V30 2062 H 186.868 -4.47989 4.09135 0
M  V30 2063 H 185.607 -3.84951 2.9944 0
M  V30 2064 H 184.612 -2.52763 4.88253 0
M  V30 2065 H 185.837 -3.18822 5.99608 0
M  V30 2066 H 183.783 -4.81729 4.45279 0
M  V30 2067 H 183.7 -4.41535 6.13664 0
M  V30 2068 H 184.968 -5.45817 5.5651 0
M  V30 2069 N 189.197 -1.51736 -0.425897 0
M  V30 2070 C 190.443 -1.65214 -1.1761 0
M  V30 2071 C 190.776 -0.372778 -1.90589 0
M  V30 2072 O 190.051 0.628139 -1.84078 0
M  V30 2073 C 190.334 -2.86312 -2.18398 0
M  V30 2074 C 190.187 -4.24254 -1.49426 0
M  V30 2075 C 191.506 -3.02925 -3.19256 0
M  V30 2076 H 188.625 -0.601263 -0.426206 0
M  V30 2077 H 191.267 -1.8425 -0.463882 0
M  V30 2078 H 189.417 -2.70213 -2.79137 0
M  V30 2079 H 191.089 -4.52046 -0.919362 0
M  V30 2080 H 189.332 -4.26426 -0.796432 0
M  V30 2081 H 190.003 -5.05001 -2.22885 0
M  V30 2082 H 192.479 -3.1781 -2.68581 0
M  V30 2083 H 191.355 -3.89199 -3.8706 0
M  V30 2084 H 191.616 -2.15497 -3.86023 0
M  V30 2085 N 190.675 0.682077 -1.42076 0
M  V30 2086 C 191.923 1.4393 -1.41876 0
M  V30 2087 C 192.244 1.94971 -0.0335599 0
M  V30 2088 O 191.514 1.72591 0.926773 0
M  V30 2089 H 190.094 0.534085 -0.522267 0
M  V30 2090 H 192.756 0.806427 -1.77434 0
M  V30 2091 H 191.852 2.29588 -2.11414 0
M  V30 2092 N 192.153 1.28127 0.917671 0
M  V30 2093 C 193.116 1.11744 2.00115 0
M  V30 2094 C 194.116 0.0583052 1.60694 0
M  V30 2095 O 195.306 0.303755 1.71531 0
M  V30 2096 C 192.438 0.704862 3.33533 0
M  V30 2097 H 193.631 2.07966 2.16079 0
M  V30 2098 H 191.184 1.11058 1.09981 0
M  V30 2099 H 191.919 -0.258299 3.2327 0
M  V30 2100 H 191.704 1.4699 3.63505 0
M  V30 2101 H 193.194 0.612768 4.1308 0
M  V30 2102 N 193.631 -1.12557 1.10312 0
M  V30 2103 C 194.578 -2.18247 0.750781 0
M  V30 2104 C 195.548 -1.63853 -0.272293 0
M  V30 2105 O 196.733 -1.90195 -0.151862 0
M  V30 2106 C 193.873 -3.44591 0.187379 0
M  V30 2107 C 192.986 -4.13046 1.2656 0
M  V30 2108 C 192.121 -5.27034 0.663978 0
M  V30 2109 C 191.16 -5.87353 1.72287 0
M  V30 2110 N 190.297 -6.92757 1.1416 0
M  V30 2111 H 195.137 -2.47732 1.65628 0
M  V30 2112 H 192.674 -1.21629 0.827337 0
M  V30 2113 H 194.632 -4.16904 -0.157148 0
M  V30 2114 H 193.262 -3.15527 -0.681355 0
M  V30 2115 H 192.314 -3.38924 1.72727 0
M  V30 2116 H 193.626 -4.53947 2.06721 0
M  V30 2117 H 192.78 -6.06104 0.268824 0
M  V30 2118 H 191.519 -4.87407 -0.169082 0
M  V30 2119 H 190.524 -5.06971 2.12746 0
M  V30 2120 H 191.749 -6.29051 2.55875 0
M  V30 2121 H 189.695 -6.5517 0.329984 0
M  V30 2122 H 189.612 -7.3225 1.88007 0
M  V30 2123 H 190.88 -7.75658 0.772956 0
M  V30 2124 N 195.109 -0.891671 -1.2995 0
M  V30 2125 C 196.358 -0.509521 -1.95158 0
M  V30 2126 C 196.671 0.947388 -1.71125 0
M  V30 2127 O 197.877 1.43669 -2.30372 0
M  V30 2128 C 196.333 -0.860315 -3.49466 0
M  V30 2129 C 195.941 -2.33545 -3.8231 0
M  V30 2130 C 197.685 -0.547687 -4.20952 0
M  V30 2131 C 195.592 -2.62752 -5.29826 0
M  V30 2132 H 194.522 -0.18682 -0.730489 0
M  V30 2133 H 197.173 -1.08756 -1.47798 0
M  V30 2134 H 195.555 -0.211285 -3.95436 0
M  V30 2135 H 196.729 -3.02936 -3.47227 0
M  V30 2136 H 195.044 -2.61629 -3.23944 0
M  V30 2137 H 197.641 -0.742854 -5.29515 0
M  V30 2138 H 197.984 0.51332 -4.13123 0
M  V30 2139 H 198.517 -1.1542 -3.80688 0
M  V30 2140 H 195.256 -3.6762 -5.42712 0
M  V30 2141 H 194.776 -1.97977 -5.66185 0
M  V30 2142 H 196.455 -2.48601 -5.97333 0
M  V30 2143 N 196.587 1.43421 -0.653314 0
M  V30 2144 C 197.519 2.29071 0.0769134 0
M  V30 2145 C 198.532 1.42513 0.787017 0
M  V30 2146 O 199.721 1.66449 0.644757 0
M  V30 2147 C 196.821 3.19436 1.13199 0
M  V30 2148 C 195.994 4.34533 0.500006 0
M  V30 2149 C 195.053 5.05771 1.45198 0
M  V30 2150 O 194.079 5.61037 0.960538 0
M  V30 2151 N 195.281 5.0928 2.78594 0
M  V30 2152 H 198.046 2.92382 -0.658235 0
M  V30 2153 H 195.607 1.54112 -0.496104 0
M  V30 2154 H 197.599 3.63958 1.76964 0
M  V30 2155 H 196.169 2.57724 1.7691 0
M  V30 2156 H 195.389 3.92925 -0.316738 0
M  V30 2157 H 196.677 5.08766 0.0588345 0
M  V30 2158 H 196.075 4.65751 3.2108 0
M  V30 2159 H 194.632 5.57519 3.37662 0
M  V30 2160 N 198.065 0.39524 1.52563 0
M  V30 2161 C 199.314 -0.186321 2.00838 0
M  V30 2162 C 199.627 -1.47402 1.28577 0
M  V30 2163 O 200.833 -2.13599 1.67593 0
M  V30 2164 C 199.289 -0.382595 3.57861 0
M  V30 2165 C 198.897 0.892202 4.39026 0
M  V30 2166 C 200.641 -0.9202 4.14406 0
M  V30 2167 C 198.548 0.66388 5.87662 0
M  V30 2168 H 197.478 -0.0734041 0.750418 0
M  V30 2169 H 200.129 0.518552 1.76021 0
M  V30 2170 H 198.511 -1.14946 3.7895 0
M  V30 2171 H 199.685 1.66414 4.29701 0
M  V30 2172 H 198 1.35519 3.9373 0
M  V30 2173 H 200.597 -1.10683 5.23119 0
M  V30 2174 H 200.94 -1.89096 3.70875 0
M  V30 2175 H 201.473 -0.212751 3.97231 0
M  V30 2176 H 198.212 1.6058 6.35527 0
M  V30 2177 H 197.732 -0.0690193 5.9976 0
M  V30 2178 H 199.411 0.300699 6.46301 0
M  V30 2179 N 199.544 -1.57102 0.125237 0
M  V30 2180 C 200.96 -1.57915 -0.231322 0
M  V30 2181 C 201.16 -1.13833 -1.66266 0
M  V30 2182 O 200.216 -0.828581 -2.38518 0
M  V30 2183 C 201.529 -3.00699 0.00766489 0
M  V30 2184 C 203.077 -3.12947 -0.0577483 0
M  V30 2185 C 203.552 -4.57742 0.153626 0
M  V30 2186 N 205.043 -4.63092 0.0998073 0
M  V30 2187 C 205.778 -5.72905 0.238174 0
M  V30 2188 N 205.274 -6.91445 0.433057 0
M  V30 2189 N 207.067 -5.6182 0.177308 0
M  V30 2190 H 199.218 -1.84055 1.06007 0
M  V30 2191 H 201.481 -0.850905 0.417929 0
M  V30 2192 H 201.187 -3.3726 0.997431 0
M  V30 2193 H 201.061 -3.70236 -0.721452 0
M  V30 2194 H 203.448 -2.7624 -1.03804 0
M  V30 2195 H 203.529 -2.4594 0.70335 0
M  V30 2196 H 203.173 -4.95149 1.13092 0
M  V30 2197 H 203.103 -5.22848 -0.627534 0
M  V30 2198 H 205.594 -3.77871 -0.047051 0
M  V30 2199 H 205.907 -7.70985 0.529332 0
M  V30 2200 H 204.252 -6.93415 0.469109 0
M  V30 2201 H 207.443 -4.68093 0.0259748 0
M  V30 2202 H 207.616 -6.47357 0.288582 0
M  V30 2203 N 201.022 0.148545 -1.56898 0
M  V30 2204 C 201.954 1.20852 -1.9475 0
M  V30 2205 C 202.967 1.39265 -0.843152 0
M  V30 2206 O 204.156 1.38864 -1.12156 0
M  V30 2207 C 201.256 2.57362 -2.20495 0
M  V30 2208 C 200.429 2.59947 -3.51776 0
M  V30 2209 C 199.488 3.77984 -3.6608 0
M  V30 2210 O 198.514 3.62929 -4.38487 0
M  V30 2211 N 199.716 4.95375 -3.02629 0
M  V30 2212 H 202.481 0.886804 -2.86279 0
M  V30 2213 H 200.042 0.338121 -1.5833 0
M  V30 2214 H 202.034 3.34833 -2.27307 0
M  V30 2215 H 200.604 2.81832 -1.35238 0
M  V30 2216 H 199.824 1.68403 -3.56419 0
M  V30 2217 H 201.112 2.58704 -4.38121 0
M  V30 2218 H 200.51 5.10509 -2.43715 0
M  V30 2219 H 199.067 5.70627 -3.15004 0
M  V30 2220 N 202.5 1.5196 0.417844 0
M  V30 2221 C 203.747 1.65591 1.16559 0
M  V30 2222 C 204.075 0.381565 1.90721 0
M  V30 2223 O 203.33 -0.635156 1.85106 0
M  V30 2224 C 203.629 2.82269 2.19223 0
M  V30 2225 C 203.295 4.20819 1.61933 0
M  V30 2226 C 201.957 4.58506 1.46033 0
M  V30 2227 C 204.309 5.07196 1.20008 0
M  V30 2228 C 201.637 5.80257 0.867113 0
M  V30 2229 C 203.989 6.29544 0.621086 0
M  V30 2230 C 202.653 6.65987 0.449144 0
M  V30 2231 H 201.923 0.605939 0.42652 0
M  V30 2232 H 204.57 1.86041 0.45397 0
M  V30 2233 H 202.875 2.56118 2.96498 0
M  V30 2234 H 204.572 2.90012 2.76936 0
M  V30 2235 H 201.162 3.91116 1.7529 0
M  V30 2236 H 205.346 4.7867 1.31105 0
M  V30 2237 H 200.602 6.07124 0.721833 0
M  V30 2238 H 204.776 6.95805 0.287798 0
M  V30 2239 H 202.403 7.60199 -0.012632 0
M  V30 2240 N 203.978 -0.674533 1.42435 0
M  V30 2241 C 205.389 -1.25514 1.38214 0
M  V30 2242 C 205.74 -1.96055 0.0755464 0
M  V30 2243 O 204.865 -2.00028 -0.8257 0
M  V30 2244 C 205.46 -2.28269 2.50357 0
M  V30 2245 C 204.019 -2.81856 2.49467 0
M  V30 2246 C 203.166 -1.56182 2.29134 0
M  V30 2247 H 206.117 -0.467902 1.51646 0
M  V30 2248 H 206.138 -3.10009 2.20624 0
M  V30 2249 H 205.65 -1.769 3.45439 0
M  V30 2250 H 203.751 -3.37346 1.58204 0
M  V30 2251 H 203.864 -3.30854 3.46515 0
M  V30 2252 H 202.228 -1.82761 1.774 0
M  V30 2253 H 203.011 -1.06778 3.26272 0
M  V30 2254 N 205.456 -1.28612 -0.910864 0
M  V30 2255 C 206.686 -1.1862 -1.69153 0
M  V30 2256 C 207.094 0.257324 -1.87442 0
M  V30 2257 O 206.437 1.18543 -1.40332 0
M  V30 2258 C 206.499 -1.81606 -3.10257 0
M  V30 2259 C 206.163 -3.30864 -3.15243 0
M  V30 2260 C 207.16 -4.27256 -2.96223 0
M  V30 2261 C 204.845 -3.71871 -3.37664 0
M  V30 2262 C 206.839 -5.62631 -2.99541 0
M  V30 2263 C 204.526 -5.07371 -3.40614 0
M  V30 2264 C 205.524 -6.02561 -3.21573 0
M  V30 2265 O 205.212 -7.35589 -3.2429 0
M  V30 2266 H 204.944 -0.412633 -0.535453 0
M  V30 2267 H 207.498 -1.70306 -1.14827 0
M  V30 2268 H 205.728 -1.24418 -3.66138 0
M  V30 2269 H 207.417 -1.66092 -3.70362 0
M  V30 2270 H 208.183 -3.9691 -2.78725 0
M  V30 2271 H 204.062 -2.98241 -3.5153 0
M  V30 2272 H 207.606 -6.36907 -2.84597 0
M  V30 2273 H 203.503 -5.37366 -3.57642 0
M  V30 2274 H 204.271 -7.44252 -3.40633 0
M  V30 2275 N 206.934 1.1197 -1.10907 0
M  V30 2276 C 208.183 1.82947 -0.849302 0
M  V30 2277 C 208.496 1.85275 0.627112 0
M  V30 2278 O 209.702 2.52296 1.00295 0
M  V30 2279 C 208.158 3.28529 -1.46959 0
M  V30 2280 C 207.766 3.34546 -2.97965 0
M  V30 2281 C 209.51 4.04443 -1.28942 0
M  V30 2282 C 207.417 4.74491 -3.53004 0
M  V30 2283 H 206.347 0.685477 -0.314065 0
M  V30 2284 H 208.998 1.2604 -1.33365 0
M  V30 2285 H 207.38 3.85333 -0.912917 0
M  V30 2286 H 208.554 2.87654 -3.59989 0
M  V30 2287 H 206.869 2.72108 -3.15192 0
M  V30 2288 H 209.466 5.07787 -1.67502 0
M  V30 2289 H 209.809 4.15656 -0.231456 0
M  V30 2290 H 210.342 3.5401 -1.81443 0
M  V30 2291 H 207.081 4.68474 -4.58489 0
M  V30 2292 H 206.601 5.21816 -2.9575 0
M  V30 2293 H 208.28 5.4344 -3.51115 0
M  V30 2294 N 208.412 0.89855 1.29475 0
M  V30 2295 C 209.342 0.39201 2.30186 0
M  V30 2296 C 210.323 -0.532359 1.61555 0
M  V30 2297 O 211.508 -0.443331 1.89072 0
M  V30 2298 C 208.638 -0.382353 3.45189 0
M  V30 2299 C 207.592 0.451483 4.25612 0
M  V30 2300 C 206.918 -0.450307 5.328 0
M  V30 2301 C 208.218 1.70079 4.93832 0
M  V30 2302 H 209.912 1.23362 2.72804 0
M  V30 2303 H 207.458 0.594638 1.31149 0
M  V30 2304 H 209.411 -0.747451 4.14718 0
M  V30 2305 H 208.135 -1.25774 3.01411 0
M  V30 2306 H 206.794 0.798897 3.57789 0
M  V30 2307 H 206.442 -1.32379 4.85268 0
M  V30 2308 H 206.142 0.103902 5.87508 0
M  V30 2309 H 207.666 -0.811623 6.05182 0
M  V30 2310 H 209.08 1.40549 5.55805 0
M  V30 2311 H 207.477 2.19623 5.58467 0
M  V30 2312 H 208.547 2.43744 4.19186 0
M  V30 2313 N 209.89 -1.43072 0.660911 0
M  V30 2314 C 210.822 -2.29108 -0.0647641 0
M  V30 2315 C 211.835 -1.42928 -0.779448 0
M  V30 2316 O 213.024 -1.66788 -0.635921 0
M  V30 2317 C 210.124 -3.20032 -1.11503 0
M  V30 2318 C 209.297 -4.34792 -0.476955 0
M  V30 2319 C 208.356 -5.06534 -1.42513 0
M  V30 2320 O 207.382 -5.61538 -0.930771 0
M  V30 2321 N 208.584 -5.1075 -2.75889 0
M  V30 2322 H 211.349 -2.92029 0.673731 0
M  V30 2323 H 208.91 -1.53846 0.50427 0
M  V30 2324 H 210.902 -3.64892 -1.75032 0
M  V30 2325 H 209.472 -2.58658 -1.75541 0
M  V30 2326 H 208.692 -3.92752 0.337572 0
M  V30 2327 H 209.98 -5.0879 -0.0318525 0
M  V30 2328 H 209.378 -4.67447 -3.18606 0
M  V30 2329 H 207.935 -5.59302 -3.347 0
M  V30 2330 N 211.368 -0.403325 -1.52352 0
M  V30 2331 C 212.614 0.174605 -2.02047 0
M  V30 2332 C 212.947 1.45282 -1.28867 0
M  V30 2333 O 212.222 1.90483 -0.393257 0
M  V30 2334 C 212.505 0.428238 -3.57545 0
M  V30 2335 C 212.358 -0.866248 -4.4138 0
M  V30 2336 C 213.677 1.21287 -4.23057 0
M  V30 2337 H 210.796 0.0619851 -0.734389 0
M  V30 2338 H 213.438 -0.53565 -1.82293 0
M  V30 2339 H 211.588 1.03327 -3.74507 0
M  V30 2340 H 213.26 -1.50265 -4.3614 0
M  V30 2341 H 211.503 -1.47851 -4.07827 0
M  V30 2342 H 212.174 -0.643249 -5.48239 0
M  V30 2343 H 214.65 0.700703 -4.10158 0
M  V30 2344 H 213.526 1.35909 -5.31808 0
M  V30 2345 H 213.787 2.23193 -3.81625 0
M  V30 2346 N 212.846 1.57033 -0.133567 0
M  V30 2347 C 213.776 2.1909 0.807567 0
M  V30 2348 C 214.757 1.13517 1.26681 0
M  V30 2349 O 215.942 1.41809 1.32679 0
M  V30 2350 C 213.072 2.80188 2.05212 0
M  V30 2351 C 212.026 3.91471 1.73015 0
M  V30 2352 C 211.352 4.39443 3.04622 0
M  V30 2353 C 212.652 5.12886 0.987168 0
M  V30 2354 H 214.346 2.97988 0.290403 0
M  V30 2355 H 211.892 1.43335 0.138239 0
M  V30 2356 H 213.845 3.22264 2.71521 0
M  V30 2357 H 212.569 1.98601 2.59278 0
M  V30 2358 H 211.228 3.49993 1.0909 0
M  V30 2359 H 210.876 3.54695 3.56651 0
M  V30 2360 H 210.576 5.14495 2.83847 0
M  V30 2361 H 212.1 4.8418 3.72024 0
M  V30 2362 H 213.514 5.51891 1.55208 0
M  V30 2363 H 211.911 5.93615 0.87985 0
M  V30 2364 H 212.981 4.84894 -0.0235286 0
M  V30 2365 N 214.325 -0.140222 1.56975 0
M  V30 2366 C 215.255 -1.17456 2.01808 0
M  V30 2367 C 216.236 -1.44415 0.898794 0
M  V30 2368 O 217.421 -1.5522 1.16707 0
M  V30 2369 C 214.551 -2.50607 2.40444 0
M  V30 2370 C 213.505 -2.38155 3.55621 0
M  V30 2371 C 212.831 -3.76078 3.80091 0
M  V30 2372 C 214.131 -1.85991 4.88062 0
M  V30 2373 H 215.825 -0.801743 2.88466 0
M  V30 2374 H 213.371 -0.38422 1.38779 0
M  V30 2375 H 215.324 -3.23197 2.7041 0
M  V30 2376 H 214.048 -2.89737 1.50732 0
M  V30 2377 H 212.707 -1.68016 3.25832 0
M  V30 2378 H 212.355 -4.12656 2.87618 0
M  V30 2379 H 212.055 -3.68606 4.57606 0
M  V30 2380 H 213.579 -4.50206 4.12488 0
M  V30 2381 H 214.993 -2.4838 5.16701 0
M  V30 2382 H 213.39 -1.89393 5.6943 0
M  V30 2383 H 214.46 -0.816023 4.77984 0
M  V30 2384 N 215.803 -1.52179 -0.40978 0
M  V30 2385 C 217.031 -1.70054 -1.17853 0
M  V30 2386 C 217.446 -0.409735 -1.843 0
M  V30 2387 O 216.803 0.614183 -1.71855 0
M  V30 2388 C 216.854 -2.83568 -2.24213 0
M  V30 2389 O 216.575 -4.0765 -1.60478 0
M  V30 2390 C 218.076 -3.12947 -3.13973 0
M  V30 2391 H 215.296 -0.569917 -0.354169 0
M  V30 2392 H 217.84 -1.98734 -0.482198 0
M  V30 2393 H 215.995 -2.57409 -2.89516 0
M  V30 2394 H 216.409 -4.70899 -2.30986 0
M  V30 2395 H 217.883 -3.95889 -3.84677 0
M  V30 2396 H 218.36 -2.26472 -3.76307 0
M  V30 2397 H 218.966 -3.40868 -2.5434 0
M  V30 2398 N 217.281 0.66697 -1.42791 0
M  V30 2399 C 218.244 1.76211 -1.46568 0
M  V30 2400 C 219.244 1.56896 -0.352196 0
M  V30 2401 O 220.434 1.63044 -0.613364 0
M  V30 2402 C 217.566 3.14935 -1.30494 0
M  V30 2403 H 218.759 1.74247 -2.44086 0
M  V30 2404 H 216.312 0.877342 -1.29354 0
M  V30 2405 H 217.047 3.2252 -0.339301 0
M  V30 2406 H 216.832 3.30359 -2.11199 0
M  V30 2407 H 218.322 3.94821 -1.36038 0
M  V30 2408 N 218.759 1.29093 0.90403 0
M  V30 2409 C 220.036 1.075 1.63411 0
M  V30 2410 C 220.416 -0.382346 2.07609 0
M  V30 2411 O 219.764 -1.37031 1.82851 0
M  V30 2412 C 219.974 2.05858 2.81822 0
M  V30 2413 C 221.322 2.36539 3.52611 0
M  V30 2414 O 222.346 2.04019 2.91984 0
M  V30 2415 O 221.205 2.92085 4.61897 0
M  V30 2416 H 218.299 0.411547 0.717327 0
M  V30 2417 H 220.845 1.40449 0.952479 0
M  V30 2418 H 219.617 3.04037 2.46327 0
M  V30 2419 H 219.24 1.73613 3.57693 0
M  V30 2420 N 220.237 -1.11381 1.11499 0
M  V30 2421 C 221.185 -2.19522 0.768956 0
M  V30 2422 C 222.179 -1.67693 -0.239857 0
M  V30 2423 O 223.385 -1.79727 -0.0990755 0
M  V30 2424 H 219.76 -0.715711 0.230786 0
M  V30 2425 H 221.731 -2.45954 1.68964 0
M  V30 2426 C 220.48 -3.46945 0.229073 0
M  V30 2427 H 219.803 -3.8718 0.996596 0
M  V30 2428 H 221.243 -4.23993 0.0251441 0
M  V30 2429 C 219.702 -3.2042 -1.04079 0
M  V30 2430 O 220.232 -3.41178 -2.12038 0
M  V30 2431 N 218.438 -2.74151 -0.963823 0
M  V30 2432 H 217.985 -2.57459 -0.0851722 0
M  V30 2433 H 217.943 -2.56781 -1.81414 0
M  V30 2434 N 221.715 -0.905404 -1.28997 0
M  V30 2435 C 222.663 -0.377431 -2.29517 0
M  V30 2436 C 223.657 0.526461 -1.61012 0
M  V30 2437 O 224.863 0.40863 -1.753 0
M  V30 2438 H 221.238 -0.103437 -0.744852 0
M  V30 2439 H 223.209 -1.23848 -2.71485 0
M  V30 2440 C 221.958 0.374833 -3.45674 0
M  V30 2441 H 221.281 -0.311474 -3.98585 0
M  V30 2442 H 222.721 0.70903 -4.1803 0
M  V30 2443 C 221.18 1.57963 -2.97572 0
M  V30 2444 O 221.71 2.67886 -2.99333 0
M  V30 2445 N 219.916 1.42375 -2.53333 0
M  V30 2446 H 219.463 0.529466 -2.521 0
M  V30 2447 H 219.421 2.23117 -2.21509 0
M  V30 2448 N 223.193 1.4272 -0.668489 0
M  V30 2449 C 224.141 2.32586 0.0254857 0
M  V30 2450 C 225.135 1.49471 0.797176 0
M  V30 2451 O 226.341 1.65583 0.705853 0
M  V30 2452 H 222.716 0.751514 0.0270339 0
M  V30 2453 H 224.687 2.88823 -0.749936 0
M  V30 2454 C 223.436 3.3397 0.967427 0
M  V30 2455 H 222.759 3.97961 0.383048 0
M  V30 2456 H 224.199 3.9945 1.42181 0
M  V30 2457 C 222.658 2.65744 2.0708 0
M  V30 2458 O 223.188 2.48454 3.15648 0
M  V30 2459 N 221.394 2.2487 1.8407 0
M  V30 2460 H 220.941 2.39132 0.95778 0
M  V30 2461 H 220.899 1.79552 2.58086 0
M  V30 2462 N 224.671 0.411399 1.52136 0
M  V30 2463 C 225.92 -0.165009 2.01024 0
M  V30 2464 C 226.233 -1.4603 1.30133 0
M  V30 2465 O 227.439 -2.1181 1.69849 0
M  V30 2466 C 225.895 -0.344618 3.58246 0
M  V30 2467 C 225.503 0.938716 4.38055 0
M  V30 2468 C 227.247 -0.876195 4.15359 0
M  V30 2469 C 225.154 0.726172 5.86925 0
M  V30 2470 H 224.084 -0.0654407 0.751155 0
M  V30 2471 H 226.735 0.537192 1.75461 0
M  V30 2472 H 225.117 -1.10921 3.80148 0
M  V30 2473 H 226.291 1.70963 4.27912 0
M  V30 2474 H 224.606 1.39688 3.92271 0
M  V30 2475 H 227.203 -1.05128 5.24263 0
M  V30 2476 H 227.546 -1.85152 3.7286 0
M  V30 2477 H 228.079 -0.170607 3.97434 0
M  V30 2478 H 224.818 1.67312 6.33788 0
M  V30 2479 H 224.338 -0.00540283 5.998 0
M  V30 2480 H 226.017 0.369231 6.45946 0
M  V30 2481 N 226.149 -1.5696 0.141893 0
M  V30 2482 C 227.081 -2.13619 -0.830627 0
M  V30 2483 C 228.094 -1.08439 -1.21428 0
M  V30 2484 O 229.283 -1.35734 -1.15925 0
M  V30 2485 C 226.383 -2.63978 -2.12529 0
M  V30 2486 C 225.556 -3.93504 -1.9098 0
M  V30 2487 C 224.615 -4.29225 -3.04388 0
M  V30 2488 O 223.641 -4.97641 -2.76302 0
M  V30 2489 N 224.843 -3.88393 -4.31429 0
M  V30 2490 H 227.608 -2.97691 -0.34641 0
M  V30 2491 H 225.169 -1.61846 -0.0418375 0
M  V30 2492 H 227.161 -2.84891 -2.87436 0
M  V30 2493 H 225.731 -1.84659 -2.52229 0
M  V30 2494 H 224.951 -3.81269 -1.00139 0
M  V30 2495 H 226.239 -4.78154 -1.73914 0
M  V30 2496 H 225.637 -3.33257 -4.57117 0
M  V30 2497 H 224.194 -4.14368 -5.03133 0
M  V30 2498 N 227.627 0.131896 -1.57047 0
M  V30 2499 C 228.557 1.16384 -2.02428 0
M  V30 2500 C 229.538 1.43936 -0.90644 0
M  V30 2501 O 230.723 1.54599 -1.17528 0
M  V30 2502 C 227.853 2.49328 -2.4177 0
M  V30 2503 C 226.807 2.36266 -3.56879 0
M  V30 2504 C 226.133 3.74057 -3.8208 0
M  V30 2505 C 227.433 1.834 -4.89042 0
M  V30 2506 H 229.127 0.786433 -2.88887 0
M  V30 2507 H 226.673 0.376855 -1.38981 0
M  V30 2508 H 228.626 3.21759 -2.7212 0
M  V30 2509 H 227.35 2.88934 -1.52266 0
M  V30 2510 H 226.009 1.66286 -3.26718 0
M  V30 2511 H 225.657 4.11125 -2.89803 0
M  V30 2512 H 225.357 3.66174 -4.59554 0
M  V30 2513 H 226.881 4.48012 -4.1487 0
M  V30 2514 H 228.295 2.45636 -5.18011 0
M  V30 2515 H 226.692 1.8637 -5.70426 0
M  V30 2516 H 227.762 0.790662 -4.7841 0
M  V30 2517 N 229.106 1.52395 0.401703 0
M  V30 2518 C 230.331 1.70972 1.17403 0
M  V30 2519 C 230.756 0.421615 1.83314 0
M  V30 2520 O 230.114 -0.621564 1.70312 0
M  V30 2521 C 230.162 2.85151 2.20728 0
M  V30 2522 O 229.266 2.51238 3.27037 0
M  V30 2523 H 228.607 0.568927 0.342372 0
M  V30 2524 H 231.137 1.99131 0.469891 0
M  V30 2525 H 231.147 3.10279 2.64936 0
M  V30 2526 H 229.822 3.78603 1.7214 0
M  V30 2527 H 228.399 2.36808 2.88057 0
M  V30 2528 N 230.584 -0.659388 1.43143 0
M  V30 2529 C 231.531 -1.77249 1.47822 0
M  V30 2530 C 232.501 -1.62818 0.328558 0
M  V30 2531 O 233.686 -1.83151 0.534838 0
M  V30 2532 C 230.826 -3.15371 1.40126 0
M  V30 2533 C 229.939 -3.4098 2.65249 0
M  V30 2534 C 229.074 -4.68915 2.49584 0
M  V30 2535 C 228.113 -4.87608 3.70006 0
M  V30 2536 N 227.25 -6.06796 3.53189 0
M  V30 2537 H 232.09 -1.72584 2.42938 0
M  V30 2538 H 229.627 -0.842297 1.20598 0
M  V30 2539 H 231.585 -3.9521 1.33659 0
M  V30 2540 H 230.215 -3.19121 0.485964 0
M  V30 2541 H 229.267 -2.55282 2.8202 0
M  V30 2542 H 230.579 -3.50681 3.54717 0
M  V30 2543 H 229.733 -5.56871 2.4079 0
M  V30 2544 H 228.472 -4.61524 1.5763 0
M  V30 2545 H 227.477 -3.9809 3.79215 0
M  V30 2546 H 228.702 -4.96834 4.62961 0
M  V30 2547 H 226.648 -6.00549 2.63965 0
M  V30 2548 H 226.565 -6.17428 4.36255 0
M  V30 2549 H 227.833 -6.9739 3.48236 0
M  V30 2550 N 232.062 -1.29571 -0.897171 0
M  V30 2551 C 233.339 -1.08365 -1.62839 0
M  V30 2552 C 233.719 0.371331 -2.07808 0
M  V30 2553 O 233.067 1.3606 -1.83576 0
M  V30 2554 C 233.277 -2.0735 -2.80726 0
M  V30 2555 C 234.625 -2.38406 -3.51351 0
M  V30 2556 O 235.649 -2.05564 -2.90898 0
M  V30 2557 O 234.508 -2.9453 -4.60341 0
M  V30 2558 H 231.602 -0.415345 -0.715134 0
M  V30 2559 H 234.148 -1.40952 -0.945018 0
M  V30 2560 H 232.92 -3.05339 -2.44711 0
M  V30 2561 H 232.543 -1.75507 -3.56767 0
M  V30 2562 N 233.54 1.10788 -1.12088 0
M  V30 2563 C 234.817 1.79136 -0.785476 0
M  V30 2564 C 235.197 1.98246 0.725377 0
M  V30 2565 O 234.545 1.57258 1.65778 0
M  V30 2566 C 234.755 3.12375 -1.55636 0
M  V30 2567 C 236.103 3.8731 -1.74001 0
M  V30 2568 O 237.127 3.22085 -1.52117 0
M  V30 2569 O 235.986 5.04369 -2.10415 0
M  V30 2570 H 233.08 0.776226 -0.285311 0
M  V30 2571 H 235.626 1.1747 -1.2247 0
M  V30 2572 H 234.398 2.93863 -2.5838 0
M  V30 2573 H 234.021 3.81758 -1.11114 0
M  V30 2574 N 235.018 0.912232 1.28515 0
M  V30 2575 C 236.267 0.540504 1.94323 0
M  V30 2576 C 236.58 -0.920044 1.72611 0
M  V30 2577 O 237.786 -1.39986 2.32629 0
M  V30 2578 C 236.242 0.915803 3.48053 0
M  V30 2579 C 235.85 2.39598 3.78546 0
M  V30 2580 C 237.594 0.614588 4.20027 0
M  V30 2581 C 235.501 2.71148 5.25578 0
M  V30 2582 H 234.431 0.198418 0.727424 0
M  V30 2583 H 237.082 1.11094 1.46049 0
M  V30 2584 H 235.464 0.274168 3.9505 0
M  V30 2585 H 236.638 3.08422 3.42364 0
M  V30 2586 H 234.953 2.66749 3.1974 0
M  V30 2587 H 237.55 0.827002 5.28266 0
M  V30 2588 H 237.893 -0.447531 4.13887 0
M  V30 2589 H 238.426 1.21462 3.78803 0
M  V30 2590 H 235.165 3.76207 5.36794 0
M  V30 2591 H 234.685 2.0696 5.62963 0
M  V30 2592 H 236.364 2.58072 5.93302 0
M  V30 2593 N 236.496 -1.42363 0.676048 0
M  V30 2594 C 237.459 -2.29199 0.00766941 0
M  V30 2595 C 238.459 -1.43389 -0.727745 0
M  V30 2596 O 239.649 -1.64764 -0.56556 0
M  V30 2597 C 236.781 -3.2591 -0.999785 0
M  V30 2598 H 237.974 -2.89794 0.771988 0
M  V30 2599 H 235.527 -1.50024 0.438468 0
M  V30 2600 H 236.262 -2.70256 -1.79255 0
M  V30 2601 H 236.047 -3.89202 -0.475829 0
M  V30 2602 H 237.537 -3.91028 -1.46583 0
M  V30 2603 N 237.974 -0.419461 -1.51915 0
M  V30 2604 C 239.204 0.151915 -2.06041 0
M  V30 2605 C 239.612 1.38539 -1.28855 0
M  V30 2606 O 238.955 1.80592 -0.336463 0
M  V30 2607 C 239.017 0.557119 -3.55157 0
M  V30 2608 C 238.681 -0.567054 -4.53468 0
M  V30 2609 C 239.678 -1.43379 -4.99738 0
M  V30 2610 C 237.363 -0.742693 -4.96779 0
M  V30 2611 C 239.357 -2.46102 -5.87973 0
M  V30 2612 C 237.044 -1.77322 -5.84808 0
M  V30 2613 C 238.042 -2.63078 -6.30301 0
M  V30 2614 O 237.73 -3.64364 -7.16585 0
M  V30 2615 H 237.462 0.0193293 -0.675724 0
M  V30 2616 H 240.016 -0.592073 -1.96682 0
M  V30 2617 H 238.246 1.35355 -3.62238 0
M  V30 2618 H 239.935 1.05759 -3.9188 0
M  V30 2619 H 240.701 -1.30954 -4.66986 0
M  V30 2620 H 236.58 -0.0848307 -4.60922 0
M  V30 2621 H 240.124 -3.13071 -6.23404 0
M  V30 2622 H 236.021 -1.89773 -6.16974 0
M  V30 2623 H 236.789 -3.60731 -7.34721 0
M  V30 2624 N 239.452 1.56882 -0.150215 0
M  V30 2625 C 240.682 2.00302 0.506213 0
M  V30 2626 C 241.09 1.02934 1.58749 0
M  V30 2627 O 240.433 0.0188384 1.8369 0
M  V30 2628 C 240.495 3.40156 1.16337 0
M  V30 2629 C 240.159 4.56439 0.226311 0
M  V30 2630 C 241.156 5.17012 -0.547265 0
M  V30 2631 C 238.841 5.02136 0.128279 0
M  V30 2632 C 240.835 6.21693 -1.40629 0
M  V30 2633 C 238.522 6.06672 -0.734345 0
M  V30 2634 C 239.52 6.6632 -1.50023 0
M  V30 2635 O 239.208 7.68831 -2.34848 0
M  V30 2636 H 238.94 0.662182 0.135984 0
M  V30 2637 H 241.494 2.03961 -0.242746 0
M  V30 2638 H 239.724 3.33346 1.96004 0
M  V30 2639 H 241.413 3.67663 1.71985 0
M  V30 2640 H 242.179 4.82603 -0.48158 0
M  V30 2641 H 238.058 4.55435 0.714157 0
M  V30 2642 H 241.602 6.68179 -2.00455 0
M  V30 2643 H 237.499 6.40507 -0.801309 0
M  V30 2644 H 238.267 7.86065 -2.28131 0
M  V30 2645 N 240.93 -0.123565 1.57115 0
M  V30 2646 C 242.176 -0.833386 1.84885 0
M  V30 2647 C 242.509 -1.79742 0.735292 0
M  V30 2648 O 241.784 -1.92764 -0.25925 0
M  V30 2649 C 242.067 -1.5873 3.23228 0
M  V30 2650 C 241.92 -0.643183 4.45178 0
M  V30 2651 C 243.239 -2.54453 3.59085 0
M  V30 2652 H 240.358 -0.301518 0.6725 0
M  V30 2653 H 243 -0.097778 1.89748 0
M  V30 2654 H 241.15 -2.21438 3.19214 0
M  V30 2655 H 242.822 -0.0253015 4.61293 0
M  V30 2656 H 241.065 0.0456139 4.33776 0
M  V30 2657 H 241.736 -1.20724 5.38637 0
M  V30 2658 H 244.212 -2.01853 3.63861 0
M  V30 2659 H 243.088 -3.04238 4.5687 0
M  V30 2660 H 243.349 -3.36906 2.86264 0
M  V30 2661 N 242.408 -1.52605 -0.393616 0
M  V30 2662 C 243.338 -1.80022 -1.48709 0
M  V30 2663 C 244.319 -0.651995 -1.57108 0
M  V30 2664 O 245.504 -0.89913 -1.72132 0
M  V30 2665 C 242.634 -1.96492 -2.86371 0
M  V30 2666 C 241.588 -3.12161 -2.92813 0
M  V30 2667 C 240.914 -3.13877 -4.3288 0
M  V30 2668 C 242.214 -4.51322 -2.6288 0
M  V30 2669 H 243.908 -2.71589 -1.26015 0
M  V30 2670 H 241.454 -1.30684 -0.604778 0
M  V30 2671 H 243.407 -2.14255 -3.62867 0
M  V30 2672 H 242.131 -1.01611 -3.10391 0
M  V30 2673 H 240.79 -2.94173 -2.18764 0
M  V30 2674 H 240.438 -2.16687 -4.53933 0
M  V30 2675 H 240.138 -3.91576 -4.38112 0
M  V30 2676 H 241.662 -3.33789 -5.1129 0
M  V30 2677 H 243.076 -4.69435 -3.29096 0
M  V30 2678 H 241.473 -5.31053 -2.79468 0
M  V30 2679 H 242.543 -4.58353 -1.58242 0
M  V30 2680 N 243.887 0.651787 -1.4349 0
M  V30 2681 C 244.835 1.78586 -1.49029 0
M  V30 2682 C 245.829 1.65448 -0.363767 0
M  V30 2683 O 247.035 1.71777 -0.537821 0
M  V30 2684 H 243.41 0.589236 -0.467231 0
M  V30 2685 H 245.381 1.71035 -2.44519 0
M  V30 2686 C 244.13 3.16851 -1.43181 0
M  V30 2687 H 243.453 3.27598 -2.29171 0
M  V30 2688 H 244.893 3.96156 -1.51118 0
M  V30 2689 C 243.352 3.36568 -0.149616 0
M  V30 2690 O 243.882 3.93885 0.788509 0
M  V30 2691 N 242.088 2.90539 -0.0593484 0
M  V30 2692 H 241.635 2.4408 -0.823575 0
M  V30 2693 H 241.593 3.04108 0.797853 0
M  V30 2694 N 245.365 1.30045 0.890287 0
M  V30 2695 C 246.59 1.21598 1.68014 0
M  V30 2696 C 247.015 -0.218678 1.86825 0
M  V30 2697 O 246.373 -1.15756 1.39536 0
M  V30 2698 C 246.421 1.94434 3.03691 0
M  V30 2699 O 245.525 1.2678 3.92429 0
M  V30 2700 H 244.866 0.420856 0.513592 0
M  V30 2701 H 247.396 1.71775 1.11151 0
M  V30 2702 H 247.406 2.03251 3.5377 0
M  V30 2703 H 246.081 2.98777 2.89318 0
M  V30 2704 H 244.658 1.26282 3.50866 0
M  V30 2705 N 246.843 -1.10192 1.12674 0
M  V30 2706 C 247.773 -2.18652 0.819362 0
M  V30 2707 C 248.754 -1.68698 -0.217915 0
M  V30 2708 O 249.939 -1.94041 -0.0785581 0
M  V30 2709 C 247.069 -3.46202 0.27594 0
M  V30 2710 C 246.023 -4.09444 1.24656 0
M  V30 2711 C 245.349 -5.31725 0.563258 0
M  V30 2712 C 246.649 -4.52863 2.60217 0
M  V30 2713 H 248.343 -2.44622 1.72628 0
M  V30 2714 H 245.889 -1.17571 0.831451 0
M  V30 2715 H 247.842 -4.21372 0.0486149 0
M  V30 2716 H 246.566 -3.1973 -0.666331 0
M  V30 2717 H 245.225 -3.36284 1.45974 0
M  V30 2718 H 244.873 -5.0153 -0.384235 0
M  V30 2719 H 244.573 -5.74991 1.21075 0
M  V30 2720 H 246.097 -6.09624 0.34503 0
M  V30 2721 H 247.511 -5.19294 2.42913 0
M  V30 2722 H 245.908 -5.06986 3.21068 0
M  V30 2723 H 246.978 -3.65656 3.18471 0
M  V30 2724 N 248.321 -0.919034 -1.28029 0
M  V30 2725 C 249.253 -0.368762 -2.26214 0
M  V30 2726 C 250.266 0.495716 -1.55069 0
M  V30 2727 O 251.455 0.30974 -1.75792 0
M  V30 2728 C 248.555 0.491049 -3.35324 0
M  V30 2729 C 247.728 -0.352133 -4.3598 0
M  V30 2730 C 246.787 0.443622 -5.24327 0
M  V30 2731 O 245.813 -0.14566 -5.69014 0
M  V30 2732 N 247.015 1.74545 -5.53637 0
M  V30 2733 H 249.78 -1.21273 -2.74068 0
M  V30 2734 H 247.341 -0.785541 -1.41566 0
M  V30 2735 H 249.333 1.03026 -3.91366 0
M  V30 2736 H 247.903 1.23574 -2.87138 0
M  V30 2737 H 247.123 -1.07269 -3.79324 0
M  V30 2738 H 248.411 -0.928883 -5.00249 0
M  V30 2739 H 247.809 2.24666 -5.19174 0
M  V30 2740 H 246.366 2.23138 -6.12416 0
M  V30 2741 N 249.799 1.42003 -0.683588 0
M  V30 2742 C 251.045 2.01712 -0.209825 0
M  V30 2743 C 251.378 1.53968 1.18353 0
M  V30 2744 O 250.653 0.745661 1.79639 0
M  V30 2745 C 250.936 3.59202 -0.254197 0
M  V30 2746 C 250.789 4.17102 -1.68363 0
M  V30 2747 C 252.108 4.38344 0.392709 0
M  V30 2748 H 249.227 0.732891 -0.0777189 0
M  V30 2749 H 251.869 1.68909 -0.87004 0
M  V30 2750 H 250.019 3.87278 0.307954 0
M  V30 2751 H 251.691 3.99946 -2.29871 0
M  V30 2752 H 249.934 3.72597 -2.22157 0
M  V30 2753 H 250.605 5.26249 -1.6663 0
M  V30 2754 H 253.081 4.16011 -0.0859162 0
M  V30 2755 H 251.957 5.47901 0.331063 0
M  V30 2756 H 252.218 4.16887 1.47164 0
M  V30 2757 N 251.277 0.427512 1.51691 0
M  V30 2758 C 252.207 -0.3796 2.30394 0
M  V30 2759 C 253.188 -1.02982 1.35384 0
M  V30 2760 O 254.373 -1.03534 1.643 0
M  V30 2761 C 251.503 -1.48649 3.1388 0
M  V30 2762 C 250.457 -0.960294 4.17088 0
M  V30 2763 C 249.783 -2.16219 4.89033 0
M  V30 2764 C 251.083 -0.00153679 5.223 0
M  V30 2765 H 252.777 0.277164 2.98114 0
M  V30 2766 H 250.323 0.134739 1.43368 0
M  V30 2767 H 252.276 -2.05826 3.67714 0
M  V30 2768 H 251 -2.1714 2.43962 0
M  V30 2769 H 249.659 -0.410806 3.64291 0
M  V30 2770 H 249.307 -2.83307 4.15628 0
M  V30 2771 H 249.007 -1.81654 5.58816 0
M  V30 2772 H 250.531 -2.73968 5.45687 0
M  V30 2773 H 251.945 -0.482687 5.71264 0
M  V30 2774 H 250.342 0.256199 5.99553 0
M  V30 2775 H 251.412 0.938174 4.75738 0
M  V30 2776 N 252.755 -1.56801 0.158532 0
M  V30 2777 C 253.687 -2.14488 -0.807923 0
M  V30 2778 C 254.7 -1.09721 -1.20271 0
M  V30 2779 O 255.889 -1.36956 -1.14478 0
M  V30 2780 C 252.989 -2.66217 -2.09718 0
M  V30 2781 C 252.162 -3.95507 -1.86796 0
M  V30 2782 C 251.221 -4.3243 -2.99818 0
M  V30 2783 O 250.247 -5.00543 -2.71008 0
M  V30 2784 N 251.449 -3.92947 -4.27285 0
M  V30 2785 H 254.214 -2.98042 -0.314816 0
M  V30 2786 H 251.775 -1.61881 -0.0246692 0
M  V30 2787 H 253.767 -2.87924 -2.84398 0
M  V30 2788 H 252.337 -1.87324 -2.50257 0
M  V30 2789 H 251.557 -3.82309 -0.96089 0
M  V30 2790 H 252.845 -4.79972 -1.68833 0
M  V30 2791 H 252.243 -3.38087 -4.53557 0
M  V30 2792 H 250.8 -4.19681 -4.9871 0
M  V30 2793 N 254.233 0.115231 -1.57178 0
M  V30 2794 C 255.481 0.820727 -1.84685 0
M  V30 2795 C 255.802 1.80237 -0.744279 0
M  V30 2796 O 255.072 1.94529 0.231375 0
M  V30 2797 H 253.652 0.306084 -0.681411 0
M  V30 2798 H 256.314 0.101656 -1.94635 0
M  V30 2799 H 255.41 1.36366 -2.80733 0
M  V30 2800 N 255.711 1.52812 0.385517 0
M  V30 2801 C 256.658 1.77838 1.47113 0
M  V30 2802 C 257.628 0.621757 1.54024 0
M  V30 2803 O 258.813 0.861846 1.70226 0
M  V30 2804 C 255.953 1.95618 2.84302 0
M  V30 2805 C 255.066 3.23316 2.86515 0
M  V30 2806 C 254.201 3.31394 4.15152 0
M  V30 2807 C 253.24 4.53201 4.1143 0
M  V30 2808 N 252.377 4.58542 5.3168 0
M  V30 2809 H 257.217 2.70482 1.25073 0
M  V30 2810 H 254.754 1.34006 0.606692 0
M  V30 2811 H 256.712 2.03912 3.63972 0
M  V30 2812 H 255.342 1.06331 3.04784 0
M  V30 2813 H 254.394 3.24076 1.99195 0
M  V30 2814 H 255.706 4.13045 2.79634 0
M  V30 2815 H 254.86 3.3889 5.03228 0
M  V30 2816 H 253.599 2.39645 4.24761 0
M  V30 2817 H 252.604 4.45827 3.21742 0
M  V30 2818 H 253.829 5.46271 4.03442 0
M  V30 2819 H 251.775 3.69686 5.41912 0
M  V30 2820 H 251.692 5.42148 5.26889 0
M  V30 2821 H 252.96 4.70296 6.21644 0
M  V30 2822 N 257.189 -0.644168 1.43834 0
M  V30 2823 C 258.438 -1.39985 1.45214 0
M  V30 2824 C 258.751 -1.95421 0.0835494 0
M  V30 2825 O 259.957 -2.71488 -0.0251748 0
M  V30 2826 C 258.413 -2.53384 2.55587 0
M  V30 2827 C 258.021 -2.04517 3.98594 0
M  V30 2828 C 259.765 -3.30685 2.66172 0
M  V30 2829 C 257.672 -3.1518 5.00416 0
M  V30 2830 H 256.602 -0.526005 0.540218 0
M  V30 2831 H 259.253 -0.694367 1.69855 0
M  V30 2832 H 257.635 -3.26446 2.24163 0
M  V30 2833 H 258.809 -1.38405 4.39523 0
M  V30 2834 H 257.124 -1.40068 3.92135 0
M  V30 2835 H 259.721 -4.13158 3.39418 0
M  V30 2836 H 260.064 -3.79312 1.71546 0
M  V30 2837 H 260.597 -2.64708 2.96942 0
M  V30 2838 H 257.336 -2.71511 5.96625 0
M  V30 2839 H 256.856 -3.79974 4.64091 0
M  V30 2840 H 258.535 -3.80166 5.23529 0
M  V30 2841 N 258.668 -1.30515 -0.883378 0
M  V30 2842 C 259.615 -1.17032 -1.98927 0
M  V30 2843 C 260.585 -0.0594241 -1.65994 0
M  V30 2844 O 261.77 -0.229895 -1.8941 0
M  V30 2845 C 258.91 -0.869777 -3.33959 0
M  V30 2846 C 258.023 -2.06271 -3.79574 0
M  V30 2847 C 257.158 -1.70011 -5.03259 0
M  V30 2848 C 256.197 -2.8579 -5.41286 0
M  V30 2849 N 255.334 -2.49816 -6.56153 0
M  V30 2850 H 260.174 -2.1164 -2.09792 0
M  V30 2851 H 257.711 -1.05296 -1.02719 0
M  V30 2852 H 259.669 -0.676138 -4.11685 0
M  V30 2853 H 258.299 0.0394332 -3.22776 0
M  V30 2854 H 257.351 -2.36755 -2.97744 0
M  V30 2855 H 258.663 -2.92971 -4.03694 0
M  V30 2856 H 257.817 -1.47032 -5.88614 0
M  V30 2857 H 256.556 -0.804829 -4.81013 0
M  V30 2858 H 255.561 -3.09434 -4.54456 0
M  V30 2859 H 256.786 -3.76008 -5.65504 0
M  V30 2860 H 254.732 -1.62795 -6.35479 0
M  V30 2861 H 254.649 -3.30048 -6.8015 0
M  V30 2862 H 255.917 -2.30197 -7.44735 0
M  V30 2863 N 260.146 1.09593 -1.13257 0
M  V30 2864 C 261.557 1.63229 -0.906274 0
M  V30 2865 C 261.908 1.8811 0.557578 0
M  V30 2866 O 261.033 1.62953 1.42391 0
M  V30 2867 C 261.628 2.96535 -1.63867 0
M  V30 2868 C 260.187 3.47003 -1.45828 0
M  V30 2869 C 259.334 2.2145 -1.66898 0
M  V30 2870 H 262.285 0.92978 -1.28611 0
M  V30 2871 H 262.306 3.64411 -1.09476 0
M  V30 2872 H 261.818 2.78394 -2.70404 0
M  V30 2873 H 259.919 3.70272 -0.415848 0
M  V30 2874 H 260.032 4.24551 -2.2202 0
M  V30 2875 H 258.396 2.30022 -1.09371 0
M  V30 2876 H 259.179 2.0583 -2.74752 0
M  V30 2877 N 261.624 0.925811 1.2754 0
M  V30 2878 C 262.873 0.561084 1.93739 0
M  V30 2879 C 263.186 -0.901685 1.73577 0
M  V30 2880 O 264.392 -1.37511 2.34101 0
M  V30 2881 C 262.848 0.952668 3.47062 0
M  V30 2882 C 262.456 2.43599 3.75983 0
M  V30 2883 C 264.2 0.659103 4.19352 0
M  V30 2884 C 262.107 2.76707 5.22673 0
M  V30 2885 H 261.037 0.206122 0.725279 0
M  V30 2886 H 263.688 1.12637 1.44863 0
M  V30 2887 H 262.07 0.316053 3.94737 0
M  V30 2888 H 263.244 3.12035 3.39073 0
M  V30 2889 H 261.559 2.70125 3.16893 0
M  V30 2890 H 264.156 0.882985 5.27359 0
M  V30 2891 H 264.499 -0.403607 4.14339 0
M  V30 2892 H 265.032 1.25473 3.77494 0
M  V30 2893 H 261.771 3.8188 5.32774 0
M  V30 2894 H 261.291 2.12919 5.60737 0
M  V30 2895 H 262.97 2.6435 5.90532 0
M  V30 2896 N 263.102 -1.41638 0.69111 0
M  V30 2897 C 264.012 -2.34588 0.0233487 0
M  V30 2898 C 265.028 -1.55987 -0.770984 0
M  V30 2899 O 266.204 -1.88486 -0.709569 0
M  V30 2900 C 263.269 -3.34684 -0.904851 0
M  V30 2901 C 262.33 -4.29176 -0.103225 0
M  V30 2902 C 261.563 -5.2449 -0.987216 0
M  V30 2903 O 261.786 -5.2514 -2.22674 0
M  V30 2904 O 260.72 -6.00295 -0.439281 0
M  V30 2905 H 264.546 -2.93261 0.789416 0
M  V30 2906 H 262.131 -1.42417 0.45142 0
M  V30 2907 H 264.013 -3.96133 -1.43724 0
M  V30 2908 H 262.688 -2.78461 -1.65049 0
M  V30 2909 H 261.595 -3.71089 0.473655 0
M  V30 2910 H 262.928 -4.88484 0.60365 0
M  V30 2911 N 264.58 -0.43555 -1.51462 0
M  V30 2912 C 265.826 0.131709 -2.02372 0
M  V30 2913 C 266.159 1.42516 -1.3192 0
M  V30 2914 O 265.434 1.89606 -0.433573 0
M  V30 2915 C 265.717 0.352301 -3.58373 0
M  V30 2916 C 265.57 -0.959676 -4.39443 0
M  V30 2917 C 266.889 1.12286 -4.25535 0
M  V30 2918 H 264.008 0.0463936 -0.735538 0
M  V30 2919 H 266.65 -0.574197 -1.81116 0
M  V30 2920 H 264.8 0.9536 -3.76615 0
M  V30 2921 H 266.472 -1.59482 -4.32855 0
M  V30 2922 H 264.715 -1.56468 -4.04599 0
M  V30 2923 H 265.386 -0.759394 -5.46752 0
M  V30 2924 H 267.862 0.613545 -4.11552 0
M  V30 2925 H 266.738 1.24598 -5.34571 0
M  V30 2926 H 266.999 2.15048 -3.86273 0
M  V30 2927 N 266.058 1.56714 -0.166846 0
M  V30 2928 C 267.307 1.95922 0.479318 0
M  V30 2929 C 267.62 1.05529 1.6469 0
M  V30 2930 O 268.826 1.34399 2.35901 0
M  V30 2931 C 267.282 3.48359 0.90412 0
M  V30 2932 C 266.89 4.47369 -0.237621 0
M  V30 2933 C 268.634 3.96394 1.51896 0
M  V30 2934 C 266.541 5.91039 0.206561 0
M  V30 2935 H 265.471 0.731495 0.18284 0
M  V30 2936 H 268.122 1.81728 -0.254363 0
M  V30 2937 H 266.504 3.57955 1.69365 0
M  V30 2938 H 267.678 4.49485 -1.01489 0
M  V30 2939 H 265.993 4.09366 -0.762128 0
M  V30 2940 H 268.59 5.01186 1.86325 0
M  V30 2941 H 268.933 3.39075 2.41524 0
M  V30 2942 H 269.466 3.89796 0.79395 0
M  V30 2943 H 266.205 6.52221 -0.654834 0
M  V30 2944 H 265.725 5.9224 0.949282 0
M  V30 2945 H 267.404 6.43707 0.651939 0
M  V30 2946 N 267.536 -0.106894 1.57237 0
M  V30 2947 C 268.446 -1.14911 2.0453 0
M  V30 2948 C 269.462 -1.44592 0.96795 0
M  V30 2949 O 270.638 -1.55468 1.2803 0
M  V30 2950 C 267.703 -2.45272 2.45036 0
M  V30 2951 C 266.764 -2.22879 3.66911 0
M  V30 2952 C 265.997 -3.47024 4.05475 0
M  V30 2953 O 266.22 -4.54804 3.44252 0
M  V30 2954 O 265.154 -3.3731 4.98504 0
M  V30 2955 H 268.98 -0.777461 2.9358 0
M  V30 2956 H 266.565 -0.318563 1.45964 0
M  V30 2957 H 268.447 -3.22055 2.71769 0
M  V30 2958 H 267.122 -2.81886 1.59129 0
M  V30 2959 H 266.029 -1.43915 3.45311 0
M  V30 2960 H 267.362 -1.91163 4.53561 0
M  V30 2961 N 269.014 -1.53014 -0.377408 0
M  V30 2962 C 269.961 -1.78616 -1.46168 0
M  V30 2963 C 270.931 -0.629917 -1.53692 0
M  V30 2964 O 272.116 -0.870861 -1.69766 0
M  V30 2965 C 269.256 -1.97123 -2.8326 0
M  V30 2966 C 268.369 -3.24831 -2.84796 0
M  V30 2967 C 267.504 -3.33591 -4.13389 0
M  V30 2968 C 266.543 -4.55377 -4.09021 0
M  V30 2969 N 265.68 -4.61355 -5.29241 0
M  V30 2970 H 270.52 -2.71142 -1.23637 0
M  V30 2971 H 268.057 -1.34326 -0.599577 0
M  V30 2972 H 270.015 -2.05839 -3.62886 0
M  V30 2973 H 268.645 -1.07946 -3.04216 0
M  V30 2974 H 267.697 -3.25128 -1.97474 0
M  V30 2975 H 269.009 -4.14523 -2.77439 0
M  V30 2976 H 268.163 -3.41554 -5.01424 0
M  V30 2977 H 266.902 -2.41894 -4.23484 0
M  V30 2978 H 265.907 -4.47527 -3.19373 0
M  V30 2979 H 267.132 -5.48402 -4.00539 0
M  V30 2980 H 265.078 -3.72554 -5.39944 0
M  V30 2981 H 264.995 -5.44935 -5.24006 0
M  V30 2982 H 266.263 -4.73586 -6.19141 0
M  V30 2983 N 270.492 0.636531 -1.44174 0
M  V30 2984 C 271.741 1.39213 -1.45954 0
M  V30 2985 C 272.054 1.95374 -0.0939119 0
M  V30 2986 O 273.26 2.71498 0.0107767 0
M  V30 2987 C 271.716 2.52025 -2.56927 0
M  V30 2988 C 271.324 2.024 -3.99673 0
M  V30 2989 C 273.068 3.29269 -2.67922 0
M  V30 2990 C 270.975 3.12521 -5.0208 0
M  V30 2991 H 269.905 0.523132 -0.542999 0
M  V30 2992 H 272.556 0.685349 -1.70221 0
M  V30 2993 H 270.938 3.25253 -2.25891 0
M  V30 2994 H 272.112 1.36073 -4.40251 0
M  V30 2995 H 270.427 1.37987 -3.92872 0
M  V30 2996 H 273.024 4.11352 -3.41605 0
M  V30 2997 H 273.367 3.78397 -1.73555 0
M  V30 2998 H 273.9 2.63129 -2.98342 0
M  V30 2999 H 270.639 2.68343 -5.98057 0
M  V30 3000 H 270.159 3.77507 -4.66099 0
M  V30 3001 H 271.838 3.77385 -5.25538 0
M  V30 3002 N 271.97 1.30982 0.876444 0
M  V30 3003 C 273.219 1.19658 1.62373 0
M  V30 3004 C 273.532 -0.245636 1.94052 0
M  V30 3005 O 274.738 -0.48049 2.67214 0
M  V30 3006 C 273.194 2.09433 2.92687 0
M  V30 3007 C 272.802 3.58613 2.68516 0
M  V30 3008 C 274.546 2.06893 3.70669 0
M  V30 3009 C 272.453 4.40416 3.94699 0
M  V30 3010 H 271.383 0.444268 0.609214 0
M  V30 3011 H 274.034 1.55791 0.969605 0
M  V30 3012 H 272.416 1.66191 3.59439 0
M  V30 3013 H 273.59 4.10058 2.10212 0
M  V30 3014 H 271.905 3.63063 2.03898 0
M  V30 3015 H 274.502 2.65258 4.64265 0
M  V30 3016 H 274.845 1.05448 4.02724 0
M  V30 3017 H 275.378 2.48301 3.10792 0
M  V30 3018 H 272.117 5.42591 3.67798 0
M  V30 3019 H 271.637 3.93731 4.52477 0
M  V30 3020 H 273.316 4.52294 4.62644 0
M  V30 3021 N 273.449 -1.08991 1.13837 0
M  V30 3022 C 274.359 -2.19301 0.833333 0
M  V30 3023 C 275.375 -1.73026 -0.183847 0
M  V30 3024 O 276.551 -2.01395 -0.0138092 0
M  V30 3025 C 273.616 -3.45323 0.308651 0
M  V30 3026 C 272.677 -4.06255 1.38764 0
M  V30 3027 C 271.91 -5.26262 0.887896 0
M  V30 3028 O 272.133 -5.69747 -0.27287 0
M  V30 3029 O 271.067 -5.78435 1.66421 0
M  V30 3030 H 274.893 -2.47854 1.75506 0
M  V30 3031 H 272.478 -1.18012 0.916166 0
M  V30 3032 H 274.36 -4.21394 0.0216739 0
M  V30 3033 H 273.035 -3.18362 -0.585431 0
M  V30 3034 H 271.942 -3.318 1.72799 0
M  V30 3035 H 273.275 -4.37452 2.25602 0
M  V30 3036 N 274.927 -0.932562 -1.27047 0
M  V30 3037 C 276.204 -0.49377 -1.89265 0
M  V30 3038 C 276.584 1.02833 -1.8436 0
M  V30 3039 O 275.932 1.88461 -1.29209 0
M  V30 3040 C 276.142 -1.04536 -3.32976 0
M  V30 3041 C 277.49 -1.10879 -4.09867 0
M  V30 3042 O 278.514 -0.995327 -3.42011 0
M  V30 3043 O 277.373 -1.28417 -5.31198 0
M  V30 3044 H 274.467 -0.159596 -0.811454 0
M  V30 3045 H 277.013 -1.02457 -1.3528 0
M  V30 3046 H 275.785 -2.08913 -3.30864 0
M  V30 3047 H 275.408 -0.496494 -3.94488 0
M  V30 3048 N 276.405 1.4127 -0.698611 0
M  V30 3049 C 277.821 1.55241 -0.370462 0
M  V30 3050 C 278.021 1.67351 1.12231 0
M  V30 3051 O 277.077 1.65363 1.90818 0
M  V30 3052 C 278.39 2.78997 -1.12165 0
M  V30 3053 C 279.938 2.92797 -1.1063 0
M  V30 3054 C 280.413 4.19445 -1.8393 0
M  V30 3055 N 281.904 4.26409 -1.80914 0
M  V30 3056 C 282.639 5.23271 -2.34467 0
M  V30 3057 N 282.135 6.26145 -2.96504 0
M  V30 3058 N 283.928 5.15232 -2.24706 0
M  V30 3059 H 276.079 1.31654 -1.66676 0
M  V30 3060 H 278.342 0.635393 -0.703548 0
M  V30 3061 H 278.048 2.76268 -2.17644 0
M  V30 3062 H 277.922 3.70606 -0.702209 0
M  V30 3063 H 280.309 2.95039 -0.0597713 0
M  V30 3064 H 280.39 2.02353 -1.56483 0
M  V30 3065 H 280.034 4.17964 -2.88563 0
M  V30 3066 H 279.964 5.08866 -1.35509 0
M  V30 3067 H 282.455 3.527 -1.35687 0
M  V30 3068 H 282.768 6.96451 -3.34927 0
M  V30 3069 H 281.113 6.26638 -3.00583 0
M  V30 3070 H 284.304 4.33789 -1.7591 0
M  V30 3071 H 284.477 5.90552 -2.66745 0
M  V30 3072 N 277.883 0.443576 1.51229 0
M  V30 3073 C 279.108 -0.121648 2.07043 0
M  V30 3074 C 279.533 -1.35156 1.30823 0
M  V30 3075 O 278.891 -1.7793 0.347934 0
M  V30 3076 C 278.939 -0.41624 3.5819 0
M  V30 3077 O 278.043 -1.50163 3.8409 0
M  V30 3078 H 277.384 0.000871367 0.663999 0
M  V30 3079 H 279.914 0.626706 1.94765 0
M  V30 3080 H 279.924 -0.664867 4.02546 0
M  V30 3081 H 278.599 0.482653 4.1309 0
M  V30 3082 H 277.176 -1.24248 3.51592 0
M  V30 3083 N 279.361 -1.56624 0.175154 0
M  V30 3084 C 280.309 -2.19468 -0.770495 0
M  V30 3085 C 281.303 -1.15985 -1.23466 0
M  V30 3086 O 282.509 -1.34176 -1.19987 0
M  V30 3087 H 278.884 -0.703095 -0.266761 0
M  V30 3088 H 280.855 -2.97613 -0.216542 0
M  V30 3089 C 279.604 -2.85264 -1.98796 0
M  V30 3090 H 278.927 -3.64623 -1.63983 0
M  V30 3091 H 280.367 -3.327 -2.62843 0
M  V30 3092 C 278.826 -1.85239 -2.81404 0
M  V30 3093 O 279.356 -1.34024 -3.78682 0
M  V30 3094 N 277.562 -1.53911 -2.46495 0
M  V30 3095 H 277.109 -1.95751 -1.67449 0
M  V30 3096 H 277.067 -0.872382 -3.02054 0
M  V30 3097 N 280.839 0.0985539 -1.57292 0
M  V30 3098 C 282.116 0.834155 -1.76921 0
M  V30 3099 C 282.496 1.97101 -0.755928 0
M  V30 3100 O 281.844 2.27474 0.216245 0
M  V30 3101 C 282.054 1.33194 -3.22584 0
M  V30 3102 C 283.402 1.77611 -3.85668 0
M  V30 3103 O 284.426 1.42825 -3.26312 0
M  V30 3104 O 283.285 2.4192 -4.90038 0
M  V30 3105 H 280.379 0.397628 -0.725135 0
M  V30 3106 H 282.925 0.0807044 -1.69508 0
M  V30 3107 H 281.697 0.517248 -3.87866 0
M  V30 3108 H 281.32 2.1475 -3.34616 0
M  V30 3109 N 282.317 1.53212 0.369288 0
M  V30 3110 C 283.566 1.68436 1.10961 0
M  V30 3111 C 283.879 0.440738 1.9057 0
M  V30 3112 O 285.085 0.473446 2.6734 0
M  V30 3113 C 283.541 2.97744 2.0218 0
M  V30 3114 C 283.149 4.29355 1.279 0
M  V30 3115 C 284.893 3.22334 2.76226 0
M  V30 3116 C 282.8 5.49755 2.17999 0
M  V30 3117 H 281.73 0.627568 0.41794 0
M  V30 3118 H 284.381 1.79713 0.370884 0
M  V30 3119 H 282.763 2.8026 2.79768 0
M  V30 3120 H 283.937 4.57458 0.554007 0
M  V30 3121 H 282.252 4.11179 0.657311 0
M  V30 3122 H 284.849 4.09471 3.43857 0
M  V30 3123 H 285.192 2.38238 3.41392 0
M  V30 3124 H 285.725 3.40475 2.05723 0
M  V30 3125 H 282.464 6.36318 1.57417 0
M  V30 3126 H 281.984 5.25937 2.88359 0
M  V30 3127 H 283.663 5.84401 2.77641 0
M  V30 3128 N 283.795 -0.628877 1.44509 0
M  V30 3129 C 285.023 -1.41554 1.50897 0
M  V30 3130 C 285.438 -1.8832 0.134564 0
M  V30 3131 O 284.795 -1.60969 -0.859965 0
M  V30 3132 C 284.846 -2.63435 2.47556 0
M  V30 3133 O 284.567 -2.18619 3.79654 0
M  V30 3134 C 286.068 -3.56537 2.63431 0
M  V30 3135 H 283.288 -0.434044 0.511709 0
M  V30 3136 H 285.832 -0.768895 1.89495 0
M  V30 3137 H 283.987 -3.24187 2.12089 0
M  V30 3138 H 284.401 -2.97652 4.31861 0
M  V30 3139 H 285.875 -4.38657 3.35088 0
M  V30 3140 H 286.352 -4.05493 1.68738 0
M  V30 3141 H 286.958 -3.01653 2.9981 0
M  V30 3142 N 285.273 -1.31445 -0.869486 0
M  V30 3143 C 286.22 -1.19135 -1.97675 0
M  V30 3144 C 287.19 -0.0770266 -1.65921 0
M  V30 3145 O 288.375 -0.249972 -1.89155 0
M  V30 3146 C 285.515 -0.905149 -3.33018 0
M  V30 3147 C 284.628 -2.10285 -3.77365 0
M  V30 3148 C 283.763 -1.75339 -5.01427 0
M  V30 3149 C 282.802 -2.91515 -5.38224 0
M  V30 3150 N 281.939 -2.56762 -6.53466 0
M  V30 3151 H 286.779 -2.13853 -2.07535 0
M  V30 3152 H 284.316 -1.06379 -1.01597 0
M  V30 3153 H 286.274 -0.719765 -4.10944 0
M  V30 3154 H 284.904 0.00519624 -3.228 0
M  V30 3155 H 283.956 -2.39899 -2.95216 0
M  V30 3156 H 285.268 -2.97237 -4.00564 0
M  V30 3157 H 284.422 -1.53266 -5.87022 0
M  V30 3158 H 283.161 -0.855801 -4.80133 0
M  V30 3159 H 282.166 -3.14237 -4.51149 0
M  V30 3160 H 283.391 -3.81985 -5.61484 0
M  V30 3161 H 281.337 -1.69526 -6.33717 0
M  V30 3162 H 281.254 -3.37243 -6.76612 0
M  V30 3163 H 282.522 -2.38083 -7.42251 0
M  V30 3164 N 286.751 1.08385 -1.14413 0
M  V30 3165 C 287.698 2.15311 -0.831265 0
M  V30 3166 C 288.668 1.64751 0.211292 0
M  V30 3167 O 289.853 1.90627 0.0811674 0
M  V30 3168 C 286.993 3.43658 -0.315143 0
M  V30 3169 C 286.106 4.08064 -1.41802 0
M  V30 3170 C 285.241 5.24207 -0.859126 0
M  V30 3171 C 284.28 5.80554 -1.93967 0
M  V30 3172 N 283.417 6.88042 -1.39793 0
M  V30 3173 H 288.257 2.41415 -1.74708 0
M  V30 3174 H 285.794 1.18474 -0.871909 0
M  V30 3175 H 287.752 4.172 0.00230884 0
M  V30 3176 H 286.382 3.17839 0.56378 0
M  V30 3177 H 285.434 3.3228 -1.85187 0
M  V30 3178 H 286.746 4.45962 -2.23427 0
M  V30 3179 H 285.9 6.04689 -0.49359 0
M  V30 3180 H 284.639 4.87699 -0.011932 0
M  V30 3181 H 283.644 4.98725 -2.31415 0
M  V30 3182 H 284.869 6.19121 -2.79046 0
M  V30 3183 H 282.815 6.53493 -0.572919 0
M  V30 3184 H 282.732 7.24767 -2.15054 0
M  V30 3185 H 284 7.72255 -1.0603 0
M  V30 3186 N 288.23 0.939286 1.26551 0
M  V30 3187 C 289.476 0.586715 1.94128 0
M  V30 3188 C 289.809 -0.8717 1.73537 0
M  V30 3189 O 289.084 -1.62339 1.07127 0
M  V30 3190 C 289.367 0.927497 3.4795 0
M  V30 3191 C 289.22 2.44052 3.77834 0
M  V30 3192 C 290.539 0.441569 4.37879 0
M  V30 3193 H 287.658 0.21463 0.705055 0
M  V30 3194 H 290.3 1.17316 1.49455 0
M  V30 3195 H 288.45 0.428431 3.8613 0
M  V30 3196 H 290.122 3.01216 3.4938 0
M  V30 3197 H 288.365 2.8848 3.23978 0
M  V30 3198 H 289.036 2.62947 4.85348 0
M  V30 3199 H 291.512 0.869448 4.06915 0
M  V30 3200 H 290.388 0.708856 5.44304 0
M  V30 3201 H 290.649 -0.658467 4.37169 0
M  V30 3202 N 289.708 -1.40897 0.706093 0
M  V30 3203 C 291.124 -1.55042 0.37869 0
M  V30 3204 C 291.324 -1.67944 -1.11342 0
M  V30 3205 O 290.38 -1.66372 -1.89938 0
M  V30 3206 C 291.693 -2.78398 1.13643 0
M  V30 3207 C 293.241 -2.92206 1.12181 0
M  V30 3208 C 293.716 -4.18463 1.86152 0
M  V30 3209 N 295.207 -4.25443 1.83173 0
M  V30 3210 C 295.942 -5.2202 2.37239 0
M  V30 3211 N 295.438 -6.24563 2.99821 0
M  V30 3212 N 297.231 -5.14033 2.27435 0
M  V30 3213 H 289.382 -1.30769 1.67372 0
M  V30 3214 H 291.645 -0.631653 0.706907 0
M  V30 3215 H 291.351 -2.7511 2.19106 0
M  V30 3216 H 291.225 -3.70228 0.721853 0
M  V30 3217 H 293.612 -2.95004 0.0754171 0
M  V30 3218 H 293.693 -2.01521 1.57554 0
M  V30 3219 H 293.337 -4.16427 2.90776 0
M  V30 3220 H 293.267 -5.08141 1.38206 0
M  V30 3221 H 295.758 -3.51976 1.37556 0
M  V30 3222 H 296.071 -6.94665 3.38616 0
M  V30 3223 H 294.416 -6.25035 3.03902 0
M  V30 3224 H 297.607 -4.3285 1.78208 0
M  V30 3225 H 297.78 -5.89129 2.69873 0
M  V30 3226 N 291.186 -0.45159 -1.50991 0
M  V30 3227 C 292.136 0.370861 -2.24964 0
M  V30 3228 C 293.12 0.978074 -1.2776 0
M  V30 3229 O 294.312 0.893854 -1.52772 0
M  V30 3230 C 291.441 1.46344 -3.10545 0
M  V30 3231 C 290.527 0.864924 -4.15187 0
M  V30 3232 N 290.918 -0.00311354 -5.058 0
M  V30 3233 C 289.216 1.13099 -4.31422 0
M  V30 3234 C 289.917 -0.340772 -5.80701 0
M  V30 3235 N 288.893 0.279203 -5.42883 0
M  V30 3236 H 292.695 -0.298134 -2.92384 0
M  V30 3237 H 290.209 -0.264528 -1.60231 0
M  V30 3238 H 292.206 2.06565 -3.62128 0
M  V30 3239 H 290.866 2.13463 -2.4467 0
M  V30 3240 H 291.877 -0.37058 -5.16572 0
M  V30 3241 H 288.554 1.79861 -3.76771 0
M  V30 3242 H 289.944 -1.048 -6.63677 0
M  V30 3243 N 292.664 1.56529 -0.183458 0
M  V30 3244 C 294.075 1.83739 0.331177 0
M  V30 3245 C 294.426 1.10373 1.62211 0
M  V30 3246 O 293.551 0.36071 2.13373 0
M  V30 3247 C 294.146 3.33306 0.607646 0
M  V30 3248 C 292.705 3.60969 1.06668 0
M  V30 3249 C 291.852 2.77086 0.109029 0
M  V30 3250 H 294.803 1.53379 -0.407484 0
M  V30 3251 H 294.824 3.51444 1.45832 0
M  V30 3252 H 294.336 3.86677 -0.332086 0
M  V30 3253 H 292.437 3.13021 2.0211 0
M  V30 3254 H 292.55 4.69231 0.967447 0
M  V30 3255 H 290.914 2.47319 0.608714 0
M  V30 3256 H 291.697 3.33241 -0.82494 0
M  V30 3257 N 294.142 -0.090211 1.57342 0
M  V30 3258 C 295.39 -0.791241 1.85967 0
M  V30 3259 C 295.711 -1.7903 0.772859 0
M  V30 3260 O 294.981 -1.94872 -0.200398 0
M  V30 3261 H 293.561 -0.295205 0.686195 0
M  V30 3262 H 296.223 -0.0706782 1.94772 0
M  V30 3263 H 295.319 -1.31882 2.82867 0
M  V30 3264 N 295.62 -1.53406 -0.361157 0
M  V30 3265 C 296.567 -1.80156 -1.44265 0
M  V30 3266 C 297.537 -0.646183 -1.53015 0
M  V30 3267 O 298.722 -0.888818 -1.68833 0
M  V30 3268 C 295.862 -2.00116 -2.81154 0
M  V30 3269 C 294.975 -3.27833 -2.81335 0
M  V30 3270 C 294.11 -3.37957 -4.09828 0
M  V30 3271 C 293.149 -4.59689 -4.04168 0
M  V30 3272 N 292.286 -4.66942 -5.24318 0
M  V30 3273 H 297.126 -2.72438 -1.20754 0
M  V30 3274 H 294.663 -1.34954 -0.585296 0
M  V30 3275 H 296.621 -2.09677 -3.60682 0
M  V30 3276 H 295.251 -1.11167 -3.03054 0
M  V30 3277 H 294.303 -3.27204 -1.94014 0
M  V30 3278 H 295.615 -4.17442 -2.73027 0
M  V30 3279 H 294.769 -3.46853 -4.97773 0
M  V30 3280 H 293.508 -2.46372 -4.20894 0
M  V30 3281 H 292.513 -4.50889 -3.14609 0
M  V30 3282 H 293.738 -5.5262 -3.947 0
M  V30 3283 H 291.684 -3.7826 -5.35962 0
M  V30 3284 H 291.601 -5.50462 -5.18197 0
M  V30 3285 H 292.869 -4.80127 -6.14084 0
M  V30 3286 N 297.098 0.621204 -1.44841 0
M  V30 3287 C 298.008 1.7612 -1.5498 0
M  V30 3288 C 299.024 1.68477 -0.434927 0
M  V30 3289 O 300.2 1.89076 -0.693693 0
M  V30 3290 C 297.265 3.1254 -1.50065 0
M  V30 3291 C 296.326 3.31741 -2.72482 0
M  V30 3292 C 295.559 4.61653 -2.67792 0
M  V30 3293 O 295.782 5.431 -1.74352 0
M  V30 3294 O 294.716 4.83271 -3.58794 0
M  V30 3295 H 298.542 1.70518 -2.51311 0
M  V30 3296 H 296.127 0.783643 -1.27198 0
M  V30 3297 H 298.009 3.93844 -1.49882 0
M  V30 3298 H 296.684 3.18663 -0.568806 0
M  V30 3299 H 295.591 2.50077 -2.7823 0
M  V30 3300 H 296.924 3.30486 -3.64746 0
M  V30 3301 N 298.576 1.31904 0.862503 0
M  V30 3302 C 299.804 1.24998 1.64873 0
M  V30 3303 C 300.219 -0.183425 1.87907 0
M  V30 3304 O 299.576 -1.11794 1.44251 0
M  V30 3305 C 299.627 1.99829 3.01248 0
M  V30 3306 O 299.348 3.37575 2.79239 0
M  V30 3307 C 300.849 1.99852 3.95694 0
M  V30 3308 H 298.069 0.431599 0.513773 0
M  V30 3309 H 300.613 1.73901 1.07604 0
M  V30 3310 H 298.768 1.54668 3.55185 0
M  V30 3311 H 299.182 3.75776 3.65914 0
M  V30 3312 H 300.656 2.56709 4.88676 0
M  V30 3313 H 301.133 0.982852 4.28062 0
M  V30 3314 H 301.739 2.44926 3.47694 0
M  V30 3315 N 300.054 -1.07777 1.14986 0
M  V30 3316 C 301.279 -1.84558 0.946213 0
M  V30 3317 C 301.704 -1.81323 -0.500362 0
M  V30 3318 O 301.062 -1.20301 -1.35637 0
M  V30 3319 C 301.11 -3.29736 1.45968 0
M  V30 3320 O 300.214 -4.07149 0.65601 0
M  V30 3321 H 299.555 -0.571641 0.33782 0
M  V30 3322 H 302.085 -1.35991 1.52865 0
M  V30 3323 H 302.095 -3.80574 1.47063 0
M  V30 3324 H 300.77 -3.31406 2.51283 0
M  V30 3325 H 299.347 -3.65994 0.714322 0
M  V30 3326 N 301.532 -0.945985 -1.26051 0
M  V30 3327 C 302.762 -0.612136 -1.97323 0
M  V30 3328 C 303.17 0.818171 -1.70595 0
M  V30 3329 O 302.513 1.55777 -0.973613 0
M  V30 3330 C 302.575 -0.780347 -3.50929 0
M  V30 3331 C 302.239 -2.18619 -4.01317 0
M  V30 3332 C 303.236 -3.16209 -4.12683 0
M  V30 3333 C 300.921 -2.50805 -4.35203 0
M  V30 3334 C 302.915 -4.44085 -4.57238 0
M  V30 3335 C 300.602 -3.78912 -4.79446 0
M  V30 3336 C 301.6 -4.75365 -4.90425 0
M  V30 3337 O 301.288 -6.01191 -5.3369 0
M  V30 3338 H 301.02 -0.229134 -0.635982 0
M  V30 3339 H 303.574 -1.27036 -1.61404 0
M  V30 3340 H 301.804 -0.0649864 -3.86645 0
M  V30 3341 H 303.493 -0.448842 -4.03411 0
M  V30 3342 H 304.259 -2.92668 -3.86744 0
M  V30 3343 H 300.138 -1.76463 -4.2589 0
M  V30 3344 H 303.682 -5.19373 -4.65723 0
M  V30 3345 H 299.579 -4.02265 -5.0483 0
M  V30 3346 H 300.347 -6.04442 -5.51899 0
M  V30 3347 N 303.011 1.40521 -0.713556 0
M  V30 3348 C 304.236 2.05759 -0.26035 0
M  V30 3349 C 304.661 1.53403 1.08854 0
M  V30 3350 O 304.019 0.668535 1.68524 0
M  V30 3351 C 304.067 3.59745 -0.248122 0
M  V30 3352 O 303.171 4.05123 0.77131 0
M  V30 3353 H 302.512 0.652564 -0.122703 0
M  V30 3354 H 305.042 1.79958 -0.973467 0
M  V30 3355 H 305.052 4.07911 -0.0851129 0
M  V30 3356 H 303.727 3.97218 -1.2325 0
M  V30 3357 H 302.304 3.68422 0.57619 0
M  V30 3358 N 304.489 0.459591 1.5075 0
M  V30 3359 C 305.422 -0.386257 2.24907 0
M  V30 3360 C 306.4 -1.006 1.27744 0
M  V30 3361 O 307.584 -1.04416 1.56938 0
M  V30 3362 C 304.711 -1.54021 3.01654 0
M  V30 3363 C 303.757 -1.03898 4.13651 0
M  V30 3364 S 304.59 0.0370501 5.35487 0
M  V30 3365 C 305.746 -1.12105 6.15779 0
M  V30 3366 H 305.979 0.243272 2.96303 0
M  V30 3367 H 303.512 0.244339 1.52454 0
M  V30 3368 H 305.47 -2.20163 3.46466 0
M  V30 3369 H 304.131 -2.14121 2.29806 0
M  V30 3370 H 303.324 -1.90254 4.66711 0
M  V30 3371 H 302.926 -0.45545 3.71216 0
M  V30 3372 H 305.218 -2.03501 6.46215 0
M  V30 3373 H 306.161 -0.62995 7.05292 0
M  V30 3374 H 306.569 -1.36967 5.47631 0
M  V30 3375 N 305.967 -1.56429 0.191757 0
M  V30 3376 C 306.899 -2.16154 -0.762245 0
M  V30 3377 C 307.912 -1.12247 -1.17917 0
M  V30 3378 O 309.101 -1.39353 -1.11548 0
M  V30 3379 C 306.201 -2.70606 -2.04024 0
M  V30 3380 C 305.374 -3.99381 -1.78364 0
M  V30 3381 C 304.433 -4.38692 -2.90578 0
M  V30 3382 O 303.459 -5.06179 -2.6033 0
M  V30 3383 N 304.661 -4.01922 -4.18854 0
M  V30 3384 H 307.426 -2.98643 -0.251526 0
M  V30 3385 H 304.987 -1.61897 0.00967373 0
M  V30 3386 H 306.979 -2.93891 -2.78227 0
M  V30 3387 H 305.549 -1.9259 -2.46227 0
M  V30 3388 H 304.769 -3.84262 -0.879581 0
M  V30 3389 H 306.057 -4.83445 -1.58614 0
M  V30 3390 H 305.455 -3.47631 -4.46283 0
M  V30 3391 H 304.012 -4.30165 -4.89695 0
M  V30 3392 N 307.445 0.0818655 -1.57387 0
M  V30 3393 C 308.395 1.10501 -1.99433 0
M  V30 3394 C 309.379 1.35041 -0.874798 0
M  V30 3395 O 310.571 1.35511 -1.13868 0
M  V30 3396 C 307.7 2.42159 -2.43339 0
M  V30 3397 C 306.786 2.20937 -3.62005 0
M  V30 3398 N 307.177 1.69616 -4.76512 0
M  V30 3399 C 305.475 2.51451 -3.68359 0
M  V30 3400 C 306.176 1.62973 -5.58404 0
M  V30 3401 N 305.152 2.08664 -5.01956 0
M  V30 3402 H 308.954 0.701373 -2.85408 0
M  V30 3403 H 306.468 0.289096 -1.59806 0
M  V30 3404 H 308.465 3.16208 -2.71695 0
M  V30 3405 H 307.125 2.83249 -1.58746 0
M  V30 3406 H 308.136 1.38624 -4.99003 0
M  V30 3407 H 304.813 2.95975 -2.94457 0
M  V30 3408 H 306.203 1.24233 -6.60315 0
M  V30 3409 N 308.923 1.53595 0.353017 0
M  V30 3410 C 310.172 1.69603 1.09168 0
M  V30 3411 C 310.485 0.460925 1.90092 0
M  V30 3412 O 311.691 0.501774 2.66823 0
M  V30 3413 C 310.147 2.99872 1.9901 0
M  V30 3414 C 309.755 4.30687 1.23339 0
M  V30 3415 C 311.499 3.25246 2.72792 0
M  V30 3416 C 309.406 5.52036 2.12156 0
M  V30 3417 H 308.336 0.631966 0.411261 0
M  V30 3418 H 310.987 1.80096 0.351802 0
M  V30 3419 H 309.369 2.83212 2.7678 0
M  V30 3420 H 310.543 4.58019 0.505456 0
M  V30 3421 H 308.858 4.11853 0.613663 0
M  V30 3422 H 311.455 4.13095 3.39495 0
M  V30 3423 H 311.798 2.41846 3.38846 0
M  V30 3424 H 312.331 3.42638 2.021 0
M  V30 3425 H 309.07 6.37951 1.50659 0
M  V30 3426 H 308.59 5.28966 2.82764 0
M  V30 3427 H 310.269 5.87313 2.71427 0
M  V30 3428 N 310.401 -0.613514 1.45168 0
M  V30 3429 C 311.817 -0.933629 1.29443 0
M  V30 3430 C 312.017 -2.00028 0.243101 0
M  V30 3431 O 311.073 -2.49848 -0.364992 0
M  V30 3432 C 312.386 -1.38018 2.67155 0
M  V30 3433 C 313.934 -1.49471 2.75004 0
M  V30 3434 C 314.409 -1.97503 4.13227 0
M  V30 3435 N 315.9 -2.04746 4.15491 0
M  V30 3436 C 316.635 -2.43121 5.19307 0
M  V30 3437 N 316.131 -2.80506 6.33473 0
M  V30 3438 N 317.924 -2.43408 5.06664 0
M  V30 3439 H 310.075 0.0916097 2.12202 0
M  V30 3440 H 312.338 -0.0216655 0.947752 0
M  V30 3441 H 312.044 -0.670625 3.45247 0
M  V30 3442 H 311.918 -2.34784 2.95222 0
M  V30 3443 H 314.305 -2.19519 1.9722 0
M  V30 3444 H 314.386 -0.510342 2.50657 0
M  V30 3445 H 314.03 -1.28045 4.91495 0
M  V30 3446 H 313.96 -2.96843 4.34962 0
M  V30 3447 H 316.451 -1.78468 3.33103 0
M  V30 3448 H 316.764 -3.08652 7.08487 0
M  V30 3449 H 315.109 -2.78216 6.36884 0
M  V30 3450 H 318.3 -2.13604 4.16523 0
M  V30 3451 H 318.473 -2.72989 5.87691 0
M  V30 3452 N 311.879 -1.3236 -0.855495 0
M  V30 3453 C 312.789 -1.23221 -1.99634 0
M  V30 3454 C 313.805 -0.145983 -1.73387 0
M  V30 3455 O 314.981 -0.366502 -1.98037 0
M  V30 3456 C 312.046 -0.954782 -3.33294 0
M  V30 3457 C 311.107 -2.12937 -3.72769 0
M  V30 3458 C 310.34 -1.86508 -5.00051 0
M  V30 3459 O 310.563 -0.807231 -5.64659 0
M  V30 3460 O 309.497 -2.72591 -5.36636 0
M  V30 3461 H 313.323 -2.19126 -2.1028 0
M  V30 3462 H 310.908 -1.12241 -0.986018 0
M  V30 3463 H 312.79 -0.816519 -4.13414 0
M  V30 3464 H 311.465 -0.0258854 -3.2369 0
M  V30 3465 H 310.372 -2.3231 -2.93228 0
M  V30 3466 H 311.705 -3.04102 -3.87018 0
M  V30 3467 N 313.357 1.07166 -1.15556 0
M  V30 3468 C 314.289 2.14341 -0.811815 0
M  V30 3469 C 315.302 1.61835 0.177015 0
M  V30 3470 O 316.491 1.78439 -0.0464996 0
M  V30 3471 C 313.591 3.38387 -0.186481 0
M  V30 3472 C 312.764 4.20238 -1.21321 0
M  V30 3473 C 311.823 5.2266 -0.609302 0
M  V30 3474 O 310.849 5.54719 -1.27576 0
M  V30 3475 N 312.051 5.77306 0.608099 0
M  V30 3476 H 314.816 2.44431 -1.73417 0
M  V30 3477 H 312.377 1.23089 -1.0517 0
M  V30 3478 H 314.369 4.04044 0.230339 0
M  V30 3479 H 312.939 3.05994 0.639249 0
M  V30 3480 H 312.159 3.50369 -1.80652 0
M  V30 3481 H 313.447 4.71736 -1.90638 0
M  V30 3482 H 312.845 5.53513 1.1679 0
M  V30 3483 H 311.402 6.44583 0.96725 0
M  V30 3484 N 314.835 0.952656 1.25548 0
M  V30 3485 C 315.765 0.489287 2.28316 0
M  V30 3486 C 316.746 -0.463359 1.63667 0
M  V30 3487 O 317.931 -0.36274 1.90782 0
M  V30 3488 C 315.061 -0.235603 3.465 0
M  V30 3489 C 314.015 0.631593 4.23314 0
M  V30 3490 C 313.341 -0.223923 5.34231 0
M  V30 3491 C 314.641 1.90871 4.86174 0
M  V30 3492 H 316.335 1.34822 2.67326 0
M  V30 3493 H 313.881 0.649728 1.28509 0
M  V30 3494 H 315.834 -0.570882 4.17515 0
M  V30 3495 H 314.558 -1.12877 3.06474 0
M  V30 3496 H 313.217 0.949929 3.54079 0
M  V30 3497 H 312.865 -1.11678 4.90446 0
M  V30 3498 H 312.565 0.35299 5.86539 0
M  V30 3499 H 314.089 -0.554214 6.0808 0
M  V30 3500 H 315.503 1.63997 5.49343 0
M  V30 3501 H 313.9 2.43112 5.4865 0
M  V30 3502 H 314.97 2.61304 4.08471 0
M  V30 3503 N 316.313 -1.40141 0.720998 0
M  V30 3504 C 317.261 -2.3252 0.0608547 0
M  V30 3505 C 318.255 -1.52326 -0.741152 0
M  V30 3506 O 319.461 -1.68089 -0.643911 0
M  V30 3507 H 315.836 -0.751999 0.000876664 0
M  V30 3508 H 317.807 -2.8584 0.856614 0
M  V30 3509 C 316.556 -3.37331 -0.842809 0
M  V30 3510 H 315.879 -3.99108 -0.235084 0
M  V30 3511 H 317.319 -4.04452 -1.27257 0
M  V30 3512 C 315.778 -2.73246 -1.97074 0
M  V30 3513 O 316.308 -2.59998 -3.06209 0
M  V30 3514 N 314.514 -2.31547 -1.75597 0
M  V30 3515 H 314.061 -2.42522 -0.868368 0
M  V30 3516 H 314.019 -1.89007 -2.51244 0
M  V30 3517 N 317.792 -0.46758 -1.50504 0
M  V30 3518 C 319.022 0.086288 -2.0642 0
M  V30 3519 C 319.43 1.34369 -1.33197 0
M  V30 3520 O 318.773 1.79431 -0.393747 0
M  V30 3521 C 318.835 0.443846 -3.5675 0
M  V30 3522 C 318.499 -0.711035 -4.51435 0
M  V30 3523 C 319.496 -1.59205 -4.94924 0
M  V30 3524 C 317.181 -0.900363 -4.94165 0
M  V30 3525 C 319.175 -2.64683 -5.79846 0
M  V30 3526 C 316.862 -1.95837 -5.7887 0
M  V30 3527 C 317.86 -2.82997 -6.21612 0
M  V30 3528 O 317.548 -3.86977 -7.0463 0
M  V30 3529 H 317.28 -0.00217814 -0.675996 0
M  V30 3530 H 319.834 -0.654346 -1.94698 0
M  V30 3531 H 318.064 1.23762 -3.6636 0
M  V30 3532 H 319.753 0.932386 -3.95046 0
M  V30 3533 H 320.519 -1.45745 -4.62583 0
M  V30 3534 H 316.398 -0.231427 -4.60419 0
M  V30 3535 H 319.942 -3.32745 -6.13128 0
M  V30 3536 H 315.839 -2.09305 -6.10624 0
M  V30 3537 H 316.607 -3.83923 -7.22873 0
M  V30 3538 N 319.27 1.56325 -0.20005 0
M  V30 3539 C 320.2 2.22318 0.713916 0
M  V30 3540 C 321.181 1.18788 1.21752 0
M  V30 3541 O 322.366 1.47309 1.26545 0
M  V30 3542 C 319.496 2.88639 1.93144 0
M  V30 3543 C 318.45 3.98457 1.56255 0
M  V30 3544 C 317.776 4.51967 2.85709 0
M  V30 3545 C 319.076 5.16612 0.768747 0
M  V30 3546 H 320.77 2.98952 0.163755 0
M  V30 3547 H 318.316 1.43792 0.0773219 0
M  V30 3548 H 320.269 3.33491 2.57608 0
M  V30 3549 H 318.993 2.09419 2.50621 0
M  V30 3550 H 317.652 3.54305 0.941471 0
M  V30 3551 H 317.3 3.69503 3.41287 0
M  V30 3552 H 317 5.26071 2.6177 0
M  V30 3553 H 318.524 4.99523 3.51154 0
M  V30 3554 H 319.938 5.57977 1.3166 0
M  V30 3555 H 318.335 5.96812 0.627286 0
M  V30 3556 H 319.405 4.84358 -0.229168 0
M  V30 3557 N 320.748 -0.0735177 1.57428 0
M  V30 3558 C 321.658 -1.10547 2.06922 0
M  V30 3559 C 322.674 -1.42506 0.998402 0
M  V30 3560 O 323.85 -1.52717 1.31299 0
M  V30 3561 C 320.915 -2.40019 2.50184 0
M  V30 3562 C 319.976 -2.15046 3.71556 0
M  V30 3563 C 319.209 -3.38345 4.12745 0
M  V30 3564 O 319.432 -4.47399 3.53822 0
M  V30 3565 O 318.366 -3.2666 5.05546 0
M  V30 3566 H 322.192 -0.715013 2.95163 0
M  V30 3567 H 319.777 -0.287531 1.46607 0
M  V30 3568 H 321.659 -3.16218 2.78539 0
M  V30 3569 H 320.334 -2.78447 1.65072 0
M  V30 3570 H 319.241 -1.36558 3.48285 0
M  V30 3571 H 320.574 -1.81499 4.57514 0
M  V30 3572 N 322.226 -1.5378 -0.344866 0
M  V30 3573 C 323.156 -1.84662 -1.42906 0
M  V30 3574 C 324.137 -0.701648 -1.54955 0
M  V30 3575 O 325.322 -0.953438 -1.69184 0
M  V30 3576 C 322.452 -2.05503 -2.79974 0
M  V30 3577 C 321.406 -3.21318 -2.82734 0
M  V30 3578 C 320.732 -3.2749 -4.22675 0
M  V30 3579 C 322.032 -4.59456 -2.48389 0
M  V30 3580 H 323.726 -2.75461 -1.17311 0
M  V30 3581 H 321.272 -1.32542 -0.562896 0
M  V30 3582 H 323.225 -2.25691 -3.55867 0
M  V30 3583 H 321.949 -1.11434 -3.07002 0
M  V30 3584 H 320.608 -3.00984 -2.09294 0
M  V30 3585 H 320.256 -2.31019 -4.4681 0
M  V30 3586 H 319.956 -4.05316 -4.25433 0
M  V30 3587 H 321.48 -3.49887 -5.00412 0
M  V30 3588 H 322.894 -4.79667 -3.13995 0
M  V30 3589 H 321.291 -5.39675 -2.62432 0
M  V30 3590 H 322.361 -4.63155 -1.4358 0
M  V30 3591 N 323.704 0.605807 -1.45491 0
M  V30 3592 C 324.667 1.69836 -1.5391 0
M  V30 3593 C 325.667 1.55261 -0.418424 0
M  V30 3594 O 326.857 1.60296 -0.681965 0
M  V30 3595 C 323.989 3.09117 -1.43734 0
M  V30 3596 H 325.182 1.63738 -2.51257 0
M  V30 3597 H 322.735 0.821689 -1.32959 0
M  V30 3598 H 323.47 3.20791 -0.475788 0
M  V30 3599 H 323.255 3.21104 -2.25021 0
M  V30 3600 H 324.745 3.88696 -1.52661 0
M  V30 3601 N 325.182 1.32811 0.848464 0
M  V30 3602 C 326.13 1.22231 1.97895 0
M  V30 3603 C 327.124 0.125749 1.68933 0
M  V30 3604 O 328.33 0.289083 1.77663 0
M  V30 3605 H 324.705 0.379058 0.649476 0
M  V30 3606 H 326.676 2.17828 2.03945 0
M  V30 3607 C 325.425 0.968572 3.33937 0
M  V30 3608 H 324.748 1.80458 3.56756 0
M  V30 3609 H 326.188 0.934808 4.13567 0
M  V30 3610 C 324.647 -0.328628 3.35293 0
M  V30 3611 O 325.177 -1.33848 3.78745 0
M  V30 3612 N 323.383 -0.352788 2.88451 0
M  V30 3613 H 322.93 0.469541 2.53285 0
M  V30 3614 H 322.888 -1.22057 2.89741 0
M  V30 3615 N 326.66 -1.06551 1.16123 0
M  V30 3616 C 327.59 -2.15935 0.88851 0
M  V30 3617 C 328.571 -1.69306 -0.164135 0
M  V30 3618 O 329.756 -1.94193 -0.0167857 0
M  V30 3619 C 326.886 -3.45149 0.385942 0
M  V30 3620 C 325.84 -4.05271 1.3762 0
M  V30 3621 C 325.166 -5.29664 0.732137 0
M  V30 3622 C 326.466 -4.44355 2.74493 0
M  V30 3623 H 328.16 -2.39006 1.80323 0
M  V30 3624 H 325.706 -1.14866 0.868435 0
M  V30 3625 H 327.659 -4.21004 0.182647 0
M  V30 3626 H 326.383 -3.21689 -0.564274 0
M  V30 3627 H 325.042 -3.3147 1.56599 0
M  V30 3628 H 324.69 -5.02499 -0.224483 0
M  V30 3629 H 324.39 -5.70848 1.39307 0
M  V30 3630 H 325.914 -6.08218 0.538802 0
M  V30 3631 H 327.328 -5.11303 2.59311 0
M  V30 3632 H 325.725 -4.96515 3.37035 0
M  V30 3633 H 326.795 -3.55339 3.29943 0
M  V30 3634 N 328.138 -0.959301 -1.25041 0
M  V30 3635 C 329.387 -0.612254 -1.92183 0
M  V30 3636 C 329.7 0.855347 -1.75907 0
M  V30 3637 O 330.906 1.31256 -2.37664 0
M  V30 3638 C 329.362 -1.04435 -3.44414 0
M  V30 3639 C 328.97 -2.53482 -3.69393 0
M  V30 3640 C 330.714 -0.770055 -4.17457 0
M  V30 3641 C 328.621 -2.90468 -5.15153 0
M  V30 3642 H 327.551 -0.225279 -0.719559 0
M  V30 3643 H 330.202 -1.16438 -1.41825 0
M  V30 3644 H 328.584 -0.4206 -3.9376 0
M  V30 3645 H 329.758 -3.20916 -3.30681 0
M  V30 3646 H 328.073 -2.78432 -3.0962 0
M  V30 3647 H 330.67 -1.02249 -5.24832 0
M  V30 3648 H 331.013 0.293611 -4.15263 0
M  V30 3649 H 331.546 -1.35437 -3.74034 0
M  V30 3650 H 328.285 -3.95871 -5.22462 0
M  V30 3651 H 327.805 -2.27711 -5.54894 0
M  V30 3652 H 329.484 -2.79914 -5.83315 0
M  V30 3653 N 329.616 1.39756 -0.72842 0
M  V30 3654 C 331.032 1.5442 -0.403308 0
M  V30 3655 C 331.232 1.69694 1.08656 0
M  V30 3656 O 330.288 1.69373 1.87267 0
M  V30 3657 C 331.601 2.76555 -1.18058 0
M  V30 3658 C 333.149 2.90384 -1.16815 0
M  V30 3659 C 333.624 4.15449 -1.92785 0
M  V30 3660 N 335.115 4.22475 -1.89918 0
M  V30 3661 C 335.85 5.1818 -2.45514 0
M  V30 3662 N 335.346 6.19714 -3.09719 0
M  V30 3663 N 337.139 5.1035 -2.35584 0
M  V30 3664 H 329.29 1.28089 -1.69431 0
M  V30 3665 H 331.553 0.620327 -0.716867 0
M  V30 3666 H 331.259 2.7159 -2.23455 0
M  V30 3667 H 331.133 3.69033 -0.780662 0
M  V30 3668 H 333.52 2.94846 -0.12234 0
M  V30 3669 H 333.601 1.98988 -1.6074 0
M  V30 3670 H 333.245 4.11749 -2.97364 0
M  V30 3671 H 333.175 5.05877 -1.46272 0
M  V30 3672 H 335.666 3.49743 -1.43138 0
M  V30 3673 H 335.979 6.8919 -3.49625 0
M  V30 3674 H 334.324 6.20121 -3.13807 0
M  V30 3675 H 337.515 4.2996 -1.85072 0
M  V30 3676 H 337.688 5.84761 -2.79211 0
M  V30 3677 N 331.094 0.475555 1.50254 0
M  V30 3678 C 332.343 -0.0795996 2.01543 0
M  V30 3679 C 332.656 -1.4038 1.36209 0
M  V30 3680 O 333.862 -2.04415 1.7868 0
M  V30 3681 C 332.318 -0.192363 3.59386 0
M  V30 3682 C 331.926 1.12367 4.33679 0
M  V30 3683 C 333.67 -0.699238 4.18701 0
M  V30 3684 C 331.577 0.974453 5.83317 0
M  V30 3685 H 330.507 -0.0335228 0.753254 0
M  V30 3686 H 333.158 0.611128 1.73025 0
M  V30 3687 H 331.54 -0.946974 3.84511 0
M  V30 3688 H 332.714 1.88958 4.20276 0
M  V30 3689 H 331.029 1.562 3.85993 0
M  V30 3690 H 333.626 -0.827978 5.28251 0
M  V30 3691 H 333.969 -1.69171 3.80377 0
M  V30 3692 H 334.502 -0.00188807 3.978 0
M  V30 3693 H 331.241 1.94042 6.26121 0
M  V30 3694 H 330.761 0.248998 5.99283 0
M  V30 3695 H 332.44 0.642867 6.43798 0
M  V30 3696 N 332.573 -1.56217 0.208337 0
M  V30 3697 C 333.85 -1.89739 -0.475234 0
M  V30 3698 C 334.23 -1.1238 -1.78701 0
M  V30 3699 O 333.578 -0.228979 -2.2735 0
M  V30 3700 C 333.788 -3.42289 -0.681101 0
M  V30 3701 C 335.136 -4.12789 -0.994507 0
M  V30 3702 O 336.16 -3.47814 -0.768357 0
M  V30 3703 O 335.019 -5.27649 -1.42299 0
M  V30 3704 H 332.113 -0.788478 -0.249461 0
M  V30 3705 H 334.659 -1.67855 0.249538 0
M  V30 3706 H 333.431 -3.90534 0.244722 0
M  V30 3707 H 333.054 -3.69909 -1.45785 0
M  V30 3708 N 334.051 0.0651679 -1.57465 0
M  V30 3709 C 335.299 0.761555 -1.87202 0
M  V30 3710 C 335.62 1.77778 -0.801243 0
M  V30 3711 O 334.89 1.95166 0.16937 0
M  V30 3712 H 333.47 0.284251 -0.690804 0
M  V30 3713 H 336.132 0.0396827 -1.9486 0
M  V30 3714 H 335.228 1.27365 -2.84929 0
M  V30 3715 N 335.529 1.53961 0.336706 0
M  V30 3716 C 336.477 1.83136 1.43401 0
M  V30 3717 C 337.471 0.702313 1.54156 0
M  V30 3718 O 338.677 0.885765 1.56698 0
M  V30 3719 H 335.052 0.580309 0.478273 0
M  V30 3720 H 337.023 2.74925 1.16012 0
M  V30 3721 C 335.772 2.06385 2.79822 0
M  V30 3722 H 335.095 2.92718 2.72316 0
M  V30 3723 H 336.535 2.30761 3.55704 0
M  V30 3724 C 334.994 0.851414 3.25964 0
M  V30 3725 O 335.524 0.0541904 4.01663 0
M  V30 3726 N 333.73 0.66672 2.82848 0
M  V30 3727 H 333.277 1.31665 2.21409 0
M  V30 3728 H 333.235 -0.143032 3.14074 0
M  V30 3729 N 337.007 -0.598083 1.45811 0
M  V30 3730 C 337.937 -1.71873 1.58057 0
M  V30 3731 C 338.918 -1.64533 0.431615 0
M  V30 3732 O 340.103 -1.82787 0.65595 0
M  V30 3733 C 337.233 -3.10495 1.55597 0
M  V30 3734 C 336.187 -3.32654 2.69305 0
M  V30 3735 C 335.513 -4.71646 2.51902 0
M  V30 3736 C 336.813 -3.21981 4.11248 0
M  V30 3737 H 338.507 -1.61881 2.51863 0
M  V30 3738 H 336.053 -0.777372 1.21214 0
M  V30 3739 H 338.006 -3.88699 1.6276 0
M  V30 3740 H 336.73 -3.2135 0.583255 0
M  V30 3741 H 335.389 -2.56843 2.61586 0
M  V30 3742 H 335.037 -4.79246 1.52748 0
M  V30 3743 H 334.737 -4.87426 3.2816 0
M  V30 3744 H 336.261 -5.52038 2.60933 0
M  V30 3745 H 337.675 -3.90049 4.20161 0
M  V30 3746 H 336.072 -3.49289 4.87972 0
M  V30 3747 H 337.142 -2.1928 4.32486 0
M  V30 3748 N 338.485 -1.33259 -0.841409 0
M  V30 3749 C 339.731 -1.24757 -1.59886 0
M  V30 3750 C 340.064 0.186913 -1.93298 0
M  V30 3751 O 339.339 1.12757 -1.5848 0
M  V30 3752 C 339.622 -2.12036 -2.91055 0
M  V30 3753 C 339.475 -3.63929 -2.6434 0
M  V30 3754 C 340.794 -1.9916 -3.92458 0
M  V30 3755 H 337.913 -0.454542 -0.580138 0
M  V30 3756 H 340.555 -1.63335 -0.970647 0
M  V30 3757 H 338.705 -1.79265 -3.44669 0
M  V30 3758 H 340.377 -4.06978 -2.17178 0
M  V30 3759 H 338.62 -3.85935 -1.98082 0
M  V30 3760 H 339.291 -4.20341 -3.57796 0
M  V30 3761 H 341.767 -2.27895 -3.48143 0
M  V30 3762 H 340.643 -2.62484 -4.82072 0
M  V30 3763 H 340.904 -0.963082 -4.31482 0
M  V30 3764 N 339.963 1.05934 -1.16686 0
M  V30 3765 C 340.91 2.13499 -0.876748 0
M  V30 3766 C 341.88 1.65162 0.176299 0
M  V30 3767 O 343.065 1.90757 0.0407143 0
M  V30 3768 C 340.205 3.42912 -0.387967 0
M  V30 3769 C 339.318 4.04964 -1.50426 0
M  V30 3770 C 338.453 5.22266 -0.970125 0
M  V30 3771 C 337.492 5.76309 -2.06238 0
M  V30 3772 N 336.629 6.84922 -1.54356 0
M  V30 3773 H 341.469 2.37654 -1.7979 0
M  V30 3774 H 339.006 1.16598 -0.896843 0
M  V30 3775 H 340.964 4.17111 -0.086186 0
M  V30 3776 H 339.594 3.18963 0.496235 0
M  V30 3777 H 338.646 3.28277 -1.92193 0
M  V30 3778 H 339.958 4.41122 -2.32836 0
M  V30 3779 H 339.112 6.03506 -0.621743 0
M  V30 3780 H 337.851 4.87564 -0.115377 0
M  V30 3781 H 336.856 4.93704 -2.41942 0
M  V30 3782 H 338.081 6.13062 -2.92115 0
M  V30 3783 H 336.027 6.52131 -0.711406 0
M  V30 3784 H 335.944 7.20043 -2.30379 0
M  V30 3785 H 337.212 7.69832 -1.22387 0
M  V30 3786 N 341.441 0.965919 1.2453 0
M  V30 3787 C 342.371 0.513476 2.27784 0
M  V30 3788 C 343.352 -0.445974 1.6415 0
M  V30 3789 O 344.537 -0.342485 1.91156 0
M  V30 3790 C 341.667 -0.198839 3.4673 0
M  V30 3791 C 340.621 0.676456 4.2262 0
M  V30 3792 C 339.947 -0.167248 5.34438 0
M  V30 3793 C 341.247 1.96017 4.84123 0
M  V30 3794 H 342.941 1.3765 2.65881 0
M  V30 3795 H 340.487 0.663321 1.27813 0
M  V30 3796 H 342.44 -0.526567 4.18097 0
M  V30 3797 H 341.164 -1.0962 3.07654 0
M  V30 3798 H 339.823 0.98743 3.53052 0
M  V30 3799 H 339.471 -1.0647 4.91603 0
M  V30 3800 H 339.171 0.415181 5.86131 0
M  V30 3801 H 340.695 -0.489688 6.08633 0
M  V30 3802 H 342.109 1.69814 5.47573 0
M  V30 3803 H 340.506 2.48918 5.4604 0
M  V30 3804 H 341.576 2.65622 4.05676 0
M  V30 3805 N 342.919 -1.39368 0.735821 0
M  V30 3806 C 343.867 -2.32443 0.0855131 0
M  V30 3807 C 344.861 -1.53104 -0.724954 0
M  V30 3808 O 346.067 -1.68762 -0.626047 0
M  V30 3809 H 342.442 -0.751948 0.00885257 0
M  V30 3810 H 344.413 -2.84916 0.886883 0
M  V30 3811 C 343.162 -3.38206 -0.806983 0
M  V30 3812 H 342.485 -3.99335 -0.19274 0
M  V30 3813 H 343.925 -4.05779 -1.2296 0
M  V30 3814 C 342.384 -2.75321 -1.94165 0
M  V30 3815 O 342.914 -2.63231 -3.03435 0
M  V30 3816 N 341.12 -2.33396 -1.73132 0
M  V30 3817 H 340.667 -2.4343 -0.842596 0
M  V30 3818 H 340.625 -1.91661 -2.49225 0
M  V30 3819 N 344.397 -0.483516 -1.5 0
M  V30 3820 C 345.627 0.0643896 -2.065 0
M  V30 3821 C 346.035 1.32949 -1.34615 0
M  V30 3822 O 345.378 1.79003 -0.412756 0
M  V30 3823 C 345.44 0.405983 -3.572 0
M  V30 3824 C 345.104 -0.758875 -4.50655 0
M  V30 3825 C 346.101 -1.64445 -4.93208 0
M  V30 3826 C 343.786 -0.952725 -4.93182 0
M  V30 3827 C 345.78 -2.70818 -5.77006 0
M  V30 3828 C 343.467 -2.01966 -5.76761 0
M  V30 3829 C 344.465 -2.89574 -6.18576 0
M  V30 3830 O 344.153 -3.94429 -7.00486 0
M  V30 3831 H 343.885 -0.00934786 -0.675935 0
M  V30 3832 H 346.439 -0.674959 -1.93993 0
M  V30 3833 H 344.669 1.19869 -3.67652 0
M  V30 3834 H 346.358 0.890433 -3.96013 0
M  V30 3835 H 347.124 -1.50643 -4.61012 0
M  V30 3836 H 343.003 -0.280247 -4.60147 0
M  V30 3837 H 346.547 -3.3923 -6.09565 0
M  V30 3838 H 342.444 -2.1577 -6.0837 0
M  V30 3839 H 343.212 -3.91568 -7.1876 0
M  V30 3840 N 345.875 1.56104 -0.216619 0
M  V30 3841 C 347.291 1.58995 0.13886 0
M  V30 3842 C 347.491 1.23333 1.59346 0
M  V30 3843 O 346.547 0.966234 2.33281 0
M  V30 3844 C 347.86 3.00143 -0.182968 0
M  V30 3845 C 349.408 3.12751 -0.124807 0
M  V30 3846 C 349.883 4.56068 -0.420241 0
M  V30 3847 N 351.374 4.61723 -0.369634 0
M  V30 3848 C 352.109 5.70542 -0.571789 0
M  V30 3849 N 351.605 6.87744 -0.835453 0
M  V30 3850 N 353.398 5.59831 -0.504563 0
M  V30 3851 H 345.549 1.77562 -1.16557 0
M  V30 3852 H 347.812 0.825091 -0.466828 0
M  V30 3853 H 347.518 3.30871 -1.19237 0
M  V30 3854 H 347.392 3.73813 0.504367 0
M  V30 3855 H 349.779 2.81822 0.875223 0
M  V30 3856 H 349.86 2.41421 -0.845544 0
M  V30 3857 H 349.504 4.87713 -1.41769 0
M  V30 3858 H 349.434 5.25617 0.321631 0
M  V30 3859 H 351.925 3.77502 -0.173338 0
M  V30 3860 H 352.238 7.66587 -0.977938 0
M  V30 3861 H 350.583 6.895 -0.872592 0
M  V30 3862 H 353.774 4.67145 -0.298842 0
M  V30 3863 H 353.947 6.44573 -0.665519 0
M  V30 3864 N 347.353 -0.0568162 1.57498 0
M  V30 3865 C 348.263 -1.08346 2.08083 0
M  V30 3866 C 349.279 -1.41439 1.01346 0
M  V30 3867 O 350.455 -1.51316 1.32912 0
M  V30 3868 C 347.52 -2.37352 2.52715 0
M  V30 3869 C 346.581 -2.11093 3.73816 0
M  V30 3870 C 345.814 -3.33949 4.1631 0
M  V30 3871 O 346.037 -4.43622 3.58547 0
M  V30 3872 O 344.971 -3.21279 5.08983 0
M  V30 3873 H 348.797 -0.683667 2.95905 0
M  V30 3874 H 346.382 -0.271965 1.46904 0
M  V30 3875 H 348.264 -3.13246 2.81877 0
M  V30 3876 H 346.939 -2.76681 1.68016 0
M  V30 3877 H 345.846 -1.32856 3.49714 0
M  V30 3878 H 347.179 -1.76637 4.59413 0
M  V30 3879 N 348.832 -1.54138 -0.328536 0
M  V30 3880 C 349.795 -1.82462 -1.38709 0
M  V30 3881 C 350.795 -0.696229 -1.44946 0
M  V30 3882 O 351.985 -0.964535 -1.4506 0
M  V30 3883 C 349.117 -1.98018 -2.77492 0
M  V30 3884 H 350.31 -2.77037 -1.14851 0
M  V30 3885 H 347.863 -1.45779 -0.563751 0
M  V30 3886 H 348.598 -1.05637 -3.06613 0
M  V30 3887 H 348.383 -2.80124 -2.74359 0
M  V30 3888 H 349.873 -2.21396 -3.54081 0
M  V30 3889 N 350.31 0.590341 -1.46126 0
M  V30 3890 C 351.22 1.72793 -1.58681 0
M  V30 3891 C 352.236 1.67516 -0.470566 0
M  V30 3892 O 353.412 1.87562 -0.733642 0
M  V30 3893 C 350.477 3.09287 -1.5666 0
M  V30 3894 C 349.538 3.25886 -2.79458 0
M  V30 3895 C 348.771 4.55869 -2.77524 0
M  V30 3896 O 348.994 5.3928 -1.85832 0
M  V30 3897 O 347.928 4.75552 -3.68964 0
M  V30 3898 H 351.754 1.65149 -2.54872 0
M  V30 3899 H 349.339 0.756486 -1.28832 0
M  V30 3900 H 351.221 3.90577 -1.58202 0
M  V30 3901 H 349.896 3.17385 -0.636271 0
M  V30 3902 H 348.803 2.44119 -2.83472 0
M  V30 3903 H 350.136 3.22675 -3.71674 0
M  V30 3904 N 351.788 1.33704 0.83433 0
M  V30 3905 C 352.736 1.24323 1.96587 0
M  V30 3906 C 353.73 0.143659 1.6879 0
M  V30 3907 O 354.936 0.30791 1.77347 0
M  V30 3908 H 351.311 0.385925 0.645419 0
M  V30 3909 H 353.282 2.19978 2.01624 0
M  V30 3910 C 352.031 1.00394 3.32891 0
M  V30 3911 H 351.354 1.84231 3.54822 0
M  V30 3912 H 352.794 0.97862 4.12552 0
M  V30 3913 C 351.253 -0.293047 3.35623 0
M  V30 3914 O 351.783 -1.29823 3.80143 0
M  V30 3915 N 349.989 -0.322174 2.88809 0
M  V30 3916 H 349.536 0.496379 2.52772 0
M  V30 3917 H 349.494 -1.18977 2.91019 0
M  V30 3918 N 353.266 -1.05314 1.17247 0
M  V30 3919 C 354.515 -1.77685 0.954521 0
M  V30 3920 C 354.828 -1.88616 -0.518025 0
M  V30 3921 O 356.034 -2.57714 -0.854144 0
M  V30 3922 C 354.49 -3.19402 1.65863 0
M  V30 3923 C 354.098 -3.16605 3.16963 0
M  V30 3924 C 355.842 -3.96237 1.52303 0
M  V30 3925 C 353.749 -4.53103 3.80068 0
M  V30 3926 H 352.679 -0.666 0.353496 0
M  V30 3927 H 355.33 -1.1805 1.40486 0
M  V30 3928 H 353.712 -3.79355 1.13602 0
M  V30 3929 H 354.886 -2.66176 3.76148 0
M  V30 3930 H 353.201 -2.53268 3.30521 0
M  V30 3931 H 355.798 -4.97157 1.96822 0
M  V30 3932 H 356.141 -4.136 0.473401 0
M  V30 3933 H 356.674 -3.42829 2.01775 0
M  V30 3934 H 353.413 -4.40946 4.85023 0
M  V30 3935 H 352.933 -5.03686 3.2567 0
M  V30 3936 H 354.612 -5.22045 3.82202 0
M  V30 3937 N 354.744 -0.972509 -1.24016 0
M  V30 3938 C 355.692 -0.498562 -2.27194 0
M  V30 3939 C 356.686 0.440372 -1.63576 0
M  V30 3940 O 357.892 0.315133 -1.7722 0
M  V30 3941 H 354.267 -0.142775 -0.738322 0
M  V30 3942 H 356.238 -1.38065 -2.64539 0
M  V30 3943 C 354.987 0.191072 -3.47175 0
M  V30 3944 H 354.31 -0.522318 -3.96373 0
M  V30 3945 H 355.75 0.486445 -4.212 0
M  V30 3946 C 354.209 1.41967 -3.05527 0
M  V30 3947 O 354.739 2.51642 -3.13112 0
M  V30 3948 N 352.945 1.28746 -2.60524 0
M  V30 3949 H 352.492 0.395089 -2.54552 0
M  V30 3950 H 352.45 2.11061 -2.33025 0
M  V30 3951 N 356.222 1.38976 -0.743202 0
M  V30 3952 C 357.452 2.04339 -0.304807 0
M  V30 3953 C 357.86 1.56162 1.06819 0
M  V30 3954 O 357.203 0.725284 1.68776 0
M  V30 3955 C 357.265 3.58716 -0.237369 0
M  V30 3956 C 356.929 4.29905 -1.55018 0
M  V30 3957 C 357.926 4.55987 -2.49744 0
M  V30 3958 C 355.611 4.68294 -1.81675 0
M  V30 3959 C 357.605 5.19478 -3.69353 0
M  V30 3960 C 355.292 5.31512 -3.0156 0
M  V30 3961 C 356.29 5.57037 -3.9522 0
M  V30 3962 O 355.978 6.18941 -5.12998 0
M  V30 3963 H 355.71 0.663439 -0.12971 0
M  V30 3964 H 358.264 1.78852 -1.01001 0
M  V30 3965 H 356.494 3.83133 0.524003 0
M  V30 3966 H 358.183 4.05543 0.170121 0
M  V30 3967 H 358.949 4.26767 -2.30423 0
M  V30 3968 H 354.828 4.47779 -1.09615 0
M  V30 3969 H 358.372 5.39318 -4.42473 0
M  V30 3970 H 354.269 5.60153 -3.20778 0
M  V30 3971 H 355.037 6.37433 -5.13441 0
M  V30 3972 N 357.7 0.491464 1.49741 0
M  V30 3973 C 358.949 -0.0582189 2.01616 0
M  V30 3974 C 359.262 -1.38927 1.3769 0
M  V30 3975 O 360.468 -2.02509 1.80838 0
M  V30 3976 C 358.924 -0.154235 3.59569 0
M  V30 3977 C 358.532 1.1696 4.32463 0
M  V30 3978 C 360.276 -0.65479 4.1942 0
M  V30 3979 C 358.183 1.03627 5.8225 0
M  V30 3980 H 357.113 -0.0255317 0.753568 0
M  V30 3981 H 359.764 0.629445 1.72367 0
M  V30 3982 H 358.146 -0.906138 3.85493 0
M  V30 3983 H 359.32 1.93405 4.18248 0
M  V30 3984 H 357.635 1.60285 3.84315 0
M  V30 3985 H 360.232 -0.771903 5.29099 0
M  V30 3986 H 360.575 -1.65127 3.8215 0
M  V30 3987 H 361.108 0.040304 3.9778 0
M  V30 3988 H 357.847 2.00672 6.24028 0
M  V30 3989 H 357.367 0.312546 5.98985 0
M  V30 3990 H 359.046 0.711114 6.4308 0
M  V30 3991 N 359.178 -1.55987 0.224894 0
M  V30 3992 C 360.141 -2.19178 -0.670348 0
M  V30 3993 C 361.141 -1.15461 -1.11917 0
M  V30 3994 O 362.331 -1.40675 -1.02743 0
M  V30 3995 C 359.463 -2.81777 -1.9187 0
M  V30 3996 H 360.656 -2.99662 -0.119364 0
M  V30 3997 H 358.209 -1.5628 -0.0247128 0
M  V30 3998 H 358.944 -2.05172 -2.51147 0
M  V30 3999 H 358.729 -3.57732 -1.60531 0
M  V30 4000 H 360.219 -3.30205 -2.55645 0
M  V30 4001 N 360.656 0.0484629 -1.57525 0
M  V30 4002 C 361.588 1.08222 -2.02041 0
M  V30 4003 C 362.601 1.33621 -0.930012 0
M  V30 4004 O 363.79 1.3145 -1.20761 0
M  V30 4005 C 360.89 2.42818 -2.36416 0
M  V30 4006 C 360.063 2.37049 -3.67596 0
M  V30 4007 C 359.122 3.53937 -3.89378 0
M  V30 4008 O 358.148 3.34308 -4.60681 0
M  V30 4009 N 359.35 4.75126 -3.3352 0
M  V30 4010 H 362.115 0.702946 -2.9134 0
M  V30 4011 H 359.676 0.236745 -1.6016 0
M  V30 4012 H 361.668 3.197 -2.48141 0
M  V30 4013 H 360.238 2.72661 -1.52888 0
M  V30 4014 H 359.458 1.45395 -3.66407 0
M  V30 4015 H 360.746 2.30318 -4.53686 0
M  V30 4016 H 360.144 4.93976 -2.75688 0
M  V30 4017 H 358.701 5.49439 -3.50656 0
M  V30 4018 N 362.134 1.5431 0.320358 0
M  V30 4019 C 363.381 1.72668 1.05792 0
M  V30 4020 C 363.709 0.502084 1.87908 0
M  V30 4021 O 362.964 -0.516149 1.88771 0
M  V30 4022 C 363.263 2.95639 2.00828 0
M  V30 4023 C 362.929 4.30265 1.34843 0
M  V30 4024 C 361.591 4.66865 1.16578 0
M  V30 4025 C 363.943 5.13801 0.875095 0
M  V30 4026 C 361.271 5.84597 0.496336 0
M  V30 4027 C 363.623 6.32219 0.219463 0
M  V30 4028 C 362.287 6.67495 0.0246915 0
M  V30 4029 H 361.557 0.631837 0.387121 0
M  V30 4030 H 364.204 1.88552 0.334735 0
M  V30 4031 H 362.509 2.74456 2.79609 0
M  V30 4032 H 364.206 3.07038 2.57932 0
M  V30 4033 H 360.796 4.01472 1.50061 0
M  V30 4034 H 364.98 4.86039 1.00398 0
M  V30 4035 H 360.236 6.10486 0.334264 0
M  V30 4036 H 364.41 6.96227 -0.155291 0
M  V30 4037 H 362.037 7.5858 -0.496065 0
M  V30 4038 N 363.613 -0.582584 1.46437 0
M  V30 4039 C 364.859 -1.34064 1.52965 0
M  V30 4040 C 365.214 -1.91566 0.178968 0
M  V30 4041 O 364.507 -1.73526 -0.812365 0
M  V30 4042 C 364.701 -2.48964 2.56421 0
M  V30 4043 C 364.53 -2.02717 4.01417 0
M  V30 4044 C 363.3 -1.87728 4.69134 0
M  V30 4045 C 365.498 -1.58675 4.8921 0
M  V30 4046 N 363.48 -1.35554 5.98747 0
M  V30 4047 C 364.851 -1.18093 6.08649 0
M  V30 4048 C 366.906 -1.46494 4.75861 0
M  V30 4049 C 365.609 -0.665427 7.16215 0
M  V30 4050 C 367.635 -0.96347 5.83499 0
M  V30 4051 C 366.997 -0.567432 7.02111 0
M  V30 4052 H 363.096 -0.483551 0.614575 0
M  V30 4053 H 365.68 -0.663309 1.83053 0
M  V30 4054 H 363.851 -3.1426 2.28244 0
M  V30 4055 H 365.583 -3.15913 2.52944 0
M  V30 4056 H 362.338 -2.09678 4.24655 0
M  V30 4057 H 362.762 -1.11628 6.67734 0
M  V30 4058 H 367.404 -1.75731 3.8455 0
M  V30 4059 H 365.122 -0.360639 8.07295 0
M  V30 4060 H 368.708 -0.873129 5.75211 0
M  V30 4061 H 367.588 -0.185389 7.83981 0
M  V30 4062 N 365.091 -1.34144 -0.827227 0
M  V30 4063 C 366.339 -1.26009 -1.58007 0
M  V30 4064 C 366.66 0.170971 -1.94249 0
M  V30 4065 O 365.93 1.10256 -1.61927 0
M  V30 4066 H 364.51 -0.463414 -0.585881 0
M  V30 4067 H 367.172 -1.68005 -0.987951 0
M  V30 4068 H 366.268 -1.86187 -2.50481 0
M  V30 4069 N 366.569 1.04691 -1.17803 0
M  V30 4070 C 367.517 2.14665 -0.895635 0
M  V30 4071 C 368.511 1.68806 0.141679 0
M  V30 4072 O 369.717 1.79999 -0.00587914 0
M  V30 4073 H 366.092 0.701038 -0.272121 0
M  V30 4074 H 368.063 2.35685 -1.83017 0
M  V30 4075 C 366.812 3.45019 -0.430962 0
M  V30 4076 H 366.135 3.8071 -1.22064 0
M  V30 4077 H 367.575 4.23125 -0.272301 0
M  V30 4078 C 366.034 3.25943 0.852207 0
M  V30 4079 O 366.564 3.5296 1.91786 0
M  V30 4080 N 364.77 2.79304 0.802346 0
M  V30 4081 H 364.317 2.57518 -0.0650788 0
M  V30 4082 H 364.275 2.66921 1.66134 0
M  V30 4083 N 368.047 0.979072 1.23499 0
M  V30 4084 C 368.994 0.517904 2.24914 0
M  V30 4085 C 369.964 -0.442525 1.60097 0
M  V30 4086 O 371.149 -0.350365 1.87556 0
M  V30 4087 C 368.289 -0.174813 3.44657 0
M  V30 4088 C 367.402 0.825721 4.24035 0
M  V30 4089 C 366.537 0.107946 5.3109 0
M  V30 4090 C 365.576 1.09778 6.02175 0
M  V30 4091 N 364.713 0.40925 7.00906 0
M  V30 4092 H 369.553 1.38751 2.63727 0
M  V30 4093 H 367.09 0.695303 1.2963 0
M  V30 4094 H 369.048 -0.593233 4.12961 0
M  V30 4095 H 367.678 -1.0083 3.06648 0
M  V30 4096 H 366.73 1.36253 3.55161 0
M  V30 4097 H 368.042 1.58005 4.73113 0
M  V30 4098 H 367.196 -0.367904 6.05583 0
M  V30 4099 H 365.935 -0.678994 4.8295 0
M  V30 4100 H 364.94 1.5844 5.26476 0
M  V30 4101 H 366.165 1.88536 6.52404 0
M  V30 4102 H 364.111 -0.358506 6.5502 0
M  V30 4103 H 364.028 1.10226 7.47921 0
M  V30 4104 H 365.296 -0.0442557 7.79487 0
M  V30 4105 N 369.525 -1.3858 0.750561 0
M  V30 4106 C 370.936 -1.82927 0.373438 0
M  V30 4107 C 371.287 -1.62634 -1.09748 0
M  V30 4108 O 370.412 -1.12588 -1.84805 0
M  V30 4109 C 371.007 -3.32088 0.671029 0
M  V30 4110 C 369.566 -3.74795 0.34722 0
M  V30 4111 C 368.713 -2.61391 0.92575 0
M  V30 4112 H 371.664 -1.27351 0.946958 0
M  V30 4113 H 371.685 -3.80465 -0.0518269 0
M  V30 4114 H 371.197 -3.46826 1.74164 0
M  V30 4115 H 369.298 -3.65638 -0.716933 0
M  V30 4116 H 369.411 -4.71667 0.840656 0
M  V30 4117 H 367.775 -2.52265 0.351327 0
M  V30 4118 H 368.558 -2.78929 2.00133 0
M  V30 4119 N 371.003 -0.499398 -1.49478 0
M  V30 4120 C 371.913 0.284489 -2.32869 0
M  V30 4121 C 372.929 0.968885 -1.44529 0
M  V30 4122 O 374.105 0.95062 -1.77553 0
M  V30 4123 C 371.17 1.33594 -3.19928 0
M  V30 4124 C 370.231 0.665149 -4.24116 0
M  V30 4125 C 369.464 1.6665 -5.07014 0
M  V30 4126 O 369.687 2.89618 -4.91404 0
M  V30 4127 O 368.621 1.22271 -5.8935 0
M  V30 4128 H 372.447 -0.39802 -3.01081 0
M  V30 4129 H 370.032 -0.260758 -1.47107 0
M  V30 4130 H 371.914 1.94431 -3.73864 0
M  V30 4131 H 370.589 2.0014 -2.54412 0
M  V30 4132 H 369.496 0.0170769 -3.74096 0
M  V30 4133 H 370.829 0.0421555 -4.92182 0
M  V30 4134 N 372.481 1.55866 -0.233164 0
M  V30 4135 C 373.728 1.98603 0.395374 0
M  V30 4136 C 374.056 1.12105 1.58942 0
M  V30 4137 O 373.311 0.168656 1.94972 0
M  V30 4138 C 373.61 3.46856 0.861724 0
M  V30 4139 C 373.276 4.50348 -0.223066 0
M  V30 4140 C 371.938 4.78371 -0.521038 0
M  V30 4141 C 374.29 5.12355 -0.956124 0
M  V30 4142 C 371.618 5.6568 -1.55638 0
M  V30 4143 C 373.97 6.00786 -1.98089 0
M  V30 4144 C 372.634 6.27148 -2.28565 0
M  V30 4145 H 371.904 0.726739 0.144677 0
M  V30 4146 H 374.551 1.88491 -0.338114 0
M  V30 4147 H 372.856 3.5423 1.67418 0
M  V30 4148 H 374.553 3.77302 1.35809 0
M  V30 4149 H 371.143 4.28596 0.0193234 0
M  V30 4150 H 375.327 4.90765 -0.739166 0
M  V30 4151 H 370.583 5.84365 -1.798 0
M  V30 4152 H 374.757 6.4788 -2.55391 0
M  V30 4153 H 372.384 6.94597 -3.08932 0
M  V30 4154 N 373.959 -0.0401083 1.57549 0
M  V30 4155 C 374.907 -1.06264 2.06908 0
M  V30 4156 C 375.901 -1.38132 0.980608 0
M  V30 4157 O 377.107 -1.37167 1.16556 0
M  V30 4158 H 373.482 -0.360166 0.660139 0
M  V30 4159 H 375.453 -0.620445 2.91878 0
M  V30 4160 C 374.202 -2.35846 2.55483 0
M  V30 4161 H 373.525 -2.12183 3.38849 0
M  V30 4162 H 374.965 -3.05765 2.93741 0
M  V30 4163 C 373.424 -3.0404 1.45126 0
M  V30 4164 O 373.954 -3.93424 0.811216 0
M  V30 4165 N 372.16 -2.65184 1.18852 0
M  V30 4166 H 371.707 -1.92584 1.71083 0
M  V30 4167 H 371.665 -3.1113 0.452244 0
M  V30 4168 N 375.437 -1.54477 -0.31217 0
M  V30 4169 C 376.4 -1.83923 -1.36766 0
M  V30 4170 C 377.4 -0.711563 -1.44199 0
M  V30 4171 O 378.59 -0.979866 -1.44029 0
M  V30 4172 C 375.722 -2.0095 -2.75376 0
M  V30 4173 H 376.915 -2.78239 -1.11906 0
M  V30 4174 H 374.468 -1.46369 -0.548257 0
M  V30 4175 H 375.203 -1.08883 -3.05475 0
M  V30 4176 H 374.988 -2.83018 -2.71373 0
M  V30 4177 H 376.478 -2.2514 -3.51713 0
M  V30 4178 N 376.915 0.57481 -1.46744 0
M  V30 4179 C 378.145 1.35659 -1.55821 0
M  V30 4180 C 378.553 1.88129 -0.201036 0
M  V30 4181 O 377.896 1.64723 0.813134 0
M  V30 4182 C 377.958 2.57473 -2.50894 0
M  V30 4183 C 377.622 2.26415 -3.9697 0
M  V30 4184 C 378.619 1.84771 -4.85958 0
M  V30 4185 C 376.304 2.38316 -4.42166 0
M  V30 4186 C 378.298 1.55434 -6.18158 0
M  V30 4187 C 375.985 2.08591 -5.74398 0
M  V30 4188 C 376.983 1.67216 -6.62214 0
M  V30 4189 O 376.671 1.37859 -7.91991 0
M  V30 4190 H 376.403 0.420496 -0.529301 0
M  V30 4191 H 378.957 0.704967 -1.92923 0
M  V30 4192 H 377.187 3.25468 -2.08824 0
M  V30 4193 H 378.876 3.19546 -2.50291 0
M  V30 4194 H 379.642 1.75085 -4.52295 0
M  V30 4195 H 375.521 2.69483 -3.74032 0
M  V30 4196 H 379.065 1.23065 -6.86659 0
M  V30 4197 H 374.962 2.17905 -6.07608 0
M  V30 4198 H 375.73 1.51638 -8.04331 0
M  V30 4199 N 378.394 1.34581 0.820102 0
M  V30 4200 C 379.341 1.2639 1.93117 0
M  V30 4201 C 380.311 0.138554 1.65521 0
M  V30 4202 O 381.496 0.320004 1.88097 0
M  V30 4203 C 378.636 1.02812 3.29429 0
M  V30 4204 C 377.749 2.24146 3.693 0
M  V30 4205 C 376.884 1.93829 4.94574 0
M  V30 4206 C 375.923 3.1129 5.27034 0
M  V30 4207 N 375.06 2.80838 6.43486 0
M  V30 4208 H 379.9 2.21408 1.99455 0
M  V30 4209 H 377.437 1.10077 0.975784 0
M  V30 4210 H 379.395 0.871788 4.0799 0
M  V30 4211 H 378.025 0.114612 3.22596 0
M  V30 4212 H 377.077 2.50691 2.86109 0
M  V30 4213 H 378.389 3.11899 3.89257 0
M  V30 4214 H 377.543 1.74948 5.80929 0
M  V30 4215 H 376.282 1.03341 4.76626 0
M  V30 4216 H 375.287 3.30764 4.39175 0
M  V30 4217 H 376.512 4.02561 5.4692 0
M  V30 4218 H 374.458 1.92929 6.26988 0
M  V30 4219 H 374.375 3.62123 6.63629 0
M  V30 4220 H 375.643 2.65467 7.32903 0
M  V30 4221 N 379.872 -1.04064 1.18357 0
M  V30 4222 C 381.102 -1.80654 1.00238 0
M  V30 4223 C 381.51 -1.83713 -0.452362 0
M  V30 4224 O 380.853 -1.27135 -1.32599 0
M  V30 4225 C 380.915 -3.27582 1.48088 0
M  V30 4226 C 380.579 -3.48184 2.96002 0
M  V30 4227 C 381.576 -3.39372 3.93856 0
M  V30 4228 C 379.261 -3.7478 3.34433 0
M  V30 4229 C 381.255 -3.5686 5.28138 0
M  V30 4230 C 378.942 -3.91915 4.68877 0
M  V30 4231 C 379.94 -3.82956 5.65539 0
M  V30 4232 O 379.628 -3.996 6.97549 0
M  V30 4233 H 379.36 -0.575751 0.354241 0
M  V30 4234 H 381.914 -1.32044 1.57333 0
M  V30 4235 H 380.144 -3.77161 0.853588 0
M  V30 4236 H 381.833 -3.8573 1.2636 0
M  V30 4237 H 382.599 -3.18789 3.65511 0
M  V30 4238 H 378.478 -3.80852 2.59756 0
M  V30 4239 H 382.022 -3.49783 6.03571 0
M  V30 4240 H 377.919 -4.11992 4.96923 0
M  V30 4241 H 378.687 -4.1676 7.04452 0
M  V30 4242 N 381.35 -0.985608 -1.22978 0
M  V30 4243 C 382.627 -0.573599 -1.87001 0
M  V30 4244 C 383.007 0.949213 -1.88555 0
M  V30 4245 O 382.355 1.82811 -1.37086 0
M  V30 4246 C 382.565 -1.18564 -3.28243 0
M  V30 4247 C 383.913 -1.28163 -4.04796 0
M  V30 4248 O 384.937 -1.13949 -3.37482 0
M  V30 4249 O 383.796 -1.50832 -5.25273 0
M  V30 4250 H 380.89 -0.193868 -0.803955 0
M  V30 4251 H 383.436 -1.08102 -1.30813 0
M  V30 4252 H 382.208 -2.22758 -3.21706 0
M  V30 4253 H 381.831 -0.663363 -3.92027 0
M  V30 4254 N 382.828 1.3818 -0.7579 0
M  V30 4255 C 384.075 2.00019 -0.315985 0
M  V30 4256 C 384.403 1.60163 1.10355 0
M  V30 4257 O 383.658 0.83264 1.77103 0
M  V30 4258 C 383.957 3.55252 -0.391218 0
M  V30 4259 C 383.623 4.14834 -1.76702 0
M  V30 4260 C 382.285 4.30821 -2.14353 0
M  V30 4261 C 384.637 4.47658 -2.66931 0
M  V30 4262 C 381.965 4.76928 -3.41696 0
M  V30 4263 C 384.317 4.95184 -3.93669 0
M  V30 4264 C 382.981 5.09377 -4.31383 0
M  V30 4265 H 382.251 0.731923 -0.115627 0
M  V30 4266 H 384.898 1.65161 -0.969223 0
M  V30 4267 H 383.203 3.90273 0.34558 0
M  V30 4268 H 384.9 4.00988 -0.030805 0
M  V30 4269 H 381.49 4.02808 -1.46435 0
M  V30 4270 H 385.674 4.34904 -2.39106 0
M  V30 4271 H 380.93 4.86103 -3.70829 0
M  V30 4272 H 385.104 5.19551 -4.63724 0
M  V30 4273 H 382.731 5.44865 -5.30119 0
M  V30 4274 N 384.306 0.507319 1.49211 0
M  V30 4275 C 385.534 -0.0315749 2.06876 0
M  V30 4276 C 385.949 -1.30241 1.36685 0
M  V30 4277 O 385.306 -1.76937 0.447152 0
M  V30 4278 C 385.357 -0.282627 3.60393 0
M  V30 4279 O 385.078 0.937835 4.27944 0
M  V30 4280 C 386.579 -0.864453 4.3479 0
M  V30 4281 H 383.799 0.0233048 0.670595 0
M  V30 4282 H 386.343 0.706484 1.91909 0
M  V30 4283 H 384.498 -0.97068 3.75042 0
M  V30 4284 H 384.912 0.704567 5.19746 0
M  V30 4285 H 386.386 -0.989664 5.43056 0
M  V30 4286 H 386.863 -1.86382 3.97692 0
M  V30 4287 H 387.469 -0.213672 4.24763 0
M  V30 4288 N 385.784 -1.5574 0.241426 0
M  V30 4289 C 387.009 -2.0366 -0.392111 0
M  V30 4290 C 387.434 -1.11969 -1.51144 0
M  V30 4291 O 386.792 -0.111594 -1.80956 0
M  V30 4292 C 386.84 -3.49638 -0.882371 0
M  V30 4293 O 385.944 -3.6108 -1.99235 0
M  V30 4294 H 385.285 -0.658379 -0.0862122 0
M  V30 4295 H 387.815 -2.01302 0.365881 0
M  V30 4296 H 387.825 -3.90351 -1.18702 0
M  V30 4297 H 386.5 -4.15852 -0.0632361 0
M  V30 4298 H 385.077 -3.32262 -1.69282 0
M  V30 4299 N 387.262 0.0317525 -1.57568 0
M  V30 4300 C 388.172 1.05021 -2.0978 0
M  V30 4301 C 389.188 1.39809 -1.03583 0
M  V30 4302 O 390.364 1.49182 -1.35302 0
M  V30 4303 C 387.429 2.33301 -2.56459 0
M  V30 4304 C 386.49 2.0512 -3.77127 0
M  V30 4305 C 385.723 3.27283 -4.2157 0
M  V30 4306 O 385.946 4.37861 -3.65559 0
M  V30 4307 O 384.88 3.13141 -5.14029 0
M  V30 4308 H 388.706 0.636505 -2.96955 0
M  V30 4309 H 386.291 0.248559 -1.47318 0
M  V30 4310 H 388.173 3.08722 -2.86825 0
M  V30 4311 H 386.848 2.73973 -1.72397 0
M  V30 4312 H 385.755 1.27276 -3.51784 0
M  V30 4313 H 387.088 1.69305 -4.62165 0
M  V30 4314 N 388.74 1.54641 0.303973 0
M  V30 4315 C 390.017 1.64455 1.05896 0
M  V30 4316 C 390.397 0.490923 2.05312 0
M  V30 4317 O 389.745 -0.512685 2.22674 0
M  V30 4318 C 389.955 3.02331 1.74347 0
M  V30 4319 C 391.303 3.59045 2.26653 0
M  V30 4320 O 392.327 3.04764 1.84384 0
M  V30 4321 O 391.186 4.54081 3.04093 0
M  V30 4322 H 388.28 0.666729 0.489287 0
M  V30 4323 H 390.826 1.66986 0.302298 0
M  V30 4324 H 389.598 3.77734 1.02142 0
M  V30 4325 H 389.221 3.03565 2.56777 0
M  V30 4326 N 390.218 -0.567019 1.47046 0
M  V30 4327 C 391.495 -1.3276 1.43646 0
M  V30 4328 C 391.875 -2.1071 0.128186 0
M  V30 4329 O 391.223 -2.10441 -0.890326 0
M  V30 4330 C 391.433 -2.2404 2.67595 0
M  V30 4331 C 392.781 -2.85372 3.14401 0
M  V30 4332 O 393.805 -2.34346 2.68254 0
M  V30 4333 O 392.664 -3.78091 3.946 0
M  V30 4334 H 389.758 -0.597293 0.571988 0
M  V30 4335 H 392.304 -0.586735 1.59234 0
M  V30 4336 H 391.076 -1.65975 3.54356 0
M  V30 4337 H 390.699 -3.05439 2.54544 0
M  V30 4338 N 391.696 -1.35014 -0.812953 0
M  V30 4339 C 392.643 -1.27412 -1.92444 0
M  V30 4340 C 393.613 -0.14733 -1.65445 0
M  V30 4341 O 394.798 -0.329974 -1.87925 0
M  V30 4342 C 391.938 -1.04558 -3.28879 0
M  V30 4343 C 391.051 -2.26101 -3.68106 0
M  V30 4344 C 390.186 -1.96449 -4.9354 0
M  V30 4345 C 389.225 -3.14081 -5.25376 0
M  V30 4346 N 388.362 -2.84246 -6.41988 0
M  V30 4347 H 393.202 -2.22463 -1.98278 0
M  V30 4348 H 390.739 -1.10593 -0.969933 0
M  V30 4349 H 392.697 -0.893413 -4.07522 0
M  V30 4350 H 391.327 -0.131719 -3.22531 0
M  V30 4351 H 390.379 -2.52204 -2.84775 0
M  V30 4352 H 391.691 -3.13959 -3.87597 0
M  V30 4353 H 390.845 -1.78026 -5.79993 0
M  V30 4354 H 389.584 -1.05867 -4.76071 0
M  V30 4355 H 388.589 -3.33089 -4.37415 0
M  V30 4356 H 389.814 -4.05455 -5.44778 0
M  V30 4357 H 387.76 -1.96252 -6.25956 0
M  V30 4358 H 387.677 -3.65637 -6.61699 0
M  V30 4359 H 388.945 -2.6935 -7.31485 0
M  V30 4360 N 393.175 1.03435 -1.18907 0
M  V30 4361 C 394.122 2.11591 -0.921837 0
M  V30 4362 C 395.092 1.65499 0.141226 0
M  V30 4363 O 396.277 1.908 0.000242829 0
M  V30 4364 C 393.417 3.42012 -0.460616 0
M  V30 4365 C 392.53 4.01682 -1.58982 0
M  V30 4366 C 391.665 5.20091 -1.08069 0
M  V30 4367 C 390.704 5.71805 -2.18416 0
M  V30 4368 N 389.841 6.81494 -1.68849 0
M  V30 4369 H 394.681 2.33787 -1.8479 0
M  V30 4370 H 392.218 1.1467 -0.921373 0
M  V30 4371 H 394.176 4.16834 -0.174642 0
M  V30 4372 H 392.806 3.19944 0.428467 0
M  V30 4373 H 391.858 3.24127 -1.99113 0
M  V30 4374 H 393.17 4.36084 -2.4214 0
M  V30 4375 H 392.324 6.02051 -0.749615 0
M  V30 4376 H 391.063 4.87209 -0.218771 0
M  V30 4377 H 390.068 4.88461 -2.5236 0
M  V30 4378 H 391.293 6.06728 -3.05054 0
M  V30 4379 H 389.239 6.50475 -0.849572 0
M  V30 4380 H 389.156 7.14994 -2.45601 0
M  V30 4381 H 390.424 7.67063 -1.38689 0
M  V30 4382 N 394.653 0.992116 1.22453 0
M  V30 4383 C 395.878 0.685644 1.95739 0
M  V30 4384 C 396.303 -0.743 1.72804 0
M  V30 4385 O 395.661 -1.50778 1.00676 0
M  V30 4386 C 395.709 0.996293 3.46564 0
M  V30 4387 O 394.813 0.0945512 4.12292 0
M  V30 4388 H 394.154 0.256694 0.612376 0
M  V30 4389 H 396.684 1.32888 1.5557 0
M  V30 4390 H 396.694 0.93781 3.97076 0
M  V30 4391 H 395.369 2.03733 3.62582 0
M  V30 4392 H 393.946 0.208451 3.72317 0
M  V30 4393 N 396.131 -1.37776 0.765217 0
M  V30 4394 C 397.378 -1.99849 0.326588 0
M  V30 4395 C 397.706 -1.60746 -1.09504 0
M  V30 4396 O 396.961 -0.84202 -1.76659 0
M  V30 4397 C 397.26 -3.5504 0.410053 0
M  V30 4398 C 396.926 -4.13891 1.78899 0
M  V30 4399 C 395.588 -4.29678 2.16635 0
M  V30 4400 C 397.94 -4.46236 2.69301 0
M  V30 4401 C 395.268 -4.7511 3.44221 0
M  V30 4402 C 397.62 -4.93089 3.9629 0
M  V30 4403 C 396.284 -5.07082 4.34078 0
M  V30 4404 H 395.554 -0.7313 0.119507 0
M  V30 4405 H 398.201 -1.64645 0.977968 0
M  V30 4406 H 396.506 -3.90451 -0.324878 0
M  V30 4407 H 398.203 -4.00966 0.0520699 0
M  V30 4408 H 394.793 -4.02026 1.48569 0
M  V30 4409 H 398.977 -4.3363 2.41409 0
M  V30 4410 H 394.233 -4.84129 3.73402 0
M  V30 4411 H 398.407 -5.17084 4.66472 0
M  V30 4412 H 396.034 -5.42046 5.33001 0
M  V30 4413 N 397.609 -0.515225 -1.4894 0
M  V30 4414 C 398.856 0.024215 -2.02486 0
M  V30 4415 C 399.184 1.35671 -1.39368 0
M  V30 4416 O 398.439 1.88566 -0.523574 0
M  V30 4417 C 398.738 0.210595 -3.56779 0
M  V30 4418 C 398.404 -1.04569 -4.38607 0
M  V30 4419 C 397.066 -1.39002 -4.60686 0
M  V30 4420 C 399.418 -1.88008 -4.86109 0
M  V30 4421 C 396.746 -2.568 -5.27514 0
M  V30 4422 C 399.098 -3.04972 -5.54234 0
M  V30 4423 C 397.762 -3.39768 -5.74555 0
M  V30 4424 H 397.032 0.00886088 -0.740947 0
M  V30 4425 H 399.679 -0.678263 -1.79086 0
M  V30 4426 H 397.984 0.99572 -3.78936 0
M  V30 4427 H 399.681 0.642659 -3.95817 0
M  V30 4428 H 396.271 -0.767497 -4.21672 0
M  V30 4429 H 400.455 -1.62719 -4.68867 0
M  V30 4430 H 395.711 -2.8398 -5.41447 0
M  V30 4431 H 399.885 -3.69943 -5.90013 0
M  V30 4432 H 397.512 -4.31148 -6.26112 0
M  V30 4433 N 399.087 1.5561 -0.249682 0
M  V30 4434 C 400.034 2.21496 0.648694 0
M  V30 4435 C 401.004 1.17977 1.16921 0
M  V30 4436 O 402.189 1.46434 1.22318 0
M  V30 4437 C 399.329 2.92039 1.83868 0
M  V30 4438 C 398.442 4.10219 1.35442 0
M  V30 4439 C 397.577 4.6847 2.50419 0
M  V30 4440 C 396.616 5.78893 1.98869 0
M  V30 4441 N 395.753 6.31315 3.07223 0
M  V30 4442 H 400.593 2.97892 0.0801582 0
M  V30 4443 H 398.13 1.47074 0.0278031 0
M  V30 4444 H 400.088 3.31138 2.53778 0
M  V30 4445 H 398.718 2.18111 2.37965 0
M  V30 4446 H 397.77 3.76413 0.54928 0
M  V30 4447 H 399.082 4.89927 0.936649 0
M  V30 4448 H 398.236 5.10158 3.28366 0
M  V30 4449 H 396.975 3.87984 2.95499 0
M  V30 4450 H 395.98 5.3668 1.19393 0
M  V30 4451 H 397.205 6.61232 1.54755 0
M  V30 4452 H 395.151 5.53733 3.51732 0
M  V30 4453 H 395.068 7.06224 2.69784 0
M  V30 4454 H 396.336 6.77662 3.8522 0
M  V30 4455 N 400.565 -0.0233959 1.57583 0
M  V30 4456 C 401.842 -0.748794 1.807 0
M  V30 4457 C 402.222 -1.9327 0.849106 0
M  V30 4458 O 401.57 -2.28247 -0.107468 0
M  V30 4459 C 401.78 -1.17651 3.28571 0
M  V30 4460 C 403.128 -1.59008 3.93702 0
M  V30 4461 O 404.152 -1.27094 3.32755 0
M  V30 4462 O 403.011 -2.18264 5.01022 0
M  V30 4463 H 400.105 -0.362578 0.743281 0
M  V30 4464 H 402.651 0.000261958 1.697 0
M  V30 4465 H 401.423 -0.331603 3.89892 0
M  V30 4466 H 401.046 -1.98541 3.44481 0
M  V30 4467 N 402.043 -1.548 -0.295768 0
M  V30 4468 C 403.289 -1.75517 -1.02789 0
M  V30 4469 C 403.644 -0.537266 -1.84746 0
M  V30 4470 O 402.937 0.470299 -1.85738 0
M  V30 4471 C 403.131 -2.98797 -1.961 0
M  V30 4472 C 402.96 -4.3246 -1.23321 0
M  V30 4473 C 401.73 -4.96131 -0.95822 0
M  V30 4474 C 403.928 -5.10365 -0.635024 0
M  V30 4475 N 401.91 -6.1357 -0.201257 0
M  V30 4476 C 403.281 -6.19999 -0.0110937 0
M  V30 4477 C 405.336 -4.94957 -0.540594 0
M  V30 4478 C 404.039 -7.15904 0.698136 0
M  V30 4479 C 406.065 -5.91197 0.154992 0
M  V30 4480 C 405.427 -7.00203 0.767752 0
M  V30 4481 H 401.526 -0.694786 -0.358882 0
M  V30 4482 H 404.11 -1.92281 -0.305943 0
M  V30 4483 H 402.281 -2.83448 -2.6554 0
M  V30 4484 H 404.013 -3.08017 -2.62502 0
M  V30 4485 H 400.768 -4.56595 -1.25771 0
M  V30 4486 H 401.192 -6.76802 0.16389 0
M  V30 4487 H 405.834 -4.10803 -1.00003 0
M  V30 4488 H 403.552 -7.99595 1.16933 0
M  V30 4489 H 407.138 -5.81353 0.228069 0
M  V30 4490 H 406.018 -7.73393 1.29743 0
M  V30 4491 N 403.521 0.559213 -1.47345 0
M  V30 4492 C 404.453 1.68161 -1.55738 0
M  V30 4493 C 405.466 1.56636 -0.443744 0
M  V30 4494 O 406.655 1.6363 -0.713258 0
M  V30 4495 C 403.755 3.06611 -1.4437 0
M  V30 4496 C 402.928 3.4391 -2.70268 0
M  V30 4497 C 401.987 4.61515 -2.52765 0
M  V30 4498 O 401.013 4.66197 -3.26572 0
M  V30 4499 N 402.215 5.57883 -1.6046 0
M  V30 4500 H 404.98 1.61408 -2.52522 0
M  V30 4501 H 402.541 0.7458 -1.43699 0
M  V30 4502 H 404.533 3.83117 -1.30398 0
M  V30 4503 H 403.103 3.07602 -0.556766 0
M  V30 4504 H 402.323 2.56873 -2.99015 0
M  V30 4505 H 403.611 3.65605 -3.53851 0
M  V30 4506 H 403.009 5.56855 -0.996422 0
M  V30 4507 H 401.566 6.33723 -1.52441 0
M  V30 4508 N 404.999 1.35443 0.805782 0
M  V30 4509 C 405.931 1.24285 1.92577 0
M  V30 4510 C 406.944 0.165962 1.61952 0
M  V30 4511 O 408.133 0.419303 1.73505 0
M  V30 4512 C 405.233 0.891272 3.2697 0
M  V30 4513 C 404.406 2.06669 3.85495 0
M  V30 4514 C 403.465 1.69077 4.98297 0
M  V30 4515 O 402.491 2.4096 5.15681 0
M  V30 4516 N 403.693 0.614869 5.77234 0
M  V30 4517 H 406.458 2.20777 2.02676 0
M  V30 4518 H 404.019 1.28623 0.983243 0
M  V30 4519 H 406.011 0.621256 3.99903 0
M  V30 4520 H 404.581 0.016004 3.12596 0
M  V30 4521 H 403.801 2.50046 3.04747 0
M  V30 4522 H 405.089 2.85237 4.21328 0
M  V30 4523 H 404.487 0.017648 5.65697 0
M  V30 4524 H 403.044 0.404636 6.50543 0
M  V30 4525 N 406.477 -1.02803 1.19454 0
M  V30 4526 C 407.707 -1.79581 1.02149 0
M  V30 4527 C 408.115 -1.84182 -0.432851 0
M  V30 4528 O 407.458 -1.28534 -1.31243 0
M  V30 4529 C 407.52 -3.25993 1.51554 0
M  V30 4530 C 407.184 -3.45025 2.99678 0
M  V30 4531 C 408.181 -3.35175 3.97434 0
M  V30 4532 C 405.866 -3.71212 3.38389 0
M  V30 4533 C 407.86 -3.51238 5.31893 0
M  V30 4534 C 405.547 -3.8692 4.73008 0
M  V30 4535 C 406.545 -3.76936 5.69569 0
M  V30 4536 O 406.233 -3.92179 7.01748 0
M  V30 4537 H 405.965 -0.571962 0.360327 0
M  V30 4538 H 408.519 -1.30367 1.58725 0
M  V30 4539 H 406.749 -3.76235 0.893543 0
M  V30 4540 H 408.438 -3.84368 1.30444 0
M  V30 4541 H 409.204 -3.14895 3.68872 0
M  V30 4542 H 405.083 -3.78075 2.6378 0
M  V30 4543 H 408.627 -3.43362 6.07247 0
M  V30 4544 H 404.524 -4.06699 5.01265 0
M  V30 4545 H 405.292 -4.09265 7.08833 0
M  V30 4546 N 407.956 -0.998596 -1.21925 0
M  V30 4547 C 409.186 -0.695276 -1.94549 0
M  V30 4548 C 409.594 0.745079 -1.73911 0
M  V30 4549 O 408.937 1.51507 -1.03881 0
M  V30 4550 C 408.999 -0.928485 -3.47303 0
M  V30 4551 C 408.663 -2.35443 -3.91683 0
M  V30 4552 C 409.66 -3.33428 -3.98901 0
M  V30 4553 C 407.345 -2.69038 -4.24174 0
M  V30 4554 C 409.339 -4.63079 -4.37992 0
M  V30 4555 C 407.026 -3.98906 -4.62944 0
M  V30 4556 C 408.024 -4.95738 -4.69822 0
M  V30 4557 O 407.712 -6.23285 -5.07711 0
M  V30 4558 H 407.444 -0.255902 -0.625692 0
M  V30 4559 H 409.998 -1.33767 -1.5587 0
M  V30 4560 H 408.228 -0.228917 -3.86022 0
M  V30 4561 H 409.917 -0.619539 -4.01144 0
M  V30 4562 H 410.683 -3.08807 -3.73983 0
M  V30 4563 H 406.562 -1.94367 -4.18022 0
M  V30 4564 H 410.106 -5.38658 -4.43275 0
M  V30 4565 H 406.003 -4.23314 -4.87314 0
M  V30 4566 H 406.771 -6.27306 -5.25766 0
M  V30 4567 N 409.434 1.37368 -0.772513 0
M  V30 4568 C 410.659 2.0447 -0.347386 0
M  V30 4569 C 411.084 1.57882 1.0225 0
M  V30 4570 O 410.442 0.73941 1.65537 0
M  V30 4571 C 410.49 3.58369 -0.400479 0
M  V30 4572 O 409.594 4.0803 0.598789 0
M  V30 4573 H 408.935 0.646773 -0.15027 0
M  V30 4574 H 411.465 1.75667 -1.04892 0
M  V30 4575 H 411.475 4.07183 -0.258045 0
M  V30 4576 H 410.15 3.91633 -1.39986 0
M  V30 4577 H 408.727 3.70534 0.419411 0
M  V30 4578 N 410.912 0.523116 1.48665 0
M  V30 4579 C 411.86 -0.256859 2.31177 0
M  V30 4580 C 412.854 -0.94199 1.40794 0
M  V30 4581 O 414.06 -0.867157 1.57735 0
M  V30 4582 H 410.435 -0.1017 0.745091 0
M  V30 4583 H 412.406 0.458739 2.94853 0
M  V30 4584 C 411.155 -1.29503 3.22683 0
M  V30 4585 H 410.478 -0.777248 3.92172 0
M  V30 4586 H 411.918 -1.81233 3.83315 0
M  V30 4587 C 410.377 -2.32501 2.43813 0
M  V30 4588 O 410.907 -3.3881 2.15803 0
M  V30 4589 N 409.113 -2.05538 2.05432 0
M  V30 4590 H 408.66 -1.19104 2.28412 0
M  V30 4591 H 408.618 -2.74676 1.52973 0
M  V30 4592 N 412.39 -1.55475 0.257931 0
M  V30 4593 C 413.636 -1.99502 -0.364266 0
M  V30 4594 C 413.969 -1.146 -1.56782 0
M  V30 4595 O 413.244 -0.211968 -1.93342 0
M  V30 4596 C 413.527 -3.51917 -0.763333 0
M  V30 4597 C 413.38 -4.4758 0.446371 0
M  V30 4598 C 414.699 -4.09742 -1.60623 0
M  V30 4599 H 411.818 -0.725277 -0.130929 0
M  V30 4600 H 414.46 -1.8653 0.361446 0
M  V30 4601 H 412.61 -3.63101 -1.38166 0
M  V30 4602 H 414.282 -4.48362 1.08487 0
M  V30 4603 H 412.525 -4.19947 1.08753 0
M  V30 4604 H 413.196 -5.51862 0.123645 0
M  V30 4605 H 415.672 -4.01727 -1.08418 0
M  V30 4606 H 414.548 -5.16631 -1.85429 0
M  V30 4607 H 414.809 -3.58889 -2.58169 0
M  V30 4608 N 413.868 0.0150385 -1.57593 0
M  V30 4609 C 414.816 1.02958 -2.08572 0
M  V30 4610 C 415.81 1.36554 -1.00246 0
M  V30 4611 O 417.016 1.35295 -1.18724 0
M  V30 4612 H 413.391 0.349619 -0.665786 0
M  V30 4613 H 415.362 0.573932 -2.92829 0
M  V30 4614 C 414.111 2.31752 -2.59203 0
M  V30 4615 H 413.434 2.06765 -3.42182 0
M  V30 4616 H 414.874 3.01053 -2.98568 0
M  V30 4617 C 413.333 3.01692 -1.49945 0
M  V30 4618 O 413.863 3.92083 -0.873704 0
M  V30 4619 N 412.069 2.6326 -1.23056 0
M  V30 4620 H 411.616 1.89838 -1.74125 0
M  V30 4621 H 411.574 3.10372 -0.501685 0
M  V30 4622 N 415.346 1.54954 0.287554 0
M  V30 4623 C 416.571 1.79209 1.04397 0
M  V30 4624 C 416.996 0.556431 1.79682 0
M  V30 4625 O 416.354 -0.493518 1.74454 0
M  V30 4626 C 416.402 3.00739 1.98969 0
M  V30 4627 O 415.506 2.74805 3.075 0
M  V30 4628 H 414.847 0.592755 0.299227 0
M  V30 4629 H 417.377 2.02068 0.320886 0
M  V30 4630 H 417.387 3.29077 2.4119 0
M  V30 4631 H 416.062 3.90329 1.43582 0
M  V30 4632 H 414.639 2.57523 2.69697 0
M  V30 4633 N 416.824 -0.551391 1.4764 0
M  V30 4634 C 417.774 -1.65362 1.56969 0
M  V30 4635 C 418.758 -1.55098 0.428189 0
M  V30 4636 O 419.95 -1.63481 0.678441 0
M  V30 4637 C 417.079 -3.04129 1.59249 0
M  V30 4638 C 416.165 -3.19576 2.78804 0
M  V30 4639 N 416.556 -3.05067 4.03445 0
M  V30 4640 C 414.854 -3.50588 2.75688 0
M  V30 4641 C 415.555 -3.2336 4.83543 0
M  V30 4642 N 414.531 -3.4996 4.15968 0
M  V30 4643 H 418.333 -1.52722 2.51104 0
M  V30 4644 H 415.847 -0.756303 1.43714 0
M  V30 4645 H 417.844 -3.83278 1.64024 0
M  V30 4646 H 416.504 -3.17877 0.662148 0
M  V30 4647 H 417.515 -2.82273 4.34215 0
M  V30 4648 H 414.192 -3.70827 1.91817 0
M  V30 4649 H 415.582 -3.17061 5.92387 0
M  V30 4650 N 418.302 -1.35869 -0.798587 0
M  V30 4651 C 419.249 -1.29446 -1.91082 0
M  V30 4652 C 420.219 -0.16487 -1.6528 0
M  V30 4653 O 421.404 -0.349888 -1.87564 0
M  V30 4654 C 418.544 -1.0804 -3.27752 0
M  V30 4655 C 417.657 -2.29993 -3.65687 0
M  V30 4656 C 416.792 -2.01673 -4.91428 0
M  V30 4657 C 415.831 -3.19636 -5.22015 0
M  V30 4658 N 414.968 -2.91039 -6.38937 0
M  V30 4659 H 419.808 -2.24553 -1.95907 0
M  V30 4660 H 417.345 -1.11615 -0.958148 0
M  V30 4661 H 419.303 -0.936586 -4.06551 0
M  V30 4662 H 417.933 -0.16592 -3.22373 0
M  V30 4663 H 416.985 -2.55211 -2.82085 0
M  V30 4664 H 418.297 -3.18052 -3.84245 0
M  V30 4665 H 417.451 -1.84168 -5.78072 0
M  V30 4666 H 416.19 -1.10911 -4.74921 0
M  V30 4667 H 415.195 -3.37709 -4.33858 0
M  V30 4668 H 416.42 -4.11211 -5.40447 0
M  V30 4669 H 414.366 -2.0288 -6.2384 0
M  V30 4670 H 414.283 -3.72635 -6.57784 0
M  V30 4671 H 415.551 -2.77093 -7.28587 0
M  V30 4672 N 419.78 1.02168 -1.19998 0
M  V30 4673 C 421.005 1.79833 -1.03319 0
M  V30 4674 C 421.43 1.83504 0.413281 0
M  V30 4675 O 420.788 1.26635 1.29743 0
M  V30 4676 C 420.836 3.22396 -1.61533 0
M  V30 4677 O 419.94 4.03555 -0.849519 0
M  V30 4678 H 419.281 0.554872 -0.364709 0
M  V30 4679 H 421.811 1.28542 -1.59179 0
M  V30 4680 H 421.821 3.73124 -1.65054 0
M  V30 4681 H 420.496 3.19039 -2.66809 0
M  V30 4682 H 419.073 3.62169 -0.888129 0
M  V30 4683 N 421.258 1.00505 1.21394 0
M  V30 4684 C 422.505 0.687774 1.90462 0
M  V30 4685 C 422.833 -0.78147 1.7811 0
M  V30 4686 O 422.088 -1.58208 1.1519 0
M  V30 4687 C 422.387 1.0546 3.41486 0
M  V30 4688 C 422.053 2.51812 3.74034 0
M  V30 4689 C 420.715 2.91804 3.82628 0
M  V30 4690 C 423.067 3.46614 3.8924 0
M  V30 4691 C 420.395 4.2556 4.03876 0
M  V30 4692 C 422.747 4.80044 4.11995 0
M  V30 4693 C 421.411 5.19759 4.18816 0
M  V30 4694 H 420.681 0.251674 0.696951 0
M  V30 4695 H 423.328 1.26349 1.43903 0
M  V30 4696 H 421.633 0.397133 3.89782 0
M  V30 4697 H 423.33 0.786976 3.93202 0
M  V30 4698 H 419.92 2.1982 3.67936 0
M  V30 4699 H 424.104 3.16883 3.81967 0
M  V30 4700 H 419.36 4.55901 4.07387 0
M  V30 4701 H 423.534 5.53439 4.22704 0
M  V30 4702 H 421.161 6.23418 4.35033 0
M  V30 4703 N 422.737 -1.36956 0.779787 0
M  V30 4704 C 423.965 -2.03755 0.359398 0
M  V30 4705 C 424.38 -1.58807 -1.02106 0
M  V30 4706 O 423.737 -0.773024 -1.6532 0
M  V30 4707 C 423.788 -3.59251 0.402568 0
M  V30 4708 O 423.509 -4.02557 1.72858 0
M  V30 4709 C 425.01 -4.43291 -0.0284068 0
M  V30 4710 H 422.23 -0.654148 0.149437 0
M  V30 4711 H 424.774 -1.75128 1.05595 0
M  V30 4712 H 422.929 -3.86621 -0.245478 0
M  V30 4713 H 423.343 -4.97111 1.67275 0
M  V30 4714 H 424.817 -5.51975 0.0529466 0
M  V30 4715 H 425.294 -4.25719 -1.07982 0
M  V30 4716 H 425.9 -4.21163 0.591758 0
M  V30 4717 N 424.215 -0.530993 -1.48385 0
M  V30 4718 C 425.443 -0.00134122 -2.069 0
M  V30 4719 C 425.858 1.2805 -1.3874 0
M  V30 4720 O 425.215 1.76204 -0.475244 0
M  V30 4721 C 425.266 0.225256 -3.60798 0
M  V30 4722 O 424.987 -1.0058 -4.26398 0
M  V30 4723 C 426.488 0.795172 -4.3611 0
M  V30 4724 H 423.708 -0.0339704 -0.67014 0
M  V30 4725 H 426.252 -0.736926 -1.90761 0
M  V30 4726 H 424.407 0.910891 -3.76539 0
M  V30 4727 H 424.821 -0.787165 -5.1856 0
M  V30 4728 H 426.295 0.903143 -5.44562 0
M  V30 4729 H 426.772 1.80031 -4.00606 0
M  V30 4730 H 427.378 0.146069 -4.25049 0
M  V30 4731 N 425.693 1.55336 -0.266172 0
M  V30 4732 C 426.921 2.03801 0.356756 0
M  V30 4733 C 427.336 1.14485 1.50129 0
M  V30 4734 O 426.693 0.163121 1.8177 0
M  V30 4735 C 426.744 3.51455 0.846281 0
M  V30 4736 O 426.465 4.37371 -0.252663 0
M  V30 4737 C 427.966 4.15767 1.53794 0
M  V30 4738 H 425.186 0.665906 0.0825218 0
M  V30 4739 H 427.73 2.00636 -0.39566 0
M  V30 4740 H 425.885 3.55092 1.54881 0
M  V30 4741 H 426.299 5.24358 0.122173 0
M  V30 4742 H 427.773 5.20714 1.83198 0
M  V30 4743 H 428.25 3.63404 2.46646 0
M  V30 4744 H 428.856 4.16107 0.879488 0
M  V30 4745 N 427.171 -0.0066808 1.57599 0
M  V30 4746 C 428.417 -0.693947 1.90558 0
M  V30 4747 C 428.75 -1.73792 0.866594 0
M  V30 4748 O 428.025 -1.94156 -0.115548 0
M  V30 4749 C 428.308 -1.34317 3.34112 0
M  V30 4750 C 428.161 -0.311189 4.48722 0
M  V30 4751 C 429.48 -2.27116 3.7697 0
M  V30 4752 H 426.599 -0.250803 0.693013 0
M  V30 4753 H 429.241 0.043242 1.89951 0
M  V30 4754 H 427.391 -1.9715 3.3476 0
M  V30 4755 H 429.063 0.316944 4.6021 0
M  V30 4756 H 427.306 0.367253 4.32243 0
M  V30 4757 H 427.977 -0.804366 5.46108 0
M  V30 4758 H 430.453 -1.74306 3.77831 0
M  V30 4759 H 429.329 -2.69511 4.78179 0
M  V30 4760 H 429.59 -3.14743 3.10466 0
M  V30 4761 N 428.649 -1.55105 -0.279332 0
M  V30 4762 C 429.559 -1.90638 -1.36727 0
M  V30 4763 C 430.575 -0.802899 -1.54368 0
M  V30 4764 O 431.751 -1.10138 -1.68616 0
M  V30 4765 C 428.816 -2.16547 -2.70755 0
M  V30 4766 C 427.877 -3.40146 -2.61915 0
M  V30 4767 C 427.11 -3.6481 -3.8955 0
M  V30 4768 O 427.333 -2.92095 -4.89935 0
M  V30 4769 O 426.267 -4.58343 -3.90135 0
M  V30 4770 H 430.093 -2.83237 -1.09591 0
M  V30 4771 H 427.678 -1.4157 -0.477306 0
M  V30 4772 H 429.56 -2.34665 -3.50014 0
M  V30 4773 H 428.235 -1.27131 -2.9769 0
M  V30 4774 H 427.142 -3.2737 -1.81052 0
M  V30 4775 H 428.475 -4.29761 -2.3993 0
M  V30 4776 N 430.127 0.543554 -1.4793 0
M  V30 4777 C 431.09 1.63156 -1.60975 0
M  V30 4778 C 432.09 1.53346 -0.483899 0
M  V30 4779 O 433.28 1.5726 -0.749339 0
M  V30 4780 C 430.412 3.02743 -1.56716 0
M  V30 4781 H 431.605 1.52934 -2.57975 0
M  V30 4782 H 429.158 0.764557 -1.36324 0
M  V30 4783 H 429.893 3.18484 -0.611418 0
M  V30 4784 H 429.678 3.11272 -2.38438 0
M  V30 4785 H 431.168 3.81871 -1.6901 0
M  V30 4786 N 431.605 1.3629 0.791371 0
M  V30 4787 C 432.535 1.33137 1.91825 0
M  V30 4788 C 433.516 0.203168 1.68882 0
M  V30 4789 O 434.701 0.400509 1.90025 0
M  V30 4790 C 431.831 1.11793 3.28816 0
M  V30 4791 C 430.785 2.21417 3.66277 0
M  V30 4792 C 430.111 1.85218 5.01596 0
M  V30 4793 C 431.411 3.63489 3.75064 0
M  V30 4794 H 433.105 2.2743 1.9472 0
M  V30 4795 H 430.651 1.09479 0.935437 0
M  V30 4796 H 432.604 1.08222 4.07266 0
M  V30 4797 H 431.328 0.139501 3.26302 0
M  V30 4798 H 429.987 2.2411 2.90121 0
M  V30 4799 H 429.635 0.859544 4.95602 0
M  V30 4800 H 429.335 2.58611 5.27631 0
M  V30 4801 H 430.859 1.832 5.82469 0
M  V30 4802 H 432.273 3.63034 4.43711 0
M  V30 4803 H 430.67 4.35771 4.12582 0
M  V30 4804 H 431.74 3.98536 2.76219 0
M  V30 4805 N 433.083 -1.0153 1.20538 0
M  V30 4806 C 434.36 -1.72327 0.925343 0
M  V30 4807 C 434.74 -2.03383 -0.565547 0
M  V30 4808 O 434.088 -1.69934 -1.52757 0
M  V30 4809 C 434.298 -2.9902 1.79967 0
M  V30 4810 C 435.646 -3.72258 2.04228 0
M  V30 4811 O 436.67 -3.08979 1.77231 0
M  V30 4812 O 435.529 -4.86053 2.4983 0
M  V30 4813 H 432.623 -0.751099 0.346092 0
M  V30 4814 H 435.169 -1.07366 1.31417 0
M  V30 4815 H 433.941 -2.72402 2.80915 0
M  V30 4816 H 433.564 -3.71721 1.41099 0
M  V30 4817 N 434.561 -1.01147 -1.20859 0
M  V30 4818 C 435.807 -0.698899 -1.90377 0
M  V30 4819 C 436.14 0.76904 -1.78324 0
M  V30 4820 O 435.415 1.55817 -1.16409 0
M  V30 4821 C 435.698 -1.12878 -3.41951 0
M  V30 4822 C 435.551 -2.65665 -3.62963 0
M  V30 4823 C 436.87 -0.696114 -4.3456 0
M  V30 4824 H 433.989 -0.255372 -0.691342 0
M  V30 4825 H 436.631 -1.25831 -1.42361 0
M  V30 4826 H 434.781 -0.652827 -3.82976 0
M  V30 4827 H 436.453 -3.21074 -3.31224 0
M  V30 4828 H 434.696 -3.06878 -3.06608 0
M  V30 4829 H 435.367 -2.90797 -4.69192 0
M  V30 4830 H 437.843 -1.10521 -4.01154 0
M  V30 4831 H 436.719 -1.025 -5.39245 0
M  V30 4832 H 436.98 0.402465 -4.40264 0
M  V30 4833 N 436.039 1.36541 -0.78704 0
M  V30 4834 C 437.269 2.03266 -0.369662 0
M  V30 4835 C 437.677 1.59481 1.01796 0
M  V30 4836 O 437.02 0.778612 1.66383 0
M  V30 4837 C 437.082 3.57779 -0.351371 0
M  V30 4838 C 436.746 4.24756 -1.68617 0
M  V30 4839 C 437.743 4.47811 -2.64124 0
M  V30 4840 C 435.428 4.62277 -1.96481 0
M  V30 4841 C 437.422 5.07464 -3.85693 0
M  V30 4842 C 435.109 5.21649 -3.18317 0
M  V30 4843 C 436.107 5.44182 -4.12741 0
M  V30 4844 O 435.795 6.02307 -5.32429 0
M  V30 4845 H 435.527 0.658977 -0.150751 0
M  V30 4846 H 438.081 1.75548 -1.0664 0
M  V30 4847 H 436.311 3.84606 0.401847 0
M  V30 4848 H 438 4.05879 0.0410147 0
M  V30 4849 H 438.766 4.19221 -2.43883 0
M  V30 4850 H 434.645 4.44065 -1.23805 0
M  V30 4851 H 438.189 5.24968 -4.59407 0
M  V30 4852 H 434.086 5.49664 -3.38437 0
M  V30 4853 H 434.854 6.20775 -5.33461 0
M  V30 4854 N 437.518 0.538854 1.48102 0
M  V30 4855 C 438.929 0.100679 1.86428 0
M  V30 4856 C 439.28 -1.32447 1.44749 0
M  V30 4857 O 438.405 -1.99339 0.842199 0
M  V30 4858 C 439 0.175933 3.38343 0
M  V30 4859 C 437.559 -0.207098 3.7583 0
M  V30 4860 C 436.706 0.531741 2.72154 0
M  V30 4861 H 439.657 0.749614 1.3988 0
M  V30 4862 H 439.678 -0.610144 3.75576 0
M  V30 4863 H 439.19 1.21328 3.68648 0
M  V30 4864 H 437.291 -1.24626 3.5114 0
M  V30 4865 H 437.404 0.138687 4.78899 0
M  V30 4866 H 435.768 -0.0230462 2.5469 0
M  V30 4867 H 436.551 1.56989 3.05302 0
M  V30 4868 N 438.996 -1.55193 0.274407 0
M  V30 4869 C 440.224 -2.03987 -0.345943 0
M  V30 4870 C 440.639 -1.15279 -1.4952 0
M  V30 4871 O 439.996 -0.172759 -1.8168 0
M  V30 4872 C 440.047 -3.51898 -0.827631 0
M  V30 4873 O 439.768 -4.37231 0.275855 0
M  V30 4874 C 441.269 -4.16577 -1.51587 0
M  V30 4875 H 438.489 -0.666335 -0.0789892 0
M  V30 4876 H 441.033 -2.00423 0.406294 0
M  V30 4877 H 439.188 -3.55909 -1.52996 0
M  V30 4878 H 439.602 -5.24415 -0.0943638 0
M  V30 4879 H 441.076 -5.21678 -1.80433 0
M  V30 4880 H 441.553 -3.64707 -2.44716 0
M  V30 4881 H 442.159 -4.16568 -0.857409 0
M  V30 4882 N 440.474 -0.00167713 -1.576 0
M  V30 4883 C 441.421 0.989195 -2.08527 0
M  V30 4884 C 442.391 1.34031 -0.981065 0
M  V30 4885 O 443.576 1.43839 -1.2536 0
M  V30 4886 C 440.716 2.27537 -2.59463 0
M  V30 4887 C 439.829 1.98314 -3.83791 0
M  V30 4888 C 438.964 3.21025 -4.23222 0
M  V30 4889 C 438.003 2.87495 -5.40382 0
M  V30 4890 N 437.14 4.02749 -5.75098 0
M  V30 4891 H 441.98 0.547973 -2.92919 0
M  V30 4892 H 439.517 0.258917 -1.44803 0
M  V30 4893 H 441.475 3.02729 -2.87073 0
M  V30 4894 H 440.105 2.69325 -1.77943 0
M  V30 4895 H 439.157 1.13482 -3.63078 0
M  V30 4896 H 440.469 1.69601 -4.69081 0
M  V30 4897 H 439.623 4.04561 -4.52123 0
M  V30 4898 H 438.362 3.52877 -3.36644 0
M  V30 4899 H 437.367 2.02367 -5.11202 0
M  V30 4900 H 438.592 2.56889 -6.28637 0
M  V30 4901 H 436.538 4.34494 -4.91478 0
M  V30 4902 H 436.455 3.77566 -6.54966 0
M  V30 4903 H 437.723 4.87068 -6.08592 0
M  V30 4904 N 441.952 1.55251 0.271103 0
M  V30 4905 C 443.363 1.66635 0.842007 0
M  V30 4906 C 443.714 0.594631 1.86972 0
M  V30 4907 O 442.839 -0.263532 2.14789 0
M  V30 4908 C 443.434 3.02082 1.53401 0
M  V30 4909 C 441.993 3.15487 2.05293 0
M  V30 4910 C 441.14 2.62438 0.895631 0
M  V30 4911 H 444.091 1.58629 0.0474117 0
M  V30 4912 H 444.112 2.95176 2.40107 0
M  V30 4913 H 443.624 3.80062 0.785786 0
M  V30 4914 H 441.725 2.42284 2.83071 0
M  V30 4915 H 441.838 4.22075 2.26693 0
M  V30 4916 H 440.202 2.19644 1.28953 0
M  V30 4917 H 440.985 3.42923 0.160878 0
M  V30 4918 N 443.43 -0.535701 1.48216 0
M  V30 4919 C 444.658 -1.31671 1.59594 0
M  V30 4920 C 445.073 -1.87083 0.254056 0
M  V30 4921 O 444.43 -1.66112 -0.755854 0
M  V30 4922 C 444.481 -2.47158 2.63809 0
M  V30 4923 O 444.202 -1.94032 3.92789 0
M  V30 4924 C 445.703 -3.39062 2.85573 0
M  V30 4925 H 442.923 -0.400623 0.538277 0
M  V30 4926 H 445.467 -0.646827 1.94001 0
M  V30 4927 H 443.622 -3.10043 2.32276 0
M  V30 4928 H 444.036 -2.69585 4.49916 0
M  V30 4929 H 445.51 -4.16459 3.62306 0
M  V30 4930 H 445.987 -3.93941 1.94184 0
M  V30 4931 H 446.593 -2.81975 3.18387 0
M  V30 4932 N 444.908 -1.36708 -0.784132 0
M  V30 4933 C 446.138 -1.34203 -1.57077 0
M  V30 4934 C 446.546 0.0774945 -1.89041 0
M  V30 4935 O 445.889 1.04628 -1.50992 0
M  V30 4936 C 445.951 -2.10351 -2.91535 0
M  V30 4937 C 445.615 -3.59405 -2.82272 0
M  V30 4938 C 446.612 -4.53545 -2.54151 0
M  V30 4939 C 444.297 -4.02362 -3.00683 0
M  V30 4940 C 446.291 -5.8862 -2.44551 0
M  V30 4941 C 443.978 -5.37526 -2.90704 0
M  V30 4942 C 444.976 -6.30468 -2.62677 0
M  V30 4943 O 444.664 -7.63149 -2.52702 0
M  V30 4944 H 444.396 -0.461791 -0.493685 0
M  V30 4945 H 446.95 -1.80475 -0.980712 0
M  V30 4946 H 445.18 -1.5875 -3.52612 0
M  V30 4947 H 446.869 -2.00636 -3.52845 0
M  V30 4948 H 447.635 -4.21669 -2.39625 0
M  V30 4949 H 443.514 -3.30389 -3.21503 0
M  V30 4950 H 447.058 -6.61133 -2.22596 0
M  V30 4951 H 442.955 -5.69008 -3.04795 0
M  V30 4952 H 443.723 -7.73331 -2.68144 0
M  V30 4953 N 446.386 1.0089 -1.21074 0
M  V30 4954 C 447.614 1.78191 -1.05145 0
M  V30 4955 C 448.029 1.84537 0.398952 0
M  V30 4956 O 447.386 1.30393 1.27687 0
M  V30 4957 C 447.437 3.22288 -1.63746 0
M  V30 4958 O 447.158 3.16315 -3.03111 0
M  V30 4959 C 448.659 4.16106 -1.52875 0
M  V30 4960 H 445.879 0.560129 -0.369454 0
M  V30 4961 H 448.423 1.26945 -1.60328 0
M  V30 4962 H 446.578 3.70655 -1.12664 0
M  V30 4963 H 446.992 4.06817 -3.31059 0
M  V30 4964 H 448.466 5.15026 -1.98626 0
M  V30 4965 H 448.943 4.36541 -0.482521 0
M  V30 4966 H 449.549 3.73625 -2.03185 0
M  V30 4967 N 447.864 1.01787 1.20321 0
M  V30 4968 C 449.113 0.703249 1.89043 0
M  V30 4969 C 449.426 -0.770445 1.79787 0
M  V30 4970 O 450.632 -1.19767 2.43656 0
M  V30 4971 C 449.088 1.20749 3.3904 0
M  V30 4972 C 448.696 2.70817 3.56878 0
M  V30 4973 C 450.44 0.968352 4.13308 0
M  V30 4974 C 448.347 3.14716 5.00708 0
M  V30 4975 H 447.277 0.259354 0.707991 0
M  V30 4976 H 449.928 1.23072 1.36108 0
M  V30 4977 H 448.31 0.607989 3.91305 0
M  V30 4978 H 449.484 3.36327 3.14993 0
M  V30 4979 H 447.799 2.92888 2.95983 0
M  V30 4980 H 450.396 1.27173 5.19356 0
M  V30 4981 H 450.739 -0.095149 4.16191 0
M  V30 4982 H 451.272 1.53129 3.67146 0
M  V30 4983 H 448.011 4.20347 5.02979 0
M  V30 4984 H 447.531 2.53927 5.43398 0
M  V30 4985 H 449.21 3.07426 5.69296 0
M  V30 4986 N 449.342 -1.36122 0.79427 0
M  V30 4987 C 450.619 -1.93398 0.292685 0
M  V30 4988 C 450.999 -1.72567 -1.21589 0
M  V30 4989 O 450.347 -1.08745 -2.00965 0
M  V30 4990 C 450.557 -3.42099 0.690614 0
M  V30 4991 C 451.905 -4.19231 0.673105 0
M  V30 4992 O 452.929 -3.50559 0.631389 0
M  V30 4993 O 451.788 -5.41732 0.720362 0
M  V30 4994 H 448.882 -0.823712 0.0736693 0
M  V30 4995 H 451.428 -1.45273 0.87714 0
M  V30 4996 H 450.2 -3.50938 1.73085 0
M  V30 4997 H 449.823 -3.97519 0.0803036 0
M  V30 4998 N 450.82 -0.546701 -1.47814 0
M  V30 4999 C 451.767 0.206854 -2.29871 0
M  V30 5000 C 452.737 0.918235 -1.38411 0
M  V30 5001 O 453.922 0.915991 -1.67375 0
M  V30 5002 C 451.062 1.23746 -3.22151 0
M  V30 5003 C 450.175 0.533216 -4.28697 0
M  V30 5004 C 449.31 1.5482 -5.08138 0
M  V30 5005 C 448.349 0.828347 -6.06469 0
M  V30 5006 N 447.486 1.78966 -6.78908 0
M  V30 5007 H 452.326 -0.499037 -2.93792 0
M  V30 5008 H 449.863 -0.25793 -1.44821 0
M  V30 5009 H 451.821 1.84746 -3.74065 0
M  V30 5010 H 450.451 1.91151 -2.60117 0
M  V30 5011 H 449.503 -0.191089 -3.7992 0
M  V30 5012 H 450.815 -0.0311987 -4.9879 0
M  V30 5013 H 449.969 2.23202 -5.6415 0
M  V30 5014 H 448.708 2.14652 -4.37922 0
M  V30 5015 H 447.713 0.130539 -5.49645 0
M  V30 5016 H 448.938 0.235907 -6.7869 0
M  V30 5017 H 446.884 2.37675 -6.1143 0
M  V30 5018 H 446.801 1.27712 -7.45135 0
M  V30 5019 H 448.069 2.46496 -7.395 0
M  V30 5020 N 452.299 1.55045 -0.282633 0
M  V30 5021 C 453.247 2.24254 0.617478 0
M  V30 5022 C 454.241 1.24215 1.15183 0
M  V30 5023 O 455.447 1.42123 1.10459 0
M  V30 5024 H 451.822 0.719801 0.217693 0
M  V30 5025 H 453.793 2.98398 0.0110076 0
M  V30 5026 C 452.542 2.98281 1.78672 0
M  V30 5027 H 451.865 3.75053 1.38475 0
M  V30 5028 H 453.305 3.50017 2.393 0
M  V30 5029 C 451.764 2.04184 2.67975 0
M  V30 5030 O 452.294 1.59792 3.6855 0
M  V30 5031 N 450.5 1.70526 2.35307 0
M  V30 5032 H 450.047 2.06821 1.53567 0
M  V30 5033 H 450.005 1.07839 2.95327 0
M  V30 5034 N 453.777 0.010035 1.57597 0
M  V30 5035 C 454.74 -0.963029 2.07986 0
M  V30 5036 C 455.74 -1.26619 0.991173 0
M  V30 5037 O 456.93 -1.2097 1.25347 0
M  V30 5038 C 454.062 -2.2851 2.52974 0
M  V30 5039 H 455.255 -0.526971 2.95234 0
M  V30 5040 H 452.808 -0.237639 1.54483 0
M  V30 5041 H 453.543 -2.76784 1.69 0
M  V30 5042 H 453.328 -2.07824 3.32493 0
M  V30 5043 H 454.818 -2.98294 2.9225 0
M  V30 5044 N 455.255 -1.55392 -0.262866 0
M  V30 5045 C 456.185 -1.91978 -1.32917 0
M  V30 5046 C 457.166 -0.7828 -1.51017 0
M  V30 5047 O 458.351 -1.04178 -1.63892 0
M  V30 5048 C 455.481 -2.20055 -2.68687 0
M  V30 5049 C 454.435 -3.35854 -2.65304 0
M  V30 5050 C 453.761 -3.49435 -4.04721 0
M  V30 5051 C 455.061 -4.71977 -2.23685 0
M  V30 5052 H 456.755 -2.81292 -1.02544 0
M  V30 5053 H 454.301 -1.3534 -0.491846 0
M  V30 5054 H 456.254 -2.44237 -3.43404 0
M  V30 5055 H 454.978 -1.27551 -3.00663 0
M  V30 5056 H 453.637 -3.11655 -1.93045 0
M  V30 5057 H 453.285 -2.54379 -4.33936 0
M  V30 5058 H 452.985 -4.27297 -4.0335 0
M  V30 5059 H 454.509 -3.7592 -4.81161 0
M  V30 5060 H 455.923 -4.95637 -2.88127 0
M  V30 5061 H 454.32 -5.52828 -2.33456 0
M  V30 5062 H 455.39 -4.70115 -1.18827 0
M  V30 5063 N 456.733 0.527833 -1.48498 0
M  V30 5064 C 457.981 1.28101 -1.56316 0
M  V30 5065 C 458.302 1.9352 -0.239781 0
M  V30 5066 O 457.572 1.81433 0.738849 0
M  V30 5067 H 456.152 0.475793 -0.575873 0
M  V30 5068 H 458.814 0.614052 -1.84974 0
M  V30 5069 H 457.91 2.05916 -2.34532 0
M  V30 5070 N 458.211 1.37122 0.776871 0
M  V30 5071 C 459.488 1.22586 1.52421 0
M  V30 5072 C 459.868 -0.182726 2.10308 0
M  V30 5073 O 459.216 -1.18979 1.9508 0
M  V30 5074 C 459.426 2.31782 2.60918 0
M  V30 5075 C 460.774 2.69071 3.2846 0
M  V30 5076 O 461.798 2.3092 2.71209 0
M  V30 5077 O 460.657 3.3478 4.31954 0
M  V30 5078 H 457.751 0.478045 0.674835 0
M  V30 5079 H 460.297 1.48888 0.814275 0
M  V30 5080 H 459.069 3.26131 2.16227 0
M  V30 5081 H 458.692 2.06916 3.39517 0
M  V30 5082 N 459.689 -1.00246 1.21608 0
M  V30 5083 C 460.599 -2.12515 0.993709 0
M  V30 5084 C 461.615 -1.73913 -0.0549939 0
M  V30 5085 O 462.791 -2.00943 0.135619 0
M  V30 5086 C 459.856 -3.42083 0.563953 0
M  V30 5087 C 458.917 -3.94843 1.68516 0
M  V30 5088 C 458.15 -5.18226 1.27582 0
M  V30 5089 O 458.373 -5.70201 0.150506 0
M  V30 5090 O 457.307 -5.64497 2.0887 0
M  V30 5091 H 461.133 -2.34152 1.93407 0
M  V30 5092 H 458.718 -1.10891 1.00118 0
M  V30 5093 H 460.6 -4.20073 0.334194 0
M  V30 5094 H 459.275 -3.21828 -0.347665 0
M  V30 5095 H 458.182 -3.18068 1.96935 0
M  V30 5096 H 459.515 -4.19512 2.5743 0
M  V30 5097 N 461.167 -1.02423 -1.1978 0
M  V30 5098 C 462.415 -0.716569 -1.8897 0
M  V30 5099 C 462.736 0.756769 -1.79716 0
M  V30 5100 O 462.006 1.5449 -1.20456 0
M  V30 5101 H 460.586 -0.262062 -0.699523 0
M  V30 5102 H 463.248 -1.29747 -1.45436 0
M  V30 5103 H 462.344 -1.00675 -2.95417 0
M  V30 5104 N 462.645 1.35699 -0.801477 0
M  V30 5105 C 463.555 2.33661 -0.209691 0
M  V30 5106 C 464.571 1.6162 0.644591 0
M  V30 5107 O 465.747 1.93529 0.557545 0
M  V30 5108 C 462.812 3.40816 0.636033 0
M  V30 5109 C 461.873 4.28639 -0.238147 0
M  V30 5110 C 461.106 5.30676 0.567307 0
M  V30 5111 O 461.329 5.41174 1.8024 0
M  V30 5112 O 460.263 6.01887 -0.0391336 0
M  V30 5113 H 464.089 2.8606 -1.01996 0
M  V30 5114 H 461.674 1.38379 -0.563164 0
M  V30 5115 H 463.556 4.06301 1.11791 0
M  V30 5116 H 462.231 2.90696 1.42399 0
M  V30 5117 H 461.138 3.66152 -0.767044 0
M  V30 5118 H 462.471 4.82143 -0.989915 0
M  V30 5119 N 464.123 0.554532 1.47522 0
M  V30 5120 C 465.071 -0.207765 2.3167 0
M  V30 5121 C 466.065 -0.911914 1.4276 0
M  V30 5122 O 467.271 -0.833504 1.59539 0
M  V30 5123 H 463.646 -0.0858726 0.747081 0
M  V30 5124 H 465.617 0.521178 2.93813 0
M  V30 5125 C 464.366 -1.2263 3.25357 0
M  V30 5126 H 463.689 -0.693887 3.93732 0
M  V30 5127 H 465.129 -1.73062 3.87073 0
M  V30 5128 C 463.588 -2.27278 2.4869 0
M  V30 5129 O 464.118 -3.34156 2.22941 0
M  V30 5130 N 462.324 -2.01134 2.09746 0
M  V30 5131 H 461.871 -1.14232 2.30887 0
M  V30 5132 H 461.829 -2.71369 1.58765 0
M  V30 5133 N 465.601 -1.54893 0.290851 0
M  V30 5134 C 466.531 -2.26103 -0.583084 0
M  V30 5135 C 467.512 -1.25684 -1.14619 0
M  V30 5136 O 468.697 -1.54436 -1.17741 0
M  V30 5137 C 465.827 -2.99409 -1.75987 0
M  V30 5138 C 464.781 -4.0689 -1.32758 0
M  V30 5139 C 464.107 -4.67856 -2.58872 0
M  V30 5140 C 465.407 -5.20215 -0.46624 0
M  V30 5141 H 467.101 -2.99398 0.0108214 0
M  V30 5142 H 464.647 -1.43998 0.00664468 0
M  V30 5143 H 466.6 -3.47943 -2.37727 0
M  V30 5144 H 465.324 -2.23675 -2.37985 0
M  V30 5145 H 463.983 -3.59191 -0.733299 0
M  V30 5146 H 463.631 -3.88772 -3.19163 0
M  V30 5147 H 463.331 -5.40438 -2.30653 0
M  V30 5148 H 464.855 -5.19147 -3.21433 0
M  V30 5149 H 466.269 -5.64704 -0.989047 0
M  V30 5150 H 464.666 -5.99455 -0.27826 0
M  V30 5151 H 465.736 -4.82198 0.511173 0
M  V30 5152 N 467.08 -0.0183926 -1.57589 0
M  V30 5153 C 468.326 0.663543 -1.91638 0
M  V30 5154 C 468.659 1.72392 -0.894134 0
M  V30 5155 O 467.934 1.94316 0.0846449 0
M  V30 5156 C 468.217 1.28984 -3.36207 0
M  V30 5157 C 468.07 0.239761 -4.49161 0
M  V30 5158 C 469.389 2.2109 -3.80536 0
M  V30 5159 H 466.508 0.239746 -0.696915 0
M  V30 5160 H 469.15 -0.073456 -1.89858 0
M  V30 5161 H 467.3 1.91799 -3.37854 0
M  V30 5162 H 468.972 -0.390119 -4.59647 0
M  V30 5163 H 467.215 -0.435972 -4.31604 0
M  V30 5164 H 467.886 0.717383 -5.47319 0
M  V30 5165 H 470.362 1.68273 -3.80557 0
M  V30 5166 H 469.238 2.61869 -4.82406 0
M  V30 5167 H 469.499 3.09764 -3.15434 0
M  V30 5168 N 468.558 1.5553 0.254621 0
M  V30 5169 C 469.488 1.9268 1.31897 0
M  V30 5170 C 470.469 0.790797 1.506 0
M  V30 5171 O 471.654 1.05045 1.63337 0
M  V30 5172 C 468.784 2.21477 2.67517 0
M  V30 5173 C 467.738 3.37256 2.63519 0
M  V30 5174 C 467.064 3.51576 4.02862 0
M  V30 5175 C 468.364 4.73157 2.21179 0
M  V30 5176 H 470.058 2.81832 1.01051 0
M  V30 5177 H 467.604 1.35599 0.484662 0
M  V30 5178 H 469.557 2.46055 3.42104 0
M  V30 5179 H 468.281 1.29144 2.99982 0
M  V30 5180 H 466.94 3.12675 1.9139 0
M  V30 5181 H 466.588 2.56676 4.32581 0
M  V30 5182 H 466.288 4.2943 4.01078 0
M  V30 5183 H 467.812 3.78467 4.79161 0
M  V30 5184 H 469.226 4.97158 2.85494 0
M  V30 5185 H 467.623 5.54058 2.30521 0
M  V30 5186 H 468.693 4.70739 1.16332 0
M  V30 5187 N 470.036 -0.519951 1.48776 0
M  V30 5188 C 470.946 -1.65025 1.66745 0
M  V30 5189 C 471.962 -1.6508 0.549954 0
M  V30 5190 O 473.138 -1.83848 0.822295 0
M  V30 5191 C 470.203 -3.0146 1.71238 0
M  V30 5192 C 469.264 -3.12182 2.94688 0
M  V30 5193 C 468.497 -4.42109 2.98958 0
M  V30 5194 O 468.72 -5.29799 2.1135 0
M  V30 5195 O 467.654 -4.57406 3.91233 0
M  V30 5196 H 471.48 -1.52801 2.62461 0
M  V30 5197 H 469.065 -0.694157 1.32294 0
M  V30 5198 H 470.947 -3.82584 1.76657 0
M  V30 5199 H 469.622 -3.13988 0.786975 0
M  V30 5200 H 468.529 -2.30316 2.94797 0
M  V30 5201 H 469.862 -3.04574 3.86646 0
M  V30 5202 N 471.514 -1.37532 -0.769588 0
M  V30 5203 C 472.744 -1.35861 -1.55645 0
M  V30 5204 C 473.152 0.0574398 -1.89113 0
M  V30 5205 O 472.495 1.03021 -1.52093 0
M  V30 5206 C 472.557 -2.13431 -2.89288 0
M  V30 5207 C 472.221 -3.62378 -2.78444 0
M  V30 5208 C 473.218 -4.56215 -2.49326 0
M  V30 5209 C 470.903 -4.05529 -2.96398 0
M  V30 5210 C 472.897 -5.91181 -2.38294 0
M  V30 5211 C 470.584 -5.40579 -2.84987 0
M  V30 5212 C 471.582 -6.33218 -2.55975 0
M  V30 5213 O 471.27 -7.65787 -2.44594 0
M  V30 5214 H 471.002 -0.467001 -0.48876 0
M  V30 5215 H 473.556 -1.81505 -0.961515 0
M  V30 5216 H 471.786 -1.62481 -3.50909 0
M  V30 5217 H 473.475 -2.04368 -3.50697 0
M  V30 5218 H 474.241 -4.24187 -2.35139 0
M  V30 5219 H 470.12 -3.33781 -3.1798 0
M  V30 5220 H 473.664 -6.63457 -2.15571 0
M  V30 5221 H 469.561 -5.72209 -2.98743 0
M  V30 5222 H 470.329 -7.76132 -2.59927 0
M  V30 5223 N 472.992 0.995999 -1.22138 0
M  V30 5224 C 473.902 2.11985 -1.00496 0
M  V30 5225 C 474.918 1.7394 0.0457701 0
M  V30 5226 O 476.094 2.00868 -0.146273 0
M  V30 5227 C 473.159 3.41779 -0.582086 0
M  V30 5228 C 472.22 3.93943 -1.70608 0
M  V30 5229 C 471.453 5.17542 -1.30328 0
M  V30 5230 O 471.676 5.70114 -0.180743 0
M  V30 5231 O 470.61 5.63382 -2.11861 0
M  V30 5232 H 474.436 2.33123 -1.94647 0
M  V30 5233 H 472.021 1.10358 -1.00705 0
M  V30 5234 H 473.903 4.1989 -0.356467 0
M  V30 5235 H 472.578 3.22007 0.330592 0
M  V30 5236 H 471.485 3.17019 -1.98619 0
M  V30 5237 H 472.818 4.18141 -2.59651 0
M  V30 5238 N 474.47 1.03057 1.19235 0
M  V30 5239 C 475.417 0.612832 2.22515 0
M  V30 5240 C 476.387 -0.374224 1.61829 0
M  V30 5241 O 477.572 -0.270501 1.88873 0
M  V30 5242 C 474.712 -0.028475 3.45088 0
M  V30 5243 C 473.825 1.00483 4.20151 0
M  V30 5244 C 472.96 0.333102 5.30155 0
M  V30 5245 C 471.999 1.3522 5.96977 0
M  V30 5246 N 471.136 0.70616 6.9854 0
M  V30 5247 H 475.976 1.49812 2.57605 0
M  V30 5248 H 473.513 0.749658 1.26564 0
M  V30 5249 H 475.471 -0.417548 4.15105 0
M  V30 5250 H 474.101 -0.877334 3.10649 0
M  V30 5251 H 473.153 1.51194 3.49062 0
M  V30 5252 H 474.465 1.77929 4.65986 0
M  V30 5253 H 473.619 -0.110725 6.06599 0
M  V30 5254 H 472.358 -0.473547 4.85396 0
M  V30 5255 H 471.363 1.80627 5.19282 0
M  V30 5256 H 472.588 2.16037 6.4382 0
M  V30 5257 H 470.534 -0.0803667 6.55951 0
M  V30 5258 H 470.451 1.41848 7.42573 0
M  V30 5259 H 471.719 0.286391 7.78974 0
M  V30 5260 N 475.948 -1.35272 0.808662 0
M  V30 5261 C 476.858 -2.33546 0.222079 0
M  V30 5262 C 477.874 -1.6196 -0.636011 0
M  V30 5263 O 479.05 -1.93822 -0.547274 0
M  V30 5264 C 476.115 -3.41148 -0.61795 0
M  V30 5265 C 475.176 -4.28507 0.260875 0
M  V30 5266 C 474.409 -5.3097 -0.539156 0
M  V30 5267 O 474.632 -5.42123 -1.77367 0
M  V30 5268 O 473.566 -6.01858 0.0710526 0
M  V30 5269 H 477.392 -2.85515 1.03512 0
M  V30 5270 H 474.977 -1.38079 0.570495 0
M  V30 5271 H 476.859 -4.06889 -1.09634 0
M  V30 5272 H 475.534 -2.91447 -1.40855 0
M  V30 5273 H 474.441 -3.6574 0.786451 0
M  V30 5274 H 475.774 -4.81611 1.01547 0
M  V30 5275 N 477.426 -0.562348 -1.47226 0
M  V30 5276 C 478.842 -0.222492 -1.58042 0
M  V30 5277 C 479.042 1.27505 -1.56028 0
M  V30 5278 O 478.098 2.05555 -1.46641 0
M  V30 5279 C 479.411 -0.853694 -2.88327 0
M  V30 5280 C 480.959 -0.825397 -3.01921 0
M  V30 5281 C 481.434 -1.43576 -4.34914 0
M  V30 5282 N 482.925 -1.39918 -4.41562 0
M  V30 5283 C 483.66 -1.84103 -5.43041 0
M  V30 5284 N 483.156 -2.36167 -6.51304 0
M  V30 5285 N 484.949 -1.75142 -5.34118 0
M  V30 5286 H 477.1 -1.53525 -1.46778 0
M  V30 5287 H 479.363 -0.640527 -0.698877 0
M  V30 5288 H 479.069 -1.90635 -2.95552 0
M  V30 5289 H 478.943 -0.34977 -3.75575 0
M  V30 5290 H 481.33 0.218583 -2.94289 0
M  V30 5291 H 481.411 -1.36713 -2.16202 0
M  V30 5292 H 481.055 -2.47884 -4.43301 0
M  V30 5293 H 480.985 -0.869427 -5.19373 0
M  V30 5294 H 483.476 -1.0184 -3.63919 0
M  V30 5295 H 483.789 -2.67793 -7.24919 0
M  V30 5296 H 482.134 -2.40181 -6.52179 0
M  V30 5297 H 485.325 -1.34241 -4.48439 0
M  V30 5298 H 485.498 -2.09895 -6.13065 0
M  V30 5299 N 478.904 1.54736 -0.299062 0
M  V30 5300 C 480.15 2.00397 0.311244 0
M  V30 5301 C 480.483 1.18716 1.53688 0
M  V30 5302 O 479.758 0.263154 1.92712 0
M  V30 5303 C 480.041 3.53817 0.669761 0
M  V30 5304 C 479.894 4.46239 -0.564882 0
M  V30 5305 C 481.213 4.13856 1.49702 0
M  V30 5306 H 478.332 0.728493 0.111653 0
M  V30 5307 H 480.974 1.85506 -0.410774 0
M  V30 5308 H 479.124 3.66637 1.28491 0
M  V30 5309 H 480.796 4.45328 -1.20337 0
M  V30 5310 H 479.039 4.16916 -1.19849 0
M  V30 5311 H 479.71 5.5134 -0.269918 0
M  V30 5312 H 482.186 4.04461 0.977284 0
M  V30 5313 H 481.062 5.21365 1.71666 0
M  V30 5314 H 481.323 3.65608 2.48563 0
M  V30 5315 N 480.382 0.0267497 1.57577 0
M  V30 5316 C 481.329 -0.955894 2.10075 0
M  V30 5317 C 482.299 -1.32453 1.00226 0
M  V30 5318 O 483.484 -1.41826 1.27632 0
M  V30 5319 C 480.624 -2.2338 2.6305 0
M  V30 5320 C 479.737 -1.92183 3.86898 0
M  V30 5321 C 478.872 -3.14251 4.28275 0
M  V30 5322 C 477.911 -2.78862 5.44888 0
M  V30 5323 N 477.048 -3.93548 5.81433 0
M  V30 5324 H 481.888 -0.501303 2.93753 0
M  V30 5325 H 479.425 -0.235847 1.45197 0
M  V30 5326 H 481.383 -2.98124 2.91853 0
M  V30 5327 H 480.013 -2.6646 1.82205 0
M  V30 5328 H 479.065 -1.07692 3.64838 0
M  V30 5329 H 480.377 -1.62117 4.7172 0
M  V30 5330 H 479.531 -3.97317 4.58502 0
M  V30 5331 H 478.27 -3.47476 3.42215 0
M  V30 5332 H 477.275 -1.94208 5.14357 0
M  V30 5333 H 478.5 -2.46855 6.32645 0
M  V30 5334 H 476.446 -4.2662 4.98328 0
M  V30 5335 H 476.363 -3.67098 6.6089 0
M  V30 5336 H 477.631 -4.77325 6.16264 0
M  V30 5337 N 481.861 -1.55662 -0.24637 0
M  V30 5338 C 482.791 -1.93377 -1.30873 0
M  V30 5339 C 483.772 -0.798773 -1.50179 0
M  V30 5340 O 484.957 -1.0591 -1.62778 0
M  V30 5341 C 482.087 -2.22893 -2.66338 0
M  V30 5342 C 481.041 -3.38649 -2.61727 0
M  V30 5343 C 480.367 -3.53708 -4.00992 0
M  V30 5344 C 481.667 -4.74323 -2.18666 0
M  V30 5345 H 483.361 -2.82363 -0.995552 0
M  V30 5346 H 480.907 -1.35854 -0.477464 0
M  V30 5347 H 482.86 -2.47866 -3.40794 0
M  V30 5348 H 481.584 -1.30733 -2.99293 0
M  V30 5349 H 480.243 -3.13685 -1.89729 0
M  V30 5350 H 479.891 -2.58967 -4.31214 0
M  V30 5351 H 479.591 -4.31551 -3.98795 0
M  V30 5352 H 481.115 -3.81003 -4.77147 0
M  V30 5353 H 482.529 -4.98665 -2.82854 0
M  V30 5354 H 480.926 -5.55273 -2.27579 0
M  V30 5355 H 481.996 -4.71349 -1.13834 0
M  V30 5356 N 483.339 0.512053 -1.4905 0
M  V30 5357 C 484.586 1.26686 -1.57978 0
M  V30 5358 C 484.914 1.92733 -0.261553 0
M  V30 5359 O 484.169 1.80772 0.749667 0
M  V30 5360 C 484.468 2.36446 -2.68008 0
M  V30 5361 C 484.134 1.87932 -4.09869 0
M  V30 5362 C 482.796 1.74419 -4.48477 0
M  V30 5363 C 485.148 1.5149 -4.98698 0
M  V30 5364 C 482.476 1.22827 -5.73699 0
M  V30 5365 C 484.828 1.01355 -6.24428 0
M  V30 5366 C 483.492 0.864735 -6.61875 0
M  V30 5367 H 482.762 0.463577 -0.578081 0
M  V30 5368 H 485.409 0.569421 -1.82838 0
M  V30 5369 H 483.714 3.11933 -2.37076 0
M  V30 5370 H 485.411 2.9453 -2.72127 0
M  V30 5371 H 482.001 1.99405 -3.79389 0
M  V30 5372 H 486.185 1.60782 -4.69535 0
M  V30 5373 H 481.441 1.10008 -6.01422 0
M  V30 5374 H 485.615 0.722351 -6.92644 0
M  V30 5375 H 483.242 0.462777 -7.5879 0
M  V30 5376 N 484.817 1.37938 0.762283 0
M  V30 5377 C 486.094 1.24196 1.51112 0
M  V30 5378 C 486.474 -0.160409 2.1049 0
M  V30 5379 O 485.822 -1.16904 1.96331 0
M  V30 5380 C 486.032 2.34537 2.58445 0
M  V30 5381 C 487.38 2.7254 3.25588 0
M  V30 5382 O 488.404 2.33783 2.68745 0
M  V30 5383 O 487.263 3.39343 4.28379 0
M  V30 5384 H 484.357 0.485175 0.669727 0
M  V30 5385 H 486.903 1.49743 0.798438 0
M  V30 5386 H 485.675 3.28406 2.12756 0
M  V30 5387 H 485.298 2.10505 3.37303 0
M  V30 5388 N 486.295 -0.989507 1.22664 0
M  V30 5389 C 487.706 -1.54406 1.04955 0
M  V30 5390 C 488.057 -1.92366 -0.385951 0
M  V30 5391 O 487.182 -1.75111 -1.27142 0
M  V30 5392 C 487.777 -2.80578 1.89899 0
M  V30 5393 C 486.336 -3.32464 1.76478 0
M  V30 5394 C 485.483 -2.05524 1.86159 0
M  V30 5395 H 488.434 -0.810211 1.3646 0
M  V30 5396 H 488.455 -3.53075 1.4184 0
M  V30 5397 H 487.967 -2.52918 2.94371 0
M  V30 5398 H 486.068 -3.65024 0.747528 0
M  V30 5399 H 486.181 -4.02838 2.59342 0
M  V30 5400 H 484.545 -2.19241 1.29636 0
M  V30 5401 H 485.328 -1.80258 2.92168 0
M  V30 5402 N 487.773 -1.03688 -1.18687 0
M  V30 5403 C 488.998 -0.757819 -1.93059 0
M  V30 5404 C 489.423 0.678353 -1.75442 0
M  V30 5405 O 488.781 1.46938 -1.06203 0
M  V30 5406 C 488.829 -1.12423 -3.42627 0
M  V30 5407 O 487.933 -0.247505 -4.11657 0
M  V30 5408 H 487.274 -0.279245 -0.602427 0
M  V30 5409 H 489.804 -1.3857 -1.5053 0
M  V30 5410 H 489.814 -1.08454 -3.93322 0
M  V30 5411 H 488.489 -2.17049 -3.54771 0
M  V30 5412 H 487.066 -0.34649 -3.71287 0
M  V30 5413 N 489.251 1.34841 -0.815825 0
M  V30 5414 C 490.181 2.32187 -0.247298 0
M  V30 5415 C 491.162 1.5791 0.632344 0
M  V30 5416 O 492.347 1.8593 0.560698 0
M  V30 5417 C 489.477 3.42122 0.597466 0
M  V30 5418 C 488.431 4.27602 -0.184446 0
M  V30 5419 C 487.757 5.28942 0.782609 0
M  V30 5420 C 489.057 5.03502 -1.38865 0
M  V30 5421 H 490.751 2.79985 -1.06061 0
M  V30 5422 H 488.297 1.34611 -0.511461 0
M  V30 5423 H 490.25 4.09232 1.00533 0
M  V30 5424 H 488.974 2.92956 1.44376 0
M  V30 5425 H 487.633 3.62085 -0.573592 0
M  V30 5426 H 487.281 4.7604 1.62466 0
M  V30 5427 H 486.981 5.87008 0.263695 0
M  V30 5428 H 488.505 5.98922 1.18848 0
M  V30 5429 H 489.919 5.63506 -1.05518 0
M  V30 5430 H 488.316 5.71108 -1.8427 0
M  V30 5431 H 489.386 4.33608 -2.17054 0
M  V30 5432 N 490.729 0.570148 1.46925 0
M  V30 5433 C 491.975 0.0510284 2.02736 0
M  V30 5434 C 492.308 -1.3006 1.44215 0
M  V30 5435 O 491.583 -1.84932 0.602521 0
M  V30 5436 C 491.866 -0.028215 3.60089 0
M  V30 5437 C 491.719 1.35142 4.29018 0
M  V30 5438 C 493.038 -0.735181 4.33916 0
M  V30 5439 H 490.157 0.0200178 0.736728 0
M  V30 5440 H 492.799 0.73493 1.75211 0
M  V30 5441 H 490.949 -0.610648 3.83671 0
M  V30 5442 H 492.621 1.97806 4.16738 0
M  V30 5443 H 490.864 1.9226 3.88868 0
M  V30 5444 H 491.535 1.24857 5.37694 0
M  V30 5445 H 494.011 -0.240519 4.15404 0
M  V30 5446 H 492.887 -0.759622 5.43618 0
M  V30 5447 H 493.148 -1.79397 4.04066 0
M  V30 5448 N 492.207 -1.54576 0.307264 0
M  V30 5449 C 493.623 -1.59534 -0.0459251 0
M  V30 5450 C 493.823 -1.32414 -1.51884 0
M  V30 5451 O 492.879 -1.1006 -2.27251 0
M  V30 5452 C 494.192 -2.98566 0.357649 0
M  V30 5453 C 495.74 -3.11491 0.306937 0
M  V30 5454 C 496.215 -4.52842 0.685427 0
M  V30 5455 N 497.706 -4.58782 0.638203 0
M  V30 5456 C 498.441 -5.66238 0.903458 0
M  V30 5457 N 497.937 -6.81703 1.23501 0
M  V30 5458 N 499.73 -5.55937 0.830102 0
M  V30 5459 H 491.881 -1.70464 1.26712 0
M  V30 5460 H 494.144 -0.79647 0.514139 0
M  V30 5461 H 493.85 -3.23356 1.38325 0
M  V30 5462 H 493.724 -3.76117 -0.285565 0
M  V30 5463 H 496.111 -2.86446 -0.709424 0
M  V30 5464 H 496.192 -2.36081 0.984861 0
M  V30 5465 H 495.836 -4.78618 1.69963 0
M  V30 5466 H 495.766 -5.26598 -0.0146346 0
M  V30 5467 H 498.257 -3.75849 0.393138 0
M  V30 5468 H 498.57 -7.59582 1.42322 0
M  V30 5469 H 496.915 -6.8324 1.27311 0
M  V30 5470 H 500.106 -4.64608 0.570693 0
M  V30 5471 H 500.279 -6.39597 1.04019 0
M  V30 5472 N 493.685 -0.035106 -1.57561 0
M  V30 5473 C 494.632 0.94474 -2.10578 0
M  V30 5474 C 495.602 1.3192 -1.00927 0
M  V30 5475 O 496.787 1.41147 -1.28382 0
M  V30 5476 C 493.927 2.21982 -2.64231 0
M  V30 5477 C 493.04 1.90128 -3.87911 0
M  V30 5478 C 492.175 3.11975 -4.29936 0
M  V30 5479 C 491.214 2.75968 -5.46359 0
M  V30 5480 N 490.351 3.90459 -5.83512 0
M  V30 5481 H 495.191 0.485717 -2.94015 0
M  V30 5482 H 492.728 0.228143 -1.4532 0
M  V30 5483 H 494.686 2.96572 -2.9343 0
M  V30 5484 H 493.316 2.6549 -1.83616 0
M  V30 5485 H 492.368 1.05755 -3.65404 0
M  V30 5486 H 493.68 1.59613 -4.72573 0
M  V30 5487 H 492.834 3.9488 -4.60603 0
M  V30 5488 H 491.573 3.45657 -3.44053 0
M  V30 5489 H 490.578 1.91478 -5.1538 0
M  V30 5490 H 491.803 2.43497 -6.33945 0
M  V30 5491 H 489.749 4.23971 -5.00584 0
M  V30 5492 H 489.666 3.63588 -6.62827 0
M  V30 5493 H 490.934 4.7405 -6.18787 0
M  V30 5494 N 495.163 1.55791 0.238111 0
M  V30 5495 C 496.409 1.78297 0.966337 0
M  V30 5496 C 496.742 0.601903 1.84637 0
M  V30 5497 O 496.017 -0.399499 1.90353 0
M  V30 5498 C 496.3 3.10758 1.81939 0
M  V30 5499 C 496.153 4.39283 0.966958 0
M  V30 5500 C 497.472 3.39519 2.80027 0
M  V30 5501 H 494.591 0.648654 0.349882 0
M  V30 5502 H 497.233 1.88525 0.236253 0
M  V30 5503 H 495.383 3.02168 2.44185 0
M  V30 5504 H 497.055 4.59873 0.362514 0
M  V30 5505 H 495.298 4.32948 0.271669 0
M  V30 5506 H 495.969 5.28368 1.59784 0
M  V30 5507 H 498.445 3.48128 2.27917 0
M  V30 5508 H 497.321 4.33402 3.36829 0
M  V30 5509 H 497.582 2.60864 3.56934 0
M  V30 5510 N 496.642 -0.504142 1.49319 0
M  V30 5511 C 497.888 -1.26033 1.58882 0
M  V30 5512 C 498.221 -1.92268 0.273274 0
M  V30 5513 O 497.496 -1.80567 -0.72291 0
M  V30 5514 C 497.779 -2.32976 2.7458 0
M  V30 5515 C 497.632 -1.71263 4.1592 0
M  V30 5516 C 498.951 -3.34561 2.85932 0
M  V30 5517 H 496.07 -0.456863 0.578312 0
M  V30 5518 H 498.712 -0.558965 1.81592 0
M  V30 5519 H 496.862 -2.92796 2.55348 0
M  V30 5520 H 498.534 -1.15294 4.4666 0
M  V30 5521 H 496.777 -1.01686 4.21714 0
M  V30 5522 H 497.448 -2.48816 4.92742 0
M  V30 5523 H 499.924 -2.84727 3.0343 0
M  V30 5524 H 498.8 -4.06754 3.68568 0
M  V30 5525 H 499.061 -3.96695 1.95154 0
M  V30 5526 N 498.12 -1.38341 -0.754957 0
M  V30 5527 C 499.07 -1.31964 -1.85929 0
M  V30 5528 C 500.054 -0.204181 -1.59599 0
M  V30 5529 O 501.246 -0.440036 -1.71443 0
M  V30 5530 C 498.375 -1.14565 -3.2362 0
M  V30 5531 C 497.461 -2.30727 -3.55846 0
M  V30 5532 N 497.852 -3.56165 -3.59138 0
M  V30 5533 C 496.15 -2.23249 -3.86104 0
M  V30 5534 C 496.851 -4.32865 -3.88591 0
M  V30 5535 N 495.827 -3.62203 -4.05351 0
M  V30 5536 H 499.629 -2.2694 -1.8675 0
M  V30 5537 H 497.143 -1.31553 -0.952243 0
M  V30 5538 H 499.14 -1.0808 -4.02647 0
M  V30 5539 H 497.8 -0.205212 -3.24051 0
M  V30 5540 H 498.811 -3.89854 -3.40932 0
M  V30 5541 H 495.488 -1.37357 -3.94258 0
M  V30 5542 H 496.878 -5.41504 -3.97773 0
M  V30 5543 N 499.598 0.982988 -1.23187 0
M  V30 5544 C 500.528 2.09301 -1.03515 0
M  V30 5545 C 501.509 1.70035 0.0471136 0
M  V30 5546 O 502.694 1.93847 -0.117029 0
M  V30 5547 C 499.824 3.4167 -0.622791 0
M  V30 5548 C 498.778 3.94828 -1.65211 0
M  V30 5549 C 498.104 5.23362 -1.09527 0
M  V30 5550 C 499.404 4.2439 -3.04451 0
M  V30 5551 H 501.098 2.26016 -1.96359 0
M  V30 5552 H 498.644 1.08611 -0.945501 0
M  V30 5553 H 500.597 4.18746 -0.472233 0
M  V30 5554 H 499.321 3.24811 0.341329 0
M  V30 5555 H 497.98 3.19895 -1.79061 0
M  V30 5556 H 497.628 5.02852 -0.122211 0
M  V30 5557 H 497.328 5.59895 -1.783 0
M  V30 5558 H 498.852 6.03062 -0.956511 0
M  V30 5559 H 500.266 4.92225 -2.93917 0
M  V30 5560 H 498.663 4.72118 -3.70438 0
M  V30 5561 H 499.733 3.31765 -3.53638 0
M  V30 5562 N 501.076 1.04316 1.18135 0
M  V30 5563 C 502.324 0.746542 1.87806 0
M  V30 5564 C 502.645 -0.728082 1.80898 0
M  V30 5565 O 501.915 -1.52554 1.22899 0
M  V30 5566 H 500.495 0.273157 0.695265 0
M  V30 5567 H 503.157 1.32044 1.43354 0
M  V30 5568 H 502.253 1.05362 2.93778 0
M  V30 5569 N 502.554 -1.34406 0.822964 0
M  V30 5570 C 503.501 -2.29519 0.24284 0
M  V30 5571 C 504.471 -1.5359 -0.632397 0
M  V30 5572 O 505.656 -1.8196 -0.57403 0
M  V30 5573 C 502.796 -3.40032 -0.58925 0
M  V30 5574 C 501.909 -4.30899 0.308236 0
M  V30 5575 C 501.044 -5.28515 -0.533425 0
M  V30 5576 C 500.083 -6.1102 0.363444 0
M  V30 5577 N 499.22 -7.00725 -0.439147 0
M  V30 5578 H 504.06 -2.78537 1.05929 0
M  V30 5579 H 501.597 -1.3707 0.533872 0
M  V30 5580 H 503.555 -4.0279 -1.087 0
M  V30 5581 H 502.185 -2.92248 -1.37081 0
M  V30 5582 H 501.237 -3.69002 0.924203 0
M  V30 5583 H 502.549 -4.88717 0.997862 0
M  V30 5584 H 501.703 -5.96725 -1.09565 0
M  V30 5585 H 500.442 -4.71235 -1.25656 0
M  V30 5586 H 499.447 -5.41743 0.937812 0
M  V30 5587 H 500.672 -6.70381 1.08469 0
M  V30 5588 H 498.618 -6.45913 -1.14595 0
M  V30 5589 H 498.535 -7.55756 0.19209 0
M  V30 5590 H 499.803 -7.73263 -0.984124 0
M  V30 5591 N 504.032 -0.577932 -1.46621 0
M  V30 5592 C 505.26 -0.0671642 -2.06791 0
M  V30 5593 C 505.675 1.23571 -1.42743 0
M  V30 5594 O 505.032 1.74602 -0.531062 0
M  V30 5595 C 505.083 0.110357 -3.61332 0
M  V30 5596 O 504.804 -1.14095 -4.22982 0
M  V30 5597 C 506.305 0.656025 -4.38419 0
M  V30 5598 H 503.525 -0.0552732 -0.66872 0
M  V30 5599 H 506.069 -0.797242 -1.8832 0
M  V30 5600 H 504.224 0.790637 -3.79246 0
M  V30 5601 H 504.638 -0.951742 -5.15793 0
M  V30 5602 H 506.112 0.729438 -5.47159 0
M  V30 5603 H 506.589 1.67195 -4.06131 0
M  V30 5604 H 507.195 0.0107692 -4.25299 0
M  V30 5605 N 505.51 1.54411 -0.315457 0
M  V30 5606 C 506.457 2.24048 0.554166 0
M  V30 5607 C 507.427 1.2283 1.11812 0
M  V30 5608 O 508.612 1.51491 1.15997 0
M  V30 5609 C 505.752 2.99574 1.71316 0
M  V30 5610 C 504.865 4.15594 1.17922 0
M  V30 5611 C 504 4.78669 2.30324 0
M  V30 5612 C 503.039 5.86807 1.74137 0
M  V30 5613 N 502.176 6.43777 2.8017 0
M  V30 5614 H 507.016 2.97964 -0.0462602 0
M  V30 5615 H 504.553 1.47059 -0.0346009 0
M  V30 5616 H 506.511 3.41604 2.39505 0
M  V30 5617 H 505.141 2.28008 2.285 0
M  V30 5618 H 504.193 3.78404 0.389136 0
M  V30 5619 H 505.505 4.93459 0.728012 0
M  V30 5620 H 504.659 5.23626 3.06433 0
M  V30 5621 H 503.398 4.00168 2.78778 0
M  V30 5622 H 502.403 5.41261 0.965236 0
M  V30 5623 H 503.628 6.67201 1.2657 0
M  V30 5624 H 501.574 5.68153 3.2793 0
M  V30 5625 H 501.491 7.17031 2.39588 0
M  V30 5626 H 502.759 6.9339 3.56132 0
M  V30 5627 N 506.988 0.0434614 1.5754 0
M  V30 5628 C 508.236 -0.630786 1.92004 0
M  V30 5629 C 508.557 -1.71836 0.921807 0
M  V30 5630 O 507.827 -1.9587 -0.034522 0
M  V30 5631 H 506.407 -0.235988 0.708745 0
M  V30 5632 H 509.069 0.0946462 1.9467 0
M  V30 5633 H 508.165 -1.07434 2.93026 0
M  V30 5634 N 508.466 -1.55915 -0.229846 0
M  V30 5635 C 509.396 -1.94754 -1.28815 0
M  V30 5636 C 510.377 -0.814657 -1.49323 0
M  V30 5637 O 511.562 -1.07631 -1.61645 0
M  V30 5638 C 508.692 -2.25705 -2.63959 0
M  V30 5639 C 507.646 -3.41406 -2.5812 0
M  V30 5640 C 506.972 -3.57941 -3.97218 0
M  V30 5641 C 508.272 -4.76616 -2.13623 0
M  V30 5642 H 509.966 -2.83404 -0.965547 0
M  V30 5643 H 507.512 -1.36353 -0.463028 0
M  V30 5644 H 509.465 -2.51467 -3.38146 0
M  V30 5645 H 508.189 -1.339 -2.9789 0
M  V30 5646 H 506.848 -3.1568 -1.86391 0
M  V30 5647 H 506.496 -2.63526 -4.28443 0
M  V30 5648 H 506.196 -4.35757 -3.94195 0
M  V30 5649 H 507.72 -3.86042 -4.73079 0
M  V30 5650 H 509.134 -5.01637 -2.77549 0
M  V30 5651 H 507.531 -5.57655 -2.21677 0
M  V30 5652 H 508.601 -4.7253 -1.08829 0
M  V30 5653 N 509.944 0.496216 -1.49584 0
M  V30 5654 C 511.192 1.24756 -1.58998 0
M  V30 5655 C 511.513 1.92968 -0.280775 0
M  V30 5656 O 510.783 1.82959 0.700198 0
M  V30 5657 H 509.363 0.463471 -0.585836 0
M  V30 5658 H 512.025 0.574678 -1.86235 0
M  V30 5659 H 511.121 2.00895 -2.38847 0
M  V30 5660 N 511.423 1.38739 0.74761 0
M  V30 5661 C 512.653 1.3832 1.53464 0
M  V30 5662 C 513.061 -0.0273464 1.8918 0
M  V30 5663 O 512.404 -1.00588 1.53713 0
M  V30 5664 C 512.466 2.18007 2.85855 0
M  V30 5665 C 512.13 3.66762 2.72644 0
M  V30 5666 C 513.127 4.60124 2.42037 0
M  V30 5667 C 510.812 4.10193 2.89909 0
M  V30 5668 C 512.806 5.94897 2.28859 0
M  V30 5669 C 510.493 5.45045 2.7635 0
M  V30 5670 C 511.491 6.37211 2.45869 0
M  V30 5671 O 511.179 7.69581 2.3238 0
M  V30 5672 H 510.911 0.474718 0.481268 0
M  V30 5673 H 513.465 1.83012 0.932518 0
M  V30 5674 H 511.695 1.68043 3.48279 0
M  V30 5675 H 513.384 2.09921 3.47402 0
M  V30 5676 H 514.15 4.27874 2.28361 0
M  V30 5677 H 510.029 3.38797 3.1263 0
M  V30 5678 H 513.573 6.66802 2.04989 0
M  V30 5679 H 509.47 5.76889 2.89601 0
M  V30 5680 H 510.238 7.80169 2.47546 0
M  V30 5681 N 512.901 -0.976442 1.23707 0
M  V30 5682 C 514.178 -1.69296 0.979699 0
M  V30 5683 C 514.558 -2.0508 -0.500555 0
M  V30 5684 O 513.906 -1.74708 -1.47273 0
M  V30 5685 C 514.116 -2.93143 1.89389 0
M  V30 5686 C 515.464 -3.65572 2.15968 0
M  V30 5687 O 516.488 -3.03184 1.86971 0
M  V30 5688 O 515.347 -4.77859 2.65167 0
M  V30 5689 H 512.441 -0.739708 0.369812 0
M  V30 5690 H 514.987 -1.03131 1.34767 0
M  V30 5691 H 513.759 -2.63327 2.89439 0
M  V30 5692 H 513.382 -3.67044 1.52854 0
M  V30 5693 N 514.379 -1.04941 -1.1758 0
M  V30 5694 C 515.628 -0.753124 -1.87112 0
M  V30 5695 C 515.941 0.722507 -1.81767 0
M  V30 5696 O 517.147 1.13265 -2.46746 0
M  V30 5697 C 515.603 -1.29695 -3.35719 0
M  V30 5698 C 515.211 -2.80184 -3.49572 0
M  V30 5699 C 516.955 -1.07759 -4.10595 0
M  V30 5700 C 514.862 -3.2788 -4.92187 0
M  V30 5701 H 513.792 -0.278034 -0.700866 0
M  V30 5702 H 516.443 -1.26637 -1.32798 0
M  V30 5703 H 514.825 -0.711522 -3.89555 0
M  V30 5704 H 515.999 -3.44561 -3.05965 0
M  V30 5705 H 514.314 -3.00632 -2.88113 0
M  V30 5706 H 516.911 -1.40899 -5.15802 0
M  V30 5707 H 517.254 -0.0152302 -4.16297 0
M  V30 5708 H 517.787 -1.62809 -3.62957 0
M  V30 5709 H 514.526 -4.33535 -4.91658 0
M  V30 5710 H 514.046 -2.68245 -5.36475 0
M  V30 5711 H 515.725 -3.22412 -5.60945 0
M  V30 5712 N 515.857 1.33968 -0.830081 0
M  V30 5713 C 516.789 2.28194 -0.21448 0
M  V30 5714 C 517.802 1.5135 0.599752 0
M  V30 5715 O 518.991 1.73286 0.42826 0
M  V30 5716 C 516.091 3.31221 0.717356 0
M  V30 5717 C 515.264 4.37365 -0.055613 0
M  V30 5718 C 514.323 5.2011 0.798231 0
M  V30 5719 O 513.349 5.68691 0.240616 0
M  V30 5720 N 514.551 5.40523 2.11695 0
M  V30 5721 H 517.316 2.81662 -1.02405 0
M  V30 5722 H 514.877 1.46568 -0.687713 0
M  V30 5723 H 516.869 3.83477 1.29334 0
M  V30 5724 H 515.439 2.78095 1.42765 0
M  V30 5725 H 514.659 3.85727 -0.812936 0
M  V30 5726 H 515.947 5.05397 -0.587444 0
M  V30 5727 H 515.345 5.0274 2.59363 0
M  V30 5728 H 513.902 5.95871 2.64162 0
M  V30 5729 N 517.335 0.585699 1.46312 0
M  V30 5730 C 518.56 0.0762461 2.0726 0
M  V30 5731 C 518.985 -1.22071 1.43109 0
M  V30 5732 O 518.343 -1.73804 0.515942 0
M  V30 5733 C 518.391 -0.0729404 3.60526 0
M  V30 5734 O 517.495 -1.1287 3.96654 0
M  V30 5735 H 516.836 0.0641558 0.660893 0
M  V30 5736 H 519.366 0.809492 1.87905 0
M  V30 5737 H 519.376 -0.278158 4.07051 0
M  V30 5738 H 518.051 0.874188 4.06609 0
M  V30 5739 H 516.628 -0.901703 3.61834 0
M  V30 5740 N 518.813 -1.54241 0.323641 0
M  V30 5741 C 520.059 -2.00867 -0.279323 0
M  V30 5742 C 520.392 -1.21146 -1.5178 0
M  V30 5743 O 519.667 -0.29378 -1.92269 0
M  V30 5744 C 519.95 -3.54837 -0.613387 0
M  V30 5745 C 519.803 -4.45284 0.635803 0
M  V30 5746 C 521.122 -4.16186 -1.43099 0
M  V30 5747 H 518.241 -0.730177 -0.100049 0
M  V30 5748 H 520.883 -1.84829 0.440235 0
M  V30 5749 H 519.033 -3.68634 -1.22641 0
M  V30 5750 H 520.705 -4.43357 1.27406 0
M  V30 5751 H 518.948 -4.14956 1.26466 0
M  V30 5752 H 519.619 -5.5084 0.357597 0
M  V30 5753 H 522.095 -4.05964 -0.912814 0
M  V30 5754 H 520.971 -5.24031 -1.6335 0
M  V30 5755 H 521.232 -3.69516 -2.42715 0
M  V30 5756 N 520.291 -0.0518155 -1.57515 0
M  V30 5757 C 521.537 0.622745 -1.93002 0
M  V30 5758 C 521.87 1.70456 -0.930499 0
M  V30 5759 O 521.145 1.94452 0.0434086 0
M  V30 5760 C 521.428 1.21824 -3.38867 0
M  V30 5761 C 521.281 0.144434 -4.49568 0
M  V30 5762 C 522.6 2.12968 -3.8514 0
M  V30 5763 H 519.719 0.22491 -0.701844 0
M  V30 5764 H 522.361 -0.113711 -1.89659 0
M  V30 5765 H 520.511 1.8459 -3.41846 0
M  V30 5766 H 522.183 -0.48753 -4.58717 0
M  V30 5767 H 520.426 -0.527424 -4.30582 0
M  V30 5768 H 521.097 0.601127 -5.48717 0
M  V30 5769 H 523.573 1.60163 -3.8404 0
M  V30 5770 H 522.449 2.51578 -4.87852 0
M  V30 5771 H 522.71 3.03004 -3.21934 0
M  V30 5772 N 521.769 1.56035 0.221574 0
M  V30 5773 C 522.732 1.91584 1.2581 0
M  V30 5774 C 523.732 0.794425 1.39805 0
M  V30 5775 O 524.922 1.06217 1.38071 0
M  V30 5776 C 522.054 2.16663 2.63192 0
M  V30 5777 H 523.247 2.8429 0.954935 0
M  V30 5778 H 520.8 1.49316 0.461988 0
M  V30 5779 H 521.535 1.26508 2.98607 0
M  V30 5780 H 521.32 2.98358 2.5441 0
M  V30 5781 H 522.81 2.45262 3.37988 0
M  V30 5782 N 523.247 -0.488276 1.49845 0
M  V30 5783 C 524.157 -1.61451 1.70207 0
M  V30 5784 C 525.173 -1.63877 0.584846 0
M  V30 5785 O 526.349 -1.82063 0.861107 0
M  V30 5786 C 523.414 -2.9776 1.77594 0
M  V30 5787 C 522.475 -3.05861 3.01243 0
M  V30 5788 C 521.708 -4.35668 3.08268 0
M  V30 5789 O 521.931 -5.25197 2.22541 0
M  V30 5790 O 520.865 -4.49005 4.00847 0
M  V30 5791 H 524.691 -1.47199 2.65643 0
M  V30 5792 H 522.276 -0.665939 1.33737 0
M  V30 5793 H 524.158 -3.7875 1.84732 0
M  V30 5794 H 522.833 -3.12248 0.8534 0
M  V30 5795 H 521.74 -2.24012 2.99616 0
M  V30 5796 H 523.073 -2.96304 3.9302 0
M  V30 5797 N 524.725 -1.39134 -0.740242 0
M  V30 5798 C 526.002 -1.26584 -1.49117 0
M  V30 5799 C 526.382 0.126902 -2.10718 0
M  V30 5800 O 525.73 1.13765 -1.98166 0
M  V30 5801 C 525.94 -2.38619 -2.54681 0
M  V30 5802 C 527.288 -2.77685 -3.21211 0
M  V30 5803 O 528.312 -2.38029 -2.64991 0
M  V30 5804 O 527.171 -3.46115 -4.22926 0
M  V30 5805 H 524.265 -0.495769 -0.661923 0
M  V30 5806 H 526.811 -1.50995 -0.774514 0
M  V30 5807 H 525.583 -3.3175 -2.07504 0
M  V30 5808 H 525.206 -2.15845 -3.33911 0
M  V30 5809 N 526.204 0.969867 -1.24223 0
M  V30 5810 C 527.452 1.70918 -1.0785 0
M  V30 5811 C 527.773 1.91186 0.383763 0
M  V30 5812 O 527.043 1.48806 1.27411 0
M  V30 5813 H 525.623 0.633334 -0.396103 0
M  V30 5814 H 528.285 1.16689 -1.56108 0
M  V30 5815 H 527.381 2.69455 -1.57482 0
M  V30 5816 N 527.682 1.05563 1.17022 0
M  V30 5817 C 528.959 0.68165 1.83338 0
M  V30 5818 C 529.339 -0.837665 1.93769 0
M  V30 5819 O 528.687 -1.74507 1.47511 0
M  V30 5820 C 528.897 1.375 3.20772 0
M  V30 5821 C 530.245 1.51545 3.96635 0
M  V30 5822 O 531.269 1.33431 3.30264 0
M  V30 5823 O 530.128 1.812 5.15586 0
M  V30 5824 H 527.222 0.240412 0.791285 0
M  V30 5825 H 529.768 1.15545 1.24288 0
M  V30 5826 H 528.54 2.41135 3.08171 0
M  V30 5827 H 528.163 0.890798 3.87493 0
M  V30 5828 N 529.16 -1.33526 0.837174 0
M  V30 5829 C 530.407 -1.97837 0.432064 0
M  V30 5830 C 530.735 -1.66324 -1.00829 0
M  V30 5831 O 529.99 -0.93448 -1.71948 0
M  V30 5832 C 530.289 -3.52367 0.597675 0
M  V30 5833 C 529.955 -4.03826 2.00587 0
M  V30 5834 C 528.617 -4.1759 2.39106 0
M  V30 5835 C 530.969 -4.31333 2.92576 0
M  V30 5836 C 528.297 -4.56195 3.68921 0
M  V30 5837 C 530.649 -4.7139 4.2187 0
M  V30 5838 C 529.313 -4.8336 4.60347 0
M  V30 5839 H 528.583 -0.723937 0.158104 0
M  V30 5840 H 531.23 -1.5923 1.06387 0
M  V30 5841 H 529.535 -3.91624 -0.117452 0
M  V30 5842 H 531.232 -4.00126 0.26454 0
M  V30 5843 H 527.822 -3.93586 1.69671 0
M  V30 5844 H 532.006 -4.20224 2.64056 0
M  V30 5845 H 527.262 -4.63655 3.9854 0
M  V30 5846 H 531.436 -4.91631 4.93226 0
M  V30 5847 H 529.063 -5.1303 5.60985 0
M  V30 5848 N 530.638 -0.59345 -1.46 0
M  V30 5849 C 531.601 0.123538 -2.28867 0
M  V30 5850 C 532.601 0.808628 -1.38989 0
M  V30 5851 O 533.791 0.658945 -1.61256 0
M  V30 5852 C 530.923 1.1847 -3.19653 0
M  V30 5853 H 532.116 -0.604843 -2.93737 0
M  V30 5854 H 529.669 -0.351875 -1.52288 0
M  V30 5855 H 530.404 1.94431 -2.59552 0
M  V30 5856 H 530.189 0.69783 -3.8584 0
M  V30 5857 H 531.679 1.68726 -3.81997 0
M  V30 5858 N 532.116 1.54067 -0.331816 0
M  V30 5859 C 533.026 2.28322 0.539104 0
M  V30 5860 C 534.042 1.32985 1.1221 0
M  V30 5861 O 535.218 1.6601 1.1403 0
M  V30 5862 C 532.283 3.03277 1.68 0
M  V30 5863 C 531.344 4.14216 1.12798 0
M  V30 5864 C 530.577 4.85588 2.2145 0
M  V30 5865 O 530.8 4.56536 3.41952 0
M  V30 5866 O 529.734 5.72309 1.86404 0
M  V30 5867 H 533.56 3.03632 -0.0641692 0
M  V30 5868 H 531.145 1.49083 -0.0972365 0
M  V30 5869 H 533.027 3.50189 2.34405 0
M  V30 5870 H 531.702 2.30834 2.2693 0
M  V30 5871 H 530.609 3.71635 0.428782 0
M  V30 5872 H 531.942 4.88727 0.583698 0
M  V30 5873 N 533.594 0.0601682 1.57485 0
M  V30 5874 C 534.841 -0.611594 1.93043 0
M  V30 5875 C 535.169 -1.70317 0.939274 0
M  V30 5876 O 534.424 -1.95644 -0.046996 0
M  V30 5877 C 534.723 -1.23831 3.35262 0
M  V30 5878 C 534.389 -0.274037 4.50066 0
M  V30 5879 C 533.051 -0.00872394 4.81199 0
M  V30 5880 C 535.403 0.386308 5.19766 0
M  V30 5881 C 532.731 0.924218 5.79375 0
M  V30 5882 C 535.083 1.3075 6.1894 0
M  V30 5883 C 533.747 1.58139 6.48497 0
M  V30 5884 H 533.017 -0.223798 0.706396 0
M  V30 5885 H 535.664 0.128566 1.91068 0
M  V30 5886 H 533.969 -2.05394 3.33647 0
M  V30 5887 H 535.666 -1.76517 3.60059 0
M  V30 5888 H 532.256 -0.491008 4.25778 0
M  V30 5889 H 536.44 0.194436 4.95919 0
M  V30 5890 H 531.696 1.1438 6.00606 0
M  V30 5891 H 535.87 1.82519 6.72056 0
M  V30 5892 H 533.497 2.30593 7.24383 0
M  V30 5893 N 535.072 -1.5615 -0.213296 0
M  V30 5894 C 536.318 -1.79812 -0.937849 0
M  V30 5895 C 536.651 -0.631201 -1.83656 0
M  V30 5896 O 535.926 0.369165 -1.90964 0
M  V30 5897 C 536.209 -3.13613 -1.76972 0
M  V30 5898 C 536.062 -4.40766 -0.89695 0
M  V30 5899 C 537.381 -3.43931 -2.7459 0
M  V30 5900 H 534.5 -0.654138 -0.339518 0
M  V30 5901 H 537.142 -1.88877 -0.20623 0
M  V30 5902 H 535.292 -3.06015 -2.39347 0
M  V30 5903 H 536.964 -4.60392 -0.289306 0
M  V30 5904 H 535.207 -4.33326 -0.202756 0
M  V30 5905 H 535.878 -5.30843 -1.51358 0
M  V30 5906 H 538.354 -3.5171 -2.22349 0
M  V30 5907 H 537.23 -4.38706 -3.29891 0
M  V30 5908 H 537.491 -2.6651 -3.52739 0
M  V30 5909 N 536.55 0.480323 -1.50102 0
M  V30 5910 C 537.497 1.57946 -1.6829 0
M  V30 5911 C 538.467 1.57611 -0.524223 0
M  V30 5912 O 539.652 1.75282 -0.753709 0
M  V30 5913 C 536.792 2.95978 -1.77457 0
M  V30 5914 C 535.905 3.06173 -3.04766 0
M  V30 5915 C 535.04 4.35063 -3.04784 0
M  V30 5916 C 534.079 4.38966 -4.26586 0
M  V30 5917 N 533.216 5.59314 -4.24396 0
M  V30 5918 H 538.056 1.41743 -2.62131 0
M  V30 5919 H 535.593 0.689304 -1.2995 0
M  V30 5920 H 537.551 3.76011 -1.80752 0
M  V30 5921 H 536.181 3.10837 -0.870637 0
M  V30 5922 H 535.233 2.19071 -3.10986 0
M  V30 5923 H 536.545 3.04916 -3.9475 0
M  V30 5924 H 535.699 5.23436 -3.06757 0
M  V30 5925 H 534.438 4.38915 -2.12614 0
M  V30 5926 H 533.443 3.48992 -4.24835 0
M  V30 5927 H 534.668 4.36813 -5.19972 0
M  V30 5928 H 532.614 5.63969 -3.35074 0
M  V30 5929 H 532.531 5.5976 -5.08138 0
M  V30 5930 H 533.799 6.49837 -4.30502 0
M  V30 5931 N 538.028 1.39524 0.732853 0
M  V30 5932 C 539.258 1.3994 1.51988 0
M  V30 5933 C 539.666 -0.00727973 1.89199 0
M  V30 5934 O 539.009 -0.989521 1.54771 0
M  V30 5935 C 539.071 2.21026 2.83527 0
M  V30 5936 C 538.735 3.69633 2.68738 0
M  V30 5937 C 539.732 4.62665 2.37143 0
M  V30 5938 C 537.417 4.13244 2.85542 0
M  V30 5939 C 539.411 5.97291 2.22536 0
M  V30 5940 C 537.098 5.47945 2.70554 0
M  V30 5941 C 538.096 6.39783 2.39097 0
M  V30 5942 O 537.784 7.72002 2.24204 0
M  V30 5943 H 537.516 0.479795 0.476206 0
M  V30 5944 H 540.07 1.8399 0.913054 0
M  V30 5945 H 538.3 1.71728 3.46477 0
M  V30 5946 H 539.989 2.13594 3.45156 0
M  V30 5947 H 540.755 4.30272 2.2381 0
M  V30 5948 H 536.634 3.42094 3.09019 0
M  V30 5949 H 540.178 6.68939 1.97905 0
M  V30 5950 H 536.075 5.79928 2.83466 0
M  V30 5951 H 536.843 7.8275 2.39258 0
M  V30 5952 N 539.506 -0.963266 1.24736 0
M  V30 5953 C 540.755 -1.70115 1.08369 0
M  V30 5954 C 541.068 -1.91939 -0.376688 0
M  V30 5955 O 542.274 -2.6334 -0.660624 0
M  V30 5956 C 540.73 -3.06218 1.89099 0
M  V30 5957 C 540.338 -2.92221 3.39574 0
M  V30 5958 C 542.082 -3.83848 1.81275 0
M  V30 5959 C 539.989 -4.23662 4.12631 0
M  V30 5960 H 538.919 -0.637944 0.401924 0
M  V30 5961 H 541.57 -1.07304 1.48856 0
M  V30 5962 H 539.952 -3.69884 1.41429 0
M  V30 5963 H 541.126 -2.37541 3.94856 0
M  V30 5964 H 539.441 -2.28054 3.48397 0
M  V30 5965 H 542.038 -4.81188 2.33158 0
M  V30 5966 H 542.381 -4.08949 0.778895 0
M  V30 5967 H 542.914 -3.26918 2.26649 0
M  V30 5968 H 539.653 -4.03753 5.16395 0
M  V30 5969 H 539.173 -4.78141 3.62135 0
M  V30 5970 H 540.852 -4.92256 4.19873 0
M  V30 5971 N 540.985 -1.06182 -1.16461 0
M  V30 5972 C 541.895 -0.682671 -2.24448 0
M  V30 5973 C 542.911 0.30078 -1.71381 0
M  V30 5974 O 544.087 0.150376 -2.00838 0
M  V30 5975 C 541.152 -0.0737202 -3.46622 0
M  V30 5976 C 540.213 -1.10889 -4.14731 0
M  V30 5977 C 539.446 -0.528908 -5.31073 0
M  V30 5978 O 539.669 0.65868 -5.66584 0
M  V30 5979 O 538.603 -1.26805 -5.88391 0
M  V30 5980 H 542.429 -1.58291 -2.59187 0
M  V30 5981 H 540.014 -0.834013 -1.23954 0
M  V30 5982 H 541.896 0.264192 -4.20571 0
M  V30 5983 H 540.571 0.800015 -3.13658 0
M  V30 5984 H 539.478 -1.49896 -3.42756 0
M  V30 5985 H 540.811 -1.95412 -4.51747 0
M  V30 5986 N 542.463 1.3308 -0.844243 0
M  V30 5987 C 543.709 1.97898 -0.443206 0
M  V30 5988 C 544.042 1.66699 0.99625 0
M  V30 5989 O 543.317 0.949704 1.69738 0
M  V30 5990 C 543.6 3.53801 -0.670606 0
M  V30 5991 C 543.453 3.94667 -2.15772 0
M  V30 5992 C 544.772 4.39936 -0.120226 0
M  V30 5993 H 541.891 0.718861 -0.162504 0
M  V30 5994 H 544.533 1.57633 -1.06075 0
M  V30 5995 H 542.683 3.88229 -0.14496 0
M  V30 5996 H 544.355 3.70469 -2.74865 0
M  V30 5997 H 542.598 3.44203 -2.6402 0
M  V30 5998 H 543.269 5.03275 -2.26757 0
M  V30 5999 H 545.745 4.12183 -0.5696 0
M  V30 6000 H 544.621 5.4803 -0.308984 0
M  V30 6001 H 544.882 4.31184 0.976347 0
M  V30 6002 N 543.941 0.601185 1.45683 0
M  V30 6003 C 544.888 -0.121396 2.30481 0
M  V30 6004 C 545.858 -0.866232 1.41724 0
M  V30 6005 O 547.043 -0.85324 1.70659 0
M  V30 6006 C 544.183 -1.11704 3.26521 0
M  V30 6007 C 543.296 -0.373741 4.3038 0
M  V30 6008 C 542.431 -1.35854 5.13534 0
M  V30 6009 C 541.47 -0.602689 6.09126 0
M  V30 6010 N 540.607 -1.53645 6.85082 0
M  V30 6011 H 545.447 0.607732 2.91737 0
M  V30 6012 H 542.984 0.311502 1.43764 0
M  V30 6013 H 544.942 -1.70735 3.80664 0
M  V30 6014 H 543.572 -1.81366 2.67032 0
M  V30 6015 H 542.624 0.331962 3.78949 0
M  V30 6016 H 543.936 0.2163 4.98331 0
M  V30 6017 H 543.09 -2.02111 5.72046 0
M  V30 6018 H 541.829 -1.98251 4.45587 0
M  V30 6019 H 540.834 0.0735482 5.49751 0
M  V30 6020 H 542.059 0.0161467 6.79098 0
M  V30 6021 H 540.005 -2.14819 6.1983 0
M  V30 6022 H 539.922 -0.999688 7.49361 0
M  V30 6023 H 541.19 -2.1888 7.48139 0
M  V30 6024 N 545.419 -1.53889 0.339982 0
M  V30 6025 C 546.644 -2.05741 -0.261798 0
M  V30 6026 C 547.069 -1.21354 -1.43718 0
M  V30 6027 O 546.427 -0.22645 -1.7988 0
M  V30 6028 C 546.475 -3.54542 -0.658228 0
M  V30 6029 O 545.579 -3.7302 -1.75869 0
M  V30 6030 H 544.92 -0.662529 -0.0441672 0
M  V30 6031 H 547.45 -1.98568 0.493161 0
M  V30 6032 H 547.46 -3.9711 -0.936368 0
M  V30 6033 H 546.135 -4.15412 0.201358 0
M  V30 6034 H 544.712 -3.42355 -1.47809 0
M  V30 6035 N 546.897 -0.0685191 -1.57451 0
M  V30 6036 C 548.125 0.610462 -1.97689 0
M  V30 6037 C 548.54 1.63346 -0.946758 0
M  V30 6038 O 547.897 1.82377 0.0669868 0
M  V30 6039 C 547.948 1.28196 -3.38006 0
M  V30 6040 O 547.669 0.299906 -4.37072 0
M  V30 6041 C 549.17 2.04907 -3.931 0
M  V30 6042 H 546.39 0.165689 -0.650222 0
M  V30 6043 H 548.934 -0.139953 -2.04021 0
M  V30 6044 H 547.089 1.98348 -3.32771 0
M  V30 6045 H 547.503 0.78126 -5.18649 0
M  V30 6046 H 548.977 2.47287 -4.93511 0
M  V30 6047 H 549.454 2.9043 -3.29465 0
M  V30 6048 H 550.06 1.39629 -4.01726 0
M  V30 6049 N 548.375 1.56261 0.205012 0
M  V30 6050 C 549.322 1.93754 1.25411 0
M  V30 6051 C 550.292 0.796826 1.45739 0
M  V30 6052 O 551.477 1.05414 1.59036 0
M  V30 6053 C 548.617 2.27383 2.59598 0
M  V30 6054 C 547.73 3.5447 2.46931 0
M  V30 6055 C 546.865 3.77468 3.73753 0
M  V30 6056 C 545.904 4.98014 3.55877 0
M  V30 6057 N 545.041 5.17316 4.74688 0
M  V30 6058 H 549.881 2.83203 0.92737 0
M  V30 6059 H 547.418 1.40158 0.446574 0
M  V30 6060 H 549.376 2.44895 3.37761 0
M  V30 6061 H 548.006 1.41088 2.90335 0
M  V30 6062 H 547.058 3.45061 1.60116 0
M  V30 6063 H 548.37 4.42789 2.29651 0
M  V30 6064 H 547.524 3.95165 4.60358 0
M  V30 6065 H 546.263 2.87461 3.93976 0
M  V30 6066 H 545.268 4.80249 2.67657 0
M  V30 6067 H 546.493 5.8952 3.37109 0
M  V30 6068 H 544.439 4.30255 4.95194 0
M  V30 6069 H 544.356 5.99796 4.60197 0
M  V30 6070 H 545.624 5.39463 5.62672 0
M  V30 6071 N 549.853 -0.472356 1.50355 0
M  V30 6072 C 551.269 -0.806001 1.37753 0
M  V30 6073 C 551.469 -1.968 0.432649 0
M  V30 6074 O 550.525 -2.52189 -0.12519 0
M  V30 6075 C 551.838 -1.11926 2.79093 0
M  V30 6076 C 553.386 -1.22579 2.87999 0
M  V30 6077 C 553.861 -1.57218 4.3017 0
M  V30 6078 N 555.352 -1.64212 4.33115 0
M  V30 6079 C 556.087 -1.92517 5.40116 0
M  V30 6080 N 555.583 -2.1885 6.57325 0
M  V30 6081 N 557.376 -1.94008 5.27558 0
M  V30 6082 H 549.527 0.293451 2.10363 0
M  V30 6083 H 551.79 0.0687672 0.945503 0
M  V30 6084 H 551.496 -0.338504 3.50067 0
M  V30 6085 H 551.37 -2.05577 3.16256 0
M  V30 6086 H 553.757 -1.99722 2.17245 0
M  V30 6087 H 553.838 -0.269107 2.54381 0
M  V30 6088 H 553.482 -0.806154 5.01461 0
M  V30 6089 H 553.412 -2.54034 4.61275 0
M  V30 6090 H 555.903 -1.45906 3.48597 0
M  V30 6091 H 556.216 -2.39718 7.3468 0
M  V30 6092 H 554.561 -2.16245 6.60502 0
M  V30 6093 H 557.752 -1.72931 4.34986 0
M  V30 6094 H 557.925 -2.15731 6.11035 0
M  V30 6095 N 551.331 -1.39911 -0.725443 0
M  V30 6096 C 552.577 -1.37858 -1.48738 0
M  V30 6097 C 552.91 0.0224187 -1.94187 0
M  V30 6098 O 552.185 0.989204 -1.67466 0
M  V30 6099 C 552.468 -2.3594 -2.72038 0
M  V30 6100 C 552.321 -3.85023 -2.32546 0
M  V30 6101 C 553.64 -2.31704 -3.74167 0
M  V30 6102 H 550.759 -0.502074 -0.539528 0
M  V30 6103 H 553.401 -1.70974 -0.828728 0
M  V30 6104 H 551.551 -2.0783 -3.28236 0
M  V30 6105 H 553.223 -4.2392 -1.81905 0
M  V30 6106 H 551.466 -4.01334 -1.64661 0
M  V30 6107 H 552.137 -4.49152 -3.20884 0
M  V30 6108 H 554.613 -2.5658 -3.27576 0
M  V30 6109 H 553.489 -3.02395 -4.58092 0
M  V30 6110 H 553.75 -1.3253 -4.21768 0
M  V30 6111 N 552.809 0.956637 -1.25245 0
M  V30 6112 C 554.037 1.73571 -1.12608 0
M  V30 6113 C 554.452 1.86063 0.320324 0
M  V30 6114 O 553.809 1.35691 1.22042 0
M  V30 6115 C 553.86 3.15053 -1.77268 0
M  V30 6116 O 553.581 3.03174 -3.16255 0
M  V30 6117 C 555.082 4.09248 -1.70386 0
M  V30 6118 H 552.302 0.543955 -0.392879 0
M  V30 6119 H 554.846 1.20031 -1.65568 0
M  V30 6120 H 553.001 3.65543 -1.28284 0
M  V30 6121 H 553.415 3.9241 -3.48015 0
M  V30 6122 H 554.889 5.06138 -2.20291 0
M  V30 6123 H 555.366 4.34102 -0.667239 0
M  V30 6124 H 555.972 3.64672 -2.18849 0
M  V30 6125 N 554.287 1.06798 1.15896 0
M  V30 6126 C 555.533 0.788934 1.86825 0
M  V30 6127 C 555.866 -0.683084 1.8179 0
M  V30 6128 O 555.141 -1.50086 1.23711 0
M  V30 6129 C 555.424 1.29065 3.36176 0
M  V30 6130 C 555.277 2.8268 3.49874 0
M  V30 6131 C 556.596 0.902655 4.30744 0
M  V30 6132 H 553.715 0.288066 0.678371 0
M  V30 6133 H 556.357 1.32479 1.36195 0
M  V30 6134 H 554.507 0.834806 3.79425 0
M  V30 6135 H 556.179 3.36511 3.15528 0
M  V30 6136 H 554.422 3.21157 2.91617 0
M  V30 6137 H 555.093 3.12852 4.54783 0
M  V30 6138 H 557.569 1.29535 3.95424 0
M  V30 6139 H 556.445 1.28111 5.3374 0
M  V30 6140 H 556.706 -0.191951 4.41683 0
M  V30 6141 N 555.766 -1.3263 0.851289 0
M  V30 6142 C 557.177 -1.79653 0.5081 0
M  V30 6143 C 557.528 -1.70327 -0.973815 0
M  V30 6144 O 556.653 -1.25986 -1.75944 0
M  V30 6145 C 557.248 -3.26196 0.915515 0
M  V30 6146 C 555.807 -3.71187 0.624277 0
M  V30 6147 C 554.954 -2.53804 1.11709 0
M  V30 6148 H 557.905 -1.19976 1.03882 0
M  V30 6149 H 557.926 -3.79801 0.230535 0
M  V30 6150 H 557.438 -3.32952 1.99411 0
M  V30 6151 H 555.539 -3.69948 -0.443737 0
M  V30 6152 H 555.652 -4.64132 1.18821 0
M  V30 6153 H 554.016 -2.48964 0.537484 0
M  V30 6154 H 554.799 -2.63315 2.20272 0
M  V30 6155 N 557.244 -0.608902 -1.45362 0
M  V30 6156 C 558.192 0.121639 -2.32282 0
M  V30 6157 C 559.186 0.858301 -1.46046 0
M  V30 6158 O 560.392 0.773718 -1.62523 0
M  V30 6159 H 556.767 0.058086 -0.749753 0
M  V30 6160 H 558.738 -0.629866 -2.91677 0
M  V30 6161 C 557.487 1.1047 -3.29684 0
M  V30 6162 H 556.81 0.547278 -3.96036 0
M  V30 6163 H 558.25 1.58576 -3.9323 0
M  V30 6164 C 556.709 2.17891 -2.56954 0
M  V30 6165 O 557.239 3.25652 -2.35189 0
M  V30 6166 N 555.445 1.93211 -2.17066 0
M  V30 6167 H 554.992 1.05584 -2.34967 0
M  V30 6168 H 554.95 2.6529 -1.68727 0
M  V30 6169 N 558.722 1.53707 -0.348139 0
M  V30 6170 C 559.652 2.28111 0.498766 0
M  V30 6171 C 560.633 1.29851 1.09876 0
M  V30 6172 O 561.818 1.587 1.11928 0
M  V30 6173 C 558.948 3.05735 1.64753 0
M  V30 6174 C 557.902 4.11537 1.17565 0
M  V30 6175 C 557.228 4.77142 2.4133 0
M  V30 6176 C 558.528 5.21587 0.272844 0
M  V30 6177 H 560.222 2.99152 -0.121934 0
M  V30 6178 H 557.768 1.43875 -0.0600842 0
M  V30 6179 H 559.721 3.56526 2.24649 0
M  V30 6180 H 558.445 2.32354 2.2952 0
M  V30 6181 H 557.104 3.61665 0.599483 0
M  V30 6182 H 556.752 4.0035 3.04514 0
M  V30 6183 H 556.452 5.48626 2.10436 0
M  V30 6184 H 557.976 5.30719 3.01943 0
M  V30 6185 H 559.39 5.67986 0.778779 0
M  V30 6186 H 557.787 6.00074 0.0555849 0
M  V30 6187 H 558.857 4.79969 -0.689785 0
M  V30 6188 N 560.2 0.0768682 1.57412 0
M  V30 6189 C 561.477 -0.632359 1.85096 0
M  V30 6190 C 561.857 -1.87479 0.9703 0
M  V30 6191 O 561.205 -2.28469 0.0379062 0
M  V30 6192 C 561.415 -0.965174 3.35388 0
M  V30 6193 C 562.763 -1.33648 4.03018 0
M  V30 6194 O 563.787 -1.05675 3.40164 0
M  V30 6195 O 562.646 -1.85959 5.13889 0
M  V30 6196 H 559.74 -0.314574 0.764835 0
M  V30 6197 H 562.286 0.108184 1.69355 0
M  V30 6198 H 561.058 -0.0829745 3.91212 0
M  V30 6199 H 560.681 -1.76231 3.5641 0
M  V30 6200 N 561.678 -1.56367 -0.196722 0
M  V30 6201 C 562.955 -1.71359 -0.943159 0
M  V30 6202 C 563.335 -0.631192 -2.01443 0
M  V30 6203 O 562.683 0.358071 -2.25677 0
M  V30 6204 C 562.893 -3.13623 -1.53106 0
M  V30 6205 C 564.241 -3.73806 -2.01381 0
M  V30 6206 O 565.265 -3.16742 -1.62951 0
M  V30 6207 O 564.124 -4.73951 -2.7209 0
M  V30 6208 H 561.218 -0.698851 -0.442195 0
M  V30 6209 H 563.764 -1.68672 -0.186547 0
M  V30 6210 H 562.536 -3.83873 -0.758785 0
M  V30 6211 H 562.159 -3.20532 -2.35255 0
M  V30 6212 N 563.156 0.464375 -1.50603 0
M  V30 6213 C 564.567 1.04507 -1.5471 0
M  V30 6214 C 564.918 1.9297 -0.354542 0
M  V30 6215 O 564.043 2.09763 0.531812 0
M  V30 6216 C 564.638 1.90207 -2.80369 0
M  V30 6217 C 563.197 2.43373 -2.87135 0
M  V30 6218 C 562.344 1.21886 -2.49076 0
M  V30 6219 H 565.295 0.246716 -1.56771 0
M  V30 6220 H 565.316 2.75353 -2.62604 0
M  V30 6221 H 564.828 1.25796 -3.67147 0
M  V30 6222 H 562.929 3.11318 -2.04724 0
M  V30 6223 H 563.042 2.7802 -3.90181 0
M  V30 6224 H 561.406 1.55575 -2.01664 0
M  V30 6225 H 562.189 0.591268 -3.3817 0
M  V30 6226 N 564.634 1.40294 0.718013 0
M  V30 6227 C 565.859 1.41941 1.5122 0
M  V30 6228 C 566.284 0.0202371 1.88089 0
M  V30 6229 O 565.642 -0.971078 1.53101 0
M  V30 6230 C 565.69 2.3141 2.76554 0
M  V30 6231 O 564.794 1.75567 3.73162 0
M  V30 6232 H 564.135 0.482644 0.456016 0
M  V30 6233 H 566.665 1.84494 0.884478 0
M  V30 6234 H 566.675 2.46513 3.25108 0
M  V30 6235 H 565.35 3.33085 2.49053 0
M  V30 6236 H 563.927 1.69798 3.31999 0
M  V30 6237 N 566.112 -0.949982 1.2575 0
M  V30 6238 C 567.358 -1.69822 1.11947 0
M  V30 6239 C 567.713 -1.89455 -0.335334 0
M  V30 6240 O 567.006 -1.45778 -1.24336 0
M  V30 6241 C 567.2 -3.08039 1.81237 0
M  V30 6242 C 567.029 -3.0189 3.33305 0
M  V30 6243 C 565.799 -3.05391 4.02573 0
M  V30 6244 C 567.997 -2.827 4.29634 0
M  V30 6245 N 565.979 -2.89449 5.4138 0
M  V30 6246 C 567.35 -2.75237 5.55558 0
M  V30 6247 C 569.405 -2.67416 4.19992 0
M  V30 6248 C 568.108 -2.54051 6.72942 0
M  V30 6249 C 570.134 -2.47602 5.37073 0
M  V30 6250 C 569.496 -2.40863 6.6194 0
M  V30 6251 H 565.595 -0.629188 0.464378 0
M  V30 6252 H 568.179 -1.1249 1.58916 0
M  V30 6253 H 566.35 -3.63528 1.36756 0
M  V30 6254 H 568.082 -3.71671 1.60134 0
M  V30 6255 H 564.837 -3.14763 3.53866 0
M  V30 6256 H 565.261 -2.84669 6.14241 0
M  V30 6257 H 569.903 -2.71398 3.24196 0
M  V30 6258 H 567.621 -2.48811 7.68842 0
M  V30 6259 H 571.207 -2.36694 5.31477 0
M  V30 6260 H 570.087 -2.25732 7.51009 0
M  V30 6261 N 567.59 -1.07411 -1.15328 0
M  V30 6262 C 568.839 -0.792643 -1.85473 0
M  V30 6263 C 569.152 0.683789 -1.83259 0
M  V30 6264 O 570.358 1.08005 -2.49093 0
M  V30 6265 C 568.814 -1.36787 -3.32892 0
M  V30 6266 C 568.422 -2.87536 -3.43551 0
M  V30 6267 C 570.166 -1.16444 -4.08217 0
M  V30 6268 C 568.073 -3.38247 -4.85122 0
M  V30 6269 H 567.003 -0.292838 -0.694811 0
M  V30 6270 H 569.654 -1.29426 -1.30082 0
M  V30 6271 H 568.036 -0.793993 -3.87958 0
M  V30 6272 H 569.21 -3.50973 -2.98588 0
M  V30 6273 H 567.525 -3.06676 -2.81672 0
M  V30 6274 H 570.122 -1.51808 -5.12697 0
M  V30 6275 H 570.465 -0.10353 -4.16171 0
M  V30 6276 H 570.998 -1.70472 -3.59422 0
M  V30 6277 H 567.737 -4.43866 -4.82351 0
M  V30 6278 H 567.257 -2.79564 -5.30664 0
M  V30 6279 H 568.936 -3.34238 -5.5398 0
M  V30 6280 N 569.068 1.32177 -0.85831 0
M  V30 6281 C 570.345 1.91781 -0.384624 0
M  V30 6282 C 570.725 1.78171 1.13217 0
M  V30 6283 O 570.073 1.18209 1.95548 0
M  V30 6284 C 570.283 3.38414 -0.853047 0
M  V30 6285 C 571.631 4.15542 -0.872359 0
M  V30 6286 O 572.655 3.47148 -0.797926 0
M  V30 6287 O 571.514 5.37678 -0.978009 0
M  V30 6288 H 568.608 0.819259 -0.112886 0
M  V30 6289 H 571.154 1.40923 -0.945453 0
M  V30 6290 H 569.926 3.4228 -1.89632 0
M  V30 6291 H 569.549 3.96683 -0.269874 0
M  V30 6292 N 570.547 0.616602 1.45037 0
M  V30 6293 C 571.775 0.121968 2.0654 0
M  V30 6294 C 572.19 -1.19743 1.45969 0
M  V30 6295 O 571.547 -1.73133 0.577168 0
M  V30 6296 C 571.598 -0.0145171 3.61497 0
M  V30 6297 O 571.319 1.25269 4.19809 0
M  V30 6298 C 572.82 -0.539555 4.40004 0
M  V30 6299 H 570.04 0.0729837 0.667019 0
M  V30 6300 H 572.584 0.846891 1.8614 0
M  V30 6301 H 570.739 -0.689809 3.81209 0
M  V30 6302 H 571.153 1.08816 5.13088 0
M  V30 6303 H 572.627 -0.584112 5.48901 0
M  V30 6304 H 573.104 -1.56368 4.10421 0
M  V30 6305 H 573.71 0.101995 4.25178 0
M  V30 6306 N 572.025 -1.5352 0.356285 0
M  V30 6307 C 573.274 -2.00298 -0.237373 0
M  V30 6308 C 573.587 -1.24784 -1.50627 0
M  V30 6309 O 574.793 -1.62103 -2.17795 0
M  V30 6310 C 573.249 -3.56771 -0.473545 0
M  V30 6311 C 572.857 -4.41154 0.780183 0
M  V30 6312 C 574.601 -4.1193 -1.02537 0
M  V30 6313 C 572.508 -5.89161 0.514108 0
M  V30 6314 H 571.438 -0.748307 -0.092478 0
M  V30 6315 H 574.089 -1.77283 0.473588 0
M  V30 6316 H 572.471 -3.75902 -1.24553 0
M  V30 6317 H 573.645 -4.33797 1.55425 0
M  V30 6318 H 571.96 -3.97052 1.25455 0
M  V30 6319 H 574.557 -5.20133 -1.2396 0
M  V30 6320 H 574.9 -3.65943 -1.98473 0
M  V30 6321 H 575.433 -3.96561 -0.313775 0
M  V30 6322 H 572.172 -6.39408 1.44355 0
M  V30 6323 H 571.692 -5.9939 -0.221632 0
M  V30 6324 H 573.371 -6.46857 0.136122 0
M  V30 6325 N 573.503 -0.0852151 -1.57369 0
M  V30 6326 C 574.451 0.894856 -2.14698 0
M  V30 6327 C 575.445 1.29903 -1.08727 0
M  V30 6328 O 576.651 1.27471 -1.27088 0
M  V30 6329 H 573.026 0.306569 -0.686673 0
M  V30 6330 H 574.997 0.386542 -2.95886 0
M  V30 6331 C 573.746 2.14798 -2.73417 0
M  V30 6332 H 573.069 1.84585 -3.54638 0
M  V30 6333 H 574.509 2.81456 -3.1711 0
M  V30 6334 C 572.968 2.91546 -1.68828 0
M  V30 6335 O 573.498 3.85733 -1.12129 0
M  V30 6336 N 571.704 2.54901 -1.39549 0
M  V30 6337 H 571.251 1.7838 -1.85845 0
M  V30 6338 H 571.209 3.06553 -0.698054 0
M  V30 6339 N 574.981 1.5647 0.188427 0
M  V30 6340 C 575.911 1.98101 1.23606 0
M  V30 6341 C 576.892 0.853961 1.47111 0
M  V30 6342 O 578.077 1.11879 1.58735 0
M  V30 6343 C 575.207 2.32624 2.57882 0
M  V30 6344 C 574.161 3.48129 2.48978 0
M  V30 6345 C 573.487 3.68347 3.87588 0
M  V30 6346 C 574.787 4.82112 2.00911 0
M  V30 6347 H 576.481 2.85864 0.890068 0
M  V30 6348 H 574.027 1.37532 0.426714 0
M  V30 6349 H 575.98 2.60343 3.3136 0
M  V30 6350 H 574.704 1.41751 2.94235 0
M  V30 6351 H 573.363 3.20511 1.77956 0
M  V30 6352 H 573.011 2.74793 4.21305 0
M  V30 6353 H 572.711 4.46055 3.82503 0
M  V30 6354 H 574.235 3.98449 4.62678 0
M  V30 6355 H 575.649 5.08819 2.64151 0
M  V30 6356 H 574.046 5.63337 2.06814 0
M  V30 6357 H 575.116 4.75249 0.96262 0
M  V30 6358 N 576.459 -0.456382 1.50847 0
M  V30 6359 C 577.687 -1.23026 1.66349 0
M  V30 6360 C 578.102 -1.85473 0.352868 0
M  V30 6361 O 577.459 -1.69885 -0.666739 0
M  V30 6362 C 577.51 -2.32827 2.76539 0
M  V30 6363 O 577.231 -1.72938 4.02522 0
M  V30 6364 C 578.732 -3.23448 3.03144 0
M  V30 6365 H 575.952 -0.371527 0.558756 0
M  V30 6366 H 578.496 -0.543082 1.97157 0
M  V30 6367 H 576.651 -2.97294 2.48384 0
M  V30 6368 H 577.065 -2.45357 4.63573 0
M  V30 6369 H 578.539 -3.96669 3.83872 0
M  V30 6370 H 579.016 -3.83094 2.14793 0
M  V30 6371 H 579.622 -2.64702 3.32886 0
M  V30 6372 N 577.937 -1.40673 -0.710563 0
M  V30 6373 C 579.353 -1.22813 -1.01928 0
M  V30 6374 C 579.553 -0.10687 -2.01216 0
M  V30 6375 O 578.609 0.533614 -2.46797 0
M  V30 6376 C 579.922 -2.57178 -1.5582 0
M  V30 6377 C 581.47 -2.64233 -1.67779 0
M  V30 6378 C 581.945 -3.98879 -2.25076 0
M  V30 6379 N 583.436 -4.00647 -2.32456 0
M  V30 6380 C 584.171 -5.01621 -2.77784 0
M  V30 6381 N 583.667 -6.12989 -3.22826 0
M  V30 6382 N 585.46 -4.88988 -2.77213 0
M  V30 6383 H 577.611 -2.12335 -0.05253 0
M  V30 6384 H 579.874 -0.9441 -0.085898 0
M  V30 6385 H 579.58 -3.39903 -0.903249 0
M  V30 6386 H 579.454 -2.78618 -2.54267 0
M  V30 6387 H 581.841 -1.81876 -2.3239 0
M  V30 6388 H 581.922 -2.46619 -0.679178 0
M  V30 6389 H 581.566 -4.81678 -1.61086 0
M  V30 6390 H 581.496 -4.13826 -3.25661 0
M  V30 6391 H 583.987 -3.20231 -2.0065 0
M  V30 6392 H 584.3 -6.85921 -3.55995 0
M  V30 6393 H 582.645 -6.16547 -3.20773 0
M  V30 6394 H 585.836 -4.01075 -2.41363 0
M  V30 6395 H 586.009 -5.67822 -3.12221 0
M  V30 6396 N 579.415 0.9433 -1.26252 0
M  V30 6397 C 580.363 2.06302 -1.07434 0
M  V30 6398 C 581.357 1.694 -0.00189471 0
M  V30 6399 O 582.563 1.79302 -0.158408 0
M  V30 6400 H 578.938 0.675453 -0.330556 0
M  V30 6401 H 580.909 2.19326 -2.02333 0
M  V30 6402 C 579.658 3.40125 -0.721817 0
M  V30 6403 H 578.981 3.68996 -1.5389 0
M  V30 6404 H 580.421 4.19295 -0.629922 0
M  V30 6405 C 578.88 3.31993 0.572902 0
M  V30 6406 O 579.41 3.67945 1.61182 0
M  V30 6407 N 577.616 2.85099 0.562748 0
M  V30 6408 H 577.163 2.5604 -0.283092 0
M  V30 6409 H 577.121 2.80041 1.42915 0
M  V30 6410 N 580.893 1.08022 1.14757 0
M  V30 6411 C 581.803 0.718292 2.23333 0
M  V30 6412 C 582.819 -0.273477 1.71837 0
M  V30 6413 O 583.995 -0.118406 2.01052 0
M  V30 6414 C 581.06 0.128855 3.4646 0
M  V30 6415 C 580.121 1.17473 4.12915 0
M  V30 6416 C 579.354 0.61333 5.30164 0
M  V30 6417 O 579.577 -0.568458 5.6756 0
M  V30 6418 O 578.511 1.3615 5.86299 0
M  V30 6419 H 582.337 1.62394 2.56636 0
M  V30 6420 H 579.922 0.853628 1.22611 0
M  V30 6421 H 581.804 -0.197249 4.20938 0
M  V30 6422 H 580.479 -0.750014 3.14891 0
M  V30 6423 H 579.386 1.5533 3.40328 0
M  V30 6424 H 580.719 2.02574 4.48581 0
M  V30 6425 N 582.371 -1.3172 0.865308 0
M  V30 6426 C 583.617 -1.97559 0.483944 0
M  V30 6427 C 583.972 -1.67181 -0.95227 0
M  V30 6428 O 583.265 -0.955392 -1.66081 0
M  V30 6429 C 583.459 -3.5102 0.672283 0
M  V30 6430 C 583.288 -3.96312 2.12525 0
M  V30 6431 C 582.058 -4.22877 2.76591 0
M  V30 6432 C 584.256 -4.10596 3.09702 0
M  V30 6433 N 582.238 -4.5449 4.12689 0
M  V30 6434 C 583.609 -4.45867 4.30816 0
M  V30 6435 C 585.664 -3.92961 3.05755 0
M  V30 6436 C 584.367 -4.65344 5.48495 0
M  V30 6437 C 586.393 -4.13628 4.22688 0
M  V30 6438 C 585.755 -4.49227 5.42563 0
M  V30 6439 H 581.854 -0.74862 0.226035 0
M  V30 6440 H 584.438 -1.59336 1.11893 0
M  V30 6441 H 582.609 -3.88342 0.0669224 0
M  V30 6442 H 584.341 -4.03865 0.259765 0
M  V30 6443 H 581.096 -4.15343 2.27567 0
M  V30 6444 H 581.52 -4.74464 4.82921 0
M  V30 6445 H 586.162 -3.64531 2.14188 0
M  V30 6446 H 583.88 -4.92624 6.40584 0
M  V30 6447 H 587.466 -4.01474 4.21082 0
M  V30 6448 H 586.346 -4.64895 6.31539 0
M  V30 6449 N 583.85 -0.624285 -1.44708 0
M  V30 6450 C 585.099 -0.123539 -2.01321 0
M  V30 6451 C 585.412 1.25966 -1.49639 0
M  V30 6452 O 586.618 1.85405 -1.98336 0
M  V30 6453 C 585.074 -0.170124 -3.59498 0
M  V30 6454 C 584.682 -1.55421 -4.20176 0
M  V30 6455 C 586.426 0.274513 -4.23611 0
M  V30 6456 C 584.332 -1.55628 -5.70556 0
M  V30 6457 H 583.263 -0.0424183 -0.752806 0
M  V30 6458 H 585.913 -0.782076 -1.65999 0
M  V30 6459 H 584.296 0.555385 -3.92086 0
M  V30 6460 H 585.47 -2.30276 -3.99136 0
M  V30 6461 H 583.784 -1.94235 -3.68323 0
M  V30 6462 H 586.382 0.292402 -5.339 0
M  V30 6463 H 586.725 1.3005 -3.95465 0
M  V30 6464 H 587.258 -0.398275 -3.95801 0
M  V30 6465 H 583.997 -2.56041 -6.03426 0
M  V30 6466 H 583.517 -0.850563 -5.93739 0
M  V30 6467 H 585.196 -1.28721 -6.34066 0
M  V30 6468 N 585.328 1.53329 -0.364422 0
M  V30 6469 C 586.291 2.24323 0.470292 0
M  V30 6470 C 587.291 1.25068 1.01067 0
M  V30 6471 O 588.481 1.49354 0.896605 0
M  V30 6472 C 585.613 2.97908 1.65722 0
M  V30 6473 H 586.806 2.9952 -0.150917 0
M  V30 6474 H 584.359 1.55868 -0.116092 0
M  V30 6475 H 585.094 2.2695 2.31655 0
M  V30 6476 H 584.879 3.70732 1.27671 0
M  V30 6477 H 586.369 3.5188 2.24878 0
M  V30 6478 N 586.806 0.0935595 1.57322 0
M  V30 6479 C 587.769 -0.851426 2.12799 0
M  V30 6480 C 588.769 -1.21187 1.0569 0
M  V30 6481 O 589.959 -1.14156 1.31583 0
M  V30 6482 C 587.091 -2.14779 2.64731 0
M  V30 6483 H 588.284 -0.369733 2.97612 0
M  V30 6484 H 585.837 -0.155417 1.55525 0
M  V30 6485 H 586.572 -2.67437 1.83434 0
M  V30 6486 H 586.357 -1.89907 3.43042 0
M  V30 6487 H 587.847 -2.82383 3.07651 0
M  V30 6488 N 588.284 -1.56567 -0.180126 0
M  V30 6489 C 589.512 -1.85618 -0.913972 0
M  V30 6490 C 589.927 -0.677892 -1.7621 0
M  V30 6491 O 589.284 0.353171 -1.7905 0
M  V30 6492 C 589.335 -3.13619 -1.79793 0
M  V30 6493 O 589.056 -4.26906 -0.98402 0
M  V30 6494 C 590.557 -3.55954 -2.64219 0
M  V30 6495 H 587.777 -0.616043 -0.265954 0
M  V30 6496 H 590.321 -2.03681 -0.182872 0
M  V30 6497 H 588.476 -2.97409 -2.48247 0
M  V30 6498 H 588.89 -4.9989 -1.58776 0
M  V30 6499 H 590.364 -4.48444 -3.21873 0
M  V30 6500 H 590.841 -2.79653 -3.38661 0
M  V30 6501 H 591.447 -3.74746 -2.01111 0
M  V30 6502 N 589.762 0.448376 -1.51087 0
M  V30 6503 C 590.694 1.56146 -1.67783 0
M  V30 6504 C 591.707 1.52913 -0.55871 0
M  V30 6505 O 592.896 1.57889 -0.83267 0
M  V30 6506 C 589.996 2.95057 -1.66716 0
M  V30 6507 C 589.169 3.22915 -2.95033 0
M  V30 6508 C 588.228 4.41495 -2.86302 0
M  V30 6509 O 587.254 4.40688 -3.60254 0
M  V30 6510 N 588.456 5.44443 -2.014 0
M  V30 6511 H 591.221 1.42232 -2.638 0
M  V30 6512 H 588.782 0.637153 -1.48835 0
M  V30 6513 H 590.774 3.72388 -1.58458 0
M  V30 6514 H 589.344 3.02624 -0.783403 0
M  V30 6515 H 588.564 2.33985 -3.17245 0
M  V30 6516 H 589.852 3.38349 -3.79996 0
M  V30 6517 H 589.25 5.4793 -1.40674 0
M  V30 6518 H 587.807 6.2067 -1.99029 0
M  V30 6519 N 591.24 1.41047 0.703093 0
M  V30 6520 C 592.19 1.38774 1.80903 0
M  V30 6521 C 593.174 0.263275 1.58731 0
M  V30 6522 O 594.366 0.503362 1.69692 0
M  V30 6523 C 591.495 1.26497 3.19145 0
M  V30 6524 C 590.581 2.43775 3.47037 0
M  V30 6525 N 590.972 3.69249 3.45672 0
M  V30 6526 C 589.27 2.37425 3.77552 0
M  V30 6527 C 589.971 4.46989 3.72258 0
M  V30 6528 N 588.947 3.76998 3.91629 0
M  V30 6529 H 592.749 2.33714 1.78199 0
M  V30 6530 H 590.263 1.34996 0.902762 0
M  V30 6531 H 592.26 1.2295 3.98358 0
M  V30 6532 H 590.92 0.32534 3.23066 0
M  V30 6533 H 591.931 4.02239 3.26228 0
M  V30 6534 H 588.608 1.51895 3.88888 0
M  V30 6535 H 589.998 5.55894 3.77402 0
M  V30 6536 N 592.718 -0.936591 1.26751 0
M  V30 6537 C 593.665 -2.03597 1.08706 0
M  V30 6538 C 594.635 -1.66097 -0.00926542 0
M  V30 6539 O 595.82 -1.90199 0.151377 0
M  V30 6540 C 592.96 -3.3727 0.73094 0
M  V30 6541 C 592.073 -3.87778 1.90399 0
M  V30 6542 C 591.208 -5.09859 1.49056 0
M  V30 6543 C 590.247 -5.5264 2.63164 0
M  V30 6544 N 589.384 -6.65921 2.22471 0
M  V30 6545 H 594.224 -2.18364 2.02784 0
M  V30 6546 H 591.761 -1.06985 1.00958 0
M  V30 6547 H 593.719 -4.14128 0.505328 0
M  V30 6548 H 592.349 -3.22337 -0.172868 0
M  V30 6549 H 591.401 -3.07279 2.2424 0
M  V30 6550 H 592.713 -4.15464 2.76028 0
M  V30 6551 H 591.867 -5.9419 1.22567 0
M  V30 6552 H 590.606 -4.8393 0.60524 0
M  V30 6553 H 589.611 -4.66863 2.90377 0
M  V30 6554 H 590.836 -5.80568 3.52303 0
M  V30 6555 H 588.782 -6.41667 1.36379 0
M  V30 6556 H 588.699 -6.93216 3.01641 0
M  V30 6557 H 589.967 -7.53616 1.99205 0
M  V30 6558 N 594.196 -1.08629 -1.14182 0
M  V30 6559 C 595.421 -0.83902 -1.89671 0
M  V30 6560 C 595.846 0.603332 -1.78161 0
M  V30 6561 O 595.204 1.42301 -1.12339 0
M  V30 6562 C 595.252 -1.26854 -3.37551 0
M  V30 6563 O 594.356 -0.42188 -4.10236 0
M  V30 6564 H 593.697 -0.304545 -0.590041 0
M  V30 6565 H 596.227 -1.4483 -1.44518 0
M  V30 6566 H 596.237 -1.25038 -3.88368 0
M  V30 6567 H 594.912 -2.31901 -3.45246 0
M  V30 6568 H 593.489 -0.503654 -3.69483 0
M  V30 6569 N 595.674 1.31259 -0.872281 0
M  V30 6570 C 596.899 2.0133 -0.498099 0
M  V30 6571 C 597.324 1.65031 0.902568 0
M  V30 6572 O 596.682 0.860164 1.59596 0
M  V30 6573 C 596.73 3.54411 -0.665205 0
M  V30 6574 O 595.834 4.11347 0.294473 0
M  V30 6575 H 595.175 0.633844 -0.197832 0
M  V30 6576 H 597.705 1.67402 -1.17633 0
M  V30 6577 H 597.715 4.04147 -0.559373 0
M  V30 6578 H 596.39 3.80171 -1.68651 0
M  V30 6579 H 594.967 3.72624 0.143403 0
M  V30 6580 N 597.152 0.631951 1.44375 0
M  V30 6581 C 598.382 0.143658 2.061 0
M  V30 6582 C 598.79 -1.18733 1.47306 0
M  V30 6583 O 598.133 -1.73943 0.590724 0
M  V30 6584 C 598.195 -0.0446102 3.59472 0
M  V30 6585 C 597.859 1.20835 4.40736 0
M  V30 6586 C 598.856 2.13224 4.74164 0
M  V30 6587 C 596.541 1.44399 4.81097 0
M  V30 6588 C 598.535 3.27487 5.46838 0
M  V30 6589 C 596.222 2.58959 5.53519 0
M  V30 6590 C 597.22 3.50329 5.86309 0
M  V30 6591 O 596.908 4.62891 6.57257 0
M  V30 6592 H 596.64 0.0772939 0.671567 0
M  V30 6593 H 599.194 0.866677 1.8622 0
M  V30 6594 H 597.424 -0.822783 3.77845 0
M  V30 6595 H 599.113 -0.487561 4.02961 0
M  V30 6596 H 599.879 1.96253 4.4352 0
M  V30 6597 H 595.758 0.741696 4.54994 0
M  V30 6598 H 599.302 3.98826 5.72349 0
M  V30 6599 H 595.199 2.75873 5.83579 0
M  V30 6600 H 595.967 4.61883 6.75726 0
M  V30 6601 N 598.631 -1.53133 0.372548 0
M  V30 6602 C 599.861 -2.05476 -0.215202 0
M  V30 6603 C 600.269 -1.24534 -1.42436 0
M  V30 6604 O 599.612 -0.280771 -1.81542 0
M  V30 6605 C 599.674 -3.53276 -0.666068 0
M  V30 6606 C 599.338 -4.54998 0.427342 0
M  V30 6607 C 600.335 -5.03911 1.27944 0
M  V30 6608 C 598.02 -4.98828 0.589579 0
M  V30 6609 C 600.014 -5.95263 2.27905 0
M  V30 6610 C 597.701 -5.89984 1.59255 0
M  V30 6611 C 598.699 -6.38093 2.43571 0
M  V30 6612 O 598.387 -7.27451 3.42156 0
M  V30 6613 H 598.119 -0.67481 -0.040099 0
M  V30 6614 H 600.673 -1.98409 0.531312 0
M  V30 6615 H 598.903 -3.57904 -1.4643 0
M  V30 6616 H 600.592 -3.88442 -1.1776 0
M  V30 6617 H 601.358 -4.70792 1.16532 0
M  V30 6618 H 597.237 -4.60965 -0.0569456 0
M  V30 6619 H 600.781 -6.32736 2.93753 0
M  V30 6620 H 596.678 -6.22518 1.70711 0
M  V30 6621 H 597.446 -7.45467 3.37967 0
M  V30 6622 N 600.109 -0.101901 -1.5727 0
M  V30 6623 C 601.039 0.851544 -2.17419 0
M  V30 6624 C 602.02 1.28942 -1.10941 0
M  V30 6625 O 603.205 1.35509 -1.39107 0
M  V30 6626 C 600.335 2.10816 -2.75996 0
M  V30 6627 C 599.289 1.80867 -3.87906 0
M  V30 6628 C 598.615 3.13413 -4.33216 0
M  V30 6629 C 599.915 1.0903 -5.10793 0
M  V30 6630 H 601.609 0.350381 -2.97343 0
M  V30 6631 H 599.155 0.16709 -1.43027 0
M  V30 6632 H 601.108 2.77959 -3.16729 0
M  V30 6633 H 599.832 2.63227 -1.93337 0
M  V30 6634 H 598.491 1.16119 -3.47724 0
M  V30 6635 H 598.139 3.63725 -3.47438 0
M  V30 6636 H 597.839 2.94155 -5.08671 0
M  V30 6637 H 599.363 3.81704 -4.76586 0
M  V30 6638 H 600.777 1.66295 -5.48652 0
M  V30 6639 H 599.174 0.99927 -5.91722 0
M  V30 6640 H 600.244 0.0741704 -4.84843 0
M  V30 6641 N 601.587 1.56661 0.17182 0
M  V30 6642 C 602.817 1.85831 0.902804 0
M  V30 6643 C 603.225 0.685157 1.76358 0
M  V30 6644 O 602.568 -0.354947 1.80238 0
M  V30 6645 C 602.63 3.09406 1.83053 0
M  V30 6646 C 602.294 4.4231 1.1494 0
M  V30 6647 C 603.291 5.17342 0.515104 0
M  V30 6648 C 600.976 4.89045 1.14631 0
M  V30 6649 C 602.97 6.37299 -0.113194 0
M  V30 6650 C 600.657 6.08933 0.514184 0
M  V30 6651 C 601.655 6.82904 -0.114463 0
M  V30 6652 O 601.343 8.00518 -0.736622 0
M  V30 6653 H 601.075 0.620715 0.267748 0
M  V30 6654 H 603.629 2.04637 0.176918 0
M  V30 6655 H 601.859 2.86544 2.59672 0
M  V30 6656 H 603.548 3.25027 2.4313 0
M  V30 6657 H 604.314 4.82317 0.509474 0
M  V30 6658 H 600.193 4.31409 1.62502 0
M  V30 6659 H 603.737 6.94976 -0.604477 0
M  V30 6660 H 599.634 6.43423 0.517395 0
M  V30 6661 H 600.402 8.16027 -0.635822 0
M  V30 6662 N 603.065 -0.440357 1.51323 0
M  V30 6663 C 604.481 -0.7766 1.39431 0
M  V30 6664 C 604.681 -1.95838 0.474296 0
M  V30 6665 O 603.737 -2.52398 -0.0716692 0
M  V30 6666 C 605.05 -1.05981 2.81405 0
M  V30 6667 C 606.598 -1.16442 2.90534 0
M  V30 6668 C 607.073 -1.48058 4.33408 0
M  V30 6669 N 608.564 -1.54988 4.36501 0
M  V30 6670 C 609.299 -1.81017 5.44078 0
M  V30 6671 N 608.795 -2.04858 6.61819 0
M  V30 6672 N 610.588 -1.82774 5.31554 0
M  V30 6673 H 602.739 0.338006 2.09693 0
M  V30 6674 H 605.002 0.0888072 0.943831 0
M  V30 6675 H 604.708 -0.264173 3.50706 0
M  V30 6676 H 604.582 -1.98822 3.20546 0
M  V30 6677 H 606.969 -1.95068 2.21432 0
M  V30 6678 H 607.05 -0.215088 2.54894 0
M  V30 6679 H 606.694 -0.699605 5.03059 0
M  V30 6680 H 606.624 -2.44192 4.66559 0
M  V30 6681 H 609.115 -1.38479 3.51613 0
M  V30 6682 H 609.428 -2.2408 7.396 0
M  V30 6683 H 607.773 -2.02187 6.6494 0
M  V30 6684 H 610.964 -1.63665 4.38556 0
M  V30 6685 H 611.137 -2.02722 6.15474 0
M  V30 6686 N 604.543 -1.41418 -0.695603 0
M  V30 6687 C 605.789 -1.40982 -1.4578 0
M  V30 6688 C 606.122 -0.0187763 -1.94191 0
M  V30 6689 O 605.397 0.95346 -1.69527 0
M  V30 6690 C 605.68 -2.41657 -2.66972 0
M  V30 6691 C 605.533 -3.89869 -2.24327 0
M  V30 6692 C 606.852 -2.39589 -3.69168 0
M  V30 6693 H 603.971 -0.513405 -0.528757 0
M  V30 6694 H 606.613 -1.72693 -0.792275 0
M  V30 6695 H 604.763 -2.14746 -3.23754 0
M  V30 6696 H 606.435 -4.27683 -1.72872 0
M  V30 6697 H 604.678 -4.04737 -1.56111 0
M  V30 6698 H 605.349 -4.55857 -3.11285 0
M  V30 6699 H 607.825 -2.63471 -3.2206 0
M  V30 6700 H 606.701 -3.12044 -4.51575 0
M  V30 6701 H 606.962 -1.41447 -4.18862 0
M  V30 6702 N 606.021 0.929856 -1.27246 0
M  V30 6703 C 607.251 1.70895 -1.16096 0
M  V30 6704 C 607.659 1.87039 0.285122 0
M  V30 6705 O 607.002 1.38557 1.20614 0
M  V30 6706 C 607.064 3.12919 -1.7698 0
M  V30 6707 C 606.728 3.2012 -3.26148 0
M  V30 6708 C 607.725 3.02533 -4.22812 0
M  V30 6709 C 605.41 3.43148 -3.66817 0
M  V30 6710 C 607.404 3.07861 -5.58122 0
M  V30 6711 C 605.091 3.48109 -5.02258 0
M  V30 6712 C 606.089 3.30483 -5.97721 0
M  V30 6713 O 605.777 3.35175 -7.30694 0
M  V30 6714 H 605.509 0.54152 -0.404639 0
M  V30 6715 H 608.063 1.17342 -1.68582 0
M  V30 6716 H 606.293 3.67945 -1.18969 0
M  V30 6717 H 607.982 3.72787 -1.60576 0
M  V30 6718 H 608.748 2.84586 -3.92728 0
M  V30 6719 H 604.627 3.55918 -2.9299 0
M  V30 6720 H 608.171 2.94021 -6.32612 0
M  V30 6721 H 604.068 3.65579 -5.31998 0
M  V30 6722 H 604.836 3.51644 -7.39114 0
M  V30 6723 N 607.499 1.09233 1.13605 0
M  V30 6724 C 608.746 0.827159 1.84836 0
M  V30 6725 C 609.074 -0.647199 1.83416 0
M  V30 6726 O 608.329 -1.49228 1.26608 0
M  V30 6727 C 608.628 1.305 3.32723 0
M  V30 6728 C 608.294 2.78864 3.54325 0
M  V30 6729 C 606.956 3.19382 3.59928 0
M  V30 6730 C 609.308 3.74532 3.62457 0
M  V30 6731 C 606.636 4.54346 3.71196 0
M  V30 6732 C 608.988 5.09283 3.75252 0
M  V30 6733 C 607.652 5.49394 3.79108 0
M  V30 6734 H 606.922 0.302679 0.676363 0
M  V30 6735 H 609.569 1.36676 1.34134 0
M  V30 6736 H 607.874 0.68517 3.85762 0
M  V30 6737 H 609.571 1.07648 3.86281 0
M  V30 6738 H 606.161 2.46507 3.50617 0
M  V30 6739 H 610.345 3.44343 3.57409 0
M  V30 6740 H 605.601 4.84864 3.72447 0
M  V30 6741 H 609.775 5.83269 3.80487 0
M  V30 6742 H 607.402 6.5397 3.87591 0
M  V30 6743 N 608.977 -1.30795 0.87923 0
M  V30 6744 C 610.205 -2.00527 0.509548 0
M  V30 6745 C 610.62 -1.65944 -0.90045 0
M  V30 6746 O 609.977 -0.893525 -1.5913 0
M  V30 6747 C 610.028 -3.55276 0.667943 0
M  V30 6748 O 609.749 -3.88625 2.02242 0
M  V30 6749 C 611.25 -4.4228 0.300494 0
M  V30 6750 H 608.47 -0.641261 0.197549 0
M  V30 6751 H 611.014 -1.66813 1.18295 0
M  V30 6752 H 609.169 -3.87377 0.0419843 0
M  V30 6753 H 609.583 -4.83334 2.03688 0
M  V30 6754 H 611.057 -5.50061 0.462242 0
M  V30 6755 H 611.534 -4.32556 -0.76106 0
M  V30 6756 H 612.14 -4.15613 0.902536 0
M  V30 6757 N 610.455 -0.639598 -1.44038 0
M  V30 6758 C 611.866 -0.228866 -1.85292 0
M  V30 6759 C 612.217 1.22161 -1.53529 0
M  V30 6760 O 611.342 1.93064 -0.977518 0
M  V30 6761 C 611.937 -0.408592 -3.36327 0
M  V30 6762 C 610.496 -0.0522953 -3.76364 0
M  V30 6763 C 609.643 -0.717959 -2.67844 0
M  V30 6764 H 612.594 -0.844194 -1.34384 0
M  V30 6765 H 612.615 0.349968 -3.78887 0
M  V30 6766 H 612.127 -1.46435 -3.59414 0
M  V30 6767 H 610.228 1.0014 -3.58891 0
M  V30 6768 H 610.341 -0.468261 -4.76806 0
M  V30 6769 H 608.705 -0.152459 -2.54243 0
M  V30 6770 H 609.488 -1.77648 -2.93762 0
M  V30 6771 N 611.933 1.52934 -0.380664 0
M  V30 6772 C 613.181 2.01069 0.203874 0
M  V30 6773 C 613.502 1.26922 1.4804 0
M  V30 6774 O 612.772 0.386787 1.92044 0
M  V30 6775 H 611.352 0.742882 0.0783279 0
M  V30 6776 H 614.014 1.88099 -0.510368 0
M  V30 6777 H 613.11 3.09258 0.42021 0
M  V30 6778 N 613.412 0.11024 1.57214 0
M  V30 6779 C 614.342 -0.840002 2.17867 0
M  V30 6780 C 615.323 -1.28352 1.11624 0
M  V30 6781 O 616.508 -1.3477 1.39824 0
M  V30 6782 C 613.638 -2.09349 2.77111 0
M  V30 6783 C 612.592 -1.78807 3.8886 0
M  V30 6784 C 611.918 -3.11112 4.34872 0
M  V30 6785 C 613.218 -1.0632 5.11364 0
M  V30 6786 H 614.912 -0.334608 2.97524 0
M  V30 6787 H 612.458 -0.159502 1.43114 0
M  V30 6788 H 614.411 -2.76275 3.18198 0
M  V30 6789 H 613.135 -2.62198 1.9473 0
M  V30 6790 H 611.794 -1.14273 3.48335 0
M  V30 6791 H 611.442 -3.61877 3.49362 0
M  V30 6792 H 611.142 -2.91453 5.10224 0
M  V30 6793 H 612.666 -3.79171 4.78604 0
M  V30 6794 H 614.08 -1.63383 5.49526 0
M  V30 6795 H 612.477 -0.967876 5.92243 0
M  V30 6796 H 613.547 -0.0484569 4.84876 0
M  V30 6797 N 614.89 -1.56749 -0.16351 0
M  V30 6798 C 615.853 -1.96121 -1.18613 0
M  V30 6799 C 616.853 -0.845765 -1.36761 0
M  V30 6800 O 618.043 -1.11268 -1.34033 0
M  V30 6801 C 615.175 -2.26282 -2.54969 0
M  V30 6802 H 616.368 -2.87639 -0.848764 0
M  V30 6803 H 613.921 -1.50928 -0.406251 0
M  V30 6804 H 614.656 -1.37504 -2.93706 0
M  V30 6805 H 614.441 -3.07595 -2.43162 0
M  V30 6806 H 615.931 -2.57638 -3.28653 0
M  V30 6807 N 616.368 0.432326 -1.51554 0
M  V30 6808 C 617.596 1.20364 -1.68286 0
M  V30 6809 C 618.011 1.84888 -0.38233 0
M  V30 6810 O 617.368 1.70924 0.639627 0
M  V30 6811 C 617.419 2.28398 -2.80208 0
M  V30 6812 O 617.14 1.66512 -4.05223 0
M  V30 6813 C 618.641 3.18584 -3.08251 0
M  V30 6814 H 615.861 0.36259 -0.564596 0
M  V30 6815 H 618.405 0.511647 -1.97996 0
M  V30 6816 H 616.56 2.93305 -2.53083 0
M  V30 6817 H 616.974 2.37951 -4.67418 0
M  V30 6818 H 618.448 3.90511 -3.90135 0
M  V30 6819 H 618.925 3.79628 -2.2086 0
M  V30 6820 H 619.531 2.59372 -3.37055 0
M  V30 6821 N 617.846 1.41785 0.688094 0
M  V30 6822 C 618.779 1.38643 1.81255 0
M  V30 6823 C 619.757 0.252583 1.60626 0
M  V30 6824 O 620.941 0.440691 1.83276 0
M  V30 6825 C 618.068 1.16449 3.18053 0
M  V30 6826 C 617.114 2.32651 3.57457 0
M  V30 6827 S 617.947 3.95152 3.61407 0
M  V30 6828 C 619.103 3.75275 5.00919 0
M  V30 6829 H 619.336 2.33799 1.83644 0
M  V30 6830 H 616.869 1.28398 0.857513 0
M  V30 6831 H 618.827 1.0433 3.97021 0
M  V30 6832 H 617.488 0.229002 3.13264 0
M  V30 6833 H 616.681 2.12835 4.56856 0
M  V30 6834 H 616.283 2.41215 2.85817 0
M  V30 6835 H 618.575 3.35443 5.88629 0
M  V30 6836 H 619.518 4.74302 5.25778 0
M  V30 6837 H 619.926 3.08401 4.7281 0
M  V30 6838 N 619.324 -0.923095 1.27737 0
M  V30 6839 C 620.554 -1.70277 1.17001 0
M  V30 6840 C 620.962 -1.87188 -0.275199 0
M  V30 6841 O 620.305 -1.39195 -1.19877 0
M  V30 6842 C 620.367 -3.11976 1.78637 0
M  V30 6843 C 620.031 -3.18386 3.27841 0
M  V30 6844 C 621.028 -3.00287 4.2441 0
M  V30 6845 C 618.713 -3.41198 3.68632 0
M  V30 6846 C 620.707 -3.04896 5.59747 0
M  V30 6847 C 618.394 -3.4544 5.04097 0
M  V30 6848 C 619.392 -3.27309 5.99465 0
M  V30 6849 O 619.08 -3.31295 7.32461 0
M  V30 6850 H 618.812 -0.539366 0.407505 0
M  V30 6851 H 621.366 -1.16446 1.69202 0
M  V30 6852 H 619.596 -3.67308 1.20919 0
M  V30 6853 H 621.285 -3.7193 1.6255 0
M  V30 6854 H 622.051 -2.825 3.94232 0
M  V30 6855 H 617.93 -3.54359 2.94873 0
M  V30 6856 H 621.474 -2.90662 6.34162 0
M  V30 6857 H 617.371 -3.62753 5.33929 0
M  V30 6858 H 618.139 -3.47719 7.40968 0
M  V30 6859 N 620.802 -1.09834 -1.13024 0
M  V30 6860 C 622.048 -0.83819 -1.84668 0
M  V30 6861 C 622.381 0.634645 -1.83537 0
M  V30 6862 O 621.656 1.46753 -1.27647 0
M  V30 6863 C 621.939 -1.37933 -3.32636 0
M  V30 6864 C 621.792 -2.91857 -3.42257 0
M  V30 6865 C 623.111 -1.01654 -4.28199 0
M  V30 6866 H 620.23 -0.30595 -0.670495 0
M  V30 6867 H 622.872 -1.36044 -1.32635 0
M  V30 6868 H 621.022 -0.935111 -3.77078 0
M  V30 6869 H 622.694 -3.44759 -3.06495 0
M  V30 6870 H 620.937 -3.28776 -2.83 0
M  V30 6871 H 621.608 -3.24799 -4.46329 0
M  V30 6872 H 624.084 -1.39973 -3.9185 0
M  V30 6873 H 622.96 -1.42217 -5.30156 0
M  V30 6874 H 623.221 0.0747794 -4.42037 0
M  V30 6875 N 622.28 1.30327 -0.886154 0
M  V30 6876 C 623.529 1.95373 -0.501243 0
M  V30 6877 C 623.842 1.70722 0.954634 0
M  V30 6878 O 625.048 2.29761 1.44644 0
M  V30 6879 C 623.504 3.49828 -0.845493 0
M  V30 6880 C 623.112 3.83296 -2.31922 0
M  V30 6881 C 624.856 4.2118 -0.529838 0
M  V30 6882 C 622.763 5.30935 -2.60504 0
M  V30 6883 H 621.693 0.731274 -0.183722 0
M  V30 6884 H 624.344 1.48258 -1.08129 0
M  V30 6885 H 622.726 3.95522 -0.19452 0
M  V30 6886 H 623.9 3.48508 -3.01461 0
M  V30 6887 H 622.215 3.2505 -2.60253 0
M  V30 6888 H 624.812 5.29825 -0.720401 0
M  V30 6889 H 625.155 4.12902 0.530828 0
M  V30 6890 H 625.688 3.81173 -1.13806 0
M  V30 6891 H 622.427 5.44265 -3.65316 0
M  V30 6892 H 621.947 5.67019 -1.95575 0
M  V30 6893 H 623.626 5.98381 -2.46066 0
M  V30 6894 N 623.758 0.647228 1.43697 0
M  V30 6895 C 624.706 -0.0600105 2.32523 0
M  V30 6896 C 625.7 -0.819277 1.48271 0
M  V30 6897 O 626.906 -0.730356 1.64517 0
M  V30 6898 H 623.281 -0.0381872 0.75103 0
M  V30 6899 H 625.252 0.706978 2.89904 0
M  V30 6900 C 624.001 -1.0169 3.32497 0
M  V30 6901 H 623.324 -0.442083 3.97348 0
M  V30 6902 H 624.764 -1.48095 3.97296 0
M  V30 6903 C 623.223 -2.11002 2.6264 0
M  V30 6904 O 623.753 -3.19302 2.4374 0
M  V30 6905 N 621.959 -1.87388 2.22113 0
M  V30 6906 H 621.506 -0.993174 2.37684 0
M  V30 6907 H 621.464 -2.60723 1.75701 0
M  V30 6908 N 625.236 -1.5273 0.388769 0
M  V30 6909 C 626.513 -1.93981 -0.251133 0
M  V30 6910 C 626.893 -1.32418 -1.64404 0
M  V30 6911 O 626.241 -0.492074 -2.23139 0
M  V30 6912 C 626.451 -3.47891 -0.27802 0
M  V30 6913 C 627.799 -4.21559 -0.507229 0
M  V30 6914 O 628.823 -3.54394 -0.358252 0
M  V30 6915 O 627.682 -5.40626 -0.799094 0
M  V30 6916 H 624.776 -0.812157 -0.15598 0
M  V30 6917 H 627.322 -1.63809 0.443237 0
M  V30 6918 H 626.094 -3.8503 0.697669 0
M  V30 6919 H 625.717 -3.84364 -1.01733 0
M  V30 6920 N 626.714 -0.118576 -1.57153 0
M  V30 6921 C 628.125 0.40687 -1.82213 0
M  V30 6922 C 628.476 1.66636 -1.03571 0
M  V30 6923 O 627.601 2.14682 -0.272171 0
M  V30 6924 C 628.196 0.744949 -3.30509 0
M  V30 6925 C 626.755 1.21503 -3.5625 0
M  V30 6926 C 625.902 0.223511 -2.76398 0
M  V30 6927 H 628.853 -0.343712 -1.54933 0
M  V30 6928 H 628.874 1.6024 -3.45114 0
M  V30 6929 H 628.386 -0.171911 -3.87719 0
M  V30 6930 H 626.487 2.1488 -3.04396 0
M  V30 6931 H 626.6 1.16065 -4.64829 0
M  V30 6932 H 624.964 0.71046 -2.44591 0
M  V30 6933 H 625.747 -0.686439 -3.36367 0
M  V30 6934 N 628.193 1.56834 0.155195 0
M  V30 6935 C 629.44 1.82898 0.869179 0
M  V30 6936 C 629.768 0.698194 1.81537 0
M  V30 6937 O 629.023 -0.313404 1.93174 0
M  V30 6938 C 629.322 3.15239 1.68402 0
M  V30 6939 C 628.988 4.42123 0.885341 0
M  V30 6940 C 627.65 4.76583 0.664971 0
M  V30 6941 C 630.002 5.20178 0.326234 0
M  V30 6942 C 627.33 5.86566 -0.125346 0
M  V30 6943 C 629.682 6.3099 -0.45108 0
M  V30 6944 C 628.346 6.64006 -0.682102 0
M  V30 6945 H 627.616 0.66927 0.318055 0
M  V30 6946 H 630.263 1.91036 0.133241 0
M  V30 6947 H 628.568 3.02515 2.48982 0
M  V30 6948 H 630.265 3.32618 2.23978 0
M  V30 6949 H 626.855 4.15102 1.06716 0
M  V30 6950 H 631.039 4.93936 0.483787 0
M  V30 6951 H 626.295 6.10594 -0.313915 0
M  V30 6952 H 630.469 6.9067 -0.89149 0
M  V30 6953 H 628.096 7.49065 -1.29636 0
M  V30 6954 N 629.671 -0.424282 1.51781 0
M  V30 6955 C 630.899 -1.1947 1.68921 0
M  V30 6956 C 631.314 -1.84683 0.39213 0
M  V30 6957 O 630.671 -1.71261 -0.630554 0
M  V30 6958 C 630.722 -2.26909 2.81416 0
M  V30 6959 O 630.443 -1.64361 4.061 0
M  V30 6960 C 631.944 -3.16945 3.09937 0
M  V30 6961 H 629.164 -0.359591 0.566511 0
M  V30 6962 H 631.708 -0.501139 1.98265 0
M  V30 6963 H 629.863 -2.91959 2.54635 0
M  V30 6964 H 630.277 -2.35468 4.68674 0
M  V30 6965 H 631.751 -3.88437 3.922 0
M  V30 6966 H 632.228 -3.78451 2.22871 0
M  V30 6967 H 632.834 -2.57581 3.38426 0
M  V30 6968 N 631.149 -1.42148 -0.680565 0
M  V30 6969 C 632.096 -1.45175 -1.79424 0
M  V30 6970 C 633.066 -0.304352 -1.63288 0
M  V30 6971 O 634.251 -0.507591 -1.83924 0
M  V30 6972 C 631.391 -1.35429 -3.17416 0
M  V30 6973 C 630.504 -2.60158 -3.4488 0
M  V30 6974 C 629.639 -2.42596 -4.72568 0
M  V30 6975 C 628.678 -3.62727 -4.93047 0
M  V30 6976 N 627.815 -3.44143 -6.11973 0
M  V30 6977 H 632.655 -2.40349 -1.76172 0
M  V30 6978 H 630.192 -1.19334 -0.860107 0
M  V30 6979 H 632.15 -1.27777 -3.97151 0
M  V30 6980 H 630.78 -0.438536 -3.19807 0
M  V30 6981 H 629.832 -2.78199 -2.5944 0
M  V30 6982 H 631.144 -3.49473 -3.55908 0
M  V30 6983 H 630.298 -2.32497 -5.60384 0
M  V30 6984 H 629.037 -1.50761 -4.63813 0
M  V30 6985 H 628.042 -3.73264 -4.03676 0
M  V30 6986 H 629.267 -4.55534 -5.03652 0
M  V30 6987 H 627.213 -2.5502 -6.04401 0
M  V30 6988 H 627.13 -4.27041 -6.23836 0
M  V30 6989 H 628.398 -3.37845 -7.02482 0
M  V30 6990 N 632.627 0.916307 -1.28225 0
M  V30 6991 C 633.575 2.03977 -1.11786 0
M  V30 6992 C 634.569 1.69358 -0.0378265 0
M  V30 6993 O 635.775 1.78925 -0.196405 0
M  V30 6994 H 632.15 0.66829 -0.344809 0
M  V30 6995 H 634.121 2.14985 -2.06939 0
M  V30 6996 C 632.87 3.38518 -0.7938 0
M  V30 6997 H 632.193 3.65649 -1.61682 0
M  V30 6998 H 633.633 4.17864 -0.718719 0
M  V30 6999 C 632.092 3.33134 0.502353 0
M  V30 7000 O 632.622 3.71281 1.53341 0
M  V30 7001 N 630.828 2.86229 0.502147 0
M  V30 7002 H 630.375 2.55382 -0.337338 0
M  V30 7003 H 630.333 2.83009 1.36942 0
M  V30 7004 N 634.105 1.10431 1.1244 0
M  V30 7005 C 635.052 0.753103 2.18167 0
M  V30 7006 C 636.022 -0.270549 1.63882 0
M  V30 7007 O 637.207 -0.149837 1.90211 0
M  V30 7008 C 634.347 0.191046 3.44571 0
M  V30 7009 C 633.46 1.26999 4.12911 0
M  V30 7010 C 632.595 0.669586 5.26963 0
M  V30 7011 C 631.634 1.72912 5.87169 0
M  V30 7012 N 630.771 1.14898 6.92635 0
M  V30 7013 H 635.611 1.65892 2.47556 0
M  V30 7014 H 633.148 0.828631 1.21541 0
M  V30 7015 H 635.106 -0.152712 4.1692 0
M  V30 7016 H 633.736 -0.677997 3.15599 0
M  V30 7017 H 632.788 1.73087 3.3874 0
M  V30 7018 H 634.1 2.07204 4.53727 0
M  V30 7019 H 633.254 0.275274 6.06075 0
M  V30 7020 H 631.993 -0.163895 4.87425 0
M  V30 7021 H 630.998 2.13286 5.06744 0
M  V30 7022 H 632.223 2.56544 6.28778 0
M  V30 7023 H 630.169 0.336956 6.55134 0
M  V30 7024 H 630.086 1.88786 7.32049 0
M  V30 7025 H 631.354 0.78121 7.75576 0
M  V30 7026 N 635.583 -1.29855 0.893053 0
M  V30 7027 C 636.86 -1.90694 0.435336 0
M  V30 7028 C 637.24 -1.8111 -1.08454 0
M  V30 7029 O 636.588 -1.23352 -1.92345 0
M  V30 7030 C 636.798 -3.36033 0.942472 0
M  V30 7031 C 638.146 -4.13083 0.982226 0
M  V30 7032 O 639.17 -3.4491 0.889686 0
M  V30 7033 O 638.029 -5.34896 1.12022 0
M  V30 7034 H 635.123 -0.815978 0.134567 0
M  V30 7035 H 637.669 -1.38367 0.982484 0
M  V30 7036 H 636.441 -3.37132 1.9864 0
M  V30 7037 H 636.064 -3.95828 0.374952 0
M  V30 7038 N 637.061 -0.65484 -1.43351 0
M  V30 7039 C 638.338 -0.0987371 -1.95351 0
M  V30 7040 C 638.718 1.38161 -1.59608 0
M  V30 7041 O 638.066 2.10791 -0.882021 0
M  V30 7042 C 638.276 -0.346684 -3.47274 0
M  V30 7043 C 639.624 -0.25249 -4.23849 0
M  V30 7044 O 640.648 -0.279332 -3.55103 0
M  V30 7045 O 639.507 -0.177584 -5.46211 0
M  V30 7046 H 636.601 0.0086829 -0.826954 0
M  V30 7047 H 639.147 -0.728189 -1.53282 0
M  V30 7048 H 637.919 -1.37296 -3.66423 0
M  V30 7049 H 637.542 0.315757 -3.96344 0
M  V30 7050 N 638.539 1.52521 -0.396863 0
M  V30 7051 C 639.788 2.00857 0.184184 0
M  V30 7052 C 640.101 1.28733 1.47265 0
M  V30 7053 O 641.307 1.67821 2.13421 0
M  V30 7054 C 639.763 3.57901 0.378787 0
M  V30 7055 C 639.371 4.38931 -0.896873 0
M  V30 7056 C 641.115 4.14504 0.915789 0
M  V30 7057 C 639.022 5.87591 -0.670133 0
M  V30 7058 H 637.952 0.750496 0.0726055 0
M  V30 7059 H 640.603 1.75965 -0.520425 0
M  V30 7060 H 638.985 3.79072 1.14543 0
M  V30 7061 H 640.159 4.29524 -1.66872 0
M  V30 7062 H 638.474 3.93586 -1.35938 0
M  V30 7063 H 641.071 5.23236 1.10126 0
M  V30 7064 H 641.414 3.71076 1.88701 0
M  V30 7065 H 641.947 3.97253 0.208523 0
M  V30 7066 H 638.686 6.35355 -1.61257 0
M  V30 7067 H 638.206 5.99767 0.0626368 0
M  V30 7068 H 639.885 6.46268 -0.307577 0
M  V30 7069 N 640.017 0.126909 1.57088 0
M  V30 7070 C 640.947 -0.816847 2.18746 0
M  V30 7071 C 641.928 -1.27161 1.12979 0
M  V30 7072 O 643.113 -1.33279 1.41246 0
M  V30 7073 C 640.243 -2.06398 2.79315 0
M  V30 7074 C 639.197 -1.74673 3.90735 0
M  V30 7075 C 638.523 -3.06482 4.38147 0
M  V30 7076 C 639.823 -1.0089 5.12463 0
M  V30 7077 H 641.517 -0.303032 2.97863 0
M  V30 7078 H 639.063 -0.144314 1.43275 0
M  V30 7079 H 641.016 -2.72885 3.2111 0
M  V30 7080 H 639.74 -2.60118 1.975 0
M  V30 7081 H 638.399 -1.10572 3.49527 0
M  V30 7082 H 638.047 -3.58152 3.5318 0
M  V30 7083 H 637.747 -2.86025 5.13287 0
M  V30 7084 H 639.271 -3.74073 4.82599 0
M  V30 7085 H 640.685 -1.57546 5.51228 0
M  V30 7086 H 639.082 -0.905006 5.93237 0
M  V30 7087 H 640.152 0.00297335 4.849 0
M  V30 7088 N 641.495 -1.56914 -0.146875 0
M  V30 7089 C 642.911 -1.51582 -0.499518 0
M  V30 7090 C 643.111 -0.83535 -1.83369 0
M  V30 7091 O 642.167 -0.405932 -2.49216 0
M  V30 7092 C 643.48 -2.96349 -0.509711 0
M  V30 7093 C 645.028 -3.07288 -0.595217 0
M  V30 7094 C 645.503 -4.53562 -0.636071 0
M  V30 7095 N 646.994 -4.57906 -0.69829 0
M  V30 7096 C 647.729 -5.68462 -0.750886 0
M  V30 7097 N 647.225 -6.88588 -0.76282 0
M  V30 7098 N 649.018 -5.56496 -0.791777 0
M  V30 7099 H 641.169 -1.99547 0.727656 0
M  V30 7100 H 643.432 -0.910113 0.265327 0
M  V30 7101 H 643.138 -3.4939 0.402409 0
M  V30 7102 H 643.012 -3.52307 -1.34758 0
M  V30 7103 H 645.399 -2.54266 -1.49776 0
M  V30 7104 H 645.48 -2.54373 0.2698 0
M  V30 7105 H 645.124 -5.07222 0.262313 0
M  V30 7106 H 645.054 -5.04259 -1.51758 0
M  V30 7107 H 647.545 -3.71429 -0.696362 0
M  V30 7108 H 647.858 -7.68598 -0.804804 0
M  V30 7109 H 646.203 -6.91148 -0.730694 0
M  V30 7110 H 649.394 -4.61562 -0.779624 0
M  V30 7111 H 649.567 -6.42671 -0.829301 0
M  V30 7112 N 642.974 0.416227 -1.52004 0
M  V30 7113 C 643.937 1.48926 -1.74223 0
M  V30 7114 C 644.937 1.48693 -0.612119 0
M  V30 7115 O 646.127 1.50343 -0.879921 0
M  V30 7116 C 643.259 2.88372 -1.81809 0
M  V30 7117 H 644.452 1.3052 -2.70008 0
M  V30 7118 H 642.005 0.646271 -1.42313 0
M  V30 7119 H 642.74 3.12157 -0.879135 0
M  V30 7120 H 642.525 2.89944 -2.6396 0
M  V30 7121 H 644.015 3.66173 -2.00766 0
M  V30 7122 N 644.452 1.42507 0.673017 0
M  V30 7123 C 645.399 1.46124 1.78651 0
M  V30 7124 C 646.369 0.313007 1.63124 0
M  V30 7125 O 647.554 0.517337 1.83653 0
M  V30 7126 C 644.694 1.3711 3.16694 0
M  V30 7127 C 643.807 2.61983 3.43495 0
M  V30 7128 C 642.942 2.45098 4.71275 0
M  V30 7129 C 641.981 3.65336 4.91117 0
M  V30 7130 N 641.118 3.47383 6.10139 0
M  V30 7131 H 645.958 2.4128 1.74895 0
M  V30 7132 H 643.495 1.19788 0.853766 0
M  V30 7133 H 645.453 1.29881 3.96468 0
M  V30 7134 H 644.083 0.45549 3.1957 0
M  V30 7135 H 643.135 2.79571 2.57961 0
M  V30 7136 H 644.447 3.51355 3.5405 0
M  V30 7137 H 643.601 2.35466 5.59143 0
M  V30 7138 H 642.34 1.53219 4.63007 0
M  V30 7139 H 641.345 3.754 4.0169 0
M  V30 7140 H 642.57 4.58199 5.01229 0
M  V30 7141 H 640.516 2.58222 6.0304 0
M  V30 7142 H 640.433 4.30344 6.21563 0
M  V30 7143 H 641.701 3.41565 7.00681 0
M  V30 7144 N 645.93 -0.909495 1.28709 0
M  V30 7145 C 647.341 -1.47419 1.14563 0
M  V30 7146 C 647.692 -1.94432 -0.262832 0
M  V30 7147 O 646.817 -1.82842 -1.15748 0
M  V30 7148 C 647.412 -2.67933 2.07358 0
M  V30 7149 C 645.971 -3.20568 1.97264 0
M  V30 7150 C 645.118 -1.93269 1.98852 0
M  V30 7151 H 648.069 -0.721787 1.41336 0
M  V30 7152 H 648.09 -3.43339 1.64007 0
M  V30 7153 H 647.602 -2.33685 3.09859 0
M  V30 7154 H 645.703 -3.59531 0.978157 0
M  V30 7155 H 645.816 -3.85529 2.84436 0
M  V30 7156 H 644.18 -2.10553 1.43317 0
M  V30 7157 H 644.963 -1.61312 3.0304 0
M  V30 7158 N 647.408 -1.11026 -1.11852 0
M  V30 7159 C 648.654 -0.857729 -1.83768 0
M  V30 7160 C 648.987 0.615143 -1.842 0
M  V30 7161 O 648.262 1.45391 -1.29196 0
M  V30 7162 C 648.545 -1.41453 -3.31154 0
M  V30 7163 C 648.398 -2.95471 -3.39142 0
M  V30 7164 C 649.717 -1.0619 -4.27097 0
M  V30 7165 H 646.836 -0.313044 -0.667212 0
M  V30 7166 H 649.478 -1.37443 -1.31185 0
M  V30 7167 H 647.628 -0.975052 -3.76065 0
M  V30 7168 H 649.3 -3.4799 -3.02821 0
M  V30 7169 H 647.543 -3.31759 -2.79497 0
M  V30 7170 H 648.214 -3.29515 -4.42859 0
M  V30 7171 H 650.69 -1.44122 -3.90344 0
M  V30 7172 H 649.566 -1.47832 -5.28618 0
M  V30 7173 H 649.827 0.0278912 -4.42091 0
M  V30 7174 N 648.886 1.2938 -0.899927 0
M  V30 7175 C 650.111 2.00228 -0.540692 0
M  V30 7176 C 650.536 1.66909 0.867359 0
M  V30 7177 O 649.894 0.893824 1.57735 0
M  V30 7178 C 649.942 3.52921 -0.740232 0
M  V30 7179 O 649.046 4.11879 0.207154 0
M  V30 7180 H 648.387 0.629505 -0.211233 0
M  V30 7181 H 650.917 1.6487 -1.21158 0
M  V30 7182 H 650.927 4.0287 -0.644973 0
M  V30 7183 H 649.602 3.76508 -1.76677 0
M  V30 7184 H 648.179 3.72845 0.0643315 0
M  V30 7185 N 650.364 0.662433 1.43002 0
M  V30 7186 C 651.594 0.187343 2.05749 0
M  V30 7187 C 652.002 -1.15582 1.49791 0
M  V30 7188 O 651.345 -1.72651 0.627487 0
M  V30 7189 C 651.407 0.0316493 3.59486 0
M  V30 7190 C 651.071 1.30156 4.38073 0
M  V30 7191 C 652.068 2.23234 4.69535 0
M  V30 7192 C 649.753 1.54572 4.77926 0
M  V30 7193 C 651.747 3.39012 5.39768 0
M  V30 7194 C 649.434 2.70641 5.47902 0
M  V30 7195 C 650.432 3.62687 5.78746 0
M  V30 7196 O 650.12 4.76728 6.47291 0
M  V30 7197 H 649.852 0.0915214 0.669776 0
M  V30 7198 H 652.406 0.905982 1.8434 0
M  V30 7199 H 650.636 -0.742451 3.79506 0
M  V30 7200 H 652.325 -0.401977 4.03905 0
M  V30 7201 H 653.091 2.05616 4.39257 0
M  V30 7202 H 648.97 0.83804 4.53319 0
M  V30 7203 H 652.514 4.10877 5.63761 0
M  V30 7204 H 648.411 2.88189 5.77596 0
M  V30 7205 H 649.179 4.76113 6.65777 0
M  V30 7206 N 651.842 -1.52309 0.404946 0
M  V30 7207 C 653.258 -1.59503 0.0556255 0
M  V30 7208 C 653.458 -1.41805 -1.43156 0
M  V30 7209 O 652.514 -1.2429 -2.19792 0
M  V30 7210 C 653.827 -2.95687 0.546801 0
M  V30 7211 C 655.375 -3.08909 0.504413 0
M  V30 7212 C 655.85 -4.47566 0.97203 0
M  V30 7213 N 657.341 -4.53795 0.928679 0
M  V30 7214 C 658.076 -5.59346 1.26174 0
M  V30 7215 N 657.572 -6.72469 1.66604 0
M  V30 7216 N 659.365 -5.49532 1.18198 0
M  V30 7217 H 651.516 -1.6206 1.37296 0
M  V30 7218 H 653.779 -0.762161 0.563751 0
M  V30 7219 H 653.485 -3.13905 1.58609 0
M  V30 7220 H 653.359 -3.77172 -0.0457905 0
M  V30 7221 H 655.746 -2.90378 -0.525819 0
M  V30 7222 H 655.827 -2.2934 1.13301 0
M  V30 7223 H 655.471 -4.6684 2.00057 0
M  V30 7224 H 655.401 -5.25625 0.320292 0
M  V30 7225 H 657.892 -3.72588 0.631369 0
M  V30 7226 H 658.205 -7.48993 1.9034 0
M  V30 7227 H 656.55 -6.73761 1.70504 0
M  V30 7228 H 659.741 -4.60038 0.865011 0
M  V30 7229 H 659.914 -6.31687 1.44485 0
M  V30 7230 N 653.32 -0.135238 -1.57019 0
M  V30 7231 C 654.25 0.805235 -2.19176 0
M  V30 7232 C 655.231 1.2656 -1.13651 0
M  V30 7233 O 656.416 1.32528 -1.4195 0
M  V30 7234 C 653.546 2.04914 -2.80406 0
M  V30 7235 C 652.5 1.72598 -3.91655 0
M  V30 7236 C 651.826 3.04154 -4.39766 0
M  V30 7237 C 653.126 0.981709 -5.12991 0
M  V30 7238 H 654.82 0.287232 -2.98019 0
M  V30 7239 H 652.366 0.136714 -1.4335 0
M  V30 7240 H 654.319 2.71178 -3.22553 0
M  V30 7241 H 653.043 2.59067 -1.98877 0
M  V30 7242 H 651.702 1.08717 -3.50109 0
M  V30 7243 H 651.35 3.56274 -3.55075 0
M  V30 7244 H 651.05 2.83299 -5.14796 0
M  V30 7245 H 652.574 3.71509 -4.84576 0
M  V30 7246 H 653.988 1.5462 -5.52056 0
M  V30 7247 H 652.385 0.873533 -5.93708 0
M  V30 7248 H 653.455 -0.0286887 -4.84892 0
M  V30 7249 N 654.798 1.5699 0.138552 0
M  V30 7250 C 656.075 1.74741 0.87891 0
M  V30 7251 C 656.455 0.705522 1.98961 0
M  V30 7252 O 655.803 -0.274066 2.2685 0
M  V30 7253 C 656.013 3.1909 1.4136 0
M  V30 7254 C 657.361 3.81023 1.87368 0
M  V30 7255 O 658.385 3.22571 1.51084 0
M  V30 7256 O 657.244 4.83722 2.54312 0
M  V30 7257 H 654.338 0.714781 0.415953 0
M  V30 7258 H 656.884 1.69248 0.123817 0
M  V30 7259 H 655.656 3.86424 0.61579 0
M  V30 7260 H 655.279 3.29043 2.23196 0
M  V30 7261 N 656.276 -0.40816 1.52223 0
M  V30 7262 C 657.523 -1.15502 1.66329 0
M  V30 7263 C 657.851 -1.90474 0.393701 0
M  V30 7264 O 657.106 -1.85507 -0.623356 0
M  V30 7265 C 657.405 -2.17422 2.83659 0
M  V30 7266 C 657.071 -1.5925 4.21841 0
M  V30 7267 C 655.733 -1.4311 4.59427 0
M  V30 7268 C 658.085 -1.16776 5.0795 0
M  V30 7269 C 655.413 -0.830148 5.80797 0
M  V30 7270 C 657.765 -0.580988 6.29926 0
M  V30 7271 C 656.429 -0.406729 6.6626 0
M  V30 7272 H 655.699 -0.422653 0.608642 0
M  V30 7273 H 658.346 -0.442114 1.86327 0
M  V30 7274 H 656.651 -2.94861 2.58001 0
M  V30 7275 H 658.348 -2.75084 2.9177 0
M  V30 7276 H 654.938 -1.72796 3.92224 0
M  V30 7277 H 659.122 -1.28055 4.79495 0
M  V30 7278 H 654.378 -0.68316 6.07571 0
M  V30 7279 H 658.552 -0.243488 6.95974 0
M  V30 7280 H 656.179 0.0610366 7.60175 0
M  V30 7281 N 657.755 -1.42862 -0.66545 0
M  V30 7282 C 658.98 -1.47456 -1.45848 0
M  V30 7283 C 659.405 -0.0900312 -1.87884 0
M  V30 7284 O 658.763 0.913587 -1.56599 0
M  V30 7285 C 658.811 -2.41514 -2.67774 0
M  V30 7286 O 657.915 -1.89296 -3.66389 0
M  V30 7287 H 657.256 -0.499236 -0.437789 0
M  V30 7288 H 659.786 -1.8765 -0.815394 0
M  V30 7289 H 659.796 -2.58409 -3.15735 0
M  V30 7290 H 658.471 -3.42099 -2.36519 0
M  V30 7291 H 657.048 -1.82003 -3.25468 0
M  V30 7292 N 659.233 0.902656 -1.29189 0
M  V30 7293 C 660.181 2.0278 -1.13943 0
M  V30 7294 C 661.175 1.69308 -0.055787 0
M  V30 7295 O 662.381 1.78707 -0.215371 0
M  V30 7296 H 658.756 0.664595 -0.351877 0
M  V30 7297 H 660.727 2.12778 -2.09208 0
M  V30 7298 C 659.476 3.37657 -0.82966 0
M  V30 7299 H 658.799 3.63913 -1.65551 0
M  V30 7300 H 660.239 4.17078 -0.762998 0
M  V30 7301 C 658.698 3.33648 0.466991 0
M  V30 7302 O 659.228 3.72886 1.49395 0
M  V30 7303 N 657.434 2.86745 0.471761 0
M  V30 7304 H 656.981 2.55009 -0.364406 0
M  V30 7305 H 656.939 2.84446 1.33933 0
M  V30 7306 N 660.711 1.11618 1.11262 0
M  V30 7307 C 661.658 0.7762 2.17356 0
M  V30 7308 C 662.628 -0.253152 1.6416 0
M  V30 7309 O 663.813 -0.129655 1.90359 0
M  V30 7310 C 660.953 0.227581 3.44349 0
M  V30 7311 C 660.066 1.31372 4.1154 0
M  V30 7312 C 659.201 0.72544 5.26223 0
M  V30 7313 C 658.24 1.7913 5.85302 0
M  V30 7314 N 657.377 1.22237 6.91377 0
M  V30 7315 H 662.217 1.68508 2.45783 0
M  V30 7316 H 659.754 0.841475 1.20655 0
M  V30 7317 H 661.712 -0.108483 4.17059 0
M  V30 7318 H 660.342 -0.644486 3.16301 0
M  V30 7319 H 659.394 1.7667 3.36885 0
M  V30 7320 H 660.706 2.12005 4.51504 0
M  V30 7321 H 659.86 0.339541 6.05749 0
M  V30 7322 H 658.599 -0.112188 4.87571 0
M  V30 7323 H 657.604 2.18648 5.04453 0
M  V30 7324 H 658.829 2.63199 6.26022 0
M  V30 7325 H 656.775 0.406423 6.5474 0
M  V30 7326 H 656.692 1.9654 7.30006 0
M  V30 7327 H 657.96 0.863426 7.74703 0
M  V30 7328 N 662.189 -1.289 0.906776 0
M  V30 7329 C 663.152 -2.25777 0.394656 0
M  V30 7330 C 664.152 -1.53621 -0.475119 0
M  V30 7331 O 665.342 -1.71949 -0.279165 0
M  V30 7332 C 662.474 -3.38113 -0.43499 0
M  V30 7333 H 663.667 -2.72592 1.25033 0
M  V30 7334 H 661.22 -1.40463 0.685547 0
M  V30 7335 H 661.955 -2.96648 -1.31036 0
M  V30 7336 H 661.74 -3.91647 0.188334 0
M  V30 7337 H 663.23 -4.10168 -0.784365 0
M  V30 7338 N 663.667 -0.670007 -1.42649 0
M  V30 7339 C 664.913 -0.190568 -2.01903 0
M  V30 7340 C 665.246 1.19817 -1.52832 0
M  V30 7341 O 664.521 1.80342 -0.728485 0
M  V30 7342 C 664.804 -0.21991 -3.59428 0
M  V30 7343 C 664.657 -1.64376 -4.18689 0
M  V30 7344 C 665.976 0.434519 -4.3795 0
M  V30 7345 H 663.095 -0.0707219 -0.733599 0
M  V30 7346 H 665.737 -0.853883 -1.69732 0
M  V30 7347 H 663.887 0.344894 -3.86966 0
M  V30 7348 H 665.559 -2.26044 -4.02122 0
M  V30 7349 H 663.802 -2.18591 -3.747 0
M  V30 7350 H 664.473 -1.61601 -5.27815 0
M  V30 7351 H 666.949 -0.0462156 -4.16074 0
M  V30 7352 H 665.825 0.38333 -5.4756 0
M  V30 7353 H 666.086 1.51135 -4.15464 0
M  V30 7354 N 665.145 1.52092 -0.413018 0
M  V30 7355 C 666.422 1.94356 0.22024 0
M  V30 7356 C 666.802 1.35017 1.62277 0
M  V30 7357 O 666.15 0.527511 2.22328 0
M  V30 7358 C 666.36 3.48289 0.222638 0
M  V30 7359 C 667.708 4.22313 0.440098 0
M  V30 7360 O 668.732 3.54919 0.301826 0
M  V30 7361 O 667.591 5.41829 0.712984 0
M  V30 7362 H 664.685 0.814536 0.14304 0
M  V30 7363 H 667.231 1.63083 -0.469242 0
M  V30 7364 H 666.003 3.83872 -0.758836 0
M  V30 7365 H 665.626 3.85934 0.956057 0
M  V30 7366 N 666.623 0.143563 1.56945 0
M  V30 7367 C 667.87 -0.508407 1.96014 0
M  V30 7368 C 668.198 -1.65099 1.02824 0
M  V30 7369 O 667.453 -1.95618 0.0567764 0
M  V30 7370 C 667.752 -1.05885 3.41355 0
M  V30 7371 C 667.418 -0.0350809 4.50886 0
M  V30 7372 C 666.08 0.246362 4.80569 0
M  V30 7373 C 668.432 0.661282 5.16988 0
M  V30 7374 C 665.76 1.23003 5.73661 0
M  V30 7375 C 668.112 1.63375 6.11139 0
M  V30 7376 C 666.776 1.92292 6.39203 0
M  V30 7377 H 666.046 -0.186039 0.717266 0
M  V30 7378 H 668.693 0.229667 1.90118 0
M  V30 7379 H 666.998 -1.87419 3.44066 0
M  V30 7380 H 668.695 -1.57183 3.6891 0
M  V30 7381 H 665.285 -0.264622 4.27782 0
M  V30 7382 H 669.469 0.457038 4.94191 0
M  V30 7383 H 664.725 1.46056 5.93698 0
M  V30 7384 H 668.899 2.17887 6.61436 0
M  V30 7385 H 666.526 2.68666 7.11142 0
M  V30 7386 N 668.101 -1.57061 -0.130224 0
M  V30 7387 C 669.034 -1.94698 -1.19029 0
M  V30 7388 C 670.012 -0.815074 -1.40696 0
M  V30 7389 O 671.196 -1.07223 -1.55034 0
M  V30 7390 C 668.323 -2.23352 -2.5462 0
M  V30 7391 C 667.369 -3.45945 -2.49448 0
M  V30 7392 S 668.202 -4.98927 -1.94505 0
M  V30 7393 C 669.358 -5.30721 -3.31792 0
M  V30 7394 H 669.591 -2.84308 -0.869272 0
M  V30 7395 H 667.124 -1.50688 -0.336531 0
M  V30 7396 H 669.082 -2.40539 -3.32643 0
M  V30 7397 H 667.743 -1.34376 -2.83905 0
M  V30 7398 H 666.936 -3.63324 -3.49302 0
M  V30 7399 H 666.538 -3.28086 -1.79543 0
M  V30 7400 H 668.83 -5.25215 -4.27966 0
M  V30 7401 H 669.773 -6.32048 -3.19251 0
M  V30 7402 H 670.181 -4.5821 -3.29703 0
M  V30 7403 N 669.579 0.400081 -1.52437 0
M  V30 7404 C 670.825 1.14788 -1.67187 0
M  V30 7405 C 671.158 1.89928 -0.405074 0
M  V30 7406 O 670.433 1.85118 0.596804 0
M  V30 7407 C 670.716 2.13507 -2.89977 0
M  V30 7408 C 670.569 1.42204 -4.2673 0
M  V30 7409 C 671.888 3.14069 -3.083 0
M  V30 7410 H 669.007 0.415939 -0.608411 0
M  V30 7411 H 671.649 0.432542 -1.85011 0
M  V30 7412 H 669.799 2.7451 -2.74912 0
M  V30 7413 H 671.471 0.842503 -4.53541 0
M  V30 7414 H 669.714 0.723939 -4.27717 0
M  V30 7415 H 670.385 2.14281 -5.08712 0
M  V30 7416 H 672.861 2.63148 -3.22323 0
M  V30 7417 H 671.737 3.80398 -3.95713 0
M  V30 7418 H 671.998 3.82309 -2.22018 0
M  V30 7419 N 671.057 1.43213 0.657864 0
M  V30 7420 C 672.285 1.48015 1.44566 0
M  V30 7421 C 672.7 0.0965951 1.88553 0
M  V30 7422 O 672.057 -0.892221 1.59203 0
M  V30 7423 C 672.108 2.42199 2.68369 0
M  V30 7424 O 671.829 3.75173 2.26223 0
M  V30 7425 C 673.33 2.56195 3.61772 0
M  V30 7426 H 670.55 0.502861 0.444266 0
M  V30 7427 H 673.094 1.87907 0.806917 0
M  V30 7428 H 671.249 2.05514 3.28394 0
M  V30 7429 H 671.663 4.25776 3.06293 0
M  V30 7430 H 673.137 3.26182 4.4532 0
M  V30 7431 H 673.614 1.60534 4.0881 0
M  V30 7432 H 674.22 2.93671 3.07632 0
M  V30 7433 N 672.536 -0.895792 1.29666 0
M  V30 7434 C 673.446 -2.03329 1.17024 0
M  V30 7435 C 674.462 -1.73753 0.0925962 0
M  V30 7436 O 675.638 -1.99071 0.305431 0
M  V30 7437 C 672.703 -3.36072 0.851841 0
M  V30 7438 C 671.764 -3.7914 2.01373 0
M  V30 7439 C 670.997 -5.05549 1.71043 0
M  V30 7440 O 671.22 -5.66874 0.633213 0
M  V30 7441 O 670.154 -5.44764 2.5596 0
M  V30 7442 H 673.98 -2.16918 2.12556 0
M  V30 7443 H 671.565 -1.02007 1.09156 0
M  V30 7444 H 673.447 -4.15729 0.689006 0
M  V30 7445 H 672.122 -3.23616 -0.0736634 0
M  V30 7446 H 671.029 -3.00233 2.23183 0
M  V30 7447 H 672.362 -3.96186 2.92058 0
M  V30 7448 N 674.014 -1.12206 -1.10668 0
M  V30 7449 C 674.924 -0.800686 -2.20513 0
M  V30 7450 C 675.94 0.209512 -1.72734 0
M  V30 7451 O 677.116 0.043705 -2.01353 0
M  V30 7452 C 674.181 -0.257353 -3.45744 0
M  V30 7453 C 673.242 -1.32718 -4.0827 0
M  V30 7454 C 672.475 -0.809674 -5.27522 0
M  V30 7455 O 672.698 0.35742 -5.69279 0
M  V30 7456 O 671.632 -1.57816 -5.80842 0
M  V30 7457 H 675.458 -1.71807 -2.50432 0
M  V30 7458 H 673.043 -0.898546 -1.19359 0
M  V30 7459 H 674.925 0.0408849 -4.2138 0
M  V30 7460 H 673.6 0.632627 -3.17458 0
M  V30 7461 H 672.507 -1.67855 -3.34329 0
M  V30 7462 H 673.84 -2.19083 -4.40753 0
M  V30 7463 N 675.492 1.28418 -0.913599 0
M  V30 7464 C 676.439 2.27301 -0.400373 0
M  V30 7465 C 677.409 1.57582 0.52509 0
M  V30 7466 O 678.594 1.85482 0.447318 0
M  V30 7467 C 675.734 3.43284 0.35361 0
M  V30 7468 C 674.847 4.27752 -0.604341 0
M  V30 7469 C 673.982 5.30934 0.168075 0
M  V30 7470 C 673.021 6.07065 -0.783499 0
M  V30 7471 N 672.158 7.02086 -0.0446112 0
M  V30 7472 H 676.998 2.70579 -1.24865 0
M  V30 7473 H 674.535 1.33067 -0.627028 0
M  V30 7474 H 676.493 4.09322 0.806945 0
M  V30 7475 H 675.123 3.00997 1.16623 0
M  V30 7476 H 674.175 3.61759 -1.17621 0
M  V30 7477 H 675.487 4.80682 -1.33216 0
M  V30 7478 H 674.641 6.02855 0.681979 0
M  V30 7479 H 673.38 4.78771 0.928947 0
M  V30 7480 H 672.385 5.33995 -1.30878 0
M  V30 7481 H 673.61 6.61317 -1.54392 0
M  V30 7482 H 671.556 6.52273 0.698272 0
M  V30 7483 H 671.473 7.52637 -0.712258 0
M  V30 7484 H 672.741 7.78205 0.449102 0
M  V30 7485 N 676.97 0.677563 1.42291 0
M  V30 7486 C 677.88 0.000962654 2.346 0
M  V30 7487 C 678.896 -0.785833 1.55244 0
M  V30 7488 O 680.072 -0.727523 1.87801 0
M  V30 7489 C 677.137 -0.936746 3.33805 0
M  V30 7490 C 676.198 -0.144173 4.29058 0
M  V30 7491 C 675.431 -1.03722 5.23524 0
M  V30 7492 O 675.654 -2.27675 5.22992 0
M  V30 7493 O 674.588 -0.496542 5.99848 0
M  V30 7494 H 678.414 0.761397 2.94001 0
M  V30 7495 H 675.999 0.43781 1.42841 0
M  V30 7496 H 677.881 -1.47497 3.94744 0
M  V30 7497 H 676.556 -1.67698 2.76874 0
M  V30 7498 H 675.463 0.438224 3.71524 0
M  V30 7499 H 676.796 0.55701 4.89038 0
M  V30 7500 N 678.448 -1.51871 0.421078 0
M  V30 7501 C 679.358 -2.31077 -0.405069 0
M  V30 7502 C 680.374 -1.39301 -1.04265 0
M  V30 7503 O 681.55 -1.72376 -1.04157 0
M  V30 7504 C 678.615 -3.12556 -1.50032 0
M  V30 7505 C 677.676 -4.20088 -0.884559 0
M  V30 7506 C 676.909 -4.97673 -1.92762 0
M  V30 7507 O 677.132 -4.75696 -3.14753 0
M  V30 7508 O 676.066 -5.82203 -1.52719 0
M  V30 7509 H 679.892 -3.02742 0.241086 0
M  V30 7510 H 677.477 -1.48263 0.183991 0
M  V30 7511 H 679.359 -3.6326 -2.13589 0
M  V30 7512 H 678.034 -2.43672 -2.13086 0
M  V30 7513 H 676.941 -3.73502 -0.211379 0
M  V30 7514 H 678.274 -4.91298 -0.297763 0
M  V30 7515 N 679.926 -0.151884 -1.56866 0
M  V30 7516 C 681.156 0.504081 -2.00356 0
M  V30 7517 C 681.564 1.58639 -1.03103 0
M  V30 7518 O 680.907 1.83688 -0.0207931 0
M  V30 7519 C 680.969 1.15975 -3.40279 0
M  V30 7520 C 680.633 0.221453 -4.56463 0
M  V30 7521 C 681.63 -0.552766 -5.16953 0
M  V30 7522 C 679.315 0.122936 -5.0215 0
M  V30 7523 C 681.309 -1.4129 -6.21543 0
M  V30 7524 C 678.996 -0.740801 -6.06593 0
M  V30 7525 C 679.994 -1.50732 -6.6616 0
M  V30 7526 O 679.682 -2.35666 -7.68581 0
M  V30 7527 H 679.414 0.135279 -0.662326 0
M  V30 7528 H 681.968 -0.244916 -2.03935 0
M  V30 7529 H 680.198 1.95649 -3.33554 0
M  V30 7530 H 681.887 1.71594 -3.67846 0
M  V30 7531 H 682.653 -0.486716 -4.82552 0
M  V30 7532 H 678.532 0.70931 -4.5551 0
M  V30 7533 H 682.076 -2.01166 -6.67966 0
M  V30 7534 H 677.973 -0.808125 -6.40421 0
M  V30 7535 H 678.741 -2.28967 -7.85822 0
M  V30 7536 N 681.404 1.57128 0.121893 0
M  V30 7537 C 682.82 1.52357 0.47534 0
M  V30 7538 C 683.02 0.864417 1.82017 0
M  V30 7539 O 682.076 0.445529 2.48538 0
M  V30 7540 C 683.389 2.97122 0.4625 0
M  V30 7541 C 684.937 3.08196 0.546255 0
M  V30 7542 C 685.412 4.54516 0.563833 0
M  V30 7543 N 686.903 4.58959 0.625353 0
M  V30 7544 C 687.638 5.69585 0.660354 0
M  V30 7545 N 687.134 6.89714 0.653175 0
M  V30 7546 N 688.927 5.57685 0.703143 0
M  V30 7547 H 681.078 1.98364 -0.75931 0
M  V30 7548 H 683.341 0.905777 -0.279772 0
M  V30 7549 H 683.047 3.48706 -0.457943 0
M  V30 7550 H 682.921 3.54406 1.29136 0
M  V30 7551 H 685.308 2.56617 1.45712 0
M  V30 7552 H 685.389 2.53912 -0.310234 0
M  V30 7553 H 685.033 5.06741 -0.342974 0
M  V30 7554 H 684.963 5.06609 1.43716 0
M  V30 7555 H 687.454 3.72489 0.637182 0
M  V30 7556 H 687.767 7.69781 0.682425 0
M  V30 7557 H 686.112 6.92223 0.620646 0
M  V30 7558 H 689.303 4.62744 0.706095 0
M  V30 7559 H 689.476 6.43909 0.726952 0
M  V30 7560 O 682.921 -0.266262 1.5929 0
M  V30 7561 H 683.612 -0.91096 1.70942 0
M  V30 END ATOM
M  V30 BEGIN BOND
M  V30 END BOND
M  V30 END CTAB
M  END
$$$$
