drugbank_target|A5W4F4 Membrane protein involved in aromatic hydrocarbon degradation (DB04233)
 OpenBabel12092120443D

  0  0  0     0  0            999 V3000
M  V30 BEGIN CTAB
M  V30 COUNTS 6745 6816 0 0 0
M  V30 BEGIN ATOM
M  V30 1 H -0.908 1.98254 -0.117106 0
M  V30 2 N 0 1.576 0 0
M  V30 3 C 0.933 2.03868 1.02534 0
M  V30 4 C 1.911 0.928543 1.3348 0
M  V30 5 O 3.095 1.19667 1.45644 0
M  V30 6 C 0.222 2.43627 2.35294 0
M  V30 7 C -0.732 3.65373 2.2001 0
M  V30 8 S 0.101 5.13292 1.52614 0
M  V30 9 C 1.257 5.56322 2.86805 0
M  V30 10 H 1.49 2.90518 0.631377 0
M  V30 11 H -0.977 1.52953 0.210867 0
M  V30 12 H 0.981 2.67203 3.11629 0
M  V30 13 H -0.358 1.57376 2.7183 0
M  V30 14 H -1.165 3.90944 3.18086 0
M  V30 15 H -1.563 3.418 1.51819 0
M  V30 16 H 0.729 5.58782 3.83104 0
M  V30 17 H 1.672 6.56266 2.65933 0
M  V30 18 H 2.08 4.83886 2.90714 0
M  V30 19 N 1.4781 -0.272755 1.55222 0
M  V30 20 C 2.4251 -1.33716 1.88119 0
M  V30 21 C 3.3951 -1.49066 0.73271 0
M  V30 22 O 4.5801 -1.63469 0.984002 0
M  V30 23 C 1.7201 -2.69238 2.15882 0
M  V30 24 C 0.8331 -2.62108 3.43399 0
M  V30 25 C -0.0319 -3.89811 3.60861 0
M  V30 26 C -0.9929 -3.77193 4.8207 0
M  V30 27 N -1.8559 -4.9673 4.96189 0
M  V30 28 H 2.9841 -1.04962 2.78903 0
M  V30 29 H 0.5211 -0.507088 1.38083 0
M  V30 30 H 2.4791 -3.48089 2.29978 0
M  V30 31 H 1.1091 -2.96194 1.28331 0
M  V30 32 H 0.1611 -1.74967 3.37773 0
M  V30 33 H 1.4731 -2.48685 4.32386 0
M  V30 34 H 0.6271 -4.77103 3.74777 0
M  V30 35 H -0.6339 -4.06102 2.7006 0
M  V30 36 H -1.6289 -2.88284 4.68159 0
M  V30 37 H -0.4039 -3.62421 5.74307 0
M  V30 38 H -2.4579 -5.13431 4.08319 0
M  V30 39 H -2.5409 -4.85839 5.79221 0
M  V30 40 H -1.2729 -5.85594 5.1449 0
M  V30 41 N 2.9562 -1.48159 -0.537278 0
M  V30 42 C 4.2052 -1.5506 -1.28993 0
M  V30 43 C 4.5182 -0.226211 -1.94288 0
M  V30 44 O 5.7242 -0.173395 -2.70946 0
M  V30 45 C 4.1802 -2.73429 -2.34018 0
M  V30 46 C 3.7882 -4.1248 -1.74825 0
M  V30 47 C 5.5322 -2.89638 -3.10339 0
M  V30 48 C 3.4392 -5.22121 -2.77747 0
M  V30 49 H 2.3692 -0.577231 -0.485098 0
M  V30 50 H 5.0202 -1.74478 -0.568317 0
M  V30 51 H 3.4022 -2.47431 -3.09182 0
M  V30 52 H 4.5762 -4.48466 -1.05899 0
M  V30 53 H 2.8912 -4.01327 -1.11022 0
M  V30 54 H 5.4882 -3.68718 -3.87235 0
M  V30 55 H 5.8312 -1.9882 -3.65754 0
M  V30 56 H 6.3642 -3.15502 -2.42288 0
M  V30 57 H 3.1032 -6.1488 -2.27161 0
M  V30 58 H 2.6232 -4.90631 -3.45024 0
M  V30 59 H 4.3022 -5.49924 -3.4087 0
M  V30 60 N 4.4343 0.785586 -1.36625 0
M  V30 61 C 5.3973 1.87999 -1.31107 0
M  V30 62 C 6.3973 1.59316 -0.217959 0
M  V30 63 O 7.5873 1.67656 -0.472977 0
M  V30 64 C 4.7193 3.24861 -1.03334 0
M  V30 65 H 5.9123 1.94307 -2.2844 0
M  V30 66 H 3.4653 0.983813 -1.21453 0
M  V30 67 H 4.2003 3.24235 -0.0647432 0
M  V30 68 H 3.9853 3.4707 -1.82441 0
M  V30 69 H 5.4753 4.04929 -1.02088 0
M  V30 70 N 5.9124 1.20967 1.01018 0
M  V30 71 C 7.1374 1.0503 1.78839 0
M  V30 72 C 7.5624 -0.395752 1.8389 0
M  V30 73 O 6.9204 -1.28529 1.27867 0
M  V30 74 C 6.9684 1.64602 3.2084 0
M  V30 75 O 6.0724 0.887988 4.02726 0
M  V30 76 H 5.4134 0.369987 0.551367 0
M  V30 77 H 7.9434 1.60399 1.27018 0
M  V30 78 H 7.9534 1.68607 3.71532 0
M  V30 79 H 6.6284 2.69841 3.16479 0
M  V30 80 H 5.2054 0.922648 3.61305 0
M  V30 81 N 7.3905 -1.2043 1.01659 0
M  V30 82 C 8.6365 -1.90079 0.706963 0
M  V30 83 C 8.9695 -1.78648 -0.761474 0
M  V30 84 O 8.2445 -1.17069 -1.55323 0
M  V30 85 C 8.5275 -3.41469 1.14327 0
M  V30 86 C 8.3805 -3.61833 2.67201 0
M  V30 87 C 9.6995 -4.34261 0.714529 0
M  V30 88 H 6.8185 -0.690254 0.2583 0
M  V30 89 H 9.4605 -1.41826 1.26433 0
M  V30 90 H 7.6105 -3.82696 0.669056 0
M  V30 91 H 9.2825 -3.2986 3.22475 0
M  V30 92 H 7.5255 -3.05304 3.08175 0
M  V30 93 H 8.1965 -4.67955 2.92783 0
M  V30 94 H 10.6725 -4.00682 1.12221 0
M  V30 95 H 9.5485 -5.38806 1.04784 0
M  V30 96 H 9.8095 -4.40431 -0.383799 0
M  V30 97 N 8.8686 -0.792821 -1.36206 0
M  V30 98 C 9.7986 -0.207853 -2.32573 0
M  V30 99 C 10.7796 0.659055 -1.56813 0
M  V30 100 O 11.9646 0.592176 -1.84951 0
M  V30 101 C 9.0946 0.655449 -3.41059 0
M  V30 102 C 8.0486 -0.111842 -4.27854 0
M  V30 103 C 7.3746 0.872274 -5.27537 0
M  V30 104 C 8.6746 -1.30299 -5.05786 0
M  V30 105 H 10.3686 -1.01294 -2.81744 0
M  V30 106 H 7.9146 -0.48854 -1.3546 0
M  V30 107 H 9.8676 1.07464 -4.07467 0
M  V30 108 H 8.5916 1.49328 -2.90463 0
M  V30 109 H 7.2506 -0.512053 -3.63006 0
M  V30 110 H 6.8986 1.70523 -4.73214 0
M  V30 111 H 6.5986 0.363291 -5.86476 0
M  V30 112 H 8.1226 1.28996 -5.96818 0
M  V30 113 H 9.5366 -0.959379 -5.65216 0
M  V30 114 H 7.9336 -1.7455 -5.74154 0
M  V30 115 H 9.0036 -2.09663 -4.37229 0
M  V30 116 N 10.3467 1.47872 -0.545128 0
M  V30 117 C 11.3097 2.28337 0.198717 0
M  V30 118 C 12.3097 1.36255 0.853888 0
M  V30 119 O 13.4997 1.59003 0.711606 0
M  V30 120 C 10.6317 3.15585 1.28915 0
M  V30 121 H 11.8247 2.95567 -0.507941 0
M  V30 122 H 9.3777 1.53362 -0.301616 0
M  V30 123 H 10.1127 2.53019 2.02859 0
M  V30 124 H 9.8977 3.83337 0.824309 0
M  V30 125 H 11.3877 3.76243 1.81194 0
M  V30 126 N 11.8248 0.280983 1.55075 0
M  V30 127 C 12.7548 -0.597469 2.25727 0
M  V30 128 C 13.7358 -1.15417 1.24952 0
M  V30 129 O 14.9208 -1.18722 1.53684 0
M  V30 130 C 12.0508 -1.7789 2.98283 0
M  V30 131 C 11.0048 -1.35347 4.06036 0
M  V30 132 C 10.3308 -2.61846 4.66198 0
M  V30 133 C 11.6308 -0.499354 5.19907 0
M  V30 134 H 13.3248 -0.00824265 2.99399 0
M  V30 135 H 10.8708 -0.0025244 1.44 0
M  V30 136 H 12.8238 -2.39937 3.46422 0
M  V30 137 H 11.5478 -2.39405 2.22155 0
M  V30 138 H 10.2068 -0.756156 3.58717 0
M  V30 139 H 9.8548 -3.21632 3.86732 0
M  V30 140 H 9.5548 -2.3409 5.38958 0
M  V30 141 H 11.0788 -3.24732 5.1709 0
M  V30 142 H 12.4928 -1.02498 5.64063 0
M  V30 143 H 10.8898 -0.316424 5.99265 0
M  V30 144 H 11.9598 0.480459 4.82514 0
M  V30 145 N 13.3029 -1.57598 0.00835791 0
M  V30 146 C 14.7139 -1.7892 -0.53333 0
M  V30 147 C 15.0649 -0.916609 -1.73473 0
M  V30 148 O 14.1899 -0.121336 -2.1606 0
M  V30 149 C 14.7849 -3.24488 -0.974313 0
M  V30 150 C 13.3439 -3.46878 -1.46125 0
M  V30 151 C 12.4909 -2.74157 -0.416302 0
M  V30 152 H 15.4419 -1.56958 0.234495 0
M  V30 153 H 15.4629 -3.3306 -1.83988 0
M  V30 154 H 14.9749 -3.87972 -0.099718 0
M  V30 155 H 13.0759 -2.8862 -2.35646 0
M  V30 156 H 13.1889 -4.55572 -1.48295 0
M  V30 157 H 11.5529 -2.39022 -0.87981 0
M  V30 158 H 12.3359 -3.40345 0.44947 0
M  V30 159 N 14.781 0.264519 -1.55364 0
M  V30 160 C 15.711 1.33121 -1.91836 0
M  V30 161 C 16.692 1.51101 -0.781192 0
M  V30 162 O 17.877 1.64003 -1.04003 0
M  V30 163 C 15.007 2.68921 -2.19769 0
M  V30 164 C 13.961 2.65661 -3.35571 0
M  V30 165 C 13.287 4.05093 -3.49004 0
M  V30 166 C 14.587 2.24187 -4.71739 0
M  V30 167 H 16.281 1.02844 -2.81182 0
M  V30 168 H 13.827 0.493286 -1.35287 0
M  V30 169 H 15.78 3.43663 -2.43872 0
M  V30 170 H 14.504 3.00799 -1.27231 0
M  V30 171 H 13.163 1.93377 -3.1145 0
M  V30 172 H 12.811 4.34206 -2.53917 0
M  V30 173 H 12.511 4.03804 -4.26868 0
M  V30 174 H 14.035 4.81561 -3.75408 0
M  V30 175 H 15.449 2.88654 -4.9533 0
M  V30 176 H 13.846 2.34044 -5.52579 0
M  V30 177 H 14.916 1.19327 -4.69988 0
M  V30 178 N 16.2591 1.48442 0.529413 0
M  V30 179 C 17.4841 1.60406 1.31471 0
M  V30 180 C 17.9091 0.264738 1.86228 0
M  V30 181 O 17.2671 -0.763668 1.64432 0
M  V30 182 C 17.3151 2.65419 2.44101 0
M  V30 183 O 16.4191 2.22618 3.47153 0
M  V30 184 H 15.7601 0.537863 0.389357 0
M  V30 185 H 18.2901 1.94432 0.636965 0
M  V30 186 H 18.3001 2.86709 2.90279 0
M  V30 187 H 16.9751 3.62652 2.03608 0
M  V30 188 H 15.5521 2.11543 3.0709 0
M  V30 189 N 17.7372 -0.778329 1.37039 0
M  V30 190 C 18.9852 -1.53361 1.31623 0
M  V30 191 C 19.3062 -1.94739 -0.100831 0
M  V30 192 O 18.5762 -1.65797 -1.04347 0
M  V30 193 H 17.1562 -0.568794 0.484234 0
M  V30 194 H 19.8182 -0.926742 1.71457 0
M  V30 195 H 18.9142 -2.43606 1.95096 0
M  V30 196 N 19.2153 -1.21501 -1.00376 0
M  V30 197 C 20.4453 -1.05746 -1.77486 0
M  V30 198 C 20.8533 0.395655 -1.85017 0
M  V30 199 O 20.1963 1.28626 -1.31152 0
M  V30 200 C 20.2583 -1.58092 -3.22873 0
M  V30 201 C 19.9223 -3.06568 -3.38917 0
M  V30 202 C 20.9193 -4.04106 -3.271 0
M  V30 203 C 18.6043 -3.45799 -3.64319 0
M  V30 204 C 20.5983 -5.38862 -3.40451 0
M  V30 205 C 18.2853 -4.80707 -3.77311 0
M  V30 206 C 19.2833 -5.77047 -3.65384 0
M  V30 207 O 18.9713 -7.09507 -3.77961 0
M  V30 208 H 18.7033 -0.371778 -0.564586 0
M  V30 209 H 21.2573 -1.61319 -1.27143 0
M  V30 210 H 19.4873 -0.969163 -3.74358 0
M  V30 211 H 21.1763 -1.38162 -3.81662 0
M  V30 212 H 21.9423 -3.75141 -3.07399 0
M  V30 213 H 17.8213 -2.71344 -3.72684 0
M  V30 214 H 21.3653 -6.14041 -3.31058 0
M  V30 215 H 17.2623 -5.09357 -3.96517 0
M  V30 216 H 18.0303 -7.16935 -3.94901 0
M  V30 217 N 20.6934 1.19889 -1.02296 0
M  V30 218 C 21.6564 2.21116 -0.603351 0
M  V30 219 C 22.6564 1.5738 0.329884 0
M  V30 220 O 23.8464 1.73802 0.117702 0
M  V30 221 C 20.9784 3.40696 0.117992 0
M  V30 222 H 22.1714 2.59754 -1.49893 0
M  V30 223 H 19.7244 1.33463 -0.813468 0
M  V30 224 H 20.4594 3.07569 1.0282 0
M  V30 225 H 20.2444 3.88188 -0.552511 0
M  V30 226 H 21.7344 4.15692 0.398696 0
M  V30 227 N 22.1715 0.800033 1.35784 0
M  V30 228 C 23.4185 0.377342 1.98953 0
M  V30 229 C 23.7465 -1.05378 1.6348 0
M  V30 230 O 23.0015 -1.74459 0.886707 0
M  V30 231 C 23.3005 0.500276 3.53881 0
M  V30 232 C 22.9665 1.89375 4.09204 0
M  V30 233 C 21.6285 2.27499 4.24025 0
M  V30 234 C 23.9805 2.8057 4.39238 0
M  V30 235 C 21.3085 3.562 4.66195 0
M  V30 236 C 23.6605 4.0871 4.82844 0
M  V30 237 C 22.3245 4.46843 4.95871 0
M  V30 238 H 21.5945 0.138079 0.728021 0
M  V30 239 H 24.2415 1.01955 1.62103 0
M  V30 240 H 22.5465 -0.225405 3.91151 0
M  V30 241 H 24.2435 0.154097 4.00704 0
M  V30 242 H 20.8335 1.58753 3.98115 0
M  V30 243 H 25.0175 2.52367 4.27346 0
M  V30 244 H 20.2735 3.85602 4.74469 0
M  V30 245 H 24.4475 4.79481 5.05046 0
M  V30 246 H 22.0745 5.46623 5.28306 0
M  V30 247 N 23.6496 -1.47581 0.552962 0
M  V30 248 C 24.8746 -2.07378 0.0300593 0
M  V30 249 C 25.2996 -1.40355 -1.25229 0
M  V30 250 O 24.6576 -0.477099 -1.7491 0
M  V30 251 C 24.7056 -3.60274 -0.153231 0
M  V30 252 O 23.8096 -3.94041 -1.21678 0
M  V30 253 H 23.1506 -0.662158 0.0494182 0
M  V30 254 H 25.6806 -1.89662 0.767434 0
M  V30 255 H 25.6906 -4.0633 -0.368761 0
M  V30 256 H 24.3656 -4.08455 0.783397 0
M  V30 257 H 22.9426 -3.59735 -0.982079 0
M  V30 258 N 25.1277 -0.289203 -1.54924 0
M  V30 259 C 26.3737 0.323998 -2.00195 0
M  V30 260 C 26.7067 1.54441 -1.17735 0
M  V30 261 O 25.9817 1.92875 -0.250878 0
M  V30 262 C 26.2647 0.692276 -3.53383 0
M  V30 263 C 26.1177 -0.536457 -4.46589 0
M  V30 264 C 27.4367 1.52335 -4.12895 0
M  V30 265 H 24.5557 0.116289 -0.727768 0
M  V30 266 H 27.1977 -0.398954 -1.85764 0
M  V30 267 H 25.3477 1.30822 -3.65811 0
M  V30 268 H 27.0197 -1.17499 -4.46085 0
M  V30 269 H 25.2627 -1.17192 -4.1767 0
M  V30 270 H 25.9337 -0.234806 -5.515 0
M  V30 271 H 28.4097 1.00302 -4.0383 0
M  V30 272 H 27.2857 1.74982 -5.20262 0
M  V30 273 H 27.5467 2.50886 -3.64018 0
M  V30 274 N 26.6058 1.57591 -0.0167156 0
M  V30 275 C 27.5558 2.05953 0.978137 0
M  V30 276 C 28.5398 0.957532 1.29306 0
M  V30 277 O 29.7318 1.22119 1.28125 0
M  V30 278 C 26.8608 2.58006 2.26468 0
M  V30 279 C 25.9468 3.75113 1.97867 0
M  V30 280 N 26.3378 4.86187 1.39486 0
M  V30 281 C 24.6358 3.83363 2.27924 0
M  V30 282 C 25.3368 5.67502 1.27735 0
M  V30 283 N 24.3128 5.14023 1.76866 0
M  V30 284 H 28.1148 2.89236 0.521522 0
M  V30 285 H 25.6288 1.61301 0.188596 0
M  V30 286 H 27.6258 2.90937 2.98599 0
M  V30 287 H 26.2858 1.76148 2.72767 0
M  V30 288 H 27.2968 5.06695 1.07147 0
M  V30 289 H 23.9738 3.1239 2.76982 0
M  V30 290 H 25.3638 6.66791 0.826978 0
M  V30 291 N 28.0839 -0.256276 1.55502 0
M  V30 292 C 29.0469 -1.30047 1.88734 0
M  V30 293 C 30.0469 -1.4154 0.763086 0
M  V30 294 O 31.2369 -1.40403 1.03115 0
M  V30 295 C 28.3689 -2.67953 2.10747 0
M  V30 296 H 29.5619 -1.01802 2.82093 0
M  V30 297 H 27.1149 -0.495134 1.4825 0
M  V30 298 H 27.8499 -3.01351 1.19825 0
M  V30 299 H 27.6349 -2.60993 2.92617 0
M  V30 300 H 29.1249 -3.43368 2.37673 0
M  V30 301 N 29.562 -1.4872 -0.521534 0
M  V30 302 C 30.79 -1.60843 -1.30142 0
M  V30 303 C 31.205 -0.271897 -1.86832 0
M  V30 304 O 30.562 0.739969 -1.66825 0
M  V30 305 C 30.613 -2.66155 -2.4463 0
M  V30 306 O 30.334 -3.94623 -1.90275 0
M  V30 307 C 31.835 -2.88795 -3.36322 0
M  V30 308 H 29.055 -0.542075 -0.395468 0
M  V30 309 H 31.599 -1.94609 -0.628285 0
M  V30 310 H 29.754 -2.35224 -3.07812 0
M  V30 311 H 30.168 -4.52468 -2.65279 0
M  V30 312 H 31.642 -3.66264 -4.12983 0
M  V30 313 H 32.119 -1.97934 -3.9207 0
M  V30 314 H 32.725 -3.21063 -2.78924 0
M  V30 315 N 31.0401 0.771051 -1.3745 0
M  V30 316 C 31.9721 1.89352 -1.29146 0
M  V30 317 C 32.9851 1.61477 -0.207124 0
M  V30 318 O 34.1741 1.72382 -0.463324 0
M  V30 319 C 31.2741 3.24596 -0.974195 0
M  V30 320 C 30.4471 3.80111 -2.16413 0
M  V30 321 C 29.5061 4.93832 -1.81703 0
M  V30 322 O 28.5321 5.09382 -2.54006 0
M  V30 323 N 29.7341 5.75483 -0.761573 0
M  V30 324 H 32.4991 1.96991 -2.25864 0
M  V30 325 H 30.0601 0.950191 -1.31084 0
M  V30 326 H 32.0521 3.98193 -0.722828 0
M  V30 327 H 30.6221 3.12454 -0.0955527 0
M  V30 328 H 29.8421 2.98284 -2.57721 0
M  V30 329 H 31.1301 4.13932 -2.95867 0
M  V30 330 H 30.5281 5.65469 -0.161609 0
M  V30 331 H 29.0851 6.49302 -0.570064 0
M  V30 332 N 32.5182 1.22032 0.997298 0
M  V30 333 C 33.7642 1.04376 1.73878 0
M  V30 334 C 34.0972 -0.420716 1.89588 0
M  V30 335 O 33.3722 -1.31202 1.43583 0
M  V30 336 C 33.6552 1.75047 3.14691 0
M  V30 337 C 33.5082 3.29062 3.06656 0
M  V30 338 C 34.8272 1.49928 4.13775 0
M  V30 339 H 31.9462 0.380578 0.631133 0
M  V30 340 H 34.5882 1.50312 1.16217 0
M  V30 341 H 32.7382 1.35996 3.63919 0
M  V30 342 H 34.4102 3.7753 2.65083 0
M  V30 343 H 32.6532 3.58967 2.43568 0
M  V30 344 H 33.3242 3.73683 4.06282 0
M  V30 345 H 35.8002 1.83842 3.73285 0
M  V30 346 H 34.6762 2.01878 5.10428 0
M  V30 347 H 34.9372 0.430929 4.39995 0
M  V30 348 N 33.9963 -1.19345 1.0293 0
M  V30 349 C 35.2433 -1.89038 0.726008 0
M  V30 350 C 35.5713 -1.79649 -0.745427 0
M  V30 351 O 34.8263 -1.18354 -1.55855 0
M  V30 352 C 35.1253 -3.39292 1.12319 0
M  V30 353 C 34.7913 -3.68885 2.59297 0
M  V30 354 C 33.4533 -3.76671 2.99453 0
M  V30 355 C 35.8053 -3.82178 3.54386 0
M  V30 356 C 33.1333 -3.9522 4.33611 0
M  V30 357 C 35.4853 -4.0224 4.88248 0
M  V30 358 C 34.1493 -4.08259 5.28092 0
M  V30 359 H 33.4193 -0.691739 0.265665 0
M  V30 360 H 36.0663 -1.41328 1.29223 0
M  V30 361 H 34.3713 -3.88903 0.475584 0
M  V30 362 H 36.0683 -3.91536 0.866037 0
M  V30 363 H 32.6583 -3.63433 2.27189 0
M  V30 364 H 36.8423 -3.75505 3.24514 0
M  V30 365 H 32.0983 -3.98119 4.64016 0
M  V30 366 H 36.2723 -4.11468 5.61843 0
M  V30 367 H 33.8993 -4.22384 6.32057 0
M  V30 368 N 35.4744 -0.807222 -1.35358 0
M  V30 369 C 36.7514 -0.311126 -1.9311 0
M  V30 370 C 37.1314 1.19937 -1.73719 0
M  V30 371 O 36.4794 1.99918 -1.10657 0
M  V30 372 C 36.6894 -0.723226 -3.41424 0
M  V30 373 C 38.0374 -0.713078 -4.18569 0
M  V30 374 O 39.0614 -0.664811 -3.49941 0
M  V30 375 O 37.9204 -0.772022 -5.41019 0
M  V30 376 H 35.0144 -0.081526 -0.822972 0
M  V30 377 H 37.5604 -0.890962 -1.4443 0
M  V30 378 H 36.3324 -1.76426 -3.4927 0
M  V30 379 H 35.9554 -0.118232 -3.97424 0
M  V30 380 N 36.9525 1.47285 -0.560781 0
M  V30 381 C 37.8825 2.32857 0.173105 0
M  V30 382 C 38.8635 1.44009 0.905281 0
M  V30 383 O 40.0485 1.7286 0.885046 0
M  V30 384 C 37.1785 3.25861 1.20133 0
M  V30 385 C 36.1325 4.23978 0.585388 0
M  V30 386 C 35.4585 5.06332 1.7185 0
M  V30 387 C 36.7585 5.20242 -0.463178 0
M  V30 388 H 38.4525 2.94466 -0.541307 0
M  V30 389 H 35.9985 1.41601 -0.261764 0
M  V30 390 H 37.9515 3.84569 1.72293 0
M  V30 391 H 36.6755 2.62315 1.94573 0
M  V30 392 H 35.3345 3.66501 0.085054 0
M  V30 393 H 34.9825 4.39186 2.45203 0
M  V30 394 H 34.6825 5.72762 1.31213 0
M  V30 395 H 36.2065 5.67899 2.24329 0
M  V30 396 H 37.6205 5.73293 -0.027502 0
M  V30 397 H 36.0175 5.94896 -0.788627 0
M  V30 398 H 37.0875 4.65504 -1.35773 0
M  V30 399 N 38.4306 0.297415 1.54768 0
M  V30 400 C 39.3406 -0.58983 2.27064 0
M  V30 401 C 40.3566 -1.15144 1.30453 0
M  V30 402 O 41.5326 -1.17699 1.63428 0
M  V30 403 C 38.5976 -1.74714 2.9946 0
M  V30 404 C 37.6586 -1.21997 4.11601 0
M  V30 405 C 36.8916 -2.32212 4.80535 0
M  V30 406 O 37.1146 -3.52036 4.48806 0
M  V30 407 O 36.0486 -1.99106 5.68014 0
M  V30 408 H 39.8746 -0.00348199 3.037 0
M  V30 409 H 37.4596 0.0640035 1.49263 0
M  V30 410 H 39.3416 -2.42147 3.44881 0
M  V30 411 H 38.0166 -2.32016 2.25722 0
M  V30 412 H 36.9236 -0.511458 3.70587 0
M  V30 413 H 38.2566 -0.692419 4.87305 0
M  V30 414 N 39.9087 -1.5758 0.0250728 0
M  V30 415 C 41.1567 -1.91255 -0.653151 0
M  V30 416 C 41.4777 -0.901691 -1.729 0
M  V30 417 O 40.7477 0.0573785 -1.95816 0
M  V30 418 H 39.3277 -0.705942 -0.244243 0
M  V30 419 H 41.9897 -1.94767 0.0719209 0
M  V30 420 H 41.0857 -2.91752 -1.10847 0
M  V30 421 N 41.3868 0.248026 -1.55636 0
M  V30 422 C 42.6168 0.992367 -1.81206 0
M  V30 423 C 43.0248 1.7949 -0.598324 0
M  V30 424 O 42.3678 1.78292 0.442434 0
M  V30 425 C 42.4298 1.97926 -3.00109 0
M  V30 426 C 42.0938 1.36377 -4.36177 0
M  V30 427 C 43.0908 0.76682 -5.14214 0
M  V30 428 C 40.7758 1.38347 -4.82872 0
M  V30 429 C 42.7698 0.197778 -6.37093 0
M  V30 430 C 40.4568 0.810574 -6.057 0
M  V30 431 C 41.4548 0.218754 -6.8265 0
M  V30 432 O 41.1428 -0.345298 -8.03158 0
M  V30 433 H 40.8748 0.297704 -0.606917 0
M  V30 434 H 43.4288 0.276517 -2.0353 0
M  V30 435 H 41.6588 2.73339 -2.73538 0
M  V30 436 H 43.3478 2.58694 -3.12781 0
M  V30 437 H 44.1138 0.744114 -4.79258 0
M  V30 438 H 39.9928 1.8335 -4.2297 0
M  V30 439 H 43.5368 -0.264788 -6.97097 0
M  V30 440 H 39.4338 0.830604 -6.40134 0
M  V30 441 H 40.2018 -0.237055 -8.18157 0
M  V30 442 N 42.8649 1.48995 0.513639 0
M  V30 443 C 44.1129 1.57531 1.26604 0
M  V30 444 C 44.4339 0.258236 1.93283 0
M  V30 445 O 43.7039 -0.721502 1.8213 0
M  V30 446 H 42.2839 0.580387 0.470276 0
M  V30 447 H 44.9459 1.85552 0.596373 0
M  V30 448 H 44.0419 2.36486 2.03669 0
M  V30 449 N 44.343 -0.763751 1.37857 0
M  V30 450 C 45.306 -1.85889 1.34081 0
M  V30 451 C 46.306 -1.58949 0.243277 0
M  V30 452 O 47.496 -1.66882 0.499589 0
M  V30 453 C 44.628 -3.23176 1.08489 0
M  V30 454 H 45.821 -1.90648 2.31502 0
M  V30 455 H 43.374 -0.964367 1.23003 0
M  V30 456 H 44.109 -3.24091 0.116318 0
M  V30 457 H 43.894 -3.44124 1.8794 0
M  V30 458 H 45.384 -4.03254 1.08517 0
M  V30 459 N 45.8211 -1.22559 -0.990812 0
M  V30 460 C 47.0701 -1.04553 -1.72486 0
M  V30 461 C 47.3831 0.419349 -1.91052 0
M  V30 462 O 48.5891 0.719121 -2.61803 0
M  V30 463 C 47.0451 -1.82231 -3.10355 0
M  V30 464 C 46.6531 -3.32981 -2.99713 0
M  V30 465 C 48.3971 -1.7268 -3.87791 0
M  V30 466 C 46.3041 -4.03091 -4.32748 0
M  V30 467 H 45.2341 -0.387614 -0.646739 0
M  V30 468 H 47.8851 -1.46429 -1.10593 0
M  V30 469 H 46.2671 -1.33155 -3.72942 0
M  V30 470 H 47.4411 -3.89466 -2.46278 0
M  V30 471 H 45.7561 -3.43231 -2.35758 0
M  V30 472 H 48.3531 -2.22381 -4.86262 0
M  V30 473 H 48.6961 -0.687607 -4.10582 0
M  V30 474 H 49.2291 -2.1931 -3.31885 0
M  V30 475 H 45.9681 -5.07273 -4.15156 0
M  V30 476 H 45.4881 -3.51394 -4.86089 0
M  V30 477 H 47.1671 -4.08804 -5.01486 0
M  V30 478 N 47.2992 1.18797 -1.03562 0
M  V30 479 C 48.5242 1.9314 -0.755764 0
M  V30 480 C 48.9492 1.7537 0.68022 0
M  V30 481 O 48.3072 1.06046 1.47051 0
M  V30 482 C 48.3552 3.42747 -1.12058 0
M  V30 483 O 47.4592 4.11683 -0.243124 0
M  V30 484 H 46.8002 0.602724 -0.278604 0
M  V30 485 H 49.3302 1.50678 -1.3841 0
M  V30 486 H 49.3402 3.93437 -1.08035 0
M  V30 487 H 48.0152 3.55002 -2.16672 0
M  V30 488 H 46.5922 3.71323 -0.342539 0
M  V30 489 N 48.7773 0.814389 1.34928 0
M  V30 490 C 50.1933 0.499084 1.51596 0
M  V30 491 C 50.3933 -0.978319 1.76157 0
M  V30 492 O 49.4493 -1.76309 1.80752 0
M  V30 493 C 50.7623 1.35121 2.68631 0
M  V30 494 C 52.3103 1.34746 2.82511 0
M  V30 495 C 52.7853 2.18388 4.0258 0
M  V30 496 N 54.2763 2.15966 4.09772 0
M  V30 497 C 55.0113 2.77437 5.01813 0
M  V30 498 N 54.5073 3.47866 5.99134 0
M  V30 499 N 56.3003 2.67037 4.94619 0
M  V30 500 H 48.4513 1.7711 1.17243 0
M  V30 501 H 50.7143 0.754256 0.574284 0
M  V30 502 H 50.4203 2.40001 2.57085 0
M  V30 503 H 50.2943 1.00991 3.63429 0
M  V30 504 H 52.6813 0.30648 2.93504 0
M  V30 505 H 52.7623 1.72869 1.88547 0
M  V30 506 H 52.4063 3.2253 3.92347 0
M  V30 507 H 52.3363 1.77621 4.9574 0
M  V30 508 H 54.8273 1.64729 3.40107 0
M  V30 509 H 55.1403 3.92038 6.65977 0
M  V30 510 H 53.4853 3.51972 5.99284 0
M  V30 511 H 56.6763 2.11597 4.17546 0
M  V30 512 H 56.8493 3.15232 5.66156 0
M  V30 513 N 50.2554 -1.46986 0.568584 0
M  V30 514 C 51.2184 -2.28624 -0.162366 0
M  V30 515 C 52.2184 -1.37596 -0.832103 0
M  V30 516 O 53.4084 -1.60115 -0.68622 0
M  V30 517 C 50.5404 -3.17596 -1.23878 0
M  V30 518 H 51.7334 -2.94722 0.554899 0
M  V30 519 H 49.2864 -1.52863 0.325976 0
M  V30 520 H 50.0214 -2.56214 -1.98808 0
M  V30 521 H 49.8064 -3.846 -0.763219 0
M  V30 522 H 51.2964 -3.79078 -1.75185 0
M  V30 523 N 51.7335 -0.305618 -1.54608 0
M  V30 524 C 52.6665 0.610536 -2.19881 0
M  V30 525 C 53.6445 1.1294 -1.16976 0
M  V30 526 O 54.8285 1.19673 -1.45638 0
M  V30 527 C 51.9555 1.83583 -2.84631 0
M  V30 528 C 51.0015 1.4498 -4.01102 0
M  V30 529 S 51.8345 0.501793 -5.33144 0
M  V30 530 C 52.9905 1.73478 -6.01379 0
M  V30 531 H 53.2235 0.0560177 -2.97247 0
M  V30 532 H 50.7565 -0.0897434 -1.54139 0
M  V30 533 H 52.7145 2.53898 -3.22562 0
M  V30 534 H 51.3755 2.36152 -2.07102 0
M  V30 535 H 50.5685 2.36236 -4.45206 0
M  V30 536 H 50.1705 0.826553 -3.64752 0
M  V30 537 H 52.4625 2.67473 -6.22467 0
M  V30 538 H 53.4055 1.33622 -6.95378 0
M  V30 539 H 53.8135 1.9136 -5.31076 0
M  V30 540 N 53.2116 1.57565 -0.0334293 0
M  V30 541 C 54.4596 1.91598 0.642999 0
M  V30 542 C 54.7806 0.910847 1.7242 0
M  V30 543 O 54.0506 -0.0469931 1.95844 0
M  V30 544 H 52.6306 0.707228 0.240496 0
M  V30 545 H 55.2926 1.94726 -0.0822488 0
M  V30 546 H 54.3886 2.92336 1.09298 0
M  V30 547 N 54.6897 -0.239769 1.55765 0
M  V30 548 C 55.9377 -0.964892 1.77579 0
M  V30 549 C 56.2587 -1.85582 0.598699 0
M  V30 550 O 55.5287 -1.92075 -0.385226 0
M  V30 551 H 54.1087 -0.359265 0.654933 0
M  V30 552 H 56.7707 -0.256001 1.93211 0
M  V30 553 H 55.8667 -1.58243 2.69009 0
M  V30 554 N 56.1678 -1.49265 -0.50573 0
M  V30 555 C 57.3958 -1.62215 -1.28429 0
M  V30 556 C 57.8108 -0.291697 -1.86533 0
M  V30 557 O 57.1678 0.722233 -1.67601 0
M  V30 558 C 57.2188 -2.68735 -2.41793 0
M  V30 559 O 56.9398 -3.96619 -1.86078 0
M  V30 560 C 58.4408 -2.92346 -3.3324 0
M  V30 561 H 55.6608 -0.546239 -0.389697 0
M  V30 562 H 58.2048 -1.95265 -0.607609 0
M  V30 563 H 56.3598 -2.38476 -3.053 0
M  V30 564 H 56.7738 -4.55256 -2.60465 0
M  V30 565 H 58.2478 -3.70623 -4.09075 0
M  V30 566 H 58.7248 -2.02081 -3.89948 0
M  V30 567 H 59.3308 -3.24003 -2.75503 0
M  V30 568 N 57.6459 0.756429 -1.3826 0
M  V30 569 C 58.8709 1.55077 -1.37717 0
M  V30 570 C 59.2959 1.88073 0.03164 0
M  V30 571 O 58.6539 1.50364 1.01293 0
M  V30 572 C 58.7019 2.8283 -2.23695 0
M  V30 573 O 57.8059 3.77862 -1.6521 0
M  V30 574 H 57.1469 0.469152 -0.469885 0
M  V30 575 H 59.6769 0.935019 -1.81985 0
M  V30 576 H 59.6869 3.31783 -2.37453 0
M  V30 577 H 58.3619 2.58144 -3.2609 0
M  V30 578 H 56.9389 3.36555 -1.60578 0
M  V30 579 N 59.124 1.23083 0.984299 0
M  V30 580 C 60.349 1.088 1.76571 0
M  V30 581 C 60.774 -0.356657 1.84688 0
M  V30 582 O 60.132 -1.25788 1.30565 0
M  V30 583 C 60.18 1.71371 3.17277 0
M  V30 584 O 59.284 0.973213 4.00752 0
M  V30 585 H 58.625 0.381599 0.543395 0
M  V30 586 H 61.155 1.63057 1.23587 0
M  V30 587 H 61.165 1.76449 3.67872 0
M  V30 588 H 59.84 2.76493 3.10684 0
M  V30 589 H 58.417 0.999078 3.59267 0
M  V30 590 N 60.6021 -1.18246 1.0419 0
M  V30 591 C 61.8271 -1.92736 0.765996 0
M  V30 592 C 62.2521 -1.75728 -0.67091 0
M  V30 593 O 61.6101 -1.06825 -1.46486 0
M  V30 594 C 61.6581 -3.42148 1.13875 0
M  V30 595 O 60.7621 -4.11548 0.264954 0
M  V30 596 H 60.1031 -0.601238 0.281797 0
M  V30 597 H 62.6331 -1.49942 1.39207 0
M  V30 598 H 62.6431 -3.92858 1.1012 0
M  V30 599 H 61.3181 -3.53848 2.18551 0
M  V30 600 H 59.8951 -3.71137 0.362226 0
M  V30 601 N 62.0802 -0.821533 -1.34494 0
M  V30 602 C 63.3102 -0.421272 -2.02259 0
M  V30 603 C 63.7182 0.977047 -1.6202 0
M  V30 604 O 63.0612 1.64348 -0.820703 0
M  V30 605 C 63.1232 -0.44231 -3.56769 0
M  V30 606 C 62.7872 -1.79372 -4.20327 0
M  V30 607 C 63.7842 -2.75435 -4.40944 0
M  V30 608 C 61.4692 -2.08182 -4.57127 0
M  V30 609 C 63.4632 -3.98482 -4.97484 0
M  V30 610 C 61.1502 -3.31489 -5.13379 0
M  V30 611 C 62.1482 -4.26457 -5.33501 0
M  V30 612 O 61.8362 -5.47585 -5.88562 0
M  V30 613 H 61.5682 -0.167473 -0.654927 0
M  V30 614 H 64.1222 -1.11073 -1.72777 0
M  V30 615 H 62.3522 0.303836 -3.85505 0
M  V30 616 H 64.0412 -0.0622925 -4.05852 0
M  V30 617 H 64.8072 -2.54473 -4.12878 0
M  V30 618 H 60.6862 -1.35066 -4.4077 0
M  V30 619 H 64.2302 -4.72618 -5.13106 0
M  V30 620 H 60.1272 -3.52316 -5.40873 0
M  V30 621 H 60.8952 -5.49086 -6.06998 0
M  V30 622 N 63.5583 1.46682 -0.576371 0
M  V30 623 C 64.7883 2.06498 -0.0648694 0
M  V30 624 C 65.1963 1.42665 1.24271 0
M  V30 625 O 64.5393 0.523886 1.76071 0
M  V30 626 C 64.6013 3.5904 0.181816 0
M  V30 627 C 64.2653 4.45028 -1.0392 0
M  V30 628 C 65.2623 4.81959 -1.94966 0
M  V30 629 C 62.9473 4.86259 -1.25927 0
M  V30 630 C 64.9413 5.58942 -3.06371 0
M  V30 631 C 62.6283 5.63002 -2.37638 0
M  V30 632 C 63.6263 5.99257 -3.2769 0
M  V30 633 O 63.3143 6.7445 -4.37461 0
M  V30 634 H 63.0463 0.674028 -0.0515987 0
M  V30 635 H 65.6003 1.89393 -0.794951 0
M  V30 636 H 63.8303 3.74429 0.966436 0
M  V30 637 H 65.5193 4.00806 0.641047 0
M  V30 638 H 66.2853 4.50689 -1.79177 0
M  V30 639 H 62.1643 4.57494 -0.567448 0
M  V30 640 H 65.7083 5.87158 -3.76684 0
M  V30 641 H 61.6053 5.93686 -2.53392 0
M  V30 642 H 62.3733 6.92867 -4.35749 0
M  V30 643 N 65.0364 0.313813 1.54444 0
M  V30 644 C 66.2644 -0.293918 2.04802 0
M  V30 645 C 66.6794 -1.46537 1.19047 0
M  V30 646 O 66.0364 -1.81182 0.218939 0
M  V30 647 C 66.0874 -0.737806 3.53891 0
M  V30 648 O 65.8084 0.387038 4.36387 0
M  V30 649 C 67.3094 -1.40936 4.203 0
M  V30 650 H 64.5294 -0.0620057 0.668129 0
M  V30 651 H 67.0734 0.457169 1.99324 0
M  V30 652 H 65.2284 -1.43889 3.59687 0
M  V30 653 H 65.6424 0.0391274 5.24485 0
M  V30 654 H 67.1164 -1.67099 5.26101 0
M  V30 655 H 67.5934 -2.35355 3.70816 0
M  V30 656 H 68.1994 -0.751117 4.18615 0
M  V30 657 N 66.5145 -1.57545 0.0417849 0
M  V30 658 C 67.7625 -1.91937 -0.632829 0
M  V30 659 C 68.0835 -0.919978 -1.71934 0
M  V30 660 O 67.3535 0.0366064 -1.95866 0
M  V30 661 H 65.9335 -0.708493 -0.236742 0
M  V30 662 H 68.5955 -1.9468 0.0925745 0
M  V30 663 H 67.6915 -2.92912 -1.07746 0
M  V30 664 N 67.9926 0.231505 -1.5589 0
M  V30 665 C 68.9406 1.30649 -1.92441 0
M  V30 666 C 69.9346 1.49037 -0.805254 0
M  V30 667 O 71.1406 1.50329 -0.990007 0
M  V30 668 H 67.5156 0.437812 -0.611412 0
M  V30 669 H 69.4866 0.970973 -2.82161 0
M  V30 670 C 68.2356 2.65179 -2.24889 0
M  V30 671 H 67.5586 2.51835 -3.10514 0
M  V30 672 H 68.9986 3.39234 -2.54355 0
M  V30 673 C 67.4576 3.19439 -1.07054 0
M  V30 674 O 67.9876 4.00371 -0.326499 0
M  V30 675 N 66.1936 2.77675 -0.85703 0
M  V30 676 H 65.7406 2.11969 -1.46379 0
M  V30 677 H 65.6986 3.14321 -0.0703223 0
M  V30 678 N 69.4707 1.49531 0.497807 0
M  V30 679 C 70.4337 1.65916 1.58128 0
M  V30 680 C 71.4337 0.530825 1.51786 0
M  V30 681 O 72.6237 0.797342 1.54881 0
M  V30 682 C 69.7557 1.65951 2.9778 0
M  V30 683 H 70.9487 2.62556 1.44929 0
M  V30 684 H 68.5017 1.38611 0.722275 0
M  V30 685 H 69.2367 0.709065 3.16453 0
M  V30 686 H 69.0217 2.47897 3.03792 0
M  V30 687 H 70.5117 1.80673 3.76493 0
M  V30 688 N 70.9488 -0.749086 1.3866 0
M  V30 689 C 71.9118 -1.84457 1.36045 0
M  V30 690 C 72.9118 -1.58682 0.260122 0
M  V30 691 O 74.1018 -1.66343 0.517261 0
M  V30 692 C 71.2338 -3.22008 1.11911 0
M  V30 693 H 72.4268 -1.88182 2.33512 0
M  V30 694 H 69.9798 -0.951266 1.24019 0
M  V30 695 H 70.7148 -3.2395 0.150686 0
M  V30 696 H 70.4998 -3.42111 1.91579 0
M  V30 697 H 71.9898 -4.0208 1.12788 0
M  V30 698 N 72.4269 -1.23603 -0.977757 0
M  V30 699 C 73.3569 -1.04401 -2.0886 0
M  V30 700 C 74.3379 0.0399052 -1.70053 0
M  V30 701 O 75.5229 -0.125246 -1.93796 0
M  V30 702 C 72.6529 -0.637269 -3.41403 0
M  V30 703 C 71.6069 -1.66883 -3.94124 0
M  V30 704 C 70.9329 -1.11745 -5.22893 0
M  V30 705 C 72.2329 -3.06247 -4.23096 0
M  V30 706 H 73.9269 -1.97316 -2.25182 0
M  V30 707 H 71.4729 -0.950096 -1.08209 0
M  V30 708 H 73.4259 -0.48998 -4.18542 0
M  V30 709 H 72.1499 0.327557 -3.24953 0
M  V30 710 H 70.8089 -1.80416 -3.19133 0
M  V30 711 H 70.4569 -0.143527 -5.02795 0
M  V30 712 H 70.1569 -1.80672 -5.59134 0
M  V30 713 H 71.6809 -0.982067 -6.02651 0
M  V30 714 H 73.0949 -2.96001 -4.90975 0
M  V30 715 H 71.4919 -3.72436 -4.70544 0
M  V30 716 H 72.5619 -3.55041 -3.30263 0
M  V30 717 N 73.905 1.17692 -1.04816 0
M  V30 718 C 75.154 1.87192 -0.751132 0
M  V30 719 C 75.467 1.8169 0.724441 0
M  V30 720 O 76.673 2.46625 1.13527 0
M  V30 721 C 75.129 3.35857 -1.29338 0
M  V30 722 C 74.737 3.4987 -2.79812 0
M  V30 723 C 76.481 4.10709 -1.07322 0
M  V30 724 C 74.388 4.92536 -3.27356 0
M  V30 725 H 73.318 0.701162 -0.277288 0
M  V30 726 H 75.969 1.32932 -1.26496 0
M  V30 727 H 74.351 3.89631 -0.707376 0
M  V30 728 H 75.525 3.06332 -3.44235 0
M  V30 729 H 73.84 2.88433 -3.00325 0
M  V30 730 H 76.437 5.15952 -1.4035 0
M  V30 731 H 76.78 4.16299 -0.0108001 0
M  V30 732 H 77.313 3.6313 -1.62423 0
M  V30 733 H 74.052 4.92119 -4.33012 0
M  V30 734 H 73.572 5.3676 -2.67673 0
M  V30 735 H 75.251 5.61288 -3.21815 0
M  V30 736 N 75.3831 0.828654 1.34056 0
M  V30 737 C 76.6081 0.431637 2.02859 0
M  V30 738 C 77.0331 -0.956339 1.61975 0
M  V30 739 O 76.3911 -1.62338 0.807228 0
M  V30 740 C 76.4391 0.548323 3.56407 0
M  V30 741 O 75.5431 -0.429556 4.10157 0
M  V30 742 H 74.8841 0.176886 0.640006 0
M  V30 743 H 77.4141 1.12066 1.71179 0
M  V30 744 H 77.4241 0.426196 4.05768 0
M  V30 745 H 76.0991 1.5606 3.8551 0
M  V30 746 H 74.6761 -0.265836 3.71951 0
M  V30 747 N 76.8612 -1.46375 0.584142 0
M  V30 748 C 77.8092 -2.32042 -0.161047 0
M  V30 749 C 78.8032 -1.44569 -0.882966 0
M  V30 750 O 80.0092 -1.61186 -0.801191 0
M  V30 751 H 76.3842 -0.748659 -0.0708033 0
M  V30 752 H 78.3552 -2.92704 0.580269 0
M  V30 753 C 77.1042 -3.27762 -1.1605 0
M  V30 754 H 76.4272 -3.95051 -0.614419 0
M  V30 755 H 77.8672 -3.90481 -1.65228 0
M  V30 756 C 76.3262 -2.53218 -2.22221 0
M  V30 757 O 76.8562 -2.29628 -3.29597 0
M  V30 758 N 75.0622 -2.13756 -1.96868 0
M  V30 759 H 74.6092 -2.33142 -1.09557 0
M  V30 760 H 74.5672 -1.642 -2.68115 0
M  V30 761 N 78.3393 -0.321999 -1.54275 0
M  V30 762 C 79.7503 0.166384 -1.85957 0
M  V30 763 C 80.1013 1.51747 -1.24367 0
M  V30 764 O 79.2263 2.09317 -0.549124 0
M  V30 765 C 79.8213 0.308681 -3.37391 0
M  V30 766 C 78.3803 0.741286 -3.69028 0
M  V30 767 C 77.5273 -0.137937 -2.76957 0
M  V30 768 H 80.4783 -0.542335 -1.49146 0
M  V30 769 H 80.4993 1.13984 -3.63026 0
M  V30 770 H 80.0113 -0.674809 -3.82188 0
M  V30 771 H 78.1123 1.73458 -3.29762 0
M  V30 772 H 78.2253 0.546118 -4.75977 0
M  V30 773 H 76.5893 0.386251 -2.51754 0
M  V30 774 H 77.3723 -1.11816 -3.2458 0
M  V30 775 N 79.8174 1.5752 -0.0501392 0
M  V30 776 C 80.7804 2.1037 0.909786 0
M  V30 777 C 81.7804 1.02308 1.24056 0
M  V30 778 O 82.9704 1.28385 1.17741 0
M  V30 779 C 80.1024 2.58708 2.21998 0
M  V30 780 H 81.2954 2.96479 0.451665 0
M  V30 781 H 78.8484 1.55038 0.198248 0
M  V30 782 H 79.5834 1.75989 2.72394 0
M  V30 783 H 79.3684 3.37675 1.99295 0
M  V30 784 H 80.8584 2.99747 2.9076 0
M  V30 785 N 81.2955 -0.223234 1.56011 0
M  V30 786 C 82.5235 -0.964812 1.83027 0
M  V30 787 C 82.9385 -1.78013 0.62904 0
M  V30 788 O 82.2955 -1.78008 -0.402414 0
M  V30 789 C 82.3465 -1.88373 3.08542 0
M  V30 790 O 82.0675 -1.10137 4.2403 0
M  V30 791 C 83.5685 -2.73934 3.48533 0
M  V30 792 H 80.7885 -0.282842 0.608475 0
M  V30 793 H 83.3325 -0.238971 2.03099 0
M  V30 794 H 81.4875 -2.56354 2.9045 0
M  V30 795 H 81.9015 -1.72501 4.95322 0
M  V30 796 H 83.3755 -3.34117 4.39397 0
M  V30 797 H 83.8525 -3.46244 2.70207 0
M  V30 798 H 84.4585 -2.11369 3.69057 0
M  V30 799 N 82.7736 -1.49793 -0.48987 0
M  V30 800 C 83.7036 -1.70201 -1.59856 0
M  V30 801 C 84.6846 -0.55076 -1.60937 0
M  V30 802 O 85.8696 -0.787841 -1.77501 0
M  V30 803 C 82.9996 -1.77882 -2.98287 0
M  V30 804 C 81.9536 -2.92907 -3.12073 0
M  V30 805 C 81.2796 -2.85712 -4.51965 0
M  V30 806 C 82.5796 -4.3369 -2.91051 0
M  V30 807 H 84.2736 -2.63025 -1.43032 0
M  V30 808 H 81.8196 -1.26574 -0.686664 0
M  V30 809 H 83.7726 -1.90744 -3.75759 0
M  V30 810 H 82.4966 -0.816653 -3.16225 0
M  V30 811 H 81.1556 -2.79665 -2.37029 0
M  V30 812 H 80.8036 -1.8738 -4.66795 0
M  V30 813 H 80.5036 -3.62921 -4.62128 0
M  V30 814 H 82.0276 -3.00598 -5.31482 0
M  V30 815 H 83.4416 -4.47555 -3.58284 0
M  V30 816 H 81.8386 -5.12205 -3.12675 0
M  V30 817 H 82.9086 -4.47362 -1.87071 0
M  V30 818 N 84.2517 0.741722 -1.39055 0
M  V30 819 C 85.4767 1.53607 -1.39354 0
M  V30 820 C 85.9017 1.88096 0.0116905 0
M  V30 821 O 85.2597 1.5143 0.996924 0
M  V30 822 C 85.3077 2.80441 -2.26682 0
M  V30 823 O 84.4117 3.76088 -1.69208 0
M  V30 824 H 83.7527 0.464142 -0.474835 0
M  V30 825 H 86.2827 0.915665 -1.82967 0
M  V30 826 H 86.2927 3.29246 -2.40959 0
M  V30 827 H 84.9677 2.5467 -3.2881 0
M  V30 828 H 83.5447 3.34833 -1.64138 0
M  V30 829 N 85.7298 1.2412 0.971189 0
M  V30 830 C 86.9768 1.07881 1.71371 0
M  V30 831 C 87.3048 -0.382901 1.90694 0
M  V30 832 O 86.5598 -1.29945 1.46331 0
M  V30 833 C 86.8588 1.75983 3.11071 0
M  V30 834 C 86.5248 3.25909 3.11599 0
M  V30 835 C 85.1868 3.66813 3.11451 0
M  V30 836 C 87.5388 4.21771 3.062 0
M  V30 837 C 84.8668 5.02021 3.03631 0
M  V30 838 C 87.2188 5.56982 2.99923 0
M  V30 839 C 85.8828 5.97237 2.98102 0
M  V30 840 H 85.1528 0.394764 0.62709 0
M  V30 841 H 87.7998 1.54176 1.13587 0
M  V30 842 H 86.1048 1.22072 3.72298 0
M  V30 843 H 87.8018 1.60887 3.6731 0
M  V30 844 H 84.3918 2.93353 3.12477 0
M  V30 845 H 88.5758 3.91172 3.05447 0
M  V30 846 H 83.8318 5.32411 3.0058 0
M  V30 847 H 88.0058 6.30969 2.94704 0
M  V30 848 H 85.6328 7.01967 2.91798 0
M  V30 849 N 87.2079 -1.17134 1.05439 0
M  V30 850 C 88.1709 -2.19439 0.661764 0
M  V30 851 C 89.1709 -1.58199 -0.288042 0
M  V30 852 O 90.3609 -1.74053 -0.0715803 0
M  V30 853 C 87.4929 -3.40889 -0.0276209 0
M  V30 854 H 88.6859 -2.55688 1.56728 0
M  V30 855 H 86.2389 -1.31259 0.848567 0
M  V30 856 H 86.9739 -3.10187 -0.94629 0
M  V30 857 H 86.7589 -3.86586 0.655238 0
M  V30 858 H 88.2489 -4.16603 -0.288342 0
M  V30 859 N 88.686 -0.835752 -1.33615 0
M  V30 860 C 90.097 -0.487099 -1.80234 0
M  V30 861 C 90.448 0.993627 -1.69179 0
M  V30 862 O 89.573 1.77403 -1.23924 0
M  V30 863 C 90.168 -0.877385 -3.27242 0
M  V30 864 C 88.727 -0.580915 -3.7189 0
M  V30 865 C 87.874 -1.0874 -2.5509 0
M  V30 866 H 90.825 -1.02474 -1.2118 0
M  V30 867 H 90.846 -0.186195 -3.80044 0
M  V30 868 H 90.358 -1.95512 -3.35256 0
M  V30 869 H 88.459 0.486881 -3.69405 0
M  V30 870 H 88.572 -1.13396 -4.65487 0
M  V30 871 H 86.936 -0.508392 -2.49575 0
M  V30 872 H 87.719 -2.17184 -2.65868 0
M  V30 873 N 90.1641 1.46063 -0.591896 0
M  V30 874 C 91.4411 1.95595 -0.0137119 0
M  V30 875 C 91.8211 1.5345 1.4497 0
M  V30 876 O 91.1691 0.789543 2.14426 0
M  V30 877 C 91.3791 3.48453 -0.195373 0
M  V30 878 C 92.7271 4.24546 -0.0679765 0
M  V30 879 O 93.7511 3.55982 -0.124681 0
M  V30 880 O 92.6101 5.46467 0.0600579 0
M  V30 881 H 89.7041 0.825795 0.0446279 0
M  V30 882 H 92.2501 1.56303 -0.660859 0
M  V30 883 H 91.0221 3.72045 -1.21235 0
M  V30 884 H 90.6451 3.94597 0.487775 0
M  V30 885 N 91.6422 0.330177 1.54103 0
M  V30 886 C 92.8902 -0.269871 2.0029 0
M  V30 887 C 93.2112 -1.52133 1.21986 0
M  V30 888 O 92.4812 -1.93212 0.323438 0
M  V30 889 H 91.0612 -0.10271 0.739905 0
M  V30 890 H 93.7232 0.448249 1.89675 0
M  V30 891 H 92.8192 -0.52166 3.07709 0
M  V30 892 N 93.1203 -1.57491 0.0584922 0
M  V30 893 C 94.0683 -2.13148 -0.931168 0
M  V30 894 C 95.0623 -1.06507 -1.31729 0
M  V30 895 O 96.2683 -1.24906 -1.29609 0
M  V30 896 H 92.6433 -0.68137 -0.31818 0
M  V30 897 H 94.6143 -2.95187 -0.436707 0
M  V30 898 C 93.3633 -2.69732 -2.19408 0
M  V30 899 H 92.6863 -3.51454 -1.90578 0
M  V30 900 H 94.1263 -3.12287 -2.86798 0
M  V30 901 C 92.5853 -1.63855 -2.94369 0
M  V30 902 O 93.1153 -1.05565 -3.87581 0
M  V30 903 N 91.3213 -1.35202 -2.57233 0
M  V30 904 H 90.8683 -1.82791 -1.81508 0
M  V30 905 H 90.8263 -0.645922 -3.07693 0
M  V30 906 N 94.5984 0.214957 -1.56127 0
M  V30 907 C 95.5304 1.29004 -1.89448 0
M  V30 908 C 96.5434 1.42716 -0.783326 0
M  V30 909 O 97.7324 1.43496 -1.06166 0
M  V30 910 C 94.8324 2.66482 -2.09381 0
M  V30 911 C 94.0054 2.74633 -3.40434 0
M  V30 912 C 93.0644 3.9317 -3.49719 0
M  V30 913 O 92.0904 3.812 -4.227 0
M  V30 914 N 93.2924 5.07765 -2.81346 0
M  V30 915 H 96.0574 1.00743 -2.82261 0
M  V30 916 H 93.6184 0.40497 -1.56753 0
M  V30 917 H 95.6104 3.44173 -2.12901 0
M  V30 918 H 94.1804 2.87314 -1.23163 0
M  V30 919 H 93.4004 1.83368 -3.48955 0
M  V30 920 H 94.6884 2.77054 -4.26754 0
M  V30 921 H 94.0864 5.20386 -2.21843 0
M  V30 922 H 92.6434 5.83474 -2.90519 0
M  V30 923 N 96.0765 1.50051 0.48192 0
M  V30 924 C 97.3235 1.60498 1.23477 0
M  V30 925 C 97.6515 0.300331 1.92167 0
M  V30 926 O 96.9065 -0.713094 1.82246 0
M  V30 927 C 97.2055 2.72717 2.30998 0
M  V30 928 C 96.8715 4.13572 1.79636 0
M  V30 929 C 95.5335 4.519 1.65348 0
M  V30 930 C 97.8855 5.01649 1.41412 0
M  V30 931 C 95.2135 5.76057 1.11244 0
M  V30 932 C 97.5655 6.26343 0.887538 0
M  V30 933 C 96.2295 6.63483 0.731207 0
M  V30 934 H 95.4995 0.587303 0.451836 0
M  V30 935 H 98.1465 1.83948 0.532468 0
M  V30 936 H 96.4515 2.43312 3.07094 0
M  V30 937 H 98.1485 2.78006 2.88988 0
M  V30 938 H 94.7385 3.83329 1.91721 0
M  V30 939 H 98.9225 4.72679 1.51289 0
M  V30 940 H 94.1785 6.03516 0.978686 0
M  V30 941 H 98.3525 6.93958 0.582654 0
M  V30 942 H 95.9795 7.59568 0.309806 0
M  V30 943 N 97.5546 -0.734337 1.39446 0
M  V30 944 C 98.4646 -1.87879 1.40495 0
M  V30 945 C 99.4806 -1.714 0.299672 0
M  V30 946 O 100.657 -1.93991 0.541249 0
M  V30 947 C 97.7216 -3.23477 1.24754 0
M  V30 948 C 96.7826 -3.52344 2.45259 0
M  V30 949 C 96.0156 -4.81473 2.30259 0
M  V30 950 O 96.2386 -5.55237 1.30643 0
M  V30 951 O 95.1726 -5.10254 3.19256 0
M  V30 952 H 98.9986 -1.89949 2.36966 0
M  V30 953 H 96.5836 -0.882243 1.20569 0
M  V30 954 H 98.4656 -4.04509 1.18111 0
M  V30 955 H 97.1406 -3.22176 0.313781 0
M  V30 956 H 96.0476 -2.71396 2.57478 0
M  V30 957 H 97.3806 -3.58426 3.37331 0
M  V30 958 N 99.0327 -1.24633 -0.964593 0
M  V30 959 C 99.9627 -1.06611 -2.07741 0
M  V30 960 C 100.944 0.0218666 -1.70086 0
M  V30 961 O 102.129 -0.145793 -1.93652 0
M  V30 962 C 99.2587 -0.673444 -3.40708 0
M  V30 963 C 98.2127 -1.71054 -3.92332 0
M  V30 964 C 97.5387 -1.17285 -5.21678 0
M  V30 965 C 98.8387 -3.10718 -4.19824 0
M  V30 966 H 100.533 -1.99693 -2.23076 0
M  V30 967 H 98.0787 -0.96152 -1.07195 0
M  V30 968 H 100.032 -0.534345 -4.17998 0
M  V30 969 H 98.7557 0.293073 -3.25282 0
M  V30 970 H 97.4147 -1.83791 -3.17201 0
M  V30 971 H 97.0627 -0.196847 -5.02615 0
M  V30 972 H 96.7627 -1.86592 -5.57187 0
M  V30 973 H 98.2867 -1.04593 -6.01575 0
M  V30 974 H 99.7007 -3.01192 -4.87808 0
M  V30 975 H 98.0977 -3.77406 -4.66567 0
M  V30 976 H 99.1677 -3.58524 -3.26479 0
M  V30 977 N 100.511 1.16574 -1.06058 0
M  V30 978 C 101.759 1.86677 -0.77434 0
M  V30 979 C 102.08 1.81959 0.701147 0
M  V30 980 O 101.35 1.2515 1.50713 0
M  V30 981 H 99.9298 0.691134 -0.283449 0
M  V30 982 H 102.592 1.41378 -1.34158 0
M  V30 983 H 101.688 2.92181 -1.09711 0
M  V30 984 N 101.989 0.842826 1.3317 0
M  V30 985 C 102.919 0.294028 2.31641 0
M  V30 986 C 103.9 -0.600401 1.59151 0
M  V30 987 O 105.085 -0.523124 1.87022 0
M  V30 988 C 102.215 -0.528416 3.43257 0
M  V30 989 C 101.169 0.27056 4.27144 0
M  V30 990 C 100.495 -0.675881 5.30411 0
M  V30 991 C 101.795 1.48981 5.00602 0
M  V30 992 H 103.489 1.11681 2.77791 0
M  V30 993 H 101.035 0.538478 1.33553 0
M  V30 994 H 102.988 -0.922674 4.11175 0
M  V30 995 H 101.712 -1.38445 2.95805 0
M  V30 996 H 100.371 0.646427 3.60856 0
M  V30 997 H 100.019 -1.52842 4.79216 0
M  V30 998 H 99.7189 -0.145374 5.8742 0
M  V30 999 H 101.243 -1.06757 6.01195 0
M  V30 1000 H 102.657 1.16849 5.61266 0
M  V30 1001 H 101.054 1.95739 5.6728 0
M  V30 1002 H 102.124 2.25746 4.29147 0
M  V30 1003 N 103.467 -1.45747 0.599634 0
M  V30 1004 C 104.744 -1.95585 0.0240846 0
M  V30 1005 C 105.124 -1.54217 -1.44154 0
M  V30 1006 O 104.472 -0.800903 -2.14004 0
M  V30 1007 C 104.682 -3.48344 0.21385 0
M  V30 1008 C 106.03 -4.24504 0.0904902 0
M  V30 1009 O 107.054 -3.55911 0.143558 0
M  V30 1010 O 105.913 -5.46491 -0.0310766 0
M  V30 1011 H 103.007 -0.82602 -0.0402478 0
M  V30 1012 H 105.553 -1.55951 0.669139 0
M  V30 1013 H 104.325 -3.71397 1.23206 0
M  V30 1014 H 103.948 -3.9485 -0.466842 0
M  V30 1015 N 104.945 -0.338344 -1.53925 0
M  V30 1016 C 106.191 0.260143 -2.01125 0
M  V30 1017 C 106.524 1.50617 -1.22589 0
M  V30 1018 O 105.799 1.91979 -0.312113 0
M  V30 1019 C 106.082 0.579499 -3.55407 0
M  V30 1020 C 105.935 -0.678264 -4.44657 0
M  V30 1021 C 107.254 1.39122 -4.17532 0
M  V30 1022 H 104.373 0.0930772 -0.731099 0
M  V30 1023 H 107.015 -0.457852 -1.84401 0
M  V30 1024 H 105.165 1.19118 -3.69788 0
M  V30 1025 H 106.837 -1.31631 -4.42121 0
M  V30 1026 H 105.08 -1.3042 -4.13731 0
M  V30 1027 H 105.751 -0.410143 -5.50474 0
M  V30 1028 H 108.227 0.874035 -4.06817 0
M  V30 1029 H 107.103 1.58342 -5.25565 0
M  V30 1030 H 107.364 2.39178 -3.71815 0
M  V30 1031 N 106.423 1.57458 -0.0668435 0
M  V30 1032 C 107.669 1.93587 0.6043 0
M  V30 1033 C 108.002 0.946722 1.69561 0
M  V30 1034 O 107.277 -0.0248516 1.94484 0
M  V30 1035 C 107.56 3.40014 1.18585 0
M  V30 1036 C 107.413 4.49685 0.101529 0
M  V30 1037 C 108.732 3.87154 2.09284 0
M  V30 1038 H 105.851 0.703958 0.218202 0
M  V30 1039 H 108.493 1.89542 -0.131804 0
M  V30 1040 H 106.643 3.43592 1.81319 0
M  V30 1041 H 108.315 4.5823 -0.531279 0
M  V30 1042 H 106.558 4.30059 -0.568487 0
M  V30 1043 H 107.229 5.49266 0.54874 0
M  V30 1044 H 109.705 3.85551 1.56491 0
M  V30 1045 H 108.581 4.90231 2.46911 0
M  V30 1046 H 108.842 3.2481 2.99918 0
M  V30 1047 N 107.901 -0.206675 1.56239 0
M  V30 1048 C 109.129 -0.945345 1.8404 0
M  V30 1049 C 109.544 -1.77336 0.647885 0
M  V30 1050 O 108.901 -1.78425 -0.383511 0
M  V30 1051 C 108.952 -1.8509 3.10522 0
M  V30 1052 O 108.673 -1.05634 4.25174 0
M  V30 1053 C 110.174 -2.70222 3.51418 0
M  V30 1054 H 107.394 -0.276372 0.61144 0
M  V30 1055 H 109.938 -0.217417 2.03341 0
M  V30 1056 H 108.093 -2.53259 2.93153 0
M  V30 1057 H 108.507 -1.67238 4.97124 0
M  V30 1058 H 109.981 -3.29438 4.42916 0
M  V30 1059 H 110.458 -3.43358 2.73864 0
M  V30 1060 H 111.064 -2.07443 3.71278 0
M  V30 1061 N 109.379 -1.50304 -0.473955 0
M  V30 1062 C 110.607 -1.64902 -1.24959 0
M  V30 1063 C 111.022 -0.331198 -1.85872 0
M  V30 1064 O 110.379 0.68652 -1.69095 0
M  V30 1065 C 110.43 -2.73803 -2.36038 0
M  V30 1066 O 110.151 -4.00477 -1.77624 0
M  V30 1067 C 111.652 -2.99349 -3.26964 0
M  V30 1068 H 108.872 -0.554383 -0.378022 0
M  V30 1069 H 111.416 -1.9651 -0.566054 0
M  V30 1070 H 109.571 -2.44898 -3.00173 0
M  V30 1071 H 109.985 -4.60678 -2.5075 0
M  V30 1072 H 111.459 -3.79217 -4.01121 0
M  V30 1073 H 111.936 -2.10307 -3.85574 0
M  V30 1074 H 112.542 -3.29774 -2.68569 0
M  V30 1075 N 110.857 0.726932 -1.39834 0
M  V30 1076 C 112.134 1.47902 -1.28001 0
M  V30 1077 C 112.514 2.1083 0.106789 0
M  V30 1078 O 111.862 1.99242 1.11869 0
M  V30 1079 C 112.072 2.52392 -2.41038 0
M  V30 1080 C 113.42 3.18546 -2.80737 0
M  V30 1081 O 114.444 2.62708 -2.40547 0
M  V30 1082 O 113.303 4.19604 -3.50135 0
M  V30 1083 H 110.397 0.657163 -0.502062 0
M  V30 1084 H 112.943 0.760071 -1.51727 0
M  V30 1085 H 111.715 2.04329 -3.33715 0
M  V30 1086 H 111.338 3.31837 -2.19021 0
M  V30 1087 N 112.336 1.25143 0.95797 0
M  V30 1088 C 113.585 1.0909 1.69654 0
M  V30 1089 C 113.898 -0.368548 1.92097 0
M  V30 1090 O 115.104 -0.649455 2.63618 0
M  V30 1091 C 113.56 1.90395 3.05414 0
M  V30 1092 C 113.168 3.4081 2.90779 0
M  V30 1093 C 114.912 1.82901 3.83076 0
M  V30 1094 C 112.819 4.14423 4.21909 0
M  V30 1095 H 111.749 0.404625 0.636235 0
M  V30 1096 H 114.4 1.4931 1.06672 0
M  V30 1097 H 112.782 1.42996 3.69281 0
M  V30 1098 H 113.956 3.95859 2.35865 0
M  V30 1099 H 112.271 3.49361 2.26575 0
M  V30 1100 H 114.868 2.35196 4.80195 0
M  V30 1101 H 115.211 0.796224 4.08615 0
M  V30 1102 H 115.744 2.28033 3.25954 0
M  V30 1103 H 112.483 5.18102 4.01561 0
M  V30 1104 H 112.003 3.64159 4.76601 0
M  V30 1105 H 113.682 4.21956 4.90471 0
M  V30 1106 N 113.814 -1.1601 1.06675 0
M  V30 1107 C 114.761 -2.20525 0.680967 0
M  V30 1108 C 115.731 -1.62904 -0.324283 0
M  V30 1109 O 116.916 -1.89615 -0.212294 0
M  V30 1110 C 114.056 -3.45013 0.0776551 0
M  V30 1111 C 113.169 -4.16863 1.13355 0
M  V30 1112 C 112.304 -5.2888 0.49597 0
M  V30 1113 C 111.343 -5.92537 1.53513 0
M  V30 1114 N 110.48 -6.96038 0.920631 0
M  V30 1115 H 115.32 -2.52876 1.57663 0
M  V30 1116 H 112.857 -1.24199 0.788223 0
M  V30 1117 H 114.815 -4.16193 -0.289704 0
M  V30 1118 H 113.445 -3.132 -0.781393 0
M  V30 1119 H 112.497 -3.44248 1.61857 0
M  V30 1120 H 113.809 -4.60294 1.92174 0
M  V30 1121 H 112.963 -6.06653 0.0758604 0
M  V30 1122 H 111.702 -4.86622 -0.324062 0
M  V30 1123 H 110.707 -5.13482 1.9651 0
M  V30 1124 H 111.932 -6.36873 2.35733 0
M  V30 1125 H 109.878 -6.55888 0.12138 0
M  V30 1126 H 109.795 -7.3786 1.64616 0
M  V30 1127 H 111.063 -7.77725 0.525795 0
M  V30 1128 N 115.292 -0.849877 -1.32721 0
M  V30 1129 C 116.538 -0.451591 -1.97708 0
M  V30 1130 C 116.871 0.989175 -1.6712 0
M  V30 1131 O 116.146 1.69334 -0.956891 0
M  V30 1132 C 116.429 -0.685598 -3.53513 0
M  V30 1133 C 116.282 -2.17444 -3.93749 0
M  V30 1134 C 117.601 -0.138874 -4.39881 0
M  V30 1135 H 114.72 -0.16555 -0.718166 0
M  V30 1136 H 117.362 -1.06742 -1.57182 0
M  V30 1137 H 115.512 -0.161416 -3.88165 0
M  V30 1138 H 117.184 -2.76433 -3.693 0
M  V30 1139 H 115.427 -2.65476 -3.43081 0
M  V30 1140 H 116.098 -2.28888 -5.02309 0
M  V30 1141 H 118.574 -0.587068 -4.11938 0
M  V30 1142 H 117.45 -0.332213 -5.47894 0
M  V30 1143 H 117.711 0.95806 -4.31594 0
M  V30 1144 N 116.77 1.45427 -0.607355 0
M  V30 1145 C 117.72 2.27612 0.133038 0
M  V30 1146 C 118.704 1.37307 0.838785 0
M  V30 1147 O 119.896 1.61299 0.728813 0
M  V30 1148 C 117.025 3.24173 1.12991 0
M  V30 1149 C 116.111 4.21965 0.425011 0
M  V30 1150 N 116.502 5.02982 -0.533217 0
M  V30 1151 C 114.8 4.40899 0.672593 0
M  V30 1152 C 115.501 5.73931 -0.947518 0
M  V30 1153 N 114.477 5.42819 -0.291321 0
M  V30 1154 H 118.279 2.87649 -0.602935 0
M  V30 1155 H 115.793 1.56576 -0.431006 0
M  V30 1156 H 117.79 3.81783 1.67473 0
M  V30 1157 H 116.45 2.65696 1.86644 0
M  V30 1158 H 117.461 5.09843 -0.90995 0
M  V30 1159 H 114.138 3.93547 1.39382 0
M  V30 1160 H 115.528 6.49037 -1.73782 0
M  V30 1161 N 118.248 0.346503 1.53744 0
M  V30 1162 C 119.525 -0.304532 1.93215 0
M  V30 1163 C 119.905 -1.67993 1.27834 0
M  V30 1164 O 119.253 -2.24411 0.430352 0
M  V30 1165 C 119.463 -0.373852 3.46992 0
M  V30 1166 C 120.811 -0.62329 4.2 0
M  V30 1167 O 121.835 -0.455847 3.53271 0
M  V30 1168 O 120.694 -0.947879 5.38217 0
M  V30 1169 H 117.788 -0.178318 0.807547 0
M  V30 1170 H 120.334 0.397895 1.64969 0
M  V30 1171 H 119.106 0.591224 3.86808 0
M  V30 1172 H 118.729 -1.12294 3.81413 0
M  V30 1173 N 119.726 -1.57421 0.075193 0
M  V30 1174 C 120.951 -1.98364 -0.605515 0
M  V30 1175 C 121.376 -0.953383 -1.62149 0
M  V30 1176 O 120.734 0.0806053 -1.81121 0
M  V30 1177 C 120.782 -3.38332 -1.24756 0
M  V30 1178 O 119.886 -3.37959 -2.36342 0
M  V30 1179 H 119.227 -0.645553 -0.155428 0
M  V30 1180 H 121.757 -2.04044 0.150714 0
M  V30 1181 H 121.767 -3.75591 -1.5936 0
M  V30 1182 H 120.442 -4.12846 -0.503129 0
M  V30 1183 H 119.019 -3.12474 -2.03506 0
M  V30 1184 N 121.204 0.198386 -1.56346 0
M  V30 1185 C 122.154 1.2499 -1.90687 0
M  V30 1186 C 123.138 1.41158 -0.772217 0
M  V30 1187 O 124.33 1.43584 -1.03502 0
M  V30 1188 C 121.459 2.59542 -2.24706 0
M  V30 1189 C 120.545 2.47181 -3.44619 0
M  V30 1190 N 120.936 2.04495 -4.62618 0
M  V30 1191 C 119.234 2.78082 -3.48692 0
M  V30 1192 C 119.935 2.03945 -5.44776 0
M  V30 1193 N 118.911 2.45323 -4.85095 0
M  V30 1194 H 122.713 0.911149 -2.7942 0
M  V30 1195 H 120.227 0.40684 -1.57221 0
M  V30 1196 H 122.224 3.3549 -2.47491 0
M  V30 1197 H 120.884 2.94244 -1.37298 0
M  V30 1198 H 121.895 1.75256 -4.87345 0
M  V30 1199 H 118.572 3.17002 -2.71691 0
M  V30 1200 H 119.962 1.72872 -6.4928 0
M  V30 1201 N 122.682 1.50554 0.465978 0
M  V30 1202 C 123.93 1.61479 1.21528 0
M  V30 1203 C 124.251 0.319596 1.92363 0
M  V30 1204 O 123.521 -0.663194 1.84333 0
M  V30 1205 H 122.101 0.595055 0.451573 0
M  V30 1206 H 124.763 1.87355 0.53704 0
M  V30 1207 H 123.859 2.42846 1.96042 0
M  V30 1208 N 124.16 -0.719506 1.40217 0
M  V30 1209 C 125.123 -1.8153 1.39927 0
M  V30 1210 C 126.123 -1.58095 0.293723 0
M  V30 1211 O 127.313 -1.65209 0.552429 0
M  V30 1212 C 124.445 -3.19561 1.18716 0
M  V30 1213 H 125.638 -1.83186 2.37451 0
M  V30 1214 H 123.191 -0.924746 1.26008 0
M  V30 1215 H 123.926 -3.23557 0.219366 0
M  V30 1216 H 123.711 -3.3797 1.98793 0
M  V30 1217 H 125.201 -3.99598 1.21291 0
M  V30 1218 N 125.638 -1.25649 -0.95132 0
M  V30 1219 C 126.548 -1.08073 -2.08224 0
M  V30 1220 C 127.564 -0.0169666 -1.73992 0
M  V30 1221 O 128.74 -0.218593 -2.0021 0
M  V30 1222 C 125.805 -0.704922 -3.39458 0
M  V30 1223 C 124.866 -1.84699 -3.87537 0
M  V30 1224 C 124.099 -1.48902 -5.12508 0
M  V30 1225 O 124.322 -0.386156 -5.69091 0
M  V30 1226 O 123.256 -2.32033 -5.55378 0
M  V30 1227 H 127.082 -2.02924 -2.25954 0
M  V30 1228 H 124.667 -1.04618 -1.06656 0
M  V30 1229 H 126.549 -0.507609 -4.18332 0
M  V30 1230 H 125.224 0.214291 -3.2299 0
M  V30 1231 H 124.131 -2.09919 -3.09653 0
M  V30 1232 H 125.464 -2.74557 -4.08509 0
M  V30 1233 N 127.117 1.15442 -1.07289 0
M  V30 1234 C 128.08 2.18358 -0.696591 0
M  V30 1235 C 129.08 1.58637 0.262837 0
M  V30 1236 O 130.27 1.74145 0.0438809 0
M  V30 1237 C 127.402 3.4089 -0.0266151 0
M  V30 1238 H 128.595 2.53162 -1.60776 0
M  V30 1239 H 126.148 1.29893 -0.869342 0
M  V30 1240 H 126.883 3.11653 0.896822 0
M  V30 1241 H 126.668 3.85495 -0.716657 0
M  V30 1242 H 128.158 4.17009 0.222028 0
M  V30 1243 N 128.595 0.856903 1.32268 0
M  V30 1244 C 129.542 0.301172 2.28827 0
M  V30 1245 C 130.512 -0.593104 1.5515 0
M  V30 1246 O 131.697 -0.527537 1.83362 0
M  V30 1247 C 128.837 -0.502523 3.41422 0
M  V30 1248 C 127.95 0.417797 4.29975 0
M  V30 1249 C 127.085 -0.398749 5.29701 0
M  V30 1250 C 126.124 0.518827 6.09897 0
M  V30 1251 N 125.261 -0.260674 7.01616 0
M  V30 1252 H 130.101 1.12983 2.75751 0
M  V30 1253 H 127.638 0.568582 1.35667 0
M  V30 1254 H 129.596 -0.984141 4.05426 0
M  V30 1255 H 128.226 -1.29599 2.95642 0
M  V30 1256 H 127.278 1.01781 3.66531 0
M  V30 1257 H 128.59 1.12191 4.86019 0
M  V30 1258 H 127.744 -0.943435 5.9932 0
M  V30 1259 H 126.483 -1.13622 4.7428 0
M  V30 1260 H 125.488 1.07538 5.39181 0
M  V30 1261 H 126.713 1.25495 6.67404 0
M  V30 1262 H 124.659 -0.981198 6.4862 0
M  V30 1263 H 124.576 0.384364 7.55022 0
M  V30 1264 H 125.844 -0.787014 7.75517 0
M  V30 1265 N 130.073 -1.45103 0.615059 0
M  V30 1266 C 131.298 -2.07064 0.117988 0
M  V30 1267 C 131.723 -1.4554 -1.19163 0
M  V30 1268 O 131.081 -0.550855 -1.72729 0
M  V30 1269 C 131.129 -3.606 -0.000288387 0
M  V30 1270 O 130.233 -3.98847 -1.04856 0
M  V30 1271 H 129.574 -0.659467 0.0774581 0
M  V30 1272 H 132.104 -1.86236 0.847186 0
M  V30 1273 H 132.114 -4.07529 -0.196091 0
M  V30 1274 H 130.789 -4.04765 0.955932 0
M  V30 1275 H 129.366 -3.63577 -0.828619 0
M  V30 1276 N 131.551 -0.354651 -1.53558 0
M  V30 1277 C 132.776 0.242153 -2.05981 0
M  V30 1278 C 133.201 1.42553 -1.2272 0
M  V30 1279 O 132.559 1.79656 -0.243604 0
M  V30 1280 C 132.607 0.624367 -3.55154 0
M  V30 1281 O 131.711 1.72301 -3.74681 0
M  V30 1282 H 131.052 0.0378432 -0.662921 0
M  V30 1283 H 133.582 -0.512087 -1.98088 0
M  V30 1284 H 133.592 0.898433 -3.97985 0
M  V30 1285 H 132.267 -0.240989 -4.15201 0
M  V30 1286 H 130.844 1.44535 -3.4375 0
M  V30 1287 N 133.029 1.57378 -0.0835403 0
M  V30 1288 C 134.257 1.98263 0.59157 0
M  V30 1289 C 134.672 0.962302 1.62435 0
M  V30 1290 O 134.029 -0.049581 1.82433 0
M  V30 1291 C 134.08 3.39214 1.24965 0
M  V30 1292 O 133.801 4.37339 0.258186 0
M  V30 1293 C 135.302 3.95038 2.01147 0
M  V30 1294 H 132.522 0.651773 0.159477 0
M  V30 1295 H 135.066 2.03878 -0.159415 0
M  V30 1296 H 133.221 3.34649 1.95164 0
M  V30 1297 H 133.635 5.19371 0.731734 0
M  V30 1298 H 135.109 4.95848 2.42567 0
M  V30 1299 H 135.586 3.32222 2.87272 0
M  V30 1300 H 136.192 4.0304 1.35789 0
M  V30 1301 N 134.507 -0.190092 1.56449 0
M  V30 1302 C 135.923 -0.54113 1.50146 0
M  V30 1303 C 136.123 -1.85603 0.784465 0
M  V30 1304 O 135.179 -2.5024 0.337051 0
M  V30 1305 C 136.492 -0.591241 2.9483 0
M  V30 1306 C 138.04 -0.679732 3.0553 0
M  V30 1307 C 138.515 -0.760908 4.51635 0
M  V30 1308 N 140.006 -0.824302 4.55806 0
M  V30 1309 C 140.741 -0.907365 5.66175 0
M  V30 1310 N 140.237 -0.952422 6.86222 0
M  V30 1311 N 142.03 -0.94494 5.541 0
M  V30 1312 H 134.181 0.67235 2.01478 0
M  V30 1313 H 136.444 0.240127 0.917084 0
M  V30 1314 H 136.15 0.305905 3.50367 0
M  V30 1315 H 136.024 -1.44422 3.48457 0
M  V30 1316 H 138.411 -1.56731 2.50039 0
M  V30 1317 H 138.492 0.199549 2.5502 0
M  V30 1318 H 138.136 0.122336 5.07753 0
M  V30 1319 H 138.066 -1.65606 4.99882 0
M  V30 1320 H 140.557 -0.798526 3.69367 0
M  V30 1321 H 140.87 -1.01645 7.66086 0
M  V30 1322 H 139.215 -0.921014 6.8887 0
M  V30 1323 H 142.406 -0.906612 4.59236 0
M  V30 1324 H 142.579 -1.00622 6.4014 0
M  V30 1325 N 135.985 -1.50799 -0.457987 0
M  V30 1326 C 137.21 -1.66496 -1.23668 0
M  V30 1327 C 137.635 -0.353288 -1.84752 0
M  V30 1328 O 136.993 0.684346 -1.67888 0
M  V30 1329 C 137.041 -2.76763 -2.3116 0
M  V30 1330 O 136.145 -2.38928 -3.36136 0
M  V30 1331 H 135.486 -0.555828 -0.363252 0
M  V30 1332 H 138.016 -1.9725 -0.543474 0
M  V30 1333 H 138.026 -3.00232 -2.76269 0
M  V30 1334 H 136.701 -3.71954 -1.86073 0
M  V30 1335 H 135.278 -2.25953 -2.96647 0
M  V30 1336 N 137.463 0.71206 -1.40597 0
M  V30 1337 C 138.411 1.84746 -1.41321 0
M  V30 1338 C 139.405 1.66842 -0.293268 0
M  V30 1339 O 140.611 1.73904 -0.464481 0
M  V30 1340 H 136.986 0.608522 -0.441819 0
M  V30 1341 H 138.957 1.81252 -2.37045 0
M  V30 1342 C 137.706 3.22638 -1.29614 0
M  V30 1343 H 137.029 3.37023 -2.15071 0
M  V30 1344 H 138.469 4.02209 -1.3418 0
M  V30 1345 C 136.928 3.36899 -0.00673121 0
M  V30 1346 O 137.458 3.90186 0.954859 0
M  V30 1347 N 135.664 2.9053 0.0639327 0
M  V30 1348 H 135.211 2.47353 -0.719311 0
M  V30 1349 H 135.169 3.0045 0.926118 0
M  V30 1350 N 138.941 1.26152 0.944643 0
M  V30 1351 C 139.889 1.07215 2.06417 0
M  V30 1352 C 140.883 9.2007e-05 1.694 0
M  V30 1353 O 142.089 0.1565 1.79318 0
M  V30 1354 H 138.464 0.329837 0.675805 0
M  V30 1355 H 140.435 2.02099 2.19541 0
M  V30 1356 C 139.184 0.718197 3.40202 0
M  V30 1357 H 138.507 1.53497 3.69159 0
M  V30 1358 H 139.947 0.625459 4.19361 0
M  V30 1359 C 138.406 -0.576435 3.31932 0
M  V30 1360 O 138.936 -1.61574 3.67773 0
M  V30 1361 N 137.142 -0.565781 2.85039 0
M  V30 1362 H 136.689 0.280367 2.5607 0
M  V30 1363 H 136.647 -1.43213 2.79888 0
M  V30 1364 N 140.419 -1.14872 1.07899 0
M  V30 1365 C 141.835 -1.37776 0.805606 0
M  V30 1366 C 142.035 -1.92743 -0.587555 0
M  V30 1367 O 141.091 -2.13678 -1.34528 0
M  V30 1368 C 142.404 -2.34361 1.88402 0
M  V30 1369 C 143.952 -2.48012 1.90942 0
M  V30 1370 C 144.427 -3.47893 2.97883 0
M  V30 1371 N 145.918 -3.55433 2.97021 0
M  V30 1372 C 146.653 -4.32553 3.76412 0
M  V30 1373 N 146.149 -5.12959 4.65666 0
M  V30 1374 N 147.942 -4.27697 3.64735 0
M  V30 1375 H 140.093 -0.775365 1.97742 0
M  V30 1376 H 142.356 -0.403521 0.857831 0
M  V30 1377 H 142.062 -2.01098 2.88535 0
M  V30 1378 H 141.936 -3.34206 1.74889 0
M  V30 1379 H 144.323 -2.8057 0.914579 0
M  V30 1380 H 144.404 -1.48147 2.08534 0
M  V30 1381 H 144.048 -3.16069 3.97571 0
M  V30 1382 H 143.978 -4.47527 2.77538 0
M  V30 1383 H 146.469 -2.98048 2.32326 0
M  V30 1384 H 146.782 -5.69065 5.22862 0
M  V30 1385 H 145.127 -5.12245 4.69712 0
M  V30 1386 H 148.318 -3.63949 2.94378 0
M  V30 1387 H 148.491 -4.8755 4.26848 0
M  V30 1388 N 141.898 -0.863906 -1.31812 0
M  V30 1389 C 143.146 -0.470904 -1.96537 0
M  V30 1390 C 143.467 0.978771 -1.68657 0
M  V30 1391 O 142.737 1.6853 -0.998717 0
M  V30 1392 H 141.317 -0.171148 -0.72713 0
M  V30 1393 H 143.979 -1.10236 -1.60729 0
M  V30 1394 H 143.075 -0.623616 -3.05806 0
M  V30 1395 N 143.376 1.44774 -0.622745 0
M  V30 1396 C 144.787 1.85546 -0.207226 0
M  V30 1397 C 145.138 1.52093 1.23944 0
M  V30 1398 O 144.263 0.95492 1.94191 0
M  V30 1399 C 144.858 3.36781 -0.369313 0
M  V30 1400 C 143.417 3.76399 -0.00836847 0
M  V30 1401 C 142.564 2.68664 -0.686651 0
M  V30 1402 H 145.515 1.3536 -0.828454 0
M  V30 1403 H 145.536 3.78453 0.394162 0
M  V30 1404 H 145.048 3.61098 -1.42231 0
M  V30 1405 H 143.149 3.57698 1.04322 0
M  V30 1406 H 143.262 4.7732 -0.412584 0
M  V30 1407 H 141.626 2.54404 -0.122777 0
M  V30 1408 H 142.409 2.95815 -1.74208 0
M  V30 1409 N 144.854 0.36279 1.53368 0
M  V30 1410 C 146.084 -0.228281 2.05335 0
M  V30 1411 C 146.492 -1.43226 1.23625 0
M  V30 1412 O 145.835 -1.81717 0.269206 0
M  V30 1413 C 145.897 -0.688549 3.52845 0
M  V30 1414 C 145.561 0.398362 4.5526 0
M  V30 1415 C 146.558 1.24732 5.04716 0
M  V30 1416 C 144.243 0.557805 4.99193 0
M  V30 1417 C 146.237 2.2411 5.96702 0
M  V30 1418 C 143.924 1.55495 5.90986 0
M  V30 1419 C 144.922 2.39503 6.39631 0
M  V30 1420 O 144.61 3.37517 7.29615 0
M  V30 1421 H 144.342 -0.044395 0.674541 0
M  V30 1422 H 146.896 0.518668 1.98744 0
M  V30 1423 H 145.126 -1.48706 3.56964 0
M  V30 1424 H 146.815 -1.20231 3.87685 0
M  V30 1425 H 147.581 1.13532 4.71525 0
M  V30 1426 H 143.46 -0.0862959 4.60919 0
M  V30 1427 H 147.004 2.89718 6.34594 0
M  V30 1428 H 142.901 1.66744 6.23592 0
M  V30 1429 H 143.669 3.33213 7.47604 0
M  V30 1430 N 146.332 -1.57332 0.0918853 0
M  V30 1431 C 147.578 -1.94524 -0.573425 0
M  V30 1432 C 147.911 -0.973578 -1.68033 0
M  V30 1433 O 147.186 -0.00609226 -1.94499 0
M  V30 1434 C 147.469 -3.41858 -1.13161 0
M  V30 1435 C 147.322 -4.4979 -0.0299747 0
M  V30 1436 C 148.641 -3.90435 -2.03098 0
M  V30 1437 H 145.76 -0.70734 -0.206975 0
M  V30 1438 H 148.402 -1.89309 0.161942 0
M  V30 1439 H 146.552 -3.46433 -1.7583 0
M  V30 1440 H 148.224 -4.57327 0.604112 0
M  V30 1441 H 146.467 -4.291 0.636833 0
M  V30 1442 H 147.138 -5.50069 -0.461287 0
M  V30 1443 H 149.614 -3.87992 -1.50338 0
M  V30 1444 H 148.49 -4.94097 -2.39081 0
M  V30 1445 H 148.751 -3.29541 -2.94712 0
M  V30 1446 N 147.81 0.181792 -1.56548 0
M  V30 1447 C 149.058 0.89832 -1.81038 0
M  V30 1448 C 149.379 1.83232 -0.667164 0
M  V30 1449 O 148.649 1.93372 0.313673 0
M  V30 1450 H 147.229 0.33471 -0.667816 0
M  V30 1451 H 149.891 0.184116 -1.94028 0
M  V30 1452 H 148.987 1.4815 -2.74696 0
M  V30 1453 N 149.288 1.51039 0.449983 0
M  V30 1454 C 150.699 1.557 1.03026 0
M  V30 1455 C 151.05 0.372939 1.92623 0
M  V30 1456 O 150.175 -0.511771 2.10261 0
M  V30 1457 C 150.77 2.82171 1.87523 0
M  V30 1458 C 149.329 2.89444 2.40622 0
M  V30 1459 C 148.476 2.50228 1.19504 0
M  V30 1460 H 151.427 1.56999 0.231745 0
M  V30 1461 H 151.448 2.65219 2.72835 0
M  V30 1462 H 150.96 3.68331 1.22286 0
M  V30 1463 H 149.061 2.07685 3.0935 0
M  V30 1464 H 149.174 3.92816 2.74285 0
M  V30 1465 H 147.538 2.03139 1.53644 0
M  V30 1466 H 148.321 3.38719 0.558972 0
M  V30 1467 N 150.766 -0.704594 1.40972 0
M  V30 1468 C 151.698 -1.82974 1.38033 0
M  V30 1469 C 152.711 -1.60305 0.283931 0
M  V30 1470 O 153.9 -1.69975 0.545042 0
M  V30 1471 C 151 -3.19578 1.12795 0
M  V30 1472 C 150.173 -3.69352 2.34302 0
M  V30 1473 C 149.232 -4.84601 2.05058 0
M  V30 1474 O 148.258 -4.96682 2.7802 0
M  V30 1475 N 149.46 -5.71194 1.03528 0
M  V30 1476 H 152.225 -1.85991 2.35005 0
M  V30 1477 H 149.786 -0.886567 1.35468 0
M  V30 1478 H 151.778 -3.9429 0.911987 0
M  V30 1479 H 150.348 -3.11642 0.24452 0
M  V30 1480 H 149.568 -2.85649 2.71659 0
M  V30 1481 H 150.856 -3.99345 3.1528 0
M  V30 1482 H 150.254 -5.64054 0.431217 0
M  V30 1483 H 148.811 -6.45843 0.879205 0
M  V30 1484 N 152.244 -1.26651 -0.937939 0
M  V30 1485 C 153.174 -1.10993 -2.05433 0
M  V30 1486 C 154.155 -0.0142161 -1.70094 0
M  V30 1487 O 155.34 -0.186837 -1.93299 0
M  V30 1488 C 152.47 -0.745561 -3.39203 0
M  V30 1489 C 151.424 -1.79337 -3.88616 0
M  V30 1490 C 150.75 -1.28324 -5.19073 0
M  V30 1491 C 152.05 -3.19553 -4.13138 0
M  V30 1492 H 153.744 -2.0438 -2.1879 0
M  V30 1493 H 151.29 -0.984041 -1.05131 0
M  V30 1494 H 153.243 -0.622888 -4.16771 0
M  V30 1495 H 151.967 0.22401 -3.25831 0
M  V30 1496 H 150.626 -1.90477 -3.13231 0
M  V30 1497 H 150.274 -0.303414 -5.02084 0
M  V30 1498 H 149.974 -1.98369 -5.53103 0
M  V30 1499 H 151.498 -1.1733 -5.99221 0
M  V30 1500 H 152.912 -3.11471 -4.81309 0
M  V30 1501 H 151.309 -3.87218 -4.58457 0
M  V30 1502 H 152.379 -3.65368 -3.18801 0
M  V30 1503 N 153.722 1.14298 -1.08507 0
M  V30 1504 C 154.947 1.8976 -0.837001 0
M  V30 1505 C 155.372 1.78097 0.605228 0
M  V30 1506 O 154.73 1.12188 1.4242 0
M  V30 1507 C 154.778 3.37685 -1.26495 0
M  V30 1508 O 153.882 4.10281 -0.417514 0
M  V30 1509 H 153.223 0.590365 -0.303917 0
M  V30 1510 H 155.753 1.44672 -1.44676 0
M  V30 1511 H 155.763 3.88501 -1.24625 0
M  V30 1512 H 154.438 3.45492 -2.31534 0
M  V30 1513 H 153.015 3.69536 -0.499722 0
M  V30 1514 N 155.201 0.870884 1.31352 0
M  V30 1515 C 156.431 0.496049 2.00557 0
M  V30 1516 C 156.839 -0.916241 1.65534 0
M  V30 1517 O 156.182 -1.61188 0.881134 0
M  V30 1518 C 156.244 0.574418 3.54881 0
M  V30 1519 C 155.908 1.94849 4.1338 0
M  V30 1520 C 156.905 2.91611 4.30417 0
M  V30 1521 C 154.59 2.25005 4.49086 0
M  V30 1522 C 156.584 4.16672 4.82352 0
M  V30 1523 C 154.271 3.50315 5.00722 0
M  V30 1524 C 155.269 4.45964 5.17306 0
M  V30 1525 O 154.957 5.69052 5.67833 0
M  V30 1526 H 154.689 0.191664 0.64826 0
M  V30 1527 H 157.243 1.17409 1.68536 0
M  V30 1528 H 155.473 -0.160549 3.86367 0
M  V30 1529 H 157.162 0.212879 4.05341 0
M  V30 1530 H 157.928 2.69622 4.03149 0
M  V30 1531 H 153.807 1.51332 4.35453 0
M  V30 1532 H 157.351 4.91336 4.95211 0
M  V30 1533 H 153.248 3.72147 5.27424 0
M  V30 1534 H 154.016 5.71236 5.86201 0
M  V30 1535 N 156.679 -1.44442 0.630414 0
M  V30 1536 C 157.925 -2.02351 0.134816 0
M  V30 1537 C 158.258 -1.4947 -1.23986 0
M  V30 1538 O 157.533 -0.678475 -1.82283 0
M  V30 1539 C 157.816 -3.59898 0.120707 0
M  V30 1540 C 157.669 -4.23063 1.52767 0
M  V30 1541 C 158.988 -4.36585 -0.555127 0
M  V30 1542 H 156.107 -0.73527 0.0504646 0
M  V30 1543 H 158.749 -1.72022 0.806751 0
M  V30 1544 H 156.899 -3.85868 -0.451477 0
M  V30 1545 H 158.571 -4.08202 2.14869 0
M  V30 1546 H 156.814 -3.80586 2.08175 0
M  V30 1547 H 157.485 -5.32071 1.46984 0
M  V30 1548 H 159.961 -4.16044 -0.0685429 0
M  V30 1549 H 158.837 -5.46294 -0.534185 0
M  V30 1550 H 159.098 -4.11138 -1.62535 0
M  V30 1551 N 158.157 -0.370918 -1.53173 0
M  V30 1552 C 159.12 0.460778 -2.24521 0
M  V30 1553 C 160.12 1.00536 -1.25496 0
M  V30 1554 O 161.31 0.890266 -1.49733 0
M  V30 1555 C 158.442 1.64457 -2.98608 0
M  V30 1556 H 159.635 -0.163613 -2.99453 0
M  V30 1557 H 157.188 -0.122699 -1.55818 0
M  V30 1558 H 157.923 2.30691 -2.2793 0
M  V30 1559 H 157.708 1.26099 -3.7127 0
M  V30 1560 H 159.198 2.23384 -3.5283 0
M  V30 1561 N 159.635 1.57281 -0.100228 0
M  V30 1562 C 160.567 2.11342 0.886972 0
M  V30 1563 C 161.58 1.05182 1.24261 0
M  V30 1564 O 162.769 1.32613 1.19483 0
M  V30 1565 C 159.869 2.5825 2.19454 0
M  V30 1566 C 159.042 3.88302 2.01346 0
M  V30 1567 C 158.101 4.21004 3.15661 0
M  V30 1568 O 157.127 4.9014 2.89398 0
M  V30 1569 N 158.329 3.76818 4.41575 0
M  V30 1570 H 161.094 2.96668 0.425216 0
M  V30 1571 H 158.655 1.61678 0.0847334 0
M  V30 1572 H 160.647 2.7717 2.94888 0
M  V30 1573 H 159.217 1.77907 2.57037 0
M  V30 1574 H 158.437 3.7848 1.10212 0
M  V30 1575 H 159.725 4.73375 1.8653 0
M  V30 1576 H 159.123 3.2102 4.65792 0
M  V30 1577 H 157.68 4.00882 5.13942 0
M  V30 1578 N 161.113 -0.173488 1.56642 0
M  V30 1579 C 162.043 -1.2171 1.99271 0
M  V30 1580 C 163.024 -1.46289 0.867959 0
M  V30 1581 O 164.209 -1.5766 1.13388 0
M  V30 1582 C 161.339 -2.55651 2.35074 0
M  V30 1583 C 160.293 -2.45645 3.50489 0
M  V30 1584 C 159.619 -3.84056 3.72028 0
M  V30 1585 C 160.919 -1.96302 4.84007 0
M  V30 1586 H 162.613 -0.86275 2.867 0
M  V30 1587 H 160.159 -0.413571 1.37933 0
M  V30 1588 H 162.112 -3.2886 2.63494 0
M  V30 1589 H 160.836 -2.92869 1.44552 0
M  V30 1590 H 159.495 -1.7489 3.22194 0
M  V30 1591 H 159.143 -4.18664 2.788 0
M  V30 1592 H 158.843 -3.7823 4.49684 0
M  V30 1593 H 160.367 -4.58854 4.02846 0
M  V30 1594 H 161.781 -2.59284 5.11317 0
M  V30 1595 H 160.178 -2.01429 5.65284 0
M  V30 1596 H 161.248 -0.917226 4.76146 0
M  V30 1597 N 162.591 -1.51276 -0.441967 0
M  V30 1598 C 163.868 -1.54252 -1.20273 0
M  V30 1599 C 164.248 -0.30408 -2.08898 0
M  V30 1600 O 163.596 0.711084 -2.17154 0
M  V30 1601 C 163.806 -2.85406 -2.00859 0
M  V30 1602 C 165.154 -3.37181 -2.58059 0
M  V30 1603 O 166.178 -2.86925 -2.11074 0
M  V30 1604 O 165.037 -4.24858 -3.43741 0
M  V30 1605 H 162.131 -0.619969 -0.547328 0
M  V30 1606 H 164.677 -1.63586 -0.451413 0
M  V30 1607 H 163.449 -3.67003 -1.35736 0
M  V30 1608 H 163.072 -2.79213 -2.83065 0
M  V30 1609 N 164.069 0.697108 -1.41344 0
M  V30 1610 C 165.346 1.45154 -1.31109 0
M  V30 1611 C 165.726 2.11009 0.0620449 0
M  V30 1612 O 165.074 2.01571 1.07618 0
M  V30 1613 C 165.284 2.47223 -2.46337 0
M  V30 1614 C 166.632 3.1252 -2.87431 0
M  V30 1615 O 167.656 2.57547 -2.46065 0
M  V30 1616 O 166.515 4.12083 -3.58957 0
M  V30 1617 H 163.609 0.646365 -0.515889 0
M  V30 1618 H 166.155 0.727716 -1.53305 0
M  V30 1619 H 164.927 1.97204 -3.37974 0
M  V30 1620 H 164.55 3.27116 -2.2601 0
M  V30 1621 N 165.547 1.27147 0.931209 0
M  V30 1622 C 166.793 1.14455 1.68141 0
M  V30 1623 C 167.148 -0.307172 1.89932 0
M  V30 1624 O 166.441 -1.22158 1.47607 0
M  V30 1625 C 166.635 1.8579 3.05314 0
M  V30 1626 C 166.464 3.3775 2.96909 0
M  V30 1627 C 165.234 4.07062 2.99381 0
M  V30 1628 C 167.432 4.33783 2.76291 0
M  V30 1629 N 165.414 5.45618 2.8138 0
M  V30 1630 C 166.785 5.59582 2.6696 0
M  V30 1631 C 168.84 4.23915 2.61152 0
M  V30 1632 C 167.543 6.76639 2.44033 0
M  V30 1633 C 169.569 5.40689 2.39602 0
M  V30 1634 C 168.931 6.65443 2.3101 0
M  V30 1635 H 165.03 0.473667 0.622225 0
M  V30 1636 H 167.614 1.60568 1.10118 0
M  V30 1637 H 165.785 1.42138 3.61457 0
M  V30 1638 H 167.517 1.65634 3.69253 0
M  V30 1639 H 164.272 3.585 3.09475 0
M  V30 1640 H 164.696 6.184 2.75519 0
M  V30 1641 H 169.338 3.28189 2.66555 0
M  V30 1642 H 167.056 7.72451 2.3737 0
M  V30 1643 H 170.642 5.34932 2.28778 0
M  V30 1644 H 169.522 7.54277 2.14558 0
M  V30 1645 N 167.025 -1.13721 1.09112 0
M  V30 1646 C 168.441 -1.36914 0.820174 0
M  V30 1647 C 168.641 -1.93356 -0.567079 0
M  V30 1648 O 167.697 -2.15093 -1.32255 0
M  V30 1649 C 169.01 -2.3235 1.90877 0
M  V30 1650 C 170.558 -2.45973 1.93562 0
M  V30 1651 C 171.033 -3.44714 3.01556 0
M  V30 1652 N 172.524 -3.52263 3.00775 0
M  V30 1653 C 173.259 -4.28536 3.80978 0
M  V30 1654 N 172.755 -5.07991 4.71081 0
M  V30 1655 N 174.548 -4.23804 3.69251 0
M  V30 1656 H 166.699 -0.754348 1.98553 0
M  V30 1657 H 168.962 -0.3944 0.862063 0
M  V30 1658 H 168.668 -1.98027 2.90651 0
M  V30 1659 H 168.542 -3.32332 1.78424 0
M  V30 1660 H 170.929 -2.79584 0.944286 0
M  V30 1661 H 171.01 -1.45926 2.10093 0
M  V30 1662 H 170.654 -3.11835 4.00901 0
M  V30 1663 H 170.584 -4.44558 2.82269 0
M  V30 1664 H 173.075 -2.95567 2.35475 0
M  V30 1665 H 173.388 -5.63487 5.28869 0
M  V30 1666 H 171.733 -5.07235 4.75119 0
M  V30 1667 H 174.924 -3.60806 2.98222 0
M  V30 1668 H 175.097 -4.82995 4.31995 0
M  V30 1669 N 168.503 -0.877838 -1.30888 0
M  V30 1670 C 169.75 -0.492696 -1.96415 0
M  V30 1671 C 170.078 0.956671 -1.69346 0
M  V30 1672 O 169.333 1.68993 -0.986913 0
M  V30 1673 C 169.632 -0.705748 -3.50363 0
M  V30 1674 C 169.298 -2.1291 -3.97467 0
M  V30 1675 C 167.96 -2.51834 -4.1004 0
M  V30 1676 C 170.312 -3.05702 -4.22132 0
M  V30 1677 C 167.64 -3.82775 -4.44635 0
M  V30 1678 C 169.992 -4.36166 -4.58194 0
M  V30 1679 C 168.656 -4.74993 -4.68975 0
M  V30 1680 H 167.926 -0.18029 -0.718733 0
M  V30 1681 H 170.573 -1.11233 -1.55883 0
M  V30 1682 H 168.878 -0.00303058 -3.918 0
M  V30 1683 H 170.575 -0.387456 -3.99124 0
M  V30 1684 H 167.165 -1.81694 -3.88182 0
M  V30 1685 H 171.349 -2.76853 -4.11906 0
M  V30 1686 H 166.605 -4.12609 -4.51181 0
M  V30 1687 H 170.779 -5.08111 -4.76231 0
M  V30 1688 H 168.406 -5.76495 -4.95537 0
M  V30 1689 N 169.982 1.44106 -0.638065 0
M  V30 1690 C 171.23 2.01579 -0.145043 0
M  V30 1691 C 171.551 1.50496 1.24 0
M  V30 1692 O 170.821 0.711374 1.82527 0
M  V30 1693 H 169.401 0.745282 -0.05063 0
M  V30 1694 H 172.063 1.76516 -0.826327 0
M  V30 1695 H 171.159 3.11877 -0.118039 0
M  V30 1696 N 171.46 0.379036 1.52974 0
M  V30 1697 C 172.423 -0.448865 2.24762 0
M  V30 1698 C 173.423 -0.998689 1.26027 0
M  V30 1699 O 174.613 -0.882313 1.50203 0
M  V30 1700 C 171.745 -1.62872 2.99476 0
M  V30 1701 H 172.938 0.179491 2.99362 0
M  V30 1702 H 170.491 0.13096 1.5575 0
M  V30 1703 H 171.226 -2.29479 2.29151 0
M  V30 1704 H 171.011 -1.24128 3.71934 0
M  V30 1705 H 172.501 -2.2151 3.5401 0
M  V30 1706 N 172.938 -1.57226 0.108567 0
M  V30 1707 C 174.186 -1.94448 -0.550853 0
M  V30 1708 C 174.507 -0.992074 -1.67878 0
M  V30 1709 O 173.777 -0.0465 -1.95845 0
M  V30 1710 H 172.357 -0.717897 -0.206479 0
M  V30 1711 H 175.019 -1.94112 0.175062 0
M  V30 1712 H 174.115 -2.97218 -0.952259 0
M  V30 1713 N 174.416 0.165178 -1.56732 0
M  V30 1714 C 175.346 1.20651 -1.99914 0
M  V30 1715 C 176.327 1.45827 -0.875705 0
M  V30 1716 O 177.512 1.57057 -1.14223 0
M  V30 1717 C 174.642 2.54401 -2.36427 0
M  V30 1718 C 173.596 2.43782 -3.51787 0
M  V30 1719 C 172.922 3.82078 -3.7406 0
M  V30 1720 C 174.222 1.93732 -4.85041 0
M  V30 1721 H 175.916 0.847534 -2.87154 0
M  V30 1722 H 173.462 0.40625 -1.38151 0
M  V30 1723 H 175.415 3.27458 -2.65234 0
M  V30 1724 H 174.139 2.92098 -1.46103 0
M  V30 1725 H 172.798 1.73178 -3.23117 0
M  V30 1726 H 172.446 4.17179 -2.81017 0
M  V30 1727 H 172.146 3.7584 -4.51684 0
M  V30 1728 H 173.67 4.56712 -4.05274 0
M  V30 1729 H 175.084 2.56569 -5.12684 0
M  V30 1730 H 173.481 1.98428 -5.66345 0
M  V30 1731 H 174.551 0.891962 -4.76626 0
M  V30 1732 N 175.894 1.51508 0.433938 0
M  V30 1733 C 177.141 1.64345 1.18309 0
M  V30 1734 C 177.469 0.361315 1.91115 0
M  V30 1735 O 176.724 -0.654753 1.84422 0
M  V30 1736 C 177.023 2.79928 2.22205 0
M  V30 1737 C 176.689 4.19078 1.66387 0
M  V30 1738 C 175.351 4.56932 1.50887 0
M  V30 1739 C 177.703 5.05894 1.25381 0
M  V30 1740 C 175.031 5.79305 0.928608 0
M  V30 1741 C 177.383 6.2885 0.687823 0
M  V30 1742 C 176.047 6.65473 0.519755 0
M  V30 1743 H 175.317 0.601381 0.432923 0
M  V30 1744 H 177.964 1.85549 0.473676 0
M  V30 1745 H 176.269 2.52959 2.99197 0
M  V30 1746 H 177.966 2.87059 2.79997 0
M  V30 1747 H 174.556 3.89234 1.79428 0
M  V30 1748 H 178.74 4.77253 1.36175 0
M  V30 1749 H 173.996 6.06324 0.786186 0
M  V30 1750 H 178.17 6.95461 0.361581 0
M  V30 1751 H 175.797 7.6017 0.0679979 0
M  V30 1752 N 177.372 -0.689602 1.41712 0
M  V30 1753 C 178.618 -1.45181 1.41599 0
M  V30 1754 C 178.951 -1.94181 0.0270081 0
M  V30 1755 O 178.226 -1.6993 -0.946265 0
M  V30 1756 C 178.509 -2.65945 2.42787 0
M  V30 1757 C 178.362 -2.22672 3.90816 0
M  V30 1758 C 179.681 -3.68149 2.41151 0
M  V30 1759 H 176.8 -0.526576 0.515642 0
M  V30 1760 H 179.442 -0.784947 1.73028 0
M  V30 1761 H 177.592 -3.2284 2.16116 0
M  V30 1762 H 179.264 -1.71058 4.28412 0
M  V30 1763 H 177.507 -1.54394 4.05395 0
M  V30 1764 H 178.178 -3.0935 4.57172 0
M  V30 1765 H 180.654 -3.2094 2.64834 0
M  V30 1766 H 179.53 -4.50248 3.13955 0
M  V30 1767 H 179.791 -4.18259 1.43221 0
M  V30 1768 N 178.85 -1.27639 -0.924453 0
M  V30 1769 C 180.075 -1.17101 -1.71179 0
M  V30 1770 C 180.5 0.268134 -1.86179 0
M  V30 1771 O 179.858 1.19415 -1.36418 0
M  V30 1772 C 179.906 -1.86313 -3.08739 0
M  V30 1773 O 179.01 -1.16331 -3.95652 0
M  V30 1774 H 178.351 -0.407091 -0.524569 0
M  V30 1775 H 180.881 -1.68767 -1.15666 0
M  V30 1776 H 180.891 -1.938 -3.59034 0
M  V30 1777 H 179.566 -2.91001 -2.97138 0
M  V30 1778 H 178.143 -1.16935 -3.54091 0
M  V30 1779 N 180.328 1.1314 -1.09713 0
M  V30 1780 C 181.553 1.88862 -0.857081 0
M  V30 1781 C 181.978 1.78729 0.586304 0
M  V30 1782 O 181.336 1.13692 1.41222 0
M  V30 1783 C 181.384 3.36325 -1.30069 0
M  V30 1784 O 180.488 4.09815 -0.461007 0
M  V30 1785 H 179.829 0.587108 -0.310162 0
M  V30 1786 H 182.359 1.43129 -1.46203 0
M  V30 1787 H 182.369 3.87157 -1.28738 0
M  V30 1788 H 181.044 3.43017 -2.35185 0
M  V30 1789 H 179.621 3.68986 -0.538888 0
M  V30 1790 N 181.806 0.884767 1.30421 0
M  V30 1791 C 183.054 0.502112 1.95763 0
M  V30 1792 C 183.375 -0.951815 1.70192 0
M  V30 1793 O 182.645 -1.6692 1.0254 0
M  V30 1794 H 181.225 0.182694 0.724315 0
M  V30 1795 H 183.887 1.1278 1.58955 0
M  V30 1796 H 182.983 0.672188 3.04775 0
M  V30 1797 N 183.284 -1.43765 0.645699 0
M  V30 1798 C 184.214 -2.33471 -0.0370477 0
M  V30 1799 C 185.195 -1.49042 -0.819779 0
M  V30 1800 O 186.38 -1.77726 -0.782758 0
M  V30 1801 C 183.51 -3.32311 -1.0093 0
M  V30 1802 C 182.464 -4.2667 -0.337201 0
M  V30 1803 C 181.79 -5.1549 -1.42037 0
M  V30 1804 C 183.09 -5.16657 0.765706 0
M  V30 1805 H 184.784 -2.90809 0.712069 0
M  V30 1806 H 182.33 -1.39834 0.343876 0
M  V30 1807 H 184.283 -3.9396 -1.49578 0
M  V30 1808 H 183.007 -2.73213 -1.78948 0
M  V30 1809 H 181.666 -3.66374 0.128771 0
M  V30 1810 H 181.314 -4.52735 -2.1918 0
M  V30 1811 H 181.014 -5.79438 -0.975966 0
M  V30 1812 H 182.538 -5.80012 -1.90838 0
M  V30 1813 H 183.952 -5.72158 0.361702 0
M  V30 1814 H 182.349 -5.89286 1.13413 0
M  V30 1815 H 183.419 -4.56796 1.62683 0
M  V30 1816 N 184.763 -0.387143 -1.52771 0
M  V30 1817 C 186.011 0.195349 -2.01154 0
M  V30 1818 C 186.332 1.475 -1.27549 0
M  V30 1819 O 185.602 1.91878 -0.394924 0
M  V30 1820 H 184.182 0.075178 -0.743207 0
M  V30 1821 H 186.844 -0.518337 -1.87881 0
M  V30 1822 H 185.94 0.407096 -3.09434 0
M  V30 1823 N 186.241 1.57166 -0.116904 0
M  V30 1824 C 187.469 1.99473 0.549383 0
M  V30 1825 C 187.884 0.996541 1.60357 0
M  V30 1826 O 187.241 -0.0108731 1.82497 0
M  V30 1827 C 187.292 3.41788 1.17741 0
M  V30 1828 O 187.013 4.37788 0.165362 0
M  V30 1829 C 188.514 3.99216 1.92722 0
M  V30 1830 H 185.734 0.655009 0.145616 0
M  V30 1831 H 188.278 2.03494 -0.202625 0
M  V30 1832 H 186.433 3.38713 1.88021 0
M  V30 1833 H 186.847 5.20806 0.621403 0
M  V30 1834 H 188.321 5.00882 2.31995 0
M  V30 1835 H 188.798 3.3824 2.80161 0
M  V30 1836 H 189.404 4.0583 1.27209 0
M  V30 1837 N 187.719 -0.156864 1.56817 0
M  V30 1838 C 188.629 -1.2136 2.00771 0
M  V30 1839 C 189.645 -1.47598 0.921459 0
M  V30 1840 O 190.821 -1.59462 1.2302 0
M  V30 1841 C 187.886 -2.52943 2.37109 0
M  V30 1842 C 186.947 -2.34439 3.59634 0
M  V30 1843 C 186.18 -3.59748 3.94229 0
M  V30 1844 O 186.403 -4.65526 3.29609 0
M  V30 1845 O 185.337 -3.52998 4.8752 0
M  V30 1846 H 189.163 -0.870468 2.90958 0
M  V30 1847 H 186.748 -0.36484 1.44877 0
M  V30 1848 H 188.63 -3.30538 2.61386 0
M  V30 1849 H 187.305 -2.86806 1.5008 0
M  V30 1850 H 186.212 -1.54828 3.40557 0
M  V30 1851 H 187.545 -2.05496 4.4725 0
M  V30 1852 N 189.197 -1.51736 -0.425897 0
M  V30 1853 C 190.427 -1.68549 -1.19476 0
M  V30 1854 C 190.835 -0.387288 -1.85194 0
M  V30 1855 O 190.178 0.645142 -1.71999 0
M  V30 1856 C 190.24 -2.75275 -2.31223 0
M  V30 1857 C 189.904 -4.17534 -1.8578 0
M  V30 1858 C 190.901 -5.01936 -1.35485 0
M  V30 1859 C 188.586 -4.6369 -1.93123 0
M  V30 1860 C 190.58 -6.30559 -0.931347 0
M  V30 1861 C 188.267 -5.92307 -1.50384 0
M  V30 1862 C 189.265 -6.75569 -1.00473 0
M  V30 1863 O 188.953 -8.0178 -0.583452 0
M  V30 1864 H 188.685 -0.568525 -0.365725 0
M  V30 1865 H 191.239 -1.98982 -0.509444 0
M  V30 1866 H 189.469 -2.40182 -3.03067 0
M  V30 1867 H 191.158 -2.80853 -2.93047 0
M  V30 1868 H 191.924 -4.67475 -1.29197 0
M  V30 1869 H 187.803 -3.98997 -2.30916 0
M  V30 1870 H 191.347 -6.95498 -0.541084 0
M  V30 1871 H 187.244 -6.2628 -1.56346 0
M  V30 1872 H 188.012 -8.1543 -0.708275 0
M  V30 1873 N 190.675 0.682077 -1.42076 0
M  V30 1874 C 191.923 1.4393 -1.41876 0
M  V30 1875 C 192.244 1.94971 -0.0335599 0
M  V30 1876 O 191.514 1.72591 0.926773 0
M  V30 1877 H 190.094 0.534085 -0.522267 0
M  V30 1878 H 192.756 0.806427 -1.77434 0
M  V30 1879 H 191.852 2.29588 -2.11414 0
M  V30 1880 N 192.153 1.28127 0.917671 0
M  V30 1881 C 193.378 1.18007 1.70555 0
M  V30 1882 C 193.803 -0.258257 1.86319 0
M  V30 1883 O 193.161 -1.1869 1.37049 0
M  V30 1884 C 193.209 1.87948 3.07746 0
M  V30 1885 O 192.313 1.18427 3.9503 0
M  V30 1886 H 191.654 0.409867 0.522403 0
M  V30 1887 H 194.184 1.69379 1.1477 0
M  V30 1888 H 194.194 1.95701 3.58001 0
M  V30 1889 H 192.869 2.92573 2.95591 0
M  V30 1890 H 191.446 1.18811 3.53466 0
M  V30 1891 N 193.631 -1.12557 1.10312 0
M  V30 1892 C 194.578 -2.18247 0.750781 0
M  V30 1893 C 195.548 -1.63853 -0.272293 0
M  V30 1894 O 196.733 -1.90195 -0.151862 0
M  V30 1895 C 193.873 -3.44591 0.187379 0
M  V30 1896 C 192.986 -4.13046 1.2656 0
M  V30 1897 C 192.121 -5.27034 0.663978 0
M  V30 1898 C 191.16 -5.87353 1.72287 0
M  V30 1899 N 190.297 -6.92757 1.1416 0
M  V30 1900 H 195.137 -2.47732 1.65628 0
M  V30 1901 H 192.674 -1.21629 0.827337 0
M  V30 1902 H 194.632 -4.16904 -0.157148 0
M  V30 1903 H 193.262 -3.15527 -0.681355 0
M  V30 1904 H 192.314 -3.38924 1.72727 0
M  V30 1905 H 193.626 -4.53947 2.06721 0
M  V30 1906 H 192.78 -6.06104 0.268824 0
M  V30 1907 H 191.519 -4.87407 -0.169082 0
M  V30 1908 H 190.524 -5.06971 2.12746 0
M  V30 1909 H 191.749 -6.29051 2.55875 0
M  V30 1910 H 189.695 -6.5517 0.329984 0
M  V30 1911 H 189.612 -7.3225 1.88007 0
M  V30 1912 H 190.88 -7.75658 0.772956 0
M  V30 1913 N 195.109 -0.891671 -1.2995 0
M  V30 1914 C 196.334 -0.527932 -2.00568 0
M  V30 1915 C 196.759 0.877969 -1.66353 0
M  V30 1916 O 196.117 1.58301 -0.883762 0
M  V30 1917 C 196.165 -0.717745 -3.53385 0
M  V30 1918 O 195.269 0.233376 -4.11739 0
M  V30 1919 H 194.61 -0.20722 -0.630837 0
M  V30 1920 H 197.14 -1.20105 -1.65638 0
M  V30 1921 H 197.15 -0.619307 -4.03272 0
M  V30 1922 H 195.825 -1.74276 -3.77625 0
M  V30 1923 H 194.402 0.0880706 -3.72796 0
M  V30 1924 N 196.587 1.43421 -0.653314 0
M  V30 1925 C 197.834 2.01812 -0.166745 0
M  V30 1926 C 198.162 1.51535 1.21931 0
M  V30 1927 O 197.417 0.698975 1.82792 0
M  V30 1928 C 197.716 3.57176 -0.126623 0
M  V30 1929 C 197.382 4.26798 -1.45444 0
M  V30 1930 C 196.044 4.45534 -1.81805 0
M  V30 1931 C 198.396 4.66225 -2.32989 0
M  V30 1932 C 195.724 5.00961 -3.05377 0
M  V30 1933 C 198.076 5.23021 -3.55853 0
M  V30 1934 C 196.74 5.39973 -3.9241 0
M  V30 1935 H 196.01 0.738484 -0.0610162 0
M  V30 1936 H 198.657 1.71896 -0.84404 0
M  V30 1937 H 196.962 3.86634 0.634123 0
M  V30 1938 H 198.659 4.00112 0.266723 0
M  V30 1939 H 195.249 4.12561 -1.16153 0
M  V30 1940 H 199.433 4.51443 -2.06187 0
M  V30 1941 H 194.689 5.12271 -3.3375 0
M  V30 1942 H 198.863 5.52518 -4.23907 0
M  V30 1943 H 196.49 5.82687 -4.88242 0
M  V30 1944 N 198.065 0.39524 1.52563 0
M  V30 1945 C 198.995 -0.428384 2.29537 0
M  V30 1946 C 199.976 -1.05831 1.33169 0
M  V30 1947 O 201.161 -1.06995 1.62067 0
M  V30 1948 C 198.291 -1.55274 3.10656 0
M  V30 1949 C 197.245 -1.04855 4.14957 0
M  V30 1950 C 196.571 -2.26543 4.84337 0
M  V30 1951 C 197.871 -0.112324 5.22179 0
M  V30 1952 H 199.565 0.213867 2.98635 0
M  V30 1953 H 197.111 0.104298 1.43622 0
M  V30 1954 H 199.064 -2.1358 3.63265 0
M  V30 1955 H 197.788 -2.22266 2.39302 0
M  V30 1956 H 196.447 -0.487985 3.63338 0
M  V30 1957 H 196.095 -2.92059 4.09525 0
M  V30 1958 H 195.795 -1.93466 5.54837 0
M  V30 1959 H 197.319 -2.85481 5.39753 0
M  V30 1960 H 198.733 -0.603752 5.70112 0
M  V30 1961 H 197.13 0.128968 5.99961 0
M  V30 1962 H 198.2 0.837052 4.77621 0
M  V30 1963 N 199.544 -1.57102 0.125237 0
M  V30 1964 C 200.769 -2.0019 -0.542101 0
M  V30 1965 C 201.194 -1.00449 -1.59034 0
M  V30 1966 O 200.552 0.0229423 -1.81285 0
M  V30 1967 C 200.6 -3.42129 -1.13929 0
M  V30 1968 O 199.704 -3.45307 -2.2547 0
M  V30 1969 H 199.045 -0.650171 -0.134812 0
M  V30 1970 H 201.575 -2.03461 0.215553 0
M  V30 1971 H 201.585 -3.80471 -1.4733 0
M  V30 1972 H 200.26 -4.14237 -0.371531 0
M  V30 1973 H 198.837 -3.1879 -1.93462 0
M  V30 1974 N 201.022 0.148545 -1.56898 0
M  V30 1975 C 201.954 1.20852 -1.9475 0
M  V30 1976 C 202.967 1.39265 -0.843152 0
M  V30 1977 O 204.156 1.38864 -1.12156 0
M  V30 1978 C 201.256 2.57362 -2.20495 0
M  V30 1979 C 200.429 2.59947 -3.51776 0
M  V30 1980 C 199.488 3.77984 -3.6608 0
M  V30 1981 O 198.514 3.62929 -4.38487 0
M  V30 1982 N 199.716 4.95375 -3.02629 0
M  V30 1983 H 202.481 0.886804 -2.86279 0
M  V30 1984 H 200.042 0.338121 -1.5833 0
M  V30 1985 H 202.034 3.34833 -2.27307 0
M  V30 1986 H 200.604 2.81832 -1.35238 0
M  V30 1987 H 199.824 1.68403 -3.56419 0
M  V30 1988 H 201.112 2.58704 -4.38121 0
M  V30 1989 H 200.51 5.10509 -2.43715 0
M  V30 1990 H 199.067 5.70627 -3.15004 0
M  V30 1991 N 202.5 1.5196 0.417844 0
M  V30 1992 C 203.728 1.69426 1.18753 0
M  V30 1993 C 204.143 0.399955 1.84515 0
M  V30 1994 O 203.5 -0.623288 1.71527 0
M  V30 1995 C 203.551 2.82375 2.25714 0
M  V30 1996 O 203.272 4.06793 1.62638 0
M  V30 1997 C 204.773 3.11277 3.15628 0
M  V30 1998 H 201.993 0.568031 0.357186 0
M  V30 1999 H 204.537 1.98475 0.49273 0
M  V30 2000 H 202.692 2.5587 2.90877 0
M  V30 2001 H 203.106 4.69667 2.3348 0
M  V30 2002 H 204.58 3.93843 3.86771 0
M  V30 2003 H 205.057 2.24473 3.77503 0
M  V30 2004 H 205.663 3.39515 2.56144 0
M  V30 2005 N 203.978 -0.674533 1.42435 0
M  V30 2006 C 204.888 -1.81751 1.48337 0
M  V30 2007 C 205.904 -1.69975 0.372099 0
M  V30 2008 O 207.08 -1.91521 0.62304 0
M  V30 2009 C 204.145 -3.17895 1.38361 0
M  V30 2010 C 203.206 -3.41625 2.59982 0
M  V30 2011 C 202.439 -4.71274 2.50473 0
M  V30 2012 O 202.662 -5.49197 1.54075 0
M  V30 2013 O 201.596 -4.96254 3.4061 0
M  V30 2014 H 205.422 -1.79728 2.44809 0
M  V30 2015 H 203.007 -0.830312 1.24202 0
M  V30 2016 H 204.889 -3.99136 1.35161 0
M  V30 2017 H 203.564 -3.20555 0.450144 0
M  V30 2018 H 202.471 -2.60231 2.68757 0
M  V30 2019 H 203.804 -3.43796 3.52229 0
M  V30 2020 N 205.456 -1.28612 -0.910864 0
M  V30 2021 C 206.404 -1.1265 -2.03501 0
M  V30 2022 C 207.398 -0.0450054 -1.6934 0
M  V30 2023 O 208.604 -0.203988 -1.7884 0
M  V30 2024 H 204.979 -0.347639 -0.666822 0
M  V30 2025 H 206.95 -2.07849 -2.14106 0
M  V30 2026 C 205.699 -0.808143 -3.38178 0
M  V30 2027 H 205.022 -1.63231 -3.6496 0
M  V30 2028 H 206.462 -0.736426 -4.17556 0
M  V30 2029 C 204.921 0.488226 -3.33344 0
M  V30 2030 O 205.451 1.51766 -3.71927 0
M  V30 2031 N 203.657 0.490009 -2.86439 0
M  V30 2032 H 203.204 -0.348161 -2.55236 0
M  V30 2033 H 203.162 1.35741 -2.83587 0
M  V30 2034 N 206.934 1.1197 -1.10907 0
M  V30 2035 C 208.182 1.83225 -0.852819 0
M  V30 2036 C 208.503 1.84769 0.623341 0
M  V30 2037 O 207.773 1.3143 1.45269 0
M  V30 2038 H 206.353 0.67849 -0.312507 0
M  V30 2039 H 209.015 1.3556 -1.40033 0
M  V30 2040 H 208.111 2.87265 -1.22005 0
M  V30 2041 N 208.412 0.89855 1.29475 0
M  V30 2042 C 209.661 0.519863 1.94885 0
M  V30 2043 C 209.974 -0.9383 1.71625 0
M  V30 2044 O 211.18 -1.42445 2.31131 0
M  V30 2045 C 209.636 0.878836 3.49005 0
M  V30 2046 C 209.244 2.35569 3.81066 0
M  V30 2047 C 210.988 0.570004 4.20656 0
M  V30 2048 C 208.895 2.65558 5.28425 0
M  V30 2049 H 207.825 0.190692 0.729488 0
M  V30 2050 H 210.476 1.09539 1.47219 0
M  V30 2051 H 208.858 0.232253 3.95318 0
M  V30 2052 H 210.032 3.04773 3.45616 0
M  V30 2053 H 208.347 2.63343 3.22552 0
M  V30 2054 H 210.944 0.770925 5.29113 0
M  V30 2055 H 211.287 -0.491404 4.1339 0
M  V30 2056 H 211.82 1.17438 3.8007 0
M  V30 2057 H 208.559 3.70493 5.40754 0
M  V30 2058 H 208.079 2.00977 5.65127 0
M  V30 2059 H 209.758 2.51765 5.96006 0
M  V30 2060 N 209.89 -1.43072 0.660911 0
M  V30 2061 C 210.822 -2.29108 -0.0647641 0
M  V30 2062 C 211.835 -1.42928 -0.779448 0
M  V30 2063 O 213.024 -1.66788 -0.635921 0
M  V30 2064 C 210.124 -3.20032 -1.11503 0
M  V30 2065 C 209.297 -4.34792 -0.476955 0
M  V30 2066 C 208.356 -5.06534 -1.42513 0
M  V30 2067 O 207.382 -5.61538 -0.930771 0
M  V30 2068 N 208.584 -5.1075 -2.75889 0
M  V30 2069 H 211.349 -2.92029 0.673731 0
M  V30 2070 H 208.91 -1.53846 0.50427 0
M  V30 2071 H 210.902 -3.64892 -1.75032 0
M  V30 2072 H 209.472 -2.58658 -1.75541 0
M  V30 2073 H 208.692 -3.92752 0.337572 0
M  V30 2074 H 209.98 -5.0879 -0.0318525 0
M  V30 2075 H 209.378 -4.67447 -3.18606 0
M  V30 2076 H 207.935 -5.59302 -3.347 0
M  V30 2077 N 211.368 -0.403325 -1.52352 0
M  V30 2078 C 212.596 0.174012 -2.06167 0
M  V30 2079 C 213.011 1.39347 -1.27388 0
M  V30 2080 O 212.368 1.79597 -0.324201 0
M  V30 2081 C 212.419 0.530223 -3.5759 0
M  V30 2082 O 212.14 -0.640806 -4.33388 0
M  V30 2083 C 213.641 1.16192 -4.27802 0
M  V30 2084 H 210.861 0.0229464 -0.670608 0
M  V30 2085 H 213.405 -0.572604 -1.9632 0
M  V30 2086 H 211.56 1.22673 -3.67464 0
M  V30 2087 H 211.974 -0.344851 -5.23365 0
M  V30 2088 H 213.448 1.36141 -5.34948 0
M  V30 2089 H 213.925 2.13335 -3.83907 0
M  V30 2090 H 214.531 0.505775 -4.22282 0
M  V30 2091 N 212.846 1.57033 -0.133567 0
M  V30 2092 C 214.071 2.00475 0.531477 0
M  V30 2093 C 214.496 1.01291 1.58499 0
M  V30 2094 O 213.854 -0.0133279 1.81295 0
M  V30 2095 C 213.902 3.42729 1.12113 0
M  V30 2096 O 213.006 3.46498 2.23636 0
M  V30 2097 H 212.347 0.650876 0.131362 0
M  V30 2098 H 214.877 2.03344 -0.22634 0
M  V30 2099 H 214.887 3.81246 1.4531 0
M  V30 2100 H 213.562 4.14428 0.349557 0
M  V30 2101 H 212.139 3.19811 1.91769 0
M  V30 2102 N 214.325 -0.140222 1.56975 0
M  V30 2103 C 215.572 -0.851687 1.83719 0
M  V30 2104 C 215.9 -1.80862 0.715485 0
M  V30 2105 O 215.155 -1.93464 -0.294956 0
M  V30 2106 C 215.454 -1.65386 3.16832 0
M  V30 2107 C 215.12 -0.843112 4.42947 0
M  V30 2108 C 213.782 -0.619464 4.77196 0
M  V30 2109 C 216.134 -0.276582 5.20466 0
M  V30 2110 C 213.462 0.181312 5.8642 0
M  V30 2111 C 215.814 0.51127 6.30531 0
M  V30 2112 C 214.478 0.745432 6.63325 0
M  V30 2113 H 213.748 -0.311654 0.672274 0
M  V30 2114 H 216.395 -0.115006 1.91154 0
M  V30 2115 H 214.7 -2.46084 3.04877 0
M  V30 2116 H 216.397 -2.20793 3.34741 0
M  V30 2117 H 212.987 -1.0275 4.16101 0
M  V30 2118 H 217.171 -0.436632 4.94376 0
M  V30 2119 H 212.427 0.372165 6.10266 0
M  V30 2120 H 216.601 0.957354 6.89788 0
M  V30 2121 H 214.228 1.36778 7.47794 0
M  V30 2122 N 215.803 -1.52179 -0.40978 0
M  V30 2123 C 217.08 -1.56769 -1.16974 0
M  V30 2124 C 217.46 -0.348322 -2.08206 0
M  V30 2125 O 216.808 0.664862 -2.18613 0
M  V30 2126 C 217.018 -2.89603 -1.9476 0
M  V30 2127 C 218.366 -3.42579 -2.50849 0
M  V30 2128 O 219.39 -2.91338 -2.04941 0
M  V30 2129 O 218.249 -4.32054 -3.34652 0
M  V30 2130 H 215.343 -0.631439 -0.534054 0
M  V30 2131 H 217.889 -1.64507 -0.416613 0
M  V30 2132 H 216.661 -3.698 -1.27921 0
M  V30 2133 H 216.284 -2.85155 -2.77079 0
M  V30 2134 N 217.281 0.66697 -1.42791 0
M  V30 2135 C 218.229 1.80157 -1.47127 0
M  V30 2136 C 219.223 1.65825 -0.346199 0
M  V30 2137 O 220.429 1.72338 -0.519572 0
M  V30 2138 H 216.804 0.594158 -0.460956 0
M  V30 2139 H 218.775 1.73619 -2.42692 0
M  V30 2140 C 217.524 3.18351 -1.39813 0
M  V30 2141 H 216.847 3.3001 -2.25684 0
M  V30 2142 H 218.287 3.97736 -1.46908 0
M  V30 2143 C 216.746 3.36707 -0.11391 0
M  V30 2144 O 217.276 3.93027 0.830241 0
M  V30 2145 N 215.482 2.90586 -0.0285295 0
M  V30 2146 H 215.029 2.4494 -0.79764 0
M  V30 2147 H 214.987 3.03245 0.830063 0
M  V30 2148 N 218.759 1.29093 0.90403 0
M  V30 2149 C 219.984 1.19809 1.69294 0
M  V30 2150 C 220.409 -0.238481 1.86582 0
M  V30 2151 O 219.767 -1.1723 1.383 0
M  V30 2152 C 219.815 1.91202 3.05736 0
M  V30 2153 O 218.919 1.22611 3.93752 0
M  V30 2154 H 218.26 0.415385 0.518027 0
M  V30 2155 H 220.79 1.70586 1.12967 0
M  V30 2156 H 220.8 1.99487 3.55906 0
M  V30 2157 H 219.475 2.95692 2.92471 0
M  V30 2158 H 218.052 1.22554 3.52186 0
M  V30 2159 N 220.237 -1.11381 1.11499 0
M  V30 2160 C 221.462 -1.87475 0.887019 0
M  V30 2161 C 221.887 -1.79639 -0.557796 0
M  V30 2162 O 221.245 -1.15924 -1.39396 0
M  V30 2163 C 221.293 -3.34213 1.35403 0
M  V30 2164 O 220.397 -4.0903 0.526146 0
M  V30 2165 H 219.738 -0.582099 0.319463 0
M  V30 2166 H 222.268 -1.40785 1.48461 0
M  V30 2167 H 222.278 -3.8506 1.34881 0
M  V30 2168 H 220.953 -3.39232 2.40612 0
M  V30 2169 H 219.53 -3.68082 0.597522 0
M  V30 2170 N 221.715 -0.905404 -1.28997 0
M  V30 2171 C 223.131 -0.60233 -1.47798 0
M  V30 2172 C 223.331 0.854645 -1.82478 0
M  V30 2173 O 222.387 1.63439 -1.92468 0
M  V30 2174 C 223.7 -1.53306 -2.58685 0
M  V30 2175 C 225.248 -1.53887 -2.72558 0
M  V30 2176 C 225.723 -2.45602 -3.86579 0
M  V30 2177 N 227.214 -2.43681 -3.93921 0
M  V30 2178 C 227.949 -3.11347 -4.81509 0
M  V30 2179 N 227.445 -3.88313 -5.73746 0
M  V30 2180 N 229.238 -3.00476 -4.75048 0
M  V30 2181 H 221.389 -1.84765 -1.04764 0
M  V30 2182 H 223.652 -0.792025 -0.520961 0
M  V30 2183 H 223.358 -2.57141 -2.39941 0
M  V30 2184 H 223.232 -1.25787 -3.55609 0
M  V30 2185 H 225.619 -0.507941 -2.90696 0
M  V30 2186 H 225.7 -1.85447 -1.76191 0
M  V30 2187 H 225.344 -3.48792 -3.69197 0
M  V30 2188 H 225.274 -2.11349 -4.82327 0
M  V30 2189 H 227.765 -1.87767 -3.27951 0
M  V30 2190 H 228.078 -4.36985 -6.37389 0
M  V30 2191 H 226.423 -3.92419 -5.73614 0
M  V30 2192 H 229.614 -2.39858 -4.01977 0
M  V30 2193 H 229.787 -3.53485 -5.43095 0
M  V30 2194 N 223.193 1.4272 -0.668489 0
M  V30 2195 C 224.123 2.335 -0.000100175 0
M  V30 2196 C 225.104 1.50328 0.795964 0
M  V30 2197 O 226.289 1.78949 0.754385 0
M  V30 2198 C 223.419 3.33874 0.956302 0
M  V30 2199 C 222.373 4.27152 0.269278 0
M  V30 2200 C 221.699 5.17684 1.33818 0
M  V30 2201 C 222.999 5.15373 -0.847805 0
M  V30 2202 H 224.693 2.89639 -0.758244 0
M  V30 2203 H 222.239 1.39269 -0.366079 0
M  V30 2204 H 224.192 3.9629 1.43292 0
M  V30 2205 H 222.916 2.76025 1.74579 0
M  V30 2206 H 221.575 3.66123 -0.187042 0
M  V30 2207 H 221.223 4.56165 2.1195 0
M  V30 2208 H 220.923 5.80918 0.883659 0
M  V30 2209 H 222.447 5.82974 1.81586 0
M  V30 2210 H 223.861 5.7151 -0.452681 0
M  V30 2211 H 222.258 5.87407 -1.22773 0
M  V30 2212 H 223.328 4.5415 -1.69929 0
M  V30 2213 N 224.671 0.411399 1.52136 0
M  V30 2214 C 225.92 -0.165009 2.01024 0
M  V30 2215 C 226.233 -1.4603 1.30133 0
M  V30 2216 O 227.439 -2.1181 1.69849 0
M  V30 2217 C 225.895 -0.344618 3.58246 0
M  V30 2218 C 225.503 0.938716 4.38055 0
M  V30 2219 C 227.247 -0.876195 4.15359 0
M  V30 2220 C 225.154 0.726172 5.86925 0
M  V30 2221 H 224.084 -0.0654407 0.751155 0
M  V30 2222 H 226.735 0.537192 1.75461 0
M  V30 2223 H 225.117 -1.10921 3.80148 0
M  V30 2224 H 226.291 1.70963 4.27912 0
M  V30 2225 H 224.606 1.39688 3.92271 0
M  V30 2226 H 227.203 -1.05128 5.24263 0
M  V30 2227 H 227.546 -1.85152 3.7286 0
M  V30 2228 H 228.079 -0.170607 3.97434 0
M  V30 2229 H 224.818 1.67312 6.33788 0
M  V30 2230 H 224.338 -0.00540283 5.998 0
M  V30 2231 H 226.017 0.369231 6.45946 0
M  V30 2232 N 226.149 -1.5696 0.141893 0
M  V30 2233 C 227.395 -1.9625 -0.511248 0
M  V30 2234 C 227.728 -1.02654 -1.64851 0
M  V30 2235 O 227.003 -0.0679676 -1.94381 0
M  V30 2236 C 227.286 -3.45285 -1.02227 0
M  V30 2237 C 227.139 -4.49658 0.113138 0
M  V30 2238 C 228.458 -3.96698 -1.90574 0
M  V30 2239 H 225.577 -0.713567 -0.184367 0
M  V30 2240 H 228.219 -1.88698 0.222087 0
M  V30 2241 H 226.369 -3.51852 -1.64719 0
M  V30 2242 H 228.041 -4.55174 0.749302 0
M  V30 2243 H 226.284 -4.26857 0.773026 0
M  V30 2244 H 226.955 -5.51258 -0.286053 0
M  V30 2245 H 229.431 -3.92578 -1.37918 0
M  V30 2246 H 228.307 -5.01453 -2.2324 0
M  V30 2247 H 228.568 -3.3875 -2.84079 0
M  V30 2248 N 227.627 0.131896 -1.57047 0
M  V30 2249 C 228.557 1.16384 -2.02428 0
M  V30 2250 C 229.538 1.43936 -0.90644 0
M  V30 2251 O 230.723 1.54599 -1.17528 0
M  V30 2252 C 227.853 2.49328 -2.4177 0
M  V30 2253 C 226.807 2.36266 -3.56879 0
M  V30 2254 C 226.133 3.74057 -3.8208 0
M  V30 2255 C 227.433 1.834 -4.89042 0
M  V30 2256 H 229.127 0.786433 -2.88887 0
M  V30 2257 H 226.673 0.376855 -1.38981 0
M  V30 2258 H 228.626 3.21759 -2.7212 0
M  V30 2259 H 227.35 2.88934 -1.52266 0
M  V30 2260 H 226.009 1.66286 -3.26718 0
M  V30 2261 H 225.657 4.11125 -2.89803 0
M  V30 2262 H 225.357 3.66174 -4.59554 0
M  V30 2263 H 226.881 4.48012 -4.1487 0
M  V30 2264 H 228.295 2.45636 -5.18011 0
M  V30 2265 H 226.692 1.8637 -5.70426 0
M  V30 2266 H 227.762 0.790662 -4.7841 0
M  V30 2267 N 229.106 1.52395 0.401703 0
M  V30 2268 C 230.522 1.41363 0.740864 0
M  V30 2269 C 230.722 0.523982 1.94568 0
M  V30 2270 O 229.778 -0.00741204 2.52499 0
M  V30 2271 C 231.091 2.84011 0.987847 0
M  V30 2272 C 232.639 2.93404 1.09011 0
M  V30 2273 C 233.114 4.37036 1.3698 0
M  V30 2274 N 234.605 4.40304 1.43829 0
M  V30 2275 C 235.34 5.48508 1.67112 0
M  V30 2276 N 234.836 6.66819 1.87949 0
M  V30 2277 N 236.629 5.36034 1.69187 0
M  V30 2278 H 228.78 2.08765 -0.391262 0
M  V30 2279 H 231.043 0.941265 -0.112798 0
M  V30 2280 H 230.749 3.51265 0.174835 0
M  V30 2281 H 230.623 3.25502 1.906 0
M  V30 2282 H 233.01 2.26325 1.8937 0
M  V30 2283 H 233.091 2.55359 0.15015 0
M  V30 2284 H 232.735 5.04676 0.571353 0
M  V30 2285 H 232.665 4.72623 2.3224 0
M  V30 2286 H 235.156 3.55024 1.29486 0
M  V30 2287 H 235.469 7.45063 2.05185 0
M  V30 2288 H 233.814 6.6987 1.85199 0
M  V30 2289 H 237.005 4.42579 1.52451 0
M  V30 2290 H 237.178 6.20434 1.86993 0
M  V30 2291 N 230.584 -0.659388 1.43143 0
M  V30 2292 C 231.547 -1.75432 1.47501 0
M  V30 2293 C 232.547 -1.56707 0.360512 0
M  V30 2294 O 233.737 -1.62717 0.622002 0
M  V30 2295 C 230.869 -3.14239 1.32162 0
M  V30 2296 H 232.062 -1.7295 2.45006 0
M  V30 2297 H 229.615 -0.870469 1.29817 0
M  V30 2298 H 230.35 -3.22336 0.356401 0
M  V30 2299 H 230.135 -3.29235 2.12948 0
M  V30 2300 H 231.625 -3.94094 1.3813 0
M  V30 2301 N 232.062 -1.29571 -0.897171 0
M  V30 2302 C 233.473 -1.15964 -1.46319 0
M  V30 2303 C 233.824 0.244267 -1.94674 0
M  V30 2304 O 232.949 1.13998 -1.83939 0
M  V30 2305 C 233.544 -2.09906 -2.65942 0
M  V30 2306 C 232.103 -2.00314 -3.18671 0
M  V30 2307 C 231.25 -2.00687 -1.91363 0
M  V30 2308 H 234.201 -1.42019 -0.708268 0
M  V30 2309 H 234.222 -1.67276 -3.41759 0
M  V30 2310 H 233.734 -3.12075 -2.30718 0
M  V30 2311 H 231.835 -1.01242 -3.58582 0
M  V30 2312 H 231.948 -2.88102 -3.82798 0
M  V30 2313 H 230.312 -1.45319 -2.09175 0
M  V30 2314 H 231.095 -3.04566 -1.58413 0
M  V30 2315 N 233.54 1.10788 -1.12088 0
M  V30 2316 C 234.789 1.82036 -0.868659 0
M  V30 2317 C 235.102 1.85929 0.607426 0
M  V30 2318 O 236.308 2.53346 0.97613 0
M  V30 2319 C 234.764 3.26951 -1.50435 0
M  V30 2320 C 234.372 3.31367 -3.01496 0
M  V30 2321 C 236.116 4.03053 -1.33225 0
M  V30 2322 C 234.023 4.7072 -3.58017 0
M  V30 2323 H 232.953 0.682108 -0.321318 0
M  V30 2324 H 235.604 1.24618 -1.34694 0
M  V30 2325 H 233.986 3.84343 -0.953735 0
M  V30 2326 H 235.16 2.83819 -3.6302 0
M  V30 2327 H 233.475 2.6875 -3.18061 0
M  V30 2328 H 236.072 5.05981 -1.72878 0
M  V30 2329 H 236.415 4.15387 -0.275529 0
M  V30 2330 H 236.948 3.52066 -1.85188 0
M  V30 2331 H 233.687 4.63585 -4.63432 0
M  V30 2332 H 233.207 5.1865 -3.01268 0
M  V30 2333 H 234.886 5.39685 -3.56859 0
M  V30 2334 N 235.018 0.912232 1.28515 0
M  V30 2335 C 236.266 0.543523 1.94654 0
M  V30 2336 C 236.587 -0.9155 1.72173 0
M  V30 2337 O 235.857 -1.64708 1.06058 0
M  V30 2338 H 234.437 0.198017 0.720277 0
M  V30 2339 H 237.099 1.16126 1.56527 0
M  V30 2340 H 236.195 0.736684 3.03281 0
M  V30 2341 N 236.496 -1.42363 0.676048 0
M  V30 2342 C 237.743 -2.01522 0.19883 0
M  V30 2343 C 238.071 -1.53456 -1.19505 0
M  V30 2344 O 237.326 -0.727967 -1.81657 0
M  V30 2345 C 237.625 -3.56929 0.183431 0
M  V30 2346 C 237.291 -4.24431 1.52215 0
M  V30 2347 C 235.953 -4.42585 1.8887 0
M  V30 2348 C 238.305 -4.62459 2.40377 0
M  V30 2349 C 235.633 -4.96039 3.13309 0
M  V30 2350 C 237.985 -5.17294 3.64129 0
M  V30 2351 C 236.649 -5.33661 4.00951 0
M  V30 2352 H 235.919 -0.737419 0.0727571 0
M  V30 2353 H 238.566 -1.70531 0.871281 0
M  V30 2354 H 236.871 -3.87594 -0.572532 0
M  V30 2355 H 238.568 -4.00486 -0.203035 0
M  V30 2356 H 235.158 -4.10661 1.22701 0
M  V30 2357 H 239.342 -4.48105 2.13343 0
M  V30 2358 H 234.598 -5.06896 3.41857 0
M  V30 2359 H 238.772 -5.45704 4.32644 0
M  V30 2360 H 236.399 -5.74845 4.9745 0
M  V30 2361 N 237.974 -0.419461 -1.51915 0
M  V30 2362 C 239.199 0.154572 -2.06823 0
M  V30 2363 C 239.624 1.3722 -1.28656 0
M  V30 2364 O 238.982 1.78461 -0.319583 0
M  V30 2365 C 239.03 0.473172 -3.57482 0
M  V30 2366 O 238.134 1.56255 -3.81652 0
M  V30 2367 H 237.475 0.0096924 -0.663929 0
M  V30 2368 H 240.005 -0.595642 -1.95738 0
M  V30 2369 H 240.015 0.728825 -4.01438 0
M  V30 2370 H 238.69 -0.416873 -4.13805 0
M  V30 2371 H 237.267 1.29825 -3.49571 0
M  V30 2372 N 239.452 1.56882 -0.150215 0
M  V30 2373 C 240.682 2.00302 0.506213 0
M  V30 2374 C 241.09 1.02934 1.58749 0
M  V30 2375 O 240.433 0.0188384 1.8369 0
M  V30 2376 C 240.495 3.40156 1.16337 0
M  V30 2377 C 240.159 4.56439 0.226311 0
M  V30 2378 C 241.156 5.17012 -0.547265 0
M  V30 2379 C 238.841 5.02136 0.128279 0
M  V30 2380 C 240.835 6.21693 -1.40629 0
M  V30 2381 C 238.522 6.06672 -0.734345 0
M  V30 2382 C 239.52 6.6632 -1.50023 0
M  V30 2383 O 239.208 7.68831 -2.34848 0
M  V30 2384 H 238.94 0.662182 0.135984 0
M  V30 2385 H 241.494 2.03961 -0.242746 0
M  V30 2386 H 239.724 3.33346 1.96004 0
M  V30 2387 H 241.413 3.67663 1.71985 0
M  V30 2388 H 242.179 4.82603 -0.48158 0
M  V30 2389 H 238.058 4.55435 0.714157 0
M  V30 2390 H 241.602 6.68179 -2.00455 0
M  V30 2391 H 237.499 6.40507 -0.801309 0
M  V30 2392 H 238.267 7.86065 -2.28131 0
M  V30 2393 N 240.93 -0.123565 1.57115 0
M  V30 2394 C 241.862 -1.17739 1.96648 0
M  V30 2395 C 242.875 -1.37906 0.865201 0
M  V30 2396 O 244.064 -1.37062 1.14351 0
M  V30 2397 C 241.164 -2.53821 2.24562 0
M  V30 2398 C 240.337 -2.54317 3.55867 0
M  V30 2399 C 239.396 -3.72112 3.72047 0
M  V30 2400 O 238.422 -3.55907 4.44206 0
M  V30 2401 N 239.624 -4.90498 3.10471 0
M  V30 2402 H 242.389 -0.841147 2.87654 0
M  V30 2403 H 239.95 -0.31289 1.58848 0
M  V30 2404 H 241.942 -3.31175 2.32606 0
M  V30 2405 H 240.512 -2.79645 1.39705 0
M  V30 2406 H 239.732 -1.62711 3.59053 0
M  V30 2407 H 241.02 -2.51701 4.42181 0
M  V30 2408 H 240.418 -5.06567 2.51806 0
M  V30 2409 H 238.975 -5.65544 3.24043 0
M  V30 2410 N 242.408 -1.52605 -0.393616 0
M  V30 2411 C 243.371 -1.76415 -1.46323 0
M  V30 2412 C 244.371 -0.634126 -1.47768 0
M  V30 2413 O 245.561 -0.902142 -1.4902 0
M  V30 2414 C 242.693 -1.8607 -2.85641 0
M  V30 2415 H 243.886 -2.71916 -1.26498 0
M  V30 2416 H 241.439 -1.43257 -0.625073 0
M  V30 2417 H 242.174 -0.925378 -3.10817 0
M  V30 2418 H 241.959 -2.68235 -2.85993 0
M  V30 2419 H 243.449 -2.06179 -3.63153 0
M  V30 2420 N 243.887 0.651787 -1.4349 0
M  V30 2421 C 245.115 1.43937 -1.48626 0
M  V30 2422 C 245.53 1.8851 -0.104587 0
M  V30 2423 O 244.887 1.5958 0.885464 0
M  V30 2424 C 244.938 2.6734 -2.43334 0
M  V30 2425 O 244.659 2.24631 -3.76128 0
M  V30 2426 C 246.16 3.60683 -2.57726 0
M  V30 2427 H 243.38 0.44213 -0.504739 0
M  V30 2428 H 245.924 0.798944 -1.88248 0
M  V30 2429 H 244.079 3.2752 -2.06904 0
M  V30 2430 H 244.493 3.04485 -4.2707 0
M  V30 2431 H 245.967 4.43933 -3.28067 0
M  V30 2432 H 246.444 4.08126 -1.62265 0
M  V30 2433 H 247.05 3.06384 -2.94973 0
M  V30 2434 N 245.365 1.30045 0.890287 0
M  V30 2435 C 246.59 1.21598 1.68014 0
M  V30 2436 C 247.015 -0.218678 1.86825 0
M  V30 2437 O 246.373 -1.15756 1.39536 0
M  V30 2438 C 246.421 1.94434 3.03691 0
M  V30 2439 O 245.525 1.2678 3.92429 0
M  V30 2440 H 244.866 0.420856 0.513592 0
M  V30 2441 H 247.396 1.71775 1.11151 0
M  V30 2442 H 247.406 2.03251 3.5377 0
M  V30 2443 H 246.081 2.98777 2.89318 0
M  V30 2444 H 244.658 1.26282 3.50866 0
M  V30 2445 N 246.843 -1.10192 1.12674 0
M  V30 2446 C 247.79 -2.16606 0.796906 0
M  V30 2447 C 248.76 -1.64394 -0.237476 0
M  V30 2448 O 249.945 -1.90474 -0.111484 0
M  V30 2449 C 247.085 -3.44116 0.26043 0
M  V30 2450 C 246.198 -4.10268 1.35293 0
M  V30 2451 C 245.333 -5.25507 0.775621 0
M  V30 2452 C 244.372 -5.83567 1.84706 0
M  V30 2453 N 243.509 -6.90179 1.28829 0
M  V30 2454 H 248.349 -2.44163 1.70846 0
M  V30 2455 H 245.886 -1.19846 0.85295 0
M  V30 2456 H 247.844 -4.17143 -0.0686814 0
M  V30 2457 H 246.474 -3.16901 -0.614274 0
M  V30 2458 H 245.526 -3.35184 1.79877 0
M  V30 2459 H 246.838 -4.4946 2.16303 0
M  V30 2460 H 245.992 -6.05398 0.397327 0
M  V30 2461 H 244.731 -4.87656 -0.0656581 0
M  V30 2462 H 243.736 -5.02344 2.23452 0
M  V30 2463 H 244.961 -6.23482 2.69161 0
M  V30 2464 H 242.907 -6.54322 0.468881 0
M  V30 2465 H 242.824 -7.28097 2.03497 0
M  V30 2466 H 244.092 -7.73844 0.937311 0
M  V30 2467 N 248.321 -0.919034 -1.28029 0
M  V30 2468 C 249.251 -0.428581 -2.29533 0
M  V30 2469 C 250.232 0.50659 -1.62381 0
M  V30 2470 O 251.417 0.413195 -1.89753 0
M  V30 2471 C 248.547 0.327388 -3.45753 0
M  V30 2472 C 247.501 -0.519137 -4.2484 0
M  V30 2473 C 246.827 0.365486 -5.33449 0
M  V30 2474 C 248.127 -1.77914 -4.91064 0
M  V30 2475 H 249.821 -1.27687 -2.70807 0
M  V30 2476 H 247.367 -0.615428 -1.30186 0
M  V30 2477 H 249.32 0.681378 -4.15855 0
M  V30 2478 H 248.044 1.20963 -3.03374 0
M  V30 2479 H 246.703 -0.855717 -3.56473 0
M  V30 2480 H 246.351 1.24642 -4.87312 0
M  V30 2481 H 246.051 -0.197356 -5.87268 0
M  V30 2482 H 247.575 0.715241 -6.06396 0
M  V30 2483 H 248.989 -1.49374 -5.53498 0
M  V30 2484 H 247.386 -2.2848 -5.54903 0
M  V30 2485 H 248.456 -2.50382 -4.15255 0
M  V30 2486 N 249.799 1.42003 -0.683588 0
M  V30 2487 C 251.027 2.05746 -0.218182 0
M  V30 2488 C 251.442 1.51396 1.12804 0
M  V30 2489 O 250.799 0.657303 1.70252 0
M  V30 2490 C 250.85 3.61171 -0.154131 0
M  V30 2491 O 250.571 4.13508 -1.44716 0
M  V30 2492 C 252.072 4.42042 0.333713 0
M  V30 2493 H 249.292 0.662888 -0.10402 0
M  V30 2494 H 251.836 1.81987 -0.9328 0
M  V30 2495 H 249.991 3.84012 0.511231 0
M  V30 2496 H 250.405 5.07453 -1.32632 0
M  V30 2497 H 251.879 5.51028 0.327423 0
M  V30 2498 H 252.356 4.17269 1.37053 0
M  V30 2499 H 252.962 4.24239 -0.300222 0
M  V30 2500 N 251.277 0.427512 1.51691 0
M  V30 2501 C 252.524 -0.142229 2.02 0
M  V30 2502 C 252.852 -1.43566 1.31221 0
M  V30 2503 O 252.107 -1.91298 0.412744 0
M  V30 2504 C 252.406 -0.418249 3.54944 0
M  V30 2505 C 252.072 0.788187 4.43958 0
M  V30 2506 C 250.734 1.11906 4.68007 0
M  V30 2507 C 253.086 1.59347 4.96244 0
M  V30 2508 C 250.414 2.25608 5.41588 0
M  V30 2509 C 252.766 2.7214 5.71072 0
M  V30 2510 C 251.43 3.05692 5.93387 0
M  V30 2511 H 250.7 -0.0520451 0.73917 0
M  V30 2512 H 253.347 0.572697 1.82736 0
M  V30 2513 H 251.652 -1.21496 3.72486 0
M  V30 2514 H 253.349 -0.872339 3.91397 0
M  V30 2515 H 249.939 0.520344 4.2543 0
M  V30 2516 H 254.123 1.35106 4.77556 0
M  V30 2517 H 249.379 2.51929 5.57083 0
M  V30 2518 H 253.553 3.34914 6.10578 0
M  V30 2519 H 251.18 3.9391 6.50184 0
M  V30 2520 N 252.755 -1.56801 0.158532 0
M  V30 2521 C 254.003 -1.96102 -0.488712 0
M  V30 2522 C 254.324 -1.04498 -1.64636 0
M  V30 2523 O 253.594 -0.108783 -1.95598 0
M  V30 2524 H 252.174 -0.724102 -0.183535 0
M  V30 2525 H 254.836 -1.93457 0.236728 0
M  V30 2526 H 253.932 -3.00097 -0.857219 0
M  V30 2527 N 254.233 0.115231 -1.57178 0
M  V30 2528 C 255.196 1.12526 -1.99676 0
M  V30 2529 C 256.196 1.34095 -0.88742 0
M  V30 2530 O 257.386 1.30548 -1.15337 0
M  V30 2531 C 254.518 2.4789 -2.34015 0
M  V30 2532 H 255.711 0.759912 -2.90113 0
M  V30 2533 H 253.264 0.359648 -1.52106 0
M  V30 2534 H 253.999 2.89339 -1.4647 0
M  V30 2535 H 253.784 2.33588 -3.14927 0
M  V30 2536 H 255.274 3.20575 -2.67622 0
M  V30 2537 N 255.711 1.52812 0.385517 0
M  V30 2538 C 256.936 1.72207 1.15583 0
M  V30 2539 C 257.361 0.441034 1.82857 0
M  V30 2540 O 256.719 -0.603465 1.70962 0
M  V30 2541 C 256.767 2.87476 2.17692 0
M  V30 2542 O 255.871 2.54693 3.24354 0
M  V30 2543 H 255.212 0.572526 0.336319 0
M  V30 2544 H 257.742 1.99618 0.448744 0
M  V30 2545 H 257.752 3.13072 2.6163 0
M  V30 2546 H 256.427 3.80408 1.68115 0
M  V30 2547 H 255.004 2.3985 2.85529 0
M  V30 2548 N 257.189 -0.644168 1.43834 0
M  V30 2549 C 258.435 -1.40603 1.46146 0
M  V30 2550 C 258.768 -1.93997 0.0887717 0
M  V30 2551 O 258.043 -1.72854 -0.891724 0
M  V30 2552 C 258.326 -2.58086 2.51124 0
M  V30 2553 C 258.179 -2.10126 3.97702 0
M  V30 2554 C 259.498 -3.60291 2.52742 0
M  V30 2555 H 256.617 -0.509905 0.532134 0
M  V30 2556 H 259.259 -0.729502 1.75437 0
M  V30 2557 H 257.409 -3.15801 2.26278 0
M  V30 2558 H 259.081 -1.57342 4.33637 0
M  V30 2559 H 257.324 -1.41419 4.10101 0
M  V30 2560 H 257.995 -2.94649 4.66783 0
M  V30 2561 H 260.471 -3.12352 2.7491 0
M  V30 2562 H 259.347 -4.40032 3.28121 0
M  V30 2563 H 259.608 -4.1349 1.56455 0
M  V30 2564 N 258.668 -1.30515 -0.883378 0
M  V30 2565 C 259.945 -1.10086 -1.6168 0
M  V30 2566 C 260.325 0.349269 -2.08191 0
M  V30 2567 O 259.673 1.34105 -1.85008 0
M  V30 2568 C 259.883 -2.10315 -2.78511 0
M  V30 2569 C 261.231 -2.42119 -3.48803 0
M  V30 2570 O 262.255 -2.08638 -2.88702 0
M  V30 2571 O 261.114 -2.99396 -4.57192 0
M  V30 2572 H 258.208 -0.422907 -0.710689 0
M  V30 2573 H 260.754 -1.41947 -0.930015 0
M  V30 2574 H 259.526 -3.07917 -2.41459 0
M  V30 2575 H 259.149 -1.79282 -3.54886 0
M  V30 2576 N 260.146 1.09593 -1.13257 0
M  V30 2577 C 261.076 2.18214 -0.830946 0
M  V30 2578 C 262.057 1.68812 0.208966 0
M  V30 2579 O 263.242 1.9408 0.0682666 0
M  V30 2580 C 260.372 3.46051 -0.294296 0
M  V30 2581 C 259.326 4.08778 -1.26826 0
M  V30 2582 C 258.652 5.31419 -0.591449 0
M  V30 2583 C 259.952 4.51476 -2.62615 0
M  V30 2584 H 261.646 2.43703 -1.73923 0
M  V30 2585 H 259.192 1.17128 -0.837675 0
M  V30 2586 H 261.145 4.2134 -0.0709606 0
M  V30 2587 H 259.869 3.20079 0.649366 0
M  V30 2588 H 258.528 3.35505 -1.47756 0
M  V30 2589 H 258.176 5.01727 0.357633 0
M  V30 2590 H 257.876 5.74341 -1.24123 0
M  V30 2591 H 259.4 6.09433 -0.377355 0
M  V30 2592 H 260.814 5.17999 -2.45663 0
M  V30 2593 H 259.211 5.05277 -3.23752 0
M  V30 2594 H 260.281 3.63962 -3.20406 0
M  V30 2595 N 261.624 0.925811 1.2754 0
M  V30 2596 C 262.87 0.566092 1.94739 0
M  V30 2597 C 263.203 -0.890057 1.72603 0
M  V30 2598 O 262.478 -1.63467 1.05399 0
M  V30 2599 C 262.761 0.89054 3.48915 0
M  V30 2600 C 262.614 2.4003 3.80402 0
M  V30 2601 C 263.933 0.395101 4.38323 0
M  V30 2602 H 261.052 0.20714 0.707292 0
M  V30 2603 H 263.694 1.15725 1.50691 0
M  V30 2604 H 261.844 0.387452 3.86563 0
M  V30 2605 H 263.516 2.97494 3.52555 0
M  V30 2606 H 261.759 2.85028 3.2702 0
M  V30 2607 H 262.43 2.57785 4.8811 0
M  V30 2608 H 264.906 0.826241 4.07814 0
M  V30 2609 H 263.782 0.651086 5.45025 0
M  V30 2610 H 264.043 -0.704798 4.36446 0
M  V30 2611 N 263.102 -1.41638 0.69111 0
M  V30 2612 C 264.348 -2.02104 0.229258 0
M  V30 2613 C 264.703 -1.53741 -1.15678 0
M  V30 2614 O 263.996 -0.736849 -1.76865 0
M  V30 2615 C 264.19 -3.56714 0.221277 0
M  V30 2616 C 264.019 -4.20083 1.605 0
M  V30 2617 C 262.789 -4.54566 2.20676 0
M  V30 2618 C 264.987 -4.46587 2.55078 0
M  V30 2619 N 262.969 -5.03199 3.5166 0
M  V30 2620 C 264.34 -4.96946 3.70735 0
M  V30 2621 C 266.395 -4.28593 2.53401 0
M  V30 2622 C 265.098 -5.31203 4.8499 0
M  V30 2623 C 267.124 -4.63936 3.66765 0
M  V30 2624 C 266.486 -5.14463 4.81152 0
M  V30 2625 H 262.585 -0.771256 0.12918 0
M  V30 2626 H 265.169 -1.72251 0.907626 0
M  V30 2627 H 263.34 -3.86051 -0.426562 0
M  V30 2628 H 265.072 -4.03896 -0.254983 0
M  V30 2629 H 261.827 -4.4087 1.73005 0
M  V30 2630 H 262.251 -5.31926 4.18789 0
M  V30 2631 H 266.893 -3.88771 1.66184 0
M  V30 2632 H 264.611 -5.69951 5.72871 0
M  V30 2633 H 268.197 -4.51677 3.66714 0
M  V30 2634 H 267.077 -5.41299 5.67419 0
M  V30 2635 N 264.58 -0.43555 -1.51462 0
M  V30 2636 C 265.808 0.130242 -2.0649 0
M  V30 2637 C 266.223 1.36614 -1.30315 0
M  V30 2638 O 265.58 1.78869 -0.362223 0
M  V30 2639 C 265.631 0.454253 -3.58635 0
M  V30 2640 O 265.352 -0.73259 -4.31931 0
M  V30 2641 C 266.853 1.07091 -4.3017 0
M  V30 2642 H 264.073 0.00871669 -0.670943 0
M  V30 2643 H 266.617 -0.614117 -1.95061 0
M  V30 2644 H 264.772 1.14851 -3.69984 0
M  V30 2645 H 265.186 -0.455787 -5.22516 0
M  V30 2646 H 266.66 1.24764 -5.37716 0
M  V30 2647 H 267.137 2.05144 -3.88346 0
M  V30 2648 H 267.743 0.416089 -4.2326 0
M  V30 2649 N 266.058 1.56714 -0.166846 0
M  V30 2650 C 267.283 2.01557 0.488833 0
M  V30 2651 C 267.708 1.0463 1.56314 0
M  V30 2652 O 267.066 0.0251304 1.81283 0
M  V30 2653 C 267.114 3.4503 1.04818 0
M  V30 2654 O 266.218 3.51163 2.16236 0
M  V30 2655 H 265.559 0.653516 0.117526 0
M  V30 2656 H 268.089 2.02818 -0.269421 0
M  V30 2657 H 268.099 3.84243 1.37191 0
M  V30 2658 H 266.774 4.15077 0.261572 0
M  V30 2659 H 265.351 3.23807 1.84942 0
M  V30 2660 N 267.536 -0.106894 1.57237 0
M  V30 2661 C 268.466 -1.13148 2.04254 0
M  V30 2662 C 269.447 -1.42476 0.929224 0
M  V30 2663 O 270.632 -1.52709 1.19973 0
M  V30 2664 C 267.762 -2.4545 2.45706 0
M  V30 2665 C 266.716 -2.30558 3.60592 0
M  V30 2666 C 266.042 -3.67931 3.87983 0
M  V30 2667 C 267.342 -1.75597 4.91897 0
M  V30 2668 H 269.036 -0.740374 2.90101 0
M  V30 2669 H 266.582 -0.354696 1.39563 0
M  V30 2670 H 268.535 -3.17389 2.77205 0
M  V30 2671 H 267.259 -2.86475 1.56843 0
M  V30 2672 H 265.918 -1.61067 3.29322 0
M  V30 2673 H 265.566 -4.06462 2.96306 0
M  V30 2674 H 265.266 -3.58817 4.65322 0
M  V30 2675 H 266.79 -4.41356 4.21945 0
M  V30 2676 H 268.204 -2.37364 5.21854 0
M  V30 2677 H 266.601 -1.77272 5.73319 0
M  V30 2678 H 267.671 -0.714451 4.79608 0
M  V30 2679 N 269.014 -1.53014 -0.377408 0
M  V30 2680 C 269.962 -1.7927 -1.48206 0
M  V30 2681 C 270.956 -0.661195 -1.55963 0
M  V30 2682 O 272.162 -0.843908 -1.58991 0
M  V30 2683 H 268.537 -0.567425 -0.493491 0
M  V30 2684 H 270.508 -2.71753 -1.2326 0
M  V30 2685 C 269.257 -1.98894 -2.85196 0
M  V30 2686 H 268.58 -2.85395 -2.79981 0
M  V30 2687 H 270.02 -2.21249 -3.61698 0
M  V30 2688 C 268.479 -0.764691 -3.28107 0
M  V30 2689 O 269.009 0.0523226 -4.01666 0
M  V30 2690 N 267.215 -0.591493 -2.84517 0
M  V30 2691 H 266.762 -1.25749 -2.24822 0
M  V30 2692 H 266.72 0.226253 -3.13585 0
M  V30 2693 N 270.492 0.636531 -1.44174 0
M  V30 2694 C 271.422 1.76003 -1.53444 0
M  V30 2695 C 272.403 1.65619 -0.387841 0
M  V30 2696 O 273.588 1.84461 -0.607257 0
M  V30 2697 C 270.718 3.14511 -1.4731 0
M  V30 2698 C 269.672 3.39677 -2.60391 0
M  V30 2699 C 268.998 4.78159 -2.39308 0
M  V30 2700 C 270.298 3.32772 -4.02567 0
M  V30 2701 H 271.992 1.68501 -2.47483 0
M  V30 2702 H 269.538 0.809237 -1.19111 0
M  V30 2703 H 271.491 3.92878 -1.52397 0
M  V30 2704 H 270.215 3.22783 -0.49785 0
M  V30 2705 H 268.874 2.63688 -2.54684 0
M  V30 2706 H 268.522 4.83128 -1.39988 0
M  V30 2707 H 268.222 4.95956 -3.15122 0
M  V30 2708 H 269.746 5.58762 -2.46205 0
M  V30 2709 H 271.16 4.01051 -4.09672 0
M  V30 2710 H 269.557 3.62104 -4.7854 0
M  V30 2711 H 270.627 2.30669 -4.2652 0
M  V30 2712 N 271.97 1.30982 0.876444 0
M  V30 2713 C 272.88 1.2003 2.01569 0
M  V30 2714 C 273.896 0.11838 1.73597 0
M  V30 2715 O 275.072 0.33495 1.98595 0
M  V30 2716 C 272.137 0.901637 3.34771 0
M  V30 2717 C 271.198 2.06979 3.76109 0
M  V30 2718 C 270.431 1.78529 5.02954 0
M  V30 2719 O 270.654 0.717296 5.65872 0
M  V30 2720 O 269.588 2.64019 5.40905 0
M  V30 2721 H 273.414 2.15753 2.13739 0
M  V30 2722 H 270.999 1.10658 1.00375 0
M  V30 2723 H 272.881 0.750645 4.1466 0
M  V30 2724 H 271.556 -0.0256141 3.2369 0
M  V30 2725 H 270.463 2.27616 2.96887 0
M  V30 2726 H 271.796 2.97907 3.91807 0
M  V30 2727 N 273.449 -1.08991 1.13837 0
M  V30 2728 C 274.379 -2.17771 0.842507 0
M  V30 2729 C 275.36 -1.6892 -0.20001 0
M  V30 2730 O 276.545 -1.94113 -0.0579731 0
M  V30 2731 C 273.675 -3.4589 0.312644 0
M  V30 2732 C 272.629 -4.08099 1.28992 0
M  V30 2733 C 271.955 -5.31098 0.619623 0
M  V30 2734 C 273.255 -4.50077 2.65005 0
M  V30 2735 H 274.949 -2.42777 1.75213 0
M  V30 2736 H 272.495 -1.16682 0.843875 0
M  V30 2737 H 274.448 -4.21297 0.0933043 0
M  V30 2738 H 273.172 -3.20419 -0.632382 0
M  V30 2739 H 271.831 -3.34717 1.49533 0
M  V30 2740 H 271.479 -5.0191 -0.33102 0
M  V30 2741 H 271.179 -5.73674 1.27167 0
M  V30 2742 H 272.703 -6.09224 0.409669 0
M  V30 2743 H 274.117 -5.16688 2.48407 0
M  V30 2744 H 272.514 -5.03553 3.26427 0
M  V30 2745 H 273.584 -3.62257 3.22332 0
M  V30 2746 N 274.927 -0.932562 -1.27047 0
M  V30 2747 C 275.857 -0.452902 -2.29066 0
M  V30 2748 C 276.838 0.489338 -1.62909 0
M  V30 2749 O 278.023 0.393046 -1.90181 0
M  V30 2750 C 275.153 0.290698 -3.46081 0
M  V30 2751 C 274.107 -0.564168 -4.24265 0
M  V30 2752 C 273.433 0.308886 -5.33807 0
M  V30 2753 C 274.733 -1.83112 -4.89149 0
M  V30 2754 H 276.427 -1.30552 -2.69437 0
M  V30 2755 H 273.973 -0.629201 -1.29526 0
M  V30 2756 H 275.926 0.637233 -4.16554 0
M  V30 2757 H 274.65 1.17738 -3.0464 0
M  V30 2758 H 273.309 -0.893477 -3.55545 0
M  V30 2759 H 272.957 1.19467 -4.88607 0
M  V30 2760 H 272.657 -0.259633 -5.87026 0
M  V30 2761 H 274.181 0.650884 -6.07121 0
M  V30 2762 H 275.595 -1.55236 -5.51883 0
M  V30 2763 H 273.992 -2.34353 -5.52448 0
M  V30 2764 H 275.062 -2.54772 -4.12576 0
M  V30 2765 N 276.405 1.4127 -0.698611 0
M  V30 2766 C 277.335 2.33447 -0.049629 0
M  V30 2767 C 278.316 1.51982 0.763898 0
M  V30 2768 O 279.501 1.80509 0.716257 0
M  V30 2769 C 276.631 3.35828 0.885267 0
M  V30 2770 C 275.585 4.27627 0.178613 0
M  V30 2771 C 274.911 5.20406 1.22807 0
M  V30 2772 C 276.211 5.13459 -0.956933 0
M  V30 2773 H 277.905 2.87966 -0.81951 0
M  V30 2774 H 275.451 1.38461 -0.395538 0
M  V30 2775 H 277.404 3.9924 1.34854 0
M  V30 2776 H 276.128 2.79666 1.68685 0
M  V30 2777 H 274.787 3.65643 -0.26466 0
M  V30 2778 H 274.435 4.60558 2.02226 0
M  V30 2779 H 274.135 5.82661 0.760239 0
M  V30 2780 H 275.659 5.86695 1.69179 0
M  V30 2781 H 277.073 5.70421 -0.573805 0
M  V30 2782 H 275.47 5.8467 -1.35205 0
M  V30 2783 H 276.54 4.50443 -1.79524 0
M  V30 2784 N 277.883 0.443576 1.51229 0
M  V30 2785 C 279.294 -0.0180867 1.86691 0
M  V30 2786 C 279.645 -1.41384 1.36033 0
M  V30 2787 O 278.77 -2.04291 0.713722 0
M  V30 2788 C 279.365 -0.039597 3.38777 0
M  V30 2789 C 277.924 -0.445692 3.73752 0
M  V30 2790 C 277.071 0.357584 2.74985 0
M  V30 2791 H 280.022 0.659138 1.44364 0
M  V30 2792 H 280.043 -0.847761 3.70936 0
M  V30 2793 H 279.555 0.976382 3.75617 0
M  V30 2794 H 277.656 -1.46704 3.42503 0
M  V30 2795 H 277.769 -0.166155 4.78812 0
M  V30 2796 H 276.133 -0.184973 2.54027 0
M  V30 2797 H 276.916 1.37256 3.14668 0
M  V30 2798 N 279.361 -1.56624 0.175154 0
M  V30 2799 C 280.586 -2.01813 -0.478137 0
M  V30 2800 C 281.011 -1.05457 -1.55757 0
M  V30 2801 O 280.369 -0.0347439 -1.81267 0
M  V30 2802 C 280.417 -3.45581 -1.02987 0
M  V30 2803 O 279.521 -3.52305 -2.14371 0
M  V30 2804 H 278.862 -0.65413 -0.114059 0
M  V30 2805 H 281.392 -2.02673 0.280173 0
M  V30 2806 H 281.402 -3.84965 -1.35151 0
M  V30 2807 H 280.077 -4.1521 -0.239556 0
M  V30 2808 H 278.654 -3.24783 -1.83222 0
M  V30 2809 N 280.839 0.0985539 -1.57292 0
M  V30 2810 C 282.064 0.820196 -1.90493 0
M  V30 2811 C 282.489 1.71658 -0.769094 0
M  V30 2812 O 281.847 1.79133 0.279495 0
M  V30 2813 C 281.895 1.61242 -3.22542 0
M  V30 2814 O 280.999 2.72108 -3.09888 0
M  V30 2815 H 280.34 0.225547 -0.62452 0
M  V30 2816 H 282.87 0.0748159 -2.04463 0
M  V30 2817 H 282.88 1.99737 -3.55766 0
M  V30 2818 H 281.555 0.954535 -4.04798 0
M  V30 2819 H 280.132 2.36667 -2.88172 0
M  V30 2820 N 282.317 1.53212 0.369288 0
M  V30 2821 C 283.249 1.75668 1.47219 0
M  V30 2822 C 284.262 0.637387 1.49804 0
M  V30 2823 O 285.451 0.913561 1.5335 0
M  V30 2824 C 282.551 1.81818 2.85999 0
M  V30 2825 C 281.724 3.11409 3.07153 0
M  V30 2826 C 280.783 3.08849 4.26026 0
M  V30 2827 O 279.809 3.82659 4.2138 0
M  V30 2828 N 281.011 2.29409 5.33246 0
M  V30 2829 H 283.776 2.70832 1.28337 0
M  V30 2830 H 281.337 1.51944 0.55898 0
M  V30 2831 H 283.329 1.77588 3.63655 0
M  V30 2832 H 281.899 0.939544 2.98146 0
M  V30 2833 H 281.119 3.28971 2.1719 0
M  V30 2834 H 282.407 3.97059 3.18154 0
M  V30 2835 H 281.805 1.68946 5.39883 0
M  V30 2836 H 280.362 2.31001 6.09493 0
M  V30 2837 N 283.795 -0.628877 1.44509 0
M  V30 2838 C 285.041 -1.39045 1.47629 0
M  V30 2839 C 285.374 -1.93892 0.109343 0
M  V30 2840 O 284.649 -1.7379 -0.87334 0
M  V30 2841 C 284.932 -2.55408 2.53848 0
M  V30 2842 C 284.785 -2.05896 3.99909 0
M  V30 2843 C 286.104 -3.5759 2.56549 0
M  V30 2844 H 283.223 -0.504232 0.537512 0
M  V30 2845 H 285.865 -0.710854 1.76201 0
M  V30 2846 H 284.015 -3.13384 2.29615 0
M  V30 2847 H 285.687 -1.52734 4.35282 0
M  V30 2848 H 283.93 -1.37061 4.11578 0
M  V30 2849 H 284.601 -2.89681 4.69882 0
M  V30 2850 H 287.077 -3.09419 2.78207 0
M  V30 2851 H 285.953 -4.36527 3.32769 0
M  V30 2852 H 286.214 -4.11808 1.60832 0
M  V30 2853 N 285.273 -1.31445 -0.869486 0
M  V30 2854 C 286.521 -1.20918 -1.61936 0
M  V30 2855 C 286.842 0.232683 -1.93607 0
M  V30 2856 O 286.112 1.15352 -1.58338 0
M  V30 2857 H 284.692 -0.44454 -0.600328 0
M  V30 2858 H 287.354 -1.64776 -1.0409 0
M  V30 2859 H 286.45 -1.78124 -2.56278 0
M  V30 2860 N 286.751 1.08385 -1.14413 0
M  V30 2861 C 287.714 2.13486 -0.834048 0
M  V30 2862 C 288.714 1.59988 0.161418 0
M  V30 2863 O 289.904 1.74071 -0.0669575 0
M  V30 2864 C 287.036 3.4003 -0.243354 0
M  V30 2865 H 288.229 2.42425 -1.7655 0
M  V30 2866 H 285.782 1.24101 -0.950189 0
M  V30 2867 H 286.517 3.16726 0.696807 0
M  V30 2868 H 286.302 3.80157 -0.960367 0
M  V30 2869 H 287.792 4.17577 -0.0436242 0
M  V30 2870 N 288.23 0.939286 1.26551 0
M  V30 2871 C 289.16 0.465044 2.28822 0
M  V30 2872 C 290.141 -0.480692 1.63167 0
M  V30 2873 O 291.326 -0.382955 1.90387 0
M  V30 2874 C 288.456 -0.27234 3.46231 0
M  V30 2875 C 287.41 0.58666 4.2396 0
M  V30 2876 C 286.736 -0.280573 5.33963 0
M  V30 2877 C 288.036 1.85704 4.88171 0
M  V30 2878 H 289.73 1.31979 2.68741 0
M  V30 2879 H 287.276 0.636061 1.29191 0
M  V30 2880 H 289.229 -0.615133 4.16886 0
M  V30 2881 H 287.953 -1.16121 3.0526 0
M  V30 2882 H 286.612 0.91232 3.55067 0
M  V30 2883 H 286.26 -1.16874 4.89234 0
M  V30 2884 H 285.96 0.29076 5.8688 0
M  V30 2885 H 287.484 -0.618678 6.07458 0
M  V30 2886 H 288.898 1.58161 5.51052 0
M  V30 2887 H 287.295 2.37279 5.51197 0
M  V30 2888 H 288.365 2.56957 4.11219 0
M  V30 2889 N 289.708 -1.40897 0.706093 0
M  V30 2890 C 290.936 -2.05373 0.250887 0
M  V30 2891 C 291.351 -1.53172 -1.10381 0
M  V30 2892 O 290.708 -0.684305 -1.69185 0
M  V30 2893 C 290.759 -3.6088 0.211571 0
M  V30 2894 O 290.48 -4.11153 1.51276 0
M  V30 2895 C 291.981 -4.42517 -0.263346 0
M  V30 2896 H 289.201 -0.66115 0.114552 0
M  V30 2897 H 291.745 -1.80479 0.961635 0
M  V30 2898 H 289.9 -3.84777 -0.450073 0
M  V30 2899 H 290.314 -5.05279 1.40689 0
M  V30 2900 H 291.788 -5.51479 -0.239718 0
M  V30 2901 H 292.265 -4.19396 -1.30397 0
M  V30 2902 H 292.871 -4.23708 0.367677 0
M  V30 2903 N 291.186 -0.45159 -1.50991 0
M  V30 2904 C 292.149 0.341117 -2.26647 0
M  V30 2905 C 293.149 0.937422 -1.30649 0
M  V30 2906 O 294.339 0.809644 -1.54241 0
M  V30 2907 C 291.471 1.48398 -3.06905 0
M  V30 2908 H 292.664 -0.322117 -2.98165 0
M  V30 2909 H 290.217 -0.205122 -1.54948 0
M  V30 2910 H 290.952 2.18284 -2.39838 0
M  V30 2911 H 290.737 1.06241 -3.77432 0
M  V30 2912 H 292.227 2.04367 -3.64176 0
M  V30 2913 N 292.664 1.56529 -0.183458 0
M  V30 2914 C 293.596 2.15747 0.773697 0
M  V30 2915 C 294.609 1.1162 1.1851 0
M  V30 2916 O 295.798 1.3876 1.12285 0
M  V30 2917 C 292.898 2.6952 2.05456 0
M  V30 2918 C 292.071 3.98429 1.8048 0
M  V30 2919 C 291.13 4.37145 2.92901 0
M  V30 2920 O 290.156 5.04791 2.6301 0
M  V30 2921 N 291.358 3.99695 4.2098 0
M  V30 2922 H 294.123 2.98505 0.26736 0
M  V30 2923 H 291.684 1.619 -0.0010878 0
M  V30 2924 H 293.676 2.92412 2.79781 0
M  V30 2925 H 292.246 1.91282 2.47245 0
M  V30 2926 H 291.466 3.8379 0.899947 0
M  V30 2927 H 292.754 4.82597 1.61175 0
M  V30 2928 H 292.152 3.4526 4.48121 0
M  V30 2929 H 290.709 4.27562 4.9197 0
M  V30 2930 N 294.142 -0.090211 1.57342 0
M  V30 2931 C 295.39 -0.791241 1.85967 0
M  V30 2932 C 295.711 -1.7903 0.772859 0
M  V30 2933 O 294.981 -1.94872 -0.200398 0
M  V30 2934 H 293.561 -0.295205 0.686195 0
M  V30 2935 H 296.223 -0.0706782 1.94772 0
M  V30 2936 H 295.319 -1.31882 2.82867 0
M  V30 2937 N 295.62 -1.53406 -0.361157 0
M  V30 2938 C 296.568 -1.80832 -1.46296 0
M  V30 2939 C 297.562 -0.677699 -1.55253 0
M  V30 2940 O 298.768 -0.860723 -1.58087 0
M  V30 2941 H 295.143 -0.572627 -0.487445 0
M  V30 2942 H 297.114 -2.73045 -1.20371 0
M  V30 2943 C 295.863 -2.01907 -2.8307 0
M  V30 2944 H 295.186 -2.88349 -2.76938 0
M  V30 2945 H 296.626 -2.25072 -3.59331 0
M  V30 2946 C 295.085 -0.799449 -3.27277 0
M  V30 2947 O 295.615 0.00971761 -4.01699 0
M  V30 2948 N 293.821 -0.621637 -2.83873 0
M  V30 2949 H 293.368 -1.28126 -2.23476 0
M  V30 2950 H 293.326 0.19298 -3.13807 0
M  V30 2951 N 297.098 0.621204 -1.44841 0
M  V30 2952 C 298.028 1.74366 -1.55303 0
M  V30 2953 C 299.009 1.65199 -0.405385 0
M  V30 2954 O 300.194 1.83807 -0.626787 0
M  V30 2955 C 297.324 3.12931 -1.50637 0
M  V30 2956 C 296.278 3.36896 -2.63979 0
M  V30 2957 C 295.604 4.75594 -2.44366 0
M  V30 2958 C 296.904 3.28483 -4.06074 0
M  V30 2959 H 298.598 1.65867 -2.49256 0
M  V30 2960 H 296.144 0.796558 -1.19962 0
M  V30 2961 H 298.097 3.9124 -1.56555 0
M  V30 2962 H 296.821 3.22237 -0.532057 0
M  V30 2963 H 295.48 2.60972 -2.57467 0
M  V30 2964 H 295.128 4.81616 -1.45105 0
M  V30 2965 H 294.828 4.92586 -3.20364 0
M  V30 2966 H 296.352 5.5612 -2.52117 0
M  V30 2967 H 297.766 3.96684 -4.13902 0
M  V30 2968 H 296.163 3.57008 -4.82354 0
M  V30 2969 H 297.233 2.26133 -4.28943 0
M  V30 2970 N 298.576 1.31904 0.862503 0
M  V30 2971 C 299.801 1.25135 1.65397 0
M  V30 2972 C 300.226 -0.179 1.87246 0
M  V30 2973 O 299.584 -1.1277 1.4196 0
M  V30 2974 C 299.632 2.00832 2.99498 0
M  V30 2975 O 298.736 1.35075 3.89652 0
M  V30 2976 H 298.077 0.431655 0.504549 0
M  V30 2977 H 300.607 1.74094 1.07483 0
M  V30 2978 H 300.617 2.10709 3.49379 0
M  V30 2979 H 299.292 3.04847 2.82916 0
M  V30 2980 H 297.869 1.33696 3.48109 0
M  V30 2981 N 300.054 -1.07777 1.14986 0
M  V30 2982 C 301.302 -1.79934 0.920235 0
M  V30 2983 C 301.623 -1.86955 -0.554336 0
M  V30 2984 O 300.893 -1.36731 -1.40291 0
M  V30 2985 H 299.473 -0.666424 0.337473 0
M  V30 2986 H 302.135 -1.3027 1.44968 0
M  V30 2987 H 301.231 -2.82539 1.32583 0
M  V30 2988 N 301.532 -0.945985 -1.26051 0
M  V30 2989 C 302.78 -0.594941 -1.93145 0
M  V30 2990 C 303.101 0.86953 -1.7454 0
M  V30 2991 O 302.371 1.61838 -1.10387 0
M  V30 2992 H 300.951 -0.217044 -0.714773 0
M  V30 2993 H 303.613 -1.20235 -1.53393 0
M  V30 2994 H 302.709 -0.816835 -3.01221 0
M  V30 2995 N 303.011 1.40521 -0.713556 0
M  V30 2996 C 303.941 2.33381 -0.0743864 0
M  V30 2997 C 304.922 1.52784 0.747735 0
M  V30 2998 O 306.107 1.81258 0.697071 0
M  V30 2999 C 303.237 3.36748 0.849598 0
M  V30 3000 C 302.191 4.27793 0.133247 0
M  V30 3001 C 301.517 5.21679 1.17281 0
M  V30 3002 C 302.817 5.12415 -1.01134 0
M  V30 3003 H 304.511 2.87081 -0.850007 0
M  V30 3004 H 302.057 1.38034 -0.410201 0
M  V30 3005 H 304.01 4.00648 1.30612 0
M  V30 3006 H 302.734 2.81439 1.65709 0
M  V30 3007 H 301.393 3.65342 -0.303426 0
M  V30 3008 H 301.041 4.62677 1.9733 0
M  V30 3009 H 300.741 5.83435 0.698397 0
M  V30 3010 H 302.265 5.88456 1.62947 0
M  V30 3011 H 303.679 5.69781 -0.634274 0
M  V30 3012 H 302.076 5.83203 -1.41399 0
M  V30 3013 H 303.146 4.48514 -1.84292 0
M  V30 3014 N 304.489 0.459591 1.5075 0
M  V30 3015 C 305.735 -0.0994966 2.02556 0
M  V30 3016 C 306.068 -1.40399 1.3417 0
M  V30 3017 O 305.343 -1.88892 0.463683 0
M  V30 3018 C 305.626 -0.295242 3.58888 0
M  V30 3019 C 305.479 1.02947 4.37861 0
M  V30 3020 C 306.798 -1.05502 4.27267 0
M  V30 3021 H 303.917 -0.034686 0.736183 0
M  V30 3022 H 306.559 0.602938 1.8018 0
M  V30 3023 H 304.709 -0.893563 3.78084 0
M  V30 3024 H 306.381 1.66348 4.30263 0
M  V30 3025 H 304.624 1.62885 4.02058 0
M  V30 3026 H 305.295 0.846281 5.45474 0
M  V30 3027 H 307.771 -0.547993 4.12476 0
M  V30 3028 H 306.647 -1.16077 5.36486 0
M  V30 3029 H 306.908 -2.08875 3.89645 0
M  V30 3030 N 305.967 -1.56429 0.191757 0
M  V30 3031 C 307.378 -1.83912 -0.321428 0
M  V30 3032 C 307.729 -1.11231 -1.61623 0
M  V30 3033 O 306.854 -0.37202 -2.13178 0
M  V30 3034 C 307.449 -3.33624 -0.589961 0
M  V30 3035 C 306.008 -3.6153 -1.04753 0
M  V30 3036 C 305.155 -2.7714 -0.0943327 0
M  V30 3037 H 308.106 -1.53161 0.415612 0
M  V30 3038 H 308.127 -3.52213 -1.43966 0
M  V30 3039 H 307.639 -3.86495 0.352588 0
M  V30 3040 H 305.74 -3.14089 -2.00447 0
M  V30 3041 H 305.853 -4.69737 -0.942549 0
M  V30 3042 H 304.217 -2.47638 -0.595589 0
M  V30 3043 H 305 -3.32799 0.842601 0
M  V30 3044 N 307.445 0.0818655 -1.57387 0
M  V30 3045 C 308.67 0.799946 -1.91352 0
M  V30 3046 C 309.095 1.70833 -0.787258 0
M  V30 3047 O 308.453 1.79419 0.26048 0
M  V30 3048 C 308.501 1.57812 -3.24234 0
M  V30 3049 O 307.605 2.68806 -3.12757 0
M  V30 3050 H 306.946 0.21891 -0.626877 0
M  V30 3051 H 309.476 0.0531256 -2.04531 0
M  V30 3052 H 309.486 1.95952 -3.57864 0
M  V30 3053 H 308.161 0.911548 -4.05788 0
M  V30 3054 H 306.738 2.33597 -2.90666 0
M  V30 3055 N 308.923 1.53595 0.353017 0
M  V30 3056 C 309.853 1.83902 1.43883 0
M  V30 3057 C 310.834 0.693421 1.55324 0
M  V30 3058 O 312.019 0.944452 1.69687 0
M  V30 3059 C 309.149 2.04016 2.8106 0
M  V30 3060 C 308.103 3.19814 2.84434 0
M  V30 3061 C 307.429 3.25244 4.24406 0
M  V30 3062 C 308.729 4.58133 2.50822 0
M  V30 3063 H 310.423 2.74835 1.1877 0
M  V30 3064 H 307.969 1.32242 0.569917 0
M  V30 3065 H 309.922 2.238 3.57059 0
M  V30 3066 H 308.646 1.09804 3.07588 0
M  V30 3067 H 307.305 2.9987 2.10887 0
M  V30 3068 H 306.953 2.28646 4.48029 0
M  V30 3069 H 306.653 4.03054 4.27576 0
M  V30 3070 H 308.177 3.47228 5.0226 0
M  V30 3071 H 309.591 4.77995 3.16534 0
M  V30 3072 H 307.988 5.38276 2.6529 0
M  V30 3073 H 309.058 4.62387 1.46034 0
M  V30 3074 N 310.401 -0.613514 1.45168 0
M  V30 3075 C 311.364 -1.7065 1.53007 0
M  V30 3076 C 312.364 -1.5548 0.410184 0
M  V30 3077 O 313.554 -1.60656 0.673455 0
M  V30 3078 C 310.686 -3.09875 1.42093 0
M  V30 3079 H 311.879 -1.65068 2.50385 0
M  V30 3080 H 309.432 -0.828728 1.32521 0
M  V30 3081 H 310.167 -3.21039 0.458769 0
M  V30 3082 H 309.952 -3.22293 2.23315 0
M  V30 3083 H 311.442 -3.895 1.50598 0
M  V30 3084 N 311.879 -1.3236 -0.855495 0
M  V30 3085 C 313.127 -1.22629 -1.60644 0
M  V30 3086 C 313.448 0.212136 -1.93843 0
M  V30 3087 O 312.718 1.13666 -1.59552 0
M  V30 3088 H 311.298 -0.450882 -0.595579 0
M  V30 3089 H 313.96 -1.65871 -1.02337 0
M  V30 3090 H 313.056 -1.80832 -2.54374 0
M  V30 3091 N 313.357 1.07166 -1.15556 0
M  V30 3092 C 314.604 1.79798 -0.931604 0
M  V30 3093 C 314.932 1.8682 0.54115 0
M  V30 3094 O 314.187 1.34942 1.41736 0
M  V30 3095 C 314.486 3.24707 -1.49332 0
M  V30 3096 C 314.152 3.37781 -2.98688 0
M  V30 3097 C 312.814 3.41057 -3.39461 0
M  V30 3098 C 315.166 3.40424 -3.94665 0
M  V30 3099 C 312.494 3.4458 -4.74849 0
M  V30 3100 C 314.846 3.45485 -5.29927 0
M  V30 3101 C 313.51 3.47039 -5.70193 0
M  V30 3102 H 312.78 0.657928 -0.340898 0
M  V30 3103 H 315.427 1.26091 -1.44129 0
M  V30 3104 H 313.732 3.81208 -0.904859 0
M  V30 3105 H 315.429 3.79486 -1.29582 0
M  V30 3106 H 312.019 3.35932 -2.66172 0
M  V30 3107 H 316.203 3.37113 -3.64237 0
M  V30 3108 H 311.459 3.44083 -5.05388 0
M  V30 3109 H 315.633 3.46476 -6.04092 0
M  V30 3110 H 313.26 3.49522 -6.75084 0
M  V30 3111 N 314.835 0.952656 1.25548 0
M  V30 3112 C 316.081 0.607272 1.93494 0
M  V30 3113 C 316.414 -0.853245 1.74452 0
M  V30 3114 O 315.689 -1.61194 1.08843 0
M  V30 3115 C 315.972 0.96435 3.46947 0
M  V30 3116 C 315.825 2.48045 3.75225 0
M  V30 3117 C 317.144 0.487987 4.37386 0
M  V30 3118 H 314.263 0.222096 0.702739 0
M  V30 3119 H 316.905 1.18895 1.48203 0
M  V30 3120 H 315.055 0.469361 3.85654 0
M  V30 3121 H 316.727 3.04905 3.46166 0
M  V30 3122 H 314.97 2.919 3.209 0
M  V30 3123 H 315.641 2.6808 4.82532 0
M  V30 3124 H 318.117 0.912558 4.0597 0
M  V30 3125 H 316.993 0.766547 5.43521 0
M  V30 3126 H 317.254 -0.612063 4.37843 0
M  V30 3127 N 316.313 -1.40141 0.720998 0
M  V30 3128 C 317.561 -2.0039 0.262323 0
M  V30 3129 C 317.882 -1.57469 -1.15015 0
M  V30 3130 O 317.152 -0.816582 -1.78069 0
M  V30 3131 H 315.732 -0.741063 0.093996 0
M  V30 3132 H 318.394 -1.71398 0.927835 0
M  V30 3133 H 317.49 -3.10658 0.299671 0
M  V30 3134 N 317.792 -0.46758 -1.50504 0
M  V30 3135 C 319.02 0.0864133 -2.06719 0
M  V30 3136 C 319.435 1.33819 -1.33184 0
M  V30 3137 O 318.792 1.78061 -0.400083 0
M  V30 3138 C 318.843 0.378079 -3.59517 0
M  V30 3139 O 318.564 -0.824044 -4.3028 0
M  V30 3140 C 320.065 0.979426 -4.32345 0
M  V30 3141 H 317.285 -0.00551697 -0.670977 0
M  V30 3142 H 319.829 -0.655354 -1.93715 0
M  V30 3143 H 317.984 1.06977 -3.72337 0
M  V30 3144 H 318.398 -0.566518 -5.21432 0
M  V30 3145 H 319.872 1.1333 -5.40241 0
M  V30 3146 H 320.349 1.9686 -3.9261 0
M  V30 3147 H 320.955 0.326216 -4.24047 0
M  V30 3148 N 319.27 1.56325 -0.20005 0
M  V30 3149 C 320.518 1.97329 0.436547 0
M  V30 3150 C 320.839 1.08826 1.61808 0
M  V30 3151 O 320.109 0.160604 1.95241 0
M  V30 3152 H 318.689 0.728714 0.164272 0
M  V30 3153 H 321.351 1.92761 -0.287937 0
M  V30 3154 H 320.447 3.02264 0.777353 0
M  V30 3155 N 320.748 -0.0735177 1.57428 0
M  V30 3156 C 321.996 -0.771472 1.86796 0
M  V30 3157 C 322.317 -1.78201 0.791804 0
M  V30 3158 O 321.587 -1.95074 -0.179718 0
M  V30 3159 H 320.167 -0.28791 0.689287 0
M  V30 3160 H 322.829 -0.0500161 1.94836 0
M  V30 3161 H 321.925 -1.28874 2.8425 0
M  V30 3162 N 322.226 -1.5378 -0.344866 0
M  V30 3163 C 323.189 -1.80981 -1.40637 0
M  V30 3164 C 324.189 -0.680816 -1.45676 0
M  V30 3165 O 325.379 -0.949095 -1.46075 0
M  V30 3166 C 322.511 -1.95063 -2.79577 0
M  V30 3167 H 323.704 -2.75803 -1.17783 0
M  V30 3168 H 321.257 -1.45173 -0.579181 0
M  V30 3169 H 321.992 -1.02379 -3.07716 0
M  V30 3170 H 321.777 -2.77198 -2.77315 0
M  V30 3171 H 323.267 -2.17629 -3.56409 0
M  V30 3172 N 323.704 0.605807 -1.45491 0
M  V30 3173 C 324.667 1.69836 -1.5391 0
M  V30 3174 C 325.667 1.55261 -0.418424 0
M  V30 3175 O 326.857 1.60296 -0.681965 0
M  V30 3176 C 323.989 3.09117 -1.43734 0
M  V30 3177 H 325.182 1.63738 -2.51257 0
M  V30 3178 H 322.735 0.821689 -1.32959 0
M  V30 3179 H 323.47 3.20791 -0.475788 0
M  V30 3180 H 323.255 3.21104 -2.25021 0
M  V30 3181 H 324.745 3.88696 -1.52661 0
M  V30 3182 N 325.182 1.32811 0.848464 0
M  V30 3183 C 326.132 1.18842 1.94578 0
M  V30 3184 C 327.116 0.0937517 1.60627 0
M  V30 3185 O 328.308 0.320887 1.74067 0
M  V30 3186 C 325.437 0.91999 3.30743 0
M  V30 3187 C 324.523 2.05665 3.70894 0
M  V30 3188 N 324.914 3.30579 3.8282 0
M  V30 3189 C 323.212 1.9612 4.00566 0
M  V30 3190 C 323.913 4.05067 4.17487 0
M  V30 3191 N 322.889 3.33419 4.2934 0
M  V30 3192 H 326.691 2.13536 2.0194 0
M  V30 3193 H 324.205 1.2468 1.0406 0
M  V30 3194 H 326.202 0.800859 4.09136 0
M  V30 3195 H 324.862 -0.0185076 3.24695 0
M  V30 3196 H 325.873 3.65441 3.66978 0
M  V30 3197 H 322.55 1.09871 4.02784 0
M  V30 3198 H 323.94 5.12815 4.34131 0
M  V30 3199 N 326.66 -1.06551 1.16123 0
M  V30 3200 C 327.907 -1.79302 0.941126 0
M  V30 3201 C 328.235 -1.87105 -0.531235 0
M  V30 3202 O 327.49 -1.35692 -1.41018 0
M  V30 3203 C 327.789 -3.23911 1.51052 0
M  V30 3204 C 327.455 -3.36193 3.00475 0
M  V30 3205 C 326.117 -3.39252 3.41265 0
M  V30 3206 C 328.469 -3.38326 3.96465 0
M  V30 3207 C 325.797 -3.42057 4.76669 0
M  V30 3208 C 328.149 -3.4267 5.31752 0
M  V30 3209 C 326.813 -3.4401 5.72026 0
M  V30 3210 H 326.083 -0.656111 0.344382 0
M  V30 3211 H 328.73 -1.25325 1.44796 0
M  V30 3212 H 327.035 -3.80723 0.925063 0
M  V30 3213 H 328.732 -3.78793 1.31593 0
M  V30 3214 H 325.322 -3.34516 2.6795 0
M  V30 3215 H 329.506 -3.35176 3.6602 0
M  V30 3216 H 324.762 -3.41398 5.07206 0
M  V30 3217 H 328.936 -3.43268 6.05921 0
M  V30 3218 H 326.563 -3.45937 6.76928 0
M  V30 3219 N 328.138 -0.959301 -1.25041 0
M  V30 3220 C 329.363 -0.633507 -1.97488 0
M  V30 3221 C 329.788 0.788555 -1.70773 0
M  V30 3222 O 329.146 1.53394 -0.966431 0
M  V30 3223 C 329.194 -0.904057 -3.49083 0
M  V30 3224 O 328.298 0.0147939 -4.12397 0
M  V30 3225 H 327.639 -0.240368 -0.618966 0
M  V30 3226 H 330.169 -1.28717 -1.59038 0
M  V30 3227 H 330.179 -0.832203 -3.99423 0
M  V30 3228 H 328.854 -1.94048 -3.67856 0
M  V30 3229 H 327.431 -0.109664 -3.72739 0
M  V30 3230 N 329.616 1.39756 -0.72842 0
M  V30 3231 C 330.546 2.33289 -0.0991354 0
M  V30 3232 C 331.527 1.53568 0.731489 0
M  V30 3233 O 332.712 1.81987 0.677807 0
M  V30 3234 C 329.842 3.3763 0.813834 0
M  V30 3235 C 328.796 4.2791 0.0878663 0
M  V30 3236 C 328.122 5.22894 1.11741 0
M  V30 3237 C 329.422 5.11314 -1.06563 0
M  V30 3238 H 331.116 2.86163 -0.880408 0
M  V30 3239 H 328.662 1.37591 -0.424819 0
M  V30 3240 H 330.615 4.0201 1.26355 0
M  V30 3241 H 329.339 2.83181 1.62715 0
M  V30 3242 H 327.998 3.65 -0.342159 0
M  V30 3243 H 327.646 4.64744 1.92412 0
M  V30 3244 H 327.346 5.84143 0.636477 0
M  V30 3245 H 328.87 5.90151 1.56697 0
M  V30 3246 H 330.284 5.69076 -0.694671 0
M  V30 3247 H 328.681 5.81671 -1.47577 0
M  V30 3248 H 329.751 4.46534 -1.89038 0
M  V30 3249 N 331.094 0.475555 1.50254 0
M  V30 3250 C 332.319 -0.0777042 2.07254 0
M  V30 3251 C 332.744 -1.3235 1.3366 0
M  V30 3252 O 332.102 -1.77152 0.385597 0
M  V30 3253 C 332.15 -0.340169 3.58992 0
M  V30 3254 O 331.254 -1.41982 3.87188 0
M  V30 3255 H 330.595 0.0149556 0.663832 0
M  V30 3256 H 333.125 0.667878 1.93392 0
M  V30 3257 H 333.135 -0.579332 4.03866 0
M  V30 3258 H 331.81 0.570167 4.11973 0
M  V30 3259 H 330.387 -1.16762 3.54148 0
M  V30 3260 N 332.573 -1.56217 0.208337 0
M  V30 3261 C 333.989 -1.58919 -0.14729 0
M  V30 3262 C 334.189 -1.22486 -1.59998 0
M  V30 3263 O 333.245 -0.953849 -2.3379 0
M  V30 3264 C 334.558 -3.00236 0.167048 0
M  V30 3265 C 336.106 -3.12813 0.108219 0
M  V30 3266 C 336.581 -4.56284 0.396049 0
M  V30 3267 N 338.072 -4.61912 0.345142 0
M  V30 3268 C 338.807 -5.70837 0.541523 0
M  V30 3269 N 338.303 -6.88178 0.798968 0
M  V30 3270 N 340.096 -5.60091 0.474867 0
M  V30 3271 H 332.247 -1.78177 1.15614 0
M  V30 3272 H 334.51 -0.827555 0.462446 0
M  V30 3273 H 334.216 -3.31499 1.1748 0
M  V30 3274 H 334.09 -3.7354 -0.524184 0
M  V30 3275 H 336.477 -2.81354 -0.890157 0
M  V30 3276 H 336.558 -2.41866 0.832729 0
M  V30 3277 H 336.202 -4.88458 1.3918 0
M  V30 3278 H 336.132 -5.25439 -0.349502 0
M  V30 3279 H 338.623 -3.77589 0.153316 0
M  V30 3280 H 338.936 -7.67095 0.93727 0
M  V30 3281 H 337.281 -6.89953 0.836013 0
M  V30 3282 H 340.472 -4.67297 0.274064 0
M  V30 3283 H 340.645 -6.44917 0.631326 0
M  V30 3284 N 334.051 0.0651679 -1.57465 0
M  V30 3285 C 334.999 1.09542 -2.05191 0
M  V30 3286 C 335.993 1.39675 -0.958509 0
M  V30 3287 O 337.199 1.39003 -1.14359 0
M  V30 3288 H 333.574 0.370623 -0.654326 0
M  V30 3289 H 335.545 0.666802 -2.90854 0
M  V30 3290 C 334.294 2.39881 -2.51699 0
M  V30 3291 H 333.617 2.17547 -3.3543 0
M  V30 3292 H 335.057 3.104 -2.88839 0
M  V30 3293 C 333.516 3.0631 -1.40271 0
M  V30 3294 O 334.046 3.94664 -0.748523 0
M  V30 3295 N 332.252 2.67041 -1.14618 0
M  V30 3296 H 331.799 1.95281 -1.67997 0
M  V30 3297 H 331.757 3.1181 -0.402688 0
M  V30 3298 N 335.529 1.53961 0.336706 0
M  V30 3299 C 336.754 1.75797 1.10046 0
M  V30 3300 C 337.179 0.498985 1.81361 0
M  V30 3301 O 336.537 -0.548769 1.72795 0
M  V30 3302 C 336.585 2.94257 2.08436 0
M  V30 3303 O 335.689 2.64883 3.16087 0
M  V30 3304 H 335.03 0.582936 0.317934 0
M  V30 3305 H 337.56 2.00945 0.38501 0
M  V30 3306 H 337.57 3.21237 2.51537 0
M  V30 3307 H 336.245 3.85564 1.55927 0
M  V30 3308 H 334.822 2.48812 2.77753 0
M  V30 3309 N 337.007 -0.598083 1.45811 0
M  V30 3310 C 338.235 -1.38322 1.53866 0
M  V30 3311 C 338.65 -1.87992 0.174479 0
M  V30 3312 O 338.007 -1.62756 -0.825627 0
M  V30 3313 C 338.058 -2.58125 2.53089 0
M  V30 3314 O 337.779 -2.10516 3.84206 0
M  V30 3315 C 339.28 -3.50869 2.70935 0
M  V30 3316 H 336.5 -0.423093 0.520801 0
M  V30 3317 H 339.044 -0.728527 1.91083 0
M  V30 3318 H 337.199 -3.19615 2.18917 0
M  V30 3319 H 337.613 -2.88425 4.38077 0
M  V30 3320 H 339.087 -4.31451 3.44317 0
M  V30 3321 H 339.564 -4.01822 1.77301 0
M  V30 3322 H 340.17 -2.95225 3.06141 0
M  V30 3323 N 338.485 -1.33259 -0.841409 0
M  V30 3324 C 339.448 -1.23221 -1.9326 0
M  V30 3325 C 340.448 -0.151895 -1.60081 0
M  V30 3326 O 341.638 -0.403246 -1.69468 0
M  V30 3327 C 338.77 -0.898123 -3.28856 0
M  V30 3328 H 339.963 -2.2021 -2.03587 0
M  V30 3329 H 337.516 -1.17281 -1.03319 0
M  V30 3330 H 338.251 0.0693841 -3.24226 0
M  V30 3331 H 338.036 -1.67934 -3.54317 0
M  V30 3332 H 339.526 -0.852563 -4.08805 0
M  V30 3333 N 339.963 1.05934 -1.16686 0
M  V30 3334 C 341.211 1.78447 -0.948744 0
M  V30 3335 C 341.532 1.87813 0.524523 0
M  V30 3336 O 340.802 1.38945 1.38098 0
M  V30 3337 H 339.382 0.660971 -0.348033 0
M  V30 3338 H 342.044 1.27947 -1.47022 0
M  V30 3339 H 341.14 2.80394 -1.37061 0
M  V30 3340 N 341.441 0.965919 1.2453 0
M  V30 3341 C 342.689 0.625593 1.92174 0
M  V30 3342 C 343.01 -0.841652 1.75901 0
M  V30 3343 O 342.28 -1.60061 1.12948 0
M  V30 3344 H 340.86 0.228388 0.71123 0
M  V30 3345 H 343.522 1.2266 1.51461 0
M  V30 3346 H 342.618 0.864653 2.99884 0
M  V30 3347 N 342.919 -1.39368 0.735821 0
M  V30 3348 C 343.882 -2.2896 0.104874 0
M  V30 3349 C 344.882 -1.46347 -0.666274 0
M  V30 3350 O 346.072 -1.67014 -0.49517 0
M  V30 3351 C 343.204 -3.29857 -0.860656 0
M  V30 3352 H 344.397 -2.86259 0.894205 0
M  V30 3353 H 341.95 -1.48029 0.501704 0
M  V30 3354 H 342.685 -2.77615 -1.67631 0
M  V30 3355 H 342.47 -3.9087 -0.310327 0
M  V30 3356 H 343.96 -3.96893 -1.29867 0
M  V30 3357 N 344.397 -0.483516 -1.5 0
M  V30 3358 C 345.643 0.0672592 -2.02688 0
M  V30 3359 C 345.976 1.38247 -1.36387 0
M  V30 3360 O 345.251 1.88131 -0.493675 0
M  V30 3361 C 345.534 0.238109 -3.59312 0
M  V30 3362 C 345.387 -1.099 -4.36168 0
M  V30 3363 C 346.706 0.986916 -4.28892 0
M  V30 3364 H 343.825 0.0229696 -0.736642 0
M  V30 3365 H 346.467 -0.631527 -1.79197 0
M  V30 3366 H 344.617 0.8333 -3.79458 0
M  V30 3367 H 346.289 -1.73172 -4.27562 0
M  V30 3368 H 344.532 -1.69261 -3.99416 0
M  V30 3369 H 345.203 -0.932954 -5.44059 0
M  V30 3370 H 347.679 0.482302 -4.13295 0
M  V30 3371 H 346.555 1.07527 -5.38265 0
M  V30 3372 H 346.816 2.0265 -3.92919 0
M  V30 3373 N 345.875 1.56104 -0.216619 0
M  V30 3374 C 347.152 1.89988 0.465165 0
M  V30 3375 C 347.532 1.13326 1.78102 0
M  V30 3376 O 346.88 0.241033 2.27225 0
M  V30 3377 C 347.09 3.42646 0.662939 0
M  V30 3378 C 348.438 4.13311 0.972602 0
M  V30 3379 O 349.462 3.48217 0.749901 0
M  V30 3380 O 348.321 5.28396 1.39499 0
M  V30 3381 H 345.415 0.78979 0.245276 0
M  V30 3382 H 347.961 1.67721 -0.258436 0
M  V30 3383 H 346.733 3.90399 -0.26543 0
M  V30 3384 H 346.356 3.70677 1.43821 0
M  V30 3385 N 347.353 -0.0568162 1.57498 0
M  V30 3386 C 348.316 -1.05038 2.03715 0
M  V30 3387 C 349.316 -1.30709 0.936577 0
M  V30 3388 O 350.506 -1.26178 1.20103 0
M  V30 3389 C 347.638 -2.39034 2.43055 0
M  V30 3390 H 348.831 -0.651715 2.92733 0
M  V30 3391 H 346.384 -0.302947 1.53336 0
M  V30 3392 H 347.119 -2.83703 1.57108 0
M  V30 3393 H 346.904 -2.21739 3.2338 0
M  V30 3394 H 348.394 -3.10421 2.79336 0
M  V30 3395 N 348.832 -1.54138 -0.328536 0
M  V30 3396 C 350.078 -1.7236 -1.06865 0
M  V30 3397 C 350.411 -0.493231 -1.87832 0
M  V30 3398 O 349.686 0.5098 -1.877 0
M  V30 3399 C 349.969 -2.99621 -1.99747 0
M  V30 3400 C 349.822 -4.32899 -1.22143 0
M  V30 3401 C 351.141 -3.22615 -2.99345 0
M  V30 3402 H 348.26 -0.627151 -0.387105 0
M  V30 3403 H 350.902 -1.86827 -0.345767 0
M  V30 3404 H 349.052 -2.87418 -2.61387 0
M  V30 3405 H 350.724 -4.56978 -0.630017 0
M  V30 3406 H 348.967 -4.30628 -0.523628 0
M  V30 3407 H 349.638 -5.18154 -1.90318 0
M  V30 3408 H 352.114 -3.34248 -2.47826 0
M  V30 3409 H 350.99 -4.13027 -3.61524 0
M  V30 3410 H 351.251 -2.3961 -3.71536 0
M  V30 3411 N 350.31 0.590341 -1.46126 0
M  V30 3412 C 351.558 1.34616 -1.50742 0
M  V30 3413 C 351.879 1.94363 -0.157486 0
M  V30 3414 O 351.149 1.78136 0.815136 0
M  V30 3415 H 349.729 0.499789 -0.555175 0
M  V30 3416 H 352.391 0.691953 -1.82203 0
M  V30 3417 H 351.487 2.15678 -2.25587 0
M  V30 3418 N 351.788 1.33704 0.83433 0
M  V30 3419 C 353.034 1.26612 1.59188 0
M  V30 3420 C 353.389 -0.165439 1.91687 0
M  V30 3421 O 352.682 -1.10873 1.56262 0
M  V30 3422 C 352.876 2.07926 2.90692 0
M  V30 3423 C 352.705 3.58844 2.71038 0
M  V30 3424 C 351.475 4.28148 2.68361 0
M  V30 3425 C 353.673 4.53082 2.43353 0
M  V30 3426 N 351.655 5.64987 2.40132 0
M  V30 3427 C 353.026 5.77843 2.24716 0
M  V30 3428 C 355.081 4.42119 2.28987 0
M  V30 3429 C 353.784 6.92877 1.9317 0
M  V30 3430 C 355.81 5.56973 1.98835 0
M  V30 3431 C 355.172 6.80745 1.81012 0
M  V30 3432 H 351.271 0.518517 0.585375 0
M  V30 3433 H 353.855 1.68294 0.979044 0
M  V30 3434 H 352.026 1.68558 3.49918 0
M  V30 3435 H 353.758 1.92568 3.55949 0
M  V30 3436 H 350.513 3.80469 2.82029 0
M  V30 3437 H 350.937 6.37133 2.28889 0
M  V30 3438 H 355.579 3.47058 2.41477 0
M  V30 3439 H 353.297 7.87931 1.79418 0
M  V30 3440 H 356.883 5.50428 1.88468 0
M  V30 3441 H 355.763 7.68115 1.58017 0
M  V30 3442 N 353.266 -1.05314 1.17247 0
M  V30 3443 C 354.514 -1.77941 0.958194 0
M  V30 3444 C 354.835 -1.88089 -0.514556 0
M  V30 3445 O 354.105 -1.39676 -1.37359 0
M  V30 3446 H 352.685 -0.659116 0.351533 0
M  V30 3447 H 355.347 -1.27166 1.47699 0
M  V30 3448 H 354.443 -2.79663 1.38546 0
M  V30 3449 N 354.744 -0.972509 -1.24016 0
M  V30 3450 C 355.992 -0.635776 -1.91839 0
M  V30 3451 C 356.313 0.832312 -1.76345 0
M  V30 3452 O 355.583 1.5946 -1.13795 0
M  V30 3453 H 354.163 -0.232157 -0.710009 0
M  V30 3454 H 356.825 -1.23462 -1.50809 0
M  V30 3455 H 355.921 -0.880545 -2.99421 0
M  V30 3456 N 356.222 1.38976 -0.743202 0
M  V30 3457 C 357.638 1.53984 -0.419664 0
M  V30 3458 C 357.838 1.70837 1.0685 0
M  V30 3459 O 356.894 1.7135 1.8546 0
M  V30 3460 C 358.207 2.75287 -1.20985 0
M  V30 3461 C 359.755 2.89129 -1.19889 0
M  V30 3462 C 360.23 4.13381 -1.97181 0
M  V30 3463 N 361.721 4.20437 -1.94389 0
M  V30 3464 C 362.456 5.15547 -2.50996 0
M  V30 3465 N 361.952 6.16395 -3.16274 0
M  V30 3466 N 363.745 5.07822 -2.40984 0
M  V30 3467 H 355.896 1.26285 -1.7078 0
M  V30 3468 H 358.159 0.612689 -0.723406 0
M  V30 3469 H 357.865 2.69204 -2.26323 0
M  V30 3470 H 357.739 3.68184 -0.819759 0
M  V30 3471 H 360.126 2.947 -0.153606 0
M  V30 3472 H 360.207 1.97272 -1.62841 0
M  V30 3473 H 359.851 4.08572 -3.01714 0
M  V30 3474 H 359.781 5.04298 -1.51629 0
M  V30 3475 H 362.272 3.48205 -1.46839 0
M  V30 3476 H 362.585 6.85443 -3.56915 0
M  V30 3477 H 360.93 6.16758 -3.20367 0
M  V30 3478 H 364.121 4.27973 -1.89622 0
M  V30 3479 H 364.294 5.81767 -2.85397 0
M  V30 3480 N 357.7 0.491464 1.49741 0
M  V30 3481 C 358.63 -0.28154 2.31796 0
M  V30 3482 C 359.611 -0.971473 1.3963 0
M  V30 3483 O 360.796 -0.964719 1.68543 0
M  V30 3484 C 357.926 -1.35203 3.19902 0
M  V30 3485 C 356.88 -0.782529 4.20786 0
M  V30 3486 C 356.206 -1.95283 4.97764 0
M  V30 3487 C 357.506 0.21999 5.21837 0
M  V30 3488 H 359.2 0.403355 2.96671 0
M  V30 3489 H 356.746 0.195425 1.42668 0
M  V30 3490 H 358.699 -1.90045 3.76113 0
M  V30 3491 H 357.423 -2.06598 2.52953 0
M  V30 3492 H 356.082 -0.255928 3.65706 0
M  V30 3493 H 355.73 -2.65423 4.2727 0
M  V30 3494 H 355.43 -1.57789 5.66018 0
M  V30 3495 H 356.954 -2.50577 5.56816 0
M  V30 3496 H 358.368 -0.23996 5.72798 0
M  V30 3497 H 356.765 0.51026 5.97927 0
M  V30 3498 H 357.835 1.13911 4.7133 0
M  V30 3499 N 359.178 -1.55987 0.224894 0
M  V30 3500 C 360.426 -1.97998 -0.405099 0
M  V30 3501 C 360.747 -1.11387 -1.60056 0
M  V30 3502 O 360.017 -0.191645 -1.9496 0
M  V30 3503 H 358.597 -0.731235 -0.152658 0
M  V30 3504 H 361.259 -1.92279 0.318567 0
M  V30 3505 H 360.355 -3.03463 -0.729167 0
M  V30 3506 N 360.656 0.0484629 -1.57525 0
M  V30 3507 C 361.586 1.0549 -2.08313 0
M  V30 3508 C 362.567 1.38929 -0.981463 0
M  V30 3509 O 363.752 1.48151 -1.25558 0
M  V30 3510 C 360.882 2.36162 -2.54646 0
M  V30 3511 C 359.836 2.17016 -3.68901 0
M  V30 3512 C 359.162 3.53278 -4.01371 0
M  V30 3513 C 360.462 1.57219 -4.98076 0
M  V30 3514 H 362.156 0.632195 -2.92649 0
M  V30 3515 H 359.702 0.302654 -1.40784 0
M  V30 3516 H 361.655 3.06882 -2.88793 0
M  V30 3517 H 360.379 2.80456 -1.67368 0
M  V30 3518 H 359.038 1.48733 -3.35073 0
M  V30 3519 H 358.686 3.95185 -3.11188 0
M  V30 3520 H 358.386 3.41299 -4.78318 0
M  V30 3521 H 359.91 4.25391 -4.38035 0
M  V30 3522 H 361.324 2.17832 -5.30304 0
M  V30 3523 H 359.721 1.55871 -5.79503 0
M  V30 3524 H 360.791 0.535956 -4.81929 0
M  V30 3525 N 362.134 1.5431 0.320358 0
M  V30 3526 C 363.362 1.76636 1.07738 0
M  V30 3527 C 363.777 0.51649 1.81598 0
M  V30 3528 O 363.134 -0.512942 1.75143 0
M  V30 3529 C 363.185 2.96158 2.07299 0
M  V30 3530 O 362.906 4.16313 1.36438 0
M  V30 3531 C 364.407 3.3072 2.95193 0
M  V30 3532 H 361.627 0.589597 0.320339 0
M  V30 3533 H 364.171 2.01207 0.36551 0
M  V30 3534 H 362.326 2.73851 2.74016 0
M  V30 3535 H 362.74 4.83565 2.03138 0
M  V30 3536 H 364.214 4.17643 3.60941 0
M  V30 3537 H 364.691 2.48026 3.62463 0
M  V30 3538 H 365.297 3.55117 2.34034 0
M  V30 3539 N 363.613 -0.582584 1.46437 0
M  V30 3540 C 364.843 -1.36484 1.55099 0
M  V30 3541 C 365.251 -1.88233 0.191056 0
M  V30 3542 O 364.594 -1.6429 -0.821858 0
M  V30 3543 C 364.656 -2.588 2.49525 0
M  V30 3544 C 364.32 -2.28517 3.95764 0
M  V30 3545 C 365.317 -1.87346 4.84972 0
M  V30 3546 C 363.002 -2.40658 4.40896 0
M  V30 3547 C 364.996 -1.5871 6.17325 0
M  V30 3548 C 362.683 -2.11635 5.73284 0
M  V30 3549 C 363.681 -1.70725 6.61318 0
M  V30 3550 O 363.369 -1.42057 7.91249 0
M  V30 3551 H 363.101 -0.423297 0.527063 0
M  V30 3552 H 365.655 -0.715188 1.92547 0
M  V30 3553 H 363.885 -3.26571 2.07095 0
M  V30 3554 H 365.574 -3.20868 2.48593 0
M  V30 3555 H 366.34 -1.77481 4.5136 0
M  V30 3556 H 362.219 -2.71463 3.72598 0
M  V30 3557 H 365.763 -1.26704 6.85997 0
M  V30 3558 H 361.66 -2.21124 6.06444 0
M  V30 3559 H 362.428 -1.55901 8.03515 0
M  V30 3560 N 365.091 -1.34144 -0.827227 0
M  V30 3561 C 366.038 -1.25364 -1.93785 0
M  V30 3562 C 367.008 -0.129774 -1.65592 0
M  V30 3563 O 368.193 -0.310024 -1.88264 0
M  V30 3564 C 365.333 -1.01064 -3.2997 0
M  V30 3565 C 364.446 -2.22185 -3.70484 0
M  V30 3566 C 363.581 -1.91203 -4.95595 0
M  V30 3567 C 362.62 -3.08491 -5.28677 0
M  V30 3568 N 361.757 -2.77421 -6.44967 0
M  V30 3569 H 366.597 -2.20347 -2.00627 0
M  V30 3570 H 364.134 -1.09558 -0.981608 0
M  V30 3571 H 366.092 -0.850139 -4.08446 0
M  V30 3572 H 364.722 -0.0975026 -3.22653 0
M  V30 3573 H 363.774 -2.4917 -2.87434 0
M  V30 3574 H 365.086 -3.0983 -3.90905 0
M  V30 3575 H 364.24 -1.71864 -5.81848 0
M  V30 3576 H 362.979 -1.00812 -4.77167 0
M  V30 3577 H 361.984 -3.28431 -4.40923 0
M  V30 3578 H 363.209 -3.99655 -5.49047 0
M  V30 3579 H 361.155 -1.89601 -6.28003 0
M  V30 3580 H 361.072 -3.58598 -6.6554 0
M  V30 3581 H 362.34 -2.61577 -7.34301 0
M  V30 3582 N 366.569 1.04691 -1.17803 0
M  V30 3583 C 367.499 2.14494 -0.92275 0
M  V30 3584 C 368.48 1.69546 0.137179 0
M  V30 3585 O 369.665 1.94195 -0.0141108 0
M  V30 3586 C 366.795 3.44491 -0.440803 0
M  V30 3587 C 365.749 4.03031 -1.4405 0
M  V30 3588 C 365.075 5.28432 -0.81631 0
M  V30 3589 C 366.375 4.39932 -2.81527 0
M  V30 3590 H 368.069 2.36107 -1.84103 0
M  V30 3591 H 365.615 1.1347 -0.886599 0
M  V30 3592 H 367.568 4.2066 -0.249602 0
M  V30 3593 H 366.292 3.22546 0.513025 0
M  V30 3594 H 364.951 3.28937 -1.61853 0
M  V30 3595 H 364.599 5.02792 0.144511 0
M  V30 3596 H 364.299 5.68559 -1.48371 0
M  V30 3597 H 365.823 6.07284 -0.635496 0
M  V30 3598 H 367.237 5.07113 -2.67412 0
M  V30 3599 H 365.634 4.9109 -3.44892 0
M  V30 3600 H 366.704 3.50045 -3.35554 0
M  V30 3601 N 368.047 0.979072 1.23499 0
M  V30 3602 C 369.275 0.665202 1.95915 0
M  V30 3603 C 369.69 -0.767571 1.72493 0
M  V30 3604 O 369.047 -1.51635 1.01554 0
M  V30 3605 C 369.098 0.944438 3.48945 0
M  V30 3606 O 368.819 2.3209 3.71572 0
M  V30 3607 C 370.32 0.646336 4.38563 0
M  V30 3608 H 367.54 0.247218 0.623798 0
M  V30 3609 H 370.084 1.31009 1.57025 0
M  V30 3610 H 368.239 0.345575 3.85856 0
M  V30 3611 H 368.653 2.40957 4.65876 0
M  V30 3612 H 370.127 0.892091 5.44744 0
M  V30 3613 H 370.604 -0.419575 4.37191 0
M  V30 3614 H 371.21 1.22562 4.07258 0
M  V30 3615 N 369.525 -1.3858 0.750561 0
M  V30 3616 C 370.802 -1.94231 0.231009 0
M  V30 3617 C 371.182 -1.68611 -1.27018 0
M  V30 3618 O 370.53 -1.02296 -2.04323 0
M  V30 3619 C 370.74 -3.44123 0.581428 0
M  V30 3620 C 372.088 -4.2116 0.539389 0
M  V30 3621 O 373.112 -3.52391 0.519541 0
M  V30 3622 O 371.971 -5.43749 0.54765 0
M  V30 3623 H 369.065 -0.825639 0.0474263 0
M  V30 3624 H 371.611 -1.4799 0.830478 0
M  V30 3625 H 370.383 -3.56267 1.61833 0
M  V30 3626 H 370.006 -3.97573 -0.0462047 0
M  V30 3627 N 371.003 -0.499398 -1.49478 0
M  V30 3628 C 371.951 0.293604 -2.3074 0
M  V30 3629 C 372.945 0.96427 -1.39277 0
M  V30 3630 O 374.151 0.892141 -1.56336 0
M  V30 3631 H 370.526 0.113541 -0.743379 0
M  V30 3632 H 372.497 -0.411772 -2.95545 0
M  V30 3633 C 371.246 1.3462 -3.20582 0
M  V30 3634 H 370.569 0.83954 -3.90886 0
M  V30 3635 H 372.009 1.87308 -3.80384 0
M  V30 3636 C 370.468 2.36351 -2.40083 0
M  V30 3637 O 370.998 3.422 -2.10385 0
M  V30 3638 N 369.204 2.0878 -2.02137 0
M  V30 3639 H 368.751 1.22723 -2.26488 0
M  V30 3640 H 368.709 2.77075 -1.48583 0
M  V30 3641 N 372.481 1.55866 -0.233164 0
M  V30 3642 C 373.709 2.02998 0.399905 0
M  V30 3643 C 374.124 1.11274 1.52524 0
M  V30 3644 O 373.481 0.124528 1.82075 0
M  V30 3645 C 373.532 3.4958 0.920639 0
M  V30 3646 O 373.253 4.37808 -0.159834 0
M  V30 3647 C 374.754 4.12411 1.62578 0
M  V30 3648 H 371.974 0.664006 0.0966281 0
M  V30 3649 H 374.518 2.0143 -0.353013 0
M  V30 3650 H 372.673 3.51727 1.62379 0
M  V30 3651 H 373.087 5.23981 0.23337 0
M  V30 3652 H 374.561 5.16711 1.94201 0
M  V30 3653 H 375.038 3.5809 2.54299 0
M  V30 3654 H 375.644 4.14148 0.967553 0
M  V30 3655 N 373.959 -0.0401083 1.57549 0
M  V30 3656 C 375.205 -0.734211 1.89043 0
M  V30 3657 C 375.538 -1.75591 0.829535 0
M  V30 3658 O 374.813 -1.93868 -0.156706 0
M  V30 3659 C 375.096 -1.41374 3.31188 0
M  V30 3660 C 374.949 -0.406299 4.47961 0
M  V30 3661 C 376.268 -2.35061 3.72068 0
M  V30 3662 H 373.387 -0.265447 0.687537 0
M  V30 3663 H 376.029 0.00294087 1.9 0
M  V30 3664 H 374.179 -2.04206 3.30503 0
M  V30 3665 H 375.851 0.219255 4.60779 0
M  V30 3666 H 374.094 0.275485 4.32924 0
M  V30 3667 H 374.765 -0.920022 5.44279 0
M  V30 3668 H 377.241 -1.82282 3.74049 0
M  V30 3669 H 376.117 -2.79593 4.72355 0
M  V30 3670 H 376.378 -3.21258 3.0372 0
M  V30 3671 N 375.437 -1.54477 -0.31217 0
M  V30 3672 C 376.367 -1.87652 -1.38957 0
M  V30 3673 C 377.348 -0.734358 -1.53431 0
M  V30 3674 O 378.533 -0.98911 -1.67123 0
M  V30 3675 C 375.663 -2.11396 -2.75552 0
M  V30 3676 C 374.617 -3.27243 -2.75855 0
M  V30 3677 C 373.943 -3.36382 -4.15633 0
M  V30 3678 C 375.243 -4.64622 -2.38587 0
M  V30 3679 H 376.937 -2.77887 -1.11442 0
M  V30 3680 H 374.483 -1.33707 -0.534655 0
M  V30 3681 H 376.436 -2.33189 -3.51 0
M  V30 3682 H 375.16 -1.17921 -3.04569 0
M  V30 3683 H 373.819 -3.05356 -2.02863 0
M  V30 3684 H 373.467 -2.40445 -4.41809 0
M  V30 3685 H 373.167 -4.14249 -4.1674 0
M  V30 3686 H 374.691 -3.60422 -4.92877 0
M  V30 3687 H 376.105 -4.86219 -3.03749 0
M  V30 3688 H 374.502 -5.45121 -2.50925 0
M  V30 3689 H 375.572 -4.66097 -1.33723 0
M  V30 3690 N 376.915 0.57481 -1.46744 0
M  V30 3691 C 378.163 1.33009 -1.52161 0
M  V30 3692 C 378.484 1.94185 -0.178092 0
M  V30 3693 O 377.754 1.7899 0.796196 0
M  V30 3694 H 376.334 0.493873 -0.560445 0
M  V30 3695 H 378.996 0.672589 -1.82927 0
M  V30 3696 H 378.092 2.13273 -2.27862 0
M  V30 3697 N 378.394 1.34581 0.820102 0
M  V30 3698 C 379.357 1.2628 1.91275 0
M  V30 3699 C 380.357 0.177344 1.59819 0
M  V30 3700 O 381.547 0.430156 1.68806 0
M  V30 3701 C 378.679 0.950327 3.27386 0
M  V30 3702 H 379.872 2.23421 2.00057 0
M  V30 3703 H 377.425 1.1891 1.0144 0
M  V30 3704 H 378.16 -0.0177938 3.24295 0
M  V30 3705 H 377.945 1.73549 3.51601 0
M  V30 3706 H 379.435 0.917492 4.07396 0
M  V30 3707 N 379.872 -1.04064 1.18357 0
M  V30 3708 C 380.805 -2.11618 0.854 0
M  V30 3709 C 381.783 -1.61555 -0.184043 0
M  V30 3710 O 382.967 -1.88395 -0.0630048 0
M  V30 3711 C 380.094 -3.37574 0.27597 0
M  V30 3712 C 379.14 -4.06485 1.2912 0
M  V30 3713 S 379.973 -4.53543 2.84709 0
M  V30 3714 C 381.129 -5.82732 2.28417 0
M  V30 3715 H 381.362 -2.39247 1.76488 0
M  V30 3716 H 378.895 -1.16832 1.00944 0
M  V30 3717 H 380.853 -4.10468 -0.051026 0
M  V30 3718 H 379.514 -3.0806 -0.613028 0
M  V30 3719 H 378.707 -4.97024 0.835633 0
M  V30 3720 H 378.309 -3.39708 1.56443 0
M  V30 3721 H 380.601 -6.56677 1.66677 0
M  V30 3722 H 381.544 -6.33052 3.17256 0
M  V30 3723 H 381.952 -5.37838 1.71436 0
M  V30 3724 N 381.35 -0.985608 -1.22978 0
M  V30 3725 C 382.58 -0.674603 -1.95276 0
M  V30 3726 C 382.988 0.763483 -1.73111 0
M  V30 3727 O 382.331 1.52601 -1.02268 0
M  V30 3728 C 382.393 -0.891597 -3.48268 0
M  V30 3729 C 382.057 -2.31275 -3.94158 0
M  V30 3730 C 383.054 -3.29179 -4.02415 0
M  V30 3731 C 380.739 -2.64524 -4.27004 0
M  V30 3732 C 382.733 -4.58407 -4.42879 0
M  V30 3733 C 380.42 -3.93974 -4.67149 0
M  V30 3734 C 381.418 -4.90727 -4.75053 0
M  V30 3735 O 381.106 -6.17865 -5.14294 0
M  V30 3736 H 380.838 -0.249251 -0.628371 0
M  V30 3737 H 383.392 -1.32106 -1.5728 0
M  V30 3738 H 381.622 -0.187962 -3.86243 0
M  V30 3739 H 383.311 -0.576957 -4.01779 0
M  V30 3740 H 384.077 -3.04823 -3.77237 0
M  V30 3741 H 379.956 -1.89923 -4.2006 0
M  V30 3742 H 383.5 -5.33926 -4.48964 0
M  V30 3743 H 379.397 -4.18122 -4.91777 0
M  V30 3744 H 380.165 -6.21694 -5.32389 0
M  V30 3745 N 382.828 1.3818 -0.7579 0
M  V30 3746 C 383.776 2.32277 -0.122482 0
M  V30 3747 C 384.77 1.54238 0.700505 0
M  V30 3748 O 385.976 1.69737 0.599119 0
M  V30 3749 H 382.351 0.751712 -0.0208143 0
M  V30 3750 H 384.322 2.83469 -0.932099 0
M  V30 3751 C 383.071 3.39447 0.753076 0
M  V30 3752 H 382.394 3.99591 0.129184 0
M  V30 3753 H 383.834 4.07684 1.16489 0
M  V30 3754 C 382.293 2.78375 1.8976 0
M  V30 3755 O 382.823 2.68025 2.99208 0
M  V30 3756 N 381.029 2.36121 1.69397 0
M  V30 3757 H 380.576 2.4474 0.803762 0
M  V30 3758 H 380.534 1.95602 2.46145 0
M  V30 3759 N 384.306 0.507319 1.49211 0
M  V30 3760 C 385.553 -0.0349529 2.0247 0
M  V30 3761 C 385.881 -1.36409 1.38647 0
M  V30 3762 O 385.136 -1.88841 0.513566 0
M  V30 3763 C 385.435 -0.229513 3.56662 0
M  V30 3764 C 385.101 1.02241 4.39156 0
M  V30 3765 C 383.763 1.36557 4.61417 0
M  V30 3766 C 386.115 1.85428 4.871 0
M  V30 3767 C 383.443 2.53999 5.28868 0
M  V30 3768 C 385.795 3.02028 5.55843 0
M  V30 3769 C 384.459 3.36717 5.76349 0
M  V30 3770 H 383.729 -0.0127902 0.74089 0
M  V30 3771 H 386.376 0.668756 1.79443 0
M  V30 3772 H 384.681 -1.0158 3.78403 0
M  V30 3773 H 386.378 -0.663641 3.9547 0
M  V30 3774 H 382.968 0.745124 4.22073 0
M  V30 3775 H 387.152 1.6023 4.69723 0
M  V30 3776 H 382.408 2.81105 5.42946 0
M  V30 3777 H 386.582 3.66808 5.91967 0
M  V30 3778 H 384.209 4.27821 6.28389 0
M  V30 3779 N 385.784 -1.5574 0.241426 0
M  V30 3780 C 386.731 -2.21149 -0.660432 0
M  V30 3781 C 387.701 -1.17356 -1.17545 0
M  V30 3782 O 388.886 -1.45784 -1.23093 0
M  V30 3783 C 386.026 -2.91059 -1.85414 0
M  V30 3784 C 385.139 -4.09495 -1.37616 0
M  V30 3785 C 384.274 -4.67135 -2.529 0
M  V30 3786 C 383.313 -5.77831 -2.01936 0
M  V30 3787 N 382.45 -6.29677 -3.10566 0
M  V30 3788 H 387.29 -2.97845 -0.095955 0
M  V30 3789 H 384.827 -1.47057 -0.0356024 0
M  V30 3790 H 386.785 -3.29788 -2.5553 0
M  V30 3791 H 385.415 -2.16846 -2.39118 0
M  V30 3792 H 384.467 -3.76117 -0.569235 0
M  V30 3793 H 385.779 -4.89423 -0.962618 0
M  V30 3794 H 384.933 -5.08409 -3.31067 0
M  V30 3795 H 383.672 -3.86411 -2.97553 0
M  V30 3796 H 382.677 -5.36039 -1.22238 0
M  V30 3797 H 383.902 -6.60402 -1.58259 0
M  V30 3798 H 381.848 -5.5186 -3.54664 0
M  V30 3799 H 381.765 -7.04783 -2.73526 0
M  V30 3800 H 383.033 -6.75609 -3.88809 0
M  V30 3801 N 387.262 0.0317525 -1.57568 0
M  V30 3802 C 388.49 0.734949 -1.93407 0
M  V30 3803 C 388.905 1.69036 -0.84096 0
M  V30 3804 O 388.262 1.81582 0.182836 0
M  V30 3805 C 388.313 1.49432 -3.29169 0
M  V30 3806 O 388.034 0.577261 -4.3428 0
M  V30 3807 C 389.535 2.29492 -3.79273 0
M  V30 3808 H 386.755 0.206706 -0.638368 0
M  V30 3809 H 389.299 -0.00992046 -2.04498 0
M  V30 3810 H 387.454 2.1911 -3.19483 0
M  V30 3811 H 387.868 1.10952 -5.1263 0
M  V30 3812 H 389.342 2.78172 -4.76785 0
M  V30 3813 H 389.819 3.10794 -3.10328 0
M  V30 3814 H 390.425 1.64894 -3.92033 0
M  V30 3815 N 388.74 1.54641 0.303973 0
M  V30 3816 C 389.965 1.78092 1.06292 0
M  V30 3817 C 390.39 0.537342 1.80262 0
M  V30 3818 O 389.748 -0.511993 1.7392 0
M  V30 3819 C 389.796 2.98612 2.02147 0
M  V30 3820 O 388.9 2.71528 3.10397 0
M  V30 3821 H 388.241 0.589548 0.305497 0
M  V30 3822 H 390.771 2.01716 0.3423 0
M  V30 3823 H 390.781 3.265 2.44667 0
M  V30 3824 H 389.456 3.88785 1.47714 0
M  V30 3825 H 388.033 2.54648 2.72413 0
M  V30 3826 N 390.218 -0.567019 1.47046 0
M  V30 3827 C 391.464 -1.32658 1.53394 0
M  V30 3828 C 391.797 -1.93254 0.19148 0
M  V30 3829 O 391.072 -1.77338 -0.798844 0
M  V30 3830 C 391.355 -2.44412 2.64452 0
M  V30 3831 C 391.208 -1.88749 4.08282 0
M  V30 3832 C 392.527 -3.46387 2.71485 0
M  V30 3833 H 389.646 -0.48098 0.558415 0
M  V30 3834 H 392.288 -0.635481 1.79058 0
M  V30 3835 H 390.438 -3.03363 2.427 0
M  V30 3836 H 392.11 -1.34134 4.41368 0
M  V30 3837 H 390.353 -1.19481 4.17021 0
M  V30 3838 H 391.024 -2.69491 4.81745 0
M  V30 3839 H 393.5 -2.9734 2.91081 0
M  V30 3840 H 392.376 -4.2202 3.50985 0
M  V30 3841 H 392.637 -4.04616 1.78153 0
M  V30 3842 N 391.696 -1.35014 -0.812953 0
M  V30 3843 C 392.944 -1.27678 -1.56661 0
M  V30 3844 C 393.265 0.150359 -1.94419 0
M  V30 3845 O 392.535 1.08532 -1.63088 0
M  V30 3846 H 391.115 -0.469602 -0.580933 0
M  V30 3847 H 393.777 -1.69043 -0.970076 0
M  V30 3848 H 392.873 -1.88833 -2.48492 0
M  V30 3849 N 393.175 1.03435 -1.18907 0
M  V30 3850 C 394.452 1.73778 -0.89781 0
M  V30 3851 C 394.832 2.02458 0.597832 0
M  V30 3852 O 394.18 1.67482 1.55441 0
M  V30 3853 C 394.39 3.01845 -1.75187 0
M  V30 3854 C 395.738 3.7546 -1.9828 0
M  V30 3855 O 396.762 3.11759 -1.72293 0
M  V30 3856 O 395.621 4.89966 -2.42065 0
M  V30 3857 H 392.715 0.75651 -0.334098 0
M  V30 3858 H 395.261 1.09444 -1.29693 0
M  V30 3859 H 394.033 2.76836 -2.76545 0
M  V30 3860 H 393.656 3.73919 -1.35167 0
M  V30 3861 N 394.653 0.992116 1.22453 0
M  V30 3862 C 395.583 0.561677 2.26644 0
M  V30 3863 C 396.564 -0.411055 1.65059 0
M  V30 3864 O 397.749 -0.301861 1.9184 0
M  V30 3865 C 394.879 -0.125247 3.47074 0
M  V30 3866 C 393.833 0.765948 4.21091 0
M  V30 3867 C 393.159 -0.0538484 5.34673 0
M  V30 3868 C 394.459 2.06242 4.79856 0
M  V30 3869 H 396.153 1.43259 2.62902 0
M  V30 3870 H 393.699 0.690283 1.26377 0
M  V30 3871 H 395.652 -0.437764 4.1912 0
M  V30 3872 H 394.376 -1.03069 3.0991 0
M  V30 3873 H 393.035 1.0621 3.50878 0
M  V30 3874 H 392.683 -0.960188 4.9375 0
M  V30 3875 H 392.383 0.539415 5.85119 0
M  V30 3876 H 393.907 -0.360477 6.09535 0
M  V30 3877 H 395.321 1.8139 5.43848 0
M  V30 3878 H 393.718 2.60444 5.40638 0
M  V30 3879 H 394.788 2.74167 3.99951 0
M  V30 3880 N 396.131 -1.37776 0.765217 0
M  V30 3881 C 397.041 -2.34135 0.147666 0
M  V30 3882 C 398.057 -1.59854 -0.687215 0
M  V30 3883 O 399.233 -1.91983 -0.608659 0
M  V30 3884 C 396.298 -3.3901 -0.72617 0
M  V30 3885 C 395.359 -4.2912 0.124417 0
M  V30 3886 C 394.592 -5.28986 -0.707807 0
M  V30 3887 O 394.815 -5.36205 -1.94525 0
M  V30 3888 O 393.749 -6.01779 -0.12046 0
M  V30 3889 H 397.575 -2.88664 0.943758 0
M  V30 3890 H 395.16 -1.39824 0.526277 0
M  V30 3891 H 397.042 -4.03195 -1.22524 0
M  V30 3892 H 395.717 -2.86819 -1.50056 0
M  V30 3893 H 394.624 -3.68057 0.669696 0
M  V30 3894 H 395.957 -4.84598 0.861736 0
M  V30 3895 N 397.609 -0.515225 -1.4894 0
M  V30 3896 C 398.857 0.0241671 -2.02086 0
M  V30 3897 C 399.178 1.3616 -1.3959 0
M  V30 3898 O 398.448 1.87841 -0.556121 0
M  V30 3899 H 397.028 0.0119203 -0.746905 0
M  V30 3900 H 399.69 -0.675702 -1.82812 0
M  V30 3901 H 398.786 0.143385 -3.1177 0
M  V30 3902 N 399.087 1.5561 -0.249682 0
M  V30 3903 C 400.034 2.21496 0.648694 0
M  V30 3904 C 401.004 1.17977 1.16921 0
M  V30 3905 O 402.189 1.46434 1.22318 0
M  V30 3906 C 399.329 2.92039 1.83868 0
M  V30 3907 C 398.442 4.10219 1.35442 0
M  V30 3908 C 397.577 4.6847 2.50419 0
M  V30 3909 C 396.616 5.78893 1.98869 0
M  V30 3910 N 395.753 6.31315 3.07223 0
M  V30 3911 H 400.593 2.97892 0.0801582 0
M  V30 3912 H 398.13 1.47074 0.0278031 0
M  V30 3913 H 400.088 3.31138 2.53778 0
M  V30 3914 H 398.718 2.18111 2.37965 0
M  V30 3915 H 397.77 3.76413 0.54928 0
M  V30 3916 H 399.082 4.89927 0.936649 0
M  V30 3917 H 398.236 5.10158 3.28366 0
M  V30 3918 H 396.975 3.87984 2.95499 0
M  V30 3919 H 395.98 5.3668 1.19393 0
M  V30 3920 H 397.205 6.61232 1.54755 0
M  V30 3921 H 395.151 5.53733 3.51732 0
M  V30 3922 H 395.068 7.06224 2.69784 0
M  V30 3923 H 396.336 6.77662 3.8522 0
M  V30 3924 N 400.565 -0.0233959 1.57583 0
M  V30 3925 C 401.528 -1.00693 2.05897 0
M  V30 3926 C 402.528 -1.28693 0.964092 0
M  V30 3927 O 403.718 -1.23602 1.22753 0
M  V30 3928 C 400.85 -2.33825 2.4807 0
M  V30 3929 H 402.043 -0.589476 2.9405 0
M  V30 3930 H 399.596 -0.270354 1.53944 0
M  V30 3931 H 400.331 -2.80307 1.6309 0
M  V30 3932 H 400.116 -2.1483 3.2801 0
M  V30 3933 H 401.606 -3.04426 2.85857 0
M  V30 3934 N 402.043 -1.548 -0.295768 0
M  V30 3935 C 403.271 -1.78327 -1.04914 0
M  V30 3936 C 403.686 -0.545316 -1.80753 0
M  V30 3937 O 403.043 0.485013 -1.75937 0
M  V30 3938 C 403.094 -2.99418 -2.02561 0
M  V30 3939 O 402.815 -4.18431 -1.29798 0
M  V30 3940 C 404.316 -3.35375 -2.89895 0
M  V30 3941 H 401.536 -0.594618 -0.310918 0
M  V30 3942 H 404.08 -2.01763 -0.333454 0
M  V30 3943 H 402.235 -2.78175 -2.69624 0
M  V30 3944 H 402.649 -4.86736 -1.95419 0
M  V30 3945 H 404.123 -4.23332 -3.54251 0
M  V30 3946 H 404.6 -2.53761 -3.58472 0
M  V30 3947 H 405.206 -3.58796 -2.28355 0
M  V30 3948 N 403.521 0.559213 -1.47345 0
M  V30 3949 C 404.451 1.67622 -1.62558 0
M  V30 3950 C 405.432 1.63331 -0.475087 0
M  V30 3951 O 406.617 1.80983 -0.704182 0
M  V30 3952 C 403.747 3.0626 -1.63774 0
M  V30 3953 C 402.701 3.25397 -2.7803 0
M  V30 3954 C 402.027 4.64801 -2.64318 0
M  V30 3955 C 403.327 3.10965 -4.19641 0
M  V30 3956 H 405.021 1.55146 -2.56067 0
M  V30 3957 H 402.567 0.744961 -1.23233 0
M  V30 3958 H 404.52 3.84247 -1.73008 0
M  V30 3959 H 403.244 3.1969 -0.66825 0
M  V30 3960 H 401.903 2.49817 -2.68304 0
M  V30 3961 H 401.551 4.75028 -1.65401 0
M  V30 3962 H 401.251 4.78555 -3.40968 0
M  V30 3963 H 402.775 5.44926 -2.75478 0
M  V30 3964 H 404.189 3.78772 -4.30354 0
M  V30 3965 H 402.586 3.36229 -4.97062 0
M  V30 3966 H 403.656 2.07736 -4.38148 0
M  V30 3967 N 404.999 1.35443 0.805782 0
M  V30 3968 C 406.224 1.32037 1.59941 0
M  V30 3969 C 406.649 -0.0994215 1.87837 0
M  V30 3970 O 406.007 -1.06648 1.46615 0
M  V30 3971 C 406.055 2.13354 2.90711 0
M  V30 3972 O 405.159 1.5148 3.83572 0
M  V30 3973 H 404.5 0.452666 0.485787 0
M  V30 3974 H 407.03 1.78496 1.00002 0
M  V30 3975 H 407.04 2.25338 3.40128 0
M  V30 3976 H 405.715 3.16572 2.69732 0
M  V30 3977 H 404.292 1.4834 3.42125 0
M  V30 3978 N 406.477 -1.02803 1.19454 0
M  V30 3979 C 407.44 -2.09264 0.934955 0
M  V30 3980 C 408.44 -1.60576 -0.0849015 0
M  V30 3981 O 409.63 -1.73554 0.149933 0
M  V30 3982 C 406.762 -3.38482 0.40531 0
M  V30 3983 H 407.955 -2.33726 1.87916 0
M  V30 3984 H 405.508 -1.19426 1.00832 0
M  V30 3985 H 406.243 -3.19689 -0.544899 0
M  V30 3986 H 406.028 -3.75142 1.14065 0
M  V30 3987 H 407.518 -4.16894 0.242806 0
M  V30 3988 N 407.956 -0.998596 -1.21925 0
M  V30 3989 C 409.205 -0.673085 -1.90138 0
M  V30 3990 C 409.518 0.79895 -1.78539 0
M  V30 3991 O 410.724 1.23628 -2.4172 0
M  V30 3992 C 409.18 -1.15339 -3.40918 0
M  V30 3993 C 408.788 -2.65106 -3.61141 0
M  V30 3994 C 410.532 -0.902476 -4.14796 0
M  V30 3995 C 408.439 -3.0671 -5.05651 0
M  V30 3996 H 407.369 -0.248057 -0.712028 0
M  V30 3997 H 410.02 -1.20891 -1.38049 0
M  V30 3998 H 408.402 -0.545658 -3.92223 0
M  V30 3999 H 409.576 -3.31274 -3.20304 0
M  V30 4000 H 407.891 -2.88142 -3.00605 0
M  V30 4001 H 410.488 -1.18895 -5.21314 0
M  V30 4002 H 410.831 0.161349 -4.15987 0
M  V30 4003 H 411.364 -1.47269 -3.69536 0
M  V30 4004 H 408.103 -4.12292 -5.09603 0
M  V30 4005 H 407.623 -2.45249 -5.47369 0
M  V30 4006 H 409.302 -2.9833 -5.74115 0
M  V30 4007 N 409.434 1.37368 -0.772513 0
M  V30 4008 C 410.659 2.0447 -0.347386 0
M  V30 4009 C 411.084 1.57882 1.0225 0
M  V30 4010 O 410.442 0.73941 1.65537 0
M  V30 4011 C 410.49 3.58369 -0.400479 0
M  V30 4012 O 409.594 4.0803 0.598789 0
M  V30 4013 H 408.935 0.646773 -0.15027 0
M  V30 4014 H 411.465 1.75667 -1.04892 0
M  V30 4015 H 411.475 4.07183 -0.258045 0
M  V30 4016 H 410.15 3.91633 -1.39986 0
M  V30 4017 H 408.727 3.70534 0.419411 0
M  V30 4018 N 410.912 0.523116 1.48665 0
M  V30 4019 C 412.16 -0.0134497 2.02096 0
M  V30 4020 C 412.481 -1.35418 1.40311 0
M  V30 4021 O 411.751 -1.87543 0.566074 0
M  V30 4022 H 410.331 -0.00795915 0.746958 0
M  V30 4023 H 412.993 0.685388 1.82451 0
M  V30 4024 H 412.089 -0.126849 3.11842 0
M  V30 4025 N 412.39 -1.55475 0.257931 0
M  V30 4026 C 413.667 -1.91155 -0.414629 0
M  V30 4027 C 414.047 -1.18008 -1.75035 0
M  V30 4028 O 413.395 -0.301193 -2.26506 0
M  V30 4029 C 413.605 -3.44283 -0.571859 0
M  V30 4030 C 414.953 -4.15744 -0.862678 0
M  V30 4031 O 415.977 -3.50083 -0.657314 0
M  V30 4032 O 414.836 -5.31909 -1.2544 0
M  V30 4033 H 411.93 -0.796016 -0.22425 0
M  V30 4034 H 414.476 -1.66976 0.302814 0
M  V30 4035 H 413.248 -3.89558 0.368844 0
M  V30 4036 H 412.871 -3.7436 -1.33943 0
M  V30 4037 N 413.868 0.0150385 -1.57593 0
M  V30 4038 C 415.116 0.701613 -1.8953 0
M  V30 4039 C 415.437 1.75139 -0.857396 0
M  V30 4040 O 414.707 1.95607 0.107194 0
M  V30 4041 H 413.287 0.26213 -0.699498 0
M  V30 4042 H 415.949 -0.0223304 -1.94887 0
M  V30 4043 H 415.045 1.18236 -2.88837 0
M  V30 4044 N 415.346 1.54954 0.287554 0
M  V30 4045 C 416.309 1.86076 1.33823 0
M  V30 4046 C 417.309 0.734414 1.43049 0
M  V30 4047 O 418.499 1.00266 1.42452 0
M  V30 4048 C 415.631 2.05305 2.72144 0
M  V30 4049 H 416.824 2.79984 1.07465 0
M  V30 4050 H 414.377 1.47223 0.524902 0
M  V30 4051 H 415.112 1.1373 3.03704 0
M  V30 4052 H 414.897 2.873 2.66836 0
M  V30 4053 H 416.387 2.30706 3.48087 0
M  V30 4054 N 416.824 -0.551391 1.4764 0
M  V30 4055 C 418.07 -1.31024 1.54792 0
M  V30 4056 C 418.403 -1.9304 0.211967 0
M  V30 4057 O 417.678 -1.78175 -0.77999 0
M  V30 4058 C 417.961 -2.41593 2.67029 0
M  V30 4059 C 417.814 -1.84408 4.10261 0
M  V30 4060 C 419.133 -3.43488 2.75143 0
M  V30 4061 H 416.252 -0.475031 0.563485 0
M  V30 4062 H 418.894 -0.616454 1.79722 0
M  V30 4063 H 417.044 -3.00772 2.45904 0
M  V30 4064 H 418.716 -1.29445 4.42766 0
M  V30 4065 H 416.959 -1.15051 4.18265 0
M  V30 4066 H 417.63 -2.64367 4.84576 0
M  V30 4067 H 420.106 -2.94236 2.94218 0
M  V30 4068 H 418.982 -4.18274 3.55441 0
M  V30 4069 H 419.243 -4.02703 1.82435 0
M  V30 4070 N 418.302 -1.35869 -0.798587 0
M  V30 4071 C 419.232 -1.32118 -1.92528 0
M  V30 4072 C 420.213 -0.194209 -1.68988 0
M  V30 4073 O 421.398 -0.390426 -1.90235 0
M  V30 4074 C 418.528 -1.10047 -3.29404 0
M  V30 4075 C 417.482 -2.19471 -3.67446 0
M  V30 4076 C 416.808 -1.82555 -5.02571 0
M  V30 4077 C 418.108 -3.61495 -3.76987 0
M  V30 4078 H 419.802 -2.26394 -1.95924 0
M  V30 4079 H 417.348 -1.08981 -0.94123 0
M  V30 4080 H 419.301 -1.06061 -4.07835 0
M  V30 4081 H 418.025 -0.122195 -3.26371 0
M  V30 4082 H 416.684 -2.22568 -2.91306 0
M  V30 4083 H 416.332 -0.833249 -4.9605 0
M  V30 4084 H 416.032 -2.5581 -5.28995 0
M  V30 4085 H 417.556 -1.80108 -5.83432 0
M  V30 4086 H 418.97 -3.60676 -4.4563 0
M  V30 4087 H 417.367 -4.33577 -4.14887 0
M  V30 4088 H 418.437 -3.97065 -2.78329 0
M  V30 4089 N 419.78 1.02168 -1.19998 0
M  V30 4090 C 421.191 1.57135 -1.00825 0
M  V30 4091 C 421.542 1.91276 0.436818 0
M  V30 4092 O 420.667 1.71679 1.3174 0
M  V30 4093 C 421.262 2.85514 -1.82393 0
M  V30 4094 C 419.821 3.37027 -1.67601 0
M  V30 4095 C 418.968 2.10388 -1.80644 0
M  V30 4096 H 421.919 0.846106 -1.34264 0
M  V30 4097 H 421.94 3.56711 -1.32429 0
M  V30 4098 H 421.452 2.60634 -2.87561 0
M  V30 4099 H 419.553 3.66878 -0.650485 0
M  V30 4100 H 419.666 4.09572 -2.4857 0
M  V30 4101 H 418.03 2.22601 -1.23778 0
M  V30 4102 H 418.813 1.8794 -2.87286 0
M  V30 4103 N 421.258 1.00505 1.21394 0
M  V30 4104 C 422.188 0.585684 2.26035 0
M  V30 4105 C 423.169 -0.393525 1.65485 0
M  V30 4106 O 424.354 -0.281497 1.92149 0
M  V30 4107 C 421.484 -0.0884283 3.47187 0
M  V30 4108 C 420.438 0.810567 4.20254 0
M  V30 4109 C 419.764 0.00286382 5.347 0
M  V30 4110 C 421.064 2.1132 4.77641 0
M  V30 4111 H 422.758 1.46039 2.61368 0
M  V30 4112 H 420.304 0.703648 1.25638 0
M  V30 4113 H 422.257 -0.393286 4.19561 0
M  V30 4114 H 420.981 -0.997766 3.10986 0
M  V30 4115 H 419.64 1.09925 3.49731 0
M  V30 4116 H 419.288 -0.907765 4.94741 0
M  V30 4117 H 418.988 0.601444 5.84514 0
M  V30 4118 H 420.512 -0.295808 6.09883 0
M  V30 4119 H 421.926 1.87148 5.41893 0
M  V30 4120 H 420.323 2.66164 5.37845 0
M  V30 4121 H 421.393 2.78393 3.9702 0
M  V30 4122 N 422.737 -1.36956 0.779787 0
M  V30 4123 C 424.014 -1.93697 0.272156 0
M  V30 4124 C 424.394 -1.71267 -1.23413 0
M  V30 4125 O 423.742 -1.06607 -2.02107 0
M  V30 4126 C 423.952 -3.42812 0.654291 0
M  V30 4127 C 425.3 -4.19921 0.628602 0
M  V30 4128 O 426.324 -3.51209 0.594172 0
M  V30 4129 O 425.183 -5.42465 0.662864 0
M  V30 4130 H 422.277 -0.824447 0.0649286 0
M  V30 4131 H 424.823 -1.46196 0.861682 0
M  V30 4132 H 423.595 -3.52754 1.69353 0
M  V30 4133 H 423.218 -3.97582 0.0381369 0
M  V30 4134 N 424.215 -0.530993 -1.48385 0
M  V30 4135 C 425.463 0.00273189 -2.021 0
M  V30 4136 C 425.784 1.34672 -1.41027 0
M  V30 4137 O 425.054 1.8724 -0.576012 0
M  V30 4138 H 423.634 0.00399774 -0.746989 0
M  V30 4139 H 426.296 -0.695054 -1.82085 0
M  V30 4140 H 425.392 0.11031 -3.11905 0
M  V30 4141 N 425.693 1.55336 -0.266172 0
M  V30 4142 C 426.97 1.91372 0.404486 0
M  V30 4143 C 427.35 1.18935 1.74407 0
M  V30 4144 O 426.698 0.3132 2.26343 0
M  V30 4145 C 426.908 3.44581 0.553593 0
M  V30 4146 C 428.256 4.16196 0.840618 0
M  V30 4147 O 429.28 3.50426 0.638739 0
M  V30 4148 O 428.139 5.32567 1.22618 0
M  V30 4149 H 425.233 0.797194 0.220025 0
M  V30 4150 H 427.779 1.66813 -0.311664 0
M  V30 4151 H 426.551 3.89357 -0.389498 0
M  V30 4152 H 426.174 3.75065 1.31955 0
M  V30 4153 N 427.171 -0.0066808 1.57599 0
M  V30 4154 C 428.42 -0.692078 1.89455 0
M  V30 4155 C 428.733 -1.75306 0.867586 0
M  V30 4156 O 429.939 -2.49262 1.07614 0
M  V30 4157 C 428.395 -1.2821 3.36289 0
M  V30 4158 C 428.003 -0.256291 4.47266 0
M  V30 4159 C 429.747 -1.94608 3.77264 0
M  V30 4160 C 427.654 -0.855927 5.85173 0
M  V30 4161 H 426.584 -0.262252 0.706923 0
M  V30 4162 H 429.235 0.052769 1.83424 0
M  V30 4163 H 427.617 -2.0774 3.37135 0
M  V30 4164 H 428.791 0.513923 4.57925 0
M  V30 4165 H 427.106 0.306862 4.15268 0
M  V30 4166 H 429.703 -2.40364 4.77629 0
M  V30 4167 H 430.046 -2.77382 3.10427 0
M  V30 4168 H 430.579 -1.21822 3.78688 0
M  V30 4169 H 427.318 -0.0671161 6.55466 0
M  V30 4170 H 426.838 -1.59546 5.78191 0
M  V30 4171 H 428.517 -1.35658 6.32618 0
M  V30 4172 N 428.649 -1.55105 -0.279332 0
M  V30 4173 C 430.065 -1.46803 -0.626187 0
M  V30 4174 C 430.265 -0.676939 -1.89789 0
M  V30 4175 O 429.321 -0.19326 -2.51759 0
M  V30 4176 C 430.634 -2.90962 -0.759034 0
M  V30 4177 C 432.182 -3.01138 -0.853504 0
M  V30 4178 C 432.657 -4.46539 -1.01818 0
M  V30 4179 N 434.148 -4.50341 -1.08386 0
M  V30 4180 C 434.883 -5.60053 -1.22996 0
M  V30 4181 N 434.379 -6.79645 -1.34366 0
M  V30 4182 N 436.172 -5.47783 -1.26056 0
M  V30 4183 H 428.323 -2.04996 0.555921 0
M  V30 4184 H 430.586 -0.929325 0.187239 0
M  V30 4185 H 430.292 -3.51544 0.104852 0
M  V30 4186 H 430.166 -3.39619 -1.64131 0
M  V30 4187 H 432.553 -2.40658 -1.70786 0
M  V30 4188 H 432.634 -2.55745 0.0532466 0
M  V30 4189 H 432.278 -5.0762 -0.168504 0
M  V30 4190 H 432.208 -4.89583 -1.93948 0
M  V30 4191 H 434.699 -3.64191 -1.00864 0
M  V30 4192 H 435.012 -7.59012 -1.4533 0
M  V30 4193 H 433.357 -6.82469 -1.31382 0
M  V30 4194 H 436.548 -4.53294 -1.168 0
M  V30 4195 H 436.721 -6.33331 -1.37098 0
M  V30 4196 N 430.127 0.543554 -1.4793 0
M  V30 4197 C 431.373 1.30201 -1.55485 0
M  V30 4198 C 431.706 1.92925 -0.222201 0
M  V30 4199 O 430.981 1.78586 0.77053 0
M  V30 4200 C 431.264 2.40174 -2.68307 0
M  V30 4201 C 431.117 1.8223 -4.11233 0
M  V30 4202 C 432.436 3.42024 -2.76961 0
M  V30 4203 H 429.555 0.472036 -0.565996 0
M  V30 4204 H 432.197 0.606914 -1.80046 0
M  V30 4205 H 430.347 2.99463 -2.47495 0
M  V30 4206 H 432.019 1.27096 -4.43446 0
M  V30 4207 H 430.262 1.12832 -4.18869 0
M  V30 4208 H 430.933 2.61793 -4.85972 0
M  V30 4209 H 433.409 2.92672 -2.95774 0
M  V30 4210 H 432.285 4.16383 -3.57654 0
M  V30 4211 H 432.546 4.0173 -1.84568 0
M  V30 4212 N 431.605 1.3629 0.791371 0
M  V30 4213 C 432.552 1.30458 1.90393 0
M  V30 4214 C 433.522 0.173632 1.6519 0
M  V30 4215 O 434.707 0.35983 1.87376 0
M  V30 4216 C 431.847 1.09777 3.27174 0
M  V30 4217 C 430.96 2.31929 3.64462 0
M  V30 4218 C 430.095 2.04276 4.90352 0
M  V30 4219 C 429.134 3.224 5.20312 0
M  V30 4220 N 428.271 2.94424 6.37385 0
M  V30 4221 H 433.111 2.25589 1.94714 0
M  V30 4222 H 430.648 1.12122 0.952216 0
M  V30 4223 H 432.606 0.958133 4.06049 0
M  V30 4224 H 431.236 0.183014 3.22281 0
M  V30 4225 H 430.288 2.56703 2.80727 0
M  V30 4226 H 431.6 3.20085 3.82553 0
M  V30 4227 H 430.754 1.87231 5.77087 0
M  V30 4228 H 429.493 1.13428 4.74326 0
M  V30 4229 H 428.498 3.40005 4.32061 0
M  V30 4230 H 429.723 4.14071 5.38258 0
M  V30 4231 H 427.669 2.06185 6.22755 0
M  V30 4232 H 427.586 3.76118 6.55798 0
M  V30 4233 H 428.854 2.80953 7.27108 0
M  V30 4234 N 433.083 -1.0153 1.20538 0
M  V30 4235 C 434.031 -2.12215 0.952235 0
M  V30 4236 C 435.025 -1.69123 -0.0968735 0
M  V30 4237 O 436.231 -1.7992 0.0536006 0
M  V30 4238 H 432.606 -0.693576 0.290613 0
M  V30 4239 H 434.577 -2.3075 1.89201 0
M  V30 4240 C 433.326 -3.43755 0.522287 0
M  V30 4241 H 432.649 -3.7734 1.32115 0
M  V30 4242 H 434.089 -4.22254 0.384389 0
M  V30 4243 C 432.548 -3.28088 -0.765489 0
M  V30 4244 O 433.078 -3.57921 -1.8236 0
M  V30 4245 N 431.284 -2.81333 -0.728011 0
M  V30 4246 H 430.831 -2.57255 0.133332 0
M  V30 4247 H 430.789 -2.71232 -1.58999 0
M  V30 4248 N 434.561 -1.01147 -1.20859 0
M  V30 4249 C 435.808 -0.697865 -1.90095 0
M  V30 4250 C 436.136 0.772014 -1.78522 0
M  V30 4251 O 435.391 1.57595 -1.16027 0
M  V30 4252 C 435.69 -1.0727 -3.40922 0
M  V30 4253 C 435.356 -2.53792 -3.72693 0
M  V30 4254 C 434.018 -2.93829 -3.81075 0
M  V30 4255 C 436.37 -3.48674 -3.87397 0
M  V30 4256 C 433.698 -4.27696 -4.01613 0
M  V30 4257 C 436.05 -4.82223 -4.09444 0
M  V30 4258 C 434.714 -5.21973 -4.16054 0
M  V30 4259 H 433.984 -0.255367 -0.695607 0
M  V30 4260 H 436.631 -1.27111 -1.43231 0
M  V30 4261 H 434.936 -0.417799 -3.89566 0
M  V30 4262 H 436.633 -0.807818 -3.92779 0
M  V30 4263 H 433.223 -2.21768 -3.66765 0
M  V30 4264 H 437.407 -3.18904 -3.80281 0
M  V30 4265 H 432.663 -4.58055 -4.04964 0
M  V30 4266 H 436.837 -5.55672 -4.19763 0
M  V30 4267 H 434.464 -6.25717 -4.31721 0
M  V30 4268 N 436.039 1.36541 -0.78704 0
M  V30 4269 C 436.949 2.3387 -0.184896 0
M  V30 4270 C 437.965 1.60927 0.661697 0
M  V30 4271 O 439.141 1.92927 0.57804 0
M  V30 4272 C 436.206 3.40122 0.672145 0
M  V30 4273 C 435.267 4.28867 -0.19267 0
M  V30 4274 C 434.5 5.30045 0.623561 0
M  V30 4275 O 434.723 5.39232 1.8597 0
M  V30 4276 O 433.657 6.01895 0.0247068 0
M  V30 4277 H 437.483 2.87126 -0.989562 0
M  V30 4278 H 435.068 1.38969 -0.548455 0
M  V30 4279 H 436.95 4.05093 1.16094 0
M  V30 4280 H 435.625 2.89169 1.45474 0
M  V30 4281 H 434.532 3.66945 -0.728166 0
M  V30 4282 H 435.865 4.83165 -0.938722 0
M  V30 4283 N 437.518 0.538854 1.48102 0
M  V30 4284 C 438.451 -0.266495 2.26639 0
M  V30 4285 C 439.429 -0.93687 1.32897 0
M  V30 4286 O 440.613 -0.959507 1.62252 0
M  V30 4287 C 437.74 -1.37814 3.09394 0
M  V30 4288 C 436.786 -0.818247 4.18577 0
M  V30 4289 S 437.619 0.320848 5.34538 0
M  V30 4290 C 438.775 -0.793059 6.20855 0
M  V30 4291 H 439.008 0.399994 2.94597 0
M  V30 4292 H 436.541 0.324808 1.50945 0
M  V30 4293 H 438.499 -2.01488 3.57649 0
M  V30 4294 H 437.16 -2.01639 2.40833 0
M  V30 4295 H 436.353 -1.65247 4.7614 0
M  V30 4296 H 435.955 -0.258036 3.73109 0
M  V30 4297 H 438.247 -1.68961 6.56093 0
M  V30 4298 H 439.19 -0.255204 7.0764 0
M  V30 4299 H 439.598 -1.07746 5.54122 0
M  V30 4300 N 438.996 -1.55193 0.274407 0
M  V30 4301 C 440.407 -1.85358 -0.223488 0
M  V30 4302 C 440.758 -1.19642 -1.555 0
M  V30 4303 O 439.883 -0.484498 -2.10907 0
M  V30 4304 C 440.478 -3.36282 -0.412285 0
M  V30 4305 C 439.037 -3.66574 -0.854413 0
M  V30 4306 C 438.184 -2.7725 0.0527056 0
M  V30 4307 H 441.135 -1.50743 0.496215 0
M  V30 4308 H 441.156 -3.59349 -1.25094 0
M  V30 4309 H 440.668 -3.84083 0.556965 0
M  V30 4310 H 438.769 -3.24273 -1.83516 0
M  V30 4311 H 438.882 -4.74073 -0.692226 0
M  V30 4312 H 437.246 -2.50447 -0.463484 0
M  V30 4313 H 438.029 -3.27865 1.01783 0
M  V30 4314 N 440.474 -0.00167713 -1.576 0
M  V30 4315 C 441.437 0.974046 -2.07473 0
M  V30 4316 C 442.437 1.27143 -0.984444 0
M  V30 4317 O 443.627 1.21633 -1.24703 0
M  V30 4318 C 440.759 2.29849 -2.51759 0
M  V30 4319 H 441.952 0.54262 -2.9495 0
M  V30 4320 H 439.505 0.245829 -1.54355 0
M  V30 4321 H 440.24 2.77677 -1.67529 0
M  V30 4322 H 440.025 2.09584 -3.31386 0
M  V30 4323 H 441.515 2.9984 -2.90664 0
M  V30 4324 N 441.952 1.55251 0.271103 0
M  V30 4325 C 443.177 1.80306 1.02491 0
M  V30 4326 C 443.602 0.575457 1.79081 0
M  V30 4327 O 442.96 -0.474987 1.74967 0
M  V30 4328 C 443.008 3.02832 1.95768 0
M  V30 4329 O 442.112 2.78051 3.04568 0
M  V30 4330 H 441.453 0.595896 0.292923 0
M  V30 4331 H 443.983 2.02397 0.299436 0
M  V30 4332 H 443.993 3.31616 2.37686 0
M  V30 4333 H 442.668 3.9183 1.39434 0
M  V30 4334 H 441.245 2.60369 2.66951 0
M  V30 4335 N 443.43 -0.535701 1.48216 0
M  V30 4336 C 444.36 -1.65014 1.65204 0
M  V30 4337 C 445.341 -1.62554 0.501011 0
M  V30 4338 O 446.526 -1.7984 0.732886 0
M  V30 4339 C 443.656 -3.03616 1.68626 0
M  V30 4340 C 442.61 -3.20932 2.83172 0
M  V30 4341 C 441.936 -4.60537 2.71679 0
M  V30 4342 C 443.236 -3.04249 4.24535 0
M  V30 4343 H 444.93 -1.51053 2.58502 0
M  V30 4344 H 442.476 -0.725262 1.24402 0
M  V30 4345 H 444.429 -3.81446 1.79099 0
M  V30 4346 H 443.153 -3.18587 0.719026 0
M  V30 4347 H 441.812 -2.45517 2.72244 0
M  V30 4348 H 441.46 -4.72336 1.72937 0
M  V30 4349 H 441.16 -4.73069 3.48538 0
M  V30 4350 H 442.684 -5.40475 2.84112 0
M  V30 4351 H 444.098 -3.71877 4.36326 0
M  V30 4352 H 442.495 -3.28278 5.02348 0
M  V30 4353 H 443.565 -2.00739 4.41397 0
M  V30 4354 N 444.908 -1.36708 -0.784132 0
M  V30 4355 C 446.136 -1.34398 -1.57305 0
M  V30 4356 C 446.551 0.0735577 -1.88657 0
M  V30 4357 O 445.908 1.03193 -1.50524 0
M  V30 4358 C 445.959 -2.17053 -2.89085 0
M  V30 4359 O 445.68 -3.53281 -2.59083 0
M  V30 4360 C 447.181 -2.22583 -3.83369 0
M  V30 4361 H 444.401 -0.460819 -0.487736 0
M  V30 4362 H 446.945 -1.79879 -0.972819 0
M  V30 4363 H 445.1 -1.75113 -3.45564 0
M  V30 4364 H 445.514 -3.9647 -3.43383 0
M  V30 4365 H 446.988 -2.84763 -4.72878 0
M  V30 4366 H 447.465 -1.23075 -4.21603 0
M  V30 4367 H 448.071 -2.64781 -3.32823 0
M  V30 4368 N 446.386 1.0089 -1.21074 0
M  V30 4369 C 447.316 2.1145 -0.990523 0
M  V30 4370 C 448.297 1.69897 0.0831699 0
M  V30 4371 O 449.482 1.94052 -0.0758853 0
M  V30 4372 C 446.612 3.42914 -0.550177 0
M  V30 4373 C 445.566 3.98244 -1.56799 0
M  V30 4374 C 444.892 5.25568 -0.984013 0
M  V30 4375 C 446.192 4.30752 -2.95381 0
M  V30 4376 H 447.886 2.3013 -1.91521 0
M  V30 4377 H 445.432 1.10592 -0.92225 0
M  V30 4378 H 447.385 4.19653 -0.383305 0
M  V30 4379 H 446.109 3.24014 0.41015 0
M  V30 4380 H 444.768 3.23621 -1.72236 0
M  V30 4381 H 444.416 5.02998 -0.0155216 0
M  V30 4382 H 444.116 5.63551 -1.66384 0
M  V30 4383 H 445.64 6.04955 -0.828378 0
M  V30 4384 H 447.054 4.98349 -2.8341 0
M  V30 4385 H 445.451 4.79869 -3.60341 0
M  V30 4386 H 446.521 3.39192 -3.46521 0
M  V30 4387 N 447.864 1.01787 1.20321 0
M  V30 4388 C 449.112 0.706538 1.89347 0
M  V30 4389 C 449.433 -0.766289 1.79313 0
M  V30 4390 O 448.703 -1.55126 1.19635 0
M  V30 4391 H 447.283 0.258348 0.700903 0
M  V30 4392 H 449.945 1.28974 1.46122 0
M  V30 4393 H 449.041 0.991066 2.95946 0
M  V30 4394 N 449.342 -1.36122 0.79427 0
M  V30 4395 C 450.272 -2.32551 0.210328 0
M  V30 4396 C 451.253 -1.56884 -0.657386 0
M  V30 4397 O 452.438 -1.85014 -0.590207 0
M  V30 4398 C 449.568 -3.41128 -0.651819 0
M  V30 4399 C 448.522 -4.27842 0.116395 0
M  V30 4400 C 447.848 -5.2763 -0.86666 0
M  V30 4401 C 449.148 -5.05647 1.30837 0
M  V30 4402 H 450.842 -2.81636 1.01594 0
M  V30 4403 H 448.388 -1.35407 0.489981 0
M  V30 4404 H 450.341 -4.07581 -1.07031 0
M  V30 4405 H 449.065 -2.90622 -1.49019 0
M  V30 4406 H 447.724 -3.62952 0.515915 0
M  V30 4407 H 447.372 -4.73395 -1.70019 0
M  V30 4408 H 447.072 -5.86514 -0.35705 0
M  V30 4409 H 448.596 -5.96955 -1.28361 0
M  V30 4410 H 450.01 -5.65113 0.965393 0
M  V30 4411 H 448.407 -5.73967 1.75161 0
M  V30 4412 H 449.477 -4.37006 2.10128 0
M  V30 4413 N 450.82 -0.546701 -1.47814 0
M  V30 4414 C 451.783 0.196287 -2.28358 0
M  V30 4415 C 452.783 0.852437 -1.36346 0
M  V30 4416 O 453.973 0.709913 -1.59078 0
M  V30 4417 C 451.105 1.28579 -3.15722 0
M  V30 4418 H 452.298 -0.511086 -2.95513 0
M  V30 4419 H 449.851 -0.303248 -1.5333 0
M  V30 4420 H 450.586 2.0259 -2.53235 0
M  V30 4421 H 450.371 0.820229 -3.83425 0
M  V30 4422 H 451.861 1.80793 -3.76435 0
M  V30 4423 N 452.299 1.55045 -0.282633 0
M  V30 4424 C 453.249 2.19514 0.616249 0
M  V30 4425 C 454.233 1.16216 1.11277 0
M  V30 4426 O 455.425 1.42004 1.05659 0
M  V30 4427 C 452.554 2.92548 1.7964 0
M  V30 4428 C 451.64 4.03142 1.31671 0
M  V30 4429 N 452.031 5.0276 0.553695 0
M  V30 4430 C 450.329 4.1635 1.59903 0
M  V30 4431 C 451.03 5.80923 0.30054 0
M  V30 4432 N 450.006 5.3651 0.875116 0
M  V30 4433 H 453.808 2.93889 0.0255363 0
M  V30 4434 H 451.322 1.62169 -0.0865362 0
M  V30 4435 H 453.319 3.37188 2.45173 0
M  V30 4436 H 451.979 2.19685 2.39099 0
M  V30 4437 H 452.99 5.17512 0.20032 0
M  V30 4438 H 449.667 3.54682 2.20243 0
M  V30 4439 H 451.057 6.7118 -0.311053 0
M  V30 4440 N 453.777 0.010035 1.57597 0
M  V30 4441 C 454.709 -1.00649 2.05918 0
M  V30 4442 C 455.722 -1.30077 0.978964 0
M  V30 4443 O 456.911 -1.26878 1.25556 0
M  V30 4444 C 454.011 -2.33876 2.45265 0
M  V30 4445 C 453.184 -2.23242 3.7614 0
M  V30 4446 C 452.243 -3.39242 4.02245 0
M  V30 4447 O 451.269 -3.1698 4.72771 0
M  V30 4448 N 452.471 -4.6242 3.50924 0
M  V30 4449 H 455.236 -0.594333 2.93748 0
M  V30 4450 H 452.797 -0.17714 1.60928 0
M  V30 4451 H 454.789 -3.1027 2.59836 0
M  V30 4452 H 453.359 -2.66799 1.62902 0
M  V30 4453 H 452.579 -1.31696 3.71551 0
M  V30 4454 H 453.867 -2.13321 4.61922 0
M  V30 4455 H 453.265 -4.83404 2.93832 0
M  V30 4456 H 451.822 -5.36046 3.70807 0
M  V30 4457 N 455.255 -1.55392 -0.262866 0
M  V30 4458 C 456.502 -1.76476 -0.993109 0
M  V30 4459 C 456.83 -0.571479 -1.85915 0
M  V30 4460 O 456.085 0.445733 -1.90556 0
M  V30 4461 C 456.384 -3.02889 -1.89718 0
M  V30 4462 C 456.05 -4.34974 -1.18781 0
M  V30 4463 C 454.712 -4.7087 -0.991699 0
M  V30 4464 C 457.064 -5.16695 -0.683798 0
M  V30 4465 C 454.392 -5.86036 -0.279024 0
M  V30 4466 C 456.744 -6.32598 0.0153327 0
M  V30 4467 C 455.408 -6.67127 0.223062 0
M  V30 4468 H 454.678 -0.64577 -0.363404 0
M  V30 4469 H 457.325 -1.89664 -0.264525 0
M  V30 4470 H 455.63 -2.84644 -2.6923 0
M  V30 4471 H 457.327 -3.16399 -2.46359 0
M  V30 4472 H 453.917 -4.06765 -1.35058 0
M  V30 4473 H 458.101 -4.8943 -0.8229 0
M  V30 4474 H 453.357 -6.11306 -0.107456 0
M  V30 4475 H 457.531 -6.95171 0.413584 0
M  V30 4476 H 455.158 -7.56216 0.777265 0
M  V30 4477 N 456.733 0.527833 -1.48498 0
M  V30 4478 C 457.681 1.65313 -1.63628 0
M  V30 4479 C 458.675 1.6177 -0.502676 0
M  V30 4480 O 459.881 1.66601 -0.681469 0
M  V30 4481 H 456.256 0.547518 -0.515488 0
M  V30 4482 H 458.227 1.49696 -2.58135 0
M  V30 4483 C 456.976 3.03576 -1.6952 0
M  V30 4484 H 456.299 3.06997 -2.56111 0
M  V30 4485 H 457.739 3.81923 -1.84149 0
M  V30 4486 C 456.198 3.34089 -0.43432 0
M  V30 4487 O 456.728 3.99151 0.451852 0
M  V30 4488 N 454.934 2.88991 -0.305368 0
M  V30 4489 H 454.481 2.36222 -1.02747 0
M  V30 4490 H 454.439 3.09776 0.537249 0
M  V30 4491 N 458.211 1.37122 0.776871 0
M  V30 4492 C 459.121 1.34651 1.9211 0
M  V30 4493 C 460.137 0.246824 1.7224 0
M  V30 4494 O 461.313 0.48134 1.95563 0
M  V30 4495 C 458.378 1.14748 3.2716 0
M  V30 4496 C 457.439 2.34308 3.5972 0
M  V30 4497 C 456.672 2.15345 4.88326 0
M  V30 4498 O 456.895 1.13507 5.58992 0
M  V30 4499 O 455.829 3.03414 5.1983 0
M  V30 4500 H 459.655 2.31013 1.97146 0
M  V30 4501 H 457.24 1.17799 0.918901 0
M  V30 4502 H 459.122 1.05616 4.0795 0
M  V30 4503 H 457.797 0.214562 3.22988 0
M  V30 4504 H 456.704 2.49011 2.79185 0
M  V30 4505 H 458.037 3.26149 3.68629 0
M  V30 4506 N 459.689 -1.00246 1.21608 0
M  V30 4507 C 461.105 -1.26435 0.973975 0
M  V30 4508 C 461.305 -1.98642 -0.338143 0
M  V30 4509 O 460.361 -2.29026 -1.06317 0
M  V30 4510 C 461.674 -2.08551 2.16626 0
M  V30 4511 C 463.222 -2.21769 2.20879 0
M  V30 4512 C 463.697 -3.07267 3.39633 0
M  V30 4513 N 465.188 -3.14855 3.39736 0
M  V30 4514 C 465.923 -3.81274 4.28273 0
M  V30 4515 N 465.419 -4.497 5.27012 0
M  V30 4516 N 467.212 -3.7794 4.16074 0
M  V30 4517 H 459.363 -0.518089 2.05984 0
M  V30 4518 H 461.626 -0.291368 0.902113 0
M  V30 4519 H 461.332 -1.62847 3.11727 0
M  V30 4520 H 461.206 -3.09303 2.15897 0
M  V30 4521 H 463.593 -2.66691 1.26332 0
M  V30 4522 H 463.674 -1.20478 2.25652 0
M  V30 4523 H 463.318 -2.63047 4.34475 0
M  V30 4524 H 463.248 -4.08678 3.321 0
M  V30 4525 H 465.739 -2.66147 2.6828 0
M  V30 4526 H 466.052 -4.98092 5.90867 0
M  V30 4527 H 464.397 -4.48479 5.30935 0
M  V30 4528 H 467.588 -3.23638 3.38195 0
M  V30 4529 H 467.761 -4.29424 4.85282 0
M  V30 4530 N 461.167 -1.02423 -1.1978 0
M  V30 4531 C 462.413 -0.72878 -1.89896 0
M  V30 4532 C 462.768 0.734248 -1.77839 0
M  V30 4533 O 462.061 1.52733 -1.15685 0
M  V30 4534 C 462.255 -1.1088 -3.39765 0
M  V30 4535 C 462.084 -2.60722 -3.66407 0
M  V30 4536 C 460.854 -3.27623 -3.84696 0
M  V30 4537 C 463.052 -3.58924 -3.68345 0
M  V30 4538 N 461.034 -4.66617 -3.98926 0
M  V30 4539 C 462.405 -4.83514 -3.8809 0
M  V30 4540 C 464.46 -3.52788 -3.51347 0
M  V30 4541 C 463.163 -6.0271 -3.92598 0
M  V30 4542 C 465.189 -4.71394 -3.5713 0
M  V30 4543 C 464.551 -5.94796 -3.77356 0
M  V30 4544 H 460.65 -0.318473 -0.714212 0
M  V30 4545 H 463.234 -1.3106 -1.43984 0
M  V30 4546 H 461.405 -0.555233 -3.84411 0
M  V30 4547 H 463.137 -0.766082 -3.97383 0
M  V30 4548 H 459.892 -2.7804 -3.83393 0
M  V30 4549 H 460.316 -5.38805 -4.099 0
M  V30 4550 H 464.958 -2.58372 -3.3467 0
M  V30 4551 H 462.676 -6.97499 -4.08069 0
M  V30 4552 H 466.262 -4.6827 -3.45275 0
M  V30 4553 H 465.142 -6.85037 -3.81699 0
M  V30 4554 N 462.645 1.35699 -0.801477 0
M  V30 4555 C 463.891 1.99208 -0.380022 0
M  V30 4556 C 464.224 1.63445 1.04878 0
M  V30 4557 O 463.499 0.895223 1.72673 0
M  V30 4558 C 463.782 3.55755 -0.557708 0
M  V30 4559 C 463.635 4.01332 -2.03107 0
M  V30 4560 C 464.954 4.40096 0.0197968 0
M  V30 4561 H 462.073 0.723667 -0.139552 0
M  V30 4562 H 464.715 1.60928 -1.01006 0
M  V30 4563 H 462.865 3.88494 -0.0213741 0
M  V30 4564 H 464.537 3.79026 -2.62939 0
M  V30 4565 H 462.78 3.52429 -2.52936 0
M  V30 4566 H 463.451 5.10234 -2.1063 0
M  V30 4567 H 465.927 4.13786 -0.438179 0
M  V30 4568 H 464.803 5.48735 -0.134477 0
M  V30 4569 H 465.064 4.2786 1.11303 0
M  V30 4570 N 464.123 0.554532 1.47522 0
M  V30 4571 C 465.369 0.0295227 2.02779 0
M  V30 4572 C 465.702 -1.31582 1.42828 0
M  V30 4573 O 464.977 -1.85561 0.582872 0
M  V30 4574 C 465.26 -0.0664057 3.60039 0
M  V30 4575 C 465.113 1.30585 4.30427 0
M  V30 4576 C 466.432 -0.781162 4.33112 0
M  V30 4577 H 463.551 0.0122027 0.736899 0
M  V30 4578 H 466.193 0.716305 1.7598 0
M  V30 4579 H 464.343 -0.651307 3.83002 0
M  V30 4580 H 466.015 1.93374 4.18813 0
M  V30 4581 H 464.258 1.88125 3.90886 0
M  V30 4582 H 464.929 1.19147 5.38988 0
M  V30 4583 H 467.405 -0.284565 4.15126 0
M  V30 4584 H 466.281 -0.817237 5.42782 0
M  V30 4585 H 466.542 -1.83672 4.0214 0
M  V30 4586 N 465.601 -1.54893 0.290851 0
M  V30 4587 C 466.564 -2.21824 -0.576784 0
M  V30 4588 C 467.564 -1.20104 -1.06919 0
M  V30 4589 O 468.754 -1.44906 -0.966843 0
M  V30 4590 C 465.886 -2.89662 -1.79747 0
M  V30 4591 H 467.079 -2.99899 0.00784051 0
M  V30 4592 H 464.632 -1.56245 0.0415934 0
M  V30 4593 H 465.367 -2.15639 -2.42219 0
M  V30 4594 H 465.152 -3.64219 -1.45214 0
M  V30 4595 H 466.642 -3.4075 -2.4141 0
M  V30 4596 N 467.08 -0.0183926 -1.57589 0
M  V30 4597 C 468.043 0.951986 -2.08494 0
M  V30 4598 C 469.043 1.26092 -0.997874 0
M  V30 4599 O 470.233 1.20304 -1.25987 0
M  V30 4600 C 467.365 2.27165 -2.54182 0
M  V30 4601 H 468.558 0.511307 -2.95509 0
M  V30 4602 H 466.111 0.229444 -1.54607 0
M  V30 4603 H 466.846 2.75884 -1.70465 0
M  V30 4604 H 466.631 2.06057 -3.33591 0
M  V30 4605 H 468.121 2.9674 -2.93828 0
M  V30 4606 N 468.558 1.5553 0.254621 0
M  V30 4607 C 469.835 1.6774 1.00611 0
M  V30 4608 C 470.215 0.555993 2.03647 0
M  V30 4609 O 469.563 -0.441583 2.24193 0
M  V30 4610 C 469.773 3.07725 1.6464 0
M  V30 4611 C 471.121 3.66074 2.15116 0
M  V30 4612 O 472.145 3.10476 1.74595 0
M  V30 4613 O 471.004 4.63526 2.89493 0
M  V30 4614 H 468.098 0.681958 0.467828 0
M  V30 4615 H 470.644 1.67863 0.24902 0
M  V30 4616 H 469.416 3.80792 0.900734 0
M  V30 4617 H 469.039 3.1158 2.46989 0
M  V30 4618 N 470.036 -0.519951 1.48776 0
M  V30 4619 C 471.285 -1.27175 1.56555 0
M  V30 4620 C 471.598 -1.9401 0.248869 0
M  V30 4621 O 472.804 -2.70725 0.205004 0
M  V30 4622 C 471.26 -2.30811 2.76142 0
M  V30 4623 C 470.868 -1.7 4.14493 0
M  V30 4624 C 472.612 -3.06937 2.9324 0
M  V30 4625 C 470.519 -2.71635 5.25327 0
M  V30 4626 H 469.449 -0.478329 0.582853 0
M  V30 4627 H 472.1 -0.547916 1.75129 0
M  V30 4628 H 470.482 -3.06274 2.51023 0
M  V30 4629 H 471.656 -1.00658 4.49672 0
M  V30 4630 H 469.971 -1.06331 4.02595 0
M  V30 4631 H 472.568 -3.82905 3.73213 0
M  V30 4632 H 472.911 -3.63409 2.03075 0
M  V30 4633 H 473.444 -2.38589 3.18308 0
M  V30 4634 H 470.183 -2.1997 6.1749 0
M  V30 4635 H 469.703 -3.39275 4.94624 0
M  V30 4636 H 471.382 -3.34429 5.53865 0
M  V30 4637 N 471.514 -1.37532 -0.769588 0
M  V30 4638 C 472.461 -1.3347 -1.88293 0
M  V30 4639 C 473.431 -0.199891 -1.64893 0
M  V30 4640 O 474.616 -0.389594 -1.8678 0
M  V30 4641 C 471.756 -1.14968 -3.25387 0
M  V30 4642 C 470.869 -2.37698 -3.60727 0
M  V30 4643 C 470.004 -2.12051 -4.8704 0
M  V30 4644 C 469.043 -3.30636 -5.15117 0
M  V30 4645 N 468.18 -3.04527 -6.3262 0
M  V30 4646 H 473.02 -2.28658 -1.911 0
M  V30 4647 H 470.557 -1.13622 -0.934257 0
M  V30 4648 H 472.515 -1.02261 -4.04473 0
M  V30 4649 H 471.145 -0.234263 -3.21949 0
M  V30 4650 H 470.197 -2.61137 -2.76608 0
M  V30 4651 H 471.509 -3.26131 -3.77413 0
M  V30 4652 H 470.663 -1.96388 -5.74035 0
M  V30 4653 H 469.402 -1.20959 -4.72462 0
M  V30 4654 H 468.407 -3.46836 -4.26597 0
M  V30 4655 H 469.632 -4.22582 -5.31603 0
M  V30 4656 H 467.578 -2.16067 -6.19396 0
M  V30 4657 H 467.495 -3.86503 -6.49732 0
M  V30 4658 H 468.763 -2.92485 -7.22546 0
M  V30 4659 N 472.992 0.995999 -1.22138 0
M  V30 4660 C 474.408 1.25917 -0.980667 0
M  V30 4661 C 474.608 1.98819 0.327604 0
M  V30 4662 O 473.664 2.29587 1.05101 0
M  V30 4663 C 474.977 2.07399 -2.17729 0
M  V30 4664 C 476.525 2.20594 -2.22052 0
M  V30 4665 C 477 3.05462 -3.41258 0
M  V30 4666 N 478.491 3.13049 -3.41401 0
M  V30 4667 C 479.226 3.78997 -4.30289 0
M  V30 4668 N 478.722 4.46899 -5.2939 0
M  V30 4669 N 480.515 3.75728 -4.18073 0
M  V30 4670 H 472.666 0.507158 -2.06256 0
M  V30 4671 H 474.929 0.28658 -0.903646 0
M  V30 4672 H 474.635 1.61191 -3.12586 0
M  V30 4673 H 474.509 3.08154 -2.17534 0
M  V30 4674 H 476.896 2.66017 -1.27745 0
M  V30 4675 H 476.977 1.1928 -2.26287 0
M  V30 4676 H 476.621 2.60739 -4.35864 0
M  V30 4677 H 476.551 4.06911 -3.34262 0
M  V30 4678 H 479.042 2.64721 -2.69688 0
M  V30 4679 H 479.355 4.94952 -5.935 0
M  V30 4680 H 477.7 4.45657 -5.33306 0
M  V30 4681 H 480.891 3.2184 -3.39907 0
M  V30 4682 H 481.064 4.26845 -4.87553 0
M  V30 4683 N 474.47 1.03057 1.19235 0
M  V30 4684 C 475.433 0.617418 2.20727 0
M  V30 4685 C 476.433 -0.319856 1.57587 0
M  V30 4686 O 477.623 -0.106633 1.73873 0
M  V30 4687 C 474.755 -0.096296 3.40764 0
M  V30 4688 H 475.948 1.51544 2.58794 0
M  V30 4689 H 473.501 0.821949 1.32942 0
M  V30 4690 H 474.236 -1.00859 3.08217 0
M  V30 4691 H 474.021 0.577217 3.87828 0
M  V30 4692 H 475.511 -0.372219 4.15938 0
M  V30 4693 N 475.948 -1.35272 0.808662 0
M  V30 4694 C 477.178 -2.02652 0.401953 0
M  V30 4695 C 477.586 -1.6108 -0.992462 0
M  V30 4696 O 476.929 -0.804984 -1.65123 0
M  V30 4697 C 476.991 -3.57174 0.408246 0
M  V30 4698 C 476.655 -4.22019 1.75353 0
M  V30 4699 C 477.652 -4.43552 2.71215 0
M  V30 4700 C 475.337 -4.59093 2.03811 0
M  V30 4701 C 477.331 -5.01264 3.93717 0
M  V30 4702 C 475.018 -5.16519 3.26576 0
M  V30 4703 C 476.016 -5.37546 4.21347 0
M  V30 4704 O 475.704 -5.93761 5.41944 0
M  V30 4705 H 475.436 -0.656495 0.161216 0
M  V30 4706 H 477.99 -1.73829 1.0942 0
M  V30 4707 H 476.22 -3.85197 -0.340608 0
M  V30 4708 H 477.909 -4.05893 0.0235623 0
M  V30 4709 H 478.675 -4.15288 2.50522 0
M  V30 4710 H 474.554 -4.42039 1.30854 0
M  V30 4711 H 478.098 -5.17592 4.67701 0
M  V30 4712 H 473.995 -5.4421 3.47139 0
M  V30 4713 H 474.763 -6.1221 5.43269 0
M  V30 4714 N 477.426 -0.562348 -1.47226 0
M  V30 4715 C 478.672 -0.0485293 -2.03342 0
M  V30 4716 C 479.027 1.28898 -1.42839 0
M  V30 4717 O 478.32 1.82719 -0.576563 0
M  V30 4718 C 478.514 0.0969817 -3.57268 0
M  V30 4719 C 478.343 -1.22487 -4.32697 0
M  V30 4720 C 477.113 -1.79357 -4.72397 0
M  V30 4721 C 479.311 -2.14332 -4.67511 0
M  V30 4722 N 477.293 -3.05493 -5.32491 0
M  V30 4723 C 478.664 -3.25049 -5.27961 0
M  V30 4724 C 480.719 -2.14263 -4.4944 0
M  V30 4725 C 479.422 -4.35804 -5.72248 0
M  V30 4726 C 481.448 -3.24033 -4.94729 0
M  V30 4727 C 480.81 -4.3347 -5.55233 0
M  V30 4728 H 476.909 -0.0600464 -0.779691 0
M  V30 4729 H 479.493 -0.750769 -1.79643 0
M  V30 4730 H 477.664 0.768353 -3.80724 0
M  V30 4731 H 479.396 0.613333 -4.00025 0
M  V30 4732 H 476.151 -1.33093 -4.54514 0
M  V30 4733 H 476.575 -3.698 -5.67077 0
M  V30 4734 H 481.217 -1.30935 -4.02015 0
M  V30 4735 H 478.935 -5.19888 -6.18661 0
M  V30 4736 H 482.521 -3.25073 -4.82513 0
M  V30 4737 H 481.401 -5.17008 -5.89638 0
M  V30 4738 N 478.904 1.54736 -0.299062 0
M  V30 4739 C 480.152 1.99706 0.31017 0
M  V30 4740 C 480.473 1.18896 1.54559 0
M  V30 4741 O 479.743 0.284445 1.93824 0
M  V30 4742 H 478.323 0.737686 0.117596 0
M  V30 4743 H 480.985 1.9054 -0.409943 0
M  V30 4744 H 480.081 3.06596 0.58355 0
M  V30 4745 N 480.382 0.0267497 1.57577 0
M  V30 4746 C 481.659 -0.690926 1.82991 0
M  V30 4747 C 482.039 -1.90471 0.910164 0
M  V30 4748 O 481.387 -2.28474 -0.0347985 0
M  V30 4749 C 481.597 -1.07139 3.32148 0
M  V30 4750 C 482.945 -1.46402 3.98562 0
M  V30 4751 O 483.969 -1.16443 3.36629 0
M  V30 4752 O 482.828 -2.02214 5.07712 0
M  V30 4753 H 479.922 -0.338747 0.75444 0
M  V30 4754 H 482.468 0.0542506 1.69613 0
M  V30 4755 H 481.24 -0.207394 3.9075 0
M  V30 4756 H 480.863 -1.87481 3.50623 0
M  V30 4757 N 481.861 -1.55662 -0.24637 0
M  V30 4758 C 483.107 -1.77782 -0.975779 0
M  V30 4759 C 483.44 -0.592103 -1.84953 0
M  V30 4760 O 482.715 0.409588 -1.90138 0
M  V30 4761 C 482.998 -3.09788 -1.83584 0
M  V30 4762 C 482.851 -4.38764 -0.990241 0
M  V30 4763 C 484.17 -3.38029 -2.81823 0
M  V30 4764 H 481.289 -0.646789 -0.353317 0
M  V30 4765 H 483.931 -1.88398 -0.246248 0
M  V30 4766 H 482.081 -3.00869 -2.45784 0
M  V30 4767 H 483.753 -4.59675 -0.386897 0
M  V30 4768 H 481.996 -4.32798 -0.294626 0
M  V30 4769 H 482.667 -5.27514 -1.62584 0
M  V30 4770 H 485.143 -3.46915 -2.2976 0
M  V30 4771 H 484.019 -4.3161 -3.39122 0
M  V30 4772 H 484.28 -2.58968 -3.58313 0
M  V30 4773 N 483.339 0.512053 -1.4905 0
M  V30 4774 C 484.272 1.63209 -1.59493 0
M  V30 4775 C 485.25 1.56407 -0.444481 0
M  V30 4776 O 486.434 1.76623 -0.658535 0
M  V30 4777 C 483.561 3.01685 -1.53961 0
M  V30 4778 C 482.607 3.26786 -2.74068 0
M  V30 4779 S 483.44 3.11107 -4.35859 0
M  V30 4780 C 484.596 4.51997 -4.32954 0
M  V30 4781 H 484.829 1.54104 -2.54243 0
M  V30 4782 H 482.362 0.696382 -1.37804 0
M  V30 4783 H 484.32 3.81538 -1.51455 0
M  V30 4784 H 482.981 3.08215 -0.605178 0
M  V30 4785 H 482.174 4.27849 -2.66386 0
M  V30 4786 H 481.776 2.54635 -2.73928 0
M  V30 4787 H 484.068 5.43871 -4.03993 0
M  V30 4788 H 485.011 4.64731 -5.34257 0
M  V30 4789 H 485.419 4.32159 -3.63178 0
M  V30 4790 N 484.817 1.37938 0.762283 0
M  V30 4791 C 486.094 1.24196 1.51112 0
M  V30 4792 C 486.474 -0.160409 2.1049 0
M  V30 4793 O 485.822 -1.16904 1.96331 0
M  V30 4794 C 486.032 2.34537 2.58445 0
M  V30 4795 C 487.38 2.7254 3.25588 0
M  V30 4796 O 488.404 2.33783 2.68745 0
M  V30 4797 O 487.263 3.39343 4.28379 0
M  V30 4798 H 484.357 0.485175 0.669727 0
M  V30 4799 H 486.903 1.49743 0.798438 0
M  V30 4800 H 485.675 3.28406 2.12756 0
M  V30 4801 H 485.298 2.10505 3.37303 0
M  V30 4802 N 486.295 -0.989507 1.22664 0
M  V30 4803 C 487.52 -1.77031 1.08051 0
M  V30 4804 C 487.945 -1.84535 -0.364483 0
M  V30 4805 O 487.303 -1.3003 -1.2634 0
M  V30 4806 C 487.351 -3.18 1.70024 0
M  V30 4807 O 486.455 -4.01161 0.956216 0
M  V30 4808 H 485.796 -0.545008 0.379292 0
M  V30 4809 H 488.326 -1.24277 1.62531 0
M  V30 4810 H 488.336 -3.68616 1.74888 0
M  V30 4811 H 487.011 -3.11853 2.75174 0
M  V30 4812 H 485.588 -3.59687 0.98384 0
M  V30 4813 N 487.773 -1.03688 -1.18687 0
M  V30 4814 C 488.706 -0.569112 -2.2099 0
M  V30 4815 C 489.684 0.394315 -1.57746 0
M  V30 4816 O 490.868 0.309519 -1.85941 0
M  V30 4817 C 487.995 0.169104 -3.38278 0
M  V30 4818 C 487.041 -0.746989 -4.19908 0
M  V30 4819 S 487.874 -2.22773 -4.86963 0
M  V30 4820 C 489.03 -1.50025 -6.07654 0
M  V30 4821 H 489.263 -1.43589 -2.60326 0
M  V30 4822 H 486.796 -0.847507 -1.29061 0
M  V30 4823 H 488.754 0.588868 -4.06254 0
M  V30 4824 H 487.415 1.01172 -2.9736 0
M  V30 4825 H 486.608 -0.176626 -5.0369 0
M  V30 4826 H 486.21 -1.10543 -3.5729 0
M  V30 4827 H 488.502 -0.791217 -6.72864 0
M  V30 4828 H 489.445 -2.31498 -6.69189 0
M  V30 4829 H 489.853 -0.994245 -5.55675 0
M  V30 4830 N 489.251 1.34841 -0.815825 0
M  V30 4831 C 490.199 2.31549 -0.220888 0
M  V30 4832 C 491.193 1.5707 0.634457 0
M  V30 4833 O 492.399 1.72125 0.526589 0
M  V30 4834 H 488.774 0.750153 -0.0526782 0
M  V30 4835 H 490.745 2.7926 -1.05149 0
M  V30 4836 C 489.494 3.42335 0.608427 0
M  V30 4837 H 488.817 3.9978 -0.0404121 0
M  V30 4838 H 490.257 4.12258 0.990931 0
M  V30 4839 C 488.716 2.86173 1.77782 0
M  V30 4840 O 489.246 2.80474 2.87571 0
M  V30 4841 N 487.452 2.43093 1.59229 0
M  V30 4842 H 486.999 2.47928 0.699237 0
M  V30 4843 H 486.957 2.05866 2.37627 0
M  V30 4844 N 490.729 0.570148 1.46925 0
M  V30 4845 C 491.975 0.0510284 2.02736 0
M  V30 4846 C 492.308 -1.3006 1.44215 0
M  V30 4847 O 491.583 -1.84932 0.602521 0
M  V30 4848 C 491.866 -0.028215 3.60089 0
M  V30 4849 C 491.719 1.35142 4.29018 0
M  V30 4850 C 493.038 -0.735181 4.33916 0
M  V30 4851 H 490.157 0.0200178 0.736728 0
M  V30 4852 H 492.799 0.73493 1.75211 0
M  V30 4853 H 490.949 -0.610648 3.83671 0
M  V30 4854 H 492.621 1.97806 4.16738 0
M  V30 4855 H 490.864 1.9226 3.88868 0
M  V30 4856 H 491.535 1.24857 5.37694 0
M  V30 4857 H 494.011 -0.240519 4.15404 0
M  V30 4858 H 492.887 -0.759622 5.43618 0
M  V30 4859 H 493.148 -1.79397 4.04066 0
M  V30 4860 N 492.207 -1.54576 0.307264 0
M  V30 4861 C 493.17 -2.22423 -0.553224 0
M  V30 4862 C 494.17 -1.21231 -1.05639 0
M  V30 4863 O 495.36 -1.45923 -0.951419 0
M  V30 4864 C 492.492 -2.91552 -1.76664 0
M  V30 4865 H 493.685 -2.99874 0.0396484 0
M  V30 4866 H 491.238 -1.56192 0.0581629 0
M  V30 4867 H 491.973 -2.18196 -2.39918 0
M  V30 4868 H 491.758 -3.65738 -1.41343 0
M  V30 4869 H 493.248 -3.43292 -2.37783 0
M  V30 4870 N 493.685 -0.035106 -1.57561 0
M  V30 4871 C 494.932 0.642229 -1.92046 0
M  V30 4872 C 495.26 1.7179 -0.91206 0
M  V30 4873 O 494.515 1.95544 0.0781153 0
M  V30 4874 C 494.814 1.29149 -3.3325 0
M  V30 4875 C 494.48 0.345604 -4.49574 0
M  V30 4876 C 493.142 0.0852775 -4.81124 0
M  V30 4877 C 495.494 -0.303569 -5.20315 0
M  V30 4878 C 492.822 -0.831927 -5.80772 0
M  V30 4879 C 495.174 -1.20886 -6.20942 0
M  V30 4880 C 493.838 -1.47802 -6.50931 0
M  V30 4881 H 493.108 0.235008 -0.702746 0
M  V30 4882 H 495.755 -0.0981529 -1.91248 0
M  V30 4883 H 494.06 2.10676 -3.30337 0
M  V30 4884 H 495.757 1.82223 -3.57205 0
M  V30 4885 H 492.347 0.558683 -4.24943 0
M  V30 4886 H 496.531 -0.115515 -4.96166 0
M  V30 4887 H 491.787 -1.0481 -6.02349 0
M  V30 4888 H 495.961 -1.71804 -6.74875 0
M  V30 4889 H 493.588 -2.19039 -7.2796 0
M  V30 4890 N 495.163 1.55791 0.238111 0
M  V30 4891 C 496.412 1.77234 0.962868 0
M  V30 4892 C 496.725 0.600661 1.86149 0
M  V30 4893 O 497.931 0.698315 2.62366 0
M  V30 4894 C 496.387 3.13808 1.76218 0
M  V30 4895 C 495.995 4.3865 0.910518 0
M  V30 4896 C 497.739 3.44585 2.47914 0
M  V30 4897 C 495.646 5.66252 1.70623 0
M  V30 4898 H 494.576 0.660731 0.36325 0
M  V30 4899 H 497.227 1.8221 0.217242 0
M  V30 4900 H 495.609 3.02963 2.55009 0
M  V30 4901 H 496.783 4.60507 0.164316 0
M  V30 4902 H 495.098 4.15271 0.30647 0
M  V30 4903 H 497.695 4.3714 3.07917 0
M  V30 4904 H 498.038 2.66314 3.19973 0
M  V30 4905 H 498.571 3.56685 1.76127 0
M  V30 4906 H 495.31 6.47369 1.02923 0
M  V30 4907 H 494.83 5.48483 2.42748 0
M  V30 4908 H 496.509 6.05829 2.27114 0
M  V30 4909 N 496.642 -0.504142 1.49319 0
M  V30 4910 C 497.867 -1.28729 1.62615 0
M  V30 4911 C 498.292 -1.85752 0.296309 0
M  V30 4912 O 497.65 -1.65704 -0.735649 0
M  V30 4913 C 497.698 -2.39561 2.69524 0
M  V30 4914 O 496.802 -3.43324 2.28478 0
M  V30 4915 H 496.143 -0.380172 0.544395 0
M  V30 4916 H 498.673 -0.603872 1.95485 0
M  V30 4917 H 498.683 -2.8537 2.91595 0
M  V30 4918 H 497.358 -1.97423 3.66056 0
M  V30 4919 H 495.935 -3.03455 2.16725 0
M  V30 4920 N 498.12 -1.38341 -0.754957 0
M  V30 4921 C 499.052 -1.31347 -1.87831 0
M  V30 4922 C 500.065 -0.225955 -1.61224 0
M  V30 4923 O 501.254 -0.48341 -1.7183 0
M  V30 4924 C 498.354 -1.01201 -3.23437 0
M  V30 4925 C 497.527 -2.20834 -3.77559 0
M  V30 4926 C 496.586 -1.87454 -4.91678 0
M  V30 4927 O 495.612 -2.59934 -5.06382 0
M  V30 4928 N 496.814 -0.828682 -5.74555 0
M  V30 4929 H 499.579 -2.28147 -1.94342 0
M  V30 4930 H 497.14 -1.32184 -0.934828 0
M  V30 4931 H 499.132 -0.769249 -3.97322 0
M  V30 4932 H 497.702 -0.132011 -3.12321 0
M  V30 4933 H 496.922 -2.61184 -2.95256 0
M  V30 4934 H 498.21 -3.00678 -4.10451 0
M  V30 4935 H 497.608 -0.227591 -5.65242 0
M  V30 4936 H 496.165 -0.645802 -6.48593 0
M  V30 4937 N 499.598 0.982988 -1.23187 0
M  V30 4938 C 500.528 2.09301 -1.03515 0
M  V30 4939 C 501.509 1.70035 0.0471136 0
M  V30 4940 O 502.694 1.93847 -0.117029 0
M  V30 4941 C 499.824 3.4167 -0.622791 0
M  V30 4942 C 498.778 3.94828 -1.65211 0
M  V30 4943 C 498.104 5.23362 -1.09527 0
M  V30 4944 C 499.404 4.2439 -3.04451 0
M  V30 4945 H 501.098 2.26016 -1.96359 0
M  V30 4946 H 498.644 1.08611 -0.945501 0
M  V30 4947 H 500.597 4.18746 -0.472233 0
M  V30 4948 H 499.321 3.24811 0.341329 0
M  V30 4949 H 497.98 3.19895 -1.79061 0
M  V30 4950 H 497.628 5.02852 -0.122211 0
M  V30 4951 H 497.328 5.59895 -1.783 0
M  V30 4952 H 498.852 6.03062 -0.956511 0
M  V30 4953 H 500.266 4.92225 -2.93917 0
M  V30 4954 H 498.663 4.72118 -3.70438 0
M  V30 4955 H 499.733 3.31765 -3.53638 0
M  V30 4956 N 501.076 1.04316 1.18135 0
M  V30 4957 C 502.324 0.746542 1.87806 0
M  V30 4958 C 502.645 -0.728082 1.80898 0
M  V30 4959 O 501.915 -1.52554 1.22899 0
M  V30 4960 H 500.495 0.273157 0.695265 0
M  V30 4961 H 503.157 1.32044 1.43354 0
M  V30 4962 H 502.253 1.05362 2.93778 0
M  V30 4963 N 502.554 -1.34406 0.822964 0
M  V30 4964 C 503.802 -1.97892 0.410245 0
M  V30 4965 C 504.123 -1.65567 -1.03017 0
M  V30 4966 O 503.393 -0.94642 -1.71522 0
M  V30 4967 H 501.973 -0.732049 0.148707 0
M  V30 4968 H 504.635 -1.64043 1.05242 0
M  V30 4969 H 503.731 -3.07579 0.529284 0
M  V30 4970 N 504.032 -0.577932 -1.46621 0
M  V30 4971 C 505.281 -0.0594281 -2.01612 0
M  V30 4972 C 505.594 1.30663 -1.45556 0
M  V30 4973 O 506.8 1.91621 -1.92337 0
M  V30 4974 C 505.256 -0.0556666 -3.59857 0
M  V30 4975 C 504.864 -1.41975 -4.24908 0
M  V30 4976 C 506.608 0.409143 -4.22524 0
M  V30 4977 C 504.515 -1.37397 -5.75218 0
M  V30 4978 H 503.445 -0.0184469 -0.753774 0
M  V30 4979 H 506.096 -0.728869 -1.68404 0
M  V30 4980 H 504.478 0.679843 -3.90121 0
M  V30 4981 H 505.652 -2.17461 -4.0626 0
M  V30 4982 H 503.967 -1.82419 -3.74316 0
M  V30 4983 H 506.564 0.46211 -5.32699 0
M  V30 4984 H 506.907 1.42565 -3.91128 0
M  V30 4985 H 507.44 -0.272152 -3.96868 0
M  V30 4986 H 504.179 -2.36714 -6.11267 0
M  V30 4987 H 503.699 -0.661239 -5.96144 0
M  V30 4988 H 505.378 -1.08484 -6.3784 0
M  V30 4989 N 505.51 1.54411 -0.315457 0
M  V30 4990 C 506.787 1.92562 0.343398 0
M  V30 4991 C 507.167 1.24423 1.70535 0
M  V30 4992 O 506.515 0.385051 2.25232 0
M  V30 4993 C 506.725 3.46168 0.443687 0
M  V30 4994 C 508.073 4.18659 0.707783 0
M  V30 4995 O 509.097 3.52281 0.52693 0
M  V30 4996 O 507.956 5.36198 1.05612 0
M  V30 4997 H 505.05 0.80379 0.194552 0
M  V30 4998 H 507.596 1.65738 -0.364577 0
M  V30 4999 H 506.368 3.8792 -0.513172 0
M  V30 5000 H 505.991 3.79073 1.19956 0
M  V30 5001 N 506.988 0.0434614 1.5754 0
M  V30 5002 C 508.234 -0.632971 1.92669 0
M  V30 5003 C 508.567 -1.70947 0.921446 0
M  V30 5004 O 507.842 -1.94426 -0.0537202 0
M  V30 5005 C 508.125 -1.23619 3.38216 0
M  V30 5006 C 507.978 -0.168274 4.49485 0
M  V30 5007 C 509.297 -2.15008 3.84005 0
M  V30 5008 H 506.416 -0.228629 0.700641 0
M  V30 5009 H 509.058 0.103651 1.89717 0
M  V30 5010 H 507.208 -1.864 3.40863 0
M  V30 5011 H 508.88 0.463196 4.58969 0
M  V30 5012 H 507.123 0.504581 4.30855 0
M  V30 5013 H 507.794 -0.630218 5.48391 0
M  V30 5014 H 510.27 -1.62198 3.83185 0
M  V30 5015 H 509.146 -2.54161 4.86511 0
M  V30 5016 H 509.407 -3.04707 3.20322 0
M  V30 5017 N 508.466 -1.55915 -0.229846 0
M  V30 5018 C 509.429 -1.90914 -1.26824 0
M  V30 5019 C 510.429 -0.786999 -1.40225 0
M  V30 5020 O 511.619 -1.05484 -1.38632 0
M  V30 5021 C 508.751 -2.15264 -2.64337 0
M  V30 5022 H 509.944 -2.8378 -0.969998 0
M  V30 5023 H 507.497 -1.49069 -0.4699 0
M  V30 5024 H 508.232 -1.24923 -2.99274 0
M  V30 5025 H 508.017 -2.97005 -2.55989 0
M  V30 5026 H 509.507 -2.43467 -3.39284 0
M  V30 5027 N 509.944 0.496216 -1.49584 0
M  V30 5028 C 510.874 1.60576 -1.69521 0
M  V30 5029 C 511.855 1.61169 -0.543933 0
M  V30 5030 O 513.04 1.77834 -0.78031 0
M  V30 5031 C 510.17 2.99038 -1.76616 0
M  V30 5032 C 509.124 3.13312 -2.91581 0
M  V30 5033 C 508.45 4.53172 -2.83794 0
M  V30 5034 C 509.75 2.92886 -4.32452 0
M  V30 5035 H 511.444 1.44146 -2.62416 0
M  V30 5036 H 508.99 0.692024 -1.26282 0
M  V30 5037 H 510.943 3.76564 -1.8915 0
M  V30 5038 H 509.667 3.16568 -0.80324 0
M  V30 5039 H 508.326 2.38213 -2.78658 0
M  V30 5040 H 507.974 4.67585 -1.854 0
M  V30 5041 H 507.674 4.63662 -3.60958 0
M  V30 5042 H 509.198 5.32752 -2.98342 0
M  V30 5043 H 510.612 3.60178 -4.46032 0
M  V30 5044 H 509.009 3.14844 -5.10875 0
M  V30 5045 H 510.079 1.88966 -4.46565 0
M  V30 5046 N 511.423 1.38739 0.74761 0
M  V30 5047 C 512.834 1.31507 1.32524 0
M  V30 5048 C 513.185 -0.0263963 1.96182 0
M  V30 5049 O 512.31 -0.92849 1.95469 0
M  V30 5050 C 512.905 2.38162 2.40966 0
M  V30 5051 C 511.464 2.34489 2.94434 0
M  V30 5052 C 510.611 2.20712 1.67873 0
M  V30 5053 H 513.562 1.4901 0.546043 0
M  V30 5054 H 513.583 2.04222 3.21051 0
M  V30 5055 H 513.095 3.35783 1.94605 0
M  V30 5056 H 511.196 1.40467 3.45108 0
M  V30 5057 H 511.309 3.28861 3.48407 0
M  V30 5058 H 509.673 1.67667 1.91729 0
M  V30 5059 H 510.456 3.20285 1.23582 0
M  V30 5060 N 512.901 -0.976442 1.23707 0
M  V30 5061 C 513.851 -2.0544 0.988851 0
M  V30 5062 C 514.835 -1.60762 -0.0665901 0
M  V30 5063 O 516.027 -1.76396 0.14604 0
M  V30 5064 C 513.156 -3.38258 0.586223 0
M  V30 5065 C 512.242 -3.89523 1.67728 0
M  V30 5066 N 512.633 -4.13823 2.90834 0
M  V30 5067 C 510.931 -4.18097 1.55277 0
M  V30 5068 C 511.632 -4.55731 3.61502 0
M  V30 5069 N 510.608 -4.60394 2.8903 0
M  V30 5070 H 514.41 -2.22191 1.92376 0
M  V30 5071 H 511.924 -1.15954 1.13704 0
M  V30 5072 H 513.921 -4.15075 0.389658 0
M  V30 5073 H 512.581 -3.22898 -0.341594 0
M  V30 5074 H 513.592 -4.01529 3.271 0
M  V30 5075 H 510.269 -4.11719 0.692351 0
M  V30 5076 H 511.659 -4.83018 4.67059 0
M  V30 5077 N 514.379 -1.04941 -1.1758 0
M  V30 5078 C 515.795 -0.770282 -1.39781 0
M  V30 5079 C 515.995 0.636417 -1.91186 0
M  V30 5080 O 515.051 1.39923 -2.10185 0
M  V30 5081 C 516.364 -1.82376 -2.3908 0
M  V30 5082 C 517.912 -1.84569 -2.52791 0
M  V30 5083 C 518.387 -2.88933 -3.55361 0
M  V30 5084 N 519.878 -2.8788 -3.62877 0
M  V30 5085 C 520.613 -3.65282 -4.41992 0
M  V30 5086 N 520.109 -4.52461 -5.24643 0
M  V30 5087 N 521.902 -3.53732 -4.36841 0
M  V30 5088 H 514.053 -1.95705 -0.825438 0
M  V30 5089 H 516.316 -0.847284 -0.425222 0
M  V30 5090 H 516.022 -2.83323 -2.08376 0
M  V30 5091 H 515.896 -1.66327 -3.38549 0
M  V30 5092 H 518.283 -0.842879 -2.82807 0
M  V30 5093 H 518.364 -2.04696 -1.53406 0
M  V30 5094 H 518.008 -3.89398 -3.26085 0
M  V30 5095 H 517.938 -2.66059 -4.54445 0
M  V30 5096 H 520.429 -2.24666 -3.03864 0
M  V30 5097 H 520.742 -5.08211 -5.82187 0
M  V30 5098 H 519.087 -4.56524 -5.24033 0
M  V30 5099 H 522.278 -2.85021 -3.71323 0
M  V30 5100 H 522.451 -4.14302 -4.98255 0
M  V30 5101 N 515.857 1.33968 -0.830081 0
M  V30 5102 C 517.087 2.01987 -0.434142 0
M  V30 5103 C 517.495 1.62639 0.96671 0
M  V30 5104 O 516.838 0.831151 1.63822 0
M  V30 5105 C 516.9 3.5648 -0.465018 0
M  V30 5106 C 516.564 4.19176 -1.82045 0
M  V30 5107 C 517.561 4.39181 -2.78237 0
M  V30 5108 C 515.246 4.55792 -2.11089 0
M  V30 5109 C 517.24 4.94937 -4.01642 0
M  V30 5110 C 514.927 5.11258 -3.34752 0
M  V30 5111 C 515.925 5.30775 -4.29845 0
M  V30 5112 O 515.613 5.85064 -5.51322 0
M  V30 5113 H 515.345 0.653847 -0.171639 0
M  V30 5114 H 517.899 1.72066 -1.12171 0
M  V30 5115 H 516.129 3.8569 0.279284 0
M  V30 5116 H 517.818 4.05804 -0.0881334 0
M  V30 5117 H 518.584 4.11249 -2.57097 0
M  V30 5118 H 514.463 4.39901 -1.3787 0
M  V30 5119 H 518.007 5.10086 -4.75876 0
M  V30 5120 H 513.904 5.38619 -3.55753 0
M  V30 5121 H 514.672 6.03489 -5.5294 0
M  V30 5122 N 517.335 0.585699 1.46312 0
M  V30 5123 C 518.267 -0.183687 2.28463 0
M  V30 5124 C 519.28 -0.85264 1.38686 0
M  V30 5125 O 520.469 -0.721701 1.6326 0
M  V30 5126 C 517.569 -1.27977 3.13808 0
M  V30 5127 C 516.742 -0.702164 4.31727 0
M  V30 5128 C 515.801 -1.68633 4.98447 0
M  V30 5129 O 514.827 -1.22121 5.55945 0
M  V30 5130 N 516.029 -3.02047 4.95729 0
M  V30 5131 H 518.794 0.521127 2.95134 0
M  V30 5132 H 516.355 0.423673 1.56258 0
M  V30 5133 H 518.347 -1.9375 3.55307 0
M  V30 5134 H 516.917 -1.8874 2.4919 0
M  V30 5135 H 516.137 0.1331 3.93975 0
M  V30 5136 H 517.425 -0.296101 5.07938 0
M  V30 5137 H 516.823 -3.42457 4.50266 0
M  V30 5138 H 515.38 -3.63301 5.41161 0
M  V30 5139 N 518.813 -1.54241 0.323641 0
M  V30 5140 C 520.09 -1.92741 -0.333181 0
M  V30 5141 C 520.47 -1.25326 -1.69872 0
M  V30 5142 O 519.818 -0.396991 -2.25025 0
M  V30 5143 C 520.028 -3.46399 -0.425322 0
M  V30 5144 C 521.376 -4.19029 -0.68557 0
M  V30 5145 O 522.4 -3.52555 -0.50824 0
M  V30 5146 O 521.259 -5.36751 -1.02767 0
M  V30 5147 H 518.353 -0.804811 -0.190286 0
M  V30 5148 H 520.899 -1.65542 0.373361 0
M  V30 5149 H 519.671 -3.87643 0.533737 0
M  V30 5150 H 519.294 -3.79704 -1.17944 0
M  V30 5151 N 520.291 -0.0518155 -1.57515 0
M  V30 5152 C 521.54 0.621286 -1.91893 0
M  V30 5153 C 521.853 1.71966 -0.932052 0
M  V30 5154 O 523.059 2.45096 -1.16791 0
M  V30 5155 C 521.515 1.15641 -3.40816 0
M  V30 5156 C 521.123 0.0901146 -4.47909 0
M  V30 5157 C 522.867 1.80472 -3.84227 0
M  V30 5158 C 520.774 0.638154 -5.87947 0
M  V30 5159 H 519.704 0.235835 -0.716169 0
M  V30 5160 H 522.355 -0.120809 -1.83102 0
M  V30 5161 H 520.737 1.95084 -3.44613 0
M  V30 5162 H 521.911 -0.683525 -4.55702 0
M  V30 5163 H 520.226 -0.460774 -4.13843 0
M  V30 5164 H 522.823 2.22471 -4.86221 0
M  V30 5165 H 523.166 2.65669 -3.20508 0
M  V30 5166 H 523.699 1.07683 -3.82948 0
M  V30 5167 H 520.438 -0.176202 -6.55263 0
M  V30 5168 H 519.958 1.37976 -5.83714 0
M  V30 5169 H 521.637 1.12085 -6.37217 0
M  V30 5170 N 521.769 1.56035 0.221574 0
M  V30 5171 C 522.997 1.8313 0.962864 0
M  V30 5172 C 523.412 0.630934 1.77946 0
M  V30 5173 O 522.769 -0.400519 1.78051 0
M  V30 5174 C 522.82 3.08742 1.88045 0
M  V30 5175 O 522.541 4.24147 1.09686 0
M  V30 5176 C 524.042 3.48824 2.73563 0
M  V30 5177 H 521.262 0.608775 0.282194 0
M  V30 5178 H 523.806 2.03124 0.23681 0
M  V30 5179 H 521.961 2.90723 2.56045 0
M  V30 5180 H 522.375 4.95505 1.71974 0
M  V30 5181 H 523.849 4.39752 3.3365 0
M  V30 5182 H 524.326 2.70575 3.45956 0
M  V30 5183 H 524.932 3.69282 2.10976 0
M  V30 5184 N 523.247 -0.488276 1.49845 0
M  V30 5185 C 524.493 -1.24341 1.6021 0
M  V30 5186 C 524.826 -1.91967 0.293651 0
M  V30 5187 O 524.101 -1.81323 -0.703718 0
M  V30 5188 C 524.384 -2.3005 2.77036 0
M  V30 5189 C 524.237 -1.66842 4.17713 0
M  V30 5190 C 525.556 -3.31509 2.89464 0
M  V30 5191 H 522.675 -0.450704 0.583125 0
M  V30 5192 H 525.317 -0.539673 1.82174 0
M  V30 5193 H 523.467 -2.90071 2.58439 0
M  V30 5194 H 525.139 -1.1055 4.47858 0
M  V30 5195 H 523.382 -0.972079 4.22768 0
M  V30 5196 H 524.053 -2.43576 4.95353 0
M  V30 5197 H 526.529 -2.81493 3.06433 0
M  V30 5198 H 525.405 -4.02822 3.72861 0
M  V30 5199 H 525.666 -3.94603 1.99351 0
M  V30 5200 N 524.725 -1.39134 -0.740242 0
M  V30 5201 C 525.688 -1.37217 -1.83587 0
M  V30 5202 C 526.688 -0.270221 -1.58513 0
M  V30 5203 O 527.878 -0.527843 -1.6601 0
M  V30 5204 C 525.01 -1.13959 -3.21288 0
M  V30 5205 H 526.203 -2.34705 -1.86691 0
M  V30 5206 H 523.756 -1.24622 -0.94335 0
M  V30 5207 H 524.491 -0.17131 -3.23847 0
M  V30 5208 H 524.276 -1.93754 -3.40884 0
M  V30 5209 H 525.766 -1.15346 -4.01354 0
M  V30 5210 N 526.204 0.969867 -1.24223 0
M  V30 5211 C 527.429 1.75289 -1.10853 0
M  V30 5212 C 527.854 1.85091 0.335079 0
M  V30 5213 O 527.212 1.32024 1.24255 0
M  V30 5214 C 527.26 3.15255 -1.75062 0
M  V30 5215 O 526.364 3.99589 -1.01992 0
M  V30 5216 H 525.705 0.538904 -0.387915 0
M  V30 5217 H 528.235 1.21675 -1.64488 0
M  V30 5218 H 528.245 3.65787 -1.80731 0
M  V30 5219 H 526.92 3.07436 -2.801 0
M  V30 5220 H 525.497 3.58077 -1.04094 0
M  V30 5221 N 527.682 1.05563 1.17022 0
M  V30 5222 C 528.931 0.763036 1.8671 0
M  V30 5223 C 529.244 -0.712857 1.82147 0
M  V30 5224 O 530.45 -1.11955 2.47343 0
M  V30 5225 C 528.906 1.31474 3.35026 0
M  V30 5226 C 528.514 2.82034 3.48081 0
M  V30 5227 C 530.258 1.09935 4.10018 0
M  V30 5228 C 528.165 3.30486 4.90442 0
M  V30 5229 H 527.095 0.281747 0.699382 0
M  V30 5230 H 529.746 1.2734 1.32124 0
M  V30 5231 H 528.128 0.732171 3.89173 0
M  V30 5232 H 529.302 3.46178 3.04133 0
M  V30 5233 H 527.617 3.02156 2.86515 0
M  V30 5234 H 530.214 1.43632 5.15048 0
M  V30 5235 H 530.557 0.0373072 4.16283 0
M  V30 5236 H 531.09 1.64732 3.62089 0
M  V30 5237 H 527.829 4.36137 4.89352 0
M  V30 5238 H 527.349 2.71086 5.35044 0
M  V30 5239 H 529.028 3.25382 5.59227 0
M  V30 5240 N 529.16 -1.33526 0.837174 0
M  V30 5241 C 530.408 -1.97446 0.431211 0
M  V30 5242 C 530.729 -1.6665 -1.01255 0
M  V30 5243 O 529.999 -0.964559 -1.70508 0
M  V30 5244 H 528.579 -0.73043 0.156463 0
M  V30 5245 H 531.241 -1.62918 1.06976 0
M  V30 5246 H 530.337 -3.07001 0.561877 0
M  V30 5247 N 530.638 -0.59345 -1.46 0
M  V30 5248 C 531.866 -0.0890934 -2.06708 0
M  V30 5249 C 532.281 1.2205 -1.44046 0
M  V30 5250 O 531.638 1.74029 -0.549551 0
M  V30 5251 C 531.689 0.0720263 -3.61428 0
M  V30 5252 O 531.41 -1.18574 -4.21748 0
M  V30 5253 C 532.911 0.609487 -4.3909 0
M  V30 5254 H 530.131 -0.0623628 -0.668096 0
M  V30 5255 H 532.675 -0.817171 -1.87464 0
M  V30 5256 H 530.83 0.750369 -3.80063 0
M  V30 5257 H 531.244 -1.0064 -5.14754 0
M  V30 5258 H 532.718 0.671363 -5.47902 0
M  V30 5259 H 533.195 1.62878 -4.07882 0
M  V30 5260 H 533.801 -0.03434 -4.25286 0
M  V30 5261 N 532.116 1.54067 -0.331816 0
M  V30 5262 C 533.079 2.23275 0.517768 0
M  V30 5263 C 534.079 1.22897 1.03697 0
M  V30 5264 O 535.269 1.47419 0.928084 0
M  V30 5265 C 532.401 2.94326 1.72004 0
M  V30 5266 H 533.594 2.99773 -0.0873507 0
M  V30 5267 H 531.147 1.56079 -0.0830042 0
M  V30 5268 H 531.882 2.21986 2.36417 0
M  V30 5269 H 531.667 3.67941 1.35507 0
M  V30 5270 H 533.157 3.47031 2.32291 0
M  V30 5271 N 533.594 0.0601682 1.57485 0
M  V30 5272 C 534.824 -0.620037 1.97076 0
M  V30 5273 C 535.232 -1.64381 0.936784 0
M  V30 5274 O 534.575 -1.83497 -0.0863377 0
M  V30 5275 C 534.637 -1.35617 3.32939 0
M  V30 5276 C 534.301 -0.487208 4.54396 0
M  V30 5277 C 535.298 0.250428 5.19297 0
M  V30 5278 C 532.983 -0.415494 5.00579 0
M  V30 5279 C 534.977 1.04812 6.28723 0
M  V30 5280 C 532.664 0.385879 6.0988 0
M  V30 5281 C 533.662 1.11637 6.73815 0
M  V30 5282 O 533.35 1.90454 7.81014 0
M  V30 5283 H 533.082 -0.173664 0.653312 0
M  V30 5284 H 535.636 0.1256 2.05016 0
M  V30 5285 H 533.866 -2.14763 3.2158 0
M  V30 5286 H 535.555 -1.92749 3.57215 0
M  V30 5287 H 536.321 0.204546 4.84568 0
M  V30 5288 H 532.2 -0.973679 4.506 0
M  V30 5289 H 535.744 1.6188 6.78558 0
M  V30 5290 H 531.641 0.433366 6.44044 0
M  V30 5291 H 532.409 1.82762 7.97835 0
M  V30 5292 N 535.072 -1.5615 -0.213296 0
M  V30 5293 C 536.019 -1.93086 -1.26437 0
M  V30 5294 C 536.989 -0.789086 -1.4616 0
M  V30 5295 O 538.174 -1.04569 -1.59593 0
M  V30 5296 C 535.314 -2.26003 -2.608 0
M  V30 5297 C 534.427 -3.53156 -2.48807 0
M  V30 5298 C 533.562 -3.7548 -3.7575 0
M  V30 5299 C 532.601 -4.96119 -3.58514 0
M  V30 5300 N 531.738 -5.14791 -4.77425 0
M  V30 5301 H 536.578 -2.82707 -0.942376 0
M  V30 5302 H 534.115 -1.39919 -0.454001 0
M  V30 5303 H 536.073 -2.431 -3.39055 0
M  V30 5304 H 534.703 -1.39546 -2.91079 0
M  V30 5305 H 533.755 -3.44207 -1.61944 0
M  V30 5306 H 535.067 -4.41565 -2.31996 0
M  V30 5307 H 534.221 -3.92718 -4.62447 0
M  V30 5308 H 532.96 -2.85368 -3.95495 0
M  V30 5309 H 531.965 -4.78823 -2.70201 0
M  V30 5310 H 533.19 -5.87724 -3.40231 0
M  V30 5311 H 531.136 -4.27623 -4.97468 0
M  V30 5312 H 531.053 -5.97347 -4.63371 0
M  V30 5313 H 532.321 -5.36471 -5.65525 0
M  V30 5314 N 536.55 0.480323 -1.50102 0
M  V30 5315 C 537.78 1.25475 -1.64133 0
M  V30 5316 C 538.188 1.8647 -0.320272 0
M  V30 5317 O 537.531 1.69561 0.70673 0
M  V30 5318 C 537.593 2.40996 -2.6676 0
M  V30 5319 C 537.257 2.00711 -4.10565 0
M  V30 5320 C 538.254 1.53492 -4.96725 0
M  V30 5321 C 535.939 2.09714 -4.56427 0
M  V30 5322 C 537.933 1.15806 -6.26792 0
M  V30 5323 C 535.62 1.7164 -5.86501 0
M  V30 5324 C 536.618 1.24763 -6.71508 0
M  V30 5325 O 536.306 0.872122 -7.99155 0
M  V30 5326 H 536.038 0.385983 -0.554971 0
M  V30 5327 H 538.592 0.580848 -1.97016 0
M  V30 5328 H 536.822 3.11528 -2.291 0
M  V30 5329 H 538.511 3.02981 -2.70106 0
M  V30 5330 H 539.277 1.45966 -4.62514 0
M  V30 5331 H 535.156 2.4515 -3.90413 0
M  V30 5332 H 538.7 0.791465 -6.93096 0
M  V30 5333 H 534.597 1.78822 -6.20236 0
M  V30 5334 H 535.365 1.00178 -8.12346 0
M  V30 5335 N 538.028 1.39524 0.732853 0
M  V30 5336 C 538.976 1.38563 1.86824 0
M  V30 5337 C 539.97 0.268467 1.67259 0
M  V30 5338 O 541.176 0.438613 1.74574 0
M  V30 5339 H 537.551 0.432737 0.615014 0
M  V30 5340 H 539.522 2.34328 1.84751 0
M  V30 5341 C 538.271 1.2481 3.24527 0
M  V30 5342 H 537.594 2.10044 3.40179 0
M  V30 5343 H 539.034 1.28194 4.04156 0
M  V30 5344 C 537.493 -0.0432825 3.36872 0
M  V30 5345 O 538.023 -1.01268 3.88726 0
M  V30 5346 N 536.229 -0.107055 2.90403 0
M  V30 5347 H 535.776 0.682512 2.48394 0
M  V30 5348 H 535.734 -0.970618 2.99042 0
M  V30 5349 N 539.506 -0.963266 1.24736 0
M  V30 5350 C 540.454 -2.07985 1.04139 0
M  V30 5351 C 541.448 -1.69381 -0.0250556 0
M  V30 5352 O 542.654 -1.79531 0.129863 0
M  V30 5353 H 539.029 -0.680627 0.319768 0
M  V30 5354 H 541 -2.22517 1.98818 0
M  V30 5355 C 539.749 -3.4123 0.667615 0
M  V30 5356 H 539.072 -3.71397 1.48 0
M  V30 5357 H 540.512 -4.20244 0.563136 0
M  V30 5358 C 538.971 -3.3104 -0.625647 0
M  V30 5359 O 539.501 -3.65334 -1.67016 0
M  V30 5360 N 537.707 -2.84168 -0.608033 0
M  V30 5361 H 537.254 -2.56458 0.242323 0
M  V30 5362 H 537.212 -2.77732 -1.47352 0
M  V30 5363 N 540.985 -1.06182 -1.16461 0
M  V30 5364 C 542.262 -0.691364 -1.82974 0
M  V30 5365 C 542.642 0.827377 -1.9421 0
M  V30 5366 O 541.99 1.73723 -1.48434 0
M  V30 5367 C 542.2 -1.39199 -3.20038 0
M  V30 5368 C 543.548 -1.53647 -3.95825 0
M  V30 5369 O 544.572 -1.35181 -3.29552 0
M  V30 5370 O 543.431 -1.83932 -5.14618 0
M  V30 5371 H 540.525 -0.244605 -0.789998 0
M  V30 5372 H 543.071 -1.16203 -1.23673 0
M  V30 5373 H 541.843 -2.42766 -3.06888 0
M  V30 5374 H 541.466 -0.911335 -3.87015 0
M  V30 5375 N 542.463 1.3308 -0.844243 0
M  V30 5376 C 543.393 2.3161 -0.296493 0
M  V30 5377 C 544.374 1.59215 0.598707 0
M  V30 5378 O 545.559 1.87077 0.521134 0
M  V30 5379 C 542.689 3.43313 0.524762 0
M  V30 5380 C 541.643 4.27115 -0.275106 0
M  V30 5381 C 540.969 5.30483 0.670236 0
M  V30 5382 C 542.269 5.00443 -1.49514 0
M  V30 5383 H 543.963 2.77672 -1.11976 0
M  V30 5384 H 541.509 1.33496 -0.539899 0
M  V30 5385 H 543.462 4.11273 0.918298 0
M  V30 5386 H 542.186 2.95952 1.3813 0
M  V30 5387 H 540.845 3.60787 -0.650267 0
M  V30 5388 H 540.493 4.79379 1.52332 0
M  V30 5389 H 540.193 5.87435 0.139123 0
M  V30 5390 H 541.717 6.01308 1.06117 0
M  V30 5391 H 543.131 5.61141 -1.17447 0
M  V30 5392 H 541.528 5.67071 -1.96343 0
M  V30 5393 H 542.598 4.28906 -2.26202 0
M  V30 5394 N 543.941 0.601185 1.45683 0
M  V30 5395 C 545.169 0.100054 2.06658 0
M  V30 5396 C 545.584 -1.21285 1.44691 0
M  V30 5397 O 544.941 -1.73735 0.558772 0
M  V30 5398 C 544.992 -0.0528579 3.61461 0
M  V30 5399 O 544.713 1.20809 4.21114 0
M  V30 5400 C 546.214 -0.586193 4.39407 0
M  V30 5401 H 543.434 0.065905 0.667756 0
M  V30 5402 H 545.978 0.827101 1.87028 0
M  V30 5403 H 544.133 -0.730203 3.80456 0
M  V30 5404 H 544.547 1.03368 5.14213 0
M  V30 5405 H 546.021 -0.642297 5.4825 0
M  V30 5406 H 546.498 -1.60713 4.0874 0
M  V30 5407 H 547.104 0.0568935 4.25262 0
M  V30 5408 N 545.419 -1.53889 0.339982 0
M  V30 5409 C 546.349 -2.27843 -0.510856 0
M  V30 5410 C 547.33 -1.29267 -1.10563 0
M  V30 5411 O 548.515 -1.58104 -1.12768 0
M  V30 5412 C 545.645 -3.04857 -1.66372 0
M  V30 5413 C 544.599 -4.10907 -1.19746 0
M  V30 5414 C 543.925 -4.75855 -2.43857 0
M  V30 5415 C 545.225 -5.21435 -0.300501 0
M  V30 5416 H 546.919 -2.99212 0.106067 0
M  V30 5417 H 544.465 -1.43904 0.0524533 0
M  V30 5418 H 546.418 -3.5533 -2.26537 0
M  V30 5419 H 545.142 -2.31133 -2.30749 0
M  V30 5420 H 543.801 -3.61342 -0.618654 0
M  V30 5421 H 543.449 -3.9873 -3.06633 0
M  V30 5422 H 543.149 -5.47502 -2.13343 0
M  V30 5423 H 544.673 -5.2911 -3.04754 0
M  V30 5424 H 546.087 -5.67565 -0.80889 0
M  V30 5425 H 544.484 -6.00036 -0.0874076 0
M  V30 5426 H 545.554 -4.80328 0.664321 0
M  V30 5427 N 546.897 -0.0685191 -1.57451 0
M  V30 5428 C 548.313 0.288101 -1.56978 0
M  V30 5429 C 548.513 1.70262 -1.07765 0
M  V30 5430 O 547.569 2.4135 -0.742054 0
M  V30 5431 C 548.882 0.100745 -3.00531 0
M  V30 5432 C 550.43 0.170531 -3.12535 0
M  V30 5433 C 550.905 0.0114944 -4.57999 0
M  V30 5434 N 552.396 0.0672065 -4.63151 0
M  V30 5435 C 553.131 -0.0314813 -5.73391 0
M  V30 5436 N 552.627 -0.183503 -6.92557 0
M  V30 5437 N 554.42 0.0253489 -5.62094 0
M  V30 5438 H 546.571 -0.993026 -1.87757 0
M  V30 5439 H 548.834 -0.386981 -0.865419 0
M  V30 5440 H 548.54 -0.875197 -3.40636 0
M  V30 5441 H 548.414 0.854457 -3.67395 0
M  V30 5442 H 550.801 1.13696 -2.72318 0
M  V30 5443 H 550.882 -0.614229 -2.48316 0
M  V30 5444 H 550.526 -0.951684 -4.98904 0
M  V30 5445 H 550.456 0.815617 -5.20245 0
M  V30 5446 H 552.947 0.183246 -3.77455 0
M  V30 5447 H 553.26 -0.251041 -7.72392 0
M  V30 5448 H 551.605 -0.218822 -6.94655 0
M  V30 5449 H 554.796 0.142794 -4.67882 0
M  V30 5450 H 554.969 -0.0550166 -6.47977 0
M  V30 5451 N 548.375 1.56261 0.205012 0
M  V30 5452 C 549.338 1.92908 1.23771 0
M  V30 5453 C 550.338 0.809208 1.38955 0
M  V30 5454 O 551.528 1.07676 1.36936 0
M  V30 5455 C 548.66 2.19442 2.60879 0
M  V30 5456 H 549.853 2.85287 0.924728 0
M  V30 5457 H 547.406 1.49798 0.446125 0
M  V30 5458 H 548.141 1.29668 2.97248 0
M  V30 5459 H 547.926 3.0104 2.51232 0
M  V30 5460 H 549.416 2.48833 3.35368 0
M  V30 5461 N 549.853 -0.472356 1.50355 0
M  V30 5462 C 551.101 -1.22211 1.60962 0
M  V30 5463 C 551.422 -1.92497 0.311439 0
M  V30 5464 O 550.692 -1.8405 -0.671002 0
M  V30 5465 H 549.272 -0.454092 0.593135 0
M  V30 5466 H 551.934 -0.544977 1.87126 0
M  V30 5467 H 551.03 -1.9707 2.42012 0
M  V30 5468 N 551.331 -1.39911 -0.725443 0
M  V30 5469 C 552.561 -1.40744 -1.51244 0
M  V30 5470 C 552.969 -0.00275403 -1.892 0
M  V30 5471 O 552.312 0.981299 -1.55294 0
M  V30 5472 C 552.374 -2.22527 -2.82351 0
M  V30 5473 C 552.038 -3.71053 -2.66774 0
M  V30 5474 C 553.035 -4.63916 -2.34686 0
M  V30 5475 C 550.72 -4.14753 -2.83347 0
M  V30 5476 C 552.714 -5.98463 -2.19366 0
M  V30 5477 C 550.401 -5.49372 -2.67644 0
M  V30 5478 C 551.399 -6.41042 -2.357 0
M  V30 5479 O 551.087 -7.73181 -2.20107 0
M  V30 5480 H 550.819 -0.482314 -0.473655 0
M  V30 5481 H 553.373 -1.84472 -0.903284 0
M  V30 5482 H 551.603 -1.73563 -3.45562 0
M  V30 5483 H 553.292 -2.15421 -3.44018 0
M  V30 5484 H 554.058 -4.31453 -2.21525 0
M  V30 5485 H 549.937 -3.43728 -3.072 0
M  V30 5486 H 553.481 -6.69979 -1.94354 0
M  V30 5487 H 549.378 -5.81424 -2.80387 0
M  V30 5488 H 550.146 -7.84008 -2.35103 0
M  V30 5489 N 552.809 0.956637 -1.25245 0
M  V30 5490 C 554.034 1.74104 -1.12706 0
M  V30 5491 C 554.459 1.85436 0.315429 0
M  V30 5492 O 553.817 1.33334 1.22848 0
M  V30 5493 C 553.865 3.1338 -1.78396 0
M  V30 5494 O 552.969 3.98485 -1.06224 0
M  V30 5495 H 552.31 0.53476 -0.393609 0
M  V30 5496 H 554.84 1.19924 -1.65769 0
M  V30 5497 H 554.85 3.6385 -1.846 0
M  V30 5498 H 553.525 3.04448 -2.83345 0
M  V30 5499 H 552.102 3.56952 -1.07886 0
M  V30 5500 N 554.287 1.06798 1.15896 0
M  V30 5501 C 555.517 0.807522 1.90165 0
M  V30 5502 C 555.925 -0.642417 1.7796 0
M  V30 5503 O 555.268 -1.45193 1.12537 0
M  V30 5504 C 555.33 1.12939 3.41299 0
M  V30 5505 C 554.994 2.57879 3.7729 0
M  V30 5506 C 555.991 3.56118 3.78782 0
M  V30 5507 C 553.676 2.93311 4.07767 0
M  V30 5508 C 555.67 4.87827 4.10248 0
M  V30 5509 C 553.357 4.25219 4.38899 0
M  V30 5510 C 554.355 5.22287 4.4012 0
M  V30 5511 O 554.043 6.51826 4.70508 0
M  V30 5512 H 553.775 0.291946 0.609708 0
M  V30 5513 H 556.329 1.42627 1.47806 0
M  V30 5514 H 554.559 0.45359 3.84031 0
M  V30 5515 H 556.248 0.852363 3.9685 0
M  V30 5516 H 557.014 3.30086 3.55342 0
M  V30 5517 H 552.893 2.18409 4.05979 0
M  V30 5518 H 556.437 5.63586 4.11116 0
M  V30 5519 H 552.334 4.51006 4.61805 0
M  V30 5520 H 553.102 6.56893 4.88298 0
M  V30 5521 N 555.766 -1.3263 0.851289 0
M  V30 5522 C 556.729 -2.27247 0.298541 0
M  V30 5523 C 557.729 -1.51467 -0.539847 0
M  V30 5524 O 558.919 -1.7061 -0.351843 0
M  V30 5525 C 556.051 -3.35964 -0.578004 0
M  V30 5526 H 557.244 -2.7765 1.13359 0
M  V30 5527 H 554.797 -1.43245 0.625354 0
M  V30 5528 H 555.532 -2.90823 -1.435 0
M  V30 5529 H 555.317 -3.92094 0.0220539 0
M  V30 5530 H 556.807 -4.06472 -0.957626 0
M  V30 5531 N 557.244 -0.608902 -1.45362 0
M  V30 5532 C 558.176 0.147318 -2.28726 0
M  V30 5533 C 559.189 0.830468 -1.40025 0
M  V30 5534 O 560.378 0.695636 -1.64387 0
M  V30 5535 C 557.478 1.22968 -3.15804 0
M  V30 5536 C 556.651 0.633391 -4.3279 0
M  V30 5537 C 555.71 1.60682 -5.01067 0
M  V30 5538 O 554.736 1.13261 -5.57818 0
M  V30 5539 N 555.938 2.94123 -5.00472 0
M  V30 5540 H 558.703 -0.568014 -2.94268 0
M  V30 5541 H 556.264 -0.448479 -1.55564 0
M  V30 5542 H 558.256 1.88072 -3.58345 0
M  V30 5543 H 556.826 1.84752 -2.52162 0
M  V30 5544 H 556.046 -0.195762 -3.93714 0
M  V30 5545 H 557.334 0.215255 -5.08344 0
M  V30 5546 H 556.732 3.3525 -4.55657 0
M  V30 5547 H 555.289 3.54646 -5.46872 0
M  V30 5548 N 558.722 1.53707 -0.348139 0
M  V30 5549 C 559.654 2.22725 0.540946 0
M  V30 5550 C 560.667 1.2354 1.06027 0
M  V30 5551 O 561.856 1.49867 0.96964 0
M  V30 5552 C 558.956 2.89756 1.75768 0
M  V30 5553 C 558.129 4.15297 1.37285 0
M  V30 5554 C 557.188 4.65697 2.44976 0
M  V30 5555 O 556.214 5.29798 2.08092 0
M  V30 5556 N 557.416 4.42017 3.763 0
M  V30 5557 H 560.181 2.99658 -0.0501592 0
M  V30 5558 H 557.742 1.60979 -0.17248 0
M  V30 5559 H 559.734 3.20388 2.47252 0
M  V30 5560 H 558.304 2.16382 2.25605 0
M  V30 5561 H 557.524 3.9116 0.488584 0
M  V30 5562 H 558.812 4.96948 1.09179 0
M  V30 5563 H 558.21 3.9076 4.09051 0
M  V30 5564 H 556.767 4.77242 4.4394 0
M  V30 5565 N 560.2 0.0768682 1.57412 0
M  V30 5566 C 561.163 -0.873949 2.11884 0
M  V30 5567 C 562.163 -1.22301 1.04398 0
M  V30 5568 O 563.353 -1.15545 1.30365 0
M  V30 5569 C 560.485 -2.17575 2.62438 0
M  V30 5570 H 561.678 -0.401278 2.97203 0
M  V30 5571 H 559.231 -0.171904 1.55352 0
M  V30 5572 H 559.966 -2.69368 1.80587 0
M  V30 5573 H 559.751 -1.93534 3.41009 0
M  V30 5574 H 561.241 -2.85631 3.04639 0
M  V30 5575 N 561.678 -1.56367 -0.196722 0
M  V30 5576 C 562.608 -1.97442 -1.24655 0
M  V30 5577 C 563.589 -0.846147 -1.47561 0
M  V30 5578 O 564.774 -1.11035 -1.59326 0
M  V30 5579 C 561.904 -2.31253 -2.59112 0
M  V30 5580 C 560.858 -3.46804 -2.50821 0
M  V30 5581 C 560.184 -3.66286 -3.89536 0
M  V30 5582 C 561.484 -4.8104 -2.03465 0
M  V30 5583 H 563.178 -2.85388 -0.905216 0
M  V30 5584 H 560.724 -1.37304 -0.434002 0
M  V30 5585 H 562.677 -2.58583 -3.32736 0
M  V30 5586 H 561.401 -1.40188 -2.94983 0
M  V30 5587 H 560.06 -3.19563 -1.79653 0
M  V30 5588 H 559.708 -2.72555 -4.22756 0
M  V30 5589 H 559.408 -4.4402 -3.84864 0
M  V30 5590 H 560.932 -3.9599 -4.64784 0
M  V30 5591 H 562.346 -5.07411 -2.66846 0
M  V30 5592 H 560.743 -5.62232 -2.09798 0
M  V30 5593 H 561.813 -4.74732 -0.98781 0
M  V30 5594 N 563.156 0.464375 -1.50603 0
M  V30 5595 C 564.433 1.22549 -1.5245 0
M  V30 5596 C 564.813 2.09327 -0.273035 0
M  V30 5597 O 564.161 2.16074 0.743242 0
M  V30 5598 C 564.371 2.05074 -2.82393 0
M  V30 5599 C 565.719 2.63036 -3.33313 0
M  V30 5600 O 566.743 2.1531 -2.8376 0
M  V30 5601 O 565.602 3.5001 -4.19709 0
M  V30 5602 H 562.696 0.556471 -0.611775 0
M  V30 5603 H 565.242 0.475648 -1.62898 0
M  V30 5604 H 564.014 1.41169 -3.64948 0
M  V30 5605 H 563.637 2.87179 -2.7498 0
M  V30 5606 N 564.634 1.40294 0.718013 0
M  V30 5607 C 565.859 1.41941 1.5122 0
M  V30 5608 C 566.284 0.0202371 1.88089 0
M  V30 5609 O 565.642 -0.971078 1.53101 0
M  V30 5610 C 565.69 2.3141 2.76554 0
M  V30 5611 O 564.794 1.75567 3.73162 0
M  V30 5612 H 564.135 0.482644 0.456016 0
M  V30 5613 H 566.665 1.84494 0.884478 0
M  V30 5614 H 566.675 2.46513 3.25108 0
M  V30 5615 H 565.35 3.33085 2.49053 0
M  V30 5616 H 563.927 1.69798 3.31999 0
M  V30 5617 N 566.112 -0.949982 1.2575 0
M  V30 5618 C 567.022 -2.08109 1.08295 0
M  V30 5619 C 568.038 -1.7399 0.0188181 0
M  V30 5620 O 569.214 -2.00187 0.220724 0
M  V30 5621 C 566.279 -3.39383 0.708534 0
M  V30 5622 C 565.34 -3.8734 1.85111 0
M  V30 5623 C 564.573 -5.12349 1.49447 0
M  V30 5624 O 564.796 -5.6905 0.392212 0
M  V30 5625 O 563.73 -5.5513 2.32624 0
M  V30 5626 H 567.556 -2.25738 2.03165 0
M  V30 5627 H 565.141 -1.06545 1.04731 0
M  V30 5628 H 567.023 -4.18277 0.512061 0
M  V30 5629 H 565.698 -3.23013 -0.210854 0
M  V30 5630 H 564.605 -3.09429 2.10248 0
M  V30 5631 H 565.938 -4.08216 2.74991 0
M  V30 5632 N 567.59 -1.07411 -1.15328 0
M  V30 5633 C 568.52 -0.716472 -2.22236 0
M  V30 5634 C 569.501 0.296373 -1.67498 0
M  V30 5635 O 570.686 0.168989 -1.93463 0
M  V30 5636 C 567.816 -0.114142 -3.47112 0
M  V30 5637 C 566.77 -1.05421 -4.14814 0
M  V30 5638 C 566.096 -0.314604 -5.33774 0
M  V30 5639 C 567.396 -2.38808 -4.64508 0
M  V30 5640 H 569.09 -1.61029 -2.52408 0
M  V30 5641 H 566.636 -0.775702 -1.21321 0
M  V30 5642 H 568.589 0.148001 -4.2114 0
M  V30 5643 H 567.313 0.814755 -3.16274 0
M  V30 5644 H 565.972 -1.30128 -3.42728 0
M  V30 5645 H 565.62 0.617772 -4.99192 0
M  V30 5646 H 565.32 -0.941209 -5.80013 0
M  V30 5647 H 566.844 -0.0602747 -6.1057 0
M  V30 5648 H 568.258 -2.18424 -5.3006 0
M  V30 5649 H 566.655 -2.97069 -5.21412 0
M  V30 5650 H 567.725 -3.01067 -3.80114 0
M  V30 5651 N 569.068 1.32177 -0.85831 0
M  V30 5652 C 570.317 1.96392 -0.459689 0
M  V30 5653 C 570.63 1.68659 0.990632 0
M  V30 5654 O 571.836 2.26641 1.49485 0
M  V30 5655 C 570.292 3.51542 -0.7711 0
M  V30 5656 C 569.9 3.8813 -2.2374 0
M  V30 5657 C 571.644 4.2221 -0.44038 0
M  V30 5658 C 569.551 5.36341 -2.49183 0
M  V30 5659 H 568.481 0.735007 -0.168169 0
M  V30 5660 H 571.132 1.50518 -1.0496 0
M  V30 5661 H 569.514 3.95846 -0.11058 0
M  V30 5662 H 570.688 3.54824 -2.94001 0
M  V30 5663 H 569.003 3.30497 -2.533 0
M  V30 5664 H 571.6 5.31234 -0.607855 0
M  V30 5665 H 571.943 4.11683 0.618291 0
M  V30 5666 H 572.476 3.83502 -1.05695 0
M  V30 5667 H 569.215 5.51892 -3.53689 0
M  V30 5668 H 568.735 5.7104 -1.83504 0
M  V30 5669 H 570.414 6.03466 -2.33318 0
M  V30 5670 N 570.547 0.616602 1.45037 0
M  V30 5671 C 571.477 -0.0840787 2.33349 0
M  V30 5672 C 572.458 -0.849641 1.4736 0
M  V30 5673 O 573.643 -0.818407 1.76113 0
M  V30 5674 C 570.773 -1.07604 3.3021 0
M  V30 5675 C 569.727 -0.423096 4.25904 0
M  V30 5676 C 569.053 -1.52394 5.12523 0
M  V30 5677 C 570.353 0.661457 5.18095 0
M  V30 5678 H 572.047 0.653333 2.92185 0
M  V30 5679 H 569.593 0.315634 1.40498 0
M  V30 5680 H 571.546 -1.57485 3.90866 0
M  V30 5681 H 570.27 -1.84416 2.69552 0
M  V30 5682 H 568.929 0.05493 3.66559 0
M  V30 5683 H 568.577 -2.28257 4.48227 0
M  V30 5684 H 568.277 -1.09251 5.77354 0
M  V30 5685 H 569.801 -2.02485 5.76049 0
M  V30 5686 H 571.215 0.246353 5.7277 0
M  V30 5687 H 569.612 1.01517 5.91451 0
M  V30 5688 H 570.682 1.53446 4.59981 0
M  V30 5689 N 572.025 -1.5352 0.356285 0
M  V30 5690 C 573.436 -1.86282 -0.12492 0
M  V30 5691 C 573.787 -1.27717 -1.48939 0
M  V30 5692 O 572.912 -0.595614 -2.08042 0
M  V30 5693 C 573.507 -3.37995 -0.23345 0
M  V30 5694 C 572.066 -3.70588 -0.658899 0
M  V30 5695 C 571.213 -2.76581 0.199596 0
M  V30 5696 H 574.164 -1.47901 0.575423 0
M  V30 5697 H 574.185 -3.65475 -1.0587 0
M  V30 5698 H 573.697 -3.8059 0.759776 0
M  V30 5699 H 571.798 -3.33544 -1.66069 0
M  V30 5700 H 571.911 -4.77076 -0.439957 0
M  V30 5701 H 570.275 -2.52552 -0.330076 0
M  V30 5702 H 571.058 -3.22008 1.19019 0
M  V30 5703 N 573.503 -0.0852151 -1.57369 0
M  V30 5704 C 574.749 0.581666 -1.94279 0
M  V30 5705 C 575.082 1.68444 -0.966446 0
M  V30 5706 O 574.357 1.945 0.00215277 0
M  V30 5707 C 574.64 1.14609 -3.41375 0
M  V30 5708 C 574.493 0.0490414 -4.49773 0
M  V30 5709 C 575.812 2.04751 -3.8957 0
M  V30 5710 H 572.931 0.209972 -0.706456 0
M  V30 5711 H 575.573 -0.153915 -1.89376 0
M  V30 5712 H 573.723 1.77297 -3.45685 0
M  V30 5713 H 575.395 -0.584721 -4.57579 0
M  V30 5714 H 573.638 -0.618638 -4.29366 0
M  V30 5715 H 574.309 0.484601 -5.49869 0
M  V30 5716 H 576.785 1.51981 -3.87351 0
M  V30 5717 H 575.661 2.41173 -4.93079 0
M  V30 5718 H 575.922 2.96107 -3.28288 0
M  V30 5719 N 574.981 1.5647 0.188427 0
M  V30 5720 C 576.23 1.80207 0.905995 0
M  V30 5721 C 576.543 0.659579 1.84144 0
M  V30 5722 O 577.749 0.781431 2.60011 0
M  V30 5723 C 576.205 3.19255 1.66145 0
M  V30 5724 C 575.813 4.41324 0.770504 0
M  V30 5725 C 577.557 3.52298 2.36826 0
M  V30 5726 C 575.464 5.71394 1.52521 0
M  V30 5727 H 574.394 0.671953 0.342045 0
M  V30 5728 H 577.045 1.82808 0.159164 0
M  V30 5729 H 575.427 3.10922 2.45242 0
M  V30 5730 H 576.601 4.60797 0.0177261 0
M  V30 5731 H 574.916 4.16035 0.174199 0
M  V30 5732 H 577.513 4.46715 2.93854 0
M  V30 5733 H 577.856 2.76359 3.11338 0
M  V30 5734 H 578.389 3.62108 1.6469 0
M  V30 5735 H 575.128 6.50316 0.82275 0
M  V30 5736 H 574.648 5.55928 2.25175 0
M  V30 5737 H 576.327 6.12747 2.07725 0
M  V30 5738 N 576.459 -0.456382 1.50847 0
M  V30 5739 C 577.87 -1.03685 1.55262 0
M  V30 5740 C 578.221 -1.92779 0.364771 0
M  V30 5741 O 577.346 -2.10043 -0.52068 0
M  V30 5742 C 577.941 -1.88718 2.81374 0
M  V30 5743 C 576.5 -2.41847 2.88422 0
M  V30 5744 C 575.647 -1.20564 2.49719 0
M  V30 5745 H 578.598 -0.238399 1.56899 0
M  V30 5746 H 578.619 -2.73957 2.6406 0
M  V30 5747 H 578.131 -1.23847 3.67809 0
M  V30 5748 H 576.232 -3.10228 2.06372 0
M  V30 5749 H 576.345 -2.75947 3.9165 0
M  V30 5750 H 574.709 -1.54504 2.02486 0
M  V30 5751 H 575.492 -0.573326 3.38479 0
M  V30 5752 N 577.937 -1.40673 -0.710563 0
M  V30 5753 C 578.9 -1.4108 -1.80635 0
M  V30 5754 C 579.9 -0.303783 -1.57904 0
M  V30 5755 O 581.09 -0.562937 -1.64853 0
M  V30 5756 C 578.222 -1.20748 -3.18799 0
M  V30 5757 H 579.415 -2.38612 -1.81671 0
M  V30 5758 H 576.968 -1.26595 -0.916704 0
M  V30 5759 H 577.703 -0.239964 -3.23411 0
M  V30 5760 H 577.488 -2.00941 -3.36698 0
M  V30 5761 H 578.978 -1.23833 -3.98817 0
M  V30 5762 N 579.415 0.9433 -1.26252 0
M  V30 5763 C 580.645 1.72117 -1.14277 0
M  V30 5764 C 581.053 1.86726 0.304944 0
M  V30 5765 O 580.396 1.3727 1.22076 0
M  V30 5766 C 580.458 3.14778 -1.73651 0
M  V30 5767 C 580.122 3.23561 -3.22734 0
M  V30 5768 C 581.119 3.07001 -4.19579 0
M  V30 5769 C 578.804 3.47019 -3.63157 0
M  V30 5770 C 580.798 3.13763 -5.54826 0
M  V30 5771 C 578.485 3.53416 -4.98538 0
M  V30 5772 C 579.483 3.36804 -5.94182 0
M  V30 5773 O 579.171 3.42906 -7.27098 0
M  V30 5774 H 578.903 0.545781 -0.398873 0
M  V30 5775 H 581.457 1.19123 -1.67328 0
M  V30 5776 H 579.687 3.69186 -1.1506 0
M  V30 5777 H 581.376 3.74469 -1.56613 0
M  V30 5778 H 582.142 2.88736 -3.89688 0
M  V30 5779 H 578.021 3.59006 -2.89199 0
M  V30 5780 H 581.565 3.00714 -6.29458 0
M  V30 5781 H 577.462 3.71201 -5.28091 0
M  V30 5782 H 578.23 3.59463 -7.35342 0
M  V30 5783 N 580.893 1.08022 1.14757 0
M  V30 5784 C 581.823 0.728248 2.21853 0
M  V30 5785 C 582.804 -0.287486 1.67653 0
M  V30 5786 O 583.989 -0.158727 1.9355 0
M  V30 5787 C 581.119 0.132549 3.47047 0
M  V30 5788 C 580.073 1.07619 4.14249 0
M  V30 5789 C 579.399 0.342907 5.33599 0
M  V30 5790 C 580.699 2.41268 4.63235 0
M  V30 5791 H 582.393 1.62365 2.51551 0
M  V30 5792 H 579.939 0.782125 1.20908 0
M  V30 5793 H 581.892 -0.125665 4.21213 0
M  V30 5794 H 580.616 -0.797971 3.16702 0
M  V30 5795 H 579.275 1.31944 3.42033 0
M  V30 5796 H 578.923 -0.59129 4.99513 0
M  V30 5797 H 578.623 0.971955 5.79506 0
M  V30 5798 H 580.147 0.0926538 6.1053 0
M  V30 5799 H 581.561 2.21232 5.28894 0
M  V30 5800 H 579.958 2.9983 5.19829 0
M  V30 5801 H 581.028 3.03079 3.78512 0
M  V30 5802 N 582.371 -1.3172 0.865308 0
M  V30 5803 C 583.318 -2.2863 0.315736 0
M  V30 5804 C 584.288 -1.55524 -0.583213 0
M  V30 5805 O 585.473 -1.83694 -0.51585 0
M  V30 5806 C 582.613 -3.41735 -0.480773 0
M  V30 5807 C 581.726 -4.297 0.445167 0
M  V30 5808 C 580.861 -5.29944 -0.365012 0
M  V30 5809 C 579.9 -6.09554 0.557651 0
M  V30 5810 N 579.037 -7.01768 -0.215994 0
M  V30 5811 H 583.877 -2.75026 1.14736 0
M  V30 5812 H 581.414 -1.35302 0.577209 0
M  V30 5813 H 583.372 -4.06045 -0.958306 0
M  V30 5814 H 582.002 -2.96461 -1.27714 0
M  V30 5815 H 581.054 -3.65875 1.04113 0
M  V30 5816 H 582.366 -4.85295 1.15284 0
M  V30 5817 H 581.52 -5.99908 -0.905255 0
M  V30 5818 H 580.259 -4.74994 -1.106 0
M  V30 5819 H 579.264 -5.38485 1.10969 0
M  V30 5820 H 580.489 -6.66591 1.29742 0
M  V30 5821 H 578.435 -6.49232 -0.939878 0
M  V30 5822 H 578.352 -7.54762 0.432431 0
M  V30 5823 H 579.62 -7.76002 -0.737618 0
M  V30 5824 N 583.85 -0.624285 -1.44708 0
M  V30 5825 C 585.266 -0.289322 -1.56956 0
M  V30 5826 C 585.466 1.20773 -1.61295 0
M  V30 5827 O 584.522 1.9915 -1.55227 0
M  V30 5828 C 585.835 -0.975215 -2.84447 0
M  V30 5829 C 587.383 -0.952709 -2.98148 0
M  V30 5830 C 587.858 -1.61893 -4.28433 0
M  V30 5831 N 589.349 -1.5852 -4.35231 0
M  V30 5832 C 590.084 -2.06969 -5.34744 0
M  V30 5833 N 589.58 -2.63579 -6.40701 0
M  V30 5834 N 591.373 -1.97638 -5.26209 0
M  V30 5835 H 583.524 -1.59612 -1.40135 0
M  V30 5836 H 585.787 -0.669592 -0.671081 0
M  V30 5837 H 585.493 -2.02999 -2.87201 0
M  V30 5838 H 585.367 -0.508749 -3.73753 0
M  V30 5839 H 587.754 0.093568 -2.94952 0
M  V30 5840 H 587.835 -1.4576 -2.10209 0
M  V30 5841 H 587.479 -2.66463 -4.32389 0
M  V30 5842 H 587.409 -1.08893 -5.15218 0
M  V30 5843 H 589.899 -1.17183 -3.59272 0
M  V30 5844 H 590.213 -2.98298 -7.12908 0
M  V30 5845 H 588.558 -2.67626 -6.41406 0
M  V30 5846 H 591.749 -1.5314 -4.42341 0
M  V30 5847 H 591.922 -2.35708 -6.03611 0
M  V30 5848 N 585.328 1.53329 -0.364422 0
M  V30 5849 C 586.278 2.22472 0.499024 0
M  V30 5850 C 587.262 1.21952 1.0496 0
M  V30 5851 O 588.454 1.47405 0.979836 0
M  V30 5852 C 585.583 3.01659 1.6388 0
M  V30 5853 C 584.669 4.09555 1.10116 0
M  V30 5854 N 585.06 5.04988 0.286414 0
M  V30 5855 C 583.358 4.2424 1.37608 0
M  V30 5856 C 584.059 5.81699 -0.00781682 0
M  V30 5857 N 583.035 5.40394 0.589494 0
M  V30 5858 H 586.837 2.93611 -0.130284 0
M  V30 5859 H 584.351 1.61483 -0.172377 0
M  V30 5860 H 586.348 3.4971 2.26954 0
M  V30 5861 H 585.008 2.32051 2.27118 0
M  V30 5862 H 586.019 5.17847 -0.0742839 0
M  V30 5863 H 582.696 3.65858 2.01133 0
M  V30 5864 H 584.086 6.68587 -0.666394 0
M  V30 5865 N 586.806 0.0935595 1.57322 0
M  V30 5866 C 588.052 -0.571355 1.94585 0
M  V30 5867 C 588.385 -1.67929 0.975366 0
M  V30 5868 O 587.66 -1.94498 0.00816206 0
M  V30 5869 C 587.943 -1.12797 3.41978 0
M  V30 5870 C 587.796 -0.0251881 4.49793 0
M  V30 5871 C 589.115 -2.02682 3.90651 0
M  V30 5872 H 586.234 -0.206223 0.70756 0
M  V30 5873 H 588.876 0.163956 1.89291 0
M  V30 5874 H 587.026 -1.75461 3.4662 0
M  V30 5875 H 588.698 0.608979 4.57263 0
M  V30 5876 H 586.941 0.641399 4.29032 0
M  V30 5877 H 587.612 -0.455433 5.50118 0
M  V30 5878 H 590.088 -1.49925 3.88152 0
M  V30 5879 H 588.964 -2.38555 4.94351 0
M  V30 5880 H 589.225 -2.94362 3.29854 0
M  V30 5881 N 588.284 -1.56567 -0.180126 0
M  V30 5882 C 589.512 -1.85618 -0.913972 0
M  V30 5883 C 589.927 -0.677892 -1.7621 0
M  V30 5884 O 589.284 0.353171 -1.7905 0
M  V30 5885 C 589.335 -3.13619 -1.79793 0
M  V30 5886 O 589.056 -4.26906 -0.98402 0
M  V30 5887 C 590.557 -3.55954 -2.64219 0
M  V30 5888 H 587.777 -0.616043 -0.265954 0
M  V30 5889 H 590.321 -2.03681 -0.182872 0
M  V30 5890 H 588.476 -2.97409 -2.48247 0
M  V30 5891 H 588.89 -4.9989 -1.58776 0
M  V30 5892 H 590.364 -4.48444 -3.21873 0
M  V30 5893 H 590.841 -2.79653 -3.38661 0
M  V30 5894 H 591.447 -3.74746 -2.01111 0
M  V30 5895 N 589.762 0.448376 -1.51087 0
M  V30 5896 C 591.009 1.19872 -1.63209 0
M  V30 5897 C 591.337 1.91451 -0.343062 0
M  V30 5898 O 590.592 1.83789 0.672321 0
M  V30 5899 C 590.891 2.24866 -2.77795 0
M  V30 5900 C 590.557 1.70378 -4.17471 0
M  V30 5901 C 589.219 1.55241 -4.55471 0
M  V30 5902 C 591.571 1.30203 -5.04675 0
M  V30 5903 C 588.899 0.983844 -5.78392 0
M  V30 5904 C 591.251 0.747798 -6.28165 0
M  V30 5905 C 589.915 0.583233 -6.64947 0
M  V30 5906 H 589.185 0.438642 -0.597222 0
M  V30 5907 H 591.832 0.49136 -1.85089 0
M  V30 5908 H 590.137 3.01598 -2.50092 0
M  V30 5909 H 591.834 2.82723 -2.84374 0
M  V30 5910 H 588.424 1.83134 -3.87505 0
M  V30 5911 H 592.608 1.40723 -4.75932 0
M  V30 5912 H 587.864 0.844007 -6.05546 0
M  V30 5913 H 592.038 0.427927 -6.95084 0
M  V30 5914 H 589.665 0.140532 -7.6007 0
M  V30 5915 N 591.24 1.41047 0.703093 0
M  V30 5916 C 592.488 1.39723 1.4602 0
M  V30 5917 C 592.809 0.00461257 1.94999 0
M  V30 5918 O 592.079 -0.952292 1.71196 0
M  V30 5919 H 590.659 0.514281 0.541779 0
M  V30 5920 H 593.321 1.76217 0.832678 0
M  V30 5921 H 592.417 2.07982 2.32701 0
M  V30 5922 N 592.718 -0.936591 1.26751 0
M  V30 5923 C 593.966 -1.67998 1.12343 0
M  V30 5924 C 594.287 -1.92137 -0.332938 0
M  V30 5925 O 593.557 -1.52132 -1.23421 0
M  V30 5926 H 592.137 -0.622609 0.412756 0
M  V30 5927 H 594.799 -1.12509 1.59147 0
M  V30 5928 H 593.895 -2.65185 1.64571 0
M  V30 5929 N 594.196 -1.08629 -1.14182 0
M  V30 5930 C 595.106 -0.730126 -2.22949 0
M  V30 5931 C 596.122 0.26436 -1.7198 0
M  V30 5932 O 597.298 0.107742 -2.01112 0
M  V30 5933 C 594.363 -0.147227 -3.46387 0
M  V30 5934 C 593.424 -1.19662 -4.12286 0
M  V30 5935 C 592.657 -0.641437 -5.29831 0
M  V30 5936 O 592.88 0.538351 -5.67854 0
M  V30 5937 O 591.814 -1.39257 -5.85569 0
M  V30 5938 H 595.64 -1.63753 -2.55771 0
M  V30 5939 H 593.225 -0.860118 -1.22157 0
M  V30 5940 H 595.107 0.174923 -4.21037 0
M  V30 5941 H 593.782 0.733304 -3.15285 0
M  V30 5942 H 592.689 -1.57133 -3.395 0
M  V30 5943 H 594.022 -2.0495 -4.475 0
M  V30 5944 N 595.674 1.31259 -0.872281 0
M  V30 5945 C 596.904 2.00504 -0.498183 0
M  V30 5946 C 597.312 1.65632 0.914479 0
M  V30 5947 O 596.655 0.882849 1.61095 0
M  V30 5948 C 596.717 3.5482 -0.578194 0
M  V30 5949 C 596.381 4.13172 -1.95289 0
M  V30 5950 C 597.378 4.30107 -2.92069 0
M  V30 5951 C 595.063 4.48846 -2.25483 0
M  V30 5952 C 597.057 4.81908 -4.17185 0
M  V30 5953 C 594.744 5.00349 -3.50847 0
M  V30 5954 C 595.742 5.16831 -4.46514 0
M  V30 5955 O 595.43 5.67228 -5.69656 0
M  V30 5956 H 595.162 0.648055 -0.192354 0
M  V30 5957 H 597.716 1.6841 -1.17589 0
M  V30 5958 H 595.946 3.86383 0.156438 0
M  V30 5959 H 597.635 4.05318 -0.217192 0
M  V30 5960 H 598.401 4.02862 -2.7005 0
M  V30 5961 H 594.28 4.35292 -1.51795 0
M  V30 5962 H 597.824 4.94688 -4.91863 0
M  V30 5963 H 593.721 5.27028 -3.72708 0
M  V30 5964 H 594.489 5.85592 -5.7186 0
M  V30 5965 N 597.152 0.631951 1.44375 0
M  V30 5966 C 598.429 0.067646 1.95483 0
M  V30 5967 C 598.809 -1.40683 1.57389 0
M  V30 5968 O 598.157 -2.12167 0.848375 0
M  V30 5969 C 598.367 0.291392 3.47781 0
M  V30 5970 C 599.715 0.185028 4.24197 0
M  V30 5971 O 600.739 0.222803 3.55503 0
M  V30 5972 O 599.598 0.0906642 5.46425 0
M  V30 5973 H 596.692 -0.0218379 0.826712 0
M  V30 5974 H 599.238 0.703711 1.54421 0
M  V30 5975 H 598.01 1.31449 3.68561 0
M  V30 5976 H 597.633 -0.378772 3.95792 0
M  V30 5977 N 598.631 -1.53133 0.372548 0
M  V30 5978 C 599.878 -2.01356 -0.214959 0
M  V30 5979 C 600.206 -1.2596 -1.48204 0
M  V30 5980 O 599.461 -0.343511 -1.92662 0
M  V30 5981 C 599.76 -3.53206 -0.545938 0
M  V30 5982 C 599.426 -4.46511 0.627624 0
M  V30 5983 C 598.088 -4.71737 0.949615 0
M  V30 5984 C 600.44 -5.01666 1.41353 0
M  V30 5985 C 597.768 -5.4937 2.05936 0
M  V30 5986 C 600.12 -5.80511 2.51375 0
M  V30 5987 C 598.784 -6.04022 2.84101 0
M  V30 5988 H 598.054 -0.736813 -0.078659 0
M  V30 5989 H 600.701 -1.84682 0.506447 0
M  V30 5990 H 599.006 -3.67864 -1.34845 0
M  V30 5991 H 600.703 -3.87997 -1.01287 0
M  V30 5992 H 597.293 -4.27029 0.366635 0
M  V30 5993 H 601.477 -4.82117 1.17802 0
M  V30 5994 H 596.733 -5.65803 2.31682 0
M  V30 5995 H 600.907 -6.22255 3.12684 0
M  V30 5996 H 598.534 -6.63962 3.70214 0
M  V30 5997 N 600.109 -0.101901 -1.5727 0
M  V30 5998 C 601.386 0.602832 -1.86079 0
M  V30 5999 C 601.766 1.85912 -1 0
M  V30 6000 O 601.114 2.28379 -0.0742488 0
M  V30 6001 C 601.324 0.911694 -3.36881 0
M  V30 6002 C 602.672 1.2722 -4.05093 0
M  V30 6003 O 603.696 1.0025 -3.41802 0
M  V30 6004 O 602.555 1.7776 -5.16782 0
M  V30 6005 H 599.649 0.302366 -0.769743 0
M  V30 6006 H 602.195 -0.135113 -1.69161 0
M  V30 6007 H 600.967 0.0207256 -3.91295 0
M  V30 6008 H 600.59 1.70538 -3.59169 0
M  V30 6009 N 601.587 1.56661 0.17182 0
M  V30 6010 C 602.534 1.96371 1.21273 0
M  V30 6011 C 603.504 0.82756 1.44016 0
M  V30 6012 O 604.689 1.08764 1.56764 0
M  V30 6013 C 601.829 2.32838 2.54716 0
M  V30 6014 C 600.942 3.59628 2.39356 0
M  V30 6015 C 600.077 3.85311 3.65662 0
M  V30 6016 C 599.116 5.0545 3.45234 0
M  V30 6017 N 598.253 5.27268 4.63608 0
M  V30 6018 H 603.093 2.85106 0.86709 0
M  V30 6019 H 600.63 1.41073 0.416744 0
M  V30 6020 H 602.588 2.52004 3.3249 0
M  V30 6021 H 601.218 1.47214 2.87277 0
M  V30 6022 H 600.27 3.4838 1.52761 0
M  V30 6023 H 601.582 4.4756 2.20207 0
M  V30 6024 H 600.736 4.04841 4.51872 0
M  V30 6025 H 599.475 2.95753 3.8779 0
M  V30 6026 H 598.48 4.85819 2.5741 0
M  V30 6027 H 599.705 5.96538 3.24529 0
M  V30 6028 H 597.651 4.40662 4.85956 0
M  V30 6029 H 597.568 6.09422 4.4737 0
M  V30 6030 H 598.836 5.51277 5.51103 0
M  V30 6031 N 603.065 -0.440357 1.51323 0
M  V30 6032 C 604.342 -1.20109 1.5438 0
M  V30 6033 C 604.722 -2.08866 0.306303 0
M  V30 6034 O 604.07 -2.1723 -0.708773 0
M  V30 6035 C 604.28 -2.00555 2.8562 0
M  V30 6036 C 605.628 -2.577 3.37455 0
M  V30 6037 O 606.652 -2.10769 2.8715 0
M  V30 6038 O 605.511 -3.43289 4.25224 0
M  V30 6039 H 602.605 -0.546668 0.620551 0
M  V30 6040 H 605.151 -0.449672 1.63634 0
M  V30 6041 H 603.923 -1.35346 3.67147 0
M  V30 6042 H 603.546 -2.82768 2.79514 0
M  V30 6043 N 604.543 -1.41418 -0.695603 0
M  V30 6044 C 605.768 -1.44329 -1.48942 0
M  V30 6045 C 606.193 -0.0501579 -1.88033 0
M  V30 6046 O 605.551 0.946598 -1.54626 0
M  V30 6047 C 605.599 -2.3578 -2.72837 0
M  V30 6048 O 604.703 -1.81482 -3.70322 0
M  V30 6049 H 604.044 -0.489838 -0.44828 0
M  V30 6050 H 606.574 -1.85878 -0.855014 0
M  V30 6051 H 606.584 -2.51654 -3.21145 0
M  V30 6052 H 605.259 -3.37005 -2.43722 0
M  V30 6053 H 603.836 -1.75058 -3.29255 0
M  V30 6054 N 606.021 0.929856 -1.27246 0
M  V30 6055 C 607.437 1.20542 -1.04603 0
M  V30 6056 C 607.637 2.00276 0.221754 0
M  V30 6057 O 606.693 2.34835 0.927833 0
M  V30 6058 C 608.006 1.95566 -2.28417 0
M  V30 6059 C 609.554 2.08513 -2.33433 0
M  V30 6060 C 610.029 2.86943 -3.5697 0
M  V30 6061 N 611.52 2.94512 -3.57515 0
M  V30 6062 C 612.255 3.55656 -4.49774 0
M  V30 6063 N 611.751 4.18209 -5.52334 0
M  V30 6064 N 613.544 3.53038 -4.37402 0
M  V30 6065 H 605.695 0.397113 -2.08655 0
M  V30 6066 H 607.958 0.238277 -0.917566 0
M  V30 6067 H 607.664 1.44395 -3.20691 0
M  V30 6068 H 607.538 2.9619 -2.33563 0
M  V30 6069 H 609.925 2.58872 -1.41666 0
M  V30 6070 H 610.006 1.07117 -2.32292 0
M  V30 6071 H 609.65 2.37268 -4.49072 0
M  V30 6072 H 609.58 3.8862 -3.55362 0
M  V30 6073 H 612.071 2.50053 -2.83341 0
M  V30 6074 H 612.384 4.62796 -6.18902 0
M  V30 6075 H 610.729 4.16761 -5.56179 0
M  V30 6076 H 613.92 3.0337 -3.56489 0
M  V30 6077 H 614.093 4.004 -5.09493 0
M  V30 6078 N 607.499 1.09233 1.13605 0
M  V30 6079 C 608.748 0.82205 1.84188 0
M  V30 6080 C 609.061 -0.654548 1.84323 0
M  V30 6081 O 610.267 -1.04029 2.50779 0
M  V30 6082 C 608.723 1.42066 3.30674 0
M  V30 6083 C 608.331 2.92965 3.38933 0
M  V30 6084 C 610.075 1.22924 4.06313 0
M  V30 6085 C 607.982 3.45922 4.79679 0
M  V30 6086 H 606.912 0.303854 0.690064 0
M  V30 6087 H 609.563 1.31479 1.28006 0
M  V30 6088 H 607.945 0.855613 3.86646 0
M  V30 6089 H 609.119 3.55679 2.92966 0
M  V30 6090 H 607.434 3.11118 2.76757 0
M  V30 6091 H 610.031 1.59945 5.10217 0
M  V30 6092 H 610.374 0.169726 4.15954 0
M  V30 6093 H 610.907 1.76168 3.56665 0
M  V30 6094 H 607.646 4.51484 4.75229 0
M  V30 6095 H 607.166 2.87971 5.26149 0
M  V30 6096 H 608.845 3.43009 5.48592 0
M  V30 6097 N 608.977 -1.30795 0.87923 0
M  V30 6098 C 609.925 -2.30231 0.331112 0
M  V30 6099 C 610.919 -1.59918 -0.558794 0
M  V30 6100 O 612.125 -1.74441 -0.443866 0
M  V30 6101 H 608.5 -0.746785 0.088409 0
M  V30 6102 H 610.471 -2.73925 1.18353 0
M  V30 6103 C 609.22 -3.44848 -0.444401 0
M  V30 6104 H 608.543 -3.99131 0.231106 0
M  V30 6105 H 609.983 -4.16516 -0.793109 0
M  V30 6106 C 608.442 -2.94329 -1.63926 0
M  V30 6107 O 608.972 -2.93875 -2.73862 0
M  V30 6108 N 607.178 -2.50413 -1.4745 0
M  V30 6109 H 606.725 -2.50982 -0.58015 0
M  V30 6110 H 606.683 -2.16969 -2.27534 0
M  V30 6111 N 610.455 -0.639598 -1.44038 0
M  V30 6112 C 611.385 0.0469443 -2.33453 0
M  V30 6113 C 612.366 0.82609 -1.48694 0
M  V30 6114 O 613.551 0.790285 -1.77393 0
M  V30 6115 C 610.681 1.02338 -3.3188 0
M  V30 6116 C 609.635 0.355284 -4.26523 0
M  V30 6117 C 608.961 1.44221 -5.14883 0
M  V30 6118 C 610.261 -0.743798 -5.16977 0
M  V30 6119 H 611.955 -0.699735 -2.91108 0
M  V30 6120 H 609.501 -0.337946 -1.39978 0
M  V30 6121 H 611.454 1.51247 -3.93322 0
M  V30 6122 H 610.178 1.80105 -2.72451 0
M  V30 6123 H 608.837 -0.113239 -3.66425 0
M  V30 6124 H 608.485 2.21097 -4.51802 0
M  V30 6125 H 608.185 1.00052 -5.79019 0
M  V30 6126 H 609.709 1.93295 -5.79197 0
M  V30 6127 H 611.123 -0.337444 -5.72306 0
M  V30 6128 H 609.52 -1.10914 -5.89761 0
M  V30 6129 H 610.59 -1.60745 -4.57481 0
M  V30 6130 N 611.933 1.52934 -0.380664 0
M  V30 6131 C 612.896 2.24809 0.446473 0
M  V30 6132 C 613.896 1.26133 0.997347 0
M  V30 6133 O 615.086 1.50297 0.880714 0
M  V30 6134 C 612.218 2.99649 1.62553 0
M  V30 6135 H 613.411 2.99343 -0.182677 0
M  V30 6136 H 610.964 1.55736 -0.132618 0
M  V30 6137 H 611.699 2.29395 2.29235 0
M  V30 6138 H 611.484 3.72066 1.23732 0
M  V30 6139 H 612.974 3.54246 2.21133 0
M  V30 6140 N 613.412 0.11024 1.57214 0
M  V30 6141 C 614.661 -0.549638 1.94067 0
M  V30 6142 C 614.974 -1.68388 0.995234 0
M  V30 6143 O 616.18 -2.40593 1.25807 0
M  V30 6144 C 614.636 -1.02912 3.44873 0
M  V30 6145 C 614.244 0.0761861 4.47935 0
M  V30 6146 C 615.988 -1.66087 3.9066 0
M  V30 6147 C 613.895 -0.419502 5.8991 0
M  V30 6148 H 612.825 -0.209092 0.724428 0
M  V30 6149 H 615.476 0.188683 1.82527 0
M  V30 6150 H 613.858 -1.82159 3.51616 0
M  V30 6151 H 615.032 0.852185 4.52851 0
M  V30 6152 H 613.347 0.614052 4.11847 0
M  V30 6153 H 615.944 -2.04272 4.94143 0
M  V30 6154 H 616.287 -2.53591 3.30148 0
M  V30 6155 H 616.82 -0.933959 3.86681 0
M  V30 6156 H 613.559 0.419277 6.54158 0
M  V30 6157 H 613.079 -1.16217 5.88433 0
M  V30 6158 H 614.758 -0.883577 6.40938 0
M  V30 6159 N 614.89 -1.56749 -0.16351 0
M  V30 6160 C 616.115 -1.86938 -0.898264 0
M  V30 6161 C 616.54 -0.697456 -1.74692 0
M  V30 6162 O 615.898 0.353327 -1.77824 0
M  V30 6163 C 615.946 -3.15599 -1.74441 0
M  V30 6164 O 615.05 -2.98371 -2.8469 0
M  V30 6165 H 614.391 -0.614659 -0.251178 0
M  V30 6166 H 616.921 -2.03979 -0.159298 0
M  V30 6167 H 616.931 -3.47202 -2.14277 0
M  V30 6168 H 615.606 -4.00505 -1.1211 0
M  V30 6169 H 614.183 -2.7814 -2.4838 0
M  V30 6170 N 616.368 0.432326 -1.51554 0
M  V30 6171 C 617.615 1.18134 -1.64471 0
M  V30 6172 C 617.943 1.91076 -0.363349 0
M  V30 6173 O 617.198 1.84492 0.65279 0
M  V30 6174 C 617.497 2.21907 -2.80164 0
M  V30 6175 C 617.163 1.65941 -4.19255 0
M  V30 6176 C 615.825 1.50401 -4.57092 0
M  V30 6177 C 618.177 1.24843 -5.06027 0
M  V30 6178 C 615.505 0.922443 -5.79403 0
M  V30 6179 C 617.857 0.68113 -6.28922 0
M  V30 6180 C 616.521 0.512673 -6.65528 0
M  V30 6181 H 615.791 0.432283 -0.601841 0
M  V30 6182 H 618.438 0.471701 -1.856 0
M  V30 6183 H 616.743 2.98928 -2.53277 0
M  V30 6184 H 618.44 2.79691 -2.87357 0
M  V30 6185 H 615.03 1.79014 -3.89425 0
M  V30 6186 H 619.214 1.35667 -4.77397 0
M  V30 6187 H 614.47 0.779733 -6.06408 0
M  V30 6188 H 618.644 0.35418 -6.95499 0
M  V30 6189 H 616.271 0.0599084 -7.60176 0
M  V30 6190 N 617.846 1.41785 0.688094 0
M  V30 6191 C 619.094 1.41264 1.4453 0
M  V30 6192 C 619.415 0.0252946 1.94984 0
M  V30 6193 O 618.685 -0.934081 1.72197 0
M  V30 6194 H 617.265 0.519998 0.536294 0
M  V30 6195 H 619.927 1.7709 0.813941 0
M  V30 6196 H 619.023 2.10439 2.30482 0
M  V30 6197 N 619.324 -0.923095 1.27737 0
M  V30 6198 C 620.254 -2.04124 1.13383 0
M  V30 6199 C 621.235 -1.70066 0.0340658 0
M  V30 6200 O 622.42 -1.93068 0.209383 0
M  V30 6201 C 619.55 -3.3831 0.785097 0
M  V30 6202 C 618.504 -3.86496 1.8386 0
M  V30 6203 C 617.83 -5.1754 1.34373 0
M  V30 6204 C 619.13 -4.09381 3.24353 0
M  V30 6205 H 620.824 -2.1639 2.06919 0
M  V30 6206 H 618.37 -1.03976 0.996243 0
M  V30 6207 H 620.323 -4.16016 0.671485 0
M  V30 6208 H 619.047 -3.2607 -0.185969 0
M  V30 6209 H 617.706 -3.10987 1.9412 0
M  V30 6210 H 617.354 -5.01696 0.361989 0
M  V30 6211 H 617.054 -5.50751 2.04811 0
M  V30 6212 H 618.578 -5.97811 1.24315 0
M  V30 6213 H 619.992 -4.77641 3.17067 0
M  V30 6214 H 618.389 -4.53906 3.92542 0
M  V30 6215 H 619.459 -3.14515 3.69064 0
M  V30 6216 N 620.802 -1.09834 -1.13024 0
M  V30 6217 C 622.218 -0.828875 -1.36388 0
M  V30 6218 C 622.418 0.554756 -1.93713 0
M  V30 6219 O 621.474 1.30882 -2.15931 0
M  V30 6220 C 622.787 -1.92352 -2.3113 0
M  V30 6221 C 624.335 -1.95124 -2.44735 0
M  V30 6222 C 624.81 -3.03745 -3.42787 0
M  V30 6223 N 626.301 -3.03012 -3.5034 0
M  V30 6224 C 627.036 -3.83699 -4.26101 0
M  V30 6225 N 626.532 -4.74306 -5.04981 0
M  V30 6226 N 628.325 -3.71942 -4.21445 0
M  V30 6227 H 620.476 -1.99029 -0.74169 0
M  V30 6228 H 622.739 -0.864557 -0.388903 0
M  V30 6229 H 622.445 -2.91906 -1.96172 0
M  V30 6230 H 622.319 -1.80536 -3.3119 0
M  V30 6231 H 624.706 -0.962069 -2.78977 0
M  V30 6232 H 624.787 -2.11018 -1.44586 0
M  V30 6233 H 624.431 -4.02878 -3.09276 0
M  V30 6234 H 624.361 -2.85094 -4.42752 0
M  V30 6235 H 626.852 -2.37352 -2.94062 0
M  V30 6236 H 627.165 -5.32446 -5.60108 0
M  V30 6237 H 625.51 -4.78339 -5.04199 0
M  V30 6238 H 628.701 -3.00513 -3.589 0
M  V30 6239 H 628.874 -4.35062 -4.80235 0
M  V30 6240 N 622.28 1.30327 -0.886154 0
M  V30 6241 C 623.19 2.31854 -0.357866 0
M  V30 6242 C 624.206 1.65392 0.540502 0
M  V30 6243 O 625.382 1.96683 0.433339 0
M  V30 6244 C 622.447 3.44171 0.417999 0
M  V30 6245 C 621.508 4.26257 -0.510263 0
M  V30 6246 C 620.741 5.3321 0.228669 0
M  V30 6247 O 620.964 5.51542 1.45458 0
M  V30 6248 O 619.898 6.0042 -0.421832 0
M  V30 6249 H 623.724 2.78995 -1.19982 0
M  V30 6250 H 621.309 1.34518 -0.650028 0
M  V30 6251 H 623.191 4.12588 0.857251 0
M  V30 6252 H 621.866 2.99164 1.23623 0
M  V30 6253 H 620.773 3.60533 -0.99835 0
M  V30 6254 H 622.106 4.74871 -1.29454 0
M  V30 6255 N 623.758 0.647228 1.43697 0
M  V30 6256 C 625.174 0.314256 1.56476 0
M  V30 6257 C 625.374 -1.18191 1.63196 0
M  V30 6258 O 624.43 -1.96655 1.58376 0
M  V30 6259 C 625.743 1.02034 2.82859 0
M  V30 6260 C 627.291 1.00002 2.96595 0
M  V30 6261 C 627.766 1.68689 4.25803 0
M  V30 6262 N 629.257 1.65424 4.32654 0
M  V30 6263 C 629.992 2.1545 5.31384 0
M  V30 6264 N 629.488 2.73738 6.36427 0
M  V30 6265 N 631.281 2.05985 5.22998 0
M  V30 6266 H 623.432 1.61821 1.37578 0
M  V30 6267 H 625.695 0.680184 0.660344 0
M  V30 6268 H 625.401 2.07542 2.83935 0
M  V30 6269 H 625.275 0.568146 3.72897 0
M  V30 6270 H 627.662 -0.0466319 2.95063 0
M  V30 6271 H 627.743 1.49086 2.07863 0
M  V30 6272 H 627.387 2.73308 4.28095 0
M  V30 6273 H 627.317 1.17076 5.13421 0
M  V30 6274 H 629.808 1.22884 3.57363 0
M  V30 6275 H 630.121 3.09602 7.08072 0
M  V30 6276 H 628.466 2.77796 6.37067 0
M  V30 6277 H 631.657 1.60157 4.39849 0
M  V30 6278 H 631.83 2.45281 5.99784 0
M  V30 6279 N 625.236 -1.5273 0.388769 0
M  V30 6280 C 626.482 -2.01871 -0.193877 0
M  V30 6281 C 626.815 -1.27475 -1.46505 0
M  V30 6282 O 626.09 -0.375063 -1.90849 0
M  V30 6283 C 626.373 -3.5712 -0.462336 0
M  V30 6284 C 626.226 -4.42186 0.824091 0
M  V30 6285 C 627.545 -4.21881 -1.25319 0
M  V30 6286 H 624.664 -0.733764 -0.0689899 0
M  V30 6287 H 627.306 -1.82796 0.518231 0
M  V30 6288 H 625.456 -3.73504 -1.06896 0
M  V30 6289 H 627.128 -4.37554 1.46096 0
M  V30 6290 H 625.371 -4.09219 1.43952 0
M  V30 6291 H 626.042 -5.48828 0.590905 0
M  V30 6292 H 628.518 -4.0947 -0.73981 0
M  V30 6293 H 627.394 -5.30487 -1.40977 0
M  V30 6294 H 627.655 -3.79478 -2.26824 0
M  V30 6295 N 626.714 -0.118576 -1.57153 0
M  V30 6296 C 627.646 0.862247 -2.12363 0
M  V30 6297 C 628.659 1.23025 -1.06625 0
M  V30 6298 O 629.848 1.17927 -1.33998 0
M  V30 6299 C 626.948 2.16425 -2.60794 0
M  V30 6300 C 626.121 1.96801 -3.90626 0
M  V30 6301 C 625.18 3.10726 -4.2466 0
M  V30 6302 O 624.206 2.83659 -4.93484 0
M  V30 6303 N 625.408 4.37147 -3.81946 0
M  V30 6304 H 628.173 0.390564 -2.97144 0
M  V30 6305 H 625.734 0.0658591 -1.61766 0
M  V30 6306 H 627.726 2.91633 -2.80593 0
M  V30 6307 H 626.296 2.54943 -1.80895 0
M  V30 6308 H 625.516 1.05787 -3.7974 0
M  V30 6309 H 626.804 1.80993 -4.7552 0
M  V30 6310 H 626.202 4.62014 -3.26435 0
M  V30 6311 H 624.759 5.09229 -4.06853 0
M  V30 6312 N 628.193 1.56834 0.155195 0
M  V30 6313 C 629.421 1.87049 0.884326 0
M  V30 6314 C 629.836 0.705839 1.7511 0
M  V30 6315 O 629.193 -0.324641 1.79589 0
M  V30 6316 C 629.244 3.1644 1.74781 0
M  V30 6317 O 628.965 4.28417 0.915978 0
M  V30 6318 C 630.466 3.60113 2.58522 0
M  V30 6319 H 627.686 0.620196 0.25612 0
M  V30 6320 H 630.23 2.03946 0.150445 0
M  V30 6321 H 628.385 3.01321 2.43484 0
M  V30 6322 H 628.799 5.02353 1.50803 0
M  V30 6323 H 630.273 4.53508 3.14698 0
M  V30 6324 H 630.75 2.85005 3.34169 0
M  V30 6325 H 631.356 3.77898 1.95124 0
M  V30 6326 N 629.671 -0.424282 1.51781 0
M  V30 6327 C 631.082 -1.00368 1.57427 0
M  V30 6328 C 631.433 -1.91962 0.40558 0
M  V30 6329 O 630.558 -2.111 -0.47601 0
M  V30 6330 C 631.153 -1.82707 2.85313 0
M  V30 6331 C 629.712 -2.35675 2.93487 0
M  V30 6332 C 628.859 -1.1524 2.5222 0
M  V30 6333 H 631.81 -0.205064 1.5737 0
M  V30 6334 H 631.831 -2.68294 2.69812 0
M  V30 6335 H 631.343 -1.16017 3.70353 0
M  V30 6336 H 629.444 -3.05781 2.12906 0
M  V30 6337 H 629.557 -2.67578 3.97415 0
M  V30 6338 H 627.921 -1.50174 2.05718 0
M  V30 6339 H 628.704 -0.5014 3.39619 0
M  V30 6340 N 631.149 -1.42148 -0.680565 0
M  V30 6341 C 632.374 -1.45901 -1.47403 0
M  V30 6342 C 632.799 -0.0700985 -1.87969 0
M  V30 6343 O 632.157 0.930145 -1.55621 0
M  V30 6344 C 632.205 -2.38661 -2.70321 0
M  V30 6345 O 631.309 -1.85399 -3.68376 0
M  V30 6346 H 630.65 -0.494565 -0.443059 0
M  V30 6347 H 633.18 -1.86774 -0.835251 0
M  V30 6348 H 633.19 -2.55046 -3.18458 0
M  V30 6349 H 631.865 -3.39571 -2.40134 0
M  V30 6350 H 630.442 -1.78541 -3.2738 0
M  V30 6351 N 632.627 0.916307 -1.28225 0
M  V30 6352 C 633.857 1.69654 -1.17902 0
M  V30 6353 C 634.265 1.87331 0.265268 0
M  V30 6354 O 633.608 1.39828 1.19137 0
M  V30 6355 C 633.67 3.11024 -1.80289 0
M  V30 6356 C 633.334 3.16643 -3.29525 0
M  V30 6357 C 634.331 2.98032 -4.25997 0
M  V30 6358 C 632.016 3.39238 -3.70436 0
M  V30 6359 C 634.01 3.01924 -5.61356 0
M  V30 6360 C 631.697 3.42762 -5.05922 0
M  V30 6361 C 632.695 3.24125 -6.01192 0
M  V30 6362 O 632.383 3.27406 -7.34208 0
M  V30 6363 H 632.115 0.537197 -0.41036 0
M  V30 6364 H 634.669 1.15547 -1.69817 0
M  V30 6365 H 632.899 3.66662 -1.22865 0
M  V30 6366 H 634.588 3.71063 -1.6452 0
M  V30 6367 H 635.354 2.80405 -3.95725 0
M  V30 6368 H 631.233 3.52791 -2.96749 0
M  V30 6369 H 634.777 2.87295 -6.35694 0
M  V30 6370 H 630.674 3.59916 -5.35846 0
M  V30 6371 H 631.442 3.43784 -7.42802 0
M  V30 6372 N 634.105 1.10431 1.1244 0
M  V30 6373 C 635.035 0.775143 2.20258 0
M  V30 6374 C 636.016 -0.25186 1.68225 0
M  V30 6375 O 637.201 -0.117637 1.93843 0
M  V30 6376 C 634.331 0.206133 3.46688 0
M  V30 6377 C 633.285 1.16382 4.11873 0
M  V30 6378 C 632.611 0.456014 5.32752 0
M  V30 6379 C 633.911 2.5104 4.58013 0
M  V30 6380 H 635.605 1.67665 2.4805 0
M  V30 6381 H 633.151 0.807595 1.19222 0
M  V30 6382 H 635.104 -0.036291 4.21384 0
M  V30 6383 H 633.828 -0.730614 3.18323 0
M  V30 6384 H 632.487 1.39169 3.39157 0
M  V30 6385 H 632.135 -0.485203 5.00654 0
M  V30 6386 H 631.835 1.09466 5.77314 0
M  V30 6387 H 633.359 0.222135 6.10196 0
M  V30 6388 H 634.773 2.32401 5.24083 0
M  V30 6389 H 633.17 3.10789 5.13352 0
M  V30 6390 H 634.24 3.11039 3.71998 0
M  V30 6391 N 635.583 -1.29855 0.893053 0
M  V30 6392 C 636.546 -2.26183 0.370687 0
M  V30 6393 C 637.546 -1.53108 -0.491385 0
M  V30 6394 O 638.736 -1.71643 -0.297386 0
M  V30 6395 C 635.868 -3.37633 -0.470827 0
M  V30 6396 H 637.061 -2.73903 1.22135 0
M  V30 6397 H 634.614 -1.41183 0.67061 0
M  V30 6398 H 635.349 -2.95241 -1.34175 0
M  V30 6399 H 635.134 -3.91825 0.146784 0
M  V30 6400 H 636.624 -4.09313 -0.827825 0
M  V30 6401 N 637.061 -0.65484 -1.43351 0
M  V30 6402 C 638.309 -0.168559 -2.01396 0
M  V30 6403 C 638.63 1.22235 -1.51933 0
M  V30 6404 O 637.9 1.81685 -0.732627 0
M  V30 6405 H 636.48 -0.0593244 -0.744641 0
M  V30 6406 H 639.142 -0.846871 -1.75539 0
M  V30 6407 H 638.238 -0.154428 -3.11718 0
M  V30 6408 N 638.539 1.52521 -0.396863 0
M  V30 6409 C 639.767 2.06091 0.18275 0
M  V30 6410 C 640.182 1.26796 1.39886 0
M  V30 6411 O 639.539 0.316585 1.79733 0
M  V30 6412 C 639.59 3.57362 0.545377 0
M  V30 6413 O 639.311 4.33656 -0.622428 0
M  V30 6414 C 640.812 4.27305 1.18004 0
M  V30 6415 H 638.032 0.670504 0.025789 0
M  V30 6416 H 640.576 1.96561 -0.564276 0
M  V30 6417 H 638.731 3.66941 1.2423 0
M  V30 6418 H 639.145 5.23507 -0.322662 0
M  V30 6419 H 640.619 5.34366 1.38408 0
M  V30 6420 H 641.096 3.83 2.1496 0
M  V30 6421 H 641.702 4.22064 0.523671 0
M  V30 6422 N 640.017 0.126909 1.57088 0
M  V30 6423 C 640.927 -0.833867 2.1928 0
M  V30 6424 C 641.943 -1.2868 1.17122 0
M  V30 6425 O 643.119 -1.34815 1.49622 0
M  V30 6426 C 640.184 -2.0632 2.78627 0
M  V30 6427 C 639.245 -1.66143 3.95847 0
M  V30 6428 C 638.478 -2.83217 4.52354 0
M  V30 6429 O 638.701 -3.98868 4.0775 0
M  V30 6430 O 637.635 -2.59846 5.42922 0
M  V30 6431 H 641.461 -0.334564 3.01852 0
M  V30 6432 H 639.046 -0.0991091 1.49071 0
M  V30 6433 H 640.928 -2.78304 3.16425 0
M  V30 6434 H 639.603 -2.55242 1.99082 0
M  V30 6435 H 638.51 -0.912435 3.62802 0
M  V30 6436 H 639.843 -1.21957 4.76852 0
M  V30 6437 N 641.495 -1.56914 -0.146875 0
M  V30 6438 C 642.428 -1.93425 -1.21087 0
M  V30 6439 C 643.406 -0.800106 -1.41552 0
M  V30 6440 O 644.59 -1.05572 -1.56162 0
M  V30 6441 C 641.717 -2.20639 -2.56975 0
M  V30 6442 C 640.763 -3.43279 -2.53104 0
M  V30 6443 S 641.596 -4.96836 -1.99786 0
M  V30 6444 C 642.752 -5.27172 -3.37403 0
M  V30 6445 H 642.985 -2.8337 -0.899378 0
M  V30 6446 H 640.518 -1.50322 -0.352494 0
M  V30 6447 H 642.476 -2.36998 -3.35175 0
M  V30 6448 H 641.137 -1.31357 -2.85314 0
M  V30 6449 H 640.33 -3.59599 -3.53136 0
M  V30 6450 H 639.932 -3.26163 -1.83012 0
M  V30 6451 H 642.224 -5.20647 -4.33513 0
M  V30 6452 H 643.167 -6.28626 -3.25937 0
M  V30 6453 H 643.575 -4.54687 -3.34544 0
M  V30 6454 N 642.974 0.416227 -1.52004 0
M  V30 6455 C 643.904 1.51365 -1.77795 0
M  V30 6456 C 644.885 1.58059 -0.628601 0
M  V30 6457 O 646.07 1.73447 -0.873478 0
M  V30 6458 C 643.2 2.89256 -1.92219 0
M  V30 6459 C 642.154 2.97415 -3.0778 0
M  V30 6460 C 641.48 4.37492 -3.07417 0
M  V30 6461 C 642.78 2.69551 -4.47369 0
M  V30 6462 H 644.474 1.30033 -2.69688 0
M  V30 6463 H 642.02 0.624112 -1.29772 0
M  V30 6464 H 643.973 3.66008 -2.08845 0
M  V30 6465 H 642.697 3.11866 -0.969917 0
M  V30 6466 H 641.356 2.23107 -2.90893 0
M  V30 6467 H 641.004 4.571 -2.09925 0
M  V30 6468 H 640.704 4.43877 -3.85029 0
M  V30 6469 H 642.228 5.16188 -3.26162 0
M  V30 6470 H 643.642 3.36028 -4.64497 0
M  V30 6471 H 642.039 2.87321 -5.26846 0
M  V30 6472 H 643.109 1.65029 -4.55953 0
M  V30 6473 N 644.452 1.42507 0.673017 0
M  V30 6474 C 645.868 1.25472 0.986355 0
M  V30 6475 C 646.068 0.160181 2.00862 0
M  V30 6476 O 645.124 -0.467993 2.48125 0
M  V30 6477 C 646.437 2.61219 1.48947 0
M  V30 6478 C 647.985 2.68589 1.60715 0
M  V30 6479 C 648.46 4.04707 2.14422 0
M  V30 6480 N 649.951 4.0667 2.21752 0
M  V30 6481 C 650.686 5.0881 2.64386 0
M  V30 6482 N 650.182 6.21332 3.0646 0
M  V30 6483 N 651.975 4.96166 2.64151 0
M  V30 6484 H 644.126 2.124 -0.00378532 0
M  V30 6485 H 646.389 0.946046 0.0608367 0
M  V30 6486 H 646.095 3.42179 0.812812 0
M  V30 6487 H 645.969 2.85261 2.46791 0
M  V30 6488 H 648.356 1.87974 2.27486 0
M  V30 6489 H 648.437 2.48333 0.613552 0
M  V30 6490 H 648.081 4.8578 1.48258 0
M  V30 6491 H 648.011 4.22315 3.14575 0
M  V30 6492 H 650.502 3.25438 1.92089 0
M  V30 6493 H 650.815 6.95118 3.37684 0
M  V30 6494 H 649.16 6.24835 3.04313 0
M  V30 6495 H 652.351 4.07334 2.30644 0
M  V30 6496 H 652.524 5.759 2.97057 0
M  V30 6497 N 645.93 -0.909495 1.28709 0
M  V30 6498 C 646.862 -2.01729 1.08804 0
M  V30 6499 C 647.875 -1.62755 0.0384739 0
M  V30 6500 O 649.064 -1.76259 0.281977 0
M  V30 6501 C 646.164 -3.32952 0.63217 0
M  V30 6502 C 645.337 -4.00512 1.75809 0
M  V30 6503 C 644.396 -5.10019 1.29488 0
M  V30 6504 O 643.422 -5.32986 1.99787 0
M  V30 6505 N 644.624 -5.80278 0.1604 0
M  V30 6506 H 647.389 -2.19362 2.04207 0
M  V30 6507 H 644.95 -1.08106 1.20518 0
M  V30 6508 H 646.942 -4.03543 0.305802 0
M  V30 6509 H 645.512 -3.11759 -0.229134 0
M  V30 6510 H 644.732 -3.23413 2.25383 0
M  V30 6511 H 646.02 -4.42395 2.51325 0
M  V30 6512 H 645.418 -5.64094 -0.425937 0
M  V30 6513 H 643.975 -6.51713 -0.106663 0
M  V30 6514 N 647.408 -1.11026 -1.11852 0
M  V30 6515 C 648.633 -0.879064 -1.87849 0
M  V30 6516 C 649.058 0.565406 -1.79401 0
M  V30 6517 O 648.416 1.39886 -1.15333 0
M  V30 6518 C 648.464 -1.33985 -3.34784 0
M  V30 6519 O 647.568 -0.508803 -4.09249 0
M  V30 6520 H 646.909 -0.316992 -0.583448 0
M  V30 6521 H 649.439 -1.47863 -1.41413 0
M  V30 6522 H 649.449 -1.33248 -3.85628 0
M  V30 6523 H 648.124 -2.39172 -3.40249 0
M  V30 6524 H 646.701 -0.581913 -3.68332 0
M  V30 6525 N 648.886 1.2938 -0.899927 0
M  V30 6526 C 649.836 2.25311 -0.349165 0
M  V30 6527 C 650.82 1.51889 0.530892 0
M  V30 6528 O 652.012 1.73028 0.372872 0
M  V30 6529 C 649.141 3.40696 0.422055 0
M  V30 6530 C 648.227 4.21455 -0.472935 0
M  V30 6531 N 648.618 4.8048 -1.58026 0
M  V30 6532 C 646.916 4.45177 -0.270767 0
M  V30 6533 C 647.617 5.41117 -2.13465 0
M  V30 6534 N 646.593 5.24518 -1.42766 0
M  V30 6535 H 650.395 2.68507 -1.19505 0
M  V30 6536 H 647.909 1.43992 -0.751006 0
M  V30 6537 H 649.906 4.08486 0.833369 0
M  V30 6538 H 648.566 2.99037 1.2652 0
M  V30 6539 H 649.577 4.79257 -1.96299 0
M  V30 6540 H 646.254 4.14071 0.533988 0
M  V30 6541 H 647.644 5.979 -3.06537 0
M  V30 6542 N 650.364 0.662433 1.43002 0
M  V30 6543 C 651.589 0.186003 2.06564 0
M  V30 6544 C 652.014 -1.14314 1.49379 0
M  V30 6545 O 651.372 -1.70824 0.607346 0
M  V30 6546 C 651.42 0.118269 3.60406 0
M  V30 6547 O 650.524 -0.916859 4.02079 0
M  V30 6548 H 649.865 0.0990981 0.656563 0
M  V30 6549 H 652.395 0.907958 1.8335 0
M  V30 6550 H 652.405 -0.0619981 4.07953 0
M  V30 6551 H 651.08 1.08849 4.01403 0
M  V30 6552 H 649.657 -0.708635 3.66105 0
M  V30 6553 N 651.842 -1.52309 0.404946 0
M  V30 6554 C 652.774 -2.24579 -0.45791 0
M  V30 6555 C 653.787 -1.2739 -1.01369 0
M  V30 6556 O 654.976 -1.53363 -0.91335 0
M  V30 6557 C 652.076 -2.9608 -1.64893 0
M  V30 6558 C 651.249 -4.20106 -1.21777 0
M  V30 6559 C 650.308 -4.74468 -2.27523 0
M  V30 6560 O 649.334 -5.37157 -1.88285 0
M  V30 6561 N 650.536 -4.55678 -3.59635 0
M  V30 6562 H 653.301 -2.99265 0.161341 0
M  V30 6563 H 650.862 -1.60228 0.232107 0
M  V30 6564 H 652.854 -3.29344 -2.35191 0
M  V30 6565 H 651.424 -2.24606 -2.17419 0
M  V30 6566 H 650.644 -3.92704 -0.343071 0
M  V30 6567 H 651.932 -5.00658 -0.906596 0
M  V30 6568 H 651.33 -4.05673 -3.94266 0
M  V30 6569 H 649.887 -4.9339 -4.25922 0
M  V30 6570 N 653.32 -0.135238 -1.57019 0
M  V30 6571 C 654.569 0.518694 -1.94917 0
M  V30 6572 C 654.882 1.66783 -1.0219 0
M  V30 6573 O 656.088 2.38561 -1.29619 0
M  V30 6574 C 654.544 0.974123 -3.46466 0
M  V30 6575 C 654.152 -0.147439 -4.47757 0
M  V30 6576 C 655.896 1.59851 -3.93253 0
M  V30 6577 C 653.803 0.325599 -5.90503 0
M  V30 6578 H 652.733 0.19754 -0.727663 0
M  V30 6579 H 655.384 -0.217698 -1.82204 0
M  V30 6580 H 653.766 1.76542 -3.5447 0
M  V30 6581 H 654.94 -0.924122 -4.51438 0
M  V30 6582 H 653.255 -0.679496 -4.10818 0
M  V30 6583 H 655.852 1.96385 -4.9733 0
M  V30 6584 H 656.195 2.48306 -3.3414 0
M  V30 6585 H 656.728 0.872323 -3.88118 0
M  V30 6586 H 653.467 -0.523295 -6.53408 0
M  V30 6587 H 652.987 1.06841 -5.90208 0
M  V30 6588 H 654.666 0.781498 -6.42263 0
M  V30 6589 N 654.798 1.5699 0.138552 0
M  V30 6590 C 655.746 1.99858 1.18994 0
M  V30 6591 C 656.74 0.89231 1.43994 0
M  V30 6592 O 657.946 1.0775 1.44187 0
M  V30 6593 H 654.321 0.636325 0.400743 0
M  V30 6594 H 656.292 2.87427 0.801755 0
M  V30 6595 C 655.041 2.40235 2.51361 0
M  V30 6596 H 654.364 3.24917 2.32957 0
M  V30 6597 H 655.804 2.74045 3.23535 0
M  V30 6598 C 654.263 1.25829 3.1252 0
M  V30 6599 O 654.793 0.563604 3.97727 0
M  V30 6600 N 652.999 1.02036 2.72097 0
M  V30 6601 H 652.546 1.58705 2.02905 0
M  V30 6602 H 652.504 0.256796 3.1335 0
M  V30 6603 N 656.276 -0.40816 1.52223 0
M  V30 6604 C 657.239 -1.48 1.7501 0
M  V30 6605 C 658.239 -1.48367 0.619996 0
M  V30 6606 O 659.429 -1.49874 0.887881 0
M  V30 6607 C 656.561 -2.87403 1.83336 0
M  V30 6608 H 657.754 -1.29086 2.70697 0
M  V30 6609 H 655.307 -0.638715 1.42654 0
M  V30 6610 H 656.042 -3.11686 0.895677 0
M  V30 6611 H 655.827 -2.8854 2.65494 0
M  V30 6612 H 657.317 -3.65103 2.02705 0
M  V30 6613 N 657.755 -1.42862 -0.66545 0
M  V30 6614 C 659.001 -1.44043 -1.42757 0
M  V30 6615 C 659.334 -0.0599629 -1.94107 0
M  V30 6616 O 658.609 0.917286 -1.71511 0
M  V30 6617 C 658.892 -2.47266 -2.61786 0
M  V30 6618 C 658.745 -3.94539 -2.16007 0
M  V30 6619 C 660.064 -2.47365 -3.64003 0
M  V30 6620 H 657.183 -0.524506 -0.517748 0
M  V30 6621 H 659.825 -1.74335 -0.755466 0
M  V30 6622 H 657.975 -2.21565 -3.19126 0
M  V30 6623 H 659.647 -4.31254 -1.63762 0
M  V30 6624 H 657.89 -4.07957 -1.47491 0
M  V30 6625 H 658.561 -4.62357 -3.01546 0
M  V30 6626 H 661.037 -2.70243 -3.16399 0
M  V30 6627 H 659.913 -3.21552 -4.44854 0
M  V30 6628 H 660.174 -1.50299 -4.15767 0
M  V30 6629 N 659.233 0.902656 -1.29189 0
M  V30 6630 C 660.479 1.65532 -1.17163 0
M  V30 6631 C 660.812 1.92216 0.276879 0
M  V30 6632 O 660.087 1.53048 1.20027 0
M  V30 6633 C 660.37 3.00629 -1.98228 0
M  V30 6634 C 660.223 2.81029 -3.51202 0
M  V30 6635 C 661.542 4.01321 -1.80635 0
M  V30 6636 H 658.661 0.60071 -0.426985 0
M  V30 6637 H 661.303 1.04578 -1.5863 0
M  V30 6638 H 659.453 3.52656 -1.62991 0
M  V30 6639 H 661.125 2.35927 -3.96404 0
M  V30 6640 H 659.368 2.1587 -3.76275 0
M  V30 6641 H 660.039 3.77014 -4.03192 0
M  V30 6642 H 662.515 3.58394 -2.11406 0
M  V30 6643 H 661.391 4.93792 -2.3971 0
M  V30 6644 H 661.652 4.35505 -0.760754 0
M  V30 6645 N 660.711 1.11618 1.11262 0
M  V30 6646 C 661.936 0.889013 1.8738 0
M  V30 6647 C 662.361 -0.555884 1.79698 0
M  V30 6648 O 661.719 -1.39272 1.16073 0
M  V30 6649 C 661.767 1.35759 3.34069 0
M  V30 6650 O 660.871 0.530499 4.08974 0
M  V30 6651 H 660.212 0.320082 0.581759 0
M  V30 6652 H 662.742 1.48611 1.40627 0
M  V30 6653 H 662.752 1.35291 3.84916 0
M  V30 6654 H 661.427 2.40973 3.38976 0
M  V30 6655 H 660.004 0.601439 3.68018 0
M  V30 6656 N 662.189 -1.289 0.906776 0
M  V30 6657 C 663.419 -1.99112 0.551168 0
M  V30 6658 C 663.827 -1.67998 -0.870243 0
M  V30 6659 O 663.17 -0.92525 -1.58697 0
M  V30 6660 C 663.232 -3.53162 0.672065 0
M  V30 6661 C 662.896 -4.07849 2.06174 0
M  V30 6662 C 663.893 -4.22212 3.0337 0
M  V30 6663 C 661.578 -4.4271 2.37304 0
M  V30 6664 C 663.572 -4.70678 4.29815 0
M  V30 6665 C 661.259 -4.90871 3.6399 0
M  V30 6666 C 662.257 -5.04811 4.6006 0
M  V30 6667 O 661.945 -5.51925 5.84495 0
M  V30 6668 H 661.677 -0.642728 0.209469 0
M  V30 6669 H 664.231 -1.65234 1.22012 0
M  V30 6670 H 662.461 -3.86662 -0.05394 0
M  V30 6671 H 664.15 -4.046 0.324579 0
M  V30 6672 H 664.916 -3.9556 2.80637 0
M  V30 6673 H 660.795 -4.31114 1.63283 0
M  V30 6674 H 664.339 -4.81474 5.04806 0
M  V30 6675 H 660.236 -5.16961 3.86551 0
M  V30 6676 H 661.004 -5.70225 5.87185 0
M  V30 6677 N 663.667 -0.670007 -1.42649 0
M  V30 6678 C 664.892 -0.196955 -2.06463 0
M  V30 6679 C 665.317 1.1352 -1.49983 0
M  V30 6680 O 664.675 1.705 -0.616397 0
M  V30 6681 C 664.723 -0.137381 -3.60338 0
M  V30 6682 O 663.827 0.895523 -4.02559 0
M  V30 6683 H 663.168 -0.102579 -0.656029 0
M  V30 6684 H 665.698 -0.917669 -1.82866 0
M  V30 6685 H 665.708 0.0403625 -4.0798 0
M  V30 6686 H 664.383 -1.10977 -4.0082 0
M  V30 6687 H 662.96 0.689209 -3.66476 0
M  V30 6688 N 665.145 1.52092 -0.413018 0
M  V30 6689 C 666.092 2.27119 0.410558 0
M  V30 6690 C 667.062 1.29692 1.03774 0
M  V30 6691 O 668.247 1.58561 1.06128 0
M  V30 6692 C 665.387 3.09863 1.51918 0
M  V30 6693 C 664.5 4.22252 0.912528 0
M  V30 6694 C 663.635 4.92348 1.99417 0
M  V30 6695 C 662.674 5.96694 1.36466 0
M  V30 6696 N 661.811 6.60292 2.38661 0
M  V30 6697 H 666.651 2.97067 -0.235661 0
M  V30 6698 H 664.188 1.46542 -0.128055 0
M  V30 6699 H 666.146 3.56144 2.17295 0
M  V30 6700 H 664.776 2.42078 2.13537 0
M  V30 6701 H 663.828 3.80113 0.147697 0
M  V30 6702 H 665.14 4.9709 0.412717 0
M  V30 6703 H 664.294 5.42054 2.72512 0
M  V30 6704 H 663.033 4.17087 2.52764 0
M  V30 6705 H 662.038 5.46304 0.61906 0
M  V30 6706 H 663.263 6.73899 0.838827 0
M  V30 6707 H 661.209 5.87858 2.91134 0
M  V30 6708 H 661.126 7.30816 1.93503 0
M  V30 6709 H 662.394 7.14635 3.11314 0
M  V30 6710 N 666.623 0.143563 1.56945 0
M  V30 6711 C 667.571 -0.814556 2.17871 0
M  V30 6712 C 668.565 -1.25778 1.13474 0
M  V30 6713 O 669.771 -1.22666 1.31731 0
M  V30 6714 H 666.146 -0.280873 0.697578 0
M  V30 6715 H 668.117 -0.276459 2.97117 0
M  V30 6716 C 666.866 -2.04503 2.81201 0
M  V30 6717 H 666.189 -1.71296 3.61245 0
M  V30 6718 H 667.629 -2.69493 3.27337 0
M  V30 6719 C 666.088 -2.85079 1.79532 0
M  V30 6720 O 666.618 -3.81306 1.26368 0
M  V30 6721 N 664.824 -2.49546 1.48913 0
M  V30 6722 H 664.371 -1.71359 1.92338 0
M  V30 6723 H 664.329 -3.03751 0.811348 0
M  V30 6724 N 668.101 -1.57061 -0.130224 0
M  V30 6725 C 669.348 -1.84257 -0.839972 0
M  V30 6726 C 669.676 -0.726986 -1.80403 0
M  V30 6727 O 668.931 0.282632 -1.93648 0
M  V30 6728 C 669.23 -3.17878 -1.63365 0
M  V30 6729 C 668.896 -4.43475 -0.814891 0
M  V30 6730 C 667.558 -4.77581 -0.589066 0
M  V30 6731 C 669.91 -5.20631 -0.243437 0
M  V30 6732 C 667.238 -5.86292 0.218648 0
M  V30 6733 C 669.59 -6.30192 0.551408 0
M  V30 6734 C 668.254 -6.62837 0.787653 0
M  V30 6735 H 667.524 -0.674245 -0.307367 0
M  V30 6736 H 670.171 -1.91224 -0.102832 0
M  V30 6737 H 668.476 -3.06437 -2.44138 0
M  V30 6738 H 670.173 -3.3614 -2.18658 0
M  V30 6739 H 666.763 -4.16747 -1.00098 0
M  V30 6740 H 670.947 -4.94644 -0.405145 0
M  V30 6741 H 666.203 -6.10017 0.411016 0
M  V30 6742 H 670.377 -6.89165 1.00126 0
M  V30 6743 H 668.004 -7.46908 1.41537 0
M  V30 6744 O 669.618 0.274706 -1.59147 0
M  V30 6745 H 670.309 0.920013 -1.70457 0
M  V30 END ATOM
M  V30 BEGIN BOND
M  V30 END BOND
M  V30 END CTAB
M  END
$$$$
