drugbank_target|A6PZ59 Rhesus blood group D antigen (DB05209; DB11597)
 OpenBabel12092120133D

  0  0  0     0  0            999 V3000
M  V30 BEGIN CTAB
M  V30 COUNTS 6497 6578 0 0 0
M  V30 BEGIN ATOM
M  V30 1 H -0.908 1.98254 -0.117106 0
M  V30 2 N 0 1.576 0 0
M  V30 3 C 0.933 2.03868 1.02534 0
M  V30 4 C 1.911 0.928543 1.3348 0
M  V30 5 O 3.095 1.19667 1.45644 0
M  V30 6 C 0.222 2.43627 2.35294 0
M  V30 7 C -0.732 3.65373 2.2001 0
M  V30 8 S 0.101 5.13292 1.52614 0
M  V30 9 C 1.257 5.56322 2.86805 0
M  V30 10 H 1.49 2.90518 0.631377 0
M  V30 11 H -0.977 1.52953 0.210867 0
M  V30 12 H 0.981 2.67203 3.11629 0
M  V30 13 H -0.358 1.57376 2.7183 0
M  V30 14 H -1.165 3.90944 3.18086 0
M  V30 15 H -1.563 3.418 1.51819 0
M  V30 16 H 0.729 5.58782 3.83104 0
M  V30 17 H 1.672 6.56266 2.65933 0
M  V30 18 H 2.08 4.83886 2.90714 0
M  V30 19 N 1.4781 -0.272755 1.55222 0
M  V30 20 C 2.7031 -1.02683 1.80197 0
M  V30 21 C 3.1281 -1.79142 0.573551 0
M  V30 22 O 2.4861 -1.74917 -0.476849 0
M  V30 23 C 2.5341 -1.9609 3.02624 0
M  V30 24 O 1.6381 -3.04863 2.77727 0
M  V30 25 H 0.9791 -0.293557 0.595584 0
M  V30 26 H 3.5091 -0.30159 2.02365 0
M  V30 27 H 3.5191 -2.38039 3.31363 0
M  V30 28 H 2.1941 -1.39851 3.91682 0
M  V30 29 H 0.7711 -2.67228 2.60084 0
M  V30 30 N 2.9562 -1.48159 -0.537278 0
M  V30 31 C 4.1812 -1.59707 -1.32319 0
M  V30 32 C 4.6062 -0.254859 -1.86365 0
M  V30 33 O 3.9642 0.772378 -1.64024 0
M  V30 34 C 4.0122 -2.6412 -2.45505 0
M  V30 35 O 3.1162 -2.20774 -3.48328 0
M  V30 36 H 2.4572 -0.535791 -0.392204 0
M  V30 37 H 4.9872 -1.94092 -0.647268 0
M  V30 38 H 4.9972 -2.85166 -2.91795 0
M  V30 39 H 3.6722 -3.61567 -2.05528 0
M  V30 40 H 2.2492 -2.09911 -3.08207 0
M  V30 41 N 4.4343 0.785586 -1.36625 0
M  V30 42 C 5.3813 1.89838 -1.31264 0
M  V30 43 C 6.3513 1.65115 -0.180633 0
M  V30 44 O 7.5363 1.87222 -0.36777 0
M  V30 45 C 4.6763 3.26706 -1.11163 0
M  V30 46 C 3.7893 3.63476 -2.33472 0
M  V30 47 C 2.9243 4.89481 -2.06353 0
M  V30 48 C 1.9633 5.18941 -3.24602 0
M  V30 49 N 1.1003 6.36131 -2.97123 0
M  V30 50 H 5.9403 1.93756 -2.26413 0
M  V30 51 H 3.4773 0.947454 -1.12524 0
M  V30 52 H 5.4353 4.05639 -0.975337 0
M  V30 53 H 4.0653 3.222 -0.196674 0
M  V30 54 H 3.1173 2.79636 -2.57891 0
M  V30 55 H 4.4293 3.81193 -3.21704 0
M  V30 56 H 3.5833 5.76288 -1.89675 0
M  V30 57 H 2.3223 4.73841 -1.15437 0
M  V30 58 H 1.3273 4.30615 -3.41834 0
M  V30 59 H 2.5523 5.36498 -4.16349 0
M  V30 60 H 0.4983 6.21875 -2.08823 0
M  V30 61 H 0.4153 6.54198 -3.78894 0
M  V30 62 H 1.6833 7.2591 -2.84033 0
M  V30 63 N 5.9124 1.20967 1.01018 0
M  V30 64 C 7.1424 1.04803 1.78044 0
M  V30 65 C 7.5504 -0.405462 1.84804 0
M  V30 66 O 6.8934 -1.2932 1.30468 0
M  V30 67 C 6.9554 1.56377 3.23707 0
M  V30 68 C 6.6194 3.04767 3.40538 0
M  V30 69 C 7.6164 4.02366 3.29239 0
M  V30 70 C 5.3014 3.43862 3.66147 0
M  V30 71 C 7.2954 5.37049 3.43304 0
M  V30 72 C 4.9824 4.78699 3.79855 0
M  V30 73 C 5.9804 5.75101 3.68439 0
M  V30 74 O 5.6684 7.07493 3.81719 0
M  V30 75 H 5.4004 0.368778 0.56655 0
M  V30 76 H 7.9544 1.60642 1.27997 0
M  V30 77 H 6.1844 0.949297 3.74867 0
M  V30 78 H 7.8734 1.36136 3.8239 0
M  V30 79 H 8.6394 3.73506 3.09384 0
M  V30 80 H 4.5184 2.69364 3.74118 0
M  V30 81 H 8.0624 6.12277 3.34309 0
M  V30 82 H 3.9594 5.07247 3.99213 0
M  V30 83 H 4.7274 7.1483 3.98697 0
M  V30 84 N 7.3905 -1.2043 1.01659 0
M  V30 85 C 8.8015 -1.71517 0.737482 0
M  V30 86 C 9.1525 -1.81547 -0.743973 0
M  V30 87 O 8.2775 -1.47803 -1.58061 0
M  V30 88 C 8.8725 -3.11515 1.33206 0
M  V30 89 C 7.4315 -3.59912 1.10183 0
M  V30 90 C 6.5785 -2.37116 1.43776 0
M  V30 91 H 9.5295 -1.05444 1.18606 0
M  V30 92 H 9.5505 -3.73575 0.722636 0
M  V30 93 H 9.0625 -3.04182 2.41028 0
M  V30 94 H 7.1635 -3.72577 0.0412756 0
M  V30 95 H 7.2765 -4.44731 1.78188 0
M  V30 96 H 5.6405 -2.39857 0.856778 0
M  V30 97 H 6.4235 -2.32424 2.52654 0
M  V30 98 N 8.8686 -0.792821 -1.36206 0
M  V30 99 C 10.2846 -0.474903 -1.52371 0
M  V30 100 C 10.4846 1.00622 -1.74578 0
M  V30 101 O 9.5406 1.79162 -1.77924 0
M  V30 102 C 10.8536 -1.3083 -2.70747 0
M  V30 103 C 12.4016 -1.30234 -2.84619 0
M  V30 104 C 12.8766 -2.11956 -4.06004 0
M  V30 105 N 14.3676 -2.09419 -4.13156 0
M  V30 106 C 15.1026 -2.69419 -5.06163 0
M  V30 107 N 14.5986 -3.3829 -6.04592 0
M  V30 108 N 16.3916 -2.59134 -4.98804 0
M  V30 109 H 8.5426 -1.75222 -1.20046 0
M  V30 110 H 10.8056 -0.745024 -0.586211 0
M  V30 111 H 10.5116 -2.35881 -2.6087 0
M  V30 112 H 10.3856 -0.95196 -3.6499 0
M  V30 113 H 12.7726 -0.259748 -2.93955 0
M  V30 114 H 12.8536 -1.69847 -1.91274 0
M  V30 115 H 12.4976 -3.16248 -3.97429 0
M  V30 116 H 12.4276 -1.69711 -4.98503 0
M  V30 117 H 14.9186 -1.59297 -3.42685 0
M  V30 118 H 15.2316 -3.81394 -6.7213 0
M  V30 119 H 13.5766 -3.42393 -6.04807 0
M  V30 120 H 16.7676 -2.04927 -4.20859 0
M  V30 121 H 16.9406 -3.06185 -5.711 0
M  V30 122 N 10.3467 1.47872 -0.545128 0
M  V30 123 C 11.5717 2.07391 -0.0190611 0
M  V30 124 C 11.9967 1.39688 1.25971 0
M  V30 125 O 11.3547 0.467816 1.7516 0
M  V30 126 C 11.4027 3.60188 0.172335 0
M  V30 127 O 10.5067 3.9339 1.23766 0
M  V30 128 H 9.8477 0.662411 -0.0459059 0
M  V30 129 H 12.3777 1.90066 -0.757365 0
M  V30 130 H 12.3877 4.06129 0.390305 0
M  V30 131 H 11.0627 4.08865 -0.761725 0
M  V30 132 H 9.6397 3.5921 1.00114 0
M  V30 133 N 11.8248 0.280983 1.55075 0
M  V30 134 C 13.0708 -0.33461 2.00021 0
M  V30 135 C 13.4038 -1.55063 1.16915 0
M  V30 136 O 12.6788 -1.93006 0.240646 0
M  V30 137 C 12.9618 -0.711007 3.53011 0
M  V30 138 C 12.8148 0.512766 4.46868 0
M  V30 139 C 14.1338 -1.54522 4.12081 0
M  V30 140 H 11.2528 -0.120147 0.727141 0
M  V30 141 H 13.8948 0.389097 1.85973 0
M  V30 142 H 12.0448 -1.32761 3.65112 0
M  V30 143 H 13.7168 1.15131 4.46702 0
M  V30 144 H 11.9598 1.14975 4.18286 0
M  V30 145 H 12.6308 0.205556 5.51617 0
M  V30 146 H 15.1068 -1.02442 4.03293 0
M  V30 147 H 13.9828 -1.77739 5.19327 0
M  V30 148 H 14.2438 -2.52813 3.62682 0
M  V30 149 N 13.3029 -1.57598 0.00835791 0
M  V30 150 C 14.7189 -1.55764 -0.347822 0
M  V30 151 C 14.9189 -1.01186 -1.74252 0
M  V30 152 O 13.9749 -0.649371 -2.44007 0
M  V30 153 C 15.2879 -2.99927 -0.215407 0
M  V30 154 C 16.8359 -3.11656 -0.289725 0
M  V30 155 C 17.3109 -4.57621 -0.18634 0
M  V30 156 N 18.8019 -4.62557 -0.243978 0
M  V30 157 C 19.5369 -5.73094 -0.18745 0
M  V30 158 N 19.0329 -6.92753 -0.0810331 0
M  V30 159 N 20.8259 -5.61588 -0.239925 0
M  V30 160 H 12.9769 -1.91411 0.92062 0
M  V30 161 H 15.2399 -0.879562 0.353659 0
M  V30 162 H 14.9459 -3.43729 0.744512 0
M  V30 163 H 14.8199 -3.63865 -0.994097 0
M  V30 164 H 17.2069 -2.67779 -1.24009 0
M  V30 165 H 17.2879 -2.5048 0.51898 0
M  V30 166 H 16.9319 -5.02174 0.760519 0
M  V30 167 H 16.8619 -5.16752 -1.01364 0
M  V30 168 H 19.3529 -3.76481 -0.327217 0
M  V30 169 H 19.6659 -7.72787 -0.0440241 0
M  V30 170 H 18.0109 -6.94984 -0.0465419 0
M  V30 171 H 21.2019 -4.66996 -0.321317 0
M  V30 172 H 21.3749 -6.47714 -0.192407 0
M  V30 173 N 14.781 0.264519 -1.55364 0
M  V30 174 C 16.197 0.61215 -1.47394 0
M  V30 175 C 16.397 1.89134 -0.695018 0
M  V30 176 O 15.453 2.51563 -0.217275 0
M  V30 177 C 16.766 0.731235 -2.91674 0
M  V30 178 C 18.314 0.82473 -3.01939 0
M  V30 179 C 18.789 0.975522 -4.4749 0
M  V30 180 N 20.28 1.04083 -4.51354 0
M  V30 181 C 21.015 1.17646 -5.61201 0
M  V30 182 N 20.511 1.27874 -6.80896 0
M  V30 183 N 22.304 1.20823 -5.48961 0
M  V30 184 H 14.455 -0.575456 -2.04456 0
M  V30 185 H 16.718 -0.196099 -0.927496 0
M  V30 186 H 16.424 -0.138392 -3.51428 0
M  V30 187 H 16.298 1.60883 -3.41169 0
M  V30 188 H 18.685 1.68482 -2.42276 0
M  V30 189 H 18.766 -0.0776479 -2.55682 0
M  V30 190 H 18.41 0.120058 -5.07758 0
M  V30 191 H 18.34 1.89268 -4.91412 0
M  V30 192 H 20.831 0.973846 -3.65136 0
M  V30 193 H 21.144 1.38081 -7.60364 0
M  V30 194 H 19.489 1.24863 -6.83692 0
M  V30 195 H 22.68 1.12469 -4.54388 0
M  V30 196 H 22.853 1.31049 -6.3461 0
M  V30 197 N 16.2591 1.48442 0.529413 0
M  V30 198 C 17.4991 1.58086 1.29569 0
M  V30 199 C 17.8631 0.249302 1.90375 0
M  V30 200 O 19.0641 0.220738 2.67892 0
M  V30 201 C 17.3351 2.68793 2.35552 0
M  V30 202 S 18.8941 2.98207 3.21898 0
M  V30 203 H 15.7121 0.557922 0.440732 0
M  V30 204 H 18.3141 1.85966 0.603059 0
M  V30 205 H 17.0181 3.64102 1.89363 0
M  V30 206 H 16.5491 2.42817 3.09522 0
M  V30 207 H 18.5641 2.37548 4.35644 0
M  V30 208 N 17.7372 -0.778329 1.37039 0
M  V30 209 C 18.6672 -1.90546 1.34962 0
M  V30 210 C 19.6482 -1.68681 0.219274 0
M  V30 211 O 20.8332 -1.89634 0.418624 0
M  V30 212 C 17.9632 -3.27734 1.14925 0
M  V30 213 C 16.9172 -3.64147 2.24902 0
M  V30 214 C 16.2432 -4.99806 1.89996 0
M  V30 215 C 17.5432 -3.71579 3.67051 0
M  V30 216 H 19.2372 -1.92541 2.29277 0
M  V30 217 H 16.7832 -0.924948 1.10366 0
M  V30 218 H 18.7362 -4.06215 1.12104 0
M  V30 219 H 17.4602 -3.26154 0.170631 0
M  V30 220 H 16.1192 -2.8797 2.26868 0
M  V30 221 H 15.7672 -4.94759 0.906796 0
M  V30 222 H 15.4672 -5.25139 2.63634 0
M  V30 223 H 16.9912 -5.80694 1.88749 0
M  V30 224 H 18.4052 -4.40227 3.67251 0
M  V30 225 H 16.8022 -4.08405 4.39688 0
M  V30 226 H 17.8722 -2.72404 4.01154 0
M  V30 227 N 19.2153 -1.21501 -1.00376 0
M  V30 228 C 20.6263 -1.03146 -1.55621 0
M  V30 229 C 20.9773 0.408375 -1.91903 0
M  V30 230 O 20.1023 1.29177 -1.73616 0
M  V30 231 C 20.6973 -1.86612 -2.82775 0
M  V30 232 C 19.2563 -1.72586 -3.34501 0
M  V30 233 C 18.4033 -1.83747 -2.07683 0
M  V30 234 H 21.3543 -1.35505 -0.826081 0
M  V30 235 H 21.3753 -1.3771 -3.54706 0
M  V30 236 H 20.8873 -2.91399 -2.56336 0
M  V30 237 H 18.9883 -0.704877 -3.65872 0
M  V30 238 H 19.1013 -2.54623 -4.05837 0
M  V30 239 H 17.4653 -1.27069 -2.20739 0
M  V30 240 H 18.2483 -2.90044 -1.83655 0
M  V30 241 N 20.6934 1.19889 -1.02296 0
M  V30 242 C 21.6234 2.25141 -0.619174 0
M  V30 243 C 22.6044 1.66051 0.368915 0
M  V30 244 O 23.7894 1.92546 0.252941 0
M  V30 245 C 20.9194 3.4728 0.0368783 0
M  V30 246 C 19.8734 4.19005 -0.872865 0
M  V30 247 C 19.1994 5.34637 -0.0822402 0
M  V30 248 C 20.4994 4.74452 -2.18387 0
M  V30 249 H 22.1934 2.59171 -1.49903 0
M  V30 250 H 19.7394 1.24579 -0.722222 0
M  V30 251 H 21.6924 4.20098 0.330958 0
M  V30 252 H 20.4164 3.12433 0.95149 0
M  V30 253 H 19.0754 3.48061 -1.15105 0
M  V30 254 H 18.7234 4.96034 0.83422 0
M  V30 255 H 18.4234 5.83557 -0.688149 0
M  V30 256 H 19.9474 6.10255 0.205238 0
M  V30 257 H 21.3614 5.39055 -1.95172 0
M  V30 258 H 19.7584 5.33834 -2.74119 0
M  V30 259 H 20.8284 3.92844 -2.84257 0
M  V30 260 N 22.1715 0.800033 1.35784 0
M  V30 261 C 23.4175 0.38701 1.99684 0
M  V30 262 C 23.7725 -1.03268 1.62338 0
M  V30 263 O 23.0655 -1.70543 0.87325 0
M  V30 264 C 23.2595 0.500276 3.53881 0
M  V30 265 C 23.0885 1.92942 4.06206 0
M  V30 266 C 21.8585 2.55637 4.35865 0
M  V30 267 C 24.0565 2.89307 4.25213 0
M  V30 268 N 22.0385 3.9003 4.74078 0
M  V30 269 C 23.4095 4.08556 4.66349 0
M  V30 270 C 25.4645 2.86225 4.07406 0
M  V30 271 C 24.1675 5.25146 4.91543 0
M  V30 272 C 26.1935 4.02011 4.33752 0
M  V30 273 C 25.5555 5.20007 4.75155 0
M  V30 274 H 21.6545 0.189252 0.758754 0
M  V30 275 H 24.2385 1.03988 1.64604 0
M  V30 276 H 22.4095 -0.122568 3.88207 0
M  V30 277 H 24.1415 0.0624733 4.04652 0
M  V30 278 H 20.8965 2.07039 4.25948 0
M  V30 279 H 21.3205 4.59205 4.97454 0
M  V30 280 H 25.9625 1.96154 3.74544 0
M  V30 281 H 23.6805 6.15794 5.23281 0
M  V30 282 H 27.2665 4.00999 4.21534 0
M  V30 283 H 26.1465 6.08113 4.95145 0
M  V30 284 N 23.6496 -1.47581 0.552962 0
M  V30 285 C 24.6126 -2.28439 -0.186605 0
M  V30 286 C 25.6126 -1.36706 -0.84665 0
M  V30 287 O 26.8026 -1.59378 -0.703164 0
M  V30 288 C 23.9346 -3.16264 -1.2724 0
M  V30 289 H 25.1276 -2.95294 0.523609 0
M  V30 290 H 22.6806 -1.532 0.309745 0
M  V30 291 H 23.4156 -2.54091 -2.01514 0
M  V30 292 H 23.2006 -3.83769 -0.803968 0
M  V30 293 H 24.6906 -3.77198 -1.79196 0
M  V30 294 N 25.1277 -0.289203 -1.54924 0
M  V30 295 C 26.0577 0.58549 -2.2604 0
M  V30 296 C 27.0387 1.14753 -1.25562 0
M  V30 297 O 28.2237 1.17906 -1.54311 0
M  V30 298 C 25.3537 1.76305 -2.99222 0
M  V30 299 C 24.3077 1.33191 -4.06748 0
M  V30 300 C 23.6337 2.5937 -4.6758 0
M  V30 301 C 24.9337 0.471775 -5.20165 0
M  V30 302 H 26.6277 -0.00763532 -2.99399 0
M  V30 303 H 24.1737 -0.00511229 -1.43999 0
M  V30 304 H 26.1267 2.38097 -3.47689 0
M  V30 305 H 24.8507 2.38223 -2.23422 0
M  V30 306 H 23.5097 0.737121 -3.59113 0
M  V30 307 H 23.1577 3.19576 -3.88433 0
M  V30 308 H 22.8577 2.31228 -5.40192 0
M  V30 309 H 24.3817 3.21985 -5.18804 0
M  V30 310 H 25.7957 0.995056 -5.64599 0
M  V30 311 H 24.1927 0.284639 -5.99425 0
M  V30 312 H 25.2627 -0.506041 -4.82252 0
M  V30 313 N 26.6058 1.57591 -0.0167156 0
M  V30 314 C 27.8338 1.95575 0.675128 0
M  V30 315 C 28.2488 0.892542 1.6637 0
M  V30 316 O 27.6058 -0.126912 1.82058 0
M  V30 317 C 27.6568 3.33608 1.39239 0
M  V30 318 O 27.3778 4.3585 0.443444 0
M  V30 319 C 28.8788 3.86151 2.17721 0
M  V30 320 H 26.0988 0.644423 0.186978 0
M  V30 321 H 28.6428 2.0437 -0.0728 0
M  V30 322 H 26.7978 3.2607 2.09182 0
M  V30 323 H 27.2118 5.158 0.951358 0
M  V30 324 H 28.6858 4.85114 2.63379 0
M  V30 325 H 29.1628 3.19738 3.01105 0
M  V30 326 H 29.7688 3.96918 1.52761 0
M  V30 327 N 28.0839 -0.256276 1.55502 0
M  V30 328 C 29.0139 -1.32102 1.92539 0
M  V30 329 C 29.9949 -1.50684 0.789194 0
M  V30 330 O 31.1799 -1.63449 1.04872 0
M  V30 331 C 28.3099 -2.67752 2.21192 0
M  V30 332 C 27.2639 -2.63878 3.36975 0
M  V30 333 C 26.5899 -4.03236 3.51147 0
M  V30 334 C 27.8899 -2.21682 4.72921 0
M  V30 335 H 29.5839 -1.01351 2.81724 0
M  V30 336 H 27.1299 -0.486105 1.35547 0
M  V30 337 H 29.0829 -3.42365 2.45691 0
M  V30 338 H 27.8069 -3.0012 1.28824 0
M  V30 339 H 26.4659 -1.91722 3.12471 0
M  V30 340 H 26.1139 -4.32854 2.56216 0
M  V30 341 H 25.8139 -4.01535 4.29003 0
M  V30 342 H 27.3379 -4.79563 3.77957 0
M  V30 343 H 28.7519 -2.86023 4.96854 0
M  V30 344 H 27.1489 -2.3111 5.53812 0
M  V30 345 H 28.2189 -1.16833 4.70615 0
M  V30 346 N 29.562 -1.4872 -0.521534 0
M  V30 347 C 30.472 -1.66569 -1.65203 0
M  V30 348 C 31.488 -0.548197 -1.65139 0
M  V30 349 O 32.664 -0.820339 -1.83936 0
M  V30 350 C 29.729 -1.70917 -3.01642 0
M  V30 351 C 28.79 -2.94356 -3.12495 0
M  V30 352 C 28.023 -2.98487 -4.42426 0
M  V30 353 O 28.246 -2.10786 -5.30024 0
M  V30 354 O 27.18 -3.90746 -4.57822 0
M  V30 355 H 31.006 -2.62298 -1.5308 0
M  V30 356 H 28.591 -1.3222 -0.695565 0
M  V30 357 H 30.473 -1.7625 -3.82771 0
M  V30 358 H 29.148 -0.783633 -3.14071 0
M  V30 359 H 28.055 -2.94552 -2.3063 0
M  V30 360 H 29.388 -3.86322 -3.04986 0
M  V30 361 N 31.0401 0.771051 -1.3745 0
M  V30 362 C 32.0031 1.86598 -1.33093 0
M  V30 363 C 33.0031 1.59076 -0.234845 0
M  V30 364 O 34.1931 1.67145 -0.490732 0
M  V30 365 C 31.3251 3.23747 -1.06773 0
M  V30 366 H 32.5181 1.91873 -2.30488 0
M  V30 367 H 30.0711 0.970876 -1.2249 0
M  V30 368 H 30.8061 3.24148 -0.099129 0
M  V30 369 H 30.5911 3.45115 -1.86112 0
M  V30 370 H 32.0811 4.03824 -1.06377 0
M  V30 371 N 32.5182 1.22032 0.997298 0
M  V30 372 C 33.4812 0.987909 2.06816 0
M  V30 373 C 34.4812 -0.0440084 1.6074 0
M  V30 374 O 35.6712 0.194053 1.73116 0
M  V30 375 C 32.8032 0.49132 3.37341 0
M  V30 376 H 33.9962 1.93803 2.28868 0
M  V30 377 H 31.5492 1.03838 1.16822 0
M  V30 378 H 32.2842 -0.463364 3.20973 0
M  V30 379 H 32.0692 1.23575 3.72118 0
M  V30 380 H 33.5592 0.348824 4.16141 0
M  V30 381 N 33.9963 -1.19345 1.0293 0
M  V30 382 C 34.9263 -2.2481 0.631105 0
M  V30 383 C 35.9073 -1.66245 -0.360104 0
M  V30 384 O 37.0923 -1.92677 -0.242726 0
M  V30 385 C 34.2223 -3.47295 -0.0184607 0
M  V30 386 C 33.1763 -4.18536 0.895073 0
M  V30 387 C 32.5023 -5.34586 0.110592 0
M  V30 388 C 33.8023 -4.73287 2.209 0
M  V30 389 H 35.4963 -2.58372 1.51275 0
M  V30 390 H 33.0423 -1.24194 0.728818 0
M  V30 391 H 34.9953 -4.20268 -0.308675 0
M  V30 392 H 33.7193 -3.12933 -0.934907 0
M  V30 393 H 32.3783 -3.47446 1.16949 0
M  V30 394 H 32.0263 -4.96469 -0.807902 0
M  V30 395 H 31.7263 -5.83183 0.719087 0
M  V30 396 H 33.2503 -6.10355 -0.172871 0
M  V30 397 H 34.6643 -5.38013 1.98028 0
M  V30 398 H 33.0613 -5.32373 2.76946 0
M  V30 399 H 34.1313 -3.91331 2.86336 0
M  V30 400 N 35.4744 -0.807222 -1.35358 0
M  V30 401 C 36.7234 -0.384376 -1.98004 0
M  V30 402 C 37.0364 1.0543 -1.64754 0
M  V30 403 O 38.2424 1.58029 -2.20769 0
M  V30 404 C 36.6984 -0.636326 -3.5423 0
M  V30 405 C 36.3064 -2.08759 -3.96388 0
M  V30 406 C 38.0504 -0.278869 -4.23583 0
M  V30 407 C 35.9574 -2.28525 -5.45463 0
M  V30 408 H 34.8874 -0.139986 -0.740891 0
M  V30 409 H 37.5384 -0.991369 -1.54415 0
M  V30 410 H 35.9204 0.0406256 -3.95979 0
M  V30 411 H 37.0944 -2.8024 -3.6579 0
M  V30 412 H 35.4094 -2.40497 -3.39926 0
M  V30 413 H 38.0064 -0.404599 -5.33167 0
M  V30 414 H 38.3494 0.775012 -4.09022 0
M  V30 415 H 38.8824 -0.909764 -3.87257 0
M  V30 416 H 35.6214 -3.32361 -5.64992 0
M  V30 417 H 35.1414 -1.61569 -5.77629 0
M  V30 418 H 36.8204 -2.10109 -6.11934 0
M  V30 419 N 36.9525 1.47285 -0.560781 0
M  V30 420 C 37.8825 2.32857 0.173105 0
M  V30 421 C 38.8635 1.44009 0.905281 0
M  V30 422 O 40.0485 1.7286 0.885046 0
M  V30 423 C 37.1785 3.25861 1.20133 0
M  V30 424 C 36.1325 4.23978 0.585388 0
M  V30 425 C 35.4585 5.06332 1.7185 0
M  V30 426 C 36.7585 5.20242 -0.463178 0
M  V30 427 H 38.4525 2.94466 -0.541307 0
M  V30 428 H 35.9985 1.41601 -0.261764 0
M  V30 429 H 37.9515 3.84569 1.72293 0
M  V30 430 H 36.6755 2.62315 1.94573 0
M  V30 431 H 35.3345 3.66501 0.085054 0
M  V30 432 H 34.9825 4.39186 2.45203 0
M  V30 433 H 34.6825 5.72762 1.31213 0
M  V30 434 H 36.2065 5.67899 2.24329 0
M  V30 435 H 37.6205 5.73293 -0.027502 0
M  V30 436 H 36.0175 5.94896 -0.788627 0
M  V30 437 H 37.0875 4.65504 -1.35773 0
M  V30 438 N 38.4306 0.297415 1.54768 0
M  V30 439 C 39.3606 -0.573494 2.26348 0
M  V30 440 C 40.3416 -1.14085 1.26169 0
M  V30 441 O 41.5266 -1.17086 1.54934 0
M  V30 442 C 38.6566 -1.74716 3.00153 0
M  V30 443 C 37.6106 -1.31032 4.07449 0
M  V30 444 C 36.9366 -2.56887 4.68949 0
M  V30 445 C 38.2366 -0.444183 5.20408 0
M  V30 446 H 39.9306 0.0235131 2.99391 0
M  V30 447 H 37.4766 0.0127488 1.43994 0
M  V30 448 H 39.4296 -2.3625 3.48947 0
M  V30 449 H 38.1536 -2.37035 2.24682 0
M  V30 450 H 36.8126 -0.718066 3.59499 0
M  V30 451 H 36.4606 -3.17512 3.90122 0
M  V30 452 H 36.1606 -2.2836 5.41411 0
M  V30 453 H 37.6846 -3.19229 5.20505 0
M  V30 454 H 39.0986 -0.9651 5.65118 0
M  V30 455 H 37.4956 -0.252846 5.99567 0
M  V30 456 H 38.5656 0.531609 4.81977 0
M  V30 457 N 39.9087 -1.5758 0.0250728 0
M  V30 458 C 41.1557 -1.91633 -0.654444 0
M  V30 459 C 41.4837 -0.901103 -1.72367 0
M  V30 460 O 40.7387 0.0905647 -1.9549 0
M  V30 461 C 41.0377 -3.32421 -1.31268 0
M  V30 462 C 40.7037 -4.49344 -0.374223 0
M  V30 463 C 39.3657 -4.8106 -0.115911 0
M  V30 464 C 41.7177 -5.20498 0.270432 0
M  V30 465 C 39.0457 -5.8129 0.79493 0
M  V30 466 C 41.3977 -6.21699 1.1693 0
M  V30 467 C 40.0617 -6.51859 1.43655 0
M  V30 468 H 39.3317 -0.701236 -0.239478 0
M  V30 469 H 41.9787 -1.91307 0.0859734 0
M  V30 470 H 40.2837 -3.28989 -2.12775 0
M  V30 471 H 41.9807 -3.56038 -1.84494 0
M  V30 472 H 38.5707 -4.24579 -0.58573 0
M  V30 473 H 42.7547 -4.96229 0.0839194 0
M  V30 474 H 38.0107 -6.03005 1.00973 0
M  V30 475 H 42.1847 -6.75955 1.67504 0
M  V30 476 H 39.8117 -7.2934 2.144 0
M  V30 477 N 41.3868 0.248026 -1.55636 0
M  V30 478 C 42.6168 0.992367 -1.81206 0
M  V30 479 C 43.0248 1.7949 -0.598324 0
M  V30 480 O 42.3678 1.78292 0.442434 0
M  V30 481 C 42.4298 1.97926 -3.00109 0
M  V30 482 C 42.0938 1.36377 -4.36177 0
M  V30 483 C 43.0908 0.76682 -5.14214 0
M  V30 484 C 40.7758 1.38347 -4.82872 0
M  V30 485 C 42.7698 0.197778 -6.37093 0
M  V30 486 C 40.4568 0.810574 -6.057 0
M  V30 487 C 41.4548 0.218754 -6.8265 0
M  V30 488 O 41.1428 -0.345298 -8.03158 0
M  V30 489 H 40.8748 0.297704 -0.606917 0
M  V30 490 H 43.4288 0.276517 -2.0353 0
M  V30 491 H 41.6588 2.73339 -2.73538 0
M  V30 492 H 43.3478 2.58694 -3.12781 0
M  V30 493 H 44.1138 0.744114 -4.79258 0
M  V30 494 H 39.9928 1.8335 -4.2297 0
M  V30 495 H 43.5368 -0.264788 -6.97097 0
M  V30 496 H 39.4338 0.830604 -6.40134 0
M  V30 497 H 40.2018 -0.237055 -8.18157 0
M  V30 498 N 42.8649 1.48995 0.513639 0
M  V30 499 C 44.1119 1.57843 1.26854 0
M  V30 500 C 44.4399 0.259501 1.92761 0
M  V30 501 O 43.6949 -0.75159 1.80692 0
M  V30 502 C 43.9939 2.67756 2.36731 0
M  V30 503 C 43.6599 4.09669 1.88368 0
M  V30 504 C 42.3219 4.48291 1.74896 0
M  V30 505 C 44.6739 4.98537 1.52021 0
M  V30 506 C 42.0019 5.73568 1.23438 0
M  V30 507 C 44.3539 6.24319 1.0202 0
M  V30 508 C 43.0179 6.61783 0.871778 0
M  V30 509 H 42.2879 0.577587 0.464192 0
M  V30 510 H 44.9349 1.82778 0.571366 0
M  V30 511 H 43.2399 2.36743 3.12185 0
M  V30 512 H 44.9369 2.71813 2.9482 0
M  V30 513 H 41.5269 3.79176 1.99808 0
M  V30 514 H 45.7109 4.69363 1.61281 0
M  V30 515 H 40.9669 6.01304 1.10648 0
M  V30 516 H 45.1409 6.92566 0.729722 0
M  V30 517 H 42.7679 7.5874 0.470852 0
M  V30 518 N 44.343 -0.763751 1.37857 0
M  V30 519 C 45.59 -1.52257 1.33506 0
M  V30 520 C 45.918 -1.94343 -0.078022 0
M  V30 521 O 45.173 -1.64958 -1.05297 0
M  V30 522 C 45.472 -2.79499 2.22745 0
M  V30 523 C 45.138 -2.56426 3.70886 0
M  V30 524 C 43.8 -2.49842 4.11257 0
M  V30 525 C 46.152 -2.36008 4.64704 0
M  V30 526 C 43.48 -2.20841 5.43549 0
M  V30 527 C 45.832 -2.0853 5.97242 0
M  V30 528 C 44.496 -2.00396 6.36709 0
M  V30 529 H 43.766 -0.557149 0.488534 0
M  V30 530 H 46.413 -0.879073 1.70131 0
M  V30 531 H 44.718 -3.48447 1.79142 0
M  V30 532 H 46.415 -3.37413 2.16688 0
M  V30 533 H 43.005 -2.62416 3.38874 0
M  V30 534 H 47.189 -2.40079 4.34368 0
M  V30 535 H 42.445 -2.13045 5.73081 0
M  V30 536 H 46.619 -1.91732 6.69486 0
M  V30 537 H 44.246 -1.77688 7.39142 0
M  V30 538 N 45.8211 -1.22559 -0.990812 0
M  V30 539 C 47.0491 -1.07779 -1.76611 0
M  V30 540 C 47.4641 0.371513 -1.85109 0
M  V30 541 O 46.8211 1.25737 -1.32274 0
M  V30 542 C 46.8721 -1.68512 -3.19822 0
M  V30 543 O 46.5931 -3.07774 -3.1178 0
M  V30 544 C 48.0941 -1.59035 -4.13791 0
M  V30 545 H 45.3141 -0.377729 -0.554583 0
M  V30 546 H 47.8581 -1.62195 -1.24551 0
M  V30 547 H 46.0131 -1.18154 -3.68942 0
M  V30 548 H 46.4271 -3.37062 -4.01858 0
M  V30 549 H 47.9011 -2.0625 -5.1202 0
M  V30 550 H 48.3781 -0.547273 -4.35777 0
M  V30 551 H 48.9841 -2.08709 -3.70568 0
M  V30 552 N 47.2992 1.18797 -1.03562 0
M  V30 553 C 48.2492 2.20161 -0.592724 0
M  V30 554 C 49.2332 1.56772 0.362133 0
M  V30 555 O 50.4252 1.76062 0.182009 0
M  V30 556 C 47.5542 3.43266 0.0481024 0
M  V30 557 C 46.6402 4.13786 -0.9296 0
M  V30 558 N 47.0312 4.60388 -2.09467 0
M  V30 559 C 45.3292 4.39572 -0.754499 0
M  V30 560 C 46.0302 5.14619 -2.71187 0
M  V30 561 N 45.0062 5.05826 -1.991 0
M  V30 562 H 48.8082 2.53877 -1.48066 0
M  V30 563 H 46.3222 1.34946 -0.903514 0
M  V30 564 H 48.3192 4.15136 0.383058 0
M  V30 565 H 46.9792 3.11048 0.931636 0
M  V30 566 H 47.9902 4.54999 -2.47379 0
M  V30 567 H 44.6672 4.17425 0.0793713 0
M  V30 568 H 46.0572 5.60917 -3.69895 0
M  V30 569 N 48.7773 0.814389 1.34928 0
M  V30 570 C 50.0073 0.41054 2.0248 0
M  V30 571 C 50.4153 -0.985625 1.61499 0
M  V30 572 O 49.7583 -1.64781 0.811976 0
M  V30 573 C 49.8203 0.423384 3.56998 0
M  V30 574 C 49.4843 1.77141 4.21272 0
M  V30 575 C 50.4813 2.73093 4.42398 0
M  V30 576 C 48.1663 2.05755 4.58225 0
M  V30 577 C 50.1603 3.95838 4.9959 0
M  V30 578 C 47.8473 3.28762 5.1513 0
M  V30 579 C 48.8453 4.23621 5.35755 0
M  V30 580 O 48.5333 5.44456 5.91458 0
M  V30 581 H 48.2653 0.163997 0.655806 0
M  V30 582 H 50.8193 1.10155 1.73364 0
M  V30 583 H 49.0493 -0.324276 3.85338 0
M  V30 584 H 50.7383 0.0407683 4.0588 0
M  V30 585 H 51.5043 2.5228 4.14222 0
M  V30 586 H 47.3833 1.32727 4.4148 0
M  V30 587 H 50.9273 4.69891 5.15605 0
M  V30 588 H 46.8243 3.49443 5.42734 0
M  V30 589 H 47.5923 5.4586 6.09901 0
M  V30 590 N 50.2554 -1.46986 0.568584 0
M  V30 591 C 51.5324 -1.95592 -0.0174074 0
M  V30 592 C 51.9124 -1.51124 -1.47393 0
M  V30 593 O 51.2604 -0.755329 -2.15655 0
M  V30 594 C 51.4704 -3.48719 0.139913 0
M  V30 595 C 52.8184 -4.246 0.000426376 0
M  V30 596 O 53.8424 -3.56135 0.0680316 0
M  V30 597 O 52.7014 -5.46302 -0.146988 0
M  V30 598 H 49.7954 -0.82498 -0.0577599 0
M  V30 599 H 52.3414 -1.57335 0.635909 0
M  V30 600 H 51.1134 -3.73927 1.15301 0
M  V30 601 H 50.7364 -3.93771 -0.550491 0
M  V30 602 N 51.7335 -0.305618 -1.54608 0
M  V30 603 C 52.6965 0.555591 -2.22364 0
M  V30 604 C 53.6965 1.05768 -1.21119 0
M  V30 605 O 54.8865 0.952972 -1.45822 0
M  V30 606 C 52.0185 1.76974 -2.91364 0
M  V30 607 H 53.2115 -0.0364572 -2.99878 0
M  V30 608 H 50.7645 -0.0565007 -1.56198 0
M  V30 609 H 51.4995 2.40151 -2.17941 0
M  V30 610 H 51.2845 1.41732 -3.65588 0
M  V30 611 H 52.7745 2.38148 -3.43038 0
M  V30 612 N 53.2116 1.57565 -0.0334293 0
M  V30 613 C 54.4366 1.96689 0.657895 0
M  V30 614 C 54.8616 0.910057 1.64619 0
M  V30 615 O 54.2196 -0.128598 1.80843 0
M  V30 616 C 54.2676 3.34905 1.33683 0
M  V30 617 O 53.3716 3.31574 2.45219 0
M  V30 618 H 52.7126 0.641205 0.172489 0
M  V30 619 H 55.2426 2.04372 -0.0965621 0
M  V30 620 H 55.2526 3.71234 1.69262 0
M  V30 621 H 53.9276 4.11366 0.612411 0
M  V30 622 H 52.5046 3.06968 2.11719 0
M  V30 623 N 54.6897 -0.239769 1.55765 0
M  V30 624 C 55.6197 -1.30052 1.9393 0
M  V30 625 C 56.6007 -1.49839 0.805132 0
M  V30 626 O 57.7857 -1.62328 1.06599 0
M  V30 627 C 54.9157 -2.65391 2.2402 0
M  V30 628 C 53.8697 -2.60289 3.39755 0
M  V30 629 C 53.1957 -3.99489 3.55405 0
M  V30 630 C 54.4957 -2.16654 4.75246 0
M  V30 631 H 56.1897 -0.983573 2.82783 0
M  V30 632 H 53.7357 -0.471701 1.36055 0
M  V30 633 H 55.6887 -3.3974 2.49308 0
M  V30 634 H 54.4127 -2.98736 1.32 0
M  V30 635 H 53.0717 -1.88398 3.14487 0
M  V30 636 H 52.7197 -4.30112 2.60793 0
M  V30 637 H 52.4197 -3.96962 4.33238 0
M  V30 638 H 53.9437 -4.75528 3.83022 0
M  V30 639 H 55.3577 -2.80737 4.99859 0
M  V30 640 H 53.7547 -2.25223 5.56232 0
M  V30 641 H 54.8247 -1.11835 4.71827 0
M  V30 642 N 56.1678 -1.49265 -0.50573 0
M  V30 643 C 57.0778 -1.68312 -1.63427 0
M  V30 644 C 58.0938 -0.565682 -1.64548 0
M  V30 645 O 59.2698 -0.839801 -1.83055 0
M  V30 646 C 56.3348 -1.74107 -2.99813 0
M  V30 647 C 55.3958 -2.97653 -3.09356 0
M  V30 648 C 54.6288 -3.03163 -4.39236 0
M  V30 649 O 54.8518 -2.16396 -5.27758 0
M  V30 650 O 53.7858 -3.9558 -4.53652 0
M  V30 651 H 57.6118 -2.63907 -1.50289 0
M  V30 652 H 55.1968 -1.32951 -0.681502 0
M  V30 653 H 57.0788 -1.803 -3.80881 0
M  V30 654 H 55.7538 -0.816901 -3.13223 0
M  V30 655 H 54.6608 -2.96981 -2.27493 0
M  V30 656 H 55.9938 -3.89535 -3.00871 0
M  V30 657 N 57.6459 0.756429 -1.3826 0
M  V30 658 C 58.9229 1.50584 -1.24835 0
M  V30 659 C 59.3029 2.10556 0.151485 0
M  V30 660 O 58.6509 1.96825 1.1607 0
M  V30 661 C 58.8609 2.57448 -2.3563 0
M  V30 662 C 60.2089 3.24429 -2.73917 0
M  V30 663 O 61.2329 2.67751 -2.34921 0
M  V30 664 O 60.0919 4.26937 -3.41156 0
M  V30 665 H 57.1859 0.667664 -0.48801 0
M  V30 666 H 59.7319 0.792083 -1.5008 0
M  V30 667 H 58.5039 2.11362 -3.29305 0
M  V30 668 H 58.1269 3.36408 -2.11933 0
M  V30 669 N 59.124 1.23083 0.984299 0
M  V30 670 C 60.056 0.96636 2.07832 0
M  V30 671 C 61.069 -0.0582135 1.62696 0
M  V30 672 O 62.258 0.176843 1.77622 0
M  V30 673 C 59.358 0.433397 3.36117 0
M  V30 674 C 58.531 1.51722 4.10243 0
M  V30 675 C 57.59 0.989821 5.16807 0
M  V30 676 O 56.616 1.67794 5.43906 0
M  V30 677 N 57.818 -0.184367 5.80207 0
M  V30 678 H 60.583 1.90824 2.31098 0
M  V30 679 H 58.144 1.13888 1.1507 0
M  V30 680 H 60.136 0.065699 4.04647 0
M  V30 681 H 58.706 -0.413806 3.09849 0
M  V30 682 H 57.926 2.05786 3.36223 0
M  V30 683 H 59.214 2.24619 4.56534 0
M  V30 684 H 58.612 -0.760062 5.60571 0
M  V30 685 H 57.169 -0.493366 6.4993 0
M  V30 686 N 60.6021 -1.18246 1.0419 0
M  V30 687 C 61.5491 -2.2192 0.634037 0
M  V30 688 C 62.5191 -1.62179 -0.358765 0
M  V30 689 O 63.7041 -1.89122 -0.252466 0
M  V30 690 C 60.8441 -3.451 0.00445535 0
M  V30 691 C 59.9571 -4.19174 1.04487 0
M  V30 692 C 59.0921 -5.29813 0.383676 0
M  V30 693 C 58.1311 -5.9566 1.4091 0
M  V30 694 N 57.2681 -6.97834 0.772784 0
M  V30 695 H 62.1081 -2.56164 1.52263 0
M  V30 696 H 59.6451 -1.25843 0.761701 0
M  V30 697 H 61.6031 -4.15485 -0.377919 0
M  V30 698 H 60.2331 -3.11472 -0.847652 0
M  V30 699 H 59.2851 -3.47604 1.54518 0
M  V30 700 H 60.5971 -4.64267 1.82368 0
M  V30 701 H 59.7511 -6.06677 -0.0528366 0
M  V30 702 H 58.4901 -4.85825 -0.427208 0
M  V30 703 H 57.4951 -5.17535 1.85574 0
M  V30 704 H 58.7201 -6.4173 2.22171 0
M  V30 705 H 56.6661 -6.55998 -0.0177708 0
M  V30 706 H 56.5831 -7.41186 1.48928 0
M  V30 707 H 57.8511 -7.78665 0.36071 0
M  V30 708 N 62.0802 -0.821533 -1.34494 0
M  V30 709 C 63.3282 -0.408139 -1.97936 0
M  V30 710 C 63.6492 1.03193 -1.65457 0
M  V30 711 O 62.9192 1.71622 -0.944595 0
M  V30 712 H 61.4992 -0.147928 -0.732206 0
M  V30 713 H 64.1612 -1.05067 -1.64155 0
M  V30 714 H 63.2572 -0.52601 -3.07635 0
M  V30 715 N 63.5583 1.46682 -0.576371 0
M  V30 716 C 64.4883 2.33028 0.148397 0
M  V30 717 C 65.4693 1.44961 0.889956 0
M  V30 718 O 66.6543 1.73789 0.866662 0
M  V30 719 C 63.7843 3.27117 1.1667 0
M  V30 720 C 62.7383 4.24575 0.540386 0
M  V30 721 C 62.0643 5.08126 1.6647 0
M  V30 722 C 63.3643 5.19722 -0.518331 0
M  V30 723 H 65.0583 2.93875 -0.572509 0
M  V30 724 H 62.6043 1.41315 -0.276768 0
M  V30 725 H 64.5573 3.86374 1.68204 0
M  V30 726 H 63.2813 2.64364 1.9178 0
M  V30 727 H 61.9403 3.66571 0.0461769 0
M  V30 728 H 61.5883 4.41762 2.40531 0
M  V30 729 H 61.2883 5.74122 1.25131 0
M  V30 730 H 62.8123 5.70246 2.18293 0
M  V30 731 H 64.2263 5.73232 -0.0883058 0
M  V30 732 H 62.6233 5.94026 -0.851679 0
M  V30 733 H 63.6933 4.64037 -1.40703 0
M  V30 734 N 65.0364 0.313813 1.54444 0
M  V30 735 C 66.2824 -0.292108 2.00685 0
M  V30 736 C 66.6154 -1.52548 1.20177 0
M  V30 737 O 65.8904 -1.92452 0.281531 0
M  V30 738 C 66.1734 -0.635968 3.5444 0
M  V30 739 C 66.0264 0.607437 4.4568 0
M  V30 740 C 67.3454 -1.45747 4.15266 0
M  V30 741 H 64.4644 -0.104697 0.729526 0
M  V30 742 H 67.1064 0.428457 1.85106 0
M  V30 743 H 65.2564 -1.24986 3.67846 0
M  V30 744 H 66.9284 1.24581 4.44159 0
M  V30 745 H 65.1714 1.23822 4.15753 0
M  V30 746 H 65.8424 0.322515 5.51057 0
M  V30 747 H 68.3184 -0.938645 4.05375 0
M  V30 748 H 67.1944 -1.66683 5.2298 0
M  V30 749 H 67.4554 -2.45063 3.67963 0
M  V30 750 N 66.5145 -1.57545 0.0417849 0
M  V30 751 C 67.4775 -2.09885 -0.92093 0
M  V30 752 C 68.4775 -1.01648 -1.24596 0
M  V30 753 O 69.6675 -1.27759 -1.1842 0
M  V30 754 C 66.7995 -2.57527 -2.23367 0
M  V30 755 H 67.9925 -2.96236 -0.467382 0
M  V30 756 H 65.5455 -1.5493 -0.206467 0
M  V30 757 H 66.2805 -1.74542 -2.73323 0
M  V30 758 H 66.0655 -3.36613 -2.01083 0
M  V30 759 H 67.5555 -2.98201 -2.92346 0
M  V30 760 N 67.9926 0.231505 -1.5589 0
M  V30 761 C 69.2176 0.978689 -1.82856 0
M  V30 762 C 69.6426 1.77559 -0.620846 0
M  V30 763 O 69.0006 1.76119 0.430305 0
M  V30 764 C 69.0486 1.87997 -3.07716 0
M  V30 765 O 68.1526 2.97393 -2.85712 0
M  V30 766 H 67.4936 0.277663 -0.603158 0
M  V30 767 H 70.0236 0.24783 -2.03093 0
M  V30 768 H 70.0336 2.2917 -3.37558 0
M  V30 769 H 68.7086 1.29417 -3.95252 0
M  V30 770 H 67.2856 2.60238 -2.67078 0
M  V30 771 N 69.4707 1.49531 0.497807 0
M  V30 772 C 70.7007 1.62657 1.27382 0
M  V30 773 C 71.1087 0.298488 1.86831 0
M  V30 774 O 70.4517 -0.72647 1.68725 0
M  V30 775 C 70.5137 2.6393 2.44093 0
M  V30 776 C 70.1777 4.08195 2.05489 0
M  V30 777 C 71.1747 4.949 1.59279 0
M  V30 778 C 68.8597 4.53948 2.15026 0
M  V30 779 C 70.8537 6.25397 1.23113 0
M  V30 780 C 68.5407 5.84458 1.78473 0
M  V30 781 C 69.5387 6.70006 1.32591 0
M  V30 782 O 69.2267 7.98083 0.965327 0
M  V30 783 H 68.9587 0.550429 0.392434 0
M  V30 784 H 71.5127 1.96325 0.603801 0
M  V30 785 H 69.7427 2.25449 3.14181 0
M  V30 786 H 71.4317 2.66552 3.06113 0
M  V30 787 H 72.1977 4.60779 1.51354 0
M  V30 788 H 68.0767 3.87525 2.4969 0
M  V30 789 H 71.6207 6.92125 0.872299 0
M  V30 790 H 67.5177 6.18107 1.86048 0
M  V30 791 H 68.2857 8.11122 1.09652 0
M  V30 792 N 70.9488 -0.749086 1.3866 0
M  V30 793 C 71.8808 -1.87273 1.32142 0
M  V30 794 C 72.8938 -1.61127 0.232787 0
M  V30 795 O 74.0828 -1.71623 0.49069 0
M  V30 796 C 71.1828 -3.23005 1.02571 0
M  V30 797 C 70.3558 -3.7662 2.22433 0
M  V30 798 C 69.4148 -4.90879 1.89537 0
M  V30 799 O 68.4408 -5.05276 2.62078 0
M  V30 800 N 69.6428 -5.74198 0.853031 0
M  V30 801 H 72.4078 -1.93373 2.28969 0
M  V30 802 H 69.9688 -0.929216 1.32579 0
M  V30 803 H 71.9608 -3.96992 0.786085 0
M  V30 804 H 70.5308 -3.12262 0.145249 0
M  V30 805 H 69.7508 -2.94147 2.62434 0
M  V30 806 H 71.0388 -4.09173 3.02415 0
M  V30 807 H 70.4368 -5.6514 0.25155 0
M  V30 808 H 68.9938 -6.48313 0.67329 0
M  V30 809 N 72.4269 -1.23603 -0.977757 0
M  V30 810 C 73.6729 -1.07129 -1.72195 0
M  V30 811 C 74.0059 0.390501 -1.90233 0
M  V30 812 O 73.2809 1.28902 -1.45653 0
M  V30 813 C 73.5639 -1.80031 -3.11867 0
M  V30 814 C 73.4169 -3.33899 -3.01383 0
M  V30 815 C 74.7359 -1.56492 -4.11337 0
M  V30 816 H 71.8549 -0.390571 -0.624999 0
M  V30 817 H 74.4969 -1.52142 -1.13811 0
M  V30 818 H 72.6469 -1.41768 -3.6171 0
M  V30 819 H 74.3189 -3.81699 -2.59043 0
M  V30 820 H 72.5619 -3.62796 -2.37827 0
M  V30 821 H 73.2329 -3.801 -4.00285 0
M  V30 822 H 75.7089 -1.89757 -3.70313 0
M  V30 823 H 74.5849 -2.09973 -5.07151 0
M  V30 824 H 74.8459 -0.500874 -4.39254 0
M  V30 825 N 73.905 1.17692 -1.04816 0
M  V30 826 C 75.153 1.87488 -0.754497 0
M  V30 827 C 75.474 1.81205 0.720407 0
M  V30 828 O 74.744 1.23544 1.52032 0
M  V30 829 H 73.324 0.694101 -0.276102 0
M  V30 830 H 75.986 1.42793 -1.32651 0
M  V30 831 H 75.082 2.93328 -1.06606 0
M  V30 832 N 75.3831 0.828654 1.34056 0
M  V30 833 C 76.3151 0.212052 2.28217 0
M  V30 834 C 77.3281 -0.601362 1.51286 0
M  V30 835 O 78.5171 -0.430104 1.73241 0
M  V30 836 C 75.6171 -0.72088 3.31144 0
M  V30 837 C 74.7901 0.0509587 4.3737 0
M  V30 838 C 73.8491 -0.803766 5.20025 0
M  V30 839 O 72.8751 -0.246667 5.68665 0
M  V30 840 N 74.0771 -2.1227 5.40298 0
M  V30 841 H 76.8421 1.02105 2.81771 0
M  V30 842 H 74.4031 0.686153 1.46641 0
M  V30 843 H 76.3951 -1.29742 3.8334 0
M  V30 844 H 74.9651 -1.43061 2.77943 0
M  V30 845 H 74.1851 0.808831 3.85813 0
M  V30 846 H 75.4731 0.582065 5.0546 0
M  V30 847 H 74.8711 -2.59898 5.02464 0
M  V30 848 H 73.4281 -2.64796 5.95589 0
M  V30 849 N 76.8612 -1.46375 0.584142 0
M  V30 850 C 78.1382 -1.956 0.0033388 0
M  V30 851 C 78.5182 -1.52679 -1.45782 0
M  V30 852 O 77.8662 -0.77816 -2.14842 0
M  V30 853 C 78.0762 -3.48551 0.176891 0
M  V30 854 C 79.4242 -4.24576 0.0454609 0
M  V30 855 O 80.4482 -3.56043 0.105801 0
M  V30 856 O 79.3072 -5.46427 -0.0890376 0
M  V30 857 H 76.4012 -0.825547 -0.0490066 0
M  V30 858 H 78.9472 -1.56652 0.65256 0
M  V30 859 H 77.7192 -3.72683 1.1926 0
M  V30 860 H 77.3422 -3.94332 -0.508695 0
M  V30 861 N 78.3393 -0.321999 -1.54275 0
M  V30 862 C 79.2693 0.537411 -2.27231 0
M  V30 863 C 80.2503 1.12064 -1.27968 0
M  V30 864 O 81.4353 1.14606 -1.56777 0
M  V30 865 C 78.5653 1.69919 -3.02894 0
M  V30 866 C 77.5193 1.24534 -4.09482 0
M  V30 867 C 76.8453 2.49394 -4.72977 0
M  V30 868 C 78.1453 0.361335 -5.21049 0
M  V30 869 H 79.8393 -0.0711406 -2.99315 0
M  V30 870 H 77.3853 -0.0356555 -1.43956 0
M  V30 871 H 79.3383 2.30668 -3.52662 0
M  V30 872 H 78.0623 2.33431 -2.28424 0
M  V30 873 H 76.7213 0.660782 -3.60596 0
M  V30 874 H 76.3693 3.11265 -3.95124 0
M  V30 875 H 76.0693 2.19718 -5.44975 0
M  V30 876 H 77.5933 3.10908 -5.25517 0
M  V30 877 H 79.0073 0.875072 -5.66582 0
M  V30 878 H 77.4043 0.157428 -5.99893 0
M  V30 879 H 78.4743 -0.60822 -4.8107 0
M  V30 880 N 79.8174 1.5752 -0.0501392 0
M  V30 881 C 81.0454 1.96963 0.633492 0
M  V30 882 C 81.4604 0.927631 1.6444 0
M  V30 883 O 80.8174 -0.0882665 1.82286 0
M  V30 884 C 80.8684 3.36487 1.32132 0
M  V30 885 O 80.5894 4.36693 0.350894 0
M  V30 886 C 82.0904 3.90682 2.09481 0
M  V30 887 H 79.3104 0.648244 0.173266 0
M  V30 888 H 81.8544 2.0417 -0.116134 0
M  V30 889 H 80.0094 3.30434 2.02218 0
M  V30 890 H 80.4234 5.17702 0.841735 0
M  V30 891 H 81.8974 4.90591 2.5303 0
M  V30 892 H 82.3744 3.26053 2.94255 0
M  V30 893 H 82.9804 4.00069 1.44307 0
M  V30 894 N 81.2955 -0.223234 1.56011 0
M  V30 895 C 82.5415 -0.949279 1.79211 0
M  V30 896 C 82.8745 -1.84054 0.619494 0
M  V30 897 O 82.1495 -1.90726 -0.381317 0
M  V30 898 C 82.4325 -1.78965 3.12479 0
M  V30 899 C 82.2855 -0.924997 4.40186 0
M  V30 900 C 83.6045 -2.76774 3.42175 0
M  V30 901 H 80.7235 -0.343676 0.651963 0
M  V30 902 H 83.3655 -0.218253 1.88742 0
M  V30 903 H 81.5155 -2.41291 3.04485 0
M  V30 904 H 83.1875 -0.318615 4.60198 0
M  V30 905 H 81.4305 -0.230344 4.33188 0
M  V30 906 H 82.1015 -1.54735 5.29869 0
M  V30 907 H 84.5775 -2.24584 3.50287 0
M  V30 908 H 83.4535 -3.32678 4.36597 0
M  V30 909 H 83.7145 -3.54429 2.64258 0
M  V30 910 N 82.7736 -1.49793 -0.48987 0
M  V30 911 C 83.7066 -1.61898 -1.60823 0
M  V30 912 C 84.6846 -0.467651 -1.5573 0
M  V30 913 O 85.8686 -0.684682 -1.75626 0
M  V30 914 C 82.9956 -1.58422 -2.99366 0
M  V30 915 C 82.0416 -2.78889 -3.22682 0
M  V30 916 S 82.8746 -4.40429 -3.04602 0
M  V30 917 C 84.0306 -4.39617 -4.4552 0
M  V30 918 H 84.2636 -2.56502 -1.50312 0
M  V30 919 H 81.7966 -1.38822 -0.675849 0
M  V30 920 H 83.7546 -1.57103 -3.79248 0
M  V30 921 H 82.4156 -0.650866 -3.07283 0
M  V30 922 H 81.6086 -2.72708 -4.23847 0
M  V30 923 H 81.2106 -2.77678 -2.50541 0
M  V30 924 H 83.5026 -4.12022 -5.37814 0
M  V30 925 H 84.4456 -5.41097 -4.56749 0
M  V30 926 H 84.8536 -3.69554 -4.2672 0
M  V30 927 N 84.2517 0.741722 -1.39055 0
M  V30 928 C 85.2147 1.83733 -1.37021 0
M  V30 929 C 86.2147 1.58542 -0.268534 0
M  V30 930 O 87.4047 1.66067 -0.526076 0
M  V30 931 C 84.5367 3.2141 -1.13617 0
M  V30 932 H 85.7297 1.86941 -2.34506 0
M  V30 933 H 83.2827 0.944676 -1.24521 0
M  V30 934 H 84.0177 3.23865 -0.167863 0
M  V30 935 H 83.8027 3.4109 -1.93391 0
M  V30 936 H 85.2927 4.01477 -1.14918 0
M  V30 937 N 85.7298 1.2412 0.971189 0
M  V30 938 C 86.6928 1.03156 2.04674 0
M  V30 939 C 87.6928 -0.00990322 1.60797 0
M  V30 940 O 88.8828 0.230729 1.72665 0
M  V30 941 C 86.0148 0.562765 3.36223 0
M  V30 942 H 87.2078 1.98614 2.24705 0
M  V30 943 H 84.7608 1.06293 1.14593 0
M  V30 944 H 85.4958 -0.395176 3.21883 0
M  V30 945 H 85.2808 1.31441 3.69413 0
M  V30 946 H 86.7708 0.437015 4.15307 0
M  V30 947 N 87.2079 -1.17134 1.05439 0
M  V30 948 C 88.4569 -1.86791 0.761049 0
M  V30 949 C 88.7699 -1.82072 -0.714795 0
M  V30 950 O 89.9759 -2.47223 -1.12218 0
M  V30 951 C 88.4319 -3.35166 1.31117 0
M  V30 952 C 88.0399 -3.48381 2.81664 0
M  V30 953 C 89.7839 -4.10134 1.09499 0
M  V30 954 C 87.6909 -4.90793 3.29964 0
M  V30 955 H 86.6209 -0.699681 0.281002 0
M  V30 956 H 89.2719 -1.3226 1.27199 0
M  V30 957 H 87.6539 -3.8925 0.72803 0
M  V30 958 H 88.8279 -3.04502 3.45855 0
M  V30 959 H 87.1429 -2.86836 3.01851 0
M  V30 960 H 89.7399 -5.152 1.43084 0
M  V30 961 H 90.0829 -4.16287 0.0328772 0
M  V30 962 H 90.6159 -3.62264 1.64346 0
M  V30 963 H 87.3549 -4.89816 4.35616 0
M  V30 964 H 86.8749 -5.35333 2.70516 0
M  V30 965 H 88.5539 -5.59573 3.24787 0
M  V30 966 N 88.686 -0.835752 -1.33615 0
M  V30 967 C 89.934 -0.429109 -1.97492 0
M  V30 968 C 90.255 1.01433 -1.66543 0
M  V30 969 O 89.525 1.70611 -0.962744 0
M  V30 970 H 88.105 -0.155686 -0.730596 0
M  V30 971 H 90.767 -1.06802 -1.63031 0
M  V30 972 H 89.863 -0.55861 -3.0706 0
M  V30 973 N 90.1641 1.46063 -0.591896 0
M  V30 974 C 91.0941 2.33172 0.123673 0
M  V30 975 C 92.0751 1.45897 0.87453 0
M  V30 976 O 93.2601 1.74698 0.848181 0
M  V30 977 C 90.3901 3.28336 1.13194 0
M  V30 978 C 89.3441 4.25124 0.495324 0
M  V30 979 C 88.6701 5.09863 1.61071 0
M  V30 980 C 89.9701 5.19143 -0.573425 0
M  V30 981 H 91.6641 2.93252 -0.603646 0
M  V30 982 H 89.2101 1.41014 -0.291741 0
M  V30 983 H 91.1631 3.88137 1.64097 0
M  V30 984 H 89.8871 2.66383 1.88965 0
M  V30 985 H 88.5461 3.66599 0.00729452 0
M  V30 986 H 88.1941 4.44288 2.35832 0
M  V30 987 H 87.8941 5.75417 1.19035 0
M  V30 988 H 89.4181 5.72529 2.12233 0
M  V30 989 H 90.8321 5.73106 -0.1491 0
M  V30 990 H 89.2291 5.93089 -0.914636 0
M  V30 991 H 90.2991 4.62519 -1.45617 0
M  V30 992 N 91.6422 0.330177 1.54103 0
M  V30 993 C 92.8902 -0.269871 2.0029 0
M  V30 994 C 93.2112 -1.52133 1.21986 0
M  V30 995 O 92.4812 -1.93212 0.323438 0
M  V30 996 H 91.0612 -0.10271 0.739905 0
M  V30 997 H 93.7232 0.448249 1.89675 0
M  V30 998 H 92.8192 -0.52166 3.07709 0
M  V30 999 N 93.1203 -1.57491 0.0584922 0
M  V30 1000 C 94.3673 -1.92978 -0.613648 0
M  V30 1001 C 94.6953 -0.937461 -1.70417 0
M  V30 1002 O 93.9503 0.049078 -1.95638 0
M  V30 1003 C 94.2493 -3.3513 -1.24188 0
M  V30 1004 C 93.9153 -4.50037 -0.278826 0
M  V30 1005 C 92.5773 -4.81198 -0.0138447 0
M  V30 1006 C 94.9293 -5.19807 0.380777 0
M  V30 1007 C 92.2573 -5.79473 0.918052 0
M  V30 1008 C 94.6093 -6.19079 1.30091 0
M  V30 1009 C 93.2733 -6.48665 1.57449 0
M  V30 1010 H 92.5433 -0.706157 -0.22455 0
M  V30 1011 H 95.1903 -1.91082 0.126533 0
M  V30 1012 H 93.4953 -3.33429 -2.05749 0
M  V30 1013 H 95.1923 -3.59871 -1.769 0
M  V30 1014 H 91.7823 -4.25726 -0.495539 0
M  V30 1015 H 95.9663 -4.95939 0.189158 0
M  V30 1016 H 91.2223 -6.00727 1.1374 0
M  V30 1017 H 95.3963 -6.7225 1.81804 0
M  V30 1018 H 93.0233 -7.24628 2.29822 0
M  V30 1019 N 94.5984 0.214957 -1.56127 0
M  V30 1020 C 95.5284 1.2695 -1.95974 0
M  V30 1021 C 96.5094 1.48539 -0.828868 0
M  V30 1022 O 97.6944 1.60611 -1.09168 0
M  V30 1023 C 94.8244 2.61794 -2.28214 0
M  V30 1024 C 93.7784 2.54851 -3.43853 0
M  V30 1025 C 93.1044 3.93785 -3.61715 0
M  V30 1026 C 94.4044 2.09065 -4.78632 0
M  V30 1027 H 96.0984 0.93846 -2.84312 0
M  V30 1028 H 93.6444 0.449996 -1.36788 0
M  V30 1029 H 95.5974 3.35731 -2.54682 0
M  V30 1030 H 94.3214 2.96599 -1.36736 0
M  V30 1031 H 92.9804 1.8337 -3.17444 0
M  V30 1032 H 92.6284 4.25908 -2.67602 0
M  V30 1033 H 92.3284 3.90019 -4.39498 0
M  V30 1034 H 93.8524 4.69374 -3.90539 0
M  V30 1035 H 95.2664 2.7275 -5.04262 0
M  V30 1036 H 93.6634 2.16346 -5.59745 0
M  V30 1037 H 94.7334 1.04315 -4.73547 0
M  V30 1038 N 96.0765 1.50051 0.48192 0
M  V30 1039 C 97.3045 1.64237 1.25832 0
M  V30 1040 C 97.7195 0.321336 1.86045 0
M  V30 1041 O 97.0765 -0.695478 1.68729 0
M  V30 1042 C 97.1275 2.72548 2.37487 0
M  V30 1043 O 96.8485 3.99529 1.79745 0
M  V30 1044 C 98.3495 2.9761 3.28547 0
M  V30 1045 H 95.5695 0.55237 0.380957 0
M  V30 1046 H 98.1135 1.96207 0.576467 0
M  V30 1047 H 96.2685 2.43303 3.01467 0
M  V30 1048 H 96.6825 4.59342 2.5319 0
M  V30 1049 H 98.1565 3.77084 4.03127 0
M  V30 1050 H 98.6335 2.0826 3.86684 0
M  V30 1051 H 99.2395 3.28345 2.70314 0
M  V30 1052 N 97.5546 -0.734337 1.39446 0
M  V30 1053 C 98.7796 -1.52866 1.40167 0
M  V30 1054 C 99.2046 -1.881 -0.00171513 0
M  V30 1055 O 98.5626 -1.51957 -0.988879 0
M  V30 1056 C 98.6106 -2.79235 2.28167 0
M  V30 1057 O 97.7146 -3.75185 1.71201 0
M  V30 1058 H 97.0556 -0.461618 0.477289 0
M  V30 1059 H 99.5856 -0.905949 1.8345 0
M  V30 1060 H 99.5956 -3.27963 2.42702 0
M  V30 1061 H 98.2706 -2.52923 3.30156 0
M  V30 1062 H 96.8476 -3.33958 1.65912 0
M  V30 1063 N 99.0327 -1.24633 -0.964593 0
M  V30 1064 C 100.258 -1.11596 -1.74818 0
M  V30 1065 C 100.683 0.32723 -1.85232 0
M  V30 1066 O 100.041 1.23695 -1.32549 0
M  V30 1067 C 100.089 -1.76397 -3.1451 0
M  V30 1068 O 99.1927 -1.03685 -3.99153 0
M  V30 1069 H 98.5337 -0.390196 -0.537255 0
M  V30 1070 H 101.064 -1.65002 -1.20977 0
M  V30 1071 H 101.074 -1.8228 -3.65018 0
M  V30 1072 H 99.7487 -2.81401 -3.06246 0
M  V30 1073 H 98.3257 -1.05611 -3.57632 0
M  V30 1074 N 100.511 1.16574 -1.06058 0
M  V30 1075 C 101.758 1.87047 -0.775873 0
M  V30 1076 C 102.086 1.81562 0.697534 0
M  V30 1077 O 101.341 1.22445 1.52662 0
M  V30 1078 C 101.64 3.36195 -1.21275 0
M  V30 1079 C 101.306 3.6188 -2.68986 0
M  V30 1080 C 99.9678 3.68599 -3.09335 0
M  V30 1081 C 102.32 3.72648 -3.64394 0
M  V30 1082 C 99.6478 3.83584 -4.43937 0
M  V30 1083 C 102 3.89154 -4.98741 0
M  V30 1084 C 100.664 3.94114 -5.3873 0
M  V30 1085 H 99.9338 0.684452 -0.283912 0
M  V30 1086 H 102.581 1.37853 -1.32925 0
M  V30 1087 H 100.886 3.87505 -0.578528 0
M  V30 1088 H 102.583 3.89103 -0.969542 0
M  V30 1089 H 99.1728 3.57281 -2.36744 0
M  V30 1090 H 103.357 3.66769 -3.34356 0
M  V30 1091 H 98.6128 3.85677 -4.74409 0
M  V30 1092 H 102.787 3.96427 -5.72554 0
M  V30 1093 H 100.414 4.05478 -6.43033 0
M  V30 1094 N 101.989 0.842826 1.3317 0
M  V30 1095 C 103.405 0.531128 1.50503 0
M  V30 1096 C 103.605 -0.940734 1.78192 0
M  V30 1097 O 102.661 -1.72436 1.84451 0
M  V30 1098 C 103.974 1.40789 2.65705 0
M  V30 1099 C 105.522 1.40708 2.79589 0
M  V30 1100 C 105.997 2.26878 3.97857 0
M  V30 1101 N 107.488 2.24609 4.05099 0
M  V30 1102 C 108.223 2.88019 4.95815 0
M  V30 1103 N 107.719 3.60496 5.9162 0
M  V30 1104 N 109.512 2.77469 4.88843 0
M  V30 1105 H 101.663 1.79557 1.1346 0
M  V30 1106 H 103.926 0.766267 0.558156 0
M  V30 1107 H 103.632 2.454 2.51936 0
M  V30 1108 H 103.506 1.08677 3.61205 0
M  V30 1109 H 105.893 0.368668 2.92788 0
M  V30 1110 H 105.974 1.76829 1.84838 0
M  V30 1111 H 105.618 3.3078 3.85418 0
M  V30 1112 H 105.548 1.88096 4.91861 0
M  V30 1113 H 108.039 1.71906 3.36536 0
M  V30 1114 H 108.352 4.06076 6.57512 0
M  V30 1115 H 106.697 3.64604 5.91683 0
M  V30 1116 H 109.888 2.20406 4.12963 0
M  V30 1117 H 110.061 3.2717 5.59342 0
M  V30 1118 N 103.467 -1.45747 0.599634 0
M  V30 1119 C 104.883 -1.57424 0.26264 0
M  V30 1120 C 105.083 -1.59222 -1.23493 0
M  V30 1121 O 104.139 -1.51825 -2.01756 0
M  V30 1122 C 105.452 -2.86061 0.926795 0
M  V30 1123 C 107 -2.99722 0.901967 0
M  V30 1124 C 107.475 -4.31119 1.54598 0
M  V30 1125 N 108.966 -4.37858 1.5111 0
M  V30 1126 C 109.701 -5.3818 1.97863 0
M  V30 1127 N 109.197 -6.45083 2.52666 0
M  V30 1128 N 110.99 -5.29487 1.88679 0
M  V30 1129 H 103.141 -1.42823 1.57211 0
M  V30 1130 H 105.404 -0.68235 0.658105 0
M  V30 1131 H 105.11 -2.90605 1.98095 0
M  V30 1132 H 104.984 -3.74563 0.445238 0
M  V30 1133 H 107.371 -2.9475 -0.143617 0
M  V30 1134 H 107.452 -2.12652 1.42171 0
M  V30 1135 H 107.096 -4.36849 2.59085 0
M  V30 1136 H 107.026 -5.16992 1.00132 0
M  V30 1137 H 109.517 -3.61209 1.11068 0
M  V30 1138 H 109.83 -7.17869 2.86155 0
M  V30 1139 H 108.175 -6.45856 2.56701 0
M  V30 1140 H 111.366 -4.44877 1.4561 0
M  V30 1141 H 111.539 -6.07524 2.25429 0
M  V30 1142 N 104.945 -0.338344 -1.53925 0
M  V30 1143 C 105.895 0.536712 -2.21593 0
M  V30 1144 C 106.879 1.07015 -1.20153 0
M  V30 1145 O 108.071 1.00471 -1.45721 0
M  V30 1146 C 105.2 1.68977 -2.98834 0
M  V30 1147 C 104.286 1.17052 -4.07627 0
M  V30 1148 N 104.677 0.372085 -5.0443 0
M  V30 1149 C 102.975 1.44789 -4.21844 0
M  V30 1150 C 103.676 0.0909171 -5.81629 0
M  V30 1151 N 102.652 0.681131 -5.39316 0
M  V30 1152 H 106.454 -0.0804298 -2.9379 0
M  V30 1153 H 103.968 -0.144943 -1.61752 0
M  V30 1154 H 105.965 2.32857 -3.45808 0
M  V30 1155 H 104.625 2.31024 -2.28162 0
M  V30 1156 H 105.636 0.0136217 -5.17898 0
M  V30 1157 H 102.313 2.07313 -3.62391 0
M  V30 1158 H 103.703 -0.552817 -6.69622 0
M  V30 1159 N 106.423 1.57458 -0.0668435 0
M  V30 1160 C 107.648 1.9804 0.616027 0
M  V30 1161 C 108.073 0.944771 1.62652 0
M  V30 1162 O 107.431 -0.0902094 1.81075 0
M  V30 1163 C 107.479 3.37665 1.26549 0
M  V30 1164 O 106.583 3.36701 2.38131 0
M  V30 1165 H 105.924 0.644719 0.158849 0
M  V30 1166 H 108.454 2.04121 -0.139891 0
M  V30 1167 H 108.464 3.7474 1.6135 0
M  V30 1168 H 107.139 4.12573 0.525016 0
M  V30 1169 H 105.716 3.1139 2.0516 0
M  V30 1170 N 107.901 -0.206675 1.56239 0
M  V30 1171 C 109.147 -0.925733 1.81113 0
M  V30 1172 C 109.502 -1.81368 0.642135 0
M  V30 1173 O 108.795 -1.88126 -0.363211 0
M  V30 1174 C 108.989 -1.78675 3.09532 0
M  V30 1175 C 108.818 -0.98365 4.3881 0
M  V30 1176 C 107.588 -0.672661 5.00803 0
M  V30 1177 C 109.786 -0.341847 5.13163 0
M  V30 1178 N 107.768 0.150283 6.13716 0
M  V30 1179 C 109.139 0.343815 6.19046 0
M  V30 1180 C 111.194 -0.256392 4.97239 0
M  V30 1181 C 109.897 1.10678 7.10734 0
M  V30 1182 C 111.923 0.493142 5.8934 0
M  V30 1183 C 111.285 1.16729 6.94661 0
M  V30 1184 H 107.384 -0.318524 0.714189 0
M  V30 1185 H 109.968 -0.195378 1.93717 0
M  V30 1186 H 108.139 -2.4888 2.98183 0
M  V30 1187 H 109.871 -2.44441 3.22538 0
M  V30 1188 H 106.626 -0.994294 4.63045 0
M  V30 1189 H 107.05 0.551026 6.74754 0
M  V30 1190 H 111.692 -0.763249 4.15854 0
M  V30 1191 H 109.41 1.6251 7.91591 0
M  V30 1192 H 112.996 0.560465 5.79094 0
M  V30 1193 H 111.876 1.738 7.64698 0
M  V30 1194 N 109.379 -1.50304 -0.473955 0
M  V30 1195 C 110.604 -1.65175 -1.25427 0
M  V30 1196 C 111.029 -0.333673 -1.85117 0
M  V30 1197 O 110.387 0.702114 -1.67153 0
M  V30 1198 C 110.435 -2.74295 -2.34082 0
M  V30 1199 O 109.539 -2.35349 -3.38651 0
M  V30 1200 H 108.88 -0.551944 -0.369126 0
M  V30 1201 H 111.41 -1.96662 -0.564364 0
M  V30 1202 H 111.42 -2.97285 -2.79438 0
M  V30 1203 H 110.095 -3.69959 -1.90008 0
M  V30 1204 H 108.672 -2.22794 -2.99027 0
M  V30 1205 N 110.857 0.726932 -1.39834 0
M  V30 1206 C 112.082 1.52121 -1.40976 0
M  V30 1207 C 112.507 1.88098 -0.00826029 0
M  V30 1208 O 111.865 1.52479 0.980807 0
M  V30 1209 C 111.913 2.78021 -2.29644 0
M  V30 1210 O 111.017 3.74272 -1.73188 0
M  V30 1211 H 110.358 0.45908 -0.479731 0
M  V30 1212 H 112.888 0.896207 -1.83927 0
M  V30 1213 H 112.898 3.26671 -2.44438 0
M  V30 1214 H 111.573 2.51169 -3.31492 0
M  V30 1215 H 110.15 3.33073 -1.6768 0
M  V30 1216 N 112.336 1.25143 0.95797 0
M  V30 1217 C 113.582 1.09855 1.70469 0
M  V30 1218 C 113.915 -0.360187 1.90831 0
M  V30 1219 O 113.19 -1.26568 1.47685 0
M  V30 1220 C 113.473 1.8497 3.08963 0
M  V30 1221 C 113.326 3.38652 2.96032 0
M  V30 1222 C 114.645 1.63016 4.08795 0
M  V30 1223 H 111.764 0.400465 0.618706 0
M  V30 1224 H 114.406 1.53933 1.11376 0
M  V30 1225 H 112.556 1.47505 3.59409 0
M  V30 1226 H 114.228 3.85772 2.52938 0
M  V30 1227 H 112.471 3.66534 2.32025 0
M  V30 1228 H 113.142 3.8642 3.94187 0
M  V30 1229 H 115.618 1.95625 3.67247 0
M  V30 1230 H 114.494 2.18015 5.03747 0
M  V30 1231 H 114.755 0.570692 4.38401 0
M  V30 1232 N 113.814 -1.1601 1.06675 0
M  V30 1233 C 114.777 -2.18724 0.685001 0
M  V30 1234 C 115.777 -1.58496 -0.271246 0
M  V30 1235 O 116.967 -1.74119 -0.0531156 0
M  V30 1236 C 114.099 -3.40899 0.00853648 0
M  V30 1237 H 115.292 -2.54011 1.59431 0
M  V30 1238 H 112.845 -1.30352 0.862441 0
M  V30 1239 H 113.58 -3.11173 -0.913337 0
M  V30 1240 H 113.365 -3.8587 0.696204 0
M  V30 1241 H 114.855 -4.16886 -0.24414 0
M  V30 1242 N 115.292 -0.849877 -1.32721 0
M  V30 1243 C 116.539 -0.450923 -1.97416 0
M  V30 1244 C 116.867 0.992376 -1.67279 0
M  V30 1245 O 116.122 1.71048 -0.950845 0
M  V30 1246 C 116.421 -0.631272 -3.51781 0
M  V30 1247 C 116.087 -2.04432 -4.01894 0
M  V30 1248 C 114.749 -2.4308 -4.1529 0
M  V30 1249 C 117.101 -2.96679 -4.28522 0
M  V30 1250 C 114.429 -3.73257 -4.52654 0
M  V30 1251 C 116.781 -4.26349 -4.67343 0
M  V30 1252 C 115.445 -4.64939 -4.78945 0
M  V30 1253 H 114.715 -0.165004 -0.722395 0
M  V30 1254 H 117.362 -1.07901 -1.58207 0
M  V30 1255 H 115.667 0.0800767 -3.91718 0
M  V30 1256 H 117.364 -0.302709 -3.99856 0
M  V30 1257 H 113.954 -1.73419 -3.91949 0
M  V30 1258 H 118.138 -2.68054 -4.17685 0
M  V30 1259 H 113.394 -4.02946 -4.59831 0
M  V30 1260 H 117.568 -4.97895 -4.86902 0
M  V30 1261 H 115.195 -5.65855 -5.07654 0
M  V30 1262 N 116.77 1.45427 -0.607355 0
M  V30 1263 C 117.718 2.32269 0.12411 0
M  V30 1264 C 118.712 1.45955 0.859854 0
M  V30 1265 O 119.918 1.6244 0.775447 0
M  V30 1266 H 116.293 0.749691 0.0588839 0
M  V30 1267 H 118.264 2.91743 -0.626762 0
M  V30 1268 C 117.013 3.29567 1.1082 0
M  V30 1269 H 116.336 3.95978 0.551492 0
M  V30 1270 H 117.776 3.93061 1.58995 0
M  V30 1271 C 116.235 2.56722 2.18164 0
M  V30 1272 O 116.765 2.34842 3.25902 0
M  V30 1273 N 114.971 2.16861 1.93442 0
M  V30 1274 H 114.518 2.34855 1.05834 0
M  V30 1275 H 114.476 1.68444 2.65469 0
M  V30 1276 N 118.248 0.346503 1.53744 0
M  V30 1277 C 119.178 -0.501193 2.28058 0
M  V30 1278 C 120.159 -1.10014 1.29734 0
M  V30 1279 O 121.344 -1.12097 1.58581 0
M  V30 1280 C 118.474 -1.65078 3.05559 0
M  V30 1281 C 117.428 -1.18003 4.11411 0
M  V30 1282 C 116.754 -2.41837 4.76884 0
M  V30 1283 C 118.054 -0.278394 5.21558 0
M  V30 1284 H 119.748 0.11875 2.99164 0
M  V30 1285 H 117.294 0.0585531 1.43881 0
M  V30 1286 H 119.247 -2.25028 3.56287 0
M  V30 1287 H 117.971 -2.29767 2.32109 0
M  V30 1288 H 116.63 -0.603331 3.61601 0
M  V30 1289 H 116.278 -3.0494 4.00026 0
M  V30 1290 H 115.978 -2.1102 5.48402 0
M  V30 1291 H 117.502 -3.02508 5.30397 0
M  V30 1292 H 118.916 -0.784823 5.67903 0
M  V30 1293 H 117.313 -0.0619707 6.00068 0
M  V30 1294 H 118.383 0.684677 4.80042 0
M  V30 1295 N 119.726 -1.57421 0.075193 0
M  V30 1296 C 120.973 -1.93618 -0.593146 0
M  V30 1297 C 121.301 -0.955484 -1.69413 0
M  V30 1298 O 120.556 0.0283251 -1.9568 0
M  V30 1299 C 120.855 -3.36428 -1.20626 0
M  V30 1300 C 120.521 -4.50307 -0.231078 0
M  V30 1301 C 119.183 -4.81186 0.0371936 0
M  V30 1302 C 121.535 -5.19374 0.435888 0
M  V30 1303 C 118.863 -5.78466 0.979461 0
M  V30 1304 C 121.215 -6.17665 1.3665 0
M  V30 1305 C 119.879 -6.46958 1.6432 0
M  V30 1306 H 119.149 -0.708499 -0.217047 0
M  V30 1307 H 121.796 -1.90937 0.146793 0
M  V30 1308 H 120.101 -3.35592 -2.02201 0
M  V30 1309 H 121.798 -3.61727 -1.73073 0
M  V30 1310 H 118.388 -4.26227 -0.450357 0
M  V30 1311 H 122.572 -4.95711 0.241748 0
M  V30 1312 H 117.828 -5.99487 1.20106 0
M  V30 1313 H 122.002 -6.70284 1.88924 0
M  V30 1314 H 119.629 -7.2215 2.37494 0
M  V30 1315 N 121.204 0.198386 -1.56346 0
M  V30 1316 C 122.137 1.27381 -1.89339 0
M  V30 1317 C 123.115 1.44106 -0.753134 0
M  V30 1318 O 124.299 1.59549 -1.00381 0
M  V30 1319 C 121.426 2.6409 -2.12071 0
M  V30 1320 C 120.472 2.64253 -3.34772 0
M  V30 1321 S 121.305 2.16013 -4.89999 0
M  V30 1322 C 122.461 3.54553 -5.15794 0
M  V30 1323 H 122.694 0.992058 -2.8026 0
M  V30 1324 H 120.227 0.401726 -1.49082 0
M  V30 1325 H 122.185 3.42786 -2.2585 0
M  V30 1326 H 120.846 2.89478 -1.21906 0
M  V30 1327 H 120.039 3.64768 -3.47794 0
M  V30 1328 H 119.641 1.93637 -3.1997 0
M  V30 1329 H 121.933 4.50396 -5.06112 0
M  V30 1330 H 122.876 3.46428 -6.1757 0
M  V30 1331 H 123.284 3.49313 -4.43442 0
M  V30 1332 N 122.682 1.50554 0.465978 0
M  V30 1333 C 123.612 1.72722 1.57128 0
M  V30 1334 C 124.593 0.576294 1.6004 0
M  V30 1335 O 125.778 0.81598 1.76225 0
M  V30 1336 C 122.908 1.82605 2.95419 0
M  V30 1337 C 121.862 2.97835 3.07373 0
M  V30 1338 C 121.188 2.92867 4.47363 0
M  V30 1339 C 122.488 4.38265 2.84114 0
M  V30 1340 H 124.182 2.65267 1.38829 0
M  V30 1341 H 121.728 1.2765 0.666441 0
M  V30 1342 H 123.681 1.96698 3.72677 0
M  V30 1343 H 122.405 0.866858 3.14886 0
M  V30 1344 H 121.064 2.83401 2.3255 0
M  V30 1345 H 120.712 1.94783 4.63755 0
M  V30 1346 H 120.412 3.70227 4.56296 0
M  V30 1347 H 121.936 3.09015 5.26633 0
M  V30 1348 H 123.35 4.53198 3.51118 0
M  V30 1349 H 121.747 5.17115 3.04487 0
M  V30 1350 H 122.817 4.50281 1.7993 0
M  V30 1351 N 124.16 -0.719506 1.40217 0
M  V30 1352 C 125.123 -1.8153 1.39927 0
M  V30 1353 C 126.123 -1.58095 0.293723 0
M  V30 1354 O 127.313 -1.65209 0.552429 0
M  V30 1355 C 124.445 -3.19561 1.18716 0
M  V30 1356 H 125.638 -1.83186 2.37451 0
M  V30 1357 H 123.191 -0.924746 1.26008 0
M  V30 1358 H 123.926 -3.23557 0.219366 0
M  V30 1359 H 123.711 -3.3797 1.98793 0
M  V30 1360 H 125.201 -3.99598 1.21291 0
M  V30 1361 N 125.638 -1.25649 -0.95132 0
M  V30 1362 C 126.568 -1.08808 -2.06599 0
M  V30 1363 C 127.549 0.00382547 -1.701 0
M  V30 1364 O 128.734 -0.166325 -1.93486 0
M  V30 1365 C 125.864 -0.709542 -3.39975 0
M  V30 1366 C 124.818 -1.75206 -3.90496 0
M  V30 1367 C 124.144 -1.22811 -5.20405 0
M  V30 1368 C 125.444 -3.15153 -4.16504 0
M  V30 1369 H 127.138 -2.02048 -2.20946 0
M  V30 1370 H 124.684 -0.972835 -1.06169 0
M  V30 1371 H 126.637 -0.578649 -4.17408 0
M  V30 1372 H 125.361 0.258556 -3.25575 0
M  V30 1373 H 124.02 -1.87145 -3.15234 0
M  V30 1374 H 123.668 -0.250145 -5.02378 0
M  V30 1375 H 123.368 -1.92492 -5.55176 0
M  V30 1376 H 124.892 -1.10968 -6.00432 0
M  V30 1377 H 126.306 -3.06349 -4.84586 0
M  V30 1378 H 124.703 -3.82333 -4.62538 0
M  V30 1379 H 125.773 -3.61966 -3.22658 0
M  V30 1380 N 127.117 1.15442 -1.07289 0
M  V30 1381 C 128.365 1.85845 -0.794096 0
M  V30 1382 C 128.686 1.82692 0.681809 0
M  V30 1383 O 127.956 1.26741 1.49377 0
M  V30 1384 H 126.536 0.688089 -0.290763 0
M  V30 1385 H 129.198 1.39947 -1.3565 0
M  V30 1386 H 128.294 2.91001 -1.12804 0
M  V30 1387 N 128.595 0.856903 1.32268 0
M  V30 1388 C 129.841 0.462069 1.97466 0
M  V30 1389 C 130.174 -0.980298 1.67642 0
M  V30 1390 O 129.449 -1.68824 0.965858 0
M  V30 1391 C 129.732 0.704336 3.53145 0
M  V30 1392 C 129.585 2.19529 3.9259 0
M  V30 1393 C 130.904 0.1622 4.39801 0
M  V30 1394 H 128.023 0.169357 0.717278 0
M  V30 1395 H 130.665 1.07574 1.56614 0
M  V30 1396 H 128.815 0.181999 3.88073 0
M  V30 1397 H 130.487 2.78387 3.67829 0
M  V30 1398 H 128.73 2.67292 3.41668 0
M  V30 1399 H 129.401 2.31549 5.01088 0
M  V30 1400 H 131.877 0.608905 4.11621 0
M  V30 1401 H 130.753 0.361265 5.4771 0
M  V30 1402 H 131.014 -0.935158 4.32096 0
M  V30 1403 N 130.073 -1.45103 0.615059 0
M  V30 1404 C 131.005 -2.28786 -0.13762 0
M  V30 1405 C 132.018 -1.40376 -0.824525 0
M  V30 1406 O 133.207 -1.64681 -0.688662 0
M  V30 1407 C 130.307 -3.16322 -1.21628 0
M  V30 1408 C 129.48 -4.33054 -0.615039 0
M  V30 1409 C 128.539 -5.01743 -1.58556 0
M  V30 1410 O 127.565 -5.58293 -1.10895 0
M  V30 1411 N 128.767 -5.01714 -2.91998 0
M  V30 1412 H 131.532 -2.94025 0.580483 0
M  V30 1413 H 129.093 -1.55373 0.45507 0
M  V30 1414 H 131.085 -3.59139 -1.86552 0
M  V30 1415 H 129.655 -2.52943 -1.83681 0
M  V30 1416 H 128.875 -3.93627 0.21245 0
M  V30 1417 H 130.163 -5.08431 -0.193704 0
M  V30 1418 H 129.561 -4.57075 -3.33316 0
M  V30 1419 H 128.118 -5.48371 -3.52325 0
M  V30 1420 N 131.551 -0.354651 -1.53558 0
M  V30 1421 C 132.797 0.231422 -2.02079 0
M  V30 1422 C 133.152 1.47308 -1.23767 0
M  V30 1423 O 132.445 1.8891 -0.319947 0
M  V30 1424 C 132.639 0.587121 -3.52545 0
M  V30 1425 C 132.468 -0.618513 -4.45426 0
M  V30 1426 C 131.238 -1.12724 -4.92566 0
M  V30 1427 C 133.436 -1.48039 -4.92533 0
M  V30 1428 N 131.418 -2.29404 -5.69427 0
M  V30 1429 C 132.789 -2.49397 -5.67628 0
M  V30 1430 C 134.844 -1.50454 -4.74624 0
M  V30 1431 C 133.547 -3.53013 -6.26717 0
M  V30 1432 C 135.573 -2.52958 -5.34571 0
M  V30 1433 C 134.935 -3.5304 -6.09543 0
M  V30 1434 H 131.034 0.0476909 -0.780544 0
M  V30 1435 H 133.618 -0.496727 -1.88257 0
M  V30 1436 H 131.789 1.28436 -3.6655 0
M  V30 1437 H 133.521 1.15734 -3.87799 0
M  V30 1438 H 130.276 -0.693577 -4.68494 0
M  V30 1439 H 130.7 -2.88347 -6.12524 0
M  V30 1440 H 135.342 -0.744356 -4.16196 0
M  V30 1441 H 133.06 -4.2992 -6.84247 0
M  V30 1442 H 136.646 -2.55667 -5.22614 0
M  V30 1443 H 135.526 -4.31056 -6.55103 0
M  V30 1444 N 133.029 1.57378 -0.0835403 0
M  V30 1445 C 133.992 2.12252 0.864959 0
M  V30 1446 C 134.992 1.04916 1.21858 0
M  V30 1447 O 136.182 1.30853 1.14991 0
M  V30 1448 C 133.314 2.63358 2.16461 0
M  V30 1449 H 134.507 2.97371 0.388676 0
M  V30 1450 H 132.06 1.55423 0.165317 0
M  V30 1451 H 132.795 1.81727 2.686 0
M  V30 1452 H 132.58 3.41826 1.92087 0
M  V30 1453 H 134.07 3.05847 2.84337 0
M  V30 1454 N 134.507 -0.190092 1.56449 0
M  V30 1455 C 135.756 -0.907912 1.80111 0
M  V30 1456 C 136.069 -1.84214 0.657619 0
M  V30 1457 O 137.275 -2.60094 0.778663 0
M  V30 1458 C 135.731 -1.66485 3.19078 0
M  V30 1459 C 135.339 -0.7752 4.41242 0
M  V30 1460 C 137.083 -2.37201 3.52045 0
M  V30 1461 C 134.99 -1.53129 5.71231 0
M  V30 1462 H 133.92 -0.34276 0.671589 0
M  V30 1463 H 136.571 -0.161109 1.82791 0
M  V30 1464 H 134.953 -2.45572 3.10661 0
M  V30 1465 H 136.127 -0.0226298 4.60794 0
M  V30 1466 H 134.442 -0.178627 4.16017 0
M  V30 1467 H 137.039 -2.94329 4.46402 0
M  V30 1468 H 137.382 -3.11632 2.76028 0
M  V30 1469 H 137.915 -1.65075 3.61932 0
M  V30 1470 H 134.654 -0.82967 6.50228 0
M  V30 1471 H 134.174 -2.25767 5.55688 0
M  V30 1472 H 135.853 -2.08377 6.12526 0
M  V30 1473 N 135.985 -1.50799 -0.457987 0
M  V30 1474 C 136.915 -1.73553 -1.5621 0
M  V30 1475 C 137.896 -0.584774 -1.59732 0
M  V30 1476 O 139.081 -0.825314 -1.7579 0
M  V30 1477 C 136.211 -1.84169 -2.94447 0
M  V30 1478 C 135.165 -2.99461 -3.0579 0
M  V30 1479 C 134.491 -2.95235 -4.45803 0
M  V30 1480 C 135.791 -4.39766 -2.81786 0
M  V30 1481 H 137.485 -2.66 -1.37421 0
M  V30 1482 H 135.031 -1.28002 -0.659662 0
M  V30 1483 H 136.984 -1.98672 -3.71628 0
M  V30 1484 H 135.708 -0.883545 -3.14422 0
M  V30 1485 H 134.367 -2.8463 -2.31044 0
M  V30 1486 H 134.015 -1.97239 -4.62715 0
M  V30 1487 H 133.715 -3.72642 -4.54326 0
M  V30 1488 H 135.239 -3.11803 -5.24987 0
M  V30 1489 H 136.653 -4.55054 -3.4871 0
M  V30 1490 H 135.05 -5.18722 -3.0174 0
M  V30 1491 H 136.12 -4.51229 -1.7754 0
M  V30 1492 N 137.463 0.71206 -1.40597 0
M  V30 1493 C 138.393 1.83889 -1.43899 0
M  V30 1494 C 139.374 1.67442 -0.299504 0
M  V30 1495 O 140.559 1.87421 -0.508624 0
M  V30 1496 C 137.689 3.21877 -1.30431 0
M  V30 1497 C 136.643 3.53002 -2.42019 0
M  V30 1498 C 135.969 4.90172 -2.13626 0
M  V30 1499 C 137.269 3.53643 -3.84362 0
M  V30 1500 H 138.963 1.81383 -2.38203 0
M  V30 1501 H 136.509 0.871237 -1.14654 0
M  V30 1502 H 138.462 4.00404 -1.31357 0
M  V30 1503 H 137.186 3.24968 -0.326049 0
M  V30 1504 H 135.845 2.76818 -2.40349 0
M  V30 1505 H 135.493 4.89869 -1.14182 0
M  V30 1506 H 135.193 5.11962 -2.88389 0
M  V30 1507 H 136.717 5.71028 -2.1624 0
M  V30 1508 H 138.131 4.22203 -3.87837 0
M  V30 1509 H 136.528 3.86961 -4.58673 0
M  V30 1510 H 137.598 2.52954 -4.13693 0
M  V30 1511 N 138.941 1.26152 0.944643 0
M  V30 1512 C 140.218 1.02247 1.66748 0
M  V30 1513 C 140.598 -0.448202 2.06287 0
M  V30 1514 O 139.946 -1.42779 1.78399 0
M  V30 1515 C 140.156 1.96788 2.88228 0
M  V30 1516 C 141.504 2.25201 3.59958 0
M  V30 1517 O 142.528 1.94626 2.98327 0
M  V30 1518 O 141.387 2.77242 4.70956 0
M  V30 1519 H 138.481 0.388517 0.730057 0
M  V30 1520 H 141.027 1.37348 0.99668 0
M  V30 1521 H 139.799 2.96047 2.55875 0
M  V30 1522 H 139.422 1.62145 3.63035 0
M  V30 1523 N 140.419 -1.14872 1.07899 0
M  V30 1524 C 141.667 -1.85422 0.803941 0
M  V30 1525 C 141.988 -1.83051 -0.67211 0
M  V30 1526 O 141.258 -1.27532 -1.48703 0
M  V30 1527 H 139.838 -0.686537 0.294408 0
M  V30 1528 H 142.5 -1.39226 1.3639 0
M  V30 1529 H 141.596 -2.90399 1.14346 0
M  V30 1530 N 141.898 -0.863906 -1.31812 0
M  V30 1531 C 143.145 -0.471836 -1.96926 0
M  V30 1532 C 143.473 0.974578 -1.68322 0
M  V30 1533 O 142.728 1.7003 -0.968933 0
M  V30 1534 C 143.027 -0.668547 -3.51091 0
M  V30 1535 C 142.693 -2.08683 -3.99703 0
M  V30 1536 C 141.355 -2.47471 -4.12688 0
M  V30 1537 C 143.707 -3.01207 -4.25351 0
M  V30 1538 C 141.035 -3.78037 -4.4867 0
M  V30 1539 C 143.387 -4.31282 -4.62794 0
M  V30 1540 C 142.051 -4.69992 -4.73987 0
M  V30 1541 H 141.321 -0.172657 -0.720604 0
M  V30 1542 H 143.968 -1.09573 -1.57054 0
M  V30 1543 H 142.273 0.0385252 -3.91781 0
M  V30 1544 H 143.97 -0.345102 -3.99512 0
M  V30 1545 H 140.56 -1.77566 -3.90087 0
M  V30 1546 H 144.744 -2.72469 -4.14819 0
M  V30 1547 H 140 -4.078 -4.55532 0
M  V30 1548 H 144.174 -5.03031 -4.81594 0
M  V30 1549 H 141.801 -5.71207 -5.01624 0
M  V30 1550 N 143.376 1.44774 -0.622745 0
M  V30 1551 C 144.306 2.33382 0.0741861 0
M  V30 1552 C 145.287 1.47719 0.843387 0
M  V30 1553 O 146.472 1.76458 0.810934 0
M  V30 1554 C 143.602 3.30663 1.06204 0
M  V30 1555 C 142.556 4.26079 0.405037 0
M  V30 1556 C 141.882 5.13165 1.5022 0
M  V30 1557 C 143.182 5.1781 -0.683414 0
M  V30 1558 H 144.876 2.91905 -0.665713 0
M  V30 1559 H 142.422 1.40363 -0.321587 0
M  V30 1560 H 144.375 3.9153 1.55827 0
M  V30 1561 H 143.099 2.70331 1.83272 0
M  V30 1562 H 141.758 3.66532 -0.0704683 0
M  V30 1563 H 141.406 4.49191 2.26355 0
M  V30 1564 H 141.106 5.77812 1.06803 0
M  V30 1565 H 142.63 5.76902 2.00041 0
M  V30 1566 H 144.044 5.72661 -0.270631 0
M  V30 1567 H 142.441 5.91015 -1.04023 0
M  V30 1568 H 143.511 4.59326 -1.55395 0
M  V30 1569 N 144.854 0.36279 1.53368 0
M  V30 1570 C 146.079 -0.231226 2.06107 0
M  V30 1571 C 146.504 -1.419 1.23474 0
M  V30 1572 O 145.862 -1.79524 0.253128 0
M  V30 1573 C 145.91 -0.605523 3.5548 0
M  V30 1574 O 145.014 -1.70312 3.7559 0
M  V30 1575 H 144.355 -0.034327 0.663112 0
M  V30 1576 H 146.885 0.522584 1.97814 0
M  V30 1577 H 146.895 -0.877314 3.98456 0
M  V30 1578 H 145.57 0.263004 4.15068 0
M  V30 1579 H 144.147 -1.4271 3.44512 0
M  V30 1580 N 146.332 -1.57332 0.0918853 0
M  V30 1581 C 147.264 -2.10869 -0.898168 0
M  V30 1582 C 148.277 -1.04521 -1.24817 0
M  V30 1583 O 149.466 -1.31977 -1.20184 0
M  V30 1584 C 146.566 -2.57083 -2.2082 0
M  V30 1585 C 145.739 -3.87229 -2.03402 0
M  V30 1586 C 144.798 -4.19324 -3.17889 0
M  V30 1587 O 143.824 -4.88598 -2.91994 0
M  V30 1588 N 145.026 -3.74471 -4.43567 0
M  V30 1589 H 147.791 -2.96439 -0.440943 0
M  V30 1590 H 145.352 -1.61631 -0.0933064 0
M  V30 1591 H 147.344 -2.75602 -2.96354 0
M  V30 1592 H 145.914 -1.76541 -2.57977 0
M  V30 1593 H 145.134 -3.7789 -1.12218 0
M  V30 1594 H 146.422 -4.72379 -1.89038 0
M  V30 1595 H 145.82 -3.18546 -4.67488 0
M  V30 1596 H 144.377 -3.98151 -5.16061 0
M  V30 1597 N 147.81 0.181792 -1.56548 0
M  V30 1598 C 149.057 0.900097 -1.81396 0
M  V30 1599 C 149.385 1.82695 -0.667281 0
M  V30 1600 O 148.64 1.92614 0.346146 0
M  V30 1601 C 148.939 1.73728 -3.12335 0
M  V30 1602 C 148.605 0.960255 -4.40556 0
M  V30 1603 C 147.267 0.745766 -4.75386 0
M  V30 1604 C 149.619 0.414477 -5.19549 0
M  V30 1605 C 146.947 -0.0257694 -5.86694 0
M  V30 1606 C 149.299 -0.343916 -6.31664 0
M  V30 1607 C 147.963 -0.569301 -6.65068 0
M  V30 1608 H 147.233 0.329369 -0.663775 0
M  V30 1609 H 149.88 0.165647 -1.90782 0
M  V30 1610 H 148.185 2.54081 -2.98245 0
M  V30 1611 H 149.882 2.29591 -3.28769 0
M  V30 1612 H 146.472 1.13746 -4.13231 0
M  V30 1613 H 150.656 0.567554 -4.93044 0
M  V30 1614 H 145.912 -0.210233 -6.11038 0
M  V30 1615 H 150.086 -0.774133 -6.92084 0
M  V30 1616 H 147.713 -1.16903 -7.51158 0
M  V30 1617 N 149.288 1.51039 0.449983 0
M  V30 1618 C 150.699 1.557 1.03026 0
M  V30 1619 C 151.05 0.372939 1.92623 0
M  V30 1620 O 150.175 -0.511771 2.10261 0
M  V30 1621 C 150.77 2.82171 1.87523 0
M  V30 1622 C 149.329 2.89444 2.40622 0
M  V30 1623 C 148.476 2.50228 1.19504 0
M  V30 1624 H 151.427 1.56999 0.231745 0
M  V30 1625 H 151.448 2.65219 2.72835 0
M  V30 1626 H 150.96 3.68331 1.22286 0
M  V30 1627 H 149.061 2.07685 3.0935 0
M  V30 1628 H 149.174 3.92816 2.74285 0
M  V30 1629 H 147.538 2.03139 1.53644 0
M  V30 1630 H 148.321 3.38719 0.558972 0
M  V30 1631 N 150.766 -0.704594 1.40972 0
M  V30 1632 C 151.991 -1.49858 1.43378 0
M  V30 1633 C 152.416 -1.88061 0.038184 0
M  V30 1634 O 151.774 -1.5402 -0.956425 0
M  V30 1635 C 151.822 -2.74333 2.34038 0
M  V30 1636 O 150.926 -3.7147 1.7912 0
M  V30 1637 H 150.267 -0.45139 0.486974 0
M  V30 1638 H 152.797 -0.866832 1.8533 0
M  V30 1639 H 152.807 -3.22741 2.49604 0
M  V30 1640 H 151.482 -2.45863 3.35446 0
M  V30 1641 H 150.059 -3.30363 1.72958 0
M  V30 1642 N 152.244 -1.26651 -0.937939 0
M  V30 1643 C 153.492 -1.12165 -1.68118 0
M  V30 1644 C 153.813 0.334983 -1.92101 0
M  V30 1645 O 153.083 1.23583 -1.52 0
M  V30 1646 H 151.663 -0.412093 -0.623048 0
M  V30 1647 H 154.325 -1.59027 -1.12678 0
M  V30 1648 H 153.421 -1.64289 -2.6536 0
M  V30 1649 N 153.722 1.14298 -1.08507 0
M  V30 1650 C 154.669 2.19414 -0.715965 0
M  V30 1651 C 155.639 1.63399 0.298326 0
M  V30 1652 O 156.824 1.89929 0.182101 0
M  V30 1653 C 153.964 3.44845 -0.132534 0
M  V30 1654 C 153.077 4.15007 -1.19973 0
M  V30 1655 C 152.212 5.28024 -0.580048 0
M  V30 1656 C 151.251 5.9002 -1.62921 0
M  V30 1657 N 150.388 6.94485 -1.03125 0
M  V30 1658 H 155.228 2.50336 -1.61666 0
M  V30 1659 H 152.765 1.2293 -0.807882 0
M  V30 1660 H 154.723 4.16601 0.223454 0
M  V30 1661 H 153.353 3.14403 0.731467 0
M  V30 1662 H 152.405 3.41629 -1.67313 0
M  V30 1663 H 153.717 4.57178 -1.99473 0
M  V30 1664 H 152.871 6.06455 -0.172364 0
M  V30 1665 H 151.61 4.87076 0.246603 0
M  V30 1666 H 150.615 5.10291 -2.04654 0
M  V30 1667 H 151.84 6.33042 -2.45835 0
M  V30 1668 H 149.786 6.55612 -0.225711 0
M  V30 1669 H 149.703 7.35148 -1.76334 0
M  V30 1670 H 150.971 7.7679 -0.649458 0
M  V30 1671 N 155.201 0.870884 1.31352 0
M  V30 1672 C 156.447 0.482987 1.96965 0
M  V30 1673 C 156.78 -0.962462 1.68672 0
M  V30 1674 O 156.055 -1.6779 0.98371 0
M  V30 1675 C 156.338 0.741752 3.52378 0
M  V30 1676 C 156.191 2.2368 3.9024 0
M  V30 1677 C 157.51 0.208838 4.39604 0
M  V30 1678 H 154.629 0.176955 0.715441 0
M  V30 1679 H 157.271 1.09229 1.55464 0
M  V30 1680 H 155.421 0.223149 3.87859 0
M  V30 1681 H 157.093 2.82273 3.64856 0
M  V30 1682 H 155.336 2.70901 3.38814 0
M  V30 1683 H 156.007 2.3685 4.98604 0
M  V30 1684 H 158.483 0.652529 4.10952 0
M  V30 1685 H 157.359 0.419336 5.47296 0
M  V30 1686 H 157.62 -0.889275 4.33064 0
M  V30 1687 N 156.679 -1.44442 0.630414 0
M  V30 1688 C 157.925 -2.02351 0.134816 0
M  V30 1689 C 158.258 -1.4947 -1.23986 0
M  V30 1690 O 157.533 -0.678475 -1.82283 0
M  V30 1691 C 157.816 -3.59898 0.120707 0
M  V30 1692 C 157.669 -4.23063 1.52767 0
M  V30 1693 C 158.988 -4.36585 -0.555127 0
M  V30 1694 H 156.107 -0.73527 0.0504646 0
M  V30 1695 H 158.749 -1.72022 0.806751 0
M  V30 1696 H 156.899 -3.85868 -0.451477 0
M  V30 1697 H 158.571 -4.08202 2.14869 0
M  V30 1698 H 156.814 -3.80586 2.08175 0
M  V30 1699 H 157.485 -5.32071 1.46984 0
M  V30 1700 H 159.961 -4.16044 -0.0685429 0
M  V30 1701 H 158.837 -5.46294 -0.534185 0
M  V30 1702 H 159.098 -4.11138 -1.62535 0
M  V30 1703 N 158.157 -0.370918 -1.53173 0
M  V30 1704 C 159.406 0.218249 -2.00516 0
M  V30 1705 C 159.719 1.49429 -1.26215 0
M  V30 1706 O 160.925 2.16239 -1.64174 0
M  V30 1707 C 159.381 0.43948 -3.57207 0
M  V30 1708 C 158.989 -0.822244 -4.4039 0
M  V30 1709 C 160.733 0.986012 -4.1289 0
M  V30 1710 C 158.64 -0.570304 -5.88644 0
M  V30 1711 H 157.57 0.0853333 -0.749156 0
M  V30 1712 H 160.221 -0.490483 -1.76823 0
M  V30 1713 H 158.603 1.20961 -3.77074 0
M  V30 1714 H 159.777 -1.59557 -4.32294 0
M  V30 1715 H 158.092 -1.29238 -3.95836 0
M  V30 1716 H 160.689 1.18991 -5.21292 0
M  V30 1717 H 161.032 1.94972 -3.6782 0
M  V30 1718 H 161.565 0.27592 -3.96842 0
M  V30 1719 H 158.304 -1.50449 -6.38001 0
M  V30 1720 H 157.824 0.164427 -5.99575 0
M  V30 1721 H 159.503 -0.19784 -6.46697 0
M  V30 1722 N 159.635 1.57281 -0.100228 0
M  V30 1723 C 160.863 1.98879 0.570509 0
M  V30 1724 C 161.278 0.979476 1.61405 0
M  V30 1725 O 160.635 -0.0302288 1.82475 0
M  V30 1726 C 160.686 3.4052 1.2136 0
M  V30 1727 O 160.407 4.37588 0.211786 0
M  V30 1728 C 161.908 3.97149 1.96945 0
M  V30 1729 H 159.128 0.653428 0.152555 0
M  V30 1730 H 161.672 2.03697 -0.18103 0
M  V30 1731 H 159.827 3.367 1.91603 0
M  V30 1732 H 160.241 5.20118 0.676607 0
M  V30 1733 H 161.715 4.98393 2.37294 0
M  V30 1734 H 162.192 3.3525 2.83733 0
M  V30 1735 H 162.798 4.04458 1.31506 0
M  V30 1736 N 161.113 -0.173488 1.56642 0
M  V30 1737 C 162.043 -1.2171 1.99271 0
M  V30 1738 C 163.024 -1.46289 0.867959 0
M  V30 1739 O 164.209 -1.5766 1.13388 0
M  V30 1740 C 161.339 -2.55651 2.35074 0
M  V30 1741 C 160.293 -2.45645 3.50489 0
M  V30 1742 C 159.619 -3.84056 3.72028 0
M  V30 1743 C 160.919 -1.96302 4.84007 0
M  V30 1744 H 162.613 -0.86275 2.867 0
M  V30 1745 H 160.159 -0.413571 1.37933 0
M  V30 1746 H 162.112 -3.2886 2.63494 0
M  V30 1747 H 160.836 -2.92869 1.44552 0
M  V30 1748 H 159.495 -1.7489 3.22194 0
M  V30 1749 H 159.143 -4.18664 2.788 0
M  V30 1750 H 158.843 -3.7823 4.49684 0
M  V30 1751 H 160.367 -4.58854 4.02846 0
M  V30 1752 H 161.781 -2.59284 5.11317 0
M  V30 1753 H 160.178 -2.01429 5.65284 0
M  V30 1754 H 161.248 -0.917226 4.76146 0
M  V30 1755 N 162.591 -1.51276 -0.441967 0
M  V30 1756 C 163.838 -1.63715 -1.19179 0
M  V30 1757 C 164.166 -0.351175 -1.91303 0
M  V30 1758 O 163.421 0.664524 -1.84072 0
M  V30 1759 C 163.72 -2.78746 -2.23686 0
M  V30 1760 C 163.386 -4.18189 -1.68607 0
M  V30 1761 C 162.048 -4.56125 -1.53308 0
M  V30 1762 C 164.4 -5.05222 -1.28062 0
M  V30 1763 C 161.728 -5.78804 -0.959317 0
M  V30 1764 C 164.08 -6.28476 -0.721162 0
M  V30 1765 C 162.744 -6.65188 -0.55504 0
M  V30 1766 H 162.014 -0.599076 -0.436106 0
M  V30 1767 H 164.661 -1.85296 -0.48351 0
M  V30 1768 H 162.966 -2.51369 -3.00535 0
M  V30 1769 H 164.663 -2.8557 -2.81515 0
M  V30 1770 H 161.253 -3.88277 -1.8149 0
M  V30 1771 H 165.437 -4.76524 -1.38704 0
M  V30 1772 H 160.693 -6.05899 -0.81833 0
M  V30 1773 H 164.867 -6.95259 -0.398458 0
M  V30 1774 H 162.494 -7.60123 -0.108311 0
M  V30 1775 N 164.069 0.697108 -1.41344 0
M  V30 1776 C 165.294 1.49096 -1.44171 0
M  V30 1777 C 165.719 1.88038 -0.0481568 0
M  V30 1778 O 165.077 1.54525 0.948243 0
M  V30 1779 C 165.125 2.73088 -2.3549 0
M  V30 1780 O 164.229 3.70514 -1.81088 0
M  V30 1781 H 163.57 0.448801 -0.489361 0
M  V30 1782 H 166.1 0.856992 -1.85787 0
M  V30 1783 H 166.11 3.21413 -2.51312 0
M  V30 1784 H 164.785 2.44081 -3.36745 0
M  V30 1785 H 163.362 3.29441 -1.74708 0
M  V30 1786 N 165.547 1.27147 0.931209 0
M  V30 1787 C 166.796 1.12664 1.67302 0
M  V30 1788 C 167.109 -0.327718 1.92835 0
M  V30 1789 O 168.315 -0.593392 2.64936 0
M  V30 1790 C 166.771 1.9683 3.01307 0
M  V30 1791 C 166.379 3.46901 2.83485 0
M  V30 1792 C 168.123 1.90985 3.79111 0
M  V30 1793 C 166.03 4.23279 4.13024 0
M  V30 1794 H 164.96 0.41803 0.627509 0
M  V30 1795 H 167.611 1.51539 1.03481 0
M  V30 1796 H 165.993 1.50797 3.66164 0
M  V30 1797 H 167.167 4.00773 2.27415 0
M  V30 1798 H 165.482 3.54088 2.19113 0
M  V30 1799 H 168.079 2.45328 4.75098 0
M  V30 1800 H 168.422 0.882718 4.06834 0
M  V30 1801 H 168.955 2.34895 3.21044 0
M  V30 1802 H 165.694 5.26503 3.90481 0
M  V30 1803 H 165.214 3.74186 4.6877 0
M  V30 1804 H 166.893 4.32265 4.81411 0
M  V30 1805 N 167.025 -1.13721 1.09112 0
M  V30 1806 C 168.441 -1.36914 0.820174 0
M  V30 1807 C 168.641 -1.93356 -0.567079 0
M  V30 1808 O 167.697 -2.15093 -1.32255 0
M  V30 1809 C 169.01 -2.3235 1.90877 0
M  V30 1810 C 170.558 -2.45973 1.93562 0
M  V30 1811 C 171.033 -3.44714 3.01556 0
M  V30 1812 N 172.524 -3.52263 3.00775 0
M  V30 1813 C 173.259 -4.28536 3.80978 0
M  V30 1814 N 172.755 -5.07991 4.71081 0
M  V30 1815 N 174.548 -4.23804 3.69251 0
M  V30 1816 H 166.699 -0.754348 1.98553 0
M  V30 1817 H 168.962 -0.3944 0.862063 0
M  V30 1818 H 168.668 -1.98027 2.90651 0
M  V30 1819 H 168.542 -3.32332 1.78424 0
M  V30 1820 H 170.929 -2.79584 0.944286 0
M  V30 1821 H 171.01 -1.45926 2.10093 0
M  V30 1822 H 170.654 -3.11835 4.00901 0
M  V30 1823 H 170.584 -4.44558 2.82269 0
M  V30 1824 H 173.075 -2.95567 2.35475 0
M  V30 1825 H 173.388 -5.63487 5.28869 0
M  V30 1826 H 171.733 -5.07235 4.75119 0
M  V30 1827 H 174.924 -3.60806 2.98222 0
M  V30 1828 H 175.097 -4.82995 4.31995 0
M  V30 1829 N 168.503 -0.877838 -1.30888 0
M  V30 1830 C 169.433 -0.35534 -2.3078 0
M  V30 1831 C 170.414 0.557994 -1.60687 0
M  V30 1832 O 171.599 0.473355 -1.88343 0
M  V30 1833 C 168.729 0.437221 -3.44537 0
M  V30 1834 C 167.683 -0.383715 -4.26276 0
M  V30 1835 C 167.009 0.535014 -5.32017 0
M  V30 1836 C 168.309 -1.62201 -4.96476 0
M  V30 1837 H 170.003 -1.19007 -2.74732 0
M  V30 1838 H 167.549 -0.573698 -1.32078 0
M  V30 1839 H 169.502 0.813334 -4.13477 0
M  V30 1840 H 168.226 1.30553 -2.99372 0
M  V30 1841 H 166.885 -0.741874 -3.59015 0
M  V30 1842 H 166.533 1.40083 -4.831 0
M  V30 1843 H 166.233 -0.0104211 -5.87599 0
M  V30 1844 H 167.757 0.907799 -6.03814 0
M  V30 1845 H 169.171 -1.31689 -5.5797 0
M  V30 1846 H 167.568 -2.10711 -5.61891 0
M  V30 1847 H 168.638 -2.37044 -4.23011 0
M  V30 1848 N 169.982 1.44106 -0.638065 0
M  V30 1849 C 170.945 2.29138 0.0531013 0
M  V30 1850 C 171.945 1.41409 0.765506 0
M  V30 1851 O 173.135 1.63206 0.609046 0
M  V30 1852 C 170.267 3.23144 1.08584 0
M  V30 1853 H 171.46 2.91739 -0.694883 0
M  V30 1854 H 169.013 1.51134 -0.398538 0
M  V30 1855 H 169.748 2.65408 1.86357 0
M  V30 1856 H 169.533 3.87804 0.578852 0
M  V30 1857 H 171.023 3.87004 1.56899 0
M  V30 1858 N 171.46 0.379036 1.52974 0
M  V30 1859 C 172.688 -0.20679 2.05864 0
M  V30 1860 C 173.103 -1.41356 1.25155 0
M  V30 1861 O 172.46 -1.8009 0.295588 0
M  V30 1862 C 172.511 -0.587045 3.56702 0
M  V30 1863 O 172.232 0.571776 4.34353 0
M  V30 1864 C 173.733 -1.22983 4.25899 0
M  V30 1865 H 170.953 -0.0336123 0.670158 0
M  V30 1866 H 173.497 0.541298 1.97206 0
M  V30 1867 H 171.652 -1.28504 3.65466 0
M  V30 1868 H 172.066 0.261544 5.23847 0
M  V30 1869 H 173.54 -1.44635 5.32715 0
M  V30 1870 H 174.017 -2.19416 3.80465 0
M  V30 1871 H 174.623 -0.572892 4.21424 0
M  V30 1872 N 172.938 -1.57226 0.108567 0
M  V30 1873 C 173.871 -2.10447 -0.882464 0
M  V30 1874 C 174.849 -1.01829 -1.26766 0
M  V30 1875 O 176.033 -1.29415 -1.37054 0
M  V30 1876 C 173.16 -2.59258 -2.17952 0
M  V30 1877 C 172.206 -3.79662 -1.94318 0
M  V30 1878 S 173.039 -5.22586 -1.16892 0
M  V30 1879 C 174.195 -5.74758 -2.47799 0
M  V30 1880 H 174.428 -2.94178 -0.429745 0
M  V30 1881 H 171.961 -1.54043 -0.105 0
M  V30 1882 H 173.919 -2.88036 -2.92482 0
M  V30 1883 H 172.58 -1.75728 -2.60343 0
M  V30 1884 H 171.773 -4.11928 -2.90399 0
M  V30 1885 H 171.375 -3.51446 -1.27913 0
M  V30 1886 H 173.667 -5.83846 -3.43701 0
M  V30 1887 H 174.61 -6.73027 -2.20093 0
M  V30 1888 H 175.018 -5.02763 -2.56689 0
M  V30 1889 N 174.416 0.165178 -1.56732 0
M  V30 1890 C 175.641 0.900253 -1.86843 0
M  V30 1891 C 176.066 1.74766 -0.695596 0
M  V30 1892 O 175.424 1.77786 0.35522 0
M  V30 1893 C 175.472 1.74777 -3.15413 0
M  V30 1894 O 174.576 2.85007 -2.98068 0
M  V30 1895 H 173.917 0.251832 -0.614391 0
M  V30 1896 H 176.447 0.161468 -2.03962 0
M  V30 1897 H 176.457 2.14646 -3.46974 0
M  V30 1898 H 175.132 1.12537 -4.00385 0
M  V30 1899 H 173.709 2.48676 -2.77875 0
M  V30 1900 N 175.894 1.51508 0.433938 0
M  V30 1901 C 176.857 1.72473 1.50949 0
M  V30 1902 C 177.857 0.594725 1.49398 0
M  V30 1903 O 179.047 0.862315 1.5136 0
M  V30 1904 C 176.179 1.78431 2.90474 0
M  V30 1905 H 177.372 2.68467 1.33662 0
M  V30 1906 H 174.925 1.41549 0.662836 0
M  V30 1907 H 175.66 0.842645 3.13161 0
M  V30 1908 H 175.445 2.60558 2.93005 0
M  V30 1909 H 176.935 1.96479 3.68491 0
M  V30 1910 N 177.372 -0.689602 1.41712 0
M  V30 1911 C 178.302 -1.81577 1.46806 0
M  V30 1912 C 179.283 -1.66945 0.326105 0
M  V30 1913 O 180.468 -1.86588 0.538377 0
M  V30 1914 C 177.598 -3.19762 1.35535 0
M  V30 1915 C 176.552 -3.49107 2.47605 0
M  V30 1916 C 175.878 -4.86711 2.21397 0
M  V30 1917 C 177.178 -3.47483 3.89939 0
M  V30 1918 H 178.872 -1.7757 2.41058 0
M  V30 1919 H 176.418 -0.852887 1.16025 0
M  V30 1920 H 178.371 -3.98263 1.3771 0
M  V30 1921 H 177.095 -3.24409 0.377708 0
M  V30 1922 H 175.754 -2.72959 2.44722 0
M  V30 1923 H 175.402 -4.8799 1.21961 0
M  V30 1924 H 175.102 -5.0731 2.96497 0
M  V30 1925 H 176.626 -5.67515 2.25297 0
M  V30 1926 H 178.04 -4.1598 3.94505 0
M  V30 1927 H 176.437 -3.79615 4.64771 0
M  V30 1928 H 177.507 -2.46341 4.17665 0
M  V30 1929 N 178.85 -1.27639 -0.924453 0
M  V30 1930 C 180.075 -1.17101 -1.71179 0
M  V30 1931 C 180.5 0.268134 -1.86179 0
M  V30 1932 O 179.858 1.19415 -1.36418 0
M  V30 1933 C 179.906 -1.86313 -3.08739 0
M  V30 1934 O 179.01 -1.16331 -3.95652 0
M  V30 1935 H 178.351 -0.407091 -0.524569 0
M  V30 1936 H 180.881 -1.68767 -1.15666 0
M  V30 1937 H 180.891 -1.938 -3.59034 0
M  V30 1938 H 179.566 -2.91001 -2.97138 0
M  V30 1939 H 178.143 -1.16935 -3.54091 0
M  V30 1940 N 180.328 1.1314 -1.09713 0
M  V30 1941 C 181.574 1.84757 -0.836224 0
M  V30 1942 C 181.907 1.8347 0.636598 0
M  V30 1943 O 181.182 1.27491 1.46889 0
M  V30 1944 C 181.465 3.32782 -1.37578 0
M  V30 1945 C 181.318 3.42567 -2.91493 0
M  V30 1946 C 182.637 4.28307 -1.01198 0
M  V30 1947 H 179.756 0.67082 -0.305236 0
M  V30 1948 H 182.398 1.3278 -1.35903 0
M  V30 1949 H 180.548 3.77177 -0.931097 0
M  V30 1950 H 182.22 3.06862 -3.44432 0
M  V30 1951 H 180.463 2.83349 -3.28475 0
M  V30 1952 H 181.134 4.46674 -3.24324 0
M  V30 1953 H 183.61 3.91999 -1.39556 0
M  V30 1954 H 182.486 5.30307 -1.41653 0
M  V30 1955 H 182.747 4.42029 0.0794833 0
M  V30 1956 N 181.806 0.884767 1.30421 0
M  V30 1957 C 182.736 0.367574 2.30589 0
M  V30 1958 C 183.717 -0.549464 1.60981 0
M  V30 1959 O 184.902 -0.46336 1.88591 0
M  V30 1960 C 182.032 -0.418944 3.44764 0
M  V30 1961 C 180.986 0.406316 4.26067 0
M  V30 1962 C 180.312 -0.506793 5.32293 0
M  V30 1963 C 181.612 1.64832 4.95608 0
M  V30 1964 H 183.306 1.20462 2.74097 0
M  V30 1965 H 180.852 0.580695 1.31772 0
M  V30 1966 H 182.805 -0.791395 4.13902 0
M  V30 1967 H 181.529 -1.28964 3.0006 0
M  V30 1968 H 180.188 0.760903 3.58617 0
M  V30 1969 H 179.836 -1.37519 4.83836 0
M  V30 1970 H 179.536 0.0415828 5.87585 0
M  V30 1971 H 181.06 -0.875764 6.04287 0
M  V30 1972 H 182.474 1.34646 5.57264 0
M  V30 1973 H 180.871 2.13688 5.60765 0
M  V30 1974 H 181.941 2.39284 4.21748 0
M  V30 1975 N 183.284 -1.43765 0.645699 0
M  V30 1976 C 184.533 -2.01116 0.153412 0
M  V30 1977 C 184.846 -1.51493 -1.23731 0
M  V30 1978 O 186.052 -2.01067 -1.8244 0
M  V30 1979 C 184.508 -3.59206 0.223473 0
M  V30 1980 C 184.116 -4.17823 1.61642 0
M  V30 1981 C 185.86 -4.23972 -0.211597 0
M  V30 1982 C 183.767 -5.68183 1.64081 0
M  V30 1983 H 182.697 -0.752093 0.0535891 0
M  V30 1984 H 185.348 -1.6482 0.806633 0
M  V30 1985 H 183.73 -3.92867 -0.497118 0
M  V30 1986 H 184.904 -3.95674 2.36176 0
M  V30 1987 H 183.219 -3.65399 1.99681 0
M  V30 1988 H 185.816 -5.34275 -0.213112 0
M  V30 1989 H 186.159 -3.97352 -1.24165 0
M  V30 1990 H 186.692 -3.95166 0.456988 0
M  V30 1991 H 183.431 -5.99559 2.64971 0
M  V30 1992 H 182.951 -5.9241 0.938611 0
M  V30 1993 H 184.63 -6.32085 1.3812 0
M  V30 1994 N 184.763 -0.387143 -1.52771 0
M  V30 1995 C 185.988 0.198407 -2.06449 0
M  V30 1996 C 186.413 1.39918 -1.25716 0
M  V30 1997 O 185.771 1.79099 -0.281657 0
M  V30 1998 C 185.819 0.548893 -3.56398 0
M  V30 1999 O 184.923 1.64315 -3.78252 0
M  V30 2000 H 184.264 0.0237731 -0.663574 0
M  V30 2001 H 186.794 -0.553989 -1.96957 0
M  V30 2002 H 186.804 0.813812 -3.99801 0
M  V30 2003 H 185.479 -0.329005 -4.14597 0
M  V30 2004 H 184.056 1.37211 -3.46738 0
M  V30 2005 N 186.241 1.57166 -0.116904 0
M  V30 2006 C 187.487 1.95412 0.542405 0
M  V30 2007 C 187.82 1.00019 1.66463 0
M  V30 2008 O 187.095 0.0370346 1.94465 0
M  V30 2009 C 187.378 3.43615 1.07708 0
M  V30 2010 C 187.231 4.49781 -0.0415868 0
M  V30 2011 C 188.55 3.93616 1.96861 0
M  V30 2012 H 185.669 0.710543 0.195696 0
M  V30 2013 H 188.311 1.89027 -0.192038 0
M  V30 2014 H 186.461 3.49187 1.70296 0
M  V30 2015 H 188.133 4.56308 -0.676793 0
M  V30 2016 H 186.376 4.28033 -0.705019 0
M  V30 2017 H 187.047 5.50733 0.373717 0
M  V30 2018 H 189.523 3.90335 1.44146 0
M  V30 2019 H 188.399 4.97838 2.3119 0
M  V30 2020 H 188.66 3.34188 2.89432 0
M  V30 2021 N 187.719 -0.156864 1.56817 0
M  V30 2022 C 188.996 -0.899244 1.73704 0
M  V30 2023 C 189.376 -1.99771 0.682254 0
M  V30 2024 O 188.724 -2.26515 -0.300522 0
M  V30 2025 C 188.934 -1.45075 3.17418 0
M  V30 2026 C 190.282 -1.91802 3.7881 0
M  V30 2027 O 191.306 -1.54838 3.20786 0
M  V30 2028 O 190.165 -2.5994 4.80722 0
M  V30 2029 H 187.259 -0.424267 0.709878 0
M  V30 2030 H 189.805 -0.143561 1.69092 0
M  V30 2031 H 188.577 -0.660846 3.85679 0
M  V30 2032 H 188.2 -2.27021 3.26416 0
M  V30 2033 N 189.197 -1.51736 -0.425897 0
M  V30 2034 C 190.16 -1.73271 -1.50032 0
M  V30 2035 C 191.16 -0.602639 -1.4908 0
M  V30 2036 O 192.35 -0.87033 -1.509 0
M  V30 2037 C 189.482 -1.79969 -2.89523 0
M  V30 2038 H 190.675 -2.69172 -1.32237 0
M  V30 2039 H 188.228 -1.41899 -0.65532 0
M  V30 2040 H 188.963 -0.859241 -3.1271 0
M  V30 2041 H 188.748 -2.62109 -2.91619 0
M  V30 2042 H 190.238 -1.9843 -3.67444 0
M  V30 2043 N 190.675 0.682077 -1.42076 0
M  V30 2044 C 191.921 1.44428 -1.42367 0
M  V30 2045 C 192.254 1.94164 -0.0373056 0
M  V30 2046 O 191.529 1.70429 0.937239 0
M  V30 2047 C 191.812 2.64654 -2.44194 0
M  V30 2048 C 191.665 2.20596 -3.91991 0
M  V30 2049 C 192.984 3.66865 -2.431 0
M  V30 2050 H 190.103 0.523834 -0.518428 0
M  V30 2051 H 192.745 0.77576 -1.73442 0
M  V30 2052 H 190.895 3.2169 -2.17826 0
M  V30 2053 H 192.567 1.68783 -4.29313 0
M  V30 2054 H 190.81 1.52242 -4.06208 0
M  V30 2055 H 191.481 3.06921 -4.58807 0
M  V30 2056 H 193.957 3.19531 -2.66532 0
M  V30 2057 H 192.833 4.48577 -3.16339 0
M  V30 2058 H 193.094 4.17493 -1.45437 0
M  V30 2059 N 192.153 1.28127 0.917671 0
M  V30 2060 C 193.083 1.14248 2.03641 0
M  V30 2061 C 194.064 0.0412748 1.7005 0
M  V30 2062 O 195.249 0.217566 1.92977 0
M  V30 2063 C 192.379 0.799431 3.37974 0
M  V30 2064 C 191.333 1.85497 3.85713 0
M  V30 2065 C 190.659 1.36565 5.16966 0
M  V30 2066 C 191.959 3.26085 4.08002 0
M  V30 2067 H 193.653 2.07835 2.15511 0
M  V30 2068 H 191.199 1.00064 1.03553 0
M  V30 2069 H 193.152 0.689114 4.15727 0
M  V30 2070 H 191.876 -0.172145 3.26146 0
M  V30 2071 H 190.535 1.95437 3.10161 0
M  V30 2072 H 190.183 0.383253 5.01538 0
M  V30 2073 H 189.883 2.07143 5.49878 0
M  V30 2074 H 191.407 1.26848 5.97279 0
M  V30 2075 H 192.821 3.19089 4.76293 0
M  V30 2076 H 191.218 3.94462 4.52238 0
M  V30 2077 H 192.288 3.70394 3.12948 0
M  V30 2078 N 193.631 -1.12557 1.10312 0
M  V30 2079 C 194.879 -1.83675 0.843091 0
M  V30 2080 C 195.2 -1.84435 -0.633131 0
M  V30 2081 O 194.47 -1.30657 -1.45964 0
M  V30 2082 H 193.05 -0.680138 0.308904 0
M  V30 2083 H 195.712 -1.36301 1.39313 0
M  V30 2084 H 194.808 -2.87908 1.2048 0
M  V30 2085 N 195.109 -0.891671 -1.2995 0
M  V30 2086 C 196.056 -0.361736 -2.27948 0
M  V30 2087 C 197.026 0.551761 -1.56668 0
M  V30 2088 O 198.211 0.478736 -1.84696 0
M  V30 2089 C 195.351 0.411825 -3.42634 0
M  V30 2090 C 194.464 -0.531651 -4.28716 0
M  V30 2091 C 193.599 0.258167 -5.30572 0
M  V30 2092 C 192.638 -0.680349 -6.08307 0
M  V30 2093 N 191.775 0.0745613 -7.0206 0
M  V30 2094 H 196.615 -1.20254 -2.72659 0
M  V30 2095 H 194.152 -0.604352 -1.34112 0
M  V30 2096 H 196.11 0.876304 -4.07893 0
M  V30 2097 H 194.74 1.21715 -2.98974 0
M  V30 2098 H 193.792 -1.11463 -3.63703 0
M  V30 2099 H 195.104 -1.25038 -4.82874 0
M  V30 2100 H 194.258 0.784204 -6.0161 0
M  V30 2101 H 192.997 1.01008 -4.77126 0
M  V30 2102 H 192.002 -1.21796 -5.3614 0
M  V30 2103 H 193.227 -1.43145 -6.63842 0
M  V30 2104 H 191.173 0.808883 -6.50994 0
M  V30 2105 H 191.09 -0.584409 -7.53738 0
M  V30 2106 H 192.358 0.581123 -7.77331 0
M  V30 2107 N 196.587 1.43421 -0.653314 0
M  V30 2108 C 197.833 2.02111 -0.166992 0
M  V30 2109 C 198.166 1.51423 1.21592 0
M  V30 2110 O 197.441 0.707389 1.8118 0
M  V30 2111 C 197.724 3.5966 -0.177948 0
M  V30 2112 C 197.577 4.20579 -1.59478 0
M  V30 2113 C 198.896 4.37413 0.4856 0
M  V30 2114 H 196.015 0.734374 -0.0621557 0
M  V30 2115 H 198.657 1.70717 -0.834016 0
M  V30 2116 H 196.807 3.86537 0.390032 0
M  V30 2117 H 198.479 4.04732 -2.21336 0
M  V30 2118 H 196.722 3.77226 -2.14204 0
M  V30 2119 H 197.393 5.29665 -1.5543 0
M  V30 2120 H 199.869 4.161 0.00234528 0
M  V30 2121 H 198.745 5.47075 0.447207 0
M  V30 2122 H 199.006 4.13672 1.55974 0
M  V30 2123 N 198.065 0.39524 1.52563 0
M  V30 2124 C 199.013 -0.451859 2.28169 0
M  V30 2125 C 200.007 -1.05792 1.32304 0
M  V30 2126 O 201.213 -0.997718 1.49818 0
M  V30 2127 H 197.588 -0.164481 0.733792 0
M  V30 2128 H 199.559 0.207199 2.9768 0
M  V30 2129 C 198.308 -1.56385 3.10546 0
M  V30 2130 H 197.631 -1.10682 3.84174 0
M  V30 2131 H 199.071 -2.13067 3.66577 0
M  V30 2132 C 197.53 -2.52328 2.23231 0
M  V30 2133 O 198.06 -3.5588 1.86312 0
M  V30 2134 N 196.266 -2.22209 1.87274 0
M  V30 2135 H 195.813 -1.38033 2.17496 0
M  V30 2136 H 195.771 -2.86652 1.29143 0
M  V30 2137 N 199.544 -1.57102 0.125237 0
M  V30 2138 C 200.474 -2.18659 -0.819174 0
M  V30 2139 C 201.455 -1.12843 -1.27281 0
M  V30 2140 O 202.64 -1.41104 -1.33429 0
M  V30 2141 C 199.77 -2.79096 -2.06695 0
M  V30 2142 C 198.724 -3.90548 -1.75088 0
M  V30 2143 C 198.05 -4.37821 -3.06948 0
M  V30 2144 C 199.35 -5.12356 -1.01435 0
M  V30 2145 H 201.044 -2.9783 -0.306202 0
M  V30 2146 H 198.59 -1.4326 -0.145839 0
M  V30 2147 H 200.543 -3.2082 -2.73226 0
M  V30 2148 H 199.267 -1.97223 -2.60328 0
M  V30 2149 H 197.926 -3.49409 -1.10944 0
M  V30 2150 H 197.574 -3.52799 -3.58527 0
M  V30 2151 H 197.274 -5.12982 -2.86571 0
M  V30 2152 H 198.798 -4.822 -3.74587 0
M  V30 2153 H 200.212 -5.5106 -1.58132 0
M  V30 2154 H 198.609 -5.9314 -0.911319 0
M  V30 2155 H 199.679 -4.849 -0.00218681 0
M  V30 2156 N 201.022 0.148545 -1.56898 0
M  V30 2157 C 201.985 1.16736 -1.97244 0
M  V30 2158 C 202.985 1.35947 -0.858777 0
M  V30 2159 O 204.175 1.32966 -1.12542 0
M  V30 2160 C 201.307 2.52798 -2.28705 0
M  V30 2161 H 202.5 0.821279 -2.88435 0
M  V30 2162 H 200.053 0.391831 -1.51309 0
M  V30 2163 H 200.788 2.92381 -1.403 0
M  V30 2164 H 200.573 2.40216 -3.09901 0
M  V30 2165 H 202.063 3.26179 -2.60762 0
M  V30 2166 N 202.5 1.5196 0.417844 0
M  V30 2167 C 203.432 1.70895 1.52733 0
M  V30 2168 C 204.445 0.589405 1.51756 0
M  V30 2169 O 205.634 0.864312 1.56179 0
M  V30 2170 C 202.734 1.72627 2.91639 0
M  V30 2171 C 201.907 3.01479 3.16905 0
M  V30 2172 C 200.966 2.95139 4.35637 0
M  V30 2173 O 199.992 3.69059 4.3334 0
M  V30 2174 N 201.194 2.12328 5.40275 0
M  V30 2175 H 203.959 2.66612 1.36888 0
M  V30 2176 H 201.52 1.50089 0.607037 0
M  V30 2177 H 203.512 1.65928 3.6912 0
M  V30 2178 H 202.082 0.844216 3.00985 0
M  V30 2179 H 201.302 3.21895 2.27546 0
M  V30 2180 H 202.59 3.86736 3.30625 0
M  V30 2181 H 201.988 1.51685 5.44985 0
M  V30 2182 H 200.545 2.11494 6.16534 0
M  V30 2183 N 203.978 -0.674533 1.42435 0
M  V30 2184 C 204.908 -1.80009 1.48724 0
M  V30 2185 C 205.889 -1.6659 0.343793 0
M  V30 2186 O 207.074 -1.86007 0.558137 0
M  V30 2187 C 204.204 -3.18306 1.38919 0
M  V30 2188 C 203.158 -3.46461 2.51294 0
M  V30 2189 C 202.484 -4.84335 2.26547 0
M  V30 2190 C 203.784 -3.43328 3.93603 0
M  V30 2191 H 205.478 -1.75004 2.42928 0
M  V30 2192 H 203.024 -0.840533 1.16923 0
M  V30 2193 H 204.977 -3.9678 1.41927 0
M  V30 2194 H 203.701 -3.2399 0.412094 0
M  V30 2195 H 202.36 -2.70348 2.47604 0
M  V30 2196 H 202.008 -4.86669 1.2713 0
M  V30 2197 H 201.708 -5.04136 3.01861 0
M  V30 2198 H 203.232 -5.65094 2.31304 0
M  V30 2199 H 204.646 -4.11772 3.98894 0
M  V30 2200 H 203.043 -3.74664 4.68771 0
M  V30 2201 H 204.113 -2.41897 4.20255 0
M  V30 2202 N 205.456 -1.28612 -0.910864 0
M  V30 2203 C 206.702 -1.16106 -1.66274 0
M  V30 2204 C 207.035 0.289113 -1.92036 0
M  V30 2205 O 206.31 1.21 -1.52281 0
M  V30 2206 C 206.593 -1.96309 -3.01885 0
M  V30 2207 C 206.446 -3.49405 -2.8326 0
M  V30 2208 C 207.765 -1.78076 -4.02463 0
M  V30 2209 H 204.884 -0.423152 -0.603417 0
M  V30 2210 H 207.526 -1.57961 -1.05586 0
M  V30 2211 H 205.676 -1.60742 -3.53687 0
M  V30 2212 H 207.348 -3.94894 -2.38446 0
M  V30 2213 H 205.591 -3.74893 -2.18261 0
M  V30 2214 H 206.262 -4.00784 -3.79574 0
M  V30 2215 H 208.738 -2.0912 -3.59733 0
M  V30 2216 H 207.614 -2.36561 -4.95308 0
M  V30 2217 H 207.875 -0.733008 -4.35981 0
M  V30 2218 N 206.934 1.1197 -1.10907 0
M  V30 2219 C 208.18 1.8386 -0.855773 0
M  V30 2220 C 208.513 1.84134 0.617103 0
M  V30 2221 O 207.788 1.29041 1.45529 0
M  V30 2222 C 208.071 3.31305 -1.411 0
M  V30 2223 C 207.924 3.39456 -2.9511 0
M  V30 2224 C 209.243 4.2721 -1.05736 0
M  V30 2225 H 206.362 0.667545 -0.312334 0
M  V30 2226 H 209.004 1.31331 -1.37303 0
M  V30 2227 H 207.154 3.76169 -0.97105 0
M  V30 2228 H 208.826 3.03191 -3.47668 0
M  V30 2229 H 207.069 2.79849 -3.31462 0
M  V30 2230 H 207.74 4.43209 -3.29044 0
M  V30 2231 H 210.216 3.90497 -1.43706 0
M  V30 2232 H 209.092 5.28775 -1.47269 0
M  V30 2233 H 209.353 4.42088 0.0325958 0
M  V30 2234 N 208.412 0.89855 1.29475 0
M  V30 2235 C 209.345 0.319981 2.25945 0
M  V30 2236 C 210.323 -0.567189 1.52387 0
M  V30 2237 O 211.507 -0.514254 1.8135 0
M  V30 2238 C 208.634 -0.544013 3.34303 0
M  V30 2239 C 207.68 0.275682 4.25608 0
M  V30 2240 S 208.513 1.67272 5.08704 0
M  V30 2241 C 209.669 0.815621 6.20563 0
M  V30 2242 H 209.902 1.13767 2.74671 0
M  V30 2243 H 207.435 0.69882 1.3768 0
M  V30 2244 H 209.393 -1.03673 3.97193 0
M  V30 2245 H 208.054 -1.33593 2.84274 0
M  V30 2246 H 207.247 -0.384263 5.02533 0
M  V30 2247 H 206.849 0.701496 3.67362 0
M  V30 2248 H 209.141 0.0385042 6.77489 0
M  V30 2249 H 210.084 1.55691 6.90772 0
M  V30 2250 H 210.492 0.370516 5.63283 0
M  V30 2251 N 209.89 -1.43072 0.660911 0
M  V30 2252 C 211.136 -2.0202 0.177708 0
M  V30 2253 C 211.469 -1.52066 -1.20787 0
M  V30 2254 O 210.744 -0.716987 -1.80802 0
M  V30 2255 C 211.027 -3.59561 0.197019 0
M  V30 2256 C 210.88 -4.19727 1.61706 0
M  V30 2257 C 212.199 -4.37664 -0.462396 0
M  V30 2258 H 209.318 -0.734034 0.0660494 0
M  V30 2259 H 211.96 -1.70272 0.843058 0
M  V30 2260 H 210.11 -3.86739 -0.369527 0
M  V30 2261 H 211.782 -4.03553 2.23479 0
M  V30 2262 H 210.025 -3.76084 2.16201 0
M  V30 2263 H 210.696 -5.28834 1.58237 0
M  V30 2264 H 213.172 -4.16095 0.0197215 0
M  V30 2265 H 212.048 -5.47305 -0.418188 0
M  V30 2266 H 212.309 -4.14493 -1.53778 0
M  V30 2267 N 211.368 -0.403325 -1.52352 0
M  V30 2268 C 212.298 0.416205 -2.29761 0
M  V30 2269 C 213.279 1.05123 -1.33728 0
M  V30 2270 O 214.464 1.06134 -1.62632 0
M  V30 2271 C 211.594 1.53624 -3.11475 0
M  V30 2272 C 210.548 1.02653 -4.15507 0
M  V30 2273 C 209.874 2.23971 -4.85532 0
M  V30 2274 C 211.174 0.08463 -5.22231 0
M  V30 2275 H 212.868 -0.229701 -2.98518 0
M  V30 2276 H 210.414 -0.111913 -1.43564 0
M  V30 2277 H 212.367 2.1165 -3.64393 0
M  V30 2278 H 211.091 2.20994 -2.40477 0
M  V30 2279 H 209.75 0.46871 -3.63591 0
M  V30 2280 H 209.398 2.89883 -4.11068 0
M  V30 2281 H 209.098 1.90521 -5.55856 0
M  V30 2282 H 210.622 2.82614 -5.41259 0
M  V30 2283 H 212.036 0.573509 -5.70424 0
M  V30 2284 H 210.433 -0.160783 -5.99885 0
M  V30 2285 H 211.503 -0.86237 -4.7717 0
M  V30 2286 N 212.846 1.57033 -0.133567 0
M  V30 2287 C 214.092 1.95976 0.521649 0
M  V30 2288 C 214.425 1.01779 1.65393 0
M  V30 2289 O 213.7 0.0576581 1.94415 0
M  V30 2290 C 213.983 3.44738 1.04057 0
M  V30 2291 C 213.836 4.49711 -0.0892897 0
M  V30 2292 C 215.155 3.95682 1.92675 0
M  V30 2293 H 212.274 0.712579 0.188149 0
M  V30 2294 H 214.916 1.88813 -0.212076 0
M  V30 2295 H 213.066 3.50973 1.66583 0
M  V30 2296 H 214.738 4.55565 -0.725152 0
M  V30 2297 H 212.981 4.27261 -0.750378 0
M  V30 2298 H 213.652 5.51099 0.315284 0
M  V30 2299 H 216.128 3.91841 1.39998 0
M  V30 2300 H 215.004 5.00262 2.25897 0
M  V30 2301 H 215.265 3.37239 2.85872 0
M  V30 2302 N 214.325 -0.140222 1.56975 0
M  V30 2303 C 215.235 -1.19223 2.02047 0
M  V30 2304 C 216.251 -1.46612 0.937062 0
M  V30 2305 O 217.427 -1.58148 1.24704 0
M  V30 2306 C 214.492 -2.50414 2.39778 0
M  V30 2307 C 213.553 -2.30612 3.621 0
M  V30 2308 C 212.786 -3.55547 3.98023 0
M  V30 2309 O 213.009 -4.62004 3.34528 0
M  V30 2310 O 211.943 -3.47808 4.91237 0
M  V30 2311 H 215.769 -0.839559 2.91865 0
M  V30 2312 H 213.354 -0.349453 1.45256 0
M  V30 2313 H 215.236 -3.27747 2.64877 0
M  V30 2314 H 213.911 -2.85198 1.53114 0
M  V30 2315 H 212.818 -1.51207 3.4218 0
M  V30 2316 H 214.151 -2.00741 4.49404 0
M  V30 2317 N 215.803 -1.52179 -0.40978 0
M  V30 2318 C 217.049 -1.66453 -1.15851 0
M  V30 2319 C 217.382 -0.392972 -1.90182 0
M  V30 2320 O 216.657 0.608579 -1.84734 0
M  V30 2321 C 216.94 -2.88612 -2.15349 0
M  V30 2322 C 216.793 -4.25815 -1.44918 0
M  V30 2323 C 218.112 -3.06294 -3.16026 0
M  V30 2324 H 215.231 -0.60575 -0.419805 0
M  V30 2325 H 217.873 -1.84732 -0.444314 0
M  V30 2326 H 216.023 -2.73158 -2.76255 0
M  V30 2327 H 217.695 -4.52995 -0.871365 0
M  V30 2328 H 215.938 -4.27247 -0.751159 0
M  V30 2329 H 216.609 -5.07337 -2.17516 0
M  V30 2330 H 219.085 -3.20641 -2.65195 0
M  V30 2331 H 217.961 -3.93283 -3.8291 0
M  V30 2332 H 218.222 -2.19579 -3.83715 0
M  V30 2333 N 217.281 0.66697 -1.42791 0
M  V30 2334 C 218.509 1.45505 -1.47091 0
M  V30 2335 C 218.924 1.8861 -0.0845873 0
M  V30 2336 O 218.281 1.58632 0.90234 0
M  V30 2337 C 218.332 2.69906 -2.40485 0
M  V30 2338 O 218.053 2.28608 -3.73725 0
M  V30 2339 C 219.554 3.63396 -2.53886 0
M  V30 2340 H 216.774 0.447459 -0.500022 0
M  V30 2341 H 219.318 0.818866 -1.8739 0
M  V30 2342 H 217.473 3.29696 -2.03419 0
M  V30 2343 H 217.887 3.08997 -4.23817 0
M  V30 2344 H 219.361 4.47387 -3.2334 0
M  V30 2345 H 219.838 4.09824 -1.57927 0
M  V30 2346 H 220.444 3.09495 -2.91706 0
M  V30 2347 N 218.759 1.29093 0.90403 0
M  V30 2348 C 219.722 1.1386 1.98919 0
M  V30 2349 C 220.722 0.0753457 1.60623 0
M  V30 2350 O 221.912 0.321931 1.71199 0
M  V30 2351 C 219.044 0.740198 3.32767 0
M  V30 2352 H 220.237 2.10246 2.13861 0
M  V30 2353 H 217.79 1.12218 1.08797 0
M  V30 2354 H 218.525 -0.223997 3.23525 0
M  V30 2355 H 218.31 1.50838 3.61926 0
M  V30 2356 H 219.8 0.656546 4.12407 0
M  V30 2357 N 220.237 -1.11381 1.11499 0
M  V30 2358 C 221.167 -2.19509 0.796125 0
M  V30 2359 C 222.148 -1.68458 -0.235796 0
M  V30 2360 O 223.333 -1.93947 -0.0991344 0
M  V30 2361 C 220.463 -3.46475 0.239205 0
M  V30 2362 C 219.417 -4.10744 1.20307 0
M  V30 2363 C 218.743 -5.32293 0.50683 0
M  V30 2364 C 220.043 -4.55597 2.55399 0
M  V30 2365 H 221.737 -2.46439 1.70024 0
M  V30 2366 H 219.283 -1.18446 0.818935 0
M  V30 2367 H 221.236 -4.214 0.00392006 0
M  V30 2368 H 219.96 -3.19006 -0.700206 0
M  V30 2369 H 218.619 -3.37813 1.42399 0
M  V30 2370 H 218.267 -5.01095 -0.437408 0
M  V30 2371 H 217.967 -5.76243 1.1497 0
M  V30 2372 H 219.491 -6.09956 0.280351 0
M  V30 2373 H 220.905 -5.21841 2.37391 0
M  V30 2374 H 219.302 -5.10363 3.15673 0
M  V30 2375 H 220.372 -3.69013 3.14575 0
M  V30 2376 N 221.715 -0.905404 -1.28997 0
M  V30 2377 C 222.963 -0.533192 -1.9494 0
M  V30 2378 C 223.284 0.924618 -1.71685 0
M  V30 2379 O 222.554 1.65268 -1.05183 0
M  V30 2380 H 221.134 -0.194194 -0.721317 0
M  V30 2381 H 223.796 -1.15294 -1.57141 0
M  V30 2382 H 222.892 -0.72059 -3.03667 0
M  V30 2383 N 223.193 1.4272 -0.668489 0
M  V30 2384 C 224.141 2.32586 0.0254857 0
M  V30 2385 C 225.135 1.49471 0.797176 0
M  V30 2386 O 226.341 1.65583 0.705853 0
M  V30 2387 H 222.716 0.751514 0.0270339 0
M  V30 2388 H 224.687 2.88823 -0.749936 0
M  V30 2389 C 223.436 3.3397 0.967427 0
M  V30 2390 H 222.759 3.97961 0.383048 0
M  V30 2391 H 224.199 3.9945 1.42181 0
M  V30 2392 C 222.658 2.65744 2.0708 0
M  V30 2393 O 223.188 2.48454 3.15648 0
M  V30 2394 N 221.394 2.2487 1.8407 0
M  V30 2395 H 220.941 2.39132 0.95778 0
M  V30 2396 H 220.899 1.79552 2.58086 0
M  V30 2397 N 224.671 0.411399 1.52136 0
M  V30 2398 C 225.601 -0.404015 2.29978 0
M  V30 2399 C 226.582 -1.04412 1.34284 0
M  V30 2400 O 227.767 -1.0527 1.63192 0
M  V30 2401 C 224.897 -1.5197 3.12286 0
M  V30 2402 C 223.851 -1.00448 4.16046 0
M  V30 2403 C 223.177 -2.21393 4.86712 0
M  V30 2404 C 224.477 -0.0569336 5.22269 0
M  V30 2405 H 226.171 0.245529 2.98392 0
M  V30 2406 H 223.717 0.119525 1.43503 0
M  V30 2407 H 225.67 -2.09715 3.6551 0
M  V30 2408 H 224.394 -2.19716 2.41646 0
M  V30 2409 H 223.053 -0.449421 3.63835 0
M  V30 2410 H 222.701 -2.87699 4.12599 0
M  V30 2411 H 222.401 -1.87571 5.56858 0
M  V30 2412 H 223.925 -2.7974 5.4275 0
M  V30 2413 H 225.339 -0.54325 5.7072 0
M  V30 2414 H 223.736 0.192594 5.99791 0
M  V30 2415 H 224.806 0.887663 4.76706 0
M  V30 2416 N 226.149 -1.5696 0.141893 0
M  V30 2417 C 227.565 -1.58151 -0.21456 0
M  V30 2418 C 227.765 -1.1559 -1.65049 0
M  V30 2419 O 226.821 -0.853832 -2.37626 0
M  V30 2420 C 228.134 -3.00674 0.0395576 0
M  V30 2421 C 229.682 -3.1299 -0.0245529 0
M  V30 2422 C 230.157 -4.57554 0.202167 0
M  V30 2423 N 231.648 -4.62961 0.148919 0
M  V30 2424 C 232.383 -5.7262 0.298924 0
M  V30 2425 N 231.879 -6.90947 0.50637 0
M  V30 2426 N 233.672 -5.61601 0.236886 0
M  V30 2427 H 225.823 -1.8292 1.07953 0
M  V30 2428 H 228.086 -0.846425 0.42693 0
M  V30 2429 H 227.792 -3.36183 1.03315 0
M  V30 2430 H 227.666 -3.70981 -0.682143 0
M  V30 2431 H 230.053 -2.77326 -1.00869 0
M  V30 2432 H 230.134 -2.4518 0.729396 0
M  V30 2433 H 229.778 -4.93922 1.18338 0
M  V30 2434 H 229.708 -5.23484 -0.572044 0
M  V30 2435 H 232.199 -3.77899 -0.00697015 0
M  V30 2436 H 232.512 -7.7038 0.611076 0
M  V30 2437 H 230.857 -6.92878 0.542628 0
M  V30 2438 H 234.048 -4.68039 0.0756209 0
M  V30 2439 H 234.221 -6.47015 0.357227 0
M  V30 2440 N 227.627 0.131896 -1.57047 0
M  V30 2441 C 228.56 1.19236 -1.94571 0
M  V30 2442 C 229.538 1.40782 -0.813576 0
M  V30 2443 O 230.722 1.55148 -1.07058 0
M  V30 2444 C 227.849 2.54858 -2.23081 0
M  V30 2445 C 226.895 2.49817 -3.45679 0
M  V30 2446 S 227.728 1.95036 -4.98719 0
M  V30 2447 C 228.884 3.32357 -5.30367 0
M  V30 2448 H 229.117 0.872297 -2.84215 0
M  V30 2449 H 226.65 0.338134 -1.50652 0
M  V30 2450 H 228.608 3.32898 -2.40185 0
M  V30 2451 H 227.269 2.84047 -1.34074 0
M  V30 2452 H 226.462 3.49688 -3.62952 0
M  V30 2453 H 226.064 1.79892 -3.27895 0
M  V30 2454 H 228.356 4.28525 -5.2476 0
M  V30 2455 H 229.299 3.19923 -6.31708 0
M  V30 2456 H 229.707 3.3019 -4.57859 0
M  V30 2457 N 229.106 1.52395 0.401703 0
M  V30 2458 C 230.352 1.67065 1.14966 0
M  V30 2459 C 230.685 0.403052 1.89971 0
M  V30 2460 O 229.96 -0.598774 1.85054 0
M  V30 2461 C 230.243 2.8975 2.13815 0
M  V30 2462 C 230.096 4.26578 1.42658 0
M  V30 2463 C 231.415 3.07965 3.14397 0
M  V30 2464 H 228.534 0.607968 0.416587 0
M  V30 2465 H 231.176 1.84965 0.434511 0
M  V30 2466 H 229.326 2.74619 2.74803 0
M  V30 2467 H 230.998 4.53451 0.847329 0
M  V30 2468 H 229.241 4.27639 0.72849 0
M  V30 2469 H 229.912 5.08483 2.14823 0
M  V30 2470 H 232.388 3.22043 2.63491 0
M  V30 2471 H 231.264 3.95308 3.80819 0
M  V30 2472 H 231.525 2.21611 3.82545 0
M  V30 2473 N 230.584 -0.659388 1.43143 0
M  V30 2474 C 231.833 -1.41518 1.43721 0
M  V30 2475 C 232.146 -1.95499 0.0628176 0
M  V30 2476 O 233.352 -2.71446 -0.0539683 0
M  V30 2477 C 231.808 -2.5608 2.52885 0
M  V30 2478 C 231.416 -2.08733 3.96402 0
M  V30 2479 C 233.16 -3.3349 2.62649 0
M  V30 2480 C 231.067 -3.20469 4.97045 0
M  V30 2481 H 229.997 -0.531705 0.534608 0
M  V30 2482 H 232.648 -0.712343 1.69109 0
M  V30 2483 H 231.03 -3.28805 2.20688 0
M  V30 2484 H 232.204 -1.43059 4.3803 0
M  V30 2485 H 230.519 -1.44219 3.90627 0
M  V30 2486 H 233.116 -4.16734 3.35017 0
M  V30 2487 H 233.459 -3.8111 1.67513 0
M  V30 2488 H 233.992 -2.67842 2.94118 0
M  V30 2489 H 230.731 -2.77824 5.93712 0
M  V30 2490 H 230.251 -3.84874 4.60034 0
M  V30 2491 H 231.93 -3.85698 5.19467 0
M  V30 2492 N 232.062 -1.29571 -0.897171 0
M  V30 2493 C 233.287 -1.20705 -1.68656 0
M  V30 2494 C 233.712 0.228582 -1.86706 0
M  V30 2495 O 233.07 1.16494 -1.3892 0
M  V30 2496 C 233.118 -1.9282 -3.04717 0
M  V30 2497 O 232.222 -1.24697 -3.93096 0
M  V30 2498 H 231.563 -0.418126 -0.515816 0
M  V30 2499 H 234.093 -1.71183 -1.12061 0
M  V30 2500 H 234.103 -2.01372 -3.54843 0
M  V30 2501 H 232.778 -2.97239 -2.90899 0
M  V30 2502 H 231.355 -1.2442 -3.51531 0
M  V30 2503 N 233.54 1.10788 -1.12088 0
M  V30 2504 C 234.488 2.19111 -0.780587 0
M  V30 2505 C 235.482 1.67818 0.230961 0
M  V30 2506 O 236.688 1.79777 0.0895427 0
M  V30 2507 H 233.063 0.714477 -0.234578 0
M  V30 2508 H 235.034 2.45055 -1.70266 0
M  V30 2509 C 233.783 3.46818 -0.24747 0
M  V30 2510 H 233.106 3.86646 -1.01712 0
M  V30 2511 H 234.546 4.23973 -0.0476291 0
M  V30 2512 C 233.005 3.20968 1.02378 0
M  V30 2513 O 233.535 3.42298 2.10226 0
M  V30 2514 N 231.741 2.74658 0.949271 0
M  V30 2515 H 231.288 2.57501 0.0715173 0
M  V30 2516 H 231.246 2.57739 1.80049 0
M  V30 2517 N 235.018 0.912232 1.28515 0
M  V30 2518 C 236.267 0.540504 1.94323 0
M  V30 2519 C 236.58 -0.920044 1.72611 0
M  V30 2520 O 237.786 -1.39986 2.32629 0
M  V30 2521 C 236.242 0.915803 3.48053 0
M  V30 2522 C 235.85 2.39598 3.78546 0
M  V30 2523 C 237.594 0.614588 4.20027 0
M  V30 2524 C 235.501 2.71148 5.25578 0
M  V30 2525 H 234.431 0.198418 0.727424 0
M  V30 2526 H 237.082 1.11094 1.46049 0
M  V30 2527 H 235.464 0.274168 3.9505 0
M  V30 2528 H 236.638 3.08422 3.42364 0
M  V30 2529 H 234.953 2.66749 3.1974 0
M  V30 2530 H 237.55 0.827002 5.28266 0
M  V30 2531 H 237.893 -0.447531 4.13887 0
M  V30 2532 H 238.426 1.21462 3.78803 0
M  V30 2533 H 235.165 3.76207 5.36794 0
M  V30 2534 H 234.685 2.0696 5.62963 0
M  V30 2535 H 236.364 2.58072 5.93302 0
M  V30 2536 N 236.496 -1.42363 0.676048 0
M  V30 2537 C 237.743 -2.01522 0.19883 0
M  V30 2538 C 238.071 -1.53456 -1.19505 0
M  V30 2539 O 237.326 -0.727967 -1.81657 0
M  V30 2540 C 237.625 -3.56929 0.183431 0
M  V30 2541 C 237.291 -4.24431 1.52215 0
M  V30 2542 C 235.953 -4.42585 1.8887 0
M  V30 2543 C 238.305 -4.62459 2.40377 0
M  V30 2544 C 235.633 -4.96039 3.13309 0
M  V30 2545 C 237.985 -5.17294 3.64129 0
M  V30 2546 C 236.649 -5.33661 4.00951 0
M  V30 2547 H 235.919 -0.737419 0.0727571 0
M  V30 2548 H 238.566 -1.70531 0.871281 0
M  V30 2549 H 236.871 -3.87594 -0.572532 0
M  V30 2550 H 238.568 -4.00486 -0.203035 0
M  V30 2551 H 235.158 -4.10661 1.22701 0
M  V30 2552 H 239.342 -4.48105 2.13343 0
M  V30 2553 H 234.598 -5.06896 3.41857 0
M  V30 2554 H 238.772 -5.45704 4.32644 0
M  V30 2555 H 236.399 -5.74845 4.9745 0
M  V30 2556 N 237.974 -0.419461 -1.51915 0
M  V30 2557 C 238.922 0.415502 -2.28859 0
M  V30 2558 C 239.916 1.03674 -1.3397 0
M  V30 2559 O 241.122 0.973757 -1.51387 0
M  V30 2560 H 237.497 0.152786 -0.736315 0
M  V30 2561 H 239.468 -0.254531 -2.97312 0
M  V30 2562 C 238.217 1.51425 -3.12995 0
M  V30 2563 H 237.54 1.04556 -3.85886 0
M  V30 2564 H 238.98 2.07208 -3.6992 0
M  V30 2565 C 237.439 2.48745 -2.27217 0
M  V30 2566 O 237.969 3.52871 -1.9195 0
M  V30 2567 N 236.175 2.19202 -1.90785 0
M  V30 2568 H 235.722 1.34556 -2.19664 0
M  V30 2569 H 235.68 2.84561 -1.33687 0
M  V30 2570 N 239.452 1.56882 -0.150215 0
M  V30 2571 C 240.68 2.00593 0.506948 0
M  V30 2572 C 241.095 1.03033 1.58208 0
M  V30 2573 O 240.452 0.0278396 1.82479 0
M  V30 2574 C 240.503 3.44209 1.10465 0
M  V30 2575 O 240.224 4.3804 0.0724636 0
M  V30 2576 C 241.725 4.03214 1.84211 0
M  V30 2577 H 238.945 0.65795 0.13169 0
M  V30 2578 H 241.489 2.03018 -0.245743 0
M  V30 2579 H 239.644 3.42625 1.80795 0
M  V30 2580 H 240.058 5.22007 0.510793 0
M  V30 2581 H 241.532 5.0569 2.21318 0
M  V30 2582 H 242.009 3.44107 2.72923 0
M  V30 2583 H 242.615 4.08437 1.18572 0
M  V30 2584 N 240.93 -0.123565 1.57115 0
M  V30 2585 C 242.207 -0.862196 1.75572 0
M  V30 2586 C 242.587 -1.98279 0.724475 0
M  V30 2587 O 241.935 -2.27102 -0.252407 0
M  V30 2588 C 242.145 -1.38309 3.20424 0
M  V30 2589 C 243.493 -1.83724 3.82793 0
M  V30 2590 O 244.517 -1.47999 3.23998 0
M  V30 2591 O 243.376 -2.49685 4.86127 0
M  V30 2592 H 240.47 -0.409113 0.718718 0
M  V30 2593 H 243.016 -0.107661 1.69358 0
M  V30 2594 H 241.788 -0.578889 3.86994 0
M  V30 2595 H 241.411 -2.20046 3.31158 0
M  V30 2596 N 242.408 -1.52605 -0.393616 0
M  V30 2597 C 243.638 -1.71046 -1.15874 0
M  V30 2598 C 244.046 -0.426483 -1.84331 0
M  V30 2599 O 243.389 0.608513 -1.73329 0
M  V30 2600 C 243.451 -2.80118 -2.25332 0
M  V30 2601 C 243.115 -4.21381 -1.76881 0
M  V30 2602 C 244.112 -5.04697 -1.24808 0
M  V30 2603 C 241.797 -4.67683 -1.83244 0
M  V30 2604 C 243.791 -6.32393 -0.797387 0
M  V30 2605 C 241.478 -5.95364 -1.37787 0
M  V30 2606 C 242.476 -6.77549 -0.861208 0
M  V30 2607 O 242.164 -8.02837 -0.413252 0
M  V30 2608 H 241.896 -0.576155 -0.353583 0
M  V30 2609 H 244.45 -2.00018 -0.467123 0
M  V30 2610 H 242.68 -2.46557 -2.97904 0
M  V30 2611 H 244.369 -2.87006 -2.87023 0
M  V30 2612 H 245.135 -4.70111 -1.19252 0
M  V30 2613 H 241.014 -4.03805 -2.22401 0
M  V30 2614 H 244.558 -6.9649 -0.393437 0
M  V30 2615 H 240.455 -6.29455 -1.43026 0
M  V30 2616 H 241.223 -8.16749 -0.53515 0
M  V30 2617 N 243.887 0.651787 -1.4349 0
M  V30 2618 C 244.837 1.75783 -1.45205 0
M  V30 2619 C 245.821 1.57679 -0.320328 0
M  V30 2620 O 247.013 1.67767 -0.564211 0
M  V30 2621 C 244.142 3.14377 -1.3792 0
M  V30 2622 C 243.228 3.38023 -2.56127 0
M  V30 2623 N 243.619 3.32135 -3.81471 0
M  V30 2624 C 241.917 3.68747 -2.50882 0
M  V30 2625 C 242.618 3.55902 -4.60118 0
M  V30 2626 N 241.594 3.77783 -3.90872 0
M  V30 2627 H 245.396 1.69657 -2.39987 0
M  V30 2628 H 242.91 0.853508 -1.38163 0
M  V30 2629 H 244.907 3.93666 -1.37231 0
M  V30 2630 H 243.567 3.21683 -0.441596 0
M  V30 2631 H 244.578 3.11515 -4.13738 0
M  V30 2632 H 241.255 3.8316 -1.65816 0
M  V30 2633 H 242.645 3.57116 -5.69138 0
M  V30 2634 N 245.365 1.30045 0.890287 0
M  V30 2635 C 246.298 1.10301 1.99772 0
M  V30 2636 C 247.276 0.0121631 1.62595 0
M  V30 2637 O 248.46 0.16469 1.87779 0
M  V30 2638 C 245.587 0.681125 3.31781 0
M  V30 2639 C 244.633 1.77206 3.87944 0
M  V30 2640 S 245.466 3.37335 4.15891 0
M  V30 2641 C 246.622 2.97036 5.50927 0
M  V30 2642 H 246.855 2.04057 2.16213 0
M  V30 2643 H 244.388 1.14299 1.03804 0
M  V30 2644 H 246.346 0.444439 4.08087 0
M  V30 2645 H 245.007 -0.236981 3.13205 0
M  V30 2646 H 244.2 1.42903 4.83316 0
M  V30 2647 H 243.802 1.96275 3.18358 0
M  V30 2648 H 246.094 2.44666 6.31779 0
M  V30 2649 H 247.037 3.91296 5.90164 0
M  V30 2650 H 247.445 2.35057 5.13233 0
M  V30 2651 N 246.843 -1.10192 1.12674 0
M  V30 2652 C 247.791 -2.18694 0.792196 0
M  V30 2653 C 248.785 -1.67938 -0.222058 0
M  V30 2654 O 249.991 -1.79822 -0.0800074 0
M  V30 2655 H 246.366 -0.713223 0.238364 0
M  V30 2656 H 248.337 -2.44149 1.71564 0
M  V30 2657 C 247.086 -3.46682 0.265859 0
M  V30 2658 H 246.409 -3.86101 1.03761 0
M  V30 2659 H 247.849 -4.23942 0.0701128 0
M  V30 2660 C 246.308 -3.21506 -1.00675 0
M  V30 2661 O 246.838 -3.43408 -2.08408 0
M  V30 2662 N 245.044 -2.75158 -0.934692 0
M  V30 2663 H 244.591 -2.57535 -0.0578604 0
M  V30 2664 H 244.549 -2.58691 -1.7868 0
M  V30 2665 N 248.321 -0.919034 -1.28029 0
M  V30 2666 C 249.251 -0.428581 -2.29533 0
M  V30 2667 C 250.232 0.50659 -1.62381 0
M  V30 2668 O 251.417 0.413195 -1.89753 0
M  V30 2669 C 248.547 0.327388 -3.45753 0
M  V30 2670 C 247.501 -0.519137 -4.2484 0
M  V30 2671 C 246.827 0.365486 -5.33449 0
M  V30 2672 C 248.127 -1.77914 -4.91064 0
M  V30 2673 H 249.821 -1.27687 -2.70807 0
M  V30 2674 H 247.367 -0.615428 -1.30186 0
M  V30 2675 H 249.32 0.681378 -4.15855 0
M  V30 2676 H 248.044 1.20963 -3.03374 0
M  V30 2677 H 246.703 -0.855717 -3.56473 0
M  V30 2678 H 246.351 1.24642 -4.87312 0
M  V30 2679 H 246.051 -0.197356 -5.87268 0
M  V30 2680 H 247.575 0.715241 -6.06396 0
M  V30 2681 H 248.989 -1.49374 -5.53498 0
M  V30 2682 H 247.386 -2.2848 -5.54903 0
M  V30 2683 H 248.456 -2.50382 -4.15255 0
M  V30 2684 N 249.799 1.42003 -0.683588 0
M  V30 2685 C 251.215 1.55625 -0.353976 0
M  V30 2686 C 251.415 1.66151 1.14 0
M  V30 2687 O 250.471 1.63329 1.92561 0
M  V30 2688 C 251.784 2.80171 -1.092 0
M  V30 2689 C 253.332 2.93954 -1.07518 0
M  V30 2690 C 253.807 4.21372 -1.79471 0
M  V30 2691 N 255.298 4.28303 -1.76381 0
M  V30 2692 C 256.033 5.25729 -2.28904 0
M  V30 2693 N 255.529 6.29254 -2.89846 0
M  V30 2694 N 257.322 5.17586 -2.19228 0
M  V30 2695 H 249.473 1.33415 -1.6527 0
M  V30 2696 H 251.736 0.64282 -0.696769 0
M  V30 2697 H 251.442 2.78561 -2.14701 0
M  V30 2698 H 251.316 3.7133 -0.662862 0
M  V30 2699 H 253.703 2.95086 -0.028475 0
M  V30 2700 H 253.784 2.04002 -1.54328 0
M  V30 2701 H 253.428 4.21001 -2.84114 0
M  V30 2702 H 253.358 5.10275 -1.30104 0
M  V30 2703 H 255.849 3.54119 -1.31939 0
M  V30 2704 H 256.162 6.99964 -3.27522 0
M  V30 2705 H 254.507 6.29791 -2.93919 0
M  V30 2706 H 257.698 4.35631 -1.71299 0
M  V30 2707 H 257.871 5.93348 -2.60466 0
M  V30 2708 N 251.277 0.427512 1.51691 0
M  V30 2709 C 252.227 -0.406604 2.24345 0
M  V30 2710 C 253.211 -0.998276 1.26187 0
M  V30 2711 O 254.403 -0.918045 1.51331 0
M  V30 2712 C 251.532 -1.51266 3.08177 0
M  V30 2713 C 250.618 -0.930868 4.13758 0
M  V30 2714 N 251.009 -0.0773552 5.05741 0
M  V30 2715 C 249.307 -1.19948 4.29568 0
M  V30 2716 C 250.008 0.248344 5.8117 0
M  V30 2717 N 248.984 -0.365535 5.4237 0
M  V30 2718 H 252.786 0.251581 2.92821 0
M  V30 2719 H 250.3 0.239003 1.60632 0
M  V30 2720 H 252.297 -2.123 3.58796 0
M  V30 2721 H 250.957 -2.17328 2.41244 0
M  V30 2722 H 251.968 0.288351 5.17097 0
M  V30 2723 H 248.645 -1.85832 3.73862 0
M  V30 2724 H 250.035 0.942286 6.6526 0
M  V30 2725 N 252.755 -1.56801 0.158532 0
M  V30 2726 C 254.002 -1.9649 -0.489679 0
M  V30 2727 C 254.33 -1.04394 -1.6411 0
M  V30 2728 O 253.585 -0.0754401 -1.95555 0
M  V30 2729 C 253.884 -3.4235 -1.02623 0
M  V30 2730 C 253.55 -4.50899 0.00794526 0
M  V30 2731 C 252.212 -4.80312 0.292207 0
M  V30 2732 C 254.564 -5.16333 0.710584 0
M  V30 2733 C 251.892 -5.72461 1.28472 0
M  V30 2734 C 254.244 -6.09553 1.69199 0
M  V30 2735 C 252.908 -6.37339 1.98383 0
M  V30 2736 H 252.178 -0.719009 -0.179186 0
M  V30 2737 H 254.825 -1.8989 0.247798 0
M  V30 2738 H 253.13 -3.45838 -1.84128 0
M  V30 2739 H 254.827 -3.70393 -1.53656 0
M  V30 2740 H 251.417 -4.28015 -0.22379 0
M  V30 2741 H 255.601 -4.93732 0.504174 0
M  V30 2742 H 250.857 -5.92278 1.51714 0
M  V30 2743 H 255.031 -6.59327 2.24189 0
M  V30 2744 H 252.658 -7.08546 2.7544 0
M  V30 2745 N 254.233 0.115231 -1.57178 0
M  V30 2746 C 255.463 0.835224 -1.88964 0
M  V30 2747 C 255.871 1.73774 -0.74829 0
M  V30 2748 O 255.214 1.81401 0.289739 0
M  V30 2749 C 255.276 1.7178 -3.15804 0
M  V30 2750 C 254.94 0.989198 -4.46166 0
M  V30 2751 C 255.937 0.328263 -5.18863 0
M  V30 2752 C 253.622 0.969256 -4.9286 0
M  V30 2753 C 255.616 -0.342873 -6.36477 0
M  V30 2754 C 253.303 0.294324 -6.10391 0
M  V30 2755 C 254.301 -0.360582 -6.82048 0
M  V30 2756 O 253.989 -1.02474 -7.97342 0
M  V30 2757 H 253.721 0.245197 -0.629964 0
M  V30 2758 H 256.275 0.10303 -2.05141 0
M  V30 2759 H 254.505 2.49173 -2.95719 0
M  V30 2760 H 256.194 2.31255 -3.33581 0
M  V30 2761 H 256.96 0.335263 -4.8384 0
M  V30 2762 H 252.839 1.46844 -4.36987 0
M  V30 2763 H 256.383 -0.854629 -6.92345 0
M  V30 2764 H 252.28 0.285099 -6.4487 0
M  V30 2765 H 253.048 -0.929594 -8.13204 0
M  V30 2766 N 255.711 1.52812 0.385517 0
M  V30 2767 C 256.957 1.68275 1.13188 0
M  V30 2768 C 257.29 0.423179 1.89533 0
M  V30 2769 O 256.565 -0.579113 1.85679 0
M  V30 2770 C 256.848 2.92001 2.1073 0
M  V30 2771 C 256.701 4.28067 1.38125 0
M  V30 2772 C 258.02 3.11283 3.11113 0
M  V30 2773 H 255.139 0.612352 0.410115 0
M  V30 2774 H 257.781 1.85415 0.414869 0
M  V30 2775 H 255.931 2.77519 2.71874 0
M  V30 2776 H 257.603 4.54324 0.799187 0
M  V30 2777 H 255.846 4.28388 0.683092 0
M  V30 2778 H 256.517 5.10733 2.09417 0
M  V30 2779 H 258.993 3.2482 2.6006 0
M  V30 2780 H 257.869 3.99325 3.76605 0
M  V30 2781 H 258.13 2.25656 3.80173 0
M  V30 2782 N 257.189 -0.644168 1.43834 0
M  V30 2783 C 258.436 -1.40395 1.4593 0
M  V30 2784 C 258.764 -1.94305 0.0869658 0
M  V30 2785 O 258.019 -1.73288 -0.909378 0
M  V30 2786 C 258.318 -2.59615 2.45631 0
M  V30 2787 C 257.984 -2.2407 3.91284 0
M  V30 2788 C 256.646 -2.14089 4.30952 0
M  V30 2789 C 258.998 -1.95775 4.83034 0
M  V30 2790 C 256.326 -1.73981 5.6031 0
M  V30 2791 C 258.678 -1.57163 6.12766 0
M  V30 2792 C 257.342 -1.45713 6.51402 0
M  V30 2793 H 256.612 -0.513741 0.533995 0
M  V30 2794 H 259.259 -0.731724 1.76969 0
M  V30 2795 H 257.564 -3.32011 2.08028 0
M  V30 2796 H 259.261 -3.17834 2.44504 0
M  V30 2797 H 255.851 -2.32753 3.59895 0
M  V30 2798 H 260.035 -2.02403 4.53152 0
M  V30 2799 H 255.291 -1.63709 5.89075 0
M  V30 2800 H 259.465 -1.34303 6.83327 0
M  V30 2801 H 257.092 -1.14406 7.51542 0
M  V30 2802 N 258.668 -1.30515 -0.883378 0
M  V30 2803 C 259.631 -1.1701 -1.97082 0
M  V30 2804 C 260.631 -0.10089 -1.60483 0
M  V30 2805 O 261.821 -0.349127 -1.70666 0
M  V30 2806 C 258.953 -0.793045 -3.31547 0
M  V30 2807 H 260.146 -2.13622 -2.10489 0
M  V30 2808 H 257.699 -1.13935 -1.06998 0
M  V30 2809 H 258.434 0.172499 -3.23841 0
M  V30 2810 H 258.219 -1.56576 -3.5948 0
M  V30 2811 H 259.709 -0.722073 -4.1131 0
M  V30 2812 N 260.146 1.09593 -1.13257 0
M  V30 2813 C 261.109 2.14359 -0.811358 0
M  V30 2814 C 262.109 1.59808 0.178377 0
M  V30 2815 O 263.299 1.74132 -0.0484911 0
M  V30 2816 C 260.431 3.40269 -0.207276 0
M  V30 2817 H 261.624 2.44284 -1.73969 0
M  V30 2818 H 259.177 1.25102 -0.936973 0
M  V30 2819 H 259.912 3.15969 0.73036 0
M  V30 2820 H 259.697 3.81154 -0.919992 0
M  V30 2821 H 261.187 4.176 0.000667944 0
M  V30 2822 N 261.624 0.925811 1.2754 0
M  V30 2823 C 262.854 0.580666 1.98272 0
M  V30 2824 C 263.262 -0.845207 1.69272 0
M  V30 2825 O 262.605 -1.57306 0.948707 0
M  V30 2826 C 262.667 0.724418 3.52126 0
M  V30 2827 C 262.331 2.12206 4.04744 0
M  V30 2828 C 263.328 3.09604 4.17662 0
M  V30 2829 C 261.013 2.4385 4.39138 0
M  V30 2830 C 263.007 4.36755 4.64246 0
M  V30 2831 C 260.694 3.71237 4.85414 0
M  V30 2832 C 261.692 4.67503 4.97926 0
M  V30 2833 O 261.38 5.92624 5.43187 0
M  V30 2834 H 261.112 0.218987 0.639547 0
M  V30 2835 H 263.666 1.24452 1.63404 0
M  V30 2836 H 261.896 0.0034663 3.867 0
M  V30 2837 H 263.585 0.384607 4.04074 0
M  V30 2838 H 264.351 2.86478 3.91351 0
M  V30 2839 H 260.23 1.69665 4.28643 0
M  V30 2840 H 263.774 5.11898 4.73927 0
M  V30 2841 H 259.671 3.94182 5.11166 0
M  V30 2842 H 260.439 5.95585 5.61445 0
M  V30 2843 N 263.102 -1.41638 0.69111 0
M  V30 2844 C 264.349 -2.01299 0.220193 0
M  V30 2845 C 264.677 -1.54715 -1.17871 0
M  V30 2846 O 263.932 -0.747193 -1.80874 0
M  V30 2847 C 264.231 -3.56714 0.221277 0
M  V30 2848 C 263.897 -4.22792 1.56709 0
M  V30 2849 C 262.559 -4.40557 1.93554 0
M  V30 2850 C 264.911 -4.59883 2.45268 0
M  V30 2851 C 262.239 -4.92688 3.18552 0
M  V30 2852 C 264.591 -5.13403 3.69595 0
M  V30 2853 C 263.255 -5.29379 4.06589 0
M  V30 2854 H 262.525 -0.736606 0.0805743 0
M  V30 2855 H 265.172 -1.69598 0.889319 0
M  V30 2856 H 263.477 -3.8818 -0.531391 0
M  V30 2857 H 265.174 -4.00678 -0.160547 0
M  V30 2858 H 261.764 -4.09336 1.2705 0
M  V30 2859 H 265.948 -4.45817 2.18084 0
M  V30 2860 H 261.204 -5.03242 3.47214 0
M  V30 2861 H 265.378 -5.41084 4.38407 0
M  V30 2862 H 263.005 -5.69537 5.03519 0
M  V30 2863 N 264.58 -0.43555 -1.51462 0
M  V30 2864 C 265.828 0.131254 -2.01673 0
M  V30 2865 C 266.149 1.43368 -1.32177 0
M  V30 2866 O 265.419 1.90524 -0.455769 0
M  V30 2867 H 263.999 0.0514954 -0.745223 0
M  V30 2868 H 266.661 -0.577847 -1.86137 0
M  V30 2869 H 265.757 0.308446 -3.10572 0
M  V30 2870 N 266.058 1.56714 -0.166846 0
M  V30 2871 C 266.988 2.20754 0.760913 0
M  V30 2872 C 267.969 1.16178 1.24244 0
M  V30 2873 O 269.154 1.44592 1.29641 0
M  V30 2874 C 266.284 2.84478 1.99223 0
M  V30 2875 C 265.238 3.95053 1.64672 0
M  V30 2876 C 264.564 4.45805 2.95232 0
M  V30 2877 C 265.864 5.14865 0.878155 0
M  V30 2878 H 267.558 2.98537 0.22713 0
M  V30 2879 H 265.104 1.43596 0.107805 0
M  V30 2880 H 267.057 3.27951 2.64624 0
M  V30 2881 H 265.781 2.04056 2.55007 0
M  V30 2882 H 264.44 3.52228 1.01641 0
M  V30 2883 H 264.088 3.62181 3.49047 0
M  V30 2884 H 263.788 5.204 2.7287 0
M  V30 2885 H 265.312 4.91962 3.6167 0
M  V30 2886 H 266.726 5.55059 1.43466 0
M  V30 2887 H 265.123 5.95348 0.753738 0
M  V30 2888 H 266.193 4.84735 -0.126377 0
M  V30 2889 N 267.536 -0.106894 1.57237 0
M  V30 2890 C 268.764 -0.826389 1.8968 0
M  V30 2891 C 269.179 -1.72856 0.759353 0
M  V30 2892 O 268.536 -1.80503 -0.269263 0
M  V30 2893 C 268.587 -1.64967 3.21665 0
M  V30 2894 O 268.308 -0.783804 4.31031 0
M  V30 2895 C 269.809 -2.47326 3.67892 0
M  V30 2896 H 267.029 -0.236927 0.627779 0
M  V30 2897 H 269.573 -0.0876593 2.04312 0
M  V30 2898 H 267.728 -2.34103 3.08666 0
M  V30 2899 H 268.142 -1.35284 5.06753 0
M  V30 2900 H 269.616 -3.00604 4.6297 0
M  V30 2901 H 270.093 -3.25247 2.95146 0
M  V30 2902 H 270.699 -1.83411 3.83719 0
M  V30 2903 N 269.014 -1.53014 -0.377408 0
M  V30 2904 C 270.26 -1.68872 -1.12294 0
M  V30 2905 C 270.593 -0.433224 -1.89306 0
M  V30 2906 O 269.868 0.569258 -1.85983 0
M  V30 2907 C 270.151 -2.93115 -2.09179 0
M  V30 2908 C 270.004 -4.28794 -1.35853 0
M  V30 2909 C 271.323 -3.12928 -3.09458 0
M  V30 2910 H 268.442 -0.614518 -0.406862 0
M  V30 2911 H 271.084 -1.85633 -0.40503 0
M  V30 2912 H 269.234 -2.78956 -2.70399 0
M  V30 2913 H 270.906 -4.54742 -0.775082 0
M  V30 2914 H 269.149 -4.28744 -0.660364 0
M  V30 2915 H 269.82 -5.11837 -2.06706 0
M  V30 2916 H 272.296 -3.26194 -2.58334 0
M  V30 2917 H 271.172 -4.01316 -3.74482 0
M  V30 2918 H 271.433 -2.27669 -3.78971 0
M  V30 2919 N 270.492 0.636531 -1.44174 0
M  V30 2920 C 271.455 1.73063 -1.50273 0
M  V30 2921 C 272.455 1.56113 -0.385397 0
M  V30 2922 O 273.645 1.61707 -0.64781 0
M  V30 2923 C 270.777 3.12096 -1.37145 0
M  V30 2924 H 271.97 1.69031 -2.47727 0
M  V30 2925 H 269.523 0.849706 -1.31186 0
M  V30 2926 H 270.258 3.21728 -0.407636 0
M  V30 2927 H 270.043 3.25805 -2.18159 0
M  V30 2928 H 271.533 3.91846 -1.44382 0
M  V30 2929 N 271.97 1.30982 0.876444 0
M  V30 2930 C 273.216 1.21484 1.63136 0
M  V30 2931 C 273.571 -0.226339 1.91064 0
M  V30 2932 O 272.864 -1.15788 1.52656 0
M  V30 2933 C 273.058 1.98572 2.9716 0
M  V30 2934 C 272.887 3.50039 2.82317 0
M  V30 2935 C 271.657 4.19393 2.81847 0
M  V30 2936 C 273.855 4.45111 2.57644 0
M  V30 2937 N 271.837 5.57061 2.57985 0
M  V30 2938 C 273.208 5.70402 2.42986 0
M  V30 2939 C 275.263 4.3461 2.42937 0
M  V30 2940 C 273.966 6.8638 2.15115 0
M  V30 2941 C 275.992 5.50365 2.16454 0
M  V30 2942 C 275.354 6.74642 2.02578 0
M  V30 2943 H 271.453 0.499632 0.601575 0
M  V30 2944 H 274.037 1.65094 1.03209 0
M  V30 2945 H 272.208 1.5734 3.55104 0
M  V30 2946 H 273.94 1.81146 3.61895 0
M  V30 2947 H 270.695 3.71303 2.93991 0
M  V30 2948 H 271.119 6.29529 2.49043 0
M  V30 2949 H 275.761 3.39199 2.52396 0
M  V30 2950 H 273.479 7.81824 2.04394 0
M  V30 2951 H 277.065 5.44154 2.05884 0
M  V30 2952 H 275.945 7.62699 1.82374 0
M  V30 2953 N 273.449 -1.08991 1.13837 0
M  V30 2954 C 274.689 -1.82867 0.913183 0
M  V30 2955 C 275.053 -1.83936 -0.550604 0
M  V30 2956 O 276.254 -2.53515 -0.893515 0
M  V30 2957 C 274.525 -3.24843 1.49036 0
M  V30 2958 S 276.084 -4.15669 1.40588 0
M  V30 2959 H 272.902 -0.630278 0.329046 0
M  V30 2960 H 275.504 -1.31049 1.45073 0
M  V30 2961 H 274.208 -3.21644 2.54899 0
M  V30 2962 H 273.739 -3.81734 0.950947 0
M  V30 2963 H 275.754 -4.94686 0.387353 0
M  V30 2964 N 274.927 -0.932562 -1.27047 0
M  V30 2965 C 275.857 -0.452902 -2.29066 0
M  V30 2966 C 276.838 0.489338 -1.62909 0
M  V30 2967 O 278.023 0.393046 -1.90181 0
M  V30 2968 C 275.153 0.290698 -3.46081 0
M  V30 2969 C 274.107 -0.564168 -4.24265 0
M  V30 2970 C 273.433 0.308886 -5.33807 0
M  V30 2971 C 274.733 -1.83112 -4.89149 0
M  V30 2972 H 276.427 -1.30552 -2.69437 0
M  V30 2973 H 273.973 -0.629201 -1.29526 0
M  V30 2974 H 275.926 0.637233 -4.16554 0
M  V30 2975 H 274.65 1.17738 -3.0464 0
M  V30 2976 H 273.309 -0.893477 -3.55545 0
M  V30 2977 H 272.957 1.19467 -4.88607 0
M  V30 2978 H 272.657 -0.259633 -5.87026 0
M  V30 2979 H 274.181 0.650884 -6.07121 0
M  V30 2980 H 275.595 -1.55236 -5.51883 0
M  V30 2981 H 273.992 -2.34353 -5.52448 0
M  V30 2982 H 275.062 -2.54772 -4.12576 0
M  V30 2983 N 276.405 1.4127 -0.698611 0
M  V30 2984 C 277.816 1.84187 -0.305289 0
M  V30 2985 C 278.167 1.58449 1.15708 0
M  V30 2986 O 277.292 1.05651 1.88856 0
M  V30 2987 C 277.887 3.3435 -0.547314 0
M  V30 2988 C 276.446 3.75826 -0.207878 0
M  V30 2989 C 275.593 2.64647 -0.828099 0
M  V30 2990 H 278.544 1.30778 -0.89904 0
M  V30 2991 H 278.565 3.8001 0.192998 0
M  V30 2992 H 278.077 3.53051 -1.61172 0
M  V30 2993 H 276.178 3.62725 0.852143 0
M  V30 2994 H 276.291 4.74462 -0.665021 0
M  V30 2995 H 274.655 2.53395 -0.257458 0
M  V30 2996 H 275.438 2.86165 -1.89643 0
M  V30 2997 N 277.883 0.443576 1.51229 0
M  V30 2998 C 278.83 -0.364716 2.279 0
M  V30 2999 C 279.8 -1.0114 1.31757 0
M  V30 3000 O 280.985 -1.02912 1.60667 0
M  V30 3001 C 278.125 -1.45644 3.12861 0
M  V30 3002 C 277.238 -0.827269 4.24005 0
M  V30 3003 C 276.373 -1.89456 4.96266 0
M  V30 3004 C 275.412 -1.24416 5.99322 0
M  V30 3005 N 274.549 -2.25309 6.64966 0
M  V30 3006 H 279.389 0.295464 2.96532 0
M  V30 3007 H 276.926 0.157554 1.46254 0
M  V30 3008 H 278.884 -2.10076 3.6045 0
M  V30 3009 H 277.514 -2.08616 2.46331 0
M  V30 3010 H 276.566 -0.0710839 3.80334 0
M  V30 3011 H 277.878 -0.312481 4.9782 0
M  V30 3012 H 277.032 -2.61535 5.47434 0
M  V30 3013 H 275.771 -2.4431 4.22095 0
M  V30 3014 H 274.776 -0.508868 5.4744 0
M  V30 3015 H 276.001 -0.702882 6.75453 0
M  V30 3016 H 273.947 -2.79231 5.93604 0
M  V30 3017 H 273.864 -1.78739 7.34567 0
M  V30 3018 H 275.132 -2.96853 7.20763 0
M  V30 3019 N 279.361 -1.56624 0.175154 0
M  V30 3020 C 280.772 -1.83561 -0.340916 0
M  V30 3021 C 281.123 -1.09511 -1.62794 0
M  V30 3022 O 280.248 -0.349389 -2.13561 0
M  V30 3023 C 280.843 -3.32979 -0.625313 0
M  V30 3024 C 279.402 -3.60399 -1.08581 0
M  V30 3025 C 278.549 -2.77024 -0.123722 0
M  V30 3026 H 281.5 -1.53593 0.399344 0
M  V30 3027 H 281.521 -3.50666 -1.47694 0
M  V30 3028 H 281.033 -3.86847 0.311575 0
M  V30 3029 H 279.134 -3.11945 -2.03767 0
M  V30 3030 H 279.247 -4.68711 -0.992317 0
M  V30 3031 H 277.611 -2.46993 -0.621821 0
M  V30 3032 H 278.394 -3.33674 0.807256 0
M  V30 3033 N 280.839 0.0985539 -1.57292 0
M  V30 3034 C 281.769 1.12064 -2.04851 0
M  V30 3035 C 282.75 1.41981 -0.936767 0
M  V30 3036 O 283.935 1.52071 -1.20781 0
M  V30 3037 C 281.065 2.44144 -2.47004 0
M  V30 3038 C 280.019 2.28643 -3.6181 0
M  V30 3039 C 279.345 3.65869 -3.89929 0
M  V30 3040 C 280.645 1.72986 -4.92822 0
M  V30 3041 H 282.339 0.724979 -2.9049 0
M  V30 3042 H 279.885 0.34729 -1.39749 0
M  V30 3043 H 281.838 3.15914 -2.78884 0
M  V30 3044 H 280.562 2.85639 -1.5836 0
M  V30 3045 H 279.221 1.59318 -3.30172 0
M  V30 3046 H 278.869 4.04885 -2.98458 0
M  V30 3047 H 278.569 3.56344 -4.67218 0
M  V30 3048 H 280.093 4.39112 -4.2428 0
M  V30 3049 H 281.507 2.34593 -5.23105 0
M  V30 3050 H 279.904 1.74229 -5.74251 0
M  V30 3051 H 280.974 0.689007 -4.7998 0
M  V30 3052 N 282.317 1.53212 0.369288 0
M  V30 3053 C 283.728 1.60943 0.946276 0
M  V30 3054 C 284.079 0.47452 1.90375 0
M  V30 3055 O 283.204 -0.399597 2.12679 0
M  V30 3056 C 283.799 2.91715 1.72302 0
M  V30 3057 C 282.358 3.01792 2.24941 0
M  V30 3058 C 281.505 2.56211 1.06072 0
M  V30 3059 H 284.456 1.58007 0.148198 0
M  V30 3060 H 284.477 2.79309 2.58393 0
M  V30 3061 H 283.989 3.74295 1.0259 0
M  V30 3062 H 282.09 2.23791 2.97906 0
M  V30 3063 H 282.203 4.06803 2.53077 0
M  V30 3064 H 280.567 2.10998 1.4266 0
M  V30 3065 H 281.35 3.41206 0.378639 0
M  V30 3066 N 283.795 -0.628877 1.44509 0
M  V30 3067 C 284.742 -1.74074 1.51549 0
M  V30 3068 C 285.712 -1.62084 0.363021 0
M  V30 3069 O 286.897 -1.81975 0.573567 0
M  V30 3070 C 284.037 -3.12328 1.46784 0
M  V30 3071 C 283.15 -3.35277 2.72422 0
M  V30 3072 C 282.285 -4.63515 2.59475 0
M  V30 3073 C 281.324 -4.7965 3.80266 0
M  V30 3074 N 280.461 -5.99168 3.65981 0
M  V30 3075 H 285.301 -1.67392 2.46544 0
M  V30 3076 H 282.838 -0.816527 1.22357 0
M  V30 3077 H 284.796 -3.92286 1.42012 0
M  V30 3078 H 283.426 -3.18018 0.553544 0
M  V30 3079 H 282.478 -2.49242 2.87372 0
M  V30 3080 H 283.79 -3.43078 3.62076 0
M  V30 3081 H 282.944 -5.51638 2.52548 0
M  V30 3082 H 281.683 -4.58076 1.67384 0
M  V30 3083 H 280.688 -3.89957 3.87574 0
M  V30 3084 H 281.913 -4.86902 4.73395 0
M  V30 3085 H 279.859 -5.94814 2.76644 0
M  V30 3086 H 279.776 -6.08035 4.49254 0
M  V30 3087 H 281.044 -6.89846 3.6295 0
M  V30 3088 N 285.273 -1.31445 -0.869486 0
M  V30 3089 C 286.521 -1.20918 -1.61936 0
M  V30 3090 C 286.842 0.232683 -1.93607 0
M  V30 3091 O 286.112 1.15352 -1.58338 0
M  V30 3092 H 284.692 -0.44454 -0.600328 0
M  V30 3093 H 287.354 -1.64776 -1.0409 0
M  V30 3094 H 286.45 -1.78124 -2.56278 0
M  V30 3095 N 286.751 1.08385 -1.14413 0
M  V30 3096 C 287.979 1.84517 -0.936001 0
M  V30 3097 C 288.394 1.81626 0.515503 0
M  V30 3098 O 287.751 1.22008 1.35721 0
M  V30 3099 C 287.802 3.32049 -1.42918 0
M  V30 3100 O 287.523 3.34951 -2.82381 0
M  V30 3101 C 289.024 4.24986 -1.26103 0
M  V30 3102 H 286.244 0.582491 -0.333084 0
M  V30 3103 H 288.788 1.36885 -1.5193 0
M  V30 3104 H 286.943 3.7707 -0.888641 0
M  V30 3105 H 287.357 4.27048 -3.04517 0
M  V30 3106 H 288.831 5.26615 -1.6547 0
M  V30 3107 H 289.308 4.38726 -0.20392 0
M  V30 3108 H 289.914 3.85791 -1.79012 0
M  V30 3109 N 288.23 0.939286 1.26551 0
M  V30 3110 C 289.14 0.453432 2.30176 0
M  V30 3111 C 290.156 -0.471649 1.67486 0
M  V30 3112 O 291.332 -0.35164 1.98306 0
M  V30 3113 C 288.397 -0.275326 3.45605 0
M  V30 3114 C 287.458 0.686084 4.23782 0
M  V30 3115 C 286.691 -0.00798994 5.33699 0
M  V30 3116 O 286.914 -1.22528 5.57085 0
M  V30 3117 O 285.848 0.669746 5.98162 0
M  V30 3118 H 289.674 1.31416 2.73795 0
M  V30 3119 H 287.259 0.705095 1.31715 0
M  V30 3120 H 289.141 -0.685911 4.1578 0
M  V30 3121 H 287.816 -1.11147 3.0402 0
M  V30 3122 H 286.723 1.14658 3.56096 0
M  V30 3123 H 288.056 1.48979 4.69112 0
M  V30 3124 N 289.708 -1.40897 0.706093 0
M  V30 3125 C 290.985 -1.94868 0.169099 0
M  V30 3126 C 291.365 -1.64485 -1.32318 0
M  V30 3127 O 290.713 -0.95744 -2.07474 0
M  V30 3128 C 290.923 -3.45798 0.471654 0
M  V30 3129 C 292.271 -4.22663 0.405127 0
M  V30 3130 O 293.295 -3.53865 0.407168 0
M  V30 3131 O 292.154 -5.45216 0.374383 0
M  V30 3132 H 289.248 -0.82673 0.0211352 0
M  V30 3133 H 291.794 -1.50558 0.782976 0
M  V30 3134 H 290.566 -3.61235 1.50416 0
M  V30 3135 H 290.189 -3.97225 -0.172666 0
M  V30 3136 N 291.186 -0.45159 -1.50991 0
M  V30 3137 C 292.134 0.366864 -2.29689 0
M  V30 3138 C 293.128 1.00809 -1.36139 0
M  V30 3139 O 294.334 0.941427 -1.53418 0
M  V30 3140 H 290.709 0.137133 -0.739391 0
M  V30 3141 H 292.68 -0.317538 -2.96706 0
M  V30 3142 C 291.429 1.44751 -3.16137 0
M  V30 3143 H 290.752 0.963473 -3.88017 0
M  V30 3144 H 292.192 1.99315 -3.74232 0
M  V30 3145 C 290.651 2.43869 -2.32442 0
M  V30 3146 O 291.181 3.4872 -1.99392 0
M  V30 3147 N 289.387 2.15105 -1.95392 0
M  V30 3148 H 288.934 1.29866 -2.22469 0
M  V30 3149 H 288.892 2.81661 -1.39693 0
M  V30 3150 N 292.664 1.56529 -0.183458 0
M  V30 3151 C 293.941 1.88959 0.50536 0
M  V30 3152 C 294.321 1.09523 1.80466 0
M  V30 3153 O 293.669 0.19278 2.27685 0
M  V30 3154 C 293.879 3.41162 0.73547 0
M  V30 3155 C 295.227 4.11155 1.06005 0
M  V30 3156 O 296.251 3.46548 0.823594 0
M  V30 3157 O 295.11 5.25318 1.50675 0
M  V30 3158 H 292.204 0.78441 0.261973 0
M  V30 3159 H 294.75 1.68231 -0.222802 0
M  V30 3160 H 293.522 3.90874 -0.182561 0
M  V30 3161 H 293.145 3.67543 1.51651 0
M  V30 3162 N 294.142 -0.090211 1.57342 0
M  V30 3163 C 295.074 -1.13541 1.99101 0
M  V30 3164 C 296.087 -1.3604 0.894258 0
M  V30 3165 O 297.276 -1.34606 1.17233 0
M  V30 3166 C 294.376 -2.49001 2.29895 0
M  V30 3167 C 293.549 -2.46712 3.61182 0
M  V30 3168 C 292.608 -3.64136 3.79857 0
M  V30 3169 O 291.634 -3.46405 4.51655 0
M  V30 3170 N 292.836 -4.83802 3.20806 0
M  V30 3171 H 295.601 -0.779942 2.89373 0
M  V30 3172 H 293.162 -0.279125 1.59476 0
M  V30 3173 H 295.154 -3.26166 2.39578 0
M  V30 3174 H 293.724 -2.76619 1.45605 0
M  V30 3175 H 292.944 -1.55058 3.62423 0
M  V30 3176 H 294.232 -2.42265 4.4742 0
M  V30 3177 H 293.63 -5.01112 2.62494 0
M  V30 3178 H 292.187 -5.58543 3.35966 0
M  V30 3179 N 295.62 -1.53406 -0.361157 0
M  V30 3180 C 297.036 -1.43277 -0.703124 0
M  V30 3181 C 297.236 -0.575384 -1.9311 0
M  V30 3182 O 296.292 -0.0595362 -2.5243 0
M  V30 3183 C 297.605 -2.8653 -0.9122 0
M  V30 3184 C 299.153 -2.96191 -1.01193 0
M  V30 3185 C 299.628 -4.40514 -1.25345 0
M  V30 3186 N 301.119 -4.43962 -1.32105 0
M  V30 3187 C 301.854 -5.52746 -1.5251 0
M  V30 3188 N 301.35 -6.71567 -1.70203 0
M  V30 3189 N 303.143 -5.40331 -1.54916 0
M  V30 3190 H 295.294 -2.07654 0.446475 0
M  V30 3191 H 297.557 -0.937944 0.137715 0
M  V30 3192 H 297.263 -3.51605 -0.0816414 0
M  V30 3193 H 297.137 -3.30441 -1.81903 0
M  V30 3194 H 299.524 -2.31266 -1.83303 0
M  V30 3195 H 299.605 -2.55667 -0.0823929 0
M  V30 3196 H 299.249 -5.06014 -0.437346 0
M  V30 3197 H 299.179 -4.78614 -2.19627 0
M  V30 3198 H 301.67 -3.58332 -1.20028 0
M  V30 3199 H 301.983 -7.50241 -1.85359 0
M  V30 3200 H 300.328 -6.74545 -1.67373 0
M  V30 3201 H 303.519 -4.46465 -1.40663 0
M  V30 3202 H 303.692 -6.25173 -1.70477 0
M  V30 3203 N 297.098 0.621204 -1.44841 0
M  V30 3204 C 298.061 1.71459 -1.521 0
M  V30 3205 C 299.061 1.55696 -0.401933 0
M  V30 3206 O 300.251 1.61011 -0.664925 0
M  V30 3207 C 297.383 3.10624 -1.40447 0
M  V30 3208 H 298.576 1.66394 -2.49506 0
M  V30 3209 H 296.129 0.835745 -1.3208 0
M  V30 3210 H 296.864 3.21277 -0.441737 0
M  V30 3211 H 296.649 3.23473 -2.21602 0
M  V30 3212 H 298.139 3.90293 -1.4853 0
M  V30 3213 N 298.576 1.31904 0.862503 0
M  V30 3214 C 299.804 1.24998 1.64873 0
M  V30 3215 C 300.219 -0.183425 1.87907 0
M  V30 3216 O 299.576 -1.11794 1.44251 0
M  V30 3217 C 299.627 1.99829 3.01248 0
M  V30 3218 O 299.348 3.37575 2.79239 0
M  V30 3219 C 300.849 1.99852 3.95694 0
M  V30 3220 H 298.069 0.431599 0.513773 0
M  V30 3221 H 300.613 1.73901 1.07604 0
M  V30 3222 H 298.768 1.54668 3.55185 0
M  V30 3223 H 299.182 3.75776 3.65914 0
M  V30 3224 H 300.656 2.56709 4.88676 0
M  V30 3225 H 301.133 0.982852 4.28062 0
M  V30 3226 H 301.739 2.44926 3.47694 0
M  V30 3227 N 300.054 -1.07777 1.14986 0
M  V30 3228 C 301.303 -1.79669 0.916617 0
M  V30 3229 C 301.616 -1.87474 -0.557917 0
M  V30 3230 O 302.822 -2.55845 -0.908617 0
M  V30 3231 C 301.278 -3.22848 1.59051 0
M  V30 3232 C 300.886 -3.23257 3.10176 0
M  V30 3233 C 302.63 -3.99379 1.43864 0
M  V30 3234 C 300.537 -4.61063 3.70372 0
M  V30 3235 H 299.467 -0.673349 0.33929 0
M  V30 3236 H 302.118 -1.21003 1.37951 0
M  V30 3237 H 300.5 -3.8168 1.0553 0
M  V30 3238 H 301.674 -2.74095 3.70417 0
M  V30 3239 H 299.989 -2.60222 3.25074 0
M  V30 3240 H 302.586 -5.0122 1.86232 0
M  V30 3241 H 302.929 -4.14511 0.385564 0
M  V30 3242 H 303.462 -3.47032 1.94457 0
M  V30 3243 H 300.201 -4.51135 4.7556 0
M  V30 3244 H 299.721 -5.1048 3.14913 0
M  V30 3245 H 301.4 -5.30034 3.71043 0
M  V30 3246 N 301.532 -0.945985 -1.26051 0
M  V30 3247 C 302.943 -0.638096 -1.75457 0
M  V30 3248 C 303.294 0.846672 -1.76991 0
M  V30 3249 O 302.419 1.66262 -1.38513 0
M  V30 3250 C 303.014 -1.15157 -3.18629 0
M  V30 3251 C 301.573 -0.894004 -3.65629 0
M  V30 3252 C 300.72 -1.29967 -2.44957 0
M  V30 3253 H 303.671 -1.12376 -1.1206 0
M  V30 3254 H 303.692 -0.507615 -3.77099 0
M  V30 3255 H 303.204 -2.23222 -3.1748 0
M  V30 3256 H 301.305 0.172057 -3.72203 0
M  V30 3257 H 301.418 -1.52439 -4.54202 0
M  V30 3258 H 299.782 -0.718078 -2.44368 0
M  V30 3259 H 300.565 -2.38935 -2.46505 0
M  V30 3260 N 303.011 1.40521 -0.713556 0
M  V30 3261 C 304.236 2.05759 -0.26035 0
M  V30 3262 C 304.661 1.53403 1.08854 0
M  V30 3263 O 304.019 0.668535 1.68524 0
M  V30 3264 C 304.067 3.59745 -0.248122 0
M  V30 3265 O 303.171 4.05123 0.77131 0
M  V30 3266 H 302.512 0.652564 -0.122703 0
M  V30 3267 H 305.042 1.79958 -0.973467 0
M  V30 3268 H 305.052 4.07911 -0.0851129 0
M  V30 3269 H 303.727 3.97218 -1.2325 0
M  V30 3270 H 302.304 3.68422 0.57619 0
M  V30 3271 N 304.489 0.459591 1.5075 0
M  V30 3272 C 305.419 -0.330644 2.31147 0
M  V30 3273 C 306.4 -1.00087 1.37538 0
M  V30 3274 O 307.585 -1.00025 1.66459 0
M  V30 3275 C 304.715 -1.41958 3.16962 0
M  V30 3276 C 303.669 -0.871608 4.19031 0
M  V30 3277 C 302.995 -2.05797 4.9351 0
M  V30 3278 C 304.295 0.109251 5.22186 0
M  V30 3279 H 305.989 0.340336 2.97459 0
M  V30 3280 H 303.535 0.165119 1.4305 0
M  V30 3281 H 305.488 -1.9798 3.71997 0
M  V30 3282 H 304.212 -2.11917 2.48513 0
M  V30 3283 H 302.871 -0.333442 3.6508 0
M  V30 3284 H 302.519 -2.74427 4.21544 0
M  V30 3285 H 302.219 -1.6976 5.62544 0
M  V30 3286 H 303.743 -2.62331 5.51375 0
M  V30 3287 H 305.157 -0.361405 5.7216 0
M  V30 3288 H 303.554 0.383316 5.98875 0
M  V30 3289 H 304.624 1.03887 4.73641 0
M  V30 3290 N 305.967 -1.56429 0.191757 0
M  V30 3291 C 307.192 -2.02309 -0.456706 0
M  V30 3292 C 307.617 -1.07103 -1.5463 0
M  V30 3293 O 306.975 -0.0539677 -1.8122 0
M  V30 3294 C 307.023 -3.46654 -0.993159 0
M  V30 3295 O 306.127 -3.54559 -2.10622 0
M  V30 3296 H 305.468 -0.655303 -0.107114 0
M  V30 3297 H 307.998 -2.02364 0.301653 0
M  V30 3298 H 308.008 -3.86377 -1.31061 0
M  V30 3299 H 306.683 -4.1544 -0.195504 0
M  V30 3300 H 305.26 -3.26708 -1.79767 0
M  V30 3301 N 307.445 0.0818655 -1.57387 0
M  V30 3302 C 308.408 1.08265 -2.02018 0
M  V30 3303 C 309.408 1.32183 -0.915664 0
M  V30 3304 O 310.598 1.28073 -1.18081 0
M  V30 3305 C 307.73 2.42871 -2.39221 0
M  V30 3306 H 308.923 0.698204 -2.91659 0
M  V30 3307 H 306.476 0.327303 -1.52835 0
M  V30 3308 H 307.211 2.86167 -1.52575 0
M  V30 3309 H 306.996 2.26855 -3.19811 0
M  V30 3310 H 308.486 3.14826 -2.74362 0
M  V30 3311 N 308.923 1.53595 0.353017 0
M  V30 3312 C 309.856 1.7572 1.45594 0
M  V30 3313 C 310.834 0.605961 1.50887 0
M  V30 3314 O 312.018 0.840023 1.68748 0
M  V30 3315 C 309.145 1.84732 2.83887 0
M  V30 3316 C 308.191 3.06808 2.96262 0
M  V30 3317 S 309.024 4.66065 2.63711 0
M  V30 3318 C 310.18 4.77943 4.04131 0
M  V30 3319 H 310.413 2.68994 1.26608 0
M  V30 3320 H 307.946 1.44343 0.548117 0
M  V30 3321 H 309.904 1.9061 3.63563 0
M  V30 3322 H 308.565 0.92488 3.00175 0
M  V30 3323 H 307.758 3.09761 3.97573 0
M  V30 3324 H 307.36 2.99108 2.24523 0
M  V30 3325 H 309.652 4.5877 4.98534 0
M  V30 3326 H 310.595 5.80022 4.06177 0
M  V30 3327 H 311.003 4.06472 3.91715 0
M  V30 3328 N 310.401 -0.613514 1.45168 0
M  V30 3329 C 311.331 -1.7354 1.56225 0
M  V30 3330 C 312.312 -1.64981 0.41414 0
M  V30 3331 O 313.497 -1.83472 0.636526 0
M  V30 3332 C 310.627 -3.12128 1.52295 0
M  V30 3333 C 309.581 -3.35491 2.65762 0
M  V30 3334 C 308.907 -4.74291 2.46885 0
M  V30 3335 C 310.207 -3.26325 4.0781 0
M  V30 3336 H 311.901 -1.64543 2.50132 0
M  V30 3337 H 309.447 -0.790185 1.20383 0
M  V30 3338 H 311.4 -3.90404 1.58628 0
M  V30 3339 H 310.124 -3.2195 0.549139 0
M  V30 3340 H 308.783 -2.59603 2.58847 0
M  V30 3341 H 308.431 -4.80839 1.47657 0
M  V30 3342 H 308.131 -4.9088 3.22972 0
M  V30 3343 H 309.655 -5.54775 2.55063 0
M  V30 3344 H 311.069 -3.94483 4.16 0
M  V30 3345 H 309.466 -3.54445 4.8424 0
M  V30 3346 H 310.536 -2.23855 4.30136 0
M  V30 3347 N 311.879 -1.3236 -0.855495 0
M  V30 3348 C 313.127 -1.22629 -1.60644 0
M  V30 3349 C 313.448 0.212136 -1.93843 0
M  V30 3350 O 312.718 1.13666 -1.59552 0
M  V30 3351 H 311.298 -0.450882 -0.595579 0
M  V30 3352 H 313.96 -1.65871 -1.02337 0
M  V30 3353 H 313.056 -1.80832 -2.54374 0
M  V30 3354 N 313.357 1.07166 -1.15556 0
M  V30 3355 C 314.32 2.12589 -0.856644 0
M  V30 3356 C 315.32 1.6015 0.14444 0
M  V30 3357 O 316.51 1.7399 -0.0854163 0
M  V30 3358 C 313.642 3.39753 -0.279405 0
M  V30 3359 H 314.835 2.40539 -1.79112 0
M  V30 3360 H 312.388 1.23086 -0.963298 0
M  V30 3361 H 313.123 3.17447 0.663174 0
M  V30 3362 H 312.908 3.79117 -1.00063 0
M  V30 3363 H 314.398 4.17507 -0.0879113 0
M  V30 3364 N 314.835 0.952656 1.25548 0
M  V30 3365 C 315.765 0.489287 2.28316 0
M  V30 3366 C 316.746 -0.463359 1.63667 0
M  V30 3367 O 317.931 -0.36274 1.90782 0
M  V30 3368 C 315.061 -0.235603 3.465 0
M  V30 3369 C 314.015 0.631593 4.23314 0
M  V30 3370 C 313.341 -0.223923 5.34231 0
M  V30 3371 C 314.641 1.90871 4.86174 0
M  V30 3372 H 316.335 1.34822 2.67326 0
M  V30 3373 H 313.881 0.649728 1.28509 0
M  V30 3374 H 315.834 -0.570882 4.17515 0
M  V30 3375 H 314.558 -1.12877 3.06474 0
M  V30 3376 H 313.217 0.949929 3.54079 0
M  V30 3377 H 312.865 -1.11678 4.90446 0
M  V30 3378 H 312.565 0.35299 5.86539 0
M  V30 3379 H 314.089 -0.554214 6.0808 0
M  V30 3380 H 315.503 1.63997 5.49343 0
M  V30 3381 H 313.9 2.43112 5.4865 0
M  V30 3382 H 314.97 2.61304 4.08471 0
M  V30 3383 N 316.313 -1.40141 0.720998 0
M  V30 3384 C 317.56 -2.00787 0.262842 0
M  V30 3385 C 317.888 -1.5718 -1.14563 0
M  V30 3386 O 317.143 -0.785391 -1.79249 0
M  V30 3387 C 317.442 -3.56165 0.296892 0
M  V30 3388 C 317.108 -4.19373 1.65641 0
M  V30 3389 C 315.77 -4.36352 2.02855 0
M  V30 3390 C 318.122 -4.54578 2.54968 0
M  V30 3391 C 315.45 -4.8582 3.28931 0
M  V30 3392 C 317.802 -5.05447 3.80402 0
M  V30 3393 C 316.466 -5.20635 4.17726 0
M  V30 3394 H 315.736 -0.734731 0.0961807 0
M  V30 3395 H 318.383 -1.67673 0.925093 0
M  V30 3396 H 316.688 -3.8922 -0.448932 0
M  V30 3397 H 318.385 -4.00929 -0.0755208 0
M  V30 3398 H 314.975 -4.06549 1.35704 0
M  V30 3399 H 319.159 -4.41091 2.27491 0
M  V30 3400 H 314.415 -4.95764 3.57811 0
M  V30 3401 H 318.589 -5.31663 4.49786 0
M  V30 3402 H 316.216 -5.58728 5.15487 0
M  V30 3403 N 317.792 -0.46758 -1.50504 0
M  V30 3404 C 318.722 0.318381 -2.31319 0
M  V30 3405 C 319.703 0.993564 -1.38066 0
M  V30 3406 O 320.888 0.991411 -1.66987 0
M  V30 3407 C 318.018 1.40275 -3.17711 0
M  V30 3408 C 316.972 0.849373 -4.19487 0
M  V30 3409 C 316.298 2.03177 -4.94594 0
M  V30 3410 C 317.598 -0.136942 -5.2212 0
M  V30 3411 H 319.292 -0.356106 -2.97275 0
M  V30 3412 H 316.838 -0.172703 -1.42961 0
M  V30 3413 H 318.791 1.96004 -3.73042 0
M  V30 3414 H 317.515 2.10596 -2.49634 0
M  V30 3415 H 316.174 0.314076 -3.65252 0
M  V30 3416 H 315.822 2.72187 -4.22993 0
M  V30 3417 H 315.522 1.66774 -5.63436 0
M  V30 3418 H 317.046 2.59403 -5.52759 0
M  V30 3419 H 318.46 0.331056 -5.72343 0
M  V30 3420 H 316.857 -0.41507 -5.98663 0
M  V30 3421 H 317.927 -1.06398 -4.73083 0
M  V30 3422 N 319.27 1.56325 -0.20005 0
M  V30 3423 C 320.516 1.98772 0.431408 0
M  V30 3424 C 320.871 1.0849 1.58895 0
M  V30 3425 O 320.164 0.130331 1.91156 0
M  V30 3426 C 320.358 3.4495 0.935103 0
M  V30 3427 C 320.187 4.49371 -0.172096 0
M  V30 3428 C 318.957 5.0134 -0.631377 0
M  V30 3429 C 321.155 5.04822 -0.982806 0
M  V30 3430 N 319.137 5.89433 -1.71588 0
M  V30 3431 C 320.508 5.89632 -1.91661 0
M  V30 3432 C 322.563 4.87242 -1.02467 0
M  V30 3433 C 321.266 6.58741 -2.88881 0
M  V30 3434 C 323.292 5.57094 -1.98494 0
M  V30 3435 C 322.654 6.41655 -2.90617 0
M  V30 3436 H 318.753 0.771922 0.125144 0
M  V30 3437 H 321.337 1.92266 -0.306883 0
M  V30 3438 H 319.508 3.51946 1.64282 0
M  V30 3439 H 321.24 3.74354 1.53758 0
M  V30 3440 H 317.995 4.73071 -0.223827 0
M  V30 3441 H 318.419 6.38182 -2.25948 0
M  V30 3442 H 323.061 4.21538 -0.326408 0
M  V30 3443 H 320.779 7.23641 -3.5968 0
M  V30 3444 H 324.365 5.45466 -2.0238 0
M  V30 3445 H 323.245 6.94755 -3.63711 0
M  V30 3446 N 320.748 -0.0735177 1.57428 0
M  V30 3447 C 321.681 -1.11932 1.98863 0
M  V30 3448 C 322.659 -1.37666 0.865266 0
M  V30 3449 O 323.843 -1.51068 1.12742 0
M  V30 3450 C 320.97 -2.46403 2.32386 0
M  V30 3451 C 320.016 -2.36815 3.54713 0
M  V30 3452 S 320.849 -1.76392 5.05614 0
M  V30 3453 C 322.005 -3.12444 5.42337 0
M  V30 3454 H 322.238 -0.766212 2.87257 0
M  V30 3455 H 319.771 -0.281987 1.51803 0
M  V30 3456 H 321.729 -3.23755 2.52375 0
M  V30 3457 H 320.39 -2.78876 1.44524 0
M  V30 3458 H 319.583 -3.35977 3.7568 0
M  V30 3459 H 319.185 -1.67598 3.34345 0
M  V30 3460 H 321.477 -4.08753 5.40303 0
M  V30 3461 H 322.42 -2.96258 6.43146 0
M  V30 3462 H 322.828 -3.1297 4.69798 0
M  V30 3463 N 322.226 -1.5378 -0.344866 0
M  V30 3464 C 323.473 -1.70963 -1.08526 0
M  V30 3465 C 323.801 -0.472126 -1.88683 0
M  V30 3466 O 323.056 0.546116 -1.87926 0
M  V30 3467 C 323.355 -2.92407 -2.05506 0
M  V30 3468 C 323.021 -4.28066 -1.41671 0
M  V30 3469 C 321.683 -4.64951 -1.2399 0
M  V30 3470 C 324.035 -5.12344 -0.956726 0
M  V30 3471 C 321.363 -5.83733 -0.589277 0
M  V30 3472 C 323.715 -6.3179 -0.320015 0
M  V30 3473 C 322.379 -6.67372 -0.130881 0
M  V30 3474 H 321.649 -0.625598 -0.397124 0
M  V30 3475 H 324.296 -1.87995 -0.36469 0
M  V30 3476 H 322.601 -2.69973 -2.8394 0
M  V30 3477 H 324.298 -3.02895 -2.62784 0
M  V30 3478 H 320.888 -3.99034 -1.56429 0
M  V30 3479 H 325.072 -4.8438 -1.08118 0
M  V30 3480 H 320.328 -6.09877 -0.431344 0
M  V30 3481 H 324.502 -6.96386 0.0445072 0
M  V30 3482 H 322.129 -7.59273 0.375318 0
M  V30 3483 N 323.704 0.605807 -1.45491 0
M  V30 3484 C 324.95 1.36481 -1.50813 0
M  V30 3485 C 325.305 1.91826 -0.148469 0
M  V30 3486 O 324.598 1.72211 0.839869 0
M  V30 3487 C 324.792 2.53012 -2.52428 0
M  V30 3488 C 324.621 2.09078 -3.98141 0
M  V30 3489 C 323.391 1.95167 -4.66088 0
M  V30 3490 C 325.589 1.66438 -4.86624 0
M  V30 3491 N 323.571 1.45062 -5.96515 0
M  V30 3492 C 324.942 1.27761 -6.06694 0
M  V30 3493 C 326.997 1.54046 -4.7347 0
M  V30 3494 C 325.7 0.779286 -7.15066 0
M  V30 3495 C 327.726 1.05618 -5.81892 0
M  V30 3496 C 327.088 0.67906 -7.01119 0
M  V30 3497 H 323.187 0.493267 -0.606805 0
M  V30 3498 H 325.771 0.692347 -1.81974 0
M  V30 3499 H 323.942 3.17851 -2.23215 0
M  V30 3500 H 325.674 3.19897 -2.47887 0
M  V30 3501 H 322.429 2.16407 -4.21266 0
M  V30 3502 H 322.853 1.22237 -6.65873 0
M  V30 3503 H 327.495 1.81827 -3.81705 0
M  V30 3504 H 325.213 0.489026 -8.06619 0
M  V30 3505 H 328.799 0.964529 -5.73749 0
M  V30 3506 H 327.679 0.310091 -7.83587 0
M  V30 3507 N 325.182 1.32811 0.848464 0
M  V30 3508 C 326.593 1.21315 1.41914 0
M  V30 3509 C 326.944 -0.171847 1.95446 0
M  V30 3510 O 326.069 -1.07093 1.88043 0
M  V30 3511 C 326.664 2.19631 2.57968 0
M  V30 3512 C 325.223 2.12003 3.11017 0
M  V30 3513 C 324.37 2.07651 1.83783 0
M  V30 3514 H 327.321 1.44549 0.655071 0
M  V30 3515 H 327.342 1.79845 3.35315 0
M  V30 3516 H 326.854 3.20423 2.18976 0
M  V30 3517 H 324.955 1.14481 3.54577 0
M  V30 3518 H 325.068 3.02111 3.71841 0
M  V30 3519 H 323.432 1.52983 2.03638 0
M  V30 3520 H 324.215 3.10235 1.47 0
M  V30 3521 N 326.66 -1.06551 1.16123 0
M  V30 3522 C 327.885 -1.83544 0.965735 0
M  V30 3523 C 328.31 -1.81843 -0.481102 0
M  V30 3524 O 327.668 -1.21732 -1.34354 0
M  V30 3525 C 327.716 -3.28169 1.49457 0
M  V30 3526 O 326.82 -4.0643 0.699157 0
M  V30 3527 H 326.161 -0.568026 0.343864 0
M  V30 3528 H 328.691 -1.34362 1.54299 0
M  V30 3529 H 328.701 -3.78992 1.51092 0
M  V30 3530 H 327.376 -3.28722 2.54784 0
M  V30 3531 H 325.953 -3.65216 0.7531 0
M  V30 3532 N 328.138 -0.959301 -1.25041 0
M  V30 3533 C 329.385 -0.616611 -1.92884 0
M  V30 3534 C 329.713 0.847036 -1.75087 0
M  V30 3535 O 328.968 1.62374 -1.09239 0
M  V30 3536 C 329.267 -0.927136 -3.45165 0
M  V30 3537 C 328.933 -2.37757 -3.83122 0
M  V30 3538 C 327.595 -2.77402 -3.93194 0
M  V30 3539 C 329.947 -3.31929 -4.01836 0
M  V30 3540 C 327.275 -4.10277 -4.19392 0
M  V30 3541 C 329.627 -4.64423 -4.29528 0
M  V30 3542 C 328.291 -5.03857 -4.37818 0
M  V30 3543 H 327.561 -0.225634 -0.705812 0
M  V30 3544 H 330.208 -1.20921 -1.48493 0
M  V30 3545 H 328.513 -0.252195 -3.90987 0
M  V30 3546 H 330.21 -0.6405 -3.95852 0
M  V30 3547 H 326.8 -2.06013 -3.75841 0
M  V30 3548 H 330.984 -3.02488 -3.93465 0
M  V30 3549 H 326.24 -4.40467 -4.24027 0
M  V30 3550 H 330.414 -5.37369 -4.42953 0
M  V30 3551 H 328.041 -6.06843 -4.57871 0
M  V30 3552 N 329.616 1.39756 -0.72842 0
M  V30 3553 C 330.564 2.32485 -0.0731849 0
M  V30 3554 C 331.558 1.52717 0.733063 0
M  V30 3555 O 332.764 1.68428 0.634988 0
M  V30 3556 H 329.139 0.751984 -0.00486469 0
M  V30 3557 H 331.11 2.85382 -0.871761 0
M  V30 3558 C 329.859 3.37773 0.824908 0
M  V30 3559 H 329.182 3.99227 0.213915 0
M  V30 3560 H 330.622 4.05121 1.25111 0
M  V30 3561 C 329.081 2.74287 1.95622 0
M  V30 3562 O 329.611 2.61618 3.04826 0
M  V30 3563 N 327.817 2.32475 1.74367 0
M  V30 3564 H 327.364 2.4298 0.855494 0
M  V30 3565 H 327.322 1.90337 2.50238 0
M  V30 3566 N 331.094 0.475555 1.50254 0
M  V30 3567 C 332.319 -0.0777042 2.07254 0
M  V30 3568 C 332.744 -1.3235 1.3366 0
M  V30 3569 O 332.102 -1.77152 0.385597 0
M  V30 3570 C 332.15 -0.340169 3.58992 0
M  V30 3571 O 331.254 -1.41982 3.87188 0
M  V30 3572 H 330.595 0.0149556 0.663832 0
M  V30 3573 H 333.125 0.667878 1.93392 0
M  V30 3574 H 333.135 -0.579332 4.03866 0
M  V30 3575 H 331.81 0.570167 4.11973 0
M  V30 3576 H 330.387 -1.16762 3.54148 0
M  V30 3577 N 332.573 -1.56217 0.208337 0
M  V30 3578 C 333.536 -2.18455 -0.693557 0
M  V30 3579 C 334.536 -1.14268 -1.13135 0
M  V30 3580 O 335.726 -1.39577 -1.0423 0
M  V30 3581 C 332.858 -2.79727 -1.94848 0
M  V30 3582 H 334.051 -2.99519 -0.15114 0
M  V30 3583 H 331.604 -1.56245 -0.041287 0
M  V30 3584 H 332.339 -2.02497 -2.53309 0
M  V30 3585 H 332.124 -3.56009 -1.64316 0
M  V30 3586 H 333.614 -3.27475 -2.59133 0
M  V30 3587 N 334.051 0.0651679 -1.57465 0
M  V30 3588 C 334.981 1.07693 -2.07182 0
M  V30 3589 C 335.962 1.39962 -0.966673 0
M  V30 3590 O 337.147 1.49475 -1.2398 0
M  V30 3591 C 334.277 2.3885 -2.52127 0
M  V30 3592 C 333.231 2.20917 -3.66579 0
M  V30 3593 C 332.557 3.57515 -3.97601 0
M  V30 3594 C 333.857 1.62493 -4.9638 0
M  V30 3595 H 335.551 0.663199 -2.91962 0
M  V30 3596 H 333.097 0.317569 -1.40455 0
M  V30 3597 H 335.05 3.09928 -2.85522 0
M  V30 3598 H 333.774 2.82215 -1.64384 0
M  V30 3599 H 332.433 1.52279 -3.33477 0
M  V30 3600 H 332.081 3.98463 -3.06979 0
M  V30 3601 H 331.781 3.46353 -4.74672 0
M  V30 3602 H 333.305 4.30013 -4.33499 0
M  V30 3603 H 334.719 2.23445 -5.27963 0
M  V30 3604 H 333.116 1.62009 -5.77818 0
M  V30 3605 H 334.186 0.587041 -4.81333 0
M  V30 3606 N 335.529 1.53961 0.336706 0
M  V30 3607 C 336.459 1.85417 1.41925 0
M  V30 3608 C 337.44 0.709856 1.5458 0
M  V30 3609 O 338.625 0.962396 1.68676 0
M  V30 3610 C 335.755 2.06985 2.78881 0
M  V30 3611 C 334.709 3.22813 2.81026 0
M  V30 3612 C 334.035 3.29727 4.20932 0
M  V30 3613 C 335.335 4.60767 2.45949 0
M  V30 3614 H 337.029 2.76079 1.15848 0
M  V30 3615 H 334.575 1.32839 0.555859 0
M  V30 3616 H 336.528 2.27575 3.54665 0
M  V30 3617 H 335.252 1.13061 3.06406 0
M  V30 3618 H 333.911 3.0209 2.07695 0
M  V30 3619 H 333.559 2.33385 4.45579 0
M  V30 3620 H 333.259 4.07566 4.23277 0
M  V30 3621 H 334.783 3.52536 4.98549 0
M  V30 3622 H 336.197 4.81325 3.11446 0
M  V30 3623 H 334.594 5.4106 2.59566 0
M  V30 3624 H 335.664 4.6391 1.41122 0
M  V30 3625 N 337.007 -0.598083 1.45811 0
M  V30 3626 C 338.423 -0.919847 1.30426 0
M  V30 3627 C 338.623 -1.99759 0.264303 0
M  V30 3628 O 337.679 -2.50221 -0.338472 0
M  V30 3629 C 338.992 -1.35176 2.68603 0
M  V30 3630 C 340.54 -1.46546 2.76574 0
M  V30 3631 C 341.015 -1.9311 4.15298 0
M  V30 3632 N 342.506 -2.00328 4.1764 0
M  V30 3633 C 343.241 -2.37599 5.21856 0
M  V30 3634 N 342.737 -2.73771 6.36413 0
M  V30 3635 N 344.53 -2.38021 5.09218 0
M  V30 3636 H 336.681 0.114111 2.12093 0
M  V30 3637 H 338.944 -0.0116121 0.947929 0
M  V30 3638 H 338.65 -0.633969 3.45939 0
M  V30 3639 H 338.524 -2.3164 2.97696 0
M  V30 3640 H 340.911 -2.17415 1.99537 0
M  V30 3641 H 340.992 -0.483727 2.51185 0
M  V30 3642 H 340.636 -1.22824 4.92825 0
M  V30 3643 H 340.566 -2.92213 4.38086 0
M  V30 3644 H 343.057 -1.74925 3.34977 0
M  V30 3645 H 343.37 -3.0112 7.11721 0
M  V30 3646 H 341.715 -2.71445 6.39799 0
M  V30 3647 H 344.906 -2.09174 4.18765 0
M  V30 3648 H 345.079 -2.66741 5.90554 0
M  V30 3649 N 338.485 -1.33259 -0.841409 0
M  V30 3650 C 339.71 -1.2775 -1.63385 0
M  V30 3651 C 340.135 0.149188 -1.87507 0
M  V30 3652 O 339.493 1.10498 -1.43736 0
M  V30 3653 C 339.541 -2.05571 -2.96265 0
M  V30 3654 O 338.645 -1.41257 -3.87453 0
M  V30 3655 H 337.986 -0.439627 -0.497618 0
M  V30 3656 H 340.516 -1.75782 -1.04699 0
M  V30 3657 H 340.526 -2.16241 -3.45982 0
M  V30 3658 H 339.201 -3.09309 -2.7803 0
M  V30 3659 H 337.778 -1.39217 -3.45938 0
M  V30 3660 N 339.963 1.05934 -1.16686 0
M  V30 3661 C 341.374 1.60263 -0.957745 0
M  V30 3662 C 341.725 1.89789 0.49745 0
M  V30 3663 O 340.85 1.67401 1.37135 0
M  V30 3664 C 341.445 2.91172 -1.73218 0
M  V30 3665 C 340.004 3.42188 -1.56794 0
M  V30 3666 C 339.151 2.16028 -1.73859 0
M  V30 3667 H 342.102 0.888392 -1.31504 0
M  V30 3668 H 342.123 3.60744 -1.21014 0
M  V30 3669 H 341.635 2.6965 -2.79124 0
M  V30 3670 H 339.736 3.68762 -0.533437 0
M  V30 3671 H 339.849 4.17273 -2.35414 0
M  V30 3672 H 338.213 2.26426 -1.16633 0
M  V30 3673 H 338.996 1.96985 -2.81161 0
M  V30 3674 N 341.441 0.965919 1.2453 0
M  V30 3675 C 342.69 0.622437 1.91856 0
M  V30 3676 C 343.003 -0.846006 1.76358 0
M  V30 3677 O 344.209 -1.29993 2.38357 0
M  V30 3678 C 342.665 1.0626 3.43856 0
M  V30 3679 C 342.273 2.55437 3.68043 0
M  V30 3680 C 344.017 0.792183 4.17043 0
M  V30 3681 C 341.924 2.93196 5.13605 0
M  V30 3682 H 340.854 0.229092 0.718354 0
M  V30 3683 H 343.505 1.17189 1.41206 0
M  V30 3684 H 341.887 0.441476 3.93531 0
M  V30 3685 H 343.061 3.22665 3.28974 0
M  V30 3686 H 341.376 2.8007 3.08139 0
M  V30 3687 H 343.973 1.05031 5.24283 0
M  V30 3688 H 344.316 -0.271584 4.15413 0
M  V30 3689 H 344.849 1.37419 3.73311 0
M  V30 3690 H 341.588 3.98636 5.20355 0
M  V30 3691 H 341.108 2.30651 5.53679 0
M  V30 3692 H 342.787 2.83004 5.81823 0
M  V30 3693 N 342.919 -1.39368 0.735821 0
M  V30 3694 C 343.829 -2.34395 0.0979693 0
M  V30 3695 C 344.845 -1.58361 -0.720968 0
M  V30 3696 O 346.021 -1.90648 -0.649245 0
M  V30 3697 C 343.086 -3.37393 -0.797916 0
M  V30 3698 C 342.147 -4.29287 0.0333662 0
M  V30 3699 C 341.38 -5.27365 -0.819854 0
M  V30 3700 O 341.603 -5.31959 -2.05855 0
M  V30 3701 O 340.537 -6.01389 -0.248079 0
M  V30 3702 H 344.363 -2.90601 0.882315 0
M  V30 3703 H 341.948 -1.40909 0.4965 0
M  V30 3704 H 343.83 -4.00505 -1.31048 0
M  V30 3705 H 342.505 -2.83571 -1.56106 0
M  V30 3706 H 341.412 -3.69395 0.591475 0
M  V30 3707 H 342.745 -4.86317 0.758752 0
M  V30 3708 N 344.397 -0.483516 -1.5 0
M  V30 3709 C 345.813 -0.138404 -1.58999 0
M  V30 3710 C 346.013 1.35597 -1.4905 0
M  V30 3711 O 345.069 2.13039 -1.35539 0
M  V30 3712 C 346.382 -0.699658 -2.92447 0
M  V30 3713 C 347.93 -0.664195 -3.05872 0
M  V30 3714 C 348.405 -1.20321 -4.41913 0
M  V30 3715 N 349.896 -1.16315 -4.48358 0
M  V30 3716 C 350.631 -1.55058 -5.52037 0
M  V30 3717 N 350.127 -2.01311 -6.62907 0
M  V30 3718 N 351.92 -1.46584 -5.42651 0
M  V30 3719 H 344.071 -1.45529 -1.5471 0
M  V30 3720 H 346.334 -0.60258 -0.731848 0
M  V30 3721 H 346.04 -1.747 -3.05242 0
M  V30 3722 H 345.914 -0.150194 -3.76901 0
M  V30 3723 H 348.301 0.374272 -2.92717 0
M  V30 3724 H 348.382 -1.25061 -2.23144 0
M  V30 3725 H 348.026 -2.24037 -4.55818 0
M  V30 3726 H 347.956 -0.592896 -5.23252 0
M  V30 3727 H 350.447 -0.824058 -3.68806 0
M  V30 3728 H 350.76 -2.2899 -7.38095 0
M  V30 3729 H 349.105 -2.05273 -6.63994 0
M  V30 3730 H 352.296 -1.10281 -4.54924 0
M  V30 3731 H 352.469 -1.77103 -6.23329 0
M  V30 3732 N 345.875 1.56104 -0.216619 0
M  V30 3733 C 346.822 2.2007 0.695531 0
M  V30 3734 C 347.792 1.15471 1.19397 0
M  V30 3735 O 348.977 1.43807 1.25396 0
M  V30 3736 C 346.117 2.88073 1.90021 0
M  V30 3737 C 345.23 4.07253 1.44113 0
M  V30 3738 C 344.365 4.63052 2.603 0
M  V30 3739 C 343.404 5.74545 2.11103 0
M  V30 3740 N 342.541 6.24656 3.20545 0
M  V30 3741 H 347.381 2.97655 0.143327 0
M  V30 3742 H 344.918 1.46982 0.0589934 0
M  V30 3743 H 346.876 3.25681 2.60745 0
M  V30 3744 H 345.506 2.13015 2.42538 0
M  V30 3745 H 344.558 3.75164 0.628999 0
M  V30 3746 H 345.87 4.8783 1.04036 0
M  V30 3747 H 345.024 5.03078 3.39113 0
M  V30 3748 H 343.763 3.81628 3.03663 0
M  V30 3749 H 342.768 5.34027 1.3075 0
M  V30 3750 H 343.993 6.57801 1.68746 0
M  V30 3751 H 341.939 5.46148 3.63399 0
M  V30 3752 H 341.856 7.00343 2.84704 0
M  V30 3753 H 343.124 6.69338 3.99508 0
M  V30 3754 N 347.353 -0.0568162 1.57498 0
M  V30 3755 C 348.301 -1.08452 2.05769 0
M  V30 3756 C 349.295 -1.39164 0.965903 0
M  V30 3757 O 350.501 -1.38395 1.15095 0
M  V30 3758 H 346.876 -0.367148 0.656282 0
M  V30 3759 H 348.847 -0.651368 2.91204 0
M  V30 3760 C 347.596 -2.38543 2.52968 0
M  V30 3761 H 346.919 -2.15765 3.36579 0
M  V30 3762 H 348.359 -3.08863 2.90481 0
M  V30 3763 C 346.818 -3.05562 1.41893 0
M  V30 3764 O 347.348 -3.94262 0.769442 0
M  V30 3765 N 345.554 -2.6643 1.16032 0
M  V30 3766 H 345.101 -1.94387 1.6903 0
M  V30 3767 H 345.059 -3.11593 0.419219 0
M  V30 3768 N 348.832 -1.54138 -0.328536 0
M  V30 3769 C 349.795 -1.82462 -1.38709 0
M  V30 3770 C 350.795 -0.696229 -1.44946 0
M  V30 3771 O 351.985 -0.964535 -1.4506 0
M  V30 3772 C 349.117 -1.98018 -2.77492 0
M  V30 3773 H 350.31 -2.77037 -1.14851 0
M  V30 3774 H 347.863 -1.45779 -0.563751 0
M  V30 3775 H 348.598 -1.05637 -3.06613 0
M  V30 3776 H 348.383 -2.80124 -2.74359 0
M  V30 3777 H 349.873 -2.21396 -3.54081 0
M  V30 3778 N 350.31 0.590341 -1.46126 0
M  V30 3779 C 351.556 1.35082 -1.51264 0
M  V30 3780 C 351.889 1.93534 -0.160711 0
M  V30 3781 O 351.164 1.76045 0.826956 0
M  V30 3782 C 351.447 2.48588 -2.6053 0
M  V30 3783 C 351.3 1.95221 -4.05227 0
M  V30 3784 C 352.619 3.50662 -2.6594 0
M  V30 3785 H 349.738 0.489803 -0.550692 0
M  V30 3786 H 352.38 0.663887 -1.78024 0
M  V30 3787 H 350.53 3.07186 -2.37843 0
M  V30 3788 H 352.202 1.41139 -4.39178 0
M  V30 3789 H 350.445 1.26101 -4.15068 0
M  V30 3790 H 351.116 2.77121 -4.77397 0
M  V30 3791 H 353.592 3.01934 -2.86313 0
M  V30 3792 H 352.468 4.27551 -3.44226 0
M  V30 3793 H 352.729 4.07399 -1.71694 0
M  V30 3794 N 351.788 1.33704 0.83433 0
M  V30 3795 C 353.035 1.25417 1.58987 0
M  V30 3796 C 353.363 -0.178869 1.93676 0
M  V30 3797 O 352.618 -1.13723 1.59265 0
M  V30 3798 C 352.917 2.07926 2.90692 0
M  V30 3799 C 352.583 3.57066 2.75345 0
M  V30 3800 C 351.245 3.97724 2.70867 0
M  V30 3801 C 353.597 4.51817 2.59828 0
M  V30 3802 C 350.925 5.31344 2.48778 0
M  V30 3803 C 353.277 5.85604 2.39272 0
M  V30 3804 C 351.941 6.25439 2.33199 0
M  V30 3805 H 351.211 0.458934 0.581774 0
M  V30 3806 H 353.858 1.65335 0.966261 0
M  V30 3807 H 352.163 1.608 3.57282 0
M  V30 3808 H 353.86 1.98868 3.48213 0
M  V30 3809 H 350.45 3.24785 2.79665 0
M  V30 3810 H 354.634 4.21311 2.62319 0
M  V30 3811 H 349.89 5.61241 2.42526 0
M  V30 3812 H 354.064 6.58623 2.2625 0
M  V30 3813 H 351.691 7.28914 2.15843 0
M  V30 3814 N 353.266 -1.05314 1.17247 0
M  V30 3815 C 354.214 -2.15137 0.884238 0
M  V30 3816 C 355.208 -1.68729 -0.15063 0
M  V30 3817 O 356.414 -1.8 -0.00366673 0
M  V30 3818 H 352.789 -0.702471 0.2684 0
M  V30 3819 H 354.76 -2.36652 1.81764 0
M  V30 3820 C 353.509 -3.45243 0.412659 0
M  V30 3821 H 352.832 -3.81352 1.20043 0
M  V30 3822 H 354.272 -4.23263 0.249858 0
M  V30 3823 C 352.731 -3.25487 -0.86948 0
M  V30 3824 O 353.261 -3.51938 -1.93655 0
M  V30 3825 N 351.467 -2.78875 -0.817147 0
M  V30 3826 H 351.014 -2.57549 0.0514211 0
M  V30 3827 H 350.972 -2.66036 -1.67547 0
M  V30 3828 N 354.744 -0.972509 -1.24016 0
M  V30 3829 C 355.972 -0.654803 -1.96265 0
M  V30 3830 C 356.387 0.776708 -1.72083 0
M  V30 3831 O 355.744 1.52171 -1.00748 0
M  V30 3832 C 355.795 -0.92592 -3.49441 0
M  V30 3833 O 355.516 -2.30116 -3.72798 0
M  V30 3834 C 357.017 -0.623068 -4.38899 0
M  V30 3835 H 354.237 -0.243907 -0.6251 0
M  V30 3836 H 356.781 -1.30175 -1.57717 0
M  V30 3837 H 354.936 -0.325108 -3.86033 0
M  V30 3838 H 355.35 -2.38483 -4.67147 0
M  V30 3839 H 356.824 -0.863189 -5.45209 0
M  V30 3840 H 357.301 0.442754 -4.36963 0
M  V30 3841 H 357.907 -1.204 -4.07902 0
M  V30 3842 N 356.222 1.38976 -0.743202 0
M  V30 3843 C 357.452 2.04339 -0.304807 0
M  V30 3844 C 357.86 1.56162 1.06819 0
M  V30 3845 O 357.203 0.725284 1.68776 0
M  V30 3846 C 357.265 3.58716 -0.237369 0
M  V30 3847 C 356.929 4.29905 -1.55018 0
M  V30 3848 C 357.926 4.55987 -2.49744 0
M  V30 3849 C 355.611 4.68294 -1.81675 0
M  V30 3850 C 357.605 5.19478 -3.69353 0
M  V30 3851 C 355.292 5.31512 -3.0156 0
M  V30 3852 C 356.29 5.57037 -3.9522 0
M  V30 3853 O 355.978 6.18941 -5.12998 0
M  V30 3854 H 355.71 0.663439 -0.12971 0
M  V30 3855 H 358.264 1.78852 -1.01001 0
M  V30 3856 H 356.494 3.83133 0.524003 0
M  V30 3857 H 358.183 4.05543 0.170121 0
M  V30 3858 H 358.949 4.26767 -2.30423 0
M  V30 3859 H 354.828 4.47779 -1.09615 0
M  V30 3860 H 358.372 5.39318 -4.42473 0
M  V30 3861 H 354.269 5.60153 -3.20778 0
M  V30 3862 H 355.037 6.37433 -5.13441 0
M  V30 3863 N 357.7 0.491464 1.49741 0
M  V30 3864 C 358.93 -0.0534375 2.06531 0
M  V30 3865 C 359.338 -1.32233 1.35318 0
M  V30 3866 O 358.681 -1.78781 0.422243 0
M  V30 3867 C 358.743 -0.387034 3.57411 0
M  V30 3868 C 358.407 0.782764 4.50246 0
M  V30 3869 C 359.404 1.67059 4.92329 0
M  V30 3870 C 357.089 0.978866 4.9267 0
M  V30 3871 C 359.083 2.73874 5.75562 0
M  V30 3872 C 356.77 2.05022 5.75682 0
M  V30 3873 C 357.768 2.92851 6.17031 0
M  V30 3874 O 357.456 3.98138 6.98385 0
M  V30 3875 H 357.188 0.0129324 0.675876 0
M  V30 3876 H 359.742 0.685238 1.93633 0
M  V30 3877 H 357.972 -1.17918 3.68283 0
M  V30 3878 H 359.661 -0.869419 3.96479 0
M  V30 3879 H 360.427 1.53086 4.60206 0
M  V30 3880 H 356.306 0.304646 4.59992 0
M  V30 3881 H 359.85 3.42458 6.07757 0
M  V30 3882 H 355.747 2.18993 6.07217 0
M  V30 3883 H 356.515 3.95374 7.16674 0
M  V30 3884 N 359.178 -1.55987 0.224894 0
M  V30 3885 C 360.141 -2.19178 -0.670348 0
M  V30 3886 C 361.141 -1.15461 -1.11917 0
M  V30 3887 O 362.331 -1.40675 -1.02743 0
M  V30 3888 C 359.463 -2.81777 -1.9187 0
M  V30 3889 H 360.656 -2.99662 -0.119364 0
M  V30 3890 H 358.209 -1.5628 -0.0247128 0
M  V30 3891 H 358.944 -2.05172 -2.51147 0
M  V30 3892 H 358.729 -3.57732 -1.60531 0
M  V30 3893 H 360.219 -3.30205 -2.55645 0
M  V30 3894 N 360.656 0.0484629 -1.57525 0
M  V30 3895 C 361.902 0.744226 -1.88651 0
M  V30 3896 C 362.235 1.76029 -0.820212 0
M  V30 3897 O 361.51 1.93782 0.166985 0
M  V30 3898 C 361.793 1.43128 -3.30434 0
M  V30 3899 C 361.646 0.43005 -4.47739 0
M  V30 3900 C 362.965 2.37031 -3.70816 0
M  V30 3901 H 360.084 0.269089 -0.68612 0
M  V30 3902 H 362.726 0.00713532 -1.89999 0
M  V30 3903 H 360.876 2.05956 -3.29415 0
M  V30 3904 H 362.548 -0.194816 -4.60888 0
M  V30 3905 H 360.791 -0.252522 -4.33064 0
M  V30 3906 H 361.462 0.948874 -5.43783 0
M  V30 3907 H 363.938 1.84263 -3.73077 0
M  V30 3908 H 362.814 2.82094 -4.70865 0
M  V30 3909 H 363.075 3.22864 -3.02012 0
M  V30 3910 N 362.134 1.5431 0.320358 0
M  V30 3911 C 363.097 1.83195 1.3774 0
M  V30 3912 C 364.097 0.703906 1.44575 0
M  V30 3913 O 365.287 0.972214 1.44546 0
M  V30 3914 C 362.419 1.99487 2.76438 0
M  V30 3915 H 363.612 2.77642 1.1338 0
M  V30 3916 H 361.165 1.46076 0.556012 0
M  V30 3917 H 361.9 1.07262 3.06048 0
M  V30 3918 H 361.685 2.81575 2.7287 0
M  V30 3919 H 363.175 2.23271 3.52902 0
M  V30 3920 N 363.613 -0.582584 1.46437 0
M  V30 3921 C 364.859 -1.34278 1.51978 0
M  V30 3922 C 365.192 -1.93446 0.170973 0
M  V30 3923 O 364.467 -1.76481 -0.817608 0
M  V30 3924 C 364.75 -2.47203 2.61845 0
M  V30 3925 C 364.603 -1.93069 4.06257 0
M  V30 3926 C 365.922 -3.49247 2.67795 0
M  V30 3927 H 363.041 -0.486876 0.553282 0
M  V30 3928 H 365.683 -0.654437 1.78374 0
M  V30 3929 H 363.833 -3.0592 2.39469 0
M  V30 3930 H 365.505 -1.38808 4.3992 0
M  V30 3931 H 363.748 -1.23898 4.1573 0
M  V30 3932 H 364.419 -2.74586 4.7886 0
M  V30 3933 H 366.895 -3.00411 2.8791 0
M  V30 3934 H 365.771 -4.25719 3.46489 0
M  V30 3935 H 366.032 -4.06482 1.73852 0
M  V30 3936 N 365.091 -1.34144 -0.827227 0
M  V30 3937 C 366.316 -1.29476 -1.62021 0
M  V30 3938 C 366.741 0.129292 -1.87655 0
M  V30 3939 O 366.099 1.08967 -1.449 0
M  V30 3940 C 366.147 -2.08702 -2.94068 0
M  V30 3941 O 365.251 -1.45359 -3.85933 0
M  V30 3942 H 364.592 -0.444881 -0.492927 0
M  V30 3943 H 367.122 -1.76882 -1.02829 0
M  V30 3944 H 367.132 -2.19898 -3.43669 0
M  V30 3945 H 365.807 -3.12241 -2.74734 0
M  V30 3946 H 364.384 -1.42879 -3.44442 0
M  V30 3947 N 366.569 1.04691 -1.17803 0
M  V30 3948 C 367.815 1.78045 -0.970969 0
M  V30 3949 C 368.148 1.87686 0.498751 0
M  V30 3950 O 367.423 1.38035 1.37027 0
M  V30 3951 C 367.706 3.2166 -1.61884 0
M  V30 3952 C 367.559 3.20001 -3.161 0
M  V30 3953 C 368.878 4.1962 -1.3269 0
M  V30 3954 H 365.997 0.64633 -0.354155 0
M  V30 3955 H 368.639 1.22333 -1.45378 0
M  V30 3956 H 366.789 3.69232 -1.20831 0
M  V30 3957 H 368.461 2.80467 -3.66246 0
M  V30 3958 H 366.704 2.58203 -3.48588 0
M  V30 3959 H 367.375 4.21386 -3.56564 0
M  V30 3960 H 369.851 3.80567 -1.68249 0
M  V30 3961 H 368.727 5.18339 -1.80599 0
M  V30 3962 H 368.988 4.414 -0.248622 0
M  V30 3963 N 368.047 0.979072 1.23499 0
M  V30 3964 C 369.293 0.648178 1.92163 0
M  V30 3965 C 369.626 -0.816049 1.76222 0
M  V30 3966 O 368.901 -1.58849 1.12237 0
M  V30 3967 C 369.184 1.03773 3.44824 0
M  V30 3968 C 369.037 2.55948 3.69879 0
M  V30 3969 C 370.356 0.580653 4.36253 0
M  V30 3970 H 367.475 0.236952 0.69787 0
M  V30 3971 H 370.117 1.22012 1.45647 0
M  V30 3972 H 368.267 0.551058 3.84572 0
M  V30 3973 H 369.939 3.12179 3.3962 0
M  V30 3974 H 368.182 2.98641 3.14636 0
M  V30 3975 H 368.853 2.78255 4.76737 0
M  V30 3976 H 371.329 0.998465 4.03943 0
M  V30 3977 H 370.205 0.881663 5.41773 0
M  V30 3978 H 370.466 -0.519052 4.39042 0
M  V30 3979 N 369.525 -1.3858 0.750561 0
M  V30 3980 C 370.753 -2.04471 0.316098 0
M  V30 3981 C 371.168 -1.56606 -1.05452 0
M  V30 3982 O 370.525 -0.737784 -1.66922 0
M  V30 3983 C 370.576 -3.60025 0.326275 0
M  V30 3984 O 370.297 -4.06133 1.6428 0
M  V30 3985 C 371.798 -4.43131 -0.122429 0
M  V30 3986 H 369.018 -0.65717 0.135528 0
M  V30 3987 H 371.562 -1.77329 1.01857 0
M  V30 3988 H 369.717 -3.86014 -0.327431 0
M  V30 3989 H 370.131 -5.00547 1.56693 0
M  V30 3990 H 371.605 -5.51963 -0.0641473 0
M  V30 3991 H 372.082 -4.23333 -1.16988 0
M  V30 3992 H 372.688 -4.22323 0.50229 0
M  V30 3993 N 371.003 -0.499398 -1.49478 0
M  V30 3994 C 371.966 0.268838 -2.27618 0
M  V30 3995 C 372.966 0.895383 -1.33565 0
M  V30 3996 O 374.156 0.760164 -1.56739 0
M  V30 3997 C 371.288 1.38559 -3.11471 0
M  V30 3998 H 372.481 -0.416812 -2.96989 0
M  V30 3999 H 370.034 -0.254313 -1.54217 0
M  V30 4000 H 370.769 2.10544 -2.46661 0
M  V30 4001 H 370.554 0.941797 -3.80621 0
M  V30 4002 H 372.044 1.92678 -3.70493 0
M  V30 4003 N 372.481 1.55866 -0.233164 0
M  V30 4004 C 373.73 1.97779 0.39579 0
M  V30 4005 C 374.043 1.12419 1.60066 0
M  V30 4006 O 375.249 1.44283 2.29988 0
M  V30 4007 C 373.705 3.5188 0.755556 0
M  V30 4008 C 373.313 4.45959 -0.427152 0
M  V30 4009 C 375.057 4.02479 1.34946 0
M  V30 4010 C 372.964 5.91383 -0.0443043 0
M  V30 4011 H 371.894 0.738592 0.15165 0
M  V30 4012 H 374.545 1.80486 -0.331212 0
M  V30 4013 H 372.927 3.64816 1.5403 0
M  V30 4014 H 374.101 4.44776 -1.20462 0
M  V30 4015 H 372.416 4.05765 -0.935068 0
M  V30 4016 H 375.013 5.08637 1.649 0
M  V30 4017 H 375.356 3.49014 2.26925 0
M  V30 4018 H 375.889 3.92813 0.62791 0
M  V30 4019 H 372.628 6.48857 -0.930874 0
M  V30 4020 H 372.148 5.95734 0.697238 0
M  V30 4021 H 373.827 6.45893 0.378334 0
M  V30 4022 N 373.959 -0.0401083 1.57549 0
M  V30 4023 C 375.184 -0.748931 1.93406 0
M  V30 4024 C 375.609 -1.68686 0.832274 0
M  V30 4025 O 374.967 -1.80047 -0.212818 0
M  V30 4026 C 375.015 -1.4916 3.28304 0
M  V30 4027 O 374.119 -2.6042 3.19774 0
M  V30 4028 H 373.46 -0.202212 0.63246 0
M  V30 4029 H 375.99 0.00112086 2.046 0
M  V30 4030 H 376 -1.86395 3.62934 0
M  V30 4031 H 374.675 -0.80364 4.08062 0
M  V30 4032 H 373.252 -2.25808 2.96758 0
M  V30 4033 N 375.437 -1.54477 -0.31217 0
M  V30 4034 C 376.685 -1.72884 -1.04668 0
M  V30 4035 C 377.006 -0.511477 -1.88173 0
M  V30 4036 O 376.276 0.474407 -1.90069 0
M  V30 4037 H 374.856 -0.637461 -0.389425 0
M  V30 4038 H 377.518 -1.91807 -0.345852 0
M  V30 4039 H 376.614 -2.61334 -1.70619 0
M  V30 4040 N 376.915 0.57481 -1.46744 0
M  V30 4041 C 378.14 1.36341 -1.56288 0
M  V30 4042 C 378.565 1.86954 -0.207347 0
M  V30 4043 O 377.923 1.62006 0.813871 0
M  V30 4044 C 377.971 2.52147 -2.57787 0
M  V30 4045 O 377.075 3.53834 -2.11838 0
M  V30 4046 H 376.416 0.405713 -0.525636 0
M  V30 4047 H 378.946 0.696453 -1.92382 0
M  V30 4048 H 378.956 2.98958 -2.77648 0
M  V30 4049 H 377.631 2.14663 -3.5622 0
M  V30 4050 H 376.208 3.1345 -2.01999 0
M  V30 4051 N 378.394 1.34581 0.820102 0
M  V30 4052 C 379.619 1.30333 1.61332 0
M  V30 4053 C 380.044 -0.119339 1.87721 0
M  V30 4054 O 379.402 -1.08197 1.45475 0
M  V30 4055 C 379.45 2.10258 2.92957 0
M  V30 4056 O 378.554 1.47404 3.85157 0
M  V30 4057 H 377.895 0.447488 0.490561 0
M  V30 4058 H 380.425 1.77425 1.01889 0
M  V30 4059 H 380.435 2.21718 3.42498 0
M  V30 4060 H 379.11 3.13693 2.73074 0
M  V30 4061 H 377.687 1.44703 3.43679 0
M  V30 4062 N 379.872 -1.04064 1.18357 0
M  V30 4063 C 380.802 -2.14001 0.934113 0
M  V30 4064 C 381.783 -1.69616 -0.128186 0
M  V30 4065 O 382.968 -1.94185 0.0244093 0
M  V30 4066 C 380.098 -3.44253 0.459066 0
M  V30 4067 C 379.052 -4.02261 1.46185 0
M  V30 4068 C 378.378 -5.27992 0.844322 0
M  V30 4069 C 379.678 -4.38432 2.83856 0
M  V30 4070 H 381.372 -2.35127 1.85352 0
M  V30 4071 H 378.918 -1.12998 0.892604 0
M  V30 4072 H 380.871 -4.20522 0.271907 0
M  V30 4073 H 379.595 -3.22813 -0.495912 0
M  V30 4074 H 378.254 -3.28074 1.63595 0
M  V30 4075 H 377.902 -5.02862 -0.117845 0
M  V30 4076 H 377.602 -5.67765 1.51384 0
M  V30 4077 H 379.126 -6.06938 0.667693 0
M  V30 4078 H 380.54 -5.05688 2.70098 0
M  V30 4079 H 378.937 -4.89254 3.47491 0
M  V30 4080 H 380.007 -3.4826 3.37406 0
M  V30 4081 N 381.35 -0.985608 -1.22978 0
M  V30 4082 C 382.313 -0.535071 -2.22867 0
M  V30 4083 C 383.313 0.378123 -1.56291 0
M  V30 4084 O 384.503 0.171092 -1.73358 0
M  V30 4085 C 381.635 0.222702 -3.40172 0
M  V30 4086 H 382.828 -1.41835 -2.6424 0
M  V30 4087 H 380.381 -0.772042 -1.35901 0
M  V30 4088 H 381.116 1.12229 -3.04262 0
M  V30 4089 H 380.901 -0.43288 -3.89703 0
M  V30 4090 H 382.391 0.526335 -4.1427 0
M  V30 4091 N 382.828 1.3818 -0.7579 0
M  V30 4092 C 383.778 2.27741 -0.108674 0
M  V30 4093 C 384.762 1.45415 0.688709 0
M  V30 4094 O 385.954 1.68108 0.553956 0
M  V30 4095 C 383.083 3.34313 0.780367 0
M  V30 4096 C 382.169 4.24093 -0.0240977 0
M  V30 4097 N 382.56 4.9451 -1.06271 0
M  V30 4098 C 380.858 4.45542 0.202049 0
M  V30 4099 C 381.559 5.60675 -1.54979 0
M  V30 4100 N 380.535 5.36684 -0.864348 0
M  V30 4101 H 384.337 2.79649 -0.904071 0
M  V30 4102 H 381.851 1.51133 -0.594346 0
M  V30 4103 H 383.848 3.97368 1.26114 0
M  V30 4104 H 382.508 2.83962 1.57467 0
M  V30 4105 H 383.519 4.97345 -1.44459 0
M  V30 4106 H 380.196 4.06091 0.96935 0
M  V30 4107 H 381.586 6.26992 -2.41517 0
M  V30 4108 N 384.306 0.507319 1.49211 0
M  V30 4109 C 385.717 0.0611118 1.866 0
M  V30 4110 C 386.068 -1.35488 1.41907 0
M  V30 4111 O 385.193 -2.0108 0.799726 0
M  V30 4112 C 385.788 0.104125 3.3864 0
M  V30 4113 C 384.347 -0.28677 3.75306 0
M  V30 4114 C 383.494 0.473893 2.73221 0
M  V30 4115 H 386.445 0.719775 1.41439 0
M  V30 4116 H 386.466 -0.689672 3.74198 0
M  V30 4117 H 385.978 1.13482 3.71138 0
M  V30 4118 H 384.079 -1.32046 3.48417 0
M  V30 4119 H 384.192 0.0370745 4.79086 0
M  V30 4120 H 382.556 -0.0770644 2.54583 0
M  V30 4121 H 383.339 1.50478 3.08563 0
M  V30 4122 N 385.784 -1.5574 0.241426 0
M  V30 4123 C 386.716 -2.18469 -0.693091 0
M  V30 4124 C 387.729 -1.15942 -1.14286 0
M  V30 4125 O 388.918 -1.42832 -1.07058 0
M  V30 4126 C 386.018 -2.7696 -1.95311 0
M  V30 4127 C 385.191 -4.04853 -1.65568 0
M  V30 4128 C 384.25 -4.47715 -2.76474 0
M  V30 4129 O 383.276 -5.14205 -2.44094 0
M  V30 4130 N 384.478 -4.15044 -4.05855 0
M  V30 4131 H 387.243 -2.99292 -0.156388 0
M  V30 4132 H 384.804 -1.61784 0.0611752 0
M  V30 4133 H 386.796 -3.02594 -2.68736 0
M  V30 4134 H 385.366 -2.00326 -2.39975 0
M  V30 4135 H 384.586 -3.86865 -0.756886 0
M  V30 4136 H 385.874 -4.88246 -1.43153 0
M  V30 4137 H 385.272 -3.61654 -4.34998 0
M  V30 4138 H 383.829 -4.45526 -4.75762 0
M  V30 4139 N 387.262 0.0317525 -1.57568 0
M  V30 4140 C 388.51 0.721676 -1.88776 0
M  V30 4141 C 388.831 1.76039 -0.838772 0
M  V30 4142 O 388.101 1.95482 0.127935 0
M  V30 4143 H 386.681 0.269534 -0.696678 0
M  V30 4144 H 389.343 -0.00165879 -1.949 0
M  V30 4145 H 388.439 1.21293 -2.87566 0
M  V30 4146 N 388.74 1.54641 0.303973 0
M  V30 4147 C 389.687 1.85386 1.37479 0
M  V30 4148 C 390.657 0.702528 1.50512 0
M  V30 4149 O 391.842 0.950867 1.65418 0
M  V30 4150 C 388.982 2.10413 2.73533 0
M  V30 4151 C 388.095 3.38049 2.68974 0
M  V30 4152 C 387.23 3.52934 3.97002 0
M  V30 4153 C 386.269 4.74373 3.86829 0
M  V30 4154 N 385.406 4.8608 5.06627 0
M  V30 4155 H 390.246 2.76732 1.1056 0
M  V30 4156 H 387.783 1.37034 0.534805 0
M  V30 4157 H 389.741 2.22919 3.52652 0
M  V30 4158 H 388.371 1.22338 2.98719 0
M  V30 4159 H 387.423 3.3418 1.81736 0
M  V30 4160 H 388.735 4.27288 2.57346 0
M  V30 4161 H 387.889 3.65088 4.84557 0
M  V30 4162 H 386.628 2.61824 4.1146 0
M  V30 4163 H 385.633 4.62255 2.97658 0
M  V30 4164 H 386.858 5.66888 3.73918 0
M  V30 4165 H 384.804 3.97891 5.21554 0
M  V30 4166 H 384.721 5.69315 4.9741 0
M  V30 4167 H 385.989 5.02587 5.95841 0
M  V30 4168 N 390.218 -0.567019 1.47046 0
M  V30 4169 C 391.467 -1.32091 1.5243 0
M  V30 4170 C 391.78 -1.94704 0.187021 0
M  V30 4171 O 392.986 -2.7124 0.118771 0
M  V30 4172 C 391.442 -2.39479 2.68659 0
M  V30 4173 C 391.05 -1.831 4.08874 0
M  V30 4174 C 392.794 -3.16111 2.83327 0
M  V30 4175 C 390.701 -2.8821 5.16419 0
M  V30 4176 H 389.631 -0.496629 0.56734 0
M  V30 4177 H 392.282 -0.603354 1.73297 0
M  V30 4178 H 390.664 -3.14105 2.41152 0
M  V30 4179 H 391.838 -1.14913 4.46242 0
M  V30 4180 H 390.153 -1.19085 3.99008 0
M  V30 4181 H 392.75 -3.94585 3.60842 0
M  V30 4182 H 393.093 -3.69686 1.91411 0
M  V30 4183 H 393.626 -2.48595 3.10556 0
M  V30 4184 H 390.365 -2.39504 6.10179 0
M  V30 4185 H 389.885 -3.54839 4.8358 0
M  V30 4186 H 391.564 -3.51881 5.42945 0
M  V30 4187 N 391.696 -1.35014 -0.812953 0
M  V30 4188 C 392.921 -1.31187 -1.60639 0
M  V30 4189 C 393.346 0.109382 -1.87782 0
M  V30 4190 O 392.704 1.07424 -1.46047 0
M  V30 4191 C 392.752 -2.11809 -2.91838 0
M  V30 4192 O 391.856 -1.49444 -3.8437 0
M  V30 4193 H 391.197 -0.450084 -0.488181 0
M  V30 4194 H 393.727 -1.77963 -1.00947 0
M  V30 4195 H 393.737 -2.23531 -3.41318 0
M  V30 4196 H 392.412 -3.15137 -2.71407 0
M  V30 4197 H 390.989 -1.46524 -3.42907 0
M  V30 4198 N 393.175 1.03435 -1.18907 0
M  V30 4199 C 394.122 2.11591 -0.921837 0
M  V30 4200 C 395.092 1.65499 0.141226 0
M  V30 4201 O 396.277 1.908 0.000242829 0
M  V30 4202 C 393.417 3.42012 -0.460616 0
M  V30 4203 C 392.53 4.01682 -1.58982 0
M  V30 4204 C 391.665 5.20091 -1.08069 0
M  V30 4205 C 390.704 5.71805 -2.18416 0
M  V30 4206 N 389.841 6.81494 -1.68849 0
M  V30 4207 H 394.681 2.33787 -1.8479 0
M  V30 4208 H 392.218 1.1467 -0.921373 0
M  V30 4209 H 394.176 4.16834 -0.174642 0
M  V30 4210 H 392.806 3.19944 0.428467 0
M  V30 4211 H 391.858 3.24127 -1.99113 0
M  V30 4212 H 393.17 4.36084 -2.4214 0
M  V30 4213 H 392.324 6.02051 -0.749615 0
M  V30 4214 H 391.063 4.87209 -0.218771 0
M  V30 4215 H 390.068 4.88461 -2.5236 0
M  V30 4216 H 391.293 6.06728 -3.05054 0
M  V30 4217 H 389.239 6.50475 -0.849572 0
M  V30 4218 H 389.156 7.14994 -2.45601 0
M  V30 4219 H 390.424 7.67063 -1.38689 0
M  V30 4220 N 394.653 0.992116 1.22453 0
M  V30 4221 C 395.881 0.685944 1.95198 0
M  V30 4222 C 396.296 -0.749233 1.73297 0
M  V30 4223 O 395.653 -1.50549 1.03156 0
M  V30 4224 C 395.704 0.981395 3.47924 0
M  V30 4225 O 395.425 2.36018 3.6909 0
M  V30 4226 C 396.926 0.692815 4.37853 0
M  V30 4227 H 394.146 0.253821 0.621141 0
M  V30 4228 H 396.69 1.32668 1.55626 0
M  V30 4229 H 394.845 0.386481 3.85467 0
M  V30 4230 H 395.259 2.45884 4.63294 0
M  V30 4231 H 396.733 0.949818 5.43767 0
M  V30 4232 H 397.21 -0.373181 4.37612 0
M  V30 4233 H 397.816 1.26874 4.05935 0
M  V30 4234 N 396.131 -1.37776 0.765217 0
M  V30 4235 C 397.361 -2.03828 0.337277 0
M  V30 4236 C 397.769 -1.57841 -1.04321 0
M  V30 4237 O 397.112 -0.752043 -1.67601 0
M  V30 4238 C 397.174 -3.58292 0.294407 0
M  V30 4239 C 396.838 -4.27384 1.61838 0
M  V30 4240 C 397.835 -4.51956 2.56967 0
M  V30 4241 C 395.52 -4.65345 1.89102 0
M  V30 4242 C 397.514 -5.13536 3.77571 0
M  V30 4243 C 395.201 -5.26647 3.09978 0
M  V30 4244 C 396.199 -5.50679 4.04032 0
M  V30 4245 O 395.887 -6.10702 5.2278 0
M  V30 4246 H 395.619 -0.661292 0.140248 0
M  V30 4247 H 398.173 -1.77222 1.03834 0
M  V30 4248 H 396.403 -3.83918 -0.462983 0
M  V30 4249 H 398.092 -4.05763 -0.105581 0
M  V30 4250 H 398.858 -4.23048 2.37183 0
M  V30 4251 H 394.737 -4.45978 1.16725 0
M  V30 4252 H 398.281 -5.3221 4.50997 0
M  V30 4253 H 394.178 -5.54979 3.29649 0
M  V30 4254 H 394.946 -6.29183 5.23517 0
M  V30 4255 N 397.609 -0.515225 -1.4894 0
M  V30 4256 C 398.855 0.0242508 -2.02785 0
M  V30 4257 C 399.188 1.35323 -1.39289 0
M  V30 4258 O 398.463 1.87041 -0.533469 0
M  V30 4259 C 398.746 0.16184 -3.59736 0
M  V30 4260 C 398.599 -1.19127 -4.33738 0
M  V30 4261 C 399.918 0.895719 -4.30888 0
M  V30 4262 H 397.037 0.00733914 -0.736963 0
M  V30 4263 H 399.679 -0.669395 -1.77818 0
M  V30 4264 H 397.829 0.752624 -3.8114 0
M  V30 4265 H 399.501 -1.82202 -4.23792 0
M  V30 4266 H 397.744 -1.77695 -3.95736 0
M  V30 4267 H 398.415 -1.04815 -5.41957 0
M  V30 4268 H 400.891 0.394528 -4.14225 0
M  V30 4269 H 399.767 0.960859 -5.40425 0
M  V30 4270 H 400.028 1.9427 -3.97129 0
M  V30 4271 N 399.087 1.5561 -0.249682 0
M  V30 4272 C 400.037 2.18157 0.662673 0
M  V30 4273 C 401.021 1.1383 1.13717 0
M  V30 4274 O 402.213 1.39731 1.08648 0
M  V30 4275 C 399.342 2.88672 1.85805 0
M  V30 4276 C 398.428 4.00258 1.40193 0
M  V30 4277 N 398.819 5.01473 0.660213 0
M  V30 4278 C 397.117 4.12864 1.68698 0
M  V30 4279 C 397.818 5.80155 0.423695 0
M  V30 4280 N 396.794 5.34533 0.988721 0
M  V30 4281 H 400.596 2.93769 0.0878688 0
M  V30 4282 H 398.11 1.62316 -0.0521183 0
M  V30 4283 H 400.107 3.31912 2.5227 0
M  V30 4284 H 398.767 2.14564 2.43705 0
M  V30 4285 H 399.778 5.16971 0.310047 0
M  V30 4286 H 396.455 3.4993 2.27717 0
M  V30 4287 H 397.845 6.71688 -0.168616 0
M  V30 4288 N 400.565 -0.0233959 1.57583 0
M  V30 4289 C 401.79 -0.728376 1.94189 0
M  V30 4290 C 402.215 -1.67793 0.850119 0
M  V30 4291 O 401.573 -1.80262 -0.19371 0
M  V30 4292 C 401.621 -1.45669 3.29868 0
M  V30 4293 O 400.725 -2.57013 3.22518 0
M  V30 4294 H 400.066 -0.195493 0.63457 0
M  V30 4295 H 402.596 0.0228214 2.04587 0
M  V30 4296 H 402.606 -1.82535 3.6489 0
M  V30 4297 H 401.281 -0.760314 4.08891 0
M  V30 4298 H 399.858 -2.22648 2.99136 0
M  V30 4299 N 402.043 -1.548 -0.295768 0
M  V30 4300 C 403.006 -1.85363 -1.34808 0
M  V30 4301 C 404.006 -0.726817 -1.43436 0
M  V30 4302 O 405.196 -0.995088 -1.42981 0
M  V30 4303 C 402.328 -2.03859 -2.73229 0
M  V30 4304 H 403.521 -2.7941 -1.08949 0
M  V30 4305 H 401.074 -1.46942 -0.532702 0
M  V30 4306 H 401.809 -1.12117 -3.04303 0
M  V30 4307 H 401.594 -2.8588 -2.68356 0
M  V30 4308 H 403.084 -2.28857 -3.49305 0
M  V30 4309 N 403.521 0.559213 -1.47345 0
M  V30 4310 C 404.767 1.31843 -1.54095 0
M  V30 4311 C 405.1 1.93149 -0.201726 0
M  V30 4312 O 404.375 1.77759 0.789428 0
M  V30 4313 C 404.658 2.43006 -2.65744 0
M  V30 4314 C 404.511 1.86581 -4.09277 0
M  V30 4315 C 405.83 3.44943 -2.73318 0
M  V30 4316 H 402.949 0.478012 -0.560957 0
M  V30 4317 H 405.591 0.625977 -1.79392 0
M  V30 4318 H 403.741 3.02072 -2.44305 0
M  V30 4319 H 405.413 1.31792 -4.42073 0
M  V30 4320 H 403.656 1.17268 -4.17649 0
M  V30 4321 H 404.327 2.66933 -4.83168 0
M  V30 4322 H 406.803 2.95793 -2.92653 0
M  V30 4323 H 405.679 4.20153 -3.53218 0
M  V30 4324 H 405.94 4.03665 -1.80296 0
M  V30 4325 N 404.999 1.35443 0.805782 0
M  V30 4326 C 405.929 1.31095 1.93226 0
M  V30 4327 C 406.91 0.185244 1.69088 0
M  V30 4328 O 408.095 0.380332 1.90439 0
M  V30 4329 C 405.225 1.08299 3.29983 0
M  V30 4330 C 404.179 2.17519 3.68605 0
M  V30 4331 C 403.505 1.79887 5.03532 0
M  V30 4332 C 404.805 3.5949 3.78898 0
M  V30 4333 H 406.499 2.25352 1.97122 0
M  V30 4334 H 404.045 1.0848 0.946996 0
M  V30 4335 H 405.998 1.03897 4.08391 0
M  V30 4336 H 404.722 0.104885 3.26432 0
M  V30 4337 H 403.381 2.2102 2.92482 0
M  V30 4338 H 403.029 0.80693 4.96485 0
M  V30 4339 H 402.729 2.53001 5.30344 0
M  V30 4340 H 404.253 1.77011 5.84379 0
M  V30 4341 H 405.667 3.58307 4.47536 0
M  V30 4342 H 404.064 4.31371 4.1718 0
M  V30 4343 H 405.134 3.95584 2.80431 0
M  V30 4344 N 406.477 -1.02803 1.19454 0
M  V30 4345 C 407.44 -2.09264 0.934955 0
M  V30 4346 C 408.44 -1.60576 -0.0849015 0
M  V30 4347 O 409.63 -1.73554 0.149933 0
M  V30 4348 C 406.762 -3.38482 0.40531 0
M  V30 4349 H 407.955 -2.33726 1.87916 0
M  V30 4350 H 405.508 -1.19426 1.00832 0
M  V30 4351 H 406.243 -3.19689 -0.544899 0
M  V30 4352 H 406.028 -3.75142 1.14065 0
M  V30 4353 H 407.518 -4.16894 0.242806 0
M  V30 4354 N 407.956 -0.998596 -1.21925 0
M  V30 4355 C 409.204 -0.676325 -1.90448 0
M  V30 4356 C 409.525 0.794719 -1.78071 0
M  V30 4357 O 408.795 1.5701 -1.17152 0
M  V30 4358 H 407.375 -0.247165 -0.704925 0
M  V30 4359 H 410.037 -1.26633 -1.48156 0
M  V30 4360 H 409.133 -0.943858 -2.97486 0
M  V30 4361 N 409.434 1.37368 -0.772513 0
M  V30 4362 C 410.682 1.99279 -0.336516 0
M  V30 4363 C 411.003 1.6163 1.09091 0
M  V30 4364 O 410.273 0.882109 1.74916 0
M  V30 4365 H 408.853 0.737063 -0.121435 0
M  V30 4366 H 411.515 1.67836 -0.990809 0
M  V30 4367 H 410.611 3.09332 -0.414763 0
M  V30 4368 N 410.912 0.523116 1.48665 0
M  V30 4369 C 412.158 -0.0134963 2.02796 0
M  V30 4370 C 412.491 -1.34582 1.40004 0
M  V30 4371 O 411.766 -1.86756 0.543381 0
M  V30 4372 C 412.049 -0.14276 3.59817 0
M  V30 4373 C 411.902 1.21425 4.331 0
M  V30 4374 C 413.221 -0.872856 4.31357 0
M  V30 4375 H 410.34 -0.00343074 0.736992 0
M  V30 4376 H 412.982 0.678816 1.7746 0
M  V30 4377 H 411.132 -0.732401 3.81534 0
M  V30 4378 H 412.804 1.84447 4.2282 0
M  V30 4379 H 411.047 1.79791 3.94788 0
M  V30 4380 H 411.718 1.07687 5.41394 0
M  V30 4381 H 414.194 -0.372555 4.14429 0
M  V30 4382 H 413.07 -0.932185 5.40927 0
M  V30 4383 H 413.331 -1.92161 3.98154 0
M  V30 4384 N 412.39 -1.55475 0.257931 0
M  V30 4385 C 413.353 -2.20551 -0.623706 0
M  V30 4386 C 414.353 -1.17809 -1.09443 0
M  V30 4387 O 415.543 -1.42823 -0.997362 0
M  V30 4388 C 412.675 -2.85784 -1.8585 0
M  V30 4389 H 413.868 -2.99848 -0.0557743 0
M  V30 4390 H 411.421 -1.56298 0.0084422 0
M  V30 4391 H 412.156 -2.10453 -2.46739 0
M  V30 4392 H 411.941 -3.61057 -1.52907 0
M  V30 4393 H 413.431 -3.35553 -2.48584 0
M  V30 4394 N 413.868 0.0150385 -1.57593 0
M  V30 4395 C 415.114 0.704043 -1.90187 0
M  V30 4396 C 415.447 1.74249 -0.857366 0
M  V30 4397 O 414.722 1.94092 0.125843 0
M  V30 4398 C 415.005 1.36087 -3.33395 0
M  V30 4399 C 414.858 0.334981 -4.48551 0
M  V30 4400 C 416.177 2.29112 -3.7576 0
M  V30 4401 H 413.296 0.254475 -0.691673 0
M  V30 4402 H 415.938 -0.0331678 -1.89971 0
M  V30 4403 H 414.088 1.98922 -3.3371 0
M  V30 4404 H 415.76 -0.292534 -4.60372 0
M  V30 4405 H 414.003 -0.344325 -4.32431 0
M  V30 4406 H 414.674 0.833316 -5.45674 0
M  V30 4407 H 417.15 1.76308 -3.76902 0
M  V30 4408 H 416.026 2.72043 -4.76743 0
M  V30 4409 H 416.287 3.16385 -3.08793 0
M  V30 4410 N 415.346 1.54954 0.287554 0
M  V30 4411 C 416.594 1.74528 1.01904 0
M  V30 4412 C 416.915 0.541349 1.87335 0
M  V30 4413 O 416.185 -0.444108 1.908 0
M  V30 4414 H 414.765 0.643576 0.379235 0
M  V30 4415 H 417.427 1.92333 0.315294 0
M  V30 4416 H 416.523 2.64015 1.6644 0
M  V30 4417 N 416.824 -0.551391 1.4764 0
M  V30 4418 C 418.052 -1.33357 1.58189 0
M  V30 4419 C 418.467 -1.87342 0.234199 0
M  V30 4420 O 417.824 -1.65301 -0.77343 0
M  V30 4421 C 417.875 -2.49942 2.61173 0
M  V30 4422 O 417.596 -1.98187 3.90709 0
M  V30 4423 C 419.097 -3.42072 2.8196 0
M  V30 4424 H 416.317 -0.40631 0.533998 0
M  V30 4425 H 418.861 -0.667367 1.93304 0
M  V30 4426 H 417.016 -3.12489 2.28975 0
M  V30 4427 H 417.43 -2.74342 4.47031 0
M  V30 4428 H 418.904 -4.20278 3.57869 0
M  V30 4429 H 419.381 -3.95978 1.89995 0
M  V30 4430 H 419.987 -2.85336 3.15378 0
M  V30 4431 N 418.302 -1.35869 -0.798587 0
M  V30 4432 C 419.527 -1.32883 -1.59238 0
M  V30 4433 C 419.952 0.0894587 -1.87887 0
M  V30 4434 O 419.31 1.05869 -1.47178 0
M  V30 4435 C 419.358 -2.14892 -2.89575 0
M  V30 4436 O 418.462 -1.53512 -3.82763 0
M  V30 4437 H 417.803 -0.455236 -0.48338 0
M  V30 4438 H 420.333 -1.79024 -0.990539 0
M  V30 4439 H 420.343 -2.27139 -3.38928 0
M  V30 4440 H 419.018 -3.17998 -2.68049 0
M  V30 4441 H 417.595 -1.50153 -3.41334 0
M  V30 4442 N 419.78 1.02168 -1.19998 0
M  V30 4443 C 421.02 1.77232 -1.01825 0
M  V30 4444 C 421.384 1.86833 0.442428 0
M  V30 4445 O 422.585 2.58293 0.744189 0
M  V30 4446 C 420.856 3.15601 -1.67722 0
M  V30 4447 S 422.415 4.06765 -1.64584 0
M  V30 4448 H 419.233 0.610021 -0.365233 0
M  V30 4449 H 421.835 1.22368 -1.52467 0
M  V30 4450 H 420.539 3.06235 -2.73218 0
M  V30 4451 H 420.07 3.7554 -1.17189 0
M  V30 4452 H 422.085 4.91586 -0.67511 0
M  V30 4453 N 421.258 1.00505 1.21394 0
M  V30 4454 C 422.208 0.536503 2.21598 0
M  V30 4455 C 423.192 -0.401914 1.55799 0
M  V30 4456 O 424.384 -0.226757 1.75541 0
M  V30 4457 C 421.513 -0.135446 3.43033 0
M  V30 4458 C 420.599 0.823992 4.16018 0
M  V30 4459 N 420.99 1.97683 4.6557 0
M  V30 4460 C 419.288 0.642387 4.4135 0
M  V30 4461 C 419.989 2.58003 5.21354 0
M  V30 4462 N 418.965 1.86162 5.1073 0
M  V30 4463 H 422.767 1.41557 2.57563 0
M  V30 4464 H 420.281 0.868878 1.37202 0
M  V30 4465 H 422.278 -0.488584 4.14027 0
M  V30 4466 H 420.938 -1.01049 3.08576 0
M  V30 4467 H 421.949 2.3572 4.61147 0
M  V30 4468 H 418.626 -0.185578 4.17087 0
M  V30 4469 H 420.016 3.555 5.70149 0
M  V30 4470 N 422.737 -1.36956 0.779787 0
M  V30 4471 C 423.667 -2.32761 0.185651 0
M  V30 4472 C 424.648 -1.56177 -0.673989 0
M  V30 4473 O 425.833 -1.84378 -0.609797 0
M  V30 4474 C 422.963 -3.40418 -0.687964 0
M  V30 4475 C 421.917 -4.27941 0.0710102 0
M  V30 4476 C 421.243 -5.26681 -0.922573 0
M  V30 4477 C 422.543 -5.07006 1.25467 0
M  V30 4478 H 424.237 -2.82698 0.986008 0
M  V30 4479 H 421.783 -1.3592 0.475592 0
M  V30 4480 H 423.736 -4.06423 -1.11348 0
M  V30 4481 H 422.46 -2.89025 -1.52093 0
M  V30 4482 H 421.119 -3.63478 0.47739 0
M  V30 4483 H 420.767 -4.71565 -1.7503 0
M  V30 4484 H 420.467 -5.86103 -0.419237 0
M  V30 4485 H 421.991 -5.9556 -1.34686 0
M  V30 4486 H 423.405 -5.66105 0.905401 0
M  V30 4487 H 421.802 -5.75793 1.69063 0
M  V30 4488 H 422.872 -4.3921 2.05481 0
M  V30 4489 N 424.215 -0.530993 -1.48385 0
M  V30 4490 C 425.464 0.00474348 -2.01699 0
M  V30 4491 C 425.777 1.35227 -1.41325 0
M  V30 4492 O 426.983 1.97643 -1.86144 0
M  V30 4493 C 425.439 0.0588473 -3.59852 0
M  V30 4494 C 425.047 -1.28385 -4.2921 0
M  V30 4495 C 426.791 0.543358 -4.21008 0
M  V30 4496 C 424.698 -1.19028 -5.79298 0
M  V30 4497 H 423.628 0.00554317 -0.75398 0
M  V30 4498 H 426.279 -0.674924 -1.70637 0
M  V30 4499 H 424.661 0.803612 -3.8776 0
M  V30 4500 H 425.835 -2.04426 -4.12973 0
M  V30 4501 H 424.15 -1.70418 -3.7993 0
M  V30 4502 H 426.747 0.631351 -5.3096 0
M  V30 4503 H 427.09 1.54937 -3.86394 0
M  V30 4504 H 427.623 -0.145754 -3.97533 0
M  V30 4505 H 424.362 -2.17147 -6.18488 0
M  V30 4506 H 423.882 -0.471246 -5.97946 0
M  V30 4507 H 425.561 -0.881365 -6.40969 0
M  V30 4508 N 425.693 1.55336 -0.266172 0
M  V30 4509 C 427.104 1.85236 0.233315 0
M  V30 4510 C 427.455 1.18816 1.56132 0
M  V30 4511 O 426.58 0.473307 2.11161 0
M  V30 4512 C 427.175 3.36059 0.430113 0
M  V30 4513 C 425.734 3.66116 0.873842 0
M  V30 4514 C 424.881 2.77274 -0.0380016 0
M  V30 4515 H 427.832 1.51004 -0.488214 0
M  V30 4516 H 427.853 3.58681 1.26998 0
M  V30 4517 H 427.365 3.84373 -0.536588 0
M  V30 4518 H 425.466 3.23295 1.85233 0
M  V30 4519 H 425.579 4.73699 0.717358 0
M  V30 4520 H 423.943 2.50198 0.476759 0
M  V30 4521 H 424.726 3.284 -1.00042 0
M  V30 4522 N 427.171 -0.0066808 1.57599 0
M  V30 4523 C 428.396 -0.707738 1.94951 0
M  V30 4524 C 428.821 -1.66882 0.867868 0
M  V30 4525 O 428.179 -1.80457 -0.17458 0
M  V30 4526 C 428.227 -1.42162 3.31394 0
M  V30 4527 O 427.331 -2.53578 3.25226 0
M  V30 4528 H 426.672 -0.188752 0.636607 0
M  V30 4529 H 429.202 0.0445193 2.04552 0
M  V30 4530 H 429.212 -1.78655 3.66806 0
M  V30 4531 H 427.887 -0.716903 4.09675 0
M  V30 4532 H 426.464 -2.19463 3.01481 0
M  V30 4533 N 428.649 -1.55105 -0.279332 0
M  V30 4534 C 430.06 -1.66186 -0.850832 0
M  V30 4535 C 430.411 -0.584707 -1.87285 0
M  V30 4536 O 429.536 0.274919 -2.14647 0
M  V30 4537 C 430.131 -3.01264 -1.55001 0
M  V30 4538 C 428.69 -3.14394 -2.06963 0
M  V30 4539 C 427.837 -2.61959 -0.909536 0
M  V30 4540 H 430.788 -1.58602 -0.0558235 0
M  V30 4541 H 430.809 -2.93899 -2.41669 0
M  V30 4542 H 430.321 -3.7964 -0.805931 0
M  V30 4543 H 428.422 -2.4078 -2.84352 0
M  V30 4544 H 428.535 -4.20867 -2.28928 0
M  V30 4545 H 426.899 -2.18957 -1.30116 0
M  V30 4546 H 427.682 -3.42833 -0.179062 0
M  V30 4547 N 430.127 0.543554 -1.4793 0
M  V30 4548 C 431.373 1.29961 -1.56466 0
M  V30 4549 C 431.728 1.91024 -0.229696 0
M  V30 4550 O 431.021 1.75619 0.766072 0
M  V30 4551 C 431.215 2.42078 -2.62932 0
M  V30 4552 C 431.044 1.92003 -4.06651 0
M  V30 4553 C 429.814 1.75223 -4.73946 0
M  V30 4554 C 432.012 1.45648 -4.93245 0
M  V30 4555 N 429.994 1.19632 -6.02131 0
M  V30 4556 C 431.365 1.01914 -6.11566 0
M  V30 4557 C 433.42 1.33826 -4.79578 0
M  V30 4558 C 432.123 0.475301 -7.17728 0
M  V30 4559 C 434.149 0.808427 -5.85848 0
M  V30 4560 C 433.511 0.381081 -7.03368 0
M  V30 4561 H 429.61 0.467086 -0.62718 0
M  V30 4562 H 432.194 0.614543 -1.84747 0
M  V30 4563 H 430.365 3.08098 -2.36496 0
M  V30 4564 H 432.097 3.09096 -2.61231 0
M  V30 4565 H 428.852 1.98345 -4.30065 0
M  V30 4566 H 429.276 0.93885 -6.70458 0
M  V30 4567 H 433.918 1.65474 -3.89074 0
M  V30 4568 H 431.636 0.146472 -8.07967 0
M  V30 4569 H 435.222 0.720315 -5.77324 0
M  V30 4570 H 434.102 -0.0225344 -7.84197 0
M  V30 4571 N 431.605 1.3629 0.791371 0
M  V30 4572 C 432.535 1.33137 1.91825 0
M  V30 4573 C 433.516 0.203168 1.68882 0
M  V30 4574 O 434.701 0.400509 1.90025 0
M  V30 4575 C 431.831 1.11793 3.28816 0
M  V30 4576 C 430.785 2.21417 3.66277 0
M  V30 4577 C 430.111 1.85218 5.01596 0
M  V30 4578 C 431.411 3.63489 3.75064 0
M  V30 4579 H 433.105 2.2743 1.9472 0
M  V30 4580 H 430.651 1.09479 0.935437 0
M  V30 4581 H 432.604 1.08222 4.07266 0
M  V30 4582 H 431.328 0.139501 3.26302 0
M  V30 4583 H 429.987 2.2411 2.90121 0
M  V30 4584 H 429.635 0.859544 4.95602 0
M  V30 4585 H 429.335 2.58611 5.27631 0
M  V30 4586 H 430.859 1.832 5.82469 0
M  V30 4587 H 432.273 3.63034 4.43711 0
M  V30 4588 H 430.67 4.35771 4.12582 0
M  V30 4589 H 431.74 3.98536 2.76219 0
M  V30 4590 N 433.083 -1.0153 1.20538 0
M  V30 4591 C 434.046 -2.0826 0.957098 0
M  V30 4592 C 435.046 -1.60657 -0.0678655 0
M  V30 4593 O 436.236 -1.73385 0.168332 0
M  V30 4594 C 433.368 -3.38033 0.441188 0
M  V30 4595 H 434.561 -2.31719 1.90384 0
M  V30 4596 H 432.114 -1.1835 1.02093 0
M  V30 4597 H 432.849 -3.20249 -0.510961 0
M  V30 4598 H 432.634 -3.73911 1.18038 0
M  V30 4599 H 434.124 -4.16613 0.287009 0
M  V30 4600 N 434.561 -1.01147 -1.20859 0
M  V30 4601 C 435.494 -0.522108 -2.22147 0
M  V30 4602 C 436.472 0.427686 -1.56874 0
M  V30 4603 O 437.656 0.34889 -1.85243 0
M  V30 4604 C 434.783 0.240819 -3.37843 0
M  V30 4605 C 433.829 -0.657752 -4.21398 0
M  V30 4606 S 434.662 -2.12393 -4.91578 0
M  V30 4607 C 435.818 -1.37102 -6.10699 0
M  V30 4608 H 436.051 -1.38035 -2.63313 0
M  V30 4609 H 433.584 -0.819941 -1.30829 0
M  V30 4610 H 435.542 0.674908 -4.04914 0
M  V30 4611 H 434.203 1.07457 -2.95147 0
M  V30 4612 H 433.396 -0.0697456 -5.03952 0
M  V30 4613 H 432.998 -1.0294 -3.59555 0
M  V30 4614 H 435.29 -0.648315 -6.74391 0
M  V30 4615 H 436.233 -2.17252 -6.73949 0
M  V30 4616 H 436.641 -0.876154 -5.57659 0
M  V30 4617 N 436.039 1.36541 -0.78704 0
M  V30 4618 C 437.285 1.99599 -0.358872 0
M  V30 4619 C 437.618 1.62323 1.06606 0
M  V30 4620 O 436.893 0.876858 1.73613 0
M  V30 4621 C 437.176 3.56327 -0.519944 0
M  V30 4622 C 437.029 4.03464 -1.98839 0
M  V30 4623 C 438.348 4.4005 0.0664737 0
M  V30 4624 H 435.467 0.725107 -0.131869 0
M  V30 4625 H 438.109 1.6199 -0.992936 0
M  V30 4626 H 436.259 3.88495 0.0198321 0
M  V30 4627 H 437.931 3.81793 -2.58905 0
M  V30 4628 H 436.174 3.55092 -2.49183 0
M  V30 4629 H 436.845 5.12439 -2.05207 0
M  V30 4630 H 439.321 4.14228 -0.394267 0
M  V30 4631 H 438.197 5.48847 -0.0762682 0
M  V30 4632 H 438.458 4.26655 1.15835 0
M  V30 4633 N 437.518 0.538854 1.48102 0
M  V30 4634 C 438.448 -0.207654 2.32575 0
M  V30 4635 C 439.429 -0.926559 1.4265 0
M  V30 4636 O 440.614 -0.91061 1.71527 0
M  V30 4637 C 437.744 -1.24957 3.24042 0
M  V30 4638 C 436.698 -0.648263 4.23062 0
M  V30 4639 C 436.024 -1.79348 5.03725 0
M  V30 4640 C 437.324 0.385897 5.20872 0
M  V30 4641 H 439.018 0.497534 2.95237 0
M  V30 4642 H 436.564 0.240715 1.41974 0
M  V30 4643 H 438.517 -1.77983 3.81969 0
M  V30 4644 H 437.241 -1.98446 2.59397 0
M  V30 4645 H 435.9 -0.139452 3.66335 0
M  V30 4646 H 435.548 -2.51696 4.35498 0
M  V30 4647 H 435.248 -1.39702 5.70751 0
M  V30 4648 H 436.772 -2.32735 5.64506 0
M  V30 4649 H 438.186 -0.057607 5.73271 0
M  V30 4650 H 436.583 0.700227 5.96001 0
M  V30 4651 H 437.653 1.28848 4.67468 0
M  V30 4652 N 438.996 -1.55193 0.274407 0
M  V30 4653 C 440.244 -1.99187 -0.341902 0
M  V30 4654 C 440.565 -1.16422 -1.56431 0
M  V30 4655 O 439.835 -0.253573 -1.94252 0
M  V30 4656 H 438.415 -0.735721 -0.129317 0
M  V30 4657 H 441.077 -1.91168 0.379578 0
M  V30 4658 H 440.173 -3.05629 -0.632253 0
M  V30 4659 N 440.474 -0.00167713 -1.576 0
M  V30 4660 C 441.404 0.988091 -2.11563 0
M  V30 4661 C 442.385 1.35736 -1.02517 0
M  V30 4662 O 443.57 1.44082 -1.30208 0
M  V30 4663 C 440.7 2.27941 -2.62031 0
M  V30 4664 C 439.654 2.0517 -3.75619 0
M  V30 4665 C 438.98 3.4033 -4.12407 0
M  V30 4666 C 440.28 1.41294 -5.02825 0
M  V30 4667 H 441.974 0.538771 -2.94513 0
M  V30 4668 H 439.52 0.257712 -1.41675 0
M  V30 4669 H 441.473 2.97539 -2.9841 0
M  V30 4670 H 440.197 2.74989 -1.76205 0
M  V30 4671 H 438.856 1.37998 -3.39635 0
M  V30 4672 H 438.504 3.85085 -3.23603 0
M  V30 4673 H 438.204 3.25909 -4.88935 0
M  V30 4674 H 439.728 4.1124 -4.51347 0
M  V30 4675 H 441.142 2.00851 -5.36965 0
M  V30 4676 H 439.539 1.37356 -5.84169 0
M  V30 4677 H 440.609 0.382362 -4.8339 0
M  V30 4678 N 441.952 1.55251 0.271103 0
M  V30 4679 C 443.198 1.76207 1.00394 0
M  V30 4680 C 443.531 0.562604 1.85872 0
M  V30 4681 O 442.806 -0.439785 1.89463 0
M  V30 4682 C 443.089 3.06828 1.8849 0
M  V30 4683 C 442.942 4.37134 1.05992 0
M  V30 4684 C 444.261 3.33503 2.87165 0
M  V30 4685 H 441.38 0.641086 0.363562 0
M  V30 4686 H 444.022 1.87982 0.276189 0
M  V30 4687 H 442.172 2.96921 2.5054 0
M  V30 4688 H 443.844 4.59001 0.459978 0
M  V30 4689 H 442.087 4.32275 0.363443 0
M  V30 4690 H 442.758 5.2486 1.70955 0
M  V30 4691 H 445.234 3.43215 2.3525 0
M  V30 4692 H 444.11 4.2616 3.45946 0
M  V30 4693 H 444.371 2.53235 3.62387 0
M  V30 4694 N 443.43 -0.535701 1.48216 0
M  V30 4695 C 444.393 -1.623 1.61838 0
M  V30 4696 C 445.393 -1.53087 0.492024 0
M  V30 4697 O 446.583 -1.5686 0.757668 0
M  V30 4698 C 443.715 -3.01907 1.58319 0
M  V30 4699 H 444.908 -1.51564 2.58783 0
M  V30 4700 H 442.461 -0.757317 1.36727 0
M  V30 4701 H 443.196 -3.18155 0.628299 0
M  V30 4702 H 442.981 -3.10003 2.40085 0
M  V30 4703 H 444.471 -3.80969 1.71033 0
M  V30 4704 N 444.908 -1.36708 -0.784132 0
M  V30 4705 C 446.156 -1.30972 -1.53918 0
M  V30 4706 C 446.477 0.109086 -1.94695 0
M  V30 4707 O 445.747 1.05048 -1.65353 0
M  V30 4708 H 444.327 -0.481819 -0.570841 0
M  V30 4709 H 446.989 -1.71063 -0.934002 0
M  V30 4710 H 446.085 -1.94061 -2.44431 0
M  V30 4711 N 446.386 1.0089 -1.21074 0
M  V30 4712 C 447.316 2.1145 -0.990523 0
M  V30 4713 C 448.297 1.69897 0.0831699 0
M  V30 4714 O 449.482 1.94052 -0.0758853 0
M  V30 4715 C 446.612 3.42914 -0.550177 0
M  V30 4716 C 445.566 3.98244 -1.56799 0
M  V30 4717 C 444.892 5.25568 -0.984013 0
M  V30 4718 C 446.192 4.30752 -2.95381 0
M  V30 4719 H 447.886 2.3013 -1.91521 0
M  V30 4720 H 445.432 1.10592 -0.92225 0
M  V30 4721 H 447.385 4.19653 -0.383305 0
M  V30 4722 H 446.109 3.24014 0.41015 0
M  V30 4723 H 444.768 3.23621 -1.72236 0
M  V30 4724 H 444.416 5.02998 -0.0155216 0
M  V30 4725 H 444.116 5.63551 -1.66384 0
M  V30 4726 H 445.64 6.04955 -0.828378 0
M  V30 4727 H 447.054 4.98349 -2.8341 0
M  V30 4728 H 445.451 4.79869 -3.60341 0
M  V30 4729 H 446.521 3.39192 -3.46521 0
M  V30 4730 N 447.864 1.01787 1.20321 0
M  V30 4731 C 449.113 0.703249 1.89043 0
M  V30 4732 C 449.426 -0.770445 1.79787 0
M  V30 4733 O 450.632 -1.19767 2.43656 0
M  V30 4734 C 449.088 1.20749 3.3904 0
M  V30 4735 C 448.696 2.70817 3.56878 0
M  V30 4736 C 450.44 0.968352 4.13308 0
M  V30 4737 C 448.347 3.14716 5.00708 0
M  V30 4738 H 447.277 0.259354 0.707991 0
M  V30 4739 H 449.928 1.23072 1.36108 0
M  V30 4740 H 448.31 0.607989 3.91305 0
M  V30 4741 H 449.484 3.36327 3.14993 0
M  V30 4742 H 447.799 2.92888 2.95983 0
M  V30 4743 H 450.396 1.27173 5.19356 0
M  V30 4744 H 450.739 -0.095149 4.16191 0
M  V30 4745 H 451.272 1.53129 3.67146 0
M  V30 4746 H 448.011 4.20347 5.02979 0
M  V30 4747 H 447.531 2.53927 5.43398 0
M  V30 4748 H 449.21 3.07426 5.69296 0
M  V30 4749 N 449.342 -1.36122 0.79427 0
M  V30 4750 C 450.567 -2.03891 0.379871 0
M  V30 4751 C 450.992 -1.59488 -0.997251 0
M  V30 4752 O 450.35 -0.765652 -1.64339 0
M  V30 4753 C 450.398 -3.57687 0.457442 0
M  V30 4754 O 449.502 -4.08931 -0.5338 0
M  V30 4755 H 448.843 -0.6443 0.160541 0
M  V30 4756 H 451.373 -1.73976 1.07673 0
M  V30 4757 H 451.383 -4.06721 0.322792 0
M  V30 4758 H 450.058 -3.89357 1.46199 0
M  V30 4759 H 448.635 -3.71154 -0.360409 0
M  V30 4760 N 450.82 -0.546701 -1.47814 0
M  V30 4761 C 452.066 -0.0187684 -2.02791 0
M  V30 4762 C 452.399 1.32338 -1.42128 0
M  V30 4763 O 451.674 1.85867 -0.573023 0
M  V30 4764 C 451.957 0.0854985 -3.59998 0
M  V30 4765 C 451.81 -1.283 -4.31114 0
M  V30 4766 C 453.129 0.80412 -4.32691 0
M  V30 4767 H 450.248 -0.0082946 -0.736953 0
M  V30 4768 H 452.89 -0.706962 -1.76358 0
M  V30 4769 H 451.04 0.671609 -3.82651 0
M  V30 4770 H 452.712 -1.91151 -4.19832 0
M  V30 4771 H 450.955 -1.86049 -3.91878 0
M  V30 4772 H 451.626 -1.16287 -5.39612 0
M  V30 4773 H 454.102 0.306576 -4.14969 0
M  V30 4774 H 452.978 0.846011 -5.42341 0
M  V30 4775 H 453.239 1.85802 -4.01161 0
M  V30 4776 N 452.299 1.55045 -0.282633 0
M  V30 4777 C 453.547 1.99365 0.331334 0
M  V30 4778 C 453.868 1.1725 1.55812 0
M  V30 4779 O 453.138 0.263871 1.94115 0
M  V30 4780 H 451.718 0.736397 0.125414 0
M  V30 4781 H 454.38 1.90964 -0.389711 0
M  V30 4782 H 453.476 3.0596 0.616036 0
M  V30 4783 N 453.777 0.010035 1.57597 0
M  V30 4784 C 455.025 -0.671371 1.90623 0
M  V30 4785 C 455.346 -1.73753 0.885151 0
M  V30 4786 O 454.616 -1.95752 -0.0760611 0
M  V30 4787 H 453.196 -0.250968 0.703579 0
M  V30 4788 H 455.858 0.0533325 1.94827 0
M  V30 4789 H 454.954 -1.13626 2.90681 0
M  V30 4790 N 455.255 -1.55392 -0.262866 0
M  V30 4791 C 456.218 -1.88181 -1.30846 0
M  V30 4792 C 457.218 -0.757079 -1.41862 0
M  V30 4793 O 458.408 -1.02519 -1.40838 0
M  V30 4794 C 455.54 -2.09609 -2.68844 0
M  V30 4795 H 456.733 -2.81659 -1.02997 0
M  V30 4796 H 454.286 -1.48039 -0.501414 0
M  V30 4797 H 455.021 -1.18547 -3.01856 0
M  V30 4798 H 454.806 -2.91508 -2.62231 0
M  V30 4799 H 456.296 -2.36215 -3.44372 0
M  V30 4800 N 456.733 0.527833 -1.48498 0
M  V30 4801 C 457.68 1.6322 -1.6318 0
M  V30 4802 C 458.65 1.59199 -0.473815 0
M  V30 4803 O 459.835 1.77591 -0.697563 0
M  V30 4804 C 456.975 3.01474 -1.67951 0
M  V30 4805 C 456.088 3.15713 -2.94871 0
M  V30 4806 C 455.223 4.44539 -2.90789 0
M  V30 4807 C 454.262 4.52315 -4.12404 0
M  V30 4808 N 453.399 5.72533 -4.06387 0
M  V30 4809 H 458.239 1.50011 -2.57489 0
M  V30 4810 H 455.776 0.730298 -1.27691 0
M  V30 4811 H 457.734 3.81572 -1.68698 0
M  V30 4812 H 456.364 3.1345 -0.771306 0
M  V30 4813 H 455.416 2.28854 -3.03859 0
M  V30 4814 H 456.728 3.1732 -3.8485 0
M  V30 4815 H 455.882 5.3293 -2.89949 0
M  V30 4816 H 454.621 4.45457 -1.98542 0
M  V30 4817 H 453.626 3.62331 -4.13517 0
M  V30 4818 H 454.851 4.53134 -5.05812 0
M  V30 4819 H 452.797 5.74344 -3.16962 0
M  V30 4820 H 452.714 5.75643 -4.90073 0
M  V30 4821 H 453.982 6.63204 -4.0961 0
M  V30 4822 N 458.211 1.37122 0.776871 0
M  V30 4823 C 459.441 1.35034 1.56363 0
M  V30 4824 C 459.849 -0.0674681 1.8908 0
M  V30 4825 O 459.192 -1.03826 1.51545 0
M  V30 4826 C 459.254 2.11894 2.90415 0
M  V30 4827 C 458.918 3.60897 2.80362 0
M  V30 4828 C 459.915 4.54887 2.51742 0
M  V30 4829 C 457.6 4.03951 2.98545 0
M  V30 4830 C 459.594 5.89909 2.41426 0
M  V30 4831 C 457.281 5.3906 2.87849 0
M  V30 4832 C 458.279 6.31852 2.5933 0
M  V30 4833 O 457.967 7.64479 2.48651 0
M  V30 4834 H 457.699 0.464402 0.49123 0
M  V30 4835 H 460.253 1.80992 0.971127 0
M  V30 4836 H 458.483 1.60618 3.51765 0
M  V30 4837 H 460.172 2.02505 3.51776 0
M  V30 4838 H 460.938 4.22934 2.37385 0
M  V30 4839 H 456.817 3.3209 3.19746 0
M  V30 4840 H 460.361 6.62304 2.19086 0
M  V30 4841 H 456.258 5.70617 3.01773 0
M  V30 4842 H 457.026 7.74742 2.64039 0
M  V30 4843 N 459.689 -1.00246 1.21608 0
M  V30 4844 C 460.619 -2.10921 1.00172 0
M  V30 4845 C 461.6 -1.69938 -0.0741587 0
M  V30 4846 O 462.785 -1.94009 0.0861753 0
M  V30 4847 C 459.915 -3.42618 0.568355 0
M  V30 4848 C 458.869 -3.97407 1.58909 0
M  V30 4849 C 458.195 -5.25038 1.01187 0
M  V30 4850 C 459.495 -4.2918 2.97661 0
M  V30 4851 H 461.189 -2.29112 1.92739 0
M  V30 4852 H 458.735 -1.10101 0.928102 0
M  V30 4853 H 460.688 -4.19444 0.405555 0
M  V30 4854 H 459.412 -3.24227 -0.392961 0
M  V30 4855 H 458.071 -3.22703 1.73949 0
M  V30 4856 H 457.719 -5.02982 0.0421965 0
M  V30 4857 H 457.419 -5.62661 1.6937 0
M  V30 4858 H 458.943 -6.04507 0.860448 0
M  V30 4859 H 460.357 -4.96839 2.86049 0
M  V30 4860 H 458.754 -4.77952 3.6288 0
M  V30 4861 H 459.824 -3.3735 3.48315 0
M  V30 4862 N 461.167 -1.02423 -1.1978 0
M  V30 4863 C 462.578 -0.748389 -1.71044 0
M  V30 4864 C 462.929 0.732398 -1.82017 0
M  V30 4865 O 462.054 1.57116 -1.48807 0
M  V30 4866 C 462.649 -1.35187 -3.1066 0
M  V30 4867 C 461.208 -1.12472 -3.59203 0
M  V30 4868 C 460.355 -1.45283 -2.36195 0
M  V30 4869 H 463.306 -1.19275 -1.04686 0
M  V30 4870 H 463.327 -0.746408 -3.73107 0
M  V30 4871 H 462.839 -2.4296 -3.02642 0
M  V30 4872 H 460.94 -0.0649983 -3.72543 0
M  V30 4873 H 461.053 -1.81016 -4.43588 0
M  V30 4874 H 459.417 -0.872034 -2.39307 0
M  V30 4875 H 460.2 -2.54129 -2.30811 0
M  V30 4876 N 462.645 1.35699 -0.801477 0
M  V30 4877 C 463.893 1.9852 -0.37871 0
M  V30 4878 C 464.214 1.63907 1.05638 0
M  V30 4879 O 463.484 0.919013 1.73006 0
M  V30 4880 H 462.064 0.734322 -0.137042 0
M  V30 4881 H 464.726 1.65697 -1.02619 0
M  V30 4882 H 463.822 3.08382 -0.480284 0
M  V30 4883 N 464.123 0.554532 1.47522 0
M  V30 4884 C 465.363 0.0317994 2.04375 0
M  V30 4885 C 465.727 -1.29242 1.41988 0
M  V30 4886 O 466.928 -1.90269 1.89872 0
M  V30 4887 C 465.199 -0.0623344 3.57346 0
M  V30 4888 S 466.758 -0.531578 4.35568 0
M  V30 4889 H 463.576 0.0238553 0.7106 0
M  V30 4890 H 466.178 0.74066 1.80927 0
M  V30 4891 H 464.882 0.905857 4.00278 0
M  V30 4892 H 464.413 -0.794831 3.85287 0
M  V30 4893 H 466.428 -1.79175 4.62721 0
M  V30 4894 N 465.601 -1.54893 0.290851 0
M  V30 4895 C 466.841 -2.01842 -0.322388 0
M  V30 4896 C 467.205 -1.17477 -1.51865 0
M  V30 4897 O 468.406 -1.54077 -2.20258 0
M  V30 4898 C 466.677 -3.50874 -0.679844 0
M  V30 4899 S 468.236 -4.19796 -1.27739 0
M  V30 4900 H 465.054 -0.704005 -0.0994866 0
M  V30 4901 H 467.656 -1.91015 0.416358 0
M  V30 4902 H 466.36 -4.09915 0.199435 0
M  V30 4903 H 465.891 -3.65717 -1.44964 0
M  V30 4904 H 467.906 -4.24729 -2.56554 0
M  V30 4905 N 467.08 -0.0183926 -1.57589 0
M  V30 4906 C 468.028 0.985111 -2.10709 0
M  V30 4907 C 469.022 1.34397 -1.0312 0
M  V30 4908 O 470.228 1.32746 -1.21567 0
M  V30 4909 H 466.603 0.335418 -0.673052 0
M  V30 4910 H 468.574 0.511689 -2.9398 0
M  V30 4911 C 467.323 2.26202 -2.64061 0
M  V30 4912 H 466.646 1.9946 -3.4649 0
M  V30 4913 H 468.086 2.94652 -3.04887 0
M  V30 4914 C 466.545 2.98444 -1.5631 0
M  V30 4915 O 467.075 3.90142 -0.956674 0
M  V30 4916 N 465.281 2.6059 -1.28612 0
M  V30 4917 H 464.828 1.86101 -1.78112 0
M  V30 4918 H 464.786 3.09238 -0.567406 0
M  V30 4919 N 468.558 1.5553 0.254621 0
M  V30 4920 C 469.974 1.4778 0.602753 0
M  V30 4921 C 470.174 0.707047 1.88688 0
M  V30 4922 O 469.23 0.233288 2.5142 0
M  V30 4923 C 470.543 2.92133 0.712648 0
M  V30 4924 C 472.091 3.02458 0.805488 0
M  V30 4925 C 472.566 4.48102 0.947009 0
M  V30 4926 N 474.057 4.52008 1.01207 0
M  V30 4927 C 474.792 5.61939 1.1407 0
M  V30 4928 N 474.288 6.81697 1.23536 0
M  V30 4929 N 476.081 5.49719 1.17325 0
M  V30 4930 H 468.232 2.04085 -0.588463 0
M  V30 4931 H 470.495 0.926229 -0.202001 0
M  V30 4932 H 470.201 3.51332 -0.160766 0
M  V30 4933 H 470.075 3.42187 1.58707 0
M  V30 4934 H 472.462 2.43344 1.66936 0
M  V30 4935 H 472.543 2.55627 -0.0939266 0
M  V30 4936 H 472.187 5.07824 0.087725 0
M  V30 4937 H 472.117 4.92607 1.86135 0
M  V30 4938 H 474.608 3.65749 0.950577 0
M  V30 4939 H 474.921 7.61228 1.33236 0
M  V30 4940 H 473.266 6.84473 1.20508 0
M  V30 4941 H 476.457 4.55095 1.09573 0
M  V30 4942 H 476.63 6.35432 1.27005 0
M  V30 4943 N 470.036 -0.519951 1.48776 0
M  V30 4944 C 471.282 -1.27711 1.57536 0
M  V30 4945 C 471.615 -1.92547 0.252866 0
M  V30 4946 O 470.89 -1.7979 -0.742021 0
M  V30 4947 C 471.173 -2.35875 2.72094 0
M  V30 4948 C 471.026 -1.75664 4.1408 0
M  V30 4949 C 472.345 -3.37575 2.82367 0
M  V30 4950 H 469.464 -0.462971 0.573434 0
M  V30 4951 H 472.106 -0.578194 1.80989 0
M  V30 4952 H 470.256 -2.95488 2.52228 0
M  V30 4953 H 471.928 -1.20025 4.45412 0
M  V30 4954 H 470.171 -1.06154 4.20611 0
M  V30 4955 H 470.842 -2.54029 4.90075 0
M  V30 4956 H 473.318 -2.87929 3.00393 0
M  V30 4957 H 472.194 -4.1064 3.64233 0
M  V30 4958 H 472.455 -3.98743 1.90936 0
M  V30 4959 N 471.514 -1.37532 -0.769588 0
M  V30 4960 C 472.444 -1.36172 -1.89682 0
M  V30 4961 C 473.425 -0.23001 -1.68538 0
M  V30 4962 O 474.61 -0.43069 -1.89364 0
M  V30 4963 C 471.74 -1.1701 -3.26995 0
M  V30 4964 C 470.694 -2.27216 -3.62708 0
M  V30 4965 C 470.02 -1.93174 -4.98586 0
M  V30 4966 C 471.32 -3.6941 -3.69234 0
M  V30 4967 H 473.014 -2.30499 -1.91078 0
M  V30 4968 H 470.56 -1.10953 -0.917902 0
M  V30 4969 H 472.513 -1.14688 -4.05493 0
M  V30 4970 H 471.237 -0.191395 -3.26039 0
M  V30 4971 H 469.896 -2.28697 -2.86519 0
M  V30 4972 H 469.544 -0.938281 -4.94171 0
M  V30 4973 H 469.244 -2.66973 -5.23449 0
M  V30 4974 H 470.768 -1.92443 -5.79481 0
M  V30 4975 H 472.182 -3.70047 -4.37879 0
M  V30 4976 H 470.579 -4.4228 -4.05597 0
M  V30 4977 H 471.649 -4.0288 -2.69844 0
M  V30 4978 N 472.992 0.995999 -1.22138 0
M  V30 4979 C 474.24 1.73167 -1.042 0
M  V30 4980 C 474.561 1.90329 0.42423 0
M  V30 4981 O 473.831 1.4607 1.30539 0
M  V30 4982 H 472.411 0.641593 -0.38258 0
M  V30 4983 H 475.073 1.19974 -1.53598 0
M  V30 4984 H 474.169 2.72734 -1.51731 0
M  V30 4985 N 474.47 1.03057 1.19235 0
M  V30 4986 C 475.719 0.72326 1.88287 0
M  V30 4987 C 476.032 -0.751333 1.80594 0
M  V30 4988 O 477.238 -1.17176 2.44912 0
M  V30 4989 C 475.694 1.24338 3.3774 0
M  V30 4990 C 475.302 2.74587 3.53986 0
M  V30 4991 C 477.046 1.01213 4.12257 0
M  V30 4992 C 474.953 3.20009 4.97341 0
M  V30 4993 H 473.883 0.266848 0.705201 0
M  V30 4994 H 476.534 1.24509 1.34795 0
M  V30 4995 H 474.916 0.649457 3.90638 0
M  V30 4996 H 476.09 3.39649 3.11408 0
M  V30 4997 H 474.405 2.9601 2.9286 0
M  V30 4998 H 477.002 1.32675 5.17978 0
M  V30 4999 H 477.345 -0.051001 4.16269 0
M  V30 5000 H 477.878 1.57014 3.65501 0
M  V30 5001 H 474.617 4.25659 4.98493 0
M  V30 5002 H 474.137 2.59676 5.40674 0
M  V30 5003 H 475.816 3.13447 5.66003 0
M  V30 5004 N 475.948 -1.35272 0.808662 0
M  V30 5005 C 477.359 -1.81179 0.450688 0
M  V30 5006 C 477.71 -1.67143 -1.02751 0
M  V30 5007 O 476.835 -1.20325 -1.79864 0
M  V30 5008 C 477.43 -3.28943 0.811275 0
M  V30 5009 C 475.989 -3.72985 0.505871 0
M  V30 5010 C 475.136 -2.57229 1.03578 0
M  V30 5011 H 478.087 -1.2322 1.00012 0
M  V30 5012 H 478.108 -3.80342 0.109588 0
M  V30 5013 H 477.62 -3.39127 1.88718 0
M  V30 5014 H 475.721 -3.68349 -0.561209 0
M  V30 5015 H 475.834 -4.67677 1.03995 0
M  V30 5016 H 474.198 -2.50548 0.458005 0
M  V30 5017 H 474.981 -2.7019 2.11784 0
M  V30 5018 N 477.426 -0.562348 -1.47226 0
M  V30 5019 C 478.376 0.202967 -2.27095 0
M  V30 5020 C 479.36 0.880611 -1.34663 0
M  V30 5021 O 480.552 0.778069 -1.58981 0
M  V30 5022 C 477.681 1.22906 -3.20545 0
M  V30 5023 C 476.767 0.554566 -4.20459 0
M  V30 5024 N 477.158 -0.378295 -5.04383 0
M  V30 5025 C 475.456 0.807854 -4.38623 0
M  V30 5026 C 476.157 -0.770583 -5.76573 0
M  V30 5027 N 475.133 -0.124263 -5.43458 0
M  V30 5028 H 478.935 -0.514196 -2.89367 0
M  V30 5029 H 476.449 -0.382655 -1.57827 0
M  V30 5030 H 478.446 1.79134 -3.76453 0
M  V30 5031 H 477.106 1.94726 -2.59831 0
M  V30 5032 H 478.117 -0.75274 -5.124 0
M  V30 5033 H 474.794 1.51418 -3.89075 0
M  V30 5034 H 476.184 -1.53742 -6.54074 0
M  V30 5035 N 478.904 1.54736 -0.299062 0
M  V30 5036 C 480.129 2.04975 0.316254 0
M  V30 5037 C 480.554 1.17501 1.46885 0
M  V30 5038 O 479.912 0.178678 1.80417 0
M  V30 5039 C 479.96 3.52672 0.751997 0
M  V30 5040 O 479.064 3.68226 1.85697 0
M  V30 5041 H 478.405 0.661126 0.0617175 0
M  V30 5042 H 480.935 1.99805 -0.440341 0
M  V30 5043 H 480.945 3.94488 1.04133 0
M  V30 5044 H 479.62 4.158 -0.0911482 0
M  V30 5045 H 478.197 3.38316 1.56834 0
M  V30 5046 N 480.382 0.0267497 1.57577 0
M  V30 5047 C 481.607 -0.666227 1.96408 0
M  V30 5048 C 482.032 -1.65004 0.903071 0
M  V30 5049 O 481.39 -1.80787 -0.136263 0
M  V30 5050 C 481.438 -1.35101 3.34335 0
M  V30 5051 O 480.542 -2.46623 3.30531 0
M  V30 5052 H 479.883 -0.175206 0.640468 0
M  V30 5053 H 482.413 0.0878977 2.04411 0
M  V30 5054 H 482.423 -1.70834 3.70513 0
M  V30 5055 H 481.098 -0.629844 4.11103 0
M  V30 5056 H 479.675 -2.13019 3.06068 0
M  V30 5057 N 481.861 -1.55662 -0.24637 0
M  V30 5058 C 483.11 -1.7672 -0.972254 0
M  V30 5059 C 483.423 -0.59078 -1.86465 0
M  V30 5060 O 484.629 -0.684391 -2.62732 0
M  V30 5061 C 483.085 -3.12869 -1.7788 0
M  V30 5062 C 482.693 -4.38161 -0.933768 0
M  V30 5063 C 484.437 -3.43265 -2.49738 0
M  V30 5064 C 482.344 -5.6534 -1.73623 0
M  V30 5065 H 481.274 -0.658795 -0.366749 0
M  V30 5066 H 483.925 -1.82092 -0.226902 0
M  V30 5067 H 482.307 -3.01606 -2.56612 0
M  V30 5068 H 483.481 -4.60413 -0.188736 0
M  V30 5069 H 481.796 -4.15102 -0.328488 0
M  V30 5070 H 484.393 -4.35501 -3.10231 0
M  V30 5071 H 484.736 -2.64614 -3.2138 0
M  V30 5072 H 485.269 -3.55746 -1.78016 0
M  V30 5073 H 482.008 -6.46814 -1.06354 0
M  V30 5074 H 481.528 -5.47188 -2.45653 0
M  V30 5075 H 483.207 -6.04616 -2.30323 0
M  V30 5076 N 483.339 0.512053 -1.4905 0
M  V30 5077 C 484.272 1.63209 -1.59493 0
M  V30 5078 C 485.25 1.56407 -0.444481 0
M  V30 5079 O 486.434 1.76623 -0.658535 0
M  V30 5080 C 483.561 3.01685 -1.53961 0
M  V30 5081 C 482.607 3.26786 -2.74068 0
M  V30 5082 S 483.44 3.11107 -4.35859 0
M  V30 5083 C 484.596 4.51997 -4.32954 0
M  V30 5084 H 484.829 1.54104 -2.54243 0
M  V30 5085 H 482.362 0.696382 -1.37804 0
M  V30 5086 H 484.32 3.81538 -1.51455 0
M  V30 5087 H 482.981 3.08215 -0.605178 0
M  V30 5088 H 482.174 4.27849 -2.66386 0
M  V30 5089 H 481.776 2.54635 -2.73928 0
M  V30 5090 H 484.068 5.43871 -4.03993 0
M  V30 5091 H 485.011 4.64731 -5.34257 0
M  V30 5092 H 485.419 4.32159 -3.63178 0
M  V30 5093 N 484.817 1.37938 0.762283 0
M  V30 5094 C 486.065 1.33404 1.51815 0
M  V30 5095 C 486.386 -0.0780975 1.94844 0
M  V30 5096 O 485.656 -1.02405 1.67003 0
M  V30 5097 H 484.236 0.490839 0.563104 0
M  V30 5098 H 486.898 1.72527 0.906669 0
M  V30 5099 H 485.994 1.97926 2.41313 0
M  V30 5100 N 486.295 -0.989507 1.22664 0
M  V30 5101 C 487.525 -1.7624 1.0781 0
M  V30 5102 C 487.933 -1.85466 -0.374036 0
M  V30 5103 O 487.276 -1.32645 -1.27087 0
M  V30 5104 C 487.338 -3.21007 1.61849 0
M  V30 5105 C 487.002 -3.35316 3.10503 0
M  V30 5106 C 487.999 -3.22362 4.07896 0
M  V30 5107 C 485.684 -3.60258 3.50028 0
M  V30 5108 C 487.678 -3.34139 5.42798 0
M  V30 5109 C 485.365 -3.71676 4.85078 0
M  V30 5110 C 486.363 -3.58625 5.81272 0
M  V30 5111 O 486.051 -3.69655 7.1387 0
M  V30 5112 H 485.783 -0.560209 0.378341 0
M  V30 5113 H 488.337 -1.25252 1.62792 0
M  V30 5114 H 486.567 -3.73202 1.01279 0
M  V30 5115 H 488.256 -3.80024 1.42606 0
M  V30 5116 H 489.022 -3.03 3.78703 0
M  V30 5117 H 484.901 -3.69492 2.75675 0
M  V30 5118 H 488.445 -3.23869 6.17863 0
M  V30 5119 H 484.342 -3.90545 5.1395 0
M  V30 5120 H 485.11 -3.86507 7.21495 0
M  V30 5121 N 487.773 -1.03688 -1.18687 0
M  V30 5122 C 488.721 -0.618292 -2.24232 0
M  V30 5123 C 489.715 0.353045 -1.6568 0
M  V30 5124 O 490.921 0.220749 -1.78641 0
M  V30 5125 H 487.296 -0.181711 -0.729716 0
M  V30 5126 H 489.267 -1.51893 -2.56848 0
M  V30 5127 C 488.016 0.00677342 -3.47699 0
M  V30 5128 H 487.339 -0.731692 -3.93047 0
M  V30 5129 H 488.779 0.262492 -4.23187 0
M  V30 5130 C 487.238 1.25572 -3.12623 0
M  V30 5131 O 487.768 2.34691 -3.26011 0
M  V30 5132 N 485.974 1.14755 -2.66982 0
M  V30 5133 H 485.521 0.259601 -2.56289 0
M  V30 5134 H 485.479 1.98412 -2.43885 0
M  V30 5135 N 489.251 1.34841 -0.815825 0
M  V30 5136 C 490.498 1.98499 -0.400535 0
M  V30 5137 C 490.826 1.64699 1.03463 0
M  V30 5138 O 490.081 0.907006 1.73412 0
M  V30 5139 C 490.38 3.53273 -0.541541 0
M  V30 5140 C 490.046 4.06966 -1.94138 0
M  V30 5141 C 488.708 4.21341 -2.32433 0
M  V30 5142 C 491.06 4.35933 -2.85677 0
M  V30 5143 C 488.388 4.62007 -3.61617 0
M  V30 5144 C 490.74 4.78042 -4.14317 0
M  V30 5145 C 489.404 4.90622 -4.52599 0
M  V30 5146 H 488.674 0.72636 -0.146566 0
M  V30 5147 H 491.321 1.60902 -1.0384 0
M  V30 5148 H 489.626 3.91387 0.179741 0
M  V30 5149 H 491.323 4.00497 -0.20085 0
M  V30 5150 H 487.913 3.96235 -1.63388 0
M  V30 5151 H 492.097 4.24372 -2.57337 0
M  V30 5152 H 487.353 4.69937 -3.91113 0
M  V30 5153 H 491.527 4.99415 -4.85342 0
M  V30 5154 H 489.154 5.2189 -5.52752 0
M  V30 5155 N 490.729 0.570148 1.46925 0
M  V30 5156 C 491.954 0.0542592 2.07329 0
M  V30 5157 C 492.379 -1.23582 1.41806 0
M  V30 5158 O 491.737 -1.74341 0.497479 0
M  V30 5159 C 491.785 -0.111175 3.60429 0
M  V30 5160 O 490.889 -1.17071 3.95434 0
M  V30 5161 H 490.23 0.0571425 0.661537 0
M  V30 5162 H 492.76 0.789516 1.88753 0
M  V30 5163 H 492.77 -0.321315 4.06733 0
M  V30 5164 H 491.445 0.831012 4.07513 0
M  V30 5165 H 490.022 -0.940029 3.60857 0
M  V30 5166 N 492.207 -1.54576 0.307264 0
M  V30 5167 C 493.137 -2.26708 -0.55907 0
M  V30 5168 C 494.118 -1.26893 -1.1328 0
M  V30 5169 O 495.303 -1.55677 -1.16097 0
M  V30 5170 C 492.433 -3.01259 -1.72801 0
M  V30 5171 C 491.387 -4.08275 -1.28435 0
M  V30 5172 C 490.713 -4.70575 -2.53895 0
M  V30 5173 C 492.013 -5.2068 -0.411038 0
M  V30 5174 H 493.707 -2.9937 0.042576 0
M  V30 5175 H 491.253 -1.43983 0.0219173 0
M  V30 5176 H 493.206 -3.50444 -2.34023 0
M  V30 5177 H 491.93 -2.26187 -2.356 0
M  V30 5178 H 490.589 -3.59949 -0.695161 0
M  V30 5179 H 490.237 -3.92136 -3.15021 0
M  V30 5180 H 489.937 -5.42854 -2.24908 0
M  V30 5181 H 491.461 -5.22527 -3.15908 0
M  V30 5182 H 492.875 -5.65721 -0.929097 0
M  V30 5183 H 491.272 -5.99716 -0.214664 0
M  V30 5184 H 492.342 -4.81629 0.562287 0
M  V30 5185 N 493.685 -0.035106 -1.57561 0
M  V30 5186 C 494.615 0.942993 -2.13612 0
M  V30 5187 C 495.596 1.33531 -1.05373 0
M  V30 5188 O 496.781 1.41287 -1.33235 0
M  V30 5189 C 493.911 2.22332 -2.66807 0
M  V30 5190 C 492.865 1.97156 -3.79886 0
M  V30 5191 C 492.191 3.31506 -4.19533 0
M  V30 5192 C 493.491 1.30596 -5.05709 0
M  V30 5193 H 495.185 0.476179 -2.95589 0
M  V30 5194 H 492.731 0.227602 -1.4219 0
M  V30 5195 H 494.684 2.91142 -3.04654 0
M  V30 5196 H 493.408 2.7119 -1.81999 0
M  V30 5197 H 492.067 1.30763 -3.42486 0
M  V30 5198 H 491.715 3.78134 -3.31698 0
M  V30 5199 H 491.415 3.15465 -4.95738 0
M  V30 5200 H 492.939 4.01574 -4.59968 0
M  V30 5201 H 494.353 1.89416 -5.41105 0
M  V30 5202 H 492.75 1.24934 -5.86951 0
M  V30 5203 H 493.82 0.279742 -4.84092 0
M  V30 5204 N 495.163 1.55791 0.238111 0
M  V30 5205 C 496.411 1.77681 0.963001 0
M  V30 5206 C 496.732 0.600674 1.85518 0
M  V30 5207 O 496.002 -0.383182 1.92116 0
M  V30 5208 H 494.582 0.655315 0.358568 0
M  V30 5209 H 497.244 1.93239 0.253945 0
M  V30 5210 H 496.34 2.69177 1.57956 0
M  V30 5211 N 496.642 -0.504142 1.49319 0
M  V30 5212 C 497.572 -1.61473 1.68667 0
M  V30 5213 C 498.553 -1.61455 0.535378 0
M  V30 5214 O 499.738 -1.78245 0.770868 0
M  V30 5215 C 496.868 -2.99971 1.75028 0
M  V30 5216 C 495.822 -3.14854 2.89916 0
M  V30 5217 C 495.148 -4.54671 2.81387 0
M  V30 5218 C 496.448 -2.95176 4.30893 0
M  V30 5219 H 498.142 -1.45535 2.61648 0
M  V30 5220 H 495.688 -0.698711 1.25913 0
M  V30 5221 H 497.641 -3.77562 1.8715 0
M  V30 5222 H 496.365 -3.1699 0.786441 0
M  V30 5223 H 495.024 -2.39687 2.77391 0
M  V30 5224 H 494.672 -4.68562 1.82917 0
M  V30 5225 H 494.372 -4.6557 3.58494 0
M  V30 5226 H 495.896 -5.34327 2.95512 0
M  V30 5227 H 497.31 -3.62538 4.44116 0
M  V30 5228 H 495.707 -3.17549 5.09198 0
M  V30 5229 H 496.777 -1.91332 4.45556 0
M  V30 5230 N 498.12 -1.38341 -0.754957 0
M  V30 5231 C 499.05 -1.38176 -1.88227 0
M  V30 5232 C 500.031 -0.247873 -1.68284 0
M  V30 5233 O 501.216 -0.45075 -1.88896 0
M  V30 5234 C 498.346 -1.20471 -3.25736 0
M  V30 5235 C 497.3 -2.3105 -3.60278 0
M  V30 5236 C 496.626 -1.98452 -4.96509 0
M  V30 5237 C 497.926 -3.73305 -3.65295 0
M  V30 5238 H 499.62 -2.32512 -1.88622 0
M  V30 5239 H 497.166 -1.1192 -0.906082 0
M  V30 5240 H 499.119 -1.18982 -4.04254 0
M  V30 5241 H 497.843 -0.225965 -3.25817 0
M  V30 5242 H 496.502 -2.31723 -2.84078 0
M  V30 5243 H 496.15 -0.990641 -4.93148 0
M  V30 5244 H 495.85 -2.7251 -5.20588 0
M  V30 5245 H 497.374 -1.98578 -5.77407 0
M  V30 5246 H 498.788 -3.7467 -4.3393 0
M  V30 5247 H 497.185 -4.46557 -4.00883 0
M  V30 5248 H 498.255 -4.05719 -2.65556 0
M  V30 5249 N 499.598 0.982988 -1.23187 0
M  V30 5250 C 500.846 1.72052 -1.06031 0
M  V30 5251 C 501.167 1.90769 0.404019 0
M  V30 5252 O 500.437 1.47446 1.28982 0
M  V30 5253 H 499.017 0.637499 -0.389363 0
M  V30 5254 H 501.679 1.18338 -1.54862 0
M  V30 5255 H 500.775 2.7111 -1.54615 0
M  V30 5256 N 501.076 1.04316 1.18135 0
M  V30 5257 C 501.986 0.646876 2.25505 0
M  V30 5258 C 503.002 -0.328008 1.7088 0
M  V30 5259 O 504.178 -0.182309 2.00573 0
M  V30 5260 C 501.243 0.0185664 3.46695 0
M  V30 5261 C 500.304 1.04277 4.16443 0
M  V30 5262 C 499.537 0.444352 5.31847 0
M  V30 5263 O 499.76 -0.748735 5.65465 0
M  V30 5264 O 498.694 1.17428 5.90334 0
M  V30 5265 H 502.52 1.54147 2.61672 0
M  V30 5266 H 500.105 0.814188 1.25265 0
M  V30 5267 H 501.987 -0.331068 4.20097 0
M  V30 5268 H 500.662 -0.849814 3.12346 0
M  V30 5269 H 499.569 1.44425 3.45098 0
M  V30 5270 H 500.902 1.882 4.54798 0
M  V30 5271 N 502.554 -1.34406 0.822964 0
M  V30 5272 C 503.803 -1.97542 0.407458 0
M  V30 5273 C 504.116 -1.65973 -1.035 0
M  V30 5274 O 505.322 -2.22598 -1.55442 0
M  V30 5275 C 503.778 -3.53463 0.677623 0
M  V30 5276 C 503.386 -3.93925 2.1337 0
M  V30 5277 C 505.13 -4.23229 0.328284 0
M  V30 5278 C 503.037 -5.42759 2.34876 0
M  V30 5279 H 501.967 -0.739207 0.148623 0
M  V30 5280 H 504.618 -1.53248 1.00932 0
M  V30 5281 H 503 -3.96 0.00558965 0
M  V30 5282 H 504.174 -3.62494 2.8449 0
M  V30 5283 H 502.489 -3.37097 2.44448 0
M  V30 5284 H 505.086 -5.32659 0.466794 0
M  V30 5285 H 505.429 -4.09899 -0.727224 0
M  V30 5286 H 505.962 -3.86169 0.954896 0
M  V30 5287 H 502.701 -5.61075 3.38932 0
M  V30 5288 H 502.221 -5.75704 1.68299 0
M  V30 5289 H 503.9 -6.0944 2.17236 0
M  V30 5290 N 504.032 -0.577932 -1.46621 0
M  V30 5291 C 505.281 -0.0594281 -2.01612 0
M  V30 5292 C 505.594 1.30663 -1.45556 0
M  V30 5293 O 506.8 1.91621 -1.92337 0
M  V30 5294 C 505.256 -0.0556666 -3.59857 0
M  V30 5295 C 504.864 -1.41975 -4.24908 0
M  V30 5296 C 506.608 0.409143 -4.22524 0
M  V30 5297 C 504.515 -1.37397 -5.75218 0
M  V30 5298 H 503.445 -0.0184469 -0.753774 0
M  V30 5299 H 506.096 -0.728869 -1.68404 0
M  V30 5300 H 504.478 0.679843 -3.90121 0
M  V30 5301 H 505.652 -2.17461 -4.0626 0
M  V30 5302 H 503.967 -1.82419 -3.74316 0
M  V30 5303 H 506.564 0.46211 -5.32699 0
M  V30 5304 H 506.907 1.42565 -3.91128 0
M  V30 5305 H 507.44 -0.272152 -3.96868 0
M  V30 5306 H 504.179 -2.36714 -6.11267 0
M  V30 5307 H 503.699 -0.661239 -5.96144 0
M  V30 5308 H 505.378 -1.08484 -6.3784 0
M  V30 5309 N 505.51 1.54411 -0.315457 0
M  V30 5310 C 506.74 2.04536 0.291315 0
M  V30 5311 C 507.148 1.19162 1.4696 0
M  V30 5312 O 506.491 0.213199 1.82459 0
M  V30 5313 C 506.553 3.5056 0.796725 0
M  V30 5314 C 506.217 4.5627 -0.258178 0
M  V30 5315 C 507.214 5.08312 -1.09153 0
M  V30 5316 C 504.899 5.00672 -0.404036 0
M  V30 5317 C 506.893 6.03312 -2.05655 0
M  V30 5318 C 504.58 5.95488 -1.37248 0
M  V30 5319 C 505.578 6.46693 -2.19721 0
M  V30 5320 O 505.266 7.39648 -3.14921 0
M  V30 5321 H 504.998 0.672856 0.0651165 0
M  V30 5322 H 507.552 2.00244 -0.457308 0
M  V30 5323 H 505.782 3.52223 1.59612 0
M  V30 5324 H 507.471 3.83804 1.32096 0
M  V30 5325 H 508.237 4.74793 -0.98979 0
M  V30 5326 H 504.116 4.60436 0.22799 0
M  V30 5327 H 507.66 6.43203 -2.70067 0
M  V30 5328 H 503.557 6.28424 -1.47489 0
M  V30 5329 H 504.325 7.57496 -3.10067 0
M  V30 5330 N 506.988 0.0434614 1.5754 0
M  V30 5331 C 508.237 -0.631454 1.91561 0
M  V30 5332 C 508.55 -1.72457 0.92292 0
M  V30 5333 O 509.756 -2.45712 1.15489 0
M  V30 5334 C 508.212 -1.17447 3.40197 0
M  V30 5335 C 507.82 -0.113867 4.47855 0
M  V30 5336 C 509.564 -1.82507 3.83264 0
M  V30 5337 C 507.471 -0.669326 5.876 0
M  V30 5338 H 506.401 -0.239629 0.714908 0
M  V30 5339 H 509.052 0.111097 1.83163 0
M  V30 5340 H 507.434 -1.96909 3.43574 0
M  V30 5341 H 508.608 0.659348 4.56058 0
M  V30 5342 H 506.923 0.438821 4.14081 0
M  V30 5343 H 509.52 -2.25047 4.85034 0
M  V30 5344 H 509.863 -2.67365 3.19095 0
M  V30 5345 H 510.396 -1.09712 3.82372 0
M  V30 5346 H 507.135 0.141449 6.55347 0
M  V30 5347 H 506.655 -1.4107 5.82974 0
M  V30 5348 H 508.334 -1.15463 6.36614 0
M  V30 5349 N 508.466 -1.55915 -0.229846 0
M  V30 5350 C 509.712 -1.78807 -0.956868 0
M  V30 5351 C 510.045 -0.611687 -1.84315 0
M  V30 5352 O 509.32 0.389398 -1.90562 0
M  V30 5353 C 509.603 -3.11718 -1.80288 0
M  V30 5354 C 509.456 -4.3979 -0.943649 0
M  V30 5355 C 510.775 -3.40999 -2.78222 0
M  V30 5356 H 507.894 -0.6505 -0.346437 0
M  V30 5357 H 510.536 -1.88648 -0.226252 0
M  V30 5358 H 508.686 -3.03459 -2.42579 0
M  V30 5359 H 510.358 -4.60059 -0.338121 0
M  V30 5360 H 508.601 -4.33086 -0.248705 0
M  V30 5361 H 509.272 -5.29208 -1.5698 0
M  V30 5362 H 511.748 -3.49332 -2.26067 0
M  V30 5363 H 510.624 -4.35183 -3.34526 0
M  V30 5364 H 510.885 -2.62754 -3.55546 0
M  V30 5365 N 509.944 0.496216 -1.49584 0
M  V30 5366 C 510.874 1.60576 -1.69521 0
M  V30 5367 C 511.855 1.61169 -0.543933 0
M  V30 5368 O 513.04 1.77834 -0.78031 0
M  V30 5369 C 510.17 2.99038 -1.76616 0
M  V30 5370 C 509.124 3.13312 -2.91581 0
M  V30 5371 C 508.45 4.53172 -2.83794 0
M  V30 5372 C 509.75 2.92886 -4.32452 0
M  V30 5373 H 511.444 1.44146 -2.62416 0
M  V30 5374 H 508.99 0.692024 -1.26282 0
M  V30 5375 H 510.943 3.76564 -1.8915 0
M  V30 5376 H 509.667 3.16568 -0.80324 0
M  V30 5377 H 508.326 2.38213 -2.78658 0
M  V30 5378 H 507.974 4.67585 -1.854 0
M  V30 5379 H 507.674 4.63662 -3.60958 0
M  V30 5380 H 509.198 5.32752 -2.98342 0
M  V30 5381 H 510.612 3.60178 -4.46032 0
M  V30 5382 H 509.009 3.14844 -5.10875 0
M  V30 5383 H 510.079 1.88966 -4.46565 0
M  V30 5384 N 511.423 1.38739 0.74761 0
M  V30 5385 C 512.353 1.39173 1.87492 0
M  V30 5386 C 513.334 0.256794 1.6815 0
M  V30 5387 O 514.519 0.460762 1.88655 0
M  V30 5388 C 511.649 1.22197 3.25093 0
M  V30 5389 C 510.603 2.32957 3.59047 0
M  V30 5390 C 509.929 2.01082 4.95449 0
M  V30 5391 C 511.229 3.75237 3.6331 0
M  V30 5392 H 512.923 2.3351 1.87386 0
M  V30 5393 H 510.469 1.12399 0.900134 0
M  V30 5394 H 512.422 1.21124 4.03617 0
M  V30 5395 H 511.146 0.243241 3.25693 0
M  V30 5396 H 509.805 2.33226 2.82845 0
M  V30 5397 H 509.453 1.01678 4.92616 0
M  V30 5398 H 509.153 2.75267 5.19136 0
M  V30 5399 H 510.677 2.01638 5.76346 0
M  V30 5400 H 512.091 3.76966 4.31937 0
M  V30 5401 H 510.488 4.48677 3.98509 0
M  V30 5402 H 511.558 4.07122 2.634 0
M  V30 5403 N 512.901 -0.976442 1.23707 0
M  V30 5404 C 514.147 -1.72081 1.07312 0
M  V30 5405 C 514.48 -1.90275 -0.388476 0
M  V30 5406 O 513.755 -1.4579 -1.28746 0
M  V30 5407 C 514.038 -3.11675 1.80363 0
M  V30 5408 C 513.891 -3.01027 3.3422 0
M  V30 5409 C 515.21 -4.1117 1.5693 0
M  V30 5410 H 512.329 -0.624583 0.391236 0
M  V30 5411 H 514.971 -1.13649 1.52263 0
M  V30 5412 H 513.121 -3.61559 1.42153 0
M  V30 5413 H 514.793 -2.58637 3.81975 0
M  V30 5414 H 513.036 -2.3744 3.63049 0
M  V30 5415 H 513.707 -3.9988 3.80525 0
M  V30 5416 H 516.183 -3.7011 1.90151 0
M  V30 5417 H 515.059 -5.06928 2.10513 0
M  V30 5418 H 515.32 -4.392 0.505548 0
M  V30 5419 N 514.379 -1.04941 -1.1758 0
M  V30 5420 C 515.309 -0.669172 -2.23706 0
M  V30 5421 C 516.29 0.331835 -1.66832 0
M  V30 5422 O 517.475 0.209988 -1.93061 0
M  V30 5423 C 514.605 -0.0404889 -3.47276 0
M  V30 5424 C 513.559 -0.965983 -4.16957 0
M  V30 5425 C 512.885 -0.201312 -5.34321 0
M  V30 5426 C 514.185 -2.28902 -4.69469 0
M  V30 5427 H 515.879 -1.55639 -2.55767 0
M  V30 5428 H 513.425 -0.749793 -1.22939 0
M  V30 5429 H 515.378 0.237298 -4.20731 0
M  V30 5430 H 514.102 0.881658 -3.14475 0
M  V30 5431 H 512.761 -1.22829 -3.45411 0
M  V30 5432 H 512.409 0.723519 -4.97769 0
M  V30 5433 H 512.109 -0.817968 -5.81879 0
M  V30 5434 H 513.633 0.0692499 -6.10561 0
M  V30 5435 H 515.047 -2.07132 -5.34574 0
M  V30 5436 H 513.444 -2.85942 -5.27596 0
M  V30 5437 H 514.514 -2.92937 -3.86414 0
M  V30 5438 N 515.857 1.33968 -0.830081 0
M  V30 5439 C 517.134 1.92554 -0.343858 0
M  V30 5440 C 517.514 1.7573 1.16971 0
M  V30 5441 O 516.862 1.14035 1.98011 0
M  V30 5442 C 517.072 3.40147 -0.781073 0
M  V30 5443 C 518.42 4.17299 -0.78402 0
M  V30 5444 O 519.444 3.48762 -0.724112 0
M  V30 5445 O 518.303 5.39631 -0.863739 0
M  V30 5446 H 515.397 0.821469 -0.0954827 0
M  V30 5447 H 517.943 1.42897 -0.915348 0
M  V30 5448 H 516.715 3.46225 -1.82329 0
M  V30 5449 H 516.338 3.97166 -0.18567 0
M  V30 5450 N 517.335 0.585699 1.46312 0
M  V30 5451 C 518.563 0.0781299 2.06752 0
M  V30 5452 C 518.978 -1.22812 1.43396 0
M  V30 5453 O 518.335 -1.74318 0.540314 0
M  V30 5454 C 518.386 -0.0911927 3.61385 0
M  V30 5455 O 518.107 1.16336 4.22371 0
M  V30 5456 C 519.608 -0.632765 4.38761 0
M  V30 5457 H 516.828 0.0588188 0.668417 0
M  V30 5458 H 519.372 0.807218 1.87894 0
M  V30 5459 H 517.527 -0.770514 3.7966 0
M  V30 5460 H 517.941 0.979082 5.15281 0
M  V30 5461 H 519.415 -0.70041 5.47538 0
M  V30 5462 H 519.892 -1.65039 4.07012 0
M  V30 5463 H 520.498 0.0117856 4.25298 0
M  V30 5464 N 518.813 -1.54241 0.323641 0
M  V30 5465 C 520.059 -2.00867 -0.279323 0
M  V30 5466 C 520.392 -1.21146 -1.5178 0
M  V30 5467 O 519.667 -0.29378 -1.92269 0
M  V30 5468 C 519.95 -3.54837 -0.613387 0
M  V30 5469 C 519.803 -4.45284 0.635803 0
M  V30 5470 C 521.122 -4.16186 -1.43099 0
M  V30 5471 H 518.241 -0.730177 -0.100049 0
M  V30 5472 H 520.883 -1.84829 0.440235 0
M  V30 5473 H 519.033 -3.68634 -1.22641 0
M  V30 5474 H 520.705 -4.43357 1.27406 0
M  V30 5475 H 518.948 -4.14956 1.26466 0
M  V30 5476 H 519.619 -5.5084 0.357597 0
M  V30 5477 H 522.095 -4.05964 -0.912814 0
M  V30 5478 H 520.971 -5.24031 -1.6335 0
M  V30 5479 H 521.232 -3.69516 -2.42715 0
M  V30 5480 N 520.291 -0.0518155 -1.57515 0
M  V30 5481 C 521.539 0.620595 -1.92336 0
M  V30 5482 C 521.86 1.71345 -0.930907 0
M  V30 5483 O 521.13 1.95885 0.0241341 0
M  V30 5484 H 519.71 0.232226 -0.709986 0
M  V30 5485 H 522.372 -0.104969 -1.94617 0
M  V30 5486 H 521.468 1.05879 -2.93592 0
M  V30 5487 N 521.769 1.56035 0.221574 0
M  V30 5488 C 522.732 1.91584 1.2581 0
M  V30 5489 C 523.732 0.794425 1.39805 0
M  V30 5490 O 524.922 1.06217 1.38071 0
M  V30 5491 C 522.054 2.16663 2.63192 0
M  V30 5492 H 523.247 2.8429 0.954935 0
M  V30 5493 H 520.8 1.49316 0.461988 0
M  V30 5494 H 521.535 1.26508 2.98607 0
M  V30 5495 H 521.32 2.98358 2.5441 0
M  V30 5496 H 522.81 2.45262 3.37988 0
M  V30 5497 N 523.247 -0.488276 1.49845 0
M  V30 5498 C 524.495 -1.23911 1.59657 0
M  V30 5499 C 524.816 -1.92816 0.291005 0
M  V30 5500 O 524.086 -1.83328 -0.690485 0
M  V30 5501 H 522.666 -0.460357 0.588286 0
M  V30 5502 H 525.328 -0.564794 1.86537 0
M  V30 5503 H 524.424 -1.99625 2.39909 0
M  V30 5504 N 524.725 -1.39134 -0.740242 0
M  V30 5505 C 525.673 -1.3757 -1.87556 0
M  V30 5506 C 526.667 -0.259593 -1.67399 0
M  V30 5507 O 527.873 -0.429349 -1.74804 0
M  V30 5508 H 524.248 -0.42947 -0.6173 0
M  V30 5509 H 526.219 -2.33345 -1.85991 0
M  V30 5510 C 524.968 -1.23087 -3.25184 0
M  V30 5511 H 524.291 -2.08237 -3.41288 0
M  V30 5512 H 525.731 -1.26049 -4.0483 0
M  V30 5513 C 524.19 0.0611471 -3.36845 0
M  V30 5514 O 524.72 1.03328 -3.88183 0
M  V30 5515 N 522.926 0.122454 -2.90342 0
M  V30 5516 H 522.473 -0.669329 -2.48752 0
M  V30 5517 H 522.431 0.986463 -2.98523 0
M  V30 5518 N 526.204 0.969867 -1.24223 0
M  V30 5519 C 527.452 1.70918 -1.0785 0
M  V30 5520 C 527.773 1.91186 0.383763 0
M  V30 5521 O 527.043 1.48806 1.27411 0
M  V30 5522 H 525.623 0.633334 -0.396103 0
M  V30 5523 H 528.285 1.16689 -1.56108 0
M  V30 5524 H 527.381 2.69455 -1.57482 0
M  V30 5525 N 527.682 1.05563 1.17022 0
M  V30 5526 C 528.615 0.604197 2.20056 0
M  V30 5527 C 529.593 -0.369169 1.58354 0
M  V30 5528 O 530.777 -0.279898 1.8641 0
M  V30 5529 C 527.904 -0.115265 3.38504 0
M  V30 5530 C 526.95 0.813698 4.18666 0
M  V30 5531 S 527.783 2.30492 4.83357 0
M  V30 5532 C 528.939 1.59674 6.0519 0
M  V30 5533 H 529.172 1.47713 2.58008 0
M  V30 5534 H 526.705 0.867932 1.27696 0
M  V30 5535 H 528.663 -0.524162 4.0714 0
M  V30 5536 H 527.324 -0.964284 2.98932 0
M  V30 5537 H 526.517 0.256736 5.03346 0
M  V30 5538 H 526.119 1.16213 3.55486 0
M  V30 5539 H 528.411 0.898164 6.7152 0
M  V30 5540 H 529.354 2.42115 6.65422 0
M  V30 5541 H 529.762 1.08252 5.54023 0
M  V30 5542 N 529.16 -1.33526 0.837174 0
M  V30 5543 C 530.409 -1.97098 0.428387 0
M  V30 5544 C 530.722 -1.67062 -1.01734 0
M  V30 5545 O 531.928 -2.24235 -1.53072 0
M  V30 5546 C 530.384 -3.52725 0.715075 0
M  V30 5547 C 529.992 -3.9164 2.17537 0
M  V30 5548 C 531.736 -4.22857 0.373154 0
M  V30 5549 C 529.643 -5.40237 2.40619 0
M  V30 5550 H 528.573 -0.737589 0.156455 0
M  V30 5551 H 531.224 -1.52169 1.02552 0
M  V30 5552 H 529.606 -3.95971 0.0475904 0
M  V30 5553 H 530.78 -3.59456 2.88319 0
M  V30 5554 H 529.095 -3.34485 2.4801 0
M  V30 5555 H 531.692 -5.32133 0.523264 0
M  V30 5556 H 532.035 -4.10647 -0.683708 0
M  V30 5557 H 532.568 -3.85135 0.995801 0
M  V30 5558 H 529.307 -5.57449 3.44864 0
M  V30 5559 H 528.827 -5.73887 1.74396 0
M  V30 5560 H 530.506 -6.07102 2.23688 0
M  V30 5561 N 530.638 -0.59345 -1.46 0
M  V30 5562 C 531.886 -0.082988 -2.0193 0
M  V30 5563 C 532.207 1.28569 -1.46612 0
M  V30 5564 O 531.477 1.84629 -0.654909 0
M  V30 5565 H 530.057 -0.0276882 -0.746487 0
M  V30 5566 H 532.719 -0.771657 -1.78973 0
M  V30 5567 H 531.815 -0.022079 -3.12092 0
M  V30 5568 N 532.116 1.54067 -0.331816 0
M  V30 5569 C 533.363 2.00715 0.268269 0
M  V30 5570 C 533.691 1.21986 1.51491 0
M  V30 5571 O 532.946 0.292309 1.93505 0
M  V30 5572 C 533.245 3.51634 0.639392 0
M  V30 5573 C 532.911 4.48018 -0.509019 0
M  V30 5574 C 531.573 4.74089 -0.824209 0
M  V30 5575 C 533.925 5.05237 -1.28003 0
M  V30 5576 C 531.253 5.54637 -1.91298 0
M  V30 5577 C 533.605 5.86972 -2.35895 0
M  V30 5578 C 532.269 6.11342 -2.67987 0
M  V30 5579 H 531.539 0.734469 0.0981667 0
M  V30 5580 H 534.186 1.8596 -0.457304 0
M  V30 5581 H 532.491 3.6416 1.44551 0
M  V30 5582 H 534.188 3.85175 1.11539 0
M  V30 5583 H 530.778 4.27851 -0.253287 0
M  V30 5584 H 534.962 4.8507 -1.04978 0
M  V30 5585 H 530.218 5.71747 -2.16599 0
M  V30 5586 H 534.392 6.30327 -2.96076 0
M  V30 5587 H 532.019 6.73544 -3.5248 0
M  V30 5588 N 533.594 0.0601682 1.57485 0
M  V30 5589 C 534.526 -0.94047 2.09016 0
M  V30 5590 C 535.539 -1.26897 1.01985 0
M  V30 5591 O 536.728 -1.22819 1.29529 0
M  V30 5592 C 533.828 -2.25955 2.52582 0
M  V30 5593 C 533.001 -2.11163 3.83052 0
M  V30 5594 C 532.06 -3.26273 4.12835 0
M  V30 5595 O 531.086 -3.01779 4.82616 0
M  V30 5596 N 532.288 -4.51022 3.65458 0
M  V30 5597 H 535.053 -0.500578 2.9549 0
M  V30 5598 H 532.614 -0.125852 1.6141 0
M  V30 5599 H 534.606 -3.01846 2.69575 0
M  V30 5600 H 533.176 -2.61481 1.71308 0
M  V30 5601 H 532.396 -1.19808 3.75552 0
M  V30 5602 H 533.684 -1.98517 4.68475 0
M  V30 5603 H 533.082 -4.73811 3.09062 0
M  V30 5604 H 531.639 -5.23978 3.87673 0
M  V30 5605 N 535.072 -1.5615 -0.213296 0
M  V30 5606 C 536.318 -1.79812 -0.937849 0
M  V30 5607 C 536.651 -0.631201 -1.83656 0
M  V30 5608 O 535.926 0.369165 -1.90964 0
M  V30 5609 C 536.209 -3.13613 -1.76972 0
M  V30 5610 C 536.062 -4.40766 -0.89695 0
M  V30 5611 C 537.381 -3.43931 -2.7459 0
M  V30 5612 H 534.5 -0.654138 -0.339518 0
M  V30 5613 H 537.142 -1.88877 -0.20623 0
M  V30 5614 H 535.292 -3.06015 -2.39347 0
M  V30 5615 H 536.964 -4.60392 -0.289306 0
M  V30 5616 H 535.207 -4.33326 -0.202756 0
M  V30 5617 H 535.878 -5.30843 -1.51358 0
M  V30 5618 H 538.354 -3.5171 -2.22349 0
M  V30 5619 H 537.23 -4.38706 -3.29891 0
M  V30 5620 H 537.491 -2.6651 -3.52739 0
M  V30 5621 N 536.55 0.480323 -1.50102 0
M  V30 5622 C 537.48 1.58769 -1.71215 0
M  V30 5623 C 538.461 1.60583 -0.560997 0
M  V30 5624 O 539.646 1.76996 -0.799127 0
M  V30 5625 C 536.776 2.97148 -1.79778 0
M  V30 5626 C 535.73 3.10201 -2.94888 0
M  V30 5627 C 535.056 4.50137 -2.88584 0
M  V30 5628 C 536.356 2.88283 -4.35534 0
M  V30 5629 H 538.05 1.41354 -2.6393 0
M  V30 5630 H 535.596 0.678591 -1.27008 0
M  V30 5631 H 537.549 3.74536 -1.93133 0
M  V30 5632 H 536.273 3.15699 -0.836772 0
M  V30 5633 H 534.932 2.35244 -2.81169 0
M  V30 5634 H 534.58 4.65593 -1.90349 0
M  V30 5635 H 534.28 4.59808 -3.65856 0
M  V30 5636 H 535.804 5.29558 -3.03976 0
M  V30 5637 H 537.218 3.55427 -4.49827 0
M  V30 5638 H 535.615 3.09408 -5.14186 0
M  V30 5639 H 536.685 1.84219 -4.48544 0
M  V30 5640 N 538.028 1.39524 0.732853 0
M  V30 5641 C 538.958 1.41153 1.86005 0
M  V30 5642 C 539.939 0.274614 1.67869 0
M  V30 5643 O 541.124 0.480745 1.88155 0
M  V30 5644 C 538.254 1.25638 3.23778 0
M  V30 5645 C 537.208 2.36752 3.56556 0
M  V30 5646 C 536.534 2.06326 4.93289 0
M  V30 5647 C 537.834 3.79069 3.5931 0
M  V30 5648 H 539.528 2.35484 1.84899 0
M  V30 5649 H 537.074 1.13348 0.888162 0
M  V30 5650 H 539.027 1.25398 4.0231 0
M  V30 5651 H 537.751 0.277772 3.25417 0
M  V30 5652 H 536.41 2.36213 2.80355 0
M  V30 5653 H 536.058 1.06897 4.9151 0
M  V30 5654 H 535.758 2.80757 5.16187 0
M  V30 5655 H 537.282 2.07739 5.74175 0
M  V30 5656 H 538.696 3.81526 4.27914 0
M  V30 5657 H 537.093 4.52878 3.93728 0
M  V30 5658 H 538.163 4.09893 2.59068 0
M  V30 5659 N 539.506 -0.963266 1.24736 0
M  V30 5660 C 540.731 -1.74699 1.11781 0
M  V30 5661 C 541.156 -1.85267 -0.325258 0
M  V30 5662 O 540.514 -1.32681 -1.23553 0
M  V30 5663 C 540.562 -3.14322 1.76731 0
M  V30 5664 O 539.666 -3.99043 1.04109 0
M  V30 5665 H 539.007 -0.53684 0.390767 0
M  V30 5666 H 541.537 -1.20801 1.65131 0
M  V30 5667 H 541.547 -3.64824 1.82668 0
M  V30 5668 H 540.222 -3.05946 2.81726 0
M  V30 5669 H 538.799 -3.5752 1.05991 0
M  V30 5670 N 540.985 -1.06182 -1.16461 0
M  V30 5671 C 542.234 -0.772927 -1.86303 0
M  V30 5672 C 542.547 0.703187 -1.82523 0
M  V30 5673 O 543.753 1.10641 -2.47933 0
M  V30 5674 C 542.209 -1.33249 -3.34324 0
M  V30 5675 C 541.817 -2.83876 -3.46581 0
M  V30 5676 C 543.561 -1.12108 -4.09429 0
M  V30 5677 C 541.468 -3.33082 -4.88682 0
M  V30 5678 H 540.398 -0.285452 -0.697878 0
M  V30 5679 H 543.049 -1.28039 -1.31447 0
M  V30 5680 H 541.431 -0.7528 -3.88779 0
M  V30 5681 H 542.605 -3.47786 -3.02293 0
M  V30 5682 H 540.92 -3.03671 -2.84909 0
M  V30 5683 H 543.517 -1.46361 -5.14279 0
M  V30 5684 H 543.86 -0.0593832 -4.16258 0
M  V30 5685 H 544.393 -1.6665 -3.6121 0
M  V30 5686 H 541.132 -4.38726 -4.87032 0
M  V30 5687 H 540.652 -2.73919 -5.33599 0
M  V30 5688 H 542.331 -3.28344 -5.57494 0
M  V30 5689 N 542.463 1.3308 -0.844243 0
M  V30 5690 C 543.711 1.97215 -0.441676 0
M  V30 5691 C 544.032 1.67185 1.0037 0
M  V30 5692 O 543.302 0.973588 1.69994 0
M  V30 5693 H 541.882 0.72959 -0.160335 0
M  V30 5694 H 544.544 1.62348 -1.07838 0
M  V30 5695 H 543.64 3.06698 -0.57815 0
M  V30 5696 N 543.941 0.601185 1.45683 0
M  V30 5697 C 544.851 -0.123395 2.34275 0
M  V30 5698 C 545.867 -0.86702 1.5086 0
M  V30 5699 O 547.043 -0.826049 1.8368 0
M  V30 5700 C 544.108 -1.11237 3.2837 0
M  V30 5701 C 543.169 -0.371405 4.2769 0
M  V30 5702 C 542.402 -1.31327 5.1729 0
M  V30 5703 O 542.625 -2.55078 5.10188 0
M  V30 5704 O 541.559 -0.813811 5.96373 0
M  V30 5705 H 545.385 0.604483 2.97623 0
M  V30 5706 H 542.97 0.361477 1.44961 0
M  V30 5707 H 544.852 -1.68214 3.8637 0
M  V30 5708 H 543.527 -1.82139 2.67595 0
M  V30 5709 H 542.434 0.24067 3.73325 0
M  V30 5710 H 543.767 0.296998 4.91303 0
M  V30 5711 N 545.419 -1.53889 0.339982 0
M  V30 5712 C 546.349 -2.27843 -0.510856 0
M  V30 5713 C 547.33 -1.29267 -1.10563 0
M  V30 5714 O 548.515 -1.58104 -1.12768 0
M  V30 5715 C 545.645 -3.04857 -1.66372 0
M  V30 5716 C 544.599 -4.10907 -1.19746 0
M  V30 5717 C 543.925 -4.75855 -2.43857 0
M  V30 5718 C 545.225 -5.21435 -0.300501 0
M  V30 5719 H 546.919 -2.99212 0.106067 0
M  V30 5720 H 544.465 -1.43904 0.0524533 0
M  V30 5721 H 546.418 -3.5533 -2.26537 0
M  V30 5722 H 545.142 -2.31133 -2.30749 0
M  V30 5723 H 543.801 -3.61342 -0.618654 0
M  V30 5724 H 543.449 -3.9873 -3.06633 0
M  V30 5725 H 543.149 -5.47502 -2.13343 0
M  V30 5726 H 544.673 -5.2911 -3.04754 0
M  V30 5727 H 546.087 -5.67565 -0.80889 0
M  V30 5728 H 544.484 -6.00036 -0.0874076 0
M  V30 5729 H 545.554 -4.80328 0.664321 0
M  V30 5730 N 546.897 -0.0685191 -1.57451 0
M  V30 5731 C 548.122 0.613919 -1.98106 0
M  V30 5732 C 548.547 1.62551 -0.946501 0
M  V30 5733 O 547.905 1.81085 0.0882824 0
M  V30 5734 C 547.953 1.26189 -3.378 0
M  V30 5735 O 547.057 2.37773 -3.36954 0
M  V30 5736 H 546.398 0.158163 -0.644888 0
M  V30 5737 H 548.928 -0.142063 -2.04106 0
M  V30 5738 H 548.938 1.60951 -3.74912 0
M  V30 5739 H 547.613 0.520625 -4.12629 0
M  V30 5740 H 546.19 2.04829 -3.11608 0
M  V30 5741 N 548.375 1.56261 0.205012 0
M  V30 5742 C 549.305 1.96779 1.257 0
M  V30 5743 C 550.286 0.838309 1.48008 0
M  V30 5744 O 551.471 1.10189 1.59913 0
M  V30 5745 C 548.601 2.29876 2.60335 0
M  V30 5746 C 547.555 3.45469 2.52656 0
M  V30 5747 C 546.881 3.64215 3.91473 0
M  V30 5748 C 548.181 4.79954 2.06014 0
M  V30 5749 H 549.875 2.84904 0.920338 0
M  V30 5750 H 547.421 1.37072 0.441277 0
M  V30 5751 H 549.374 2.56814 3.34102 0
M  V30 5752 H 548.098 1.38622 2.95722 0
M  V30 5753 H 546.757 3.18605 1.81345 0
M  V30 5754 H 546.405 2.70309 4.24196 0
M  V30 5755 H 546.105 4.41973 3.87213 0
M  V30 5756 H 547.629 3.93519 4.66878 0
M  V30 5757 H 549.043 5.05989 2.69533 0
M  V30 5758 H 547.44 5.61111 2.12777 0
M  V30 5759 H 548.51 4.74201 1.01297 0
M  V30 5760 N 549.853 -0.472356 1.50355 0
M  V30 5761 C 550.816 -1.5529 1.68576 0
M  V30 5762 C 551.816 -1.50863 0.556511 0
M  V30 5763 O 553.006 -1.53505 0.823516 0
M  V30 5764 C 550.138 -2.94921 1.70981 0
M  V30 5765 H 551.331 -1.40451 2.64978 0
M  V30 5766 H 548.884 -0.698645 1.39816 0
M  V30 5767 H 549.619 -3.15204 0.762675 0
M  V30 5768 H 549.404 -2.99541 2.53017 0
M  V30 5769 H 550.894 -3.73372 1.87037 0
M  V30 5770 N 551.331 -1.39911 -0.725443 0
M  V30 5771 C 552.58 -1.36963 -1.48068 0
M  V30 5772 C 552.893 0.0284478 -1.95579 0
M  V30 5773 O 554.099 0.180535 -2.70899 0
M  V30 5774 C 552.555 -2.40664 -2.67598 0
M  V30 5775 C 552.163 -3.86234 -2.26997 0
M  V30 5776 C 553.907 -2.46807 -3.45379 0
M  V30 5777 C 551.814 -4.81554 -3.43307 0
M  V30 5778 H 550.744 -0.509223 -0.556065 0
M  V30 5779 H 553.395 -1.65602 -0.790454 0
M  V30 5780 H 551.777 -2.05109 -3.38742 0
M  V30 5781 H 552.951 -4.3088 -1.63337 0
M  V30 5782 H 551.266 -3.83475 -1.62284 0
M  V30 5783 H 553.863 -3.15213 -4.31909 0
M  V30 5784 H 554.206 -1.49552 -3.8851 0
M  V30 5785 H 554.739 -2.81303 -2.81271 0
M  V30 5786 H 551.478 -5.80106 -3.05217 0
M  V30 5787 H 550.998 -4.4158 -4.05915 0
M  V30 5788 H 552.677 -5.0091 -4.0951 0
M  V30 5789 N 552.809 0.956637 -1.25245 0
M  V30 5790 C 554.055 1.70352 -1.10036 0
M  V30 5791 C 554.388 1.90869 0.358156 0
M  V30 5792 O 553.663 1.47819 1.26411 0
M  V30 5793 C 553.946 3.08766 -1.85298 0
M  V30 5794 C 553.799 2.95672 -3.38966 0
M  V30 5795 C 555.118 4.08622 -1.63451 0
M  V30 5796 H 552.237 0.618279 -0.401123 0
M  V30 5797 H 554.879 1.11212 -1.54051 0
M  V30 5798 H 553.029 3.59252 -1.47887 0
M  V30 5799 H 554.701 2.52527 -3.86041 0
M  V30 5800 H 552.944 2.31634 -3.6678 0
M  V30 5801 H 553.615 3.93776 -3.86839 0
M  V30 5802 H 556.091 3.67038 -1.96015 0
M  V30 5803 H 554.967 5.03514 -2.18551 0
M  V30 5804 H 555.228 4.3834 -0.575357 0
M  V30 5805 N 554.287 1.06798 1.15896 0
M  V30 5806 C 555.536 0.782796 1.8589 0
M  V30 5807 C 555.849 -0.693498 1.82893 0
M  V30 5808 O 557.055 -1.09325 2.48516 0
M  V30 5809 C 555.511 1.3502 3.33613 0
M  V30 5810 C 555.119 2.8571 3.45071 0
M  V30 5811 C 556.863 1.14278 4.08829 0
M  V30 5812 C 554.77 3.35669 4.86909 0
M  V30 5813 H 553.7 0.289149 0.696354 0
M  V30 5814 H 556.351 1.28734 1.30766 0
M  V30 5815 H 554.733 0.773407 3.88374 0
M  V30 5816 H 555.907 3.49385 3.00445 0
M  V30 5817 H 554.222 3.05178 2.83294 0
M  V30 5818 H 556.819 1.49087 5.13495 0
M  V30 5819 H 557.162 0.0814575 4.1622 0
M  V30 5820 H 557.695 1.68563 3.60321 0
M  V30 5821 H 554.434 4.41302 4.84698 0
M  V30 5822 H 553.954 2.76745 5.32139 0
M  V30 5823 H 555.633 3.31296 5.55745 0
M  V30 5824 N 555.766 -1.3263 0.851289 0
M  V30 5825 C 556.729 -2.27247 0.298541 0
M  V30 5826 C 557.729 -1.51467 -0.539847 0
M  V30 5827 O 558.919 -1.7061 -0.351843 0
M  V30 5828 C 556.051 -3.35964 -0.578004 0
M  V30 5829 H 557.244 -2.7765 1.13359 0
M  V30 5830 H 554.797 -1.43245 0.625354 0
M  V30 5831 H 555.532 -2.90823 -1.435 0
M  V30 5832 H 555.317 -3.92094 0.0220539 0
M  V30 5833 H 556.807 -4.06472 -0.957626 0
M  V30 5834 N 557.244 -0.608902 -1.45362 0
M  V30 5835 C 558.174 0.0964526 -2.33301 0
M  V30 5836 C 559.155 0.857444 -1.46908 0
M  V30 5837 O 560.34 0.827735 -1.75676 0
M  V30 5838 C 557.47 1.09354 -3.29635 0
M  V30 5839 C 556.424 0.445676 -4.25673 0
M  V30 5840 C 555.75 1.5511 -5.11708 0
M  V30 5841 C 557.05 -0.633972 -5.18438 0
M  V30 5842 H 558.744 -0.637829 -2.92527 0
M  V30 5843 H 556.29 -0.308178 -1.40664 0
M  V30 5844 H 558.243 1.59556 -3.90025 0
M  V30 5845 H 556.967 1.85843 -2.6857 0
M  V30 5846 H 555.626 -0.0354897 -3.66583 0
M  V30 5847 H 555.274 2.30631 -4.4701 0
M  V30 5848 H 554.974 1.12311 -5.76767 0
M  V30 5849 H 556.498 2.05537 -5.74967 0
M  V30 5850 H 557.912 -0.215974 -5.72893 0
M  V30 5851 H 556.309 -0.983789 -5.91981 0
M  V30 5852 H 557.379 -1.51005 -4.60788 0
M  V30 5853 N 558.722 1.53707 -0.348139 0
M  V30 5854 C 559.95 2.05406 0.248224 0
M  V30 5855 C 560.365 1.22282 1.43849 0
M  V30 5856 O 559.722 0.259244 1.80649 0
M  V30 5857 C 559.773 3.55446 0.658793 0
M  V30 5858 O 559.494 4.35417 -0.484149 0
M  V30 5859 C 560.995 4.23335 1.31539 0
M  V30 5860 H 558.215 0.669344 0.0471075 0
M  V30 5861 H 560.759 1.98257 -0.501456 0
M  V30 5862 H 558.914 3.62803 1.35841 0
M  V30 5863 H 559.328 5.24268 -0.155949 0
M  V30 5864 H 560.802 5.29692 1.55338 0
M  V30 5865 H 561.279 3.75967 2.27036 0
M  V30 5866 H 561.885 4.20184 0.657683 0
M  V30 5867 N 560.2 0.0768682 1.57412 0
M  V30 5868 C 561.425 -0.603404 1.98428 0
M  V30 5869 C 561.85 -1.62047 0.955108 0
M  V30 5870 O 561.208 -1.81129 -0.0786778 0
M  V30 5871 C 561.256 -1.24396 3.38464 0
M  V30 5872 O 560.36 -2.35982 3.3821 0
M  V30 5873 H 559.701 -0.154741 0.645718 0
M  V30 5874 H 562.231 0.152885 2.04028 0
M  V30 5875 H 562.241 -1.5896 3.7576 0
M  V30 5876 H 560.916 -0.498735 4.12899 0
M  V30 5877 H 559.493 -2.03173 3.1269 0
M  V30 5878 N 561.678 -1.56367 -0.196722 0
M  V30 5879 C 562.926 -1.80172 -0.915554 0
M  V30 5880 C 563.247 -0.649649 -1.8386 0
M  V30 5881 O 562.517 0.332111 -1.93064 0
M  V30 5882 H 561.097 -0.664592 -0.341067 0
M  V30 5883 H 563.759 -1.93844 -0.202622 0
M  V30 5884 H 562.855 -2.7327 -1.50764 0
M  V30 5885 N 563.156 0.464375 -1.50603 0
M  V30 5886 C 564.086 1.56944 -1.72889 0
M  V30 5887 C 565.067 1.59979 -0.577997 0
M  V30 5888 O 566.252 1.76138 -0.817855 0
M  V30 5889 C 563.382 2.95225 -1.8292 0
M  V30 5890 C 562.336 3.07056 -2.98162 0
M  V30 5891 C 561.662 4.47051 -2.93343 0
M  V30 5892 C 562.962 2.83648 -4.38567 0
M  V30 5893 H 564.656 1.38547 -2.65415 0
M  V30 5894 H 562.202 0.665082 -1.27721 0
M  V30 5895 H 564.155 3.72467 -1.97095 0
M  V30 5896 H 562.879 3.14793 -0.870209 0
M  V30 5897 H 561.538 2.32248 -2.83648 0
M  V30 5898 H 561.186 4.63547 -1.95276 0
M  V30 5899 H 560.886 4.55902 -3.70712 0
M  V30 5900 H 562.41 5.26304 -3.09575 0
M  V30 5901 H 563.824 3.50636 -4.53572 0
M  V30 5902 H 562.221 3.03937 -5.17438 0
M  V30 5903 H 563.291 1.79451 -4.50472 0
M  V30 5904 N 564.634 1.40294 0.718013 0
M  V30 5905 C 565.564 1.43118 1.84498 0
M  V30 5906 C 566.545 0.292403 1.67568 0
M  V30 5907 O 567.73 0.500675 1.87635 0
M  V30 5908 C 564.86 1.29065 3.22427 0
M  V30 5909 C 563.814 2.40521 3.54025 0
M  V30 5910 C 563.14 2.11546 4.91073 0
M  V30 5911 C 564.44 3.82859 3.55269 0
M  V30 5912 H 566.134 2.37432 1.82391 0
M  V30 5913 H 563.68 1.14283 0.87609 0
M  V30 5914 H 565.633 1.29658 4.00957 0
M  V30 5915 H 564.357 0.312271 3.25104 0
M  V30 5916 H 563.016 2.39173 2.77834 0
M  V30 5917 H 562.664 1.12104 4.90348 0
M  V30 5918 H 562.364 2.86216 5.1318 0
M  V30 5919 H 563.888 2.13817 5.71939 0
M  V30 5920 H 565.302 3.86044 4.23843 0
M  V30 5921 H 563.699 4.57029 3.88902 0
M  V30 5922 H 564.769 4.12617 2.54706 0
M  V30 5923 N 566.112 -0.949982 1.2575 0
M  V30 5924 C 567.34 -1.72972 1.13527 0
M  V30 5925 C 567.755 -1.8623 -0.310453 0
M  V30 5926 O 567.112 -1.36336 -1.2132 0
M  V30 5927 C 567.163 -3.14108 1.78936 0
M  V30 5928 O 566.884 -3.01493 3.17858 0
M  V30 5929 C 568.385 -4.08338 1.72554 0
M  V30 5930 H 565.605 -0.541864 0.395758 0
M  V30 5931 H 568.149 -1.19151 1.66202 0
M  V30 5932 H 566.304 -3.64858 1.30221 0
M  V30 5933 H 566.718 -3.90559 3.50092 0
M  V30 5934 H 568.192 -5.04963 2.22973 0
M  V30 5935 H 568.669 -4.33742 0.690251 0
M  V30 5936 H 569.275 -3.63506 2.2078 0
M  V30 5937 N 567.59 -1.07411 -1.15328 0
M  V30 5938 C 568.838 -0.796073 -1.85761 0
M  V30 5939 C 569.159 0.679864 -1.82764 0
M  V30 5940 O 568.429 1.49242 -1.269 0
M  V30 5941 H 567.009 -0.291495 -0.687779 0
M  V30 5942 H 569.671 -1.35799 -1.39802 0
M  V30 5943 H 568.767 -1.13114 -2.90881 0
M  V30 5944 N 569.068 1.32177 -0.85831 0
M  V30 5945 C 569.998 2.31282 -0.321041 0
M  V30 5946 C 570.979 1.59841 0.581786 0
M  V30 5947 O 572.164 1.87619 0.501262 0
M  V30 5948 C 569.294 3.4385 0.48832 0
M  V30 5949 C 568.248 4.26799 -0.320391 0
M  V30 5950 C 567.574 5.31164 0.613934 0
M  V30 5951 C 568.874 4.98829 -1.54813 0
M  V30 5952 H 570.568 2.76469 -1.14915 0
M  V30 5953 H 568.114 1.32916 -0.554028 0
M  V30 5954 H 570.067 4.12224 0.874626 0
M  V30 5955 H 568.791 2.97401 1.34983 0
M  V30 5956 H 567.45 3.60077 -0.688497 0
M  V30 5957 H 567.098 4.80967 1.47239 0
M  V30 5958 H 566.798 5.8755 0.0768097 0
M  V30 5959 H 568.322 6.024 0.997336 0
M  V30 5960 H 569.736 5.59864 -1.23392 0
M  V30 5961 H 568.133 5.64957 -2.02346 0
M  V30 5962 H 569.203 4.26483 -2.30739 0
M  V30 5963 N 570.547 0.616602 1.45037 0
M  V30 5964 C 571.477 -0.0840787 2.33349 0
M  V30 5965 C 572.458 -0.849641 1.4736 0
M  V30 5966 O 573.643 -0.818407 1.76113 0
M  V30 5967 C 570.773 -1.07604 3.3021 0
M  V30 5968 C 569.727 -0.423096 4.25904 0
M  V30 5969 C 569.053 -1.52394 5.12523 0
M  V30 5970 C 570.353 0.661457 5.18095 0
M  V30 5971 H 572.047 0.653333 2.92185 0
M  V30 5972 H 569.593 0.315634 1.40498 0
M  V30 5973 H 571.546 -1.57485 3.90866 0
M  V30 5974 H 570.27 -1.84416 2.69552 0
M  V30 5975 H 568.929 0.05493 3.66559 0
M  V30 5976 H 568.577 -2.28257 4.48227 0
M  V30 5977 H 568.277 -1.09251 5.77354 0
M  V30 5978 H 569.801 -2.02485 5.76049 0
M  V30 5979 H 571.215 0.246353 5.7277 0
M  V30 5980 H 569.612 1.01517 5.91451 0
M  V30 5981 H 570.682 1.53446 4.59981 0
M  V30 5982 N 572.025 -1.5352 0.356285 0
M  V30 5983 C 572.955 -2.28372 -0.486661 0
M  V30 5984 C 573.936 -1.30432 -1.09185 0
M  V30 5985 O 575.121 -1.59291 -1.11085 0
M  V30 5986 C 572.251 -3.06604 -1.63129 0
M  V30 5987 C 571.205 -4.12154 -1.15381 0
M  V30 5988 C 570.531 -4.78415 -2.38796 0
M  V30 5989 C 571.831 -5.21724 -0.245179 0
M  V30 5990 H 573.525 -2.99083 0.137797 0
M  V30 5991 H 571.071 -1.43841 0.0677134 0
M  V30 5992 H 573.024 -3.57712 -2.22755 0
M  V30 5993 H 571.748 -2.33568 -2.28284 0
M  V30 5994 H 570.407 -3.61978 -0.580294 0
M  V30 5995 H 570.055 -4.01959 -3.02387 0
M  V30 5996 H 569.755 -5.49734 -2.07524 0
M  V30 5997 H 571.279 -5.32313 -2.99125 0
M  V30 5998 H 572.693 -5.68391 -0.748646 0
M  V30 5999 H 571.09 -6.00095 -0.0237608 0
M  V30 6000 H 572.16 -4.79596 0.715229 0
M  V30 6001 N 573.503 -0.0852151 -1.57369 0
M  V30 6002 C 574.451 0.894856 -2.14698 0
M  V30 6003 C 575.445 1.29903 -1.08727 0
M  V30 6004 O 576.651 1.27471 -1.27088 0
M  V30 6005 H 573.026 0.306569 -0.686673 0
M  V30 6006 H 574.997 0.386542 -2.95886 0
M  V30 6007 C 573.746 2.14798 -2.73417 0
M  V30 6008 H 573.069 1.84585 -3.54638 0
M  V30 6009 H 574.509 2.81456 -3.1711 0
M  V30 6010 C 572.968 2.91546 -1.68828 0
M  V30 6011 O 573.498 3.85733 -1.12129 0
M  V30 6012 N 571.704 2.54901 -1.39549 0
M  V30 6013 H 571.251 1.7838 -1.85845 0
M  V30 6014 H 571.209 3.06553 -0.698054 0
M  V30 6015 N 574.981 1.5647 0.188427 0
M  V30 6016 C 575.911 1.98101 1.23606 0
M  V30 6017 C 576.892 0.853961 1.47111 0
M  V30 6018 O 578.077 1.11879 1.58735 0
M  V30 6019 C 575.207 2.32624 2.57882 0
M  V30 6020 C 574.161 3.48129 2.48978 0
M  V30 6021 C 573.487 3.68347 3.87588 0
M  V30 6022 C 574.787 4.82112 2.00911 0
M  V30 6023 H 576.481 2.85864 0.890068 0
M  V30 6024 H 574.027 1.37532 0.426714 0
M  V30 6025 H 575.98 2.60343 3.3136 0
M  V30 6026 H 574.704 1.41751 2.94235 0
M  V30 6027 H 573.363 3.20511 1.77956 0
M  V30 6028 H 573.011 2.74793 4.21305 0
M  V30 6029 H 572.711 4.46055 3.82503 0
M  V30 6030 H 574.235 3.98449 4.62678 0
M  V30 6031 H 575.649 5.08819 2.64151 0
M  V30 6032 H 574.046 5.63337 2.06814 0
M  V30 6033 H 575.116 4.75249 0.96262 0
M  V30 6034 N 576.459 -0.456382 1.50847 0
M  V30 6035 C 577.406 -1.55249 1.70782 0
M  V30 6036 C 578.376 -1.56757 0.549231 0
M  V30 6037 O 579.561 -1.74061 0.7815 0
M  V30 6038 C 576.701 -2.93118 1.82143 0
M  V30 6039 C 575.814 -3.01285 3.09598 0
M  V30 6040 C 574.949 -4.30159 3.11667 0
M  V30 6041 C 573.988 -4.32124 4.33515 0
M  V30 6042 N 573.125 -5.52492 4.3324 0
M  V30 6043 H 577.965 -1.37555 2.64353 0
M  V30 6044 H 575.502 -0.668543 1.3103 0
M  V30 6045 H 577.46 -3.73088 1.86711 0
M  V30 6046 H 576.09 -3.09413 0.919978 0
M  V30 6047 H 575.142 -2.14096 3.14431 0
M  V30 6048 H 576.454 -2.98597 3.99551 0
M  V30 6049 H 575.608 -5.18489 3.15046 0
M  V30 6050 H 574.347 -4.35477 2.1957 0
M  V30 6051 H 573.352 -3.42189 4.30333 0
M  V30 6052 H 574.577 -4.28485 5.26856 0
M  V30 6053 H 572.523 -5.58567 3.44004 0
M  V30 6054 H 572.44 -5.51605 5.16979 0
M  V30 6055 H 573.708 -6.42906 4.40786 0
M  V30 6056 N 577.937 -1.40673 -0.710563 0
M  V30 6057 C 579.186 -1.38525 -1.46607 0
M  V30 6058 C 579.499 0.0077024 -1.95598 0
M  V30 6059 O 580.705 0.151792 -2.71075 0
M  V30 6060 C 579.161 -2.43489 -2.6503 0
M  V30 6061 C 578.769 -3.88619 -2.22888 0
M  V30 6062 C 580.513 -2.50456 -3.42742 0
M  V30 6063 C 578.42 -4.85168 -3.3818 0
M  V30 6064 H 577.35 -0.515092 -0.550632 0
M  V30 6065 H 580.001 -1.66431 -0.772846 0
M  V30 6066 H 578.383 -2.0869 -3.36548 0
M  V30 6067 H 579.557 -4.32588 -1.58758 0
M  V30 6068 H 577.872 -3.85174 -1.58208 0
M  V30 6069 H 580.469 -3.19776 -4.28541 0
M  V30 6070 H 580.812 -1.53665 -3.86902 0
M  V30 6071 H 581.345 -2.84271 -2.78271 0
M  V30 6072 H 578.084 -5.8331 -2.99047 0
M  V30 6073 H 577.604 -4.4586 -4.01209 0
M  V30 6074 H 579.283 -5.05225 -4.04174 0
M  V30 6075 N 579.415 0.9433 -1.26252 0
M  V30 6076 C 580.661 1.69226 -1.12846 0
M  V30 6077 C 581.016 1.8963 0.325282 0
M  V30 6078 O 580.309 1.46435 1.23561 0
M  V30 6079 C 580.503 3.07073 -1.82868 0
M  V30 6080 C 580.332 3.00118 -3.34902 0
M  V30 6081 C 579.102 3.03251 -4.04186 0
M  V30 6082 C 581.3 2.80418 -4.31127 0
M  V30 6083 N 579.282 2.86573 -5.42908 0
M  V30 6084 C 580.653 2.72287 -5.5701 0
M  V30 6085 C 582.708 2.65185 -4.21404 0
M  V30 6086 C 581.411 2.50479 -6.74279 0
M  V30 6087 C 583.437 2.4475 -5.38378 0
M  V30 6088 C 582.799 2.37349 -6.63208 0
M  V30 6089 H 578.898 0.626716 -0.467708 0
M  V30 6090 H 581.482 1.11645 -1.5951 0
M  V30 6091 H 579.653 3.62797 -1.38682 0
M  V30 6092 H 581.385 3.70816 -1.62103 0
M  V30 6093 H 578.14 3.12882 -3.55531 0
M  V30 6094 H 578.564 2.81408 -6.15742 0
M  V30 6095 H 583.206 2.69675 -3.25631 0
M  V30 6096 H 580.924 2.4473 -7.70151 0
M  V30 6097 H 584.51 2.33872 -5.32724 0
M  V30 6098 H 583.39 2.21746 -7.52196 0
M  V30 6099 N 580.893 1.08022 1.14757 0
M  V30 6100 C 581.84 0.706657 2.19716 0
M  V30 6101 C 582.81 -0.30525 1.63271 0
M  V30 6102 O 583.995 -0.19015 1.8985 0
M  V30 6103 C 581.135 0.117914 3.44898 0
M  V30 6104 C 580.248 1.18212 4.15512 0
M  V30 6105 C 579.383 0.557659 5.28265 0
M  V30 6106 C 578.422 1.60418 5.90705 0
M  V30 6107 N 577.559 1.0018 6.94916 0
M  V30 6108 H 582.399 1.60603 2.51019 0
M  V30 6109 H 579.936 0.802664 1.23271 0
M  V30 6110 H 581.894 -0.241112 4.16503 0
M  V30 6111 H 580.524 -0.744788 3.1409 0
M  V30 6112 H 579.576 1.65863 3.42335 0
M  V30 6113 H 580.888 1.97533 4.5802 0
M  V30 6114 H 580.042 0.146654 6.06523 0
M  V30 6115 H 578.781 -0.267249 4.86967 0
M  V30 6116 H 577.786 2.02489 5.11154 0
M  V30 6117 H 579.011 2.43149 6.34078 0
M  V30 6118 H 576.957 0.197917 6.55701 0
M  V30 6119 H 576.874 1.73216 7.35889 0
M  V30 6120 H 578.142 0.616523 7.77058 0
M  V30 6121 N 582.371 -1.3172 0.865308 0
M  V30 6122 C 583.334 -2.26918 0.322627 0
M  V30 6123 C 584.334 -1.52031 -0.523751 0
M  V30 6124 O 585.524 -1.70973 -0.333727 0
M  V30 6125 C 582.656 -3.36558 -0.542338 0
M  V30 6126 H 583.849 -2.76432 1.16298 0
M  V30 6127 H 581.402 -1.42573 0.640512 0
M  V30 6128 H 582.137 -2.92329 -1.40407 0
M  V30 6129 H 581.922 -3.92048 0.0636395 0
M  V30 6130 H 583.412 -4.07465 -0.91446 0
M  V30 6131 N 583.85 -0.624285 -1.44708 0
M  V30 6132 C 585.26 -0.2092 -1.85524 0
M  V30 6133 C 585.611 1.23783 -1.52225 0
M  V30 6134 O 584.736 1.94089 -0.956986 0
M  V30 6135 C 585.332 -0.372897 -3.36742 0
M  V30 6136 C 583.891 -0.012374 -3.76398 0
M  V30 6137 C 583.038 -0.68951 -2.68591 0
M  V30 6138 H 585.989 -0.829894 -1.35272 0
M  V30 6139 H 586.01 0.390134 -3.78495 0
M  V30 6140 H 585.522 -1.42615 -3.60947 0
M  V30 6141 H 583.623 1.03941 -3.57809 0
M  V30 6142 H 583.736 -0.417663 -4.77276 0
M  V30 6143 H 582.1 -0.125484 -2.54391 0
M  V30 6144 H 582.883 -1.74522 -2.9563 0
M  V30 6145 N 585.328 1.53329 -0.364422 0
M  V30 6146 C 586.278 2.22472 0.499024 0
M  V30 6147 C 587.262 1.21952 1.0496 0
M  V30 6148 O 588.454 1.47405 0.979836 0
M  V30 6149 C 585.583 3.01659 1.6388 0
M  V30 6150 C 584.669 4.09555 1.10116 0
M  V30 6151 N 585.06 5.04988 0.286414 0
M  V30 6152 C 583.358 4.2424 1.37608 0
M  V30 6153 C 584.059 5.81699 -0.00781682 0
M  V30 6154 N 583.035 5.40394 0.589494 0
M  V30 6155 H 586.837 2.93611 -0.130284 0
M  V30 6156 H 584.351 1.61483 -0.172377 0
M  V30 6157 H 586.348 3.4971 2.26954 0
M  V30 6158 H 585.008 2.32051 2.27118 0
M  V30 6159 H 586.019 5.17847 -0.0742839 0
M  V30 6160 H 582.696 3.65858 2.01133 0
M  V30 6161 H 584.086 6.68587 -0.666394 0
M  V30 6162 N 586.806 0.0935595 1.57322 0
M  V30 6163 C 587.716 -0.880192 2.17462 0
M  V30 6164 C 588.732 -1.31135 1.14366 0
M  V30 6165 O 589.908 -1.37958 1.46729 0
M  V30 6166 C 586.973 -2.12184 2.74188 0
M  V30 6167 C 586.034 -1.74503 3.92234 0
M  V30 6168 C 585.267 -2.92748 4.46245 0
M  V30 6169 O 585.49 -4.07427 3.99198 0
M  V30 6170 O 584.424 -2.71303 5.37288 0
M  V30 6171 H 588.25 -0.398516 3.01074 0
M  V30 6172 H 585.835 -0.130707 1.48827 0
M  V30 6173 H 587.717 -2.84953 3.10451 0
M  V30 6174 H 586.392 -2.59407 1.93623 0
M  V30 6175 H 585.299 -0.989186 3.60785 0
M  V30 6176 H 586.632 -1.32044 4.74157 0
M  V30 6177 N 588.284 -1.56567 -0.180126 0
M  V30 6178 C 589.247 -1.94852 -1.20686 0
M  V30 6179 C 590.247 -0.831212 -1.3765 0
M  V30 6180 O 591.437 -1.09841 -1.35206 0
M  V30 6181 C 588.569 -2.23565 -2.57355 0
M  V30 6182 H 589.762 -2.86722 -0.879225 0
M  V30 6183 H 587.315 -1.50489 -0.422237 0
M  V30 6184 H 588.05 -1.34381 -2.95148 0
M  V30 6185 H 587.835 -3.04999 -2.46411 0
M  V30 6186 H 589.325 -2.54137 -3.31367 0
M  V30 6187 N 589.762 0.448376 -1.51087 0
M  V30 6188 C 590.709 1.54341 -1.71603 0
M  V30 6189 C 591.679 1.56463 -0.557536 0
M  V30 6190 O 592.864 1.73644 -0.79072 0
M  V30 6191 C 590.004 2.92148 -1.83695 0
M  V30 6192 C 589.117 2.99639 -3.11192 0
M  V30 6193 C 588.252 4.285 -3.13944 0
M  V30 6194 C 587.291 4.29819 -4.35801 0
M  V30 6195 N 586.428 5.50186 -4.36164 0
M  V30 6196 H 591.268 1.36151 -2.65079 0
M  V30 6197 H 588.805 0.661585 -1.31383 0
M  V30 6198 H 590.763 3.72093 -1.88687 0
M  V30 6199 H 589.393 3.0892 -0.936374 0
M  V30 6200 H 588.445 2.12425 -3.15562 0
M  V30 6201 H 589.757 2.96474 -4.01129 0
M  V30 6202 H 588.911 5.16811 -3.17791 0
M  V30 6203 H 587.65 4.34307 -2.21876 0
M  V30 6204 H 586.655 3.39902 -4.32142 0
M  V30 6205 H 587.88 4.25685 -5.29121 0
M  V30 6206 H 585.826 5.56735 -3.46961 0
M  V30 6207 H 585.743 5.48856 -5.19897 0
M  V30 6208 H 587.011 6.40559 -4.44189 0
M  V30 6209 N 591.24 1.41047 0.703093 0
M  V30 6210 C 592.47 1.43133 1.48985 0
M  V30 6211 C 592.878 0.0328537 1.89171 0
M  V30 6212 O 592.221 -0.956469 1.56835 0
M  V30 6213 C 592.283 2.26991 2.78775 0
M  V30 6214 C 591.947 3.7525 2.60837 0
M  V30 6215 C 592.944 4.67591 2.27276 0
M  V30 6216 C 590.629 4.19208 2.76712 0
M  V30 6217 C 592.623 6.01877 2.09817 0
M  V30 6218 C 590.31 5.53561 2.5887 0
M  V30 6219 C 591.308 6.4471 2.25472 0
M  V30 6220 O 590.996 7.76584 2.07778 0
M  V30 6221 H 590.728 0.489788 0.465922 0
M  V30 6222 H 593.282 1.85886 0.873822 0
M  V30 6223 H 591.512 1.79038 3.42757 0
M  V30 6224 H 593.201 2.20867 3.40547 0
M  V30 6225 H 593.967 4.34923 2.14633 0
M  V30 6226 H 589.846 3.48572 3.01693 0
M  V30 6227 H 593.39 6.72986 1.83671 0
M  V30 6228 H 589.287 5.85811 2.71102 0
M  V30 6229 H 590.055 7.87649 2.22601 0
M  V30 6230 N 592.718 -0.936591 1.26751 0
M  V30 6231 C 593.965 -1.68331 1.12566 0
M  V30 6232 C 594.293 -1.91677 -0.330168 0
M  V30 6233 O 593.548 -1.49859 -1.2586 0
M  V30 6234 C 593.847 -3.06099 1.84494 0
M  V30 6235 C 593.513 -3.02493 3.34378 0
M  V30 6236 C 592.175 -3.01217 3.75262 0
M  V30 6237 C 594.527 -2.94453 4.30055 0
M  V30 6238 C 591.855 -2.89672 5.10203 0
M  V30 6239 C 594.207 -2.84449 5.65041 0
M  V30 6240 C 592.871 -2.81518 6.0523 0
M  V30 6241 H 592.141 -0.615965 0.411907 0
M  V30 6242 H 594.788 -1.09292 1.5725 0
M  V30 6243 H 593.093 -3.6879 1.32292 0
M  V30 6244 H 594.79 -3.62733 1.70955 0
M  V30 6245 H 591.38 -3.04269 3.01858 0
M  V30 6246 H 595.564 -2.94544 3.99447 0
M  V30 6247 H 590.82 -2.85783 5.40498 0
M  V30 6248 H 594.994 -2.77192 6.38856 0
M  V30 6249 H 592.621 -2.72329 7.09747 0
M  V30 6250 N 594.196 -1.08629 -1.14182 0
M  V30 6251 C 595.473 -0.73002 -1.81466 0
M  V30 6252 C 595.853 0.785996 -1.95922 0
M  V30 6253 O 595.201 1.70535 -1.52086 0
M  V30 6254 C 595.411 -1.45957 -3.17014 0
M  V30 6255 C 596.759 -1.62008 -3.92477 0
M  V30 6256 O 597.783 -1.42141 -3.26611 0
M  V30 6257 O 596.642 -1.94806 -5.106 0
M  V30 6258 H 593.736 -0.261307 -0.784632 0
M  V30 6259 H 596.282 -1.188 -1.2118 0
M  V30 6260 H 595.054 -2.49221 -3.01669 0
M  V30 6261 H 594.677 -0.993222 -3.84995 0
M  V30 6262 N 595.674 1.31259 -0.872281 0
M  V30 6263 C 596.951 1.91362 -0.404943 0
M  V30 6264 C 597.331 1.79362 1.11321 0
M  V30 6265 O 596.679 1.20277 1.94283 0
M  V30 6266 C 596.889 3.3749 -0.888893 0
M  V30 6267 C 598.237 4.14593 -0.916384 0
M  V30 6268 O 599.261 3.46282 -0.834701 0
M  V30 6269 O 598.12 5.3661 -1.03498 0
M  V30 6270 H 595.214 0.818016 -0.121569 0
M  V30 6271 H 597.76 1.39912 -0.960346 0
M  V30 6272 H 596.532 3.40249 -1.93251 0
M  V30 6273 H 596.155 3.96375 -0.311932 0
M  V30 6274 N 597.152 0.631951 1.44375 0
M  V30 6275 C 598.084 -0.110911 2.28931 0
M  V30 6276 C 599.097 -0.808086 1.41329 0
M  V30 6277 O 600.286 -0.669396 1.65473 0
M  V30 6278 C 597.386 -1.17928 3.1772 0
M  V30 6279 C 596.559 -0.564458 4.33743 0
M  V30 6280 C 595.618 -1.5269 5.0356 0
M  V30 6281 O 594.644 -1.04372 5.59549 0
M  V30 6282 N 595.846 -2.86123 5.05088 0
M  V30 6283 H 598.611 0.614758 2.93327 0
M  V30 6284 H 596.172 0.473171 1.54831 0
M  V30 6285 H 598.164 -1.82348 3.61291 0
M  V30 6286 H 596.734 -1.80717 2.55069 0
M  V30 6287 H 595.954 0.258373 3.93352 0
M  V30 6288 H 597.242 -0.134355 5.08623 0
M  V30 6289 H 596.64 -3.27959 4.60933 0
M  V30 6290 H 595.197 -3.45901 5.52445 0
M  V30 6291 N 598.631 -1.53133 0.372548 0
M  V30 6292 C 599.877 -2.01654 -0.215277 0
M  V30 6293 C 600.21 -1.25914 -1.47849 0
M  V30 6294 O 599.485 -0.3548 -1.91237 0
M  V30 6295 C 599.768 -3.56609 -0.500187 0
M  V30 6296 C 599.621 -4.43036 0.777145 0
M  V30 6297 C 600.94 -4.20528 -1.29786 0
M  V30 6298 H 598.059 -0.732991 -0.0767686 0
M  V30 6299 H 600.701 -1.83335 0.498814 0
M  V30 6300 H 598.851 -3.7235 -1.10852 0
M  V30 6301 H 600.523 -4.39079 1.41447 0
M  V30 6302 H 598.766 -4.10723 1.39604 0
M  V30 6303 H 599.437 -5.49424 0.532662 0
M  V30 6304 H 601.913 -4.08663 -0.783198 0
M  V30 6305 H 600.789 -5.28962 -1.46596 0
M  V30 6306 H 601.05 -3.77051 -2.30836 0
M  V30 6307 N 600.109 -0.101901 -1.5727 0
M  V30 6308 C 601.356 0.560197 -1.94597 0
M  V30 6309 C 601.684 1.67767 -0.984101 0
M  V30 6310 O 600.939 1.95699 -0.00489193 0
M  V30 6311 C 601.238 1.14898 -3.38427 0
M  V30 6312 C 600.904 0.154613 -4.50635 0
M  V30 6313 C 599.566 -0.118861 -4.81053 0
M  V30 6314 C 601.918 -0.523979 -5.18559 0
M  V30 6315 C 599.246 -1.0775 -5.76721 0
M  V30 6316 C 601.598 -1.47114 -6.15256 0
M  V30 6317 C 600.262 -1.75278 -6.44076 0
M  V30 6318 H 599.532 0.204991 -0.712081 0
M  V30 6319 H 602.179 -0.17918 -1.9066 0
M  V30 6320 H 600.484 1.96476 -3.38976 0
M  V30 6321 H 602.181 1.66909 -3.64613 0
M  V30 6322 H 598.771 0.377948 -4.2693 0
M  V30 6323 H 602.955 -0.325851 -4.95229 0
M  V30 6324 H 598.211 -1.30263 -5.97362 0
M  V30 6325 H 602.385 -2.00274 -6.66981 0
M  V30 6326 H 600.012 -2.49717 -7.18015 0
M  V30 6327 N 601.587 1.56661 0.17182 0
M  V30 6328 C 602.833 1.8313 0.88516 0
M  V30 6329 C 603.188 0.682376 1.79893 0
M  V30 6330 O 602.481 -0.321215 1.88888 0
M  V30 6331 C 602.675 3.13435 1.71736 0
M  V30 6332 C 602.504 4.40892 0.885659 0
M  V30 6333 C 601.274 5.02177 0.560939 0
M  V30 6334 C 603.472 5.13797 0.227454 0
M  V30 6335 N 601.454 6.13229 -0.286953 0
M  V30 6336 C 602.825 6.18127 -0.481625 0
M  V30 6337 C 604.88 4.97687 0.145567 0
M  V30 6338 C 603.583 7.08092 -1.26482 0
M  V30 6339 C 605.609 5.88096 -0.624298 0
M  V30 6340 C 604.971 6.91888 -1.32174 0
M  V30 6341 H 601.07 0.721107 0.302536 0
M  V30 6342 H 603.654 1.94104 0.152178 0
M  V30 6343 H 601.825 3.03653 2.42176 0
M  V30 6344 H 603.557 3.27903 2.37196 0
M  V30 6345 H 600.312 4.65145 0.890902 0
M  V30 6346 H 600.736 6.73359 -0.701193 0
M  V30 6347 H 605.378 4.17451 0.670426 0
M  V30 6348 H 603.096 7.87774 -1.80103 0
M  V30 6349 H 606.682 5.77702 -0.689321 0
M  V30 6350 H 605.562 7.60637 -1.90791 0
M  V30 6351 N 603.065 -0.440357 1.51323 0
M  V30 6352 C 604.012 -1.53429 1.72419 0
M  V30 6353 C 604.982 -1.56165 0.565826 0
M  V30 6354 O 606.167 -1.73222 0.799917 0
M  V30 6355 C 603.307 -2.91169 1.85242 0
M  V30 6356 C 602.42 -2.97985 3.12777 0
M  V30 6357 C 601.555 -4.26829 3.16212 0
M  V30 6358 C 600.594 -4.27501 4.38074 0
M  V30 6359 N 599.731 -5.47866 4.39076 0
M  V30 6360 H 604.571 -1.34743 2.65797 0
M  V30 6361 H 602.108 -0.654608 1.31732 0
M  V30 6362 H 604.066 -3.71087 1.90658 0
M  V30 6363 H 602.696 -3.0842 0.952744 0
M  V30 6364 H 601.748 -2.10749 3.16685 0
M  V30 6365 H 603.06 -2.94342 4.02696 0
M  V30 6366 H 602.214 -5.15118 3.20527 0
M  V30 6367 H 600.953 -4.33124 2.24176 0
M  V30 6368 H 599.958 -3.37606 4.33938 0
M  V30 6369 H 601.183 -4.22873 5.31371 0
M  V30 6370 H 599.129 -5.54887 3.49909 0
M  V30 6371 H 599.046 -5.46091 5.22801 0
M  V30 6372 H 600.314 -6.38195 4.4758 0
M  V30 6373 N 604.543 -1.41418 -0.695603 0
M  V30 6374 C 605.79 -1.40774 -1.45564 0
M  V30 6375 C 606.118 -0.0168604 -1.94493 0
M  V30 6376 O 605.373 0.971259 -1.69897 0
M  V30 6377 C 605.672 -2.36112 -2.68302 0
M  V30 6378 C 605.338 -3.82952 -2.38031 0
M  V30 6379 C 604 -4.22954 -2.29486 0
M  V30 6380 C 606.352 -4.75662 -2.13061 0
M  V30 6381 C 603.68 -5.53674 -1.94067 0
M  V30 6382 C 606.032 -6.06702 -1.79151 0
M  V30 6383 C 604.696 -6.45725 -1.69102 0
M  V30 6384 H 603.966 -0.515128 -0.532658 0
M  V30 6385 H 606.613 -1.74216 -0.795047 0
M  V30 6386 H 604.918 -1.95924 -3.39295 0
M  V30 6387 H 606.615 -2.32887 -3.26442 0
M  V30 6388 H 603.205 -3.5127 -2.45576 0
M  V30 6389 H 607.389 -4.45561 -2.18608 0
M  V30 6390 H 602.645 -5.8279 -1.8484 0
M  V30 6391 H 606.819 -6.78041 -1.5885 0
M  V30 6392 H 604.446 -7.46929 -1.41426 0
M  V30 6393 N 606.021 0.929856 -1.27246 0
M  V30 6394 C 607.432 1.49223 -1.12203 0
M  V30 6395 C 607.783 1.93989 0.293731 0
M  V30 6396 O 606.908 1.80978 1.18642 0
M  V30 6397 C 607.503 2.71198 -2.0307 0
M  V30 6398 C 606.062 3.23666 -1.92139 0
M  V30 6399 C 605.209 1.96409 -1.95752 0
M  V30 6400 H 608.16 0.744181 -1.4017 0
M  V30 6401 H 608.181 3.45905 -1.58524 0
M  V30 6402 H 607.693 2.38585 -3.06102 0
M  V30 6403 H 605.794 3.61042 -0.920834 0
M  V30 6404 H 605.907 3.90006 -2.78267 0
M  V30 6405 H 604.271 2.12806 -1.39949 0
M  V30 6406 H 605.054 1.66113 -3.00436 0
M  V30 6407 N 607.499 1.09233 1.13605 0
M  V30 6408 C 608.449 0.6994 2.17008 0
M  V30 6409 C 609.433 -0.285238 1.58352 0
M  V30 6410 O 610.625 -0.09592 1.7674 0
M  V30 6411 C 607.754 0.11938 3.43092 0
M  V30 6412 C 606.84 1.13031 4.0876 0
M  V30 6413 N 607.231 2.31673 4.49623 0
M  V30 6414 C 605.529 0.967999 4.35369 0
M  V30 6415 C 606.23 2.95964 5.00779 0
M  V30 6416 N 605.206 2.23534 4.95513 0
M  V30 6417 H 609.008 1.60272 2.46354 0
M  V30 6418 H 606.522 0.968257 1.30378 0
M  V30 6419 H 608.519 -0.180122 4.16511 0
M  V30 6420 H 607.179 -0.778816 3.15221 0
M  V30 6421 H 608.19 2.69277 4.42391 0
M  V30 6422 H 604.867 0.124319 4.17315 0
M  V30 6423 H 606.257 3.96813 5.42208 0
M  V30 6424 N 608.977 -1.30795 0.87923 0
M  V30 6425 C 609.907 -2.30742 0.357796 0
M  V30 6426 C 610.888 -1.60747 -0.556283 0
M  V30 6427 O 612.073 -1.88393 -0.47135 0
M  V30 6428 C 609.203 -3.44583 -0.433555 0
M  V30 6429 C 608.157 -4.26235 0.388251 0
M  V30 6430 C 607.483 -5.32073 -0.529352 0
M  V30 6431 C 608.783 -4.96303 1.62729 0
M  V30 6432 H 610.477 -2.74605 1.19299 0
M  V30 6433 H 608.023 -1.32017 0.575104 0
M  V30 6434 H 609.976 -4.13563 -0.808934 0
M  V30 6435 H 608.7 -2.99511 -1.30234 0
M  V30 6436 H 607.359 -3.58936 0.745695 0
M  V30 6437 H 607.007 -4.83249 -1.39569 0
M  V30 6438 H 606.707 -5.87598 0.0166741 0
M  V30 6439 H 608.231 -6.0391 -0.901373 0
M  V30 6440 H 609.645 -5.5783 1.32283 0
M  V30 6441 H 608.042 -5.61666 2.11309 0
M  V30 6442 H 609.112 -4.22758 2.37494 0
M  V30 6443 N 610.455 -0.639598 -1.44038 0
M  V30 6444 C 611.418 0.0506628 -2.29144 0
M  V30 6445 C 612.418 0.764001 -1.41491 0
M  V30 6446 O 613.608 0.607309 -1.63271 0
M  V30 6447 C 610.74 1.0824 -3.2326 0
M  V30 6448 H 611.933 -0.697987 -2.91664 0
M  V30 6449 H 609.486 -0.400146 -1.51091 0
M  V30 6450 H 610.221 1.86075 -2.65606 0
M  V30 6451 H 610.006 0.574725 -3.87865 0
M  V30 6452 H 611.496 1.56487 -3.87171 0
M  V30 6453 N 611.933 1.52934 -0.380664 0
M  V30 6454 C 613.179 2.01765 0.20458 0
M  V30 6455 C 613.512 1.26696 1.47179 0
M  V30 6456 O 612.787 0.364936 1.91046 0
M  V30 6457 C 613.07 3.56869 0.481269 0
M  V30 6458 C 612.923 4.42617 -0.800629 0
M  V30 6459 C 614.242 4.2121 1.27554 0
M  V30 6460 H 611.361 0.733388 0.0728803 0
M  V30 6461 H 614.003 1.83068 -0.50853 0
M  V30 6462 H 612.153 3.72932 1.08875 0
M  V30 6463 H 613.825 4.38323 -1.43773 0
M  V30 6464 H 612.068 4.09977 -1.4178 0
M  V30 6465 H 612.739 5.49134 -0.561791 0
M  V30 6466 H 615.215 4.09072 0.761514 0
M  V30 6467 H 614.091 5.29732 1.43788 0
M  V30 6468 H 614.352 3.78269 2.28833 0
M  V30 6469 N 613.412 0.11024 1.57214 0
M  V30 6470 C 614.66 -0.548783 1.94506 0
M  V30 6471 C 614.981 -1.67772 0.99386 0
M  V30 6472 O 614.251 -1.9584 0.0485841 0
M  V30 6473 H 612.831 -0.205715 0.718116 0
M  V30 6474 H 615.493 0.177127 1.94093 0
M  V30 6475 H 614.589 -0.949096 2.97319 0
M  V30 6476 N 614.89 -1.56749 -0.16351 0
M  V30 6477 C 616.137 -1.82434 -0.878866 0
M  V30 6478 C 616.465 -0.688557 -1.81904 0
M  V30 6479 O 615.72 0.323644 -1.93005 0
M  V30 6480 C 616.019 -3.14342 -1.70071 0
M  V30 6481 C 615.685 -4.41647 -0.908775 0
M  V30 6482 C 614.347 -4.76224 -0.690236 0
M  V30 6483 C 616.699 -5.19998 -0.353815 0
M  V30 6484 C 614.027 -5.86624 0.0942374 0
M  V30 6485 C 616.379 -6.3122 0.41761 0
M  V30 6486 C 615.043 -6.64358 0.646879 0
M  V30 6487 H 614.313 -0.667574 -0.3216 0
M  V30 6488 H 616.96 -1.90963 -0.14337 0
M  V30 6489 H 615.265 -3.0119 -2.50583 0
M  V30 6490 H 616.962 -3.31426 -2.25738 0
M  V30 6491 H 613.552 -4.1453 -1.08916 0
M  V30 6492 H 617.736 -4.93673 -0.509975 0
M  V30 6493 H 612.992 -6.10751 0.281529 0
M  V30 6494 H 617.166 -6.91133 0.854849 0
M  V30 6495 H 614.793 -7.49742 1.25662 0
M  V30 6496 O 616.407 0.308401 -1.58528 0
M  V30 6497 H 617.098 0.955962 -1.68467 0
M  V30 END ATOM
M  V30 BEGIN BOND
M  V30 END BOND
M  V30 END CTAB
M  END
$$$$
