drugbank_target|A7B6P0 EDD domain protein, DegV family (DB02580)
 OpenBabel12092120513D

  0  0  0     0  0            999 V3000
M  V30 BEGIN CTAB
M  V30 COUNTS 5207 5248 0 0 0
M  V30 BEGIN ATOM
M  V30 1 H -0.908 1.98254 -0.117106 0
M  V30 2 N 0 1.576 0 0
M  V30 3 C 0.933 2.03868 1.02534 0
M  V30 4 C 1.911 0.928543 1.3348 0
M  V30 5 O 3.095 1.19667 1.45644 0
M  V30 6 C 0.222 2.43627 2.35294 0
M  V30 7 C -0.732 3.65373 2.2001 0
M  V30 8 S 0.101 5.13292 1.52614 0
M  V30 9 C 1.257 5.56322 2.86805 0
M  V30 10 H 1.49 2.90518 0.631377 0
M  V30 11 H -0.977 1.52953 0.210867 0
M  V30 12 H 0.981 2.67203 3.11629 0
M  V30 13 H -0.358 1.57376 2.7183 0
M  V30 14 H -1.165 3.90944 3.18086 0
M  V30 15 H -1.563 3.418 1.51819 0
M  V30 16 H 0.729 5.58782 3.83104 0
M  V30 17 H 1.672 6.56266 2.65933 0
M  V30 18 H 2.08 4.83886 2.90714 0
M  V30 19 N 1.4781 -0.272755 1.55222 0
M  V30 20 C 2.7081 -1.02107 1.79604 0
M  V30 21 C 3.1161 -1.80419 0.569693 0
M  V30 22 O 2.4591 -1.77566 -0.470743 0
M  V30 23 C 2.5211 -2.02675 2.96922 0
M  V30 24 C 2.1851 -1.43299 4.33952 0
M  V30 25 C 3.1821 -0.84853 5.12929 0
M  V30 26 C 0.8671 -1.46012 4.8061 0
M  V30 27 C 2.8611 -0.299109 6.36698 0
M  V30 28 C 0.5481 -0.906833 6.04334 0
M  V30 29 C 1.5461 -0.32733 6.82215 0
M  V30 30 O 1.2341 0.217479 8.03606 0
M  V30 31 H 0.9661 -0.307322 0.602104 0
M  V30 32 H 3.5201 -0.308862 2.03065 0
M  V30 33 H 1.7501 -2.77656 2.69155 0
M  V30 34 H 3.4391 -2.63637 3.08626 0
M  V30 35 H 4.2051 -0.820265 4.78013 0
M  V30 36 H 0.0841 -1.90056 4.2 0
M  V30 37 H 3.6281 0.153852 6.9743 0
M  V30 38 H -0.4749 -0.932339 6.38731 0
M  V30 39 H 0.2931 0.106863 8.1843 0
M  V30 40 N 2.9562 -1.48159 -0.537278 0
M  V30 41 C 4.3672 -1.49429 -1.11928 0
M  V30 42 C 4.7182 -0.26 -1.9447 0
M  V30 43 O 3.8432 0.633489 -2.0692 0
M  V30 44 C 4.4382 -2.70758 -2.03656 0
M  V30 45 C 2.9972 -2.74923 -2.57088 0
M  V30 46 C 2.1442 -2.42835 -1.3389 0
M  V30 47 H 5.0952 -1.55381 -0.322886 0
M  V30 48 H 5.1162 -2.48861 -2.87834 0
M  V30 49 H 4.6282 -3.60575 -1.43553 0
M  V30 50 H 2.7292 -1.89296 -3.20933 0
M  V30 51 H 2.8422 -3.76157 -2.9672 0
M  V30 52 H 1.2062 -1.93836 -1.65226 0
M  V30 53 H 1.9892 -3.34884 -0.755504 0
M  V30 54 N 4.4343 0.785586 -1.36625 0
M  V30 55 C 5.6823 1.54057 -1.30808 0
M  V30 56 C 6.0033 1.94683 0.111157 0
M  V30 57 O 5.2733 1.65241 1.05224 0
M  V30 58 H 3.8533 0.571354 -0.481211 0
M  V30 59 H 6.5153 0.935821 -1.70963 0
M  V30 60 H 5.6113 2.44637 -1.93801 0
M  V30 61 N 5.9124 1.20967 1.01018 0
M  V30 62 C 6.8224 0.980157 2.13143 0
M  V30 63 C 7.8384 -0.0660665 1.73875 0
M  V30 64 O 9.0144 0.122821 2.01025 0
M  V30 65 C 6.0794 0.54216 3.42435 0
M  V30 66 C 5.1404 1.65999 3.95908 0
M  V30 67 C 4.3734 1.2428 5.19028 0
M  V30 68 O 4.5964 0.114196 5.70286 0
M  V30 69 O 3.5304 2.05271 5.65816 0
M  V30 70 H 7.3564 1.91913 2.35379 0
M  V30 71 H 4.9414 0.994099 1.11526 0
M  V30 72 H 6.8234 0.30744 4.20277 0
M  V30 73 H 5.4984 -0.36815 3.216 0
M  V30 74 H 4.4054 1.94906 3.19316 0
M  V30 75 H 5.7384 2.54753 4.21143 0
M  V30 76 N 7.3905 -1.2043 1.01659 0
M  V30 77 C 8.3205 -2.25466 0.607226 0
M  V30 78 C 9.3015 -1.65853 -0.377716 0
M  V30 79 O 10.4865 -1.92409 -0.263149 0
M  V30 80 C 7.6165 -3.47256 -0.0552949 0
M  V30 81 C 6.5705 -4.19462 0.850632 0
M  V30 82 C 5.8965 -5.34673 0.0538859 0
M  V30 83 C 7.1965 -4.75603 2.15868 0
M  V30 84 H 8.8905 -2.59962 1.48526 0
M  V30 85 H 6.4365 -1.2496 0.715605 0
M  V30 86 H 8.3895 -4.19917 -0.353233 0
M  V30 87 H 7.1135 -3.11924 -0.968045 0
M  V30 88 H 5.7725 -3.48667 1.13257 0
M  V30 89 H 5.4205 -4.95585 -0.860514 0
M  V30 90 H 5.1205 -5.83913 0.657192 0
M  V30 91 H 6.6445 -6.10138 -0.237598 0
M  V30 92 H 8.0585 -5.40083 1.92311 0
M  V30 93 H 6.4555 -5.3528 2.71284 0
M  V30 94 H 7.5255 -3.94346 2.82169 0
M  V30 95 N 8.8686 -0.792821 -1.36206 0
M  V30 96 C 10.0936 -0.377701 -2.03932 0
M  V30 97 C 10.5186 0.998947 -1.59382 0
M  V30 98 O 9.8766 1.64421 -0.763903 0
M  V30 99 C 9.9246 -0.453635 -3.57735 0
M  V30 100 O 9.0286 0.538151 -4.08874 0
M  V30 101 H 8.3696 -0.159855 -0.644471 0
M  V30 102 H 10.8996 -1.07488 -1.7409 0
M  V30 103 H 10.9096 -0.318464 -4.06755 0
M  V30 104 H 9.5846 -1.45784 -3.89512 0
M  V30 105 H 8.1616 0.364359 -3.71116 0
M  V30 106 N 10.3467 1.47872 -0.545128 0
M  V30 107 C 11.5937 2.02493 -0.0165858 0
M  V30 108 C 11.9217 1.42073 1.32836 0
M  V30 109 O 11.1767 0.561459 1.87473 0
M  V30 110 C 11.4757 3.57131 0.13867 0
M  V30 111 C 11.1417 4.36411 -1.13384 0
M  V30 112 C 9.8037 4.57792 -1.48256 0
M  V30 113 C 12.1557 4.82223 -1.97764 0
M  V30 114 C 9.4837 5.22233 -2.67376 0
M  V30 115 C 11.8357 5.47977 -3.16076 0
M  V30 116 C 10.4997 5.67593 -3.51275 0
M  V30 117 H 9.7697 0.740975 -0.00606918 0
M  V30 118 H 12.4167 1.77683 -0.714207 0
M  V30 119 H 10.7217 3.80865 0.919172 0
M  V30 120 H 12.4187 3.97031 0.562782 0
M  V30 121 H 9.0087 4.2004 -0.852297 0
M  V30 122 H 13.1927 4.65493 -1.72132 0
M  V30 123 H 8.4487 5.35616 -2.94831 0
M  V30 124 H 12.6227 5.8244 -3.81755 0
M  V30 125 H 10.2497 6.17298 -4.43675 0
M  V30 126 N 11.8248 0.280983 1.55075 0
M  V30 127 C 13.2408 -0.0729964 1.59433 0
M  V30 128 C 13.4408 -1.5411 1.29817 0
M  V30 129 O 12.4968 -2.29086 1.06187 0
M  V30 130 C 13.8098 0.306921 2.9913 0
M  V30 131 C 15.3578 0.254023 3.11968 0
M  V30 132 C 15.8328 0.608467 4.5394 0
M  V30 133 N 17.3238 0.560241 4.59799 0
M  V30 134 C 18.0588 0.80722 5.6769 0
M  V30 135 N 17.5548 1.11912 6.83701 0
M  V30 136 N 19.3478 0.735623 5.57266 0
M  V30 137 H 11.4988 1.238 1.7259 0
M  V30 138 H 13.7618 0.500547 0.805082 0
M  V30 139 H 13.4678 1.32816 3.25657 0
M  V30 140 H 13.3418 -0.349363 3.75579 0
M  V30 141 H 15.7288 -0.75794 2.852 0
M  V30 142 H 15.8098 0.944649 2.37718 0
M  V30 143 H 15.4538 1.61814 4.81434 0
M  V30 144 H 15.3838 -0.104013 5.26497 0
M  V30 145 H 17.8748 0.329288 3.76463 0
M  V30 146 H 18.1878 1.29409 7.61888 0
M  V30 147 H 16.5328 1.15695 6.85303 0
M  V30 148 H 19.7238 0.491752 4.6551 0
M  V30 149 H 19.8968 0.931482 6.4127 0
M  V30 150 N 13.3029 -1.57598 0.00835791 0
M  V30 151 C 14.2349 -2.05811 -1.00868 0
M  V30 152 C 15.2479 -0.977579 -1.30182 0
M  V30 153 O 16.4369 -1.25421 -1.27011 0
M  V30 154 C 13.5369 -2.45016 -2.34137 0
M  V30 155 C 12.7099 -3.75903 -2.23643 0
M  V30 156 C 11.7689 -4.01884 -3.3967 0
M  V30 157 O 10.7949 -4.72433 -3.17483 0
M  V30 158 N 11.9969 -3.50432 -4.62793 0
M  V30 159 H 14.7619 -2.93684 -0.597458 0
M  V30 160 H 12.3229 -1.60909 -0.178852 0
M  V30 161 H 14.3149 -2.59506 -3.10546 0
M  V30 162 H 12.8849 -1.62618 -2.66972 0
M  V30 163 H 12.1049 -3.7141 -1.32091 0
M  V30 164 H 13.3929 -4.61695 -2.13812 0
M  V30 165 H 12.7909 -2.93317 -4.83716 0
M  V30 166 H 11.3479 -3.70236 -5.3644 0
M  V30 167 N 14.781 0.264519 -1.55364 0
M  V30 168 C 15.729 1.34702 -1.89626 0
M  V30 169 C 16.723 1.50712 -0.773459 0
M  V30 170 O 17.929 1.52395 -0.957897 0
M  V30 171 H 14.304 0.450682 -0.601988 0
M  V30 172 H 16.275 1.0306 -2.80038 0
M  V30 173 C 15.024 2.6989 -2.19214 0
M  V30 174 H 14.347 2.58365 -3.05103 0
M  V30 175 H 15.787 3.44553 -2.47102 0
M  V30 176 C 14.246 3.21637 -1.00254 0
M  V30 177 O 14.776 4.00973 -0.241501 0
M  V30 178 N 12.982 2.7943 -0.797938 0
M  V30 179 H 12.529 2.15026 -1.4185 0
M  V30 180 H 12.487 3.144 -0.00363422 0
M  V30 181 N 16.2591 1.48442 0.529413 0
M  V30 182 C 17.6751 1.34575 0.858004 0
M  V30 183 C 17.8751 0.3572 1.98309 0
M  V30 184 O 16.9311 -0.221379 2.51528 0
M  V30 185 C 18.2441 2.74617 1.22499 0
M  V30 186 C 19.7921 2.83109 1.33484 0
M  V30 187 C 20.2671 4.23854 1.73526 0
M  V30 188 N 21.7581 4.2653 1.80628 0
M  V30 189 C 22.4931 5.32372 2.12997 0
M  V30 190 N 21.9891 6.48491 2.43786 0
M  V30 191 N 23.7821 5.19766 2.14008 0
M  V30 192 H 15.9331 2.1133 -0.212925 0
M  V30 193 H 18.1961 0.947439 -0.0326199 0
M  V30 194 H 17.9021 3.4852 0.471905 0
M  V30 195 H 17.7761 3.08177 2.17501 0
M  V30 196 H 20.1631 2.09462 2.0787 0
M  V30 197 H 20.2441 2.53168 0.366027 0
M  V30 198 H 19.8881 4.98018 0.997013 0
M  V30 199 H 19.8181 4.5124 2.71459 0
M  V30 200 H 22.3091 3.42772 1.59108 0
M  V30 201 H 22.6221 7.24993 2.67592 0
M  V30 202 H 20.9671 6.51765 2.41304 0
M  V30 203 H 24.1581 4.28066 1.89412 0
M  V30 204 H 24.3311 6.02354 2.38902 0
M  V30 205 N 17.7372 -0.778329 1.37039 0
M  V30 206 C 18.6842 -1.89139 1.32269 0
M  V30 207 C 19.6542 -1.65017 0.189387 0
M  V30 208 O 20.8392 -1.87024 0.377693 0
M  V30 209 C 17.9792 -3.26112 1.12894 0
M  V30 210 C 17.0922 -3.62233 2.35396 0
M  V30 211 C 16.2272 -4.8838 2.08946 0
M  V30 212 C 15.2662 -5.17212 3.2735 0
M  V30 213 N 14.4032 -6.34546 3.00492 0
M  V30 214 H 19.2432 -1.92552 2.27437 0
M  V30 215 H 16.7802 -0.941473 1.13025 0
M  V30 216 H 18.7382 -4.05116 0.996835 0
M  V30 217 H 17.3682 -3.22091 0.213758 0
M  V30 218 H 16.4202 -2.78265 2.5937 0
M  V30 219 H 17.7322 -3.79481 3.23721 0
M  V30 220 H 16.8862 -5.75274 1.92729 0
M  V30 221 H 15.6252 -4.73222 1.17949 0
M  V30 222 H 14.6302 -4.28796 3.44113 0
M  V30 223 H 15.8552 -5.34283 4.19188 0
M  V30 224 H 13.8012 -6.20759 2.12118 0
M  V30 225 H 13.7182 -6.52179 3.82358 0
M  V30 226 H 14.9862 -7.24394 2.87879 0
M  V30 227 N 19.2153 -1.21501 -1.00376 0
M  V30 228 C 20.4403 -1.05977 -1.78279 0
M  V30 229 C 20.8653 0.385994 -1.84097 0
M  V30 230 O 20.2233 1.27849 -1.28547 0
M  V30 231 C 20.2713 -1.66302 -3.19963 0
M  V30 232 O 19.3753 -0.909333 -4.0225 0
M  V30 233 H 18.7163 -0.372906 -0.549397 0
M  V30 234 H 21.2463 -1.6107 -1.26165 0
M  V30 235 H 21.2563 -1.70574 -3.70632 0
M  V30 236 H 19.9313 -2.71515 -3.15043 0
M  V30 237 H 18.5083 -0.941795 -3.60811 0
M  V30 238 N 20.6934 1.19889 -1.02296 0
M  V30 239 C 21.6404 2.22901 -0.598651 0
M  V30 240 C 22.6104 1.61588 0.384521 0
M  V30 241 O 23.7954 1.88697 0.282522 0
M  V30 242 C 20.9354 3.45063 0.0504476 0
M  V30 243 C 20.0484 4.20783 -0.978053 0
M  V30 244 C 19.1834 5.30356 -0.299338 0
M  V30 245 C 18.2224 5.97826 -1.31416 0
M  V30 246 N 17.3594 6.98975 -0.661667 0
M  V30 247 H 22.1994 2.58554 -1.48169 0
M  V30 248 H 19.7364 1.27039 -0.741584 0
M  V30 249 H 21.6944 4.14831 0.443971 0
M  V30 250 H 20.3244 3.10084 0.897097 0
M  V30 251 H 19.3764 3.50018 -1.48969 0
M  V30 252 H 20.6884 4.67109 -1.74958 0
M  V30 253 H 19.8424 6.06516 0.149347 0
M  V30 254 H 18.5814 4.85084 0.504445 0
M  V30 255 H 17.5864 5.20422 -1.77317 0
M  V30 256 H 18.8114 6.45183 -2.11933 0
M  V30 257 H 16.7574 6.55886 0.122132 0
M  V30 258 H 16.6744 7.43461 -1.37117 0
M  V30 259 H 17.9424 7.7914 -0.236785 0
M  V30 260 N 22.1715 0.800033 1.35784 0
M  V30 261 C 23.5875 0.482977 1.52117 0
M  V30 262 C 23.7875 -0.996948 1.75109 0
M  V30 263 O 22.8435 -1.78216 1.78872 0
M  V30 264 C 24.1565 1.32264 2.70049 0
M  V30 265 C 25.7045 1.31742 2.83924 0
M  V30 266 C 26.1795 2.14106 4.04874 0
M  V30 267 N 27.6705 2.11607 4.12039 0
M  V30 268 C 28.4055 2.72099 5.04727 0
M  V30 269 N 27.9015 3.41492 6.02789 0
M  V30 270 N 29.6945 2.61776 4.97423 0
M  V30 271 H 21.8455 1.75856 1.19115 0
M  V30 272 H 24.1085 0.748122 0.582252 0
M  V30 273 H 23.8145 2.37261 2.59616 0
M  V30 274 H 23.6885 0.971303 3.6448 0
M  V30 275 H 26.0755 0.275333 2.93813 0
M  V30 276 H 26.1565 1.70859 1.9037 0
M  V30 277 H 25.8005 3.18351 3.95746 0
M  V30 278 H 25.7305 1.72353 4.97596 0
M  V30 279 H 28.2215 1.61112 3.41835 0
M  V30 280 H 28.5345 3.84953 6.70098 0
M  V30 281 H 26.8795 3.45596 6.02983 0
M  V30 282 H 30.0705 2.07157 4.19766 0
M  V30 283 H 30.2435 3.0921 5.69468 0
M  V30 284 N 23.6496 -1.47581 0.552962 0
M  V30 285 C 24.8796 -2.06575 0.0320091 0
M  V30 286 C 25.2876 -1.4067 -1.26525 0
M  V30 287 O 24.6306 -0.495808 -1.76883 0
M  V30 288 C 24.6926 -3.58705 -0.238913 0
M  V30 289 C 24.3566 -4.46625 0.968272 0
M  V30 290 C 25.3536 -4.85 1.87274 0
M  V30 291 C 23.0386 -4.88201 1.18175 0
M  V30 292 C 25.0326 -5.63745 2.9744 0
M  V30 293 C 22.7196 -5.66712 2.28651 0
M  V30 294 C 23.7176 -6.04394 3.18114 0
M  V30 295 O 23.4056 -6.81324 4.26676 0
M  V30 296 H 23.1376 -0.674763 0.0408689 0
M  V30 297 H 25.6916 -1.90634 0.764719 0
M  V30 298 H 23.9216 -3.72844 -1.02588 0
M  V30 299 H 25.6106 -3.99735 -0.704731 0
M  V30 300 H 26.3766 -4.53482 1.71984 0
M  V30 301 H 22.2556 -4.58339 0.494593 0
M  V30 302 H 25.7996 -5.93077 3.67296 0
M  V30 303 H 21.6966 -5.97642 2.43915 0
M  V30 304 H 22.4646 -6.99712 4.24671 0
M  V30 305 N 25.1277 -0.289203 -1.54924 0
M  V30 306 C 26.0747 0.592115 -2.23075 0
M  V30 307 C 27.0447 1.13881 -1.20915 0
M  V30 308 O 28.2297 1.18551 -1.495 0
M  V30 309 C 25.3697 1.76376 -2.96623 0
M  V30 310 C 24.4827 1.24959 -4.13533 0
M  V30 311 C 23.6177 2.38416 -4.74691 0
M  V30 312 C 22.6567 1.84072 -5.83767 0
M  V30 313 N 21.7937 2.91057 -6.38929 0
M  V30 314 H 26.6337 0.00432038 -2.98 0
M  V30 315 H 24.1707 -0.00963529 -1.47097 0
M  V30 316 H 26.1287 2.45268 -3.3749 0
M  V30 317 H 24.7587 2.32337 -2.24097 0
M  V30 318 H 23.8107 0.453307 -3.77689 0
M  V30 319 H 25.1227 0.811662 -4.92152 0
M  V30 320 H 24.2767 3.15276 -5.18349 0
M  V30 321 H 23.0157 2.8553 -3.95378 0
M  V30 322 H 22.0207 1.05697 -5.39545 0
M  V30 323 H 23.2457 1.37877 -6.64956 0
M  V30 324 H 21.1917 3.37526 -5.62505 0
M  V30 325 H 21.1087 2.51724 -7.12861 0
M  V30 326 H 22.3767 3.6785 -6.87246 0
M  V30 327 N 26.6058 1.57591 -0.0167156 0
M  V30 328 C 27.5538 2.10604 0.987353 0
M  V30 329 C 28.5478 1.02977 1.34507 0
M  V30 330 O 29.7538 1.21425 1.32875 0
M  V30 331 H 26.1288 0.672695 0.336134 0
M  V30 332 H 28.0998 2.93925 0.514817 0
M  V30 333 C 26.8488 2.6382 2.26483 0
M  V30 334 H 26.1718 3.46278 1.99829 0
M  V30 335 H 27.6118 3.04573 2.94977 0
M  V30 336 C 26.0708 1.55992 2.9861 0
M  V30 337 O 26.6008 0.952521 3.90243 0
M  V30 338 N 24.8068 1.28335 2.60727 0
M  V30 339 H 24.3538 1.77914 1.86291 0
M  V30 340 H 24.3118 0.564115 3.09298 0
M  V30 341 N 28.0839 -0.256276 1.55502 0
M  V30 342 C 29.3299 -0.987079 1.77157 0
M  V30 343 C 29.6629 -1.85327 0.580315 0
M  V30 344 O 28.9379 -1.89874 -0.421686 0
M  V30 345 C 29.2209 -1.85553 3.08613 0
M  V30 346 C 29.0739 -1.01816 4.38125 0
M  V30 347 C 30.3929 -2.8397 3.36228 0
M  V30 348 H 27.5119 -0.357428 0.644526 0
M  V30 349 H 30.1539 -0.258239 1.88237 0
M  V30 350 H 28.3039 -2.47695 2.99298 0
M  V30 351 H 29.9759 -0.416159 4.59419 0
M  V30 352 H 28.2189 -0.322178 4.32602 0
M  V30 353 H 28.8899 -1.65939 5.26468 0
M  V30 354 H 31.3659 -2.31964 3.45445 0
M  V30 355 H 30.2419 -3.41864 4.29442 0
M  V30 356 H 30.5029 -3.59955 2.56681 0
M  V30 357 N 29.562 -1.4872 -0.521534 0
M  V30 358 C 30.809 -1.57168 -1.27689 0
M  V30 359 C 31.137 -0.249275 -1.92896 0
M  V30 360 O 30.392 0.761162 -1.80291 0
M  V30 361 C 30.691 -2.66497 -2.38148 0
M  V30 362 C 30.357 -4.08664 -1.90538 0
M  V30 363 C 29.019 -4.47357 -1.77271 0
M  V30 364 C 31.371 -4.97724 -1.54663 0
M  V30 365 C 28.699 -5.72905 -1.26478 0
M  V30 366 C 31.051 -6.2377 -1.05329 0
M  V30 367 C 29.715 -6.61311 -0.906861 0
M  V30 368 H 28.985 -0.575117 -0.467249 0
M  V30 369 H 31.632 -1.82472 -0.581051 0
M  V30 370 H 29.937 -2.35085 -3.13437 0
M  V30 371 H 31.634 -2.70246 -2.96257 0
M  V30 372 H 28.224 -3.78111 -2.01816 0
M  V30 373 H 32.408 -4.68501 -1.63768 0
M  V30 374 H 27.664 -6.00709 -1.13835 0
M  V30 375 H 31.838 -6.9217 -0.76644 0
M  V30 376 H 29.465 -7.5848 -0.511083 0
M  V30 377 N 31.0401 0.771051 -1.3745 0
M  V30 378 C 32.2651 1.56529 -1.36065 0
M  V30 379 C 32.6901 1.88029 0.0515859 0
M  V30 380 O 32.0481 1.49282 1.02882 0
M  V30 381 C 32.0961 2.85187 -2.20683 0
M  V30 382 O 31.2001 3.79593 -1.61193 0
M  V30 383 H 30.5411 0.47411 -0.464883 0
M  V30 384 H 33.0711 0.954269 -1.80983 0
M  V30 385 H 33.0811 3.34283 -2.33921 0
M  V30 386 H 31.7561 2.61588 -3.23334 0
M  V30 387 H 30.3331 3.38239 -1.56999 0
M  V30 388 N 32.5182 1.22032 0.997298 0
M  V30 389 C 33.7432 1.06921 1.77715 0
M  V30 390 C 34.1682 -0.376226 1.84299 0
M  V30 391 O 33.5262 -1.27165 1.29223 0
M  V30 392 C 33.5742 1.67996 3.19076 0
M  V30 393 O 32.6782 0.930653 4.01762 0
M  V30 394 H 32.0192 0.375814 0.547412 0
M  V30 395 H 34.5492 1.61737 1.25309 0
M  V30 396 H 34.5592 1.72538 3.69723 0
M  V30 397 H 33.2342 2.73182 3.13599 0
M  V30 398 H 31.8112 0.960917 3.60307 0
M  V30 399 N 33.9963 -1.19345 1.0293 0
M  V30 400 C 35.2733 -1.84811 0.640642 0
M  V30 401 C 35.6533 -1.91855 -0.88062 0
M  V30 402 O 35.0013 -1.43587 -1.7775 0
M  V30 403 C 35.2113 -3.23755 1.30321 0
M  V30 404 C 36.5593 -3.99912 1.42673 0
M  V30 405 O 37.5833 -3.33155 1.26041 0
M  V30 406 O 36.4423 -5.19494 1.6967 0
M  V30 407 H 33.5363 -0.796443 0.222726 0
M  V30 408 H 36.0823 -1.26831 1.12748 0
M  V30 409 H 34.8543 -3.13466 2.34211 0
M  V30 410 H 34.4773 -3.89381 0.804261 0
M  V30 411 N 35.4744 -0.807222 -1.35358 0
M  V30 412 C 36.7024 -0.400377 -2.02989 0
M  V30 413 C 37.1174 0.988859 -1.60832 0
M  V30 414 O 36.4744 1.63729 -0.806175 0
M  V30 415 C 36.5254 -0.474867 -3.58368 0
M  V30 416 O 36.2464 -1.80933 -3.98992 0
M  V30 417 C 37.7474 -0.0609112 -4.43258 0
M  V30 418 H 34.9674 -0.162587 -0.651004 0
M  V30 419 H 37.5114 -1.09102 -1.72965 0
M  V30 420 H 35.6664 0.167534 -3.87038 0
M  V30 421 H 36.0804 -1.77256 -4.9364 0
M  V30 422 H 37.5544 -0.164145 -5.51756 0
M  V30 423 H 38.0314 0.993831 -4.27808 0
M  V30 424 H 38.6374 -0.676492 -4.19885 0
M  V30 425 N 36.9525 1.47285 -0.560781 0
M  V30 426 C 37.8995 2.30058 0.18491 0
M  V30 427 C 38.8695 1.39281 0.904986 0
M  V30 428 O 40.0545 1.68241 0.899979 0
M  V30 429 C 37.1945 3.23317 1.20666 0
M  V30 430 C 36.3075 4.29186 0.492285 0
M  V30 431 C 35.4425 5.09592 1.49964 0
M  V30 432 C 34.4815 6.07232 0.770439 0
M  V30 433 N 33.6185 6.80584 1.72479 0
M  V30 434 H 38.4585 2.93302 -0.527048 0
M  V30 435 H 35.9955 1.44568 -0.271738 0
M  V30 436 H 37.9535 3.75811 1.81168 0
M  V30 437 H 36.5835 2.61929 1.88661 0
M  V30 438 H 35.6355 3.7972 -0.227333 0
M  V30 439 H 36.9475 4.98738 -0.0787929 0
M  V30 440 H 36.1015 5.66254 2.17809 0
M  V30 441 H 34.8405 4.3995 2.10464 0
M  V30 442 H 33.8455 5.49745 0.0780846 0
M  V30 443 H 35.0705 6.78884 0.171134 0
M  V30 444 H 33.0165 6.1367 2.3183 0
M  V30 445 H 32.9335 7.46319 1.20596 0
M  V30 446 H 34.2015 7.41818 2.39428 0
M  V30 447 N 38.4306 0.297415 1.54768 0
M  V30 448 C 39.6706 -0.313829 2.01976 0
M  V30 449 C 40.0346 -1.51366 1.1812 0
M  V30 450 O 41.2356 -2.19603 1.5501 0
M  V30 451 C 39.5066 -0.664964 3.51159 0
M  V30 452 S 41.0656 -1.25958 4.20333 0
M  V30 453 H 37.8836 -0.0965014 0.704421 0
M  V30 454 H 40.4856 0.424451 1.90837 0
M  V30 455 H 39.1896 0.21681 4.09827 0
M  V30 456 H 38.7206 -1.43413 3.66328 0
M  V30 457 H 40.7356 -2.54751 4.25813 0
M  V30 458 N 39.9087 -1.5758 0.0250728 0
M  V30 459 C 41.1567 -1.91255 -0.653151 0
M  V30 460 C 41.4777 -0.901691 -1.729 0
M  V30 461 O 40.7477 0.0573785 -1.95816 0
M  V30 462 H 39.3277 -0.705942 -0.244243 0
M  V30 463 H 41.9897 -1.94767 0.0719209 0
M  V30 464 H 41.0857 -2.91752 -1.10847 0
M  V30 465 N 41.3868 0.248026 -1.55636 0
M  V30 466 C 42.6358 0.974134 -1.76617 0
M  V30 467 C 42.9488 1.86528 -0.588796 0
M  V30 468 O 44.1548 2.62805 -0.681594 0
M  V30 469 C 42.6108 1.78213 -3.12679 0
M  V30 470 C 42.2188 0.93843 -4.38061 0
M  V30 471 C 43.9628 2.50104 -3.42999 0
M  V30 472 C 41.8698 1.74225 -5.65155 0
M  V30 473 H 40.7998 0.36745 -0.658405 0
M  V30 474 H 43.4508 0.22884 -1.82067 0
M  V30 475 H 41.8328 2.56933 -3.01333 0
M  V30 476 H 43.0068 0.193635 -4.60393 0
M  V30 477 H 41.3218 0.332905 -4.15067 0
M  V30 478 H 43.9188 3.10694 -4.3517 0
M  V30 479 H 44.2618 3.21662 -2.64271 0
M  V30 480 H 44.7948 1.78395 -3.55556 0
M  V30 481 H 41.5338 1.07043 -6.46701 0
M  V30 482 H 41.0538 2.46235 -5.46926 0
M  V30 483 H 42.7328 2.30967 -6.0437 0
M  V30 484 N 42.8649 1.48995 0.513639 0
M  V30 485 C 43.7949 1.67636 1.62544 0
M  V30 486 C 44.7759 0.525087 1.61793 0
M  V30 487 O 45.9609 0.759502 1.78732 0
M  V30 488 C 43.0909 1.73114 3.01079 0
M  V30 489 C 42.0449 2.87905 3.16693 0
M  V30 490 C 41.3709 2.78486 4.56453 0
M  V30 491 C 42.6709 4.29005 2.97913 0
M  V30 492 H 44.3649 2.60716 1.47198 0
M  V30 493 H 41.9109 1.25465 0.706714 0
M  V30 494 H 43.8639 1.84742 3.78746 0
M  V30 495 H 42.5879 0.766241 3.17484 0
M  V30 496 H 41.2469 2.75859 2.41448 0
M  V30 497 H 40.8949 1.7993 4.69717 0
M  V30 498 H 40.5949 3.55523 4.67843 0
M  V30 499 H 42.1189 2.92104 5.36197 0
M  V30 500 H 43.5329 4.41798 3.65359 0
M  V30 501 H 41.9299 5.07166 3.20785 0
M  V30 502 H 42.9999 4.44329 1.94165 0
M  V30 503 N 44.343 -0.763751 1.37857 0
M  V30 504 C 45.568 -1.55805 1.36893 0
M  V30 505 C 45.993 -1.88054 -0.0416135 0
M  V30 506 O 45.351 -1.49825 -1.02089 0
M  V30 507 C 45.399 -2.84012 2.22192 0
M  V30 508 O 44.503 -3.78732 1.63204 0
M  V30 509 H 43.844 -0.471638 0.46739 0
M  V30 510 H 46.374 -0.944657 1.81487 0
M  V30 511 H 46.384 -3.33037 2.35691 0
M  V30 512 H 45.059 -2.59869 3.24716 0
M  V30 513 H 43.636 -3.37402 1.58791 0
M  V30 514 N 45.8211 -1.22559 -0.990812 0
M  V30 515 C 46.7691 -0.994798 -2.10253 0
M  V30 516 C 47.7631 0.0627798 -1.69284 0
M  V30 517 O 48.9691 -0.0898392 -1.79776 0
M  V30 518 H 45.3441 -0.304527 -0.687581 0
M  V30 519 H 47.3151 -1.93812 -2.26891 0
M  V30 520 C 46.0641 -0.591439 -3.42633 0
M  V30 521 H 45.3871 -1.3969 -3.74602 0
M  V30 522 H 46.8271 -0.469385 -4.21394 0
M  V30 523 C 45.2861 0.699232 -3.29564 0
M  V30 524 O 45.8161 1.75112 -3.61523 0
M  V30 525 N 44.0221 0.671182 -2.82743 0
M  V30 526 H 43.5691 -0.185136 -2.56934 0
M  V30 527 H 43.5271 1.53502 -2.7438 0
M  V30 528 N 47.2992 1.18797 -1.03562 0
M  V30 529 C 48.5452 1.8893 -0.737113 0
M  V30 530 C 48.8782 1.79837 0.732956 0
M  V30 531 O 48.1532 1.19525 1.5344 0
M  V30 532 C 48.4362 3.39607 -1.19745 0
M  V30 533 C 48.2892 3.57537 -2.72924 0
M  V30 534 C 49.6082 4.33069 -0.783526 0
M  V30 535 H 46.7272 0.686057 -0.269249 0
M  V30 536 H 49.3692 1.39797 -1.28673 0
M  V30 537 H 47.5192 3.81583 -0.729855 0
M  V30 538 H 49.1912 3.24688 -3.27682 0
M  V30 539 H 47.4342 3.00363 -3.12993 0
M  V30 540 H 48.1052 4.63238 -3.00191 0
M  V30 541 H 50.5812 3.98846 -1.18581 0
M  V30 542 H 49.4572 5.3707 -1.13343 0
M  V30 543 H 49.7182 4.40986 0.313681 0
M  V30 544 N 48.7773 0.814389 1.34928 0
M  V30 545 C 50.0233 0.399013 1.98836 0
M  V30 546 C 50.3563 -1.03314 1.64438 0
M  V30 547 O 49.6313 -1.71811 0.911659 0
M  V30 548 C 49.9143 0.591629 3.55207 0
M  V30 549 C 49.7673 2.06928 3.99376 0
M  V30 550 C 51.0863 0.022199 4.40094 0
M  V30 551 H 48.2053 0.146451 0.722303 0
M  V30 552 H 50.8473 1.02537 1.59957 0
M  V30 553 H 48.9973 0.0584441 3.88456 0
M  V30 554 H 50.6693 2.66544 3.76499 0
M  V30 555 H 48.9123 2.56287 3.49999 0
M  V30 556 H 49.5833 2.1549 5.08201 0
M  V30 557 H 52.0593 0.477643 4.13349 0
M  V30 558 H 50.9353 0.186832 5.48582 0
M  V30 559 H 51.1963 -1.07215 4.28902 0
M  V30 560 N 50.2554 -1.46986 0.568584 0
M  V30 561 C 51.1854 -2.32946 -0.160753 0
M  V30 562 C 52.1664 -1.44487 -0.897631 0
M  V30 563 O 53.3514 -1.73327 -0.875867 0
M  V30 564 C 50.4814 -3.26494 -1.18403 0
M  V30 565 C 49.4354 -4.24282 -0.562895 0
M  V30 566 C 48.7614 -5.07236 -1.69163 0
M  V30 567 C 50.0614 -5.19989 0.490761 0
M  V30 568 H 51.7554 -2.94175 0.556916 0
M  V30 569 H 49.3014 -1.4146 0.26927 0
M  V30 570 H 51.2544 -3.85477 -1.70251 0
M  V30 571 H 49.9784 -2.63343 -1.93179 0
M  V30 572 H 48.6374 -3.66541 -0.0656164 0
M  V30 573 H 48.2854 -4.4048 -2.42871 0
M  V30 574 H 47.9854 -5.7345 -1.28174 0
M  V30 575 H 49.5094 -5.6908 -2.21314 0
M  V30 576 H 50.9234 -5.73271 0.0579047 0
M  V30 577 H 49.3204 -5.94469 0.820165 0
M  V30 578 H 50.3904 -4.64777 1.3824 0
M  V30 579 N 51.7335 -0.305618 -1.54608 0
M  V30 580 C 52.6805 0.568421 -2.23691 0
M  V30 581 C 53.6505 1.12592 -1.22116 0
M  V30 582 O 54.8355 1.16959 -1.50749 0
M  V30 583 C 51.9755 1.7322 -2.98477 0
M  V30 584 C 51.0885 1.20566 -4.14835 0
M  V30 585 C 50.2235 2.33368 -4.77193 0
M  V30 586 C 49.2625 1.7787 -5.85686 0
M  V30 587 N 48.3995 2.84263 -6.4198 0
M  V30 588 H 53.2395 -0.0272867 -2.97988 0
M  V30 589 H 50.7765 -0.0252363 -1.47078 0
M  V30 590 H 52.7345 2.41675 -3.40072 0
M  V30 591 H 51.3645 2.29947 -2.26548 0
M  V30 592 H 50.4165 0.413223 -3.78149 0
M  V30 593 H 51.7285 0.759417 -4.92985 0
M  V30 594 H 50.8825 3.09761 -5.21664 0
M  V30 595 H 49.6215 2.8132 -3.98385 0
M  V30 596 H 48.6265 0.99968 -5.40635 0
M  V30 597 H 49.8515 1.30816 -6.66381 0
M  V30 598 H 47.7975 3.31541 -5.66053 0
M  V30 599 H 47.7145 2.44149 -7.15491 0
M  V30 600 H 48.9825 3.6054 -6.91109 0
M  V30 601 N 53.2116 1.57565 -0.0334293 0
M  V30 602 C 54.4396 1.9628 0.654347 0
M  V30 603 C 54.8546 0.910138 1.65414 0
M  V30 604 O 54.2116 -0.107595 1.82183 0
M  V30 605 C 54.2626 3.35067 1.35693 0
M  V30 606 O 53.9836 4.36296 0.397191 0
M  V30 607 C 55.4846 3.88439 2.13613 0
M  V30 608 H 52.7046 0.646369 0.180132 0
M  V30 609 H 55.2486 2.04282 -0.0944721 0
M  V30 610 H 53.4036 3.2827 2.05712 0
M  V30 611 H 53.8176 5.1678 0.896597 0
M  V30 612 H 55.2916 4.8788 2.58219 0
M  V30 613 H 55.7686 3.22914 2.97696 0
M  V30 614 H 56.3746 3.98516 1.48543 0
M  V30 615 N 54.6897 -0.239769 1.55765 0
M  V30 616 C 55.9177 -0.98417 1.81994 0
M  V30 617 C 56.3327 -1.7867 0.610124 0
M  V30 618 O 55.6897 -1.77571 -0.421271 0
M  V30 619 C 55.7407 -1.91635 3.06526 0
M  V30 620 O 55.4617 -1.14629 4.22838 0
M  V30 621 C 56.9627 -2.77616 3.45607 0
M  V30 622 H 54.1827 -0.28928 0.605441 0
M  V30 623 H 56.7267 -0.260499 2.02834 0
M  V30 624 H 54.8817 -2.5942 2.87715 0
M  V30 625 H 55.2957 -1.77745 4.93464 0
M  V30 626 H 56.7697 -3.38759 4.35828 0
M  V30 627 H 57.2467 -3.4909 2.6652 0
M  V30 628 H 57.8527 -2.15271 3.66795 0
M  V30 629 N 56.1678 -1.49265 -0.50573 0
M  V30 630 C 57.3978 -1.61979 -1.28243 0
M  V30 631 C 57.8058 -0.288576 -1.86986 0
M  V30 632 O 57.1488 0.735408 -1.68337 0
M  V30 633 C 57.2108 -2.62632 -2.45489 0
M  V30 634 C 56.8748 -4.071 -2.07651 0
M  V30 635 C 57.8718 -4.94049 -1.61901 0
M  V30 636 C 55.5568 -4.52801 -2.17431 0
M  V30 637 C 57.5508 -6.24736 -1.26428 0
M  V30 638 C 55.2378 -5.83503 -1.8157 0
M  V30 639 C 56.2358 -6.69294 -1.36142 0
M  V30 640 O 55.9238 -7.9756 -1.00764 0
M  V30 641 H 55.6558 -0.54834 -0.395347 0
M  V30 642 H 58.2098 -1.96002 -0.614204 0
M  V30 643 H 56.4398 -2.2378 -3.15372 0
M  V30 644 H 58.1288 -2.64925 -3.07522 0
M  V30 645 H 58.8948 -4.5997 -1.53795 0
M  V30 646 H 54.7738 -3.86196 -2.51742 0
M  V30 647 H 58.3178 -6.91652 -0.908992 0
M  V30 648 H 54.2148 -6.17112 -1.89324 0
M  V30 649 H 54.9828 -8.10529 -1.13952 0
M  V30 650 N 57.6459 0.756429 -1.3826 0
M  V30 651 C 58.5939 1.89149 -1.35372 0
M  V30 652 C 59.5879 1.67691 -0.24004 0
M  V30 653 O 60.7939 1.75294 -0.408919 0
M  V30 654 H 57.1689 0.622271 -0.422236 0
M  V30 655 H 59.1399 1.88701 -2.31159 0
M  V30 656 C 57.8889 3.26599 -1.19284 0
M  V30 657 H 57.2119 3.43695 -2.0424 0
M  V30 658 H 58.6519 4.06274 -1.21316 0
M  V30 659 C 57.1109 3.3675 0.100454 0
M  V30 660 O 57.6409 3.86951 1.07851 0
M  V30 661 N 55.8469 2.90179 0.15633 0
M  V30 662 H 55.3939 2.49517 -0.640253 0
M  V30 663 H 55.3519 2.97352 1.02123 0
M  V30 664 N 59.124 1.23083 0.984299 0
M  V30 665 C 60.54 0.992637 1.24975 0
M  V30 666 C 60.74 -0.308618 1.99123 0
M  V30 667 O 59.796 -1.02905 2.30579 0
M  V30 668 C 61.109 2.19698 2.05312 0
M  V30 669 C 62.657 2.24147 2.18465 0
M  V30 670 C 63.132 3.44157 3.02192 0
M  V30 671 N 64.623 3.44372 3.09777 0
M  V30 672 C 65.358 4.33886 3.74874 0
M  V30 673 N 64.854 5.3363 4.41827 0
M  V30 674 N 66.647 4.21639 3.71721 0
M  V30 675 H 58.798 2.06731 0.487453 0
M  V30 676 H 61.061 0.906339 0.277944 0
M  V30 677 H 60.767 3.1411 1.58201 0
M  V30 678 H 60.641 2.20465 3.06064 0
M  V30 679 H 63.028 1.30277 2.64786 0
M  V30 680 H 63.109 2.27415 1.17115 0
M  V30 681 H 62.753 4.38332 2.56568 0
M  V30 682 H 62.683 3.3813 4.03702 0
M  V30 683 H 65.174 2.72201 2.62135 0
M  V30 684 H 65.487 5.98196 4.89266 0
M  V30 685 H 63.832 5.37534 4.40548 0
M  V30 686 H 67.023 3.42962 3.18582 0
M  V30 687 H 67.196 4.91604 4.22173 0
M  V30 688 N 60.6021 -1.18246 1.0419 0
M  V30 689 C 61.8481 -1.88793 0.75689 0
M  V30 690 C 62.2031 -1.78909 -0.707767 0
M  V30 691 O 61.4961 -1.1794 -1.50999 0
M  V30 692 C 61.6901 -3.38082 1.15911 0
M  V30 693 C 61.5191 -3.62496 2.66133 0
M  V30 694 C 60.2891 -3.7979 3.33298 0
M  V30 695 C 62.4871 -3.62976 3.64353 0
M  V30 696 N 60.4691 -3.91955 4.72487 0
M  V30 697 C 61.8401 -3.80869 4.89222 0
M  V30 698 C 63.8951 -3.46071 3.57965 0
M  V30 699 C 62.5981 -3.83608 6.08471 0
M  V30 700 C 64.6241 -3.50093 4.76643 0
M  V30 701 C 63.9861 -3.68484 6.00332 0
M  V30 702 H 60.0851 -0.709406 0.32904 0
M  V30 703 H 62.6691 -1.42022 1.33183 0
M  V30 704 H 60.8401 -3.83544 0.612238 0
M  V30 705 H 62.5721 -3.96202 0.824989 0
M  V30 706 H 59.3271 -3.79224 2.83701 0
M  V30 707 H 59.7511 -4.01857 5.44831 0
M  V30 708 H 64.3931 -3.30797 2.63311 0
M  V30 709 H 62.1111 -3.97669 7.0348 0
M  V30 710 H 65.6971 -3.38285 4.73344 0
M  V30 711 H 64.5771 -3.71488 6.90627 0
M  V30 712 N 62.0802 -0.821533 -1.34494 0
M  V30 713 C 63.3262 -0.418729 -1.99043 0
M  V30 714 C 63.6812 1.00672 -1.6396 0
M  V30 715 O 62.9742 1.69132 -0.900271 0
M  V30 716 C 63.1682 -0.556512 -3.53041 0
M  V30 717 C 62.9972 -1.9938 -4.03085 0
M  V30 718 C 61.7672 -2.62539 -4.31742 0
M  V30 719 C 63.9652 -2.96035 -4.20556 0
M  V30 720 N 61.9472 -3.97523 -4.67813 0
M  V30 721 C 63.3182 -4.15924 -4.59791 0
M  V30 722 C 65.3732 -2.9267 -4.02801 0
M  V30 723 C 64.0762 -5.32899 -4.83126 0
M  V30 724 C 66.1022 -4.08861 -4.27302 0
M  V30 725 C 65.4642 -5.275 -4.66822 0
M  V30 726 H 61.5632 -0.201299 -0.755647 0
M  V30 727 H 64.1472 -1.06594 -1.62929 0
M  V30 728 H 62.3182 0.0607924 -3.88352 0
M  V30 729 H 64.0502 -0.126842 -4.04501 0
M  V30 730 H 60.8052 -2.13789 -4.22601 0
M  V30 731 H 61.2292 -4.67061 -4.90085 0
M  V30 732 H 65.8712 -2.02088 -3.71376 0
M  V30 733 H 63.5892 -6.24041 -5.13418 0
M  V30 734 H 67.1752 -4.07654 -4.15101 0
M  V30 735 H 66.0552 -6.15913 -4.85408 0
M  V30 736 N 63.5583 1.46682 -0.576371 0
M  V30 737 C 64.5053 2.30241 0.160499 0
M  V30 738 C 65.4753 1.40233 0.890162 0
M  V30 739 O 66.6603 1.69186 0.882084 0
M  V30 740 C 63.8003 3.24578 1.1723 0
M  V30 741 C 62.9133 4.29684 0.446736 0
M  V30 742 C 62.0483 5.11154 1.44551 0
M  V30 743 C 61.0873 6.08015 0.70599 0
M  V30 744 N 60.2243 6.82376 1.65251 0
M  V30 745 H 65.0643 2.92727 -0.558127 0
M  V30 746 H 62.6013 1.44272 -0.287056 0
M  V30 747 H 64.5593 3.77711 1.77172 0
M  V30 748 H 63.1893 2.63916 1.85872 0
M  V30 749 H 62.2413 3.79458 -0.267594 0
M  V30 750 H 63.5533 4.98626 -0.131686 0
M  V30 751 H 62.7073 5.68533 2.11791 0
M  V30 752 H 61.4463 4.42158 2.05786 0
M  V30 753 H 60.4513 5.49796 0.0197725 0
M  V30 754 H 61.6763 6.79028 0.09912 0
M  V30 755 H 59.6223 6.16094 2.25308 0
M  V30 756 H 59.5393 7.47556 1.12673 0
M  V30 757 H 60.8073 7.44316 2.31546 0
M  V30 758 N 65.0364 0.313813 1.54444 0
M  V30 759 C 65.9834 -0.55655 2.23989 0
M  V30 760 C 66.9534 -1.11943 1.22711 0
M  V30 761 O 68.1384 -1.16158 1.51367 0
M  V30 762 C 65.2784 -1.71635 2.99392 0
M  V30 763 C 64.3914 -1.18364 4.15468 0
M  V30 764 C 63.5264 -2.30834 4.78424 0
M  V30 765 C 62.5654 -1.74762 5.86622 0
M  V30 766 N 61.7024 -2.80855 6.43479 0
M  V30 767 H 66.5424 0.0430893 2.97969 0
M  V30 768 H 64.0794 0.0330359 1.47063 0
M  V30 769 H 66.0374 -2.39868 3.41349 0
M  V30 770 H 64.6674 -2.28742 2.27765 0
M  V30 771 H 63.7194 -0.393163 3.78363 0
M  V30 772 H 65.0314 -0.733262 4.93381 0
M  V30 773 H 64.1854 -3.0699 5.23299 0
M  V30 774 H 62.9244 -2.79204 3.99871 0
M  V30 775 H 61.9294 -0.970995 5.41158 0
M  V30 776 H 63.1544 -1.2728 6.67066 0
M  V30 777 H 61.1004 -3.28535 5.67804 0
M  V30 778 H 61.0174 -2.40351 7.16776 0
M  V30 779 H 62.2854 -3.5687 6.93011 0
M  V30 780 N 66.5145 -1.57545 0.0417849 0
M  V30 781 C 67.4615 -2.10977 -0.935805 0
M  V30 782 C 68.4315 -1.01486 -1.31491 0
M  V30 783 O 69.6165 -1.2898 -1.40602 0
M  V30 784 C 66.7565 -2.65169 -2.2086 0
M  V30 785 C 65.8695 -3.88714 -1.88482 0
M  V30 786 C 65.0045 -4.31254 -3.1015 0
M  V30 787 C 64.0435 -5.47524 -2.7365 0
M  V30 788 N 63.1805 -5.85162 -3.87982 0
M  V30 789 H 68.0205 -2.94218 -0.473249 0
M  V30 790 H 65.5575 -1.45415 -0.221981 0
M  V30 791 H 67.5155 -2.94685 -2.95325 0
M  V30 792 H 66.1455 -1.8474 -2.64709 0
M  V30 793 H 65.1975 -3.65849 -1.04205 0
M  V30 794 H 66.5095 -4.73245 -1.57608 0
M  V30 795 H 65.6635 -4.62273 -3.92923 0
M  V30 796 H 64.4025 -3.45516 -3.44195 0
M  V30 797 H 63.4075 -5.16187 -1.89291 0
M  V30 798 H 64.6325 -6.34971 -2.40807 0
M  V30 799 H 62.5785 -5.02377 -4.21846 0
M  V30 800 H 62.4955 -6.64362 -3.60775 0
M  V30 801 H 63.7635 -6.20791 -4.71422 0
M  V30 802 N 67.9926 0.231505 -1.5589 0
M  V30 803 C 69.2386 0.95877 -1.78705 0
M  V30 804 C 69.5716 1.8438 -0.609725 0
M  V30 805 O 68.8466 1.90521 0.391426 0
M  V30 806 C 69.1296 1.8062 -3.11526 0
M  V30 807 C 68.9826 0.948328 -4.39689 0
M  V30 808 C 70.3016 2.78585 -3.40703 0
M  V30 809 H 67.4206 0.347129 -0.650131 0
M  V30 810 H 70.0626 0.228259 -1.88624 0
M  V30 811 H 68.2126 2.42902 -3.03201 0
M  V30 812 H 69.8846 0.343016 -4.60023 0
M  V30 813 H 68.1276 0.253314 -4.3306 0
M  V30 814 H 68.7986 1.57543 -5.29041 0
M  V30 815 H 71.2746 2.26439 -3.49091 0
M  V30 816 H 70.1506 3.34988 -4.34826 0
M  V30 817 H 70.4116 3.55825 -2.62375 0
M  V30 818 N 69.4707 1.49531 0.497807 0
M  V30 819 C 70.7167 1.60388 1.25089 0
M  V30 820 C 71.0717 0.288328 1.90227 0
M  V30 821 O 70.3647 -0.711706 1.77891 0
M  V30 822 C 70.5587 2.70252 2.33878 0
M  V30 823 C 70.3877 4.12363 1.79408 0
M  V30 824 C 69.1577 4.7911 1.60566 0
M  V30 825 C 71.3557 4.97491 1.30412 0
M  V30 826 N 69.3377 6.05525 1.01059 0
M  V30 827 C 70.7087 6.14411 0.830595 0
M  V30 828 C 72.7637 4.83466 1.19015 0
M  V30 829 C 71.4667 7.1885 0.254371 0
M  V30 830 C 73.4927 5.88057 0.627892 0
M  V30 831 C 72.8547 7.04208 0.16461 0
M  V30 832 H 68.9537 0.641246 0.447579 0
M  V30 833 H 71.5377 1.86549 0.557441 0
M  V30 834 H 69.7087 2.45858 3.0068 0
M  V30 835 H 71.4407 2.70613 3.00917 0
M  V30 836 H 68.1957 4.35961 1.85026 0
M  V30 837 H 68.6197 6.73028 0.732236 0
M  V30 838 H 73.2617 3.93978 1.53431 0
M  V30 839 H 70.9797 8.08036 -0.102052 0
M  V30 840 H 74.5657 5.79266 0.542444 0
M  V30 841 H 73.4457 7.83757 -0.263669 0
M  V30 842 N 70.9488 -0.749086 1.3866 0
M  V30 843 C 72.1958 -1.50833 1.35114 0
M  V30 844 C 72.5238 -1.94415 -0.0574049 0
M  V30 845 O 71.7788 -1.66065 -1.03541 0
M  V30 846 C 72.0778 -2.7712 2.25697 0
M  V30 847 C 71.7438 -2.52477 3.73585 0
M  V30 848 C 70.4058 -2.45466 4.13884 0
M  V30 849 C 72.7578 -2.31066 4.67181 0
M  V30 850 C 70.0858 -2.15064 5.45861 0
M  V30 851 C 72.4378 -2.02183 5.9942 0
M  V30 852 C 71.1018 -1.93631 6.38798 0
M  V30 853 H 70.3718 -0.551936 0.494416 0
M  V30 854 H 73.0188 -0.860979 1.71054 0
M  V30 855 H 71.3238 -3.46528 1.82827 0
M  V30 856 H 73.0208 -3.35096 2.20254 0
M  V30 857 H 69.6108 -2.58807 3.41638 0
M  V30 858 H 73.7948 -2.35459 4.3689 0
M  V30 859 H 69.0508 -2.06954 5.75308 0
M  V30 860 H 73.2248 -1.8462 6.71482 0
M  V30 861 H 70.8518 -1.69839 7.40985 0
M  V30 862 N 72.4269 -1.23603 -0.977757 0
M  V30 863 C 73.6749 -1.06759 -1.71601 0
M  V30 864 C 73.9959 0.395929 -1.90938 0
M  V30 865 O 73.2659 1.28356 -1.47992 0
M  V30 866 H 71.8459 -0.392062 -0.635843 0
M  V30 867 H 74.5079 -1.55362 -1.1768 0
M  V30 868 H 73.6039 -1.55763 -2.70452 0
M  V30 869 N 73.905 1.17692 -1.04816 0
M  V30 870 C 75.321 1.39863 -0.768794 0
M  V30 871 C 75.521 1.91118 0.638451 0
M  V30 872 O 74.577 2.10036 1.40146 0
M  V30 873 C 75.89 2.39274 -1.82122 0
M  V30 874 C 77.438 2.52987 -1.843 0
M  V30 875 C 77.913 3.55669 -2.88555 0
M  V30 876 N 79.404 3.63183 -2.87493 0
M  V30 877 C 80.139 4.42381 -3.64811 0
M  V30 878 N 79.635 5.25125 -4.51903 0
M  V30 879 N 81.428 4.37217 -3.53267 0
M  V30 880 H 73.579 0.82752 -1.95617 0
M  V30 881 H 75.842 0.426123 -0.846831 0
M  V30 882 H 75.548 2.08678 -2.83102 0
M  V30 883 H 75.422 3.38725 -1.65967 0
M  V30 884 H 77.809 2.82896 -0.839869 0
M  V30 885 H 77.89 1.53623 -2.04532 0
M  V30 886 H 77.534 3.26499 -3.89051 0
M  V30 887 H 77.464 4.54728 -2.65575 0
M  V30 888 H 79.955 3.04103 -2.24343 0
M  V30 889 H 80.268 5.82728 -5.07591 0
M  V30 890 H 78.613 5.24519 -4.55966 0
M  V30 891 H 81.804 3.71626 -2.84625 0
M  V30 892 H 81.977 4.98696 -4.13771 0
M  V30 893 N 75.3831 0.828654 1.34056 0
M  V30 894 C 76.3301 0.252567 2.29414 0
M  V30 895 C 77.3001 -0.62588 1.53857 0
M  V30 896 O 78.4851 -0.566312 1.82202 0
M  V30 897 C 75.6251 -0.574831 3.40279 0
M  V30 898 C 74.7381 0.326499 4.30764 0
M  V30 899 C 73.8731 -0.511016 5.28736 0
M  V30 900 C 72.9121 0.389342 6.1086 0
M  V30 901 N 72.0491 -0.409439 7.00905 0
M  V30 902 H 76.8891 1.07108 2.78086 0
M  V30 903 H 74.4261 0.539677 1.36843 0
M  V30 904 H 76.3841 -1.06992 4.03248 0
M  V30 905 H 75.0141 -1.35841 2.92826 0
M  V30 906 H 74.0661 0.939837 3.68607 0
M  V30 907 H 75.3781 1.01857 4.88289 0
M  V30 908 H 74.5321 -1.07035 5.97184 0
M  V30 909 H 73.2711 -1.23657 4.71763 0
M  V30 910 H 72.2761 0.960769 5.4134 0
M  V30 911 H 73.5011 1.1131 6.69916 0
M  V30 912 H 71.4471 -1.11856 6.46393 0
M  V30 913 H 71.3641 0.224126 7.55668 0
M  V30 914 H 72.6321 -0.951336 7.73673 0
M  V30 915 N 76.8612 -1.46375 0.584142 0
M  V30 916 C 78.1382 -1.956 0.0033388 0
M  V30 917 C 78.5182 -1.52679 -1.45782 0
M  V30 918 O 77.8662 -0.77816 -2.14842 0
M  V30 919 C 78.0762 -3.48551 0.176891 0
M  V30 920 C 79.4242 -4.24576 0.0454609 0
M  V30 921 O 80.4482 -3.56043 0.105801 0
M  V30 922 O 79.3072 -5.46427 -0.0890376 0
M  V30 923 H 76.4012 -0.825547 -0.0490066 0
M  V30 924 H 78.9472 -1.56652 0.65256 0
M  V30 925 H 77.7192 -3.72683 1.1926 0
M  V30 926 H 77.3422 -3.94332 -0.508695 0
M  V30 927 N 78.3393 -0.321999 -1.54275 0
M  V30 928 C 79.2723 0.58718 -2.20516 0
M  V30 929 C 80.2503 1.11693 -1.18167 0
M  V30 930 O 81.4343 1.18122 -1.46899 0
M  V30 931 C 78.5613 1.80554 -2.86562 0
M  V30 932 C 77.6073 1.40718 -4.02617 0
M  V30 933 S 78.4403 0.445218 -5.33646 0
M  V30 934 C 79.5963 1.6709 -6.03185 0
M  V30 935 H 79.8293 0.0244875 -2.9729 0
M  V30 936 H 77.3623 -0.106087 -1.54035 0
M  V30 937 H 79.3203 2.50462 -3.25237 0
M  V30 938 H 77.9813 2.33942 -2.09595 0
M  V30 939 H 77.1743 2.31501 -4.47687 0
M  V30 940 H 76.7763 0.78782 -3.65608 0
M  V30 941 H 79.0683 2.60856 -6.25268 0
M  V30 942 H 80.0113 1.26239 -6.96756 0
M  V30 943 H 80.4193 1.85716 -5.33076 0
M  V30 944 N 79.8174 1.5752 -0.0501392 0
M  V30 945 C 81.0424 1.97376 0.636997 0
M  V30 946 C 81.4674 0.927466 1.63645 0
M  V30 947 O 80.8254 -0.10941 1.8097 0
M  V30 948 C 80.8734 3.36304 1.30123 0
M  V30 949 O 79.9774 3.34156 2.41689 0
M  V30 950 H 79.3184 0.642998 0.165679 0
M  V30 951 H 81.8484 2.04258 -0.118233 0
M  V30 952 H 81.8584 3.73008 1.65315 0
M  V30 953 H 80.5334 4.11993 0.568746 0
M  V30 954 H 79.1104 3.09196 2.08451 0
M  V30 955 N 81.2955 -0.223234 1.56011 0
M  V30 956 C 82.5255 -0.963413 1.82762 0
M  V30 957 C 82.9335 -1.78516 0.626804 0
M  V30 958 O 82.2765 -1.78974 -0.414014 0
M  V30 959 C 82.3385 -1.93126 3.0322 0
M  V30 960 C 82.0025 -1.2942 4.38291 0
M  V30 961 C 82.9995 -0.684916 5.15369 0
M  V30 962 C 80.6845 -1.30647 4.85012 0
M  V30 963 C 82.6785 -0.0963971 6.37327 0
M  V30 964 C 80.3655 -0.71411 6.06913 0
M  V30 965 C 81.3635 -0.110123 6.82911 0
M  V30 966 O 81.0515 0.47303 8.02507 0
M  V30 967 H 80.7835 -0.288011 0.611576 0
M  V30 968 H 83.3375 -0.244103 2.03944 0
M  V30 969 H 81.5675 -2.68952 2.77852 0
M  V30 970 H 83.2565 -2.53685 3.16857 0
M  V30 971 H 84.0225 -0.667774 4.80381 0
M  V30 972 H 79.9015 -1.76598 4.25833 0
M  V30 973 H 83.4455 0.375657 6.96588 0
M  V30 974 H 79.3425 -0.728659 6.41374 0
M  V30 975 H 80.1105 0.367186 8.17676 0
M  V30 976 N 82.7736 -1.49793 -0.48987 0
M  V30 977 C 83.7206 -1.67281 -1.59014 0
M  V30 978 C 84.6906 -0.514177 -1.57941 0
M  V30 979 O 85.8756 -0.742533 -1.75759 0
M  V30 980 C 83.0156 -1.75569 -2.97102 0
M  V30 981 C 82.1286 -3.0281 -3.08107 0
M  V30 982 C 81.2636 -3.02008 -4.36995 0
M  V30 983 C 80.3026 -4.23782 -4.41673 0
M  V30 984 N 79.4396 -4.20826 -5.62005 0
M  V30 985 H 84.2796 -2.61224 -1.43409 0
M  V30 986 H 81.8166 -1.29508 -0.697565 0
M  V30 987 H 83.7746 -1.78354 -3.77155 0
M  V30 988 H 82.4046 -0.850827 -3.11385 0
M  V30 989 H 81.4566 -3.09584 -2.21047 0
M  V30 990 H 82.7686 -3.92801 -3.07423 0
M  V30 991 H 81.9226 -3.03418 -5.25378 0
M  V30 992 H 80.6616 -2.09815 -4.4026 0
M  V30 993 H 79.6666 -4.22604 -3.5169 0
M  V30 994 H 80.8916 -5.17181 -4.40115 0
M  V30 995 H 78.8376 -3.31476 -5.66091 0
M  V30 996 H 78.7546 -5.04564 -5.62984 0
M  V30 997 H 80.0226 -4.26355 -6.52565 0
M  V30 998 N 84.2517 0.741722 -1.39055 0
M  V30 999 C 85.4977 1.50336 -1.36113 0
M  V30 1000 C 85.8307 1.94148 0.0450796 0
M  V30 1001 O 85.1057 1.66301 1.00868 0
M  V30 1002 C 85.3887 2.74773 -2.32749 0
M  V30 1003 C 85.2417 2.37023 -3.82283 0
M  V30 1004 C 86.5607 3.76846 -2.27322 0
M  V30 1005 H 83.6797 0.545351 -0.495743 0
M  V30 1006 H 86.3217 0.848624 -1.69995 0
M  V30 1007 H 84.4717 3.30639 -2.03986 0
M  V30 1008 H 86.1437 1.8684 -4.21768 0
M  V30 1009 H 84.3867 1.69334 -3.99385 0
M  V30 1010 H 85.0577 3.26104 -4.45376 0
M  V30 1011 H 87.5337 3.30548 -2.5274 0
M  V30 1012 H 86.4097 4.6159 -2.97028 0
M  V30 1013 H 86.6707 4.23286 -1.27599 0
M  V30 1014 N 85.7298 1.2412 0.971189 0
M  V30 1015 C 86.9788 1.07284 1.70801 0
M  V30 1016 C 87.2918 -0.388902 1.91695 0
M  V30 1017 O 88.4978 -0.677379 2.62914 0
M  V30 1018 C 86.9538 1.87145 3.07416 0
M  V30 1019 C 86.5618 3.37707 2.94377 0
M  V30 1020 C 88.3058 1.78828 3.84995 0
M  V30 1021 C 86.2128 4.09925 4.26281 0
M  V30 1022 H 85.1428 0.397854 0.64049 0
M  V30 1023 H 87.7938 1.4817 1.0825 0
M  V30 1024 H 86.1758 1.39071 3.70777 0
M  V30 1025 H 87.3498 3.93335 2.4005 0
M  V30 1026 H 85.6648 3.46938 2.30267 0
M  V30 1027 H 88.2618 2.30089 4.82662 0
M  V30 1028 H 88.6048 0.75284 4.09436 0
M  V30 1029 H 89.1378 2.24563 3.28354 0
M  V30 1030 H 85.8768 5.13813 4.07033 0
M  V30 1031 H 85.3968 3.59083 4.80437 0
M  V30 1032 H 87.0758 4.1673 4.94919 0
M  V30 1033 N 87.2079 -1.17134 1.05439 0
M  V30 1034 C 88.4539 -1.87733 0.767077 0
M  V30 1035 C 88.7869 -1.8098 -0.704253 0
M  V30 1036 O 88.0619 -1.21951 -1.5152 0
M  V30 1037 C 88.3449 -3.37659 1.25133 0
M  V30 1038 C 88.1979 -3.53149 2.78578 0
M  V30 1039 C 89.5169 -4.31768 0.852324 0
M  V30 1040 H 86.6359 -0.681687 0.280129 0
M  V30 1041 H 89.2779 -1.37732 1.30881 0
M  V30 1042 H 87.4279 -3.80373 0.790469 0
M  V30 1043 H 89.0999 -3.19434 3.32806 0
M  V30 1044 H 87.3429 -2.95345 3.17732 0
M  V30 1045 H 88.0139 -4.58403 3.07523 0
M  V30 1046 H 90.4899 -3.96909 1.24911 0
M  V30 1047 H 89.3659 -5.35199 1.21873 0
M  V30 1048 H 89.6269 -4.41429 -0.243485 0
M  V30 1049 N 88.686 -0.835752 -1.33615 0
M  V30 1050 C 89.963 -0.352017 -1.92406 0
M  V30 1051 C 90.343 1.16225 -1.76224 0
M  V30 1052 O 89.691 1.97526 -1.14873 0
M  V30 1053 C 89.901 -0.795485 -3.39813 0
M  V30 1054 C 91.249 -0.801703 -4.16963 0
M  V30 1055 O 92.273 -0.738889 -3.48452 0
M  V30 1056 O 91.132 -0.886607 -5.3926 0
M  V30 1057 H 88.226 -0.0989641 -0.821057 0
M  V30 1058 H 90.772 -0.921397 -1.42507 0
M  V30 1059 H 89.544 -1.83795 -3.45449 0
M  V30 1060 H 89.167 -0.202505 -3.97084 0
M  V30 1061 N 90.1641 1.46063 -0.591896 0
M  V30 1062 C 91.3891 2.07226 -0.0850314 0
M  V30 1063 C 91.8141 1.43625 1.21463 0
M  V30 1064 O 91.1721 0.523305 1.73583 0
M  V30 1065 C 91.2201 3.60554 0.0576567 0
M  V30 1066 O 90.3241 3.97128 1.11188 0
M  V30 1067 H 89.6651 0.660615 -0.0669568 0
M  V30 1068 H 92.1951 1.8756 -0.81745 0
M  V30 1069 H 92.2051 4.07165 0.2609 0
M  V30 1070 H 90.8801 4.06235 -0.891416 0
M  V30 1071 H 89.4571 3.62213 0.886356 0
M  V30 1072 N 91.6422 0.330177 1.54103 0
M  V30 1073 C 92.8822 -0.270916 2.02597 0
M  V30 1074 C 93.2462 -1.48826 1.21304 0
M  V30 1075 O 94.4472 -2.16266 1.59633 0
M  V30 1076 C 92.7182 -0.590328 3.52491 0
M  V30 1077 S 94.2772 -1.17014 4.2291 0
M  V30 1078 H 91.0952 -0.0815379 0.706309 0
M  V30 1079 H 93.6972 0.464835 1.89893 0
M  V30 1080 H 92.4012 0.303691 4.09275 0
M  V30 1081 H 91.9322 -1.3561 3.69288 0
M  V30 1082 H 93.9472 -2.45662 4.3112 0
M  V30 1083 N 93.1203 -1.57491 0.0584922 0
M  V30 1084 C 94.3683 -1.92597 -0.612436 0
M  V30 1085 C 94.6893 -0.938162 -1.70949 0
M  V30 1086 O 93.9593 0.0158301 -1.95894 0
M  V30 1087 H 92.5393 -0.710964 -0.229214 0
M  V30 1088 H 95.2013 -1.94571 0.113218 0
M  V30 1089 H 94.2973 -2.94038 -1.04633 0
M  V30 1090 N 94.5984 0.214957 -1.56127 0
M  V30 1091 C 95.5084 1.28727 -1.96129 0
M  V30 1092 C 96.5244 1.50916 -0.866044 0
M  V30 1093 O 97.7004 1.63918 -1.17016 0
M  V30 1094 C 94.7654 2.61569 -2.27558 0
M  V30 1095 C 93.8264 2.47625 -3.50685 0
M  V30 1096 C 93.0594 3.74132 -3.80606 0
M  V30 1097 O 93.2824 4.77438 -3.12104 0
M  V30 1098 O 92.2164 3.70849 -4.74083 0
M  V30 1099 H 96.0424 0.977855 -2.87527 0
M  V30 1100 H 93.6274 0.418358 -1.43423 0
M  V30 1101 H 95.5094 3.40012 -2.48938 0
M  V30 1102 H 94.1844 2.92178 -1.39332 0
M  V30 1103 H 93.0914 1.67361 -3.34576 0
M  V30 1104 H 94.4244 2.21954 -4.39315 0
M  V30 1105 N 96.0765 1.50051 0.48192 0
M  V30 1106 C 97.3235 1.60498 1.23477 0
M  V30 1107 C 97.6515 0.300331 1.92167 0
M  V30 1108 O 96.9065 -0.713094 1.82246 0
M  V30 1109 C 97.2055 2.72717 2.30998 0
M  V30 1110 C 96.8715 4.13572 1.79636 0
M  V30 1111 C 95.5335 4.519 1.65348 0
M  V30 1112 C 97.8855 5.01649 1.41412 0
M  V30 1113 C 95.2135 5.76057 1.11244 0
M  V30 1114 C 97.5655 6.26343 0.887538 0
M  V30 1115 C 96.2295 6.63483 0.731207 0
M  V30 1116 H 95.4995 0.587303 0.451836 0
M  V30 1117 H 98.1465 1.83948 0.532468 0
M  V30 1118 H 96.4515 2.43312 3.07094 0
M  V30 1119 H 98.1485 2.78006 2.88988 0
M  V30 1120 H 94.7385 3.83329 1.91721 0
M  V30 1121 H 98.9225 4.72679 1.51289 0
M  V30 1122 H 94.1785 6.03516 0.978686 0
M  V30 1123 H 98.3525 6.93958 0.582654 0
M  V30 1124 H 95.9795 7.59568 0.309806 0
M  V30 1125 N 97.5546 -0.734337 1.39446 0
M  V30 1126 C 98.7826 -1.52358 1.39981 0
M  V30 1127 C 99.1976 -1.88799 -0.0054975 0
M  V30 1128 O 98.5546 -1.54146 -0.976998 0
M  V30 1129 C 98.6056 -2.81072 2.27333 0
M  V30 1130 O 98.3266 -2.46178 3.62392 0
M  V30 1131 C 99.8276 -3.75096 2.36259 0
M  V30 1132 H 97.0476 -0.470806 0.478103 0
M  V30 1133 H 99.5916 -0.907339 1.83269 0
M  V30 1134 H 97.7466 -3.39026 1.87457 0
M  V30 1135 H 98.1606 -3.28866 4.08592 0
M  V30 1136 H 99.6346 -4.62305 3.01626 0
M  V30 1137 H 100.112 -4.16892 1.38194 0
M  V30 1138 H 100.718 -3.23061 2.76608 0
M  V30 1139 N 99.0327 -1.24633 -0.964593 0
M  V30 1140 C 100.444 -1.08045 -1.5226 0
M  V30 1141 C 100.795 0.347116 -1.93105 0
M  V30 1142 O 99.9197 1.23588 -1.77637 0
M  V30 1143 C 100.515 -1.95514 -2.76695 0
M  V30 1144 C 99.0737 -1.8314 -3.28841 0
M  V30 1145 C 98.2207 -1.90262 -2.01732 0
M  V30 1146 H 101.172 -1.38064 -0.782553 0
M  V30 1147 H 101.193 -1.48925 -3.50145 0
M  V30 1148 H 100.705 -2.99407 -2.46936 0
M  V30 1149 H 98.8057 -0.82092 -3.63444 0
M  V30 1150 H 98.9187 -2.67406 -3.97531 0
M  V30 1151 H 97.2827 -1.34027 -2.16584 0
M  V30 1152 H 98.0657 -2.9574 -1.74334 0
M  V30 1153 N 100.511 1.16574 -1.06058 0
M  V30 1154 C 101.421 2.2452 -0.680282 0
M  V30 1155 C 102.437 1.71348 0.302604 0
M  V30 1156 O 103.613 2.00822 0.152513 0
M  V30 1157 C 100.678 3.46629 -0.0700315 0
M  V30 1158 C 99.7388 4.14849 -1.10448 0
M  V30 1159 C 98.9718 5.31129 -0.523256 0
M  V30 1160 O 99.1948 5.66514 0.664709 0
M  V30 1161 O 98.1288 5.88526 -1.26179 0
M  V30 1162 H 101.955 2.59355 -1.58015 0
M  V30 1163 H 99.5398 1.24043 -0.832694 0
M  V30 1164 H 101.422 4.20543 0.268667 0
M  V30 1165 H 100.097 3.13573 0.803353 0
M  V30 1166 H 99.0038 3.42916 -1.49532 0
M  V30 1167 H 100.337 4.51954 -1.94931 0
M  V30 1168 N 101.989 0.842826 1.3317 0
M  V30 1169 C 102.922 0.223862 2.27099 0
M  V30 1170 C 103.9 -0.631311 1.49844 0
M  V30 1171 O 105.084 -0.590708 1.79005 0
M  V30 1172 C 102.211 -0.685313 3.31694 0
M  V30 1173 C 101.257 0.094919 4.26394 0
M  V30 1174 S 102.09 1.45546 5.15341 0
M  V30 1175 C 103.246 0.551685 6.23464 0
M  V30 1176 H 103.479 1.02015 2.79249 0
M  V30 1177 H 101.012 0.639797 1.4052 0
M  V30 1178 H 102.97 -1.20426 3.92438 0
M  V30 1179 H 101.631 -1.4553 2.78352 0
M  V30 1180 H 100.824 -0.597059 5.00451 0
M  V30 1181 H 100.426 0.545054 3.70007 0
M  V30 1182 H 102.718 -0.248877 6.77043 0
M  V30 1183 H 103.661 1.26253 6.96754 0
M  V30 1184 H 104.069 0.131275 5.64347 0
M  V30 1185 N 103.467 -1.45747 0.599634 0
M  V30 1186 C 104.414 -2.30467 -0.123849 0
M  V30 1187 C 105.384 -1.41632 -0.86774 0
M  V30 1188 O 106.569 -1.70568 -0.855056 0
M  V30 1189 C 103.709 -3.26402 -1.12051 0
M  V30 1190 C 102.822 -4.3034 -0.37832 0
M  V30 1191 C 101.957 -5.13389 -1.364 0
M  V30 1192 C 100.996 -6.09061 -0.609171 0
M  V30 1193 N 100.133 -6.84918 -1.54374 0
M  V30 1194 H 104.973 -2.91802 0.604627 0
M  V30 1195 H 102.51 -1.43797 0.309972 0
M  V30 1196 H 104.468 -3.80482 -1.7114 0
M  V30 1197 H 103.098 -2.66839 -1.8165 0
M  V30 1198 H 102.15 -3.78984 0.327929 0
M  V30 1199 H 103.462 -4.98354 0.210997 0
M  V30 1200 H 102.616 -5.7183 -2.02719 0
M  V30 1201 H 101.355 -4.45376 -1.98725 0
M  V30 1202 H 100.36 -5.49758 0.0676979 0
M  V30 1203 H 101.585 -6.79099 0.00891991 0
M  V30 1204 H 99.531 -6.19601 -2.15478 0
M  V30 1205 H 99.448 -7.49254 -1.00766 0
M  V30 1206 H 100.716 -7.47906 -2.19676 0
M  V30 1207 N 104.945 -0.338344 -1.53925 0
M  V30 1208 C 105.908 0.508299 -2.23493 0
M  V30 1209 C 106.908 1.03175 -1.23335 0
M  V30 1210 O 108.098 0.921826 -1.47811 0
M  V30 1211 C 105.23 1.70754 -2.95052 0
M  V30 1212 H 106.423 -0.100058 -2.99733 0
M  V30 1213 H 103.976 -0.0896198 -1.56043 0
M  V30 1214 H 104.711 2.35474 -2.22986 0
M  V30 1215 H 104.496 1.33946 -3.68512 0
M  V30 1216 H 105.986 2.30818 -3.48013 0
M  V30 1217 N 106.423 1.57458 -0.0668435 0
M  V30 1218 C 107.7 1.8469 0.644132 0
M  V30 1219 C 108.08 0.958343 1.88093 0
M  V30 1220 O 107.428 0.0233579 2.28488 0
M  V30 1221 C 107.638 3.34767 0.986509 0
M  V30 1222 C 108.986 4.02159 1.36212 0
M  V30 1223 O 110.01 3.39484 1.07839 0
M  V30 1224 O 108.869 5.12694 1.89227 0
M  V30 1225 H 105.963 0.762816 0.319437 0
M  V30 1226 H 108.509 1.6942 -0.0973986 0
M  V30 1227 H 107.281 3.91151 0.107883 0
M  V30 1228 H 106.904 3.55281 1.78497 0
M  V30 1229 N 107.901 -0.206675 1.56239 0
M  V30 1230 C 109.149 -0.927007 1.79586 0
M  V30 1231 C 109.47 -1.8427 0.637929 0
M  V30 1232 O 108.74 -1.92849 -0.344398 0
M  V30 1233 H 107.32 -0.345292 0.662407 0
M  V30 1234 H 109.982 -0.21496 1.93711 0
M  V30 1235 H 109.078 -1.52501 2.72305 0
M  V30 1236 N 109.379 -1.50304 -0.473955 0
M  V30 1237 C 110.627 -1.60832 -1.22382 0
M  V30 1238 C 110.948 -0.30939 -1.9253 0
M  V30 1239 O 110.218 0.67296 -1.83978 0
M  V30 1240 H 108.798 -0.592652 -0.454723 0
M  V30 1241 H 111.46 -1.87068 -0.546968 0
M  V30 1242 H 110.556 -2.41803 -1.97327 0
M  V30 1243 N 110.857 0.726932 -1.39834 0
M  V30 1244 C 112.104 1.48664 -1.37496 0
M  V30 1245 C 112.432 1.94482 0.0264678 0
M  V30 1246 O 111.687 1.67692 1.00886 0
M  V30 1247 C 111.986 2.73495 -2.30077 0
M  V30 1248 C 111.652 2.46502 -3.77555 0
M  V30 1249 C 110.314 2.3885 -4.17737 0
M  V30 1250 C 112.666 2.23604 -4.70798 0
M  V30 1251 C 109.994 2.06352 -5.49214 0
M  V30 1252 C 112.346 1.92622 -6.02561 0
M  V30 1253 C 111.01 1.83444 -6.41798 0
M  V30 1254 H 110.28 0.544001 -0.503135 0
M  V30 1255 H 112.927 0.833657 -1.72402 0
M  V30 1256 H 111.232 3.43575 -1.88317 0
M  V30 1257 H 112.929 3.31549 -2.25558 0
M  V30 1258 H 109.519 2.5334 -3.45712 0
M  V30 1259 H 113.703 2.28479 -4.40581 0
M  V30 1260 H 108.959 1.97776 -5.78528 0
M  V30 1261 H 113.133 1.73914 -6.74334 0
M  V30 1262 H 110.76 1.58029 -7.43593 0
M  V30 1263 N 112.336 1.25143 0.95797 0
M  V30 1264 C 113.246 1.06968 2.08794 0
M  V30 1265 C 114.262 0.00773911 1.73998 0
M  V30 1266 O 115.438 0.207972 2.00323 0
M  V30 1267 C 112.503 0.68691 3.39827 0
M  V30 1268 C 111.564 1.82641 3.88511 0
M  V30 1269 C 110.797 1.46181 5.1329 0
M  V30 1270 O 111.02 0.355971 5.69288 0
M  V30 1271 O 109.954 2.29085 5.566 0
M  V30 1272 H 113.78 2.01723 2.27027 0
M  V30 1273 H 111.365 1.04051 1.07209 0
M  V30 1274 H 113.247 0.485417 4.18595 0
M  V30 1275 H 111.922 -0.231417 3.22872 0
M  V30 1276 H 110.829 2.08274 3.10762 0
M  V30 1277 H 112.162 2.72386 4.09959 0
M  V30 1278 N 113.814 -1.1601 1.06675 0
M  V30 1279 C 114.764 -2.18512 0.650888 0
M  V30 1280 C 115.748 -1.57677 -0.320441 0
M  V30 1281 O 116.94 -1.76482 -0.135266 0
M  V30 1282 C 114.069 -3.43273 0.0429255 0
M  V30 1283 C 113.155 -4.11176 1.03898 0
M  V30 1284 N 113.546 -4.54672 2.216 0
M  V30 1285 C 111.844 -4.37417 0.870779 0
M  V30 1286 C 112.545 -5.07248 2.84736 0
M  V30 1287 N 111.521 -5.0037 2.12441 0
M  V30 1288 H 115.323 -2.49863 1.54745 0
M  V30 1289 H 112.837 -1.32503 0.938975 0
M  V30 1290 H 114.834 -4.16006 -0.272857 0
M  V30 1291 H 113.494 -3.13408 -0.84884 0
M  V30 1292 H 114.505 -4.4828 2.59356 0
M  V30 1293 H 111.182 -4.17488 0.0313293 0
M  V30 1294 H 112.572 -5.50912 3.84636 0
M  V30 1295 N 115.292 -0.849877 -1.32721 0
M  V30 1296 C 116.538 -0.451591 -1.97708 0
M  V30 1297 C 116.871 0.989175 -1.6712 0
M  V30 1298 O 116.146 1.69334 -0.956891 0
M  V30 1299 C 116.429 -0.685598 -3.53513 0
M  V30 1300 C 116.282 -2.17444 -3.93749 0
M  V30 1301 C 117.601 -0.138874 -4.39881 0
M  V30 1302 H 114.72 -0.16555 -0.718166 0
M  V30 1303 H 117.362 -1.06742 -1.57182 0
M  V30 1304 H 115.512 -0.161416 -3.88165 0
M  V30 1305 H 117.184 -2.76433 -3.693 0
M  V30 1306 H 115.427 -2.65476 -3.43081 0
M  V30 1307 H 116.098 -2.28888 -5.02309 0
M  V30 1308 H 118.574 -0.587068 -4.11938 0
M  V30 1309 H 117.45 -0.332213 -5.47894 0
M  V30 1310 H 117.711 0.95806 -4.31594 0
M  V30 1311 N 116.77 1.45427 -0.607355 0
M  V30 1312 C 117.733 2.28974 0.101693 0
M  V30 1313 C 118.733 1.39754 0.795329 0
M  V30 1314 O 119.923 1.61878 0.643527 0
M  V30 1315 C 117.055 3.20768 1.15414 0
M  V30 1316 H 118.248 2.93147 -0.632844 0
M  V30 1317 H 115.801 1.51945 -0.366391 0
M  V30 1318 H 116.536 2.61395 1.91945 0
M  V30 1319 H 116.321 3.86489 0.66098 0
M  V30 1320 H 117.811 3.83589 1.65073 0
M  V30 1321 N 118.248 0.346503 1.53744 0
M  V30 1322 C 119.178 -0.501193 2.28058 0
M  V30 1323 C 120.159 -1.10014 1.29734 0
M  V30 1324 O 121.344 -1.12097 1.58581 0
M  V30 1325 C 118.474 -1.65078 3.05559 0
M  V30 1326 C 117.428 -1.18003 4.11411 0
M  V30 1327 C 116.754 -2.41837 4.76884 0
M  V30 1328 C 118.054 -0.278394 5.21558 0
M  V30 1329 H 119.748 0.11875 2.99164 0
M  V30 1330 H 117.294 0.0585531 1.43881 0
M  V30 1331 H 119.247 -2.25028 3.56287 0
M  V30 1332 H 117.971 -2.29767 2.32109 0
M  V30 1333 H 116.63 -0.603331 3.61601 0
M  V30 1334 H 116.278 -3.0494 4.00026 0
M  V30 1335 H 115.978 -2.1102 5.48402 0
M  V30 1336 H 117.502 -3.02508 5.30397 0
M  V30 1337 H 118.916 -0.784823 5.67903 0
M  V30 1338 H 117.313 -0.0619707 6.00068 0
M  V30 1339 H 118.383 0.684677 4.80042 0
M  V30 1340 N 119.726 -1.57421 0.075193 0
M  V30 1341 C 120.974 -1.93236 -0.591974 0
M  V30 1342 C 121.295 -0.956241 -1.69944 0
M  V30 1343 O 120.565 -0.00494792 -1.95899 0
M  V30 1344 H 119.145 -0.713355 -0.22166 0
M  V30 1345 H 121.807 -1.9444 0.133848 0
M  V30 1346 H 120.903 -2.95131 -1.01509 0
M  V30 1347 N 121.204 0.198386 -1.56346 0
M  V30 1348 C 122.453 0.917451 -1.79627 0
M  V30 1349 C 122.766 1.8456 -0.64784 0
M  V30 1350 O 123.972 2.60504 -0.764859 0
M  V30 1351 C 122.428 1.68175 -3.18191 0
M  V30 1352 C 122.036 0.798589 -4.40825 0
M  V30 1353 C 123.78 2.39065 -3.50782 0
M  V30 1354 C 121.687 1.56157 -5.70411 0
M  V30 1355 H 120.617 0.346317 -0.669762 0
M  V30 1356 H 123.268 0.170801 -1.82703 0
M  V30 1357 H 121.65 2.47216 -3.09354 0
M  V30 1358 H 122.824 0.0470665 -4.60776 0
M  V30 1359 H 121.139 0.200686 -4.15916 0
M  V30 1360 H 123.736 2.96692 -4.44835 0
M  V30 1361 H 124.079 3.13091 -2.74371 0
M  V30 1362 H 124.612 1.66993 -3.61052 0
M  V30 1363 H 121.351 0.864142 -6.49779 0
M  V30 1364 H 120.871 2.2871 -5.54483 0
M  V30 1365 H 122.55 2.11622 -6.11412 0
M  V30 1366 N 122.682 1.50554 0.465978 0
M  V30 1367 C 123.614 1.65949 1.58093 0
M  V30 1368 C 124.627 0.540827 1.53554 0
M  V30 1369 O 125.816 0.814187 1.5885 0
M  V30 1370 C 122.916 1.63261 2.96983 0
M  V30 1371 C 122.089 2.91245 3.26336 0
M  V30 1372 C 121.148 2.8113 4.44806 0
M  V30 1373 O 120.174 3.55086 4.44862 0
M  V30 1374 N 121.376 1.95032 5.46756 0
M  V30 1375 H 124.141 2.62122 1.45301 0
M  V30 1376 H 121.702 1.48082 0.65448 0
M  V30 1377 H 123.694 1.54101 3.74212 0
M  V30 1378 H 122.264 0.748032 3.03518 0
M  V30 1379 H 121.484 3.14493 2.37672 0
M  V30 1380 H 122.772 3.76022 3.42761 0
M  V30 1381 H 122.17 1.3427 5.49534 0
M  V30 1382 H 120.727 1.91772 6.2295 0
M  V30 1383 N 124.16 -0.719506 1.40217 0
M  V30 1384 C 125.409 -1.47486 1.37589 0
M  V30 1385 C 125.722 -1.9559 -0.0201568 0
M  V30 1386 O 126.928 -2.70973 -0.169049 0
M  V30 1387 C 125.384 -2.66575 2.41796 0
M  V30 1388 C 124.992 -2.25358 3.87192 0
M  V30 1389 C 126.736 -3.4433 2.48269 0
M  V30 1390 C 124.643 -3.41262 4.83005 0
M  V30 1391 H 123.573 -0.553901 0.511576 0
M  V30 1392 H 126.224 -0.783427 1.65936 0
M  V30 1393 H 124.606 -3.3787 2.06543 0
M  V30 1394 H 125.78 -1.61509 4.31569 0
M  V30 1395 H 124.095 -1.60657 3.84159 0
M  V30 1396 H 126.692 -4.30569 3.17041 0
M  V30 1397 H 127.035 -3.87872 1.51198 0
M  V30 1398 H 127.568 -2.80076 2.82493 0
M  V30 1399 H 124.307 -3.02755 5.81394 0
M  V30 1400 H 123.827 -4.0404 4.43297 0
M  V30 1401 H 125.506 -4.07383 5.02641 0
M  V30 1402 N 125.638 -1.25649 -0.95132 0
M  V30 1403 C 126.548 -1.08073 -2.08224 0
M  V30 1404 C 127.564 -0.0169666 -1.73992 0
M  V30 1405 O 128.74 -0.218593 -2.0021 0
M  V30 1406 C 125.805 -0.704922 -3.39458 0
M  V30 1407 C 124.866 -1.84699 -3.87537 0
M  V30 1408 C 124.099 -1.48902 -5.12508 0
M  V30 1409 O 124.322 -0.386156 -5.69091 0
M  V30 1410 O 123.256 -2.32033 -5.55378 0
M  V30 1411 H 127.082 -2.02924 -2.25954 0
M  V30 1412 H 124.667 -1.04618 -1.06656 0
M  V30 1413 H 126.549 -0.507609 -4.18332 0
M  V30 1414 H 125.224 0.214291 -3.2299 0
M  V30 1415 H 124.131 -2.09919 -3.09653 0
M  V30 1416 H 125.464 -2.74557 -4.08509 0
M  V30 1417 N 127.117 1.15442 -1.07289 0
M  V30 1418 C 128.394 1.82306 -0.708792 0
M  V30 1419 C 128.774 1.94991 0.808807 0
M  V30 1420 O 128.122 1.50085 1.72298 0
M  V30 1421 C 128.332 3.18695 -1.42247 0
M  V30 1422 C 129.68 3.94341 -1.57417 0
M  V30 1423 O 130.704 3.28247 -1.38319 0
M  V30 1424 O 129.563 5.12839 -1.88834 0
M  V30 1425 H 126.657 0.787628 -0.252132 0
M  V30 1426 H 129.203 1.22559 -1.17377 0
M  V30 1427 H 127.975 3.04557 -2.45684 0
M  V30 1428 H 127.598 3.86128 -0.948223 0
M  V30 1429 N 128.595 0.856903 1.32268 0
M  V30 1430 C 129.823 0.475439 2.01363 0
M  V30 1431 C 130.238 -0.928486 1.64392 0
M  V30 1432 O 129.595 -1.60624 0.866387 0
M  V30 1433 C 129.646 0.607545 3.56358 0
M  V30 1434 O 129.367 1.95617 3.92002 0
M  V30 1435 C 130.868 0.225382 4.42727 0
M  V30 1436 H 128.088 0.186636 0.644521 0
M  V30 1437 H 130.632 1.15446 1.68797 0
M  V30 1438 H 128.787 -0.0237719 3.87393 0
M  V30 1439 H 129.201 1.95455 4.86721 0
M  V30 1440 H 130.675 0.368813 5.50767 0
M  V30 1441 H 131.152 -0.834369 4.31202 0
M  V30 1442 H 131.758 0.831864 4.17085 0
M  V30 1443 N 130.073 -1.45103 0.615059 0
M  V30 1444 C 131.005 -2.28786 -0.13762 0
M  V30 1445 C 132.018 -1.40376 -0.824525 0
M  V30 1446 O 133.207 -1.64681 -0.688662 0
M  V30 1447 C 130.307 -3.16322 -1.21628 0
M  V30 1448 C 129.48 -4.33054 -0.615039 0
M  V30 1449 C 128.539 -5.01743 -1.58556 0
M  V30 1450 O 127.565 -5.58293 -1.10895 0
M  V30 1451 N 128.767 -5.01714 -2.91998 0
M  V30 1452 H 131.532 -2.94025 0.580483 0
M  V30 1453 H 129.093 -1.55373 0.45507 0
M  V30 1454 H 131.085 -3.59139 -1.86552 0
M  V30 1455 H 129.655 -2.52943 -1.83681 0
M  V30 1456 H 128.875 -3.93627 0.21245 0
M  V30 1457 H 130.163 -5.08431 -0.193704 0
M  V30 1458 H 129.561 -4.57075 -3.33316 0
M  V30 1459 H 128.118 -5.48371 -3.52325 0
M  V30 1460 N 131.551 -0.354651 -1.53558 0
M  V30 1461 C 132.797 0.231422 -2.02079 0
M  V30 1462 C 133.152 1.47308 -1.23767 0
M  V30 1463 O 132.445 1.8891 -0.319947 0
M  V30 1464 C 132.639 0.587121 -3.52545 0
M  V30 1465 C 132.468 -0.618513 -4.45426 0
M  V30 1466 C 131.238 -1.12724 -4.92566 0
M  V30 1467 C 133.436 -1.48039 -4.92533 0
M  V30 1468 N 131.418 -2.29404 -5.69427 0
M  V30 1469 C 132.789 -2.49397 -5.67628 0
M  V30 1470 C 134.844 -1.50454 -4.74624 0
M  V30 1471 C 133.547 -3.53013 -6.26717 0
M  V30 1472 C 135.573 -2.52958 -5.34571 0
M  V30 1473 C 134.935 -3.5304 -6.09543 0
M  V30 1474 H 131.034 0.0476909 -0.780544 0
M  V30 1475 H 133.618 -0.496727 -1.88257 0
M  V30 1476 H 131.789 1.28436 -3.6655 0
M  V30 1477 H 133.521 1.15734 -3.87799 0
M  V30 1478 H 130.276 -0.693577 -4.68494 0
M  V30 1479 H 130.7 -2.88347 -6.12524 0
M  V30 1480 H 135.342 -0.744356 -4.16196 0
M  V30 1481 H 133.06 -4.2992 -6.84247 0
M  V30 1482 H 136.646 -2.55667 -5.22614 0
M  V30 1483 H 135.526 -4.31056 -6.55103 0
M  V30 1484 N 133.029 1.57378 -0.0835403 0
M  V30 1485 C 134.257 1.98263 0.59157 0
M  V30 1486 C 134.672 0.962302 1.62435 0
M  V30 1487 O 134.029 -0.049581 1.82433 0
M  V30 1488 C 134.08 3.39214 1.24965 0
M  V30 1489 O 133.801 4.37339 0.258186 0
M  V30 1490 C 135.302 3.95038 2.01147 0
M  V30 1491 H 132.522 0.651773 0.159477 0
M  V30 1492 H 135.066 2.03878 -0.159415 0
M  V30 1493 H 133.221 3.34649 1.95164 0
M  V30 1494 H 133.635 5.19371 0.731734 0
M  V30 1495 H 135.109 4.95848 2.42567 0
M  V30 1496 H 135.586 3.32222 2.87272 0
M  V30 1497 H 136.192 4.0304 1.35789 0
M  V30 1498 N 134.507 -0.190092 1.56449 0
M  V30 1499 C 135.784 -0.935886 1.71757 0
M  V30 1500 C 136.164 -2.01173 0.639726 0
M  V30 1501 O 135.512 -2.25827 -0.348502 0
M  V30 1502 C 135.722 -1.51775 3.1427 0
M  V30 1503 C 137.07 -1.99794 3.74656 0
M  V30 1504 O 138.094 -1.61607 3.1743 0
M  V30 1505 O 136.953 -2.70079 4.751 0
M  V30 1506 H 134.047 -0.439229 0.700719 0
M  V30 1507 H 136.593 -0.179395 1.68749 0
M  V30 1508 H 135.365 -0.742505 3.84191 0
M  V30 1509 H 134.988 -2.33894 3.21527 0
M  V30 1510 N 135.985 -1.50799 -0.457987 0
M  V30 1511 C 137.262 -1.52968 -1.21902 0
M  V30 1512 C 137.642 -0.281906 -2.09209 0
M  V30 1513 O 136.99 0.734076 -2.16388 0
M  V30 1514 C 137.2 -2.8326 -2.03875 0
M  V30 1515 C 138.548 -3.34425 -2.6162 0
M  V30 1516 O 139.572 -2.8467 -2.14106 0
M  V30 1517 O 138.431 -4.21188 -3.48228 0
M  V30 1518 H 135.525 -0.614129 -0.553873 0
M  V30 1519 H 138.071 -1.63098 -0.468739 0
M  V30 1520 H 136.843 -3.65543 -1.39621 0
M  V30 1521 H 136.466 -2.76195 -2.8601 0
M  V30 1522 N 137.463 0.71206 -1.40597 0
M  V30 1523 C 138.74 1.46536 -1.29563 0
M  V30 1524 C 139.12 2.10931 0.0844217 0
M  V30 1525 O 138.468 2.00418 1.0975 0
M  V30 1526 C 138.678 2.49821 -2.43701 0
M  V30 1527 C 140.026 3.15551 -2.841 0
M  V30 1528 O 141.05 2.60142 -2.4332 0
M  V30 1529 O 139.909 4.15867 -3.54566 0
M  V30 1530 H 137.003 0.651801 -0.509004 0
M  V30 1531 H 139.549 0.743935 -1.52524 0
M  V30 1532 H 138.321 2.00778 -3.35863 0
M  V30 1533 H 137.944 3.29495 -2.22528 0
M  V30 1534 N 138.941 1.26152 0.944643 0
M  V30 1535 C 140.166 1.14363 1.7302 0
M  V30 1536 C 140.591 -0.29772 1.85729 0
M  V30 1537 O 139.949 -1.2157 1.34501 0
M  V30 1538 C 139.997 1.81378 3.11664 0
M  V30 1539 O 139.101 1.10022 3.97453 0
M  V30 1540 H 138.442 0.398694 0.53098 0
M  V30 1541 H 140.972 1.66906 1.18337 0
M  V30 1542 H 140.982 1.88064 3.62072 0
M  V30 1543 H 139.657 2.86237 3.0173 0
M  V30 1544 H 138.234 1.11287 3.55907 0
M  V30 1545 N 140.419 -1.14872 1.07899 0
M  V30 1546 C 141.349 -2.2193 0.725887 0
M  V30 1547 C 142.33 -1.67622 -0.28927 0
M  V30 1548 O 143.515 -1.93533 -0.160787 0
M  V30 1549 C 140.645 -3.47061 0.128856 0
M  V30 1550 C 139.599 -4.14363 1.07178 0
M  V30 1551 C 138.925 -5.33636 0.337229 0
M  V30 1552 C 140.225 -4.63492 2.40775 0
M  V30 1553 H 141.919 -2.51724 1.62097 0
M  V30 1554 H 139.465 -1.20991 0.780838 0
M  V30 1555 H 141.418 -4.21199 -0.130147 0
M  V30 1556 H 140.142 -3.16617 -0.80134 0
M  V30 1557 H 138.801 -3.42173 1.3158 0
M  V30 1558 H 138.449 -4.99449 -0.596606 0
M  V30 1559 H 138.149 -5.79609 0.965788 0
M  V30 1560 H 139.673 -6.10539 0.0861567 0
M  V30 1561 H 141.087 -5.2913 2.20669 0
M  V30 1562 H 139.484 -5.20148 2.99276 0
M  V30 1563 H 140.554 -3.78834 3.02676 0
M  V30 1564 N 141.898 -0.863906 -1.31812 0
M  V30 1565 C 142.845 -0.313303 -2.28664 0
M  V30 1566 C 143.815 0.584868 -1.55462 0
M  V30 1567 O 145 0.517805 -1.83639 0
M  V30 1568 C 142.14 0.48441 -3.41683 0
M  V30 1569 C 141.253 -0.440594 -4.29747 0
M  V30 1570 C 140.388 0.370652 -5.29905 0
M  V30 1571 C 139.427 -0.551164 -6.09613 0
M  V30 1572 N 138.564 0.223462 -7.01744 0
M  V30 1573 H 143.404 -1.14444 -2.75148 0
M  V30 1574 H 140.941 -0.575769 -1.35364 0
M  V30 1575 H 142.899 0.962627 -4.05943 0
M  V30 1576 H 141.529 1.28029 -2.96325 0
M  V30 1577 H 140.581 -1.03724 -3.65986 0
M  V30 1578 H 141.893 -1.14767 -4.85417 0
M  V30 1579 H 141.047 0.911638 -5.99812 0
M  V30 1580 H 139.786 1.11105 -4.74876 0
M  V30 1581 H 138.791 -1.10396 -5.38603 0
M  V30 1582 H 140.016 -1.29032 -6.66729 0
M  V30 1583 H 137.962 0.946787 -6.49132 0
M  V30 1584 H 137.879 -0.424399 -7.54808 0
M  V30 1585 H 139.147 0.745876 -7.75923 0
M  V30 1586 N 143.376 1.44774 -0.622745 0
M  V30 1587 C 144.308 2.28856 0.125485 0
M  V30 1588 C 145.321 1.40811 0.817069 0
M  V30 1589 O 146.51 1.65044 0.679918 0
M  V30 1590 C 143.61 3.16963 1.19949 0
M  V30 1591 C 142.783 4.33374 0.592064 0
M  V30 1592 C 141.842 5.02577 1.55893 0
M  V30 1593 O 140.868 5.58873 1.07933 0
M  V30 1594 N 142.07 5.03256 2.89334 0
M  V30 1595 H 144.835 2.93713 -0.596068 0
M  V30 1596 H 142.396 1.55129 -0.463303 0
M  V30 1597 H 144.388 3.60123 1.84644 0
M  V30 1598 H 142.958 2.53913 1.82337 0
M  V30 1599 H 142.178 3.93509 -0.233322 0
M  V30 1600 H 143.466 5.08527 0.166738 0
M  V30 1601 H 142.864 4.58836 3.30887 0
M  V30 1602 H 141.421 5.50232 3.49412 0
M  V30 1603 N 144.854 0.36279 1.53368 0
M  V30 1604 C 145.764 -0.492994 2.29362 0
M  V30 1605 C 146.78 -1.09507 1.35219 0
M  V30 1606 O 147.956 -1.10662 1.68273 0
M  V30 1607 C 145.021 -1.61855 3.066 0
M  V30 1608 C 144.082 -1.04429 4.16405 0
M  V30 1609 C 143.315 -2.11621 4.89951 0
M  V30 1610 O 143.538 -3.32684 4.63333 0
M  V30 1611 O 142.472 -1.74835 5.75948 0
M  V30 1612 H 146.298 0.125331 3.03441 0
M  V30 1613 H 143.883 0.127253 1.48857 0
M  V30 1614 H 145.765 -2.27302 3.54841 0
M  V30 1615 H 144.44 -2.22233 2.3536 0
M  V30 1616 H 143.347 -0.353819 3.72423 0
M  V30 1617 H 144.68 -0.485113 4.89804 0
M  V30 1618 N 146.332 -1.57332 0.0918853 0
M  V30 1619 C 147.242 -2.17368 -0.882505 0
M  V30 1620 C 148.258 -1.14226 -1.31257 0
M  V30 1621 O 149.434 -1.46582 -1.38115 0
M  V30 1622 C 146.499 -2.73962 -2.12476 0
M  V30 1623 C 145.56 -3.92048 -1.7492 0
M  V30 1624 C 144.793 -4.45933 -2.93223 0
M  V30 1625 O 145.016 -3.98764 -4.07852 0
M  V30 1626 O 143.95 -5.36999 -2.71875 0
M  V30 1627 H 147.776 -3.01031 -0.40172 0
M  V30 1628 H 145.361 -1.48813 -0.132291 0
M  V30 1629 H 147.243 -3.10147 -2.85283 0
M  V30 1630 H 145.918 -1.93347 -2.59613 0
M  V30 1631 H 144.825 -3.6068 -0.993025 0
M  V30 1632 H 146.158 -4.74017 -1.32548 0
M  V30 1633 N 147.81 0.181792 -1.56548 0
M  V30 1634 C 148.74 1.22765 -1.98623 0
M  V30 1635 C 149.721 1.46747 -0.860189 0
M  V30 1636 O 150.906 1.58259 -1.12551 0
M  V30 1637 C 148.036 2.56894 -2.33715 0
M  V30 1638 C 146.99 2.475 -3.49182 0
M  V30 1639 C 146.316 3.86023 -3.69986 0
M  V30 1640 C 147.616 1.98866 -4.82959 0
M  V30 1641 H 149.31 0.877942 -2.86239 0
M  V30 1642 H 146.856 0.42088 -1.37712 0
M  V30 1643 H 148.809 3.30253 -2.61746 0
M  V30 1644 H 147.533 2.93632 -1.42997 0
M  V30 1645 H 146.192 1.76596 -3.21262 0
M  V30 1646 H 145.84 4.20136 -2.76576 0
M  V30 1647 H 145.54 3.80609 -4.47672 0
M  V30 1648 H 147.064 4.60984 -4.00407 0
M  V30 1649 H 148.478 2.61992 -5.09934 0
M  V30 1650 H 146.875 2.04424 -5.64208 0
M  V30 1651 H 147.945 0.942465 -4.75653 0
M  V30 1652 N 149.288 1.51039 0.449983 0
M  V30 1653 C 150.218 1.74379 1.55288 0
M  V30 1654 C 151.199 0.593236 1.5942 0
M  V30 1655 O 152.384 0.834625 1.7535 0
M  V30 1656 C 149.514 1.85728 2.93466 0
M  V30 1657 C 148.468 3.01078 3.04197 0
M  V30 1658 C 147.794 2.97595 4.44231 0
M  V30 1659 C 149.094 4.41254 2.7945 0
M  V30 1660 H 150.788 2.66725 1.36008 0
M  V30 1661 H 148.334 1.2835 0.652864 0
M  V30 1662 H 150.287 2.0064 3.70569 0
M  V30 1663 H 149.011 0.900207 3.13949 0
M  V30 1664 H 147.67 2.85851 2.29531 0
M  V30 1665 H 147.318 1.99691 4.61663 0
M  V30 1666 H 147.018 3.75046 4.52343 0
M  V30 1667 H 148.542 3.14583 5.23326 0
M  V30 1668 H 149.956 4.56897 3.46292 0
M  V30 1669 H 148.353 5.20315 2.98985 0
M  V30 1670 H 149.423 4.52164 1.75144 0
M  V30 1671 N 150.766 -0.704594 1.40972 0
M  V30 1672 C 151.696 -1.83124 1.44872 0
M  V30 1673 C 152.677 -1.67281 0.30838 0
M  V30 1674 O 153.862 -1.87149 0.518556 0
M  V30 1675 C 150.992 -3.21181 1.32136 0
M  V30 1676 C 149.946 -3.51714 2.43888 0
M  V30 1677 C 149.272 -4.89032 2.16222 0
M  V30 1678 C 150.572 -3.516 3.86232 0
M  V30 1679 H 152.266 -1.80117 2.39161 0
M  V30 1680 H 149.812 -0.865145 1.15114 0
M  V30 1681 H 151.765 -3.99702 1.33479 0
M  V30 1682 H 150.489 -3.24791 0.343279 0
M  V30 1683 H 149.148 -2.75539 2.41813 0
M  V30 1684 H 148.796 -4.89256 1.16778 0
M  V30 1685 H 148.496 -5.10426 2.911 0
M  V30 1686 H 150.02 -5.69873 2.19265 0
M  V30 1687 H 151.434 -4.2014 3.9007 0
M  V30 1688 H 149.831 -3.84523 4.60719 0
M  V30 1689 H 150.901 -2.50757 4.15029 0
M  V30 1690 N 152.244 -1.26651 -0.937939 0
M  V30 1691 C 153.191 -1.0849 -2.03712 0
M  V30 1692 C 154.161 0.011033 -1.66096 0
M  V30 1693 O 155.346 -0.149353 -1.90215 0
M  V30 1694 C 152.486 -0.72735 -3.37348 0
M  V30 1695 C 151.599 -1.89986 -3.87981 0
M  V30 1696 C 150.734 -1.48513 -5.10017 0
M  V30 1697 C 149.773 -2.62575 -5.5292 0
M  V30 1698 N 148.91 -2.21762 -6.66158 0
M  V30 1699 H 153.75 -2.02551 -2.18579 0
M  V30 1700 H 151.287 -1.00844 -1.07093 0
M  V30 1701 H 153.245 -0.50092 -4.14182 0
M  V30 1702 H 151.875 0.176298 -3.22318 0
M  V30 1703 H 150.927 -2.23913 -3.07518 0
M  V30 1704 H 152.239 -2.75586 -4.15757 0
M  V30 1705 H 151.393 -1.21934 -5.94321 0
M  V30 1706 H 150.132 -0.60009 -4.83994 0
M  V30 1707 H 149.137 -2.8988 -4.67172 0
M  V30 1708 H 150.362 -3.51685 -5.80943 0
M  V30 1709 H 148.308 -1.35696 -6.41812 0
M  V30 1710 H 148.225 -3.00903 -6.93537 0
M  V30 1711 H 149.493 -1.98403 -7.53828 0
M  V30 1712 N 153.722 1.14298 -1.08507 0
M  V30 1713 C 154.971 1.84708 -0.810305 0
M  V30 1714 C 155.284 1.83903 0.666271 0
M  V30 1715 O 156.49 2.50112 1.05624 0
M  V30 1716 C 154.946 3.31572 -1.39957 0
M  V30 1717 C 154.554 3.40791 -2.90801 0
M  V30 1718 C 156.298 4.07087 -1.20334 0
M  V30 1719 C 154.205 4.81872 -3.4286 0
M  V30 1720 H 153.135 0.691985 -0.299454 0
M  V30 1721 H 155.786 1.28841 -1.30661 0
M  V30 1722 H 154.168 3.87183 -0.830976 0
M  V30 1723 H 155.342 2.95225 -3.53806 0
M  V30 1724 H 153.657 2.78732 -3.0935 0
M  V30 1725 H 156.254 5.11225 -1.56693 0
M  V30 1726 H 156.597 4.16054 -0.143237 0
M  V30 1727 H 157.13 3.57779 -1.73893 0
M  V30 1728 H 153.869 4.78094 -4.48449 0
M  V30 1729 H 153.389 5.27972 -2.84615 0
M  V30 1730 H 155.068 5.50765 -3.39509 0
M  V30 1731 N 155.201 0.870884 1.31352 0
M  V30 1732 C 156.164 0.332243 2.26779 0
M  V30 1733 C 157.164 -0.517302 1.52252 0
M  V30 1734 O 158.354 -0.326477 1.71113 0
M  V30 1735 C 155.486 -0.528066 3.36785 0
M  V30 1736 H 156.679 1.17469 2.75937 0
M  V30 1737 H 154.232 0.64655 1.423 0
M  V30 1738 H 154.967 -1.39167 2.92922 0
M  V30 1739 H 154.752 0.0802582 3.92018 0
M  V30 1740 H 156.242 -0.897179 4.07849 0
M  V30 1741 N 156.679 -1.44442 0.630414 0
M  V30 1742 C 157.589 -2.34476 -0.0761693 0
M  V30 1743 C 158.605 -1.52576 -0.836449 0
M  V30 1744 O 159.781 -1.85307 -0.788874 0
M  V30 1745 C 156.846 -3.30545 -1.04599 0
M  V30 1746 C 155.907 -4.28352 -0.28516 0
M  V30 1747 C 155.14 -5.19831 -1.20878 0
M  V30 1748 O 155.363 -5.15223 -2.44747 0
M  V30 1749 O 154.297 -5.97892 -0.693491 0
M  V30 1750 H 158.123 -2.96345 0.664324 0
M  V30 1751 H 155.708 -1.44203 0.39061 0
M  V30 1752 H 157.59 -3.89681 -1.60396 0
M  V30 1753 H 156.265 -2.7121 -1.76711 0
M  V30 1754 H 155.172 -3.72764 0.315837 0
M  V30 1755 H 156.505 -4.90605 0.395924 0
M  V30 1756 N 158.157 -0.370918 -1.53173 0
M  V30 1757 C 159.382 0.220293 -2.06227 0
M  V30 1758 C 159.807 1.41243 -1.24225 0
M  V30 1759 O 159.165 1.79387 -0.262645 0
M  V30 1760 C 159.213 0.586663 -3.55796 0
M  V30 1761 O 158.317 1.68317 -3.76488 0
M  V30 1762 H 157.658 0.0308099 -0.663285 0
M  V30 1763 H 160.188 -0.533068 -1.97534 0
M  V30 1764 H 160.198 0.85617 -3.98916 0
M  V30 1765 H 158.873 -0.285013 -4.14922 0
M  V30 1766 H 157.45 1.40881 -3.45264 0
M  V30 1767 N 159.635 1.57281 -0.100228 0
M  V30 1768 C 160.863 1.98879 0.570509 0
M  V30 1769 C 161.278 0.979476 1.61405 0
M  V30 1770 O 160.635 -0.0302288 1.82475 0
M  V30 1771 C 160.686 3.4052 1.2136 0
M  V30 1772 O 160.407 4.37588 0.211786 0
M  V30 1773 C 161.908 3.97149 1.96945 0
M  V30 1774 H 159.128 0.653428 0.152555 0
M  V30 1775 H 161.672 2.03697 -0.18103 0
M  V30 1776 H 159.827 3.367 1.91603 0
M  V30 1777 H 160.241 5.20118 0.676607 0
M  V30 1778 H 161.715 4.98393 2.37294 0
M  V30 1779 H 162.192 3.3525 2.83733 0
M  V30 1780 H 162.798 4.04458 1.31506 0
M  V30 1781 N 161.113 -0.173488 1.56642 0
M  V30 1782 C 162.338 -0.910149 1.86363 0
M  V30 1783 C 162.763 -1.75132 0.686318 0
M  V30 1784 O 162.121 -1.77595 -0.364643 0
M  V30 1785 C 162.169 -1.76447 3.14482 0
M  V30 1786 O 161.273 -2.86584 2.96553 0
M  V30 1787 H 160.614 -0.255086 0.613047 0
M  V30 1788 H 163.144 -0.172283 2.03873 0
M  V30 1789 H 163.154 -2.16483 3.45831 0
M  V30 1790 H 161.829 -1.14658 3.99783 0
M  V30 1791 H 160.406 -2.50146 2.76553 0
M  V30 1792 N 162.591 -1.51276 -0.441967 0
M  V30 1793 C 163.831 -1.65372 -1.20132 0
M  V30 1794 C 164.195 -0.359871 -1.88597 0
M  V30 1795 O 165.396 -0.376551 -2.66149 0
M  V30 1796 C 163.667 -2.8207 -2.1948 0
M  V30 1797 S 165.226 -3.16467 -3.03964 0
M  V30 1798 H 162.044 -0.582669 -0.407453 0
M  V30 1799 H 164.646 -1.89166 -0.493609 0
M  V30 1800 H 163.35 -3.74523 -1.67812 0
M  V30 1801 H 162.881 -2.6045 -2.94838 0
M  V30 1802 H 164.896 -2.62543 -4.21053 0
M  V30 1803 N 164.069 0.697108 -1.41344 0
M  V30 1804 C 165.032 1.79281 -1.42797 0
M  V30 1805 C 166.032 1.57607 -0.318837 0
M  V30 1806 O 167.222 1.64309 -0.578642 0
M  V30 1807 C 164.354 3.17632 -1.23785 0
M  V30 1808 H 165.547 1.79385 -2.40335 0
M  V30 1809 H 163.1 0.904582 -1.27464 0
M  V30 1810 H 163.835 3.23167 -0.270814 0
M  V30 1811 H 163.62 3.34765 -2.04144 0
M  V30 1812 H 165.11 3.97617 -1.27633 0
M  V30 1813 N 165.547 1.27147 0.931209 0
M  V30 1814 C 166.494 1.09568 2.03134 0
M  V30 1815 C 167.464 -0.00222433 1.661 0
M  V30 1816 O 168.649 0.159439 1.90133 0
M  V30 1817 C 165.789 0.745231 3.36957 0
M  V30 1818 C 164.902 1.92041 3.86968 0
M  V30 1819 C 164.037 1.51216 5.09222 0
M  V30 1820 C 163.076 2.65504 5.5152 0
M  V30 1821 N 162.213 2.25291 6.64972 0
M  V30 1822 H 167.053 2.03708 2.17502 0
M  V30 1823 H 164.59 1.01411 1.06556 0
M  V30 1824 H 166.548 0.522878 4.1391 0
M  V30 1825 H 165.178 -0.159202 3.22407 0
M  V30 1826 H 164.23 2.25541 3.06326 0
M  V30 1827 H 165.542 2.77787 4.1429 0
M  V30 1828 H 164.696 1.25084 5.93666 0
M  V30 1829 H 163.435 0.625749 4.83669 0
M  V30 1830 H 162.44 2.92354 4.65628 0
M  V30 1831 H 163.665 3.54761 5.7907 0
M  V30 1832 H 161.611 1.39098 6.41083 0
M  V30 1833 H 161.528 3.04577 6.91931 0
M  V30 1834 H 162.796 2.02398 7.52765 0
M  V30 1835 N 167.025 -1.13721 1.09112 0
M  V30 1836 C 168.253 -1.88773 0.846899 0
M  V30 1837 C 168.668 -1.7896 -0.601572 0
M  V30 1838 O 168.025 -1.15394 -1.41388 0
M  V30 1839 C 168.076 -3.3849 1.26913 0
M  V30 1840 O 167.797 -3.48043 2.66079 0
M  V30 1841 C 169.298 -4.30518 1.05682 0
M  V30 1842 H 166.518 -0.59772 0.304914 0
M  V30 1843 H 169.062 -1.43977 1.45227 0
M  V30 1844 H 167.217 -3.80881 0.707723 0
M  V30 1845 H 167.631 -4.4109 2.83795 0
M  V30 1846 H 169.105 -5.3391 1.40156 0
M  V30 1847 H 169.582 -4.392 -0.00563416 0
M  V30 1848 H 170.188 -3.93893 1.60402 0
M  V30 1849 N 168.503 -0.877838 -1.30888 0
M  V30 1850 C 169.728 -0.506629 -2.01117 0
M  V30 1851 C 170.153 0.895564 -1.65412 0
M  V30 1852 O 169.511 1.5923 -0.866922 0
M  V30 1853 C 169.559 -0.680223 -3.54126 0
M  V30 1854 O 168.663 0.277033 -4.11468 0
M  V30 1855 H 168.004 -0.200518 -0.633 0
M  V30 1856 H 170.534 -1.18342 -1.66902 0
M  V30 1857 H 170.544 -0.5765 -4.03907 0
M  V30 1858 H 169.219 -1.70261 -3.79452 0
M  V30 1859 H 167.796 0.127606 -3.72682 0
M  V30 1860 N 169.982 1.44106 -0.638065 0
M  V30 1861 C 171.222 2.03858 -0.148733 0
M  V30 1862 C 171.586 1.49153 1.20903 0
M  V30 1863 O 172.787 2.00452 1.79088 0
M  V30 1864 C 171.058 3.57117 -0.142314 0
M  V30 1865 S 172.617 4.37897 0.281385 0
M  V30 1866 H 169.435 0.708069 -0.0644912 0
M  V30 1867 H 172.037 1.7639 -0.843009 0
M  V30 1868 H 170.741 3.94436 -1.13349 0
M  V30 1869 H 170.272 3.89205 0.572988 0
M  V30 1870 H 172.287 4.72218 1.52395 0
M  V30 1871 N 171.46 0.379036 1.52974 0
M  V30 1872 C 172.871 -0.0972525 1.86447 0
M  V30 1873 C 173.222 -1.47027 1.29914 0
M  V30 1874 O 172.347 -2.07135 0.626433 0
M  V30 1875 C 172.942 -0.183248 3.38304 0
M  V30 1876 C 171.501 -0.603812 3.71525 0
M  V30 1877 C 170.648 0.240632 2.76254 0
M  V30 1878 H 173.599 0.597316 1.4703 0
M  V30 1879 H 173.62 -1.00432 3.67006 0
M  V30 1880 H 173.132 0.816191 3.79421 0
M  V30 1881 H 171.233 -1.61099 3.35973 0
M  V30 1882 H 171.346 -0.369086 4.77676 0
M  V30 1883 H 169.71 -0.292548 2.53014 0
M  V30 1884 H 170.493 1.23786 3.20206 0
M  V30 1885 N 172.938 -1.57226 0.108567 0
M  V30 1886 C 174.163 -1.99604 -0.563303 0
M  V30 1887 C 174.588 -0.987563 -1.6009 0
M  V30 1888 O 173.946 0.0421687 -1.81251 0
M  V30 1889 C 173.994 -3.40902 -1.17552 0
M  V30 1890 O 173.098 -3.42896 -2.2912 0
M  V30 1891 H 172.439 -0.648704 -0.1417 0
M  V30 1892 H 174.969 -2.03679 0.193961 0
M  V30 1893 H 174.979 -3.78886 -1.51357 0
M  V30 1894 H 173.654 -4.1382 -0.415445 0
M  V30 1895 H 172.231 -3.1672 -1.96832 0
M  V30 1896 N 174.416 0.165178 -1.56732 0
M  V30 1897 C 175.827 0.727046 -1.71962 0
M  V30 1898 C 176.178 1.82508 -0.720078 0
M  V30 1899 O 175.303 2.16082 0.117242 0
M  V30 1900 C 175.898 1.32559 -3.11791 0
M  V30 1901 C 174.457 1.83422 -3.28684 0
M  V30 1902 C 173.604 0.715567 -2.67908 0
M  V30 1903 H 176.555 -0.0602896 -1.58585 0
M  V30 1904 H 176.576 2.19533 -3.10782 0
M  V30 1905 H 176.088 0.526195 -3.84516 0
M  V30 1906 H 174.189 2.65986 -2.60926 0
M  V30 1907 H 174.302 1.97543 -4.36478 0
M  V30 1908 H 172.666 1.13758 -2.27884 0
M  V30 1909 H 173.449 -0.0720836 -3.43224 0
M  V30 1910 N 175.894 1.51508 0.433938 0
M  V30 1911 C 176.804 1.75917 1.5521 0
M  V30 1912 C 177.82 0.643545 1.61662 0
M  V30 1913 O 178.996 0.926183 1.7884 0
M  V30 1914 C 176.061 1.88213 2.91164 0
M  V30 1915 C 175.122 3.12074 2.94802 0
M  V30 1916 C 174.355 3.23774 4.24271 0
M  V30 1917 O 174.578 2.4133 5.16833 0
M  V30 1918 O 173.512 4.16774 4.34262 0
M  V30 1919 H 177.338 2.70777 1.37527 0
M  V30 1920 H 174.923 1.36051 0.617293 0
M  V30 1921 H 176.805 1.98267 3.71845 0
M  V30 1922 H 175.48 0.965413 3.08968 0
M  V30 1923 H 174.387 3.07497 2.13065 0
M  V30 1924 H 175.72 4.03446 2.81943 0
M  V30 1925 N 177.372 -0.689602 1.41712 0
M  V30 1926 C 178.788 -1.00093 1.24312 0
M  V30 1927 C 178.988 -2.01036 0.136729 0
M  V30 1928 O 178.044 -2.47562 -0.496918 0
M  V30 1929 C 179.357 -1.51985 2.59463 0
M  V30 1930 C 180.905 -1.63838 2.66695 0
M  V30 1931 C 181.38 -2.1913 4.02177 0
M  V30 1932 N 182.871 -2.26483 4.04054 0
M  V30 1933 C 183.606 -2.70306 5.0569 0
M  V30 1934 N 183.102 -3.13691 6.17713 0
M  V30 1935 N 184.895 -2.69923 4.9305 0
M  V30 1936 H 177.046 -0.0210029 2.1239 0
M  V30 1937 H 179.309 -0.0718733 0.945272 0
M  V30 1938 H 179.015 -0.85269 3.41207 0
M  V30 1939 H 178.889 -2.50103 2.82362 0
M  V30 1940 H 181.276 -2.29664 1.85306 0
M  V30 1941 H 181.357 -0.642492 2.476 0
M  V30 1942 H 181.001 -1.53918 4.84016 0
M  V30 1943 H 180.931 -3.19482 4.18615 0
M  V30 1944 H 183.422 -1.95874 3.23174 0
M  V30 1945 H 183.735 -3.45773 6.9113 0
M  V30 1946 H 182.08 -3.11585 6.21241 0
M  V30 1947 H 185.271 -2.35382 4.04614 0
M  V30 1948 H 185.444 -3.03758 5.72394 0
M  V30 1949 N 178.85 -1.27639 -0.924453 0
M  V30 1950 C 180.08 -1.16819 -1.70402 0
M  V30 1951 C 180.488 0.277191 -1.87158 0
M  V30 1952 O 179.831 1.20025 -1.39067 0
M  V30 1953 C 179.893 -1.78305 -3.12166 0
M  V30 1954 C 179.557 -3.27502 -3.18734 0
M  V30 1955 C 180.554 -4.2409 -3.00738 0
M  V30 1956 C 178.239 -3.68269 -3.4159 0
M  V30 1957 C 180.233 -5.59422 -3.05492 0
M  V30 1958 C 177.92 -5.0373 -3.45977 0
M  V30 1959 C 178.918 -5.99116 -3.27946 0
M  V30 1960 O 178.606 -7.32108 -3.32074 0
M  V30 1961 H 178.338 -0.406931 -0.539799 0
M  V30 1962 H 180.892 -1.69078 -1.16626 0
M  V30 1963 H 179.122 -1.20528 -3.67437 0
M  V30 1964 H 180.811 -1.62154 -3.72103 0
M  V30 1965 H 181.577 -3.93931 -2.82919 0
M  V30 1966 H 177.456 -2.94496 -3.54673 0
M  V30 1967 H 181 -6.33852 -2.91337 0
M  V30 1968 H 176.897 -5.33543 -3.63321 0
M  V30 1969 H 177.665 -7.40598 -3.48507 0
M  V30 1970 N 180.328 1.1314 -1.09713 0
M  V30 1971 C 181.261 2.17735 -0.683137 0
M  V30 1972 C 182.239 1.59582 0.311841 0
M  V30 1973 O 183.423 1.87298 0.212514 0
M  V30 1974 C 180.55 3.38699 -0.00684324 0
M  V30 1975 C 179.596 4.1546 -0.964102 0
M  V30 1976 S 180.429 4.74733 -2.47767 0
M  V30 1977 C 181.585 5.9904 -1.81387 0
M  V30 1978 H 181.818 2.52515 -1.56918 0
M  V30 1979 H 179.351 1.24484 -0.913404 0
M  V30 1980 H 181.309 4.08765 0.377044 0
M  V30 1981 H 179.97 3.02214 0.85589 0
M  V30 1982 H 179.163 5.02093 -0.43803 0
M  V30 1983 H 178.765 3.51066 -1.28953 0
M  V30 1984 H 181.057 6.67846 -1.13967 0
M  V30 1985 H 182 6.56261 -2.65947 0
M  V30 1986 H 182.408 5.4976 -1.28155 0
M  V30 1987 N 181.806 0.884767 1.30421 0
M  V30 1988 C 182.716 0.355398 2.31892 0
M  V30 1989 C 183.732 -0.542261 1.65335 0
M  V30 1990 O 184.908 -0.435432 1.96637 0
M  V30 1991 C 181.973 -0.421661 3.44126 0
M  V30 1992 C 181.034 0.505727 4.26311 0
M  V30 1993 C 180.267 -0.234343 5.33185 0
M  V30 1994 O 180.49 -1.46045 5.51386 0
M  V30 1995 O 179.424 0.415443 6.00465 0
M  V30 1996 H 183.25 1.19685 2.79122 0
M  V30 1997 H 180.835 0.648596 1.34587 0
M  V30 1998 H 182.717 -0.861641 4.12497 0
M  V30 1999 H 181.392 -1.23942 2.99032 0
M  V30 2000 H 180.299 0.994513 3.60639 0
M  V30 2001 H 181.632 1.28948 4.75009 0
M  V30 2002 N 183.284 -1.43765 0.645699 0
M  V30 2003 C 184.509 -2.06767 0.161883 0
M  V30 2004 C 184.934 -1.48034 -1.16049 0
M  V30 2005 O 184.292 -0.587369 -1.71522 0
M  V30 2006 C 184.34 -3.60519 0.0762003 0
M  V30 2007 O 183.444 -4.00982 -0.963721 0
M  V30 2008 H 182.785 -0.657675 0.091429 0
M  V30 2009 H 185.315 -1.84397 0.886499 0
M  V30 2010 H 185.325 -4.07853 -0.109604 0
M  V30 2011 H 184 -4.02646 1.04157 0
M  V30 2012 H 182.577 -3.65253 -0.751312 0
M  V30 2013 N 184.763 -0.387143 -1.52771 0
M  V30 2014 C 185.993 0.195585 -2.05672 0
M  V30 2015 C 186.401 1.41241 -1.25887 0
M  V30 2016 O 185.744 1.81265 -0.298081 0
M  V30 2017 C 185.806 0.632327 -3.53895 0
M  V30 2018 C 185.47 -0.470739 -4.54569 0
M  V30 2019 C 186.467 -1.32746 -5.02667 0
M  V30 2020 C 184.152 -0.637151 -4.98243 0
M  V30 2021 C 186.146 -2.33574 -5.93061 0
M  V30 2022 C 183.833 -1.64877 -5.88438 0
M  V30 2023 C 184.831 -2.49649 -6.35739 0
M  V30 2024 O 184.519 -3.49082 -7.24153 0
M  V30 2025 H 184.251 0.033658 -0.675162 0
M  V30 2026 H 186.805 -0.550221 -1.97893 0
M  V30 2027 H 185.035 1.43008 -3.59285 0
M  V30 2028 H 186.724 1.14048 -3.89548 0
M  V30 2029 H 187.49 -1.21019 -4.69659 0
M  V30 2030 H 183.369 0.0129567 -4.60998 0
M  V30 2031 H 186.913 -2.99777 -6.29904 0
M  V30 2032 H 182.81 -1.76643 -6.2086 0
M  V30 2033 H 183.578 -3.45065 -7.42208 0
M  V30 2034 N 186.241 1.57166 -0.116904 0
M  V30 2035 C 187.191 2.11756 0.845178 0
M  V30 2036 C 188.175 1.03783 1.22955 0
M  V30 2037 O 189.367 1.3002 1.20099 0
M  V30 2038 C 186.496 2.71886 2.09602 0
M  V30 2039 C 185.582 3.86937 1.7361 0
M  V30 2040 N 185.973 4.94073 1.08284 0
M  V30 2041 C 184.271 3.97082 2.03082 0
M  V30 2042 C 184.972 5.74477 0.913855 0
M  V30 2043 N 183.948 5.2423 1.43818 0
M  V30 2044 H 187.75 2.91967 0.336523 0
M  V30 2045 H 185.264 1.62174 0.0856332 0
M  V30 2046 H 187.261 3.09338 2.79492 0
M  V30 2047 H 185.921 1.93138 2.61013 0
M  V30 2048 H 186.932 5.12483 0.747067 0
M  V30 2049 H 183.609 3.29372 2.56554 0
M  V30 2050 H 184.999 6.70701 0.40125 0
M  V30 2051 N 187.719 -0.156864 1.56817 0
M  V30 2052 C 188.959 -0.877453 1.84608 0
M  V30 2053 C 189.323 -1.78791 0.699845 0
M  V30 2054 O 190.524 -2.5472 0.858553 0
M  V30 2055 C 188.795 -1.63992 3.17555 0
M  V30 2056 S 190.354 -2.40729 3.66872 0
M  V30 2057 H 187.172 -0.293612 0.647544 0
M  V30 2058 H 189.774 -0.138099 1.95012 0
M  V30 2059 H 188.478 -0.962363 3.98957 0
M  V30 2060 H 188.009 -2.42038 3.10131 0
M  V30 2061 H 190.024 -3.65725 3.3535 0
M  V30 2062 N 189.197 -1.51736 -0.425897 0
M  V30 2063 C 190.474 -1.55519 -1.1863 0
M  V30 2064 C 190.854 -0.326219 -2.08564 0
M  V30 2065 O 190.202 0.688012 -2.17896 0
M  V30 2066 C 190.412 -2.87521 -1.9782 0
M  V30 2067 C 191.76 -3.39899 -2.54468 0
M  V30 2068 O 192.784 -2.89148 -2.08019 0
M  V30 2069 O 191.643 -4.2848 -3.39215 0
M  V30 2070 H 188.737 -0.625739 -0.540721 0
M  V30 2071 H 191.283 -1.64055 -0.434038 0
M  V30 2072 H 190.055 -3.68422 -1.31836 0
M  V30 2073 H 189.678 -2.822 -2.80088 0
M  V30 2074 N 190.675 0.682077 -1.42076 0
M  V30 2075 C 191.638 1.77756 -1.44691 0
M  V30 2076 C 192.638 1.5726 -0.335535 0
M  V30 2077 O 193.828 1.63686 -0.596037 0
M  V30 2078 C 190.96 3.16301 -1.27146 0
M  V30 2079 H 192.153 1.76826 -2.42224 0
M  V30 2080 H 189.706 0.891012 -1.28416 0
M  V30 2081 H 190.441 3.22862 -0.305075 0
M  V30 2082 H 190.226 3.32581 -2.07683 0
M  V30 2083 H 191.716 3.96241 -1.31843 0
M  V30 2084 N 192.153 1.28127 0.917671 0
M  V30 2085 C 193.063 1.13556 2.05286 0
M  V30 2086 C 194.079 0.0630914 1.73886 0
M  V30 2087 O 195.255 0.271598 1.9956 0
M  V30 2088 C 192.32 0.794676 3.3747 0
M  V30 2089 C 191.381 1.94909 3.82504 0
M  V30 2090 C 190.614 1.62437 5.0838 0
M  V30 2091 O 190.837 0.536905 5.67867 0
M  V30 2092 O 189.771 2.46677 5.4903 0
M  V30 2093 H 193.597 2.08844 2.20495 0
M  V30 2094 H 191.182 1.07409 1.03845 0
M  V30 2095 H 193.064 0.618344 4.16839 0
M  V30 2096 H 191.739 -0.128581 3.23445 0
M  V30 2097 H 190.646 2.18055 3.03978 0
M  V30 2098 H 191.979 2.85291 4.01086 0
M  V30 2099 N 193.631 -1.12557 1.10312 0
M  V30 2100 C 195.047 -1.36036 0.834649 0
M  V30 2101 C 195.247 -1.93946 -0.546539 0
M  V30 2102 O 194.303 -2.16484 -1.29966 0
M  V30 2103 C 195.616 -2.30312 1.9333 0
M  V30 2104 C 197.164 -2.43906 1.9616 0
M  V30 2105 C 197.639 -3.41496 3.05195 0
M  V30 2106 N 199.13 -3.49053 3.04494 0
M  V30 2107 C 199.865 -4.24471 3.85502 0
M  V30 2108 N 199.361 -5.02966 4.76442 0
M  V30 2109 N 201.154 -4.19864 3.73725 0
M  V30 2110 H 193.305 -0.733246 1.99342 0
M  V30 2111 H 195.568 -0.385234 0.866198 0
M  V30 2112 H 195.274 -1.94933 2.92735 0
M  V30 2113 H 195.148 -3.30421 1.81939 0
M  V30 2114 H 197.535 -2.78567 0.973886 0
M  V30 2115 H 197.616 -1.4369 2.11629 0
M  V30 2116 H 197.26 -3.07565 4.04186 0
M  V30 2117 H 197.19 -4.41539 2.86968 0
M  V30 2118 H 199.681 -2.93053 2.38596 0
M  V30 2119 H 199.994 -5.57846 5.34815 0
M  V30 2120 H 198.339 -5.02167 4.80472 0
M  V30 2121 H 201.53 -3.57623 3.02032 0
M  V30 2122 H 201.703 -4.78386 4.37093 0
M  V30 2123 N 195.109 -0.891671 -1.2995 0
M  V30 2124 C 196.358 -0.509521 -1.95158 0
M  V30 2125 C 196.671 0.947388 -1.71125 0
M  V30 2126 O 197.877 1.43669 -2.30372 0
M  V30 2127 C 196.333 -0.860315 -3.49466 0
M  V30 2128 C 195.941 -2.33545 -3.8231 0
M  V30 2129 C 197.685 -0.547687 -4.20952 0
M  V30 2130 C 195.592 -2.62752 -5.29826 0
M  V30 2131 H 194.522 -0.18682 -0.730489 0
M  V30 2132 H 197.173 -1.08756 -1.47798 0
M  V30 2133 H 195.555 -0.211285 -3.95436 0
M  V30 2134 H 196.729 -3.02936 -3.47227 0
M  V30 2135 H 195.044 -2.61629 -3.23944 0
M  V30 2136 H 197.641 -0.742854 -5.29515 0
M  V30 2137 H 197.984 0.51332 -4.13123 0
M  V30 2138 H 198.517 -1.1542 -3.80688 0
M  V30 2139 H 195.256 -3.6762 -5.42712 0
M  V30 2140 H 194.776 -1.97977 -5.66185 0
M  V30 2141 H 196.455 -2.48601 -5.97333 0
M  V30 2142 N 196.587 1.43421 -0.653314 0
M  V30 2143 C 197.817 2.05864 -0.174238 0
M  V30 2144 C 198.225 1.49052 1.16534 0
M  V30 2145 O 197.568 0.616481 1.73047 0
M  V30 2146 C 197.63 3.59499 -0.00875873 0
M  V30 2147 C 197.294 4.38893 -1.27364 0
M  V30 2148 C 198.291 4.70947 -2.20239 0
M  V30 2149 C 195.976 4.789 -1.51525 0
M  V30 2150 C 197.97 5.41916 -3.35568 0
M  V30 2151 C 195.657 5.49614 -2.67147 0
M  V30 2152 C 196.655 5.81044 -3.58994 0
M  V30 2153 O 196.343 6.50313 -4.72597 0
M  V30 2154 H 196.075 0.670345 -0.0872549 0
M  V30 2155 H 198.629 1.84913 -0.894226 0
M  V30 2156 H 196.859 3.79025 0.7666 0
M  V30 2157 H 198.548 4.0364 0.427687 0
M  V30 2158 H 199.314 4.40558 -2.02815 0
M  V30 2159 H 195.193 4.53843 -0.809158 0
M  V30 2160 H 198.737 5.66365 -4.07279 0
M  V30 2161 H 194.634 5.79419 -2.84505 0
M  V30 2162 H 195.402 6.68795 -4.71864 0
M  V30 2163 N 198.065 0.39524 1.52563 0
M  V30 2164 C 199.311 -0.185318 2.01952 0
M  V30 2165 C 199.644 -1.45964 1.28095 0
M  V30 2166 O 198.919 -1.90689 0.38315 0
M  V30 2167 C 199.202 -0.447193 3.57312 0
M  V30 2168 C 199.055 0.842828 4.41833 0
M  V30 2169 C 200.374 -1.23529 4.22408 0
M  V30 2170 H 197.493 -0.0658788 0.73405 0
M  V30 2171 H 200.135 0.525975 1.82575 0
M  V30 2172 H 198.285 -1.05312 3.73954 0
M  V30 2173 H 199.957 1.4795 4.36931 0
M  V30 2174 H 198.2 1.45686 4.08605 0
M  V30 2175 H 198.871 0.614165 5.48573 0
M  V30 2176 H 201.347 -0.722445 4.0978 0
M  V30 2177 H 200.223 -1.38727 5.3108 0
M  V30 2178 H 200.484 -2.25213 3.80436 0
M  V30 2179 N 199.544 -1.57102 0.125237 0
M  V30 2180 C 200.79 -1.95697 -0.532035 0
M  V30 2181 C 201.123 -1.009 -1.6593 0
M  V30 2182 O 200.398 -0.047347 -1.94442 0
M  V30 2183 C 200.681 -3.44181 -1.05884 0
M  V30 2184 C 200.534 -4.49752 0.0654392 0
M  V30 2185 C 201.853 -3.94655 -1.9477 0
M  V30 2186 H 198.972 -0.711571 -0.191925 0
M  V30 2187 H 201.614 -1.88923 0.20206 0
M  V30 2188 H 199.764 -3.50085 -1.68442 0
M  V30 2189 H 201.436 -4.55943 0.700982 0
M  V30 2190 H 199.679 -4.27653 0.727709 0
M  V30 2191 H 200.35 -5.50924 -0.344505 0
M  V30 2192 H 202.826 -3.91094 -1.42074 0
M  V30 2193 H 201.702 -4.99057 -2.28546 0
M  V30 2194 H 201.963 -3.35718 -2.87656 0
M  V30 2195 N 201.022 0.148545 -1.56898 0
M  V30 2196 C 202.25 0.876389 -1.87422 0
M  V30 2197 C 202.665 1.74809 -0.713256 0
M  V30 2198 O 202.022 1.79725 0.317025 0
M  V30 2199 C 202.073 1.73438 -3.17178 0
M  V30 2200 O 201.794 0.897809 -4.28802 0
M  V30 2201 C 203.295 2.56993 -3.61205 0
M  V30 2202 H 200.515 0.253489 -0.621277 0
M  V30 2203 H 203.059 0.141798 -2.04008 0
M  V30 2204 H 201.214 2.42205 -3.0235 0
M  V30 2205 H 201.628 1.48672 -5.02988 0
M  V30 2206 H 203.102 3.12773 -4.54838 0
M  V30 2207 H 203.579 3.32958 -2.86419 0
M  V30 2208 H 204.185 1.9352 -3.78722 0
M  V30 2209 N 202.5 1.5196 0.417844 0
M  V30 2210 C 203.43 1.77634 1.51554 0
M  V30 2211 C 204.411 0.626918 1.58126 0
M  V30 2212 O 205.596 0.871632 1.7354 0
M  V30 2213 C 202.726 1.91911 2.8946 0
M  V30 2214 C 201.68 3.07463 2.97743 0
M  V30 2215 C 201.006 3.06951 4.37819 0
M  V30 2216 C 202.306 4.47082 2.70027 0
M  V30 2217 H 204 2.6955 1.3032 0
M  V30 2218 H 201.546 1.29706 0.625492 0
M  V30 2219 H 203.499 2.08455 3.6623 0
M  V30 2220 H 202.223 0.966598 3.11969 0
M  V30 2221 H 200.882 2.90656 2.23416 0
M  V30 2222 H 200.53 2.09438 4.57323 0
M  V30 2223 H 200.23 3.84556 4.44286 0
M  V30 2224 H 201.754 3.25613 5.16535 0
M  V30 2225 H 203.168 4.6414 3.36522 0
M  V30 2226 H 201.565 5.2654 2.87881 0
M  V30 2227 H 202.635 4.55777 1.65514 0
M  V30 2228 N 203.978 -0.674533 1.42435 0
M  V30 2229 C 205.203 -1.46784 1.46524 0
M  V30 2230 C 205.628 -1.87938 0.078066 0
M  V30 2231 O 204.986 -1.56014 -0.92354 0
M  V30 2232 C 205.034 -2.69307 2.39805 0
M  V30 2233 O 204.138 -3.67587 1.86959 0
M  V30 2234 H 203.479 -0.440959 0.496439 0
M  V30 2235 H 206.009 -0.827326 1.87127 0
M  V30 2236 H 206.019 -3.17374 2.56393 0
M  V30 2237 H 204.694 -2.38692 3.40586 0
M  V30 2238 H 203.271 -3.2662 1.79927 0
M  V30 2239 N 205.456 -1.28612 -0.910864 0
M  V30 2240 C 206.419 -1.12803 -1.9952 0
M  V30 2241 C 207.419 -0.0668264 -1.60661 0
M  V30 2242 O 208.609 -0.312847 -1.71368 0
M  V30 2243 C 205.741 -0.72254 -3.33155 0
M  V30 2244 H 206.934 -2.09109 -2.14973 0
M  V30 2245 H 204.487 -1.11639 -1.09391 0
M  V30 2246 H 205.222 0.241152 -3.23402 0
M  V30 2247 H 205.007 -1.48916 -3.62721 0
M  V30 2248 H 206.497 -0.634666 -4.12749 0
M  V30 2249 N 206.934 1.1197 -1.10907 0
M  V30 2250 C 207.844 2.21433 -0.774896 0
M  V30 2251 C 208.86 1.72478 0.229657 0
M  V30 2252 O 210.036 2.01288 0.0672008 0
M  V30 2253 C 207.101 3.4602 -0.216986 0
M  V30 2254 C 206.162 4.09791 -1.27944 0
M  V30 2255 C 205.395 5.28431 -0.748055 0
M  V30 2256 O 205.618 5.68823 0.423833 0
M  V30 2257 O 204.552 5.82644 -1.51027 0
M  V30 2258 H 208.378 2.5242 -1.68873 0
M  V30 2259 H 205.963 1.20399 -0.884555 0
M  V30 2260 H 207.845 4.21304 0.090059 0
M  V30 2261 H 206.52 3.16698 0.669633 0
M  V30 2262 H 205.427 3.36265 -1.63941 0
M  V30 2263 H 206.76 4.4328 -2.13925 0
M  V30 2264 N 208.412 0.89855 1.29475 0
M  V30 2265 C 209.342 0.39201 2.30186 0
M  V30 2266 C 210.323 -0.532359 1.61555 0
M  V30 2267 O 211.508 -0.443331 1.89072 0
M  V30 2268 C 208.638 -0.382353 3.45189 0
M  V30 2269 C 207.592 0.451483 4.25612 0
M  V30 2270 C 206.918 -0.450307 5.328 0
M  V30 2271 C 208.218 1.70079 4.93832 0
M  V30 2272 H 209.912 1.23362 2.72804 0
M  V30 2273 H 207.458 0.594638 1.31149 0
M  V30 2274 H 209.411 -0.747451 4.14718 0
M  V30 2275 H 208.135 -1.25774 3.01411 0
M  V30 2276 H 206.794 0.798897 3.57789 0
M  V30 2277 H 206.442 -1.32379 4.85268 0
M  V30 2278 H 206.142 0.103902 5.87508 0
M  V30 2279 H 207.666 -0.811623 6.05182 0
M  V30 2280 H 209.08 1.40549 5.55805 0
M  V30 2281 H 207.477 2.19623 5.58467 0
M  V30 2282 H 208.547 2.43744 4.19186 0
M  V30 2283 N 209.89 -1.43072 0.660911 0
M  V30 2284 C 211.115 -2.06584 0.183805 0
M  V30 2285 C 211.54 -1.49257 -1.14472 0
M  V30 2286 O 210.898 -0.605528 -1.70889 0
M  V30 2287 C 210.946 -3.60418 0.114434 0
M  V30 2288 O 210.05 -4.01981 -0.921137 0
M  V30 2289 H 209.391 -0.656669 0.0983994 0
M  V30 2290 H 211.921 -1.83447 0.906006 0
M  V30 2291 H 211.931 -4.07946 -0.0663394 0
M  V30 2292 H 210.606 -4.01519 1.08422 0
M  V30 2293 H 209.183 -3.66029 -0.71253 0
M  V30 2294 N 211.368 -0.403325 -1.52352 0
M  V30 2295 C 212.616 0.174003 -2.0135 0
M  V30 2296 C 212.937 1.46139 -1.29106 0
M  V30 2297 O 212.207 1.91448 -0.415253 0
M  V30 2298 H 210.787 0.0672911 -0.743963 0
M  V30 2299 H 213.449 -0.538235 -1.87321 0
M  V30 2300 H 212.545 0.374254 -3.09848 0
M  V30 2301 N 212.846 1.57033 -0.133567 0
M  V30 2302 C 214.071 2.00475 0.531477 0
M  V30 2303 C 214.496 1.01291 1.58499 0
M  V30 2304 O 213.854 -0.0133279 1.81295 0
M  V30 2305 C 213.902 3.42729 1.12113 0
M  V30 2306 O 213.006 3.46498 2.23636 0
M  V30 2307 H 212.347 0.650876 0.131362 0
M  V30 2308 H 214.877 2.03344 -0.22634 0
M  V30 2309 H 214.887 3.81246 1.4531 0
M  V30 2310 H 213.562 4.14428 0.349557 0
M  V30 2311 H 212.139 3.19811 1.91769 0
M  V30 2312 N 214.325 -0.140222 1.56975 0
M  V30 2313 C 215.555 -0.865181 1.87612 0
M  V30 2314 C 215.963 -1.74942 0.72055 0
M  V30 2315 O 215.306 -1.80917 -0.318561 0
M  V30 2316 C 215.368 -1.76782 3.13031 0
M  V30 2317 C 215.032 -1.06005 4.44536 0
M  V30 2318 C 216.029 -0.410768 5.18275 0
M  V30 2319 C 213.714 -1.04754 4.91255 0
M  V30 2320 C 215.708 0.241572 6.36942 0
M  V30 2321 C 213.395 -0.391394 6.09845 0
M  V30 2322 C 214.393 0.252029 6.82535 0
M  V30 2323 O 214.081 0.897757 7.98871 0
M  V30 2324 H 213.813 -0.255188 0.625983 0
M  V30 2325 H 216.367 -0.135653 2.04952 0
M  V30 2326 H 214.597 -2.53846 2.91718 0
M  V30 2327 H 216.286 -2.36533 3.29859 0
M  V30 2328 H 217.052 -0.412195 4.83245 0
M  V30 2329 H 212.931 -1.53777 4.34596 0
M  V30 2330 H 216.475 0.744375 6.93617 0
M  V30 2331 H 212.372 -0.387656 6.44335 0
M  V30 2332 H 213.14 0.800102 8.1458 0
M  V30 2333 N 215.803 -1.52179 -0.40978 0
M  V30 2334 C 216.751 -1.76086 -1.51975 0
M  V30 2335 C 217.745 -0.627964 -1.57331 0
M  V30 2336 O 218.951 -0.809993 -1.60745 0
M  V30 2337 H 215.326 -0.556829 -0.505416 0
M  V30 2338 H 217.297 -2.69077 -1.28996 0
M  V30 2339 C 216.046 -1.92799 -2.8935 0
M  V30 2340 H 215.369 -2.79392 -2.85972 0
M  V30 2341 H 216.809 -2.13527 -3.66309 0
M  V30 2342 C 215.268 -0.694923 -3.29655 0
M  V30 2343 O 215.798 0.13751 -4.01465 0
M  V30 2344 N 214.004 -0.53101 -2.85707 0
M  V30 2345 H 213.551 -1.20952 -2.27439 0
M  V30 2346 H 213.509 0.292718 -3.13034 0
M  V30 2347 N 217.281 0.66697 -1.42791 0
M  V30 2348 C 218.506 1.46004 -1.47301 0
M  V30 2349 C 218.931 1.87894 -0.0880317 0
M  V30 2350 O 218.289 1.56502 0.915253 0
M  V30 2351 C 218.337 2.68031 -2.41229 0
M  V30 2352 O 217.441 3.6659 -1.88906 0
M  V30 2353 H 216.782 0.43832 -0.49877 0
M  V30 2354 H 219.312 0.817391 -1.87563 0
M  V30 2355 H 219.322 3.1601 -2.58073 0
M  V30 2356 H 217.997 2.36883 -3.41847 0
M  V30 2357 H 216.574 3.25661 -1.81656 0
M  V30 2358 N 218.759 1.29093 0.90403 0
M  V30 2359 C 219.722 1.1386 1.98919 0
M  V30 2360 C 220.722 0.0753457 1.60623 0
M  V30 2361 O 221.912 0.321931 1.71199 0
M  V30 2362 C 219.044 0.740198 3.32767 0
M  V30 2363 H 220.237 2.10246 2.13861 0
M  V30 2364 H 217.79 1.12218 1.08797 0
M  V30 2365 H 218.525 -0.223997 3.23525 0
M  V30 2366 H 218.31 1.50838 3.61926 0
M  V30 2367 H 219.8 0.656546 4.12407 0
M  V30 2368 N 220.237 -1.11381 1.11499 0
M  V30 2369 C 221.483 -1.83403 0.865512 0
M  V30 2370 C 221.816 -1.84459 -0.607329 0
M  V30 2371 O 221.091 -1.29811 -1.44842 0
M  V30 2372 C 221.374 -3.30552 1.42855 0
M  V30 2373 C 221.227 -3.37886 2.96906 0
M  V30 2374 C 222.546 -4.26643 1.08 0
M  V30 2375 H 219.665 -0.665879 0.31587 0
M  V30 2376 H 222.307 -1.30601 1.37998 0
M  V30 2377 H 220.457 -3.75648 0.990985 0
M  V30 2378 H 222.129 -3.01343 3.49271 0
M  V30 2379 H 220.372 -2.78088 3.32941 0
M  V30 2380 H 221.043 -4.41458 3.31389 0
M  V30 2381 H 223.519 -3.89729 1.45775 0
M  V30 2382 H 222.395 -5.27986 1.50072 0
M  V30 2383 H 222.656 -4.42099 -0.00915037 0
M  V30 2384 N 221.715 -0.905404 -1.28997 0
M  V30 2385 C 222.645 -0.404212 -2.29975 0
M  V30 2386 C 223.626 0.523784 -1.61835 0
M  V30 2387 O 224.811 0.433298 -1.89304 0
M  V30 2388 C 221.941 0.364042 -3.45387 0
M  V30 2389 C 220.895 -0.474048 -4.25367 0
M  V30 2390 C 220.221 0.422045 -5.33032 0
M  V30 2391 C 221.521 -1.72696 -4.92923 0
M  V30 2392 H 223.215 -1.24807 -2.72146 0
M  V30 2393 H 220.761 -0.601585 -1.30832 0
M  V30 2394 H 222.714 0.725447 -4.15109 0
M  V30 2395 H 221.438 1.24174 -3.02074 0
M  V30 2396 H 220.097 -0.81786 -3.57361 0
M  V30 2397 H 219.745 1.29804 -4.85963 0
M  V30 2398 H 219.445 -0.135057 -5.87445 0
M  V30 2399 H 220.969 0.779517 -6.05604 0
M  V30 2400 H 222.383 -1.43495 -5.55051 0
M  V30 2401 H 220.78 -2.22582 -5.57295 0
M  V30 2402 H 221.85 -2.45964 -4.17887 0
M  V30 2403 N 223.193 1.4272 -0.668489 0
M  V30 2404 C 224.441 2.01226 -0.187769 0
M  V30 2405 C 224.762 1.53092 1.2078 0
M  V30 2406 O 224.032 0.74993 1.80977 0
M  V30 2407 H 222.612 0.744041 -0.0664272 0
M  V30 2408 H 225.274 1.74723 -0.863583 0
M  V30 2409 H 224.37 3.11556 -0.184166 0
M  V30 2410 N 224.671 0.411399 1.52136 0
M  V30 2411 C 225.618 -0.412975 2.27075 0
M  V30 2412 C 226.588 -1.03912 1.29582 0
M  V30 2413 O 227.773 -1.06296 1.58448 0
M  V30 2414 C 224.913 -1.52247 3.09701 0
M  V30 2415 C 224.026 -0.917021 4.22155 0
M  V30 2416 C 223.161 -1.9994 4.92135 0
M  V30 2417 C 222.2 -1.37101 5.96548 0
M  V30 2418 N 221.337 -2.39364 6.60038 0
M  V30 2419 H 226.177 0.232499 2.97092 0
M  V30 2420 H 223.714 0.126496 1.46555 0
M  V30 2421 H 225.672 -2.17674 3.55913 0
M  V30 2422 H 224.302 -2.13794 2.41851 0
M  V30 2423 H 223.354 -0.151742 3.80097 0
M  V30 2424 H 224.666 -0.418006 4.97045 0
M  V30 2425 H 223.82 -2.73088 5.41763 0
M  V30 2426 H 222.559 -2.53208 4.16818 0
M  V30 2427 H 221.564 -0.624873 5.46237 0
M  V30 2428 H 222.789 -0.845998 6.7381 0
M  V30 2429 H 220.735 -2.91759 5.87548 0
M  V30 2430 H 220.652 -1.9428 7.3061 0
M  V30 2431 H 221.92 -3.12074 7.14304 0
M  V30 2432 N 226.149 -1.5696 0.141893 0
M  V30 2433 C 227.097 -2.17784 -0.816874 0
M  V30 2434 C 228.091 -1.1334 -1.25899 0
M  V30 2435 O 229.297 -1.316 -1.22806 0
M  V30 2436 H 225.672 -0.697278 -0.281615 0
M  V30 2437 H 227.643 -2.97087 -0.279621 0
M  V30 2438 C 226.392 -2.80983 -2.04802 0
M  V30 2439 H 225.715 -3.61062 -1.7168 0
M  V30 2440 H 227.155 -3.2705 -2.69841 0
M  V30 2441 C 225.614 -1.79228 -2.8527 0
M  V30 2442 O 226.144 -1.25962 -3.8144 0
M  V30 2443 N 224.35 -1.48647 -2.49704 0
M  V30 2444 H 223.897 -1.92155 -1.71564 0
M  V30 2445 H 223.855 -0.808115 -3.03837 0
M  V30 2446 N 227.627 0.131896 -1.57047 0
M  V30 2447 C 228.557 1.16384 -2.02428 0
M  V30 2448 C 229.538 1.43936 -0.90644 0
M  V30 2449 O 230.723 1.54599 -1.17528 0
M  V30 2450 C 227.853 2.49328 -2.4177 0
M  V30 2451 C 226.807 2.36266 -3.56879 0
M  V30 2452 C 226.133 3.74057 -3.8208 0
M  V30 2453 C 227.433 1.834 -4.89042 0
M  V30 2454 H 229.127 0.786433 -2.88887 0
M  V30 2455 H 226.673 0.376855 -1.38981 0
M  V30 2456 H 228.626 3.21759 -2.7212 0
M  V30 2457 H 227.35 2.88934 -1.52266 0
M  V30 2458 H 226.009 1.66286 -3.26718 0
M  V30 2459 H 225.657 4.11125 -2.89803 0
M  V30 2460 H 225.357 3.66174 -4.59554 0
M  V30 2461 H 226.881 4.48012 -4.1487 0
M  V30 2462 H 228.295 2.45636 -5.18011 0
M  V30 2463 H 226.692 1.8637 -5.70426 0
M  V30 2464 H 227.762 0.790662 -4.7841 0
M  V30 2465 N 229.106 1.52395 0.401703 0
M  V30 2466 C 230.336 1.70429 1.1678 0
M  V30 2467 C 230.744 0.416702 1.84554 0
M  V30 2468 O 230.087 -0.617697 1.73003 0
M  V30 2469 C 230.149 2.78919 2.26814 0
M  V30 2470 C 229.813 4.20437 1.79113 0
M  V30 2471 C 230.81 5.04028 1.27482 0
M  V30 2472 C 228.495 4.66704 1.85722 0
M  V30 2473 C 230.489 6.31961 0.830913 0
M  V30 2474 C 228.176 5.94625 1.40942 0
M  V30 2475 C 229.174 6.77082 0.897128 0
M  V30 2476 O 228.862 8.02607 0.455822 0
M  V30 2477 H 228.594 0.574272 0.356634 0
M  V30 2478 H 231.148 1.99767 0.477724 0
M  V30 2479 H 229.378 2.44973 2.99207 0
M  V30 2480 H 231.067 2.8548 2.88541 0
M  V30 2481 H 231.833 4.69471 1.21744 0
M  V30 2482 H 227.712 4.0262 2.24539 0
M  V30 2483 H 231.256 6.96271 0.430368 0
M  V30 2484 H 227.153 6.28688 1.46362 0
M  V30 2485 H 227.921 8.16453 0.578457 0
M  V30 2486 N 230.584 -0.659388 1.43143 0
M  V30 2487 C 231.494 -1.80167 1.50256 0
M  V30 2488 C 232.51 -1.69571 0.390106 0
M  V30 2489 O 233.686 -1.90849 0.643319 0
M  V30 2490 C 230.751 -3.16409 1.41725 0
M  V30 2491 C 229.812 -3.38848 2.63591 0
M  V30 2492 C 229.045 -4.68591 2.55458 0
M  V30 2493 O 229.268 -5.47532 1.59891 0
M  V30 2494 O 228.202 -4.92614 3.45854 0
M  V30 2495 H 232.028 -1.77121 2.46702 0
M  V30 2496 H 229.613 -0.817092 1.25076 0
M  V30 2497 H 231.495 -3.9768 1.39387 0
M  V30 2498 H 230.17 -3.20059 0.484118 0
M  V30 2499 H 229.077 -2.57366 2.71502 0
M  V30 2500 H 230.41 -3.4004 3.55856 0
M  V30 2501 N 232.062 -1.29571 -0.897171 0
M  V30 2502 C 232.972 -1.16808 -2.03453 0
M  V30 2503 C 233.988 -0.0907471 -1.73763 0
M  V30 2504 O 235.164 -0.303312 -1.99103 0
M  V30 2505 C 232.229 -0.848264 -3.36163 0
M  V30 2506 C 231.29 -2.0097 -3.79354 0
M  V30 2507 C 230.523 -1.70505 -5.05731 0
M  V30 2508 O 230.746 -0.62718 -5.66941 0
M  V30 2509 O 229.68 -2.5538 -5.45036 0
M  V30 2510 H 233.506 -2.12325 -2.17144 0
M  V30 2511 H 231.091 -1.09047 -1.02123 0
M  V30 2512 H 232.973 -0.684581 -4.15802 0
M  V30 2513 H 231.648 0.0771071 -3.23608 0
M  V30 2514 H 230.555 -2.22863 -3.00471 0
M  V30 2515 H 231.888 -2.91636 -3.96496 0
M  V30 2516 N 233.54 1.10788 -1.12088 0
M  V30 2517 C 234.45 2.20599 -0.798338 0
M  V30 2518 C 235.466 1.72712 0.21135 0
M  V30 2519 O 236.642 2.01348 0.0458477 0
M  V30 2520 C 233.707 3.45771 -0.253674 0
M  V30 2521 C 232.768 4.08411 -1.32283 0
M  V30 2522 C 232.001 5.27608 -0.80406 0
M  V30 2523 O 232.224 5.69241 0.363478 0
M  V30 2524 O 231.158 5.8101 -1.57198 0
M  V30 2525 H 234.984 2.50614 -1.7154 0
M  V30 2526 H 232.569 1.19454 -0.897275 0
M  V30 2527 H 234.451 4.21376 0.0453691 0
M  V30 2528 H 233.126 3.1739 0.636005 0
M  V30 2529 H 232.033 3.34507 -1.67499 0
M  V30 2530 H 233.366 4.40986 -2.18614 0
M  V30 2531 N 235.018 0.912232 1.28515 0
M  V30 2532 C 236.248 0.559604 1.98877 0
M  V30 2533 C 236.656 -0.863113 1.68366 0
M  V30 2534 O 235.999 -1.58304 0.931969 0
M  V30 2535 C 236.061 0.68703 3.52874 0
M  V30 2536 C 235.725 2.07901 4.06972 0
M  V30 2537 C 236.722 3.05157 4.20922 0
M  V30 2538 C 234.407 2.39178 4.417 0
M  V30 2539 C 236.401 4.31806 4.68852 0
M  V30 2540 C 234.088 3.66068 4.89324 0
M  V30 2541 C 235.086 4.62195 5.02856 0
M  V30 2542 O 234.774 5.86829 5.49442 0
M  V30 2543 H 234.506 0.212191 0.641834 0
M  V30 2544 H 237.06 1.22712 1.64715 0
M  V30 2545 H 235.29 -0.0375486 3.86682 0
M  V30 2546 H 236.979 0.341727 4.04459 0
M  V30 2547 H 237.745 2.82311 3.94367 0
M  V30 2548 H 233.624 1.65109 4.30418 0
M  V30 2549 H 237.168 5.06842 4.79329 0
M  V30 2550 H 233.065 3.88739 5.15318 0
M  V30 2551 H 233.833 5.89597 5.6773 0
M  V30 2552 N 236.496 -1.42363 0.676048 0
M  V30 2553 C 237.744 -2.01123 0.198437 0
M  V30 2554 C 238.065 -1.53731 -1.19966 0
M  V30 2555 O 237.335 -0.759518 -1.80577 0
M  V30 2556 H 235.915 -0.743678 0.0703721 0
M  V30 2557 H 238.577 -1.74263 0.872837 0
M  V30 2558 H 237.673 -3.11454 0.200686 0
M  V30 2559 N 237.974 -0.419461 -1.51915 0
M  V30 2560 C 238.884 0.407528 -2.31033 0
M  V30 2561 C 239.9 1.04413 -1.3919 0
M  V30 2562 O 241.076 1.0434 -1.72265 0
M  V30 2563 C 238.141 1.50365 -3.12396 0
M  V30 2564 C 237.202 0.889029 -4.19994 0
M  V30 2565 C 236.435 1.93291 -4.97468 0
M  V30 2566 O 236.658 3.15259 -4.75361 0
M  V30 2567 O 235.592 1.53339 -5.8204 0
M  V30 2568 H 239.418 -0.237865 -3.02767 0
M  V30 2569 H 237.003 -0.182413 -1.48282 0
M  V30 2570 H 238.885 2.13975 -3.63032 0
M  V30 2571 H 237.56 2.13345 -2.43445 0
M  V30 2572 H 236.467 0.215353 -3.7348 0
M  V30 2573 H 237.8 0.302991 -4.91267 0
M  V30 2574 N 239.452 1.56882 -0.150215 0
M  V30 2575 C 240.399 2.16922 0.788244 0
M  V30 2576 C 241.369 1.10303 1.24187 0
M  V30 2577 O 242.554 1.38359 1.31383 0
M  V30 2578 C 239.694 2.79754 2.02068 0
M  V30 2579 C 238.807 4.00775 1.61257 0
M  V30 2580 C 237.942 4.51595 2.79705 0
M  V30 2581 C 236.981 5.65074 2.35282 0
M  V30 2582 N 236.118 6.10499 3.4675 0
M  V30 2583 H 240.958 2.96779 0.269444 0
M  V30 2584 H 238.495 1.46599 0.12128 0
M  V30 2585 H 240.453 3.14329 2.74323 0
M  V30 2586 H 239.083 2.02536 2.51354 0
M  V30 2587 H 238.135 3.72158 0.787553 0
M  V30 2588 H 239.447 4.82978 1.24633 0
M  V30 2589 H 238.601 4.88242 3.60145 0
M  V30 2590 H 237.34 3.68406 3.19576 0
M  V30 2591 H 236.345 5.28 1.53283 0
M  V30 2592 H 237.57 6.50052 1.96493 0
M  V30 2593 H 235.516 5.30243 3.86236 0
M  V30 2594 H 235.433 6.87637 3.14152 0
M  V30 2595 H 236.701 6.51791 4.27537 0
M  V30 2596 N 240.93 -0.123565 1.57115 0
M  V30 2597 C 241.862 -1.17739 1.96648 0
M  V30 2598 C 242.875 -1.37906 0.865201 0
M  V30 2599 O 244.064 -1.37062 1.14351 0
M  V30 2600 C 241.164 -2.53821 2.24562 0
M  V30 2601 C 240.337 -2.54317 3.55867 0
M  V30 2602 C 239.396 -3.72112 3.72047 0
M  V30 2603 O 238.422 -3.55907 4.44206 0
M  V30 2604 N 239.624 -4.90498 3.10471 0
M  V30 2605 H 242.389 -0.841147 2.87654 0
M  V30 2606 H 239.95 -0.31289 1.58848 0
M  V30 2607 H 241.942 -3.31175 2.32606 0
M  V30 2608 H 240.512 -2.79645 1.39705 0
M  V30 2609 H 239.732 -1.62711 3.59053 0
M  V30 2610 H 241.02 -2.51701 4.42181 0
M  V30 2611 H 240.418 -5.06567 2.51806 0
M  V30 2612 H 238.975 -5.65544 3.24043 0
M  V30 2613 N 242.408 -1.52605 -0.393616 0
M  V30 2614 C 243.657 -1.66649 -1.13627 0
M  V30 2615 C 243.97 -0.410364 -1.91247 0
M  V30 2616 O 245.176 -0.430854 -2.68059 0
M  V30 2617 C 243.632 -2.9449 -2.06891 0
M  V30 2618 C 243.24 -4.27266 -1.34714 0
M  V30 2619 C 244.984 -3.17899 -2.81319 0
M  V30 2620 C 242.891 -5.46217 -2.26717 0
M  V30 2621 H 241.821 -0.62084 -0.427871 0
M  V30 2622 H 244.472 -1.791 -0.399428 0
M  V30 2623 H 242.854 -2.75774 -2.84191 0
M  V30 2624 H 244.028 -4.56518 -0.626714 0
M  V30 2625 H 242.343 -4.10081 -0.722643 0
M  V30 2626 H 244.94 -4.03949 -3.50328 0
M  V30 2627 H 245.283 -2.32777 -3.45139 0
M  V30 2628 H 245.816 -3.37159 -2.11113 0
M  V30 2629 H 242.555 -6.33733 -1.67521 0
M  V30 2630 H 242.075 -5.21283 -2.96689 0
M  V30 2631 H 243.754 -5.7991 -2.86903 0
M  V30 2632 N 243.887 0.651787 -1.4349 0
M  V30 2633 C 244.837 1.75783 -1.45205 0
M  V30 2634 C 245.821 1.57679 -0.320328 0
M  V30 2635 O 247.013 1.67767 -0.564211 0
M  V30 2636 C 244.142 3.14377 -1.3792 0
M  V30 2637 C 243.228 3.38023 -2.56127 0
M  V30 2638 N 243.619 3.32135 -3.81471 0
M  V30 2639 C 241.917 3.68747 -2.50882 0
M  V30 2640 C 242.618 3.55902 -4.60118 0
M  V30 2641 N 241.594 3.77783 -3.90872 0
M  V30 2642 H 245.396 1.69657 -2.39987 0
M  V30 2643 H 242.91 0.853508 -1.38163 0
M  V30 2644 H 244.907 3.93666 -1.37231 0
M  V30 2645 H 243.567 3.21683 -0.441596 0
M  V30 2646 H 244.578 3.11515 -4.13738 0
M  V30 2647 H 241.255 3.8316 -1.65816 0
M  V30 2648 H 242.645 3.57116 -5.69138 0
M  V30 2649 N 245.365 1.30045 0.890287 0
M  V30 2650 C 246.611 1.18737 1.64406 0
M  V30 2651 C 246.944 -0.258525 1.92472 0
M  V30 2652 O 246.219 -1.18562 1.54186 0
M  V30 2653 C 246.502 2.01087 2.98724 0
M  V30 2654 C 246.355 3.53867 2.77665 0
M  V30 2655 C 247.674 1.84457 3.9958 0
M  V30 2656 H 244.793 0.432698 0.596608 0
M  V30 2657 H 247.435 1.5962 1.0306 0
M  V30 2658 H 245.585 1.66349 3.51084 0
M  V30 2659 H 247.257 3.98637 2.32133 0
M  V30 2660 H 245.5 3.78318 2.12269 0
M  V30 2661 H 246.171 4.06772 3.7315 0
M  V30 2662 H 248.647 2.14817 3.56361 0
M  V30 2663 H 247.523 2.44411 4.91482 0
M  V30 2664 H 247.784 0.802276 4.3476 0
M  V30 2665 N 246.843 -1.10192 1.12674 0
M  V30 2666 C 248.09 -1.82205 0.883606 0
M  V30 2667 C 248.418 -1.8532 -0.590492 0
M  V30 2668 O 247.673 -1.31137 -1.45264 0
M  V30 2669 C 247.972 -3.28552 1.4067 0
M  V30 2670 C 247.638 -3.45582 2.89627 0
M  V30 2671 C 246.3 -3.49937 3.30299 0
M  V30 2672 C 248.652 -3.50768 3.85501 0
M  V30 2673 C 245.98 -3.57049 4.65546 0
M  V30 2674 C 248.332 -3.59414 5.20581 0
M  V30 2675 C 246.996 -3.62034 5.60792 0
M  V30 2676 H 246.266 -0.666735 0.323334 0
M  V30 2677 H 248.913 -1.29868 1.40736 0
M  V30 2678 H 247.218 -3.83473 0.80347 0
M  V30 2679 H 248.915 -3.82788 1.19475 0
M  V30 2680 H 245.505 -3.42871 2.57172 0
M  V30 2681 H 249.689 -3.46651 3.55171 0
M  V30 2682 H 244.945 -3.57361 4.96088 0
M  V30 2683 H 249.119 -3.62371 5.94693 0
M  V30 2684 H 246.746 -3.67298 6.6558 0
M  V30 2685 N 248.321 -0.919034 -1.28029 0
M  V30 2686 C 249.269 -0.401753 -2.29104 0
M  V30 2687 C 250.263 0.509354 -1.61561 0
M  V30 2688 O 251.469 0.390014 -1.75724 0
M  V30 2689 H 247.844 -0.111331 -0.743713 0
M  V30 2690 H 249.815 -1.2672 -2.70156 0
M  V30 2691 C 248.564 0.338148 -3.46052 0
M  V30 2692 H 247.887 -0.353732 -3.98232 0
M  V30 2693 H 249.327 0.664653 -4.18758 0
M  V30 2694 C 247.786 1.54798 -2.99231 0
M  V30 2695 O 248.316 2.64696 -3.02157 0
M  V30 2696 N 246.522 1.3968 -2.54829 0
M  V30 2697 H 246.069 0.502698 -2.52647 0
M  V30 2698 H 246.027 2.20755 -2.23863 0
M  V30 2699 N 249.799 1.42003 -0.683588 0
M  V30 2700 C 251.024 2.06265 -0.216647 0
M  V30 2701 C 251.449 1.51059 1.12083 0
M  V30 2702 O 250.807 0.632638 1.69904 0
M  V30 2703 C 250.855 3.60191 -0.171759 0
M  V30 2704 O 249.959 4.03396 0.857069 0
M  V30 2705 H 249.3 0.65502 -0.108834 0
M  V30 2706 H 251.83 1.81982 -0.935077 0
M  V30 2707 H 251.84 4.08 0.0014303 0
M  V30 2708 H 250.515 3.99743 -1.14796 0
M  V30 2709 H 249.092 3.67117 0.654208 0
M  V30 2710 N 251.277 0.427512 1.51691 0
M  V30 2711 C 252.693 0.0792977 1.59403 0
M  V30 2712 C 252.893 -1.41035 1.43914 0
M  V30 2713 O 251.949 -2.17922 1.27539 0
M  V30 2714 C 253.262 0.590636 2.94842 0
M  V30 2715 C 254.81 0.550215 3.08126 0
M  V30 2716 C 255.285 1.03836 4.46074 0
M  V30 2717 N 256.776 0.995943 4.52366 0
M  V30 2718 C 257.511 1.34463 5.57411 0
M  V30 2719 N 257.007 1.76569 6.69922 0
M  V30 2720 N 258.8 1.26343 5.47717 0
M  V30 2721 H 250.951 1.39687 1.60004 0
M  V30 2722 H 253.214 0.575003 0.753708 0
M  V30 2723 H 252.92 1.63251 3.11516 0
M  V30 2724 H 252.794 0.0102061 3.77199 0
M  V30 2725 H 255.181 -0.482654 2.91126 0
M  V30 2726 H 255.262 1.16693 2.27632 0
M  V30 2727 H 254.906 2.06965 4.63819 0
M  V30 2728 H 254.836 0.398286 5.25092 0
M  V30 2729 H 257.327 0.68661 3.7161 0
M  V30 2730 H 257.64 2.01438 7.46085 0
M  V30 2731 H 255.985 1.80488 6.71155 0
M  V30 2732 H 259.176 0.933209 4.58703 0
M  V30 2733 H 259.349 1.53846 6.29472 0
M  V30 2734 N 252.755 -1.56801 0.158532 0
M  V30 2735 C 253.98 -2.01295 -0.499516 0
M  V30 2736 C 254.405 -1.03799 -1.56867 0
M  V30 2737 O 253.763 -0.0155162 -1.81293 0
M  V30 2738 C 253.811 -3.44469 -1.06647 0
M  V30 2739 O 252.915 -3.50012 -2.18095 0
M  V30 2740 H 252.256 -0.652884 -0.12099 0
M  V30 2741 H 254.786 -2.02958 0.258661 0
M  V30 2742 H 254.796 -3.8351 -1.39227 0
M  V30 2743 H 253.471 -4.14932 -0.283581 0
M  V30 2744 H 252.048 -3.22822 -1.86656 0
M  V30 2745 N 254.233 0.115231 -1.57178 0
M  V30 2746 C 255.196 1.12526 -1.99676 0
M  V30 2747 C 256.196 1.34095 -0.88742 0
M  V30 2748 O 257.386 1.30548 -1.15337 0
M  V30 2749 C 254.518 2.4789 -2.34015 0
M  V30 2750 H 255.711 0.759912 -2.90113 0
M  V30 2751 H 253.264 0.359648 -1.52106 0
M  V30 2752 H 253.999 2.89339 -1.4647 0
M  V30 2753 H 253.784 2.33588 -3.14927 0
M  V30 2754 H 255.274 3.20575 -2.67622 0
M  V30 2755 N 255.711 1.52812 0.385517 0
M  V30 2756 C 256.936 1.72207 1.15583 0
M  V30 2757 C 257.361 0.441034 1.82857 0
M  V30 2758 O 256.719 -0.603465 1.70962 0
M  V30 2759 C 256.767 2.87476 2.17692 0
M  V30 2760 O 255.871 2.54693 3.24354 0
M  V30 2761 H 255.212 0.572526 0.336319 0
M  V30 2762 H 257.742 1.99618 0.448744 0
M  V30 2763 H 257.752 3.13072 2.6163 0
M  V30 2764 H 256.427 3.80408 1.68115 0
M  V30 2765 H 255.004 2.3985 2.85529 0
M  V30 2766 N 257.189 -0.644168 1.43834 0
M  V30 2767 C 258.435 -1.40603 1.46146 0
M  V30 2768 C 258.768 -1.93997 0.0887717 0
M  V30 2769 O 258.043 -1.72854 -0.891724 0
M  V30 2770 C 258.326 -2.58086 2.51124 0
M  V30 2771 C 258.179 -2.10126 3.97702 0
M  V30 2772 C 259.498 -3.60291 2.52742 0
M  V30 2773 H 256.617 -0.509905 0.532134 0
M  V30 2774 H 259.259 -0.729502 1.75437 0
M  V30 2775 H 257.409 -3.15801 2.26278 0
M  V30 2776 H 259.081 -1.57342 4.33637 0
M  V30 2777 H 257.324 -1.41419 4.10101 0
M  V30 2778 H 257.995 -2.94649 4.66783 0
M  V30 2779 H 260.471 -3.12352 2.7491 0
M  V30 2780 H 259.347 -4.40032 3.28121 0
M  V30 2781 H 259.608 -4.1349 1.56455 0
M  V30 2782 N 258.668 -1.30515 -0.883378 0
M  V30 2783 C 259.916 -1.19194 -1.63209 0
M  V30 2784 C 260.237 0.253205 -1.93349 0
M  V30 2785 O 259.507 1.17025 -1.57105 0
M  V30 2786 H 258.087 -0.438148 -0.605009 0
M  V30 2787 H 260.749 -1.63663 -1.05832 0
M  V30 2788 H 259.845 -1.75396 -2.58153 0
M  V30 2789 N 260.146 1.09593 -1.13257 0
M  V30 2790 C 261.056 2.19739 -0.821691 0
M  V30 2791 C 262.072 1.72926 0.19302 0
M  V30 2792 O 263.248 2.01385 0.0244895 0
M  V30 2793 C 260.313 3.45482 -0.290333 0
M  V30 2794 C 259.374 4.06985 -1.36607 0
M  V30 2795 C 258.607 5.26726 -0.859975 0
M  V30 2796 O 258.83 5.69594 0.303082 0
M  V30 2797 O 257.764 5.7931 -1.63351 0
M  V30 2798 H 261.59 2.48781 -1.74189 0
M  V30 2799 H 259.175 1.18496 -0.909894 0
M  V30 2800 H 261.057 4.214 0.000674022 0
M  V30 2801 H 259.732 3.18047 0.602306 0
M  V30 2802 H 258.639 3.32712 -1.71037 0
M  V30 2803 H 259.972 4.38643 -2.23279 0
M  V30 2804 N 261.624 0.925811 1.2754 0
M  V30 2805 C 262.852 0.581509 1.9856 0
M  V30 2806 C 263.267 -0.840041 1.69082 0
M  V30 2807 O 262.624 -1.55805 0.950312 0
M  V30 2808 C 262.675 0.795589 3.52637 0
M  V30 2809 O 262.396 2.16121 3.81082 0
M  V30 2810 C 263.897 0.459744 4.4091 0
M  V30 2811 H 261.117 0.220538 0.633722 0
M  V30 2812 H 263.661 1.24232 1.6244 0
M  V30 2813 H 261.816 0.18161 3.86974 0
M  V30 2814 H 262.23 2.2098 4.75676 0
M  V30 2815 H 263.704 0.660244 5.48037 0
M  V30 2816 H 264.181 -0.604625 4.35018 0
M  V30 2817 H 264.787 1.05178 4.12089 0
M  V30 2818 N 263.102 -1.41638 0.69111 0
M  V30 2819 C 264.032 -2.3347 0.037248 0
M  V30 2820 C 265.013 -1.51575 -0.771947 0
M  V30 2821 O 266.198 -1.80126 -0.72582 0
M  V30 2822 C 263.328 -3.35354 -0.903064 0
M  V30 2823 C 262.282 -4.27526 -0.201288 0
M  V30 2824 C 261.608 -5.19747 -1.25565 0
M  V30 2825 C 262.908 -5.13959 0.929689 0
M  V30 2826 H 264.602 -2.88397 0.804227 0
M  V30 2827 H 262.148 -1.38669 0.388189 0
M  V30 2828 H 264.101 -3.98519 -1.36969 0
M  V30 2829 H 262.825 -2.78767 -1.70166 0
M  V30 2830 H 261.484 -3.65779 0.245265 0
M  V30 2831 H 261.132 -4.59479 -2.04666 0
M  V30 2832 H 260.832 -5.8225 -0.791128 0
M  V30 2833 H 262.356 -5.85789 -1.72288 0
M  V30 2834 H 263.77 -5.70718 0.543546 0
M  V30 2835 H 262.167 -5.85379 1.32103 0
M  V30 2836 H 263.237 -4.51389 1.77133 0
M  V30 2837 N 264.58 -0.43555 -1.51462 0
M  V30 2838 C 265.829 0.133007 -2.01261 0
M  V30 2839 C 266.142 1.43942 -1.32439 0
M  V30 2840 O 267.348 2.09081 -1.73198 0
M  V30 2841 C 265.804 0.287581 -3.58749 0
M  V30 2842 C 265.412 -1.00829 -4.36506 0
M  V30 2843 C 267.156 0.810004 -4.167 0
M  V30 2844 C 265.063 -0.819454 -5.85695 0
M  V30 2845 H 263.993 0.0534822 -0.752101 0
M  V30 2846 H 266.644 -0.565038 -1.74584 0
M  V30 2847 H 265.026 1.04859 -3.81865 0
M  V30 2848 H 266.2 -1.77749 -4.25138 0
M  V30 2849 H 264.515 -1.45911 -3.89999 0
M  V30 2850 H 267.112 0.967743 -5.2587 0
M  V30 2851 H 267.455 1.79196 -3.75758 0
M  V30 2852 H 267.988 0.107357 -3.97655 0
M  V30 2853 H 264.727 -1.77374 -6.31046 0
M  V30 2854 H 264.247 -0.0900208 -5.99732 0
M  V30 2855 H 265.926 -0.471949 -6.45276 0
M  V30 2856 N 266.058 1.56714 -0.166846 0
M  V30 2857 C 267.021 2.16539 0.751232 0
M  V30 2858 C 268.021 1.11228 1.16125 0
M  V30 2859 O 269.211 1.36765 1.07894 0
M  V30 2860 C 266.343 2.74462 2.02196 0
M  V30 2861 H 267.536 2.99013 0.230499 0
M  V30 2862 H 265.089 1.56081 0.0826982 0
M  V30 2863 H 265.824 1.95709 2.58589 0
M  V30 2864 H 265.609 3.51527 1.73698 0
M  V30 2865 H 267.099 3.20489 2.67725 0
M  V30 2866 N 267.536 -0.106894 1.57237 0
M  V30 2867 C 268.466 -1.13148 2.04254 0
M  V30 2868 C 269.447 -1.42476 0.929224 0
M  V30 2869 O 270.632 -1.52709 1.19973 0
M  V30 2870 C 267.762 -2.4545 2.45706 0
M  V30 2871 C 266.716 -2.30558 3.60592 0
M  V30 2872 C 266.042 -3.67931 3.87983 0
M  V30 2873 C 267.342 -1.75597 4.91897 0
M  V30 2874 H 269.036 -0.740374 2.90101 0
M  V30 2875 H 266.582 -0.354696 1.39563 0
M  V30 2876 H 268.535 -3.17389 2.77205 0
M  V30 2877 H 267.259 -2.86475 1.56843 0
M  V30 2878 H 265.918 -1.61067 3.29322 0
M  V30 2879 H 265.566 -4.06462 2.96306 0
M  V30 2880 H 265.266 -3.58817 4.65322 0
M  V30 2881 H 266.79 -4.41356 4.21945 0
M  V30 2882 H 268.204 -2.37364 5.21854 0
M  V30 2883 H 266.601 -1.77272 5.73319 0
M  V30 2884 H 267.671 -0.714451 4.79608 0
M  V30 2885 N 269.014 -1.53014 -0.377408 0
M  V30 2886 C 269.961 -1.78616 -1.46168 0
M  V30 2887 C 270.931 -0.629917 -1.53692 0
M  V30 2888 O 272.116 -0.870861 -1.69766 0
M  V30 2889 C 269.256 -1.97123 -2.8326 0
M  V30 2890 C 268.369 -3.24831 -2.84796 0
M  V30 2891 C 267.504 -3.33591 -4.13389 0
M  V30 2892 C 266.543 -4.55377 -4.09021 0
M  V30 2893 N 265.68 -4.61355 -5.29241 0
M  V30 2894 H 270.52 -2.71142 -1.23637 0
M  V30 2895 H 268.057 -1.34326 -0.599577 0
M  V30 2896 H 270.015 -2.05839 -3.62886 0
M  V30 2897 H 268.645 -1.07946 -3.04216 0
M  V30 2898 H 267.697 -3.25128 -1.97474 0
M  V30 2899 H 269.009 -4.14523 -2.77439 0
M  V30 2900 H 268.163 -3.41554 -5.01424 0
M  V30 2901 H 266.902 -2.41894 -4.23484 0
M  V30 2902 H 265.907 -4.47527 -3.19373 0
M  V30 2903 H 267.132 -5.48402 -4.00539 0
M  V30 2904 H 265.078 -3.72554 -5.39944 0
M  V30 2905 H 264.995 -5.44935 -5.24006 0
M  V30 2906 H 266.263 -4.73586 -6.19141 0
M  V30 2907 N 270.492 0.636531 -1.44174 0
M  V30 2908 C 271.738 1.39826 -1.4689 0
M  V30 2909 C 272.071 1.93947 -0.0990585 0
M  V30 2910 O 271.346 1.73325 0.882544 0
M  V30 2911 C 271.629 2.56751 -2.5249 0
M  V30 2912 C 271.482 2.08014 -3.98811 0
M  V30 2913 C 272.801 3.58946 -2.54649 0
M  V30 2914 H 269.92 0.507075 -0.53483 0
M  V30 2915 H 272.562 0.720188 -1.75822 0
M  V30 2916 H 270.712 3.14597 -2.2795 0
M  V30 2917 H 272.384 1.5504 -4.34466 0
M  V30 2918 H 270.627 1.39242 -4.10846 0
M  V30 2919 H 271.298 2.92169 -4.68339 0
M  V30 2920 H 273.774 3.1089 -2.76563 0
M  V30 2921 H 272.65 4.38286 -3.3045 0
M  V30 2922 H 272.911 4.12655 -1.58646 0
M  V30 2923 N 271.97 1.30982 0.876444 0
M  V30 2924 C 272.902 1.13902 1.98894 0
M  V30 2925 C 273.915 0.0798815 1.62604 0
M  V30 2926 O 275.104 0.326743 1.75484 0
M  V30 2927 C 272.204 0.716699 3.31235 0
M  V30 2928 C 271.377 1.85945 3.95908 0
M  V30 2929 C 270.436 1.42426 5.06558 0
M  V30 2930 O 269.462 2.13287 5.27729 0
M  V30 2931 N 270.664 0.308025 5.79682 0
M  V30 2932 H 273.429 2.09724 2.14094 0
M  V30 2933 H 270.99 1.2323 1.05004 0
M  V30 2934 H 272.982 0.408403 4.02634 0
M  V30 2935 H 271.552 -0.149719 3.12241 0
M  V30 2936 H 270.772 2.33541 3.17573 0
M  V30 2937 H 272.06 2.62503 4.35855 0
M  V30 2938 H 271.458 -0.282241 5.64995 0
M  V30 2939 H 270.015 0.0592282 6.51773 0
M  V30 2940 N 273.449 -1.08991 1.13837 0
M  V30 2941 C 274.381 -2.15606 0.777612 0
M  V30 2942 C 275.394 -1.61533 -0.202739 0
M  V30 2943 O 276.583 -1.78491 0.0181055 0
M  V30 2944 C 273.683 -3.3864 0.132623 0
M  V30 2945 C 272.856 -4.22115 1.1462 0
M  V30 2946 C 271.915 -5.23564 0.526074 0
M  V30 2947 O 270.941 -5.56678 1.18735 0
M  V30 2948 N 272.143 -5.76266 -0.699866 0
M  V30 2949 H 274.908 -2.47159 1.69506 0
M  V30 2950 H 272.469 -1.24747 1.03198 0
M  V30 2951 H 274.461 -4.03626 -0.29459 0
M  V30 2952 H 273.031 -3.04938 -0.687849 0
M  V30 2953 H 272.251 -3.53199 1.75055 0
M  V30 2954 H 273.539 -4.74709 1.83109 0
M  V30 2955 H 272.937 -5.51585 -1.25581 0
M  V30 2956 H 271.494 -6.42963 -1.06968 0
M  V30 2957 N 274.927 -0.932562 -1.27047 0
M  V30 2958 C 276.167 -0.582919 -1.95912 0
M  V30 2959 C 276.531 0.860629 -1.71631 0
M  V30 2960 O 277.732 1.31878 -2.34225 0
M  V30 2961 C 276.003 -0.905673 -3.45734 0
M  V30 2962 S 277.562 -0.665277 -4.33727 0
M  V30 2963 H 274.38 -0.215 -0.677714 0
M  V30 2964 H 276.982 -1.20204 -1.54179 0
M  V30 2965 H 275.686 -1.95386 -3.60905 0
M  V30 2966 H 275.217 -0.275939 -3.92431 0
M  V30 2967 H 277.232 0.474635 -4.93925 0
M  V30 2968 N 276.405 1.4127 -0.698611 0
M  V30 2969 C 277.315 2.34573 -0.0357891 0
M  V30 2970 C 278.331 1.56393 0.762701 0
M  V30 2971 O 279.507 1.8886 0.699564 0
M  V30 2972 C 276.572 3.35159 0.887089 0
M  V30 2973 C 275.633 4.29225 0.0804634 0
M  V30 2974 C 274.866 5.25006 0.959387 0
M  V30 2975 O 275.089 5.26314 2.19886 0
M  V30 2976 O 274.023 6.00519 0.407439 0
M  V30 2977 H 277.849 2.92838 -0.804957 0
M  V30 2978 H 275.434 1.42175 -0.458966 0
M  V30 2979 H 277.316 3.9689 1.41621 0
M  V30 2980 H 275.991 2.79333 1.6357 0
M  V30 2981 H 274.898 3.70833 -0.493328 0
M  V30 2982 H 276.231 4.88157 -0.629547 0
M  V30 2983 N 277.883 0.443576 1.51229 0
M  V30 2984 C 278.83 -0.364716 2.279 0
M  V30 2985 C 279.8 -1.0114 1.31757 0
M  V30 2986 O 280.985 -1.02912 1.60667 0
M  V30 2987 C 278.125 -1.45644 3.12861 0
M  V30 2988 C 277.238 -0.827269 4.24005 0
M  V30 2989 C 276.373 -1.89456 4.96266 0
M  V30 2990 C 275.412 -1.24416 5.99322 0
M  V30 2991 N 274.549 -2.25309 6.64966 0
M  V30 2992 H 279.389 0.295464 2.96532 0
M  V30 2993 H 276.926 0.157554 1.46254 0
M  V30 2994 H 278.884 -2.10076 3.6045 0
M  V30 2995 H 277.514 -2.08616 2.46331 0
M  V30 2996 H 276.566 -0.0710839 3.80334 0
M  V30 2997 H 277.878 -0.312481 4.9782 0
M  V30 2998 H 277.032 -2.61535 5.47434 0
M  V30 2999 H 275.771 -2.4431 4.22095 0
M  V30 3000 H 274.776 -0.508868 5.4744 0
M  V30 3001 H 276.001 -0.702882 6.75453 0
M  V30 3002 H 273.947 -2.79231 5.93604 0
M  V30 3003 H 273.864 -1.78739 7.34567 0
M  V30 3004 H 275.132 -2.96853 7.20763 0
M  V30 3005 N 279.361 -1.56624 0.175154 0
M  V30 3006 C 280.324 -2.16934 -0.739738 0
M  V30 3007 C 281.324 -1.11842 -1.15533 0
M  V30 3008 O 282.514 -1.37335 -1.07167 0
M  V30 3009 C 279.646 -2.75531 -2.00738 0
M  V30 3010 H 280.839 -2.99131 -0.214639 0
M  V30 3011 H 278.392 -1.56123 -0.0744197 0
M  V30 3012 H 279.127 -1.97078 -2.57548 0
M  V30 3013 H 278.912 -3.52444 -1.71831 0
M  V30 3014 H 280.402 -3.21904 -2.66021 0
M  V30 3015 N 280.839 0.0985539 -1.57292 0
M  V30 3016 C 282.087 0.801092 -1.85545 0
M  V30 3017 C 282.408 1.79438 -0.763353 0
M  V30 3018 O 281.678 1.94763 0.21073 0
M  V30 3019 H 280.258 0.29884 -0.684619 0
M  V30 3020 H 282.92 0.0810064 -1.94732 0
M  V30 3021 H 282.016 1.3338 -2.82163 0
M  V30 3022 N 282.317 1.53212 0.369288 0
M  V30 3023 C 283.25 1.74166 1.4745 0
M  V30 3024 C 284.228 0.589923 1.51521 0
M  V30 3025 O 285.412 0.822078 1.69629 0
M  V30 3026 C 282.539 1.81711 2.8583 0
M  V30 3027 C 281.585 3.03649 2.99499 0
M  V30 3028 S 282.418 4.63242 2.6864 0
M  V30 3029 C 283.574 4.7363 4.09177 0
M  V30 3030 H 283.807 2.67636 1.29454 0
M  V30 3031 H 281.34 1.43754 0.563396 0
M  V30 3032 H 283.298 1.86743 3.65564 0
M  V30 3033 H 281.959 0.89299 3.01139 0
M  V30 3034 H 281.152 3.05526 4.00836 0
M  V30 3035 H 280.754 2.9671 2.27683 0
M  V30 3036 H 283.046 4.53456 5.03372 0
M  V30 3037 H 283.989 5.75682 4.12306 0
M  V30 3038 H 284.397 4.02295 3.96004 0
M  V30 3039 N 283.795 -0.628877 1.44509 0
M  V30 3040 C 285.023 -1.41554 1.50897 0
M  V30 3041 C 285.438 -1.8832 0.134564 0
M  V30 3042 O 284.795 -1.60969 -0.859965 0
M  V30 3043 C 284.846 -2.63435 2.47556 0
M  V30 3044 O 284.567 -2.18619 3.79654 0
M  V30 3045 C 286.068 -3.56537 2.63431 0
M  V30 3046 H 283.288 -0.434044 0.511709 0
M  V30 3047 H 285.832 -0.768895 1.89495 0
M  V30 3048 H 283.987 -3.24187 2.12089 0
M  V30 3049 H 284.401 -2.97652 4.31861 0
M  V30 3050 H 285.875 -4.38657 3.35088 0
M  V30 3051 H 286.352 -4.05493 1.68738 0
M  V30 3052 H 286.958 -3.01653 2.9981 0
M  V30 3053 N 285.273 -1.31445 -0.869486 0
M  V30 3054 C 286.52 -1.21158 -1.62256 0
M  V30 3055 C 286.848 0.230155 -1.93133 0
M  V30 3056 O 286.103 1.17906 -1.56194 0
M  V30 3057 C 286.402 -2.00145 -2.96102 0
M  V30 3058 C 286.068 -3.4964 -2.84715 0
M  V30 3059 C 284.73 -3.90403 -2.81317 0
M  V30 3060 C 287.082 -4.44769 -2.71716 0
M  V30 3061 C 284.41 -5.24561 -2.62778 0
M  V30 3062 C 286.762 -5.79054 -2.54714 0
M  V30 3063 C 285.426 -6.19037 -2.49699 0
M  V30 3064 H 284.696 -0.443348 -0.593737 0
M  V30 3065 H 287.343 -1.62715 -1.00976 0
M  V30 3066 H 285.648 -1.5127 -3.6142 0
M  V30 3067 H 287.345 -1.89566 -3.53363 0
M  V30 3068 H 283.935 -3.17256 -2.88178 0
M  V30 3069 H 288.119 -4.14208 -2.73397 0
M  V30 3070 H 283.375 -5.54613 -2.57321 0
M  V30 3071 H 287.549 -6.52393 -2.43632 0
M  V30 3072 H 285.176 -7.22935 -2.35093 0
M  V30 3073 N 286.751 1.08385 -1.14413 0
M  V30 3074 C 287.661 2.18856 -0.844951 0
M  V30 3075 C 288.677 1.73121 0.174668 0
M  V30 3076 O 289.853 2.014 0.00312857 0
M  V30 3077 C 286.918 3.45155 -0.32696 0
M  V30 3078 C 285.979 4.05513 -1.40916 0
M  V30 3079 C 285.212 5.25784 -0.915793 0
M  V30 3080 O 285.435 5.69884 0.242651 0
M  V30 3081 O 284.369 5.77545 -1.69487 0
M  V30 3082 H 288.195 2.46919 -1.76818 0
M  V30 3083 H 285.78 1.17524 -0.922411 0
M  V30 3084 H 287.662 4.21377 -0.0440211 0
M  V30 3085 H 286.337 3.18668 0.568539 0
M  V30 3086 H 285.244 3.30879 -1.74556 0
M  V30 3087 H 286.577 4.3625 -2.27919 0
M  V30 3088 N 288.23 0.939286 1.26551 0
M  V30 3089 C 289.14 0.453432 2.30176 0
M  V30 3090 C 290.156 -0.471649 1.67486 0
M  V30 3091 O 291.332 -0.35164 1.98306 0
M  V30 3092 C 288.397 -0.275326 3.45605 0
M  V30 3093 C 287.458 0.686084 4.23782 0
M  V30 3094 C 286.691 -0.00798994 5.33699 0
M  V30 3095 O 286.914 -1.22528 5.57085 0
M  V30 3096 O 285.848 0.669746 5.98162 0
M  V30 3097 H 289.674 1.31416 2.73795 0
M  V30 3098 H 287.259 0.705095 1.31715 0
M  V30 3099 H 289.141 -0.685911 4.1578 0
M  V30 3100 H 287.816 -1.11147 3.0402 0
M  V30 3101 H 286.723 1.14658 3.56096 0
M  V30 3102 H 288.056 1.48979 4.69112 0
M  V30 3103 N 289.708 -1.40897 0.706093 0
M  V30 3104 C 290.954 -2.01352 0.241889 0
M  V30 3105 C 291.287 -1.55832 -1.15888 0
M  V30 3106 O 290.562 -0.774145 -1.7843 0
M  V30 3107 C 290.845 -3.58752 0.311311 0
M  V30 3108 C 290.698 -4.1437 1.74978 0
M  V30 3109 C 292.017 -4.38914 -0.322922 0
M  V30 3110 H 289.136 -0.731562 0.0893687 0
M  V30 3111 H 291.778 -1.67504 0.896802 0
M  V30 3112 H 289.928 -3.87718 -0.246302 0
M  V30 3113 H 291.6 -3.96239 2.36205 0
M  V30 3114 H 289.843 -3.69016 2.28057 0
M  V30 3115 H 290.514 -5.23532 1.74981 0
M  V30 3116 H 292.99 -4.15822 0.152089 0
M  V30 3117 H 291.866 -5.48358 -0.243855 0
M  V30 3118 H 292.127 -4.19176 -1.40513 0
M  V30 3119 N 291.186 -0.45159 -1.50991 0
M  V30 3120 C 292.432 0.110237 -2.025 0
M  V30 3121 C 292.765 1.41109 -1.33424 0
M  V30 3122 O 292.04 1.89135 -0.453659 0
M  V30 3123 C 292.323 0.314271 -3.58726 0
M  V30 3124 C 292.176 -1.00623 -4.38401 0
M  V30 3125 C 293.495 1.07767 -4.26702 0
M  V30 3126 H 290.614 0.0385897 -0.735989 0
M  V30 3127 H 293.256 -0.593374 -1.80497 0
M  V30 3128 H 291.406 0.913601 -3.77605 0
M  V30 3129 H 293.078 -1.64064 -4.31139 0
M  V30 3130 H 291.321 -1.6075 -4.02917 0
M  V30 3131 H 291.992 -0.817341 -5.45915 0
M  V30 3132 H 294.468 0.56986 -4.12179 0
M  V30 3133 H 293.344 1.18921 -5.35863 0
M  V30 3134 H 293.605 2.10939 -3.88532 0
M  V30 3135 N 292.664 1.56529 -0.183458 0
M  V30 3136 C 293.574 2.22144 0.754272 0
M  V30 3137 C 294.59 1.21684 1.24374 0
M  V30 3138 O 295.766 1.54385 1.29333 0
M  V30 3139 C 292.831 2.85884 1.96141 0
M  V30 3140 C 291.892 4.01579 1.51765 0
M  V30 3141 C 291.125 4.6227 2.66725 0
M  V30 3142 O 291.348 4.21865 3.83909 0
M  V30 3143 O 290.282 5.51936 2.40104 0
M  V30 3144 H 294.108 3.02861 0.225527 0
M  V30 3145 H 291.693 1.49331 0.0453032 0
M  V30 3146 H 293.575 3.26253 2.66715 0
M  V30 3147 H 292.25 2.08154 2.47899 0
M  V30 3148 H 291.157 3.65856 0.781049 0
M  V30 3149 H 292.49 4.80938 1.04686 0
M  V30 3150 N 294.142 -0.090211 1.57342 0
M  V30 3151 C 295.367 -0.810082 1.90925 0
M  V30 3152 C 295.792 -1.71248 0.778187 0
M  V30 3153 O 295.15 -1.79278 -0.269991 0
M  V30 3154 C 295.198 -1.59529 3.23393 0
M  V30 3155 O 294.302 -2.70461 3.11327 0
M  V30 3156 H 293.643 -0.222231 0.625707 0
M  V30 3157 H 296.173 -0.0639716 2.045 0
M  V30 3158 H 296.183 -1.97847 3.5682 0
M  V30 3159 H 294.858 -0.933055 4.05299 0
M  V30 3160 H 293.435 -2.35135 2.89423 0
M  V30 3161 N 295.62 -1.53406 -0.361157 0
M  V30 3162 C 296.866 -1.70054 -1.10496 0
M  V30 3163 C 297.199 -0.453278 -1.88836 0
M  V30 3164 O 296.474 0.5495 -1.86576 0
M  V30 3165 C 296.757 -2.95317 -2.06058 0
M  V30 3166 C 296.61 -4.3021 -1.31298 0
M  V30 3167 C 297.929 -3.16193 -3.06121 0
M  V30 3168 H 295.048 -0.618799 -0.400321 0
M  V30 3169 H 297.69 -1.86052 -0.385318 0
M  V30 3170 H 295.84 -2.81809 -2.67425 0
M  V30 3171 H 297.512 -4.55538 -0.726807 0
M  V30 3172 H 295.755 -4.29421 -0.614853 0
M  V30 3173 H 296.426 -5.14 -2.01265 0
M  V30 3174 H 298.902 -3.28916 -2.5486 0
M  V30 3175 H 297.778 -4.05266 -3.70204 0
M  V30 3176 H 298.039 -2.31676 -3.76535 0
M  V30 3177 N 297.098 0.621204 -1.44841 0
M  V30 3178 C 298.008 1.7612 -1.5498 0
M  V30 3179 C 299.024 1.68477 -0.434927 0
M  V30 3180 O 300.2 1.89076 -0.693693 0
M  V30 3181 C 297.265 3.1254 -1.50065 0
M  V30 3182 C 296.326 3.31741 -2.72482 0
M  V30 3183 C 295.559 4.61653 -2.67792 0
M  V30 3184 O 295.782 5.431 -1.74352 0
M  V30 3185 O 294.716 4.83271 -3.58794 0
M  V30 3186 H 298.542 1.70518 -2.51311 0
M  V30 3187 H 296.127 0.783643 -1.27198 0
M  V30 3188 H 298.009 3.93844 -1.49882 0
M  V30 3189 H 296.684 3.18663 -0.568806 0
M  V30 3190 H 295.591 2.50077 -2.7823 0
M  V30 3191 H 296.924 3.30486 -3.64746 0
M  V30 3192 N 298.576 1.31904 0.862503 0
M  V30 3193 C 299.816 1.23324 1.63004 0
M  V30 3194 C 300.18 -0.203724 1.90916 0
M  V30 3195 O 301.381 -0.413132 2.65606 0
M  V30 3196 C 299.652 2.06116 2.91978 0
M  V30 3197 S 301.211 2.14478 3.82812 0
M  V30 3198 H 298.029 0.439117 0.559193 0
M  V30 3199 H 300.631 1.66658 1.02202 0
M  V30 3200 H 299.335 3.09593 2.69407 0
M  V30 3201 H 298.866 1.6353 3.57801 0
M  V30 3202 H 300.881 1.28855 4.79177 0
M  V30 3203 N 300.054 -1.07777 1.14986 0
M  V30 3204 C 301.284 -1.83752 0.944402 0
M  V30 3205 C 301.692 -1.8218 -0.51058 0
M  V30 3206 O 301.035 -1.22852 -1.36576 0
M  V30 3207 C 301.097 -3.32128 1.37592 0
M  V30 3208 C 300.761 -3.57425 2.84775 0
M  V30 3209 C 301.758 -3.5173 3.8286 0
M  V30 3210 C 299.443 -3.8523 3.2234 0
M  V30 3211 C 301.437 -3.73482 5.16517 0
M  V30 3212 C 299.124 -4.06634 4.56171 0
M  V30 3213 C 300.122 -4.00754 5.53069 0
M  V30 3214 O 299.81 -4.2159 6.84483 0
M  V30 3215 H 299.542 -0.58673 0.335744 0
M  V30 3216 H 302.096 -1.36982 1.53052 0
M  V30 3217 H 300.326 -3.79686 0.733165 0
M  V30 3218 H 302.015 -3.89555 1.14024 0
M  V30 3219 H 302.781 -3.30256 3.55184 0
M  V30 3220 H 298.66 -3.88923 2.47508 0
M  V30 3221 H 302.204 -3.68808 5.92137 0
M  V30 3222 H 298.101 -4.27593 4.83564 0
M  V30 3223 H 298.869 -4.38961 6.90837 0
M  V30 3224 N 301.532 -0.945985 -1.26051 0
M  V30 3225 C 302.781 -0.591836 -1.92822 0
M  V30 3226 C 303.094 0.873956 -1.7499 0
M  V30 3227 O 304.3 1.33769 -2.36259 0
M  V30 3228 C 302.756 -1.00776 -3.45503 0
M  V30 3229 C 302.364 -2.4955 -3.7206 0
M  V30 3230 C 304.108 -0.725735 -4.1825 0
M  V30 3231 C 302.015 -2.84988 -5.18205 0
M  V30 3232 H 300.945 -0.217635 -0.721908 0
M  V30 3233 H 303.596 -1.14927 -1.43052 0
M  V30 3234 H 301.978 -0.378812 -3.94184 0
M  V30 3235 H 303.152 -3.1739 -3.34066 0
M  V30 3236 H 301.467 -2.75133 -3.12555 0
M  V30 3237 H 304.064 -0.966771 -5.25887 0
M  V30 3238 H 304.407 0.337639 -4.14929 0
M  V30 3239 H 304.94 -1.31463 -3.7545 0
M  V30 3240 H 301.679 -3.90307 -5.26631 0
M  V30 3241 H 301.199 -2.21813 -5.57278 0
M  V30 3242 H 302.878 -2.73712 -5.86252 0
M  V30 3243 N 303.011 1.40521 -0.713556 0
M  V30 3244 C 303.921 2.34522 -0.0606667 0
M  V30 3245 C 304.937 1.57193 0.74607 0
M  V30 3246 O 306.113 1.89591 0.679493 0
M  V30 3247 C 303.178 3.36081 0.851491 0
M  V30 3248 C 302.239 4.29286 0.0349339 0
M  V30 3249 C 301.472 5.25994 0.903649 0
M  V30 3250 O 301.695 5.28616 2.14292 0
M  V30 3251 O 300.629 6.00918 0.343723 0
M  V30 3252 H 304.455 2.91968 -0.835972 0
M  V30 3253 H 302.04 1.41681 -0.47402 0
M  V30 3254 H 303.922 3.98369 1.37404 0
M  V30 3255 H 302.597 2.81052 1.60598 0
M  V30 3256 H 301.504 3.70289 -0.532633 0
M  V30 3257 H 302.837 4.87462 -0.681287 0
M  V30 3258 N 304.489 0.459591 1.5075 0
M  V30 3259 C 305.399 -0.34613 2.32033 0
M  V30 3260 C 306.415 -1.00686 1.41909 0
M  V30 3261 O 307.591 -0.997361 1.7497 0
M  V30 3262 C 304.656 -1.42029 3.16273 0
M  V30 3263 C 303.717 -0.777362 4.22203 0
M  V30 3264 C 302.95 -1.80034 5.02418 0
M  V30 3265 O 303.173 -3.02544 4.83553 0
M  V30 3266 O 302.107 -1.37853 5.85901 0
M  V30 3267 H 305.933 0.318054 3.0203 0
M  V30 3268 H 303.518 0.221663 1.47746 0
M  V30 3269 H 305.4 -2.04275 3.68578 0
M  V30 3270 H 304.075 -2.06815 2.49016 0
M  V30 3271 H 302.982 -0.116256 3.73919 0
M  V30 3272 H 304.315 -0.172634 4.91897 0
M  V30 3273 N 305.967 -1.56429 0.191757 0
M  V30 3274 C 306.899 -2.16154 -0.762245 0
M  V30 3275 C 307.912 -1.12247 -1.17917 0
M  V30 3276 O 309.101 -1.39353 -1.11548 0
M  V30 3277 C 306.201 -2.70606 -2.04024 0
M  V30 3278 C 305.374 -3.99381 -1.78364 0
M  V30 3279 C 304.433 -4.38692 -2.90578 0
M  V30 3280 O 303.459 -5.06179 -2.6033 0
M  V30 3281 N 304.661 -4.01922 -4.18854 0
M  V30 3282 H 307.426 -2.98643 -0.251526 0
M  V30 3283 H 304.987 -1.61897 0.00967373 0
M  V30 3284 H 306.979 -2.93891 -2.78227 0
M  V30 3285 H 305.549 -1.9259 -2.46227 0
M  V30 3286 H 304.769 -3.84262 -0.879581 0
M  V30 3287 H 306.057 -4.83445 -1.58614 0
M  V30 3288 H 305.455 -3.47631 -4.46283 0
M  V30 3289 H 304.012 -4.30165 -4.89695 0
M  V30 3290 N 307.445 0.0818655 -1.57387 0
M  V30 3291 C 308.395 1.10501 -1.99433 0
M  V30 3292 C 309.379 1.35041 -0.874798 0
M  V30 3293 O 310.571 1.35511 -1.13868 0
M  V30 3294 C 307.7 2.42159 -2.43339 0
M  V30 3295 C 306.786 2.20937 -3.62005 0
M  V30 3296 N 307.177 1.69616 -4.76512 0
M  V30 3297 C 305.475 2.51451 -3.68359 0
M  V30 3298 C 306.176 1.62973 -5.58404 0
M  V30 3299 N 305.152 2.08664 -5.01956 0
M  V30 3300 H 308.954 0.701373 -2.85408 0
M  V30 3301 H 306.468 0.289096 -1.59806 0
M  V30 3302 H 308.465 3.16208 -2.71695 0
M  V30 3303 H 307.125 2.83249 -1.58746 0
M  V30 3304 H 308.136 1.38624 -4.99003 0
M  V30 3305 H 304.813 2.95975 -2.94457 0
M  V30 3306 H 306.203 1.24233 -6.60315 0
M  V30 3307 N 308.923 1.53595 0.353017 0
M  V30 3308 C 310.151 1.74311 1.1146 0
M  V30 3309 C 310.566 0.477854 1.82653 0
M  V30 3310 O 309.923 -0.549977 1.74016 0
M  V30 3311 C 309.974 2.91694 2.13534 0
M  V30 3312 O 309.695 4.13325 1.45238 0
M  V30 3313 C 311.196 3.24384 3.02142 0
M  V30 3314 H 308.416 0.582669 0.332773 0
M  V30 3315 H 310.96 2.00386 0.408107 0
M  V30 3316 H 309.115 2.67977 2.79763 0
M  V30 3317 H 309.529 4.79148 2.13349 0
M  V30 3318 H 311.003 4.09893 3.69718 0
M  V30 3319 H 311.48 2.40282 3.67643 0
M  V30 3320 H 312.086 3.50073 2.41514 0
M  V30 3321 N 310.401 -0.613514 1.45168 0
M  V30 3322 C 311.631 -1.39743 1.52169 0
M  V30 3323 C 312.039 -1.88596 0.151086 0
M  V30 3324 O 311.382 -1.6251 -0.856521 0
M  V30 3325 C 311.444 -2.64035 2.43979 0
M  V30 3326 C 311.108 -2.36861 3.90827 0
M  V30 3327 C 312.105 -1.97591 4.80889 0
M  V30 3328 C 309.79 -2.49956 4.35692 0
M  V30 3329 C 311.784 -1.71768 6.1382 0
M  V30 3330 C 309.471 -2.23747 5.68665 0
M  V30 3331 C 310.469 -1.84714 6.57548 0
M  V30 3332 O 310.157 -1.58809 7.88058 0
M  V30 3333 H 309.889 -0.434382 0.517966 0
M  V30 3334 H 312.443 -0.75587 1.90986 0
M  V30 3335 H 310.673 -3.3089 2.00122 0
M  V30 3336 H 312.362 -3.26069 2.41731 0
M  V30 3337 H 313.128 -1.87015 4.47493 0
M  V30 3338 H 309.007 -2.79305 3.66756 0
M  V30 3339 H 312.551 -1.41227 6.83155 0
M  V30 3340 H 308.448 -2.33938 6.01617 0
M  V30 3341 H 309.216 -1.7291 8.00028 0
M  V30 3342 N 311.879 -1.3236 -0.855495 0
M  V30 3343 C 313.126 -1.22872 -1.60962 0
M  V30 3344 C 313.454 0.209658 -1.93367 0
M  V30 3345 O 312.709 1.16243 -1.57436 0
M  V30 3346 C 313.008 -2.03275 -2.93963 0
M  V30 3347 C 312.674 -3.5264 -2.80991 0
M  V30 3348 C 311.336 -3.93364 -2.7716 0
M  V30 3349 C 313.688 -4.47626 -2.66983 0
M  V30 3350 C 311.016 -5.27319 -2.572 0
M  V30 3351 C 313.368 -5.81723 -2.48558 0
M  V30 3352 C 312.032 -6.2165 -2.4312 0
M  V30 3353 H 311.302 -0.44962 -0.589001 0
M  V30 3354 H 313.949 -1.63777 -0.992442 0
M  V30 3355 H 312.254 -1.55095 -3.59795 0
M  V30 3356 H 313.951 -1.93303 -3.51333 0
M  V30 3357 H 310.541 -3.20295 -2.84797 0
M  V30 3358 H 314.725 -4.17084 -2.68988 0
M  V30 3359 H 309.981 -5.57311 -2.51424 0
M  V30 3360 H 314.155 -6.5494 -2.36699 0
M  V30 3361 H 311.782 -7.25388 -2.27412 0
M  V30 3362 N 313.357 1.07166 -1.15556 0
M  V30 3363 C 314.603 1.80065 -0.932984 0
M  V30 3364 C 314.936 1.86586 0.53845 0
M  V30 3365 O 314.211 1.35098 1.39924 0
M  V30 3366 C 314.494 3.25022 -1.55025 0
M  V30 3367 C 314.347 3.26634 -3.09242 0
M  V30 3368 C 315.666 4.22341 -1.2376 0
M  V30 3369 H 312.785 0.653697 -0.340366 0
M  V30 3370 H 315.427 1.25389 -1.4275 0
M  V30 3371 H 313.577 3.71712 -1.12972 0
M  V30 3372 H 315.249 2.88173 -3.60214 0
M  V30 3373 H 313.492 2.65539 -3.43033 0
M  V30 3374 H 314.163 4.28854 -3.47546 0
M  V30 3375 H 316.639 3.8405 -1.60139 0
M  V30 3376 H 315.515 5.22053 -1.69564 0
M  V30 3377 H 315.776 4.41828 -0.154938 0
M  V30 3378 N 314.835 0.952656 1.25548 0
M  V30 3379 C 315.765 0.489287 2.28316 0
M  V30 3380 C 316.746 -0.463359 1.63667 0
M  V30 3381 O 317.931 -0.36274 1.90782 0
M  V30 3382 C 315.061 -0.235603 3.465 0
M  V30 3383 C 314.015 0.631593 4.23314 0
M  V30 3384 C 313.341 -0.223923 5.34231 0
M  V30 3385 C 314.641 1.90871 4.86174 0
M  V30 3386 H 316.335 1.34822 2.67326 0
M  V30 3387 H 313.881 0.649728 1.28509 0
M  V30 3388 H 315.834 -0.570882 4.17515 0
M  V30 3389 H 314.558 -1.12877 3.06474 0
M  V30 3390 H 313.217 0.949929 3.54079 0
M  V30 3391 H 312.865 -1.11678 4.90446 0
M  V30 3392 H 312.565 0.35299 5.86539 0
M  V30 3393 H 314.089 -0.554214 6.0808 0
M  V30 3394 H 315.503 1.63997 5.49343 0
M  V30 3395 H 313.9 2.43112 5.4865 0
M  V30 3396 H 314.97 2.61304 4.08471 0
M  V30 3397 N 316.313 -1.40141 0.720998 0
M  V30 3398 C 317.223 -2.34486 0.0731031 0
M  V30 3399 C 318.239 -1.57587 -0.737723 0
M  V30 3400 O 319.415 -1.89949 -0.669429 0
M  V30 3401 C 316.48 -3.36528 -0.833656 0
M  V30 3402 C 315.541 -4.29298 -0.0121673 0
M  V30 3403 C 314.774 -5.26466 -0.875742 0
M  V30 3404 O 314.997 -5.29745 -2.11485 0
M  V30 3405 O 313.931 -6.01092 -0.31185 0
M  V30 3406 H 317.757 -2.9152 0.851444 0
M  V30 3407 H 315.342 -1.41427 0.481527 0
M  V30 3408 H 317.224 -3.99093 -1.35289 0
M  V30 3409 H 315.899 -2.81899 -1.59105 0
M  V30 3410 H 314.806 -3.70001 0.552262 0
M  V30 3411 H 316.139 -4.87094 0.707129 0
M  V30 3412 N 317.792 -0.46758 -1.50504 0
M  V30 3413 C 318.74 0.342482 -2.30065 0
M  V30 3414 C 319.734 0.993596 -1.37201 0
M  V30 3415 O 320.94 0.925102 -1.54408 0
M  V30 3416 H 317.315 0.129283 -0.740803 0
M  V30 3417 H 319.286 -0.34899 -2.96352 0
M  V30 3418 C 318.035 1.4139 -3.17654 0
M  V30 3419 H 317.358 0.922264 -3.89017 0
M  V30 3420 H 318.798 1.95335 -3.76325 0
M  V30 3421 C 317.257 2.4139 -2.35016 0
M  V30 3422 O 317.787 3.46586 -2.03079 0
M  V30 3423 N 315.993 2.13021 -1.97662 0
M  V30 3424 H 315.54 1.27499 -2.23834 0
M  V30 3425 H 315.498 2.80164 -1.42673 0
M  V30 3426 N 319.27 1.56325 -0.20005 0
M  V30 3427 C 320.2 2.22318 0.713916 0
M  V30 3428 C 321.181 1.18788 1.21752 0
M  V30 3429 O 322.366 1.47309 1.26545 0
M  V30 3430 C 319.496 2.88639 1.93144 0
M  V30 3431 C 318.45 3.98457 1.56255 0
M  V30 3432 C 317.776 4.51967 2.85709 0
M  V30 3433 C 319.076 5.16612 0.768747 0
M  V30 3434 H 320.77 2.98952 0.163755 0
M  V30 3435 H 318.316 1.43792 0.0773219 0
M  V30 3436 H 320.269 3.33491 2.57608 0
M  V30 3437 H 318.993 2.09419 2.50621 0
M  V30 3438 H 317.652 3.54305 0.941471 0
M  V30 3439 H 317.3 3.69503 3.41287 0
M  V30 3440 H 317 5.26071 2.6177 0
M  V30 3441 H 318.524 4.99523 3.51154 0
M  V30 3442 H 319.938 5.57977 1.3166 0
M  V30 3443 H 318.335 5.96812 0.627286 0
M  V30 3444 H 319.405 4.84358 -0.229168 0
M  V30 3445 N 320.748 -0.0735177 1.57428 0
M  V30 3446 C 322.025 -0.805903 1.78226 0
M  V30 3447 C 322.405 -1.95874 0.787189 0
M  V30 3448 O 321.753 -2.2779 -0.180029 0
M  V30 3449 C 321.963 -1.28045 3.24662 0
M  V30 3450 C 323.311 -1.71453 3.88444 0
M  V30 3451 O 324.335 -1.37616 3.28543 0
M  V30 3452 O 323.194 -2.34093 4.93825 0
M  V30 3453 H 320.288 -0.386041 0.73137 0
M  V30 3454 H 322.834 -0.0537269 1.69615 0
M  V30 3455 H 321.606 -0.455476 3.8864 0
M  V30 3456 H 321.229 -2.094 3.37991 0
M  V30 3457 N 322.226 -1.5378 -0.344866 0
M  V30 3458 C 323.454 -1.74899 -1.10534 0
M  V30 3459 C 323.869 -0.487534 -1.82397 0
M  V30 3460 O 323.226 0.540741 -1.74305 0
M  V30 3461 C 323.277 -2.92822 -2.11984 0
M  V30 3462 O 322.998 -4.14089 -1.43044 0
M  V30 3463 C 324.499 -3.25982 -3.00417 0
M  V30 3464 H 321.719 -0.584426 -0.329678 0
M  V30 3465 H 324.263 -2.006 -0.397474 0
M  V30 3466 H 322.418 -2.69457 -2.78338 0
M  V30 3467 H 322.832 -4.80272 -2.10805 0
M  V30 3468 H 324.306 -4.11848 -3.67539 0
M  V30 3469 H 324.783 -2.42228 -3.66363 0
M  V30 3470 H 325.389 -3.51349 -2.39654 0
M  V30 3471 N 323.704 0.605807 -1.45491 0
M  V30 3472 C 324.634 1.72709 -1.57143 0
M  V30 3473 C 325.615 1.6476 -0.422884 0
M  V30 3474 O 326.8 1.83132 -0.646247 0
M  V30 3475 C 323.93 3.11316 -1.53948 0
M  V30 3476 C 322.884 3.34077 -2.67537 0
M  V30 3477 C 322.21 4.72975 -2.49397 0
M  V30 3478 C 323.51 3.24158 -4.09535 0
M  V30 3479 H 325.204 1.63214 -2.51001 0
M  V30 3480 H 322.75 0.78379 -1.208 0
M  V30 3481 H 324.703 3.89557 -1.60696 0
M  V30 3482 H 323.427 3.21655 -0.566205 0
M  V30 3483 H 322.086 2.58227 -2.6022 0
M  V30 3484 H 321.734 4.8005 -1.50205 0
M  V30 3485 H 321.434 4.8916 -3.25571 0
M  V30 3486 H 322.958 5.53414 -2.58002 0
M  V30 3487 H 324.372 3.92271 -4.18086 0
M  V30 3488 H 322.769 3.51872 -4.86113 0
M  V30 3489 H 323.839 2.2157 -4.31317 0
M  V30 3490 N 325.182 1.32811 0.848464 0
M  V30 3491 C 326.598 1.11937 1.13764 0
M  V30 3492 C 326.798 -0.0960789 2.01271 0
M  V30 3493 O 325.854 -0.779165 2.40178 0
M  V30 3494 C 327.167 2.402 1.809 0
M  V30 3495 C 328.715 2.46016 1.93508 0
M  V30 3496 C 329.19 3.74215 2.64059 0
M  V30 3497 N 330.681 3.75232 2.71579 0
M  V30 3498 C 331.416 4.71134 3.26833 0
M  V30 3499 N 330.912 5.77406 3.8285 0
M  V30 3500 N 332.705 4.58623 3.24995 0
M  V30 3501 H 324.856 2.1073 0.265855 0
M  V30 3502 H 327.119 0.930671 0.180431 0
M  V30 3503 H 326.825 3.29093 1.24058 0
M  V30 3504 H 326.699 2.51628 2.81004 0
M  V30 3505 H 329.086 1.57577 2.49506 0
M  V30 3506 H 329.167 2.38536 0.923811 0
M  V30 3507 H 328.811 4.63031 2.08722 0
M  V30 3508 H 328.741 3.78968 3.65637 0
M  V30 3509 H 331.232 2.98423 2.31845 0
M  V30 3510 H 331.545 6.46632 4.23187 0
M  V30 3511 H 329.89 5.81152 3.81165 0
M  V30 3512 H 333.081 3.74762 2.80484 0
M  V30 3513 H 333.254 5.33535 3.67756 0
M  V30 3514 N 326.66 -1.06551 1.16123 0
M  V30 3515 C 327.607 -2.13961 0.865414 0
M  V30 3516 C 328.577 -1.65066 -0.185055 0
M  V30 3517 O 329.762 -1.90732 -0.05083 0
M  V30 3518 C 326.902 -3.43113 0.369776 0
M  V30 3519 C 326.015 -4.05756 1.48276 0
M  V30 3520 C 325.15 -5.22773 0.942414 0
M  V30 3521 C 324.189 -5.77395 2.03179 0
M  V30 3522 N 323.326 -6.85731 1.50721 0
M  V30 3523 H 328.166 -2.38605 1.78527 0
M  V30 3524 H 325.703 -1.17072 0.890646 0
M  V30 3525 H 327.661 -4.17151 0.0640643 0
M  V30 3526 H 326.291 -3.18695 -0.513143 0
M  V30 3527 H 325.343 -3.29292 1.9045 0
M  V30 3528 H 326.655 -4.42351 2.30493 0
M  V30 3529 H 325.809 -6.03827 0.589729 0
M  V30 3530 H 324.548 -4.87618 0.0895191 0
M  V30 3531 H 323.553 -4.94981 2.3932 0
M  V30 3532 H 324.778 -6.14603 2.8886 0
M  V30 3533 H 322.724 -6.52499 0.676811 0
M  V30 3534 H 322.641 -7.21254 2.26557 0
M  V30 3535 H 323.909 -7.7047 1.18303 0
M  V30 3536 N 328.138 -0.959301 -1.25041 0
M  V30 3537 C 329.086 -0.474437 -2.2771 0
M  V30 3538 C 330.08 0.457697 -1.631 0
M  V30 3539 O 331.286 0.333912 -1.76876 0
M  V30 3540 H 327.661 -0.134936 -0.739795 0
M  V30 3541 H 329.632 -1.35251 -2.65988 0
M  V30 3542 C 328.381 0.227884 -3.46952 0
M  V30 3543 H 327.704 -0.480248 -3.96905 0
M  V30 3544 H 329.144 0.531091 -4.20661 0
M  V30 3545 C 327.603 1.452 -3.04004 0
M  V30 3546 O 328.133 2.54949 -3.10426 0
M  V30 3547 N 326.339 1.31502 -2.59144 0
M  V30 3548 H 325.886 0.422065 -2.54119 0
M  V30 3549 H 325.844 2.13521 -2.30773 0
M  V30 3550 N 329.616 1.39756 -0.72842 0
M  V30 3551 C 330.864 2.00248 -0.272946 0
M  V30 3552 C 331.185 1.58077 1.14178 0
M  V30 3553 O 330.455 0.826014 1.77634 0
M  V30 3554 H 329.035 0.740554 -0.0979247 0
M  V30 3555 H 331.697 1.70903 -0.936912 0
M  V30 3556 H 330.793 3.10495 -0.316142 0
M  V30 3557 N 331.094 0.475555 1.50254 0
M  V30 3558 C 332.51 0.12997 1.5907 0
M  V30 3559 C 332.71 -1.36385 1.48328 0
M  V30 3560 O 331.766 -2.13754 1.34407 0
M  V30 3561 C 333.079 0.684139 2.92814 0
M  V30 3562 C 334.627 0.647965 3.0622 0
M  V30 3563 C 335.102 1.17975 4.42545 0
M  V30 3564 N 336.593 1.13936 4.48969 0
M  V30 3565 C 337.328 1.52129 5.52851 0
M  V30 3566 N 336.824 1.97793 6.63965 0
M  V30 3567 N 338.617 1.43704 5.4342 0
M  V30 3568 H 330.768 1.44706 1.55479 0
M  V30 3569 H 333.031 0.598691 0.735033 0
M  V30 3570 H 332.737 1.73079 3.06164 0
M  V30 3571 H 332.611 0.130204 3.76975 0
M  V30 3572 H 334.998 -0.38979 2.92514 0
M  V30 3573 H 335.079 1.23876 2.23805 0
M  V30 3574 H 334.723 2.21616 4.57 0
M  V30 3575 H 334.653 0.565138 5.23559 0
M  V30 3576 H 337.144 0.804488 3.69238 0
M  V30 3577 H 337.457 2.25072 7.39299 0
M  V30 3578 H 335.802 2.01749 6.65073 0
M  V30 3579 H 338.993 1.07867 4.55502 0
M  V30 3580 H 339.166 1.73794 6.24259 0
M  V30 3581 N 332.573 -1.56217 0.208337 0
M  V30 3582 C 333.503 -2.22694 -0.702116 0
M  V30 3583 C 334.484 -1.19432 -1.2112 0
M  V30 3584 O 335.669 -1.47978 -1.25762 0
M  V30 3585 C 332.799 -2.8966 -1.9161 0
M  V30 3586 C 331.753 -3.9928 -1.5414 0
M  V30 3587 C 331.079 -4.53476 -2.83308 0
M  V30 3588 C 332.379 -5.17012 -0.741339 0
M  V30 3589 H 334.073 -2.99034 -0.147898 0
M  V30 3590 H 331.619 -1.43831 -0.0696951 0
M  V30 3591 H 333.572 -3.34852 -2.55836 0
M  V30 3592 H 332.296 -2.10746 -2.49507 0
M  V30 3593 H 330.955 -3.54799 -0.922668 0
M  V30 3594 H 330.603 -3.71308 -3.39322 0
M  V30 3595 H 330.303 -5.27451 -2.58976 0
M  V30 3596 H 331.827 -5.01378 -3.485 0
M  V30 3597 H 333.241 -5.58667 -1.28699 0
M  V30 3598 H 331.638 -5.97137 -0.595627 0
M  V30 3599 H 332.708 -4.8423 0.254851 0
M  V30 3600 N 334.051 0.0651679 -1.57465 0
M  V30 3601 C 335.279 0.775808 -1.91804 0
M  V30 3602 C 335.694 1.70782 -0.804916 0
M  V30 3603 O 335.051 1.81153 0.221311 0
M  V30 3604 C 335.102 1.56381 -3.25925 0
M  V30 3605 O 334.823 0.669248 -4.32958 0
M  V30 3606 C 336.324 2.37485 -3.7432 0
M  V30 3607 H 333.544 0.2202 -0.63384 0
M  V30 3608 H 336.088 0.0334587 -2.04473 0
M  V30 3609 H 334.243 2.25837 -3.14764 0
M  V30 3610 H 334.657 1.21801 -5.10162 0
M  V30 3611 H 336.131 2.88223 -4.70778 0
M  V30 3612 H 336.608 3.17307 -3.03666 0
M  V30 3613 H 337.214 1.73173 -3.88447 0
M  V30 3614 N 335.529 1.53961 0.336706 0
M  V30 3615 C 336.777 1.71197 1.07405 0
M  V30 3616 C 337.098 0.481475 1.88962 0
M  V30 3617 O 336.368 -0.504585 1.8929 0
M  V30 3618 H 334.948 0.631185 0.399517 0
M  V30 3619 H 337.61 1.91232 0.376323 0
M  V30 3620 H 336.706 2.58587 1.74755 0
M  V30 3621 N 337.007 -0.598083 1.45811 0
M  V30 3622 C 338.256 -1.35295 1.49594 0
M  V30 3623 C 338.569 -1.95057 0.145679 0
M  V30 3624 O 339.775 -2.71431 0.0612099 0
M  V30 3625 C 338.231 -2.45124 2.63519 0
M  V30 3626 C 337.839 -1.91732 4.04899 0
M  V30 3627 C 339.583 -3.2205 2.76558 0
M  V30 3628 C 337.49 -2.991 5.1019 0
M  V30 3629 H 336.42 -0.508552 0.556679 0
M  V30 3630 H 339.071 -0.639977 1.71978 0
M  V30 3631 H 337.453 -3.19149 2.34435 0
M  V30 3632 H 338.627 -1.24352 4.43704 0
M  V30 3633 H 336.942 -1.27522 3.96393 0
M  V30 3634 H 339.539 -4.0215 3.52391 0
M  V30 3635 H 339.882 -3.73663 1.83526 0
M  V30 3636 H 340.415 -2.55127 3.05213 0
M  V30 3637 H 337.154 -2.52393 6.04961 0
M  V30 3638 H 336.674 -3.65017 4.75944 0
M  V30 3639 H 338.353 -3.63318 5.35359 0
M  V30 3640 N 338.485 -1.33259 -0.841409 0
M  V30 3641 C 339.432 -1.23302 -1.95103 0
M  V30 3642 C 340.402 -0.112204 -1.65721 0
M  V30 3643 O 341.587 -0.290038 -1.88583 0
M  V30 3644 C 338.727 -0.975583 -3.31023 0
M  V30 3645 C 337.84 -2.18243 -3.72819 0
M  V30 3646 C 336.975 -1.85936 -4.97595 0
M  V30 3647 C 336.014 -3.02866 -5.3192 0
M  V30 3648 N 335.151 -2.70565 -6.47873 0
M  V30 3649 H 339.991 -2.18207 -2.02952 0
M  V30 3650 H 337.528 -1.0851 -0.993173 0
M  V30 3651 H 339.486 -0.80677 -4.09325 0
M  V30 3652 H 338.116 -0.0632755 -3.22738 0
M  V30 3653 H 337.168 -2.46107 -2.90061 0
M  V30 3654 H 338.48 -3.05666 -3.94169 0
M  V30 3655 H 337.634 -1.65684 -5.83638 0
M  V30 3656 H 336.373 -0.957452 -4.78209 0
M  V30 3657 H 335.378 -3.23736 -4.44382 0
M  V30 3658 H 336.603 -3.93809 -5.53255 0
M  V30 3659 H 334.549 -1.8293 -6.29978 0
M  V30 3660 H 334.466 -3.51519 -6.69306 0
M  V30 3661 H 335.734 -2.53774 -7.37034 0
M  V30 3662 N 339.963 1.05934 -1.16686 0
M  V30 3663 C 341.188 1.83029 -0.975455 0
M  V30 3664 C 341.613 1.82096 0.471452 0
M  V30 3665 O 340.971 1.22443 1.33706 0
M  V30 3666 C 341.019 3.27372 -1.51195 0
M  V30 3667 O 340.123 4.06054 -0.720701 0
M  V30 3668 H 339.464 0.566194 -0.346872 0
M  V30 3669 H 341.994 1.33541 -1.55009 0
M  V30 3670 H 342.004 3.78186 -1.53099 0
M  V30 3671 H 340.679 3.27366 -2.56523 0
M  V30 3672 H 339.256 3.64812 -0.772458 0
M  V30 3673 N 341.441 0.965919 1.2453 0
M  V30 3674 C 342.371 0.513476 2.27784 0
M  V30 3675 C 343.352 -0.445974 1.6415 0
M  V30 3676 O 344.537 -0.342485 1.91156 0
M  V30 3677 C 341.667 -0.198839 3.4673 0
M  V30 3678 C 340.621 0.676456 4.2262 0
M  V30 3679 C 339.947 -0.167248 5.34438 0
M  V30 3680 C 341.247 1.96017 4.84123 0
M  V30 3681 H 342.941 1.3765 2.65881 0
M  V30 3682 H 340.487 0.663321 1.27813 0
M  V30 3683 H 342.44 -0.526567 4.18097 0
M  V30 3684 H 341.164 -1.0962 3.07654 0
M  V30 3685 H 339.823 0.98743 3.53052 0
M  V30 3686 H 339.471 -1.0647 4.91603 0
M  V30 3687 H 339.171 0.415181 5.86131 0
M  V30 3688 H 340.695 -0.489688 6.08633 0
M  V30 3689 H 342.109 1.69814 5.47573 0
M  V30 3690 H 340.506 2.48918 5.4604 0
M  V30 3691 H 341.576 2.65622 4.05676 0
M  V30 3692 N 342.919 -1.39368 0.735821 0
M  V30 3693 C 344.165 -2.00794 0.284544 0
M  V30 3694 C 344.498 -1.58255 -1.12557 0
M  V30 3695 O 343.773 -0.811819 -1.76748 0
M  V30 3696 C 344.056 -3.58011 0.387337 0
M  V30 3697 C 343.909 -4.10566 1.83728 0
M  V30 3698 C 345.228 -4.395 -0.22975 0
M  V30 3699 H 342.347 -0.729501 0.104866 0
M  V30 3700 H 344.989 -1.65564 0.93213 0
M  V30 3701 H 343.139 -3.88154 -0.164006 0
M  V30 3702 H 344.811 -3.91139 2.44556 0
M  V30 3703 H 343.054 -3.64095 2.35833 0
M  V30 3704 H 343.725 -5.19702 1.86047 0
M  V30 3705 H 346.201 -4.15406 0.240257 0
M  V30 3706 H 345.077 -5.48752 -0.127485 0
M  V30 3707 H 345.338 -4.22062 -1.3159 0
M  V30 3708 N 344.397 -0.483516 -1.5 0
M  V30 3709 C 345.36 0.292965 -2.2732 0
M  V30 3710 C 346.36 0.909499 -1.32608 0
M  V30 3711 O 347.55 0.776745 -1.55924 0
M  V30 3712 C 344.682 1.41854 -3.09984 0
M  V30 3713 H 345.875 -0.385289 -2.97415 0
M  V30 3714 H 343.428 -0.237942 -1.54478 0
M  V30 3715 H 344.163 2.13148 -2.44414 0
M  V30 3716 H 343.948 0.982114 -3.79601 0
M  V30 3717 H 345.438 1.96597 -3.68429 0
M  V30 3718 N 345.875 1.56104 -0.216619 0
M  V30 3719 C 347.123 1.97781 0.415593 0
M  V30 3720 C 347.444 1.10536 1.60645 0
M  V30 3721 O 346.714 0.181303 1.95059 0
M  V30 3722 H 345.294 0.730415 0.156534 0
M  V30 3723 H 347.956 1.92445 -0.308366 0
M  V30 3724 H 347.052 3.03072 0.74525 0
M  V30 3725 N 347.353 -0.0568162 1.57498 0
M  V30 3726 C 348.316 -1.05038 2.03715 0
M  V30 3727 C 349.316 -1.30709 0.936577 0
M  V30 3728 O 350.506 -1.26178 1.20103 0
M  V30 3729 C 347.638 -2.39034 2.43055 0
M  V30 3730 H 348.831 -0.651715 2.92733 0
M  V30 3731 H 346.384 -0.302947 1.53336 0
M  V30 3732 H 347.119 -2.83703 1.57108 0
M  V30 3733 H 346.904 -2.21739 3.2338 0
M  V30 3734 H 348.394 -3.10421 2.79336 0
M  V30 3735 N 348.832 -1.54138 -0.328536 0
M  V30 3736 C 349.762 -1.86167 -1.40939 0
M  V30 3737 C 350.743 -0.718044 -1.54202 0
M  V30 3738 O 351.928 -0.971328 -1.68163 0
M  V30 3739 C 349.058 -2.08461 -2.77779 0
M  V30 3740 C 348.012 -3.24299 -2.7931 0
M  V30 3741 C 347.338 -3.31955 -4.19178 0
M  V30 3742 C 348.638 -4.62065 -2.43502 0
M  V30 3743 H 350.332 -2.76689 -1.14383 0
M  V30 3744 H 347.878 -1.33132 -0.548806 0
M  V30 3745 H 349.831 -2.29453 -3.53454 0
M  V30 3746 H 348.555 -1.14684 -3.05802 0
M  V30 3747 H 347.214 -3.03187 -2.0609 0
M  V30 3748 H 346.862 -2.35745 -4.44335 0
M  V30 3749 H 346.562 -4.09805 -4.2111 0
M  V30 3750 H 348.086 -3.55175 -4.96672 0
M  V30 3751 H 349.5 -4.8297 -3.08889 0
M  V30 3752 H 347.897 -5.42429 -2.56693 0
M  V30 3753 H 348.967 -4.64652 -1.38659 0
M  V30 3754 N 350.31 0.590341 -1.46126 0
M  V30 3755 C 351.258 1.72105 -1.5647 0
M  V30 3756 C 352.252 1.63756 -0.433612 0
M  V30 3757 O 353.458 1.69342 -0.610194 0
M  V30 3758 H 349.833 0.568889 -0.491802 0
M  V30 3759 H 351.804 1.6051 -2.51553 0
M  V30 3760 C 350.553 3.10493 -1.56491 0
M  V30 3761 H 349.876 3.17583 -2.4286 0
M  V30 3762 H 351.316 3.8939 -1.67785 0
M  V30 3763 C 349.775 3.3563 -0.292231 0
M  V30 3764 O 350.305 3.96875 0.620739 0
M  V30 3765 N 348.511 2.90026 -0.182523 0
M  V30 3766 H 348.058 2.40367 -0.926356 0
M  V30 3767 H 348.016 3.07218 0.668152 0
M  V30 3768 N 351.788 1.33704 0.83433 0
M  V30 3769 C 353.037 1.24763 1.58484 0
M  V30 3770 C 353.35 -0.183775 1.94735 0
M  V30 3771 O 354.556 -0.395234 2.68608 0
M  V30 3772 C 353.012 2.18638 2.85876 0
M  V30 3773 C 352.62 3.66974 2.56971 0
M  V30 3774 C 354.364 2.18581 3.63899 0
M  V30 3775 C 352.271 4.5275 3.80488 0
M  V30 3776 H 351.201 0.463425 0.594772 0
M  V30 3777 H 353.852 1.58797 0.919551 0
M  V30 3778 H 352.234 1.77542 3.5397 0
M  V30 3779 H 353.408 4.16538 1.9706 0
M  V30 3780 H 351.723 3.69366 1.92244 0
M  V30 3781 H 354.32 2.79894 4.55591 0
M  V30 3782 H 354.663 1.18207 3.99165 0
M  V30 3783 H 355.196 2.58062 3.02735 0
M  V30 3784 H 351.935 5.54017 3.5035 0
M  V30 3785 H 351.455 4.07927 4.39722 0
M  V30 3786 H 353.134 4.66784 4.4802 0
M  V30 3787 N 353.266 -1.05314 1.17247 0
M  V30 3788 C 354.213 -2.13031 0.888058 0
M  V30 3789 C 355.183 -1.65253 -0.167537 0
M  V30 3790 O 356.368 -1.90775 -0.0305974 0
M  V30 3791 C 353.508 -3.42702 0.406147 0
M  V30 3792 C 352.621 -4.04161 1.52572 0
M  V30 3793 C 351.756 -5.21744 0.997808 0
M  V30 3794 C 350.795 -5.75207 2.09291 0
M  V30 3795 N 349.932 -6.84094 1.57986 0
M  V30 3796 H 354.772 -2.36698 1.81048 0
M  V30 3797 H 352.309 -1.16121 0.903013 0
M  V30 3798 H 354.267 -4.17059 0.108305 0
M  V30 3799 H 352.897 -3.19222 -0.479313 0
M  V30 3800 H 351.949 -3.27253 1.93931 0
M  V30 3801 H 353.261 -4.39881 2.35172 0
M  V30 3802 H 352.415 -6.03168 0.653739 0
M  V30 3803 H 351.154 -4.87495 0.141232 0
M  V30 3804 H 350.159 -4.92414 2.44557 0
M  V30 3805 H 351.384 -6.11505 2.95362 0
M  V30 3806 H 349.33 -6.51745 0.74598 0
M  V30 3807 H 349.247 -7.18811 2.34195 0
M  V30 3808 H 350.515 -7.69172 1.26468 0
M  V30 3809 N 354.744 -0.972509 -1.24016 0
M  V30 3810 C 356.155 -0.67517 -1.74064 0
M  V30 3811 C 356.506 0.808939 -1.78747 0
M  V30 3812 O 355.631 1.63286 -1.42009 0
M  V30 3813 C 356.226 -1.21889 -3.16115 0
M  V30 3814 C 354.785 -0.971358 -3.6365 0
M  V30 3815 C 353.932 -1.35134 -2.42145 0
M  V30 3816 H 356.883 -1.14727 -1.09651 0
M  V30 3817 H 356.904 -0.587489 -3.75937 0
M  V30 3818 H 356.416 -2.29906 -3.12674 0
M  V30 3819 H 354.517 0.0930686 -3.72484 0
M  V30 3820 H 354.63 -1.62039 -4.50866 0
M  V30 3821 H 352.994 -0.769751 -2.4279 0
M  V30 3822 H 353.777 -2.4411 -2.41381 0
M  V30 3823 N 356.222 1.38976 -0.743202 0
M  V30 3824 C 357.471 1.99581 -0.291592 0
M  V30 3825 C 357.784 1.59656 1.13001 0
M  V30 3826 O 358.99 2.13157 1.68156 0
M  V30 3827 C 357.446 3.56813 -0.470391 0
M  V30 3828 C 357.054 4.05695 -1.90041 0
M  V30 3829 C 358.798 4.24423 -0.0809709 0
M  V30 3830 C 356.705 5.5553 -2.02832 0
M  V30 3831 H 355.635 0.746615 -0.105272 0
M  V30 3832 H 358.286 1.58872 -0.918258 0
M  V30 3833 H 356.668 3.95359 0.225299 0
M  V30 3834 H 357.842 3.78464 -2.62872 0
M  V30 3835 H 356.157 3.50775 -2.24379 0
M  V30 3836 H 358.754 5.34474 -0.155445 0
M  V30 3837 H 359.097 4.04962 0.96497 0
M  V30 3838 H 359.63 3.9108 -0.728124 0
M  V30 3839 H 356.369 5.79881 -3.05643 0
M  V30 3840 H 355.889 5.84537 -1.34448 0
M  V30 3841 H 357.568 6.21069 -1.81335 0
M  V30 3842 N 357.7 0.491464 1.49741 0
M  V30 3843 C 358.633 -0.338464 2.25676 0
M  V30 3844 C 359.611 -0.978676 1.29849 0
M  V30 3845 O 360.795 -1.01064 1.59117 0
M  V30 3846 C 357.922 -1.47588 3.04853 0
M  V30 3847 C 356.968 -0.951 4.15762 0
M  V30 3848 S 357.801 0.150626 5.35288 0
M  V30 3849 C 358.957 -0.990178 6.18018 0
M  V30 3850 H 359.19 0.306068 2.9572 0
M  V30 3851 H 356.723 0.276622 1.51902 0
M  V30 3852 H 358.681 -2.12764 3.51058 0
M  V30 3853 H 357.342 -2.09199 2.34296 0
M  V30 3854 H 356.535 -1.80311 4.70642 0
M  V30 3855 H 356.137 -0.376607 3.72099 0
M  V30 3856 H 358.429 -1.89748 6.50386 0
M  V30 3857 H 359.372 -0.480205 7.0647 0
M  V30 3858 H 359.78 -1.25321 5.50413 0
M  V30 3859 N 359.178 -1.55987 0.224894 0
M  V30 3860 C 360.426 -1.97998 -0.405099 0
M  V30 3861 C 360.747 -1.11387 -1.60056 0
M  V30 3862 O 360.017 -0.191645 -1.9496 0
M  V30 3863 H 358.597 -0.731235 -0.152658 0
M  V30 3864 H 361.259 -1.92279 0.318567 0
M  V30 3865 H 360.355 -3.03463 -0.729167 0
M  V30 3866 N 360.656 0.0484629 -1.57525 0
M  V30 3867 C 361.881 0.759177 -1.93006 0
M  V30 3868 C 362.306 1.69125 -0.823317 0
M  V30 3869 O 361.664 1.79931 0.222364 0
M  V30 3870 C 361.712 1.50899 -3.27509 0
M  V30 3871 O 360.816 2.62112 -3.18388 0
M  V30 3872 H 360.157 0.205564 -0.631379 0
M  V30 3873 H 362.687 0.00972959 -2.04598 0
M  V30 3874 H 362.697 1.88317 -3.6194 0
M  V30 3875 H 361.372 0.825269 -4.0763 0
M  V30 3876 H 359.949 2.27379 -2.95556 0
M  V30 3877 N 362.134 1.5431 0.320358 0
M  V30 3878 C 363.362 1.76636 1.07738 0
M  V30 3879 C 363.777 0.51649 1.81598 0
M  V30 3880 O 363.134 -0.512942 1.75143 0
M  V30 3881 C 363.185 2.96158 2.07299 0
M  V30 3882 O 362.906 4.16313 1.36438 0
M  V30 3883 C 364.407 3.3072 2.95193 0
M  V30 3884 H 361.627 0.589597 0.320339 0
M  V30 3885 H 364.171 2.01207 0.36551 0
M  V30 3886 H 362.326 2.73851 2.74016 0
M  V30 3887 H 362.74 4.83565 2.03138 0
M  V30 3888 H 364.214 4.17643 3.60941 0
M  V30 3889 H 364.691 2.48026 3.62463 0
M  V30 3890 H 365.297 3.55117 2.34034 0
M  V30 3891 N 363.613 -0.582584 1.46437 0
M  V30 3892 C 365.024 -1.1647 1.45916 0
M  V30 3893 C 365.375 -1.95177 0.200077 0
M  V30 3894 O 364.5 -2.04874 -0.696819 0
M  V30 3895 C 365.095 -2.11885 2.64367 0
M  V30 3896 C 363.654 -2.65421 2.66887 0
M  V30 3897 C 362.801 -1.41294 2.38603 0
M  V30 3898 H 365.752 -0.370514 1.54314 0
M  V30 3899 H 365.773 -2.9535 2.39892 0
M  V30 3900 H 365.285 -1.54573 3.5599 0
M  V30 3901 H 363.386 -3.26602 1.79338 0
M  V30 3902 H 363.499 -3.08147 3.66854 0
M  V30 3903 H 361.863 -1.71109 1.88663 0
M  V30 3904 H 362.646 -0.858125 3.32402 0
M  V30 3905 N 365.091 -1.34144 -0.827227 0
M  V30 3906 C 366.023 -1.21206 -1.9453 0
M  V30 3907 C 367.036 -0.140176 -1.62195 0
M  V30 3908 O 368.225 -0.391647 -1.7415 0
M  V30 3909 C 365.325 -0.839141 -3.28347 0
M  V30 3910 C 364.498 -2.0051 -3.88734 0
M  V30 3911 C 363.557 -1.61128 -5.00923 0
M  V30 3912 O 362.583 -2.32726 -5.19449 0
M  V30 3913 N 363.785 -0.522958 -5.7814 0
M  V30 3914 H 366.55 -2.17525 -2.06162 0
M  V30 3915 H 364.111 -1.27043 -1.00358 0
M  V30 3916 H 366.103 -0.557556 -4.00841 0
M  V30 3917 H 364.673 0.0337293 -3.12582 0
M  V30 3918 H 363.893 -2.45166 -3.08686 0
M  V30 3919 H 365.181 -2.78498 -4.25812 0
M  V30 3920 H 364.579 0.0723518 -5.65654 0
M  V30 3921 H 363.136 -0.301089 -6.51104 0
M  V30 3922 N 366.569 1.04691 -1.17803 0
M  V30 3923 C 367.817 1.7743 -0.967617 0
M  V30 3924 C 368.138 1.88359 0.504574 0
M  V30 3925 O 367.408 1.40402 1.36617 0
M  V30 3926 H 365.988 0.657242 -0.355024 0
M  V30 3927 H 368.65 1.2638 -1.48371 0
M  V30 3928 H 367.746 2.78924 -1.40027 0
M  V30 3929 N 368.047 0.979072 1.23499 0
M  V30 3930 C 369.275 0.665202 1.95915 0
M  V30 3931 C 369.69 -0.767571 1.72493 0
M  V30 3932 O 369.047 -1.51635 1.01554 0
M  V30 3933 C 369.098 0.944438 3.48945 0
M  V30 3934 O 368.819 2.3209 3.71572 0
M  V30 3935 C 370.32 0.646336 4.38563 0
M  V30 3936 H 367.54 0.247218 0.623798 0
M  V30 3937 H 370.084 1.31009 1.57025 0
M  V30 3938 H 368.239 0.345575 3.85856 0
M  V30 3939 H 368.653 2.40957 4.65876 0
M  V30 3940 H 370.127 0.892091 5.44744 0
M  V30 3941 H 370.604 -0.419575 4.37191 0
M  V30 3942 H 371.21 1.22562 4.07258 0
M  V30 3943 N 369.525 -1.3858 0.750561 0
M  V30 3944 C 370.774 -1.99424 0.302172 0
M  V30 3945 C 371.087 -1.60254 -1.12152 0
M  V30 3946 O 372.293 -2.14046 -1.67023 0
M  V30 3947 C 370.749 -3.56558 0.489307 0
M  V30 3948 C 370.357 -4.04682 1.92189 0
M  V30 3949 C 372.101 -4.24374 0.103478 0
M  V30 3950 C 370.008 -5.54446 2.05775 0
M  V30 3951 H 368.938 -0.746046 0.10923 0
M  V30 3952 H 371.589 -1.58383 0.92667 0
M  V30 3953 H 369.971 -3.95472 -0.204329 0
M  V30 3954 H 371.145 -3.77065 2.64875 0
M  V30 3955 H 369.46 -3.4958 2.26236 0
M  V30 3956 H 372.057 -5.34384 0.183787 0
M  V30 3957 H 372.4 -4.05468 -0.943481 0
M  V30 3958 H 372.933 -3.90688 0.748854 0
M  V30 3959 H 369.672 -5.78252 3.08714 0
M  V30 3960 H 369.192 -5.83816 1.37546 0
M  V30 3961 H 370.871 -6.20099 1.84626 0
M  V30 3962 N 371.003 -0.499398 -1.49478 0
M  V30 3963 C 372.243 0.0440751 -2.04352 0
M  V30 3964 C 372.607 1.34423 -1.37093 0
M  V30 3965 O 373.808 1.97184 -1.82679 0
M  V30 3966 C 372.079 0.194918 -3.56868 0
M  V30 3967 S 373.638 0.69287 -4.33295 0
M  V30 3968 H 370.456 0.00253458 -0.710995 0
M  V30 3969 H 373.058 -0.673 -1.83551 0
M  V30 3970 H 371.762 -0.756672 -4.03364 0
M  V30 3971 H 371.293 0.93728 -3.82071 0
M  V30 3972 H 373.308 1.96226 -4.55752 0
M  V30 3973 N 372.481 1.55866 -0.233164 0
M  V30 3974 C 373.413 2.18099 0.704668 0
M  V30 3975 C 374.426 1.15334 1.14899 0
M  V30 3976 O 375.615 1.42262 1.07814 0
M  V30 3977 C 372.715 2.7592 1.96777 0
M  V30 3978 C 371.888 4.03969 1.67713 0
M  V30 3979 C 370.947 4.46242 2.78845 0
M  V30 3980 O 369.973 5.12903 2.46818 0
M  V30 3981 N 371.175 4.12886 4.08051 0
M  V30 3982 H 373.94 2.99205 0.172258 0
M  V30 3983 H 371.501 1.61815 -0.0525945 0
M  V30 3984 H 373.493 3.01165 2.70337 0
M  V30 3985 H 372.063 1.99051 2.41034 0
M  V30 3986 H 371.283 3.86459 0.777391 0
M  V30 3987 H 372.571 4.8748 1.4574 0
M  V30 3988 H 371.969 3.59342 4.3691 0
M  V30 3989 H 370.526 4.42997 4.78118 0
M  V30 3990 N 373.959 -0.0401083 1.57549 0
M  V30 3991 C 374.906 -1.04413 2.05831 0
M  V30 3992 C 375.876 -1.36585 0.945184 0
M  V30 3993 O 377.061 -1.47112 1.21502 0
M  V30 3994 C 374.201 -2.34336 2.53339 0
M  V30 3995 C 373.314 -2.08419 3.78398 0
M  V30 3996 C 372.449 -3.32133 4.14561 0
M  V30 3997 C 371.488 -3.01721 5.3257 0
M  V30 3998 N 370.625 -4.17855 5.64218 0
M  V30 3999 H 375.465 -0.625442 2.91363 0
M  V30 4000 H 373.002 -0.297218 1.44066 0
M  V30 4001 H 374.96 -3.10234 2.78946 0
M  V30 4002 H 373.59 -2.73948 1.7074 0
M  V30 4003 H 372.642 -1.23069 3.59942 0
M  V30 4004 H 373.954 -1.81978 4.64419 0
M  V30 4005 H 373.108 -4.16406 4.41238 0
M  V30 4006 H 371.847 -3.61678 3.2717 0
M  V30 4007 H 370.852 -2.15849 5.05657 0
M  V30 4008 H 372.077 -2.73466 6.21605 0
M  V30 4009 H 370.023 -4.47372 4.79786 0
M  V30 4010 H 369.94 -3.94798 6.44725 0
M  V30 4011 H 371.208 -5.03033 5.95465 0
M  V30 4012 N 375.437 -1.54477 -0.31217 0
M  V30 4013 C 376.347 -1.87695 -1.4074 0
M  V30 4014 C 377.363 -0.769975 -1.56036 0
M  V30 4015 O 378.539 -1.06537 -1.70915 0
M  V30 4016 C 375.604 -2.10755 -2.75287 0
M  V30 4017 C 374.665 -3.34514 -2.69071 0
M  V30 4018 C 373.898 -3.56465 -3.97201 0
M  V30 4019 O 374.121 -2.81637 -4.96021 0
M  V30 4020 O 373.055 -4.49964 -3.9977 0
M  V30 4021 H 376.881 -2.80849 -1.15574 0
M  V30 4022 H 374.466 -1.40526 -0.507228 0
M  V30 4023 H 376.348 -2.27188 -3.54913 0
M  V30 4024 H 375.023 -1.20788 -3.0032 0
M  V30 4025 H 373.93 -3.23456 -1.87955 0
M  V30 4026 H 375.263 -4.24575 -2.48992 0
M  V30 4027 N 376.915 0.57481 -1.46744 0
M  V30 4028 C 377.862 1.68329 -1.57905 0
M  V30 4029 C 378.832 1.60625 -0.422927 0
M  V30 4030 O 380.017 1.79721 -0.640711 0
M  V30 4031 C 377.157 3.06665 -1.58274 0
M  V30 4032 C 376.27 3.24935 -2.84678 0
M  V30 4033 C 375.405 4.53566 -2.76499 0
M  V30 4034 C 374.444 4.65207 -3.97806 0
M  V30 4035 N 373.581 5.85172 -3.87967 0
M  V30 4036 H 378.421 1.58127 -2.52587 0
M  V30 4037 H 375.958 0.770552 -1.25303 0
M  V30 4038 H 377.916 3.86745 -1.56473 0
M  V30 4039 H 376.546 3.15745 -0.671194 0
M  V30 4040 H 375.598 2.38405 -2.96424 0
M  V30 4041 H 376.91 3.29403 -3.7456 0
M  V30 4042 H 376.064 5.41885 -2.72848 0
M  V30 4043 H 374.803 4.51548 -1.8427 0
M  V30 4044 H 373.808 3.75304 -4.0178 0
M  V30 4045 H 375.033 4.68997 -4.9114 0
M  V30 4046 H 372.979 5.84137 -2.98529 0
M  V30 4047 H 372.896 5.90943 -4.71511 0
M  V30 4048 H 374.164 6.759 -3.88303 0
M  V30 4049 N 378.394 1.34581 0.820102 0
M  V30 4050 C 379.357 1.2628 1.91275 0
M  V30 4051 C 380.357 0.177344 1.59819 0
M  V30 4052 O 381.547 0.430156 1.68806 0
M  V30 4053 C 378.679 0.950327 3.27386 0
M  V30 4054 H 379.872 2.23421 2.00057 0
M  V30 4055 H 377.425 1.1891 1.0144 0
M  V30 4056 H 378.16 -0.0177938 3.24295 0
M  V30 4057 H 377.945 1.73549 3.51601 0
M  V30 4058 H 379.435 0.917492 4.07396 0
M  V30 4059 N 379.872 -1.04064 1.18357 0
M  V30 4060 C 381.288 -1.2947 0.933258 0
M  V30 4061 C 381.488 -1.97466 -0.401169 0
M  V30 4062 O 380.544 -2.25528 -1.13549 0
M  V30 4063 C 381.857 -2.15337 2.09882 0
M  V30 4064 C 383.405 -2.28683 2.13712 0
M  V30 4065 C 383.88 -3.17917 3.29686 0
M  V30 4066 N 385.371 -3.25504 3.29547 0
M  V30 4067 C 386.106 -3.94706 4.15926 0
M  V30 4068 N 385.602 -4.66239 5.12439 0
M  V30 4069 N 387.395 -3.90986 4.0384 0
M  V30 4070 H 379.546 -0.583359 2.04232 0
M  V30 4071 H 381.809 -0.319921 0.892387 0
M  V30 4072 H 381.515 -1.72682 3.06389 0
M  V30 4073 H 381.389 -3.16015 2.05947 0
M  V30 4074 H 383.776 -2.70575 1.17784 0
M  V30 4075 H 383.857 -1.27596 2.21705 0
M  V30 4076 H 383.501 -2.76736 4.25887 0
M  V30 4077 H 383.431 -4.19036 3.1893 0
M  V30 4078 H 385.922 -2.74547 2.59677 0
M  V30 4079 H 386.235 -5.16638 5.74722 0
M  V30 4080 H 384.58 -4.65143 5.16398 0
M  V30 4081 H 387.771 -3.34234 3.27727 0
M  V30 4082 H 387.944 -4.44646 4.71375 0
M  V30 4083 N 381.35 -0.985608 -1.22978 0
M  V30 4084 C 382.598 -0.656087 -1.91154 0
M  V30 4085 C 382.919 0.813561 -1.77218 0
M  V30 4086 O 382.189 1.58244 -1.1548 0
M  V30 4087 H 380.769 -0.239674 -0.707506 0
M  V30 4088 H 383.431 -1.25054 -1.49491 0
M  V30 4089 H 382.527 -0.912253 -2.9847 0
M  V30 4090 N 382.828 1.3818 -0.7579 0
M  V30 4091 C 383.761 2.28055 -0.0814093 0
M  V30 4092 C 384.739 1.45603 0.723779 0
M  V30 4093 O 385.923 1.74961 0.701491 0
M  V30 4094 C 383.05 3.2676 0.891394 0
M  V30 4095 C 382.096 4.26153 0.171909 0
M  V30 4096 S 382.929 5.23434 -1.13035 0
M  V30 4097 C 384.085 6.25694 -0.160727 0
M  V30 4098 H 384.318 2.85082 -0.84353 0
M  V30 4099 H 381.851 1.44246 -0.550671 0
M  V30 4100 H 383.809 3.8414 1.44731 0
M  V30 4101 H 382.47 2.68706 1.62652 0
M  V30 4102 H 381.663 4.95738 0.908843 0
M  V30 4103 H 381.265 3.72691 -0.312606 0
M  V30 4104 H 383.557 6.74161 0.671773 0
M  V30 4105 H 384.5 7.03285 -0.824353 0
M  V30 4106 H 384.908 5.64064 0.221892 0
M  V30 4107 N 384.306 0.507319 1.49211 0
M  V30 4108 C 385.253 -0.267728 2.29242 0
M  V30 4109 C 386.223 -0.954609 1.35928 0
M  V30 4110 O 387.408 -0.960046 1.64887 0
M  V30 4111 C 384.548 -1.32243 3.18756 0
M  V30 4112 C 383.661 -0.64669 4.27132 0
M  V30 4113 C 382.796 -1.68238 5.03855 0
M  V30 4114 C 381.835 -0.98885 6.0406 0
M  V30 4115 N 380.972 -1.96903 6.73924 0
M  V30 4116 H 385.812 0.420968 2.95012 0
M  V30 4117 H 383.349 0.219443 1.45454 0
M  V30 4118 H 385.307 -1.94599 3.69036 0
M  V30 4119 H 383.937 -1.97981 2.54958 0
M  V30 4120 H 382.989 0.0902926 3.80293 0
M  V30 4121 H 384.301 -0.101058 4.98698 0
M  V30 4122 H 383.455 -2.38081 5.58034 0
M  V30 4123 H 382.194 -2.26187 4.32077 0
M  V30 4124 H 381.199 -0.276222 5.49106 0
M  V30 4125 H 382.424 -0.415767 6.77826 0
M  V30 4126 H 380.37 -2.53803 6.04913 0
M  V30 4127 H 380.287 -1.47423 7.41487 0
M  V30 4128 H 381.555 -2.66015 7.32705 0
M  V30 4129 N 385.784 -1.5574 0.241426 0
M  V30 4130 C 386.731 -2.21149 -0.660432 0
M  V30 4131 C 387.701 -1.17356 -1.17545 0
M  V30 4132 O 388.886 -1.45784 -1.23093 0
M  V30 4133 C 386.026 -2.91059 -1.85414 0
M  V30 4134 C 385.139 -4.09495 -1.37616 0
M  V30 4135 C 384.274 -4.67135 -2.529 0
M  V30 4136 C 383.313 -5.77831 -2.01936 0
M  V30 4137 N 382.45 -6.29677 -3.10566 0
M  V30 4138 H 387.29 -2.97845 -0.095955 0
M  V30 4139 H 384.827 -1.47057 -0.0356024 0
M  V30 4140 H 386.785 -3.29788 -2.5553 0
M  V30 4141 H 385.415 -2.16846 -2.39118 0
M  V30 4142 H 384.467 -3.76117 -0.569235 0
M  V30 4143 H 385.779 -4.89423 -0.962618 0
M  V30 4144 H 384.933 -5.08409 -3.31067 0
M  V30 4145 H 383.672 -3.86411 -2.97553 0
M  V30 4146 H 382.677 -5.36039 -1.22238 0
M  V30 4147 H 383.902 -6.60402 -1.58259 0
M  V30 4148 H 381.848 -5.5186 -3.54664 0
M  V30 4149 H 381.765 -7.04783 -2.73526 0
M  V30 4150 H 383.033 -6.75609 -3.88809 0
M  V30 4151 N 387.262 0.0317525 -1.57568 0
M  V30 4152 C 388.225 1.01783 -2.0536 0
M  V30 4153 C 389.225 1.29203 -0.957253 0
M  V30 4154 O 390.415 1.24251 -1.22095 0
M  V30 4155 C 387.547 2.35137 -2.46827 0
M  V30 4156 H 388.74 0.605062 -2.93733 0
M  V30 4157 H 386.293 0.278514 -1.53799 0
M  V30 4158 H 387.028 2.81168 -1.61602 0
M  V30 4159 H 386.813 2.16566 -3.26866 0
M  V30 4160 H 388.303 3.05938 -2.84239 0
M  V30 4161 N 388.74 1.54641 0.303973 0
M  V30 4162 C 389.67 1.88386 1.3796 0
M  V30 4163 C 390.651 0.742485 1.5304 0
M  V30 4164 O 391.836 0.997959 1.66597 0
M  V30 4165 C 388.966 2.12854 2.74427 0
M  V30 4166 C 387.92 3.28702 2.74115 0
M  V30 4167 C 387.246 3.38582 4.13844 0
M  V30 4168 C 388.546 4.65881 2.3612 0
M  V30 4169 H 390.24 2.78474 1.09966 0
M  V30 4170 H 387.786 1.33988 0.527556 0
M  V30 4171 H 389.739 2.35047 3.49758 0
M  V30 4172 H 388.463 1.19535 3.03939 0
M  V30 4173 H 387.122 3.06428 2.0124 0
M  V30 4174 H 386.77 2.42784 4.40528 0
M  V30 4175 H 386.47 4.16453 4.14537 0
M  V30 4176 H 387.994 3.63031 4.90959 0
M  V30 4177 H 389.408 4.87823 3.01167 0
M  V30 4178 H 387.805 5.46444 2.48031 0
M  V30 4179 H 388.875 4.66799 1.3125 0
M  V30 4180 N 390.218 -0.567019 1.47046 0
M  V30 4181 C 391.464 -1.32658 1.53394 0
M  V30 4182 C 391.797 -1.93254 0.19148 0
M  V30 4183 O 391.072 -1.77338 -0.798844 0
M  V30 4184 C 391.355 -2.44412 2.64452 0
M  V30 4185 C 391.208 -1.88749 4.08282 0
M  V30 4186 C 392.527 -3.46387 2.71485 0
M  V30 4187 H 389.646 -0.48098 0.558415 0
M  V30 4188 H 392.288 -0.635481 1.79058 0
M  V30 4189 H 390.438 -3.03363 2.427 0
M  V30 4190 H 392.11 -1.34134 4.41368 0
M  V30 4191 H 390.353 -1.19481 4.17021 0
M  V30 4192 H 391.024 -2.69491 4.81745 0
M  V30 4193 H 393.5 -2.9734 2.91081 0
M  V30 4194 H 392.376 -4.2202 3.50985 0
M  V30 4195 H 392.637 -4.04616 1.78153 0
M  V30 4196 N 391.696 -1.35014 -0.812953 0
M  V30 4197 C 392.643 -1.27412 -1.92444 0
M  V30 4198 C 393.613 -0.14733 -1.65445 0
M  V30 4199 O 394.798 -0.329974 -1.87925 0
M  V30 4200 C 391.938 -1.04558 -3.28879 0
M  V30 4201 C 391.051 -2.26101 -3.68106 0
M  V30 4202 C 390.186 -1.96449 -4.9354 0
M  V30 4203 C 389.225 -3.14081 -5.25376 0
M  V30 4204 N 388.362 -2.84246 -6.41988 0
M  V30 4205 H 393.202 -2.22463 -1.98278 0
M  V30 4206 H 390.739 -1.10593 -0.969933 0
M  V30 4207 H 392.697 -0.893413 -4.07522 0
M  V30 4208 H 391.327 -0.131719 -3.22531 0
M  V30 4209 H 390.379 -2.52204 -2.84775 0
M  V30 4210 H 391.691 -3.13959 -3.87597 0
M  V30 4211 H 390.845 -1.78026 -5.79993 0
M  V30 4212 H 389.584 -1.05867 -4.76071 0
M  V30 4213 H 388.589 -3.33089 -4.37415 0
M  V30 4214 H 389.814 -4.05455 -5.44778 0
M  V30 4215 H 387.76 -1.96252 -6.25956 0
M  V30 4216 H 387.677 -3.65637 -6.61699 0
M  V30 4217 H 388.945 -2.6935 -7.31485 0
M  V30 4218 N 393.175 1.03435 -1.18907 0
M  V30 4219 C 394.108 2.11162 -0.86521 0
M  V30 4220 C 395.086 1.6165 0.175473 0
M  V30 4221 O 396.27 1.88425 0.0530129 0
M  V30 4222 C 393.397 3.37423 -0.293868 0
M  V30 4223 C 392.443 4.05795 -1.31274 0
M  V30 4224 S 393.276 4.52027 -2.8711 0
M  V30 4225 C 394.432 5.81513 -2.31504 0
M  V30 4226 H 394.665 2.38308 -1.77754 0
M  V30 4227 H 392.198 1.16295 -1.01562 0
M  V30 4228 H 394.156 4.1049 0.0292572 0
M  V30 4229 H 392.817 3.0838 0.596682 0
M  V30 4230 H 392.01 4.96574 -0.86198 0
M  V30 4231 H 391.612 3.38874 -1.58242 0
M  V30 4232 H 393.904 6.55784 -1.70157 0
M  V30 4233 H 394.847 6.3136 -3.20608 0
M  V30 4234 H 395.255 5.36921 -1.74286 0
M  V30 4235 N 394.653 0.992116 1.22453 0
M  V30 4236 C 395.616 0.546883 2.2258 0
M  V30 4237 C 396.616 -0.369829 1.56489 0
M  V30 4238 O 397.806 -0.161896 1.73446 0
M  V30 4239 C 394.938 -0.204659 3.40285 0
M  V30 4240 H 396.131 1.43234 2.63484 0
M  V30 4241 H 393.684 0.779239 1.3549 0
M  V30 4242 H 394.419 -1.10614 3.04853 0
M  V30 4243 H 394.204 0.45354 3.89468 0
M  V30 4244 H 395.694 -0.504358 4.14543 0
M  V30 4245 N 396.131 -1.37776 0.765217 0
M  V30 4246 C 397.408 -1.93975 0.251596 0
M  V30 4247 C 397.788 -1.69949 -1.25222 0
M  V30 4248 O 397.136 -1.04457 -2.03226 0
M  V30 4249 C 397.346 -3.43487 0.617895 0
M  V30 4250 C 398.694 -4.20564 0.584029 0
M  V30 4251 O 399.718 -3.5182 0.556888 0
M  V30 4252 O 398.577 -5.43138 0.605291 0
M  V30 4253 H 395.671 -0.82509 0.0561806 0
M  V30 4254 H 398.217 -1.47101 0.846128 0
M  V30 4255 H 396.989 -3.5453 1.65602 0
M  V30 4256 H 396.612 -3.976 -0.00403411 0
M  V30 4257 N 397.609 -0.515225 -1.4894 0
M  V30 4258 C 398.849 0.0223983 -2.04388 0
M  V30 4259 C 399.213 1.32961 -1.38511 0
M  V30 4260 O 400.414 1.95236 -1.8476 0
M  V30 4261 C 398.685 0.157056 -3.57055 0
M  V30 4262 S 400.244 0.646875 -4.34006 0
M  V30 4263 H 397.062 -0.00500662 -0.710982 0
M  V30 4264 H 399.664 -0.69243 -1.82827 0
M  V30 4265 H 398.368 -0.799412 -4.02539 0
M  V30 4266 H 397.899 0.896704 -3.83044 0
M  V30 4267 H 399.914 1.91381 -4.57808 0
M  V30 4268 N 399.087 1.5561 -0.249682 0
M  V30 4269 C 400.333 1.99306 0.374841 0
M  V30 4270 C 400.666 1.13767 1.57387 0
M  V30 4271 O 399.941 0.201711 1.93451 0
M  V30 4272 C 400.224 3.51507 0.781986 0
M  V30 4273 C 400.077 4.4781 -0.422629 0
M  V30 4274 C 401.396 4.08884 1.62793 0
M  V30 4275 H 398.515 0.724572 0.134773 0
M  V30 4276 H 401.157 1.86719 -0.351549 0
M  V30 4277 H 399.307 3.62363 1.4009 0
M  V30 4278 H 400.979 4.48931 -1.06108 0
M  V30 4279 H 399.222 4.20518 -1.06524 0
M  V30 4280 H 399.893 5.51919 -0.0943766 0
M  V30 4281 H 402.369 4.01147 1.10547 0
M  V30 4282 H 401.245 5.1564 1.88166 0
M  V30 4283 H 401.506 3.57515 2.60068 0
M  V30 4284 N 400.565 -0.0233959 1.57583 0
M  V30 4285 C 401.528 -1.00693 2.05897 0
M  V30 4286 C 402.528 -1.28693 0.964092 0
M  V30 4287 O 403.718 -1.23602 1.22753 0
M  V30 4288 C 400.85 -2.33825 2.4807 0
M  V30 4289 H 402.043 -0.589476 2.9405 0
M  V30 4290 H 399.596 -0.270354 1.53944 0
M  V30 4291 H 400.331 -2.80307 1.6309 0
M  V30 4292 H 400.116 -2.1483 3.2801 0
M  V30 4293 H 401.606 -3.04426 2.85857 0
M  V30 4294 N 402.043 -1.548 -0.295768 0
M  V30 4295 C 403.006 -1.85363 -1.34808 0
M  V30 4296 C 404.006 -0.726817 -1.43436 0
M  V30 4297 O 405.196 -0.995088 -1.42981 0
M  V30 4298 C 402.328 -2.03859 -2.73229 0
M  V30 4299 H 403.521 -2.7941 -1.08949 0
M  V30 4300 H 401.074 -1.46942 -0.532702 0
M  V30 4301 H 401.809 -1.12117 -3.04303 0
M  V30 4302 H 401.594 -2.8588 -2.68356 0
M  V30 4303 H 403.084 -2.28857 -3.49305 0
M  V30 4304 N 403.521 0.559213 -1.47345 0
M  V30 4305 C 404.798 1.31997 -1.44348 0
M  V30 4306 C 405.178 2.1064 -0.139358 0
M  V30 4307 O 404.526 2.1091 0.879153 0
M  V30 4308 C 404.736 2.22618 -2.68779 0
M  V30 4309 C 406.084 2.83701 -3.1591 0
M  V30 4310 O 407.108 2.32921 -2.69493 0
M  V30 4311 O 405.967 3.75993 -3.966 0
M  V30 4312 H 403.061 0.594251 -0.575147 0
M  V30 4313 H 405.607 0.578282 -1.59543 0
M  V30 4314 H 404.379 1.64093 -3.55231 0
M  V30 4315 H 404.002 3.04085 -2.5616 0
M  V30 4316 N 404.999 1.35443 0.805782 0
M  V30 4317 C 406.245 1.28952 1.56522 0
M  V30 4318 C 406.578 -0.135597 1.93726 0
M  V30 4319 O 405.853 -1.08516 1.61414 0
M  V30 4320 C 406.136 2.19678 2.85331 0
M  V30 4321 C 405.989 3.7081 2.54598 0
M  V30 4322 C 407.308 2.09495 3.8704 0
M  V30 4323 H 404.427 0.469764 0.567883 0
M  V30 4324 H 407.069 1.65851 0.927001 0
M  V30 4325 H 405.219 1.8834 3.39795 0
M  V30 4326 H 406.891 4.12593 2.06312 0
M  V30 4327 H 405.134 3.91051 1.8778 0
M  V30 4328 H 405.805 4.29679 3.46525 0
M  V30 4329 H 408.281 2.37045 3.41978 0
M  V30 4330 H 407.157 2.75173 4.74943 0
M  V30 4331 H 407.418 1.07714 4.28777 0
M  V30 4332 N 406.477 -1.02803 1.19454 0
M  V30 4333 C 407.723 -1.76478 0.999171 0
M  V30 4334 C 408.056 -1.88456 -0.468828 0
M  V30 4335 O 407.331 -1.40198 -1.34814 0
M  V30 4336 C 407.614 -3.19044 1.66981 0
M  V30 4337 C 407.467 -3.14932 3.21151 0
M  V30 4338 C 408.786 -4.17456 1.39349 0
M  V30 4339 H 405.905 -0.640614 0.364393 0
M  V30 4340 H 408.547 -1.20005 1.47305 0
M  V30 4341 H 406.697 -3.67263 1.2669 0
M  V30 4342 H 408.369 -2.74605 3.70661 0
M  V30 4343 H 406.612 -2.52625 3.52652 0
M  V30 4344 H 407.283 -4.1566 3.63223 0
M  V30 4345 H 409.759 -3.77842 1.74283 0
M  V30 4346 H 408.635 -5.154 1.88823 0
M  V30 4347 H 408.896 -4.40949 0.318813 0
M  V30 4348 N 407.956 -0.998596 -1.21925 0
M  V30 4349 C 408.904 -0.546641 -2.26085 0
M  V30 4350 C 409.898 0.405576 -1.64473 0
M  V30 4351 O 411.104 0.277471 -1.77849 0
M  V30 4352 H 407.479 -0.158403 -0.735127 0
M  V30 4353 H 409.45 -1.43645 -2.61551 0
M  V30 4354 C 408.199 0.117388 -3.47502 0
M  V30 4355 H 407.522 -0.606277 -3.95176 0
M  V30 4356 H 408.962 0.396993 -4.22137 0
M  V30 4357 C 407.421 1.35455 -3.0847 0
M  V30 4358 O 407.951 2.44944 -3.18379 0
M  V30 4359 N 406.157 1.23191 -2.63196 0
M  V30 4360 H 405.704 0.341006 -2.55333 0
M  V30 4361 H 405.662 2.06071 -2.37449 0
M  V30 4362 N 409.434 1.37368 -0.772513 0
M  V30 4363 C 410.397 2.28601 -0.165541 0
M  V30 4364 C 411.397 1.48062 0.627238 0
M  V30 4365 O 412.587 1.68268 0.450715 0
M  V30 4366 C 409.719 3.32023 0.772897 0
M  V30 4367 H 410.912 2.83787 -0.969787 0
M  V30 4368 H 408.465 1.46647 -0.540775 0
M  V30 4369 H 409.2 2.81962 1.60212 0
M  V30 4370 H 408.985 3.91555 0.206585 0
M  V30 4371 H 410.475 4.00197 1.19298 0
M  V30 4372 N 410.912 0.523116 1.48665 0
M  V30 4373 C 412.16 -0.0134497 2.02096 0
M  V30 4374 C 412.481 -1.35418 1.40311 0
M  V30 4375 O 411.751 -1.87543 0.566074 0
M  V30 4376 H 410.331 -0.00795915 0.746958 0
M  V30 4377 H 412.993 0.685388 1.82451 0
M  V30 4378 H 412.089 -0.126849 3.11842 0
M  V30 4379 N 412.39 -1.55475 0.257931 0
M  V30 4380 C 413.667 -1.91155 -0.414629 0
M  V30 4381 C 414.047 -1.18008 -1.75035 0
M  V30 4382 O 413.395 -0.301193 -2.26506 0
M  V30 4383 C 413.605 -3.44283 -0.571859 0
M  V30 4384 C 414.953 -4.15744 -0.862678 0
M  V30 4385 O 415.977 -3.50083 -0.657314 0
M  V30 4386 O 414.836 -5.31909 -1.2544 0
M  V30 4387 H 411.93 -0.796016 -0.22425 0
M  V30 4388 H 414.476 -1.66976 0.302814 0
M  V30 4389 H 413.248 -3.89558 0.368844 0
M  V30 4390 H 412.871 -3.7436 -1.33943 0
M  V30 4391 N 413.868 0.0150385 -1.57593 0
M  V30 4392 C 414.815 1.01126 -2.07466 0
M  V30 4393 C 415.785 1.35064 -0.966794 0
M  V30 4394 O 416.97 1.4516 -1.23827 0
M  V30 4395 C 414.11 2.30276 -2.57035 0
M  V30 4396 C 413.223 2.02373 -3.81666 0
M  V30 4397 C 412.358 3.25496 -4.19793 0
M  V30 4398 C 411.397 2.93211 -5.37303 0
M  V30 4399 N 410.534 4.08826 -5.70794 0
M  V30 4400 H 415.374 0.57901 -2.92321 0
M  V30 4401 H 412.911 0.27426 -1.44521 0
M  V30 4402 H 414.869 3.05757 -2.83846 0
M  V30 4403 H 413.499 2.71197 -1.75077 0
M  V30 4404 H 412.551 1.17327 -3.61854 0
M  V30 4405 H 413.863 1.74567 -4.67256 0
M  V30 4406 H 413.017 4.09333 -4.47807 0
M  V30 4407 H 411.756 3.56428 -3.32882 0
M  V30 4408 H 410.761 2.07777 -5.09027 0
M  V30 4409 H 411.986 2.63542 -6.25877 0
M  V30 4410 H 409.932 4.39682 -4.86842 0
M  V30 4411 H 409.849 3.84491 -6.50924 0
M  V30 4412 H 411.117 4.93496 -6.03392 0
M  V30 4413 N 415.346 1.54954 0.287554 0
M  V30 4414 C 416.595 1.74081 1.01877 0
M  V30 4415 C 416.908 0.541135 1.87966 0
M  V30 4416 O 418.114 0.614491 2.64455 0
M  V30 4417 C 416.57 3.08042 1.86113 0
M  V30 4418 C 416.178 4.35531 1.04961 0
M  V30 4419 C 417.922 3.36523 2.58752 0
M  V30 4420 C 415.829 5.60538 1.88551 0
M  V30 4421 H 414.759 0.64884 0.384087 0
M  V30 4422 H 417.41 1.81426 0.275101 0
M  V30 4423 H 415.792 2.94696 2.64519 0
M  V30 4424 H 416.966 4.59751 0.31074 0
M  V30 4425 H 415.281 4.14085 0.43843 0
M  V30 4426 H 417.878 4.27122 3.21668 0
M  V30 4427 H 418.221 2.56 3.28283 0
M  V30 4428 H 418.754 3.50901 1.87386 0
M  V30 4429 H 415.493 6.43767 1.23466 0
M  V30 4430 H 415.013 5.40483 2.60074 0
M  V30 4431 H 416.692 5.98297 2.46273 0
M  V30 4432 N 416.824 -0.551391 1.4764 0
M  V30 4433 C 417.754 -1.66757 1.63445 0
M  V30 4434 C 418.735 -1.63077 0.483742 0
M  V30 4435 O 419.92 -1.80607 0.71377 0
M  V30 4436 C 417.05 -3.05387 1.65396 0
M  V30 4437 C 416.004 -3.23918 2.79752 0
M  V30 4438 C 415.33 -4.63393 2.66779 0
M  V30 4439 C 416.63 -3.08735 4.21284 0
M  V30 4440 H 418.324 -1.53786 2.56886 0
M  V30 4441 H 415.87 -0.738415 1.23626 0
M  V30 4442 H 417.823 -3.83325 1.75043 0
M  V30 4443 H 416.547 -3.19332 0.685195 0
M  V30 4444 H 415.206 -2.48391 2.69625 0
M  V30 4445 H 414.854 -4.74144 1.67918 0
M  V30 4446 H 414.554 -4.7674 3.43501 0
M  V30 4447 H 416.078 -5.43458 2.78364 0
M  V30 4448 H 417.492 -3.76484 4.32357 0
M  V30 4449 H 415.889 -3.33588 4.98838 0
M  V30 4450 H 416.959 -2.0541 4.39243 0
M  V30 4451 N 418.302 -1.35869 -0.798587 0
M  V30 4452 C 419.265 -1.29307 -1.89242 0
M  V30 4453 C 420.265 -0.202747 -1.59517 0
M  V30 4454 O 421.455 -0.456957 -1.681 0
M  V30 4455 C 418.587 -1.00229 -3.25833 0
M  V30 4456 H 419.78 -2.26576 -1.96478 0
M  V30 4457 H 417.333 -1.20509 -0.995358 0
M  V30 4458 H 418.068 -0.033801 -3.24282 0
M  V30 4459 H 417.853 -1.79121 -3.48795 0
M  V30 4460 H 419.343 -0.98219 -4.05885 0
M  V30 4461 N 419.78 1.02168 -1.19998 0
M  V30 4462 C 421.029 1.75091 -1.0013 0
M  V30 4463 C 421.342 1.89923 0.467835 0
M  V30 4464 O 422.548 2.59888 0.785515 0
M  V30 4465 C 421.004 3.14892 -1.74273 0
M  V30 4466 C 420.612 3.0809 -3.25245 0
M  V30 4467 C 422.356 3.9206 -1.62755 0
M  V30 4468 C 420.263 4.42867 -3.91948 0
M  V30 4469 H 419.193 0.656394 -0.37103 0
M  V30 4470 H 421.844 1.14284 -1.43567 0
M  V30 4471 H 420.226 3.7621 -1.2362 0
M  V30 4472 H 421.4 2.5611 -3.83072 0
M  V30 4473 H 419.715 2.44416 -3.3712 0
M  V30 4474 H 422.312 4.91764 -2.09934 0
M  V30 4475 H 422.655 4.12199 -0.582894 0
M  V30 4476 H 423.188 3.37359 -2.10793 0
M  V30 4477 H 419.927 4.27931 -4.96543 0
M  V30 4478 H 419.447 4.94874 -3.3891 0
M  V30 4479 H 421.126 5.11728 -3.95909 0
M  V30 4480 N 421.258 1.00505 1.21394 0
M  V30 4481 C 422.221 0.570459 2.21987 0
M  V30 4482 C 423.221 -0.353211 1.56873 0
M  V30 4483 O 424.411 -0.14349 1.73608 0
M  V30 4484 C 421.543 -0.168555 3.40483 0
M  V30 4485 H 422.736 1.46021 2.6195 0
M  V30 4486 H 420.289 0.793565 1.34656 0
M  V30 4487 H 421.024 -1.07374 3.06009 0
M  V30 4488 H 420.809 0.494823 3.88965 0
M  V30 4489 H 422.299 -0.460362 4.15055 0
M  V30 4490 N 422.737 -1.36956 0.779787 0
M  V30 4491 C 423.687 -2.27539 0.144892 0
M  V30 4492 C 424.671 -1.46493 -0.665488 0
M  V30 4493 O 425.863 -1.68968 -0.527141 0
M  V30 4494 C 422.992 -3.35512 -0.727082 0
M  V30 4495 C 422.078 -4.24001 0.0915642 0
M  V30 4496 N 422.469 -4.92757 1.14125 0
M  V30 4497 C 420.767 -4.45807 -0.131141 0
M  V30 4498 C 421.468 -5.58138 1.6388 0
M  V30 4499 N 420.444 -5.35241 0.94962 0
M  V30 4500 H 424.246 -2.78176 0.948446 0
M  V30 4501 H 421.76 -1.50169 0.618315 0
M  V30 4502 H 423.757 -3.99324 -1.19776 0
M  V30 4503 H 422.417 -2.86431 -1.52929 0
M  V30 4504 H 423.428 -4.94984 1.52353 0
M  V30 4505 H 420.105 -4.07582 -0.904621 0
M  V30 4506 H 421.495 -6.23071 2.51461 0
M  V30 4507 N 424.215 -0.530993 -1.48385 0
M  V30 4508 C 425.455 0.000718982 -2.044 0
M  V30 4509 C 425.819 1.31485 -1.39913 0
M  V30 4510 O 427.02 1.93265 -1.86821 0
M  V30 4511 C 425.291 0.119177 -3.57201 0
M  V30 4512 S 426.85 0.600806 -4.34667 0
M  V30 4513 H 423.668 -0.0125473 -0.710889 0
M  V30 4514 H 426.27 -0.711783 -1.82082 0
M  V30 4515 H 424.974 -0.842061 -4.01668 0
M  V30 4516 H 424.505 0.856026 -3.83974 0
M  V30 4517 H 426.52 1.86514 -4.59812 0
M  V30 4518 N 425.693 1.55336 -0.266172 0
M  V30 4519 C 426.641 2.23587 0.641228 0
M  V30 4520 C 427.635 1.22986 1.16494 0
M  V30 4521 O 428.841 1.40943 1.1196 0
M  V30 4522 H 425.216 0.717452 0.225315 0
M  V30 4523 H 427.187 2.9837 0.0426561 0
M  V30 4524 C 425.936 2.96369 1.81826 0
M  V30 4525 H 425.259 3.73563 1.42445 0
M  V30 4526 H 426.699 3.47459 2.42998 0
M  V30 4527 C 425.158 2.0133 2.70125 0
M  V30 4528 O 425.688 1.55875 3.70224 0
M  V30 4529 N 423.894 1.6802 2.37102 0
M  V30 4530 H 423.441 2.05181 1.55751 0
M  V30 4531 H 423.399 1.047 2.96454 0
M  V30 4532 N 427.171 -0.0066808 1.57599 0
M  V30 4533 C 428.411 -0.697501 1.92131 0
M  V30 4534 C 428.775 -1.71306 0.867071 0
M  V30 4535 O 429.976 -2.45377 1.09743 0
M  V30 4536 C 428.247 -1.32978 3.3174 0
M  V30 4537 S 429.806 -2.04665 3.88146 0
M  V30 4538 H 426.624 -0.230555 0.672581 0
M  V30 4539 H 429.226 0.0484026 1.9544 0
M  V30 4540 H 427.93 -0.57772 4.06313 0
M  V30 4541 H 427.461 -2.11376 3.31789 0
M  V30 4542 H 429.476 -3.32097 3.68682 0
M  V30 4543 N 428.649 -1.55105 -0.279332 0
M  V30 4544 C 429.559 -1.90638 -1.36727 0
M  V30 4545 C 430.575 -0.802899 -1.54368 0
M  V30 4546 O 431.751 -1.10138 -1.68616 0
M  V30 4547 C 428.816 -2.16547 -2.70755 0
M  V30 4548 C 427.877 -3.40146 -2.61915 0
M  V30 4549 C 427.11 -3.6481 -3.8955 0
M  V30 4550 O 427.333 -2.92095 -4.89935 0
M  V30 4551 O 426.267 -4.58343 -3.90135 0
M  V30 4552 H 430.093 -2.83237 -1.09591 0
M  V30 4553 H 427.678 -1.4157 -0.477306 0
M  V30 4554 H 429.56 -2.34665 -3.50014 0
M  V30 4555 H 428.235 -1.27131 -2.9769 0
M  V30 4556 H 427.142 -3.2737 -1.81052 0
M  V30 4557 H 428.475 -4.29761 -2.3993 0
M  V30 4558 N 430.127 0.543554 -1.4793 0
M  V30 4559 C 431.037 1.67657 -1.64098 0
M  V30 4560 C 432.053 1.65934 -0.523622 0
M  V30 4561 O 433.229 1.85133 -0.792943 0
M  V30 4562 C 430.294 3.04146 -1.66421 0
M  V30 4563 C 429.355 3.16831 -2.89684 0
M  V30 4564 C 428.588 4.46809 -2.91886 0
M  V30 4565 O 428.811 5.33095 -2.02895 0
M  V30 4566 O 427.745 4.63573 -3.83906 0
M  V30 4567 H 431.571 1.56957 -2.59997 0
M  V30 4568 H 429.156 0.715116 -1.31173 0
M  V30 4569 H 431.038 3.85346 -1.70548 0
M  V30 4570 H 429.713 3.152 -0.736923 0
M  V30 4571 H 428.62 2.34977 -2.91095 0
M  V30 4572 H 429.953 3.10687 -3.81752 0
M  V30 4573 N 431.605 1.3629 0.791371 0
M  V30 4574 C 433.021 1.16661 1.08914 0
M  V30 4575 C 433.221 -0.0106266 2.01497 0
M  V30 4576 O 432.277 -0.676596 2.43266 0
M  V30 4577 C 433.59 2.47656 1.70549 0
M  V30 4578 C 435.138 2.54002 1.82899 0
M  V30 4579 C 435.613 3.85078 2.47949 0
M  V30 4580 N 437.104 3.86413 2.5542 0
M  V30 4581 C 437.839 4.84572 3.06557 0
M  V30 4582 N 437.335 5.93124 3.58016 0
M  V30 4583 N 439.128 4.71994 3.05251 0
M  V30 4584 H 431.279 2.11668 0.176238 0
M  V30 4585 H 433.542 0.937486 0.140796 0
M  V30 4586 H 433.248 3.34059 1.09989 0
M  V30 4587 H 433.122 2.63319 2.70079 0
M  V30 4588 H 435.509 1.68018 2.42598 0
M  V30 4589 H 435.59 2.42239 0.821808 0
M  V30 4590 H 435.234 4.71467 1.88895 0
M  V30 4591 H 435.164 3.94135 3.49235 0
M  V30 4592 H 437.655 3.07988 2.18979 0
M  V30 4593 H 437.968 6.63999 3.95381 0
M  V30 4594 H 436.313 5.96796 3.56173 0
M  V30 4595 H 439.504 3.86321 2.64336 0
M  V30 4596 H 439.677 5.48653 3.44796 0
M  V30 4597 N 433.083 -1.0153 1.20538 0
M  V30 4598 C 434.046 -2.0826 0.957098 0
M  V30 4599 C 435.046 -1.60657 -0.0678655 0
M  V30 4600 O 436.236 -1.73385 0.168332 0
M  V30 4601 C 433.368 -3.38033 0.441188 0
M  V30 4602 H 434.561 -2.31719 1.90384 0
M  V30 4603 H 432.114 -1.1835 1.02093 0
M  V30 4604 H 432.849 -3.20249 -0.510961 0
M  V30 4605 H 432.634 -3.73911 1.18038 0
M  V30 4606 H 434.124 -4.16613 0.287009 0
M  V30 4607 N 434.561 -1.01147 -1.20859 0
M  V30 4608 C 435.508 -0.577354 -2.23462 0
M  V30 4609 C 436.478 0.399922 -1.61214 0
M  V30 4610 O 437.663 0.300515 -1.88419 0
M  V30 4611 C 434.803 0.083372 -3.44999 0
M  V30 4612 C 433.916 -0.937856 -4.21697 0
M  V30 4613 C 433.051 -0.248717 -5.30617 0
M  V30 4614 C 432.09 -1.25705 -5.99053 0
M  V30 4615 N 431.227 -0.594939 -6.99575 0
M  V30 4616 H 436.067 -1.45695 -2.59956 0
M  V30 4617 H 433.604 -0.729428 -1.27741 0
M  V30 4618 H 435.562 0.483535 -4.14388 0
M  V30 4619 H 434.192 0.926645 -3.09214 0
M  V30 4620 H 433.244 -1.45622 -3.51423 0
M  V30 4621 H 434.556 -1.70493 -4.68757 0
M  V30 4622 H 433.71 0.207215 -6.06346 0
M  V30 4623 H 432.449 0.55071 -4.84581 0
M  V30 4624 H 431.454 -1.72343 -5.2209 0
M  V30 4625 H 432.679 -2.05767 -6.47176 0
M  V30 4626 H 430.625 0.184713 -6.5574 0
M  V30 4627 H 430.542 -1.30017 -7.44736 0
M  V30 4628 H 431.81 -0.162427 -7.79331 0
M  V30 4629 N 436.039 1.36541 -0.78704 0
M  V30 4630 C 436.949 2.3387 -0.184896 0
M  V30 4631 C 437.965 1.60927 0.661697 0
M  V30 4632 O 439.141 1.92927 0.57804 0
M  V30 4633 C 436.206 3.40122 0.672145 0
M  V30 4634 C 435.267 4.28867 -0.19267 0
M  V30 4635 C 434.5 5.30045 0.623561 0
M  V30 4636 O 434.723 5.39232 1.8597 0
M  V30 4637 O 433.657 6.01895 0.0247068 0
M  V30 4638 H 437.483 2.87126 -0.989562 0
M  V30 4639 H 435.068 1.38969 -0.548455 0
M  V30 4640 H 436.95 4.05093 1.16094 0
M  V30 4641 H 435.625 2.89169 1.45474 0
M  V30 4642 H 434.532 3.66945 -0.728166 0
M  V30 4643 H 435.865 4.83165 -0.938722 0
M  V30 4644 N 437.518 0.538854 1.48102 0
M  V30 4645 C 438.764 0.00801365 2.02798 0
M  V30 4646 C 439.097 -1.3309 1.41424 0
M  V30 4647 O 438.372 -1.86169 0.563158 0
M  V30 4648 C 438.655 -0.104589 3.59948 0
M  V30 4649 C 438.508 1.26012 4.31788 0
M  V30 4650 C 439.827 -0.827055 4.32259 0
M  V30 4651 H 436.946 0.00438624 0.736987 0
M  V30 4652 H 439.588 0.6976 1.7673 0
M  V30 4653 H 437.738 -0.691893 3.82289 0
M  V30 4654 H 439.41 1.88922 4.2084 0
M  V30 4655 H 437.653 1.83968 3.92859 0
M  V30 4656 H 438.324 1.13424 5.40221 0
M  V30 4657 H 440.8 -0.328578 4.14801 0
M  V30 4658 H 439.676 -0.87476 5.41885 0
M  V30 4659 H 439.937 -1.87927 4.0017 0
M  V30 4660 N 438.996 -1.55193 0.274407 0
M  V30 4661 C 439.928 -2.1989 -0.646595 0
M  V30 4662 C 440.941 -1.1834 -1.11801 0
M  V30 4663 O 442.13 -1.4507 -1.04004 0
M  V30 4664 C 439.23 -2.8104 -1.89393 0
M  V30 4665 C 438.403 -4.08274 -1.56943 0
M  V30 4666 C 437.462 -4.53478 -2.66916 0
M  V30 4667 O 436.488 -5.19267 -2.33132 0
M  V30 4668 N 437.69 -4.2356 -3.9696 0
M  V30 4669 H 440.455 -2.99556 -0.0928686 0
M  V30 4670 H 438.016 -1.61618 0.0954783 0
M  V30 4671 H 440.008 -3.08226 -2.62257 0
M  V30 4672 H 438.578 -2.05372 -2.35672 0
M  V30 4673 H 437.798 -3.88384 -0.674655 0
M  V30 4674 H 439.086 -4.91173 -1.32764 0
M  V30 4675 H 438.484 -3.70799 -4.27229 0
M  V30 4676 H 437.041 -4.55518 -4.66205 0
M  V30 4677 N 440.474 -0.00167713 -1.576 0
M  V30 4678 C 441.89 0.354422 -1.55615 0
M  V30 4679 C 442.09 1.74679 -1.00447 0
M  V30 4680 O 441.146 2.4428 -0.639022 0
M  V30 4681 C 442.459 0.22812 -2.99833 0
M  V30 4682 C 444.007 0.302934 -3.11531 0
M  V30 4683 C 444.482 0.205737 -4.57538 0
M  V30 4684 N 445.973 0.263584 -4.62449 0
M  V30 4685 C 446.708 0.211742 -5.73009 0
M  V30 4686 N 446.204 0.110399 -6.92712 0
M  V30 4687 N 447.997 0.263729 -5.61481 0
M  V30 4688 H 440.148 -0.912498 -1.918 0
M  V30 4689 H 442.411 -0.349928 -0.881053 0
M  V30 4690 H 442.117 -0.729934 -3.44042 0
M  V30 4691 H 441.991 1.00951 -3.6344 0
M  V30 4692 H 444.378 1.25143 -2.67251 0
M  V30 4693 H 444.459 -0.508357 -2.50698 0
M  V30 4694 H 444.103 -0.739225 -5.02492 0
M  V30 4695 H 444.033 1.03554 -5.16318 0
M  V30 4696 H 446.524 0.343173 -3.76339 0
M  V30 4697 H 446.837 0.0767828 -7.72762 0
M  V30 4698 H 445.182 0.0760025 -6.94958 0
M  V30 4699 H 448.373 0.34111 -4.66855 0
M  V30 4700 H 448.546 0.219862 -6.47627 0
M  V30 4701 N 441.952 1.55251 0.271103 0
M  V30 4702 C 442.882 1.9127 1.33933 0
M  V30 4703 C 443.863 0.77478 1.5143 0
M  V30 4704 O 445.048 1.03307 1.64442 0
M  V30 4705 C 442.178 2.18627 2.69851 0
M  V30 4706 C 441.132 3.34442 2.67081 0
M  V30 4707 C 440.458 3.47284 4.06569 0
M  V30 4708 C 441.758 4.70784 2.26185 0
M  V30 4709 H 443.452 2.80744 1.04035 0
M  V30 4710 H 440.998 1.35077 0.499017 0
M  V30 4711 H 442.951 2.42413 3.44694 0
M  V30 4712 H 441.675 1.25955 3.01335 0
M  V30 4713 H 440.334 3.10627 1.94695 0
M  V30 4714 H 439.982 2.52074 4.35279 0
M  V30 4715 H 439.682 4.25152 4.0561 0
M  V30 4716 H 441.206 3.73363 4.83148 0
M  V30 4717 H 442.62 4.94102 2.90751 0
M  V30 4718 H 441.017 5.51582 2.36384 0
M  V30 4719 H 442.087 4.69478 1.21319 0
M  V30 4720 N 443.43 -0.535701 1.48216 0
M  V30 4721 C 444.36 -1.65014 1.65204 0
M  V30 4722 C 445.341 -1.62554 0.501011 0
M  V30 4723 O 446.526 -1.7984 0.732886 0
M  V30 4724 C 443.656 -3.03616 1.68626 0
M  V30 4725 C 442.61 -3.20932 2.83172 0
M  V30 4726 C 441.936 -4.60537 2.71679 0
M  V30 4727 C 443.236 -3.04249 4.24535 0
M  V30 4728 H 444.93 -1.51053 2.58502 0
M  V30 4729 H 442.476 -0.725262 1.24402 0
M  V30 4730 H 444.429 -3.81446 1.79099 0
M  V30 4731 H 443.153 -3.18587 0.719026 0
M  V30 4732 H 441.812 -2.45517 2.72244 0
M  V30 4733 H 441.46 -4.72336 1.72937 0
M  V30 4734 H 441.16 -4.73069 3.48538 0
M  V30 4735 H 442.684 -5.40475 2.84112 0
M  V30 4736 H 444.098 -3.71877 4.36326 0
M  V30 4737 H 442.495 -3.28278 5.02348 0
M  V30 4738 H 443.565 -2.00739 4.41397 0
M  V30 4739 N 444.908 -1.36708 -0.784132 0
M  V30 4740 C 445.855 -1.31466 -1.89698 0
M  V30 4741 C 446.825 -0.18239 -1.65096 0
M  V30 4742 O 448.01 -0.369762 -1.87183 0
M  V30 4743 C 445.15 -1.1151 -3.26588 0
M  V30 4744 C 444.263 -2.33859 -3.63227 0
M  V30 4745 C 443.398 -2.06873 -4.89262 0
M  V30 4746 C 442.437 -3.25154 -5.18595 0
M  V30 4747 N 441.574 -2.978 -6.35814 0
M  V30 4748 H 446.414 -2.26619 -1.93515 0
M  V30 4749 H 443.951 -1.12625 -0.946256 0
M  V30 4750 H 445.909 -0.979653 -4.05535 0
M  V30 4751 H 444.539 -0.200103 -3.22179 0
M  V30 4752 H 443.591 -2.58188 -2.79362 0
M  V30 4753 H 444.903 -3.22109 -3.8085 0
M  V30 4754 H 444.057 -1.90289 -5.76086 0
M  V30 4755 H 442.796 -1.15942 -4.73718 0
M  V30 4756 H 441.801 -3.42292 -4.30251 0
M  V30 4757 H 443.026 -4.1692 -5.36055 0
M  V30 4758 H 440.972 -2.09485 -6.21653 0
M  V30 4759 H 440.889 -3.7959 -6.53794 0
M  V30 4760 H 442.157 -2.84805 -7.25607 0
M  V30 4761 N 446.386 1.0089 -1.21074 0
M  V30 4762 C 447.296 2.13039 -0.982425 0
M  V30 4763 C 448.312 1.73881 0.0642161 0
M  V30 4764 O 449.488 2.01012 -0.12496 0
M  V30 4765 C 446.553 3.42377 -0.545803 0
M  V30 4766 C 445.614 3.95731 -1.6642 0
M  V30 4767 C 444.847 5.18896 -1.24832 0
M  V30 4768 O 445.07 5.70273 -0.120265 0
M  V30 4769 O 444.004 5.65597 -2.05873 0
M  V30 4770 H 447.83 2.35175 -1.92163 0
M  V30 4771 H 445.415 1.1142 -0.995285 0
M  V30 4772 H 447.297 4.20244 -0.311912 0
M  V30 4773 H 445.972 3.21639 0.364727 0
M  V30 4774 H 444.879 3.19108 -1.95246 0
M  V30 4775 H 446.212 4.20872 -2.55201 0
M  V30 4776 N 447.864 1.01787 1.20321 0
M  V30 4777 C 449.28 0.732951 1.41774 0
M  V30 4778 C 449.48 -0.686883 1.89431 0
M  V30 4779 O 448.536 -1.45446 2.06402 0
M  V30 4780 C 449.849 1.75973 2.43832 0
M  V30 4781 C 451.397 1.77802 2.57596 0
M  V30 4782 C 451.872 2.7941 3.62897 0
M  V30 4783 N 453.363 2.78157 3.70382 0
M  V30 4784 C 454.098 3.53434 4.51521 0
M  V30 4785 N 453.594 4.38392 5.36455 0
M  V30 4786 N 455.387 3.42026 4.46066 0
M  V30 4787 H 447.538 1.93447 0.877035 0
M  V30 4788 H 449.801 0.835712 0.447536 0
M  V30 4789 H 449.507 2.77699 2.15815 0
M  V30 4790 H 449.381 1.57292 3.4284 0
M  V30 4791 H 451.768 0.767602 2.84942 0
M  V30 4792 H 451.849 2.00557 1.58779 0
M  V30 4793 H 451.493 3.80616 3.36295 0
M  V30 4794 H 451.423 2.53916 4.61339 0
M  V30 4795 H 453.914 2.16531 3.09714 0
M  V30 4796 H 454.227 4.92596 5.95457 0
M  V30 4797 H 452.572 4.4247 5.35953 0
M  V30 4798 H 455.763 2.75075 3.78749 0
M  V30 4799 H 455.936 4.00946 5.09064 0
M  V30 4800 N 449.342 -1.36122 0.79427 0
M  V30 4801 C 450.589 -1.99111 0.368905 0
M  V30 4802 C 450.917 -1.63032 -1.0607 0
M  V30 4803 O 450.172 -0.879303 -1.74833 0
M  V30 4804 C 450.471 -3.5409 0.48527 0
M  V30 4805 C 450.137 -4.10003 1.87638 0
M  V30 4806 C 448.799 -4.24986 2.257 0
M  V30 4807 C 451.151 -4.40423 2.78706 0
M  V30 4808 C 448.479 -4.67701 3.54221 0
M  V30 4809 C 450.831 -4.84573 4.0666 0
M  V30 4810 C 449.495 -4.97761 4.44737 0
M  V30 4811 H 448.765 -0.7286 0.134992 0
M  V30 4812 H 451.412 -1.62534 1.01267 0
M  V30 4813 H 449.717 -3.91052 -0.241984 0
M  V30 4814 H 451.414 -4.00766 0.137109 0
M  V30 4815 H 448.004 -3.98784 1.57064 0
M  V30 4816 H 452.188 -4.28412 2.50553 0
M  V30 4817 H 447.444 -4.761 3.83587 0
M  V30 4818 H 451.618 -5.07074 4.77336 0
M  V30 4819 H 449.245 -5.30618 5.44379 0
M  V30 4820 N 450.82 -0.546701 -1.47814 0
M  V30 4821 C 451.783 0.196287 -2.28358 0
M  V30 4822 C 452.783 0.852437 -1.36346 0
M  V30 4823 O 453.973 0.709913 -1.59078 0
M  V30 4824 C 451.105 1.28579 -3.15722 0
M  V30 4825 H 452.298 -0.511086 -2.95513 0
M  V30 4826 H 449.851 -0.303248 -1.5333 0
M  V30 4827 H 450.586 2.0259 -2.53235 0
M  V30 4828 H 450.371 0.820229 -3.83425 0
M  V30 4829 H 451.861 1.80793 -3.76435 0
M  V30 4830 N 452.299 1.55045 -0.282633 0
M  V30 4831 C 453.545 2.00056 0.332481 0
M  V30 4832 C 453.878 1.1708 1.54939 0
M  V30 4833 O 453.153 0.2427 1.9298 0
M  V30 4834 C 453.436 3.53086 0.70725 0
M  V30 4835 C 453.289 4.46813 -0.517521 0
M  V30 4836 C 454.608 4.12245 1.54084 0
M  V30 4837 H 451.727 0.727268 0.119373 0
M  V30 4838 H 454.369 1.85932 -0.391076 0
M  V30 4839 H 452.519 3.65253 1.32372 0
M  V30 4840 H 454.191 4.46579 -1.15607 0
M  V30 4841 H 452.434 4.18163 -1.1542 0
M  V30 4842 H 453.105 5.51595 -0.211426 0
M  V30 4843 H 455.581 4.03401 1.02013 0
M  V30 4844 H 454.457 5.19515 1.77186 0
M  V30 4845 H 454.718 3.62951 2.52427 0
M  V30 4846 N 453.777 0.010035 1.57597 0
M  V30 4847 C 454.724 -0.978122 2.09049 0
M  V30 4848 C 455.694 -1.33509 0.988159 0
M  V30 4849 O 456.879 -1.43172 1.26121 0
M  V30 4850 C 454.019 -2.26158 2.60666 0
M  V30 4851 C 453.132 -1.96275 3.84838 0
M  V30 4852 C 452.267 -3.18776 4.24918 0
M  V30 4853 C 451.306 -2.84625 5.41899 0
M  V30 4854 N 450.443 -3.99693 5.77226 0
M  V30 4855 H 455.283 -0.532431 2.93205 0
M  V30 4856 H 452.82 -0.251234 1.44939 0
M  V30 4857 H 454.778 -3.01202 2.88675 0
M  V30 4858 H 453.408 -2.68378 1.79369 0
M  V30 4859 H 452.46 -1.11555 3.63675 0
M  V30 4860 H 453.772 -1.67111 4.69974 0
M  V30 4861 H 452.926 -4.02157 4.54262 0
M  V30 4862 H 451.665 -3.51087 3.38511 0
M  V30 4863 H 450.67 -1.99653 5.12268 0
M  V30 4864 H 451.895 -2.53551 6.29991 0
M  V30 4865 H 449.841 -4.31882 4.93776 0
M  V30 4866 H 449.758 -3.74087 6.56959 0
M  V30 4867 H 451.026 -4.83834 6.11167 0
M  V30 4868 N 455.255 -1.55392 -0.262866 0
M  V30 4869 C 456.48 -1.80847 -1.01533 0
M  V30 4870 C 456.905 -0.584946 -1.78774 0
M  V30 4871 O 456.263 0.465701 -1.75217 0
M  V30 4872 C 456.311 -3.03866 -1.94159 0
M  V30 4873 O 455.415 -2.79662 -3.03089 0
M  V30 4874 H 454.756 -0.597441 -0.289759 0
M  V30 4875 H 457.286 -2.02553 -0.288698 0
M  V30 4876 H 457.296 -3.32872 -2.35924 0
M  V30 4877 H 455.971 -3.92564 -1.37354 0
M  V30 4878 H 454.548 -2.61781 -2.65566 0
M  V30 4879 N 456.733 0.527833 -1.48498 0
M  V30 4880 C 457.958 1.313 -1.60546 0
M  V30 4881 C 458.383 1.86199 -0.26672 0
M  V30 4882 O 457.741 1.64513 0.761918 0
M  V30 4883 C 457.789 2.43818 -2.65678 0
M  V30 4884 O 456.893 3.46916 -2.22987 0
M  V30 4885 H 456.234 0.388784 -0.538277 0
M  V30 4886 H 458.764 0.634896 -1.945 0
M  V30 4887 H 458.774 2.89973 -2.87018 0
M  V30 4888 H 457.449 2.03222 -3.62869 0
M  V30 4889 H 456.026 3.06864 -2.11869 0
M  V30 4890 N 458.211 1.37122 0.776871 0
M  V30 4891 C 459.458 1.32047 1.53524 0
M  V30 4892 C 459.786 -0.0965631 1.9426 0
M  V30 4893 O 459.041 -1.06866 1.63945 0
M  V30 4894 C 459.34 2.20068 2.81611 0
M  V30 4895 C 459.006 3.68423 2.59953 0
M  V30 4896 C 457.668 4.08854 2.53755 0
M  V30 4897 C 460.02 4.62431 2.40431 0
M  V30 4898 C 457.348 5.41417 2.26018 0
M  V30 4899 C 459.7 5.95225 2.14219 0
M  V30 4900 C 458.364 6.34767 2.06462 0
M  V30 4901 H 457.634 0.483196 0.561785 0
M  V30 4902 H 460.281 1.69284 0.895268 0
M  V30 4903 H 458.586 1.75809 3.50141 0
M  V30 4904 H 460.283 2.13458 3.39465 0
M  V30 4905 H 456.873 3.36354 2.65638 0
M  V30 4906 H 461.057 4.32057 2.44213 0
M  V30 4907 H 456.313 5.71022 2.18504 0
M  V30 4908 H 460.487 6.67626 1.98112 0
M  V30 4909 H 458.114 7.37413 1.84733 0
M  V30 4910 N 459.689 -1.00246 1.21608 0
M  V30 4911 C 460.938 -1.73476 1.02902 0
M  V30 4912 C 461.251 -1.90643 -0.437561 0
M  V30 4913 O 462.457 -2.61105 -0.74407 0
M  V30 4914 C 460.913 -3.12079 1.79261 0
M  V30 4915 C 460.521 -3.02877 3.30106 0
M  V30 4916 C 462.265 -3.89421 1.68972 0
M  V30 4917 C 460.172 -4.36575 3.98944 0
M  V30 4918 H 459.102 -0.650408 0.381425 0
M  V30 4919 H 461.753 -1.11985 1.45367 0
M  V30 4920 H 460.135 -3.74196 1.2959 0
M  V30 4921 H 461.309 -2.49983 3.87098 0
M  V30 4922 H 459.624 -2.39022 3.40965 0
M  V30 4923 H 462.221 -4.88362 2.17731 0
M  V30 4924 H 462.564 -4.1122 0.648397 0
M  V30 4925 H 463.097 -3.33963 2.16133 0
M  V30 4926 H 459.836 -4.19978 5.03288 0
M  V30 4927 H 459.356 -4.8942 3.4674 0
M  V30 4928 H 461.035 -5.05364 4.04 0
M  V30 4929 N 461.167 -1.02423 -1.1978 0
M  V30 4930 C 462.413 -0.719051 -1.89625 0
M  V30 4931 C 462.746 0.750083 -1.7913 0
M  V30 4932 O 462.021 1.54574 -1.18056 0
M  V30 4933 C 462.304 -1.16499 -3.40735 0
M  V30 4934 C 462.157 -2.695 -3.60125 0
M  V30 4935 C 463.476 -0.742166 -4.33797 0
M  V30 4936 H 460.595 -0.26269 -0.688595 0
M  V30 4937 H 463.237 -1.27333 -1.41018 0
M  V30 4938 H 461.387 -0.69341 -3.82262 0
M  V30 4939 H 463.059 -3.24569 -3.278 0
M  V30 4940 H 461.302 -3.10113 -3.03336 0
M  V30 4941 H 461.973 -2.95757 -4.66081 0
M  V30 4942 H 464.449 -1.1477 -3.99959 0
M  V30 4943 H 463.325 -1.08213 -5.38127 0
M  V30 4944 H 463.586 0.355747 -4.40666 0
M  V30 4945 N 462.645 1.35699 -0.801477 0
M  V30 4946 C 463.922 1.9324 -0.302937 0
M  V30 4947 C 464.302 1.73209 1.20672 0
M  V30 4948 O 463.65 1.09809 2.00385 0
M  V30 4949 C 463.86 3.41728 -0.708747 0
M  V30 4950 C 465.208 4.18868 -0.695328 0
M  V30 4951 O 466.232 3.5022 -0.649971 0
M  V30 4952 O 465.091 5.41342 -0.749081 0
M  V30 4953 H 462.185 0.82331 -0.0780367 0
M  V30 4954 H 464.731 1.44806 -0.884832 0
M  V30 4955 H 463.503 3.50015 -1.74944 0
M  V30 4956 H 463.126 3.97471 -0.101384 0
M  V30 4957 N 464.123 0.554532 1.47522 0
M  V30 4958 C 465.351 0.034257 2.06872 0
M  V30 4959 C 465.766 -1.25826 1.40759 0
M  V30 4960 O 465.123 -1.75425 0.503217 0
M  V30 4961 C 465.174 -0.167827 3.6111 0
M  V30 4962 O 464.895 1.07351 4.24744 0
M  V30 4963 C 466.396 -0.72569 4.3732 0
M  V30 4964 H 463.616 0.0446275 0.669514 0
M  V30 4965 H 466.16 0.767181 1.89564 0
M  V30 4966 H 464.315 -0.850872 3.7794 0
M  V30 4967 H 464.729 0.869563 5.17242 0
M  V30 4968 H 466.203 -0.816394 5.45929 0
M  V30 4969 H 466.68 -1.73635 4.0342 0
M  V30 4970 H 467.286 -0.0784292 4.25228 0
M  V30 4971 N 465.601 -1.54893 0.290851 0
M  V30 4972 C 466.826 -2.04804 -0.32712 0
M  V30 4973 C 467.251 -1.16721 -1.47506 0
M  V30 4974 O 466.609 -0.169107 -1.8051 0
M  V30 4975 C 466.657 -3.52268 -0.770689 0
M  V30 4976 O 465.761 -3.67236 -1.87647 0
M  V30 4977 H 465.102 -0.660789 -0.0652227 0
M  V30 4978 H 467.632 -2.00036 0.429739 0
M  V30 4979 H 467.642 -3.9393 -1.06223 0
M  V30 4980 H 466.317 -4.15843 0.069096 0
M  V30 4981 H 464.894 -3.37479 -1.58626 0
M  V30 4982 N 467.08 -0.0183926 -1.57589 0
M  V30 4983 C 468.328 0.661253 -1.90976 0
M  V30 4984 C 468.649 1.73281 -0.894353 0
M  V30 4985 O 467.919 1.9579 0.0656788 0
M  V30 4986 H 466.499 0.247233 -0.704901 0
M  V30 4987 H 469.161 -0.0636639 -1.94796 0
M  V30 4988 H 468.257 1.12083 -2.9128 0
M  V30 4989 N 468.558 1.5553 0.254621 0
M  V30 4990 C 469.807 1.76202 0.981612 0
M  V30 4991 C 470.12 0.580883 1.86776 0
M  V30 4992 O 471.326 0.670448 2.63092 0
M  V30 4993 C 469.782 3.11921 1.79537 0
M  V30 4994 C 469.39 4.37659 0.956991 0
M  V30 4995 C 471.134 3.41936 2.51555 0
M  V30 4996 C 469.041 5.64411 1.76619 0
M  V30 4997 H 467.971 0.656841 0.370237 0
M  V30 4998 H 470.622 1.81969 0.236556 0
M  V30 4999 H 469.004 3.00241 2.58208 0
M  V30 5000 H 470.178 4.60307 0.21315 0
M  V30 5001 H 468.493 4.14922 0.350497 0
M  V30 5002 H 471.09 4.33849 3.12536 0
M  V30 5003 H 471.433 2.62905 3.22779 0
M  V30 5004 H 471.966 3.54797 1.799 0
M  V30 5005 H 468.705 6.46241 1.09783 0
M  V30 5006 H 468.225 5.45877 2.48551 0
M  V30 5007 H 469.904 6.03386 2.33527 0
M  V30 5008 N 470.036 -0.519951 1.48776 0
M  V30 5009 C 471.261 -1.30447 1.6124 0
M  V30 5010 C 471.686 -1.86055 0.276591 0
M  V30 5011 O 471.044 -1.64915 -0.753183 0
M  V30 5012 C 471.092 -2.42406 2.66967 0
M  V30 5013 O 470.196 -3.45728 2.24824 0
M  V30 5014 H 469.537 -0.385924 0.540332 0
M  V30 5015 H 472.067 -0.624572 1.94834 0
M  V30 5016 H 472.077 -2.88447 2.88552 0
M  V30 5017 H 470.752 -2.01294 3.63941 0
M  V30 5018 H 469.329 -3.05737 2.13494 0
M  V30 5019 N 471.514 -1.37532 -0.769588 0
M  V30 5020 C 472.742 -1.36059 -1.55871 0
M  V30 5021 C 473.157 0.053544 -1.88724 0
M  V30 5022 O 472.514 1.01591 -1.5161 0
M  V30 5023 C 472.565 -2.20107 -2.86767 0
M  V30 5024 O 472.286 -3.56009 -2.55321 0
M  V30 5025 C 473.787 -2.26636 -3.80987 0
M  V30 5026 H 471.007 -0.465967 -0.482821 0
M  V30 5027 H 473.551 -1.80901 -0.953686 0
M  V30 5028 H 471.706 -1.78768 -3.43687 0
M  V30 5029 H 472.12 -4.0009 -3.39158 0
M  V30 5030 H 473.594 -2.89763 -4.69831 0
M  V30 5031 H 474.071 -1.2754 -4.20274 0
M  V30 5032 H 474.677 -2.68296 -3.29996 0
M  V30 5033 N 472.992 0.995999 -1.22138 0
M  V30 5034 C 474.238 1.73767 -1.04561 0
M  V30 5035 C 474.571 1.89633 0.418698 0
M  V30 5036 O 473.846 1.43723 1.3105 0
M  V30 5037 C 474.129 3.14505 -1.75382 0
M  V30 5038 C 473.982 3.06306 -3.29388 0
M  V30 5039 C 475.301 4.13615 -1.50369 0
M  V30 5040 H 472.42 0.630728 -0.38125 0
M  V30 5041 H 475.062 1.16057 -1.50435 0
M  V30 5042 H 473.212 3.63775 -1.36383 0
M  V30 5043 H 474.884 2.64681 -3.77812 0
M  V30 5044 H 473.127 2.43186 -3.59226 0
M  V30 5045 H 473.798 4.05884 -3.74116 0
M  V30 5046 H 476.274 3.73089 -1.84239 0
M  V30 5047 H 475.15 5.10212 -2.02421 0
M  V30 5048 H 475.411 4.39949 -0.435611 0
M  V30 5049 N 474.47 1.03057 1.19235 0
M  V30 5050 C 475.7 0.746613 1.92638 0
M  V30 5051 C 476.108 -0.698708 1.75826 0
M  V30 5052 O 475.451 -1.487 1.07861 0
M  V30 5053 C 475.513 1.02024 3.44719 0
M  V30 5054 C 475.177 2.45745 3.85303 0
M  V30 5055 C 476.174 3.43887 3.8992 0
M  V30 5056 C 473.859 2.8019 4.16892 0
M  V30 5057 C 475.853 4.74529 4.2556 0
M  V30 5058 C 473.54 4.1104 4.52205 0
M  V30 5059 C 474.538 5.0802 4.56513 0
M  V30 5060 O 474.226 6.36527 4.91008 0
M  V30 5061 H 473.958 0.272401 0.618687 0
M  V30 5062 H 476.512 1.37853 1.52269 0
M  V30 5063 H 474.742 0.331184 3.85279 0
M  V30 5064 H 476.431 0.725677 3.9936 0
M  V30 5065 H 477.197 3.18614 3.65664 0
M  V30 5066 H 473.076 2.05382 4.12722 0
M  V30 5067 H 476.62 5.50222 4.28838 0
M  V30 5068 H 472.517 4.36086 4.7592 0
M  V30 5069 H 473.285 6.41025 5.08949 0
M  V30 5070 N 475.948 -1.35272 0.808662 0
M  V30 5071 C 476.911 -2.28082 0.226093 0
M  V30 5072 C 477.911 -1.49673 -0.587762 0
M  V30 5073 O 479.101 -1.69404 -0.405943 0
M  V30 5074 C 476.233 -3.33955 -0.684596 0
M  V30 5075 H 477.426 -2.81116 1.04469 0
M  V30 5076 H 474.979 -1.45162 0.579466 0
M  V30 5077 H 475.714 -2.86111 -1.5268 0
M  V30 5078 H 475.499 -3.91965 -0.102699 0
M  V30 5079 H 476.989 -4.03219 -1.08646 0
M  V30 5080 N 477.426 -0.562348 -1.47226 0
M  V30 5081 C 478.374 0.195476 -2.31777 0
M  V30 5082 C 479.368 0.90433 -1.43242 0
M  V30 5083 O 480.574 0.825031 -1.59979 0
M  V30 5084 H 476.949 0.0819095 -0.747526 0
M  V30 5085 H 478.92 -0.536753 -2.93533 0
M  V30 5086 C 477.669 1.20902 -3.26003 0
M  V30 5087 H 476.992 0.672997 -3.94095 0
M  V30 5088 H 478.432 1.71006 -3.87986 0
M  V30 5089 C 476.891 2.25955 -2.49891 0
M  V30 5090 O 477.421 3.32969 -2.2471 0
M  V30 5091 N 475.627 2.00019 -2.1081 0
M  V30 5092 H 475.174 1.13006 -2.31489 0
M  V30 5093 H 475.132 2.70523 -1.60201 0
M  V30 5094 N 478.904 1.54736 -0.299062 0
M  V30 5095 C 480.181 1.92187 0.363802 0
M  V30 5096 C 480.561 1.22607 1.71845 0
M  V30 5097 O 479.909 0.361141 2.25628 0
M  V30 5098 C 480.119 3.45678 0.480377 0
M  V30 5099 C 481.467 4.17885 0.752147 0
M  V30 5100 O 482.491 3.51702 0.564264 0
M  V30 5101 O 481.35 5.35048 1.11294 0
M  V30 5102 H 478.444 0.801681 0.203066 0
M  V30 5103 H 480.99 1.66115 -0.346978 0
M  V30 5104 H 479.762 3.88443 -0.471999 0
M  V30 5105 H 479.385 3.77779 1.2397 0
M  V30 5106 N 480.382 0.0267497 1.57577 0
M  V30 5107 C 481.63 -0.651116 1.91324 0
M  V30 5108 C 481.951 -1.72804 0.90353 0
M  V30 5109 O 481.221 -1.95822 -0.0552946 0
M  V30 5110 H 479.801 -0.243491 0.706202 0
M  V30 5111 H 482.463 0.0739935 1.94759 0
M  V30 5112 H 481.559 -1.10536 2.9187 0
M  V30 5113 N 481.861 -1.55662 -0.24637 0
M  V30 5114 C 483.109 -1.77168 -0.972411 0
M  V30 5115 C 483.43 -0.590827 -1.85834 0
M  V30 5116 O 482.7 0.393365 -1.9191 0
M  V30 5117 H 481.28 -0.653405 -0.362038 0
M  V30 5118 H 483.942 -1.93101 -0.264189 0
M  V30 5119 H 483.038 -2.68335 -1.59382 0
M  V30 5120 N 483.339 0.512053 -1.4905 0
M  V30 5121 C 484.588 1.26343 -1.57227 0
M  V30 5122 C 484.901 1.93876 -0.259155 0
M  V30 5123 O 486.107 2.70612 -0.219358 0
M  V30 5124 C 484.563 2.29343 -2.77362 0
M  V30 5125 C 484.171 1.67799 -4.15388 0
M  V30 5126 C 485.915 3.05378 -2.94864 0
M  V30 5127 C 483.822 2.68845 -5.2676 0
M  V30 5128 H 482.752 0.475231 -0.585382 0
M  V30 5129 H 485.403 0.53862 -1.75417 0
M  V30 5130 H 483.785 3.04938 -2.52643 0
M  V30 5131 H 484.959 0.982715 -4.50199 0
M  V30 5132 H 483.274 1.04194 -4.03153 0
M  V30 5133 H 485.871 3.80921 -3.75238 0
M  V30 5134 H 486.214 3.62327 -2.05 0
M  V30 5135 H 486.747 2.36898 -3.19569 0
M  V30 5136 H 483.486 2.16692 -6.18647 0
M  V30 5137 H 483.006 3.36647 -4.96416 0
M  V30 5138 H 484.685 3.31487 -5.5563 0
M  V30 5139 N 484.817 1.37938 0.762283 0
M  V30 5140 C 486.066 1.32989 1.51647 0
M  V30 5141 C 486.379 -0.0802922 1.95435 0
M  V30 5142 O 487.585 -0.252295 2.70325 0
M  V30 5143 C 486.041 2.33485 2.73885 0
M  V30 5144 C 485.649 3.80079 2.37157 0
M  V30 5145 C 487.393 2.37563 3.51801 0
M  V30 5146 C 485.3 4.72283 3.55954 0
M  V30 5147 H 484.23 0.494301 0.56937 0
M  V30 5148 H 486.881 1.63448 0.834083 0
M  V30 5149 H 485.263 1.96056 3.44061 0
M  V30 5150 H 486.437 4.26398 1.74704 0
M  V30 5151 H 484.752 3.79037 1.72395 0
M  V30 5152 H 487.349 3.0365 4.40114 0
M  V30 5153 H 487.692 1.39199 3.92338 0
M  V30 5154 H 488.225 2.73747 2.8863 0
M  V30 5155 H 484.964 5.7181 3.2049 0
M  V30 5156 H 484.484 4.30663 4.1748 0
M  V30 5157 H 486.163 4.89876 4.22647 0
M  V30 5158 N 486.295 -0.989507 1.22664 0
M  V30 5159 C 487.541 -1.7321 1.05481 0
M  V30 5160 C 487.874 -1.89852 -0.408635 0
M  V30 5161 O 487.149 -1.44416 -1.30285 0
M  V30 5162 C 487.432 -3.1357 1.77047 0
M  V30 5163 C 487.285 -3.04555 3.31008 0
M  V30 5164 C 488.604 -4.12812 1.5256 0
M  V30 5165 H 485.723 -0.628697 0.384589 0
M  V30 5166 H 488.365 -1.15258 1.51049 0
M  V30 5167 H 486.515 -3.63046 1.3831 0
M  V30 5168 H 488.187 -2.62674 3.7921 0
M  V30 5169 H 486.43 -2.41278 3.6051 0
M  V30 5170 H 487.101 -4.03894 3.76263 0
M  V30 5171 H 489.577 -3.72106 1.86215 0
M  V30 5172 H 488.453 -5.09132 2.05124 0
M  V30 5173 H 488.714 -4.39711 0.458936 0
M  V30 5174 N 487.773 -1.03688 -1.18687 0
M  V30 5175 C 489.019 -0.739123 -1.88851 0
M  V30 5176 C 489.352 0.731042 -1.79915 0
M  V30 5177 O 488.627 1.53313 -1.19688 0
M  V30 5178 C 488.91 -1.20106 -3.3948 0
M  V30 5179 C 488.763 -2.73304 -3.57246 0
M  V30 5180 C 490.082 -0.788134 -4.32986 0
M  V30 5181 H 487.201 -0.269978 -0.68577 0
M  V30 5182 H 489.843 -1.28822 -1.3966 0
M  V30 5183 H 487.993 -0.733915 -3.81505 0
M  V30 5184 H 489.665 -3.28027 -3.24339 0
M  V30 5185 H 487.908 -3.13313 -3.00029 0
M  V30 5186 H 488.579 -3.00684 -4.62918 0
M  V30 5187 H 491.055 -1.19005 -3.98719 0
M  V30 5188 H 489.931 -1.13915 -5.36949 0
M  V30 5189 H 490.192 0.308988 -4.41019 0
M  V30 5190 N 489.251 1.34841 -0.815825 0
M  V30 5191 C 490.497 1.98793 -0.401129 0
M  V30 5192 C 490.83 1.64548 1.03139 0
M  V30 5193 O 490.105 0.913487 1.71714 0
M  V30 5194 C 490.388 3.55143 -0.595409 0
M  V30 5195 C 490.241 3.99155 -2.07352 0
M  V30 5196 C 491.56 4.40092 -0.0268823 0
M  V30 5197 H 488.679 0.722146 -0.14722 0
M  V30 5198 H 491.321 1.59847 -1.02707 0
M  V30 5199 H 489.471 3.8845 -0.0625779 0
M  V30 5200 H 491.143 3.76216 -2.66945 0
M  V30 5201 H 489.386 3.49726 -2.56659 0
M  V30 5202 H 490.057 5.07971 -2.1603 0
M  V30 5203 H 492.533 4.13298 -0.482042 0
M  V30 5204 H 491.409 5.48562 -0.19267 0
M  V30 5205 H 491.67 4.29016 1.06759 0
M  V30 5206 O 490.768 0.711044 1.45005 0
M  V30 5207 H 491.459 0.254759 1.92017 0
M  V30 END ATOM
M  V30 BEGIN BOND
M  V30 END BOND
M  V30 END CTAB
M  END
$$$$
