drugbank_target|B0B3C9 Genome polyprotein (DB05521; DB08873; DB09297; DB11575; DB12026)
 OpenBabel12092120573D

  0  0  0     0  0            999 V3000
M  V30 BEGIN CTAB
M  V30 COUNTS 10178 10293 0 0 0
M  V30 BEGIN ATOM
M  V30 1 H -0.908 1.98254 -0.117106 0
M  V30 2 N 0 1.576 0 0
M  V30 3 C 0.963 2.07369 0.976253 0
M  V30 4 C 1.963 0.98309 1.27248 0
M  V30 5 O 3.153 1.24574 1.21766 0
M  V30 6 C 0.285 2.51514 2.30116 0
M  V30 7 H 1.478 2.94892 0.545759 0
M  V30 8 H -0.969 1.54328 0.247471 0
M  V30 9 H -0.234 1.67234 2.77855 0
M  V30 10 H -0.449 3.31163 2.09937 0
M  V30 11 H 1.041 2.90345 3.00149 0
M  V30 12 N 1.4781 -0.272755 1.55222 0
M  V30 13 C 2.8891 -0.84378 1.66545 0
M  V30 14 C 3.2401 -1.87035 0.592641 0
M  V30 15 O 2.3651 -2.14761 -0.265818 0
M  V30 16 C 2.9601 -1.53723 3.01918 0
M  V30 17 C 1.5191 -2.05628 3.15268 0
M  V30 18 C 0.6661 -0.898424 2.62343 0
M  V30 19 H 3.6171 -0.0490998 1.58624 0
M  V30 20 H 3.6381 -2.40421 2.94921 0
M  V30 21 H 3.1501 -0.78983 3.79978 0
M  V30 22 H 1.2511 -2.83329 2.41983 0
M  V30 23 H 1.3641 -2.27142 4.21833 0
M  V30 24 H -0.2719 -1.29186 2.19506 0
M  V30 25 H 0.5111 -0.164528 3.42906 0
M  V30 26 N 2.9562 -1.48159 -0.537278 0
M  V30 27 C 4.2052 -1.5506 -1.28993 0
M  V30 28 C 4.5182 -0.226211 -1.94288 0
M  V30 29 O 5.7242 -0.173395 -2.70946 0
M  V30 30 C 4.1802 -2.73429 -2.34018 0
M  V30 31 C 3.7882 -4.1248 -1.74825 0
M  V30 32 C 5.5322 -2.89638 -3.10339 0
M  V30 33 C 3.4392 -5.22121 -2.77747 0
M  V30 34 H 2.3692 -0.577231 -0.485098 0
M  V30 35 H 5.0202 -1.74478 -0.568317 0
M  V30 36 H 3.4022 -2.47431 -3.09182 0
M  V30 37 H 4.5762 -4.48466 -1.05899 0
M  V30 38 H 2.8912 -4.01327 -1.11022 0
M  V30 39 H 5.4882 -3.68718 -3.87235 0
M  V30 40 H 5.8312 -1.9882 -3.65754 0
M  V30 41 H 6.3642 -3.15502 -2.42288 0
M  V30 42 H 3.1032 -6.1488 -2.27161 0
M  V30 43 H 2.6232 -4.90631 -3.45024 0
M  V30 44 H 4.3022 -5.49924 -3.4087 0
M  V30 45 N 4.4343 0.785586 -1.36625 0
M  V30 46 C 5.6623 1.57448 -1.3423 0
M  V30 47 C 6.0773 1.88649 0.0755653 0
M  V30 48 O 5.4343 1.50414 1.03354 0
M  V30 49 C 5.4853 2.89316 -2.16745 0
M  V30 50 O 5.2063 2.59459 -3.53005 0
M  V30 51 C 6.7073 3.83606 -2.22174 0
M  V30 52 H 3.9273 0.488226 -0.4603 0
M  V30 53 H 6.4713 0.974733 -1.79775 0
M  V30 54 H 4.6263 3.4575 -1.74745 0
M  V30 55 H 5.0403 3.43804 -3.96105 0
M  V30 56 H 6.5143 4.73181 -2.8426 0
M  V30 57 H 6.9913 4.21734 -1.22627 0
M  V30 58 H 7.5973 3.33104 -2.64427 0
M  V30 59 N 5.9124 1.20967 1.01018 0
M  V30 60 C 6.8754 0.965918 2.07853 0
M  V30 61 C 7.8754 -0.0610545 1.60684 0
M  V30 62 O 9.0654 0.175681 1.73312 0
M  V30 63 C 6.1974 0.455513 3.37843 0
M  V30 64 H 7.3904 1.91365 2.3091 0
M  V30 65 H 4.9434 1.02594 1.17916 0
M  V30 66 H 5.6784 -0.497381 3.20463 0
M  V30 67 H 5.4634 1.19622 3.73407 0
M  V30 68 H 6.9534 0.304667 4.16487 0
M  V30 69 N 7.3905 -1.2043 1.01659 0
M  V30 70 C 8.6205 -1.93496 0.724081 0
M  V30 71 C 9.0285 -1.74998 -0.71918 0
M  V30 72 O 8.3715 -1.06118 -1.49949 0
M  V30 73 C 8.4335 -3.45886 0.97994 0
M  V30 74 C 8.0975 -3.88145 2.41232 0
M  V30 75 C 9.0945 -3.93907 3.39313 0
M  V30 76 C 6.7795 -4.20134 2.75305 0
M  V30 77 C 8.7735 -4.31069 4.6953 0
M  V30 78 C 6.4605 -4.56971 4.05735 0
M  V30 79 C 7.4585 -4.62411 5.02658 0
M  V30 80 O 7.1465 -4.98403 6.30754 0
M  V30 81 H 6.8785 -0.621824 0.265162 0
M  V30 82 H 9.4325 -1.53867 1.36066 0
M  V30 83 H 7.6625 -3.85639 0.286198 0
M  V30 84 H 9.3515 -4.0018 0.679021 0
M  V30 85 H 10.1175 -3.69357 3.14325 0
M  V30 86 H 5.9965 -4.1509 2.00551 0
M  V30 87 H 9.5405 -4.3523 5.45179 0
M  V30 88 H 5.4375 -4.80977 4.30502 0
M  V30 89 H 6.2055 -5.16395 6.35042 0
M  V30 90 N 8.8686 -0.792821 -1.36206 0
M  V30 91 C 9.8316 -0.199459 -2.2833 0
M  V30 92 C 10.8316 0.605189 -1.48977 0
M  V30 93 O 12.0216 0.425685 -1.68919 0
M  V30 94 C 9.1536 0.723523 -3.33134 0
M  V30 95 H 10.3466 -1.01181 -2.82316 0
M  V30 96 H 7.8996 -0.562485 -1.45828 0
M  V30 97 H 8.6346 1.56008 -2.84309 0
M  V30 98 H 8.4196 0.148436 -3.91819 0
M  V30 99 H 9.9096 1.13344 -4.01924 0
M  V30 100 N 10.3467 1.47872 -0.545128 0
M  V30 101 C 11.2787 2.27869 0.246621 0
M  V30 102 C 12.2917 1.36282 0.890561 0
M  V30 103 O 13.4807 1.61207 0.766449 0
M  V30 104 C 10.5807 3.10159 1.36582 0
M  V30 105 C 9.7537 4.29627 0.820954 0
M  V30 106 C 8.8127 4.93607 1.82314 0
M  V30 107 O 7.8387 5.52366 1.37406 0
M  V30 108 N 9.0407 4.87211 3.15603 0
M  V30 109 H 11.8057 2.96459 -0.439539 0
M  V30 110 H 9.3667 1.57367 -0.380421 0
M  V30 111 H 11.3587 3.49829 2.03474 0
M  V30 112 H 9.9287 2.43891 1.9554 0
M  V30 113 H 9.1487 3.94192 -0.0244032 0
M  V30 114 H 10.4367 5.06928 0.436063 0
M  V30 115 H 9.8347 4.40651 3.54744 0
M  V30 116 H 8.3917 5.30937 3.78087 0
M  V30 117 N 11.8248 0.280983 1.55075 0
M  V30 118 C 12.7568 -0.637268 2.20163 0
M  V30 119 C 13.7698 -1.11298 1.18813 0
M  V30 120 O 14.9588 -1.03388 1.4551 0
M  V30 121 C 12.0588 -1.88199 2.81841 0
M  V30 122 C 11.2318 -1.55211 4.08936 0
M  V30 123 C 10.2908 -2.64991 4.54606 0
M  V30 124 O 9.3168 -2.30929 5.2025 0
M  V30 125 N 10.5188 -3.95161 4.25238 0
M  V30 126 H 13.2838 -0.0801694 2.99593 0
M  V30 127 H 10.8448 0.102329 1.61576 0
M  V30 128 H 12.8368 -2.60948 3.09335 0
M  V30 129 H 11.4068 -2.34799 2.06369 0
M  V30 130 H 10.6268 -0.658185 3.88666 0
M  V30 131 H 11.9148 -1.30681 4.91732 0
M  V30 132 H 11.3128 -4.25653 3.72607 0
M  V30 133 H 9.8698 -4.6427 4.5749 0
M  V30 134 N 13.3029 -1.57598 0.00835791 0
M  V30 135 C 14.5309 -1.95214 -0.68549 0
M  V30 136 C 14.9459 -0.883706 -1.66841 0
M  V30 137 O 14.3029 0.136565 -1.81988 0
M  V30 138 C 14.3539 -3.32865 -1.41007 0
M  V30 139 O 14.0749 -4.35609 -0.466552 0
M  V30 140 C 15.5759 -3.84991 -2.19765 0
M  V30 141 H 12.7959 -0.643422 -0.190392 0
M  V30 142 H 15.3399 -2.04406 0.0619607 0
M  V30 143 H 13.4949 -3.24956 -2.10908 0
M  V30 144 H 13.9089 -5.15288 -0.978699 0
M  V30 145 H 15.3829 -4.8371 -2.65948 0
M  V30 146 H 15.8599 -3.18137 -3.02796 0
M  V30 147 H 16.4659 -3.96103 -1.54864 0
M  V30 148 N 14.781 0.264519 -1.55364 0
M  V30 149 C 16.197 0.61215 -1.47394 0
M  V30 150 C 16.397 1.89134 -0.695018 0
M  V30 151 O 15.453 2.51563 -0.217275 0
M  V30 152 C 16.766 0.731235 -2.91674 0
M  V30 153 C 18.314 0.82473 -3.01939 0
M  V30 154 C 18.789 0.975522 -4.4749 0
M  V30 155 N 20.28 1.04083 -4.51354 0
M  V30 156 C 21.015 1.17646 -5.61201 0
M  V30 157 N 20.511 1.27874 -6.80896 0
M  V30 158 N 22.304 1.20823 -5.48961 0
M  V30 159 H 14.455 -0.575456 -2.04456 0
M  V30 160 H 16.718 -0.196099 -0.927496 0
M  V30 161 H 16.424 -0.138392 -3.51428 0
M  V30 162 H 16.298 1.60883 -3.41169 0
M  V30 163 H 18.685 1.68482 -2.42276 0
M  V30 164 H 18.766 -0.0776479 -2.55682 0
M  V30 165 H 18.41 0.120058 -5.07758 0
M  V30 166 H 18.34 1.89268 -4.91412 0
M  V30 167 H 20.831 0.973846 -3.65136 0
M  V30 168 H 21.144 1.38081 -7.60364 0
M  V30 169 H 19.489 1.24863 -6.83692 0
M  V30 170 H 22.68 1.12469 -4.54388 0
M  V30 171 H 22.853 1.31049 -6.3461 0
M  V30 172 N 16.2591 1.48442 0.529413 0
M  V30 173 C 17.5071 1.56179 1.28267 0
M  V30 174 C 17.8281 0.237721 1.93546 0
M  V30 175 O 17.0981 -0.740779 1.81354 0
M  V30 176 H 15.6781 0.575367 0.476405 0
M  V30 177 H 18.3401 1.84909 0.61602 0
M  V30 178 H 17.4361 2.34312 2.06165 0
M  V30 179 N 17.7372 -0.778329 1.37039 0
M  V30 180 C 18.6672 -1.90546 1.34962 0
M  V30 181 C 19.6482 -1.68681 0.219274 0
M  V30 182 O 20.8332 -1.89634 0.418624 0
M  V30 183 C 17.9632 -3.27734 1.14925 0
M  V30 184 C 16.9172 -3.64147 2.24902 0
M  V30 185 C 16.2432 -4.99806 1.89996 0
M  V30 186 C 17.5432 -3.71579 3.67051 0
M  V30 187 H 19.2372 -1.92541 2.29277 0
M  V30 188 H 16.7832 -0.924948 1.10366 0
M  V30 189 H 18.7362 -4.06215 1.12104 0
M  V30 190 H 17.4602 -3.26154 0.170631 0
M  V30 191 H 16.1192 -2.8797 2.26868 0
M  V30 192 H 15.7672 -4.94759 0.906796 0
M  V30 193 H 15.4672 -5.25139 2.63634 0
M  V30 194 H 16.9912 -5.80694 1.88749 0
M  V30 195 H 18.4052 -4.40227 3.67251 0
M  V30 196 H 16.8022 -4.08405 4.39688 0
M  V30 197 H 17.8722 -2.72404 4.01154 0
M  V30 198 N 19.2153 -1.21501 -1.00376 0
M  V30 199 C 20.1453 -0.999478 -2.11028 0
M  V30 200 C 21.1263 0.0759671 -1.6993 0
M  V30 201 O 22.3113 -0.0841106 -1.94018 0
M  V30 202 C 19.4413 -0.564709 -3.42678 0
M  V30 203 C 18.3953 -1.58486 -3.97576 0
M  V30 204 C 17.7213 -1.00628 -5.25146 0
M  V30 205 C 19.0213 -2.97204 -4.29496 0
M  V30 206 H 20.7153 -1.92495 -2.29317 0
M  V30 207 H 18.2613 -0.92693 -1.102 0
M  V30 208 H 20.2143 -0.401091 -4.19487 0
M  V30 209 H 18.9383 0.396411 -3.24185 0
M  V30 210 H 17.5973 -1.73606 -3.22888 0
M  V30 211 H 17.2453 -0.0368439 -5.02987 0
M  V30 212 H 16.9453 -1.68771 -5.62841 0
M  V30 213 H 18.4693 -0.854015 -6.04598 0
M  V30 214 H 19.8833 -2.8552 -4.97143 0
M  V30 215 H 18.2803 -3.62372 -4.78338 0
M  V30 216 H 19.3503 -3.47956 -3.3772 0
M  V30 217 N 20.6934 1.19889 -1.02296 0
M  V30 218 C 21.9414 1.89046 -0.714558 0
M  V30 219 C 22.2624 1.79636 0.758681 0
M  V30 220 O 21.5324 1.20292 1.54618 0
M  V30 221 H 20.1124 0.699802 -0.261317 0
M  V30 222 H 22.7744 1.45574 -1.29592 0
M  V30 223 H 21.8704 2.95524 -1.0036 0
M  V30 224 N 22.1715 0.800033 1.35784 0
M  V30 225 C 23.3995 0.389606 2.03199 0
M  V30 226 C 23.8145 -0.997375 1.60306 0
M  V30 227 O 23.1715 -1.64154 0.797481 0
M  V30 228 C 23.2225 0.455855 3.58614 0
M  V30 229 O 22.9435 1.78815 3.99946 0
M  V30 230 C 24.4445 0.0374032 4.43284 0
M  V30 231 H 21.6645 0.159132 0.651857 0
M  V30 232 H 24.2085 1.08183 1.73541 0
M  V30 233 H 22.3635 -0.188057 3.86943 0
M  V30 234 H 22.7775 1.74636 4.94573 0
M  V30 235 H 24.2515 0.134882 5.51835 0
M  V30 236 H 24.7285 -1.01651 4.27275 0
M  V30 237 H 25.3345 0.654215 4.20238 0
M  V30 238 N 23.6496 -1.47581 0.552962 0
M  V30 239 C 24.8986 -2.01684 0.0251995 0
M  V30 240 C 25.2116 -1.43317 -1.33115 0
M  V30 241 O 26.4176 -1.89057 -1.94858 0
M  V30 242 C 24.8736 -3.599 -0.00542052 0
M  V30 243 C 24.4816 -4.27257 1.34742 0
M  V30 244 C 26.2256 -4.21768 -0.4808 0
M  V30 245 C 24.1326 -5.77467 1.27614 0
M  V30 246 H 23.0626 -0.753979 0.00565033 0
M  V30 247 H 25.7136 -1.69616 0.70018 0
M  V30 248 H 24.0956 -3.88911 -0.745961 0
M  V30 249 H 25.2696 -4.09893 2.10534 0
M  V30 250 H 23.5846 -3.77358 1.76039 0
M  V30 251 H 26.1816 -5.31838 -0.55246 0
M  V30 252 H 26.5246 -3.88651 -1.49184 0
M  V30 253 H 27.0576 -3.97273 0.204752 0
M  V30 254 H 23.7966 -6.15196 2.26304 0
M  V30 255 H 23.3166 -5.9718 0.55996 0
M  V30 256 H 24.9956 -6.3959 0.976421 0
M  V30 257 N 25.1277 -0.289203 -1.54924 0
M  V30 258 C 26.3737 0.323998 -2.00195 0
M  V30 259 C 26.7067 1.54441 -1.17735 0
M  V30 260 O 25.9817 1.92875 -0.250878 0
M  V30 261 C 26.2647 0.692276 -3.53383 0
M  V30 262 C 26.1177 -0.536457 -4.46589 0
M  V30 263 C 27.4367 1.52335 -4.12895 0
M  V30 264 H 24.5557 0.116289 -0.727768 0
M  V30 265 H 27.1977 -0.398954 -1.85764 0
M  V30 266 H 25.3477 1.30822 -3.65811 0
M  V30 267 H 27.0197 -1.17499 -4.46085 0
M  V30 268 H 25.2627 -1.17192 -4.1767 0
M  V30 269 H 25.9337 -0.234806 -5.515 0
M  V30 270 H 28.4097 1.00302 -4.0383 0
M  V30 271 H 27.2857 1.74982 -5.20262 0
M  V30 272 H 27.5467 2.50886 -3.64018 0
M  V30 273 N 26.6058 1.57591 -0.0167156 0
M  V30 274 C 27.8338 1.95575 0.675128 0
M  V30 275 C 28.2488 0.892542 1.6637 0
M  V30 276 O 27.6058 -0.126912 1.82058 0
M  V30 277 C 27.6568 3.33608 1.39239 0
M  V30 278 O 27.3778 4.3585 0.443444 0
M  V30 279 C 28.8788 3.86151 2.17721 0
M  V30 280 H 26.0988 0.644423 0.186978 0
M  V30 281 H 28.6428 2.0437 -0.0728 0
M  V30 282 H 26.7978 3.2607 2.09182 0
M  V30 283 H 27.2118 5.158 0.951358 0
M  V30 284 H 28.6858 4.85114 2.63379 0
M  V30 285 H 29.1628 3.19738 3.01105 0
M  V30 286 H 29.7688 3.96918 1.52761 0
M  V30 287 N 28.0839 -0.256276 1.55502 0
M  V30 288 C 29.3319 -0.983672 1.76545 0
M  V30 289 C 29.6529 -1.86206 0.578982 0
M  V30 290 O 28.9229 -1.91656 -0.405577 0
M  V30 291 H 27.5029 -0.366191 0.651086 0
M  V30 292 H 30.1649 -0.276479 1.92929 0
M  V30 293 H 29.2609 -1.61087 2.67315 0
M  V30 294 N 29.562 -1.4872 -0.521534 0
M  V30 295 C 30.492 -1.66771 -1.63431 0
M  V30 296 C 31.473 -0.516499 -1.62069 0
M  V30 297 O 32.658 -0.750013 -1.79132 0
M  V30 298 C 29.788 -1.71515 -3.01993 0
M  V30 299 C 28.742 -2.86222 -3.18216 0
M  V30 300 C 28.068 -2.76061 -4.57924 0
M  V30 301 C 29.368 -4.27419 -3.00184 0
M  V30 302 H 31.062 -2.59932 -1.48579 0
M  V30 303 H 28.608 -1.25089 -0.713358 0
M  V30 304 H 30.561 -1.82731 -3.7972 0
M  V30 305 H 29.285 -0.749393 -3.17886 0
M  V30 306 H 27.944 -2.74575 -2.42908 0
M  V30 307 H 27.592 -1.77437 -4.70665 0
M  V30 308 H 27.292 -3.53037 -4.69722 0
M  V30 309 H 28.816 -2.89256 -5.37739 0
M  V30 310 H 30.23 -4.39855 -3.67697 0
M  V30 311 H 28.627 -5.05458 -3.2347 0
M  V30 312 H 29.697 -4.43293 -1.96518 0
M  V30 313 N 31.0401 0.771051 -1.3745 0
M  V30 314 C 32.2681 1.56015 -1.35893 0
M  V30 315 C 32.6831 1.88718 0.0555523 0
M  V30 316 O 32.0401 1.51502 1.01752 0
M  V30 317 C 32.0911 2.87001 -2.19801 0
M  V30 318 O 31.8121 2.557 -3.55738 0
M  V30 319 C 33.3131 3.81228 -2.26231 0
M  V30 320 H 30.5331 0.483317 -0.465453 0
M  V30 321 H 33.0771 0.955611 -1.80799 0
M  V30 322 H 31.2321 3.43877 -1.78402 0
M  V30 323 H 31.6461 3.39584 -3.99729 0
M  V30 324 H 33.1201 4.70139 -2.89263 0
M  V30 325 H 33.5971 4.20409 -1.27093 0
M  V30 326 H 34.2031 3.30281 -2.67945 0
M  V30 327 N 32.5182 1.22032 0.997298 0
M  V30 328 C 33.7662 1.04016 1.73278 0
M  V30 329 C 34.0872 -0.426255 1.90284 0
M  V30 330 O 33.3572 -1.30694 1.45931 0
M  V30 331 H 31.9372 0.381897 0.642 0
M  V30 332 H 34.5992 1.5347 1.20137 0
M  V30 333 H 33.6952 1.51441 2.72896 0
M  V30 334 N 33.9963 -1.19345 1.0293 0
M  V30 335 C 35.4123 -1.41069 0.746446 0
M  V30 336 C 35.6123 -1.90078 -0.668776 0
M  V30 337 O 34.6683 -2.0778 -1.4347 0
M  V30 338 C 35.9813 -2.42141 1.78292 0
M  V30 339 C 37.5293 -2.55887 1.80252 0
M  V30 340 C 38.0043 -3.60214 2.8286 0
M  V30 341 N 39.4953 -3.67711 2.81679 0
M  V30 342 C 40.2303 -4.48128 3.57727 0
M  V30 343 N 39.7263 -5.32248 4.43491 0
M  V30 344 N 41.5193 -4.42782 3.46267 0
M  V30 345 H 33.6703 -0.858536 1.94275 0
M  V30 346 H 35.9333 -0.439541 0.839945 0
M  V30 347 H 35.6393 -2.13155 2.79746 0
M  V30 348 H 35.5133 -3.41323 1.60557 0
M  V30 349 H 37.9003 -2.84196 0.794757 0
M  V30 350 H 37.9813 -1.56858 2.02062 0
M  V30 351 H 37.6253 -3.32647 3.83807 0
M  V30 352 H 37.5553 -4.58895 2.58307 0
M  V30 353 H 40.0463 -3.07634 2.19476 0
M  V30 354 H 40.3593 -5.90729 4.98256 0
M  V30 355 H 38.7043 -5.31707 4.47564 0
M  V30 356 H 41.8953 -3.76107 2.78677 0
M  V30 357 H 42.0683 -5.05215 4.05785 0
M  V30 358 N 35.4744 -0.807222 -1.35358 0
M  V30 359 C 36.7514 -0.311126 -1.9311 0
M  V30 360 C 37.1314 1.19937 -1.73719 0
M  V30 361 O 36.4794 1.99918 -1.10657 0
M  V30 362 C 36.6894 -0.723226 -3.41424 0
M  V30 363 C 38.0374 -0.713078 -4.18569 0
M  V30 364 O 39.0614 -0.664811 -3.49941 0
M  V30 365 O 37.9204 -0.772022 -5.41019 0
M  V30 366 H 35.0144 -0.081526 -0.822972 0
M  V30 367 H 37.5604 -0.890962 -1.4443 0
M  V30 368 H 36.3324 -1.76426 -3.4927 0
M  V30 369 H 35.9554 -0.118232 -3.97424 0
M  V30 370 N 36.9525 1.47285 -0.560781 0
M  V30 371 C 37.8995 2.30058 0.18491 0
M  V30 372 C 38.8695 1.39281 0.904986 0
M  V30 373 O 40.0545 1.68241 0.899979 0
M  V30 374 C 37.1945 3.23317 1.20666 0
M  V30 375 C 36.3075 4.29186 0.492285 0
M  V30 376 C 35.4425 5.09592 1.49964 0
M  V30 377 C 34.4815 6.07232 0.770439 0
M  V30 378 N 33.6185 6.80584 1.72479 0
M  V30 379 H 38.4585 2.93302 -0.527048 0
M  V30 380 H 35.9955 1.44568 -0.271738 0
M  V30 381 H 37.9535 3.75811 1.81168 0
M  V30 382 H 36.5835 2.61929 1.88661 0
M  V30 383 H 35.6355 3.7972 -0.227333 0
M  V30 384 H 36.9475 4.98738 -0.0787929 0
M  V30 385 H 36.1015 5.66254 2.17809 0
M  V30 386 H 34.8405 4.3995 2.10464 0
M  V30 387 H 33.8455 5.49745 0.0780846 0
M  V30 388 H 35.0705 6.78884 0.171134 0
M  V30 389 H 33.0165 6.1367 2.3183 0
M  V30 390 H 32.9335 7.46319 1.20596 0
M  V30 391 H 34.2015 7.41818 2.39428 0
M  V30 392 N 38.4306 0.297415 1.54768 0
M  V30 393 C 39.3786 -0.596051 2.24833 0
M  V30 394 C 40.3726 -1.13992 1.25308 0
M  V30 395 O 41.5786 -1.09098 1.4317 0
M  V30 396 H 37.9536 -0.210814 0.721846 0
M  V30 397 H 39.9246 0.0174667 2.98395 0
M  V30 398 C 38.6736 -1.75818 2.99972 0
M  V30 399 H 37.9966 -1.3489 3.76357 0
M  V30 400 H 39.4366 -2.35949 3.52284 0
M  V30 401 C 37.8956 -2.66014 2.06732 0
M  V30 402 O 38.4256 -3.67009 1.63302 0
M  V30 403 N 36.6316 -2.33669 1.72763 0
M  V30 404 H 36.1786 -1.51586 2.08277 0
M  V30 405 H 36.1366 -2.94285 1.10652 0
M  V30 406 N 39.9087 -1.5758 0.0250728 0
M  V30 407 C 41.1547 -1.91917 -0.655413 0
M  V30 408 C 41.4877 -0.901433 -1.72011 0
M  V30 409 O 40.7627 0.0764069 -1.9435 0
M  V30 410 C 41.0457 -3.36751 -1.27558 0
M  V30 411 C 40.8987 -4.49258 -0.220719 0
M  V30 412 C 42.2177 -3.81469 -2.19475 0
M  V30 413 H 39.3367 -0.697925 -0.23679 0
M  V30 414 H 41.9787 -1.89825 0.0815036 0
M  V30 415 H 40.1287 -3.38664 -1.90365 0
M  V30 416 H 41.8007 -4.59478 0.409601 0
M  V30 417 H 40.0437 -4.31415 0.454264 0
M  V30 418 H 40.7147 -5.47618 -0.694175 0
M  V30 419 H 43.1907 -3.81266 -1.66659 0
M  V30 420 H 42.0667 -4.83512 -2.59822 0
M  V30 421 H 42.3277 -3.16744 -3.08424 0
M  V30 422 N 41.3868 0.248026 -1.55636 0
M  V30 423 C 42.6328 0.97767 -1.77678 0
M  V30 424 C 42.9658 1.85016 -0.590135 0
M  V30 425 O 42.2408 1.90095 0.411611 0
M  V30 426 C 42.5238 1.83914 -3.09593 0
M  V30 427 C 42.3768 0.99491 -4.38659 0
M  V30 428 C 43.6958 2.82183 -3.37729 0
M  V30 429 H 40.8148 0.354005 -0.646413 0
M  V30 430 H 43.4568 0.248253 -1.88371 0
M  V30 431 H 41.6068 2.46104 -3.00608 0
M  V30 432 H 43.2788 0.391789 -4.59633 0
M  V30 433 H 41.5218 0.299231 -4.32767 0
M  V30 434 H 42.1928 1.63145 -5.2734 0
M  V30 435 H 44.6688 2.30129 -3.4667 0
M  V30 436 H 43.5448 3.39582 -4.31249 0
M  V30 437 H 43.8058 3.58588 -2.58586 0
M  V30 438 N 42.8649 1.48995 0.513639 0
M  V30 439 C 44.0929 1.61531 1.29288 0
M  V30 440 C 44.5079 0.281801 1.86685 0
M  V30 441 O 43.8649 -0.731111 1.67215 0
M  V30 442 C 43.9159 2.67449 2.43215 0
M  V30 443 O 43.6369 3.95626 1.88179 0
M  V30 444 C 45.1379 2.90575 3.34785 0
M  V30 445 H 42.3579 0.544165 0.392588 0
M  V30 446 H 44.9019 1.9494 0.617956 0
M  V30 447 H 43.0569 2.36853 3.0656 0
M  V30 448 H 43.4709 4.53868 2.62876 0
M  V30 449 H 44.9449 3.68449 4.11035 0
M  V30 450 H 45.4219 2.00011 3.91015 0
M  V30 451 H 46.0279 3.22538 2.77218 0
M  V30 452 N 44.343 -0.763751 1.37857 0
M  V30 453 C 45.591 -1.51957 1.33243 0
M  V30 454 C 45.912 -1.94835 -0.0801709 0
M  V30 455 O 45.182 -1.66894 -1.02582 0
M  V30 456 H 43.762 -0.563626 0.49024 0
M  V30 457 H 46.424 -0.908504 1.7243 0
M  V30 458 H 45.52 -2.41523 1.97669 0
M  V30 459 N 45.8211 -1.22559 -0.990812 0
M  V30 460 C 46.7311 -1.01394 -2.11557 0
M  V30 461 C 47.7471 0.0383962 -1.73958 0
M  V30 462 O 48.9231 -0.154787 -2.00804 0
M  V30 463 C 45.9881 -0.596569 -3.41529 0
M  V30 464 C 45.0491 -1.72276 -3.93217 0
M  V30 465 C 44.2821 -1.32521 -5.16985 0
M  V30 466 O 44.5051 -0.204909 -5.70032 0
M  V30 467 O 43.4391 -2.14247 -5.62478 0
M  V30 468 H 47.2651 -1.95633 -2.32296 0
M  V30 469 H 44.8501 -1.01172 -1.0993 0
M  V30 470 H 46.7321 -0.374263 -4.19735 0
M  V30 471 H 45.4071 0.316939 -3.22145 0
M  V30 472 H 44.3141 -1.99961 -3.16174 0
M  V30 473 H 45.6471 -2.61421 -4.17037 0
M  V30 474 N 47.2992 1.18797 -1.03562 0
M  V30 475 C 48.5452 1.8893 -0.737113 0
M  V30 476 C 48.8782 1.79837 0.732956 0
M  V30 477 O 48.1532 1.19525 1.5344 0
M  V30 478 C 48.4362 3.39607 -1.19745 0
M  V30 479 C 48.2892 3.57537 -2.72924 0
M  V30 480 C 49.6082 4.33069 -0.783526 0
M  V30 481 H 46.7272 0.686057 -0.269249 0
M  V30 482 H 49.3692 1.39797 -1.28673 0
M  V30 483 H 47.5192 3.81583 -0.729855 0
M  V30 484 H 49.1912 3.24688 -3.27682 0
M  V30 485 H 47.4342 3.00363 -3.12993 0
M  V30 486 H 48.1052 4.63238 -3.00191 0
M  V30 487 H 50.5812 3.98846 -1.18581 0
M  V30 488 H 49.4572 5.3707 -1.13343 0
M  V30 489 H 49.7182 4.40986 0.313681 0
M  V30 490 N 48.7773 0.814389 1.34928 0
M  V30 491 C 49.7093 0.187834 2.28429 0
M  V30 492 C 50.7223 -0.617374 1.5064 0
M  V30 493 O 51.9113 -0.448454 1.72775 0
M  V30 494 C 49.0113 -0.755962 3.30361 0
M  V30 495 C 48.1843 0.00456686 4.374 0
M  V30 496 C 47.2433 -0.858876 5.19143 0
M  V30 497 O 46.2693 -0.306968 5.68372 0
M  V30 498 N 47.4713 -2.17988 5.38016 0
M  V30 499 H 50.2363 0.991105 2.82838 0
M  V30 500 H 47.7973 0.670561 1.4736 0
M  V30 501 H 49.7893 -1.338 3.81942 0
M  V30 502 H 48.3593 -1.46001 2.7641 0
M  V30 503 H 47.5793 0.767865 3.86649 0
M  V30 504 H 48.8673 0.528422 5.06049 0
M  V30 505 H 48.2653 -2.65212 4.99679 0
M  V30 506 H 46.8223 -2.71098 5.92747 0
M  V30 507 N 50.2554 -1.46986 0.568584 0
M  V30 508 C 51.5014 -2.02741 0.0488709 0
M  V30 509 C 51.8344 -1.44077 -1.30214 0
M  V30 510 O 51.1094 -0.600552 -1.84996 0
M  V30 511 C 51.3924 -3.60086 -0.032047 0
M  V30 512 C 51.2454 -4.29162 1.34686 0
M  V30 513 C 52.5644 -4.33838 -0.739798 0
M  V30 514 H 49.6834 -0.736749 0.0192338 0
M  V30 515 H 52.3254 -1.75289 0.733065 0
M  V30 516 H 50.4754 -3.83606 -0.61473 0
M  V30 517 H 52.1474 -4.16948 1.97362 0
M  V30 518 H 50.3904 -3.89073 1.91846 0
M  V30 519 H 51.0614 -5.37826 1.24285 0
M  V30 520 H 53.5374 -4.15378 -0.244939 0
M  V30 521 H 52.4134 -5.43537 -0.765406 0
M  V30 522 H 52.6744 -4.03875 -1.79827 0
M  V30 523 N 51.7335 -0.305618 -1.54608 0
M  V30 524 C 52.6635 0.561482 -2.26649 0
M  V30 525 C 53.6445 1.13415 -1.26772 0
M  V30 526 O 54.8295 1.16262 -1.55553 0
M  V30 527 C 51.9595 1.73122 -3.01075 0
M  V30 528 C 50.9135 1.2887 -4.08138 0
M  V30 529 C 50.2395 2.54396 -4.70305 0
M  V30 530 C 51.5395 0.416578 -5.20636 0
M  V30 531 H 53.2335 -0.0393902 -2.99374 0
M  V30 532 H 50.7795 -0.020385 -1.43986 0
M  V30 533 H 52.7325 2.34396 -3.50195 0
M  V30 534 H 51.4565 2.3584 -2.25936 0
M  V30 535 H 50.1155 0.698991 -3.59875 0
M  V30 536 H 49.7635 3.15439 -3.918 0
M  V30 537 H 49.4635 2.25486 -5.42614 0
M  V30 538 H 50.9875 3.16464 -5.2219 0
M  V30 539 H 52.4015 0.935116 -5.65622 0
M  V30 540 H 50.7985 0.221046 -5.99693 0
M  V30 541 H 51.8685 -0.557162 -4.81688 0
M  V30 542 N 53.2116 1.57565 -0.0334293 0
M  V30 543 C 54.4366 1.96689 0.657895 0
M  V30 544 C 54.8616 0.910057 1.64619 0
M  V30 545 O 54.2196 -0.128598 1.80843 0
M  V30 546 C 54.2676 3.34905 1.33683 0
M  V30 547 O 53.3716 3.31574 2.45219 0
M  V30 548 H 52.7126 0.641205 0.172489 0
M  V30 549 H 55.2426 2.04372 -0.0965621 0
M  V30 550 H 55.2526 3.71234 1.69262 0
M  V30 551 H 53.9276 4.11366 0.612411 0
M  V30 552 H 52.5046 3.06968 2.11719 0
M  V30 553 N 54.6897 -0.239769 1.55765 0
M  V30 554 C 55.9177 -0.98417 1.81994 0
M  V30 555 C 56.3327 -1.7867 0.610124 0
M  V30 556 O 55.6897 -1.77571 -0.421271 0
M  V30 557 C 55.7407 -1.91635 3.06526 0
M  V30 558 O 55.4617 -1.14629 4.22838 0
M  V30 559 C 56.9627 -2.77616 3.45607 0
M  V30 560 H 54.1827 -0.28928 0.605441 0
M  V30 561 H 56.7267 -0.260499 2.02834 0
M  V30 562 H 54.8817 -2.5942 2.87715 0
M  V30 563 H 55.2957 -1.77745 4.93464 0
M  V30 564 H 56.7697 -3.38759 4.35828 0
M  V30 565 H 57.2467 -3.4909 2.6652 0
M  V30 566 H 57.8527 -2.15271 3.66795 0
M  V30 567 N 56.1678 -1.49265 -0.50573 0
M  V30 568 C 57.1308 -1.65075 -1.59006 0
M  V30 569 C 58.1308 -0.522768 -1.52065 0
M  V30 570 O 59.3208 -0.789117 -1.55302 0
M  V30 571 C 56.4528 -1.64369 -2.98656 0
M  V30 572 H 57.6458 -2.61784 -1.46319 0
M  V30 573 H 55.1988 -1.38226 -0.729616 0
M  V30 574 H 55.9338 -0.692272 -3.16825 0
M  V30 575 H 55.7188 -2.46282 -3.05103 0
M  V30 576 H 57.2088 -1.78674 -3.77446 0
M  V30 577 N 57.6459 0.756429 -1.3826 0
M  V30 578 C 58.8739 1.54565 -1.3754 0
M  V30 579 C 59.2889 1.88767 0.0355331 0
M  V30 580 O 58.6459 1.52572 1.0014 0
M  V30 581 C 58.6969 2.84654 -2.22833 0
M  V30 582 O 58.4179 2.51912 -3.5843 0
M  V30 583 C 59.9189 3.78807 -2.30261 0
M  V30 584 H 57.1389 0.478353 -0.470553 0
M  V30 585 H 59.6829 0.936381 -1.81803 0
M  V30 586 H 57.8379 3.41965 -1.8204 0
M  V30 587 H 58.2519 3.35325 -4.03308 0
M  V30 588 H 59.7259 4.67045 -2.94233 0
M  V30 589 H 60.2029 4.19038 -1.31545 0
M  V30 590 H 60.8089 3.2742 -2.71433 0
M  V30 591 N 59.124 1.23083 0.984299 0
M  V30 592 C 60.056 0.96636 2.07832 0
M  V30 593 C 61.069 -0.0582135 1.62696 0
M  V30 594 O 62.258 0.176843 1.77622 0
M  V30 595 C 59.358 0.433397 3.36117 0
M  V30 596 C 58.531 1.51722 4.10243 0
M  V30 597 C 57.59 0.989821 5.16807 0
M  V30 598 O 56.616 1.67794 5.43906 0
M  V30 599 N 57.818 -0.184367 5.80207 0
M  V30 600 H 60.583 1.90824 2.31098 0
M  V30 601 H 58.144 1.13888 1.1507 0
M  V30 602 H 60.136 0.065699 4.04647 0
M  V30 603 H 58.706 -0.413806 3.09849 0
M  V30 604 H 57.926 2.05786 3.36223 0
M  V30 605 H 59.214 2.24619 4.56534 0
M  V30 606 H 58.612 -0.760062 5.60571 0
M  V30 607 H 57.169 -0.493366 6.4993 0
M  V30 608 N 60.6021 -1.18246 1.0419 0
M  V30 609 C 61.8301 -1.92195 0.766072 0
M  V30 610 C 62.2451 -1.76247 -0.676933 0
M  V30 611 O 61.6021 -1.09293 -1.46155 0
M  V30 612 C 61.6531 -3.43568 1.12442 0
M  V30 613 O 61.3741 -3.59015 2.51078 0
M  V30 614 C 62.8751 -4.34613 0.873275 0
M  V30 615 H 60.0951 -0.610114 0.279288 0
M  V30 616 H 62.6391 -1.50007 1.38989 0
M  V30 617 H 60.7941 -3.8354 0.545542 0
M  V30 618 H 61.2081 -4.5273 2.64831 0
M  V30 619 H 62.6821 -5.39374 1.17385 0
M  V30 620 H 63.1591 -4.38781 -0.191909 0
M  V30 621 H 63.7651 -4.00341 1.43551 0
M  V30 622 N 62.0802 -0.821533 -1.34494 0
M  V30 623 C 63.3272 -0.408946 -1.98328 0
M  V30 624 C 63.6552 1.02764 -1.65136 0
M  V30 625 O 62.9102 1.73026 -0.914349 0
M  V30 626 C 63.2092 -0.556512 -3.53041 0
M  V30 627 C 62.8752 -1.95861 -4.0614 0
M  V30 628 C 61.5372 -2.34217 -4.20352 0
M  V30 629 C 63.8892 -2.87523 -4.34718 0
M  V30 630 C 61.2172 -3.63572 -4.6047 0
M  V30 631 C 63.5692 -4.1634 -4.76281 0
M  V30 632 C 62.2332 -4.54675 -4.88699 0
M  V30 633 H 61.5032 -0.149644 -0.725732 0
M  V30 634 H 64.1502 -1.04521 -1.6046 0
M  V30 635 H 62.4552 0.163148 -3.9146 0
M  V30 636 H 64.1522 -0.217826 -4.00408 0
M  V30 637 H 60.7422 -1.65066 -3.95539 0
M  V30 638 H 64.9262 -2.59133 -4.23277 0
M  V30 639 H 60.1822 -3.93101 -4.68275 0
M  V30 640 H 64.3562 -4.87455 -4.97354 0
M  V30 641 H 61.9832 -5.54959 -5.19542 0
M  V30 642 N 63.5583 1.46682 -0.576371 0
M  V30 643 C 64.4883 2.33028 0.148397 0
M  V30 644 C 65.4693 1.44961 0.889956 0
M  V30 645 O 66.6543 1.73789 0.866662 0
M  V30 646 C 63.7843 3.27117 1.1667 0
M  V30 647 C 62.7383 4.24575 0.540386 0
M  V30 648 C 62.0643 5.08126 1.6647 0
M  V30 649 C 63.3643 5.19722 -0.518331 0
M  V30 650 H 65.0583 2.93875 -0.572509 0
M  V30 651 H 62.6043 1.41315 -0.276768 0
M  V30 652 H 64.5573 3.86374 1.68204 0
M  V30 653 H 63.2813 2.64364 1.9178 0
M  V30 654 H 61.9403 3.66571 0.0461769 0
M  V30 655 H 61.5883 4.41762 2.40531 0
M  V30 656 H 61.2883 5.74122 1.25131 0
M  V30 657 H 62.8123 5.70246 2.18293 0
M  V30 658 H 64.2263 5.73232 -0.0883058 0
M  V30 659 H 62.6233 5.94026 -0.851679 0
M  V30 660 H 63.6933 4.64037 -1.40703 0
M  V30 661 N 65.0364 0.313813 1.54444 0
M  V30 662 C 66.2844 -0.291099 1.99993 0
M  V30 663 C 66.6054 -1.53418 1.20366 0
M  V30 664 O 65.8754 -1.93544 0.302927 0
M  V30 665 H 64.4554 -0.110552 0.738774 0
M  V30 666 H 67.1174 0.428106 1.9014 0
M  V30 667 H 66.2134 -0.554268 3.07139 0
M  V30 668 N 66.5145 -1.57545 0.0417849 0
M  V30 669 C 67.7425 -1.96624 -0.643928 0
M  V30 670 C 68.1575 -0.918897 -1.64929 0
M  V30 671 O 67.5145 0.0979323 -1.82237 0
M  V30 672 C 67.5655 -3.35781 -1.33914 0
M  V30 673 O 67.2865 -4.365 -0.374048 0
M  V30 674 C 68.7875 -3.89566 -2.1155 0
M  V30 675 H 66.0075 -0.647316 -0.176702 0
M  V30 676 H 68.5515 -2.04229 0.105304 0
M  V30 677 H 66.7065 -3.29357 -2.03968 0
M  V30 678 H 67.1205 -5.17248 -0.869179 0
M  V30 679 H 68.5945 -4.89242 -2.55628 0
M  V30 680 H 69.0715 -3.24488 -2.9598 0
M  V30 681 H 69.6775 -3.99298 -1.46427 0
M  V30 682 N 67.9926 0.231505 -1.5589 0
M  V30 683 C 69.2206 0.974505 -1.82513 0
M  V30 684 C 69.6356 1.78344 -0.619591 0
M  V30 685 O 68.9926 1.77792 0.411848 0
M  V30 686 C 69.0436 1.90007 -3.07538 0
M  V30 687 O 68.7646 1.12385 -4.2344 0
M  V30 688 C 70.2656 2.75779 -3.47075 0
M  V30 689 H 67.4856 0.286065 -0.606966 0
M  V30 690 H 70.0296 0.249739 -2.02969 0
M  V30 691 H 68.1846 2.57891 -2.89086 0
M  V30 692 H 68.5986 1.75125 -4.944 0
M  V30 693 H 70.0726 3.36443 -4.37619 0
M  V30 694 H 70.5496 3.47672 -2.68367 0
M  V30 695 H 71.1556 2.13323 -3.67931 0
M  V30 696 N 69.4707 1.49531 0.497807 0
M  V30 697 C 70.7167 1.59415 1.25358 0
M  V30 698 C 71.0497 0.281422 1.9215 0
M  V30 699 O 70.3247 -0.715249 1.80871 0
M  V30 700 C 70.6077 2.75566 2.3181 0
M  V30 701 C 70.4607 4.16642 1.69498 0
M  V30 702 C 71.7797 2.87347 3.33346 0
M  V30 703 H 68.8987 0.580244 0.454408 0
M  V30 704 H 71.5407 1.81827 0.551262 0
M  V30 705 H 69.6907 2.56587 2.91711 0
M  V30 706 H 71.3627 4.47145 1.13399 0
M  V30 707 H 69.6057 4.22141 0.998978 0
M  V30 708 H 70.2767 4.93792 2.46725 0
M  V30 709 H 72.7527 3.04634 2.83438 0
M  V30 710 H 71.6287 3.70289 4.05188 0
M  V30 711 H 71.8897 1.96834 3.95865 0
M  V30 712 N 70.9488 -0.749086 1.3866 0
M  V30 713 C 72.1968 -1.50535 1.34847 0
M  V30 714 C 72.5178 -1.94909 -0.0595016 0
M  V30 715 O 71.7878 -1.67973 -1.00806 0
M  V30 716 H 70.3678 -0.558395 0.49619 0
M  V30 717 H 73.0298 -0.890165 1.73384 0
M  V30 718 H 72.1258 -2.39413 2.00219 0
M  V30 719 N 72.4269 -1.23603 -0.977757 0
M  V30 720 C 73.6749 -1.06759 -1.71601 0
M  V30 721 C 73.9959 0.395929 -1.90938 0
M  V30 722 O 73.2659 1.28356 -1.47992 0
M  V30 723 H 71.8459 -0.392062 -0.635843 0
M  V30 724 H 74.5079 -1.55362 -1.1768 0
M  V30 725 H 73.6039 -1.55763 -2.70452 0
M  V30 726 N 73.905 1.17692 -1.04816 0
M  V30 727 C 75.151 1.88137 -0.75711 0
M  V30 728 C 75.484 1.80604 0.713841 0
M  V30 729 O 74.759 1.21146 1.52164 0
M  V30 730 C 75.042 3.38318 -1.2334 0
M  V30 731 C 74.895 3.54622 -2.76701 0
M  V30 732 C 76.214 4.32214 -0.829415 0
M  V30 733 H 73.333 0.683163 -0.27651 0
M  V30 734 H 75.975 1.38424 -1.30149 0
M  V30 735 H 74.125 3.80787 -0.770286 0
M  V30 736 H 75.797 3.21194 -3.31107 0
M  V30 737 H 74.04 2.97026 -3.16161 0
M  V30 738 H 74.711 4.60028 -3.05088 0
M  V30 739 H 77.187 3.97565 -1.22805 0
M  V30 740 H 76.063 5.35838 -1.19033 0
M  V30 741 H 76.324 4.41294 0.266891 0
M  V30 742 N 75.3831 0.828654 1.34056 0
M  V30 743 C 76.3161 0.199763 2.27324 0
M  V30 744 C 77.2941 -0.647168 1.49166 0
M  V30 745 O 78.4781 -0.609661 1.78369 0
M  V30 746 C 75.6051 -0.720455 3.30949 0
M  V30 747 C 74.6511 0.0496888 4.26471 0
M  V30 748 S 75.4841 1.40072 5.16856 0
M  V30 749 C 76.6401 0.485527 6.24014 0
M  V30 750 H 76.8731 0.990478 2.80316 0
M  V30 751 H 74.4061 0.624857 1.41191 0
M  V30 752 H 76.3641 -1.24581 3.91139 0
M  V30 753 H 75.0251 -1.48474 2.76793 0
M  V30 754 H 74.2181 -0.650104 4.9979 0
M  V30 755 H 73.8201 0.505779 3.70564 0
M  V30 756 H 76.1121 -0.320672 6.76741 0
M  V30 757 H 77.0551 1.18856 6.98054 0
M  V30 758 H 77.4631 0.0714109 5.64455 0
M  V30 759 N 76.8612 -1.46375 0.584142 0
M  V30 760 C 78.1072 -2.03248 0.0787103 0
M  V30 761 C 78.4622 -1.44737 -1.26763 0
M  V30 762 O 77.7552 -0.603625 -1.81843 0
M  V30 763 C 77.9492 -3.57373 -0.0439342 0
M  V30 764 C 77.7782 -4.30831 1.28897 0
M  V30 765 C 76.5482 -4.69683 1.8635 0
M  V30 766 C 78.7462 -4.64278 2.21248 0
M  V30 767 N 76.7282 -5.27898 3.13365 0
M  V30 768 C 78.0992 -5.23078 3.32851 0
M  V30 769 C 80.1542 -4.46209 2.20911 0
M  V30 770 C 78.8572 -5.65715 4.44251 0
M  V30 771 C 80.8832 -4.89864 3.31341 0
M  V30 772 C 80.2452 -5.48736 4.41665 0
M  V30 773 H 76.3442 -0.778714 0.0716144 0
M  V30 774 H 78.9282 -1.78509 0.777355 0
M  V30 775 H 77.0992 -3.81823 -0.711749 0
M  V30 776 H 78.8312 -4.00892 -0.553881 0
M  V30 777 H 75.5862 -4.52488 1.39826 0
M  V30 778 H 76.0102 -5.61525 3.78178 0
M  V30 779 H 80.6522 -4.00027 1.36888 0
M  V30 780 H 78.3702 -6.10875 5.29015 0
M  V30 781 H 81.9562 -4.77634 3.322 0
M  V30 782 H 80.8362 -5.81898 5.25704 0
M  V30 783 N 78.3393 -0.321999 -1.54275 0
M  V30 784 C 79.5673 0.283052 -2.04955 0
M  V30 785 C 79.9823 1.45904 -1.19823 0
M  V30 786 O 79.3393 1.81063 -0.228545 0
M  V30 787 C 79.3903 0.719028 -3.54277 0
M  V30 788 O 79.1113 -0.410175 -4.36176 0
M  V30 789 C 80.6123 1.38705 -4.21041 0
M  V30 790 H 77.8323 0.0584616 -0.668448 0
M  V30 791 H 80.3763 -0.467734 -1.99079 0
M  V30 792 H 78.5313 1.41979 -3.60445 0
M  V30 793 H 78.9453 -0.0669416 -5.24457 0
M  V30 794 H 80.4193 1.64306 -5.2698 0
M  V30 795 H 80.8963 2.33385 -3.72059 0
M  V30 796 H 81.5023 0.728906 -4.19007 0
M  V30 797 N 79.8174 1.5752 -0.0501392 0
M  V30 798 C 81.0634 1.92936 0.624798 0
M  V30 799 C 81.3964 0.928685 1.70555 0
M  V30 800 O 80.6714 -0.0454779 1.94447 0
M  V30 801 C 80.9544 3.38737 1.22185 0
M  V30 802 C 80.8074 4.49552 0.149218 0
M  V30 803 C 82.1264 3.84913 2.13378 0
M  V30 804 H 79.2454 0.701604 0.225657 0
M  V30 805 H 81.8874 1.89671 -0.111693 0
M  V30 806 H 80.0374 3.4165 1.84953 0
M  V30 807 H 81.7094 4.58768 -0.482648 0
M  V30 808 H 79.9524 4.30638 -0.522841 0
M  V30 809 H 80.6234 5.48653 0.606966 0
M  V30 810 H 83.0994 3.8387 1.60572 0
M  V30 811 H 81.9754 4.87584 2.52097 0
M  V30 812 H 82.2364 3.21611 3.03346 0
M  V30 813 N 81.2955 -0.223234 1.56011 0
M  V30 814 C 82.5255 -0.963413 1.82762 0
M  V30 815 C 82.9335 -1.78516 0.626804 0
M  V30 816 O 82.2765 -1.78974 -0.414014 0
M  V30 817 C 82.3385 -1.93126 3.0322 0
M  V30 818 C 82.0025 -1.2942 4.38291 0
M  V30 819 C 82.9995 -0.684916 5.15369 0
M  V30 820 C 80.6845 -1.30647 4.85012 0
M  V30 821 C 82.6785 -0.0963971 6.37327 0
M  V30 822 C 80.3655 -0.71411 6.06913 0
M  V30 823 C 81.3635 -0.110123 6.82911 0
M  V30 824 O 81.0515 0.47303 8.02507 0
M  V30 825 H 80.7835 -0.288011 0.611576 0
M  V30 826 H 83.3375 -0.244103 2.03944 0
M  V30 827 H 81.5675 -2.68952 2.77852 0
M  V30 828 H 83.2565 -2.53685 3.16857 0
M  V30 829 H 84.0225 -0.667774 4.80381 0
M  V30 830 H 79.9015 -1.76598 4.25833 0
M  V30 831 H 83.4455 0.375657 6.96588 0
M  V30 832 H 79.3425 -0.728659 6.41374 0
M  V30 833 H 80.1105 0.367186 8.17676 0
M  V30 834 N 82.7736 -1.49793 -0.48987 0
M  V30 835 C 83.7236 -1.63673 -1.5873 0
M  V30 836 C 84.7076 -0.491956 -1.53195 0
M  V30 837 O 85.8996 -0.745461 -1.60536 0
M  V30 838 C 83.0286 -1.71689 -2.97284 0
M  V30 839 C 82.1146 -2.91781 -3.07774 0
M  V30 840 N 82.5056 -4.15714 -2.88124 0
M  V30 841 C 80.8036 -2.89949 -3.38889 0
M  V30 842 C 81.5046 -4.965 -3.03088 0
M  V30 843 N 80.4806 -4.30083 -3.3246 0
M  V30 844 H 84.2826 -2.57204 -1.42208 0
M  V30 845 H 81.7966 -1.46719 -0.69623 0
M  V30 846 H 83.7936 -1.79732 -3.76168 0
M  V30 847 H 82.4536 -0.793024 -3.14867 0
M  V30 848 H 83.4646 -4.45515 -2.64077 0
M  V30 849 H 80.1416 -2.06987 -3.62578 0
M  V30 850 H 81.5316 -6.04991 -2.92294 0
M  V30 851 N 84.2517 0.741722 -1.39055 0
M  V30 852 C 85.4997 1.49818 -1.35643 0
M  V30 853 C 85.8207 1.94938 0.0491642 0
M  V30 854 O 85.0907 1.68505 0.999141 0
M  V30 855 H 83.6707 0.555755 -0.499144 0
M  V30 856 H 86.3327 0.880957 -1.73854 0
M  V30 857 H 85.4287 2.38348 -2.01486 0
M  V30 858 N 85.7298 1.2412 0.971189 0
M  V30 859 C 86.6928 1.03156 2.04674 0
M  V30 860 C 87.6928 -0.00990322 1.60797 0
M  V30 861 O 88.8828 0.230729 1.72665 0
M  V30 862 C 86.0148 0.562765 3.36223 0
M  V30 863 H 87.2078 1.98614 2.24705 0
M  V30 864 H 84.7608 1.06293 1.14593 0
M  V30 865 H 85.4958 -0.395176 3.21883 0
M  V30 866 H 85.2808 1.31441 3.69413 0
M  V30 867 H 86.7708 0.437015 4.15307 0
M  V30 868 N 87.2079 -1.17134 1.05439 0
M  V30 869 C 88.4559 -1.87085 0.764429 0
M  V30 870 C 88.7769 -1.81584 -0.710787 0
M  V30 871 O 88.0469 -1.24349 -1.51374 0
M  V30 872 H 86.6269 -0.692627 0.279779 0
M  V30 873 H 89.2889 -1.42087 1.33406 0
M  V30 874 H 88.3849 -2.92759 1.0816 0
M  V30 875 N 88.686 -0.835752 -1.33615 0
M  V30 876 C 89.911 -0.442389 -2.02627 0
M  V30 877 C 90.336 0.947735 -1.62479 0
M  V30 878 O 89.694 1.61907 -0.815826 0
M  V30 879 C 89.742 -0.567216 -3.56111 0
M  V30 880 O 88.846 0.407799 -4.10379 0
M  V30 881 H 88.187 -0.180278 -0.639059 0
M  V30 882 H 90.717 -1.12972 -1.70583 0
M  V30 883 H 90.727 -0.447708 -4.05536 0
M  V30 884 H 89.402 -1.58103 -3.84677 0
M  V30 885 H 87.979 0.246107 -3.72087 0
M  V30 886 N 90.1641 1.46063 -0.591896 0
M  V30 887 C 91.5801 1.57561 -0.254288 0
M  V30 888 C 91.7801 1.58565 1.24336 0
M  V30 889 O 90.8361 1.50753 2.02558 0
M  V30 890 C 92.1491 2.86549 -0.911611 0
M  V30 891 C 93.6971 3.00197 -0.886059 0
M  V30 892 C 94.1721 4.31933 -1.5231 0
M  V30 893 N 95.6631 4.38654 -1.48786 0
M  V30 894 C 96.3981 5.39222 -1.95006 0
M  V30 895 N 95.8941 6.46414 -2.49241 0
M  V30 896 N 97.6871 5.3048 -1.85868 0
M  V30 897 H 89.8381 1.43655 -1.56451 0
M  V30 898 H 92.1011 0.68583 -0.654478 0
M  V30 899 H 91.8071 2.91651 -1.96551 0
M  V30 900 H 91.6811 3.74794 -0.425368 0
M  V30 901 H 94.0681 2.9467 0.159246 0
M  V30 902 H 94.1491 2.13403 -1.41041 0
M  V30 903 H 93.7931 4.38217 -2.56765 0
M  V30 904 H 93.7231 5.17516 -0.973891 0
M  V30 905 H 96.2141 3.61793 -1.09151 0
M  V30 906 H 96.5271 7.19376 -2.82344 0
M  V30 907 H 94.8721 6.47208 -2.53272 0
M  V30 908 H 98.0631 4.45643 -1.43248 0
M  V30 909 H 98.2361 6.08711 -2.22204 0
M  V30 910 N 91.6422 0.330177 1.54103 0
M  V30 911 C 92.8702 -0.272179 2.05102 0
M  V30 912 C 93.2852 -1.45267 1.20595 0
M  V30 913 O 92.6422 -1.8094 0.238144 0
M  V30 914 C 92.6932 -0.70023 3.54653 0
M  V30 915 O 92.4142 0.433301 4.35952 0
M  V30 916 C 93.9152 -1.3647 4.21771 0
M  V30 917 H 91.1352 -0.0549159 0.668749 0
M  V30 918 H 93.6792 0.478285 1.98828 0
M  V30 919 H 91.8342 -1.40066 3.61193 0
M  V30 920 H 92.2482 0.0947539 5.24414 0
M  V30 921 H 93.7222 -1.61509 5.27843 0
M  V30 922 H 94.1992 -2.31409 3.73292 0
M  V30 923 H 94.8052 -0.706675 4.19388 0
M  V30 924 N 93.1203 -1.57491 0.0584922 0
M  V30 925 C 94.0503 -2.14988 -0.911178 0
M  V30 926 C 95.0313 -1.07343 -1.31952 0
M  V30 927 O 96.2163 -1.35318 -1.39294 0
M  V30 928 C 93.3463 -2.70078 -2.18347 0
M  V30 929 C 92.3003 -3.82771 -1.91495 0
M  V30 930 C 91.6263 -4.24408 -3.25241 0
M  V30 931 C 92.9263 -5.07592 -1.23075 0
M  V30 932 H 94.6203 -2.96263 -0.432246 0
M  V30 933 H 92.1663 -1.42512 -0.206469 0
M  V30 934 H 94.1193 -3.08943 -2.86587 0
M  V30 935 H 92.8433 -1.86005 -2.68458 0
M  V30 936 H 91.5023 -3.44389 -1.25664 0
M  V30 937 H 91.1503 -3.37275 -3.73168 0
M  V30 938 H 90.8503 -5.00366 -3.08071 0
M  V30 939 H 92.3743 -4.65879 -3.94701 0
M  V30 940 H 93.7883 -5.43857 -1.81362 0
M  V30 941 H 92.1853 -5.88741 -1.16207 0
M  V30 942 H 93.2553 -4.84454 -0.207847 0
M  V30 943 N 94.5984 0.214957 -1.56127 0
M  V30 944 C 95.5614 1.24997 -1.92116 0
M  V30 945 C 96.5614 1.39467 -0.800344 0
M  V30 946 O 97.7514 1.37619 -1.06802 0
M  V30 947 C 94.8834 2.62271 -2.17777 0
M  V30 948 H 96.0764 0.942875 -2.84693 0
M  V30 949 H 93.6294 0.455654 -1.49511 0
M  V30 950 H 94.3644 2.98068 -1.27773 0
M  V30 951 H 94.1494 2.53143 -2.99434 0
M  V30 952 H 95.6394 3.36946 -2.46693 0
M  V30 953 N 96.0765 1.50051 0.48192 0
M  V30 954 C 97.3245 1.60181 1.23234 0
M  V30 955 C 97.6455 0.299176 1.92691 0
M  V30 956 O 96.9155 -0.682708 1.83619 0
M  V30 957 H 95.4955 0.590232 0.457859 0
M  V30 958 H 98.1575 1.86775 0.556881 0
M  V30 959 H 97.2535 2.40753 1.98607 0
M  V30 960 N 97.5546 -0.734337 1.39446 0
M  V30 961 C 98.5176 -1.83004 1.37994 0
M  V30 962 C 99.5176 -1.58397 0.276938 0
M  V30 963 O 100.708 -1.65785 0.534875 0
M  V30 964 C 97.8396 -3.20802 1.1532 0
M  V30 965 H 99.0326 -1.85694 2.35494 0
M  V30 966 H 96.5856 -0.938059 1.25021 0
M  V30 967 H 97.3206 -3.23772 0.185036 0
M  V30 968 H 97.1056 -3.4006 1.95197 0
M  V30 969 H 98.5956 -4.00862 1.17046 0
M  V30 970 N 99.0327 -1.24633 -0.964593 0
M  V30 971 C 99.9797 -1.04144 -2.05968 0
M  V30 972 C 100.95 0.046262 -1.66036 0
M  V30 973 O 102.135 -0.108972 -1.90489 0
M  V30 974 C 99.2747 -0.65563 -3.38815 0
M  V30 975 C 98.3877 -1.81714 -3.91923 0
M  V30 976 C 97.5227 -1.37662 -5.13052 0
M  V30 977 C 96.5617 -2.50788 -5.58365 0
M  V30 978 N 95.6987 -2.07582 -6.70712 0
M  V30 979 H 100.539 -1.9787 -2.22827 0
M  V30 980 H 98.0757 -0.9855 -1.09208 0
M  V30 981 H 100.034 -0.412954 -4.15151 0
M  V30 982 H 98.6637 0.244627 -3.21872 0
M  V30 983 H 97.7157 -2.1734 -3.12198 0
M  V30 984 H 99.0277 -2.66705 -4.21509 0
M  V30 985 H 98.1817 -1.093 -5.96773 0
M  V30 986 H 96.9207 -0.497293 -4.85158 0
M  V30 987 H 95.9257 -2.79906 -4.73215 0
M  V30 988 H 97.1507 -3.39283 -5.88272 0
M  V30 989 H 95.0967 -1.22051 -6.44546 0
M  V30 990 H 95.0137 -2.86125 -6.99763 0
M  V30 991 H 96.2817 -1.82369 -7.57867 0
M  V30 992 N 100.511 1.16574 -1.06058 0
M  V30 993 C 101.461 2.18854 -0.63929 0
M  V30 994 C 102.445 1.57505 0.328798 0
M  V30 995 O 103.637 1.76408 0.144623 0
M  V30 996 C 100.766 3.43291 -0.0247203 0
M  V30 997 C 99.8518 4.11722 -1.01716 0
M  V30 998 N 100.243 4.55841 -2.19186 0
M  V30 999 C 98.5408 4.37872 -0.847569 0
M  V30 1000 C 99.2418 5.08751 -2.82042 0
M  V30 1001 N 98.2178 5.01489 -2.09784 0
M  V30 1002 H 102.02 2.5068 -1.53417 0
M  V30 1003 H 99.5338 1.32999 -0.931935 0
M  V30 1004 H 101.531 4.15856 0.294915 0
M  V30 1005 H 100.191 3.12954 0.865448 0
M  V30 1006 H 101.202 4.49649 -2.56975 0
M  V30 1007 H 97.8788 4.17499 -0.00918848 0
M  V30 1008 H 99.2688 5.52944 -3.81709 0
M  V30 1009 N 101.989 0.842826 1.3317 0
M  V30 1010 C 103.4 0.496651 1.79973 0
M  V30 1011 C 103.751 -0.984641 1.69703 0
M  V30 1012 O 102.876 -1.76743 1.24863 0
M  V30 1013 C 103.471 0.894727 3.26772 0
M  V30 1014 C 102.03 0.600629 3.71577 0
M  V30 1015 C 101.177 1.10091 2.5451 0
M  V30 1016 H 104.128 1.03116 1.20635 0
M  V30 1017 H 104.149 0.206347 3.7994 0
M  V30 1018 H 103.661 1.97287 3.34215 0
M  V30 1019 H 101.762 -0.467284 3.69658 0
M  V30 1020 H 101.875 1.15863 4.64879 0
M  V30 1021 H 100.239 0.52162 2.49301 0
M  V30 1022 H 101.022 2.18591 2.64713 0
M  V30 1023 N 103.467 -1.45747 0.599634 0
M  V30 1024 C 104.43 -2.28917 -0.113835 0
M  V30 1025 C 105.43 -1.3933 -0.802729 0
M  V30 1026 O 106.62 -1.61534 -0.652103 0
M  V30 1027 C 103.752 -3.20152 -1.17114 0
M  V30 1028 H 104.945 -2.93478 0.617289 0
M  V30 1029 H 102.498 -1.52137 0.358327 0
M  V30 1030 H 103.233 -2.60374 -1.93329 0
M  V30 1031 H 103.018 -3.86133 -0.681468 0
M  V30 1032 H 104.508 -3.82708 -1.67105 0
M  V30 1033 N 104.945 -0.338344 -1.53925 0
M  V30 1034 C 105.875 0.51328 -2.27789 0
M  V30 1035 C 106.856 1.107 -1.29149 0
M  V30 1036 O 108.041 1.12937 -1.57984 0
M  V30 1037 C 105.171 1.66697 -3.04679 0
M  V30 1038 C 104.125 1.20183 -4.1078 0
M  V30 1039 C 103.451 2.44363 -4.75595 0
M  V30 1040 C 104.751 0.30605 -5.21403 0
M  V30 1041 H 106.445 -0.102883 -2.99223 0
M  V30 1042 H 103.991 -0.0509219 -1.4391 0
M  V30 1043 H 105.944 2.26915 -3.55088 0
M  V30 1044 H 104.668 2.30995 -2.30887 0
M  V30 1045 H 103.327 0.622499 -3.61276 0
M  V30 1046 H 102.975 3.07057 -3.98403 0
M  V30 1047 H 102.675 2.13925 -5.47275 0
M  V30 1048 H 104.199 3.05317 -5.28786 0
M  V30 1049 H 105.613 0.814929 -5.67478 0
M  V30 1050 H 104.01 0.0937929 -6.00027 0
M  V30 1051 H 105.08 -0.65921 -4.80398 0
M  V30 1052 N 106.423 1.57458 -0.0668435 0
M  V30 1053 C 107.355 2.09413 0.931601 0
M  V30 1054 C 108.368 1.02522 1.26464 0
M  V30 1055 O 109.557 1.30049 1.22269 0
M  V30 1056 C 106.657 2.53537 2.24882 0
M  V30 1057 C 105.83 3.83944 2.09537 0
M  V30 1058 C 104.889 4.14214 3.2452 0
M  V30 1059 O 103.915 4.83891 2.9973 0
M  V30 1060 N 105.117 3.67367 4.49469 0
M  V30 1061 H 107.882 2.95699 0.488048 0
M  V30 1062 H 105.443 1.61462 0.119009 0
M  V30 1063 H 107.435 2.70853 3.00701 0
M  V30 1064 H 106.005 1.72415 2.60753 0
M  V30 1065 H 105.225 3.76057 1.18215 0
M  V30 1066 H 106.513 4.69312 1.96529 0
M  V30 1067 H 105.911 3.11068 4.72497 0
M  V30 1068 H 104.468 3.89891 5.2233 0
M  V30 1069 N 107.901 -0.206675 1.56239 0
M  V30 1070 C 108.834 -1.28383 1.88661 0
M  V30 1071 C 109.812 -1.44504 0.745481 0
M  V30 1072 O 110.996 -1.60079 0.995336 0
M  V30 1073 C 108.123 -2.65211 2.10667 0
M  V30 1074 C 107.169 -2.66025 3.33366 0
M  V30 1075 S 108.002 -2.18609 4.88846 0
M  V30 1076 C 109.158 -3.57283 5.13906 0
M  V30 1077 H 109.391 -1.00691 2.7973 0
M  V30 1078 H 106.924 -0.409627 1.48867 0
M  V30 1079 H 108.882 -3.43979 2.24029 0
M  V30 1080 H 107.543 -2.90121 1.20369 0
M  V30 1081 H 106.736 -3.66607 3.45855 0
M  V30 1082 H 106.338 -1.95331 3.18938 0
M  V30 1083 H 108.63 -4.53074 5.03717 0
M  V30 1084 H 109.573 -3.49699 6.15724 0
M  V30 1085 H 109.981 -3.51659 4.41583 0
M  V30 1086 N 109.379 -1.50304 -0.473955 0
M  V30 1087 C 110.609 -1.64663 -1.24778 0
M  V30 1088 C 111.017 -0.328174 -1.86332 0
M  V30 1089 O 110.36 0.699536 -1.69859 0
M  V30 1090 C 110.422 -2.6778 -2.39863 0
M  V30 1091 C 110.086 -4.11413 -1.98969 0
M  V30 1092 C 111.083 -4.97372 -1.51385 0
M  V30 1093 C 108.768 -4.57312 -2.07777 0
M  V30 1094 C 110.762 -6.27277 -1.13148 0
M  V30 1095 C 108.449 -5.87223 -1.69152 0
M  V30 1096 C 109.447 -6.72031 -1.21915 0
M  V30 1097 O 109.135 -7.99518 -0.838237 0
M  V30 1098 H 108.867 -0.556602 -0.383627 0
M  V30 1099 H 111.421 -1.9726 -0.572491 0
M  V30 1100 H 109.651 -2.30419 -3.10554 0
M  V30 1101 H 111.34 -2.71388 -3.01833 0
M  V30 1102 H 112.106 -4.63128 -1.44004 0
M  V30 1103 H 107.985 -3.91449 -2.43493 0
M  V30 1104 H 111.529 -6.93425 -0.762077 0
M  V30 1105 H 107.426 -6.20989 -1.76191 0
M  V30 1106 H 108.194 -8.12764 -0.967339 0
M  V30 1107 N 110.857 0.726932 -1.39834 0
M  V30 1108 C 112.085 1.51613 -1.40787 0
M  V30 1109 C 112.5 1.88799 -0.00451505 0
M  V30 1110 O 111.857 1.54662 0.968809 0
M  V30 1111 C 111.908 2.79863 -2.28821 0
M  V30 1112 O 111.629 2.44253 -3.63692 0
M  V30 1113 C 113.13 3.73837 -2.38245 0
M  V30 1114 H 110.35 0.468264 -0.480593 0
M  V30 1115 H 112.894 0.897607 -1.83748 0
M  V30 1116 H 111.049 3.38027 -1.89252 0
M  V30 1117 H 111.463 3.26695 -4.1033 0
M  V30 1118 H 112.937 4.60699 -3.04073 0
M  V30 1119 H 113.414 4.16153 -1.40403 0
M  V30 1120 H 114.02 3.21589 -2.78317 0
M  V30 1121 N 112.336 1.25143 0.95797 0
M  V30 1122 C 113.284 1.05019 2.07542 0
M  V30 1123 C 114.278 -0.0178751 1.69391 0
M  V30 1124 O 115.484 0.137472 1.79474 0
M  V30 1125 H 111.859 0.32265 0.679265 0
M  V30 1126 H 113.83 1.99759 2.21673 0
M  V30 1127 C 112.579 0.682074 3.40944 0
M  V30 1128 H 111.902 1.49573 3.70767 0
M  V30 1129 H 113.342 0.580945 4.20001 0
M  V30 1130 C 111.801 -0.611608 3.31302 0
M  V30 1131 O 112.331 -1.65465 3.66038 0
M  V30 1132 N 110.537 -0.595982 2.84423 0
M  V30 1133 H 110.084 0.253192 2.56353 0
M  V30 1134 H 110.042 -1.46173 2.78354 0
M  V30 1135 N 113.814 -1.1601 1.06675 0
M  V30 1136 C 115.06 -1.86909 0.786945 0
M  V30 1137 C 115.393 -1.81717 -0.685018 0
M  V30 1138 O 114.668 -1.23551 -1.50218 0
M  V30 1139 C 114.951 -3.36313 1.28707 0
M  V30 1140 C 114.804 -3.50175 2.82308 0
M  V30 1141 C 116.123 -4.3084 0.898071 0
M  V30 1142 H 113.242 -0.678677 0.287343 0
M  V30 1143 H 115.884 -1.36336 1.32334 0
M  V30 1144 H 114.034 -3.79513 0.830768 0
M  V30 1145 H 115.706 -3.15886 3.36175 0
M  V30 1146 H 113.949 -2.91959 3.20847 0
M  V30 1147 H 114.62 -4.55116 3.12368 0
M  V30 1148 H 117.096 -3.95561 1.29114 0
M  V30 1149 H 115.972 -5.33876 1.27543 0
M  V30 1150 H 116.233 -4.41662 -0.196651 0
M  V30 1151 N 115.292 -0.849877 -1.32721 0
M  V30 1152 C 116.569 -0.372405 -1.92022 0
M  V30 1153 C 116.949 1.1435 -1.77447 0
M  V30 1154 O 116.297 1.96296 -1.16962 0
M  V30 1155 C 116.507 -0.831482 -3.3895 0
M  V30 1156 C 117.855 -0.845882 -4.16089 0
M  V30 1157 O 118.879 -0.775806 -3.47649 0
M  V30 1158 O 117.738 -0.943753 -5.38289 0
M  V30 1159 H 114.832 -0.107667 -0.819961 0
M  V30 1160 H 117.378 -0.93646 -1.41522 0
M  V30 1161 H 116.15 -1.87448 -3.4348 0
M  V30 1162 H 115.773 -0.24461 -3.96847 0
M  V30 1163 N 116.77 1.45427 -0.607355 0
M  V30 1164 C 117.702 2.2871 0.149752 0
M  V30 1165 C 118.715 1.39937 0.831958 0
M  V30 1166 O 119.904 1.64313 0.697385 0
M  V30 1167 C 117.004 3.15673 1.23304 0
M  V30 1168 C 116.177 4.32722 0.637996 0
M  V30 1169 C 115.236 5.00895 1.61215 0
M  V30 1170 O 114.262 5.57697 1.13854 0
M  V30 1171 N 115.464 5.00159 2.94655 0
M  V30 1172 H 118.229 2.94328 -0.564882 0
M  V30 1173 H 115.79 1.55612 -0.446823 0
M  V30 1174 H 117.782 3.58144 1.88454 0
M  V30 1175 H 116.352 2.51965 1.8502 0
M  V30 1176 H 115.572 3.93734 -0.191572 0
M  V30 1177 H 116.86 5.08321 0.220665 0
M  V30 1178 H 116.258 4.553 3.35735 0
M  V30 1179 H 114.815 5.46495 3.55228 0
M  V30 1180 N 118.248 0.346503 1.53744 0
M  V30 1181 C 119.525 -0.304532 1.93215 0
M  V30 1182 C 119.905 -1.67993 1.27834 0
M  V30 1183 O 119.253 -2.24411 0.430352 0
M  V30 1184 C 119.463 -0.373852 3.46992 0
M  V30 1185 C 120.811 -0.62329 4.2 0
M  V30 1186 O 121.835 -0.455847 3.53271 0
M  V30 1187 O 120.694 -0.947879 5.38217 0
M  V30 1188 H 117.788 -0.178318 0.807547 0
M  V30 1189 H 120.334 0.397895 1.64969 0
M  V30 1190 H 119.106 0.591224 3.86808 0
M  V30 1191 H 118.729 -1.12294 3.81413 0
M  V30 1192 N 119.726 -1.57421 0.075193 0
M  V30 1193 C 120.656 -2.15942 -0.888324 0
M  V30 1194 C 121.637 -1.08737 -1.30806 0
M  V30 1195 O 122.822 -1.36787 -1.37851 0
M  V30 1196 C 119.952 -2.72379 -2.1547 0
M  V30 1197 C 118.906 -3.8478 -1.87425 0
M  V30 1198 C 118.232 -4.27834 -3.20721 0
M  V30 1199 C 119.532 -5.08869 -1.17684 0
M  V30 1200 H 121.226 -2.96705 -0.400799 0
M  V30 1201 H 118.772 -1.42723 -0.191342 0
M  V30 1202 H 120.725 -3.11965 -2.83295 0
M  V30 1203 H 119.449 -1.88841 -2.6647 0
M  V30 1204 H 118.108 -3.45703 -1.22004 0
M  V30 1205 H 117.756 -3.41214 -3.6957 0
M  V30 1206 H 117.456 -5.03605 -3.02746 0
M  V30 1207 H 118.98 -4.70039 -3.89738 0
M  V30 1208 H 120.394 -5.4575 -1.75584 0
M  V30 1209 H 118.791 -5.8994 -1.09956 0
M  V30 1210 H 119.861 -4.84648 -0.156453 0
M  V30 1211 N 121.204 0.198386 -1.56346 0
M  V30 1212 C 122.45 0.920648 -1.80698 0
M  V30 1213 C 122.783 1.83045 -0.648697 0
M  V30 1214 O 122.058 1.91308 0.350925 0
M  V30 1215 C 122.341 1.73971 -3.15287 0
M  V30 1216 C 122.194 0.85485 -4.41602 0
M  V30 1217 C 123.513 2.71296 -3.46535 0
M  V30 1218 H 120.632 0.333261 -0.657348 0
M  V30 1219 H 123.274 0.188198 -1.89066 0
M  V30 1220 H 121.424 2.36416 -3.08285 0
M  V30 1221 H 123.096 0.245362 -4.60647 0
M  V30 1222 H 121.339 0.161398 -4.335 0
M  V30 1223 H 122.01 1.46286 -5.32264 0
M  V30 1224 H 124.486 2.18983 -3.53816 0
M  V30 1225 H 123.362 3.2569 -4.41834 0
M  V30 1226 H 123.623 3.5018 -2.69864 0
M  V30 1227 N 122.682 1.50554 0.465978 0
M  V30 1228 C 123.93 1.61479 1.21528 0
M  V30 1229 C 124.251 0.319596 1.92363 0
M  V30 1230 O 123.521 -0.663194 1.84333 0
M  V30 1231 H 122.101 0.595055 0.451573 0
M  V30 1232 H 124.763 1.87355 0.53704 0
M  V30 1233 H 123.859 2.42846 1.96042 0
M  V30 1234 N 124.16 -0.719506 1.40217 0
M  V30 1235 C 125.406 -1.48034 1.39491 0
M  V30 1236 C 125.761 -1.92399 -0.00443536 0
M  V30 1237 O 125.054 -1.64993 -0.974061 0
M  V30 1238 C 125.248 -2.72271 2.31524 0
M  V30 1239 C 125.077 -2.40055 3.80268 0
M  V30 1240 C 123.847 -2.31588 4.49105 0
M  V30 1241 C 126.045 -2.04581 4.71859 0
M  V30 1242 N 124.027 -1.92006 5.83101 0
M  V30 1243 C 125.398 -1.75568 5.94623 0
M  V30 1244 C 127.453 -1.91183 4.59732 0
M  V30 1245 C 126.156 -1.34505 7.06612 0
M  V30 1246 C 128.182 -1.51524 5.71659 0
M  V30 1247 C 127.544 -1.23406 6.93506 0
M  V30 1248 H 123.643 -0.539927 0.565688 0
M  V30 1249 H 126.227 -0.834764 1.75897 0
M  V30 1250 H 124.398 -3.34584 1.97251 0
M  V30 1251 H 126.13 -3.38584 2.21682 0
M  V30 1252 H 122.885 -2.49199 4.02737 0
M  V30 1253 H 123.309 -1.74764 6.54054 0
M  V30 1254 H 127.951 -2.11584 3.66049 0
M  V30 1255 H 125.669 -1.12846 8.00182 0
M  V30 1256 H 129.255 -1.41741 5.6427 0
M  V30 1257 H 128.135 -0.931788 7.78645 0
M  V30 1258 N 125.638 -1.25649 -0.95132 0
M  V30 1259 C 127.049 -1.09654 -1.51106 0
M  V30 1260 C 127.4 0.326615 -1.93462 0
M  V30 1261 O 126.525 1.21697 -1.78938 0
M  V30 1262 C 127.12 -1.98437 -2.74605 0
M  V30 1263 C 125.679 -1.86618 -3.2688 0
M  V30 1264 C 124.826 -1.9239 -1.99703 0
M  V30 1265 H 127.777 -1.38887 -0.767865 0
M  V30 1266 H 127.798 -1.5263 -3.48546 0
M  V30 1267 H 127.31 -3.02009 -2.43746 0
M  V30 1268 H 125.411 -0.859421 -3.62553 0
M  V30 1269 H 125.524 -2.71607 -3.94673 0
M  V30 1270 H 123.888 -1.36317 -2.15151 0
M  V30 1271 H 124.671 -2.97573 -1.71188 0
M  V30 1272 N 127.117 1.15442 -1.07289 0
M  V30 1273 C 128.08 2.18358 -0.696591 0
M  V30 1274 C 129.08 1.58637 0.262837 0
M  V30 1275 O 130.27 1.74145 0.0438809 0
M  V30 1276 C 127.402 3.4089 -0.0266151 0
M  V30 1277 H 128.595 2.53162 -1.60776 0
M  V30 1278 H 126.148 1.29893 -0.869342 0
M  V30 1279 H 126.883 3.11653 0.896822 0
M  V30 1280 H 126.668 3.85495 -0.716657 0
M  V30 1281 H 128.158 4.17009 0.222028 0
M  V30 1282 N 128.595 0.856903 1.32268 0
M  V30 1283 C 130.006 0.515711 1.79436 0
M  V30 1284 C 130.357 -0.966586 1.70738 0
M  V30 1285 O 129.482 -1.75409 1.26731 0
M  V30 1286 C 130.077 0.929335 3.25805 0
M  V30 1287 C 128.636 0.640006 3.70919 0
M  V30 1288 C 127.783 1.12784 2.53328 0
M  V30 1289 H 130.734 1.04389 1.19535 0
M  V30 1290 H 130.755 0.246633 3.797 0
M  V30 1291 H 130.267 2.00821 3.32103 0
M  V30 1292 H 128.368 -0.428051 3.70133 0
M  V30 1293 H 128.481 1.20788 4.63624 0
M  V30 1294 H 126.845 0.548033 2.48734 0
M  V30 1295 H 127.628 2.21387 2.62379 0
M  V30 1296 N 130.073 -1.45103 0.615059 0
M  V30 1297 C 131.298 -2.07064 0.117988 0
M  V30 1298 C 131.723 -1.4554 -1.19163 0
M  V30 1299 O 131.081 -0.550855 -1.72729 0
M  V30 1300 C 131.129 -3.606 -0.000288387 0
M  V30 1301 O 130.233 -3.98847 -1.04856 0
M  V30 1302 H 129.574 -0.659467 0.0774581 0
M  V30 1303 H 132.104 -1.86236 0.847186 0
M  V30 1304 H 132.114 -4.07529 -0.196091 0
M  V30 1305 H 130.789 -4.04765 0.955932 0
M  V30 1306 H 129.366 -3.63577 -0.828619 0
M  V30 1307 N 131.551 -0.354651 -1.53558 0
M  V30 1308 C 132.799 0.237972 -2.00694 0
M  V30 1309 C 133.12 1.50173 -1.24391 0
M  V30 1310 O 132.39 1.92673 -0.354135 0
M  V30 1311 H 130.97 0.0909256 -0.741446 0
M  V30 1312 H 133.632 -0.478368 -1.88938 0
M  V30 1313 H 132.728 0.47264 -3.085 0
M  V30 1314 N 133.029 1.57378 -0.0835403 0
M  V30 1315 C 133.992 2.12252 0.864959 0
M  V30 1316 C 134.992 1.04916 1.21858 0
M  V30 1317 O 136.182 1.30853 1.14991 0
M  V30 1318 C 133.314 2.63358 2.16461 0
M  V30 1319 H 134.507 2.97371 0.388676 0
M  V30 1320 H 132.06 1.55423 0.165317 0
M  V30 1321 H 132.795 1.81727 2.686 0
M  V30 1322 H 132.58 3.41826 1.92087 0
M  V30 1323 H 134.07 3.05847 2.84337 0
M  V30 1324 N 134.507 -0.190092 1.56449 0
M  V30 1325 C 135.454 -1.23557 1.94942 0
M  V30 1326 C 136.424 -1.44972 0.810696 0
M  V30 1327 O 137.609 -1.58023 1.06927 0
M  V30 1328 C 134.749 -2.57416 2.2985 0
M  V30 1329 C 133.862 -2.43537 3.5681 0
M  V30 1330 C 132.997 -3.70134 3.81017 0
M  V30 1331 C 132.036 -3.51109 5.01387 0
M  V30 1332 N 131.173 -4.6973 5.21822 0
M  V30 1333 H 136.013 -0.900304 2.84075 0
M  V30 1334 H 133.55 -0.43318 1.40577 0
M  V30 1335 H 135.508 -3.35409 2.48106 0
M  V30 1336 H 134.138 -2.88975 1.43852 0
M  V30 1337 H 133.19 -1.56816 3.46573 0
M  V30 1338 H 134.502 -2.25415 4.4496 0
M  V30 1339 H 133.656 -4.56566 3.9954 0
M  V30 1340 H 132.395 -3.91215 2.91207 0
M  V30 1341 H 131.4 -2.63063 4.82782 0
M  V30 1342 H 132.625 -3.31468 5.9271 0
M  V30 1343 H 130.571 -4.91065 4.34961 0
M  V30 1344 H 130.488 -4.54452 6.0416 0
M  V30 1345 H 131.756 -5.57499 5.44808 0
M  V30 1346 N 135.985 -1.50799 -0.457987 0
M  V30 1347 C 137.21 -1.66496 -1.23668 0
M  V30 1348 C 137.635 -0.353288 -1.84752 0
M  V30 1349 O 136.993 0.684346 -1.67888 0
M  V30 1350 C 137.041 -2.76763 -2.3116 0
M  V30 1351 O 136.145 -2.38928 -3.36136 0
M  V30 1352 H 135.486 -0.555828 -0.363252 0
M  V30 1353 H 138.016 -1.9725 -0.543474 0
M  V30 1354 H 138.026 -3.00232 -2.76269 0
M  V30 1355 H 136.701 -3.71954 -1.86073 0
M  V30 1356 H 135.278 -2.25953 -2.96647 0
M  V30 1357 N 137.463 0.71206 -1.40597 0
M  V30 1358 C 138.393 1.83889 -1.43899 0
M  V30 1359 C 139.374 1.67442 -0.299504 0
M  V30 1360 O 140.559 1.87421 -0.508624 0
M  V30 1361 C 137.689 3.21877 -1.30431 0
M  V30 1362 C 136.643 3.53002 -2.42019 0
M  V30 1363 C 135.969 4.90172 -2.13626 0
M  V30 1364 C 137.269 3.53643 -3.84362 0
M  V30 1365 H 138.963 1.81383 -2.38203 0
M  V30 1366 H 136.509 0.871237 -1.14654 0
M  V30 1367 H 138.462 4.00404 -1.31357 0
M  V30 1368 H 137.186 3.24968 -0.326049 0
M  V30 1369 H 135.845 2.76818 -2.40349 0
M  V30 1370 H 135.493 4.89869 -1.14182 0
M  V30 1371 H 135.193 5.11962 -2.88389 0
M  V30 1372 H 136.717 5.71028 -2.1624 0
M  V30 1373 H 138.131 4.22203 -3.87837 0
M  V30 1374 H 136.528 3.86961 -4.58673 0
M  V30 1375 H 137.598 2.52954 -4.13693 0
M  V30 1376 N 138.941 1.26152 0.944643 0
M  V30 1377 C 139.851 1.09176 2.07648 0
M  V30 1378 C 140.867 0.0261935 1.7398 0
M  V30 1379 O 142.043 0.229208 2.00091 0
M  V30 1380 C 139.108 0.722915 3.39079 0
M  V30 1381 C 138.169 1.86752 3.86552 0
M  V30 1382 C 137.402 1.51617 5.11711 0
M  V30 1383 O 137.625 0.416331 5.68879 0
M  V30 1384 O 136.559 2.34975 5.54139 0
M  V30 1385 H 140.385 2.0412 2.24875 0
M  V30 1386 H 137.97 1.05182 1.061 0
M  V30 1387 H 139.852 0.529787 4.18056 0
M  V30 1388 H 138.527 -0.197159 3.23099 0
M  V30 1389 H 137.434 2.11558 3.08535 0
M  V30 1390 H 138.767 2.76719 4.07047 0
M  V30 1391 N 140.419 -1.14872 1.07899 0
M  V30 1392 C 141.83 -1.67367 0.827363 0
M  V30 1393 C 142.181 -1.85236 -0.646693 0
M  V30 1394 O 141.306 -1.55974 -1.50004 0
M  V30 1395 C 141.901 -3.04016 1.49532 0
M  V30 1396 C 140.46 -3.53566 1.29106 0
M  V30 1397 C 139.607 -2.29161 1.56143 0
M  V30 1398 H 142.558 -0.990083 1.24028 0
M  V30 1399 H 142.579 -3.69219 0.919643 0
M  V30 1400 H 142.091 -2.90978 2.56814 0
M  V30 1401 H 140.192 -3.71835 0.238713 0
M  V30 1402 H 140.305 -4.34661 2.01511 0
M  V30 1403 H 138.669 -2.34978 0.982717 0
M  V30 1404 H 139.452 -2.18705 2.64619 0
M  V30 1405 N 141.898 -0.863906 -1.31812 0
M  V30 1406 C 143.138 -0.47825 -1.98726 0
M  V30 1407 C 143.502 0.950397 -1.66828 0
M  V30 1408 O 144.703 1.44109 -2.26905 0
M  V30 1409 C 142.974 -0.721134 -3.50049 0
M  V30 1410 S 144.533 -0.434432 -4.36644 0
M  V30 1411 H 141.351 -0.178773 -0.688158 0
M  V30 1412 H 143.953 -1.11862 -1.60334 0
M  V30 1413 H 142.657 -1.75981 -3.70755 0
M  V30 1414 H 142.188 -0.0675315 -3.93342 0
M  V30 1415 H 144.203 0.735786 -4.90714 0
M  V30 1416 N 143.376 1.44774 -0.622745 0
M  V30 1417 C 144.339 2.29069 0.0774015 0
M  V30 1418 C 145.339 1.4059 0.780461 0
M  V30 1419 O 146.529 1.62551 0.626322 0
M  V30 1420 C 143.661 3.21974 1.12006 0
M  V30 1421 H 144.854 2.92459 -0.663901 0
M  V30 1422 H 142.407 1.51548 -0.382486 0
M  V30 1423 H 143.142 2.63417 1.89162 0
M  V30 1424 H 142.927 3.87168 0.619951 0
M  V30 1425 H 144.417 3.85318 1.60995 0
M  V30 1426 N 144.854 0.36279 1.53368 0
M  V30 1427 C 146.094 -0.227882 2.03126 0
M  V30 1428 C 146.458 -1.4622 1.24434 0
M  V30 1429 O 147.659 -2.12831 1.64184 0
M  V30 1430 C 145.93 -0.515427 3.53664 0
M  V30 1431 S 147.489 -1.08017 4.25297 0
M  V30 1432 H 144.307 -0.0665377 0.70788 0
M  V30 1433 H 146.909 0.50501 1.88865 0
M  V30 1434 H 145.613 0.390436 4.08539 0
M  V30 1435 H 145.144 -1.27747 3.72081 0
M  V30 1436 H 147.159 -2.36462 4.36234 0
M  V30 1437 N 146.332 -1.57332 0.0918853 0
M  V30 1438 C 147.58 -1.93853 -0.571446 0
M  V30 1439 C 147.901 -0.974212 -1.6892 0
M  V30 1440 O 147.171 -0.0257254 -1.95883 0
M  V30 1441 H 145.751 -0.715666 -0.214082 0
M  V30 1442 H 148.413 -1.94287 0.154464 0
M  V30 1443 H 147.509 -2.96191 -0.983729 0
M  V30 1444 N 147.81 0.181792 -1.56548 0
M  V30 1445 C 149.035 0.920019 -1.85877 0
M  V30 1446 C 149.46 1.75494 -0.677021 0
M  V30 1447 O 148.818 1.77399 0.374056 0
M  V30 1448 C 148.866 1.78112 -3.13542 0
M  V30 1449 O 147.97 2.88152 -2.95029 0
M  V30 1450 H 147.311 0.258334 -0.611686 0
M  V30 1451 H 149.841 0.183092 -2.03779 0
M  V30 1452 H 149.851 2.18314 -3.44678 0
M  V30 1453 H 148.526 1.16777 -3.99169 0
M  V30 1454 H 147.103 2.51609 -2.75222 0
M  V30 1455 N 149.288 1.51039 0.449983 0
M  V30 1456 C 150.251 1.70863 1.5277 0
M  V30 1457 C 151.251 0.578846 1.5002 0
M  V30 1458 O 152.441 0.846213 1.52266 0
M  V30 1459 C 149.573 1.75341 2.9235 0
M  V30 1460 H 150.766 2.67034 1.36502 0
M  V30 1461 H 148.319 1.40838 0.677812 0
M  V30 1462 H 149.054 0.809383 3.14037 0
M  V30 1463 H 148.839 2.57436 2.95752 0
M  V30 1464 H 150.329 1.92559 3.70555 0
M  V30 1465 N 150.766 -0.704594 1.40972 0
M  V30 1466 C 152.043 -1.45847 1.30338 0
M  V30 1467 C 152.423 -2.10973 -0.0732344 0
M  V30 1468 O 151.771 -2.00997 -1.08685 0
M  V30 1469 C 151.981 -2.48525 2.45023 0
M  V30 1470 C 153.329 -3.1404 2.8577 0
M  V30 1471 O 154.353 -2.58848 2.44696 0
M  V30 1472 O 153.212 -4.13981 3.56766 0
M  V30 1473 H 150.306 -0.649092 0.512454 0
M  V30 1474 H 152.852 -0.735836 1.52917 0
M  V30 1475 H 151.624 -1.98994 3.36923 0
M  V30 1476 H 151.247 -3.2831 2.24272 0
M  V30 1477 N 152.244 -1.26651 -0.937939 0
M  V30 1478 C 153.174 -1.10993 -2.05433 0
M  V30 1479 C 154.155 -0.0142161 -1.70094 0
M  V30 1480 O 155.34 -0.186837 -1.93299 0
M  V30 1481 C 152.47 -0.745561 -3.39203 0
M  V30 1482 C 151.424 -1.79337 -3.88616 0
M  V30 1483 C 150.75 -1.28324 -5.19073 0
M  V30 1484 C 152.05 -3.19553 -4.13138 0
M  V30 1485 H 153.744 -2.0438 -2.1879 0
M  V30 1486 H 151.29 -0.984041 -1.05131 0
M  V30 1487 H 153.243 -0.622888 -4.16771 0
M  V30 1488 H 151.967 0.22401 -3.25831 0
M  V30 1489 H 150.626 -1.90477 -3.13231 0
M  V30 1490 H 150.274 -0.303414 -5.02084 0
M  V30 1491 H 149.974 -1.98369 -5.53103 0
M  V30 1492 H 151.498 -1.1733 -5.99221 0
M  V30 1493 H 152.912 -3.11471 -4.81309 0
M  V30 1494 H 151.309 -3.87218 -4.58457 0
M  V30 1495 H 152.379 -3.65368 -3.18801 0
M  V30 1496 N 153.722 1.14298 -1.08507 0
M  V30 1497 C 154.952 1.88945 -0.835663 0
M  V30 1498 C 155.36 1.78894 0.615928 0
M  V30 1499 O 154.703 1.1468 1.43506 0
M  V30 1500 C 154.765 3.39585 -1.17994 0
M  V30 1501 C 154.429 3.7342 -2.63451 0
M  V30 1502 C 155.426 3.73454 -3.61702 0
M  V30 1503 C 153.111 4.03368 -2.99332 0
M  V30 1504 C 155.105 4.02961 -4.93864 0
M  V30 1505 C 152.792 4.32538 -4.31687 0
M  V30 1506 C 153.79 4.32318 -5.28763 0
M  V30 1507 O 153.478 4.6078 -6.58739 0
M  V30 1508 H 153.21 0.605307 -0.300965 0
M  V30 1509 H 155.764 1.45673 -1.44806 0
M  V30 1510 H 153.994 3.83315 -0.51055 0
M  V30 1511 H 155.683 3.9554 -0.911182 0
M  V30 1512 H 156.449 3.50403 -3.35325 0
M  V30 1513 H 152.328 4.02692 -2.24411 0
M  V30 1514 H 155.872 4.02704 -5.69627 0
M  V30 1515 H 151.769 4.55059 -4.57812 0
M  V30 1516 H 152.537 4.78492 -6.64069 0
M  V30 1517 N 155.201 0.870884 1.31352 0
M  V30 1518 C 156.131 0.343096 2.30966 0
M  V30 1519 C 157.112 -0.566507 1.60389 0
M  V30 1520 O 158.297 -0.483336 1.88089 0
M  V30 1521 C 155.427 -0.455487 3.443 0
M  V30 1522 C 154.381 0.361103 4.26474 0
M  V30 1523 C 153.707 -0.563221 5.31725 0
M  V30 1524 C 155.007 1.59566 4.97329 0
M  V30 1525 H 156.701 1.17548 2.75359 0
M  V30 1526 H 154.247 0.566686 1.32381 0
M  V30 1527 H 156.2 -0.83525 4.13039 0
M  V30 1528 H 154.924 -1.32139 2.98675 0
M  V30 1529 H 153.583 0.722825 3.59403 0
M  V30 1530 H 153.231 -1.42643 4.82351 0
M  V30 1531 H 152.931 -0.0207409 5.87596 0
M  V30 1532 H 154.455 -0.939808 6.03324 0
M  V30 1533 H 155.869 1.28728 5.58661 0
M  V30 1534 H 154.266 2.07728 5.63 0
M  V30 1535 H 155.336 2.34798 4.24262 0
M  V30 1536 N 156.679 -1.44442 0.630414 0
M  V30 1537 C 157.928 -2.01267 0.132073 0
M  V30 1538 C 158.241 -1.50172 -1.25331 0
M  V30 1539 O 159.447 -1.9912 -1.84562 0
M  V30 1540 C 157.903 -3.59422 0.185362 0
M  V30 1541 C 157.511 -4.19514 1.57201 0
M  V30 1542 C 159.255 -4.23724 -0.256553 0
M  V30 1543 C 157.162 -5.69891 1.58045 0
M  V30 1544 H 156.092 -0.752619 0.0456092 0
M  V30 1545 H 158.743 -1.65666 0.789106 0
M  V30 1546 H 157.125 -3.92318 -0.538759 0
M  V30 1547 H 158.299 -3.98156 2.31966 0
M  V30 1548 H 156.614 -3.67496 1.95795 0
M  V30 1549 H 159.211 -5.34019 -0.269767 0
M  V30 1550 H 159.554 -3.96013 -1.28372 0
M  V30 1551 H 160.087 -3.95629 0.41505 0
M  V30 1552 H 156.826 -6.02336 2.58597 0
M  V30 1553 H 156.346 -5.93373 0.875725 0
M  V30 1554 H 158.025 -6.33515 1.31408 0
M  V30 1555 N 158.157 -0.370918 -1.53173 0
M  V30 1556 C 159.385 0.217704 -2.05751 0
M  V30 1557 C 159.8 1.42018 -1.24404 0
M  V30 1558 O 159.157 1.80245 -0.286033 0
M  V30 1559 C 159.208 0.605954 -3.56385 0
M  V30 1560 O 158.929 -0.548734 -4.3465 0
M  V30 1561 C 160.43 1.2524 -4.25241 0
M  V30 1562 H 157.65 0.0371659 -0.66997 0
M  V30 1563 H 160.194 -0.530832 -1.9749 0
M  V30 1564 H 158.349 1.3044 -3.6478 0
M  V30 1565 H 158.763 -0.23376 -5.23979 0
M  V30 1566 H 160.237 1.47458 -5.3194 0
M  V30 1567 H 160.714 2.2143 -3.79296 0
M  V30 1568 H 161.32 0.595233 -4.21114 0
M  V30 1569 N 159.635 1.57281 -0.100228 0
M  V30 1570 C 161.051 1.57527 0.256416 0
M  V30 1571 C 161.251 1.11173 1.68056 0
M  V30 1572 O 160.307 0.79053 2.39806 0
M  V30 1573 C 161.62 3.00673 0.0401747 0
M  V30 1574 C 163.168 3.12815 0.107528 0
M  V30 1575 C 163.643 4.57929 -0.0807834 0
M  V30 1576 N 165.134 4.63193 -0.0261207 0
M  V30 1577 C 165.869 5.73212 -0.146999 0
M  V30 1578 N 165.365 6.92047 -0.322999 0
M  V30 1579 N 167.158 5.62031 -0.0879044 0
M  V30 1580 H 159.309 1.85718 -1.03065 0
M  V30 1581 H 161.572 0.857446 -0.404339 0
M  V30 1582 H 161.278 3.38804 -0.943649 0
M  V30 1583 H 161.152 3.69042 0.780262 0
M  V30 1584 H 163.539 2.74554 1.08186 0
M  V30 1585 H 163.62 2.47028 -0.664134 0
M  V30 1586 H 163.264 4.96886 -1.05201 0
M  V30 1587 H 163.194 5.21783 0.710635 0
M  V30 1588 H 165.685 3.77748 0.107161 0
M  V30 1589 H 165.998 7.7173 -0.406608 0
M  V30 1590 H 164.343 6.94074 -0.358733 0
M  V30 1591 H 167.534 4.68075 0.048498 0
M  V30 1592 H 167.707 6.47734 -0.185557 0
M  V30 1593 N 161.113 -0.173488 1.56642 0
M  V30 1594 C 162.39 -0.917617 1.7274 0
M  V30 1595 C 162.77 -2.00484 0.661027 0
M  V30 1596 O 162.118 -2.26184 -0.32453 0
M  V30 1597 C 162.328 -1.48433 3.15862 0
M  V30 1598 C 163.676 -1.95809 3.76754 0
M  V30 1599 O 164.7 -1.58231 3.19126 0
M  V30 1600 O 163.559 -2.65024 4.77938 0
M  V30 1601 H 160.653 -0.431772 0.705338 0
M  V30 1602 H 163.199 -0.161487 1.6893 0
M  V30 1603 H 161.971 -0.701715 3.84957 0
M  V30 1604 H 161.594 -2.30471 3.23989 0
M  V30 1605 N 162.591 -1.51276 -0.441967 0
M  V30 1606 C 163.554 -1.7167 -1.51862 0
M  V30 1607 C 164.554 -0.586793 -1.49711 0
M  V30 1608 O 165.744 -0.854276 -1.51815 0
M  V30 1609 C 162.876 -1.76889 -2.91416 0
M  V30 1610 H 164.069 -2.67754 -1.35084 0
M  V30 1611 H 161.622 -1.41196 -0.670333 0
M  V30 1612 H 162.357 -0.826026 -3.13604 0
M  V30 1613 H 162.142 -2.59001 -2.94382 0
M  V30 1614 H 163.632 -1.94522 -3.69528 0
M  V30 1615 N 164.069 0.697108 -1.41344 0
M  V30 1616 C 165.346 1.45154 -1.31109 0
M  V30 1617 C 165.726 2.11009 0.0620449 0
M  V30 1618 O 165.074 2.01571 1.07618 0
M  V30 1619 C 165.284 2.47223 -2.46337 0
M  V30 1620 C 166.632 3.1252 -2.87431 0
M  V30 1621 O 167.656 2.57547 -2.46065 0
M  V30 1622 O 166.515 4.12083 -3.58957 0
M  V30 1623 H 163.609 0.646365 -0.515889 0
M  V30 1624 H 166.155 0.727716 -1.53305 0
M  V30 1625 H 164.927 1.97204 -3.37974 0
M  V30 1626 H 164.55 3.27116 -2.2601 0
M  V30 1627 N 165.547 1.27147 0.931209 0
M  V30 1628 C 166.793 1.13446 1.68101 0
M  V30 1629 C 167.126 -0.319628 1.91552 0
M  V30 1630 O 166.401 -1.23407 1.50336 0
M  V30 1631 C 166.684 1.91482 3.0497 0
M  V30 1632 C 166.537 3.44855 2.88782 0
M  V30 1633 C 167.856 1.71651 4.05246 0
M  V30 1634 H 164.975 0.413498 0.610072 0
M  V30 1635 H 167.617 1.56261 1.08086 0
M  V30 1636 H 165.767 1.55095 3.56199 0
M  V30 1637 H 167.439 3.9105 2.44698 0
M  V30 1638 H 165.682 3.71373 2.24198 0
M  V30 1639 H 166.353 3.94694 3.85902 0
M  V30 1640 H 168.829 2.0337 3.63015 0
M  V30 1641 H 167.705 2.28651 4.99009 0
M  V30 1642 H 167.966 0.663555 4.37092 0
M  V30 1643 N 167.025 -1.13721 1.09112 0
M  V30 1644 C 168.274 -1.84275 0.82009 0
M  V30 1645 C 168.587 -1.84253 -0.656509 0
M  V30 1646 O 169.793 -2.50668 -1.04296 0
M  V30 1647 C 168.249 -3.30825 1.41714 0
M  V30 1648 C 167.857 -3.39244 2.92605 0
M  V30 1649 C 169.601 -4.06443 1.22492 0
M  V30 1650 C 167.508 -4.80047 3.45411 0
M  V30 1651 H 166.438 -0.690387 0.30312 0
M  V30 1652 H 169.089 -1.28146 1.31343 0
M  V30 1653 H 167.471 -3.86737 0.851498 0
M  V30 1654 H 168.645 -2.93344 3.55367 0
M  V30 1655 H 166.96 -2.77088 3.10823 0
M  V30 1656 H 169.557 -5.10387 1.59402 0
M  V30 1657 H 169.9 -4.15972 0.165299 0
M  V30 1658 H 170.433 -3.56852 1.75788 0
M  V30 1659 H 167.172 -4.75709 4.50978 0
M  V30 1660 H 166.692 -5.26455 2.87411 0
M  V30 1661 H 168.371 -5.48957 3.42425 0
M  V30 1662 N 168.503 -0.877838 -1.30888 0
M  V30 1663 C 169.914 -0.544193 -1.78593 0
M  V30 1664 C 170.265 0.939301 -1.72254 0
M  V30 1665 O 169.39 1.7337 -1.29505 0
M  V30 1666 C 169.985 -0.98105 -3.24285 0
M  V30 1667 C 168.544 -0.698935 -3.69854 0
M  V30 1668 C 167.691 -1.168 -2.51502 0
M  V30 1669 H 170.642 -1.06278 -1.17859 0
M  V30 1670 H 170.663 -0.307009 -3.79259 0
M  V30 1671 H 170.175 -2.06079 -3.28866 0
M  V30 1672 H 168.276 0.369112 -3.70767 0
M  V30 1673 H 168.389 -1.28148 -4.61644 0
M  V30 1674 H 166.753 -0.587535 -2.47831 0
M  V30 1675 H 167.536 -2.25533 -2.58824 0
M  V30 1676 N 169.982 1.44106 -0.638065 0
M  V30 1677 C 170.945 2.29138 0.0531013 0
M  V30 1678 C 171.945 1.41409 0.765506 0
M  V30 1679 O 173.135 1.63206 0.609046 0
M  V30 1680 C 170.267 3.23144 1.08584 0
M  V30 1681 H 171.46 2.91739 -0.694883 0
M  V30 1682 H 169.013 1.51134 -0.398538 0
M  V30 1683 H 169.748 2.65408 1.86357 0
M  V30 1684 H 169.533 3.87804 0.578852 0
M  V30 1685 H 171.023 3.87004 1.56899 0
M  V30 1686 N 171.46 0.379036 1.52974 0
M  V30 1687 C 172.876 0.0285448 1.59574 0
M  V30 1688 C 173.076 -1.45542 1.39355 0
M  V30 1689 O 172.132 -2.2187 1.20541 0
M  V30 1690 C 173.445 0.496535 2.96572 0
M  V30 1691 C 174.993 0.451909 3.0972 0
M  V30 1692 C 175.468 0.895924 4.49152 0
M  V30 1693 N 176.959 0.851522 4.55306 0
M  V30 1694 C 177.694 1.16661 5.61407 0
M  V30 1695 N 177.19 1.55166 6.752 0
M  V30 1696 N 178.983 1.08853 5.51459 0
M  V30 1697 H 171.134 1.34525 1.64367 0
M  V30 1698 H 173.397 0.550733 0.771619 0
M  V30 1699 H 173.103 1.53258 3.16552 0
M  V30 1700 H 172.977 -0.109802 3.7704 0
M  V30 1701 H 175.364 -0.575029 2.89443 0
M  V30 1702 H 175.445 1.09392 2.3123 0
M  V30 1703 H 175.089 1.92104 4.70168 0
M  V30 1704 H 175.019 0.23103 5.26093 0
M  V30 1705 H 177.51 0.568038 3.73606 0
M  V30 1706 H 177.823 1.776 7.52116 0
M  V30 1707 H 176.168 1.59044 6.76557 0
M  V30 1708 H 179.359 0.786803 4.6144 0
M  V30 1709 H 179.532 1.33742 6.34048 0
M  V30 1710 N 172.938 -1.57226 0.108567 0
M  V30 1711 C 174.354 -1.5766 -0.248058 0
M  V30 1712 C 174.554 -1.12063 -1.67464 0
M  V30 1713 O 173.61 -0.803236 -2.39383 0
M  V30 1714 C 174.923 -3.0069 -0.0242287 0
M  V30 1715 C 176.471 -3.12868 -0.0909372 0
M  V30 1716 C 176.946 -4.57879 0.105067 0
M  V30 1717 N 178.437 -4.63172 0.0506846 0
M  V30 1718 C 179.172 -5.73126 0.177396 0
M  V30 1719 N 178.668 -6.91866 0.359696 0
M  V30 1720 N 180.461 -5.61977 0.117709 0
M  V30 1721 H 172.612 -1.85169 1.04049 0
M  V30 1722 H 174.875 -0.85529 0.40888 0
M  V30 1723 H 174.581 -3.38299 0.961604 0
M  V30 1724 H 174.455 -3.6945 -0.76068 0
M  V30 1725 H 176.842 -2.75124 -1.06729 0
M  V30 1726 H 176.923 -2.46672 0.677225 0
M  V30 1727 H 176.567 -4.96321 1.07834 0
M  V30 1728 H 176.497 -5.22153 -0.682954 0
M  V30 1729 H 178.988 -3.778 -0.0871266 0
M  V30 1730 H 179.301 -7.71503 0.447529 0
M  V30 1731 H 177.646 -6.93874 0.395536 0
M  V30 1732 H 180.837 -4.68094 -0.0236741 0
M  V30 1733 H 181.01 -6.47627 0.219905 0
M  V30 1734 N 174.416 0.165178 -1.56732 0
M  V30 1735 C 175.832 0.517174 -1.50988 0
M  V30 1736 C 176.032 1.84331 -0.813894 0
M  V30 1737 O 175.088 2.49672 -0.37682 0
M  V30 1738 C 176.401 0.544261 -2.95733 0
M  V30 1739 C 177.949 0.631039 -3.06573 0
M  V30 1740 C 178.424 0.68896 -4.52788 0
M  V30 1741 N 179.915 0.751683 -4.5706 0
M  V30 1742 C 180.65 0.817177 -5.67547 0
M  V30 1743 N 180.146 0.843129 -6.8765 0
M  V30 1744 N 181.939 0.856668 -5.55534 0
M  V30 1745 H 174.09 -0.704318 -2.00382 0
M  V30 1746 H 176.353 -0.254687 -0.913148 0
M  V30 1747 H 176.059 -0.361607 -3.49836 0
M  V30 1748 H 175.933 1.3886 -3.5071 0
M  V30 1749 H 178.32 1.52733 -2.52501 0
M  V30 1750 H 178.401 -0.240095 -2.54671 0
M  V30 1751 H 178.045 -0.2031 -5.07494 0
M  V30 1752 H 177.975 1.57633 -5.02454 0
M  V30 1753 H 180.466 0.739661 -3.70591 0
M  V30 1754 H 180.779 0.894448 -7.67606 0
M  V30 1755 H 179.124 0.811304 -6.90248 0
M  V30 1756 H 182.315 0.833437 -4.60621 0
M  V30 1757 H 182.488 0.904247 -6.4166 0
M  V30 1758 N 175.894 1.51508 0.433938 0
M  V30 1759 C 177.142 1.6402 1.18075 0
M  V30 1760 C 177.463 0.360328 1.91642 0
M  V30 1761 O 176.733 -0.623945 1.85698 0
M  V30 1762 H 175.313 0.6045 0.43885 0
M  V30 1763 H 177.975 1.88452 0.497178 0
M  V30 1764 H 177.071 2.46949 1.90847 0
M  V30 1765 N 177.372 -0.689602 1.41712 0
M  V30 1766 C 178.649 -1.44457 1.31877 0
M  V30 1767 C 179.029 -2.11039 -0.0508537 0
M  V30 1768 O 178.377 -2.02138 -1.06547 0
M  V30 1769 C 178.587 -2.45913 2.47645 0
M  V30 1770 C 179.935 -3.10991 2.89084 0
M  V30 1771 O 180.959 -2.56238 2.47428 0
M  V30 1772 O 179.818 -4.10174 3.61137 0
M  V30 1773 H 176.912 -0.64362 0.519309 0
M  V30 1774 H 179.458 -0.719576 1.53689 0
M  V30 1775 H 178.23 -1.95409 3.39015 0
M  V30 1776 H 177.853 -3.25913 2.27742 0
M  V30 1777 N 178.85 -1.27639 -0.924453 0
M  V30 1778 C 180.075 -1.17101 -1.71179 0
M  V30 1779 C 180.5 0.268134 -1.86179 0
M  V30 1780 O 179.858 1.19415 -1.36418 0
M  V30 1781 C 179.906 -1.86313 -3.08739 0
M  V30 1782 O 179.01 -1.16331 -3.95652 0
M  V30 1783 H 178.351 -0.407091 -0.524569 0
M  V30 1784 H 180.881 -1.68767 -1.15666 0
M  V30 1785 H 180.891 -1.938 -3.59034 0
M  V30 1786 H 179.566 -2.91001 -2.97138 0
M  V30 1787 H 178.143 -1.16935 -3.54091 0
M  V30 1788 N 180.328 1.1314 -1.09713 0
M  V30 1789 C 181.556 1.88321 -0.856898 0
M  V30 1790 C 181.971 1.79276 0.592073 0
M  V30 1791 O 181.328 1.16142 1.40774 0
M  V30 1792 C 181.379 3.37812 -1.28706 0
M  V30 1793 O 181.1 3.46627 -2.67921 0
M  V30 1794 C 182.601 4.29952 -1.07964 0
M  V30 1795 H 179.821 0.596094 -0.308079 0
M  V30 1796 H 182.365 1.43205 -1.45988 0
M  V30 1797 H 180.52 3.805 -0.727912 0
M  V30 1798 H 180.934 4.39579 -2.8613 0
M  V30 1799 H 182.408 5.33159 -1.42986 0
M  V30 1800 H 182.885 4.39196 -0.0176577 0
M  V30 1801 H 183.491 3.93036 -1.62489 0
M  V30 1802 N 181.806 0.884767 1.30421 0
M  V30 1803 C 182.769 0.356277 2.26414 0
M  V30 1804 C 183.769 -0.501124 1.52792 0
M  V30 1805 O 184.959 -0.30831 1.7145 0
M  V30 1806 C 182.091 -0.492316 3.37326 0
M  V30 1807 H 183.284 1.20389 2.74675 0
M  V30 1808 H 180.837 0.661607 1.41607 0
M  V30 1809 H 181.572 -1.36052 2.94381 0
M  V30 1810 H 181.357 0.121832 3.91911 0
M  V30 1811 H 182.847 -0.853871 4.08777 0
M  V30 1812 N 183.284 -1.43765 0.645699 0
M  V30 1813 C 184.509 -2.06767 0.161883 0
M  V30 1814 C 184.934 -1.48034 -1.16049 0
M  V30 1815 O 184.292 -0.587369 -1.71522 0
M  V30 1816 C 184.34 -3.60519 0.0762003 0
M  V30 1817 O 183.444 -4.00982 -0.963721 0
M  V30 1818 H 182.785 -0.657675 0.091429 0
M  V30 1819 H 185.315 -1.84397 0.886499 0
M  V30 1820 H 185.325 -4.07853 -0.109604 0
M  V30 1821 H 184 -4.02646 1.04157 0
M  V30 1822 H 182.577 -3.65253 -0.751312 0
M  V30 1823 N 184.763 -0.387143 -1.52771 0
M  V30 1824 C 185.693 0.440551 -2.29306 0
M  V30 1825 C 186.674 1.06535 -1.32606 0
M  V30 1826 O 187.859 1.07853 -1.61497 0
M  V30 1827 C 184.989 1.56919 -3.09829 0
M  V30 1828 C 183.943 1.07054 -4.14395 0
M  V30 1829 C 183.269 2.29109 -4.83129 0
M  V30 1830 C 184.569 0.140015 -5.22112 0
M  V30 1831 H 186.263 -0.198026 -2.98744 0
M  V30 1832 H 183.809 -0.09668 -1.43675 0
M  V30 1833 H 185.762 2.15503 -3.62128 0
M  V30 1834 H 184.486 2.23532 -2.3812 0
M  V30 1835 H 183.145 0.507247 -3.63074 0
M  V30 1836 H 182.793 2.94227 -4.0797 0
M  V30 1837 H 182.493 1.96406 -5.53804 0
M  V30 1838 H 184.017 2.88339 -5.38231 0
M  V30 1839 H 185.431 0.633978 -5.69784 0
M  V30 1840 H 183.828 -0.0971485 -6.00021 0
M  V30 1841 H 184.898 -0.811711 -4.78058 0
M  V30 1842 N 186.241 1.57166 -0.116904 0
M  V30 1843 C 187.171 2.18222 0.830759 0
M  V30 1844 C 188.152 1.12167 1.27877 0
M  V30 1845 O 189.337 1.40394 1.34176 0
M  V30 1846 C 186.467 2.77996 2.08172 0
M  V30 1847 C 185.421 3.89614 1.77157 0
M  V30 1848 C 184.747 4.36187 3.09265 0
M  V30 1849 C 186.047 5.1181 1.04151 0
M  V30 1850 H 187.741 2.97664 0.321992 0
M  V30 1851 H 185.287 1.4318 0.153434 0
M  V30 1852 H 187.24 3.19366 2.74924 0
M  V30 1853 H 185.964 1.9584 2.6137 0
M  V30 1854 H 184.623 3.48816 1.12796 0
M  V30 1855 H 184.271 3.50893 3.60393 0
M  V30 1856 H 183.971 5.11455 2.89288 0
M  V30 1857 H 185.495 4.80207 3.77139 0
M  V30 1858 H 186.909 5.50214 1.61052 0
M  V30 1859 H 185.306 5.92648 0.942762 0
M  V30 1860 H 186.376 4.84892 0.0279022 0
M  V30 1861 N 187.719 -0.156864 1.56817 0
M  V30 1862 C 188.944 -0.890331 1.87318 0
M  V30 1863 C 189.369 -1.74394 0.704855 0
M  V30 1864 O 188.727 -1.77972 -0.345786 0
M  V30 1865 C 188.775 -1.73102 3.16336 0
M  V30 1866 O 187.879 -2.83422 2.99576 0
M  V30 1867 H 187.22 -0.24857 0.615718 0
M  V30 1868 H 189.75 -0.150649 2.04045 0
M  V30 1869 H 189.76 -2.12803 3.48107 0
M  V30 1870 H 188.435 -1.10412 4.00976 0
M  V30 1871 H 187.012 -2.47199 2.7919 0
M  V30 1872 N 189.197 -1.51736 -0.425897 0
M  V30 1873 C 190.608 -1.5732 -1.00536 0
M  V30 1874 C 190.959 -0.403537 -1.92005 0
M  V30 1875 O 190.084 0.478256 -2.11049 0
M  V30 1876 C 190.679 -2.85119 -1.8301 0
M  V30 1877 C 189.238 -2.93236 -2.35987 0
M  V30 1878 C 188.385 -2.52098 -1.15508 0
M  V30 1879 H 191.336 -1.57348 -0.206739 0
M  V30 1880 H 191.357 -2.69526 -2.68581 0
M  V30 1881 H 190.869 -3.7023 -1.16411 0
M  V30 1882 H 188.97 -2.12581 -3.06007 0
M  V30 1883 H 189.083 -3.9713 -2.68001 0
M  V30 1884 H 187.447 -2.05558 -1.50393 0
M  V30 1885 H 188.23 -3.39565 -0.505014 0
M  V30 1886 N 190.675 0.682077 -1.42076 0
M  V30 1887 C 192.091 0.994324 -1.24841 0
M  V30 1888 C 192.291 2.0096 -0.147389 0
M  V30 1889 O 191.347 2.47822 0.483782 0
M  V30 1890 C 192.66 1.50607 -2.60265 0
M  V30 1891 C 194.208 1.62421 -2.6756 0
M  V30 1892 C 194.683 2.16994 -4.03333 0
M  V30 1893 N 196.174 2.24337 -4.0525 0
M  V30 1894 C 196.909 2.67621 -5.07116 0
M  V30 1895 N 196.405 3.1041 -6.19368 0
M  V30 1896 N 198.198 2.67305 -4.94474 0
M  V30 1897 H 190.349 0.00973908 -2.12398 0
M  V30 1898 H 192.612 0.0668593 -0.945639 0
M  V30 1899 H 192.318 0.834583 -3.41654 0
M  V30 1900 H 192.192 2.48602 -2.83684 0
M  V30 1901 H 194.579 2.28678 -1.86521 0
M  V30 1902 H 194.66 0.629352 -2.47937 0
M  V30 1903 H 194.304 1.51349 -4.84826 0
M  V30 1904 H 194.234 3.17258 -4.20304 0
M  V30 1905 H 196.725 1.94158 -3.24209 0
M  V30 1906 H 197.038 3.42103 -6.92954 0
M  V30 1907 H 195.383 3.08286 -6.22884 0
M  V30 1908 H 198.574 2.33233 -4.05857 0
M  V30 1909 H 198.747 3.00718 -5.73997 0
M  V30 1910 N 192.153 1.28127 0.917671 0
M  V30 1911 C 193.564 1.13622 1.48145 0
M  V30 1912 C 193.915 -0.275207 1.9426 0
M  V30 1913 O 193.04 -1.1691 1.82102 0
M  V30 1914 C 193.635 2.05648 2.69248 0
M  V30 1915 C 192.194 1.95219 3.21818 0
M  V30 1916 C 191.341 1.97618 1.94532 0
M  V30 1917 H 194.292 1.40874 0.730772 0
M  V30 1918 H 194.313 1.61818 3.44377 0
M  V30 1919 H 193.825 3.08365 2.35653 0
M  V30 1920 H 191.926 0.955244 3.60147 0
M  V30 1921 H 192.039 2.81976 3.87333 0
M  V30 1922 H 190.403 1.41973 2.11461 0
M  V30 1923 H 191.186 3.02007 1.63238 0
M  V30 1924 N 193.631 -1.12557 1.10312 0
M  V30 1925 C 194.561 -2.20341 0.772798 0
M  V30 1926 C 195.542 -1.68198 -0.25365 0
M  V30 1927 O 196.727 -1.93831 -0.119699 0
M  V30 1928 C 193.857 -3.46709 0.202443 0
M  V30 1929 C 192.811 -4.11996 1.15943 0
M  V30 1930 C 192.137 -5.328 0.450345 0
M  V30 1931 C 193.437 -4.5828 2.50552 0
M  V30 1932 H 195.131 -2.48229 1.674 0
M  V30 1933 H 192.677 -1.19308 0.806326 0
M  V30 1934 H 194.63 -4.2138 -0.0407752 0
M  V30 1935 H 193.354 -3.18245 -0.734001 0
M  V30 1936 H 192.013 -3.39305 1.38808 0
M  V30 1937 H 191.661 -5.00602 -0.490531 0
M  V30 1938 H 191.361 -5.7743 1.08851 0
M  V30 1939 H 192.885 -6.10219 0.215642 0
M  V30 1940 H 194.299 -5.2433 2.31843 0
M  V30 1941 H 192.696 -5.13683 3.10242 0
M  V30 1942 H 193.766 -3.72329 3.10643 0
M  V30 1943 N 195.109 -0.891671 -1.2995 0
M  V30 1944 C 196.072 -0.36828 -2.26222 0
M  V30 1945 C 197.072 0.493014 -1.53056 0
M  V30 1946 O 198.262 0.299213 -1.71611 0
M  V30 1947 C 195.394 0.47442 -3.37583 0
M  V30 1948 H 196.587 -1.21844 -2.74033 0
M  V30 1949 H 194.14 -0.669107 -1.41254 0
M  V30 1950 H 194.875 1.34489 -2.95099 0
M  V30 1951 H 194.66 -0.142615 -3.91841 0
M  V30 1952 H 196.15 0.83218 -4.09224 0
M  V30 1953 N 196.587 1.43421 -0.653314 0
M  V30 1954 C 197.827 2.03689 -0.170346 0
M  V30 1955 C 198.191 1.50427 1.19314 0
M  V30 1956 O 199.392 2.0234 1.76952 0
M  V30 1957 C 197.663 3.56946 -0.180183 0
M  V30 1958 S 199.222 4.38171 0.234925 0
M  V30 1959 H 196.04 0.707345 -0.0719976 0
M  V30 1960 H 198.642 1.75486 -0.86167 0
M  V30 1961 H 197.346 3.93212 -1.17526 0
M  V30 1962 H 196.877 3.89791 0.531675 0
M  V30 1963 H 198.892 4.73808 1.47378 0
M  V30 1964 N 198.065 0.39524 1.52563 0
M  V30 1965 C 198.995 -0.428384 2.29537 0
M  V30 1966 C 199.976 -1.05831 1.33169 0
M  V30 1967 O 201.161 -1.06995 1.62067 0
M  V30 1968 C 198.291 -1.55274 3.10656 0
M  V30 1969 C 197.245 -1.04855 4.14957 0
M  V30 1970 C 196.571 -2.26543 4.84337 0
M  V30 1971 C 197.871 -0.112324 5.22179 0
M  V30 1972 H 199.565 0.213867 2.98635 0
M  V30 1973 H 197.111 0.104298 1.43622 0
M  V30 1974 H 199.064 -2.1358 3.63265 0
M  V30 1975 H 197.788 -2.22266 2.39302 0
M  V30 1976 H 196.447 -0.487985 3.63338 0
M  V30 1977 H 196.095 -2.92059 4.09525 0
M  V30 1978 H 195.795 -1.93466 5.54837 0
M  V30 1979 H 197.319 -2.85481 5.39753 0
M  V30 1980 H 198.733 -0.603752 5.70112 0
M  V30 1981 H 197.13 0.128968 5.99961 0
M  V30 1982 H 198.2 0.837052 4.77621 0
M  V30 1983 N 199.544 -1.57102 0.125237 0
M  V30 1984 C 200.491 -2.15641 -0.822655 0
M  V30 1985 C 201.461 -1.08313 -1.25927 0
M  V30 1986 O 202.646 -1.36251 -1.33567 0
M  V30 1987 C 199.786 -2.76504 -2.06494 0
M  V30 1988 C 198.899 -3.98158 -1.67612 0
M  V30 1989 C 198.034 -4.47088 -2.86854 0
M  V30 1990 C 197.073 -5.6126 -2.44242 0
M  V30 1991 N 196.21 -6.04905 -3.56419 0
M  V30 1992 H 201.05 -2.96313 -0.316625 0
M  V30 1993 H 198.587 -1.46388 -0.144588 0
M  V30 1994 H 200.545 -3.09925 -2.79289 0
M  V30 1995 H 199.175 -1.98512 -2.54545 0
M  V30 1996 H 198.227 -3.70858 -0.846661 0
M  V30 1997 H 199.539 -4.80934 -1.32301 0
M  V30 1998 H 198.693 -4.82451 -3.67867 0
M  V30 1999 H 197.432 -3.63275 -3.25396 0
M  V30 2000 H 196.437 -5.25495 -1.61663 0
M  V30 2001 H 197.662 -6.46843 -2.0681 0
M  V30 2002 H 195.608 -5.24032 -3.94623 0
M  V30 2003 H 195.525 -6.82552 -3.25051 0
M  V30 2004 H 196.793 -6.44907 -4.37853 0
M  V30 2005 N 201.022 0.148545 -1.56898 0
M  V30 2006 C 202.27 0.859717 -1.82902 0
M  V30 2007 C 202.591 1.81775 -0.70588 0
M  V30 2008 O 201.861 1.93994 0.272586 0
M  V30 2009 H 200.441 0.320469 -0.674766 0
M  V30 2010 H 203.103 0.142918 -1.94375 0
M  V30 2011 H 202.199 1.4229 -2.77777 0
M  V30 2012 N 202.5 1.5196 0.417844 0
M  V30 2013 C 203.725 1.69717 1.1921 0
M  V30 2014 C 204.15 0.402148 1.83751 0
M  V30 2015 O 203.508 -0.639593 1.69643 0
M  V30 2016 C 203.556 2.82794 2.2374 0
M  V30 2017 O 202.66 2.47756 3.29683 0
M  V30 2018 H 202.001 0.565263 0.348387 0
M  V30 2019 H 204.531 1.98621 0.490985 0
M  V30 2020 H 204.541 3.07452 2.68212 0
M  V30 2021 H 203.216 3.76756 1.76146 0
M  V30 2022 H 201.793 2.33739 2.90552 0
M  V30 2023 N 203.978 -0.674533 1.42435 0
M  V30 2024 C 205.203 -1.46784 1.46524 0
M  V30 2025 C 205.628 -1.87938 0.078066 0
M  V30 2026 O 204.986 -1.56014 -0.92354 0
M  V30 2027 C 205.034 -2.69307 2.39805 0
M  V30 2028 O 204.138 -3.67587 1.86959 0
M  V30 2029 H 203.479 -0.440959 0.496439 0
M  V30 2030 H 206.009 -0.827326 1.87127 0
M  V30 2031 H 206.019 -3.17374 2.56393 0
M  V30 2032 H 204.694 -2.38692 3.40586 0
M  V30 2033 H 203.271 -3.2662 1.79927 0
M  V30 2034 N 205.456 -1.28612 -0.910864 0
M  V30 2035 C 206.704 -1.15705 -1.65701 0
M  V30 2036 C 207.025 0.29416 -1.92769 0
M  V30 2037 O 206.295 1.20331 -1.54588 0
M  V30 2038 H 204.875 -0.425216 -0.614167 0
M  V30 2039 H 207.537 -1.61381 -1.0928 0
M  V30 2040 H 206.633 -1.6988 -2.61815 0
M  V30 2041 N 206.934 1.1197 -1.10907 0
M  V30 2042 C 208.182 1.83225 -0.852819 0
M  V30 2043 C 208.503 1.84769 0.623341 0
M  V30 2044 O 207.773 1.3143 1.45269 0
M  V30 2045 H 206.353 0.67849 -0.312507 0
M  V30 2046 H 209.015 1.3556 -1.40033 0
M  V30 2047 H 208.111 2.87265 -1.22005 0
M  V30 2048 N 208.412 0.89855 1.29475 0
M  V30 2049 C 209.823 0.572537 1.77705 0
M  V30 2050 C 210.174 -0.911778 1.73727 0
M  V30 2051 O 209.299 -1.71288 1.32247 0
M  V30 2052 C 209.894 1.03252 3.22683 0
M  V30 2053 C 208.453 0.757687 3.68695 0
M  V30 2054 C 207.6 1.20787 2.49612 0
M  V30 2055 H 210.551 1.08139 1.16153 0
M  V30 2056 H 210.572 0.367307 3.78723 0
M  V30 2057 H 210.084 2.11285 3.25546 0
M  V30 2058 H 208.185 -0.310079 3.71308 0
M  V30 2059 H 208.298 1.35476 4.59547 0
M  V30 2060 H 206.662 0.626888 2.46865 0
M  V30 2061 H 207.445 2.29622 2.55203 0
M  V30 2062 N 209.89 -1.43072 0.660911 0
M  V30 2063 C 211.136 -2.0202 0.177708 0
M  V30 2064 C 211.469 -1.52066 -1.20787 0
M  V30 2065 O 210.744 -0.716987 -1.80802 0
M  V30 2066 C 211.027 -3.59561 0.197019 0
M  V30 2067 C 210.88 -4.19727 1.61706 0
M  V30 2068 C 212.199 -4.37664 -0.462396 0
M  V30 2069 H 209.318 -0.734034 0.0660494 0
M  V30 2070 H 211.96 -1.70272 0.843058 0
M  V30 2071 H 210.11 -3.86739 -0.369527 0
M  V30 2072 H 211.782 -4.03553 2.23479 0
M  V30 2073 H 210.025 -3.76084 2.16201 0
M  V30 2074 H 210.696 -5.28834 1.58237 0
M  V30 2075 H 213.172 -4.16095 0.0197215 0
M  V30 2076 H 212.048 -5.47305 -0.418188 0
M  V30 2077 H 212.309 -4.14493 -1.53778 0
M  V30 2078 N 211.368 -0.403325 -1.52352 0
M  V30 2079 C 212.301 0.469463 -2.23319 0
M  V30 2080 C 213.279 1.05272 -1.23922 0
M  V30 2081 O 214.463 1.10169 -1.52954 0
M  V30 2082 C 211.59 1.6511 -2.9573 0
M  V30 2083 C 210.636 1.19178 -4.0951 0
M  V30 2084 S 211.469 0.161718 -5.35256 0
M  V30 2085 C 212.625 1.34882 -6.11194 0
M  V30 2086 H 212.858 -0.133134 -2.97002 0
M  V30 2087 H 210.391 -0.187588 -1.53256 0
M  V30 2088 H 212.349 2.3287 -3.38056 0
M  V30 2089 H 211.01 2.22503 -2.21701 0
M  V30 2090 H 210.203 2.07444 -4.59329 0
M  V30 2091 H 209.805 0.592911 -3.6927 0
M  V30 2092 H 212.097 2.27345 -6.38217 0
M  V30 2093 H 213.04 0.89128 -7.02468 0
M  V30 2094 H 213.448 1.57198 -5.42171 0
M  V30 2095 N 212.846 1.57033 -0.133567 0
M  V30 2096 C 214.086 1.97575 0.523789 0
M  V30 2097 C 214.45 1.01605 1.62912 0
M  V30 2098 O 215.651 1.3114 2.3464 0
M  V30 2099 C 213.922 3.42256 1.02935 0
M  V30 2100 S 215.481 4.04817 1.69319 0
M  V30 2101 H 212.299 0.690427 0.169799 0
M  V30 2102 H 214.901 1.94234 -0.222101 0
M  V30 2103 H 213.605 4.09842 0.213917 0
M  V30 2104 H 213.136 3.4928 1.81017 0
M  V30 2105 H 215.151 3.96767 2.97977 0
M  V30 2106 N 214.325 -0.140222 1.56975 0
M  V30 2107 C 215.736 -0.699596 1.73097 0
M  V30 2108 C 216.087 -1.8134 0.749022 0
M  V30 2109 O 215.212 -2.16241 -0.0828503 0
M  V30 2110 C 215.807 -1.27582 3.1386 0
M  V30 2111 C 214.366 -1.78169 3.31561 0
M  V30 2112 C 213.513 -0.672855 2.69013 0
M  V30 2113 H 216.464 0.0855115 1.58469 0
M  V30 2114 H 216.485 -2.14561 3.14235 0
M  V30 2115 H 215.997 -0.464955 3.85305 0
M  V30 2116 H 214.098 -2.61801 2.65124 0
M  V30 2117 H 214.211 -1.90574 4.39566 0
M  V30 2118 H 212.575 -1.10118 2.29665 0
M  V30 2119 H 213.358 0.126679 3.43066 0
M  V30 2120 N 215.803 -1.52179 -0.40978 0
M  V30 2121 C 217.028 -1.70347 -1.18308 0
M  V30 2122 C 217.453 -0.411887 -1.83535 0
M  V30 2123 O 216.811 0.630587 -1.6998 0
M  V30 2124 C 216.859 -2.83977 -2.22238 0
M  V30 2125 O 215.963 -2.495 -3.28365 0
M  V30 2126 H 215.304 -0.567103 -0.345384 0
M  V30 2127 H 217.834 -1.98879 -0.480445 0
M  V30 2128 H 217.844 -3.0887 -2.66577 0
M  V30 2129 H 216.519 -3.77685 -1.74146 0
M  V30 2130 H 215.096 -2.35277 -2.89308 0
M  V30 2131 N 217.281 0.66697 -1.42791 0
M  V30 2132 C 218.529 1.42417 -1.43394 0
M  V30 2133 C 218.85 1.94925 -0.0542373 0
M  V30 2134 O 218.12 1.73564 0.908415 0
M  V30 2135 H 216.7 0.528515 -0.527902 0
M  V30 2136 H 219.362 0.787562 -1.78279 0
M  V30 2137 H 218.458 2.27333 -2.13837 0
M  V30 2138 N 218.759 1.29093 0.90403 0
M  V30 2139 C 219.709 1.10482 1.99443 0
M  V30 2140 C 220.693 0.0255401 1.6088 0
M  V30 2141 O 221.885 0.24677 1.75271 0
M  V30 2142 C 219.014 0.778882 3.34348 0
M  V30 2143 C 218.1 1.89749 3.79284 0
M  V30 2144 N 218.491 3.14045 3.96497 0
M  V30 2145 C 216.789 1.78955 4.08523 0
M  V30 2146 C 217.49 3.86996 4.34292 0
M  V30 2147 N 216.466 3.14909 4.43095 0
M  V30 2148 H 220.268 2.04778 2.10815 0
M  V30 2149 H 217.782 1.20155 1.09255 0
M  V30 2150 H 219.779 0.62661 4.12164 0
M  V30 2151 H 218.439 -0.156205 3.24324 0
M  V30 2152 H 219.45 3.49548 3.82148 0
M  V30 2153 H 216.127 0.926886 4.07081 0
M  V30 2154 H 217.517 4.93941 4.55491 0
M  V30 2155 N 220.237 -1.11381 1.11499 0
M  V30 2156 C 221.483 -1.83403 0.865512 0
M  V30 2157 C 221.816 -1.84459 -0.607329 0
M  V30 2158 O 221.091 -1.29811 -1.44842 0
M  V30 2159 C 221.374 -3.30552 1.42855 0
M  V30 2160 C 221.227 -3.37886 2.96906 0
M  V30 2161 C 222.546 -4.26643 1.08 0
M  V30 2162 H 219.665 -0.665879 0.31587 0
M  V30 2163 H 222.307 -1.30601 1.37998 0
M  V30 2164 H 220.457 -3.75648 0.990985 0
M  V30 2165 H 222.129 -3.01343 3.49271 0
M  V30 2166 H 220.372 -2.78088 3.32941 0
M  V30 2167 H 221.043 -4.41458 3.31389 0
M  V30 2168 H 223.519 -3.89729 1.45775 0
M  V30 2169 H 222.395 -5.27986 1.50072 0
M  V30 2170 H 222.656 -4.42099 -0.00915037 0
M  V30 2171 N 221.715 -0.905404 -1.28997 0
M  V30 2172 C 222.678 -0.392253 -2.25819 0
M  V30 2173 C 223.678 0.476753 -1.5357 0
M  V30 2174 O 224.868 0.280994 -1.71919 0
M  V30 2175 C 222 0.438588 -3.38067 0
M  V30 2176 H 223.193 -1.24743 -2.72725 0
M  V30 2177 H 220.746 -0.684051 -1.40536 0
M  V30 2178 H 221.481 1.31352 -2.96508 0
M  V30 2179 H 221.266 -0.184167 -3.91667 0
M  V30 2180 H 222.756 0.78873 -4.10084 0
M  V30 2181 N 223.193 1.4272 -0.668489 0
M  V30 2182 C 224.441 2.01226 -0.187769 0
M  V30 2183 C 224.762 1.53092 1.2078 0
M  V30 2184 O 224.032 0.74993 1.80977 0
M  V30 2185 H 222.612 0.744041 -0.0664272 0
M  V30 2186 H 225.274 1.74723 -0.863583 0
M  V30 2187 H 224.37 3.11556 -0.184166 0
M  V30 2188 N 224.671 0.411399 1.52136 0
M  V30 2189 C 225.92 -0.165009 2.01024 0
M  V30 2190 C 226.233 -1.4603 1.30133 0
M  V30 2191 O 227.439 -2.1181 1.69849 0
M  V30 2192 C 225.895 -0.344618 3.58246 0
M  V30 2193 C 225.503 0.938716 4.38055 0
M  V30 2194 C 227.247 -0.876195 4.15359 0
M  V30 2195 C 225.154 0.726172 5.86925 0
M  V30 2196 H 224.084 -0.0654407 0.751155 0
M  V30 2197 H 226.735 0.537192 1.75461 0
M  V30 2198 H 225.117 -1.10921 3.80148 0
M  V30 2199 H 226.291 1.70963 4.27912 0
M  V30 2200 H 224.606 1.39688 3.92271 0
M  V30 2201 H 227.203 -1.05128 5.24263 0
M  V30 2202 H 227.546 -1.85152 3.7286 0
M  V30 2203 H 228.079 -0.170607 3.97434 0
M  V30 2204 H 224.818 1.67312 6.33788 0
M  V30 2205 H 224.338 -0.00540283 5.998 0
M  V30 2206 H 226.017 0.369231 6.45946 0
M  V30 2207 N 226.149 -1.5696 0.141893 0
M  V30 2208 C 227.396 -1.9596 -0.510492 0
M  V30 2209 C 227.724 -1.02648 -1.65208 0
M  V30 2210 O 226.979 -0.0546947 -1.95624 0
M  V30 2211 C 227.278 -3.41242 -1.06249 0
M  V30 2212 C 226.944 -4.50882 -0.0398791 0
M  V30 2213 C 225.606 -4.80595 0.241247 0
M  V30 2214 C 227.958 -5.17058 0.65578 0
M  V30 2215 C 225.286 -5.73792 1.22393 0
M  V30 2216 C 227.638 -6.11313 1.62724 0
M  V30 2217 C 226.302 -6.39407 1.91612 0
M  V30 2218 H 225.572 -0.717068 -0.186802 0
M  V30 2219 H 228.219 -1.90142 0.227643 0
M  V30 2220 H 226.524 -3.43866 -1.87785 0
M  V30 2221 H 228.221 -3.68742 -1.57576 0
M  V30 2222 H 224.811 -4.27754 -0.269174 0
M  V30 2223 H 228.995 -4.94239 0.451779 0
M  V30 2224 H 224.251 -5.93853 1.45424 0
M  V30 2225 H 228.425 -6.61668 2.17183 0
M  V30 2226 H 226.052 -7.11427 2.6791 0
M  V30 2227 N 227.627 0.131896 -1.57047 0
M  V30 2228 C 229.043 0.485031 -1.52051 0
M  V30 2229 C 229.243 1.82563 -0.85281 0
M  V30 2230 O 228.299 2.48817 -0.429694 0
M  V30 2231 C 229.612 0.481409 -2.96821 0
M  V30 2232 C 231.16 0.565868 -3.07842 0
M  V30 2233 C 231.635 0.592762 -4.54148 0
M  V30 2234 N 233.126 0.654564 -4.58552 0
M  V30 2235 C 233.861 0.696608 -5.69153 0
M  V30 2236 N 233.357 0.697078 -6.89284 0
M  V30 2237 N 235.15 0.738639 -5.57226 0
M  V30 2238 H 227.301 -0.746664 -1.98843 0
M  V30 2239 H 229.564 -0.273999 -0.90754 0
M  V30 2240 H 229.27 -0.435731 -3.4899 0
M  V30 2241 H 229.144 1.3139 -3.53577 0
M  V30 2242 H 231.531 1.47343 -2.55684 0
M  V30 2243 H 231.612 -0.29406 -2.54104 0
M  V30 2244 H 231.256 -0.310701 -5.06949 0
M  V30 2245 H 231.186 1.46939 -5.05684 0
M  V30 2246 H 233.677 0.660887 -3.72076 0
M  V30 2247 H 233.99 0.731426 -7.69331 0
M  V30 2248 H 232.335 0.66471 -6.91814 0
M  V30 2249 H 235.526 0.735545 -4.62285 0
M  V30 2250 H 235.699 0.767938 -6.43434 0
M  V30 2251 N 229.106 1.52395 0.401703 0
M  V30 2252 C 230.069 1.75636 1.47257 0
M  V30 2253 C 231.069 0.62628 1.48103 0
M  V30 2254 O 232.259 0.894227 1.49497 0
M  V30 2255 C 229.391 1.84553 2.86624 0
M  V30 2256 H 230.584 2.71241 1.27938 0
M  V30 2257 H 228.137 1.42923 0.632662 0
M  V30 2258 H 228.872 0.908882 3.11303 0
M  V30 2259 H 228.657 2.66715 2.87412 0
M  V30 2260 H 230.147 2.04251 3.64241 0
M  V30 2261 N 230.584 -0.659388 1.43143 0
M  V30 2262 C 231.547 -1.75432 1.47501 0
M  V30 2263 C 232.547 -1.56707 0.360512 0
M  V30 2264 O 233.737 -1.62717 0.622002 0
M  V30 2265 C 230.869 -3.14239 1.32162 0
M  V30 2266 H 232.062 -1.7295 2.45006 0
M  V30 2267 H 229.615 -0.870469 1.29817 0
M  V30 2268 H 230.35 -3.22336 0.356401 0
M  V30 2269 H 230.135 -3.29235 2.12948 0
M  V30 2270 H 231.625 -3.94094 1.3813 0
M  V30 2271 N 232.062 -1.29571 -0.897171 0
M  V30 2272 C 233.308 -1.17863 -1.65034 0
M  V30 2273 C 233.641 0.268729 -1.92332 0
M  V30 2274 O 232.916 1.19378 -1.53555 0
M  V30 2275 C 233.199 -1.995 -2.99786 0
M  V30 2276 C 233.052 -3.5239 -2.79538 0
M  V30 2277 C 234.371 -1.82335 -4.00552 0
M  V30 2278 H 231.49 -0.429528 -0.598895 0
M  V30 2279 H 234.132 -1.59072 -1.03905 0
M  V30 2280 H 232.282 -1.64485 -3.51962 0
M  V30 2281 H 233.954 -3.97401 -2.34244 0
M  V30 2282 H 232.197 -3.77187 -2.14273 0
M  V30 2283 H 232.868 -4.04787 -3.75302 0
M  V30 2284 H 235.344 -2.12924 -3.57495 0
M  V30 2285 H 234.22 -2.41801 -4.92771 0
M  V30 2286 H 234.481 -0.779209 -4.35179 0
M  V30 2287 N 233.54 1.10788 -1.12088 0
M  V30 2288 C 234.78 1.84297 -0.883974 0
M  V30 2289 C 235.144 1.83036 0.579797 0
M  V30 2290 O 236.345 2.52061 0.933734 0
M  V30 2291 C 234.616 3.27173 -1.43849 0
M  V30 2292 S 236.175 4.17853 -1.33957 0
M  V30 2293 H 232.993 0.635433 -0.318977 0
M  V30 2294 H 235.595 1.33341 -1.4297 0
M  V30 2295 H 234.299 3.25658 -2.49749 0
M  V30 2296 H 233.83 3.83198 -0.890096 0
M  V30 2297 H 235.845 4.95239 -0.308603 0
M  V30 2298 N 235.018 0.912232 1.28515 0
M  V30 2299 C 236.246 0.560416 1.99166 0
M  V30 2300 C 236.661 -0.857927 1.68182 0
M  V30 2301 O 236.018 -1.56805 0.933733 0
M  V30 2302 C 236.069 0.758142 3.53461 0
M  V30 2303 O 235.79 2.12067 3.83352 0
M  V30 2304 C 237.291 0.412954 4.41372 0
M  V30 2305 H 234.511 0.213805 0.636026 0
M  V30 2306 H 237.055 1.22502 1.63749 0
M  V30 2307 H 235.21 0.140556 3.87145 0
M  V30 2308 H 235.624 2.15923 4.77993 0
M  V30 2309 H 237.098 0.60208 5.48707 0
M  V30 2310 H 237.575 -0.65073 4.34353 0
M  V30 2311 H 238.181 1.00802 4.13182 0
M  V30 2312 N 236.496 -1.42363 0.676048 0
M  V30 2313 C 237.912 -1.55811 0.345718 0
M  V30 2314 C 238.112 -1.65544 -1.14879 0
M  V30 2315 O 237.168 -1.62306 -1.93424 0
M  V30 2316 C 238.481 -2.80746 1.07713 0
M  V30 2317 C 240.029 -2.9452 1.05958 0
M  V30 2318 C 240.504 -4.22318 1.77233 0
M  V30 2319 N 241.995 -4.29233 1.74108 0
M  V30 2320 C 242.73 -5.26935 2.26113 0
M  V30 2321 N 242.226 -6.30783 2.86505 0
M  V30 2322 N 244.019 -5.18741 2.1648 0
M  V30 2323 H 236.17 -1.34289 1.6456 0
M  V30 2324 H 238.433 -0.646506 0.69335 0
M  V30 2325 H 238.139 -2.79696 2.13221 0
M  V30 2326 H 238.013 -3.71676 0.64316 0
M  V30 2327 H 240.4 -2.95097 0.0128255 0
M  V30 2328 H 240.481 -2.04817 1.53244 0
M  V30 2329 H 240.125 -4.22502 2.81877 0
M  V30 2330 H 240.055 -5.10958 1.27396 0
M  V30 2331 H 242.546 -3.54814 1.30059 0
M  V30 2332 H 242.859 -7.01691 3.23805 0
M  V30 2333 H 241.204 -6.31341 2.90575 0
M  V30 2334 H 244.395 -4.36533 1.68987 0
M  V30 2335 H 244.568 -5.94721 2.57316 0
M  V30 2336 N 237.974 -0.419461 -1.51915 0
M  V30 2337 C 239.222 0.152637 -2.01523 0
M  V30 2338 C 239.543 1.44762 -1.30649 0
M  V30 2339 O 238.813 1.90997 -0.435535 0
M  V30 2340 H 237.393 0.0593966 -0.744635 0
M  V30 2341 H 240.055 -0.558073 -1.86739 0
M  V30 2342 H 239.151 0.341369 -3.10227 0
M  V30 2343 N 239.452 1.56882 -0.150215 0
M  V30 2344 C 240.698 1.96518 0.500834 0
M  V30 2345 C 241.031 1.03527 1.64304 0
M  V30 2346 O 240.306 0.0782751 1.94342 0
M  V30 2347 C 240.589 3.45822 1.00395 0
M  V30 2348 C 240.442 4.49591 -0.136983 0
M  V30 2349 C 241.761 3.97704 1.88467 0
M  V30 2350 H 238.88 0.714535 0.18058 0
M  V30 2351 H 241.522 1.88577 -0.232091 0
M  V30 2352 H 239.672 3.5272 1.62851 0
M  V30 2353 H 241.344 4.5477 -0.77343 0
M  V30 2354 H 239.587 4.26441 -0.795652 0
M  V30 2355 H 240.258 5.51402 0.256815 0
M  V30 2356 H 242.734 3.93304 1.35834 0
M  V30 2357 H 241.61 5.0263 2.20578 0
M  V30 2358 H 241.871 3.40252 2.82279 0
M  V30 2359 N 240.93 -0.123565 1.57115 0
M  V30 2360 C 241.893 -1.13583 1.99076 0
M  V30 2361 C 242.893 -1.34564 0.880296 0
M  V30 2362 O 244.083 -1.31158 1.14644 0
M  V30 2363 C 241.215 -2.49128 2.32698 0
M  V30 2364 H 242.408 -0.775287 2.89706 0
M  V30 2365 H 239.961 -0.36771 1.51913 0
M  V30 2366 H 240.696 -2.90111 1.44934 0
M  V30 2367 H 240.481 -2.35255 3.13684 0
M  V30 2368 H 241.971 -3.2199 2.65918 0
M  V30 2369 N 242.408 -1.52605 -0.393616 0
M  V30 2370 C 243.355 -1.77055 -1.48054 0
M  V30 2371 C 244.325 -0.61358 -1.54352 0
M  V30 2372 O 245.51 -0.852806 -1.70681 0
M  V30 2373 C 242.65 -1.94108 -2.85335 0
M  V30 2374 C 241.763 -3.21792 -2.88226 0
M  V30 2375 C 240.898 -3.29188 -4.16904 0
M  V30 2376 C 239.937 -4.51013 -4.13828 0
M  V30 2377 N 239.074 -4.55716 -5.34105 0
M  V30 2378 H 243.914 -2.69815 -1.26506 0
M  V30 2379 H 241.451 -1.33683 -0.61379 0
M  V30 2380 H 243.409 -2.01979 -3.65049 0
M  V30 2381 H 242.039 -1.04713 -3.05344 0
M  V30 2382 H 241.091 -3.23015 -2.00911 0
M  V30 2383 H 242.403 -4.11557 -2.8182 0
M  V30 2384 H 241.557 -3.36216 -5.05018 0
M  V30 2385 H 240.296 -2.37389 -4.26026 0
M  V30 2386 H 239.301 -4.44115 -3.24102 0
M  V30 2387 H 240.526 -5.44123 -4.06333 0
M  V30 2388 H 238.472 -3.66807 -5.43865 0
M  V30 2389 H 238.389 -5.39346 -5.29756 0
M  V30 2390 H 239.657 -4.66993 -6.2413 0
M  V30 2391 N 243.887 0.651787 -1.4349 0
M  V30 2392 C 244.85 1.74647 -1.48429 0
M  V30 2393 C 245.85 1.56513 -0.368817 0
M  V30 2394 O 247.04 1.62385 -0.630623 0
M  V30 2395 C 244.172 3.13533 -1.33827 0
M  V30 2396 H 245.365 1.71649 -2.4592 0
M  V30 2397 H 242.918 0.863573 -1.30277 0
M  V30 2398 H 243.653 3.22142 -0.37349 0
M  V30 2399 H 243.438 3.28101 -2.14691 0
M  V30 2400 H 244.928 3.93356 -1.40218 0
M  V30 2401 N 245.365 1.30045 0.890287 0
M  V30 2402 C 246.295 1.18541 2.01172 0
M  V30 2403 C 247.276 0.0773356 1.69924 0
M  V30 2404 O 248.461 0.25845 1.92473 0
M  V30 2405 C 245.591 0.870941 3.36202 0
M  V30 2406 C 244.545 1.93637 3.81692 0
M  V30 2407 C 243.871 1.475 5.13953 0
M  V30 2408 C 245.171 3.34666 4.00994 0
M  V30 2409 H 246.865 2.12359 2.11054 0
M  V30 2410 H 244.411 1.02238 1.01407 0
M  V30 2411 H 246.364 0.777141 4.14172 0
M  V30 2412 H 245.088 -0.102926 3.26438 0
M  V30 2413 H 243.747 2.01972 3.05946 0
M  V30 2414 H 243.395 0.489551 5.00612 0
M  V30 2415 H 243.095 2.1876 5.4536 0
M  V30 2416 H 244.619 1.39489 5.94454 0
M  V30 2417 H 246.033 3.2912 4.69417 0
M  V30 2418 H 244.43 4.03966 4.43769 0
M  V30 2419 H 245.5 3.76949 3.05021 0
M  V30 2420 N 246.843 -1.10192 1.12674 0
M  V30 2421 C 247.775 -2.16418 0.754701 0
M  V30 2422 C 248.788 -1.61309 -0.21986 0
M  V30 2423 O 249.977 -1.785 -0.000826841 0
M  V30 2424 C 247.077 -3.38762 0.096698 0
M  V30 2425 C 246.25 -4.23307 1.10136 0
M  V30 2426 C 245.309 -5.24092 0.470513 0
M  V30 2427 O 244.335 -5.57906 1.12824 0
M  V30 2428 N 245.537 -5.75491 -0.760948 0
M  V30 2429 H 248.302 -2.48943 1.66875 0
M  V30 2430 H 245.863 -1.25834 1.01869 0
M  V30 2431 H 247.855 -4.03291 -0.337384 0
M  V30 2432 H 246.425 -3.04192 -0.720153 0
M  V30 2433 H 245.645 -3.55036 1.71299 0
M  V30 2434 H 246.933 -4.76624 1.78064 0
M  V30 2435 H 246.331 -5.50222 -1.31424 0
M  V30 2436 H 244.888 -6.41792 -1.13781 0
M  V30 2437 N 248.321 -0.919034 -1.28029 0
M  V30 2438 C 249.568 -0.554934 -1.94748 0
M  V30 2439 C 249.896 0.90231 -1.72304 0
M  V30 2440 O 249.151 1.65767 -1.04018 0
M  V30 2441 C 249.45 -0.816855 -3.4794 0
M  V30 2442 C 249.116 -2.25448 -3.90492 0
M  V30 2443 C 247.778 -2.64752 -4.01821 0
M  V30 2444 C 250.13 -3.18977 -4.12193 0
M  V30 2445 C 247.458 -3.96727 -4.32232 0
M  V30 2446 C 249.81 -4.50523 -4.44086 0
M  V30 2447 C 248.474 -4.89673 -4.53626 0
M  V30 2448 H 247.744 -0.203065 -0.712633 0
M  V30 2449 H 250.391 -1.16136 -1.52265 0
M  V30 2450 H 248.696 -0.127677 -3.91592 0
M  V30 2451 H 250.393 -0.514238 -3.97689 0
M  V30 2452 H 246.983 -1.93952 -3.82205 0
M  V30 2453 H 251.167 -2.89817 -4.02889 0
M  V30 2454 H 246.423 -4.26754 -4.37825 0
M  V30 2455 H 250.597 -5.23005 -4.59825 0
M  V30 2456 H 248.224 -5.91969 -4.76946 0
M  V30 2457 N 249.799 1.42003 -0.683588 0
M  V30 2458 C 251.048 2.00638 -0.206681 0
M  V30 2459 C 251.361 1.5472 1.19671 0
M  V30 2460 O 252.567 2.05833 1.77045 0
M  V30 2461 C 251.023 3.58487 -0.318632 0
M  V30 2462 C 250.631 4.1339 -1.72663 0
M  V30 2463 C 252.375 4.24384 0.0991141 0
M  V30 2464 C 250.282 5.63633 -1.79087 0
M  V30 2465 H 249.212 0.750408 -0.0735107 0
M  V30 2466 H 251.863 1.62624 -0.850048 0
M  V30 2467 H 250.245 3.94047 0.392781 0
M  V30 2468 H 251.419 3.89273 -2.46583 0
M  V30 2469 H 249.734 3.59976 -2.09299 0
M  V30 2470 H 252.331 5.34652 0.0713833 0
M  V30 2471 H 252.674 4.00505 1.13586 0
M  V30 2472 H 253.207 3.93816 -0.561599 0
M  V30 2473 H 249.946 5.92323 -2.80774 0
M  V30 2474 H 249.466 5.89714 -1.09535 0
M  V30 2475 H 251.145 6.28201 -1.5483 0
M  V30 2476 N 251.277 0.427512 1.51691 0
M  V30 2477 C 252.688 -0.0378867 1.86662 0
M  V30 2478 C 253.039 -1.42819 1.34525 0
M  V30 2479 O 252.164 -2.05037 0.692014 0
M  V30 2480 C 252.759 -0.0755266 3.38716 0
M  V30 2481 C 251.318 -0.485309 3.73258 0
M  V30 2482 C 250.465 0.328399 2.75349 0
M  V30 2483 H 253.416 0.64379 1.45055 0
M  V30 2484 H 253.437 -0.887056 3.70016 0
M  V30 2485 H 252.949 0.936487 3.76632 0
M  V30 2486 H 251.05 -1.50329 3.40928 0
M  V30 2487 H 251.163 -0.21693 4.78609 0
M  V30 2488 H 249.527 -0.211905 2.53817 0
M  V30 2489 H 250.31 1.3391 3.16106 0
M  V30 2490 N 252.755 -1.56801 0.158532 0
M  V30 2491 C 254.001 -1.96781 -0.490405 0
M  V30 2492 C 254.334 -1.04397 -1.63753 0
M  V30 2493 O 253.609 -0.0885805 -1.94298 0
M  V30 2494 C 253.892 -3.4635 -0.985594 0
M  V30 2495 C 253.745 -4.49512 0.160824 0
M  V30 2496 C 255.064 -3.98697 -1.86355 0
M  V30 2497 H 252.183 -0.715482 -0.176788 0
M  V30 2498 H 254.825 -1.88451 0.242088 0
M  V30 2499 H 252.975 -3.53579 -1.60978 0
M  V30 2500 H 254.647 -4.54353 0.797537 0
M  V30 2501 H 252.89 -4.26013 0.818256 0
M  V30 2502 H 253.561 -5.51531 -0.227569 0
M  V30 2503 H 256.037 -3.94019 -1.33746 0
M  V30 2504 H 254.913 -5.03792 -2.17909 0
M  V30 2505 H 255.174 -3.41744 -2.8047 0
M  V30 2506 N 254.233 0.115231 -1.57178 0
M  V30 2507 C 255.143 1.15994 -2.03918 0
M  V30 2508 C 256.159 1.45103 -0.960268 0
M  V30 2509 O 257.335 1.56144 -1.27204 0
M  V30 2510 C 254.4 2.46568 -2.43732 0
M  V30 2511 C 253.461 2.24822 -3.65723 0
M  V30 2512 C 252.694 3.4917 -4.03629 0
M  V30 2513 O 252.917 4.56623 -3.41835 0
M  V30 2514 O 251.851 3.39949 -4.96708 0
M  V30 2515 H 255.677 0.793019 -2.93164 0
M  V30 2516 H 253.262 0.3263 -1.45793 0
M  V30 2517 H 255.144 3.23492 -2.70057 0
M  V30 2518 H 253.819 2.82726 -1.57631 0
M  V30 2519 H 252.726 1.45744 -3.44542 0
M  V30 2520 H 254.059 1.93566 -4.52541 0
M  V30 2521 N 255.711 1.52812 0.385517 0
M  V30 2522 C 256.939 1.71907 1.15133 0
M  V30 2523 C 257.354 0.439004 1.83625 0
M  V30 2524 O 256.711 -0.586765 1.7281 0
M  V30 2525 C 256.762 2.87099 2.19673 0
M  V30 2526 O 256.483 4.10151 1.53973 0
M  V30 2527 C 257.984 3.17902 3.08955 0
M  V30 2528 H 255.204 0.575479 0.345057 0
M  V30 2529 H 257.748 1.99476 0.45052 0
M  V30 2530 H 255.903 2.61982 2.85384 0
M  V30 2531 H 256.317 4.74514 2.23465 0
M  V30 2532 H 257.791 4.01959 3.7833 0
M  V30 2533 H 258.268 2.3243 3.72657 0
M  V30 2534 H 258.874 3.44871 2.48885 0
M  V30 2535 N 257.189 -0.644168 1.43834 0
M  V30 2536 C 258.119 -1.76814 1.52509 0
M  V30 2537 C 259.1 -1.65823 0.379052 0
M  V30 2538 O 260.285 -1.84781 0.597466 0
M  V30 2539 C 257.415 -3.15288 1.4564 0
M  V30 2540 C 256.369 -3.41053 2.58586 0
M  V30 2541 C 255.695 -4.79421 2.36769 0
M  V30 2542 C 256.995 -3.34902 4.00797 0
M  V30 2543 H 258.689 -1.69812 2.46586 0
M  V30 2544 H 256.235 -0.815542 1.1868 0
M  V30 2545 H 258.188 -3.93681 1.50311 0
M  V30 2546 H 256.912 -3.23043 0.480725 0
M  V30 2547 H 255.571 -2.65035 2.53282 0
M  V30 2548 H 255.219 -4.83863 1.37424 0
M  V30 2549 H 254.919 -4.9762 3.12487 0
M  V30 2550 H 256.443 -5.6006 2.43238 0
M  V30 2551 H 257.857 -4.03218 4.07539 0
M  V30 2552 H 256.254 -3.64637 4.76613 0
M  V30 2553 H 257.324 -2.32928 4.25291 0
M  V30 2554 N 258.668 -1.30515 -0.883378 0
M  V30 2555 C 259.893 -1.22487 -1.67367 0
M  V30 2556 C 260.318 0.208767 -1.86938 0
M  V30 2557 O 259.676 1.15015 -1.40148 0
M  V30 2558 C 259.724 -1.96041 -3.02655 0
M  V30 2559 O 258.828 -1.28859 -3.91751 0
M  V30 2560 H 258.169 -0.423573 -0.511353 0
M  V30 2561 H 260.699 -1.72362 -1.10239 0
M  V30 2562 H 260.709 -2.05124 -3.52687 0
M  V30 2563 H 259.384 -3.00307 -2.8773 0
M  V30 2564 H 257.961 -1.28141 -3.50192 0
M  V30 2565 N 260.146 1.09593 -1.13257 0
M  V30 2566 C 261.374 1.855 -0.916378 0
M  V30 2567 C 261.789 1.81069 0.534738 0
M  V30 2568 O 261.146 1.20562 1.37007 0
M  V30 2569 C 261.197 3.33546 -1.39388 0
M  V30 2570 O 260.918 3.37927 -2.78813 0
M  V30 2571 C 262.419 4.26299 -1.21588 0
M  V30 2572 H 259.639 0.585991 -0.326887 0
M  V30 2573 H 262.183 1.38488 -1.5047 0
M  V30 2574 H 260.338 3.77992 -0.848597 0
M  V30 2575 H 260.752 4.30254 -2.9997 0
M  V30 2576 H 262.226 5.28341 -1.59876 0
M  V30 2577 H 262.703 4.38918 -0.157376 0
M  V30 2578 H 263.309 3.87668 -1.7491 0
M  V30 2579 N 261.624 0.925811 1.2754 0
M  V30 2580 C 262.556 0.380753 2.26015 0
M  V30 2581 C 263.569 -0.487485 1.5533 0
M  V30 2582 O 264.758 -0.300413 1.75954 0
M  V30 2583 C 261.858 -0.473259 3.35579 0
M  V30 2584 C 261.031 0.375249 4.35787 0
M  V30 2585 C 260.09 -0.415809 5.24555 0
M  V30 2586 O 259.116 0.175834 5.68928 0
M  V30 2587 N 260.318 -1.71607 5.54555 0
M  V30 2588 H 263.083 1.22725 2.73421 0
M  V30 2589 H 260.644 0.793037 1.41147 0
M  V30 2590 H 262.636 -1.00949 3.91907 0
M  V30 2591 H 261.206 -1.2205 2.87789 0
M  V30 2592 H 260.426 1.09279 3.7875 0
M  V30 2593 H 261.714 0.955399 4.99749 0
M  V30 2594 H 261.112 -2.2191 5.20358 0
M  V30 2595 H 259.669 -2.19887 6.1359 0
M  V30 2596 N 263.102 -1.41638 0.69111 0
M  V30 2597 C 264.065 -2.29178 0.0319786 0
M  V30 2598 C 265.065 -1.44153 -0.712496 0
M  V30 2599 O 266.255 -1.65354 -0.548053 0
M  V30 2600 C 263.387 -3.26952 -0.965161 0
M  V30 2601 H 264.58 -2.88959 0.802681 0
M  V30 2602 H 262.133 -1.4955 0.454356 0
M  V30 2603 H 262.868 -2.72142 -1.76378 0
M  V30 2604 H 262.653 -3.89685 -0.434522 0
M  V30 2605 H 264.143 -3.92561 -1.42428 0
M  V30 2606 N 264.58 -0.43555 -1.51462 0
M  V30 2607 C 265.996 -0.0877501 -1.59359 0
M  V30 2608 C 266.196 1.4027 -1.4466 0
M  V30 2609 O 265.252 2.17243 -1.28693 0
M  V30 2610 C 266.565 -0.606264 -2.94525 0
M  V30 2611 C 268.113 -0.566548 -3.0783 0
M  V30 2612 C 268.588 -1.06201 -4.45517 0
M  V30 2613 N 270.079 -1.01992 -4.51832 0
M  V30 2614 C 270.814 -1.37417 -5.5669 0
M  V30 2615 N 270.31 -1.80119 -6.68976 0
M  V30 2616 N 272.103 -1.29245 -5.47039 0
M  V30 2617 H 264.254 -1.40533 -1.59261 0
M  V30 2618 H 266.517 -0.578992 -0.750648 0
M  V30 2619 H 266.223 -1.64901 -3.10645 0
M  V30 2620 H 266.097 -0.0302097 -3.77188 0
M  V30 2621 H 268.484 0.467208 -2.91378 0
M  V30 2622 H 268.565 -1.17898 -2.2701 0
M  V30 2623 H 268.209 -2.09422 -4.62715 0
M  V30 2624 H 268.139 -0.426127 -5.24873 0
M  V30 2625 H 270.63 -0.706308 -3.71241 0
M  V30 2626 H 270.943 -2.05392 -7.45006 0
M  V30 2627 H 269.288 -1.84044 -6.70189 0
M  V30 2628 H 272.479 -0.957522 -4.58202 0
M  V30 2629 H 272.652 -1.57182 -6.28648 0
M  V30 2630 N 266.058 1.56714 -0.166846 0
M  V30 2631 C 267.283 2.01557 0.488833 0
M  V30 2632 C 267.708 1.0463 1.56314 0
M  V30 2633 O 267.066 0.0251304 1.81283 0
M  V30 2634 C 267.114 3.4503 1.04818 0
M  V30 2635 O 266.218 3.51163 2.16236 0
M  V30 2636 H 265.559 0.653516 0.117526 0
M  V30 2637 H 268.089 2.02818 -0.269421 0
M  V30 2638 H 268.099 3.84243 1.37191 0
M  V30 2639 H 266.774 4.15077 0.261572 0
M  V30 2640 H 265.351 3.23807 1.84942 0
M  V30 2641 N 267.536 -0.106894 1.57237 0
M  V30 2642 C 268.947 -0.662723 1.74542 0
M  V30 2643 C 269.298 -1.7971 0.787319 0
M  V30 2644 O 268.423 -2.16368 -0.0369636 0
M  V30 2645 C 269.018 -1.20896 3.16496 0
M  V30 2646 C 267.577 -1.71096 3.35266 0
M  V30 2647 C 266.724 -0.615642 2.7038 0
M  V30 2648 H 269.675 0.119106 1.58252 0
M  V30 2649 H 269.696 -2.07847 3.18716 0
M  V30 2650 H 269.208 -0.383122 3.86204 0
M  V30 2651 H 267.309 -2.56119 2.70618 0
M  V30 2652 H 267.422 -1.81208 4.43509 0
M  V30 2653 H 265.786 -1.05222 2.31949 0
M  V30 2654 H 266.569 0.199419 3.4272 0
M  V30 2655 N 269.014 -1.53014 -0.377408 0
M  V30 2656 C 270.239 -1.72818 -1.14668 0
M  V30 2657 C 270.664 -0.450725 -1.8262 0
M  V30 2658 O 270.022 0.59439 -1.7128 0
M  V30 2659 C 270.07 -2.88627 -2.16164 0
M  V30 2660 O 269.174 -2.56409 -3.22998 0
M  V30 2661 H 268.515 -0.574301 -0.333278 0
M  V30 2662 H 271.045 -1.99853 -0.438152 0
M  V30 2663 H 271.055 -3.14455 -2.59966 0
M  V30 2664 H 269.73 -3.81294 -1.66095 0
M  V30 2665 H 268.307 -2.4136 -2.84253 0
M  V30 2666 N 270.492 0.636531 -1.44174 0
M  V30 2667 C 271.739 1.39619 -1.46672 0
M  V30 2668 C 272.067 1.94257 -0.0972691 0
M  V30 2669 O 271.322 1.73768 0.900175 0
M  V30 2670 C 271.621 2.58309 -2.47005 0
M  V30 2671 C 271.287 2.21992 -3.92467 0
M  V30 2672 C 269.949 2.118 -4.32081 0
M  V30 2673 C 272.301 1.9321 -4.84065 0
M  V30 2674 C 269.629 1.71007 -5.61225 0
M  V30 2675 C 271.981 1.53911 -6.13591 0
M  V30 2676 C 270.645 1.42257 -6.52165 0
M  V30 2677 H 269.915 0.510902 -0.536712 0
M  V30 2678 H 272.562 0.722328 -1.77355 0
M  V30 2679 H 270.867 3.30903 -2.09786 0
M  V30 2680 H 272.564 3.16533 -2.46186 0
M  V30 2681 H 269.154 2.30841 -3.61124 0
M  V30 2682 H 273.338 1.99997 -4.54219 0
M  V30 2683 H 268.594 1.60583 -5.89935 0
M  V30 2684 H 272.768 1.30677 -6.8403 0
M  V30 2685 H 270.395 1.10419 -7.52138 0
M  V30 2686 N 271.97 1.30982 0.876444 0
M  V30 2687 C 273.195 1.23373 1.66715 0
M  V30 2688 C 273.62 -0.19885 1.87046 0
M  V30 2689 O 272.978 -1.1427 1.40756 0
M  V30 2690 C 273.026 1.97644 3.01611 0
M  V30 2691 O 272.13 1.30935 3.91062 0
M  V30 2692 H 271.471 0.426279 0.509099 0
M  V30 2693 H 274.001 1.72944 1.09323 0
M  V30 2694 H 274.011 2.06992 3.51594 0
M  V30 2695 H 272.686 3.01829 2.86133 0
M  V30 2696 H 271.263 1.29996 3.49507 0
M  V30 2697 N 273.449 -1.08991 1.13837 0
M  V30 2698 C 274.726 -1.77863 0.813876 0
M  V30 2699 C 275.106 -1.99375 -0.693746 0
M  V30 2700 O 274.454 -1.59875 -1.63255 0
M  V30 2701 C 274.664 -3.0986 1.60586 0
M  V30 2702 C 276.012 -3.84493 1.8014 0
M  V30 2703 O 277.036 -3.19624 1.57222 0
M  V30 2704 O 275.895 -5.00957 2.18413 0
M  V30 2705 H 272.989 -0.771589 0.297624 0
M  V30 2706 H 275.535 -1.15507 1.24323 0
M  V30 2707 H 274.307 -2.89715 2.63022 0
M  V30 2708 H 273.93 -3.79942 1.17173 0
M  V30 2709 N 274.927 -0.932562 -1.27047 0
M  V30 2710 C 275.875 -0.42603 -2.28665 0
M  V30 2711 C 276.869 0.49219 -1.62092 0
M  V30 2712 O 278.075 0.371355 -1.76128 0
M  V30 2713 H 274.45 -0.119213 -0.742491 0
M  V30 2714 H 276.421 -1.29579 -2.68797 0
M  V30 2715 C 275.17 0.301426 -3.46391 0
M  V30 2716 H 274.493 -0.39595 -3.97834 0
M  V30 2717 H 275.933 0.6202 -4.1944 0
M  V30 2718 C 274.392 1.51616 -3.00856 0
M  V30 2719 O 274.922 2.61476 -3.04948 0
M  V30 2720 N 273.128 1.36969 -2.56296 0
M  V30 2721 H 272.675 0.475873 -2.53166 0
M  V30 2722 H 272.633 2.18368 -2.26192 0
M  V30 2723 N 276.405 1.4127 -0.698611 0
M  V30 2724 C 277.63 2.06024 -0.238512 0
M  V30 2725 C 278.055 1.5224 1.10475 0
M  V30 2726 O 277.413 0.650623 1.69223 0
M  V30 2727 C 277.461 3.59988 -0.209952 0
M  V30 2728 O 276.565 4.04282 0.814235 0
M  V30 2729 H 275.906 0.653829 -0.115775 0
M  V30 2730 H 278.436 1.8098 -0.954326 0
M  V30 2731 H 278.446 4.07979 -0.0418436 0
M  V30 2732 H 277.121 3.98503 -1.1903 0
M  V30 2733 H 275.698 3.6779 0.615234 0
M  V30 2734 N 277.883 0.443576 1.51229 0
M  V30 2735 C 279.111 -0.11929 2.06556 0
M  V30 2736 C 279.526 -1.35921 1.31038 0
M  V30 2737 O 278.883 -1.78675 0.371704 0
M  V30 2738 C 278.934 -0.435228 3.5887 0
M  V30 2739 O 278.655 0.755486 4.31537 0
M  V30 2740 C 280.156 -1.04808 4.30732 0
M  V30 2741 H 277.376 -0.0051584 0.67098 0
M  V30 2742 H 279.92 0.624453 1.94733 0
M  V30 2743 H 278.075 -1.12887 3.70588 0
M  V30 2744 H 278.489 0.483491 5.22267 0
M  V30 2745 H 279.963 -1.2191 5.3837 0
M  V30 2746 H 280.44 -2.03081 3.89429 0
M  V30 2747 H 281.046 -0.393637 4.23474 0
M  V30 2748 N 279.361 -1.56624 0.175154 0
M  V30 2749 C 280.772 -1.83561 -0.340916 0
M  V30 2750 C 281.123 -1.09511 -1.62794 0
M  V30 2751 O 280.248 -0.349389 -2.13561 0
M  V30 2752 C 280.843 -3.32979 -0.625313 0
M  V30 2753 C 279.402 -3.60399 -1.08581 0
M  V30 2754 C 278.549 -2.77024 -0.123722 0
M  V30 2755 H 281.5 -1.53593 0.399344 0
M  V30 2756 H 281.521 -3.50666 -1.47694 0
M  V30 2757 H 281.033 -3.86847 0.311575 0
M  V30 2758 H 279.134 -3.11945 -2.03767 0
M  V30 2759 H 279.247 -4.68711 -0.992317 0
M  V30 2760 H 277.611 -2.46993 -0.621821 0
M  V30 2761 H 278.394 -3.33674 0.807256 0
M  V30 2762 N 280.839 0.0985539 -1.57292 0
M  V30 2763 C 282.25 0.653457 -1.74891 0
M  V30 2764 C 282.601 1.7929 -0.796838 0
M  V30 2765 O 281.726 2.16385 0.0254886 0
M  V30 2766 C 282.321 1.19216 -3.17133 0
M  V30 2767 C 280.88 1.69316 -3.36168 0
M  V30 2768 C 280.027 0.601294 -2.70702 0
M  V30 2769 H 282.978 -0.127497 -1.58187 0
M  V30 2770 H 282.999 2.06154 -3.19814 0
M  V30 2771 H 282.511 0.362635 -3.86402 0
M  V30 2772 H 280.612 2.5468 -2.71972 0
M  V30 2773 H 280.725 1.78853 -4.44464 0
M  V30 2774 H 279.089 1.0399 -2.32504 0
M  V30 2775 H 279.872 -0.217592 -3.4261 0
M  V30 2776 N 282.317 1.53212 0.369288 0
M  V30 2777 C 283.28 1.7872 1.43498 0
M  V30 2778 C 284.28 0.657554 1.46741 0
M  V30 2779 O 285.47 0.925736 1.47566 0
M  V30 2780 C 282.602 1.90591 2.82645 0
M  V30 2781 H 283.795 2.73894 1.22156 0
M  V30 2782 H 281.348 1.44233 0.602203 0
M  V30 2783 H 282.083 0.974709 3.09306 0
M  V30 2784 H 281.868 2.72751 2.8169 0
M  V30 2785 H 283.358 2.11931 3.59826 0
M  V30 2786 N 283.795 -0.628877 1.44509 0
M  V30 2787 C 285.041 -1.39045 1.47629 0
M  V30 2788 C 285.374 -1.93892 0.109343 0
M  V30 2789 O 284.649 -1.7379 -0.87334 0
M  V30 2790 C 284.932 -2.55408 2.53848 0
M  V30 2791 C 284.785 -2.05896 3.99909 0
M  V30 2792 C 286.104 -3.5759 2.56549 0
M  V30 2793 H 283.223 -0.504232 0.537512 0
M  V30 2794 H 285.865 -0.710854 1.76201 0
M  V30 2795 H 284.015 -3.13384 2.29615 0
M  V30 2796 H 285.687 -1.52734 4.35282 0
M  V30 2797 H 283.93 -1.37061 4.11578 0
M  V30 2798 H 284.601 -2.89681 4.69882 0
M  V30 2799 H 287.077 -3.09419 2.78207 0
M  V30 2800 H 285.953 -4.36527 3.32769 0
M  V30 2801 H 286.214 -4.11808 1.60832 0
M  V30 2802 N 285.273 -1.31445 -0.869486 0
M  V30 2803 C 286.684 -1.19042 -1.43826 0
M  V30 2804 C 287.035 0.202919 -1.95148 0
M  V30 2805 O 286.16 1.10071 -1.86315 0
M  V30 2806 C 286.755 -2.15499 -2.6143 0
M  V30 2807 C 285.314 -2.07028 -3.14351 0
M  V30 2808 C 284.461 -2.04701 -1.87063 0
M  V30 2809 H 287.412 -1.43489 -0.677984 0
M  V30 2810 H 287.433 -1.74488 -3.38134 0
M  V30 2811 H 286.945 -3.16899 -2.24046 0
M  V30 2812 H 285.046 -1.08825 -3.56354 0
M  V30 2813 H 285.159 -2.96157 -3.766 0
M  V30 2814 H 283.523 -1.49724 -2.06046 0
M  V30 2815 H 284.306 -3.07857 -1.51917 0
M  V30 2816 N 286.751 1.08385 -1.14413 0
M  V30 2817 C 287.683 2.1519 -0.789036 0
M  V30 2818 C 288.696 1.61638 0.19417 0
M  V30 2819 O 289.885 1.78479 -0.0275711 0
M  V30 2820 C 286.985 3.38565 -0.15058 0
M  V30 2821 C 286.158 4.21501 -1.16857 0
M  V30 2822 C 285.217 5.23277 -0.553832 0
M  V30 2823 O 284.243 5.56041 -1.21686 0
M  V30 2824 N 285.445 5.76629 0.669296 0
M  V30 2825 H 288.21 2.46257 -1.70814 0
M  V30 2826 H 285.771 1.24198 -1.03858 0
M  V30 2827 H 287.763 4.03777 0.273181 0
M  V30 2828 H 286.333 3.05299 0.671667 0
M  V30 2829 H 285.553 3.52265 -1.76926 0
M  V30 2830 H 286.841 4.73731 -1.85624 0
M  V30 2831 H 286.239 5.52243 1.22654 0
M  V30 2832 H 284.796 6.43521 1.03556 0
M  V30 2833 N 288.23 0.939286 1.26551 0
M  V30 2834 C 289.455 0.602008 1.98471 0
M  V30 2835 C 289.88 -0.815624 1.69497 0
M  V30 2836 O 289.238 -1.54912 0.941905 0
M  V30 2837 C 289.286 0.848407 3.50477 0
M  V30 2838 O 288.39 -0.0804009 4.12322 0
M  V30 2839 H 287.731 0.23049 0.622712 0
M  V30 2840 H 290.261 1.2617 1.61066 0
M  V30 2841 H 290.271 0.768553 4.00696 0
M  V30 2842 H 288.946 1.88171 3.70897 0
M  V30 2843 H 287.523 0.0503508 3.72866 0
M  V30 2844 N 289.708 -1.40897 0.706093 0
M  V30 2845 C 290.938 -2.05075 0.250523 0
M  V30 2846 C 291.346 -1.53275 -1.10921 0
M  V30 2847 O 290.689 -0.680281 -1.7064 0
M  V30 2848 C 290.751 -3.59219 0.142178 0
M  V30 2849 C 290.415 -4.33864 1.43566 0
M  V30 2850 C 291.412 -4.62448 2.37566 0
M  V30 2851 C 289.097 -4.72946 1.69195 0
M  V30 2852 C 291.091 -5.29088 3.5545 0
M  V30 2853 C 288.778 -5.3932 2.87362 0
M  V30 2854 C 289.776 -5.6732 3.80312 0
M  V30 2855 O 289.464 -6.32325 4.96408 0
M  V30 2856 H 289.196 -0.666645 0.112074 0
M  V30 2857 H 291.75 -1.81467 0.962239 0
M  V30 2858 H 289.98 -3.81609 -0.6254 0
M  V30 2859 H 291.669 -4.0495 -0.277584 0
M  V30 2860 H 292.435 -4.32727 2.19027 0
M  V30 2861 H 288.314 -4.50527 0.977042 0
M  V30 2862 H 291.858 -5.50859 4.28018 0
M  V30 2863 H 287.755 -5.68461 3.05814 0
M  V30 2864 H 288.523 -6.50821 4.9636 0
M  V30 2865 N 291.186 -0.45159 -1.50991 0
M  V30 2866 C 292.118 0.388634 -2.25881 0
M  V30 2867 C 293.131 0.974041 -1.30446 0
M  V30 2868 O 294.32 0.865758 -1.56099 0
M  V30 2869 C 291.42 1.5571 -3.01011 0
M  V30 2870 C 290.593 1.08801 -4.23652 0
M  V30 2871 C 289.652 2.12825 -4.8124 0
M  V30 2872 O 288.678 1.71678 -5.42693 0
M  V30 2873 N 289.88 3.45453 -4.66522 0
M  V30 2874 H 292.645 -0.25329 -2.98628 0
M  V30 2875 H 290.206 -0.281268 -1.59438 0
M  V30 2876 H 292.198 2.24952 -3.3642 0
M  V30 2877 H 290.768 2.10409 -2.31186 0
M  V30 2878 H 289.988 0.22215 -3.93574 0
M  V30 2879 H 291.276 0.752213 -5.03209 0
M  V30 2880 H 290.674 3.81605 -4.17605 0
M  V30 2881 H 289.231 4.10549 -5.06254 0
M  V30 2882 N 292.664 1.56529 -0.183458 0
M  V30 2883 C 293.91 1.97537 0.459036 0
M  V30 2884 C 294.243 1.06989 1.62071 0
M  V30 2885 O 293.518 0.11948 1.94133 0
M  V30 2886 C 293.801 3.47874 0.930368 0
M  V30 2887 C 293.654 4.492 -0.232317 0
M  V30 2888 C 294.973 4.01612 1.79989 0
M  V30 2889 H 292.092 0.718204 0.165383 0
M  V30 2890 H 294.734 1.88042 -0.272038 0
M  V30 2891 H 292.884 3.56095 1.55333 0
M  V30 2892 H 294.556 4.53027 -0.86972 0
M  V30 2893 H 292.799 4.24657 -0.885928 0
M  V30 2894 H 293.47 5.51823 0.139796 0
M  V30 2895 H 295.946 3.96097 1.27461 0
M  V30 2896 H 294.822 5.07195 2.09867 0
M  V30 2897 H 295.083 3.46163 2.74998 0
M  V30 2898 N 294.142 -0.090211 1.57342 0
M  V30 2899 C 295.39 -0.791241 1.85967 0
M  V30 2900 C 295.711 -1.7903 0.772859 0
M  V30 2901 O 294.981 -1.94872 -0.200398 0
M  V30 2902 H 293.561 -0.295205 0.686195 0
M  V30 2903 H 296.223 -0.0706782 1.94772 0
M  V30 2904 H 295.319 -1.31882 2.82867 0
M  V30 2905 N 295.62 -1.53406 -0.361157 0
M  V30 2906 C 296.85 -1.73465 -1.1222 0
M  V30 2907 C 297.258 -0.465486 -1.83384 0
M  V30 2908 O 296.601 0.571611 -1.7458 0
M  V30 2909 C 296.663 -2.84834 -2.19339 0
M  V30 2910 C 296.327 -4.25038 -1.67903 0
M  V30 2911 C 297.324 -5.07231 -1.14074 0
M  V30 2912 C 295.009 -4.71464 -1.73282 0
M  V30 2913 C 297.003 -6.33942 -0.663068 0
M  V30 2914 C 294.69 -5.98153 -1.25127 0
M  V30 2915 C 295.688 -6.79223 -0.717296 0
M  V30 2916 O 295.376 -8.03533 -0.242865 0
M  V30 2917 H 295.108 -0.583526 -0.341283 0
M  V30 2918 H 297.662 -2.00964 -0.424591 0
M  V30 2919 H 295.892 -2.5282 -2.92607 0
M  V30 2920 H 297.581 -2.9303 -2.80871 0
M  V30 2921 H 298.347 -4.72534 -1.09254 0
M  V30 2922 H 294.226 -4.08432 -2.13786 0
M  V30 2923 H 297.77 -6.97167 -0.245612 0
M  V30 2924 H 293.667 -6.32347 -1.29642 0
M  V30 2925 H 294.435 -8.177 -0.361786 0
M  V30 2926 N 297.098 0.621204 -1.44841 0
M  V30 2927 C 298.028 1.74366 -1.55303 0
M  V30 2928 C 299.009 1.65199 -0.405385 0
M  V30 2929 O 300.194 1.83807 -0.626787 0
M  V30 2930 C 297.324 3.12931 -1.50637 0
M  V30 2931 C 296.278 3.36896 -2.63979 0
M  V30 2932 C 295.604 4.75594 -2.44366 0
M  V30 2933 C 296.904 3.28483 -4.06074 0
M  V30 2934 H 298.598 1.65867 -2.49256 0
M  V30 2935 H 296.144 0.796558 -1.19962 0
M  V30 2936 H 298.097 3.9124 -1.56555 0
M  V30 2937 H 296.821 3.22237 -0.532057 0
M  V30 2938 H 295.48 2.60972 -2.57467 0
M  V30 2939 H 295.128 4.81616 -1.45105 0
M  V30 2940 H 294.828 4.92586 -3.20364 0
M  V30 2941 H 296.352 5.5612 -2.52117 0
M  V30 2942 H 297.766 3.96684 -4.13902 0
M  V30 2943 H 296.163 3.57008 -4.82354 0
M  V30 2944 H 297.233 2.26133 -4.28943 0
M  V30 2945 N 298.576 1.31904 0.862503 0
M  V30 2946 C 299.526 1.16772 1.95827 0
M  V30 2947 C 300.51 0.0767098 1.60717 0
M  V30 2948 O 301.702 0.302407 1.74398 0
M  V30 2949 C 298.831 0.884858 3.317 0
M  V30 2950 C 297.917 2.0172 3.73055 0
M  V30 2951 N 298.308 3.265 3.86305 0
M  V30 2952 C 296.606 1.91861 4.02623 0
M  V30 2953 C 297.307 4.00616 4.2176 0
M  V30 2954 N 296.283 3.28847 4.32852 0
M  V30 2955 H 300.085 2.11382 2.04193 0
M  V30 2956 H 297.599 1.2357 1.05377 0
M  V30 2957 H 299.596 0.757419 4.09962 0
M  V30 2958 H 298.256 -0.0529448 3.24657 0
M  V30 2959 H 299.267 3.61529 3.70833 0
M  V30 2960 H 295.944 1.05593 4.03926 0
M  V30 2961 H 297.334 5.08182 4.39546 0
M  V30 2962 N 300.054 -1.07777 1.14986 0
M  V30 2963 C 301.017 -2.13041 0.845358 0
M  V30 2964 C 302.017 -1.60071 -0.152931 0
M  V30 2965 O 303.207 -1.74033 0.0761879 0
M  V30 2966 C 300.339 -3.39896 0.261383 0
M  V30 2967 H 301.532 -2.41485 1.77834 0
M  V30 2968 H 299.085 -1.23595 0.956757 0
M  V30 2969 H 299.82 -3.17091 -0.68 0
M  V30 2970 H 299.605 -3.79642 0.980514 0
M  V30 2971 H 301.095 -4.17548 0.0657687 0
M  V30 2972 N 301.532 -0.945985 -1.26051 0
M  V30 2973 C 302.943 -0.638096 -1.75457 0
M  V30 2974 C 303.294 0.846672 -1.76991 0
M  V30 2975 O 302.419 1.66262 -1.38513 0
M  V30 2976 C 303.014 -1.15157 -3.18629 0
M  V30 2977 C 301.573 -0.894004 -3.65629 0
M  V30 2978 C 300.72 -1.29967 -2.44957 0
M  V30 2979 H 303.671 -1.12376 -1.1206 0
M  V30 2980 H 303.692 -0.507615 -3.77099 0
M  V30 2981 H 303.204 -2.23222 -3.1748 0
M  V30 2982 H 301.305 0.172057 -3.72203 0
M  V30 2983 H 301.418 -1.52439 -4.54202 0
M  V30 2984 H 299.782 -0.718078 -2.44368 0
M  V30 2985 H 300.565 -2.38935 -2.46505 0
M  V30 2986 N 303.011 1.40521 -0.713556 0
M  V30 2987 C 304.239 2.05237 -0.261775 0
M  V30 2988 C 304.654 1.53755 1.09567 0
M  V30 2989 O 304.011 0.693268 1.6882 0
M  V30 2990 C 304.062 3.60763 -0.230706 0
M  V30 2991 O 303.783 4.10345 -1.53455 0
M  V30 2992 C 305.284 4.42651 0.239874 0
M  V30 2993 H 302.504 0.660533 -0.118057 0
M  V30 2994 H 305.048 1.79967 -0.971192 0
M  V30 2995 H 303.203 3.8501 0.429661 0
M  V30 2996 H 303.617 5.04526 -1.43366 0
M  V30 2997 H 305.091 5.51599 0.210468 0
M  V30 2998 H 305.568 4.20082 1.28171 0
M  V30 2999 H 306.174 4.23507 -0.390142 0
M  V30 3000 N 304.489 0.459591 1.5075 0
M  V30 3001 C 305.737 -0.0991532 2.01857 0
M  V30 3002 C 306.058 -1.41247 1.34441 0
M  V30 3003 O 305.328 -1.89775 0.486022 0
M  V30 3004 H 303.908 -0.039633 0.745948 0
M  V30 3005 H 306.57 0.607387 1.85194 0
M  V30 3006 H 305.666 -0.258998 3.11023 0
M  V30 3007 N 305.967 -1.56429 0.191757 0
M  V30 3008 C 307.192 -2.02309 -0.456706 0
M  V30 3009 C 307.617 -1.07103 -1.5463 0
M  V30 3010 O 306.975 -0.0539677 -1.8122 0
M  V30 3011 C 307.023 -3.46654 -0.993159 0
M  V30 3012 O 306.127 -3.54559 -2.10622 0
M  V30 3013 H 305.468 -0.655303 -0.107114 0
M  V30 3014 H 307.998 -2.02364 0.301653 0
M  V30 3015 H 308.008 -3.86377 -1.31061 0
M  V30 3016 H 306.683 -4.1544 -0.195504 0
M  V30 3017 H 305.26 -3.26708 -1.79767 0
M  V30 3018 N 307.445 0.0818655 -1.57387 0
M  V30 3019 C 308.693 0.781368 -1.86384 0
M  V30 3020 C 309.014 1.78618 -0.782342 0
M  V30 3021 O 308.284 1.94976 0.190061 0
M  V30 3022 H 306.864 0.291562 -0.687751 0
M  V30 3023 H 309.526 0.060348 -1.94807 0
M  V30 3024 H 308.622 1.3038 -2.83562 0
M  V30 3025 N 308.923 1.53595 0.353017 0
M  V30 3026 C 309.87 1.80919 1.43308 0
M  V30 3027 C 310.84 0.654288 1.5267 0
M  V30 3028 O 312.025 0.897759 1.6836 0
M  V30 3029 C 309.165 2.01605 2.80089 0
M  V30 3030 C 308.278 3.29321 2.79593 0
M  V30 3031 C 307.413 3.40125 4.0803 0
M  V30 3032 C 306.452 4.61826 4.01725 0
M  V30 3033 N 305.589 4.69716 5.21834 0
M  V30 3034 H 310.429 2.73074 1.19308 0
M  V30 3035 H 307.966 1.35263 0.578131 0
M  V30 3036 H 309.924 2.11586 3.59565 0
M  V30 3037 H 308.554 1.12772 3.0246 0
M  V30 3038 H 307.606 3.28229 1.92276 0
M  V30 3039 H 308.918 4.18884 2.70809 0
M  V30 3040 H 308.072 3.49488 4.95927 0
M  V30 3041 H 306.811 2.48601 4.19582 0
M  V30 3042 H 305.816 4.52552 3.12213 0
M  V30 3043 H 307.041 5.54705 3.91764 0
M  V30 3044 H 304.987 3.81097 5.33948 0
M  V30 3045 H 304.904 5.53202 5.1527 0
M  V30 3046 H 306.172 4.83376 6.11529 0
M  V30 3047 N 310.401 -0.613514 1.45168 0
M  V30 3048 C 311.626 -1.40437 1.52618 0
M  V30 3049 C 312.051 -1.87438 0.157707 0
M  V30 3050 O 311.409 -1.59791 -0.856537 0
M  V30 3051 C 311.457 -2.58894 2.51011 0
M  V30 3052 O 310.561 -3.59326 2.02382 0
M  V30 3053 H 309.902 -0.419506 0.514695 0
M  V30 3054 H 312.432 -0.747215 1.90467 0
M  V30 3055 H 312.442 -3.06214 2.69624 0
M  V30 3056 H 311.117 -2.24032 3.50403 0
M  V30 3057 H 309.694 -3.18695 1.93618 0
M  V30 3058 N 311.879 -1.3236 -0.855495 0
M  V30 3059 C 313.107 -1.2587 -1.64208 0
M  V30 3060 C 313.522 0.173457 -1.88002 0
M  V30 3061 O 312.879 1.11027 -1.44842 0
M  V30 3062 C 312.93 -2.01424 -3.00184 0
M  V30 3063 O 312.651 -3.39051 -2.77445 0
M  V30 3064 C 314.152 -2.01948 -3.94629 0
M  V30 3065 H 311.372 -0.434318 -0.511477 0
M  V30 3066 H 313.916 -1.74469 -1.0668 0
M  V30 3067 H 312.071 -1.56549 -3.5436 0
M  V30 3068 H 312.485 -3.77711 -3.63916 0
M  V30 3069 H 313.959 -2.59297 -4.87308 0
M  V30 3070 H 314.436 -1.00554 -4.27534 0
M  V30 3071 H 315.042 -2.46767 -3.4639 0
M  V30 3072 N 313.357 1.07166 -1.15556 0
M  V30 3073 C 314.304 2.14417 -0.854055 0
M  V30 3074 C 315.274 1.64965 0.193806 0
M  V30 3075 O 316.459 1.90703 0.0609443 0
M  V30 3076 C 313.599 3.43304 -0.351574 0
M  V30 3077 C 312.712 4.06537 -1.46123 0
M  V30 3078 C 311.847 5.23266 -0.914677 0
M  V30 3079 C 310.886 5.78464 -2.00114 0
M  V30 3080 N 310.023 6.86521 -1.47083 0
M  V30 3081 H 314.863 2.39548 -1.77259 0
M  V30 3082 H 312.4 1.17543 -0.884425 0
M  V30 3083 H 314.358 4.17179 -0.0419409 0
M  V30 3084 H 312.988 3.18419 0.530037 0
M  V30 3085 H 312.04 3.30297 -1.88701 0
M  V30 3086 H 313.352 4.43567 -2.28144 0
M  V30 3087 H 312.506 6.04131 -0.557698 0
M  V30 3088 H 311.245 4.87658 -0.0636583 0
M  V30 3089 H 310.25 4.96243 -2.36692 0
M  V30 3090 H 311.475 6.16126 -2.85597 0
M  V30 3091 H 309.421 6.52849 -0.642198 0
M  V30 3092 H 309.338 7.22446 -2.22729 0
M  V30 3093 H 310.606 7.71087 -1.14215 0
M  V30 3094 N 314.835 0.952656 1.25548 0
M  V30 3095 C 316.081 0.607272 1.93494 0
M  V30 3096 C 316.414 -0.853245 1.74452 0
M  V30 3097 O 315.689 -1.61194 1.08843 0
M  V30 3098 C 315.972 0.96435 3.46947 0
M  V30 3099 C 315.825 2.48045 3.75225 0
M  V30 3100 C 317.144 0.487987 4.37386 0
M  V30 3101 H 314.263 0.222096 0.702739 0
M  V30 3102 H 316.905 1.18895 1.48203 0
M  V30 3103 H 315.055 0.469361 3.85654 0
M  V30 3104 H 316.727 3.04905 3.46166 0
M  V30 3105 H 314.97 2.919 3.209 0
M  V30 3106 H 315.641 2.6808 4.82532 0
M  V30 3107 H 318.117 0.912558 4.0597 0
M  V30 3108 H 316.993 0.766547 5.43521 0
M  V30 3109 H 317.254 -0.612063 4.37843 0
M  V30 3110 N 316.313 -1.40141 0.720998 0
M  V30 3111 C 317.724 -1.83678 0.334553 0
M  V30 3112 C 318.075 -1.6027 -1.13173 0
M  V30 3113 O 317.2 -1.08643 -1.87152 0
M  V30 3114 C 317.795 -3.33437 0.600437 0
M  V30 3115 C 316.354 -3.75447 0.267642 0
M  V30 3116 C 315.501 -2.63296 0.870097 0
M  V30 3117 H 318.452 -1.29331 0.919732 0
M  V30 3118 H 318.473 -3.80269 -0.132517 0
M  V30 3119 H 317.985 -3.50442 1.66768 0
M  V30 3120 H 316.086 -3.64035 -0.794329 0
M  V30 3121 H 316.199 -4.73344 0.74042 0
M  V30 3122 H 314.563 -2.52954 0.297739 0
M  V30 3123 H 315.346 -2.83112 1.94172 0
M  V30 3124 N 317.792 -0.46758 -1.50504 0
M  V30 3125 C 318.755 0.317059 -2.26996 0
M  V30 3126 C 319.755 0.923513 -1.31635 0
M  V30 3127 O 320.945 0.793239 -1.55091 0
M  V30 3128 C 318.077 1.45134 -3.08462 0
M  V30 3129 H 319.27 -0.353723 -2.97807 0
M  V30 3130 H 316.823 -0.221545 -1.54722 0
M  V30 3131 H 317.558 2.15728 -2.4214 0
M  V30 3132 H 317.343 1.02232 -3.78538 0
M  V30 3133 H 318.833 2.00493 -3.66323 0
M  V30 3134 N 319.27 1.56325 -0.20005 0
M  V30 3135 C 320.233 2.18084 0.705132 0
M  V30 3136 C 321.233 1.13666 1.1374 0
M  V30 3137 O 322.423 1.39023 1.04968 0
M  V30 3138 C 319.555 2.78689 1.96329 0
M  V30 3139 H 320.748 2.99435 0.167023 0
M  V30 3140 H 318.301 1.56221 0.0495725 0
M  V30 3141 H 319.036 2.0115 2.5438 0
M  V30 3142 H 318.821 3.55133 1.66202 0
M  V30 3143 H 320.311 3.26096 2.60866 0
M  V30 3144 N 320.748 -0.0735177 1.57428 0
M  V30 3145 C 321.978 -0.78483 1.91112 0
M  V30 3146 C 322.386 -1.71729 0.7941 0
M  V30 3147 O 321.729 -1.82105 -0.241542 0
M  V30 3148 C 321.791 -1.63346 3.20247 0
M  V30 3149 C 321.455 -0.870557 4.48632 0
M  V30 3150 C 322.452 -0.19058 5.19551 0
M  V30 3151 C 320.137 -0.838242 4.95256 0
M  V30 3152 C 322.131 0.511503 6.35344 0
M  V30 3153 C 319.818 -0.132386 6.10957 0
M  V30 3154 C 320.816 0.541288 6.80852 0
M  V30 3155 O 320.504 1.23578 7.94345 0
M  V30 3156 H 320.236 -0.228408 0.636244 0
M  V30 3157 H 322.79 -0.0486039 2.05342 0
M  V30 3158 H 321.02 -2.41245 3.02222 0
M  V30 3159 H 322.709 -2.22329 3.39595 0
M  V30 3160 H 323.475 -0.206864 4.84559 0
M  V30 3161 H 319.354 -1.35206 4.40727 0
M  V30 3162 H 322.898 1.03789 6.89836 0
M  V30 3163 H 318.795 -0.114023 6.45399 0
M  V30 3164 H 319.563 1.14487 8.10454 0
M  V30 3165 N 322.226 -1.5378 -0.344866 0
M  V30 3166 C 323.472 -1.71216 -1.08687 0
M  V30 3167 C 323.805 -0.473281 -1.88345 0
M  V30 3168 O 323.08 0.52968 -1.87149 0
M  V30 3169 C 323.363 -2.97486 -2.02914 0
M  V30 3170 C 323.216 -4.31579 -1.26727 0
M  V30 3171 C 324.535 -3.19422 -3.0275 0
M  V30 3172 H 321.654 -0.62301 -0.393735 0
M  V30 3173 H 324.296 -1.8645 -0.365563 0
M  V30 3174 H 322.446 -2.84629 -2.64421 0
M  V30 3175 H 324.118 -4.56284 -0.67845 0
M  V30 3176 H 322.361 -4.30049 -0.569273 0
M  V30 3177 H 323.032 -5.16106 -1.95803 0
M  V30 3178 H 325.508 -3.316 -2.51357 0
M  V30 3179 H 324.384 -4.09169 -3.65885 0
M  V30 3180 H 324.645 -2.35656 -3.74057 0
M  V30 3181 N 323.704 0.605807 -1.45491 0
M  V30 3182 C 324.667 1.69836 -1.5391 0
M  V30 3183 C 325.667 1.55261 -0.418424 0
M  V30 3184 O 326.857 1.60296 -0.681965 0
M  V30 3185 C 323.989 3.09117 -1.43734 0
M  V30 3186 H 325.182 1.63738 -2.51257 0
M  V30 3187 H 322.735 0.821689 -1.32959 0
M  V30 3188 H 323.47 3.20791 -0.475788 0
M  V30 3189 H 323.255 3.21104 -2.25021 0
M  V30 3190 H 324.745 3.88696 -1.52661 0
M  V30 3191 N 325.182 1.32811 0.848464 0
M  V30 3192 C 326.114 1.18095 1.96433 0
M  V30 3193 C 327.127 0.114354 1.62398 0
M  V30 3194 O 328.316 0.363892 1.74751 0
M  V30 3195 C 325.416 0.786798 3.2964 0
M  V30 3196 C 324.589 1.943 3.91875 0
M  V30 3197 C 323.648 1.53138 5.03423 0
M  V30 3198 O 322.674 2.24432 5.23086 0
M  V30 3199 N 323.876 0.430915 5.78898 0
M  V30 3200 H 326.641 2.14218 2.09597 0
M  V30 3201 H 324.202 1.2543 1.02367 0
M  V30 3202 H 326.194 0.493715 4.01677 0
M  V30 3203 H 324.764 -0.0834541 3.12489 0
M  V30 3204 H 323.984 2.40224 3.12547 0
M  V30 3205 H 325.272 2.71689 4.30189 0
M  V30 3206 H 324.67 -0.162333 5.65467 0
M  V30 3207 H 323.227 0.197466 6.51501 0
M  V30 3208 N 326.66 -1.06551 1.16123 0
M  V30 3209 C 327.908 -1.78947 0.939267 0
M  V30 3210 C 328.229 -1.87532 -0.534476 0
M  V30 3211 O 327.499 -1.38211 -1.38833 0
M  V30 3212 H 326.079 -0.662807 0.344523 0
M  V30 3213 H 328.741 -1.28725 1.46342 0
M  V30 3214 H 327.837 -2.81117 1.35572 0
M  V30 3215 N 328.138 -0.959301 -1.25041 0
M  V30 3216 C 329.368 -0.63303 -1.96663 0
M  V30 3217 C 329.776 0.800031 -1.71453 0
M  V30 3218 O 329.119 1.54736 -0.99008 0
M  V30 3219 C 329.181 -0.817523 -3.50081 0
M  V30 3220 C 328.845 -2.22863 -3.98975 0
M  V30 3221 C 329.842 -3.20569 -4.09306 0
M  V30 3222 C 327.527 -2.55407 -4.32519 0
M  V30 3223 C 329.521 -4.4891 -4.52503 0
M  V30 3224 C 327.208 -3.83976 -4.754 0
M  V30 3225 C 328.206 -4.8054 -4.85356 0
M  V30 3226 O 327.894 -6.06817 -5.27284 0
M  V30 3227 H 327.626 -0.235866 -0.633516 0
M  V30 3228 H 330.18 -1.2874 -1.60047 0
M  V30 3229 H 328.41 -0.105992 -3.86555 0
M  V30 3230 H 330.099 -0.491604 -4.02912 0
M  V30 3231 H 330.865 -2.96753 -3.83618 0
M  V30 3232 H 326.744 -1.8097 -4.23994 0
M  V30 3233 H 330.288 -5.24283 -4.60188 0
M  V30 3234 H 326.185 -4.07596 -5.00535 0
M  V30 3235 H 326.953 -6.10262 -5.45457 0
M  V30 3236 N 329.616 1.39756 -0.72842 0
M  V30 3237 C 330.564 2.32485 -0.0731849 0
M  V30 3238 C 331.558 1.52717 0.733063 0
M  V30 3239 O 332.764 1.68428 0.634988 0
M  V30 3240 H 329.139 0.751984 -0.00486469 0
M  V30 3241 H 331.11 2.85382 -0.871761 0
M  V30 3242 C 329.859 3.37773 0.824908 0
M  V30 3243 H 329.182 3.99227 0.213915 0
M  V30 3244 H 330.622 4.05121 1.25111 0
M  V30 3245 C 329.081 2.74287 1.95622 0
M  V30 3246 O 329.611 2.61618 3.04826 0
M  V30 3247 N 327.817 2.32475 1.74367 0
M  V30 3248 H 327.364 2.4298 0.855494 0
M  V30 3249 H 327.322 1.90337 2.50238 0
M  V30 3250 N 331.094 0.475555 1.50254 0
M  V30 3251 C 332.34 -0.0780073 2.0265 0
M  V30 3252 C 332.673 -1.38968 1.35652 0
M  V30 3253 O 331.948 -1.8839 0.483691 0
M  V30 3254 C 332.231 -0.257161 3.59181 0
M  V30 3255 C 332.084 1.07585 4.36744 0
M  V30 3256 C 333.403 -1.00965 4.28362 0
M  V30 3257 H 330.522 -0.0268758 0.73651 0
M  V30 3258 H 333.164 0.622015 1.7953 0
M  V30 3259 H 331.314 -0.853412 3.79011 0
M  V30 3260 H 332.986 1.70902 4.28474 0
M  V30 3261 H 331.229 1.6714 4.00308 0
M  V30 3262 H 331.9 0.904088 5.44546 0
M  V30 3263 H 334.376 -0.504214 4.13034 0
M  V30 3264 H 333.252 -1.10381 5.37687 0
M  V30 3265 H 333.513 -2.04731 3.91839 0
M  V30 3266 N 332.573 -1.56217 0.208337 0
M  V30 3267 C 333.503 -2.22694 -0.702116 0
M  V30 3268 C 334.484 -1.19432 -1.2112 0
M  V30 3269 O 335.669 -1.47978 -1.25762 0
M  V30 3270 C 332.799 -2.8966 -1.9161 0
M  V30 3271 C 331.753 -3.9928 -1.5414 0
M  V30 3272 C 331.079 -4.53476 -2.83308 0
M  V30 3273 C 332.379 -5.17012 -0.741339 0
M  V30 3274 H 334.073 -2.99034 -0.147898 0
M  V30 3275 H 331.619 -1.43831 -0.0696951 0
M  V30 3276 H 333.572 -3.34852 -2.55836 0
M  V30 3277 H 332.296 -2.10746 -2.49507 0
M  V30 3278 H 330.955 -3.54799 -0.922668 0
M  V30 3279 H 330.603 -3.71308 -3.39322 0
M  V30 3280 H 330.303 -5.27451 -2.58976 0
M  V30 3281 H 331.827 -5.01378 -3.485 0
M  V30 3282 H 333.241 -5.58667 -1.28699 0
M  V30 3283 H 331.638 -5.97137 -0.595627 0
M  V30 3284 H 332.708 -4.8423 0.254851 0
M  V30 3285 N 334.051 0.0651679 -1.57465 0
M  V30 3286 C 335.297 0.764193 -1.87851 0
M  V30 3287 C 335.63 1.76889 -0.801495 0
M  V30 3288 O 334.905 1.93594 0.187528 0
M  V30 3289 C 335.188 1.46625 -3.28897 0
M  V30 3290 C 335.041 0.477515 -4.47258 0
M  V30 3291 C 336.36 2.4095 -3.68281 0
M  V30 3292 H 333.479 0.276351 -0.683227 0
M  V30 3293 H 336.121 0.0272868 -1.8998 0
M  V30 3294 H 334.271 2.09438 -3.27212 0
M  V30 3295 H 335.943 -0.145922 -4.61069 0
M  V30 3296 H 334.186 -0.206576 -4.33308 0
M  V30 3297 H 334.857 1.0065 -5.42746 0
M  V30 3298 H 337.333 1.88209 -3.71102 0
M  V30 3299 H 336.209 2.87072 -4.67847 0
M  V30 3300 H 336.47 3.26049 -2.98571 0
M  V30 3301 N 335.529 1.53961 0.336706 0
M  V30 3302 C 336.459 1.85417 1.41925 0
M  V30 3303 C 337.44 0.709856 1.5458 0
M  V30 3304 O 338.625 0.962396 1.68676 0
M  V30 3305 C 335.755 2.06985 2.78881 0
M  V30 3306 C 334.709 3.22813 2.81026 0
M  V30 3307 C 334.035 3.29727 4.20932 0
M  V30 3308 C 335.335 4.60767 2.45949 0
M  V30 3309 H 337.029 2.76079 1.15848 0
M  V30 3310 H 334.575 1.32839 0.555859 0
M  V30 3311 H 336.528 2.27575 3.54665 0
M  V30 3312 H 335.252 1.13061 3.06406 0
M  V30 3313 H 333.911 3.0209 2.07695 0
M  V30 3314 H 333.559 2.33385 4.45579 0
M  V30 3315 H 333.259 4.07566 4.23277 0
M  V30 3316 H 334.783 3.52536 4.98549 0
M  V30 3317 H 336.197 4.81325 3.11446 0
M  V30 3318 H 334.594 5.4106 2.59566 0
M  V30 3319 H 335.664 4.6391 1.41122 0
M  V30 3320 N 337.007 -0.598083 1.45811 0
M  V30 3321 C 337.955 -1.72932 1.55555 0
M  V30 3322 C 338.949 -1.63984 0.424921 0
M  V30 3323 O 340.155 -1.69663 0.601205 0
M  V30 3324 H 336.53 -0.571489 0.488779 0
M  V30 3325 H 338.501 -1.61842 2.50699 0
M  V30 3326 C 337.25 -3.11318 1.54843 0
M  V30 3327 H 336.573 -3.18867 2.41172 0
M  V30 3328 H 338.013 -3.90274 1.65717 0
M  V30 3329 C 336.472 -3.3578 0.274427 0
M  V30 3330 O 337.002 -3.9654 -0.641778 0
M  V30 3331 N 335.208 -2.90119 0.167139 0
M  V30 3332 H 334.755 -2.40855 0.913596 0
M  V30 3333 H 334.713 -3.0686 -0.684435 0
M  V30 3334 N 338.485 -1.33259 -0.841409 0
M  V30 3335 C 339.896 -1.22066 -1.41269 0
M  V30 3336 C 340.247 0.161479 -1.95534 0
M  V30 3337 O 339.372 1.06094 -1.88608 0
M  V30 3338 C 339.967 -2.20996 -2.568 0
M  V30 3339 C 338.526 -2.13649 -3.09888 0
M  V30 3340 C 337.673 -2.08623 -1.82679 0
M  V30 3341 H 340.624 -1.44895 -0.647395 0
M  V30 3342 H 340.645 -1.81621 -3.34356 0
M  V30 3343 H 340.157 -3.2158 -2.17274 0
M  V30 3344 H 338.258 -1.16359 -3.53965 0
M  V30 3345 H 338.371 -3.04079 -3.70234 0
M  V30 3346 H 336.735 -1.54061 -2.02824 0
M  V30 3347 H 337.518 -3.1101 -1.45353 0
M  V30 3348 N 339.963 1.05934 -1.16686 0
M  V30 3349 C 341.188 1.83029 -0.975455 0
M  V30 3350 C 341.613 1.82096 0.471452 0
M  V30 3351 O 340.971 1.22443 1.33706 0
M  V30 3352 C 341.019 3.27372 -1.51195 0
M  V30 3353 O 340.123 4.06054 -0.720701 0
M  V30 3354 H 339.464 0.566194 -0.346872 0
M  V30 3355 H 341.994 1.33541 -1.55009 0
M  V30 3356 H 342.004 3.78186 -1.53099 0
M  V30 3357 H 340.679 3.27366 -2.56523 0
M  V30 3358 H 339.256 3.64812 -0.772458 0
M  V30 3359 N 341.441 0.965919 1.2453 0
M  V30 3360 C 342.687 0.62776 1.92839 0
M  V30 3361 C 343.02 -0.834694 1.75347 0
M  V30 3362 O 342.295 -1.60031 1.10546 0
M  V30 3363 C 342.578 1.00109 3.45905 0
M  V30 3364 C 342.431 2.52011 3.72573 0
M  V30 3365 C 343.75 0.53435 4.36844 0
M  V30 3366 H 340.869 0.229537 0.700344 0
M  V30 3367 H 343.511 1.2046 1.46933 0
M  V30 3368 H 341.661 0.510238 3.85135 0
M  V30 3369 H 343.333 3.08559 3.42912 0
M  V30 3370 H 341.576 2.95287 3.17786 0
M  V30 3371 H 342.247 2.73183 4.79661 0
M  V30 3372 H 344.723 0.955565 4.04979 0
M  V30 3373 H 343.599 0.824152 5.42678 0
M  V30 3374 H 343.86 -0.565589 4.38467 0
M  V30 3375 N 342.919 -1.39368 0.735821 0
M  V30 3376 C 343.882 -2.2896 0.104874 0
M  V30 3377 C 344.882 -1.46347 -0.666274 0
M  V30 3378 O 346.072 -1.67014 -0.49517 0
M  V30 3379 C 343.204 -3.29857 -0.860656 0
M  V30 3380 H 344.397 -2.86259 0.894205 0
M  V30 3381 H 341.95 -1.48029 0.501704 0
M  V30 3382 H 342.685 -2.77615 -1.67631 0
M  V30 3383 H 342.47 -3.9087 -0.310327 0
M  V30 3384 H 343.96 -3.96893 -1.29867 0
M  V30 3385 N 344.397 -0.483516 -1.5 0
M  V30 3386 C 345.36 0.292965 -2.2732 0
M  V30 3387 C 346.36 0.909499 -1.32608 0
M  V30 3388 O 347.55 0.776745 -1.55924 0
M  V30 3389 C 344.682 1.41854 -3.09984 0
M  V30 3390 H 345.875 -0.385289 -2.97415 0
M  V30 3391 H 343.428 -0.237942 -1.54478 0
M  V30 3392 H 344.163 2.13148 -2.44414 0
M  V30 3393 H 343.948 0.982114 -3.79601 0
M  V30 3394 H 345.438 1.96597 -3.68429 0
M  V30 3395 N 345.875 1.56104 -0.216619 0
M  V30 3396 C 347.103 2.02563 0.421413 0
M  V30 3397 C 347.518 1.0965 1.53695 0
M  V30 3398 O 346.875 0.10521 1.82196 0
M  V30 3399 C 346.926 3.48584 0.957665 0
M  V30 3400 O 346.647 4.37953 -0.113389 0
M  V30 3401 C 348.148 4.10664 1.66943 0
M  V30 3402 H 345.368 0.662944 0.103665 0
M  V30 3403 H 347.912 2.01793 -0.331629 0
M  V30 3404 H 346.067 3.49985 1.661 0
M  V30 3405 H 346.481 5.23704 0.288932 0
M  V30 3406 H 347.955 5.14622 1.99671 0
M  V30 3407 H 348.432 3.55373 2.58083 0
M  V30 3408 H 349.038 4.13098 1.01142 0
M  V30 3409 N 347.353 -0.0568162 1.57498 0
M  V30 3410 C 348.283 -1.06593 2.0775 0
M  V30 3411 C 349.264 -1.39448 0.974082 0
M  V30 3412 O 350.449 -1.48815 1.24771 0
M  V30 3413 C 347.579 -2.37509 2.5339 0
M  V30 3414 C 346.533 -2.1897 3.67745 0
M  V30 3415 C 345.859 -3.55402 3.99492 0
M  V30 3416 C 347.159 -1.59859 4.97235 0
M  V30 3417 H 348.853 -0.647706 2.9231 0
M  V30 3418 H 346.399 -0.310116 1.40621 0
M  V30 3419 H 348.352 -3.08409 2.87162 0
M  V30 3420 H 347.076 -2.8134 1.65878 0
M  V30 3421 H 345.735 -1.50508 3.3428 0
M  V30 3422 H 345.383 -3.9683 3.09088 0
M  V30 3423 H 345.083 -3.43831 4.76502 0
M  V30 3424 H 346.607 -4.27708 4.35773 0
M  V30 3425 H 348.021 -2.20642 5.29141 0
M  V30 3426 H 346.418 -1.58942 5.78669 0
M  V30 3427 H 347.488 -0.561506 4.81638 0
M  V30 3428 N 348.832 -1.54138 -0.328536 0
M  V30 3429 C 350.08 -1.71765 -1.06496 0
M  V30 3430 C 350.401 -0.49149 -1.88704 0
M  V30 3431 O 349.671 0.494539 -1.89555 0
M  V30 3432 H 348.251 -0.633295 -0.396164 0
M  V30 3433 H 350.913 -1.91429 -0.366176 0
M  V30 3434 H 350.009 -2.5951 -1.73381 0
M  V30 3435 N 350.31 0.590341 -1.46126 0
M  V30 3436 C 351.557 1.34882 -1.5104 0
M  V30 3437 C 351.885 1.93849 -0.159021 0
M  V30 3438 O 351.14 1.76544 0.844436 0
M  V30 3439 C 351.439 2.5032 -2.55097 0
M  V30 3440 C 351.105 2.09394 -3.99331 0
M  V30 3441 C 349.767 1.97947 -4.38601 0
M  V30 3442 C 352.119 1.77712 -4.89967 0
M  V30 3443 C 349.447 1.53065 -5.66381 0
M  V30 3444 C 351.799 1.34312 -6.18177 0
M  V30 3445 C 350.463 1.21436 -6.56361 0
M  V30 3446 H 349.733 0.493568 -0.552695 0
M  V30 3447 H 352.38 0.665539 -1.79563 0
M  V30 3448 H 350.685 3.24062 -2.20207 0
M  V30 3449 H 352.382 3.08541 -2.56132 0
M  V30 3450 H 348.972 2.19235 -3.68285 0
M  V30 3451 H 353.156 1.85445 -4.60352 0
M  V30 3452 H 348.412 1.41733 -5.94745 0
M  V30 3453 H 352.586 1.08849 -6.87841 0
M  V30 3454 H 350.213 0.864345 -7.5527 0
M  V30 3455 N 351.788 1.33704 0.83433 0
M  V30 3456 C 353.036 1.25169 1.58673 0
M  V30 3457 C 353.357 -0.18127 1.94156 0
M  V30 3458 O 352.627 -1.11113 1.6134 0
M  V30 3459 H 351.207 0.4603 0.58833 0
M  V30 3460 H 353.869 1.67478 0.996847 0
M  V30 3461 H 352.965 1.84856 2.51465 0
M  V30 3462 N 353.266 -1.05314 1.17247 0
M  V30 3463 C 354.491 -1.82509 0.985148 0
M  V30 3464 C 354.916 -1.82343 -0.461788 0
M  V30 3465 O 354.274 -1.23151 -1.33055 0
M  V30 3466 C 354.322 -3.26566 1.52929 0
M  V30 3467 O 353.426 -4.05666 0.742225 0
M  V30 3468 H 352.767 -0.564347 0.349869 0
M  V30 3469 H 355.297 -1.32718 1.55715 0
M  V30 3470 H 355.307 -3.77369 1.55103 0
M  V30 3471 H 353.982 -3.26001 2.58256 0
M  V30 3472 H 352.559 -3.64397 0.791794 0
M  V30 3473 N 354.744 -0.972509 -1.24016 0
M  V30 3474 C 355.991 -0.637034 -1.92219 0
M  V30 3475 C 356.319 0.828418 -1.75976 0
M  V30 3476 O 355.574 1.61206 -1.10955 0
M  V30 3477 C 355.873 -0.963694 -3.44162 0
M  V30 3478 C 355.539 -2.41807 -3.80579 0
M  V30 3479 C 354.201 -2.81556 -3.9023 0
M  V30 3480 C 356.553 -3.36172 -3.98293 0
M  V30 3481 C 353.881 -4.14702 -4.15017 0
M  V30 3482 C 356.233 -4.68952 -4.24578 0
M  V30 3483 C 354.897 -5.08472 -4.32449 0
M  V30 3484 H 354.167 -0.233107 -0.703379 0
M  V30 3485 H 356.814 -1.2249 -1.47202 0
M  V30 3486 H 355.119 -0.29365 -3.90698 0
M  V30 3487 H 356.816 -0.682449 -3.9515 0
M  V30 3488 H 353.406 -2.09988 -3.73635 0
M  V30 3489 H 357.59 -3.06644 -3.90234 0
M  V30 3490 H 352.846 -4.4494 -4.19331 0
M  V30 3491 H 357.02 -5.42037 -4.37229 0
M  V30 3492 H 354.647 -6.11665 -4.51409 0
M  V30 3493 N 356.222 1.38976 -0.743202 0
M  V30 3494 C 357.155 2.28128 -0.0572165 0
M  V30 3495 C 358.133 1.44827 0.739182 0
M  V30 3496 O 359.317 1.74207 0.720009 0
M  V30 3497 C 356.444 3.25796 0.926001 0
M  V30 3498 C 355.49 4.25947 0.217099 0
M  V30 3499 S 356.323 5.24604 -1.07477 0
M  V30 3500 C 357.479 6.25829 -0.0943545 0
M  V30 3501 H 357.712 2.85961 -0.813246 0
M  V30 3502 H 355.245 1.44822 -0.535341 0
M  V30 3503 H 357.203 3.82583 1.48797 0
M  V30 3504 H 355.864 2.66966 1.65493 0
M  V30 3505 H 355.057 4.94746 0.961372 0
M  V30 3506 H 354.659 3.73002 -0.273059 0
M  V30 3507 H 356.951 6.73411 0.743239 0
M  V30 3508 H 357.894 7.0412 -0.749713 0
M  V30 3509 H 358.302 5.63797 0.281706 0
M  V30 3510 N 357.7 0.491464 1.49741 0
M  V30 3511 C 358.925 -0.0557177 2.07325 0
M  V30 3512 C 359.35 -1.30925 1.35056 0
M  V30 3513 O 358.708 -1.76733 0.404365 0
M  V30 3514 C 358.756 -0.302074 3.59333 0
M  V30 3515 O 357.86 -1.37868 3.88672 0
M  V30 3516 H 357.201 0.0219956 0.663636 0
M  V30 3517 H 359.731 0.688352 1.92673 0
M  V30 3518 H 359.741 -0.536464 4.04458 0
M  V30 3519 H 358.416 0.61383 4.11345 0
M  V30 3520 H 356.993 -1.12999 3.55367 0
M  V30 3521 N 359.178 -1.55987 0.224894 0
M  V30 3522 C 360.594 -1.59066 -0.130426 0
M  V30 3523 C 360.794 -1.24176 -1.5869 0
M  V30 3524 O 359.85 -0.978592 -2.32766 0
M  V30 3525 C 361.163 -3.00042 0.198883 0
M  V30 3526 C 362.711 -3.1268 0.141391 0
M  V30 3527 C 363.186 -4.55839 0.444422 0
M  V30 3528 N 364.677 -4.6152 0.394115 0
M  V30 3529 C 365.412 -5.70231 0.602038 0
M  V30 3530 N 364.908 -6.87291 0.871914 0
M  V30 3531 N 366.701 -5.59555 0.534245 0
M  V30 3532 H 358.852 -1.76941 1.17497 0
M  V30 3533 H 361.115 -0.822604 0.471197 0
M  V30 3534 H 360.821 -3.30234 1.2099 0
M  V30 3535 H 360.695 -3.74075 -0.484535 0
M  V30 3536 H 363.082 -2.82283 -0.860265 0
M  V30 3537 H 363.163 -2.40969 0.858335 0
M  V30 3538 H 362.807 -4.86954 1.44353 0
M  V30 3539 H 362.737 -5.2578 -0.293752 0
M  V30 3540 H 365.228 -3.77405 0.193356 0
M  V30 3541 H 365.541 -7.66058 1.01858 0
M  V30 3542 H 363.886 -6.89028 0.909145 0
M  V30 3543 H 367.077 -4.6698 0.323612 0
M  V30 3544 H 367.25 -6.44211 0.699693 0
M  V30 3545 N 360.656 0.0484629 -1.57525 0
M  V30 3546 C 361.619 1.03956 -2.04269 0
M  V30 3547 C 362.619 1.30211 -0.943496 0
M  V30 3548 O 363.809 1.25539 -1.20771 0
M  V30 3549 C 360.941 2.37742 -2.44319 0
M  V30 3550 H 362.134 0.636182 -2.93075 0
M  V30 3551 H 359.687 0.294811 -1.53494 0
M  V30 3552 H 360.422 2.82866 -1.5861 0
M  V30 3553 H 360.207 2.20021 -3.24551 0
M  V30 3554 H 361.697 3.08936 -2.80978 0
M  V30 3555 N 362.134 1.5431 0.320358 0
M  V30 3556 C 363.364 1.7638 1.07582 0
M  V30 3557 C 363.772 0.513944 1.82086 0
M  V30 3558 O 363.115 -0.525123 1.76035 0
M  V30 3559 C 363.177 2.9055 2.1171 0
M  V30 3560 C 362.841 4.2934 1.56575 0
M  V30 3561 C 363.838 5.10077 1.00586 0
M  V30 3562 C 361.523 4.75893 1.60722 0
M  V30 3563 C 363.517 6.35477 0.494756 0
M  V30 3564 C 361.204 6.0126 1.09224 0
M  V30 3565 C 362.202 6.80886 0.53696 0
M  V30 3566 O 361.89 8.03894 0.0297371 0
M  V30 3567 H 361.622 0.592369 0.325692 0
M  V30 3568 H 364.176 2.02019 0.37116 0
M  V30 3569 H 362.406 2.60489 2.85801 0
M  V30 3570 H 364.095 3.00373 2.73003 0
M  V30 3571 H 364.861 4.75265 0.966869 0
M  V30 3572 H 360.74 4.13957 2.02882 0
M  V30 3573 H 364.284 6.97574 0.0606842 0
M  V30 3574 H 360.181 6.35562 1.12831 0
M  V30 3575 H 360.949 8.18372 0.14486 0
M  V30 3576 N 363.613 -0.582584 1.46437 0
M  V30 3577 C 364.861 -1.33814 1.51453 0
M  V30 3578 C 365.182 -1.94277 0.167792 0
M  V30 3579 O 364.452 -1.78566 -0.805677 0
M  V30 3580 H 363.032 -0.496838 0.557818 0
M  V30 3581 H 365.694 -0.682281 1.82568 0
M  V30 3582 H 364.79 -2.14479 2.26728 0
M  V30 3583 N 365.091 -1.34144 -0.827227 0
M  V30 3584 C 366.337 -1.26446 -1.58554 0
M  V30 3585 C 366.67 0.1664 -1.93486 0
M  V30 3586 O 365.945 1.1107 -1.59667 0
M  V30 3587 C 366.228 -2.15111 -2.8879 0
M  V30 3588 C 366.081 -3.66712 -2.60465 0
M  V30 3589 C 367.4 -2.03311 -3.90324 0
M  V30 3590 H 364.519 -0.46067 -0.575284 0
M  V30 3591 H 367.161 -1.64356 -0.953269 0
M  V30 3592 H 365.311 -1.8291 -3.42748 0
M  V30 3593 H 366.983 -4.09259 -2.1285 0
M  V30 3594 H 365.226 -3.88014 -1.93978 0
M  V30 3595 H 365.897 -4.24112 -3.53317 0
M  V30 3596 H 368.373 -2.31574 -3.45706 0
M  V30 3597 H 367.249 -2.67582 -4.79261 0
M  V30 3598 H 367.51 -1.00879 -4.30437 0
M  V30 3599 N 366.569 1.04691 -1.17803 0
M  V30 3600 C 367.846 1.7472 -0.879328 0
M  V30 3601 C 368.226 2.01812 0.619271 0
M  V30 3602 O 367.574 1.65824 1.57209 0
M  V30 3603 C 367.784 3.03686 -1.71976 0
M  V30 3604 C 369.132 3.77542 -1.94286 0
M  V30 3605 O 370.156 3.13569 -1.68976 0
M  V30 3606 O 369.015 4.92506 -2.36855 0
M  V30 3607 H 366.109 0.760011 -0.326056 0
M  V30 3608 H 368.655 1.10813 -1.28525 0
M  V30 3609 H 367.427 2.79754 -2.73594 0
M  V30 3610 H 367.05 3.75332 -1.31194 0
M  V30 3611 N 368.047 0.979072 1.23499 0
M  V30 3612 C 369.458 0.684391 1.73704 0
M  V30 3613 C 369.809 -0.799448 1.79174 0
M  V30 3614 O 368.934 -1.62531 1.42873 0
M  V30 3615 C 369.529 1.23564 3.15464 0
M  V30 3616 C 368.088 0.99063 3.6313 0
M  V30 3617 C 367.235 1.36416 2.41425 0
M  V30 3618 H 370.186 1.15307 1.09041 0
M  V30 3619 H 370.207 0.607417 3.7562 0
M  V30 3620 H 369.719 2.31561 3.1145 0
M  V30 3621 H 367.82 -0.0733136 3.72528 0
M  V30 3622 H 367.933 1.64427 4.5 0
M  V30 3623 H 366.297 0.782616 2.42378 0
M  V30 3624 H 367.08 2.45387 2.40083 0
M  V30 3625 N 369.525 -1.3858 0.750561 0
M  V30 3626 C 370.473 -2.32339 0.110162 0
M  V30 3627 C 371.467 -1.53864 -0.708674 0
M  V30 3628 O 372.673 -1.69417 -0.608112 0
M  V30 3629 H 369.048 -0.751812 0.0168275 0
M  V30 3630 H 371.019 -2.83959 0.917053 0
M  V30 3631 C 369.768 -3.39043 -0.771067 0
M  V30 3632 H 369.091 -3.99517 -0.150374 0
M  V30 3633 H 370.531 -4.07061 -1.1865 0
M  V30 3634 C 368.99 -2.77365 -1.91234 0
M  V30 3635 O 369.52 -2.66434 -3.00626 0
M  V30 3636 N 367.726 -2.35219 -1.70646 0
M  V30 3637 H 367.273 -2.4431 -0.81673 0
M  V30 3638 H 367.231 -1.94294 -2.47178 0
M  V30 3639 N 371.003 -0.499398 -1.49478 0
M  V30 3640 C 372.252 0.0475259 -2.01644 0
M  V30 3641 C 372.565 1.38195 -1.38425 0
M  V30 3642 O 373.771 2.01547 -1.8191 0
M  V30 3643 C 372.227 0.135164 -3.59646 0
M  V30 3644 C 371.835 -1.19252 -4.31837 0
M  V30 3645 C 373.579 0.632538 -4.19761 0
M  V30 3646 C 371.486 -1.06713 -5.81693 0
M  V30 3647 H 370.416 0.0215349 -0.753692 0
M  V30 3648 H 373.067 -0.638577 -1.7203 0
M  V30 3649 H 371.449 0.885681 -3.85969 0
M  V30 3650 H 372.623 -1.9562 -4.17216 0
M  V30 3651 H 370.938 -1.62321 -3.83459 0
M  V30 3652 H 373.535 0.743833 -5.29501 0
M  V30 3653 H 373.878 1.63098 -3.83021 0
M  V30 3654 H 374.411 -0.0613987 -3.97753 0
M  V30 3655 H 371.15 -2.03979 -6.22955 0
M  V30 3656 H 370.67 -0.344307 -5.98811 0
M  V30 3657 H 372.349 -0.745208 -6.42694 0
M  V30 3658 N 372.481 1.55866 -0.233164 0
M  V30 3659 C 373.897 1.59133 0.121988 0
M  V30 3660 C 374.097 1.25016 1.58029 0
M  V30 3661 O 373.153 0.990922 2.32243 0
M  V30 3662 C 374.466 2.99932 -0.214792 0
M  V30 3663 C 376.014 3.12601 -0.157971 0
M  V30 3664 C 376.489 4.55597 -0.46859 0
M  V30 3665 N 377.98 4.61305 -0.418585 0
M  V30 3666 C 378.715 5.69903 -0.63227 0
M  V30 3667 N 378.211 6.86819 -0.90835 0
M  V30 3668 N 380.004 5.59264 -0.563913 0
M  V30 3669 H 372.155 1.76315 -1.18434 0
M  V30 3670 H 374.418 0.820093 -0.475553 0
M  V30 3671 H 374.124 3.29588 -1.22739 0
M  V30 3672 H 373.998 3.74327 0.464691 0
M  V30 3673 H 376.385 2.82735 0.845283 0
M  V30 3674 H 376.466 2.40511 -0.871102 0
M  V30 3675 H 376.11 4.86182 -1.46934 0
M  V30 3676 H 376.04 5.25928 0.265865 0
M  V30 3677 H 378.531 3.77297 -0.213368 0
M  V30 3678 H 378.844 7.65507 -1.05919 0
M  V30 3679 H 377.189 6.88536 -0.945673 0
M  V30 3680 H 380.38 4.66802 -0.348372 0
M  V30 3681 H 380.553 6.43831 -0.733847 0
M  V30 3682 N 373.959 -0.0401083 1.57549 0
M  V30 3683 C 375.187 -0.745196 1.93014 0
M  V30 3684 C 375.602 -1.6948 0.831984 0
M  V30 3685 O 374.959 -1.81482 -0.192463 0
M  V30 3686 C 375.01 -1.51176 3.28372 0
M  V30 3687 O 374.731 -0.600284 4.33968 0
M  V30 3688 C 376.232 -2.315 3.78051 0
M  V30 3689 H 373.452 -0.210088 0.637263 0
M  V30 3690 H 375.996 -0.000924689 2.045 0
M  V30 3691 H 374.151 -2.20801 3.18317 0
M  V30 3692 H 374.565 -1.13669 5.12035 0
M  V30 3693 H 376.039 -2.80697 4.75303 0
M  V30 3694 H 376.516 -3.12436 3.08675 0
M  V30 3695 H 377.122 -1.66971 3.91153 0
M  V30 3696 N 375.437 -1.54477 -0.31217 0
M  V30 3697 C 376.685 -1.72884 -1.04668 0
M  V30 3698 C 377.006 -0.511477 -1.88173 0
M  V30 3699 O 376.276 0.474407 -1.90069 0
M  V30 3700 H 374.856 -0.637461 -0.389425 0
M  V30 3701 H 377.518 -1.91807 -0.345852 0
M  V30 3702 H 376.614 -2.61334 -1.70619 0
M  V30 3703 N 376.915 0.57481 -1.46744 0
M  V30 3704 C 377.863 1.70435 -1.58286 0
M  V30 3705 C 378.857 1.63287 -0.450956 0
M  V30 3706 O 380.063 1.68685 -0.628121 0
M  V30 3707 H 376.438 0.56364 -0.497809 0
M  V30 3708 H 378.409 1.57833 -2.53242 0
M  V30 3709 C 377.158 3.08815 -1.59776 0
M  V30 3710 H 376.481 3.1499 -2.46214 0
M  V30 3711 H 377.921 3.87588 -1.71905 0
M  V30 3712 C 376.38 3.35301 -0.327812 0
M  V30 3713 O 376.91 3.97511 0.57861 0
M  V30 3714 N 375.116 2.89816 -0.213274 0
M  V30 3715 H 374.663 2.39371 -0.951798 0
M  V30 3716 H 374.621 3.0791 0.63553 0
M  V30 3717 N 378.394 1.34581 0.820102 0
M  V30 3718 C 379.81 1.14325 1.11364 0
M  V30 3719 C 380.01 -0.0533648 2.01429 0
M  V30 3720 O 379.066 -0.728044 2.41776 0
M  V30 3721 C 380.379 2.43983 1.75764 0
M  V30 3722 C 381.927 2.50065 1.88246 0
M  V30 3723 C 382.402 3.79732 2.56061 0
M  V30 3724 N 383.893 3.80908 2.63558 0
M  V30 3725 C 384.628 4.77961 3.16766 0
M  V30 3726 N 384.124 5.85397 3.70517 0
M  V30 3727 N 385.917 4.65413 3.15194 0
M  V30 3728 H 378.068 2.11246 0.221096 0
M  V30 3729 H 380.331 0.934289 0.160649 0
M  V30 3730 H 380.037 3.31651 1.1705 0
M  V30 3731 H 379.911 2.57531 2.75604 0
M  V30 3732 H 382.298 1.62834 2.46108 0
M  V30 3733 H 382.379 2.40442 0.873006 0
M  V30 3734 H 382.023 4.67354 1.98853 0
M  V30 3735 H 381.953 3.86639 3.57516 0
M  V30 3736 H 384.444 3.03274 2.25463 0
M  V30 3737 H 384.757 6.55463 4.09376 0
M  V30 3738 H 383.102 5.89107 3.68752 0
M  V30 3739 H 386.293 3.80627 2.72471 0
M  V30 3740 H 386.466 5.41216 3.56356 0
M  V30 3741 N 379.872 -1.04064 1.18357 0
M  V30 3742 C 381.1 -1.80916 1.00384 0
M  V30 3743 C 381.515 -1.83414 -0.447738 0
M  V30 3744 O 380.872 -1.26962 -1.31099 0
M  V30 3745 C 380.923 -3.26516 1.55144 0
M  V30 3746 O 380.644 -3.2424 2.94618 0
M  V30 3747 C 382.145 -4.20013 1.41789 0
M  V30 3748 H 379.365 -0.569728 0.354474 0
M  V30 3749 H 381.909 -1.31151 1.56906 0
M  V30 3750 H 380.064 -3.73512 1.02798 0
M  V30 3751 H 380.478 -4.15452 3.20156 0
M  V30 3752 H 381.952 -5.20111 1.84901 0
M  V30 3753 H 382.429 -4.37667 0.36661 0
M  V30 3754 H 383.035 -3.78881 1.93207 0
M  V30 3755 N 381.35 -0.985608 -1.22978 0
M  V30 3756 C 382.596 -0.65836 -1.91816 0
M  V30 3757 C 382.929 0.806692 -1.76653 0
M  V30 3758 O 382.204 1.58252 -1.13078 0
M  V30 3759 C 382.487 -1.056 -3.44268 0
M  V30 3760 C 382.34 -2.57906 -3.68516 0
M  V30 3761 C 383.659 -0.603781 -4.35939 0
M  V30 3762 H 380.778 -0.24065 -0.696604 0
M  V30 3763 H 383.42 -1.22783 -1.44998 0
M  V30 3764 H 381.57 -0.571445 -3.84274 0
M  V30 3765 H 383.242 -3.13976 -3.3796 0
M  V30 3766 H 381.485 -3.00305 -3.13048 0
M  V30 3767 H 382.156 -2.80779 -4.75255 0
M  V30 3768 H 384.632 -1.01987 -4.03408 0
M  V30 3769 H 383.508 -0.910383 -5.41298 0
M  V30 3770 H 383.769 0.495761 -4.39312 0
M  V30 3771 N 382.828 1.3818 -0.7579 0
M  V30 3772 C 384.056 2.04301 -0.326937 0
M  V30 3773 C 384.471 1.57163 1.0462 0
M  V30 3774 O 383.828 0.746626 1.66529 0
M  V30 3775 C 383.879 3.59846 -0.345363 0
M  V30 3776 O 383.6 4.05256 -1.66432 0
M  V30 3777 C 385.101 4.4319 0.098927 0
M  V30 3778 H 382.321 0.656443 -0.139012 0
M  V30 3779 H 384.865 1.76786 -1.02796 0
M  V30 3780 H 383.02 3.86182 0.306955 0
M  V30 3781 H 383.434 4.99709 -1.59345 0
M  V30 3782 H 384.908 5.51989 0.0348745 0
M  V30 3783 H 385.385 4.23947 1.14741 0
M  V30 3784 H 385.991 4.22051 -0.52468 0
M  V30 3785 N 384.306 0.507319 1.49211 0
M  V30 3786 C 385.534 -0.0315749 2.06876 0
M  V30 3787 C 385.949 -1.30241 1.36685 0
M  V30 3788 O 385.306 -1.76937 0.447152 0
M  V30 3789 C 385.357 -0.282627 3.60393 0
M  V30 3790 O 385.078 0.937835 4.27944 0
M  V30 3791 C 386.579 -0.864453 4.3479 0
M  V30 3792 H 383.799 0.0233048 0.670595 0
M  V30 3793 H 386.343 0.706484 1.91909 0
M  V30 3794 H 384.498 -0.97068 3.75042 0
M  V30 3795 H 384.912 0.704567 5.19746 0
M  V30 3796 H 386.386 -0.989664 5.43056 0
M  V30 3797 H 386.863 -1.86382 3.97692 0
M  V30 3798 H 387.469 -0.213672 4.24763 0
M  V30 3799 N 385.784 -1.5574 0.241426 0
M  V30 3800 C 387.032 -1.98417 -0.384075 0
M  V30 3801 C 387.353 -1.13078 -1.58866 0
M  V30 3802 O 386.623 -0.212312 -1.94746 0
M  V30 3803 H 385.203 -0.732813 -0.144894 0
M  V30 3804 H 387.865 -1.9193 0.338943 0
M  V30 3805 H 386.961 -3.04219 -0.696939 0
M  V30 3806 N 387.262 0.0317525 -1.57568 0
M  V30 3807 C 388.225 1.01783 -2.0536 0
M  V30 3808 C 389.225 1.29203 -0.957253 0
M  V30 3809 O 390.415 1.24251 -1.22095 0
M  V30 3810 C 387.547 2.35137 -2.46827 0
M  V30 3811 H 388.74 0.605062 -2.93733 0
M  V30 3812 H 386.293 0.278514 -1.53799 0
M  V30 3813 H 387.028 2.81168 -1.61602 0
M  V30 3814 H 386.813 2.16566 -3.26866 0
M  V30 3815 H 388.303 3.05938 -2.84239 0
M  V30 3816 N 388.74 1.54641 0.303973 0
M  V30 3817 C 389.687 1.85386 1.37479 0
M  V30 3818 C 390.657 0.702528 1.50512 0
M  V30 3819 O 391.842 0.950867 1.65418 0
M  V30 3820 C 388.982 2.10413 2.73533 0
M  V30 3821 C 388.095 3.38049 2.68974 0
M  V30 3822 C 387.23 3.52934 3.97002 0
M  V30 3823 C 386.269 4.74373 3.86829 0
M  V30 3824 N 385.406 4.8608 5.06627 0
M  V30 3825 H 390.246 2.76732 1.1056 0
M  V30 3826 H 387.783 1.37034 0.534805 0
M  V30 3827 H 389.741 2.22919 3.52652 0
M  V30 3828 H 388.371 1.22338 2.98719 0
M  V30 3829 H 387.423 3.3418 1.81736 0
M  V30 3830 H 388.735 4.27288 2.57346 0
M  V30 3831 H 387.889 3.65088 4.84557 0
M  V30 3832 H 386.628 2.61824 4.1146 0
M  V30 3833 H 385.633 4.62255 2.97658 0
M  V30 3834 H 386.858 5.66888 3.73918 0
M  V30 3835 H 384.804 3.97891 5.21554 0
M  V30 3836 H 384.721 5.69315 4.9741 0
M  V30 3837 H 385.989 5.02587 5.95841 0
M  V30 3838 N 390.218 -0.567019 1.47046 0
M  V30 3839 C 391.148 -1.68482 1.61667 0
M  V30 3840 C 392.129 -1.6358 0.466418 0
M  V30 3841 O 393.314 -1.81354 0.694574 0
M  V30 3842 C 390.444 -3.07124 1.62148 0
M  V30 3843 C 389.398 -3.26867 2.76301 0
M  V30 3844 C 388.724 -4.66196 2.61849 0
M  V30 3845 C 390.024 -3.13186 4.17986 0
M  V30 3846 H 391.718 -1.56502 2.5524 0
M  V30 3847 H 389.264 -0.751486 1.22836 0
M  V30 3848 H 391.217 -3.8516 1.70968 0
M  V30 3849 H 389.941 -3.2004 0.651287 0
M  V30 3850 H 388.6 -2.51237 2.66975 0
M  V30 3851 H 388.248 -4.75898 1.62879 0
M  V30 3852 H 387.948 -4.80356 3.38425 0
M  V30 3853 H 389.472 -5.46379 2.72584 0
M  V30 3854 H 390.886 -3.81049 4.2834 0
M  V30 3855 H 389.283 -3.3886 4.95272 0
M  V30 3856 H 390.353 -2.10057 4.3704 0
M  V30 3857 N 391.696 -1.35014 -0.812953 0
M  V30 3858 C 392.924 -1.31031 -1.6012 0
M  V30 3859 C 393.339 0.113558 -1.88458 0
M  V30 3860 O 392.696 1.06363 -1.48301 0
M  V30 3861 C 392.747 -2.10872 -2.93624 0
M  V30 3862 O 392.468 -3.47706 -2.66518 0
M  V30 3863 C 393.969 -2.14401 -3.88004 0
M  V30 3864 H 391.189 -0.45037 -0.497401 0
M  V30 3865 H 393.733 -1.77775 -1.01076 0
M  V30 3866 H 391.888 -1.67744 -3.492 0
M  V30 3867 H 392.302 -3.89097 -3.51715 0
M  V30 3868 H 393.776 -2.74669 -4.78812 0
M  V30 3869 H 394.253 -1.14105 -4.24119 0
M  V30 3870 H 394.859 -2.57662 -3.38364 0
M  V30 3871 N 393.175 1.03435 -1.18907 0
M  V30 3872 C 394.405 1.8012 -1.01195 0
M  V30 3873 C 394.813 1.8395 0.442613 0
M  V30 3874 O 394.156 1.27836 1.31923 0
M  V30 3875 C 394.218 3.26792 -1.49823 0
M  V30 3876 C 393.882 3.46609 -2.97844 0
M  V30 3877 C 394.879 3.37278 -3.95651 0
M  V30 3878 C 392.564 3.73001 -3.36416 0
M  V30 3879 C 394.558 3.54054 -5.30023 0
M  V30 3880 C 392.245 3.89423 -4.70949 0
M  V30 3881 C 393.243 3.79951 -5.67562 0
M  V30 3882 O 392.931 3.95895 -6.99659 0
M  V30 3883 H 392.663 0.573865 -0.357289 0
M  V30 3884 H 395.217 1.31207 -1.58031 0
M  V30 3885 H 393.447 3.76703 -0.873578 0
M  V30 3886 H 395.136 3.85055 -1.28404 0
M  V30 3887 H 395.902 3.16846 -3.67197 0
M  V30 3888 H 391.781 3.79469 -2.61772 0
M  V30 3889 H 395.325 3.46577 -6.05417 0
M  V30 3890 H 391.222 4.09351 -4.99101 0
M  V30 3891 H 391.99 4.13019 -7.06653 0
M  V30 3892 N 394.653 0.992116 1.22453 0
M  V30 3893 C 395.878 0.685644 1.95739 0
M  V30 3894 C 396.303 -0.743 1.72804 0
M  V30 3895 O 395.661 -1.50778 1.00676 0
M  V30 3896 C 395.709 0.996293 3.46564 0
M  V30 3897 O 394.813 0.0945512 4.12292 0
M  V30 3898 H 394.154 0.256694 0.612376 0
M  V30 3899 H 396.684 1.32888 1.5557 0
M  V30 3900 H 396.694 0.93781 3.97076 0
M  V30 3901 H 395.369 2.03733 3.62582 0
M  V30 3902 H 393.946 0.208451 3.72317 0
M  V30 3903 N 396.131 -1.37776 0.765217 0
M  V30 3904 C 397.359 -2.04124 0.337767 0
M  V30 3905 C 397.774 -1.57715 -1.03785 0
M  V30 3906 O 397.131 -0.755447 -1.6613 0
M  V30 3907 C 397.182 -3.59658 0.364442 0
M  V30 3908 O 396.903 -4.04367 1.68579 0
M  V30 3909 C 398.404 -4.43236 -0.0754221 0
M  V30 3910 H 395.624 -0.655696 0.142491 0
M  V30 3911 H 398.168 -1.76238 1.03732 0
M  V30 3912 H 396.323 -3.86339 -0.286471 0
M  V30 3913 H 396.737 -4.98857 1.61993 0
M  V30 3914 H 398.211 -5.52 -0.00560067 0
M  V30 3915 H 398.688 -4.2455 -1.12491 0
M  V30 3916 H 399.294 -4.21767 0.547055 0
M  V30 3917 N 397.609 -0.515225 -1.4894 0
M  V30 3918 C 398.839 0.0205735 -2.0659 0
M  V30 3919 C 399.247 1.30064 -1.37405 0
M  V30 3920 O 398.59 1.78087 -0.450632 0
M  V30 3921 C 398.652 0.330124 -3.57981 0
M  V30 3922 C 398.316 -0.854295 -4.48944 0
M  V30 3923 C 399.313 -1.7487 -4.89609 0
M  V30 3924 C 396.998 -1.05712 -4.9105 0
M  V30 3925 C 398.992 -2.82996 -5.71132 0
M  V30 3926 C 396.679 -2.14154 -5.72347 0
M  V30 3927 C 397.677 -3.0263 -6.12294 0
M  V30 3928 O 397.365 -4.09198 -6.91962 0
M  V30 3929 H 397.097 -0.0236833 -0.675585 0
M  V30 3930 H 399.651 -0.715956 -1.92518 0
M  V30 3931 H 397.881 1.12044 -3.70112 0
M  V30 3932 H 399.57 0.806233 -3.97812 0
M  V30 3933 H 400.336 -1.60388 -4.57712 0
M  V30 3934 H 396.215 -0.377788 -4.59449 0
M  V30 3935 H 399.759 -3.52083 -6.02232 0
M  V30 3936 H 395.656 -2.28626 -6.03656 0
M  V30 3937 H 396.424 -4.06726 -7.10293 0
M  V30 3938 N 399.087 1.5561 -0.249682 0
M  V30 3939 C 400.335 1.98618 0.373548 0
M  V30 3940 C 400.656 1.13919 1.58264 0
M  V30 3941 O 399.926 0.222637 1.94631 0
M  V30 3942 H 398.506 0.733571 0.141006 0
M  V30 3943 H 401.168 1.91748 -0.349117 0
M  V30 3944 H 400.264 3.04584 0.680796 0
M  V30 3945 N 400.565 -0.0233959 1.57583 0
M  V30 3946 C 401.512 -1.02224 2.06927 0
M  V30 3947 C 402.482 -1.35575 0.959617 0
M  V30 3948 O 403.667 -1.45815 1.23055 0
M  V30 3949 C 400.807 -2.31636 2.5581 0
M  V30 3950 C 399.92 -2.04394 3.80588 0
M  V30 3951 C 399.055 -3.27717 4.18061 0
M  V30 3952 C 398.094 -2.96056 5.3574 0
M  V30 3953 N 397.231 -4.11847 5.68618 0
M  V30 3954 H 402.071 -0.594504 2.9201 0
M  V30 3955 H 399.608 -0.281921 1.44373 0
M  V30 3956 H 401.566 -3.07258 2.82221 0
M  V30 3957 H 400.196 -2.72122 1.73636 0
M  V30 3958 H 399.248 -1.19244 3.61227 0
M  V30 3959 H 400.56 -1.77042 4.66323 0
M  V30 3960 H 399.714 -4.11702 4.4563 0
M  V30 3961 H 398.453 -3.58188 3.30988 0
M  V30 3962 H 397.458 -2.10474 5.07918 0
M  V30 3963 H 398.683 -2.66857 6.24471 0
M  V30 3964 H 396.629 -4.42258 4.84504 0
M  V30 3965 H 396.546 -3.87938 6.48876 0
M  V30 3966 H 397.814 -4.96689 6.00766 0
M  V30 3967 N 402.043 -1.548 -0.295768 0
M  V30 3968 C 403.29 -1.74329 -1.03032 0
M  V30 3969 C 403.618 -0.531915 -1.87085 0
M  V30 3970 O 402.873 0.486052 -1.89568 0
M  V30 3971 C 403.172 -2.98797 -1.961 0
M  V30 3972 C 402.838 -4.32356 -1.2798 0
M  V30 3973 C 401.5 -4.68661 -1.09135 0
M  V30 3974 C 403.852 -5.15128 -0.793243 0
M  V30 3975 C 401.18 -5.85312 -0.403269 0
M  V30 3976 C 403.532 -6.32488 -0.118854 0
M  V30 3977 C 402.196 -6.6745 0.0815043 0
M  V30 3978 H 401.466 -0.637916 -0.37702 0
M  V30 3979 H 404.113 -1.8906 -0.304696 0
M  V30 3980 H 402.418 -2.78869 -2.75207 0
M  V30 3981 H 404.115 -3.11102 -2.53015 0
M  V30 3982 H 400.705 -4.03808 -1.43655 0
M  V30 3983 H 404.889 -4.87575 -0.92653 0
M  V30 3984 H 400.145 -6.1094 -0.237098 0
M  V30 3985 H 404.319 -6.95892 0.266035 0
M  V30 3986 H 401.946 -7.57695 0.616685 0
M  V30 3987 N 403.521 0.559213 -1.47345 0
M  V30 3988 C 404.451 1.67622 -1.62558 0
M  V30 3989 C 405.432 1.63331 -0.475087 0
M  V30 3990 O 406.617 1.80983 -0.704182 0
M  V30 3991 C 403.747 3.0626 -1.63774 0
M  V30 3992 C 402.701 3.25397 -2.7803 0
M  V30 3993 C 402.027 4.64801 -2.64318 0
M  V30 3994 C 403.327 3.10965 -4.19641 0
M  V30 3995 H 405.021 1.55146 -2.56067 0
M  V30 3996 H 402.567 0.744961 -1.23233 0
M  V30 3997 H 404.52 3.84247 -1.73008 0
M  V30 3998 H 403.244 3.1969 -0.66825 0
M  V30 3999 H 401.903 2.49817 -2.68304 0
M  V30 4000 H 401.551 4.75028 -1.65401 0
M  V30 4001 H 401.251 4.78555 -3.40968 0
M  V30 4002 H 402.775 5.44926 -2.75478 0
M  V30 4003 H 404.189 3.78772 -4.30354 0
M  V30 4004 H 402.586 3.36229 -4.97062 0
M  V30 4005 H 403.656 2.07736 -4.38148 0
M  V30 4006 N 404.999 1.35443 0.805782 0
M  V30 4007 C 405.962 1.28301 1.89925 0
M  V30 4008 C 406.962 0.194285 1.59622 0
M  V30 4009 O 408.152 0.448036 1.6834 0
M  V30 4010 C 405.284 0.984997 3.2636 0
M  V30 4011 H 406.477 2.2553 1.97677 0
M  V30 4012 H 404.03 1.19979 1.00173 0
M  V30 4013 H 404.765 0.016603 3.24296 0
M  V30 4014 H 404.55 1.77269 3.4974 0
M  V30 4015 H 406.04 0.960651 4.064 0
M  V30 4016 N 406.477 -1.02803 1.19454 0
M  V30 4017 C 407.754 -1.73299 0.907013 0
M  V30 4018 C 408.134 -2.02772 -0.587086 0
M  V30 4019 O 407.482 -1.68304 -1.54551 0
M  V30 4020 C 407.692 -3.00912 1.76785 0
M  V30 4021 C 409.04 -3.74403 2.00268 0
M  V30 4022 O 410.064 -3.10841 1.73943 0
M  V30 4023 O 408.923 -4.88675 2.4466 0
M  V30 4024 H 406.017 -0.754727 0.338106 0
M  V30 4025 H 408.563 -1.08754 1.30271 0
M  V30 4026 H 407.335 -2.75366 2.7801 0
M  V30 4027 H 406.958 -3.73197 1.37149 0
M  V30 4028 N 407.956 -0.998596 -1.21925 0
M  V30 4029 C 409.204 -0.676325 -1.90448 0
M  V30 4030 C 409.525 0.794719 -1.78071 0
M  V30 4031 O 408.795 1.5701 -1.17152 0
M  V30 4032 H 407.375 -0.247165 -0.704925 0
M  V30 4033 H 410.037 -1.26633 -1.48156 0
M  V30 4034 H 409.133 -0.943858 -2.97486 0
M  V30 4035 N 409.434 1.37368 -0.772513 0
M  V30 4036 C 410.682 1.99279 -0.336516 0
M  V30 4037 C 411.003 1.6163 1.09091 0
M  V30 4038 O 410.273 0.882109 1.74916 0
M  V30 4039 H 408.853 0.737063 -0.121435 0
M  V30 4040 H 411.515 1.67836 -0.990809 0
M  V30 4041 H 410.611 3.09332 -0.414763 0
M  V30 4042 N 410.912 0.523116 1.48665 0
M  V30 4043 C 412.152 -0.0115588 2.04397 0
M  V30 4044 C 412.516 -1.32225 1.39214 0
M  V30 4045 O 413.717 -1.94253 1.85793 0
M  V30 4046 C 411.988 -0.138119 3.57133 0
M  V30 4047 S 413.547 -0.623849 4.34343 0
M  V30 4048 H 410.365 0.00877706 0.710946 0
M  V30 4049 H 412.967 0.702116 1.82457 0
M  V30 4050 H 411.671 0.820748 4.02109 0
M  V30 4051 H 411.202 -0.876377 3.83514 0
M  V30 4052 H 413.217 -1.8895 4.58816 0
M  V30 4053 N 412.39 -1.55475 0.257931 0
M  V30 4054 C 413.615 -2.04064 -0.370488 0
M  V30 4055 C 414.04 -1.13565 -1.49948 0
M  V30 4056 O 413.398 -0.130781 -1.80828 0
M  V30 4057 C 413.446 -3.50554 -0.845237 0
M  V30 4058 O 412.55 -3.63173 -1.95394 0
M  V30 4059 H 411.891 -0.659257 -0.0792243 0
M  V30 4060 H 414.421 -2.00903 0.387212 0
M  V30 4061 H 414.431 -3.91588 -1.14555 0
M  V30 4062 H 413.106 -4.15896 -0.0191259 0
M  V30 4063 H 411.683 -3.34039 -1.65748 0
M  V30 4064 N 413.868 0.0150385 -1.57593 0
M  V30 4065 C 415.116 0.701613 -1.8953 0
M  V30 4066 C 415.437 1.75139 -0.857396 0
M  V30 4067 O 414.707 1.95607 0.107194 0
M  V30 4068 H 413.287 0.26213 -0.699498 0
M  V30 4069 H 415.949 -0.0223304 -1.94887 0
M  V30 4070 H 415.045 1.18236 -2.88837 0
M  V30 4071 N 415.346 1.54954 0.287554 0
M  V30 4072 C 416.594 1.74528 1.01904 0
M  V30 4073 C 416.915 0.541349 1.87335 0
M  V30 4074 O 416.185 -0.444108 1.908 0
M  V30 4075 H 414.765 0.643576 0.379235 0
M  V30 4076 H 417.427 1.92333 0.315294 0
M  V30 4077 H 416.523 2.64015 1.6644 0
M  V30 4078 N 416.824 -0.551391 1.4764 0
M  V30 4079 C 417.787 -1.64007 1.60107 0
M  V30 4080 C 418.787 -1.53601 0.47576 0
M  V30 4081 O 419.977 -1.57655 0.740988 0
M  V30 4082 C 417.109 -3.03569 1.55108 0
M  V30 4083 H 418.302 -1.543 2.57161 0
M  V30 4084 H 415.855 -0.771776 1.35917 0
M  V30 4085 H 416.59 -3.18804 0.594519 0
M  V30 4086 H 416.375 -3.12532 2.36783 0
M  V30 4087 H 417.865 -3.82762 1.66982 0
M  V30 4088 N 418.302 -1.35869 -0.798587 0
M  V30 4089 C 419.532 -1.32529 -1.58491 0
M  V30 4090 C 419.94 0.0975405 -1.88948 0
M  V30 4091 O 419.283 1.06224 -1.49874 0
M  V30 4092 C 419.345 -2.07247 -2.9375 0
M  V30 4093 C 419.009 -3.56391 -2.86068 0
M  V30 4094 C 420.006 -4.50824 -2.58947 0
M  V30 4095 C 417.691 -3.9915 -3.04933 0
M  V30 4096 C 419.685 -5.85993 -2.5078 0
M  V30 4097 C 417.372 -5.34413 -2.96389 0
M  V30 4098 C 418.37 -6.27646 -2.69349 0
M  V30 4099 O 418.058 -7.60426 -2.60782 0
M  V30 4100 H 417.79 -0.456529 -0.498556 0
M  V30 4101 H 420.344 -1.79425 -0.999799 0
M  V30 4102 H 418.574 -1.55001 -3.54276 0
M  V30 4103 H 420.263 -1.96883 -3.54954 0
M  V30 4104 H 421.029 -4.19104 -2.44084 0
M  V30 4105 H 416.908 -3.26961 -3.24989 0
M  V30 4106 H 420.452 -6.58735 -2.29595 0
M  V30 4107 H 416.349 -5.65743 -3.10813 0
M  V30 4108 H 417.117 -7.70444 -2.76331 0
M  V30 4109 N 419.78 1.02168 -1.19998 0
M  V30 4110 C 421.057 1.72816 -0.916191 0
M  V30 4111 C 421.437 2.03081 0.576325 0
M  V30 4112 O 420.785 1.69122 1.53656 0
M  V30 4113 C 420.995 2.9997 -1.78378 0
M  V30 4114 C 422.343 3.73336 -2.02251 0
M  V30 4115 O 423.367 3.09914 -1.75589 0
M  V30 4116 O 422.226 4.87371 -2.47249 0
M  V30 4117 H 419.32 0.752924 -0.342103 0
M  V30 4118 H 421.866 1.08062 -1.30846 0
M  V30 4119 H 420.638 2.73888 -2.79466 0
M  V30 4120 H 420.261 3.72464 -1.39126 0
M  V30 4121 N 421.258 1.00505 1.21394 0
M  V30 4122 C 422.504 0.688793 1.90745 0
M  V30 4123 C 422.837 -0.778486 1.77914 0
M  V30 4124 O 422.112 -1.56433 1.15581 0
M  V30 4125 C 422.395 1.11063 3.42545 0
M  V30 4126 C 422.248 2.63737 3.64367 0
M  V30 4127 C 423.567 0.673059 4.34923 0
M  V30 4128 H 420.686 0.251702 0.692687 0
M  V30 4129 H 423.328 1.25074 1.43026 0
M  V30 4130 H 421.478 0.632508 3.83317 0
M  V30 4131 H 423.15 3.19313 3.32922 0
M  V30 4132 H 421.393 3.05248 3.08231 0
M  V30 4133 H 422.064 2.88305 4.70727 0
M  V30 4134 H 424.54 1.08392 4.01734 0
M  V30 4135 H 423.416 0.996383 5.39781 0
M  V30 4136 H 423.677 -0.425808 4.40045 0
M  V30 4137 N 422.737 -1.36956 0.779787 0
M  V30 4138 C 423.986 -1.98738 0.344405 0
M  V30 4139 C 424.299 -1.62596 -1.08728 0
M  V30 4140 O 425.505 -2.1754 -1.62445 0
M  V30 4141 C 423.961 -3.5544 0.564829 0
M  V30 4142 C 423.569 -4.00514 2.0073 0
M  V30 4143 C 425.313 -4.24059 0.193471 0
M  V30 4144 C 423.22 -5.49957 2.17489 0
M  V30 4145 H 422.15 -0.743561 0.12503 0
M  V30 4146 H 424.801 -1.56381 0.960057 0
M  V30 4147 H 423.183 -3.95817 -0.120397 0
M  V30 4148 H 424.357 -3.71362 2.72814 0
M  V30 4149 H 422.672 -3.44703 2.336 0
M  V30 4150 H 425.269 -5.33874 0.297097 0
M  V30 4151 H 425.612 -4.07378 -0.857263 0
M  V30 4152 H 426.145 -3.89012 0.831556 0
M  V30 4153 H 422.884 -5.71574 3.2091 0
M  V30 4154 H 422.404 -5.80767 1.49899 0
M  V30 4155 H 424.083 -6.16043 1.97738 0
M  V30 4156 N 424.215 -0.530993 -1.48385 0
M  V30 4157 C 425.464 0.00474348 -2.01699 0
M  V30 4158 C 425.777 1.35227 -1.41325 0
M  V30 4159 O 426.983 1.97643 -1.86144 0
M  V30 4160 C 425.439 0.0588473 -3.59852 0
M  V30 4161 C 425.047 -1.28385 -4.2921 0
M  V30 4162 C 426.791 0.543358 -4.21008 0
M  V30 4163 C 424.698 -1.19028 -5.79298 0
M  V30 4164 H 423.628 0.00554317 -0.75398 0
M  V30 4165 H 426.279 -0.674924 -1.70637 0
M  V30 4166 H 424.661 0.803612 -3.8776 0
M  V30 4167 H 425.835 -2.04426 -4.12973 0
M  V30 4168 H 424.15 -1.70418 -3.7993 0
M  V30 4169 H 426.747 0.631351 -5.3096 0
M  V30 4170 H 427.09 1.54937 -3.86394 0
M  V30 4171 H 427.623 -0.145754 -3.97533 0
M  V30 4172 H 424.362 -2.17147 -6.18488 0
M  V30 4173 H 423.882 -0.471246 -5.97946 0
M  V30 4174 H 425.561 -0.881365 -6.40969 0
M  V30 4175 N 425.693 1.55336 -0.266172 0
M  V30 4176 C 426.933 2.01303 0.354459 0
M  V30 4177 C 427.297 1.15046 1.53715 0
M  V30 4178 O 428.498 1.50554 2.22681 0
M  V30 4179 C 426.769 3.49748 0.735579 0
M  V30 4180 S 428.328 4.1771 1.34401 0
M  V30 4181 H 425.146 0.702333 0.110674 0
M  V30 4182 H 427.748 1.91653 -0.385916 0
M  V30 4183 H 426.452 4.10181 -0.134196 0
M  V30 4184 H 425.983 3.63364 1.50764 0
M  V30 4185 H 427.998 4.20594 2.63278 0
M  V30 4186 N 427.171 -0.0066808 1.57599 0
M  V30 4187 C 428.448 -0.729586 1.81484 0
M  V30 4188 C 428.828 -1.92359 0.869558 0
M  V30 4189 O 428.176 -2.28348 -0.0832533 0
M  V30 4190 C 428.386 -1.1416 3.29801 0
M  V30 4191 C 429.734 -1.54823 3.95367 0
M  V30 4192 O 430.758 -1.23558 3.34084 0
M  V30 4193 O 429.617 -2.12937 5.03309 0
M  V30 4194 H 426.711 -0.354674 0.747085 0
M  V30 4195 H 429.257 0.0182609 1.6969 0
M  V30 4196 H 428.029 -0.290231 3.90222 0
M  V30 4197 H 427.652 -1.94876 3.46568 0
M  V30 4198 N 428.649 -1.55105 -0.279332 0
M  V30 4199 C 429.559 -1.90638 -1.36727 0
M  V30 4200 C 430.575 -0.802899 -1.54368 0
M  V30 4201 O 431.751 -1.10138 -1.68616 0
M  V30 4202 C 428.816 -2.16547 -2.70755 0
M  V30 4203 C 427.877 -3.40146 -2.61915 0
M  V30 4204 C 427.11 -3.6481 -3.8955 0
M  V30 4205 O 427.333 -2.92095 -4.89935 0
M  V30 4206 O 426.267 -4.58343 -3.90135 0
M  V30 4207 H 430.093 -2.83237 -1.09591 0
M  V30 4208 H 427.678 -1.4157 -0.477306 0
M  V30 4209 H 429.56 -2.34665 -3.50014 0
M  V30 4210 H 428.235 -1.27131 -2.9769 0
M  V30 4211 H 427.142 -3.2737 -1.81052 0
M  V30 4212 H 428.475 -4.29761 -2.3993 0
M  V30 4213 N 430.127 0.543554 -1.4793 0
M  V30 4214 C 431.367 1.31072 -1.56843 0
M  V30 4215 C 431.731 1.90604 -0.231124 0
M  V30 4216 O 432.932 2.68091 -0.195165 0
M  V30 4217 C 431.203 2.38106 -2.66533 0
M  V30 4218 S 432.762 3.24729 -2.95122 0
M  V30 4219 H 429.58 0.446035 -0.553691 0
M  V30 4220 H 432.182 0.620777 -1.85382 0
M  V30 4221 H 430.886 1.92828 -3.62278 0
M  V30 4222 H 430.417 3.11824 -2.39852 0
M  V30 4223 H 432.432 4.37891 -2.3338 0
M  V30 4224 N 431.605 1.3629 0.791371 0
M  V30 4225 C 432.555 1.26988 1.89362 0
M  V30 4226 C 433.539 0.161795 1.60084 0
M  V30 4227 O 434.731 0.394426 1.72549 0
M  V30 4228 C 431.86 1.05944 3.26544 0
M  V30 4229 C 430.946 2.21211 3.61838 0
M  V30 4230 N 431.337 3.46518 3.68455 0
M  V30 4231 C 429.635 2.12933 3.91887 0
M  V30 4232 C 430.336 4.2241 3.99931 0
M  V30 4233 N 429.312 3.51329 4.14812 0
M  V30 4234 H 433.114 2.21908 1.92702 0
M  V30 4235 H 430.628 1.28982 0.986787 0
M  V30 4236 H 432.625 0.973666 4.05371 0
M  V30 4237 H 431.285 0.119223 3.24481 0
M  V30 4238 H 432.296 3.80677 3.51148 0
M  V30 4239 H 428.973 1.26855 3.97761 0
M  V30 4240 H 430.363 5.30767 4.1199 0
M  V30 4241 N 433.083 -1.0153 1.20538 0
M  V30 4242 C 434.046 -2.0826 0.957098 0
M  V30 4243 C 435.046 -1.60657 -0.0678655 0
M  V30 4244 O 436.236 -1.73385 0.168332 0
M  V30 4245 C 433.368 -3.38033 0.441188 0
M  V30 4246 H 434.561 -2.31719 1.90384 0
M  V30 4247 H 432.114 -1.1835 1.02093 0
M  V30 4248 H 432.849 -3.20249 -0.510961 0
M  V30 4249 H 432.634 -3.73911 1.18038 0
M  V30 4250 H 434.124 -4.16613 0.287009 0
M  V30 4251 N 434.561 -1.01147 -1.20859 0
M  V30 4252 C 435.493 -0.535546 -2.22855 0
M  V30 4253 C 436.506 0.379323 -1.58319 0
M  V30 4254 O 437.695 0.178489 -1.77605 0
M  V30 4255 C 434.795 0.240962 -3.38042 0
M  V30 4256 C 433.968 -0.674562 -4.32167 0
M  V30 4257 C 433.027 0.053467 -5.26173 0
M  V30 4258 O 432.053 -0.567339 -5.66366 0
M  V30 4259 N 433.255 1.32997 -5.65059 0
M  V30 4260 H 436.02 -1.41268 -2.64317 0
M  V30 4261 H 433.581 -0.888386 -1.35349 0
M  V30 4262 H 435.573 0.737115 -3.97931 0
M  V30 4263 H 434.143 1.01935 -2.95513 0
M  V30 4264 H 433.363 -1.35111 -3.70322 0
M  V30 4265 H 434.651 -1.2974 -4.91981 0
M  V30 4266 H 434.049 1.85536 -5.34409 0
M  V30 4267 H 432.606 1.77095 -6.2728 0
M  V30 4268 N 436.039 1.36541 -0.78704 0
M  V30 4269 C 437.316 1.9355 -0.282424 0
M  V30 4270 C 437.696 1.71919 1.22503 0
M  V30 4271 O 437.044 1.07677 2.01539 0
M  V30 4272 C 437.254 3.4246 -0.672462 0
M  V30 4273 C 438.602 4.19582 -0.650863 0
M  V30 4274 O 439.626 3.50889 -0.612789 0
M  V30 4275 O 438.485 5.42106 -0.691623 0
M  V30 4276 H 435.579 0.824091 -0.0693 0
M  V30 4277 H 438.125 1.45736 -0.869423 0
M  V30 4278 H 436.897 3.51851 -1.71221 0
M  V30 4279 H 436.52 3.97556 -0.0592211 0
M  V30 4280 N 437.518 0.538854 1.48102 0
M  V30 4281 C 438.481 -0.208395 2.28251 0
M  V30 4282 C 439.481 -0.859656 1.35892 0
M  V30 4283 O 440.671 -0.71834 1.58699 0
M  V30 4284 C 437.803 -1.30252 3.15035 0
M  V30 4285 H 438.996 0.495407 2.9578 0
M  V30 4286 H 436.549 0.295112 1.53489 0
M  V30 4287 H 437.284 -2.0393 2.52157 0
M  V30 4288 H 437.069 -0.840551 3.82985 0
M  V30 4289 H 438.559 -1.82787 3.75471 0
M  V30 4290 N 438.996 -1.55193 0.274407 0
M  V30 4291 C 440.224 -2.03987 -0.345943 0
M  V30 4292 C 440.639 -1.15279 -1.4952 0
M  V30 4293 O 439.996 -0.172759 -1.8168 0
M  V30 4294 C 440.047 -3.51898 -0.827631 0
M  V30 4295 O 439.768 -4.37231 0.275855 0
M  V30 4296 C 441.269 -4.16577 -1.51587 0
M  V30 4297 H 438.489 -0.666335 -0.0789892 0
M  V30 4298 H 441.033 -2.00423 0.406294 0
M  V30 4299 H 439.188 -3.55909 -1.52996 0
M  V30 4300 H 439.602 -5.24415 -0.0943638 0
M  V30 4301 H 441.076 -5.21678 -1.80433 0
M  V30 4302 H 441.553 -3.64707 -2.44716 0
M  V30 4303 H 442.159 -4.16568 -0.857409 0
M  V30 4304 N 440.474 -0.00167713 -1.576 0
M  V30 4305 C 441.699 0.69739 -1.95323 0
M  V30 4306 C 442.124 1.6642 -0.876706 0
M  V30 4307 O 441.482 1.80548 0.165007 0
M  V30 4308 C 441.53 1.40403 -3.32144 0
M  V30 4309 O 440.634 2.5185 -3.26566 0
M  V30 4310 H 439.975 0.185373 -0.637599 0
M  V30 4311 H 442.505 -0.0553665 -2.04525 0
M  V30 4312 H 442.515 1.76707 -3.67748 0
M  V30 4313 H 441.19 0.695167 -4.10049 0
M  V30 4314 H 439.767 2.17861 -3.0264 0
M  V30 4315 N 441.952 1.55251 0.271103 0
M  V30 4316 C 443.201 1.75151 1.00025 0
M  V30 4317 C 443.514 0.561041 1.87381 0
M  V30 4318 O 444.72 0.642506 2.63788 0
M  V30 4319 C 443.176 3.09999 1.82835 0
M  V30 4320 C 442.784 4.3662 1.00336 0
M  V30 4321 C 444.528 3.39249 2.55168 0
M  V30 4322 C 442.435 5.62506 1.82595 0
M  V30 4323 H 441.365 0.652877 0.377183 0
M  V30 4324 H 444.016 1.81708 0.255843 0
M  V30 4325 H 442.398 2.97485 2.61378 0
M  V30 4326 H 443.572 4.60055 0.261959 0
M  V30 4327 H 441.887 4.14527 0.394486 0
M  V30 4328 H 444.484 4.3051 3.1712 0
M  V30 4329 H 444.827 2.59467 3.2555 0
M  V30 4330 H 445.36 3.52869 1.83653 0
M  V30 4331 H 442.099 6.45041 1.16631 0
M  V30 4332 H 441.619 5.43211 2.54327 0
M  V30 4333 H 443.298 6.00875 2.39913 0
M  V30 4334 N 443.43 -0.535701 1.48216 0
M  V30 4335 C 444.36 -1.65014 1.65204 0
M  V30 4336 C 445.341 -1.62554 0.501011 0
M  V30 4337 O 446.526 -1.7984 0.732886 0
M  V30 4338 C 443.656 -3.03616 1.68626 0
M  V30 4339 C 442.61 -3.20932 2.83172 0
M  V30 4340 C 441.936 -4.60537 2.71679 0
M  V30 4341 C 443.236 -3.04249 4.24535 0
M  V30 4342 H 444.93 -1.51053 2.58502 0
M  V30 4343 H 442.476 -0.725262 1.24402 0
M  V30 4344 H 444.429 -3.81446 1.79099 0
M  V30 4345 H 443.153 -3.18587 0.719026 0
M  V30 4346 H 441.812 -2.45517 2.72244 0
M  V30 4347 H 441.46 -4.72336 1.72937 0
M  V30 4348 H 441.16 -4.73069 3.48538 0
M  V30 4349 H 442.684 -5.40475 2.84112 0
M  V30 4350 H 444.098 -3.71877 4.36326 0
M  V30 4351 H 442.495 -3.28278 5.02348 0
M  V30 4352 H 443.565 -2.00739 4.41397 0
M  V30 4353 N 444.908 -1.36708 -0.784132 0
M  V30 4354 C 446.156 -1.30972 -1.53918 0
M  V30 4355 C 446.477 0.109086 -1.94695 0
M  V30 4356 O 445.747 1.05048 -1.65353 0
M  V30 4357 H 444.327 -0.481819 -0.570841 0
M  V30 4358 H 446.989 -1.71063 -0.934002 0
M  V30 4359 H 446.085 -1.94061 -2.44431 0
M  V30 4360 N 446.386 1.0089 -1.21074 0
M  V30 4361 C 447.635 1.74019 -1.01981 0
M  V30 4362 C 447.948 1.90408 0.447665 0
M  V30 4363 O 449.154 2.60707 0.757906 0
M  V30 4364 C 447.61 3.13026 -1.77603 0
M  V30 4365 C 447.218 3.04623 -3.28495 0
M  V30 4366 C 448.962 3.90312 -1.66904 0
M  V30 4367 C 446.869 4.38685 -3.96623 0
M  V30 4368 H 445.799 0.652422 -0.377971 0
M  V30 4369 H 448.45 1.12755 -1.44771 0
M  V30 4370 H 446.832 3.74878 -1.27604 0
M  V30 4371 H 448.006 2.52032 -3.85767 0
M  V30 4372 H 446.321 2.40827 -3.39693 0
M  V30 4373 H 448.918 4.8951 -2.15138 0
M  V30 4374 H 449.261 4.11558 -0.62658 0
M  V30 4375 H 449.794 3.35104 -2.14359 0
M  V30 4376 H 446.533 4.22641 -5.01054 0
M  V30 4377 H 446.053 4.91252 -3.4414 0
M  V30 4378 H 447.732 5.075 -4.01314 0
M  V30 4379 N 447.864 1.01787 1.20321 0
M  V30 4380 C 449.112 0.706538 1.89347 0
M  V30 4381 C 449.433 -0.766289 1.79313 0
M  V30 4382 O 448.703 -1.55126 1.19635 0
M  V30 4383 H 447.283 0.258348 0.700903 0
M  V30 4384 H 449.945 1.28974 1.46122 0
M  V30 4385 H 449.041 0.991066 2.95946 0
M  V30 4386 N 449.342 -1.36122 0.79427 0
M  V30 4387 C 450.57 -2.03362 0.380989 0
M  V30 4388 C 450.985 -1.59881 -1.00416 0
M  V30 4389 O 450.342 -0.790515 -1.6449 0
M  V30 4390 C 450.393 -3.58804 0.440649 0
M  V30 4391 O 450.114 -4.007 1.77118 0
M  V30 4392 C 451.615 -4.43296 0.0186117 0
M  V30 4393 H 448.835 -0.652526 0.156367 0
M  V30 4394 H 451.379 -1.73998 1.07447 0
M  V30 4395 H 449.534 -3.8686 -0.204458 0
M  V30 4396 H 449.948 -4.95309 1.72538 0
M  V30 4397 H 451.422 -5.51887 0.111488 0
M  V30 4398 H 451.899 -4.2684 -1.03461 0
M  V30 4399 H 452.505 -4.20512 0.636395 0
M  V30 4400 N 450.82 -0.546701 -1.47814 0
M  V30 4401 C 452.066 -0.0187684 -2.02791 0
M  V30 4402 C 452.399 1.32338 -1.42128 0
M  V30 4403 O 451.674 1.85867 -0.573023 0
M  V30 4404 C 451.957 0.0854985 -3.59998 0
M  V30 4405 C 451.81 -1.283 -4.31114 0
M  V30 4406 C 453.129 0.80412 -4.32691 0
M  V30 4407 H 450.248 -0.0082946 -0.736953 0
M  V30 4408 H 452.89 -0.706962 -1.76358 0
M  V30 4409 H 451.04 0.671609 -3.82651 0
M  V30 4410 H 452.712 -1.91151 -4.19832 0
M  V30 4411 H 450.955 -1.86049 -3.91878 0
M  V30 4412 H 451.626 -1.16287 -5.39612 0
M  V30 4413 H 454.102 0.306576 -4.14969 0
M  V30 4414 H 452.978 0.846011 -5.42341 0
M  V30 4415 H 453.239 1.85802 -4.01161 0
M  V30 4416 N 452.299 1.55045 -0.282633 0
M  V30 4417 C 453.229 2.2579 0.595066 0
M  V30 4418 C 454.21 1.25074 1.15284 0
M  V30 4419 O 455.395 1.5381 1.18559 0
M  V30 4420 C 452.525 2.98472 1.77572 0
M  V30 4421 C 451.479 4.0618 1.34914 0
M  V30 4422 C 450.805 4.66477 2.6135 0
M  V30 4423 C 452.105 5.1996 0.493821 0
M  V30 4424 H 453.799 2.994 0.00505653 0
M  V30 4425 H 451.345 1.44 0.000992001 0
M  V30 4426 H 453.298 3.46677 2.39568 0
M  V30 4427 H 452.022 2.2241 2.39168 0
M  V30 4428 H 450.681 3.58797 0.752338 0
M  V30 4429 H 450.329 3.87074 3.2122 0
M  V30 4430 H 450.029 5.39207 2.33516 0
M  V30 4431 H 451.553 5.17435 3.24181 0
M  V30 4432 H 452.967 5.64172 1.01898 0
M  V30 4433 H 451.364 5.99299 0.310047 0
M  V30 4434 H 452.434 4.82462 -0.485593 0
M  V30 4435 N 453.777 0.010035 1.57597 0
M  V30 4436 C 455.054 -0.710296 1.82248 0
M  V30 4437 C 455.434 -1.91426 0.889911 0
M  V30 4438 O 454.782 -2.28424 -0.0590292 0
M  V30 4439 C 454.992 -1.10655 3.30993 0
M  V30 4440 C 456.34 -1.50621 3.96987 0
M  V30 4441 O 457.364 -1.20007 3.35375 0
M  V30 4442 O 456.223 -2.07587 5.05539 0
M  V30 4443 H 453.317 -0.34673 0.750804 0
M  V30 4444 H 455.863 0.0362578 1.69661 0
M  V30 4445 H 454.635 -0.248826 3.90508 0
M  V30 4446 H 454.258 -1.91189 3.48615 0
M  V30 4447 N 455.255 -1.55392 -0.262866 0
M  V30 4448 C 456.187 -1.85392 -1.34768 0
M  V30 4449 C 457.2 -0.739069 -1.45057 0
M  V30 4450 O 458.389 -1.01703 -1.46693 0
M  V30 4451 C 455.489 -2.01088 -2.72795 0
M  V30 4452 C 454.662 -3.31828 -2.84972 0
M  V30 4453 C 453.721 -3.37464 -4.03738 0
M  V30 4454 O 452.747 -4.10778 -3.94018 0
M  V30 4455 N 453.949 -2.65599 -5.16176 0
M  V30 4456 H 456.714 -2.79029 -1.09375 0
M  V30 4457 H 454.275 -1.55434 -0.452981 0
M  V30 4458 H 456.267 -2.02217 -3.50557 0
M  V30 4459 H 454.837 -1.1427 -2.90966 0
M  V30 4460 H 454.057 -3.43152 -1.94012 0
M  V30 4461 H 455.345 -4.18032 -2.90045 0
M  V30 4462 H 454.743 -2.05736 -5.26962 0
M  V30 4463 H 453.3 -2.72439 -5.92132 0
M  V30 4464 N 456.733 0.527833 -1.48498 0
M  V30 4465 C 457.696 1.61439 -1.62696 0
M  V30 4466 C 458.696 1.52824 -0.500136 0
M  V30 4467 O 459.886 1.56456 -0.765976 0
M  V30 4468 C 457.018 3.01063 -1.59918 0
M  V30 4469 H 458.211 1.50189 -2.59583 0
M  V30 4470 H 455.764 0.750055 -1.37127 0
M  V30 4471 H 456.499 3.17818 -0.645163 0
M  V30 4472 H 456.284 3.08725 -2.41726 0
M  V30 4473 H 457.774 3.80057 -1.73051 0
M  V30 4474 N 458.211 1.37122 0.776871 0
M  V30 4475 C 459.121 1.34651 1.9211 0
M  V30 4476 C 460.137 0.246824 1.7224 0
M  V30 4477 O 461.313 0.48134 1.95563 0
M  V30 4478 C 458.378 1.14748 3.2716 0
M  V30 4479 C 457.439 2.34308 3.5972 0
M  V30 4480 C 456.672 2.15345 4.88326 0
M  V30 4481 O 456.895 1.13507 5.58992 0
M  V30 4482 O 455.829 3.03414 5.1983 0
M  V30 4483 H 459.655 2.31013 1.97146 0
M  V30 4484 H 457.24 1.17799 0.918901 0
M  V30 4485 H 459.122 1.05616 4.0795 0
M  V30 4486 H 457.797 0.214562 3.22988 0
M  V30 4487 H 456.704 2.49011 2.79185 0
M  V30 4488 H 458.037 3.26149 3.68629 0
M  V30 4489 N 459.689 -1.00246 1.21608 0
M  V30 4490 C 460.917 -1.77631 1.06089 0
M  V30 4491 C 461.332 -1.84746 -0.38916 0
M  V30 4492 O 460.689 -1.31068 -1.26994 0
M  V30 4493 C 460.74 -3.21415 1.65453 0
M  V30 4494 O 460.461 -3.14703 3.04785 0
M  V30 4495 C 461.962 -4.15289 1.55079 0
M  V30 4496 H 459.182 -0.558162 0.37242 0
M  V30 4497 H 461.726 -1.26093 1.60999 0
M  V30 4498 H 459.881 -3.70053 1.14629 0
M  V30 4499 H 460.295 -4.05056 3.33212 0
M  V30 4500 H 461.769 -5.13965 2.01355 0
M  V30 4501 H 462.246 -4.36279 0.505665 0
M  V30 4502 H 462.852 -3.72543 2.05163 0
M  V30 4503 N 461.167 -1.02423 -1.1978 0
M  V30 4504 C 462.13 -0.605703 -2.21052 0
M  V30 4505 C 463.13 0.328209 -1.57415 0
M  V30 4506 O 464.32 0.115853 -1.73814 0
M  V30 4507 C 461.452 0.114366 -3.40708 0
M  V30 4508 H 462.645 -1.5017 -2.59594 0
M  V30 4509 H 460.198 -0.814888 -1.33376 0
M  V30 4510 H 460.933 1.02492 -3.07678 0
M  V30 4511 H 460.718 -0.556641 -3.88129 0
M  V30 4512 H 462.208 0.394272 -4.15735 0
M  V30 4513 N 462.645 1.35699 -0.801477 0
M  V30 4514 C 463.893 1.9852 -0.37871 0
M  V30 4515 C 464.214 1.63907 1.05638 0
M  V30 4516 O 463.484 0.919013 1.73006 0
M  V30 4517 H 462.064 0.734322 -0.137042 0
M  V30 4518 H 464.726 1.65697 -1.02619 0
M  V30 4519 H 463.822 3.08382 -0.480284 0
M  V30 4520 N 464.123 0.554532 1.47522 0
M  V30 4521 C 465.369 0.0295227 2.02779 0
M  V30 4522 C 465.702 -1.31582 1.42828 0
M  V30 4523 O 464.977 -1.85561 0.582872 0
M  V30 4524 C 465.26 -0.0664057 3.60039 0
M  V30 4525 C 465.113 1.30585 4.30427 0
M  V30 4526 C 466.432 -0.781162 4.33112 0
M  V30 4527 H 463.551 0.0122027 0.736899 0
M  V30 4528 H 466.193 0.716305 1.7598 0
M  V30 4529 H 464.343 -0.651307 3.83002 0
M  V30 4530 H 466.015 1.93374 4.18813 0
M  V30 4531 H 464.258 1.88125 3.90886 0
M  V30 4532 H 464.929 1.19147 5.38988 0
M  V30 4533 H 467.405 -0.284565 4.15126 0
M  V30 4534 H 466.281 -0.817237 5.42782 0
M  V30 4535 H 466.542 -1.83672 4.0214 0
M  V30 4536 N 465.601 -1.54893 0.290851 0
M  V30 4537 C 467.017 -1.59476 -0.0628432 0
M  V30 4538 C 467.217 -1.30795 -1.5328 0
M  V30 4539 O 466.273 -1.07644 -2.28406 0
M  V30 4540 C 467.586 -2.98928 0.325962 0
M  V30 4541 C 469.134 -3.11799 0.273882 0
M  V30 4542 C 469.609 -4.53544 0.637359 0
M  V30 4543 N 471.1 -4.59433 0.589507 0
M  V30 4544 C 471.835 -5.67164 0.84335 0
M  V30 4545 N 471.331 -6.82975 1.16263 0
M  V30 4546 N 473.124 -5.56786 0.771091 0
M  V30 4547 H 465.275 -1.71798 1.24896 0
M  V30 4548 H 467.538 -0.801879 0.505663 0
M  V30 4549 H 467.244 -3.24805 1.34887 0
M  V30 4550 H 467.118 -3.75793 -0.325441 0
M  V30 4551 H 469.505 -2.85677 -0.739765 0
M  V30 4552 H 469.586 -2.37112 0.959766 0
M  V30 4553 H 469.23 -4.80394 1.64877 0
M  V30 4554 H 469.16 -5.26553 -0.0704866 0
M  V30 4555 H 471.651 -3.76245 0.353252 0
M  V30 4556 H 471.964 -7.61048 1.34257 0
M  V30 4557 H 470.309 -6.84552 1.20057 0
M  V30 4558 H 473.5 -4.65187 0.521383 0
M  V30 4559 H 473.673 -6.40664 0.972295 0
M  V30 4560 N 467.08 -0.0183926 -1.57589 0
M  V30 4561 C 468.01 0.965596 -2.12599 0
M  V30 4562 C 468.991 1.34641 -1.0395 0
M  V30 4563 O 470.176 1.42693 -1.31729 0
M  V30 4564 C 467.306 2.25149 -2.64434 0
M  V30 4565 C 466.26 2.01175 -3.77773 0
M  V30 4566 C 465.586 3.35937 -4.15994 0
M  V30 4567 C 466.886 1.35953 -5.04296 0
M  V30 4568 H 468.58 0.507504 -2.95067 0
M  V30 4569 H 466.126 0.242671 -1.41941 0
M  V30 4570 H 468.079 2.94357 -3.01549 0
M  V30 4571 H 466.803 2.73105 -1.79112 0
M  V30 4572 H 465.462 1.34388 -3.4108 0
M  V30 4573 H 465.11 3.81631 -3.27669 0
M  V30 4574 H 464.81 3.20705 -4.92364 0
M  V30 4575 H 466.334 4.0643 -4.55683 0
M  V30 4576 H 467.748 1.95144 -5.39065 0
M  V30 4577 H 466.145 1.31152 -5.85593 0
M  V30 4578 H 467.215 0.331071 -4.83768 0
M  V30 4579 N 468.558 1.5553 0.254621 0
M  V30 4580 C 469.786 1.81046 1.00149 0
M  V30 4581 C 470.201 0.593047 1.79244 0
M  V30 4582 O 469.558 -0.438196 1.77161 0
M  V30 4583 C 469.609 3.04684 1.94551 0
M  V30 4584 O 469.33 4.21725 1.18658 0
M  V30 4585 C 470.831 3.42943 2.80901 0
M  V30 4586 H 468.051 0.602653 0.295044 0
M  V30 4587 H 470.595 2.02576 0.279842 0
M  V30 4588 H 468.75 2.85226 2.62154 0
M  V30 4589 H 469.164 4.91746 1.82445 0
M  V30 4590 H 470.638 4.32576 3.42902 0
M  V30 4591 H 471.115 2.63176 3.51617 0
M  V30 4592 H 471.721 3.64724 2.18762 0
M  V30 4593 N 470.036 -0.519951 1.48776 0
M  V30 4594 C 471.282 -1.27711 1.57536 0
M  V30 4595 C 471.615 -1.92547 0.252866 0
M  V30 4596 O 470.89 -1.7979 -0.742021 0
M  V30 4597 C 471.173 -2.35875 2.72094 0
M  V30 4598 C 471.026 -1.75664 4.1408 0
M  V30 4599 C 472.345 -3.37575 2.82367 0
M  V30 4600 H 469.464 -0.462971 0.573434 0
M  V30 4601 H 472.106 -0.578194 1.80989 0
M  V30 4602 H 470.256 -2.95488 2.52228 0
M  V30 4603 H 471.928 -1.20025 4.45412 0
M  V30 4604 H 470.171 -1.06154 4.20611 0
M  V30 4605 H 470.842 -2.54029 4.90075 0
M  V30 4606 H 473.318 -2.87929 3.00393 0
M  V30 4607 H 472.194 -4.1064 3.64233 0
M  V30 4608 H 472.455 -3.98743 1.90936 0
M  V30 4609 N 471.514 -1.37532 -0.769588 0
M  V30 4610 C 472.444 -1.36172 -1.89682 0
M  V30 4611 C 473.425 -0.23001 -1.68538 0
M  V30 4612 O 474.61 -0.43069 -1.89364 0
M  V30 4613 C 471.74 -1.1701 -3.26995 0
M  V30 4614 C 470.694 -2.27216 -3.62708 0
M  V30 4615 C 470.02 -1.93174 -4.98586 0
M  V30 4616 C 471.32 -3.6941 -3.69234 0
M  V30 4617 H 473.014 -2.30499 -1.91078 0
M  V30 4618 H 470.56 -1.10953 -0.917902 0
M  V30 4619 H 472.513 -1.14688 -4.05493 0
M  V30 4620 H 471.237 -0.191395 -3.26039 0
M  V30 4621 H 469.896 -2.28697 -2.86519 0
M  V30 4622 H 469.544 -0.938281 -4.94171 0
M  V30 4623 H 469.244 -2.66973 -5.23449 0
M  V30 4624 H 470.768 -1.92443 -5.79481 0
M  V30 4625 H 472.182 -3.70047 -4.37879 0
M  V30 4626 H 470.579 -4.4228 -4.05597 0
M  V30 4627 H 471.649 -4.0288 -2.69844 0
M  V30 4628 N 472.992 0.995999 -1.22138 0
M  V30 4629 C 473.955 2.06711 -0.990109 0
M  V30 4630 C 474.955 1.60744 0.0422978 0
M  V30 4631 O 476.145 1.73095 -0.195895 0
M  V30 4632 C 473.277 3.37288 -0.49491 0
M  V30 4633 H 474.47 2.28661 -1.94047 0
M  V30 4634 H 472.023 1.16711 -1.03963 0
M  V30 4635 H 472.758 3.21022 0.459948 0
M  V30 4636 H 472.543 3.71986 -1.23971 0
M  V30 4637 H 474.033 4.16103 -0.353253 0
M  V30 4638 N 474.47 1.03057 1.19235 0
M  V30 4639 C 475.698 0.747697 1.92917 0
M  V30 4640 C 476.113 -0.69372 1.75593 0
M  V30 4641 O 475.47 -1.47191 1.07894 0
M  V30 4642 C 475.521 1.09159 3.44625 0
M  V30 4643 O 475.242 2.47641 3.61394 0
M  V30 4644 C 476.743 0.831763 4.35427 0
M  V30 4645 H 473.963 0.273453 0.612751 0
M  V30 4646 H 476.507 1.37552 1.51327 0
M  V30 4647 H 474.662 0.508919 3.84043 0
M  V30 4648 H 475.076 2.60499 4.55237 0
M  V30 4649 H 476.55 1.12233 5.4047 0
M  V30 4650 H 477.027 -0.233769 4.38577 0
M  V30 4651 H 477.633 1.39725 4.01693 0
M  V30 4652 N 475.948 -1.35272 0.808662 0
M  V30 4653 C 476.911 -2.28082 0.226093 0
M  V30 4654 C 477.911 -1.49673 -0.587762 0
M  V30 4655 O 479.101 -1.69404 -0.405943 0
M  V30 4656 C 476.233 -3.33955 -0.684596 0
M  V30 4657 H 477.426 -2.81116 1.04469 0
M  V30 4658 H 474.979 -1.45162 0.579466 0
M  V30 4659 H 475.714 -2.86111 -1.5268 0
M  V30 4660 H 475.499 -3.91965 -0.102699 0
M  V30 4661 H 476.989 -4.03219 -1.08646 0
M  V30 4662 N 477.426 -0.562348 -1.47226 0
M  V30 4663 C 478.654 -0.0452275 -2.06851 0
M  V30 4664 C 479.069 1.25078 -1.41424 0
M  V30 4665 O 478.426 1.75156 -0.512513 0
M  V30 4666 C 478.477 0.148674 -3.61194 0
M  V30 4667 O 478.198 -1.09602 -4.24169 0
M  V30 4668 C 479.699 0.702488 -4.37699 0
M  V30 4669 H 476.919 -0.0481775 -0.669268 0
M  V30 4670 H 479.463 -0.777223 -1.89155 0
M  V30 4671 H 477.618 0.830817 -3.78386 0
M  V30 4672 H 478.032 -0.896982 -5.16773 0
M  V30 4673 H 479.506 0.78743 -5.46355 0
M  V30 4674 H 479.983 1.71493 -4.04335 0
M  V30 4675 H 480.589 0.0558772 -4.25263 0
M  V30 4676 N 478.904 1.54736 -0.299062 0
M  V30 4677 C 480.315 1.8569 0.193971 0
M  V30 4678 C 480.666 1.22101 1.53577 0
M  V30 4679 O 479.791 0.51799 2.10109 0
M  V30 4680 C 480.386 3.36895 0.358733 0
M  V30 4681 C 478.945 3.67887 0.795986 0
M  V30 4682 C 478.092 2.77131 -0.096807 0
M  V30 4683 H 481.043 1.49934 -0.520134 0
M  V30 4684 H 481.064 3.61294 1.19361 0
M  V30 4685 H 480.576 3.83148 -0.617998 0
M  V30 4686 H 478.677 3.27151 1.78334 0
M  V30 4687 H 478.79 4.75114 0.616718 0
M  V30 4688 H 477.154 2.51153 0.423581 0
M  V30 4689 H 477.937 3.26204 -1.06986 0
M  V30 4690 N 480.382 0.0267497 1.57577 0
M  V30 4691 C 481.793 -0.512413 1.79531 0
M  V30 4692 C 482.144 -1.72391 0.936791 0
M  V30 4693 O 481.269 -2.15903 0.146543 0
M  V30 4694 C 481.864 -0.936378 3.25603 0
M  V30 4695 C 480.423 -1.42067 3.4856 0
M  V30 4696 C 479.57 -0.384278 2.74624 0
M  V30 4697 H 482.521 0.252797 1.56674 0
M  V30 4698 H 482.542 -1.80088 3.35184 0
M  V30 4699 H 482.054 -0.0544332 3.88062 0
M  V30 4700 H 480.155 -2.32262 2.9135 0
M  V30 4701 H 480.268 -1.42968 4.57271 0
M  V30 4702 H 478.632 -0.851855 2.40032 0
M  V30 4703 H 479.415 0.489159 3.39797 0
M  V30 4704 N 481.861 -1.55662 -0.24637 0
M  V30 4705 C 483.109 -1.77168 -0.972411 0
M  V30 4706 C 483.43 -0.590827 -1.85834 0
M  V30 4707 O 482.7 0.393365 -1.9191 0
M  V30 4708 H 481.28 -0.653405 -0.362038 0
M  V30 4709 H 483.942 -1.93101 -0.264189 0
M  V30 4710 H 483.038 -2.68335 -1.59382 0
M  V30 4711 N 483.339 0.512053 -1.4905 0
M  V30 4712 C 484.564 1.2959 -1.6193 0
M  V30 4713 C 484.989 1.85906 -0.286454 0
M  V30 4714 O 484.347 1.65312 0.744426 0
M  V30 4715 C 484.395 2.40987 -2.68249 0
M  V30 4716 O 483.499 3.44531 -2.26654 0
M  V30 4717 H 482.84 0.383053 -0.542371 0
M  V30 4718 H 485.37 0.614231 -1.95162 0
M  V30 4719 H 485.38 2.86913 -2.90078 0
M  V30 4720 H 484.055 1.99361 -3.65004 0
M  V30 4721 H 482.632 3.046 -2.15112 0
M  V30 4722 N 484.817 1.37938 0.762283 0
M  V30 4723 C 486.066 1.32989 1.51647 0
M  V30 4724 C 486.379 -0.0802922 1.95435 0
M  V30 4725 O 487.585 -0.252295 2.70325 0
M  V30 4726 C 486.041 2.33485 2.73885 0
M  V30 4727 C 485.649 3.80079 2.37157 0
M  V30 4728 C 487.393 2.37563 3.51801 0
M  V30 4729 C 485.3 4.72283 3.55954 0
M  V30 4730 H 484.23 0.494301 0.56937 0
M  V30 4731 H 486.881 1.63448 0.834083 0
M  V30 4732 H 485.263 1.96056 3.44061 0
M  V30 4733 H 486.437 4.26398 1.74704 0
M  V30 4734 H 484.752 3.79037 1.72395 0
M  V30 4735 H 487.349 3.0365 4.40114 0
M  V30 4736 H 487.692 1.39199 3.92338 0
M  V30 4737 H 488.225 2.73747 2.8863 0
M  V30 4738 H 484.964 5.7181 3.2049 0
M  V30 4739 H 484.484 4.30663 4.1748 0
M  V30 4740 H 486.163 4.89876 4.22647 0
M  V30 4741 N 486.295 -0.989507 1.22664 0
M  V30 4742 C 487.523 -1.76496 1.07967 0
M  V30 4743 C 487.938 -1.85148 -0.369543 0
M  V30 4744 O 487.295 -1.32408 -1.25596 0
M  V30 4745 C 487.346 -3.19642 1.68853 0
M  V30 4746 O 487.067 -3.11453 3.08105 0
M  V30 4747 C 488.568 -4.13621 1.59475 0
M  V30 4748 H 485.788 -0.55418 0.378319 0
M  V30 4749 H 488.332 -1.24378 1.62328 0
M  V30 4750 H 486.487 -3.68816 1.18547 0
M  V30 4751 H 486.901 -4.01499 3.37489 0
M  V30 4752 H 488.375 -5.11801 2.06795 0
M  V30 4753 H 488.852 -4.35718 0.55191 0
M  V30 4754 H 489.458 -3.70346 2.09103 0
M  V30 4755 N 487.773 -1.03688 -1.18687 0
M  V30 4756 C 489.019 -0.739123 -1.88851 0
M  V30 4757 C 489.352 0.731042 -1.79915 0
M  V30 4758 O 488.627 1.53313 -1.19688 0
M  V30 4759 C 488.91 -1.20106 -3.3948 0
M  V30 4760 C 488.763 -2.73304 -3.57246 0
M  V30 4761 C 490.082 -0.788134 -4.32986 0
M  V30 4762 H 487.201 -0.269978 -0.68577 0
M  V30 4763 H 489.843 -1.28822 -1.3966 0
M  V30 4764 H 487.993 -0.733915 -3.81505 0
M  V30 4765 H 489.665 -3.28027 -3.24339 0
M  V30 4766 H 487.908 -3.13313 -3.00029 0
M  V30 4767 H 488.579 -3.00684 -4.62918 0
M  V30 4768 H 491.055 -1.19005 -3.98719 0
M  V30 4769 H 489.931 -1.13915 -5.36949 0
M  V30 4770 H 490.192 0.308988 -4.41019 0
M  V30 4771 N 489.251 1.34841 -0.815825 0
M  V30 4772 C 490.662 1.80937 -0.46029 0
M  V30 4773 C 491.013 1.67685 1.01863 0
M  V30 4774 O 490.138 1.21277 1.79223 0
M  V30 4775 C 490.733 3.28509 -0.828708 0
M  V30 4776 C 489.292 3.72712 -0.525644 0
M  V30 4777 C 488.439 2.56676 -1.04941 0
M  V30 4778 H 491.39 1.22688 -1.00664 0
M  V30 4779 H 491.411 3.80279 -0.129757 0
M  V30 4780 H 490.923 3.38122 -1.90513 0
M  V30 4781 H 489.024 3.68642 0.541666 0
M  V30 4782 H 489.137 4.67119 -1.06474 0
M  V30 4783 H 487.501 2.50302 -0.471286 0
M  V30 4784 H 488.284 2.69063 -2.13214 0
M  V30 4785 N 490.729 0.570148 1.46925 0
M  V30 4786 C 491.679 -0.190921 2.27199 0
M  V30 4787 C 492.663 -0.873457 1.35128 0
M  V30 4788 O 493.855 -0.769627 1.59392 0
M  V30 4789 C 490.984 -1.21204 3.21192 0
M  V30 4790 C 490.07 -0.532261 4.20747 0
M  V30 4791 N 490.461 0.405038 5.04176 0
M  V30 4792 C 488.759 -0.784582 4.39045 0
M  V30 4793 C 489.46 0.801149 5.76157 0
M  V30 4794 N 488.436 0.153082 5.43384 0
M  V30 4795 H 492.238 0.529535 2.8909 0
M  V30 4796 H 489.752 0.391019 1.57622 0
M  V30 4797 H 491.749 -1.77135 3.77398 0
M  V30 4798 H 490.409 -1.93345 2.6086 0
M  V30 4799 H 491.42 0.779903 5.11994 0
M  V30 4800 H 488.097 -1.49352 3.89872 0
M  V30 4801 H 489.487 1.57208 6.5325 0
M  V30 4802 N 492.207 -1.54576 0.307264 0
M  V30 4803 C 493.432 -2.05139 -0.305379 0
M  V30 4804 C 493.857 -1.18278 -1.46259 0
M  V30 4805 O 493.215 -0.188243 -1.8032 0
M  V30 4806 C 493.263 -3.53066 -0.733283 0
M  V30 4807 O 492.367 -3.69206 -1.83741 0
M  V30 4808 H 491.708 -0.661444 -0.0582105 0
M  V30 4809 H 494.238 -1.99569 0.450931 0
M  V30 4810 H 494.248 -3.95034 -1.02039 0
M  V30 4811 H 492.923 -4.15746 0.113198 0
M  V30 4812 H 491.5 -3.39143 -1.55037 0
M  V30 4813 N 493.685 -0.035106 -1.57561 0
M  V30 4814 C 494.633 0.962707 -2.11742 0
M  V30 4815 C 495.627 1.33296 -1.0454 0
M  V30 4816 O 496.833 1.31449 -1.22968 0
M  V30 4817 H 493.208 0.32826 -0.676572 0
M  V30 4818 H 495.179 0.48048 -2.94506 0
M  V30 4819 C 493.928 2.23388 -2.66445 0
M  V30 4820 H 493.251 1.95774 -3.48587 0
M  V30 4821 H 494.691 2.91402 -3.07995 0
M  V30 4822 C 493.15 2.96769 -1.59467 0
M  V30 4823 O 493.68 3.89105 -0.998 0
M  V30 4824 N 491.886 2.59212 -1.31369 0
M  V30 4825 H 491.433 1.84202 -1.80076 0
M  V30 4826 H 491.391 3.08618 -0.600173 0
M  V30 4827 N 495.163 1.55791 0.238111 0
M  V30 4828 C 496.412 1.77234 0.962868 0
M  V30 4829 C 496.725 0.600661 1.86149 0
M  V30 4830 O 497.931 0.698315 2.62366 0
M  V30 4831 C 496.387 3.13808 1.76218 0
M  V30 4832 C 495.995 4.3865 0.910518 0
M  V30 4833 C 497.739 3.44585 2.47914 0
M  V30 4834 C 495.646 5.66252 1.70623 0
M  V30 4835 H 494.576 0.660731 0.36325 0
M  V30 4836 H 497.227 1.8221 0.217242 0
M  V30 4837 H 495.609 3.02963 2.55009 0
M  V30 4838 H 496.783 4.60507 0.164316 0
M  V30 4839 H 495.098 4.15271 0.30647 0
M  V30 4840 H 497.695 4.3714 3.07917 0
M  V30 4841 H 498.038 2.66314 3.19973 0
M  V30 4842 H 498.571 3.56685 1.76127 0
M  V30 4843 H 495.31 6.47369 1.02923 0
M  V30 4844 H 494.83 5.48483 2.42748 0
M  V30 4845 H 496.509 6.05829 2.27114 0
M  V30 4846 N 496.642 -0.504142 1.49319 0
M  V30 4847 C 497.552 -1.63248 1.68486 0
M  V30 4848 C 498.568 -1.64488 0.567432 0
M  V30 4849 O 499.744 -1.82966 0.841749 0
M  V30 4850 C 496.809 -2.99627 1.74426 0
M  V30 4851 C 495.87 -3.09039 2.97982 0
M  V30 4852 C 495.103 -4.38913 3.0363 0
M  V30 4853 O 495.326 -5.27528 2.16958 0
M  V30 4854 O 494.26 -4.53231 3.96062 0
M  V30 4855 H 498.086 -1.50008 2.64067 0
M  V30 4856 H 495.671 -0.680086 1.33023 0
M  V30 4857 H 497.553 -3.80689 1.80705 0
M  V30 4858 H 496.228 -3.13136 0.820233 0
M  V30 4859 H 495.135 -2.27177 2.97223 0
M  V30 4860 H 496.468 -3.00456 3.89855 0
M  V30 4861 N 498.12 -1.38341 -0.754957 0
M  V30 4862 C 499.03 -1.3769 -1.89944 0
M  V30 4863 C 500.046 -0.274194 -1.71826 0
M  V30 4864 O 501.222 -0.512391 -1.94773 0
M  V30 4865 C 498.287 -1.19938 -3.25293 0
M  V30 4866 C 497.348 -2.40001 -3.55946 0
M  V30 4867 C 496.581 -2.23087 -4.84838 0
M  V30 4868 O 496.804 -1.22386 -5.57116 0
M  V30 4869 O 495.738 -3.11646 -5.14937 0
M  V30 4870 H 499.564 -2.3412 -1.93446 0
M  V30 4871 H 497.149 -1.19246 -0.900044 0
M  V30 4872 H 499.031 -1.12093 -4.06218 0
M  V30 4873 H 497.706 -0.265919 -3.22606 0
M  V30 4874 H 496.613 -2.53421 -2.75188 0
M  V30 4875 H 497.946 -3.31973 -3.63394 0
M  V30 4876 N 499.598 0.982988 -1.23187 0
M  V30 4877 C 500.844 1.72648 -1.06398 0
M  V30 4878 C 501.177 1.90066 0.398561 0
M  V30 4879 O 500.452 1.45105 1.29518 0
M  V30 4880 C 500.735 3.12627 -1.78707 0
M  V30 4881 C 500.588 3.02795 -3.32618 0
M  V30 4882 C 501.907 4.11997 -1.54747 0
M  V30 4883 H 499.026 0.626649 -0.387918 0
M  V30 4884 H 501.668 1.14455 -1.51658 0
M  V30 4885 H 499.818 3.62308 -1.40234 0
M  V30 4886 H 501.49 2.60659 -3.80598 0
M  V30 4887 H 499.733 2.39362 -3.61785 0
M  V30 4888 H 500.404 4.01893 -3.78399 0
M  V30 4889 H 502.88 3.71114 -1.88186 0
M  V30 4890 H 501.756 5.08037 -2.07821 0
M  V30 4891 H 502.017 4.39462 -0.482249 0
M  V30 4892 N 501.076 1.04316 1.18135 0
M  V30 4893 C 502.039 0.640794 2.2006 0
M  V30 4894 C 503.039 -0.303124 1.57917 0
M  V30 4895 O 504.229 -0.0881855 1.73977 0
M  V30 4896 C 501.361 -0.060148 3.40847 0
M  V30 4897 H 502.554 1.54281 2.57172 0
M  V30 4898 H 500.107 0.836004 1.32063 0
M  V30 4899 H 500.842 -0.975845 3.0927 0
M  V30 4900 H 500.627 0.618319 3.87194 0
M  V30 4901 H 502.117 -0.328082 4.16309 0
M  V30 4902 N 502.554 -1.34406 0.822964 0
M  V30 4903 C 503.484 -2.32052 0.259608 0
M  V30 4904 C 504.465 -1.58243 -0.623961 0
M  V30 4905 O 505.65 -1.86224 -0.55083 0
M  V30 4906 C 502.78 -3.42434 -0.579314 0
M  V30 4907 C 501.734 -4.27499 0.20712 0
M  V30 4908 C 501.06 -5.29349 -0.754547 0
M  V30 4909 C 502.36 -5.02758 1.41533 0
M  V30 4910 H 504.054 -2.79418 1.07545 0
M  V30 4911 H 501.6 -1.34338 0.518593 0
M  V30 4912 H 503.553 -4.0976 -0.983612 0
M  V30 4913 H 502.277 -2.93717 -1.4282 0
M  V30 4914 H 500.936 -3.61776 0.592787 0
M  V30 4915 H 500.584 -4.76895 -1.59939 0
M  V30 4916 H 500.284 -5.8714 -0.232561 0
M  V30 4917 H 501.808 -5.99544 -1.1567 0
M  V30 4918 H 503.222 -5.62938 1.08504 0
M  V30 4919 H 501.619 -5.70123 1.87296 0
M  V30 4920 H 502.689 -4.32451 2.1935 0
M  V30 4921 N 504.032 -0.577932 -1.46621 0
M  V30 4922 C 505.28 -0.061566 -2.02006 0
M  V30 4923 C 505.601 1.30117 -1.4524 0
M  V30 4924 O 504.871 1.85313 -0.63529 0
M  V30 4925 H 503.451 -0.0197692 -0.746738 0
M  V30 4926 H 506.113 -0.752631 -1.79782 0
M  V30 4927 H 505.209 0.0110238 -3.12098 0
M  V30 4928 N 505.51 1.54411 -0.315457 0
M  V30 4929 C 506.735 2.05299 0.294496 0
M  V30 4930 C 507.16 1.19052 1.4563 0
M  V30 4931 O 506.518 0.197804 1.80218 0
M  V30 4932 C 506.566 3.5345 0.714549 0
M  V30 4933 O 505.67 3.70175 1.81781 0
M  V30 4934 H 505.011 0.661743 0.0547019 0
M  V30 4935 H 507.541 1.99327 -0.461508 0
M  V30 4936 H 507.551 3.9557 0.999426 0
M  V30 4937 H 506.226 4.1568 -0.135244 0
M  V30 4938 H 504.803 3.3996 1.53236 0
M  V30 4939 N 506.988 0.0434614 1.5754 0
M  V30 4940 C 507.898 -0.94893 2.14552 0
M  V30 4941 C 508.914 -1.34707 1.10136 0
M  V30 4942 O 510.09 -1.42557 1.42266 0
M  V30 4943 C 507.155 -2.208 2.67298 0
M  V30 4944 C 506.216 -1.86893 3.86484 0
M  V30 4945 C 505.449 -3.06797 4.36705 0
M  V30 4946 O 505.672 -4.19921 3.86034 0
M  V30 4947 O 504.606 -2.8826 5.28384 0
M  V30 4948 H 508.432 -0.494099 2.99654 0
M  V30 4949 H 506.017 -0.177989 1.48336 0
M  V30 4950 H 507.899 -2.94686 3.01228 0
M  V30 4951 H 506.574 -2.65436 1.85272 0
M  V30 4952 H 505.481 -1.10347 3.57455 0
M  V30 4953 H 506.814 -1.47062 4.69716 0
M  V30 4954 N 508.466 -1.55915 -0.229846 0
M  V30 4955 C 509.714 -1.7819 -0.953565 0
M  V30 4956 C 510.035 -0.610504 -1.85197 0
M  V30 4957 O 509.305 0.372988 -1.92316 0
M  V30 4958 H 507.885 -0.657208 -0.355087 0
M  V30 4959 H 510.547 -1.9337 -0.243693 0
M  V30 4960 H 509.643 -2.70011 -1.56527 0
M  V30 4961 N 509.944 0.496216 -1.49584 0
M  V30 4962 C 510.854 1.62352 -1.69349 0
M  V30 4963 C 511.87 1.64184 -0.576147 0
M  V30 4964 O 513.046 1.82517 -0.85144 0
M  V30 4965 C 510.111 2.98698 -1.76013 0
M  V30 4966 C 509.172 3.07454 -2.99617 0
M  V30 4967 C 508.405 4.37296 -3.05953 0
M  V30 4968 O 508.628 5.2637 -2.19752 0
M  V30 4969 O 507.562 4.51124 -3.9846 0
M  V30 4970 H 511.388 1.48606 -2.64859 0
M  V30 4971 H 508.973 0.673022 -1.33382 0
M  V30 4972 H 510.855 3.79725 -1.82721 0
M  V30 4973 H 509.53 3.12696 -0.836828 0
M  V30 4974 H 508.437 2.25597 -2.98424 0
M  V30 4975 H 509.77 2.98385 -3.91443 0
M  V30 4976 N 511.423 1.38739 0.74761 0
M  V30 4977 C 512.672 1.3459 1.50228 0
M  V30 4978 C 512.985 -0.0595592 1.95509 0
M  V30 4979 O 514.191 -0.22361 2.70578 0
M  V30 4980 C 512.647 2.36377 2.71393 0
M  V30 4981 C 512.255 3.82573 2.33113 0
M  V30 4982 C 513.999 2.41281 3.49262 0
M  V30 4983 C 511.906 4.76032 3.50924 0
M  V30 4984 H 510.836 0.500312 0.564096 0
M  V30 4985 H 513.487 1.64324 0.8167 0
M  V30 4986 H 511.869 1.99694 3.41962 0
M  V30 4987 H 513.043 4.28227 1.70171 0
M  V30 4988 H 511.358 3.80844 1.68365 0
M  V30 4989 H 513.955 3.08301 4.36869 0
M  V30 4990 H 514.298 1.43353 3.9084 0
M  V30 4991 H 514.831 2.76793 2.85711 0
M  V30 4992 H 511.57 5.75177 3.14408 0
M  V30 4993 H 511.09 4.35066 4.12889 0
M  V30 4994 H 512.769 4.94331 4.17427 0
M  V30 4995 N 512.901 -0.976442 1.23707 0
M  V30 4996 C 514.312 -1.53284 1.06587 0
M  V30 4997 C 514.663 -1.92765 -0.365526 0
M  V30 4998 O 513.788 -1.7645 -1.25277 0
M  V30 4999 C 514.383 -2.78548 1.92864 0
M  V30 5000 C 512.942 -3.30574 1.79994 0
M  V30 5001 C 512.089 -2.03538 1.88328 0
M  V30 5002 H 515.04 -0.795692 1.37311 0
M  V30 5003 H 515.061 -3.5155 1.45577 0
M  V30 5004 H 514.573 -2.49782 2.97037 0
M  V30 5005 H 512.674 -3.64211 0.786202 0
M  V30 5006 H 512.787 -4.00065 2.636 0
M  V30 5007 H 511.151 -2.17853 1.31954 0
M  V30 5008 H 511.934 -1.77149 2.94063 0
M  V30 5009 N 514.379 -1.04941 -1.1758 0
M  V30 5010 C 515.626 -0.757989 -1.87779 0
M  V30 5011 C 515.954 0.714827 -1.80888 0
M  V30 5012 O 515.209 1.53824 -1.20982 0
M  V30 5013 C 515.508 -1.18062 -3.37337 0
M  V30 5014 C 515.174 -2.65521 -3.6443 0
M  V30 5015 C 513.836 -3.05804 -3.71534 0
M  V30 5016 C 516.188 -3.60822 -3.76108 0
M  V30 5017 C 513.516 -4.40256 -3.87803 0
M  V30 5018 C 515.868 -4.95005 -3.93895 0
M  V30 5019 C 514.532 -5.34945 -3.99237 0
M  V30 5020 H 513.802 -0.277368 -0.68713 0
M  V30 5021 H 516.449 -1.31603 -1.39115 0
M  V30 5022 H 514.754 -0.541525 -3.8804 0
M  V30 5023 H 516.451 -0.932368 -3.9001 0
M  V30 5024 H 513.041 -2.33324 -3.59524 0
M  V30 5025 H 517.225 -3.30841 -3.69943 0
M  V30 5026 H 512.481 -4.70707 -3.90186 0
M  V30 5027 H 516.655 -5.68746 -4.01872 0
M  V30 5028 H 514.282 -6.39135 -4.11596 0
M  V30 5029 N 515.857 1.33968 -0.830081 0
M  V30 5030 C 517.087 2.01987 -0.434142 0
M  V30 5031 C 517.495 1.62639 0.96671 0
M  V30 5032 O 516.838 0.831151 1.63822 0
M  V30 5033 C 516.9 3.5648 -0.465018 0
M  V30 5034 C 516.564 4.19176 -1.82045 0
M  V30 5035 C 517.561 4.39181 -2.78237 0
M  V30 5036 C 515.246 4.55792 -2.11089 0
M  V30 5037 C 517.24 4.94937 -4.01642 0
M  V30 5038 C 514.927 5.11258 -3.34752 0
M  V30 5039 C 515.925 5.30775 -4.29845 0
M  V30 5040 O 515.613 5.85064 -5.51322 0
M  V30 5041 H 515.345 0.653847 -0.171639 0
M  V30 5042 H 517.899 1.72066 -1.12171 0
M  V30 5043 H 516.129 3.8569 0.279284 0
M  V30 5044 H 517.818 4.05804 -0.0881334 0
M  V30 5045 H 518.584 4.11249 -2.57097 0
M  V30 5046 H 514.463 4.39901 -1.3787 0
M  V30 5047 H 518.007 5.10086 -4.75876 0
M  V30 5048 H 513.904 5.38619 -3.55753 0
M  V30 5049 H 514.672 6.03489 -5.5294 0
M  V30 5050 N 517.335 0.585699 1.46312 0
M  V30 5051 C 518.583 0.072278 2.01971 0
M  V30 5052 C 518.904 -1.29345 1.45928 0
M  V30 5053 O 518.174 -1.84973 0.645109 0
M  V30 5054 H 516.754 0.023729 0.746623 0
M  V30 5055 H 519.416 0.762155 1.7938 0
M  V30 5056 H 518.512 0.00552767 3.121 0
M  V30 5057 N 518.813 -1.54241 0.323641 0
M  V30 5058 C 519.76 -2.24339 -0.542277 0
M  V30 5059 C 520.73 -1.23421 -1.11159 0
M  V30 5060 O 521.915 -1.52104 -1.15192 0
M  V30 5061 C 519.055 -3.00479 -1.69725 0
M  V30 5062 C 518.168 -4.16214 -1.15716 0
M  V30 5063 C 517.303 -4.79884 -2.27783 0
M  V30 5064 C 516.342 -5.87722 -1.71023 0
M  V30 5065 N 515.479 -6.45254 -2.76752 0
M  V30 5066 H 520.319 -2.97935 0.0620613 0
M  V30 5067 H 517.856 -1.47039 0.0423993 0
M  V30 5068 H 519.814 -3.42869 -2.3769 0
M  V30 5069 H 518.444 -2.29217 -2.27288 0
M  V30 5070 H 517.496 -3.78605 -0.369063 0
M  V30 5071 H 518.808 -4.93838 -0.701832 0
M  V30 5072 H 517.962 -5.25243 -3.03651 0
M  V30 5073 H 516.701 -4.01641 -2.76652 0
M  V30 5074 H 515.706 -5.41765 -0.936518 0
M  V30 5075 H 516.931 -6.67863 -1.2303 0
M  V30 5076 H 514.877 -5.69884 -3.24912 0
M  V30 5077 H 514.794 -7.18292 -2.35782 0
M  V30 5078 H 516.062 -6.95269 -3.5245 0
M  V30 5079 N 520.291 -0.0518155 -1.57515 0
M  V30 5080 C 521.254 0.907547 -2.10467 0
M  V30 5081 C 522.254 1.23947 -1.02439 0
M  V30 5082 O 523.444 1.17604 -1.2851 0
M  V30 5083 C 520.576 2.21723 -2.58944 0
M  V30 5084 H 521.769 0.44851 -2.96527 0
M  V30 5085 H 519.322 0.196598 -1.55059 0
M  V30 5086 H 520.057 2.72206 -1.76279 0
M  V30 5087 H 519.842 1.98935 -3.37886 0
M  V30 5088 H 521.332 2.90441 -3.00056 0
M  V30 5089 N 521.769 1.56035 0.221574 0
M  V30 5090 C 523.018 1.78245 0.944016 0
M  V30 5091 C 523.331 0.620371 1.85501 0
M  V30 5092 O 524.537 0.726103 2.6161 0
M  V30 5093 C 522.993 3.15659 1.7288 0
M  V30 5094 C 522.601 4.39591 0.863942 0
M  V30 5095 C 524.345 3.47195 2.44246 0
M  V30 5096 C 522.252 5.6803 1.64607 0
M  V30 5097 H 521.182 0.664547 0.356222 0
M  V30 5098 H 523.833 1.8243 0.197904 0
M  V30 5099 H 522.215 3.0565 2.51781 0
M  V30 5100 H 523.389 4.60655 0.115464 0
M  V30 5101 H 521.704 4.15572 0.262407 0
M  V30 5102 H 524.301 4.40381 3.03263 0
M  V30 5103 H 524.644 2.69693 3.1713 0
M  V30 5104 H 525.177 3.58533 1.72334 0
M  V30 5105 H 521.916 6.48425 0.960507 0
M  V30 5106 H 521.436 5.51027 2.36917 0
M  V30 5107 H 523.115 6.08203 2.20675 0
M  V30 5108 N 523.247 -0.488276 1.49845 0
M  V30 5109 C 524.658 -1.06955 1.53028 0
M  V30 5110 C 525.009 -1.9351 0.323797 0
M  V30 5111 O 524.134 -2.08891 -0.565116 0
M  V30 5112 C 524.729 -1.94643 2.77307 0
M  V30 5113 C 523.288 -2.4791 2.83227 0
M  V30 5114 C 522.435 -1.25833 2.47106 0
M  V30 5115 H 525.386 -0.271626 1.56358 0
M  V30 5116 H 525.407 -2.79496 2.5819 0
M  V30 5117 H 524.919 -1.31621 3.65099 0
M  V30 5118 H 523.02 -3.14535 1.99745 0
M  V30 5119 H 523.133 -2.84193 3.85709 0
M  V30 5120 H 521.497 -1.58764 1.99163 0
M  V30 5121 H 522.28 -0.644993 3.37186 0
M  V30 5122 N 524.725 -1.39134 -0.740242 0
M  V30 5123 C 525.974 -1.35384 -1.49512 0
M  V30 5124 C 526.287 0.04919 -1.95538 0
M  V30 5125 O 527.493 0.209257 -2.70692 0
M  V30 5126 C 525.949 -2.37812 -2.70136 0
M  V30 5127 C 525.557 -3.83804 -2.31081 0
M  V30 5128 C 527.301 -2.4313 -3.47977 0
M  V30 5129 C 525.208 -4.77886 -3.48395 0
M  V30 5130 H 524.138 -0.503297 -0.561434 0
M  V30 5131 H 526.789 -1.64754 -0.807974 0
M  V30 5132 H 525.171 -2.01505 -3.40899 0
M  V30 5133 H 526.345 -4.29123 -1.67898 0
M  V30 5134 H 524.66 -3.81732 -1.66343 0
M  V30 5135 H 527.257 -3.10614 -4.35228 0
M  V30 5136 H 527.6 -1.45423 -3.90074 0
M  V30 5137 H 528.133 -2.78304 -2.84239 0
M  V30 5138 H 524.872 -5.76836 -3.11353 0
M  V30 5139 H 524.392 -4.3725 -4.10576 0
M  V30 5140 H 526.071 -4.96538 -4.148 0
M  V30 5141 N 526.204 0.969867 -1.24223 0
M  V30 5142 C 527.167 2.04564 -1.03373 0
M  V30 5143 C 528.167 1.60798 0.00819206 0
M  V30 5144 O 529.357 1.72641 -0.232567 0
M  V30 5145 C 526.489 3.36163 -0.566343 0
M  V30 5146 H 527.682 2.24494 -1.98853 0
M  V30 5147 H 525.235 1.1448 -1.06415 0
M  V30 5148 H 525.97 3.21925 0.391751 0
M  V30 5149 H 525.755 3.69273 -1.31834 0
M  V30 5150 H 527.245 4.1526 -0.441435 0
M  V30 5151 N 527.682 1.05563 1.17022 0
M  V30 5152 C 528.612 0.681026 2.23348 0
M  V30 5153 C 529.593 -0.322983 1.67005 0
M  V30 5154 O 530.778 -0.199746 1.9317 0
M  V30 5155 C 527.908 0.0589053 3.4725 0
M  V30 5156 C 526.862 0.988082 4.16438 0
M  V30 5157 C 526.188 0.229646 5.34207 0
M  V30 5158 C 527.488 2.31388 4.68249 0
M  V30 5159 H 529.182 1.56993 2.54938 0
M  V30 5160 H 526.728 0.756302 1.2254 0
M  V30 5161 H 528.681 -0.214982 4.20851 0
M  V30 5162 H 527.405 -0.864968 3.14938 0
M  V30 5163 H 526.064 1.24659 3.44754 0
M  V30 5164 H 525.712 -0.697111 4.98146 0
M  V30 5165 H 525.412 0.848815 5.81437 0
M  V30 5166 H 526.936 -0.0368694 6.10589 0
M  V30 5167 H 528.35 2.09964 5.33468 0
M  V30 5168 H 526.747 2.88736 5.26072 0
M  V30 5169 H 527.817 2.94982 3.84855 0
M  V30 5170 N 529.16 -1.33526 0.837174 0
M  V30 5171 C 530.09 -2.31764 0.284206 0
M  V30 5172 C 531.071 -1.58896 -0.607142 0
M  V30 5173 O 532.256 -1.86798 -0.531047 0
M  V30 5174 C 529.386 -3.43029 -0.542962 0
M  V30 5175 C 528.34 -4.27255 0.252451 0
M  V30 5176 C 527.666 -5.3012 -0.69836 0
M  V30 5177 C 528.966 -5.01229 1.46858 0
M  V30 5178 H 530.66 -2.78262 1.10502 0
M  V30 5179 H 528.206 -1.3378 0.532812 0
M  V30 5180 H 530.159 -4.1078 -0.940096 0
M  V30 5181 H 528.883 -2.95216 -1.39697 0
M  V30 5182 H 527.542 -3.61127 0.631124 0
M  V30 5183 H 527.19 -4.78564 -1.54872 0
M  V30 5184 H 526.89 -5.87353 -0.170274 0
M  V30 5185 H 528.414 -6.00737 -1.09305 0
M  V30 5186 H 529.828 -5.61756 1.14469 0
M  V30 5187 H 528.225 -5.68104 1.93333 0
M  V30 5188 H 529.295 -4.301 2.23924 0
M  V30 5189 N 530.638 -0.59345 -1.46 0
M  V30 5190 C 531.585 0.133618 -2.30413 0
M  V30 5191 C 532.555 0.873736 -1.41262 0
M  V30 5192 O 533.74 0.862279 -1.70204 0
M  V30 5193 C 530.88 1.13434 -3.25924 0
M  V30 5194 C 529.993 0.39656 -4.30176 0
M  V30 5195 C 529.128 1.38575 -5.12806 0
M  V30 5196 C 528.167 0.634984 -6.08797 0
M  V30 5197 N 527.304 1.57276 -6.84258 0
M  V30 5198 H 532.144 -0.592252 -2.92055 0
M  V30 5199 H 529.681 -0.303874 -1.43927 0
M  V30 5200 H 531.639 1.72752 -3.79753 0
M  V30 5201 H 530.269 1.82779 -2.66067 0
M  V30 5202 H 529.321 -0.311861 -3.79119 0
M  V30 5203 H 530.633 -0.189869 -4.98438 0
M  V30 5204 H 529.787 2.05141 -5.70966 0
M  V30 5205 H 528.526 2.00611 -4.44529 0
M  V30 5206 H 527.531 -0.0443925 -5.49782 0
M  V30 5207 H 528.756 0.0198678 -6.79097 0
M  V30 5208 H 526.702 2.18103 -6.18682 0
M  V30 5209 H 526.619 1.03941 -7.48821 0
M  V30 5210 H 527.887 2.22844 -7.46968 0
M  V30 5211 N 532.116 1.54067 -0.331816 0
M  V30 5212 C 533.364 2.00319 0.267739 0
M  V30 5213 C 533.685 1.22148 1.52003 0
M  V30 5214 O 532.955 0.325494 1.93177 0
M  V30 5215 H 531.535 0.740014 0.101922 0
M  V30 5216 H 534.197 1.89628 -0.450267 0
M  V30 5217 H 533.293 3.07765 0.518385 0
M  V30 5218 N 533.594 0.0601682 1.57485 0
M  V30 5219 C 534.842 -0.610386 1.92662 0
M  V30 5220 C 535.163 -1.70849 0.939981 0
M  V30 5221 O 534.433 -1.95895 -0.0137455 0
M  V30 5222 H 533.013 -0.228457 0.711208 0
M  V30 5223 H 535.675 0.115288 1.94559 0
M  V30 5224 H 534.771 -1.0432 2.94149 0
M  V30 5225 N 535.072 -1.5615 -0.213296 0
M  V30 5226 C 536.488 -1.49327 -0.56336 0
M  V30 5227 C 536.688 -0.756826 -1.86747 0
M  V30 5228 O 535.744 -0.299866 -2.50713 0
M  V30 5229 C 537.057 -2.9392 -0.634944 0
M  V30 5230 C 538.605 -3.04487 -0.725013 0
M  V30 5231 C 539.08 -4.50456 -0.82787 0
M  V30 5232 N 540.571 -4.54533 -0.891876 0
M  V30 5233 C 541.306 -5.64766 -0.991315 0
M  V30 5234 N 540.802 -6.84733 -1.05419 0
M  V30 5235 N 542.595 -5.52637 -1.02709 0
M  V30 5236 H 534.746 -2.02453 0.642366 0
M  V30 5237 H 537.009 -0.920548 0.226487 0
M  V30 5238 H 536.715 -3.50783 0.253859 0
M  V30 5239 H 536.589 -3.46274 -1.49579 0
M  V30 5240 H 538.976 -2.47685 -1.60425 0
M  V30 5241 H 539.057 -2.55289 0.161669 0
M  V30 5242 H 538.701 -5.07878 0.0469464 0
M  V30 5243 H 538.631 -4.97369 -1.73009 0
M  V30 5244 H 541.122 -3.68141 -0.85327 0
M  V30 5245 H 541.435 -7.64493 -1.13007 0
M  V30 5246 H 539.78 -6.87427 -1.02318 0
M  V30 5247 H 542.971 -4.5784 -0.974687 0
M  V30 5248 H 543.144 -6.38576 -1.10113 0
M  V30 5249 N 536.55 0.480323 -1.50102 0
M  V30 5250 C 537.5 1.57685 -1.6468 0
M  V30 5251 C 538.484 1.52878 -0.5017 0
M  V30 5252 O 539.676 1.60058 -0.755668 0
M  V30 5253 C 536.805 2.96185 -1.73578 0
M  V30 5254 C 535.891 3.0591 -2.93734 0
M  V30 5255 N 536.282 2.85471 -4.1754 0
M  V30 5256 C 534.58 3.37036 -2.92101 0
M  V30 5257 C 535.281 2.99921 -4.9842 0
M  V30 5258 N 534.257 3.29715 -4.32191 0
M  V30 5259 H 538.059 1.40568 -2.58104 0
M  V30 5260 H 535.573 0.686874 -1.47159 0
M  V30 5261 H 537.57 3.75015 -1.82124 0
M  V30 5262 H 536.23 3.14356 -0.813057 0
M  V30 5263 H 537.241 2.61235 -4.47188 0
M  V30 5264 H 533.918 3.61253 -2.09291 0
M  V30 5265 H 535.308 2.88436 -6.06839 0
M  V30 5266 N 538.028 1.39524 0.732853 0
M  V30 5267 C 538.958 1.41153 1.86005 0
M  V30 5268 C 539.939 0.274614 1.67869 0
M  V30 5269 O 541.124 0.480745 1.88155 0
M  V30 5270 C 538.254 1.25638 3.23778 0
M  V30 5271 C 537.208 2.36752 3.56556 0
M  V30 5272 C 536.534 2.06326 4.93289 0
M  V30 5273 C 537.834 3.79069 3.5931 0
M  V30 5274 H 539.528 2.35484 1.84899 0
M  V30 5275 H 537.074 1.13348 0.888162 0
M  V30 5276 H 539.027 1.25398 4.0231 0
M  V30 5277 H 537.751 0.277772 3.25417 0
M  V30 5278 H 536.41 2.36213 2.80355 0
M  V30 5279 H 536.058 1.06897 4.9151 0
M  V30 5280 H 535.758 2.80757 5.16187 0
M  V30 5281 H 537.282 2.07739 5.74175 0
M  V30 5282 H 538.696 3.81526 4.27914 0
M  V30 5283 H 537.093 4.52878 3.93728 0
M  V30 5284 H 538.163 4.09893 2.59068 0
M  V30 5285 N 539.506 -0.963266 1.24736 0
M  V30 5286 C 540.755 -1.70115 1.08369 0
M  V30 5287 C 541.068 -1.91939 -0.376688 0
M  V30 5288 O 542.274 -2.6334 -0.660624 0
M  V30 5289 C 540.73 -3.06218 1.89099 0
M  V30 5290 C 540.338 -2.92221 3.39574 0
M  V30 5291 C 542.082 -3.83848 1.81275 0
M  V30 5292 C 539.989 -4.23662 4.12631 0
M  V30 5293 H 538.919 -0.637944 0.401924 0
M  V30 5294 H 541.57 -1.07304 1.48856 0
M  V30 5295 H 539.952 -3.69884 1.41429 0
M  V30 5296 H 541.126 -2.37541 3.94856 0
M  V30 5297 H 539.441 -2.28054 3.48397 0
M  V30 5298 H 542.038 -4.81188 2.33158 0
M  V30 5299 H 542.381 -4.08949 0.778895 0
M  V30 5300 H 542.914 -3.26918 2.26649 0
M  V30 5301 H 539.653 -4.03753 5.16395 0
M  V30 5302 H 539.173 -4.78141 3.62135 0
M  V30 5303 H 540.852 -4.92256 4.19873 0
M  V30 5304 N 540.985 -1.06182 -1.16461 0
M  V30 5305 C 542.232 -0.777863 -1.86964 0
M  V30 5306 C 542.56 0.695602 -1.81636 0
M  V30 5307 O 541.815 1.52532 -1.22607 0
M  V30 5308 C 542.114 -1.21633 -3.36066 0
M  V30 5309 C 541.78 -2.69371 -3.61594 0
M  V30 5310 C 540.442 -3.09727 -3.6827 0
M  V30 5311 C 542.794 -3.64791 -3.7226 0
M  V30 5312 C 540.122 -4.44345 -3.83112 0
M  V30 5313 C 542.474 -4.99155 -3.88623 0
M  V30 5314 C 541.138 -5.39149 -3.93541 0
M  V30 5315 H 540.408 -0.28464 -0.68415 0
M  V30 5316 H 543.055 -1.33071 -1.37711 0
M  V30 5317 H 541.36 -0.582651 -3.87443 0
M  V30 5318 H 543.057 -0.973682 -3.88999 0
M  V30 5319 H 539.647 -2.37124 -3.57029 0
M  V30 5320 H 543.831 -3.34746 -3.66413 0
M  V30 5321 H 539.087 -4.74819 -3.85172 0
M  V30 5322 H 543.261 -5.72976 -3.95817 0
M  V30 5323 H 540.888 -6.43464 -4.04794 0
M  V30 5324 N 542.463 1.3308 -0.844243 0
M  V30 5325 C 543.703 1.99414 -0.448697 0
M  V30 5326 C 544.067 1.65398 0.975058 0
M  V30 5327 O 545.268 2.24741 1.47461 0
M  V30 5328 C 543.539 3.51081 -0.669089 0
M  V30 5329 S 545.098 4.37241 -0.369564 0
M  V30 5330 H 541.916 0.690736 -0.168538 0
M  V30 5331 H 544.518 1.61977 -1.0947 0
M  V30 5332 H 543.222 3.73326 -1.70457 0
M  V30 5333 H 542.753 3.93399 -0.00913211 0
M  V30 5334 H 544.768 4.89568 0.808552 0
M  V30 5335 N 543.941 0.601185 1.45683 0
M  V30 5336 C 544.891 -0.142686 2.27553 0
M  V30 5337 C 545.875 -0.844598 1.3695 0
M  V30 5338 O 547.067 -0.735644 1.60988 0
M  V30 5339 C 544.196 -1.14364 3.23691 0
M  V30 5340 C 543.282 -0.442894 4.21781 0
M  V30 5341 N 543.673 0.51189 5.03203 0
M  V30 5342 C 541.971 -0.691277 4.4061 0
M  V30 5343 C 542.672 0.92318 5.74328 0
M  V30 5344 N 541.648 0.268308 5.42937 0
M  V30 5345 H 545.45 0.590736 2.87902 0
M  V30 5346 H 542.964 0.424365 1.56757 0
M  V30 5347 H 544.961 -1.6909 3.8107 0
M  V30 5348 H 543.621 -1.87768 2.64902 0
M  V30 5349 H 544.632 0.888329 5.10225 0
M  V30 5350 H 541.309 -1.41049 3.92952 0
M  V30 5351 H 542.699 1.71029 6.49768 0
M  V30 5352 N 545.419 -1.53889 0.339982 0
M  V30 5353 C 546.644 -2.05741 -0.261798 0
M  V30 5354 C 547.069 -1.21354 -1.43718 0
M  V30 5355 O 546.427 -0.22645 -1.7988 0
M  V30 5356 C 546.475 -3.54542 -0.658228 0
M  V30 5357 O 545.579 -3.7302 -1.75869 0
M  V30 5358 H 544.92 -0.662529 -0.0441672 0
M  V30 5359 H 547.45 -1.98568 0.493161 0
M  V30 5360 H 547.46 -3.9711 -0.936368 0
M  V30 5361 H 546.135 -4.15412 0.201358 0
M  V30 5362 H 544.712 -3.42355 -1.47809 0
M  V30 5363 N 546.897 -0.0685191 -1.57451 0
M  V30 5364 C 547.844 0.899861 -2.12535 0
M  V30 5365 C 548.814 1.29749 -1.03703 0
M  V30 5366 O 549.999 1.38392 -1.31348 0
M  V30 5367 C 547.139 2.16328 -2.6888 0
M  V30 5368 C 546.252 1.81857 -3.91857 0
M  V30 5369 C 545.387 3.02786 -4.36457 0
M  V30 5370 C 544.426 2.64317 -5.5209 0
M  V30 5371 N 543.563 3.77994 -5.91663 0
M  V30 5372 H 548.403 0.423243 -2.94979 0
M  V30 5373 H 545.94 0.197268 -1.45771 0
M  V30 5374 H 547.898 2.90281 -2.99655 0
M  V30 5375 H 546.528 2.61536 -1.89206 0
M  V30 5376 H 545.58 0.979808 -3.67565 0
M  V30 5377 H 546.892 1.49553 -4.75852 0
M  V30 5378 H 546.046 3.85021 -4.68875 0
M  V30 5379 H 544.785 3.38281 -3.51308 0
M  V30 5380 H 543.79 1.80503 -5.19325 0
M  V30 5381 H 545.015 2.29995 -6.38967 0
M  V30 5382 H 542.961 4.13258 -5.09464 0
M  V30 5383 H 542.878 3.49447 -6.7039 0
M  V30 5384 H 544.146 4.60818 -6.28703 0
M  V30 5385 N 548.375 1.56261 0.205012 0
M  V30 5386 C 549.322 1.93754 1.25411 0
M  V30 5387 C 550.292 0.796826 1.45739 0
M  V30 5388 O 551.477 1.05414 1.59036 0
M  V30 5389 C 548.617 2.27383 2.59598 0
M  V30 5390 C 547.73 3.5447 2.46931 0
M  V30 5391 C 546.865 3.77468 3.73753 0
M  V30 5392 C 545.904 4.98014 3.55877 0
M  V30 5393 N 545.041 5.17316 4.74688 0
M  V30 5394 H 549.881 2.83203 0.92737 0
M  V30 5395 H 547.418 1.40158 0.446574 0
M  V30 5396 H 549.376 2.44895 3.37761 0
M  V30 5397 H 548.006 1.41088 2.90335 0
M  V30 5398 H 547.058 3.45061 1.60116 0
M  V30 5399 H 548.37 4.42789 2.29651 0
M  V30 5400 H 547.524 3.95165 4.60358 0
M  V30 5401 H 546.263 2.87461 3.93976 0
M  V30 5402 H 545.268 4.80249 2.67657 0
M  V30 5403 H 546.493 5.8952 3.37109 0
M  V30 5404 H 544.439 4.30255 4.95194 0
M  V30 5405 H 544.356 5.99796 4.60197 0
M  V30 5406 H 545.624 5.39463 5.62672 0
M  V30 5407 N 549.853 -0.472356 1.50355 0
M  V30 5408 C 550.8 -1.57051 1.69126 0
M  V30 5409 C 551.77 -1.5733 0.532574 0
M  V30 5410 O 552.955 -1.7488 0.762994 0
M  V30 5411 C 550.095 -2.95033 1.79024 0
M  V30 5412 C 549.208 -3.04552 3.06386 0
M  V30 5413 C 548.343 -4.33441 3.07087 0
M  V30 5414 C 547.382 -4.36697 4.28908 0
M  V30 5415 N 546.519 -5.57056 4.27356 0
M  V30 5416 H 551.359 -1.40351 2.62879 0
M  V30 5417 H 548.896 -0.682403 1.30314 0
M  V30 5418 H 550.854 -3.75048 1.82744 0
M  V30 5419 H 549.484 -3.10371 0.887109 0
M  V30 5420 H 548.536 -2.17419 3.12143 0
M  V30 5421 H 549.848 -3.02818 3.96362 0
M  V30 5422 H 549.002 -5.21801 3.09529 0
M  V30 5423 H 547.741 -4.37782 2.14939 0
M  V30 5424 H 546.746 -3.46734 4.2668 0
M  V30 5425 H 547.971 -4.34049 5.22282 0
M  V30 5426 H 545.917 -5.62184 3.3806 0
M  V30 5427 H 545.834 -5.57058 5.111 0
M  V30 5428 H 547.102 -6.47545 4.33942 0
M  V30 5429 N 551.331 -1.39911 -0.725443 0
M  V30 5430 C 552.571 -1.39096 -1.49772 0
M  V30 5431 C 552.935 0.0106452 -1.91997 0
M  V30 5432 O 554.136 0.143859 -2.68415 0
M  V30 5433 C 552.407 -2.34441 -2.69764 0
M  V30 5434 S 553.966 -2.51898 -3.59295 0
M  V30 5435 H 550.784 -0.49314 -0.512186 0
M  V30 5436 H 553.386 -1.76093 -0.849197 0
M  V30 5437 H 552.09 -3.35123 -2.36898 0
M  V30 5438 H 551.621 -1.98692 -3.39537 0
M  V30 5439 H 553.636 -1.76402 -4.63785 0
M  V30 5440 N 552.809 0.956637 -1.25245 0
M  V30 5441 C 553.719 2.0868 -1.0719 0
M  V30 5442 C 554.735 1.73997 -0.00959074 0
M  V30 5443 O 555.911 2.00301 -0.210104 0
M  V30 5444 C 552.976 3.39754 -0.690526 0
M  V30 5445 C 552.037 3.88316 -1.83055 0
M  V30 5446 C 551.27 5.13134 -1.46728 0
M  V30 5447 O 551.493 5.6925 -0.362029 0
M  V30 5448 O 550.427 5.56356 -2.29677 0
M  V30 5449 H 554.253 2.26813 -2.01965 0
M  V30 5450 H 551.838 1.07098 -1.04165 0
M  V30 5451 H 553.72 4.18543 -0.489871 0
M  V30 5452 H 552.395 3.22896 0.227981 0
M  V30 5453 H 551.302 3.1054 -2.08604 0
M  V30 5454 H 552.635 4.09669 -2.72822 0
M  V30 5455 N 554.287 1.06798 1.15896 0
M  V30 5456 C 555.197 0.694564 2.24083 0
M  V30 5457 C 556.213 -0.291687 1.71538 0
M  V30 5458 O 557.389 -0.139723 2.00915 0
M  V30 5459 C 554.454 0.0921014 3.46578 0
M  V30 5460 C 553.515 1.13087 4.14137 0
M  V30 5461 C 552.748 0.557064 5.30785 0
M  V30 5462 O 552.971 -0.628623 5.66925 0
M  V30 5463 O 551.905 1.29924 5.8771 0
M  V30 5464 H 555.731 1.59663 2.58344 0
M  V30 5465 H 553.316 0.840575 1.2351 0
M  V30 5466 H 555.198 -0.241884 4.20705 0
M  V30 5467 H 553.873 -0.78337 3.14078 0
M  V30 5468 H 552.78 1.51712 3.41957 0
M  V30 5469 H 554.113 1.97805 4.50704 0
M  V30 5470 N 555.766 -1.3263 0.851289 0
M  V30 5471 C 557.015 -1.96633 0.449267 0
M  V30 5472 C 557.328 -1.68131 -0.999562 0
M  V30 5473 O 558.534 -2.25845 -1.50685 0
M  V30 5474 C 556.99 -3.51946 0.752446 0
M  V30 5475 C 556.598 -3.89311 2.21678 0
M  V30 5476 C 558.342 -4.22437 0.417983 0
M  V30 5477 C 556.249 -5.37655 2.46336 0
M  V30 5478 H 555.179 -0.735888 0.164269 0
M  V30 5479 H 557.83 -1.51073 1.0416 0
M  V30 5480 H 556.212 -3.95899 0.0895858 0
M  V30 5481 H 557.386 -3.56378 2.92115 0
M  V30 5482 H 555.701 -3.31836 2.51543 0
M  V30 5483 H 558.298 -5.31549 0.579674 0
M  V30 5484 H 558.641 -4.11349 -0.640115 0
M  V30 5485 H 559.174 -3.84057 1.03659 0
M  V30 5486 H 555.913 -5.5376 3.50757 0
M  V30 5487 H 555.433 -5.72005 1.80473 0
M  V30 5488 H 557.112 -6.04695 2.30115 0
M  V30 5489 N 557.244 -0.608902 -1.45362 0
M  V30 5490 C 558.207 0.0992563 -2.28985 0
M  V30 5491 C 559.207 0.793841 -1.39838 0
M  V30 5492 O 560.397 0.641804 -1.61946 0
M  V30 5493 C 557.529 1.15073 -3.20891 0
M  V30 5494 H 558.722 -0.635964 -2.93079 0
M  V30 5495 H 556.275 -0.368007 -1.51906 0
M  V30 5496 H 557.01 1.91667 -2.616 0
M  V30 5497 H 556.795 0.656867 -3.86559 0
M  V30 5498 H 558.285 1.64665 -3.83765 0
M  V30 5499 N 558.722 1.53707 -0.348139 0
M  V30 5500 C 559.947 2.05877 0.250883 0
M  V30 5501 C 560.372 1.22115 1.43072 0
M  V30 5502 O 559.73 0.235986 1.79758 0
M  V30 5503 C 559.778 3.54886 0.639416 0
M  V30 5504 O 558.882 3.73948 1.73888 0
M  V30 5505 H 558.223 0.662754 0.040653 0
M  V30 5506 H 560.753 1.98303 -0.503685 0
M  V30 5507 H 560.763 3.97601 0.915295 0
M  V30 5508 H 559.438 4.153 -0.223386 0
M  V30 5509 H 558.015 3.43134 1.45991 0
M  V30 5510 N 560.2 0.0768682 1.57412 0
M  V30 5511 C 561.147 -0.888577 2.13009 0
M  V30 5512 C 562.117 -1.29198 1.0439 0
M  V30 5513 O 563.302 -1.37694 1.3208 0
M  V30 5514 C 560.442 -2.14899 2.70023 0
M  V30 5515 C 559.555 -1.79777 3.92816 0
M  V30 5516 C 558.69 -3.00467 4.38056 0
M  V30 5517 C 557.729 -2.61385 5.53484 0
M  V30 5518 N 556.866 -3.74851 5.93659 0
M  V30 5519 H 561.706 -0.407593 2.95199 0
M  V30 5520 H 559.243 -0.189534 1.45874 0
M  V30 5521 H 561.201 -2.88688 3.0119 0
M  V30 5522 H 559.831 -2.60529 1.9059 0
M  V30 5523 H 558.883 -0.960301 3.68079 0
M  V30 5524 H 560.195 -1.47027 4.76639 0
M  V30 5525 H 559.349 -3.82529 4.7091 0
M  V30 5526 H 558.088 -3.36413 3.53097 0
M  V30 5527 H 557.093 -1.77746 5.20275 0
M  V30 5528 H 558.318 -2.26603 6.40178 0
M  V30 5529 H 556.264 -4.1055 5.11649 0
M  V30 5530 H 556.181 -3.45887 6.72234 0
M  V30 5531 H 557.449 -4.57477 6.31138 0
M  V30 5532 N 561.678 -1.56367 -0.196722 0
M  V30 5533 C 562.608 -1.97442 -1.24655 0
M  V30 5534 C 563.589 -0.846147 -1.47561 0
M  V30 5535 O 564.774 -1.11035 -1.59326 0
M  V30 5536 C 561.904 -2.31253 -2.59112 0
M  V30 5537 C 560.858 -3.46804 -2.50821 0
M  V30 5538 C 560.184 -3.66286 -3.89536 0
M  V30 5539 C 561.484 -4.8104 -2.03465 0
M  V30 5540 H 563.178 -2.85388 -0.905216 0
M  V30 5541 H 560.724 -1.37304 -0.434002 0
M  V30 5542 H 562.677 -2.58583 -3.32736 0
M  V30 5543 H 561.401 -1.40188 -2.94983 0
M  V30 5544 H 560.06 -3.19563 -1.79653 0
M  V30 5545 H 559.708 -2.72555 -4.22756 0
M  V30 5546 H 559.408 -4.4402 -3.84864 0
M  V30 5547 H 560.932 -3.9599 -4.64784 0
M  V30 5548 H 562.346 -5.07411 -2.66846 0
M  V30 5549 H 560.743 -5.62232 -2.09798 0
M  V30 5550 H 561.813 -4.74732 -0.98781 0
M  V30 5551 N 563.156 0.464375 -1.50603 0
M  V30 5552 C 564.572 0.798684 -1.38178 0
M  V30 5553 C 564.772 1.96568 -0.44308 0
M  V30 5554 O 563.828 2.52252 0.111814 0
M  V30 5555 C 565.141 1.10444 -2.79683 0
M  V30 5556 C 566.689 1.2105 -2.88645 0
M  V30 5557 C 567.164 1.54934 -4.30998 0
M  V30 5558 N 568.655 1.61913 -4.3398 0
M  V30 5559 C 569.39 1.8965 -5.41129 0
M  V30 5560 N 568.886 2.15361 -6.58477 0
M  V30 5561 N 570.679 1.91207 -5.28579 0
M  V30 5562 H 562.83 -0.304603 -2.10204 0
M  V30 5563 H 565.093 -0.0737804 -0.945125 0
M  V30 5564 H 564.799 0.319934 -3.50242 0
M  V30 5565 H 564.673 2.03896 -3.17342 0
M  V30 5566 H 567.06 1.98567 -2.18301 0
M  V30 5567 H 567.141 0.255613 -2.5452 0
M  V30 5568 H 566.785 0.779549 -5.01882 0
M  V30 5569 H 566.715 2.51584 -4.62615 0
M  V30 5570 H 569.206 1.44055 -3.49366 0
M  V30 5571 H 569.519 2.35818 -7.35941 0
M  V30 5572 H 567.864 2.1274 -6.6164 0
M  V30 5573 H 571.055 1.70622 -4.35897 0
M  V30 5574 H 571.228 2.12488 -6.12171 0
M  V30 5575 N 564.634 1.40294 0.718013 0
M  V30 5576 C 565.882 1.38167 1.47494 0
M  V30 5577 C 566.203 -0.01607 1.94993 0
M  V30 5578 O 565.473 -0.970396 1.70177 0
M  V30 5579 H 564.053 0.508505 0.547203 0
M  V30 5580 H 566.715 1.75324 0.851322 0
M  V30 5581 H 565.811 2.05503 2.34894 0
M  V30 5582 N 566.112 -0.949982 1.2575 0
M  V30 5583 C 567.045 -2.047 1.00862 0
M  V30 5584 C 568.023 -1.62475 -0.0636982 0
M  V30 5585 O 569.207 -1.88343 0.0769153 0
M  V30 5586 C 566.334 -3.34597 0.525613 0
M  V30 5587 C 565.38 -3.95788 1.58916 0
M  V30 5588 S 566.213 -4.31175 3.17567 0
M  V30 5589 C 567.369 -5.64183 2.71013 0
M  V30 5590 H 567.602 -2.25497 1.93749 0
M  V30 5591 H 565.135 -1.09022 1.09332 0
M  V30 5592 H 567.093 -4.09716 0.25359 0
M  V30 5593 H 565.754 -3.11758 -0.382828 0
M  V30 5594 H 564.947 -4.89457 1.20201 0
M  V30 5595 H 564.549 -3.27168 1.81211 0
M  V30 5596 H 566.841 -6.42504 2.14928 0
M  V30 5597 H 567.784 -6.07774 3.6334 0
M  V30 5598 H 568.192 -5.2364 2.1086 0
M  V30 5599 N 567.59 -1.07411 -1.15328 0
M  V30 5600 C 568.838 -0.796073 -1.85761 0
M  V30 5601 C 569.159 0.679864 -1.82764 0
M  V30 5602 O 568.429 1.49242 -1.269 0
M  V30 5603 H 567.009 -0.291495 -0.687779 0
M  V30 5604 H 569.671 -1.35799 -1.39802 0
M  V30 5605 H 568.767 -1.13114 -2.90881 0
M  V30 5606 N 569.068 1.32177 -0.85831 0
M  V30 5607 C 569.998 2.31282 -0.321041 0
M  V30 5608 C 570.979 1.59841 0.581786 0
M  V30 5609 O 572.164 1.87619 0.501262 0
M  V30 5610 C 569.294 3.4385 0.48832 0
M  V30 5611 C 568.248 4.26799 -0.320391 0
M  V30 5612 C 567.574 5.31164 0.613934 0
M  V30 5613 C 568.874 4.98829 -1.54813 0
M  V30 5614 H 570.568 2.76469 -1.14915 0
M  V30 5615 H 568.114 1.32916 -0.554028 0
M  V30 5616 H 570.067 4.12224 0.874626 0
M  V30 5617 H 568.791 2.97401 1.34983 0
M  V30 5618 H 567.45 3.60077 -0.688497 0
M  V30 5619 H 567.098 4.80967 1.47239 0
M  V30 5620 H 566.798 5.8755 0.0768097 0
M  V30 5621 H 568.322 6.024 0.997336 0
M  V30 5622 H 569.736 5.59864 -1.23392 0
M  V30 5623 H 568.133 5.64957 -2.02346 0
M  V30 5624 H 569.203 4.26483 -2.30739 0
M  V30 5625 N 570.547 0.616602 1.45037 0
M  V30 5626 C 571.495 -0.109318 2.32343 0
M  V30 5627 C 572.489 -0.850543 1.465 0
M  V30 5628 O 573.695 -0.765088 1.62931 0
M  V30 5629 H 570.07 -0.0541091 0.750051 0
M  V30 5630 H 572.041 0.645326 2.91338 0
M  V30 5631 C 570.79 -1.0872 3.30266 0
M  V30 5632 H 570.113 -0.526267 3.96321 0
M  V30 5633 H 571.553 -1.56489 3.94065 0
M  V30 5634 C 570.012 -2.16525 2.58105 0
M  V30 5635 O 570.542 -3.244 2.36913 0
M  V30 5636 N 568.748 -1.92057 2.18088 0
M  V30 5637 H 568.295 -1.04337 2.35524 0
M  V30 5638 H 568.253 -2.64391 1.70131 0
M  V30 5639 N 572.025 -1.5352 0.356285 0
M  V30 5640 C 572.988 -2.24071 -0.482182 0
M  V30 5641 C 573.988 -1.24531 -1.01729 0
M  V30 5642 O 575.178 -1.48876 -0.904513 0
M  V30 5643 C 572.31 -2.97025 -1.67299 0
M  V30 5644 H 573.503 -2.99596 0.135031 0
M  V30 5645 H 571.056 -1.55928 0.107825 0
M  V30 5646 H 571.791 -2.25719 -2.32855 0
M  V30 5647 H 571.576 -3.7005 -1.29636 0
M  V30 5648 H 573.066 -3.50683 -2.26741 0
M  V30 5649 N 573.503 -0.0852151 -1.57369 0
M  V30 5650 C 574.749 0.581666 -1.94279 0
M  V30 5651 C 575.082 1.68444 -0.966446 0
M  V30 5652 O 574.357 1.945 0.00215277 0
M  V30 5653 C 574.64 1.14609 -3.41375 0
M  V30 5654 C 574.493 0.0490414 -4.49773 0
M  V30 5655 C 575.812 2.04751 -3.8957 0
M  V30 5656 H 572.931 0.209972 -0.706456 0
M  V30 5657 H 575.573 -0.153915 -1.89376 0
M  V30 5658 H 573.723 1.77297 -3.45685 0
M  V30 5659 H 575.395 -0.584721 -4.57579 0
M  V30 5660 H 573.638 -0.618638 -4.29366 0
M  V30 5661 H 574.309 0.484601 -5.49869 0
M  V30 5662 H 576.785 1.51981 -3.87351 0
M  V30 5663 H 575.661 2.41173 -4.93079 0
M  V30 5664 H 575.922 2.96107 -3.28288 0
M  V30 5665 N 574.981 1.5647 0.188427 0
M  V30 5666 C 575.944 1.9421 1.21718 0
M  V30 5667 C 576.944 0.823901 1.38089 0
M  V30 5668 O 578.134 1.09122 1.35787 0
M  V30 5669 C 575.266 2.22197 2.58537 0
M  V30 5670 H 576.459 2.86252 0.894418 0
M  V30 5671 H 574.012 1.50263 0.430211 0
M  V30 5672 H 574.747 1.32814 2.95856 0
M  V30 5673 H 574.532 3.03688 2.48025 0
M  V30 5674 H 576.022 2.52376 3.3271 0
M  V30 5675 N 576.459 -0.456382 1.50847 0
M  V30 5676 C 577.689 -1.22848 1.66108 0
M  V30 5677 C 578.097 -1.85936 0.349897 0
M  V30 5678 O 577.44 -1.70664 -0.679665 0
M  V30 5679 C 577.502 -2.36722 2.70561 0
M  V30 5680 C 577.166 -1.94154 4.13707 0
M  V30 5681 C 578.163 -1.4557 4.99105 0
M  V30 5682 C 575.848 -2.02426 4.59705 0
M  V30 5683 C 577.842 -1.0582 6.28555 0
M  V30 5684 C 575.529 -1.62287 5.89157 0
M  V30 5685 C 576.527 -1.14064 6.73408 0
M  V30 5686 O 576.215 -0.744873 8.00442 0
M  V30 5687 H 575.947 -0.377105 0.561042 0
M  V30 5688 H 578.501 -0.549431 1.97915 0
M  V30 5689 H 576.731 -3.07844 2.34027 0
M  V30 5690 H 578.42 -2.98646 2.74892 0
M  V30 5691 H 579.186 -1.38589 4.64777 0
M  V30 5692 H 575.065 -2.38908 3.94264 0
M  V30 5693 H 578.609 -0.6811 6.94267 0
M  V30 5694 H 574.506 -1.68932 6.23003 0
M  V30 5695 H 575.274 -0.87242 8.13837 0
M  V30 5696 N 577.937 -1.40673 -0.710563 0
M  V30 5697 C 579.167 -1.4234 -1.49742 0
M  V30 5698 C 579.575 -0.022821 -1.89186 0
M  V30 5699 O 578.918 0.964773 -1.56326 0
M  V30 5700 C 578.98 -2.25509 -2.79975 0
M  V30 5701 C 578.644 -3.73862 -2.62824 0
M  V30 5702 C 579.641 -4.66379 -2.29752 0
M  V30 5703 C 577.326 -4.17735 -2.78932 0
M  V30 5704 C 579.32 -6.00756 -2.13006 0
M  V30 5705 C 577.007 -5.5218 -2.61802 0
M  V30 5706 C 578.005 -6.43505 -2.28888 0
M  V30 5707 O 577.693 -7.75472 -2.11894 0
M  V30 5708 H 577.425 -0.487311 -0.468513 0
M  V30 5709 H 579.979 -1.8542 -0.883668 0
M  V30 5710 H 578.209 -1.77218 -3.43701 0
M  V30 5711 H 579.898 -2.19058 -3.41714 0
M  V30 5712 H 580.664 -4.33778 -2.16936 0
M  V30 5713 H 576.543 -3.46967 -3.03537 0
M  V30 5714 H 580.087 -6.72003 -1.87237 0
M  V30 5715 H 575.984 -5.84365 -2.74204 0
M  V30 5716 H 576.752 -7.86458 -2.26775 0
M  V30 5717 N 579.415 0.9433 -1.26252 0
M  V30 5718 C 580.831 1.21644 -1.03319 0
M  V30 5719 C 581.031 2.0003 0.242983 0
M  V30 5720 O 580.087 2.33838 0.952688 0
M  V30 5721 C 581.4 1.97978 -2.2633 0
M  V30 5722 C 582.948 2.10978 -2.31209 0
M  V30 5723 C 583.423 2.90713 -3.53907 0
M  V30 5724 N 584.914 2.98287 -3.54371 0
M  V30 5725 C 585.649 3.60406 -4.45976 0
M  V30 5726 N 585.145 4.24043 -5.47868 0
M  V30 5727 N 586.938 3.57658 -4.33633 0
M  V30 5728 H 579.089 0.419221 -2.08222 0
M  V30 5729 H 581.352 0.247995 -0.914988 0
M  V30 5730 H 581.058 1.47788 -3.19142 0
M  V30 5731 H 580.932 2.9865 -2.30408 0
M  V30 5732 H 583.319 2.6036 -1.38913 0
M  V30 5733 H 583.4 1.09575 -2.31143 0
M  V30 5734 H 583.044 2.42018 -4.46531 0
M  V30 5735 H 582.974 3.92367 -3.5122 0
M  V30 5736 H 585.465 2.53044 -2.80673 0
M  V30 5737 H 585.778 4.69334 -6.13959 0
M  V30 5738 H 584.123 4.22637 -5.51728 0
M  V30 5739 H 587.314 3.07134 -3.53251 0
M  V30 5740 H 587.487 4.05782 -5.05218 0
M  V30 5741 N 580.893 1.08022 1.14757 0
M  V30 5742 C 582.141 0.805913 1.85336 0
M  V30 5743 C 582.462 -0.670162 1.83122 0
M  V30 5744 O 581.732 -1.48567 1.2769 0
M  V30 5745 H 580.312 0.295138 0.686223 0
M  V30 5746 H 582.974 1.36538 1.3908 0
M  V30 5747 H 582.07 1.14655 2.90277 0
M  V30 5748 N 582.371 -1.3172 0.865308 0
M  V30 5749 C 583.301 -2.31109 0.333302 0
M  V30 5750 C 584.282 -1.60148 -0.573301 0
M  V30 5751 O 585.467 -1.87882 -0.491305 0
M  V30 5752 C 582.597 -3.44104 -0.470078 0
M  V30 5753 C 581.551 -4.26623 0.343021 0
M  V30 5754 C 580.877 -5.31482 -0.585756 0
M  V30 5755 C 582.177 -4.98001 1.57456 0
M  V30 5756 H 583.871 -2.75855 1.1638 0
M  V30 5757 H 581.417 -1.3262 0.561069 0
M  V30 5758 H 583.37 -4.12682 -0.852752 0
M  V30 5759 H 582.094 -2.98112 -1.33404 0
M  V30 5760 H 580.753 -3.59707 0.707583 0
M  V30 5761 H 580.401 -4.81741 -1.44686 0
M  V30 5762 H 580.101 -5.87582 -0.0456494 0
M  V30 5763 H 581.625 -6.0292 -0.965375 0
M  V30 5764 H 583.039 -5.59201 1.26359 0
M  V30 5765 H 581.436 -5.63876 2.05339 0
M  V30 5766 H 582.506 -4.25253 2.32997 0
M  V30 5767 N 583.85 -0.624285 -1.44708 0
M  V30 5768 C 585.127 -0.0572781 -1.95516 0
M  V30 5769 C 585.507 1.41516 -1.56641 0
M  V30 5770 O 584.855 2.12614 -0.837111 0
M  V30 5771 C 585.065 -0.272944 -3.47931 0
M  V30 5772 C 586.413 -0.162529 -4.24289 0
M  V30 5773 O 587.437 -0.203946 -3.55616 0
M  V30 5774 O 586.296 -0.0616847 -5.46465 0
M  V30 5775 H 583.389 0.0262219 -0.826584 0
M  V30 5776 H 585.936 -0.695512 -1.54793 0
M  V30 5777 H 584.707 -1.29492 -3.69253 0
M  V30 5778 H 584.331 0.399756 -3.95585 0
M  V30 5779 N 585.328 1.53329 -0.364422 0
M  V30 5780 C 586.574 2.01537 0.225969 0
M  V30 5781 C 586.907 1.25128 1.48515 0
M  V30 5782 O 586.182 0.344653 1.91422 0
M  V30 5783 C 586.465 3.56339 0.519092 0
M  V30 5784 C 586.318 4.43441 -0.753639 0
M  V30 5785 C 587.637 4.19833 1.32015 0
M  V30 5786 H 584.756 0.732573 0.0806548 0
M  V30 5787 H 587.398 1.83597 -0.489084 0
M  V30 5788 H 585.548 3.71756 1.12825 0
M  V30 5789 H 587.22 4.39823 -1.39116 0
M  V30 5790 H 585.463 4.11457 -1.37424 0
M  V30 5791 H 586.134 5.49699 -0.503517 0
M  V30 5792 H 588.61 4.08242 0.804859 0
M  V30 5793 H 587.486 5.28177 1.49399 0
M  V30 5794 H 587.747 3.75821 2.32832 0
M  V30 5795 N 586.806 0.0935595 1.57322 0
M  V30 5796 C 588.031 -0.582324 1.99057 0
M  V30 5797 C 588.456 -1.61025 0.972242 0
M  V30 5798 O 587.814 -1.81202 -0.0594622 0
M  V30 5799 C 587.862 -1.20799 3.39765 0
M  V30 5800 O 586.966 -2.32382 3.40694 0
M  V30 5801 H 586.307 -0.147884 0.647323 0
M  V30 5802 H 588.837 0.174516 2.03854 0
M  V30 5803 H 588.847 -1.54966 3.77425 0
M  V30 5804 H 587.522 -0.454914 4.13405 0
M  V30 5805 H 586.099 -1.99845 3.14827 0
M  V30 5806 N 588.284 -1.56567 -0.180126 0
M  V30 5807 C 589.53 -1.81761 -0.899497 0
M  V30 5808 C 589.863 -0.670015 -1.82276 0
M  V30 5809 O 589.138 0.328575 -1.91705 0
M  V30 5810 C 589.421 -3.17296 -1.7028 0
M  V30 5811 C 589.274 -4.4257 -0.803255 0
M  V30 5812 C 590.593 -3.49678 -2.67233 0
M  V30 5813 H 587.712 -0.661192 -0.325567 0
M  V30 5814 H 590.354 -1.89272 -0.16612 0
M  V30 5815 H 588.504 -3.11023 -2.32802 0
M  V30 5816 H 590.176 -4.60902 -0.191585 0
M  V30 5817 H 588.419 -4.33658 -0.110796 0
M  V30 5818 H 589.09 -5.33935 -1.40064 0
M  V30 5819 H 591.566 -3.56347 -2.14839 0
M  V30 5820 H 590.442 -4.45605 -3.20511 0
M  V30 5821 H 590.703 -2.73932 -3.47007 0
M  V30 5822 N 589.762 0.448376 -1.51087 0
M  V30 5823 C 591.011 1.19561 -1.62444 0
M  V30 5824 C 591.324 1.92602 -0.341151 0
M  V30 5825 O 592.53 2.69439 -0.333936 0
M  V30 5826 C 590.986 2.17373 -2.8684 0
M  V30 5827 C 590.594 1.5003 -4.22131 0
M  V30 5828 C 592.338 2.92597 -3.0755 0
M  V30 5829 C 590.245 2.46262 -5.37689 0
M  V30 5830 H 589.175 0.449975 -0.605011 0
M  V30 5831 H 591.826 0.463735 -1.77544 0
M  V30 5832 H 590.208 2.93948 -2.65349 0
M  V30 5833 H 591.382 0.790886 -4.53962 0
M  V30 5834 H 589.697 0.870011 -4.0721 0
M  V30 5835 H 592.294 3.64663 -3.91056 0
M  V30 5836 H 592.637 3.53306 -2.20183 0
M  V30 5837 H 593.17 2.23131 -3.29329 0
M  V30 5838 H 589.909 1.90258 -6.27281 0
M  V30 5839 H 589.429 3.15289 -5.10248 0
M  V30 5840 H 591.108 3.07623 -5.6919 0
M  V30 5841 N 591.24 1.41047 0.703093 0
M  V30 5842 C 592.651 1.35657 1.28274 0
M  V30 5843 C 593.002 0.0360309 1.96167 0
M  V30 5844 O 592.127 -0.865833 1.98324 0
M  V30 5845 C 592.722 2.45707 2.33267 0
M  V30 5846 C 591.281 2.43738 2.86825 0
M  V30 5847 C 590.428 2.25941 1.60767 0
M  V30 5848 H 593.379 1.50672 0.49836 0
M  V30 5849 H 593.4 2.14333 3.14391 0
M  V30 5850 H 592.912 3.41805 1.83824 0
M  V30 5851 H 591.013 1.51375 3.40465 0
M  V30 5852 H 591.126 3.39779 3.37768 0
M  V30 5853 H 589.49 1.73681 1.86298 0
M  V30 5854 H 590.273 3.24054 1.1333 0
M  V30 5855 N 592.718 -0.936591 1.26751 0
M  V30 5856 C 593.946 -1.71758 1.15355 0
M  V30 5857 C 594.361 -1.86549 -0.290683 0
M  V30 5858 O 593.718 -1.37616 -1.19868 0
M  V30 5859 C 593.769 -3.12193 1.82258 0
M  V30 5860 O 593.49 -2.98105 3.21038 0
M  V30 5861 C 594.991 -4.06485 1.76875 0
M  V30 5862 H 592.211 -0.537636 0.401483 0
M  V30 5863 H 594.755 -1.17382 1.67457 0
M  V30 5864 H 592.91 -3.63456 1.34083 0
M  V30 5865 H 593.324 -3.86824 3.54214 0
M  V30 5866 H 594.798 -5.02569 2.28316 0
M  V30 5867 H 595.275 -4.32986 0.736216 0
M  V30 5868 H 595.881 -3.61144 2.24623 0
M  V30 5869 N 594.196 -1.08629 -1.14182 0
M  V30 5870 C 595.424 -0.838889 -1.8913 0
M  V30 5871 C 595.839 0.609153 -1.78703 0
M  V30 5872 O 595.196 1.41876 -1.14794 0
M  V30 5873 C 595.247 -1.25477 -3.39025 0
M  V30 5874 O 594.968 -2.64601 -3.49167 0
M  V30 5875 C 596.469 -1.03856 -4.30963 0
M  V30 5876 H 593.689 -0.302377 -0.599007 0
M  V30 5877 H 596.233 -1.44615 -1.44592 0
M  V30 5878 H 594.388 -0.691571 -3.81177 0
M  V30 5879 H 594.802 -2.81922 -4.42289 0
M  V30 5880 H 596.276 -1.37892 -5.345 0
M  V30 5881 H 596.753 0.0242522 -4.39193 0
M  V30 5882 H 597.359 -1.58731 -3.94569 0
M  V30 5883 N 595.674 1.31259 -0.872281 0
M  V30 5884 C 596.922 1.96233 -0.483409 0
M  V30 5885 C 597.243 1.69276 0.968012 0
M  V30 5886 O 596.513 1.00943 1.67891 0
M  V30 5887 H 595.093 0.726025 -0.175774 0
M  V30 5888 H 597.755 1.60024 -1.11258 0
M  V30 5889 H 596.851 3.05403 -0.643075 0
M  V30 5890 N 597.152 0.631951 1.44375 0
M  V30 5891 C 598.429 0.067646 1.95483 0
M  V30 5892 C 598.809 -1.40683 1.57389 0
M  V30 5893 O 598.157 -2.12167 0.848375 0
M  V30 5894 C 598.367 0.291392 3.47781 0
M  V30 5895 C 599.715 0.185028 4.24197 0
M  V30 5896 O 600.739 0.222803 3.55503 0
M  V30 5897 O 599.598 0.0906642 5.46425 0
M  V30 5898 H 596.692 -0.0218379 0.826712 0
M  V30 5899 H 599.238 0.703711 1.54421 0
M  V30 5900 H 598.01 1.31449 3.68561 0
M  V30 5901 H 597.633 -0.378772 3.95792 0
M  V30 5902 N 598.631 -1.53133 0.372548 0
M  V30 5903 C 599.877 -2.01654 -0.215277 0
M  V30 5904 C 600.21 -1.25914 -1.47849 0
M  V30 5905 O 599.485 -0.3548 -1.91237 0
M  V30 5906 C 599.768 -3.56609 -0.500187 0
M  V30 5907 C 599.621 -4.43036 0.777145 0
M  V30 5908 C 600.94 -4.20528 -1.29786 0
M  V30 5909 H 598.059 -0.732991 -0.0767686 0
M  V30 5910 H 600.701 -1.83335 0.498814 0
M  V30 5911 H 598.851 -3.7235 -1.10852 0
M  V30 5912 H 600.523 -4.39079 1.41447 0
M  V30 5913 H 598.766 -4.10723 1.39604 0
M  V30 5914 H 599.437 -5.49424 0.532662 0
M  V30 5915 H 601.913 -4.08663 -0.783198 0
M  V30 5916 H 600.789 -5.28962 -1.46596 0
M  V30 5917 H 601.05 -3.77051 -2.30836 0
M  V30 5918 N 600.109 -0.101901 -1.5727 0
M  V30 5919 C 601.355 0.561027 -1.94885 0
M  V30 5920 C 601.688 1.6741 -0.984258 0
M  V30 5921 O 600.963 1.94491 -0.0184767 0
M  V30 5922 C 601.246 1.10982 -3.42571 0
M  V30 5923 C 601.099 0.00133418 -4.498 0
M  V30 5924 C 602.418 2.00608 -3.9172 0
M  V30 5925 H 599.537 0.202467 -0.708644 0
M  V30 5926 H 602.179 -0.173992 -1.89202 0
M  V30 5927 H 600.329 1.73621 -3.47546 0
M  V30 5928 H 602.001 -0.63322 -4.56933 0
M  V30 5929 H 600.244 -0.664143 -4.28686 0
M  V30 5930 H 600.915 0.426253 -5.50352 0
M  V30 5931 H 603.391 1.47864 -3.88941 0
M  V30 5932 H 602.267 2.3593 -4.95609 0
M  V30 5933 H 602.528 2.92608 -3.3141 0
M  V30 5934 N 601.587 1.56661 0.17182 0
M  V30 5935 C 602.833 1.82235 0.889845 0
M  V30 5936 C 603.166 0.679673 1.81918 0
M  V30 5937 O 602.441 -0.318404 1.91876 0
M  V30 5938 C 602.724 3.18195 1.68595 0
M  V30 5939 C 602.577 4.42989 0.779773 0
M  V30 5940 C 603.896 3.5109 2.65375 0
M  V30 5941 H 601.015 0.66291 0.322056 0
M  V30 5942 H 603.657 1.89358 0.15608 0
M  V30 5943 H 601.807 3.12253 2.3115 0
M  V30 5944 H 603.479 4.60997 0.16714 0
M  V30 5945 H 601.722 4.33711 0.0877964 0
M  V30 5946 H 602.393 5.3467 1.3723 0
M  V30 5947 H 604.869 3.57482 2.12946 0
M  V30 5948 H 603.745 4.47298 3.18144 0
M  V30 5949 H 604.006 2.75768 3.45549 0
M  V30 5950 N 603.065 -0.440357 1.51323 0
M  V30 5951 C 604.305 -1.19956 1.65499 0
M  V30 5952 C 604.669 -1.88559 0.361878 0
M  V30 5953 O 605.87 -2.66109 0.379383 0
M  V30 5954 C 604.141 -2.1918 2.82303 0
M  V30 5955 S 605.7 -3.03627 3.1679 0
M  V30 5956 H 602.518 -0.406833 0.583102 0
M  V30 5957 H 605.12 -0.491596 1.89218 0
M  V30 5958 H 603.824 -1.67414 3.74701 0
M  V30 5959 H 603.355 -2.94561 2.60763 0
M  V30 5960 H 605.37 -4.20773 2.62991 0
M  V30 5961 N 604.543 -1.41418 -0.695603 0
M  V30 5962 C 605.506 -1.42988 -1.79129 0
M  V30 5963 C 606.506 -0.320514 -1.57573 0
M  V30 5964 O 607.696 -0.58039 -1.64247 0
M  V30 5965 C 604.828 -1.24122 -3.175 0
M  V30 5966 H 606.021 -2.40526 -1.7913 0
M  V30 5967 H 603.574 -1.2756 -0.903225 0
M  V30 5968 H 604.309 -0.274253 -3.23138 0
M  V30 5969 H 604.094 -2.045 -3.34547 0
M  V30 5970 H 605.584 -1.28056 -3.97481 0
M  V30 5971 N 606.021 0.929856 -1.27246 0
M  V30 5972 C 607.249 1.71144 -1.16265 0
M  V30 5973 C 607.664 1.867 0.280786 0
M  V30 5974 O 607.021 1.38249 1.19136 0
M  V30 5975 C 607.072 3.11222 -1.83911 0
M  V30 5976 O 606.793 2.96398 -3.22614 0
M  V30 5977 C 608.294 4.05541 -1.79028 0
M  V30 5978 H 605.514 0.535499 -0.404328 0
M  V30 5979 H 608.058 1.16492 -1.68077 0
M  V30 5980 H 606.213 3.6274 -1.36009 0
M  V30 5981 H 606.627 3.8494 -3.56261 0
M  V30 5982 H 608.101 5.01351 -2.30978 0
M  V30 5983 H 608.578 4.32589 -0.759168 0
M  V30 5984 H 609.184 3.59947 -2.26535 0
M  V30 5985 N 607.499 1.09233 1.13605 0
M  V30 5986 C 608.776 0.739633 1.81077 0
M  V30 5987 C 609.156 -0.775595 1.96336 0
M  V30 5988 O 608.504 -1.69726 1.52988 0
M  V30 5989 C 608.714 1.47636 3.16235 0
M  V30 5990 C 610.062 1.64087 3.91613 0
M  V30 5991 O 611.086 1.43871 3.25852 0
M  V30 5992 O 609.945 1.97511 5.0956 0
M  V30 5993 H 607.039 0.265464 0.783236 0
M  V30 5994 H 609.585 1.19441 1.20549 0
M  V30 5995 H 608.357 2.50818 3.00344 0
M  V30 5996 H 607.98 1.01362 3.84462 0
M  V30 5997 N 608.977 -1.30795 0.87923 0
M  V30 5998 C 609.94 -2.26563 0.346676 0
M  V30 5999 C 610.94 -1.52578 -0.507597 0
M  V30 6000 O 612.13 -1.71318 -0.315575 0
M  V30 6001 C 609.262 -3.37115 -0.506611 0
M  V30 6002 H 610.455 -2.75183 1.19223 0
M  V30 6003 H 608.008 -1.41886 0.655598 0
M  V30 6004 H 608.743 -2.93802 -1.37299 0
M  V30 6005 H 608.528 -3.91959 0.105218 0
M  V30 6006 H 610.018 -4.08412 -0.871192 0
M  V30 6007 N 610.455 -0.639598 -1.44038 0
M  V30 6008 C 611.385 0.0469443 -2.33453 0
M  V30 6009 C 612.366 0.82609 -1.48694 0
M  V30 6010 O 613.551 0.790285 -1.77393 0
M  V30 6011 C 610.681 1.02338 -3.3188 0
M  V30 6012 C 609.635 0.355284 -4.26523 0
M  V30 6013 C 608.961 1.44221 -5.14883 0
M  V30 6014 C 610.261 -0.743798 -5.16977 0
M  V30 6015 H 611.955 -0.699735 -2.91108 0
M  V30 6016 H 609.501 -0.337946 -1.39978 0
M  V30 6017 H 611.454 1.51247 -3.93322 0
M  V30 6018 H 610.178 1.80105 -2.72451 0
M  V30 6019 H 608.837 -0.113239 -3.66425 0
M  V30 6020 H 608.485 2.21097 -4.51802 0
M  V30 6021 H 608.185 1.00052 -5.79019 0
M  V30 6022 H 609.709 1.93295 -5.79197 0
M  V30 6023 H 611.123 -0.337444 -5.72306 0
M  V30 6024 H 609.52 -1.10914 -5.89761 0
M  V30 6025 H 610.59 -1.60745 -4.57481 0
M  V30 6026 N 611.933 1.52934 -0.380664 0
M  V30 6027 C 612.866 2.22597 0.502564 0
M  V30 6028 C 613.844 1.22345 1.071 0
M  V30 6029 O 615.028 1.51302 1.12428 0
M  V30 6030 C 612.155 2.93246 1.69482 0
M  V30 6031 C 611.201 4.07696 1.25244 0
M  V30 6032 S 612.034 5.34957 0.241159 0
M  V30 6033 C 613.19 6.09124 1.4394 0
M  V30 6034 H 613.423 2.97167 -0.089029 0
M  V30 6035 H 610.956 1.53518 -0.164817 0
M  V30 6036 H 612.914 3.34562 2.37863 0
M  V30 6037 H 611.575 2.18373 2.2577 0
M  V30 6038 H 610.768 4.56199 2.1424 0
M  V30 6039 H 610.37 3.68349 0.647664 0
M  V30 6040 H 612.662 6.34771 2.36794 0
M  V30 6041 H 613.605 7.01068 0.995464 0
M  V30 6042 H 614.013 5.39777 1.65229 0
M  V30 6043 N 613.412 0.11024 1.57214 0
M  V30 6044 C 614.64 -0.557834 1.99238 0
M  V30 6045 C 615.055 -1.60778 0.989734 0
M  V30 6046 O 614.412 -1.82491 -0.0186092 0
M  V30 6047 C 614.463 -1.19189 3.41286 0
M  V30 6048 O 614.184 -0.183919 4.37714 0
M  V30 6049 C 615.685 -1.94413 3.98395 0
M  V30 6050 H 612.905 -0.148392 0.654386 0
M  V30 6051 H 615.449 0.193996 2.03578 0
M  V30 6052 H 613.604 -1.89456 3.37913 0
M  V30 6053 H 614.018 -0.643475 5.20538 0
M  V30 6054 H 615.492 -2.34116 4.99894 0
M  V30 6055 H 615.969 -2.81592 3.3705 0
M  V30 6056 H 616.575 -1.28928 4.05287 0
M  V30 6057 N 614.89 -1.56749 -0.16351 0
M  V30 6058 C 616.138 -1.82074 -0.87713 0
M  V30 6059 C 616.459 -0.688503 -1.82441 0
M  V30 6060 O 615.729 0.291085 -1.93725 0
M  V30 6061 H 614.309 -0.671677 -0.326893 0
M  V30 6062 H 616.971 -1.9423 -0.161459 0
M  V30 6063 H 616.067 -2.76407 -1.44934 0
M  V30 6064 N 616.368 0.432326 -1.51554 0
M  V30 6065 C 617.598 1.2019 -1.68042 0
M  V30 6066 C 618.006 1.85356 -0.379434 0
M  V30 6067 O 617.349 1.71724 0.652427 0
M  V30 6068 C 617.411 2.32387 -2.74292 0
M  V30 6069 C 617.075 1.87548 -4.16743 0
M  V30 6070 C 618.072 1.37611 -5.01357 0
M  V30 6071 C 615.757 1.95087 -4.62868 0
M  V30 6072 C 617.751 0.958069 -6.30159 0
M  V30 6073 C 615.438 1.52894 -5.91664 0
M  V30 6074 C 616.436 1.03336 -6.75137 0
M  V30 6075 O 616.124 0.617435 -8.01525 0
M  V30 6076 H 615.856 0.368132 -0.56697 0
M  V30 6077 H 618.41 0.517875 -1.98764 0
M  V30 6078 H 616.64 3.04082 -2.38895 0
M  V30 6079 H 618.329 2.94235 -2.79608 0
M  V30 6080 H 619.095 1.31178 -4.66923 0
M  V30 6081 H 614.974 2.32606 -3.98015 0
M  V30 6082 H 618.518 0.570562 -6.95263 0
M  V30 6083 H 614.415 1.58999 -6.25611 0
M  V30 6084 H 615.183 0.742835 -8.15122 0
M  V30 6085 N 617.846 1.41785 0.688094 0
M  V30 6086 C 619.074 1.44915 1.47673 0
M  V30 6087 C 619.489 0.0565786 1.88715 0
M  V30 6088 O 618.846 -0.92579 1.57275 0
M  V30 6089 C 618.897 2.36452 2.73446 0
M  V30 6090 O 618.618 3.7029 2.34131 0
M  V30 6091 C 620.119 2.48463 3.67125 0
M  V30 6092 H 617.339 0.493324 0.454832 0
M  V30 6093 H 619.883 1.86153 0.846594 0
M  V30 6094 H 618.038 1.98502 3.3268 0
M  V30 6095 H 618.452 4.19183 3.15255 0
M  V30 6096 H 619.926 3.16662 4.52138 0
M  V30 6097 H 620.403 1.51826 4.12123 0
M  V30 6098 H 621.009 2.8708 3.13792 0
M  V30 6099 N 619.324 -0.923095 1.27737 0
M  V30 6100 C 620.572 -1.66797 1.14119 0
M  V30 6101 C 620.893 -1.92479 -0.312541 0
M  V30 6102 O 620.163 -1.53432 -1.218 0
M  V30 6103 H 618.743 -0.618196 0.419336 0
M  V30 6104 H 621.405 -1.10815 1.60331 0
M  V30 6105 H 620.501 -2.63424 1.67374 0
M  V30 6106 N 620.802 -1.09834 -1.13024 0
M  V30 6107 C 622.079 -0.749225 -1.80682 0
M  V30 6108 C 622.459 0.765171 -1.96744 0
M  V30 6109 O 621.807 1.68912 -1.53886 0
M  V30 6110 C 622.017 -1.49311 -3.15448 0
M  V30 6111 C 623.365 -1.66162 -3.90737 0
M  V30 6112 O 624.389 -1.45597 -3.25085 0
M  V30 6113 O 623.248 -2.00211 -5.08505 0
M  V30 6114 H 620.342 -0.269614 -0.781817 0
M  V30 6115 H 622.888 -1.20078 -1.19914 0
M  V30 6116 H 621.66 -2.52407 -2.99009 0
M  V30 6117 H 621.283 -1.034 -3.8392 0
M  V30 6118 N 622.28 1.30327 -0.886154 0
M  V30 6119 C 623.527 1.96097 -0.505192 0
M  V30 6120 C 623.855 1.69952 0.945868 0
M  V30 6121 O 623.11 0.997653 1.68361 0
M  V30 6122 C 623.409 3.49906 -0.728042 0
M  V30 6123 C 623.075 3.96103 -2.15437 0
M  V30 6124 C 621.737 4.08428 -2.5444 0
M  V30 6125 C 624.089 4.20177 -3.08384 0
M  V30 6126 C 621.417 4.42189 -3.85598 0
M  V30 6127 C 623.769 4.55407 -4.39075 0
M  V30 6128 C 622.433 4.65941 -4.7797 0
M  V30 6129 H 621.703 0.71757 -0.184863 0
M  V30 6130 H 624.35 1.55171 -1.12223 0
M  V30 6131 H 622.655 3.9179 -0.027978 0
M  V30 6132 H 624.352 3.98869 -0.412862 0
M  V30 6133 H 620.942 3.87017 -1.84162 0
M  V30 6134 H 625.126 4.10134 -2.7947 0
M  V30 6135 H 620.382 4.48544 -4.15473 0
M  V30 6136 H 624.556 4.72986 -5.11133 0
M  V30 6137 H 622.183 4.91856 -5.79639 0
M  V30 6138 N 623.758 0.647228 1.43697 0
M  V30 6139 C 625.035 0.0883758 1.954 0
M  V30 6140 C 625.415 -1.39006 1.58873 0
M  V30 6141 O 624.763 -2.11255 0.87083 0
M  V30 6142 C 624.973 0.328263 3.47453 0
M  V30 6143 C 626.321 0.230009 4.23977 0
M  V30 6144 O 627.345 0.260496 3.55246 0
M  V30 6145 O 626.204 0.148615 5.46298 0
M  V30 6146 H 623.298 -0.0130683 0.826897 0
M  V30 6147 H 625.844 0.72005 1.53666 0
M  V30 6148 H 624.616 1.3535 3.67146 0
M  V30 6149 H 624.239 -0.336772 3.96171 0
M  V30 6150 N 625.236 -1.5273 0.388769 0
M  V30 6151 C 626.461 -2.0647 -0.19621 0
M  V30 6152 C 626.886 -1.25865 -1.39784 0
M  V30 6153 O 626.244 -0.283562 -1.79069 0
M  V30 6154 C 626.292 -3.56456 -0.5451 0
M  V30 6155 O 625.396 -3.78426 -1.63912 0
M  V30 6156 H 624.737 -0.663599 -0.023067 0
M  V30 6157 H 627.267 -1.96898 0.556084 0
M  V30 6158 H 627.277 -3.99888 -0.809557 0
M  V30 6159 H 625.952 -4.14561 0.333417 0
M  V30 6160 H 624.529 -3.46884 -1.36842 0
M  V30 6161 N 626.714 -0.118576 -1.57153 0
M  V30 6162 C 627.96 0.540326 -1.95469 0
M  V30 6163 C 628.293 1.66356 -1.00196 0
M  V30 6164 O 627.568 1.94461 -0.039104 0
M  V30 6165 C 627.851 1.07342 -3.43729 0
M  V30 6166 C 627.704 -0.0463732 -4.49776 0
M  V30 6167 C 629.023 1.96442 -3.93826 0
M  V30 6168 H 626.142 0.19494 -0.710751 0
M  V30 6169 H 628.784 -0.19405 -1.89006 0
M  V30 6170 H 626.934 1.69925 -3.49368 0
M  V30 6171 H 628.606 -0.681648 -4.56236 0
M  V30 6172 H 626.849 -0.709574 -4.27957 0
M  V30 6173 H 627.52 0.367856 -5.50773 0
M  V30 6174 H 629.996 1.43731 -3.90488 0
M  V30 6175 H 628.872 2.3066 -4.98084 0
M  V30 6176 H 629.133 2.89077 -3.34495 0
M  V30 6177 N 628.193 1.56834 0.155195 0
M  V30 6178 C 629.442 1.82088 0.867567 0
M  V30 6179 C 629.755 0.69849 1.82703 0
M  V30 6180 O 630.961 0.836407 2.58295 0
M  V30 6181 C 629.417 3.22707 1.59336 0
M  V30 6182 C 629.025 4.42859 0.676719 0
M  V30 6183 C 630.769 3.57242 2.293 0
M  V30 6184 C 628.676 5.74501 1.40367 0
M  V30 6185 H 627.606 0.679057 0.327715 0
M  V30 6186 H 630.257 1.83105 0.120351 0
M  V30 6187 H 628.639 3.16054 2.38591 0
M  V30 6188 H 629.813 4.60731 -0.0800196 0
M  V30 6189 H 628.128 4.16311 0.0859129 0
M  V30 6190 H 630.725 4.52847 2.84312 0
M  V30 6191 H 631.068 2.82901 3.05406 0
M  V30 6192 H 631.601 3.6552 1.56972 0
M  V30 6193 H 628.34 6.51915 0.684623 0
M  V30 6194 H 627.86 5.60579 2.13332 0
M  V30 6195 H 629.539 6.17016 1.94681 0
M  V30 6196 N 629.671 -0.424282 1.51781 0
M  V30 6197 C 630.948 -1.18464 1.55646 0
M  V30 6198 C 631.328 -2.08529 0.328438 0
M  V30 6199 O 630.676 -2.17969 -0.685693 0
M  V30 6200 C 630.886 -1.97514 2.87731 0
M  V30 6201 C 632.234 -2.54106 3.40169 0
M  V30 6202 O 633.258 -2.07711 2.89369 0
M  V30 6203 O 632.117 -3.38759 4.28841 0
M  V30 6204 H 629.211 -0.540055 0.626314 0
M  V30 6205 H 631.757 -0.432291 1.64102 0
M  V30 6206 H 630.529 -1.31444 3.68562 0
M  V30 6207 H 630.152 -2.79787 2.82498 0
M  V30 6208 N 631.149 -1.42148 -0.680565 0
M  V30 6209 C 632.389 -1.4379 -1.45271 0
M  V30 6210 C 632.753 -0.0504426 -1.91934 0
M  V30 6211 O 633.954 0.0583916 -2.68737 0
M  V30 6212 C 632.225 -2.42904 -2.62168 0
M  V30 6213 S 633.784 -2.63201 -3.51099 0
M  V30 6214 H 630.602 -0.509185 -0.496237 0
M  V30 6215 H 633.204 -1.78706 -0.792744 0
M  V30 6216 H 631.908 -3.4249 -2.26116 0
M  V30 6217 H 631.439 -2.09394 -3.33043 0
M  V30 6218 H 633.454 -1.91068 -4.57938 0
M  V30 6219 N 632.627 0.916307 -1.28225 0
M  V30 6220 C 633.575 2.03977 -1.11786 0
M  V30 6221 C 634.569 1.69358 -0.0378265 0
M  V30 6222 O 635.775 1.78925 -0.196405 0
M  V30 6223 H 632.15 0.66829 -0.344809 0
M  V30 6224 H 634.121 2.14985 -2.06939 0
M  V30 6225 C 632.87 3.38518 -0.7938 0
M  V30 6226 H 632.193 3.65649 -1.61682 0
M  V30 6227 H 633.633 4.17864 -0.718719 0
M  V30 6228 C 632.092 3.33134 0.502353 0
M  V30 6229 O 632.622 3.71281 1.53341 0
M  V30 6230 N 630.828 2.86229 0.502147 0
M  V30 6231 H 630.375 2.55382 -0.337338 0
M  V30 6232 H 630.333 2.83009 1.36942 0
M  V30 6233 N 634.105 1.10431 1.1244 0
M  V30 6234 C 635.351 0.847972 1.84221 0
M  V30 6235 C 635.684 -0.624903 1.83871 0
M  V30 6236 O 634.959 -1.46074 1.28423 0
M  V30 6237 C 635.242 1.39695 3.319 0
M  V30 6238 C 635.095 2.93668 3.40704 0
M  V30 6239 C 636.414 1.03924 4.27654 0
M  V30 6240 H 633.533 0.309502 0.668863 0
M  V30 6241 H 636.175 1.36745 1.31912 0
M  V30 6242 H 634.325 0.955095 3.76577 0
M  V30 6243 H 635.997 3.46379 3.04662 0
M  V30 6244 H 634.24 3.30272 2.81252 0
M  V30 6245 H 634.911 3.27162 4.446 0
M  V30 6246 H 637.387 1.42049 3.91102 0
M  V30 6247 H 636.263 1.45027 5.29394 0
M  V30 6248 H 636.524 -0.051336 4.4207 0
M  V30 6249 N 635.583 -1.29855 0.893053 0
M  V30 6250 C 636.546 -2.26183 0.370687 0
M  V30 6251 C 637.546 -1.53108 -0.491385 0
M  V30 6252 O 638.736 -1.71643 -0.297386 0
M  V30 6253 C 635.868 -3.37633 -0.470827 0
M  V30 6254 H 637.061 -2.73903 1.22135 0
M  V30 6255 H 634.614 -1.41183 0.67061 0
M  V30 6256 H 635.349 -2.95241 -1.34175 0
M  V30 6257 H 635.134 -3.91825 0.146784 0
M  V30 6258 H 636.624 -4.09313 -0.827825 0
M  V30 6259 N 637.061 -0.65484 -1.43351 0
M  V30 6260 C 638.307 -0.169142 -2.02093 0
M  V30 6261 C 638.64 1.21431 -1.51553 0
M  V30 6262 O 637.915 1.81105 -0.709317 0
M  V30 6263 C 638.198 -0.181775 -3.59641 0
M  V30 6264 C 638.051 -1.59926 -4.20409 0
M  V30 6265 C 639.37 0.480945 -4.37464 0
M  V30 6266 H 636.489 -0.0629371 -0.734308 0
M  V30 6267 H 639.131 -0.835833 -1.70628 0
M  V30 6268 H 637.281 0.385918 -3.86578 0
M  V30 6269 H 638.953 -2.21766 -4.04497 0
M  V30 6270 H 637.196 -2.14605 -3.76998 0
M  V30 6271 H 637.867 -1.55994 -5.295 0
M  V30 6272 H 640.343 -0.00208273 -4.161 0
M  V30 6273 H 639.219 0.441384 -5.47122 0
M  V30 6274 H 639.48 1.55533 -4.13838 0
M  V30 6275 N 638.539 1.52521 -0.396863 0
M  V30 6276 C 639.449 2.30403 0.44178 0
M  V30 6277 C 640.465 1.37625 1.06468 0
M  V30 6278 O 641.641 1.70697 1.06886 0
M  V30 6279 C 638.706 3.1013 1.54986 0
M  V30 6280 C 637.767 4.18628 0.951279 0
M  V30 6281 C 637 4.94543 2.00655 0
M  V30 6282 O 637.223 4.70629 3.22281 0
M  V30 6283 O 636.157 5.797 1.61962 0
M  V30 6284 H 639.983 3.03087 -0.192892 0
M  V30 6285 H 637.568 1.48537 -0.16038 0
M  V30 6286 H 639.45 3.59816 2.19341 0
M  V30 6287 H 638.125 2.40251 2.16935 0
M  V30 6288 H 637.032 3.73119 0.270773 0
M  V30 6289 H 638.365 4.90763 0.375887 0
M  V30 6290 N 640.017 0.126909 1.57088 0
M  V30 6291 C 640.949 -0.850973 2.12817 0
M  V30 6292 C 641.962 -1.22457 1.07276 0
M  V30 6293 O 643.151 -1.17215 1.34622 0
M  V30 6294 C 640.251 -2.15039 2.61938 0
M  V30 6295 C 639.424 -1.94726 3.91664 0
M  V30 6296 C 638.483 -3.0847 4.26301 0
M  V30 6297 O 637.509 -2.81038 4.94981 0
M  V30 6298 N 638.711 -4.35116 3.84259 0
M  V30 6299 H 641.476 -0.3748 2.97347 0
M  V30 6300 H 639.037 -0.0572793 1.61799 0
M  V30 6301 H 641.029 -2.90141 2.82135 0
M  V30 6302 H 639.599 -2.5398 1.82244 0
M  V30 6303 H 638.819 -1.03772 3.80296 0
M  V30 6304 H 640.107 -1.78469 4.76473 0
M  V30 6305 H 639.505 -4.60276 3.2888 0
M  V30 6306 H 638.062 -5.07064 4.09548 0
M  V30 6307 N 641.495 -1.56914 -0.146875 0
M  V30 6308 C 642.725 -1.87243 -0.873126 0
M  V30 6309 C 643.133 -0.713127 -1.75246 0
M  V30 6310 O 642.476 0.326228 -1.8078 0
M  V30 6311 C 642.538 -3.12279 -1.78107 0
M  V30 6312 C 642.202 -4.44082 -1.07889 0
M  V30 6313 C 643.199 -5.18096 -0.432734 0
M  V30 6314 C 640.884 -4.90807 -1.06836 0
M  V30 6315 C 642.878 -6.37039 0.214569 0
M  V30 6316 C 640.565 -6.09674 -0.417243 0
M  V30 6317 C 641.563 -6.82636 0.223093 0
M  V30 6318 O 641.251 -7.99245 0.863884 0
M  V30 6319 H 640.983 -0.624896 -0.257839 0
M  V30 6320 H 643.537 -2.04892 -0.14434 0
M  V30 6321 H 641.767 -2.90639 -2.5508 0
M  V30 6322 H 643.456 -3.28854 -2.37929 0
M  V30 6323 H 644.222 -4.83066 -0.432677 0
M  V30 6324 H 640.101 -4.3394 -1.55618 0
M  V30 6325 H 643.645 -6.93927 0.714965 0
M  V30 6326 H 639.542 -6.44165 -0.414967 0
M  V30 6327 H 640.31 -8.14912 0.765564 0
M  V30 6328 N 642.974 0.416227 -1.52004 0
M  V30 6329 C 644.22 1.16555 -1.6596 0
M  V30 6330 C 644.553 1.90347 -0.384906 0
M  V30 6331 O 643.828 1.84474 0.616405 0
M  V30 6332 C 644.111 2.1657 -2.87696 0
M  V30 6333 C 643.964 1.46722 -4.25197 0
M  V30 6334 C 645.283 3.17321 -3.04951 0
M  V30 6335 H 642.402 0.422369 -0.603965 0
M  V30 6336 H 645.044 0.452141 -1.84542 0
M  V30 6337 H 643.194 2.77411 -2.71985 0
M  V30 6338 H 644.866 0.89056 -4.52622 0
M  V30 6339 H 643.109 0.769263 -4.26925 0
M  V30 6340 H 643.78 2.19665 -5.0641 0
M  V30 6341 H 646.256 2.66552 -3.19514 0
M  V30 6342 H 645.132 3.84573 -3.91656 0
M  V30 6343 H 645.393 3.84643 -2.17951 0
M  V30 6344 N 644.452 1.42507 0.673017 0
M  V30 6345 C 645.729 1.33554 1.42908 0
M  V30 6346 C 646.109 -0.0262211 2.11084 0
M  V30 6347 O 645.457 -1.04181 2.03368 0
M  V30 6348 C 645.667 2.50498 2.43006 0
M  V30 6349 C 647.015 2.92694 3.07596 0
M  V30 6350 O 648.039 2.50401 2.53333 0
M  V30 6351 O 646.898 3.65899 4.05931 0
M  V30 6352 H 643.992 0.526785 0.637516 0
M  V30 6353 H 646.538 1.54518 0.701591 0
M  V30 6354 H 645.31 3.41272 1.9144 0
M  V30 6355 H 644.933 2.3153 3.23233 0
M  V30 6356 N 645.93 -0.909495 1.28709 0
M  V30 6357 C 647.177 -1.65905 1.16111 0
M  V30 6358 C 647.505 -1.92334 -0.289436 0
M  V30 6359 O 646.76 -1.52495 -1.22653 0
M  V30 6360 C 647.059 -3.02117 1.90945 0
M  V30 6361 C 646.725 -2.95332 3.40719 0
M  V30 6362 C 645.387 -2.93189 3.81567 0
M  V30 6363 C 647.739 -2.85264 4.36204 0
M  V30 6364 C 645.067 -2.78784 5.16233 0
M  V30 6365 C 647.419 -2.724 5.70948 0
M  V30 6366 C 646.083 -2.68617 6.11066 0
M  V30 6367 H 645.353 -0.60709 0.42488 0
M  V30 6368 H 648 -1.05932 1.59533 0
M  V30 6369 H 646.305 -3.65901 1.40085 0
M  V30 6370 H 648.002 -3.59026 1.7861 0
M  V30 6371 H 644.592 -2.97797 3.08245 0
M  V30 6372 H 648.776 -2.86005 4.05605 0
M  V30 6373 H 644.032 -2.74254 5.46438 0
M  V30 6374 H 648.206 -2.63579 6.44592 0
M  V30 6375 H 645.833 -2.57213 7.15364 0
M  V30 6376 N 647.408 -1.11026 -1.11852 0
M  V30 6377 C 648.633 -0.879064 -1.87849 0
M  V30 6378 C 649.058 0.565406 -1.79401 0
M  V30 6379 O 648.416 1.39886 -1.15333 0
M  V30 6380 C 648.464 -1.33985 -3.34784 0
M  V30 6381 O 647.568 -0.508803 -4.09249 0
M  V30 6382 H 646.909 -0.316992 -0.583448 0
M  V30 6383 H 649.439 -1.47863 -1.41413 0
M  V30 6384 H 649.449 -1.33248 -3.85628 0
M  V30 6385 H 648.124 -2.39172 -3.40249 0
M  V30 6386 H 646.701 -0.581913 -3.68332 0
M  V30 6387 N 648.886 1.2938 -0.899927 0
M  V30 6388 C 649.816 2.30144 -0.39446 0
M  V30 6389 C 650.797 1.61611 0.530639 0
M  V30 6390 O 651.982 1.89119 0.441319 0
M  V30 6391 C 649.112 3.45229 0.37868 0
M  V30 6392 C 648.066 4.25564 -0.456012 0
M  V30 6393 C 647.392 5.32848 0.444637 0
M  V30 6394 C 648.692 4.93651 -1.70605 0
M  V30 6395 H 650.386 2.72673 -1.23653 0
M  V30 6396 H 647.932 1.31086 -0.596034 0
M  V30 6397 H 649.885 4.14797 0.743037 0
M  V30 6398 H 648.609 3.01545 1.25453 0
M  V30 6399 H 647.268 3.57704 -0.802704 0
M  V30 6400 H 646.916 4.85408 1.31863 0
M  V30 6401 H 646.616 5.87497 -0.110154 0
M  V30 6402 H 648.14 6.05268 0.805182 0
M  V30 6403 H 649.554 5.55655 -1.41141 0
M  V30 6404 H 647.951 5.58233 -2.20217 0
M  V30 6405 H 649.021 4.18926 -2.4419 0
M  V30 6406 N 650.364 0.662433 1.43002 0
M  V30 6407 C 651.641 0.109096 1.95296 0
M  V30 6408 C 652.021 -1.37313 1.60338 0
M  V30 6409 O 651.369 -2.1032 0.893187 0
M  V30 6410 C 651.579 0.365096 3.47085 0
M  V30 6411 C 652.927 0.274964 4.23709 0
M  V30 6412 O 653.951 0.29816 3.5495 0
M  V30 6413 O 652.81 0.206549 5.4611 0
M  V30 6414 H 649.904 -0.00429724 0.826989 0
M  V30 6415 H 652.45 0.736308 1.52894 0
M  V30 6416 H 651.222 1.39237 3.65689 0
M  V30 6417 H 650.845 -0.294733 3.96506 0
M  V30 6418 N 651.842 -1.52309 0.404946 0
M  V30 6419 C 653.253 -1.86585 -0.0655926 0
M  V30 6420 C 653.604 -1.3239 -1.44801 0
M  V30 6421 O 652.729 -0.6615 -2.06042 0
M  V30 6422 C 653.324 -3.38566 -0.125801 0
M  V30 6423 C 651.883 -3.72497 -0.540666 0
M  V30 6424 C 651.03 -2.75806 0.287487 0
M  V30 6425 H 653.981 -1.45995 0.622185 0
M  V30 6426 H 654.002 -3.68658 -0.941888 0
M  V30 6427 H 653.514 -3.77981 0.880473 0
M  V30 6428 H 651.615 -3.38659 -1.55373 0
M  V30 6429 H 651.728 -4.78234 -0.287956 0
M  V30 6430 H 650.092 -2.53474 -0.249561 0
M  V30 6431 H 650.875 -3.18059 1.29203 0
M  V30 6432 N 653.32 -0.135238 -1.57019 0
M  V30 6433 C 654.548 0.526066 -2.001 0
M  V30 6434 C 654.963 1.59184 -1.01519 0
M  V30 6435 O 654.32 1.82497 -0.0104258 0
M  V30 6436 C 654.371 1.13744 -3.43139 0
M  V30 6437 O 654.092 0.114259 -4.37951 0
M  V30 6438 C 655.593 1.8805 -4.01438 0
M  V30 6439 H 652.813 0.137962 -0.656664 0
M  V30 6440 H 655.357 -0.226359 -2.03243 0
M  V30 6441 H 653.512 1.84056 -3.40885 0
M  V30 6442 H 653.926 0.56058 -5.21496 0
M  V30 6443 H 655.4 2.26133 -5.03555 0
M  V30 6444 H 655.877 2.76194 -3.41487 0
M  V30 6445 H 656.483 1.22464 -4.07287 0
M  V30 6446 N 654.798 1.5699 0.138552 0
M  V30 6447 C 656.045 1.83809 0.849732 0
M  V30 6448 C 656.373 0.717409 1.80786 0
M  V30 6449 O 655.628 -0.292897 1.93496 0
M  V30 6450 C 655.927 3.17007 1.65049 0
M  V30 6451 C 655.593 4.43037 0.838398 0
M  V30 6452 C 654.255 4.77262 0.614385 0
M  V30 6453 C 656.607 5.20495 0.271044 0
M  V30 6454 C 653.935 5.864 -0.187552 0
M  V30 6455 C 656.287 6.30476 -0.517979 0
M  V30 6456 C 654.951 6.63245 -0.75249 0
M  V30 6457 H 654.221 0.672605 0.310939 0
M  V30 6458 H 656.868 1.91166 0.112971 0
M  V30 6459 H 655.173 3.05138 2.4576 0
M  V30 6460 H 656.87 3.34975 2.20437 0
M  V30 6461 H 653.46 4.16211 1.02307 0
M  V30 6462 H 657.644 4.94422 0.431371 0
M  V30 6463 H 652.9 6.10226 -0.378659 0
M  V30 6464 H 657.074 6.89686 -0.964694 0
M  V30 6465 H 654.701 7.47648 -1.37573 0
M  V30 6466 N 656.276 -0.40816 1.52223 0
M  V30 6467 C 657.501 -1.18127 1.70472 0
M  V30 6468 C 657.926 -1.83491 0.41384 0
M  V30 6469 O 657.284 -1.70047 -0.628778 0
M  V30 6470 C 657.332 -2.21935 2.84213 0
M  V30 6471 O 656.436 -3.28099 2.4985 0
M  V30 6472 H 655.777 -0.344781 0.56747 0
M  V30 6473 H 658.307 -0.478328 1.9893 0
M  V30 6474 H 658.317 -2.66248 3.09153 0
M  V30 6475 H 656.992 -1.73744 3.7787 0
M  V30 6476 H 655.569 -2.89058 2.35584 0
M  V30 6477 N 657.755 -1.42862 -0.66545 0
M  V30 6478 C 659.004 -1.43119 -1.42126 0
M  V30 6479 C 659.317 -0.0545297 -1.95524 0
M  V30 6480 O 660.523 0.0654747 -2.71421 0
M  V30 6481 C 658.979 -2.51797 -2.5715 0
M  V30 6482 C 658.587 -3.95514 -2.10411 0
M  V30 6483 C 660.331 -2.61233 -3.346 0
M  V30 6484 C 658.238 -4.95682 -3.22573 0
M  V30 6485 H 657.168 -0.532349 -0.533966 0
M  V30 6486 H 659.819 -1.68806 -0.719506 0
M  V30 6487 H 658.201 -2.19292 -3.29738 0
M  V30 6488 H 659.375 -4.3742 -1.44915 0
M  V30 6489 H 657.69 -3.90012 -1.45874 0
M  V30 6490 H 660.287 -3.33248 -4.18151 0
M  V30 6491 H 660.63 -1.65896 -3.81817 0
M  V30 6492 H 661.163 -2.9298 -2.69087 0
M  V30 6493 H 657.902 -5.92529 -2.80338 0
M  V30 6494 H 657.422 -4.58399 -3.86821 0
M  V30 6495 H 659.101 -5.17828 -3.87896 0
M  V30 6496 N 659.233 0.902656 -1.29189 0
M  V30 6497 C 660.143 2.03946 -1.15944 0
M  V30 6498 C 661.159 1.738 -0.0833803 0
M  V30 6499 O 662.335 1.9923 -0.29487 0
M  V30 6500 C 659.4 3.36519 -0.834006 0
M  V30 6501 C 658.461 3.80203 -1.9936 0
M  V30 6502 C 657.694 5.06449 -1.68359 0
M  V30 6503 O 657.917 5.67202 -0.603141 0
M  V30 6504 O 656.851 5.46114 -2.53067 0
M  V30 6505 H 660.677 2.18043 -2.11403 0
M  V30 6506 H 658.262 1.02584 -1.08613 0
M  V30 6507 H 660.144 4.16089 -0.666949 0
M  V30 6508 H 658.819 3.23573 0.0908245 0
M  V30 6509 H 657.726 3.01413 -2.21588 0
M  V30 6510 H 659.059 3.97729 -2.89952 0
M  V30 6511 N 660.711 1.11618 1.11262 0
M  V30 6512 C 661.939 0.888739 1.8684 0
M  V30 6513 C 662.354 -0.561558 1.80255 0
M  V30 6514 O 661.711 -1.38782 1.18515 0
M  V30 6515 C 661.762 1.34422 3.35579 0
M  V30 6516 O 661.483 2.73766 3.42029 0
M  V30 6517 C 662.984 1.15246 4.28058 0
M  V30 6518 H 660.204 0.318152 0.590779 0
M  V30 6519 H 662.748 1.48398 1.40707 0
M  V30 6520 H 660.903 0.79239 3.7921 0
M  V30 6521 H 661.317 2.9355 4.34659 0
M  V30 6522 H 662.791 1.52015 5.30656 0
M  V30 6523 H 663.268 0.0922007 4.39103 0
M  V30 6524 H 663.874 1.69136 3.90222 0
M  V30 6525 N 662.189 -1.289 0.906776 0
M  V30 6526 C 663.605 -1.47733 0.603902 0
M  V30 6527 C 663.805 -1.82568 -0.852702 0
M  V30 6528 O 662.861 -1.92642 -1.63234 0
M  V30 6529 C 664.174 -2.58522 1.53581 0
M  V30 6530 C 665.722 -2.72394 1.54177 0
M  V30 6531 C 666.197 -3.86318 2.46013 0
M  V30 6532 N 667.688 -3.93661 2.441 0
M  V30 6533 C 668.423 -4.81177 3.11859 0
M  V30 6534 N 667.919 -5.73333 3.88923 0
M  V30 6535 N 669.712 -4.74728 3.00981 0
M  V30 6536 H 661.863 -1.04567 1.84877 0
M  V30 6537 H 664.126 -0.520118 0.792579 0
M  V30 6538 H 663.832 -2.39667 2.57396 0
M  V30 6539 H 663.706 -3.55475 1.26165 0
M  V30 6540 H 666.093 -2.90641 0.511034 0
M  V30 6541 H 666.174 -1.75993 1.85634 0
M  V30 6542 H 665.818 -3.68826 3.49185 0
M  V30 6543 H 665.748 -4.82102 2.11862 0
M  V30 6544 H 668.239 -3.27751 1.88115 0
M  V30 6545 H 668.552 -6.36923 4.37663 0
M  V30 6546 H 666.897 -5.73196 3.93029 0
M  V30 6547 H 670.088 -4.01722 2.40286 0
M  V30 6548 H 670.261 -5.42719 3.54062 0
M  V30 6549 N 663.667 -0.670007 -1.42649 0
M  V30 6550 C 664.895 -0.19854 -2.05945 0
M  V30 6551 C 665.31 1.14243 -1.50313 0
M  V30 6552 O 664.667 1.70872 -0.641027 0
M  V30 6553 C 664.718 -0.11966 -3.61302 0
M  V30 6554 O 664.439 -1.40764 -4.1487 0
M  V30 6555 C 665.94 0.375878 -4.41704 0
M  V30 6556 H 663.16 -0.0976894 -0.663851 0
M  V30 6557 H 665.704 -0.915392 -1.82868 0
M  V30 6558 H 663.859 0.547851 -3.83507 0
M  V30 6559 H 664.273 -1.27784 -5.08696 0
M  V30 6560 H 665.747 0.379988 -5.50691 0
M  V30 6561 H 666.224 1.41028 -4.15942 0
M  V30 6562 H 666.83 -0.259727 -4.24506 0
M  V30 6563 N 665.145 1.52092 -0.413018 0
M  V30 6564 C 666.108 2.25706 0.398687 0
M  V30 6565 C 667.108 1.28221 0.970368 0
M  V30 6566 O 668.298 1.52131 0.848635 0
M  V30 6567 C 665.43 3.03029 1.5616 0
M  V30 6568 H 666.623 2.98888 -0.246131 0
M  V30 6569 H 664.176 1.5542 -0.165622 0
M  V30 6570 H 664.911 2.34205 2.24317 0
M  V30 6571 H 664.696 3.74606 1.15812 0
M  V30 6572 H 666.186 3.58857 2.13569 0
M  V30 6573 N 666.623 0.143563 1.56945 0
M  V30 6574 C 668.034 -0.37783 1.82837 0
M  V30 6575 C 668.385 -1.64967 1.06209 0
M  V30 6576 O 667.51 -2.14221 0.306291 0
M  V30 6577 C 668.105 -0.692274 3.31652 0
M  V30 6578 C 666.664 -1.1582 3.58138 0
M  V30 6579 C 665.811 -0.17951 2.76718 0
M  V30 6580 H 668.762 0.368317 1.54367 0
M  V30 6581 H 668.783 -1.54729 3.47619 0
M  V30 6582 H 668.295 0.233572 3.87397 0
M  V30 6583 H 666.396 -2.10011 3.07776 0
M  V30 6584 H 666.509 -1.08655 4.66616 0
M  V30 6585 H 664.873 -0.671458 2.4569 0
M  V30 6586 H 665.656 0.739865 3.35233 0
M  V30 6587 N 668.101 -1.57061 -0.130224 0
M  V30 6588 C 669.033 -1.96147 -1.18571 0
M  V30 6589 C 670.046 -0.859347 -1.38272 0
M  V30 6590 O 671.235 -1.13769 -1.37545 0
M  V30 6591 C 668.335 -2.23484 -2.54771 0
M  V30 6592 C 667.508 -3.54786 -2.55824 0
M  V30 6593 C 666.567 -3.70467 -3.73686 0
M  V30 6594 O 665.593 -4.42693 -3.57787 0
M  V30 6595 N 666.795 -3.08389 -4.91809 0
M  V30 6596 H 669.56 -2.87295 -0.853333 0
M  V30 6597 H 667.121 -1.58714 -0.319621 0
M  V30 6598 H 669.113 -2.312 -3.32158 0
M  V30 6599 H 667.683 -1.38518 -2.80235 0
M  V30 6600 H 666.903 -3.5836 -1.64232 0
M  V30 6601 H 668.191 -4.4111 -2.53573 0
M  V30 6602 H 667.589 -2.49656 -5.0763 0
M  V30 6603 H 666.146 -3.21642 -5.66912 0
M  V30 6604 N 669.579 0.400081 -1.52437 0
M  V30 6605 C 670.856 1.15973 -1.57511 0
M  V30 6606 C 671.236 2.0798 -0.361572 0
M  V30 6607 O 670.584 2.19032 0.650929 0
M  V30 6608 C 670.794 1.92912 -2.90837 0
M  V30 6609 C 672.142 2.48662 -3.44169 0
M  V30 6610 O 673.166 2.03081 -2.92637 0
M  V30 6611 O 672.025 3.31894 -4.34176 0
M  V30 6612 H 669.119 0.530023 -0.634827 0
M  V30 6613 H 671.665 0.40613 -1.64769 0
M  V30 6614 H 670.437 1.25564 -3.70607 0
M  V30 6615 H 670.06 2.75257 -2.86913 0
M  V30 6616 N 671.057 1.43213 0.657864 0
M  V30 6617 C 672.02 1.47687 1.75275 0
M  V30 6618 C 673.02 0.362179 1.56668 0
M  V30 6619 O 674.21 0.623734 1.62651 0
M  V30 6620 C 671.342 1.32497 3.14098 0
M  V30 6621 H 672.535 2.4519 1.7269 0
M  V30 6622 H 670.088 1.2991 0.869087 0
M  V30 6623 H 670.823 0.359831 3.22298 0
M  V30 6624 H 670.608 2.13299 3.29008 0
M  V30 6625 H 672.098 1.38549 3.93946 0
M  V30 6626 N 672.536 -0.895792 1.29666 0
M  V30 6627 C 673.782 -1.64908 1.18039 0
M  V30 6628 C 674.115 -1.9236 -0.266682 0
M  V30 6629 O 673.39 -1.53682 -1.19214 0
M  V30 6630 C 673.673 -2.99574 1.99819 0
M  V30 6631 C 673.526 -2.79163 3.52687 0
M  V30 6632 C 674.845 -4.00358 1.82761 0
M  V30 6633 H 671.964 -0.598437 0.430165 0
M  V30 6634 H 674.606 -1.03736 1.59182 0
M  V30 6635 H 672.756 -3.51786 1.64859 0
M  V30 6636 H 674.428 -2.33821 3.9765 0
M  V30 6637 H 672.671 -2.13871 3.77414 0
M  V30 6638 H 673.342 -3.74871 4.05186 0
M  V30 6639 H 675.818 -3.57268 2.13304 0
M  V30 6640 H 674.694 -4.92514 2.42325 0
M  V30 6641 H 674.955 -4.35096 0.783839 0
M  V30 6642 N 674.014 -1.12206 -1.10668 0
M  V30 6643 C 675.239 -0.898938 -1.86906 0
M  V30 6644 C 675.664 0.546346 -1.79991 0
M  V30 6645 O 675.022 1.38655 -1.1681 0
M  V30 6646 C 675.07 -1.37529 -3.33344 0
M  V30 6647 O 674.174 -0.55218 -4.08687 0
M  V30 6648 H 673.515 -0.323163 -0.580053 0
M  V30 6649 H 676.045 -1.49355 -1.39837 0
M  V30 6650 H 676.055 -1.3733 -3.84193 0
M  V30 6651 H 674.73 -2.42767 -3.37693 0
M  V30 6652 H 673.307 -0.620947 -3.67694 0
M  V30 6653 N 675.492 1.28418 -0.913599 0
M  V30 6654 C 676.908 1.47411 -0.611728 0
M  V30 6655 C 677.108 1.83018 0.843008 0
M  V30 6656 O 676.164 1.93505 1.6221 0
M  V30 6657 C 677.477 2.57703 -1.5495 0
M  V30 6658 C 679.025 2.71572 -1.5562 0
M  V30 6659 C 679.5 3.85008 -2.48058 0
M  V30 6660 N 680.991 3.92361 -2.46184 0
M  V30 6661 C 681.726 4.79516 -3.14407 0
M  V30 6662 N 681.222 5.71262 -3.91958 0
M  V30 6663 N 683.015 4.73125 -3.03495 0
M  V30 6664 H 675.166 1.03585 -1.85429 0
M  V30 6665 H 677.429 0.515907 -0.795326 0
M  V30 6666 H 677.135 2.38298 -2.58663 0
M  V30 6667 H 677.009 3.54801 -1.28048 0
M  V30 6668 H 679.396 2.90366 -0.526441 0
M  V30 6669 H 679.477 1.75006 -1.86565 0
M  V30 6670 H 679.121 3.66969 -3.51136 0
M  V30 6671 H 679.051 4.80971 -2.14416 0
M  V30 6672 H 681.542 3.26749 -1.89851 0
M  V30 6673 H 681.855 6.34593 -4.41034 0
M  V30 6674 H 680.2 5.71103 -3.96063 0
M  V30 6675 H 683.391 4.00442 -2.42413 0
M  V30 6676 H 683.564 5.40834 -3.56935 0
M  V30 6677 N 676.97 0.677563 1.42291 0
M  V30 6678 C 678.195 0.207901 2.06355 0
M  V30 6679 C 678.62 -1.12723 1.50583 0
M  V30 6680 O 677.978 -1.70171 0.62543 0
M  V30 6681 C 678.026 0.156489 3.6026 0
M  V30 6682 O 677.13 -0.874162 4.03029 0
M  V30 6683 H 676.471 0.106056 0.655475 0
M  V30 6684 H 679.001 0.927354 1.82377 0
M  V30 6685 H 679.011 -0.0187258 4.07996 0
M  V30 6686 H 677.686 1.13101 4.00226 0
M  V30 6687 H 676.263 -0.669764 3.66836 0
M  V30 6688 N 678.448 -1.51871 0.421078 0
M  V30 6689 C 679.38 -2.25052 -0.434065 0
M  V30 6690 C 680.393 -1.28458 -1.00013 0
M  V30 6691 O 681.582 -1.54323 -0.897033 0
M  V30 6692 C 678.682 -2.97813 -1.61743 0
M  V30 6693 C 677.855 -4.21374 -1.17315 0
M  V30 6694 C 676.914 -4.76854 -2.22478 0
M  V30 6695 O 675.94 -5.39123 -1.82577 0
M  V30 6696 N 677.142 -4.59467 -3.54782 0
M  V30 6697 H 679.907 -2.99077 0.193073 0
M  V30 6698 H 677.468 -1.59972 0.249088 0
M  V30 6699 H 679.46 -3.3182 -2.31685 0
M  V30 6700 H 678.03 -2.26899 -2.15024 0
M  V30 6701 H 677.25 -3.93046 -0.3014 0
M  V30 6702 H 678.538 -5.01591 -0.853444 0
M  V30 6703 H 677.936 -4.09832 -3.89941 0
M  V30 6704 H 676.493 -4.9788 -4.20665 0
M  V30 6705 N 679.926 -0.151884 -1.56866 0
M  V30 6706 C 681.342 0.204486 -1.58285 0
M  V30 6707 C 681.542 1.6431 -1.16639 0
M  V30 6708 O 680.598 2.37077 -0.868946 0
M  V30 6709 C 681.911 -0.0587019 -3.00643 0
M  V30 6710 C 683.459 0.00462303 -3.13 0
M  V30 6711 C 683.934 -0.231297 -4.57416 0
M  V30 6712 N 685.425 -0.178394 -4.62856 0
M  V30 6713 C 686.16 -0.335379 -5.72418 0
M  V30 6714 N 685.656 -0.550355 -6.90611 0
M  V30 6715 N 687.449 -0.272641 -5.61438 0
M  V30 6716 H 679.6 -1.09116 -1.82229 0
M  V30 6717 H 681.863 -0.432311 -0.843689 0
M  V30 6718 H 681.569 -1.05453 -3.35518 0
M  V30 6719 H 681.443 0.658508 -3.71407 0
M  V30 6720 H 683.83 0.991009 -2.77962 0
M  V30 6721 H 683.911 -0.744992 -2.44711 0
M  V30 6722 H 683.555 -1.2148 -4.93158 0
M  V30 6723 H 683.485 0.5387 -5.23837 0
M  V30 6724 H 685.976 -0.0170923 -3.77896 0
M  V30 6725 H 686.289 -0.660116 -7.69976 0
M  V30 6726 H 684.634 -0.586736 -6.92519 0
M  V30 6727 H 687.825 -0.105421 -4.67981 0
M  V30 6728 H 687.998 -0.398418 -6.46774 0
M  V30 6729 N 681.404 1.57128 0.121893 0
M  V30 6730 C 682.82 1.52357 0.47534 0
M  V30 6731 C 683.02 0.864417 1.82017 0
M  V30 6732 O 682.076 0.445529 2.48538 0
M  V30 6733 C 683.389 2.97122 0.4625 0
M  V30 6734 C 684.937 3.08196 0.546255 0
M  V30 6735 C 685.412 4.54516 0.563833 0
M  V30 6736 N 686.903 4.58959 0.625353 0
M  V30 6737 C 687.638 5.69585 0.660354 0
M  V30 6738 N 687.134 6.89714 0.653175 0
M  V30 6739 N 688.927 5.57685 0.703143 0
M  V30 6740 H 681.078 1.98364 -0.75931 0
M  V30 6741 H 683.341 0.905777 -0.279772 0
M  V30 6742 H 683.047 3.48706 -0.457943 0
M  V30 6743 H 682.921 3.54406 1.29136 0
M  V30 6744 H 685.308 2.56617 1.45712 0
M  V30 6745 H 685.389 2.53912 -0.310234 0
M  V30 6746 H 685.033 5.06741 -0.342974 0
M  V30 6747 H 684.963 5.06609 1.43716 0
M  V30 6748 H 687.454 3.72489 0.637182 0
M  V30 6749 H 687.767 7.69781 0.682425 0
M  V30 6750 H 686.112 6.92223 0.620646 0
M  V30 6751 H 689.303 4.62744 0.706095 0
M  V30 6752 H 689.476 6.43909 0.726952 0
M  V30 6753 N 682.882 -0.391992 1.52647 0
M  V30 6754 C 684.13 -1.13507 1.67214 0
M  V30 6755 C 684.451 -1.90575 0.41304 0
M  V30 6756 O 683.721 -1.87348 -0.572498 0
M  V30 6757 H 682.301 -0.422013 0.616372 0
M  V30 6758 H 684.963 -0.44502 1.89751 0
M  V30 6759 H 684.059 -1.83964 2.52118 0
M  V30 6760 N 684.36 -1.4356 -0.65026 0
M  V30 6761 C 685.776 -1.27025 -0.966269 0
M  V30 6762 C 685.976 -0.192117 -2.00582 0
M  V30 6763 O 685.032 0.428459 -2.48838 0
M  V30 6764 C 686.345 -2.63556 -1.44772 0
M  V30 6765 C 687.893 -2.71111 -1.56421 0
M  V30 6766 C 688.368 -4.08067 -2.07956 0
M  V30 6767 N 689.859 -4.10146 -2.15254 0
M  V30 6768 C 690.594 -5.12952 -2.56258 0
M  V30 6769 N 690.09 -6.26129 -2.96537 0
M  V30 6770 N 691.883 -5.00306 -2.56224 0
M  V30 6771 H 684.034 -2.12367 0.0375758 0
M  V30 6772 H 686.297 -0.946894 -0.0457782 0
M  V30 6773 H 686.003 -3.43429 -0.758271 0
M  V30 6774 H 685.877 -2.89152 -2.42221 0
M  V30 6775 H 688.264 -1.91569 -2.24467 0
M  V30 6776 H 688.345 -2.49277 -0.573967 0
M  V30 6777 H 687.989 -4.88077 -1.40511 0
M  V30 6778 H 687.919 -4.27266 -3.07817 0
M  V30 6779 H 690.41 -3.28453 -1.86887 0
M  V30 6780 H 690.723 -7.00403 -3.26582 0
M  V30 6781 H 689.068 -6.29597 -2.94334 0
M  V30 6782 H 692.259 -4.10952 -2.24135 0
M  V30 6783 H 692.432 -5.80553 -2.87857 0
M  V30 6784 N 685.838 0.888903 -1.30139 0
M  V30 6785 C 687.066 1.67358 -1.21651 0
M  V30 6786 C 687.481 1.87499 0.221246 0
M  V30 6787 O 686.838 1.41969 1.14677 0
M  V30 6788 C 686.889 3.05213 -1.93719 0
M  V30 6789 O 686.61 2.85984 -3.31881 0
M  V30 6790 C 688.111 3.9964 -1.9184 0
M  V30 6791 H 685.331 0.522365 -0.42116 0
M  V30 6792 H 687.875 1.11086 -1.71698 0
M  V30 6793 H 686.03 3.5823 -1.4748 0
M  V30 6794 H 686.444 3.73411 -3.68327 0
M  V30 6795 H 687.918 4.93749 -2.46811 0
M  V30 6796 H 688.395 4.29955 -0.896409 0
M  V30 6797 H 689.001 3.52558 -2.37872 0
M  V30 6798 N 687.317 1.12792 1.10072 0
M  V30 6799 C 688.565 0.883796 1.81751 0
M  V30 6800 C 688.886 -0.591891 1.858 0
M  V30 6801 O 688.156 -1.43017 1.33876 0
M  V30 6802 H 686.736 0.323978 0.673088 0
M  V30 6803 H 689.398 1.42314 1.33164 0
M  V30 6804 H 688.494 1.26863 2.85153 0
M  V30 6805 N 688.795 -1.27931 0.920396 0
M  V30 6806 C 690.211 -1.47085 0.619537 0
M  V30 6807 C 690.411 -1.83463 -0.833291 0
M  V30 6808 O 689.467 -1.94363 -1.61181 0
M  V30 6809 C 690.78 -2.56878 1.56314 0
M  V30 6810 C 692.328 -2.70743 1.57058 0
M  V30 6811 C 692.803 -3.83687 2.50097 0
M  V30 6812 N 694.294 -3.9105 2.48262 0
M  V30 6813 C 695.029 -4.77842 3.16945 0
M  V30 6814 N 694.525 -5.69176 3.94982 0
M  V30 6815 N 696.318 -4.71509 3.06 0
M  V30 6816 H 688.469 -1.02601 1.85975 0
M  V30 6817 H 690.732 -0.511682 0.798051 0
M  V30 6818 H 690.438 -2.36923 2.59923 0
M  V30 6819 H 690.312 -3.54117 1.29928 0
M  V30 6820 H 692.699 -2.90083 0.541832 0
M  V30 6821 H 692.78 -1.74015 1.8749 0
M  V30 6822 H 692.424 -3.65101 3.53077 0
M  V30 6823 H 692.354 -4.79827 2.16964 0
M  V30 6824 H 694.845 -3.25738 1.91581 0
M  V30 6825 H 695.158 -6.32245 4.44394 0
M  V30 6826 H 693.503 -5.68995 3.99086 0
M  V30 6827 H 696.694 -3.99151 2.44533 0
M  V30 6828 H 696.867 -5.38933 3.59799 0
M  V30 6829 N 690.273 -0.685099 -1.4193 0
M  V30 6830 C 691.521 -0.21124 -2.00993 0
M  V30 6831 C 691.842 1.18985 -1.54491 0
M  V30 6832 O 691.112 1.8009 -0.771 0
M  V30 6833 H 689.692 -0.0751059 -0.743215 0
M  V30 6834 H 692.354 -0.883915 -1.73704 0
M  V30 6835 H 691.45 -0.220513 -3.1132 0
M  V30 6836 N 691.751 1.51645 -0.429126 0
M  V30 6837 C 693.167 1.59394 -0.080994 0
M  V30 6838 C 693.367 1.44064 1.40882 0
M  V30 6839 O 692.423 1.27771 2.17786 0
M  V30 6840 C 693.736 2.94779 -0.593773 0
M  V30 6841 C 695.284 3.08067 -0.553494 0
M  V30 6842 C 695.759 4.45963 -1.04311 0
M  V30 6843 N 697.25 4.5226 -1.00076 0
M  V30 6844 C 697.985 5.57268 -1.35056 0
M  V30 6845 N 697.481 6.69734 -1.77282 0
M  V30 6846 N 699.274 5.47582 -1.26925 0
M  V30 6847 H 691.425 1.59856 -1.39857 0
M  V30 6848 H 693.688 0.753095 -0.575805 0
M  V30 6849 H 693.394 3.11342 -1.63583 0
M  V30 6850 H 693.268 3.77197 -0.0142202 0
M  V30 6851 H 695.655 2.91177 0.479556 0
M  V30 6852 H 695.736 2.27508 -1.16935 0
M  V30 6853 H 695.38 4.63598 -2.07459 0
M  V30 6854 H 695.31 5.25049 -0.403873 0
M  V30 6855 H 697.801 3.71537 -0.690564 0
M  V30 6856 H 698.114 7.4587 -2.02232 0
M  V30 6857 H 696.459 6.70963 -1.81202 0
M  V30 6858 H 699.65 4.58604 -0.93809 0
M  V30 6859 H 699.823 6.29308 -1.54516 0
M  V30 6860 N 693.229 0.160201 1.56784 0
M  V30 6861 C 694.159 -0.770264 2.2043 0
M  V30 6862 C 695.14 -1.24736 1.15651 0
M  V30 6863 O 696.325 -1.30253 1.44041 0
M  V30 6864 C 693.455 -2.00427 2.83631 0
M  V30 6865 C 692.409 -1.66345 3.94352 0
M  V30 6866 C 691.735 -2.97119 4.4455 0
M  V30 6867 C 693.035 -0.899972 5.14488 0
M  V30 6868 H 694.729 -0.239783 2.98438 0
M  V30 6869 H 692.275 -0.113891 1.43549 0
M  V30 6870 H 694.228 -2.66012 3.26827 0
M  V30 6871 H 692.952 -2.5587 2.02973 0
M  V30 6872 H 691.611 -1.03133 3.51794 0
M  V30 6873 H 691.259 -3.5058 3.60698 0
M  V30 6874 H 690.959 -2.75073 5.19238 0
M  V30 6875 H 692.483 -3.63753 4.90425 0
M  V30 6876 H 693.897 -1.45818 5.54446 0
M  V30 6877 H 692.294 -0.778968 5.95023 0
M  V30 6878 H 693.364 0.105827 4.84785 0
M  V30 6879 N 694.707 -1.5719 -0.113559 0
M  V30 6880 C 695.955 -1.84772 -0.818761 0
M  V30 6881 C 696.276 -0.746196 -1.80158 0
M  V30 6882 O 695.546 0.229305 -1.94553 0
M  V30 6883 H 694.126 -0.681737 -0.305359 0
M  V30 6884 H 696.788 -1.94645 -0.0995845 0
M  V30 6885 H 695.884 -2.80878 -1.36067 0
M  V30 6886 N 696.185 0.383891 -1.52853 0
M  V30 6887 C 697.413 1.1495 -1.7203 0
M  V30 6888 C 697.828 1.83578 -0.440957 0
M  V30 6889 O 697.185 1.72872 0.584925 0
M  V30 6890 C 697.236 2.19368 -2.87333 0
M  V30 6891 O 696.957 1.53536 -4.10315 0
M  V30 6892 C 698.458 3.08616 -3.18231 0
M  V30 6893 H 695.678 0.344445 -0.575846 0
M  V30 6894 H 698.222 0.448397 -1.99524 0
M  V30 6895 H 696.377 2.85105 -2.62286 0
M  V30 6896 H 696.791 2.2296 -4.74752 0
M  V30 6897 H 698.265 3.77902 -4.02361 0
M  V30 6898 H 698.742 3.72409 -2.32826 0
M  V30 6899 H 699.348 2.48518 -3.45136 0
M  V30 6900 N 697.663 1.43903 0.642637 0
M  V30 6901 C 698.893 1.49323 1.4278 0
M  V30 6902 C 699.301 0.113058 1.88862 0
M  V30 6903 O 698.644 -0.889089 1.60751 0
M  V30 6904 C 698.706 2.3861 2.68897 0
M  V30 6905 C 698.37 3.85976 2.44687 0
M  V30 6906 C 699.367 4.7681 2.07239 0
M  V30 6907 C 697.052 4.30567 2.58683 0
M  V30 6908 C 699.046 6.10234 1.841 0
M  V30 6909 C 696.733 5.64042 2.35159 0
M  V30 6910 C 697.731 6.53693 1.97925 0
M  V30 6911 O 697.419 7.84698 1.74654 0
M  V30 6912 H 697.151 0.509109 0.444729 0
M  V30 6913 H 699.705 1.89425 0.794195 0
M  V30 6914 H 697.935 1.93415 3.34855 0
M  V30 6915 H 699.624 2.35112 3.30873 0
M  V30 6916 H 700.39 4.43635 1.95993 0
M  V30 6917 H 696.269 3.61054 2.86637 0
M  V30 6918 H 699.813 6.80171 1.54962 0
M  V30 6919 H 695.71 5.96782 2.46011 0
M  V30 6920 H 696.478 7.96382 1.88993 0
M  V30 6921 N 699.141 -0.881989 1.30609 0
M  V30 6922 C 700.557 -1.16576 1.09005 0
M  V30 6923 C 700.757 -2.00961 -0.14727 0
M  V30 6924 O 699.813 -2.38117 -0.840036 0
M  V30 6925 C 701.126 -1.86954 2.35518 0
M  V30 6926 C 702.674 -1.99706 2.41011 0
M  V30 6927 C 703.149 -2.73497 3.67374 0
M  V30 6928 N 704.64 -2.8104 3.68199 0
M  V30 6929 C 705.375 -3.38718 4.62664 0
M  V30 6930 N 704.871 -3.97421 5.67475 0
M  V30 6931 N 706.664 -3.36561 4.50203 0
M  V30 6932 H 698.815 -0.319398 2.09985 0
M  V30 6933 H 701.078 -0.204058 0.925778 0
M  V30 6934 H 700.784 -1.32393 3.2583 0
M  V30 6935 H 700.658 -2.87317 2.44395 0
M  V30 6936 H 703.045 -2.53436 1.51176 0
M  V30 6937 H 703.126 -0.984218 2.36108 0
M  V30 6938 H 702.77 -2.20438 4.57569 0
M  V30 6939 H 702.7 -3.75163 3.6954 0
M  V30 6940 H 705.191 -2.39365 2.92426 0
M  V30 6941 H 705.504 -4.39507 6.35652 0
M  V30 6942 H 703.849 -3.95832 5.71264 0
M  V30 6943 H 707.04 -2.8993 3.67503 0
M  V30 6944 H 707.213 -3.81215 5.24003 0
M  V30 6945 N 700.619 -1.13374 -1.09472 0
M  V30 6946 C 701.849 -0.917019 -1.85133 0
M  V30 6947 C 702.257 0.537568 -1.81402 0
M  V30 6948 O 701.6 1.38385 -1.20811 0
M  V30 6949 C 701.662 -1.32646 -3.34134 0
M  V30 6950 C 701.326 -2.79437 -3.61613 0
M  V30 6951 C 702.323 -3.77596 -3.57375 0
M  V30 6952 C 700.008 -3.16586 -3.89973 0
M  V30 6953 C 702.002 -5.10916 -3.81108 0
M  V30 6954 C 699.689 -4.50085 -4.13361 0
M  V30 6955 C 700.687 -5.47059 -4.0892 0
M  V30 6956 O 700.375 -6.78149 -4.31705 0
M  V30 6957 H 700.107 -0.326997 -0.591649 0
M  V30 6958 H 702.661 -1.51002 -1.39239 0
M  V30 6959 H 700.891 -0.676719 -3.80733 0
M  V30 6960 H 702.58 -1.08229 -3.91205 0
M  V30 6961 H 703.346 -3.50242 -3.35493 0
M  V30 6962 H 699.225 -2.41707 -3.92554 0
M  V30 6963 H 702.769 -5.86597 -3.77558 0
M  V30 6964 H 698.666 -4.77163 -4.34724 0
M  V30 6965 H 699.434 -6.84244 -4.49168 0
M  V30 6966 N 702.098 1.27442 -0.927168 0
M  V30 6967 C 703.344 1.94679 -0.568164 0
M  V30 6968 C 703.677 1.72697 0.888219 0
M  V30 6969 O 702.952 1.05573 1.63354 0
M  V30 6970 C 703.235 3.4882 -0.894253 0
M  V30 6971 C 703.088 3.80146 -2.40435 0
M  V30 6972 C 704.407 4.38281 -0.399766 0
M  V30 6973 H 701.526 0.707071 -0.207892 0
M  V30 6974 H 704.168 1.50568 -1.15885 0
M  V30 6975 H 702.318 3.86522 -0.391566 0
M  V30 6976 H 703.99 3.52238 -2.97869 0
M  V30 6977 H 702.233 3.26716 -2.85375 0
M  V30 6978 H 702.904 4.87835 -2.58304 0
M  V30 6979 H 705.38 4.07726 -0.83058 0
M  V30 6980 H 704.256 5.44955 -0.656885 0
M  V30 6981 H 704.517 4.36521 0.700153 0
M  V30 6982 N 703.576 0.692616 1.41565 0
M  V30 6983 C 704.539 0.0344174 2.29174 0
M  V30 6984 C 705.539 -0.710961 1.44229 0
M  V30 6985 O 706.729 -0.546293 1.65412 0
M  V30 6986 C 703.861 -0.961682 3.27054 0
M  V30 6987 H 705.054 0.805755 2.88873 0
M  V30 6988 H 702.607 0.455947 1.49502 0
M  V30 6989 H 703.342 -1.76089 2.72329 0
M  V30 6990 H 703.127 -0.430375 3.89731 0
M  V30 6991 H 704.617 -1.4201 3.92712 0
M  V30 6992 N 705.054 -1.51416 0.437162 0
M  V30 6993 C 706.465 -1.86682 -0.0260005 0
M  V30 6994 C 706.816 -1.35432 -1.4196 0
M  V30 6995 O 705.941 -0.705055 -2.04592 0
M  V30 6996 C 706.536 -3.38757 -0.0539577 0
M  V30 6997 C 705.095 -3.7356 -0.461532 0
M  V30 6998 C 704.242 -2.75134 0.345924 0
M  V30 6999 H 707.193 -1.44642 0.653013 0
M  V30 7000 H 707.214 -3.70573 -0.863478 0
M  V30 7001 H 706.726 -3.76028 0.96045 0
M  V30 7002 H 704.827 -3.41878 -1.48155 0
M  V30 7003 H 704.94 -4.78737 -0.186451 0
M  V30 7004 H 703.304 -2.53947 -0.195739 0
M  V30 7005 H 704.087 -3.15247 1.35921 0
M  V30 7006 N 706.532 -0.168513 -1.56696 0
M  V30 7007 C 707.78 0.476216 -1.96409 0
M  V30 7008 C 708.101 1.63968 -1.05544 0
M  V30 7009 O 707.371 1.95525 -0.121235 0
M  V30 7010 H 705.951 0.178921 -0.725256 0
M  V30 7011 H 708.613 -0.249042 -1.93302 0
M  V30 7012 H 707.709 0.838094 -3.00637 0
M  V30 7013 N 708.01 1.57248 0.105221 0
M  V30 7014 C 708.92 2.04653 1.14693 0
M  V30 7015 C 709.936 0.969488 1.44489 0
M  V30 7016 O 711.112 1.28196 1.55331 0
M  V30 7017 C 708.177 2.45297 2.45011 0
M  V30 7018 C 707.238 3.67148 2.22489 0
M  V30 7019 C 706.471 4.05844 3.46592 0
M  V30 7020 O 706.694 3.44736 4.54437 0
M  V30 7021 O 705.628 4.98862 3.36779 0
M  V30 7022 H 709.454 2.93663 0.774336 0
M  V30 7023 H 707.039 1.45998 0.31701 0
M  V30 7024 H 708.921 2.72112 3.21766 0
M  V30 7025 H 707.596 1.59429 2.81717 0
M  V30 7026 H 706.503 3.45463 1.43547 0
M  V30 7027 H 707.836 4.53764 1.9068 0
M  V30 7028 N 709.488 -0.375779 1.53054 0
M  V30 7029 C 710.904 -0.716764 1.426 0
M  V30 7030 C 711.104 -1.93651 0.556931 0
M  V30 7031 O 710.16 -2.52475 0.0354461 0
M  V30 7032 C 711.473 -0.939499 2.85646 0
M  V30 7033 C 713.021 -1.04015 2.95212 0
M  V30 7034 C 713.496 -1.29543 4.39298 0
M  V30 7035 N 714.987 -1.36335 4.42682 0
M  V30 7036 C 715.722 -1.57778 5.51266 0
M  V30 7037 N 715.218 -1.76604 6.69913 0
M  V30 7038 N 717.011 -1.60065 5.38828 0
M  V30 7039 H 709.162 0.42664 2.08071 0
M  V30 7040 H 711.425 0.128758 0.939215 0
M  V30 7041 H 711.131 -0.115189 3.51511 0
M  V30 7042 H 711.005 -1.85048 3.2869 0
M  V30 7043 H 713.392 -1.85501 2.29507 0
M  V30 7044 H 713.473 -0.106785 2.55577 0
M  V30 7045 H 713.117 -0.485611 5.05573 0
M  V30 7046 H 713.047 -2.24184 4.76497 0
M  V30 7047 H 715.538 -1.23441 3.5717 0
M  V30 7048 H 715.851 -1.9251 7.48438 0
M  V30 7049 H 714.196 -1.73802 6.72917 0
M  V30 7050 H 717.387 -1.44917 4.45103 0
M  V30 7051 H 717.56 -1.76435 6.23518 0
M  V30 7052 N 710.966 -1.44241 -0.634997 0
M  V30 7053 C 712.377 -1.41622 -1.21655 0
M  V30 7054 C 712.728 -0.129584 -1.95772 0
M  V30 7055 O 711.853 0.770225 -2.02229 0
M  V30 7056 C 712.448 -2.56557 -2.21278 0
M  V30 7057 C 711.007 -2.57145 -2.7487 0
M  V30 7058 C 710.154 -2.33354 -1.49804 0
M  V30 7059 H 713.105 -1.52878 -0.425905 0
M  V30 7060 H 713.126 -2.29089 -3.03807 0
M  V30 7061 H 712.638 -3.50186 -1.67306 0
M  V30 7062 H 710.739 -1.67447 -3.32855 0
M  V30 7063 H 710.852 -3.55507 -3.21172 0
M  V30 7064 H 709.216 -1.82372 -1.77799 0
M  V30 7065 H 709.999 -3.29092 -0.977402 0
M  V30 7066 N 712.444 0.87505 -1.31075 0
M  V30 7067 C 713.669 1.66583 -1.23551 0
M  V30 7068 C 714.094 1.87067 0.19686 0
M  V30 7069 O 713.452 1.40877 1.1412 0
M  V30 7070 C 713.5 3.01401 -1.97965 0
M  V30 7071 O 712.604 3.90923 -1.31351 0
M  V30 7072 H 711.945 0.508645 -0.426821 0
M  V30 7073 H 714.475 1.09139 -1.7306 0
M  V30 7074 H 714.485 3.51374 -2.07366 0
M  V30 7075 H 713.16 2.85812 -3.02133 0
M  V30 7076 H 711.737 3.49369 -1.30368 0
M  V30 7077 N 713.922 1.13953 1.08869 0
M  V30 7078 C 715.17 0.903023 1.80803 0
M  V30 7079 C 715.491 -0.572151 1.86417 0
M  V30 7080 O 714.761 -1.41589 1.35386 0
M  V30 7081 H 713.341 0.331099 0.669614 0
M  V30 7082 H 716.003 1.43719 1.31647 0
M  V30 7083 H 715.099 1.29881 2.83791 0
M  V30 7084 N 715.4 -1.26948 0.933913 0
M  V30 7085 C 716.333 -2.24977 0.382169 0
M  V30 7086 C 717.311 -1.53893 -0.524949 0
M  V30 7087 O 718.495 -1.82699 -0.464048 0
M  V30 7088 C 715.622 -3.35676 -0.451615 0
M  V30 7089 C 714.668 -4.24686 0.392947 0
M  V30 7090 S 715.501 -5.03898 1.81237 0
M  V30 7091 C 716.657 -6.18078 0.986443 0
M  V30 7092 H 716.89 -2.71429 1.21299 0
M  V30 7093 H 714.423 -1.35701 0.736523 0
M  V30 7094 H 716.381 -3.99901 -0.926797 0
M  V30 7095 H 715.042 -2.8785 -1.25703 0
M  V30 7096 H 714.235 -5.03402 -0.245533 0
M  V30 7097 H 713.837 -3.65288 0.802537 0
M  V30 7098 H 716.129 -6.77125 0.225321 0
M  V30 7099 H 717.072 -6.86216 1.74682 0
M  V30 7100 H 717.48 -5.62047 0.525711 0
M  V30 7101 N 716.879 -0.700114 -1.41195 0
M  V30 7102 C 718.126 -0.233006 -2.01155 0
M  V30 7103 C 718.454 1.16883 -1.55462 0
M  V30 7104 O 717.709 1.80395 -0.758695 0
M  V30 7105 C 718.008 -0.243986 -3.56566 0
M  V30 7106 C 717.674 -1.59397 -4.21786 0
M  V30 7107 C 716.336 -1.96355 -4.39316 0
M  V30 7108 C 718.688 -2.48192 -4.58312 0
M  V30 7109 C 716.016 -3.21683 -4.9065 0
M  V30 7110 C 718.368 -3.72857 -5.11039 0
M  V30 7111 C 717.032 -4.09951 -5.26779 0
M  V30 7112 H 716.302 -0.085263 -0.736078 0
M  V30 7113 H 718.949 -0.9001 -1.69028 0
M  V30 7114 H 717.254 0.506663 -3.8851 0
M  V30 7115 H 718.951 0.135031 -4.00773 0
M  V30 7116 H 715.541 -1.29654 -4.08519 0
M  V30 7117 H 719.725 -2.20918 -4.4442 0
M  V30 7118 H 714.981 -3.50412 -5.01021 0
M  V30 7119 H 719.155 -4.41844 -5.38282 0
M  V30 7120 H 716.782 -5.07136 -5.66319 0
M  V30 7121 N 718.357 1.51182 -0.445186 0
M  V30 7122 C 719.634 1.9478 0.178965 0
M  V30 7123 C 720.014 1.38428 1.59376 0
M  V30 7124 O 719.362 0.574552 2.21159 0
M  V30 7125 C 719.572 3.48683 0.148711 0
M  V30 7126 C 720.92 4.23152 0.35042 0
M  V30 7127 O 721.944 3.55479 0.226474 0
M  V30 7128 O 720.803 5.4322 0.597893 0
M  V30 7129 H 717.897 0.817387 0.12573 0
M  V30 7130 H 720.443 1.62051 -0.503729 0
M  V30 7131 H 719.215 3.82176 -0.84009 0
M  V30 7132 H 718.838 3.87875 0.873979 0
M  V30 7133 N 719.835 0.176821 1.56605 0
M  V30 7134 C 721.06 -0.47599 2.01864 0
M  V30 7135 C 721.485 -1.55645 1.05623 0
M  V30 7136 O 720.843 -1.81263 0.0366729 0
M  V30 7137 C 720.891 -1.02619 3.4569 0
M  V30 7138 O 719.995 -2.13996 3.52533 0
M  V30 7139 H 719.336 -0.113363 0.654251 0
M  V30 7140 H 721.866 0.28233 2.02643 0
M  V30 7141 H 721.876 -1.34742 3.85109 0
M  V30 7142 H 720.551 -0.235138 4.15235 0
M  V30 7143 H 719.128 -1.82876 3.24978 0
M  V30 7144 N 721.313 -1.57302 -0.09688 0
M  V30 7145 C 722.559 -1.86273 -0.801885 0
M  V30 7146 C 722.892 -0.765694 -1.78468 0
M  V30 7147 O 722.167 0.226495 -1.93177 0
M  V30 7148 C 722.45 -3.25876 -1.53221 0
M  V30 7149 C 722.303 -4.46205 -0.567529 0
M  V30 7150 C 723.622 -3.63352 -2.48321 0
M  V30 7151 H 720.741 -0.67752 -0.29006 0
M  V30 7152 H 723.383 -1.89887 -0.0655577 0
M  V30 7153 H 721.533 -3.22926 -2.15988 0
M  V30 7154 H 723.205 -4.6127 0.0529982 0
M  V30 7155 H 721.448 -4.33636 0.119233 0
M  V30 7156 H 722.119 -5.40608 -1.11564 0
M  V30 7157 H 724.595 -3.67234 -1.95648 0
M  V30 7158 H 723.471 -4.61968 -2.9644 0
M  V30 7159 H 723.732 -2.91941 -3.31998 0
M  V30 7160 N 722.791 0.367657 -1.53252 0
M  V30 7161 C 724.037 1.11216 -1.69584 0
M  V30 7162 C 724.37 1.89026 -0.445269 0
M  V30 7163 O 723.645 1.86342 0.557404 0
M  V30 7164 C 723.928 2.07308 -2.94441 0
M  V30 7165 C 723.781 1.3312 -4.2965 0
M  V30 7166 C 725.1 3.07459 -3.14892 0
M  V30 7167 H 722.219 0.40294 -0.617096 0
M  V30 7168 H 724.861 0.393201 -1.85887 0
M  V30 7169 H 723.011 2.68617 -2.80673 0
M  V30 7170 H 724.683 0.746111 -4.55226 0
M  V30 7171 H 722.926 0.633051 -4.29156 0
M  V30 7172 H 723.597 2.03443 -5.13142 0
M  V30 7173 H 726.073 2.56252 -3.27832 0
M  V30 7174 H 724.949 3.71919 -4.03693 0
M  V30 7175 H 725.21 3.77514 -2.30077 0
M  V30 7176 N 724.269 1.44576 0.627338 0
M  V30 7177 C 725.199 1.54562 1.75022 0
M  V30 7178 C 726.18 0.398378 1.65369 0
M  V30 7179 O 727.365 0.61899 1.84071 0
M  V30 7180 C 724.495 1.49309 3.13567 0
M  V30 7181 C 723.449 2.62549 3.38012 0
M  V30 7182 C 722.775 2.42348 4.76625 0
M  V30 7183 C 724.075 4.04678 3.30202 0
M  V30 7184 H 725.769 2.4855 1.66922 0
M  V30 7185 H 723.315 1.19624 0.801636 0
M  V30 7186 H 725.268 1.54895 3.919 0
M  V30 7187 H 723.992 0.518392 3.2246 0
M  V30 7188 H 722.651 2.56358 2.62061 0
M  V30 7189 H 722.299 1.43062 4.82226 0
M  V30 7190 H 721.999 3.18273 4.93939 0
M  V30 7191 H 723.523 2.49758 5.57183 0
M  V30 7192 H 724.937 4.12217 3.98435 0
M  V30 7193 H 723.334 4.80836 3.5905 0
M  V30 7194 H 724.404 4.2798 2.27949 0
M  V30 7195 N 725.747 -0.868086 1.31537 0
M  V30 7196 C 726.987 -1.63526 1.22632 0
M  V30 7197 C 727.351 -1.90828 -0.211815 0
M  V30 7198 O 728.552 -2.65429 -0.424387 0
M  V30 7199 C 726.823 -2.92849 2.04876 0
M  V30 7200 S 728.382 -3.83717 2.12853 0
M  V30 7201 H 725.2 -0.56105 0.436743 0
M  V30 7202 H 727.802 -1.02908 1.66223 0
M  V30 7203 H 726.506 -2.70717 3.08449 0
M  V30 7204 H 726.037 -3.58491 1.62011 0
M  V30 7205 H 728.052 -4.79719 1.26822 0
M  V30 7206 N 727.225 -1.14528 -1.08264 0
M  V30 7207 C 728.135 -0.84728 -2.18765 0
M  V30 7208 C 729.151 0.172826 -1.7314 0
M  V30 7209 O 730.327 0.000985336 -2.014 0
M  V30 7210 C 727.392 -0.330633 -3.4512 0
M  V30 7211 C 726.453 -1.41348 -4.05363 0
M  V30 7212 C 725.686 -0.921387 -5.25686 0
M  V30 7213 O 725.909 0.236587 -5.69909 0
M  V30 7214 O 724.843 -1.70101 -5.77364 0
M  V30 7215 H 728.669 -1.7708 -2.46731 0
M  V30 7216 H 726.254 -0.923661 -1.17426 0
M  V30 7217 H 728.136 -0.0485053 -4.21372 0
M  V30 7218 H 726.811 0.565147 -3.18728 0
M  V30 7219 H 725.718 -1.74908 -3.30693 0
M  V30 7220 H 727.051 -2.28383 -4.36007 0
M  V30 7221 N 728.703 1.26451 -0.940633 0
M  V30 7222 C 729.943 1.95537 -0.595381 0
M  V30 7223 C 730.307 1.72175 0.849683 0
M  V30 7224 O 731.508 2.3506 1.30384 0
M  V30 7225 C 729.779 3.45151 -0.927669 0
M  V30 7226 S 731.338 4.33295 -0.69288 0
M  V30 7227 H 728.156 0.676331 -0.219311 0
M  V30 7228 H 730.758 1.53411 -1.21183 0
M  V30 7229 H 729.462 3.59654 -1.9768 0
M  V30 7230 H 728.993 3.92247 -0.300921 0
M  V30 7231 H 731.008 4.94217 0.443175 0
M  V30 7232 N 730.181 0.707592 1.40822 0
M  V30 7233 C 731.411 0.252706 2.05049 0
M  V30 7234 C 731.819 -1.10758 1.53393 0
M  V30 7235 O 731.162 -1.70567 0.682097 0
M  V30 7236 C 731.224 0.146001 3.59203 0
M  V30 7237 C 730.888 1.44027 4.33711 0
M  V30 7238 C 731.885 2.38058 4.62195 0
M  V30 7239 C 729.57 1.69698 4.72766 0
M  V30 7240 C 731.564 3.56013 5.28709 0
M  V30 7241 C 729.251 2.87936 5.39014 0
M  V30 7242 C 730.249 3.80915 5.66915 0
M  V30 7243 O 729.937 4.9708 6.31796 0
M  V30 7244 H 729.669 0.112784 0.666525 0
M  V30 7245 H 732.223 0.96417 1.81364 0
M  V30 7246 H 730.453 -0.621338 3.81676 0
M  V30 7247 H 732.142 -0.273275 4.04979 0
M  V30 7248 H 732.908 2.19487 4.32493 0
M  V30 7249 H 728.787 0.981835 4.50423 0
M  V30 7250 H 732.331 4.28604 5.50404 0
M  V30 7251 H 728.228 3.06419 5.68135 0
M  V30 7252 H 728.996 4.97053 6.50293 0
M  V30 7253 N 731.66 -1.50943 0.453197 0
M  V30 7254 C 732.937 -1.94872 -0.168633 0
M  V30 7255 C 733.317 -1.39272 -1.5864 0
M  V30 7256 O 732.665 -0.586272 -2.20851 0
M  V30 7257 C 732.875 -3.48757 -0.130217 0
M  V30 7258 C 734.223 -4.23331 -0.327975 0
M  V30 7259 O 735.247 -3.55594 -0.207619 0
M  V30 7260 O 734.106 -5.43529 -0.569077 0
M  V30 7261 H 731.2 -0.818042 -0.121394 0
M  V30 7262 H 733.746 -1.61782 0.512316 0
M  V30 7263 H 732.518 -3.81725 0.860346 0
M  V30 7264 H 732.141 -3.88333 -0.853397 0
M  V30 7265 N 733.138 -0.185124 -1.56509 0
M  V30 7266 C 734.101 0.72591 -2.17401 0
M  V30 7267 C 735.101 1.14819 -1.12575 0
M  V30 7268 O 736.291 1.0629 -1.38015 0
M  V30 7269 C 733.423 1.98979 -2.76803 0
M  V30 7270 H 734.616 0.195588 -2.99262 0
M  V30 7271 H 732.169 0.0644772 -1.56167 0
M  V30 7272 H 732.904 2.56287 -1.98714 0
M  V30 7273 H 732.689 1.69583 -3.53531 0
M  V30 7274 H 734.179 2.63966 -3.23592 0
M  V30 7275 N 734.616 1.57351 0.0885366 0
M  V30 7276 C 735.864 1.86051 0.789262 0
M  V30 7277 C 736.185 0.774763 1.78948 0
M  V30 7278 O 735.455 -0.198324 1.94894 0
M  V30 7279 H 734.035 0.686508 0.294475 0
M  V30 7280 H 736.697 1.94779 0.0686055 0
M  V30 7281 H 735.793 2.83007 1.31581 0
M  V30 7282 N 736.094 -0.359525 1.53444 0
M  V30 7283 C 737.334 -1.11014 1.71625 0
M  V30 7284 C 737.698 -1.86376 0.46132 0
M  V30 7285 O 738.899 -2.63724 0.519908 0
M  V30 7286 C 737.17 -2.03907 2.93524 0
M  V30 7287 S 738.729 -2.86408 3.3244 0
M  V30 7288 H 735.547 -0.375352 0.603847 0
M  V30 7289 H 738.149 -0.390604 1.91558 0
M  V30 7290 H 736.853 -1.47316 3.83048 0
M  V30 7291 H 736.384 -2.80324 2.76011 0
M  V30 7292 H 738.399 -4.06241 2.84926 0
M  V30 7293 N 737.572 -1.44907 -0.619662 0
M  V30 7294 C 738.797 -1.52021 -1.41083 0
M  V30 7295 C 739.222 -0.14976 -1.87503 0
M  V30 7296 O 738.58 0.863303 -1.59426 0
M  V30 7297 C 738.628 -2.49911 -2.59955 0
M  V30 7298 O 737.732 -2.00857 -3.60181 0
M  V30 7299 H 737.073 -0.512912 -0.421684 0
M  V30 7300 H 739.603 -1.90149 -0.755282 0
M  V30 7301 H 739.613 -2.68323 -3.07354 0
M  V30 7302 H 738.288 -3.4945 -2.25516 0
M  V30 7303 H 736.865 -1.92265 -3.19513 0
M  V30 7304 N 739.05 0.861098 -1.31996 0
M  V30 7305 C 740.296 1.61707 -1.23379 0
M  V30 7306 C 740.651 1.91315 0.204026 0
M  V30 7307 O 739.944 1.53997 1.13998 0
M  V30 7308 C 740.138 2.94822 -2.02027 0
M  V30 7309 C 739.967 2.78212 -3.5331 0
M  V30 7310 C 738.737 2.76933 -4.22654 0
M  V30 7311 C 740.935 2.52432 -4.48088 0
M  V30 7312 N 738.917 2.51466 -5.60034 0
M  V30 7313 C 740.288 2.36312 -5.73198 0
M  V30 7314 C 742.343 2.37848 -4.37416 0
M  V30 7315 C 741.046 2.0709 -6.88844 0
M  V30 7316 C 743.072 2.10016 -5.52854 0
M  V30 7317 C 742.434 1.94691 -6.7696 0
M  V30 7318 H 738.533 0.595703 -0.506618 0
M  V30 7319 H 741.117 1.01275 -1.66287 0
M  V30 7320 H 739.288 3.53243 -1.61474 0
M  V30 7321 H 741.02 3.59756 -1.85358 0
M  V30 7322 H 737.775 2.89638 -3.74709 0
M  V30 7323 H 738.199 2.41679 -6.32392 0
M  V30 7324 H 742.841 2.4842 -3.42122 0
M  V30 7325 H 740.559 1.95256 -7.84156 0
M  V30 7326 H 744.145 1.99519 -5.46519 0
M  V30 7327 H 743.025 1.7346 -7.64775 0
M  V30 7328 N 740.528 1.15101 1.07655 0
M  V30 7329 C 741.758 0.946357 1.83651 0
M  V30 7330 C 742.166 -0.508641 1.82235 0
M  V30 7331 O 741.509 -1.36445 1.22997 0
M  V30 7332 C 741.571 1.37945 3.31981 0
M  V30 7333 C 741.235 2.85155 3.57122 0
M  V30 7334 C 742.232 3.83234 3.51323 0
M  V30 7335 C 739.917 3.2275 3.84887 0
M  V30 7336 C 741.911 5.16914 3.72932 0
M  V30 7337 C 739.598 4.56604 4.06148 0
M  V30 7338 C 740.596 5.53495 4.00165 0
M  V30 7339 O 740.284 6.84931 4.20861 0
M  V30 7340 H 740.016 0.336368 0.586372 0
M  V30 7341 H 742.57 1.53198 1.36819 0
M  V30 7342 H 740.8 0.737205 3.79608 0
M  V30 7343 H 742.489 1.14439 3.89434 0
M  V30 7344 H 743.255 3.55535 3.29878 0
M  V30 7345 H 739.134 2.47921 3.88659 0
M  V30 7346 H 742.678 5.92529 3.68178 0
M  V30 7347 H 738.575 4.84019 4.27078 0
M  V30 7348 H 739.343 6.91304 4.38226 0
M  V30 7349 N 742.006 -1.2595 0.947325 0
M  V30 7350 C 743.283 -1.88676 0.515824 0
M  V30 7351 C 743.663 -1.85547 -1.00675 0
M  V30 7352 O 743.011 -1.31399 -1.8694 0
M  V30 7353 C 743.221 -3.31734 1.08415 0
M  V30 7354 C 744.569 -4.08545 1.15654 0
M  V30 7355 O 745.593 -3.40826 1.03517 0
M  V30 7356 O 744.452 -5.29663 1.34608 0
M  V30 7357 H 741.546 -0.809537 0.169055 0
M  V30 7358 H 744.092 -1.34075 1.04029 0
M  V30 7359 H 742.864 -3.28404 2.1276 0
M  V30 7360 H 742.487 -3.93882 0.542499 0
M  V30 7361 N 743.484 -0.715051 -1.40445 0
M  V30 7362 C 744.414 -0.0768699 -2.33373 0
M  V30 7363 C 745.395 0.746109 -1.52863 0
M  V30 7364 O 746.58 0.695142 -1.81332 0
M  V30 7365 C 743.71 0.846014 -3.36838 0
M  V30 7366 C 742.664 0.128694 -4.27806 0
M  V30 7367 C 741.99 1.16726 -5.21804 0
M  V30 7368 C 743.29 -1.01679 -5.12307 0
M  V30 7369 H 744.984 -0.853061 -2.8699 0
M  V30 7370 H 742.53 -0.41167 -1.3799 0
M  V30 7371 H 744.483 1.30185 -4.00786 0
M  V30 7372 H 743.207 1.6541 -2.81615 0
M  V30 7373 H 741.866 -0.307314 -3.6531 0
M  V30 7374 H 741.514 1.96838 -4.62887 0
M  V30 7375 H 741.214 0.692188 -5.83509 0
M  V30 7376 H 742.738 1.62321 -5.88629 0
M  V30 7377 H 744.152 -0.640337 -5.69713 0
M  V30 7378 H 742.549 -1.4202 -5.83053 0
M  V30 7379 H 743.619 -1.84769 -4.48317 0
M  V30 7380 N 744.962 1.50701 -0.461195 0
M  V30 7381 C 745.894 2.26124 0.374244 0
M  V30 7382 C 746.907 1.31064 0.965715 0
M  V30 7383 O 748.096 1.56647 0.855801 0
M  V30 7384 C 745.196 3.01996 1.5379 0
M  V30 7385 C 744.369 4.24336 1.06101 0
M  V30 7386 C 743.428 4.82585 2.09756 0
M  V30 7387 O 742.454 5.43775 1.68219 0
M  V30 7388 N 743.656 4.68712 3.42475 0
M  V30 7389 H 746.421 2.9846 -0.2723 0
M  V30 7390 H 743.982 1.59256 -0.291415 0
M  V30 7391 H 745.974 3.37846 2.22806 0
M  V30 7392 H 744.544 2.32521 2.08933 0
M  V30 7393 H 743.764 3.93707 0.197085 0
M  V30 7394 H 745.052 5.03678 0.720156 0
M  V30 7395 H 744.45 4.20026 3.78938 0
M  V30 7396 H 743.007 5.08858 4.07317 0
M  V30 7397 N 746.441 0.193421 1.56409 0
M  V30 7398 C 747.852 -0.319471 1.83946 0
M  V30 7399 C 748.203 -1.61505 1.11403 0
M  V30 7400 O 747.328 -2.13139 0.374289 0
M  V30 7401 C 747.923 -0.586411 3.33686 0
M  V30 7402 C 746.482 -1.04368 3.61641 0
M  V30 7403 C 745.629 -0.0913834 2.77149 0
M  V30 7404 H 748.58 0.417242 1.53117 0
M  V30 7405 H 748.601 -1.43591 3.52366 0
M  V30 7406 H 748.113 0.356701 3.86457 0
M  V30 7407 H 746.214 -2.00113 3.14302 0
M  V30 7408 H 746.327 -0.937549 4.69837 0
M  V30 7409 H 744.691 -0.592954 2.47702 0
M  V30 7410 H 745.474 0.846142 3.32709 0
M  V30 7411 N 747.919 -1.57396 -0.0801906 0
M  V30 7412 C 748.882 -2.02133 -1.0805 0
M  V30 7413 C 749.882 -0.91707 -1.32085 0
M  V30 7414 O 751.072 -1.18217 -1.27947 0
M  V30 7415 C 748.204 -2.39479 -2.42616 0
M  V30 7416 H 749.397 -2.91733 -0.6951 0
M  V30 7417 H 746.95 -1.52869 -0.325677 0
M  V30 7418 H 747.685 -1.52879 -2.86004 0
M  V30 7419 H 747.47 -3.20052 -2.26515 0
M  V30 7420 H 748.96 -2.74697 -3.14534 0
M  V30 7421 N 749.397 0.351382 -1.53633 0
M  V30 7422 C 750.307 1.45471 -1.84052 0
M  V30 7423 C 751.323 1.57945 -0.730015 0
M  V30 7424 O 752.499 1.73571 -1.02153 0
M  V30 7425 C 749.564 2.80562 -2.03681 0
M  V30 7426 C 748.625 2.77497 -3.27558 0
M  V30 7427 C 747.858 4.06144 -3.46241 0
M  V30 7428 O 748.081 5.03028 -2.68922 0
M  V30 7429 O 747.015 4.11092 -4.39645 0
M  V30 7430 H 750.841 1.22684 -2.77817 0
M  V30 7431 H 748.426 0.542827 -1.3919 0
M  V30 7432 H 750.308 3.6058 -2.18082 0
M  V30 7433 H 748.983 3.03296 -1.13106 0
M  V30 7434 H 747.89 1.96126 -3.18568 0
M  V30 7435 H 749.223 2.59716 -4.18101 0
M  V30 7436 N 750.875 1.45233 0.611969 0
M  V30 7437 C 752.103 1.52539 1.39784 0
M  V30 7438 C 752.518 0.156533 1.8815 0
M  V30 7439 O 751.875 -0.84112 1.61961 0
M  V30 7440 C 751.926 2.50614 2.60528 0
M  V30 7441 O 751.647 3.8218 2.14173 0
M  V30 7442 C 753.148 2.67574 3.53439 0
M  V30 7443 H 750.368 0.51674 0.428043 0
M  V30 7444 H 752.912 1.90379 0.746727 0
M  V30 7445 H 751.067 2.15858 3.2169 0
M  V30 7446 H 751.481 4.35305 2.92592 0
M  V30 7447 H 752.955 3.40184 4.34717 0
M  V30 7448 H 753.432 1.73458 4.03496 0
M  V30 7449 H 754.038 3.0331 2.98133 0
M  V30 7450 N 752.353 -0.854086 1.3245 0
M  V30 7451 C 753.581 -1.64074 1.26045 0
M  V30 7452 C 753.996 -1.8802 -0.171456 0
M  V30 7453 O 753.353 -1.4496 -1.10873 0
M  V30 7454 C 753.404 -2.9997 2.01743 0
M  V30 7455 O 753.125 -2.77084 3.39346 0
M  V30 7456 C 754.626 -3.94414 2.02368 0
M  V30 7457 H 751.846 -0.511015 0.434862 0
M  V30 7458 H 754.39 -1.06494 1.74583 0
M  V30 7459 H 752.545 -3.54193 1.56926 0
M  V30 7460 H 752.959 -3.63514 3.78098 0
M  V30 7461 H 754.433 -4.87032 2.59815 0
M  V30 7462 H 754.91 -4.27427 1.01009 0
M  V30 7463 H 755.516 -3.46127 2.47135 0
M  V30 7464 N 753.831 -1.1567 -1.07043 0
M  V30 7465 C 755.077 -0.9349 -1.79965 0
M  V30 7466 C 755.41 0.536464 -1.86643 0
M  V30 7467 O 754.685 1.39781 -1.35247 0
M  V30 7468 C 754.968 -1.55371 -3.24857 0
M  V30 7469 C 754.821 -3.09589 -3.26305 0
M  V30 7470 C 756.14 -1.24209 -4.22209 0
M  V30 7471 H 753.259 -0.341061 -0.653335 0
M  V30 7472 H 755.901 -1.42883 -1.25237 0
M  V30 7473 H 754.051 -1.13368 -3.71591 0
M  V30 7474 H 755.723 -3.60521 -2.87789 0
M  V30 7475 H 753.966 -3.43315 -2.65174 0
M  V30 7476 H 754.637 -3.48002 -4.28484 0
M  V30 7477 H 757.113 -1.60548 -3.8388 0
M  V30 7478 H 755.989 -1.70119 -5.21872 0
M  V30 7479 H 756.25 -0.15964 -4.41812 0
M  V30 7480 N 755.309 1.25446 -0.953992 0
M  V30 7481 C 756.725 1.4539 -0.658316 0
M  V30 7482 C 756.925 1.85607 0.784356 0
M  V30 7483 O 755.981 1.98568 1.55972 0
M  V30 7484 C 757.294 2.52643 -1.6307 0
M  V30 7485 C 758.842 2.66484 -1.64181 0
M  V30 7486 C 759.317 3.76921 -2.60182 0
M  V30 7487 N 760.808 3.84331 -2.58542 0
M  V30 7488 C 761.543 4.69271 -3.29503 0
M  V30 7489 N 761.039 5.58503 -4.09934 0
M  V30 7490 N 762.832 4.6323 -3.18393 0
M  V30 7491 H 754.983 0.976337 -1.8863 0
M  V30 7492 H 757.246 0.490343 -0.811337 0
M  V30 7493 H 756.952 2.29949 -2.66114 0
M  V30 7494 H 756.826 3.50547 -1.39271 0
M  V30 7495 H 759.213 2.88545 -0.618552 0
M  V30 7496 H 759.294 1.68982 -1.92038 0
M  V30 7497 H 758.938 3.55612 -3.62633 0
M  V30 7498 H 758.868 4.73906 -2.29609 0
M  V30 7499 H 761.359 3.20544 -2.0015 0
M  V30 7500 H 761.672 6.20241 -4.61 0
M  V30 7501 H 760.017 5.58214 -4.14032 0
M  V30 7502 H 763.208 3.92527 -2.5503 0
M  V30 7503 H 763.381 5.29204 -3.73961 0
M  V30 7504 N 756.787 0.722489 1.40064 0
M  V30 7505 C 757.717 0.0892452 2.33329 0
M  V30 7506 C 758.698 -0.737992 1.53257 0
M  V30 7507 O 759.883 -0.685516 1.81698 0
M  V30 7508 C 757.013 -0.828139 3.37282 0
M  V30 7509 C 755.967 -0.106005 4.27869 0
M  V30 7510 C 755.293 -1.13957 5.22415 0
M  V30 7511 C 756.593 1.04395 5.11761 0
M  V30 7512 H 758.287 0.868269 2.86534 0
M  V30 7513 H 755.833 0.418982 1.3777 0
M  V30 7514 H 757.786 -1.28058 4.01471 0
M  V30 7515 H 756.51 -1.63914 2.82489 0
M  V30 7516 H 755.169 0.326683 3.65142 0
M  V30 7517 H 754.817 -1.9438 4.63924 0
M  V30 7518 H 754.517 -0.661233 5.83868 0
M  V30 7519 H 756.041 -1.59197 5.89482 0
M  V30 7520 H 757.455 0.670541 5.69365 0
M  V30 7521 H 755.852 1.4511 5.82291 0
M  V30 7522 H 756.922 1.87144 4.47331 0
M  V30 7523 N 758.265 -1.50454 0.469181 0
M  V30 7524 C 759.681 -1.59124 0.123226 0
M  V30 7525 C 759.881 -1.47749 -1.37013 0
M  V30 7526 O 758.937 -1.335 -2.14322 0
M  V30 7527 C 760.25 -2.93101 0.67172 0
M  V30 7528 C 761.798 -3.06491 0.634978 0
M  V30 7529 C 762.273 -4.43041 1.16098 0
M  V30 7530 N 763.764 -4.49448 1.12031 0
M  V30 7531 C 764.499 -5.53491 1.49784 0
M  V30 7532 N 763.995 -6.64798 1.94976 0
M  V30 7533 N 765.788 -5.44025 1.41399 0
M  V30 7534 H 757.939 -1.56091 1.44046 0
M  V30 7535 H 760.202 -0.737564 0.59557 0
M  V30 7536 H 759.908 -3.06895 1.7178 0
M  V30 7537 H 759.782 -3.77027 0.114222 0
M  V30 7538 H 762.169 -2.92346 -0.402187 0
M  V30 7539 H 762.25 -2.24328 1.22926 0
M  V30 7540 H 761.894 -4.57935 2.19677 0
M  V30 7541 H 761.824 -5.23794 0.542939 0
M  V30 7542 H 764.315 -3.69575 0.788828 0
M  V30 7543 H 764.628 -7.40246 2.21936 0
M  V30 7544 H 762.973 -6.65923 1.98927 0
M  V30 7545 H 766.164 -4.55955 1.05935 0
M  V30 7546 H 766.337 -6.2499 1.71147 0
M  V30 7547 N 759.743 -0.201713 -1.56304 0
M  V30 7548 C 760.706 0.702811 -2.18159 0
M  V30 7549 C 761.706 1.13619 -1.13787 0
M  V30 7550 O 762.896 1.0482 -1.39134 0
M  V30 7551 C 760.028 1.96032 -2.78898 0
M  V30 7552 H 761.221 0.163836 -2.99452 0
M  V30 7553 H 758.774 0.04791 -1.56227 0
M  V30 7554 H 759.509 2.54165 -2.01421 0
M  V30 7555 H 759.294 1.65824 -3.55309 0
M  V30 7556 H 760.784 2.60519 -3.26373 0
M  V30 7557 N 761.222 1.57436 0.0718424 0
M  V30 7558 C 762.452 1.91196 0.782795 0
M  V30 7559 C 762.86 0.795927 1.71644 0
M  V30 7560 O 762.203 -0.239604 1.82131 0
M  V30 7561 C 762.265 3.20421 1.63005 0
M  V30 7562 C 761.929 4.48724 0.865782 0
M  V30 7563 C 762.926 5.19571 0.185051 0
M  V30 7564 C 760.611 4.95345 0.832971 0
M  V30 7565 C 762.605 6.3529 -0.518264 0
M  V30 7566 C 760.292 6.1097 0.125884 0
M  V30 7567 C 761.29 6.80794 -0.548533 0
M  V30 7568 O 760.978 7.94213 -1.24423 0
M  V30 7569 H 760.71 0.636486 0.227731 0
M  V30 7570 H 763.264 2.05348 0.0464187 0
M  V30 7571 H 761.494 3.02478 2.40923 0
M  V30 7572 H 763.183 3.39831 2.21968 0
M  V30 7573 H 763.949 4.8458 0.201707 0
M  V30 7574 H 759.828 4.40871 1.34737 0
M  V30 7575 H 763.372 6.89725 -1.04523 0
M  V30 7576 H 759.269 6.45411 0.107155 0
M  V30 7577 H 760.037 8.10331 -1.1535 0
M  V30 7578 N 762.7 -0.34323 1.53817 0
M  V30 7579 C 763.63 -1.42709 1.84814 0
M  V30 7580 C 764.611 -1.5488 0.703297 0
M  V30 7581 O 765.796 -1.69082 0.955237 0
M  V30 7582 C 762.926 -2.79756 2.05801 0
M  V30 7583 C 761.88 -2.82392 3.21619 0
M  V30 7584 C 761.206 -4.22326 3.2794 0
M  V30 7585 C 762.506 -2.479 4.59721 0
M  V30 7586 H 764.2 -1.17018 2.75585 0
M  V30 7587 H 761.746 -0.561485 1.32602 0
M  V30 7588 H 763.699 -3.55627 2.26069 0
M  V30 7589 H 762.423 -3.06883 1.11761 0
M  V30 7590 H 761.082 -2.08974 3.01207 0
M  V30 7591 H 760.73 -4.46564 2.31494 0
M  V30 7592 H 760.43 -4.25001 4.05768 0
M  V30 7593 H 761.954 -5.00039 3.50419 0
M  V30 7594 H 763.368 -3.13484 4.80001 0
M  V30 7595 H 761.765 -2.61857 5.39954 0
M  V30 7596 H 762.835 -1.43087 4.63308 0
M  V30 7597 N 764.178 -1.45556 -0.604258 0
M  V30 7598 C 765.403 -1.53509 -1.39462 0
M  V30 7599 C 765.828 -0.169638 -1.87333 0
M  V30 7600 O 765.186 0.846346 -1.60333 0
M  V30 7601 C 765.234 -2.52654 -2.5729 0
M  V30 7602 O 764.338 -2.04666 -3.5803 0
M  V30 7603 H 763.679 -0.517355 -0.416221 0
M  V30 7604 H 766.209 -1.90939 -0.735072 0
M  V30 7605 H 766.219 -2.71568 -3.04491 0
M  V30 7606 H 764.894 -3.51823 -2.21797 0
M  V30 7607 H 763.471 -1.95643 -3.17456 0
M  V30 7608 N 765.656 0.84705 -1.32902 0
M  V30 7609 C 766.884 1.63403 -1.26913 0
M  V30 7610 C 767.299 1.88108 0.161483 0
M  V30 7611 O 766.656 1.45546 1.10103 0
M  V30 7612 C 766.707 2.98896 -2.03331 0
M  V30 7613 O 766.428 2.75281 -3.40811 0
M  V30 7614 C 767.929 3.93335 -2.04457 0
M  V30 7615 H 765.149 0.508701 -0.437566 0
M  V30 7616 H 767.693 1.05567 -1.75145 0
M  V30 7617 H 765.848 3.53356 -1.58802 0
M  V30 7618 H 766.262 3.61504 -3.8002 0
M  V30 7619 H 767.736 4.85647 -2.62394 0
M  V30 7620 H 768.213 4.26885 -1.03274 0
M  V30 7621 H 768.819 3.44812 -2.48967 0
M  V30 7622 N 767.134 1.16236 1.06428 0
M  V30 7623 C 768.545 0.950942 1.60667 0
M  V30 7624 C 768.896 -0.505491 1.89576 0
M  V30 7625 O 768.021 -1.37843 1.66818 0
M  V30 7626 C 768.616 1.71982 2.91904 0
M  V30 7627 C 767.175 1.55342 3.4285 0
M  V30 7628 C 766.322 1.72942 2.16763 0
M  V30 7629 H 769.273 1.31126 0.893959 0
M  V30 7630 H 769.294 1.19483 3.61253 0
M  V30 7631 H 768.806 2.77978 2.70831 0
M  V30 7632 H 766.907 0.5178 3.68985 0
M  V30 7633 H 767.02 2.33643 4.18267 0
M  V30 7634 H 765.384 1.15673 2.26918 0
M  V30 7635 H 766.167 2.80324 1.98175 0
M  V30 7636 N 768.612 -1.24939 0.960631 0
M  V30 7637 C 769.86 -1.92437 0.617441 0
M  V30 7638 C 770.181 -1.75543 -0.849101 0
M  V30 7639 O 769.451 -1.12269 -1.60538 0
M  V30 7640 H 768.031 -0.712192 0.225371 0
M  V30 7641 H 770.693 -1.5198 1.22017 0
M  V30 7642 H 769.789 -3.00247 0.851933 0
M  V30 7643 N 770.09 -0.729906 -1.39679 0
M  V30 7644 C 771.02 -0.101618 -2.33279 0
M  V30 7645 C 772.001 0.729854 -1.53646 0
M  V30 7646 O 773.186 0.67587 -1.82059 0
M  V30 7647 C 770.316 0.81024 -3.37716 0
M  V30 7648 C 769.27 0.0833126 -4.27919 0
M  V30 7649 C 768.596 1.11185 -5.23012 0
M  V30 7650 C 769.896 -1.07107 -5.112 0
M  V30 7651 H 771.59 -0.883452 -2.86069 0
M  V30 7652 H 769.136 -0.426283 -1.37546 0
M  V30 7653 H 771.089 1.25927 -4.02145 0
M  V30 7654 H 769.813 1.62413 -2.83354 0
M  V30 7655 H 768.472 -0.346043 -3.64963 0
M  V30 7656 H 768.12 1.91917 -4.64948 0
M  V30 7657 H 767.82 0.63026 -5.8421 0
M  V30 7658 H 769.344 1.56068 -5.90318 0
M  V30 7659 H 770.758 -0.700726 -5.69002 0
M  V30 7660 H 769.155 -1.48196 -5.81514 0
M  V30 7661 H 770.225 -1.89513 -4.46332 0
M  V30 7662 N 771.568 1.50203 -0.477153 0
M  V30 7663 C 772.979 1.86685 -0.0235041 0
M  V30 7664 C 773.33 1.39148 1.38319 0
M  V30 7665 O 772.455 0.759051 2.02651 0
M  V30 7666 C 773.05 3.38781 -0.0358767 0
M  V30 7667 C 771.609 3.74652 0.362327 0
M  V30 7668 C 770.756 2.7412 -0.41875 0
M  V30 7669 H 773.707 1.4286 -0.691133 0
M  V30 7670 H 773.728 3.72732 0.764924 0
M  V30 7671 H 773.24 3.73349 -1.05981 0
M  V30 7672 H 771.341 3.45686 1.39039 0
M  V30 7673 H 771.454 4.79063 0.059457 0
M  V30 7674 H 769.818 2.54376 0.128341 0
M  V30 7675 H 770.601 3.11532 -1.44231 0
M  V30 7676 N 773.046 0.209999 1.56195 0
M  V30 7677 C 774.292 -0.425442 1.98287 0
M  V30 7678 C 774.625 -1.60232 1.09724 0
M  V30 7679 O 773.9 -1.93902 0.152414 0
M  V30 7680 C 774.183 -0.871189 3.49403 0
M  V30 7681 C 774.036 0.308527 4.48741 0
M  V30 7682 C 775.355 -1.73146 4.04609 0
M  V30 7683 H 772.474 -0.153169 0.720908 0
M  V30 7684 H 775.116 0.303916 1.87554 0
M  V30 7685 H 773.266 -1.49266 3.58681 0
M  V30 7686 H 774.938 0.946487 4.51486 0
M  V30 7687 H 773.181 0.957878 4.23092 0
M  V30 7688 H 773.852 -0.0461143 5.51981 0
M  V30 7689 H 776.328 -1.2072 3.98203 0
M  V30 7690 H 775.204 -2.01228 5.10684 0
M  V30 7691 H 775.465 -2.69083 3.5078 0
M  V30 7692 N 774.524 -1.57472 -0.0634922 0
M  V30 7693 C 775.764 -1.89491 -0.766312 0
M  V30 7694 C 776.128 -0.80475 -1.74321 0
M  V30 7695 O 777.329 -1.00825 -2.49174 0
M  V30 7696 C 775.6 -3.26731 -1.44851 0
M  V30 7697 S 777.159 -3.80516 -2.18525 0
M  V30 7698 H 773.977 -0.663832 -0.254653 0
M  V30 7699 H 776.579 -1.95488 -0.0220867 0
M  V30 7700 H 775.283 -4.03967 -0.723824 0
M  V30 7701 H 774.814 -3.23953 -2.232 0
M  V30 7702 H 776.829 -3.5647 -3.45172 0
M  V30 7703 N 776.003 0.335068 -1.53997 0
M  V30 7704 C 776.935 1.4327 -1.78903 0
M  V30 7705 C 777.948 1.48347 -0.670598 0
M  V30 7706 O 779.137 1.51277 -0.947494 0
M  V30 7707 C 776.237 2.81878 -1.88144 0
M  V30 7708 C 775.41 3.00141 -3.18174 0
M  V30 7709 C 774.469 4.19041 -3.18263 0
M  V30 7710 O 773.495 4.12751 -3.9195 0
M  V30 7711 N 774.697 5.28004 -2.41231 0
M  V30 7712 H 777.462 1.22272 -2.73623 0
M  V30 7713 H 775.023 0.524996 -1.53152 0
M  V30 7714 H 777.015 3.59609 -1.85644 0
M  V30 7715 H 775.585 2.9598 -1.00572 0
M  V30 7716 H 774.805 2.09808 -3.33728 0
M  V30 7717 H 776.093 3.0923 -4.04047 0
M  V30 7718 H 775.491 5.35986 -1.8093 0
M  V30 7719 H 774.048 6.04196 -2.44521 0
M  V30 7720 N 777.481 1.45874 0.596531 0
M  V30 7721 C 778.758 1.40942 1.35627 0
M  V30 7722 C 779.138 0.0857066 2.10926 0
M  V30 7723 O 778.486 -0.932544 2.08605 0
M  V30 7724 C 778.696 2.63027 2.29386 0
M  V30 7725 C 780.044 3.08588 2.91649 0
M  V30 7726 O 781.068 2.63478 2.39704 0
M  V30 7727 O 779.927 3.86902 3.85965 0
M  V30 7728 H 777.021 0.559838 0.608696 0
M  V30 7729 H 779.567 1.5802 0.618698 0
M  V30 7730 H 778.339 3.5094 1.7308 0
M  V30 7731 H 777.962 2.48338 3.10506 0
M  V30 7732 N 778.959 -0.83999 1.33349 0
M  V30 7733 C 779.909 -1.93817 1.20079 0
M  V30 7734 C 780.893 -1.60564 0.103978 0
M  V30 7735 O 782.085 -1.73859 0.331964 0
M  V30 7736 C 779.214 -3.30151 0.941031 0
M  V30 7737 C 778.3 -3.69577 2.08023 0
M  V30 7738 N 778.691 -3.80707 3.3301 0
M  V30 7739 C 776.989 -3.99309 1.98667 0
M  V30 7740 C 777.69 -4.14899 4.07717 0
M  V30 7741 N 776.666 -4.27208 3.36146 0
M  V30 7742 H 780.468 -2.00576 2.14817 0
M  V30 7743 H 777.982 -1.03264 1.2534 0
M  V30 7744 H 779.979 -4.08617 0.826894 0
M  V30 7745 H 778.639 -3.247 0.00216738 0
M  V30 7746 H 779.65 -3.64644 3.67771 0
M  V30 7747 H 776.327 -4.02076 1.12433 0
M  V30 7748 H 777.717 -4.30857 5.15569 0
M  V30 7749 N 780.437 -1.16799 -1.0581 0
M  V30 7750 C 781.367 -0.902241 -2.15364 0
M  V30 7751 C 782.348 0.153351 -1.69407 0
M  V30 7752 O 783.533 0.00442032 -1.94199 0
M  V30 7753 C 780.663 -0.407911 -3.44896 0
M  V30 7754 C 779.617 -1.40197 -4.04387 0
M  V30 7755 C 778.943 -0.765848 -5.29187 0
M  V30 7756 C 780.243 -2.77316 -4.42598 0
M  V30 7757 H 781.937 -1.81841 -2.37853 0
M  V30 7758 H 779.483 -0.875731 -1.14311 0
M  V30 7759 H 781.436 -0.20945 -4.20879 0
M  V30 7760 H 780.16 0.54378 -3.22041 0
M  V30 7761 H 778.819 -1.58707 -3.30466 0
M  V30 7762 H 778.467 0.192482 -5.02632 0
M  V30 7763 H 778.167 -1.42939 -5.69949 0
M  V30 7764 H 779.691 -0.577519 -6.07863 0
M  V30 7765 H 781.105 -2.62561 -5.09642 0
M  V30 7766 H 779.502 -3.4019 -4.94359 0
M  V30 7767 H 780.572 -3.32199 -3.53231 0
M  V30 7768 N 781.915 1.24427 -0.967243 0
M  V30 7769 C 783.192 1.87831 -0.545776 0
M  V30 7770 C 783.572 1.87126 0.977099 0
M  V30 7771 O 782.92 1.34357 1.84826 0
M  V30 7772 C 783.13 3.29967 -1.13679 0
M  V30 7773 C 784.478 4.06654 -1.22139 0
M  V30 7774 O 785.502 3.39136 -1.08926 0
M  V30 7775 O 784.361 5.27455 -1.43017 0
M  V30 7776 H 781.455 0.806745 -0.181912 0
M  V30 7777 H 784.001 1.32403 -1.06148 0
M  V30 7778 H 782.773 3.24977 -2.17958 0
M  V30 7779 H 782.396 3.92969 -0.605093 0
M  V30 7780 N 783.393 0.737304 1.3929 0
M  V30 7781 C 784.64 0.286257 2.00467 0
M  V30 7782 C 784.968 -1.1272 1.58507 0
M  V30 7783 O 784.223 -1.7832 0.806257 0
M  V30 7784 C 784.522 0.338438 3.55794 0
M  V30 7785 C 784.188 1.70524 4.17411 0
M  V30 7786 C 782.85 2.07934 4.33955 0
M  V30 7787 C 785.202 2.60256 4.51571 0
M  V30 7788 C 782.53 3.34578 4.81948 0
M  V30 7789 C 784.882 3.86275 5.00974 0
M  V30 7790 C 783.546 4.23774 5.15725 0
M  V30 7791 H 782.816 0.104749 0.733559 0
M  V30 7792 H 785.463 0.944598 1.66582 0
M  V30 7793 H 783.768 -0.403478 3.89717 0
M  V30 7794 H 785.465 -0.0287255 4.0099 0
M  V30 7795 H 782.055 1.40439 4.04938 0
M  V30 7796 H 786.239 2.32624 4.38406 0
M  V30 7797 H 781.495 3.63572 4.91554 0
M  V30 7798 H 785.669 4.5596 5.26378 0
M  V30 7799 H 783.296 5.21972 5.52674 0
M  V30 7800 N 784.871 -1.49948 0.485112 0
M  V30 7801 C 786.117 -2.0332 -0.0571625 0
M  V30 7802 C 786.472 -1.35951 -1.36144 0
M  V30 7803 O 785.765 -0.480871 -1.85467 0
M  V30 7804 C 785.959 -3.56282 -0.282434 0
M  V30 7805 C 785.788 -4.38476 0.998455 0
M  V30 7806 C 784.558 -4.81076 1.54576 0
M  V30 7807 C 786.756 -4.78013 1.89758 0
M  V30 7808 N 784.738 -5.47641 2.77421 0
M  V30 7809 C 786.109 -5.44133 2.97186 0
M  V30 7810 C 788.164 -4.59963 1.90627 0
M  V30 7811 C 786.867 -5.94113 4.0549 0
M  V30 7812 C 788.893 -5.10893 2.97897 0
M  V30 7813 C 788.255 -5.77 4.04043 0
M  V30 7814 H 784.354 -0.781758 0.0194642 0
M  V30 7815 H 786.938 -1.833 0.65644 0
M  V30 7816 H 785.109 -3.76219 -0.965083 0
M  V30 7817 H 786.841 -3.96299 -0.820298 0
M  V30 7818 H 783.596 -4.60814 1.09304 0
M  V30 7819 H 784.02 -5.85521 3.39844 0
M  V30 7820 H 788.662 -4.08274 1.09875 0
M  V30 7821 H 786.38 -6.44832 4.8705 0
M  V30 7822 H 789.966 -4.98748 2.9957 0
M  V30 7823 H 788.846 -6.15698 4.85681 0
M  V30 7824 N 786.349 -0.21828 -1.56081 0
M  V30 7825 C 787.259 0.704602 -2.23769 0
M  V30 7826 C 788.275 1.21633 -1.24425 0
M  V30 7827 O 789.451 1.25862 -1.57228 0
M  V30 7828 C 786.516 1.89725 -2.90182 0
M  V30 7829 C 785.577 1.42782 -4.0486 0
M  V30 7830 C 784.81 2.56361 -4.68097 0
M  V30 7831 O 785.033 3.74417 -4.30312 0
M  V30 7832 O 783.967 2.2775 -5.57148 0
M  V30 7833 H 787.793 0.158007 -3.03289 0
M  V30 7834 H 785.378 0.0120279 -1.49395 0
M  V30 7835 H 787.26 2.59382 -3.32113 0
M  V30 7836 H 785.935 2.432 -2.13624 0
M  V30 7837 H 784.842 0.699359 -3.67505 0
M  V30 7838 H 786.175 0.939474 -4.83151 0
M  V30 7839 N 787.827 1.57504 0.0551401 0
M  V30 7840 C 789.052 1.92682 0.767352 0
M  V30 7841 C 789.477 0.81614 1.69472 0
M  V30 7842 O 788.835 -0.229989 1.79835 0
M  V30 7843 C 788.883 3.26866 1.52286 0
M  V30 7844 O 787.987 3.17274 2.63459 0
M  V30 7845 H 787.328 0.630502 0.208238 0
M  V30 7846 H 789.858 2.04592 0.0184026 0
M  V30 7847 H 789.868 3.61138 1.8985 0
M  V30 7848 H 788.543 4.07276 0.842541 0
M  V30 7849 H 787.12 2.94589 2.2863 0
M  V30 7850 N 789.305 -0.326896 1.54172 0
M  V30 7851 C 790.551 -1.06681 1.72473 0
M  V30 7852 C 790.884 -1.87779 0.49523 0
M  V30 7853 O 790.159 -1.87754 -0.507803 0
M  V30 7854 C 790.442 -1.99429 2.99834 0
M  V30 7855 C 790.295 -1.21682 4.33028 0
M  V30 7856 C 791.614 -2.99002 3.22933 0
M  V30 7857 H 788.733 -0.386438 0.627563 0
M  V30 7858 H 791.375 -0.343779 1.86864 0
M  V30 7859 H 789.525 -2.61081 2.87696 0
M  V30 7860 H 791.197 -0.625153 4.57044 0
M  V30 7861 H 789.44 -0.519045 4.30684 0
M  V30 7862 H 790.111 -1.89766 5.18356 0
M  V30 7863 H 792.587 -2.4747 3.34511 0
M  V30 7864 H 791.463 -3.61085 4.13412 0
M  V30 7865 H 791.724 -3.71281 2.40006 0
M  V30 7866 N 790.784 -1.46188 -0.588786 0
M  V30 7867 C 792.031 -1.51184 -1.34721 0
M  V30 7868 C 792.359 -0.161084 -1.93832 0
M  V30 7869 O 791.614 0.842557 -1.76634 0
M  V30 7870 C 791.913 -2.55364 -2.50048 0
M  V30 7871 C 791.579 -3.99553 -2.08969 0
M  V30 7872 C 790.241 -4.38811 -1.9748 0
M  V30 7873 C 792.593 -4.90156 -1.77191 0
M  V30 7874 C 789.921 -5.66544 -1.52463 0
M  V30 7875 C 792.273 -6.1832 -1.33654 0
M  V30 7876 C 790.937 -6.5649 -1.20738 0
M  V30 7877 H 790.207 -0.55322 -0.49298 0
M  V30 7878 H 792.854 -1.79634 -0.663627 0
M  V30 7879 H 791.159 -2.20552 -3.23827 0
M  V30 7880 H 792.856 -2.5646 -3.08268 0
M  V30 7881 H 789.446 -3.68518 -2.18843 0
M  V30 7882 H 793.63 -4.60549 -1.84955 0
M  V30 7883 H 788.886 -5.94895 -1.411 0
M  V30 7884 H 793.06 -6.87956 -1.08117 0
M  V30 7885 H 790.687 -7.55362 -0.856307 0
M  V30 7886 N 792.262 0.832906 -1.33792 0
M  V30 7887 C 793.49 1.62048 -1.28639 0
M  V30 7888 C 793.905 1.88269 0.141522 0
M  V30 7889 O 793.262 1.46706 1.08553 0
M  V30 7890 C 793.313 2.96722 -2.0649 0
M  V30 7891 O 793.034 2.7165 -3.43712 0
M  V30 7892 C 794.535 3.91144 -2.08617 0
M  V30 7893 H 791.755 0.504032 -0.442937 0
M  V30 7894 H 794.299 1.03704 -1.76255 0
M  V30 7895 H 792.454 3.51652 -1.62541 0
M  V30 7896 H 792.868 3.57453 -3.83833 0
M  V30 7897 H 794.342 4.82837 -2.67531 0
M  V30 7898 H 794.819 4.25766 -1.07796 0
M  V30 7899 H 795.425 3.42152 -2.52611 0
M  V30 7900 N 793.74 1.17359 1.05189 0
M  V30 7901 C 794.988 0.960087 1.77839 0
M  V30 7902 C 795.309 -0.512554 1.88143 0
M  V30 7903 O 794.579 -1.3721 1.39822 0
M  V30 7904 H 793.159 0.352234 0.658741 0
M  V30 7905 H 795.821 1.47834 1.27008 0
M  V30 7906 H 794.917 1.38843 2.79516 0
M  V30 7907 N 795.218 -1.23913 0.973828 0
M  V30 7908 C 796.148 -2.27453 0.527969 0
M  V30 7909 C 797.129 -1.6443 -0.435513 0
M  V30 7910 O 798.314 -1.9137 -0.330306 0
M  V30 7911 C 795.444 -3.4685 -0.176757 0
M  V30 7912 C 794.398 -4.22181 0.703352 0
M  V30 7913 C 793.724 -5.34534 -0.133215 0
M  V30 7914 C 795.024 -4.82865 1.99096 0
M  V30 7915 H 796.718 -2.65 1.3934 0
M  V30 7916 H 794.264 -1.27388 0.671446 0
M  V30 7917 H 796.217 -4.18424 -0.499934 0
M  V30 7918 H 794.941 -3.08346 -1.07659 0
M  V30 7919 H 793.6 -3.52416 1.00989 0
M  V30 7920 H 793.248 -4.92271 -1.03338 0
M  V30 7921 H 792.948 -5.85855 0.452494 0
M  V30 7922 H 794.472 -6.08933 -0.450924 0
M  V30 7923 H 795.886 -5.46481 1.73297 0
M  V30 7924 H 794.283 -5.44444 2.52389 0
M  V30 7925 H 795.353 -4.03977 2.68199 0
M  V30 7926 N 796.696 -0.74468 -1.38897 0
M  V30 7927 C 797.924 -0.307428 -2.04603 0
M  V30 7928 C 798.339 1.06115 -1.56157 0
M  V30 7929 O 797.696 1.67233 -0.730701 0
M  V30 7930 C 797.747 -0.31101 -3.6016 0
M  V30 7931 O 797.468 -1.62557 -4.06825 0
M  V30 7932 C 798.969 0.141213 -4.43075 0
M  V30 7933 H 796.189 -0.132741 -0.657739 0
M  V30 7934 H 798.733 -1.01104 -1.77759 0
M  V30 7935 H 796.888 0.343792 -3.85872 0
M  V30 7936 H 797.302 -1.54569 -5.01207 0
M  V30 7937 H 798.776 0.0875449 -5.51931 0
M  V30 7938 H 799.253 1.18782 -4.22833 0
M  V30 7939 H 799.859 -0.484383 -4.22533 0
M  V30 7940 N 798.174 1.49689 -0.493057 0
M  V30 7941 C 799.124 2.25901 0.308682 0
M  V30 7942 C 800.108 1.30408 0.94247 0
M  V30 7943 O 801.3 1.55179 0.851384 0
M  V30 7944 C 798.429 3.14463 1.37725 0
M  V30 7945 C 797.515 4.17414 0.7501 0
M  V30 7946 N 797.906 5.05599 -0.142597 0
M  V30 7947 C 796.204 4.34377 1.01159 0
M  V30 7948 C 796.905 5.7954 -0.500782 0
M  V30 7949 N 795.881 5.43446 0.129386 0
M  V30 7950 H 799.683 2.91451 -0.378652 0
M  V30 7951 H 797.197 1.59441 -0.308614 0
M  V30 7952 H 799.194 3.67687 1.965 0
M  V30 7953 H 797.854 2.50464 2.06635 0
M  V30 7954 H 798.865 5.15354 -0.512894 0
M  V30 7955 H 795.542 3.81588 1.69402 0
M  V30 7956 H 796.932 6.60534 -1.23063 0
M  V30 7957 N 799.652 0.226554 1.55963 0
M  V30 7958 C 800.901 -0.40417 1.97609 0
M  V30 7959 C 801.214 -1.60541 1.1174 0
M  V30 7960 O 802.42 -2.30598 1.43307 0
M  V30 7961 C 800.876 -0.770466 3.51556 0
M  V30 7962 C 800.484 0.408244 4.46136 0
M  V30 7963 C 802.228 -1.36651 4.01904 0
M  V30 7964 C 800.135 0.0192347 5.91397 0
M  V30 7965 H 799.065 -0.15478 0.737943 0
M  V30 7966 H 801.716 0.323558 1.80625 0
M  V30 7967 H 800.098 -1.55575 3.6416 0
M  V30 7968 H 801.272 1.18575 4.45283 0
M  V30 7969 H 799.587 0.917859 4.06158 0
M  V30 7970 H 802.184 -1.67055 5.07934 0
M  V30 7971 H 802.527 -2.28403 3.48049 0
M  V30 7972 H 803.06 -0.644556 3.92543 0
M  V30 7973 H 799.799 0.90336 6.49245 0
M  V30 7974 H 799.319 -0.722485 5.95433 0
M  V30 7975 H 800.998 -0.405711 6.45727 0
M  V30 7976 N 801.13 -1.57531 -0.0467866 0
M  V30 7977 C 802.407 -1.79568 -0.775536 0
M  V30 7978 C 802.787 -0.820322 -1.94509 0
M  V30 7979 O 802.135 0.14134 -2.28062 0
M  V30 7980 C 802.345 -3.26789 -1.22516 0
M  V30 7981 C 803.693 -3.91299 -1.64835 0
M  V30 7982 O 804.717 -3.30831 -1.3202 0
M  V30 7983 O 803.576 -4.97727 -2.25677 0
M  V30 7984 H 800.67 -0.737817 -0.373572 0
M  V30 7985 H 803.216 -1.69682 -0.0249302 0
M  V30 7986 H 801.988 -3.89357 -0.389446 0
M  V30 7987 H 801.611 -3.41496 -2.03633 0
M  V30 7988 N 802.608 0.318715 -1.54344 0
M  V30 7989 C 803.571 1.37545 -1.83342 0
M  V30 7990 C 804.571 1.445 -0.705444 0
M  V30 7991 O 805.761 1.44443 -0.973752 0
M  V30 7992 C 802.893 2.76225 -1.99781 0
M  V30 7993 H 804.086 1.13084 -2.77762 0
M  V30 7994 H 801.639 0.554457 -1.46135 0
M  V30 7995 H 802.374 3.05934 -1.07588 0
M  V30 7996 H 802.159 2.7257 -2.81865 0
M  V30 7997 H 803.649 3.52664 -2.23647 0
M  V30 7998 N 804.086 1.46499 0.581025 0
M  V30 7999 C 805.036 1.53606 1.68491 0
M  V30 8000 C 806.02 0.396853 1.55929 0
M  V30 8001 O 807.212 0.645366 1.64815 0
M  V30 8002 C 804.341 1.53089 3.07276 0
M  V30 8003 C 803.427 2.72309 3.25128 0
M  V30 8004 N 803.818 3.97216 3.13134 0
M  V30 8005 C 802.116 2.68568 3.56072 0
M  V30 8006 C 802.817 4.7693 3.33036 0
M  V30 8007 N 801.793 4.08833 3.58269 0
M  V30 8008 H 805.595 2.47976 1.5775 0
M  V30 8009 H 803.109 1.42161 0.785104 0
M  V30 8010 H 805.106 1.56268 3.86505 0
M  V30 8011 H 803.766 0.597969 3.19146 0
M  V30 8012 H 804.777 4.28439 2.90964 0
M  V30 8013 H 801.454 1.84307 3.74616 0
M  V30 8014 H 802.844 5.85879 3.28932 0
M  V30 8015 N 805.565 -0.825799 1.34232 0
M  V30 8016 C 806.812 -1.58185 1.26427 0
M  V30 8017 C 807.14 -1.93786 -0.166533 0
M  V30 8018 O 806.395 -1.59986 -1.12707 0
M  V30 8019 C 806.694 -2.89362 2.09772 0
M  V30 8020 C 806.36 -2.73066 3.58812 0
M  V30 8021 C 805.022 -2.68329 3.99441 0
M  V30 8022 C 807.374 -2.56946 4.53462 0
M  V30 8023 C 804.702 -2.4539 5.32917 0
M  V30 8024 C 807.054 -2.35538 5.87115 0
M  V30 8025 C 805.718 -2.29212 6.26912 0
M  V30 8026 H 804.988 -0.57884 0.462629 0
M  V30 8027 H 807.635 -0.955714 1.65947 0
M  V30 8028 H 805.94 -3.56251 1.63071 0
M  V30 8029 H 807.637 -3.4694 2.01081 0
M  V30 8030 H 804.227 -2.77591 3.26559 0
M  V30 8031 H 808.411 -2.59631 4.22972 0
M  V30 8032 H 803.667 -2.38947 5.62774 0
M  V30 8033 H 807.841 -2.22051 6.6005 0
M  V30 8034 H 805.468 -2.11197 7.30274 0
M  V30 8035 N 807.043 -1.17915 -1.04565 0
M  V30 8036 C 807.973 -0.925033 -2.14395 0
M  V30 8037 C 808.954 0.135375 -1.6956 0
M  V30 8038 O 810.139 -0.0161774 -1.94193 0
M  V30 8039 C 807.269 -0.444469 -3.44444 0
M  V30 8040 C 806.223 -1.44478 -4.02877 0
M  V30 8041 C 805.549 -0.821933 -5.28345 0
M  V30 8042 C 806.849 -2.81995 -4.39632 0
M  V30 8043 H 808.543 -1.84354 -2.35911 0
M  V30 8044 H 806.089 -0.887806 -1.13375 0
M  V30 8045 H 808.042 -0.254078 -4.20633 0
M  V30 8046 H 806.766 0.509592 -3.226 0
M  V30 8047 H 805.425 -1.62203 -3.28764 0
M  V30 8048 H 805.073 0.139161 -5.02807 0
M  V30 8049 H 804.773 -1.48976 -5.68401 0
M  V30 8050 H 806.297 -0.641959 -6.07216 0
M  V30 8051 H 807.711 -2.67952 -5.06828 0
M  V30 8052 H 806.108 -3.45414 -4.90723 0
M  V30 8053 H 807.178 -3.35927 -3.49687 0
M  V30 8054 N 808.521 1.23394 -0.980386 0
M  V30 8055 C 809.746 1.96384 -0.666935 0
M  V30 8056 C 810.171 1.72087 0.759456 0
M  V30 8057 O 809.529 0.992328 1.51732 0
M  V30 8058 C 809.577 3.47499 -0.963177 0
M  V30 8059 O 808.681 4.12363 -0.0552051 0
M  V30 8060 H 808.022 0.614797 -0.250839 0
M  V30 8061 H 810.552 1.56831 -1.31398 0
M  V30 8062 H 810.562 3.97953 -0.899877 0
M  V30 8063 H 809.237 3.6451 -2.00264 0
M  V30 8064 H 807.814 3.72499 -0.172914 0
M  V30 8065 N 809.999 0.752036 1.385 0
M  V30 8066 C 810.931 0.0835089 2.29048 0
M  V30 8067 C 811.944 -0.685402 1.47669 0
M  V30 8068 O 813.133 -0.526748 1.70551 0
M  V30 8069 C 810.233 -0.905772 3.26572 0
M  V30 8070 C 809.406 -0.194828 4.36966 0
M  V30 8071 C 808.465 -1.09464 5.14688 0
M  V30 8072 O 807.491 -0.565743 5.66381 0
M  V30 8073 N 808.693 -2.42287 5.2752 0
M  V30 8074 H 811.458 0.861142 2.87062 0
M  V30 8075 H 809.019 0.602689 1.50264 0
M  V30 8076 H 811.011 -1.51072 3.75446 0
M  V30 8077 H 809.581 -1.58449 2.69467 0
M  V30 8078 H 808.801 0.590812 3.89747 0
M  V30 8079 H 810.089 0.297189 5.07931 0
M  V30 8080 H 809.487 -2.87715 4.8707 0
M  V30 8081 H 808.044 -2.97836 5.79773 0
M  V30 8082 N 811.477 -1.49425 0.500989 0
M  V30 8083 C 812.705 -2.06861 -0.0403443 0
M  V30 8084 C 813.12 -1.36132 -1.30819 0
M  V30 8085 O 812.477 -0.439647 -1.77125 0
M  V30 8086 C 812.528 -3.6027 -0.297902 0
M  V30 8087 O 812.249 -4.28338 0.919686 0
M  V30 8088 C 813.75 -4.34419 -0.882876 0
M  V30 8089 H 810.97 -0.670688 0.0204619 0
M  V30 8090 H 813.514 -1.92207 0.698342 0
M  V30 8091 H 811.669 -3.74627 -0.98657 0
M  V30 8092 H 812.083 -5.2004 0.682528 0
M  V30 8093 H 813.557 -5.42631 -1.01268 0
M  V30 8094 H 814.034 -3.96898 -1.88066 0
M  V30 8095 H 814.64 -4.24669 -0.231677 0
M  V30 8096 N 812.955 -0.234822 -1.55841 0
M  V30 8097 C 813.902 0.6698 -2.20867 0
M  V30 8098 C 814.872 1.18042 -1.16856 0
M  V30 8099 O 816.057 1.23709 -1.45261 0
M  V30 8100 C 813.197 1.86646 -2.90271 0
M  V30 8101 C 812.31 1.39351 -4.08908 0
M  V30 8102 C 811.445 2.54878 -4.66059 0
M  V30 8103 C 810.484 2.04384 -5.76969 0
M  V30 8104 N 809.621 3.13233 -6.28355 0
M  V30 8105 H 814.461 0.10858 -2.97802 0
M  V30 8106 H 811.998 0.041836 -1.4704 0
M  V30 8107 H 813.956 2.56926 -3.28702 0
M  V30 8108 H 812.586 2.40035 -2.15831 0
M  V30 8109 H 811.638 0.585173 -3.75872 0
M  V30 8110 H 812.95 0.983356 -4.89011 0
M  V30 8111 H 812.104 3.33219 -5.07001 0
M  V30 8112 H 810.843 2.99188 -3.85146 0
M  V30 8113 H 809.848 1.24509 -5.35516 0
M  V30 8114 H 811.073 1.61057 -6.59725 0
M  V30 8115 H 809.019 3.57 -5.50352 0
M  V30 8116 H 808.936 2.76511 -7.03618 0
M  V30 8117 H 810.204 3.91669 -6.73955 0
M  V30 8118 N 814.433 1.57553 0.0384317 0
M  V30 8119 C 815.365 2.02726 1.06934 0
M  V30 8120 C 816.378 0.938502 1.33026 0
M  V30 8121 O 817.567 1.21595 1.30678 0
M  V30 8122 C 814.667 2.37958 2.41308 0
M  V30 8123 C 813.84 3.69098 2.34703 0
M  V30 8124 C 812.899 3.91623 3.51451 0
M  V30 8125 O 811.925 4.628 3.31368 0
M  V30 8126 N 813.127 3.36538 4.72993 0
M  V30 8127 H 815.892 2.91781 0.684381 0
M  V30 8128 H 813.453 1.60307 0.226542 0
M  V30 8129 H 815.445 2.50172 3.18113 0
M  V30 8130 H 814.015 1.54621 2.71682 0
M  V30 8131 H 813.235 3.67325 1.43059 0
M  V30 8132 H 814.523 4.55144 2.27424 0
M  V30 8133 H 813.921 2.78828 4.92211 0
M  V30 8134 H 812.478 3.54148 5.47195 0
M  V30 8135 N 815.911 -0.310526 1.54511 0
M  V30 8136 C 816.843 -1.40405 1.8116 0
M  V30 8137 C 817.856 -1.47261 0.694114 0
M  V30 8138 O 819.045 -1.49751 0.971441 0
M  V30 8139 C 816.145 -2.78849 1.92604 0
M  V30 8140 C 815.318 -2.95041 3.22908 0
M  V30 8141 C 814.377 -4.13925 3.24889 0
M  V30 8142 O 813.403 -4.06463 3.98467 0
M  V30 8143 N 814.605 -5.24099 2.496 0
M  V30 8144 H 817.37 -1.17903 2.75534 0
M  V30 8145 H 814.931 -0.500564 1.53967 0
M  V30 8146 H 816.923 -3.5661 1.91342 0
M  V30 8147 H 815.493 -2.94342 1.05268 0
M  V30 8148 H 814.713 -2.04472 3.37023 0
M  V30 8149 H 816.001 -3.02763 4.08916 0
M  V30 8150 H 815.399 -5.33039 1.89435 0
M  V30 8151 H 813.956 -6.0023 2.54102 0
M  V30 8152 N 817.389 -1.46805 -0.573248 0
M  V30 8153 C 818.637 -1.52302 -1.32847 0
M  V30 8154 C 818.958 -0.180159 -1.94166 0
M  V30 8155 O 818.228 0.794291 -1.79075 0
M  V30 8156 H 816.808 -0.56097 -0.493276 0
M  V30 8157 H 819.47 -1.82998 -0.670642 0
M  V30 8158 H 818.566 -2.28089 -2.13031 0
M  V30 8159 N 818.867 0.818669 -1.34668 0
M  V30 8160 C 819.797 1.94468 -1.29245 0
M  V30 8161 C 820.778 1.69257 -0.169101 0
M  V30 8162 O 821.963 1.90794 -0.362143 0
M  V30 8163 C 819.093 3.31001 -1.05145 0
M  V30 8164 C 818.047 3.70663 -2.13992 0
M  V30 8165 C 817.373 5.05226 -1.75074 0
M  V30 8166 C 818.673 3.82312 -3.55858 0
M  V30 8167 H 820.367 1.99263 -2.2346 0
M  V30 8168 H 817.913 0.957304 -1.07572 0
M  V30 8169 H 819.866 4.09364 -0.999949 0
M  V30 8170 H 818.59 3.26517 -0.0737312 0
M  V30 8171 H 817.249 2.94578 -2.18219 0
M  V30 8172 H 816.897 4.97233 -0.759518 0
M  V30 8173 H 816.597 5.32734 -2.47928 0
M  V30 8174 H 818.121 5.86042 -1.71427 0
M  V30 8175 H 819.535 4.50935 -3.5402 0
M  V30 8176 H 817.932 4.21278 -4.2737 0
M  V30 8177 H 819.002 2.84193 -3.9289 0
M  V30 8178 N 820.346 1.18468 1.03938 0
M  V30 8179 C 821.294 0.909286 2.14091 0
M  V30 8180 C 822.288 -0.130928 1.68893 0
M  V30 8181 O 823.494 0.0173403 1.79992 0
M  V30 8182 H 819.869 0.27658 0.699291 0
M  V30 8183 H 821.84 1.84514 2.34515 0
M  V30 8184 C 820.589 0.452922 3.44737 0
M  V30 8185 H 819.912 1.24485 3.79926 0
M  V30 8186 H 821.352 0.299238 4.22943 0
M  V30 8187 C 819.811 -0.831435 3.26479 0
M  V30 8188 O 820.341 -1.89535 3.54174 0
M  V30 8189 N 818.547 -0.784545 2.79809 0
M  V30 8190 H 818.094 0.0814746 2.57471 0
M  V30 8191 H 818.052 -1.64431 2.67973 0
M  V30 8192 N 821.824 -1.22873 0.986916 0
M  V30 8193 C 823.071 -1.91462 0.659424 0
M  V30 8194 C 823.399 -1.76931 -0.807825 0
M  V30 8195 O 822.654 -1.12829 -1.59901 0
M  V30 8196 C 822.953 -3.43014 1.00379 0
M  V30 8197 C 822.619 -3.77731 2.46232 0
M  V30 8198 C 821.281 -3.86918 2.86091 0
M  V30 8199 C 823.633 -3.94343 3.40798 0
M  V30 8200 C 820.961 -4.10149 4.19518 0
M  V30 8201 C 823.313 -4.19076 4.73875 0
M  V30 8202 C 821.977 -4.26486 5.13484 0
M  V30 8203 H 821.247 -0.700611 0.2413 0
M  V30 8204 H 823.894 -1.45763 1.24199 0
M  V30 8205 H 822.199 -3.90329 0.339226 0
M  V30 8206 H 823.896 -3.94327 0.728518 0
M  V30 8207 H 820.486 -3.71159 2.14334 0
M  V30 8208 H 824.67 -3.86629 3.11178 0
M  V30 8209 H 819.926 -4.1411 4.49803 0
M  V30 8210 H 824.1 -4.30873 5.47102 0
M  V30 8211 H 821.727 -4.4424 6.16891 0
M  V30 8212 N 823.302 -0.75937 -1.38099 0
M  V30 8213 C 824.527 -0.327859 -2.04792 0
M  V30 8214 C 824.952 1.03752 -1.56899 0
M  V30 8215 O 824.31 1.66235 -0.723581 0
M  V30 8216 C 824.358 -0.366264 -3.58735 0
M  V30 8217 O 823.462 0.637697 -4.0744 0
M  V30 8218 H 822.803 -0.144092 -0.648177 0
M  V30 8219 H 825.333 -1.03211 -1.7666 0
M  V30 8220 H 825.343 -0.219179 -4.07411 0
M  V30 8221 H 824.018 -1.36243 -3.92951 0
M  V30 8222 H 822.595 0.454749 -3.70117 0
M  V30 8223 N 824.78 1.49157 -0.508906 0
M  V30 8224 C 826.01 2.06579 0.0293308 0
M  V30 8225 C 826.418 1.36852 1.30645 0
M  V30 8226 O 825.761 0.443079 1.78276 0
M  V30 8227 C 825.823 3.57838 0.345296 0
M  V30 8228 C 825.487 4.49302 -0.835256 0
M  V30 8229 C 826.484 4.90345 -1.72793 0
M  V30 8230 C 824.169 4.91494 -1.0363 0
M  V30 8231 C 826.163 5.72327 -2.80573 0
M  V30 8232 C 823.85 5.7325 -2.11726 0
M  V30 8233 C 824.848 6.13572 -3.00032 0
M  V30 8234 O 824.536 6.93691 -4.06261 0
M  V30 8235 H 824.268 0.675679 -0.0208193 0
M  V30 8236 H 826.822 1.9282 -0.707789 0
M  V30 8237 H 825.052 3.69634 1.13612 0
M  V30 8238 H 826.741 3.97467 0.823089 0
M  V30 8239 H 827.507 4.58388 -1.58446 0
M  V30 8240 H 823.386 4.59605 -0.358308 0
M  V30 8241 H 826.93 6.03719 -3.49527 0
M  V30 8242 H 822.827 6.0462 -2.26065 0
M  V30 8243 H 823.595 7.12011 -4.03711 0
M  V30 8244 N 826.258 0.243083 1.55714 0
M  V30 8245 C 827.188 -0.652336 2.24203 0
M  V30 8246 C 828.169 -1.1843 1.221 0
M  V30 8247 O 829.354 -1.22435 1.50743 0
M  V30 8248 C 826.484 -1.85111 2.93856 0
M  V30 8249 C 825.438 -1.45208 4.02615 0
M  V30 8250 C 824.764 -2.73137 4.59674 0
M  V30 8251 C 826.064 -0.625988 5.18535 0
M  V30 8252 H 827.758 -0.0812504 2.9929 0
M  V30 8253 H 825.304 -0.0376388 1.43951 0
M  V30 8254 H 827.257 -2.48314 3.40468 0
M  V30 8255 H 825.981 -2.44751 2.16251 0
M  V30 8256 H 824.64 -0.843406 3.56766 0
M  V30 8257 H 824.288 -3.30967 3.78774 0
M  V30 8258 H 823.988 -2.47163 5.33089 0
M  V30 8259 H 825.512 -3.37245 5.09017 0
M  V30 8260 H 826.926 -1.16223 5.61396 0
M  V30 8261 H 825.323 -0.462465 5.98315 0
M  V30 8262 H 826.393 0.362652 4.83542 0
M  V30 8263 N 827.736 -1.57571 -0.0300757 0
M  V30 8264 C 828.964 -1.93485 -0.732891 0
M  V30 8265 C 829.379 -0.842758 -1.68947 0
M  V30 8266 O 828.736 0.180904 -1.81601 0
M  V30 8267 C 828.787 -3.29328 -1.49082 0
M  V30 8268 O 828.508 -4.34341 -0.572639 0
M  V30 8269 C 830.009 -3.79517 -2.29088 0
M  V30 8270 H 827.229 -0.638588 -0.206026 0
M  V30 8271 H 829.773 -2.04496 0.0120966 0
M  V30 8272 H 827.928 -3.19716 -2.1877 0
M  V30 8273 H 828.342 -5.12748 -1.10406 0
M  V30 8274 H 829.816 -4.77081 -2.77665 0
M  V30 8275 H 830.293 -3.10659 -3.10464 0
M  V30 8276 H 830.899 -3.92208 -1.64477 0
M  V30 8277 N 829.214 0.302327 -1.54673 0
M  V30 8278 C 830.177 1.35592 -1.8479 0
M  V30 8279 C 831.177 1.43743 -0.72073 0
M  V30 8280 O 832.367 1.43402 -0.989017 0
M  V30 8281 C 829.499 2.74091 -2.02699 0
M  V30 8282 H 830.692 1.10132 -2.78946 0
M  V30 8283 H 828.245 0.538926 -1.46715 0
M  V30 8284 H 828.98 3.04775 -1.10826 0
M  V30 8285 H 828.765 2.69565 -2.8474 0
M  V30 8286 H 830.255 3.50272 -2.27374 0
M  V30 8287 N 830.692 1.47107 0.565454 0
M  V30 8288 C 831.922 1.56681 1.34664 0
M  V30 8289 C 832.33 0.213011 1.87997 0
M  V30 8290 O 831.673 -0.802629 1.65238 0
M  V30 8291 C 831.735 2.52528 2.55871 0
M  V30 8292 C 831.399 3.98403 2.23883 0
M  V30 8293 C 832.396 4.87125 1.81673 0
M  V30 8294 C 830.081 4.43674 2.35496 0
M  V30 8295 C 832.075 6.19135 1.51494 0
M  V30 8296 C 829.762 5.75714 2.0493 0
M  V30 8297 C 830.76 6.63266 1.62996 0
M  V30 8298 O 830.448 7.92853 1.32813 0
M  V30 8299 H 830.18 0.531967 0.417117 0
M  V30 8300 H 832.734 1.93368 0.692669 0
M  V30 8301 H 830.964 2.10893 3.24131 0
M  V30 8302 H 832.653 2.5232 3.17945 0
M  V30 8303 H 833.419 4.534 1.72201 0
M  V30 8304 H 829.298 3.7574 2.67096 0
M  V30 8305 H 832.842 6.87429 1.1869 0
M  V30 8306 H 828.739 6.08983 2.14031 0
M  V30 8307 H 829.507 8.0528 1.46513 0
M  V30 8308 N 832.17 -0.811516 1.35101 0
M  V30 8309 C 833.102 -1.93102 1.23468 0
M  V30 8310 C 834.115 -1.62021 0.159095 0
M  V30 8311 O 835.304 -1.73682 0.411945 0
M  V30 8312 C 832.404 -3.27345 0.877404 0
M  V30 8313 C 831.577 -3.86368 2.05033 0
M  V30 8314 C 830.636 -4.99009 1.66963 0
M  V30 8315 O 829.662 -5.16698 2.38772 0
M  V30 8316 N 830.864 -5.7749 0.590394 0
M  V30 8317 H 833.629 -2.0361 2.19916 0
M  V30 8318 H 831.19 -0.988687 1.28205 0
M  V30 8319 H 833.182 -4.00163 0.604298 0
M  V30 8320 H 831.752 -3.126 0.00275267 0
M  V30 8321 H 830.972 -3.05804 2.48752 0
M  V30 8322 H 832.26 -4.22533 2.83449 0
M  V30 8323 H 831.658 -5.657 -0.00633259 0
M  V30 8324 H 830.215 -6.50708 0.377055 0
M  V30 8325 N 833.648 -1.19017 -1.03309 0
M  V30 8326 C 834.611 -0.926076 -2.09658 0
M  V30 8327 C 835.611 0.0917077 -1.60538 0
M  V30 8328 O 836.801 -0.142574 -1.73616 0
M  V30 8329 C 833.933 -0.390958 -3.38651 0
M  V30 8330 H 835.126 -1.86923 -2.3452 0
M  V30 8331 H 832.679 -1.00325 -1.19853 0
M  V30 8332 H 833.414 0.558446 -3.19456 0
M  V30 8333 H 833.199 -1.12474 -3.75622 0
M  V30 8334 H 834.689 -0.225131 -4.16993 0
M  V30 8335 N 835.127 1.22348 -0.993418 0
M  V30 8336 C 836.355 1.95125 -0.688021 0
M  V30 8337 C 836.77 1.73377 0.747388 0
M  V30 8338 O 836.127 1.03317 1.50439 0
M  V30 8339 C 836.178 3.47819 -0.985097 0
M  V30 8340 O 835.899 3.68838 -2.3641 0
M  V30 8341 C 837.4 4.37779 -0.697474 0
M  V30 8342 H 834.62 0.62087 -0.254481 0
M  V30 8343 H 837.164 1.55485 -1.32833 0
M  V30 8344 H 835.319 3.85426 -0.390583 0
M  V30 8345 H 835.733 4.63032 -2.46377 0
M  V30 8346 H 837.207 5.43666 -0.955604 0
M  V30 8347 H 837.684 4.37651 0.368524 0
M  V30 8348 H 838.29 4.05799 -1.27306 0
M  V30 8349 N 836.605 0.766683 1.37694 0
M  V30 8350 C 837.851 0.329201 2.0011 0
M  V30 8351 C 838.184 -1.09004 1.60723 0
M  V30 8352 O 837.459 -1.74895 0.850989 0
M  V30 8353 C 837.742 0.466989 3.57059 0
M  V30 8354 C 837.595 1.92828 4.06371 0
M  V30 8355 C 838.914 -0.131792 4.39903 0
M  V30 8356 H 836.033 0.12109 0.726984 0
M  V30 8357 H 838.675 0.968779 1.63446 0
M  V30 8358 H 836.825 -0.0775023 3.88423 0
M  V30 8359 H 838.497 2.53208 3.85595 0
M  V30 8360 H 836.74 2.43884 3.58752 0
M  V30 8361 H 837.411 1.97577 5.15429 0
M  V30 8362 H 839.887 0.332731 4.14768 0
M  V30 8363 H 838.763 -0.005217 5.489 0
M  V30 8364 H 839.024 -1.22156 4.24889 0
M  V30 8365 N 838.083 -1.48885 0.516809 0
M  V30 8366 C 839.323 -2.0439 -0.0202232 0
M  V30 8367 C 839.687 -1.38652 -1.32814 0
M  V30 8368 O 840.888 -1.84968 -1.95039 0
M  V30 8369 C 839.159 -3.57071 -0.153257 0
M  V30 8370 S 840.718 -4.34074 -0.642256 0
M  V30 8371 H 837.536 -0.710977 0.00576322 0
M  V30 8372 H 840.138 -1.82753 0.694376 0
M  V30 8373 H 838.842 -4.02454 0.803695 0
M  V30 8374 H 838.373 -3.83139 -0.892627 0
M  V30 8375 H 840.388 -4.58011 -1.90893 0
M  V30 8376 N 839.561 -0.251338 -1.55583 0
M  V30 8377 C 840.524 0.63305 -2.20284 0
M  V30 8378 C 841.524 1.09941 -1.17344 0
M  V30 8379 O 842.714 1.00341 -1.42399 0
M  V30 8380 C 839.846 1.8706 -2.84993 0
M  V30 8381 H 841.039 0.0684846 -2.99822 0
M  V30 8382 H 838.592 -0.00181653 -1.563 0
M  V30 8383 H 839.327 2.47629 -2.09405 0
M  V30 8384 H 839.112 1.54436 -3.60405 0
M  V30 8385 H 840.602 2.50004 -3.34496 0
M  V30 8386 N 841.039 1.57585 0.0217189 0
M  V30 8387 C 842.455 1.55072 0.377484 0
M  V30 8388 C 842.655 0.978423 1.76151 0
M  V30 8389 O 841.711 0.602688 2.45202 0
M  V30 8390 C 843.024 2.99462 0.272605 0
M  V30 8391 C 844.572 3.11047 0.349148 0
M  V30 8392 C 845.047 4.57182 0.273636 0
M  V30 8393 N 846.538 4.62007 0.332206 0
M  V30 8394 C 847.273 5.72631 0.296782 0
M  V30 8395 N 846.769 6.92472 0.21322 0
M  V30 8396 N 848.562 5.61028 0.347053 0
M  V30 8397 H 840.713 1.93133 -0.883925 0
M  V30 8398 H 842.976 0.886151 -0.33681 0
M  V30 8399 H 842.682 3.45088 -0.67878 0
M  V30 8400 H 842.556 3.61901 1.06335 0
M  V30 8401 H 844.943 2.65364 1.29097 0
M  V30 8402 H 845.024 2.51425 -0.471085 0
M  V30 8403 H 844.668 5.03534 -0.664548 0
M  V30 8404 H 844.598 5.14724 1.11207 0
M  V30 8405 H 847.089 3.75788 0.399003 0
M  V30 8406 H 847.402 7.72563 0.191492 0
M  V30 8407 H 845.747 6.94769 0.179161 0
M  V30 8408 H 848.938 4.66298 0.410378 0
M  V30 8409 H 849.111 6.47229 0.315979 0
M  V30 8410 N 842.517 -0.29412 1.54831 0
M  V30 8411 C 843.48 -1.3461 1.85507 0
M  V30 8412 C 844.48 -1.43359 0.728343 0
M  V30 8413 O 845.67 -1.42875 0.996609 0
M  V30 8414 C 842.802 -2.73012 2.0415 0
M  V30 8415 H 843.995 -1.08651 2.79526 0
M  V30 8416 H 841.548 -0.531138 1.46999 0
M  V30 8417 H 842.283 -3.04183 1.12441 0
M  V30 8418 H 842.068 -2.68051 2.86166 0
M  V30 8419 H 843.558 -3.49061 2.29229 0
M  V30 8420 N 843.995 -1.47404 -0.557645 0
M  V30 8421 C 844.927 -1.55917 -1.67995 0
M  V30 8422 C 845.94 -0.445411 -1.56588 0
M  V30 8423 O 847.129 -0.714999 -1.63554 0
M  V30 8424 C 844.229 -1.44697 -3.06457 0
M  V30 8425 C 843.402 -2.70633 -3.43622 0
M  V30 8426 C 842.461 -2.53256 -4.61246 0
M  V30 8427 O 841.487 -3.27068 -4.65849 0
M  V30 8428 N 842.689 -1.61053 -5.57711 0
M  V30 8429 H 845.454 -2.52694 -1.61139 0
M  V30 8430 H 843.015 -1.43778 -0.744271 0
M  V30 8431 H 845.007 -1.30806 -3.82978 0
M  V30 8432 H 843.577 -0.560039 -3.07542 0
M  V30 8433 H 842.797 -2.99288 -2.56555 0
M  V30 8434 H 844.085 -3.5424 -3.65228 0
M  V30 8435 H 843.483 -1.00235 -5.56749 0
M  V30 8436 H 842.04 -1.53115 -6.33561 0
M  V30 8437 N 845.473 0.80434 -1.35529 0
M  V30 8438 C 846.436 1.89788 -1.28503 0
M  V30 8439 C 847.436 1.59601 -0.195983 0
M  V30 8440 O 848.626 1.68292 -0.449827 0
M  V30 8441 C 845.758 3.26255 -0.98847 0
M  V30 8442 H 846.951 1.97436 -2.25741 0
M  V30 8443 H 844.504 1.00046 -1.20086 0
M  V30 8444 H 845.239 3.24294 -0.0200541 0
M  V30 8445 H 845.024 3.49551 -1.77641 0
M  V30 8446 H 846.514 4.06298 -0.964975 0
M  V30 8447 N 846.951 1.19563 1.02676 0
M  V30 8448 C 848.362 1.00158 1.57561 0
M  V30 8449 C 848.713 -0.444922 1.91089 0
M  V30 8450 O 847.838 -1.32466 1.71119 0
M  V30 8451 C 848.433 1.81181 2.86284 0
M  V30 8452 C 846.992 1.66171 3.37734 0
M  V30 8453 C 846.139 1.7975 2.11152 0
M  V30 8454 H 849.09 1.33904 0.85179 0
M  V30 8455 H 849.111 1.30916 3.57269 0
M  V30 8456 H 848.623 2.86454 2.6185 0
M  V30 8457 H 846.724 0.634927 3.6715 0
M  V30 8458 H 846.837 2.46832 4.10622 0
M  V30 8459 H 845.201 1.22833 2.23123 0
M  V30 8460 H 845.984 2.86487 1.89157 0
M  V30 8461 N 848.429 -1.21819 0.999893 0
M  V30 8462 C 849.84 -1.72517 0.713775 0
M  V30 8463 C 850.191 -1.80505 -0.768922 0
M  V30 8464 O 849.316 -1.45611 -1.60083 0
M  V30 8465 C 849.911 -3.13321 1.28901 0
M  V30 8466 C 848.47 -3.61396 1.05212 0
M  V30 8467 C 847.617 -2.39074 1.40494 0
M  V30 8468 H 850.568 -1.07068 1.17141 0
M  V30 8469 H 850.589 -3.74535 0.671084 0
M  V30 8470 H 850.101 -3.07475 2.36814 0
M  V30 8471 H 848.202 -3.72599 -0.0100732 0
M  V30 8472 H 848.315 -4.47145 1.72042 0
M  V30 8473 H 846.679 -2.41015 0.823642 0
M  V30 8474 H 847.462 -2.35884 2.49427 0
M  V30 8475 N 849.908 -0.773975 -1.37286 0
M  V30 8476 C 851.319 -0.404433 -1.82267 0
M  V30 8477 C 851.67 1.06971 -1.64474 0
M  V30 8478 O 850.795 1.82867 -1.15708 0
M  V30 8479 C 851.39 -0.727298 -3.30902 0
M  V30 8480 C 849.949 -0.410784 -3.74152 0
M  V30 8481 C 849.096 -0.969983 -2.59782 0
M  V30 8482 H 852.047 -0.968437 -1.25726 0
M  V30 8483 H 852.068 -0.0127575 -3.80498 0
M  V30 8484 H 851.58 -1.80026 -3.4382 0
M  V30 8485 H 849.681 0.65477 -3.66802 0
M  V30 8486 H 849.794 -0.920592 -4.70172 0
M  V30 8487 H 848.158 -0.394094 -2.51633 0
M  V30 8488 H 848.941 -2.04839 -2.75492 0
M  V30 8489 N 851.386 1.48609 -0.524698 0
M  V30 8490 C 852.611 2.07398 0.00952139 0
M  V30 8491 C 853.036 1.37939 1.27884 0
M  V30 8492 O 852.394 0.443633 1.75788 0
M  V30 8493 C 852.442 3.59916 0.221956 0
M  V30 8494 O 851.546 3.91647 1.29175 0
M  V30 8495 H 850.887 0.662981 -0.0367729 0
M  V30 8496 H 853.417 1.91092 -0.7311 0
M  V30 8497 H 853.427 4.05552 0.446236 0
M  V30 8498 H 852.102 4.09876 -0.705306 0
M  V30 8499 H 850.679 3.57796 1.05055 0
M  V30 8500 N 852.864 0.259585 1.55447 0
M  V30 8501 C 854.11 -0.355207 2.00274 0
M  V30 8502 C 854.465 -1.54637 1.14477 0
M  V30 8503 O 853.758 -1.90519 0.203215 0
M  V30 8504 C 853.952 -0.802727 3.48269 0
M  V30 8505 C 853.781 0.34353 4.48386 0
M  V30 8506 C 852.551 0.822317 4.98564 0
M  V30 8507 C 854.749 1.17482 5.00702 0
M  V30 8508 N 852.731 1.93966 5.82452 0
M  V30 8509 C 854.102 2.14032 5.81885 0
M  V30 8510 C 856.157 1.20994 4.82975 0
M  V30 8511 C 854.86 3.1382 6.47232 0
M  V30 8512 C 856.886 2.19618 5.4911 0
M  V30 8513 C 856.248 3.14903 6.30092 0
M  V30 8514 H 852.347 -0.0955824 0.776137 0
M  V30 8515 H 854.931 0.380062 1.90954 0
M  V30 8516 H 853.102 -1.50726 3.57961 0
M  V30 8517 H 854.834 -1.39354 3.79951 0
M  V30 8518 H 851.589 0.404272 4.71871 0
M  V30 8519 H 852.013 2.50148 6.29091 0
M  V30 8520 H 856.655 0.487104 4.19985 0
M  V30 8521 H 854.373 3.87045 7.09381 0
M  V30 8522 H 857.959 2.23057 5.37342 0
M  V30 8523 H 856.839 3.8997 6.80362 0
M  V30 8524 N 854.342 -1.57594 -0.0133615 0
M  V30 8525 C 855.619 -1.81173 -0.737273 0
M  V30 8526 C 855.999 -0.861395 -1.92726 0
M  V30 8527 O 855.347 0.0929324 -2.28311 0
M  V30 8528 C 855.557 -3.29314 -1.15557 0
M  V30 8529 C 856.905 -3.94707 -1.56498 0
M  V30 8530 O 857.929 -3.33557 -1.24973 0
M  V30 8531 O 856.788 -5.02402 -2.15069 0
M  V30 8532 H 853.882 -0.745575 -0.357837 0
M  V30 8533 H 856.428 -1.69696 0.0110674 0
M  V30 8534 H 855.2 -3.90096 -0.30677 0
M  V30 8535 H 854.823 -3.45739 -1.96343 0
M  V30 8536 N 855.82 0.285905 -1.54985 0
M  V30 8537 C 856.73 1.37534 -1.90057 0
M  V30 8538 C 857.746 1.54707 -0.796348 0
M  V30 8539 O 858.922 1.69082 -1.09423 0
M  V30 8540 C 855.987 2.7167 -2.15398 0
M  V30 8541 C 855.048 2.63354 -3.39033 0
M  V30 8542 C 854.281 3.91093 -3.63155 0
M  V30 8543 O 854.504 4.91169 -2.90015 0
M  V30 8544 O 853.438 3.92075 -4.56685 0
M  V30 8545 H 857.264 1.10791 -2.8277 0
M  V30 8546 H 854.849 0.483303 -1.41367 0
M  V30 8547 H 856.731 3.51006 -2.33179 0
M  V30 8548 H 855.406 2.98226 -1.25868 0
M  V30 8549 H 854.313 1.82438 -3.26599 0
M  V30 8550 H 855.646 2.41749 -4.2874 0
M  V30 8551 N 857.298 1.47698 0.54982 0
M  V30 8552 C 858.526 1.5833 1.33188 0
M  V30 8553 C 858.941 0.236193 1.87317 0
M  V30 8554 O 858.298 -0.77167 1.65383 0
M  V30 8555 C 858.349 2.61438 2.49664 0
M  V30 8556 O 858.07 3.9092 1.97771 0
M  V30 8557 C 859.571 2.82324 3.41772 0
M  V30 8558 H 856.791 0.53443 0.405741 0
M  V30 8559 H 859.335 1.93375 0.665309 0
M  V30 8560 H 857.49 2.29307 3.12245 0
M  V30 8561 H 857.904 4.47323 2.73866 0
M  V30 8562 H 859.378 3.58316 4.19897 0
M  V30 8563 H 859.855 1.90416 3.95776 0
M  V30 8564 H 860.461 3.15682 2.85 0
M  V30 8565 N 858.776 -0.797141 1.35954 0
M  V30 8566 C 860.022 -1.55636 1.30954 0
M  V30 8567 C 860.377 -1.92071 -0.112515 0
M  V30 8568 O 859.67 -1.5926 -1.06521 0
M  V30 8569 C 859.864 -2.84847 2.15863 0
M  V30 8570 C 859.693 -2.61039 3.66182 0
M  V30 8571 C 858.463 -2.56452 4.35385 0
M  V30 8572 C 860.661 -2.30766 4.59621 0
M  V30 8573 N 858.643 -2.2446 5.71394 0
M  V30 8574 C 860.014 -2.08695 5.8382 0
M  V30 8575 C 862.069 -2.16708 4.48266 0
M  V30 8576 C 860.772 -1.73989 6.9794 0
M  V30 8577 C 862.798 -1.83399 5.62244 0
M  V30 8578 C 862.16 -1.62171 6.85478 0
M  V30 8579 H 858.259 -0.570853 0.534463 0
M  V30 8580 H 860.843 -0.932261 1.7093 0
M  V30 8581 H 859.014 -3.45137 1.78144 0
M  V30 8582 H 860.746 -3.50503 2.02311 0
M  V30 8583 H 857.501 -2.7143 3.88101 0
M  V30 8584 H 857.925 -2.11232 6.43203 0
M  V30 8585 H 862.567 -2.31814 3.53585 0
M  V30 8586 H 860.285 -1.57621 7.92579 0
M  V30 8587 H 863.871 -1.73217 5.55416 0
M  V30 8588 H 862.751 -1.36774 7.7218 0
M  V30 8589 N 860.254 -1.20106 -1.0204 0
M  V30 8590 C 861.201 -0.946468 -2.10501 0
M  V30 8591 C 862.171 0.121902 -1.65652 0
M  V30 8592 O 863.356 -0.0220244 -1.90787 0
M  V30 8593 C 860.496 -0.500499 -3.41451 0
M  V30 8594 C 859.609 -1.63659 -3.998 0
M  V30 8595 C 858.744 -1.14131 -5.18794 0
M  V30 8596 C 857.783 -2.25074 -5.69217 0
M  V30 8597 N 856.92 -1.76791 -6.79477 0
M  V30 8598 H 861.76 -1.87506 -2.31615 0
M  V30 8599 H 859.297 -0.934693 -1.13587 0
M  V30 8600 H 861.255 -0.223276 -4.16602 0
M  V30 8601 H 859.885 0.391099 -3.20422 0
M  V30 8602 H 858.937 -2.02882 -3.21781 0
M  V30 8603 H 860.249 -2.47213 -4.33229 0
M  V30 8604 H 859.403 -0.819826 -6.01135 0
M  V30 8605 H 858.142 -0.275615 -4.86921 0
M  V30 8606 H 857.147 -2.58043 -4.85483 0
M  V30 8607 H 858.372 -3.12114 -6.03127 0
M  V30 8608 H 856.318 -0.925428 -6.4944 0
M  V30 8609 H 856.235 -2.53928 -7.12079 0
M  V30 8610 H 857.503 -1.47631 -7.65392 0
M  V30 8611 N 861.732 1.21287 -1.00634 0
M  V30 8612 C 862.972 1.92106 -0.698194 0
M  V30 8613 C 863.336 1.76437 0.757222 0
M  V30 8614 O 864.537 2.41641 1.17741 0
M  V30 8615 C 862.808 3.39748 -1.10932 0
M  V30 8616 S 864.367 4.29013 -0.921586 0
M  V30 8617 H 861.185 0.663755 -0.254853 0
M  V30 8618 H 863.787 1.46772 -1.29145 0
M  V30 8619 H 862.491 3.48669 -2.16467 0
M  V30 8620 H 862.022 3.90101 -0.508419 0
M  V30 8621 H 864.037 4.95871 0.180578 0
M  V30 8622 N 863.21 0.781244 1.36873 0
M  V30 8623 C 864.14 0.188128 2.32741 0
M  V30 8624 C 865.121 -0.672326 1.56249 0
M  V30 8625 O 866.306 -0.607835 1.84442 0
M  V30 8626 C 863.436 -0.684341 3.40491 0
M  V30 8627 C 862.39 0.0755641 4.27933 0
M  V30 8628 C 861.716 -0.916968 5.26779 0
M  V30 8629 C 863.016 1.26006 5.06873 0
M  V30 8630 H 864.71 0.989016 2.82593 0
M  V30 8631 H 862.256 0.477038 1.35869 0
M  V30 8632 H 864.209 -1.10915 4.06541 0
M  V30 8633 H 862.933 -1.51785 2.89187 0
M  V30 8634 H 861.592 0.481258 3.63427 0
M  V30 8635 H 861.24 -1.74528 4.71751 0
M  V30 8636 H 860.94 -0.413 5.86147 0
M  V30 8637 H 862.464 -1.34052 5.95703 0
M  V30 8638 H 863.878 0.911425 5.66009 0
M  V30 8639 H 862.275 1.69676 5.75613 0
M  V30 8640 H 863.345 2.05948 4.38991 0
M  V30 8641 N 864.689 -1.48329 0.532571 0
M  V30 8642 C 865.935 -2.028 -0.000583219 0
M  V30 8643 C 866.268 -1.40858 -1.33688 0
M  V30 8644 O 865.543 -0.555261 -1.86406 0
M  V30 8645 C 865.826 -3.59901 -0.119846 0
M  V30 8646 C 865.679 -4.32318 1.2418 0
M  V30 8647 C 866.998 -4.31904 -0.845372 0
M  V30 8648 H 864.117 -0.736999 0.00126205 0
M  V30 8649 H 866.759 -1.77024 0.690102 0
M  V30 8650 H 864.909 -3.81993 -0.708092 0
M  V30 8651 H 866.581 -4.21637 1.87136 0
M  V30 8652 H 864.824 -3.93635 1.82301 0
M  V30 8653 H 865.495 -5.40697 1.11132 0
M  V30 8654 H 867.971 -4.14658 -0.346159 0
M  V30 8655 H 866.847 -5.41509 -0.897723 0
M  V30 8656 H 867.108 -3.99369 -1.89622 0
M  V30 8657 N 866.167 -0.267825 -1.55308 0
M  V30 8658 C 867.583 0.0865107 -1.59365 0
M  V30 8659 C 867.783 1.55205 -1.28505 0
M  V30 8660 O 866.839 2.29978 -1.04241 0
M  V30 8661 C 868.152 -0.28155 -2.99379 0
M  V30 8662 C 869.7 -0.227565 -3.12172 0
M  V30 8663 C 870.175 -0.569959 -4.5444 0
M  V30 8664 N 871.666 -0.521238 -4.60258 0
M  V30 8665 C 872.401 -0.759061 -5.68354 0
M  V30 8666 N 871.897 -1.06112 -6.84626 0
M  V30 8667 N 873.69 -0.688351 -5.57869 0
M  V30 8668 H 865.841 -1.22332 -1.73633 0
M  V30 8669 H 868.104 -0.493703 -0.809297 0
M  V30 8670 H 867.81 -1.3005 -3.26772 0
M  V30 8671 H 867.684 0.381192 -3.75269 0
M  V30 8672 H 870.071 0.782093 -2.84548 0
M  V30 8673 H 870.152 -0.924461 -2.38511 0
M  V30 8674 H 869.796 -1.57727 -4.82788 0
M  V30 8675 H 869.726 0.148646 -5.2639 0
M  V30 8676 H 872.217 -0.297359 -3.76728 0
M  V30 8677 H 872.53 -1.22945 -7.62958 0
M  V30 8678 H 870.875 -1.09881 -6.86259 0
M  V30 8679 H 874.066 -0.452268 -4.6591 0
M  V30 8680 H 874.239 -0.877081 -6.42037 0
M  V30 8681 N 867.645 1.57599 0.00500368 0
M  V30 8682 C 868.575 2.11143 0.99705 0
M  V30 8683 C 869.556 1.0194 1.3617 0
M  V30 8684 O 870.741 1.29596 1.44632 0
M  V30 8685 C 867.871 2.61062 2.2905 0
M  V30 8686 C 866.825 3.74745 2.0676 0
M  V30 8687 C 866.151 4.10961 3.42075 0
M  V30 8688 C 867.451 5.02222 1.43424 0
M  V30 8689 H 869.145 2.94281 0.551251 0
M  V30 8690 H 866.691 1.41565 0.263715 0
M  V30 8691 H 868.644 2.97146 2.98801 0
M  V30 8692 H 867.368 1.75038 2.75734 0
M  V30 8693 H 866.027 3.39047 1.39436 0
M  V30 8694 H 865.675 3.21968 3.86453 0
M  V30 8695 H 865.375 4.87549 3.27979 0
M  V30 8696 H 866.899 4.49599 4.1315 0
M  V30 8697 H 868.313 5.36109 2.03125 0
M  V30 8698 H 866.71 5.83581 1.39831 0
M  V30 8699 H 867.78 4.83224 0.40285 0
M  V30 8700 N 869.123 -0.277682 1.55134 0
M  V30 8701 C 870.07 -1.34313 1.87693 0
M  V30 8702 C 871.04 -1.49298 0.727973 0
M  V30 8703 O 872.225 -1.6378 0.978807 0
M  V30 8704 C 869.365 -2.69922 2.15026 0
M  V30 8705 C 868.478 -2.63197 3.42565 0
M  V30 8706 C 867.613 -3.90955 3.59622 0
M  V30 8707 C 866.652 -3.78722 4.8087 0
M  V30 8708 N 865.789 -4.98303 4.94609 0
M  V30 8709 H 870.629 -1.05847 2.78569 0
M  V30 8710 H 868.166 -0.511469 1.37922 0
M  V30 8711 H 870.124 -3.48817 2.28872 0
M  V30 8712 H 868.754 -2.966 1.2739 0
M  V30 8713 H 867.806 -1.76038 3.37216 0
M  V30 8714 H 869.118 -2.50056 4.31594 0
M  V30 8715 H 868.272 -4.78291 3.7326 0
M  V30 8716 H 867.011 -4.06957 2.6877 0
M  V30 8717 H 866.016 -2.89769 4.67241 0
M  V30 8718 H 867.241 -3.64242 5.73153 0
M  V30 8719 H 865.187 -5.14725 4.06687 0
M  V30 8720 H 865.104 -4.87675 5.77676 0
M  V30 8721 H 866.372 -5.87225 5.12628 0
M  V30 8722 N 870.601 -1.47988 -0.541979 0
M  V30 8723 C 872.012 -1.49073 -1.12402 0
M  V30 8724 C 872.363 -0.253825 -1.94551 0
M  V30 8725 O 871.488 0.640056 -2.06718 0
M  V30 8726 C 872.083 -2.7011 -2.04514 0
M  V30 8727 C 870.642 -2.74105 -2.5796 0
M  V30 8728 C 869.789 -2.42409 -1.3466 0
M  V30 8729 H 872.74 -1.55277 -0.327818 0
M  V30 8730 H 872.761 -2.47946 -2.88623 0
M  V30 8731 H 872.273 -3.60117 -1.44697 0
M  V30 8732 H 870.374 -1.88276 -3.21532 0
M  V30 8733 H 870.487 -3.75213 -2.97913 0
M  V30 8734 H 868.851 -1.9331 -1.65841 0
M  V30 8735 H 869.634 -3.34642 -0.766133 0
M  V30 8736 N 872.079 0.78992 -1.36375 0
M  V30 8737 C 873.307 1.57873 -1.3373 0
M  V30 8738 C 873.722 1.88624 0.0815544 0
M  V30 8739 O 873.079 1.50085 1.03831 0
M  V30 8740 C 873.13 2.90003 -2.15825 0
M  V30 8741 O 872.851 2.60578 -3.5218 0
M  V30 8742 C 874.352 3.84309 -2.20955 0
M  V30 8743 H 871.572 0.489685 -0.458748 0
M  V30 8744 H 874.116 0.980436 -1.79465 0
M  V30 8745 H 872.271 3.46303 -1.73646 0
M  V30 8746 H 872.685 3.4506 -3.95011 0
M  V30 8747 H 874.159 4.74081 -2.82756 0
M  V30 8748 H 874.636 4.22121 -1.21287 0
M  V30 8749 H 875.242 3.33942 -2.63368 0
M  V30 8750 N 873.557 1.20646 1.01402 0
M  V30 8751 C 874.487 0.98155 2.11867 0
M  V30 8752 C 875.468 -0.0903712 1.6986 0
M  V30 8753 O 876.653 0.0676586 1.94082 0
M  V30 8754 C 873.783 0.535636 3.43145 0
M  V30 8755 C 872.737 1.55109 3.98905 0
M  V30 8756 C 872.063 0.961725 5.2598 0
M  V30 8757 C 873.363 2.93552 4.32001 0
M  V30 8758 H 875.057 1.90544 2.3094 0
M  V30 8759 H 872.603 0.917554 1.10982 0
M  V30 8760 H 874.556 0.365512 4.19812 0
M  V30 8761 H 873.28 -0.423882 3.23838 0
M  V30 8762 H 871.939 1.70862 3.24348 0
M  V30 8763 H 871.587 -0.00580108 5.03 0
M  V30 8764 H 871.287 1.63993 5.64252 0
M  V30 8765 H 872.811 0.802726 6.053 0
M  V30 8766 H 874.225 2.81295 4.99546 0
M  V30 8767 H 872.622 3.58303 4.81393 0
M  V30 8768 H 873.692 3.4508 3.40658 0
M  V30 8769 N 875.035 -1.20752 1.01276 0
M  V30 8770 C 875.985 -2.21252 0.550602 0
M  V30 8771 C 876.969 -1.56052 -0.391985 0
M  V30 8772 O 878.161 -1.75682 -0.215575 0
M  V30 8773 C 875.29 -3.43112 -0.113601 0
M  V30 8774 C 874.376 -4.15485 0.850465 0
M  V30 8775 N 874.767 -4.64301 2.00643 0
M  V30 8776 C 873.065 -4.40932 0.670476 0
M  V30 8777 C 873.766 -5.197 2.61317 0
M  V30 8778 N 872.742 -5.09534 1.8941 0
M  V30 8779 H 876.544 -2.56657 1.43194 0
M  V30 8780 H 874.058 -1.36646 0.877597 0
M  V30 8781 H 876.055 -4.1433 -0.462211 0
M  V30 8782 H 874.715 -3.09213 -0.990825 0
M  V30 8783 H 875.726 -4.59637 2.38651 0
M  V30 8784 H 872.403 -4.17197 -0.159016 0
M  V30 8785 H 873.793 -5.67873 3.59123 0
M  V30 8786 N 876.513 -0.788492 -1.36457 0
M  V30 8787 C 877.761 -0.359749 -1.98872 0
M  V30 8788 C 878.082 1.07197 -1.62892 0
M  V30 8789 O 877.352 1.73875 -0.902463 0
M  V30 8790 H 875.932 -0.130029 -0.735596 0
M  V30 8791 H 878.594 -1.01033 -1.66668 0
M  V30 8792 H 877.69 -0.450835 -3.08827 0
M  V30 8793 N 877.991 1.48044 -0.54043 0
M  V30 8794 C 879.402 1.86418 -0.102662 0
M  V30 8795 C 879.753 1.4489 1.32293 0
M  V30 8796 O 878.878 0.844319 1.99249 0
M  V30 8797 C 879.473 3.38324 -0.179533 0
M  V30 8798 C 878.032 3.75852 0.203098 0
M  V30 8799 C 877.179 2.72097 -0.534637 0
M  V30 8800 H 880.13 1.398 -0.751103 0
M  V30 8801 H 880.151 3.75641 0.606147 0
M  V30 8802 H 879.663 3.68518 -1.21721 0
M  V30 8803 H 877.764 3.51272 1.24252 0
M  V30 8804 H 877.877 4.78884 -0.143784 0
M  V30 8805 H 876.241 2.54692 0.0203358 0
M  V30 8806 H 877.024 3.05135 -1.57314 0
M  V30 8807 N 879.47 0.276058 1.55163 0
M  V30 8808 C 880.698 -0.343772 2.04024 0
M  V30 8809 C 881.113 -1.49397 1.15438 0
M  V30 8810 O 880.47 -1.81662 0.174692 0
M  V30 8811 C 880.521 -0.823885 3.51986 0
M  V30 8812 O 880.242 0.280507 4.37201 0
M  V30 8813 C 881.743 -1.51143 4.16738 0
M  V30 8814 H 878.963 -0.07828 0.666418 0
M  V30 8815 H 881.507 0.408427 2.0038 0
M  V30 8816 H 879.662 -1.52617 3.56071 0
M  V30 8817 H 880.076 -0.0887831 5.24425 0
M  V30 8818 H 881.55 -1.79878 5.2187 0
M  V30 8819 H 882.027 -2.44327 3.64967 0
M  V30 8820 H 882.633 -0.852975 4.16659 0
M  V30 8821 N 880.948 -1.576 0.00335426 0
M  V30 8822 C 882.359 -1.7875 -0.539008 0
M  V30 8823 C 882.71 -0.911097 -1.73763 0
M  V30 8824 O 881.835 -0.114476 -2.16097 0
M  V30 8825 C 882.43 -3.24177 -0.984611 0
M  V30 8826 C 880.989 -3.46412 -1.47226 0
M  V30 8827 C 880.136 -2.74024 -0.425004 0
M  V30 8828 H 883.087 -1.57032 0.229511 0
M  V30 8829 H 883.108 -3.32474 -1.85044 0
M  V30 8830 H 882.62 -3.87938 -0.112035 0
M  V30 8831 H 880.721 -2.8787 -2.36562 0
M  V30 8832 H 880.834 -4.55098 -1.49741 0
M  V30 8833 H 879.198 -2.38741 -0.887394 0
M  V30 8834 H 879.981 -3.40486 0.438662 0
M  V30 8835 N 882.426 0.269451 -1.5528 0
M  V30 8836 C 883.356 1.33729 -1.91413 0
M  V30 8837 C 884.337 1.51348 -0.776391 0
M  V30 8838 O 885.522 1.64332 -1.03482 0
M  V30 8839 C 882.652 2.69618 -2.18914 0
M  V30 8840 C 881.606 2.66725 -3.34726 0
M  V30 8841 C 880.932 4.06199 -3.47716 0
M  V30 8842 C 882.232 2.25684 -4.71025 0
M  V30 8843 H 883.926 1.03736 -2.80854 0
M  V30 8844 H 881.472 0.497579 -1.3513 0
M  V30 8845 H 883.425 3.44436 -2.42779 0
M  V30 8846 H 882.149 3.01201 -1.26275 0
M  V30 8847 H 880.808 1.94365 -3.10834 0
M  V30 8848 H 880.456 4.3501 -2.52537 0
M  V30 8849 H 880.156 4.05157 -4.25583 0
M  V30 8850 H 881.68 4.8275 -3.73877 0
M  V30 8851 H 883.094 2.90225 -4.94411 0
M  V30 8852 H 881.491 2.35797 -5.51833 0
M  V30 8853 H 882.561 1.20819 -4.69607 0
M  V30 8854 N 883.904 1.48273 0.534124 0
M  V30 8855 C 884.834 1.6538 1.64839 0
M  V30 8856 C 885.815 0.502741 1.62501 0
M  V30 8857 O 887 0.734799 1.79762 0
M  V30 8858 C 884.13 1.68949 3.03436 0
M  V30 8859 C 883.084 2.83513 3.20631 0
M  V30 8860 C 882.41 2.72169 4.60248 0
M  V30 8861 C 883.71 4.24858 3.03797 0
M  V30 8862 H 885.404 2.58663 1.50777 0
M  V30 8863 H 882.95 1.24479 0.723937 0
M  V30 8864 H 884.903 1.79505 3.81256 0
M  V30 8865 H 883.627 0.722415 3.1851 0
M  V30 8866 H 882.286 2.72505 2.45227 0
M  V30 8867 H 881.934 1.7344 4.72152 0
M  V30 8868 H 881.634 3.49042 4.72698 0
M  V30 8869 H 883.158 2.84687 5.40172 0
M  V30 8870 H 884.572 4.36721 3.71413 0
M  V30 8871 H 882.969 5.02697 3.27743 0
M  V30 8872 H 884.039 4.41611 2.0027 0
M  V30 8873 N 885.382 -0.782676 1.36792 0
M  V30 8874 C 886.612 -1.56934 1.3437 0
M  V30 8875 C 887.02 -1.89049 -0.0754828 0
M  V30 8876 O 886.363 -1.51103 -1.04467 0
M  V30 8877 C 886.425 -2.91311 2.10661 0
M  V30 8878 C 886.089 -2.81889 3.59705 0
M  V30 8879 C 887.086 -2.53668 4.53815 0
M  V30 8880 C 884.771 -3.00254 4.02682 0
M  V30 8881 C 886.765 -2.43925 5.8888 0
M  V30 8882 C 884.452 -2.90132 5.37835 0
M  V30 8883 C 885.45 -2.62006 6.30747 0
M  V30 8884 O 885.138 -2.5189 7.63418 0
M  V30 8885 H 884.87 -0.493194 0.462316 0
M  V30 8886 H 887.424 -0.978791 1.80579 0
M  V30 8887 H 885.654 -3.52443 1.59125 0
M  V30 8888 H 887.343 -3.52632 2.01012 0
M  V30 8889 H 888.109 -2.39176 4.21924 0
M  V30 8890 H 883.988 -3.21151 3.30731 0
M  V30 8891 H 887.532 -2.21892 6.6137 0
M  V30 8892 H 883.429 -3.04189 5.69332 0
M  V30 8893 H 884.197 -2.67321 7.73616 0
M  V30 8894 N 886.86 -1.21182 -1.00761 0
M  V30 8895 C 888.276 -0.968607 -1.26847 0
M  V30 8896 C 888.476 0.346561 -1.98497 0
M  V30 8897 O 887.532 1.07287 -2.28573 0
M  V30 8898 C 888.845 -2.1574 -2.09467 0
M  V30 8899 C 890.393 -2.19937 -2.22703 0
M  V30 8900 C 890.868 -3.38328 -3.08704 0
M  V30 8901 N 892.359 -3.38398 -3.16293 0
M  V30 8902 C 893.094 -4.26653 -3.83086 0
M  V30 8903 N 892.59 -5.25101 -4.5193 0
M  V30 8904 N 894.383 -4.14469 -3.797 0
M  V30 8905 H 886.534 -2.05763 -0.526816 0
M  V30 8906 H 888.797 -0.90087 -0.29519 0
M  V30 8907 H 888.503 -3.11034 -1.64167 0
M  V30 8908 H 888.377 -2.14584 -3.10216 0
M  V30 8909 H 890.764 -1.25201 -2.67224 0
M  V30 8910 H 890.845 -2.25139 -1.21433 0
M  V30 8911 H 890.489 -4.33356 -2.64886 0
M  V30 8912 H 890.419 -3.30364 -4.10082 0
M  V30 8913 H 892.91 -2.67149 -2.67282 0
M  V30 8914 H 893.223 -5.8875 -5.00592 0
M  V30 8915 H 891.568 -5.29029 -4.50726 0
M  V30 8916 H 894.759 -3.3682 -3.25069 0
M  V30 8917 H 894.932 -4.83458 -4.31477 0
M  V30 8918 N 888.338 1.20213 -1.01915 0
M  V30 8919 C 889.268 2.25336 -0.612023 0
M  V30 8920 C 890.249 1.65933 0.374186 0
M  V30 8921 O 891.434 1.92464 0.259053 0
M  V30 8922 C 888.564 3.47267 0.047904 0
M  V30 8923 C 887.518 4.1928 -0.859557 0
M  V30 8924 C 886.844 5.3466 -0.0652655 0
M  V30 8925 C 888.144 4.75143 -2.1688 0
M  V30 8926 H 889.838 2.59645 -1.49079 0
M  V30 8927 H 887.384 1.24808 -0.718263 0
M  V30 8928 H 889.337 4.19991 0.344294 0
M  V30 8929 H 888.061 3.12129 0.961404 0
M  V30 8930 H 886.72 3.48425 -1.13999 0
M  V30 8931 H 886.368 4.95767 0.849964 0
M  V30 8932 H 886.068 5.83772 -0.669618 0
M  V30 8933 H 887.592 6.10187 0.224612 0
M  V30 8934 H 889.006 5.39672 -1.9346 0
M  V30 8935 H 887.403 5.34702 -2.72422 0
M  V30 8936 H 888.473 3.93744 -2.83008 0
M  V30 8937 N 889.816 0.795718 1.36037 0
M  V30 8938 C 891.064 0.370291 1.98679 0
M  V30 8939 C 891.385 -1.06332 1.63458 0
M  V30 8940 O 890.655 -1.73394 0.911671 0
M  V30 8941 H 889.235 0.133928 0.734896 0
M  V30 8942 H 891.897 1.01915 1.6613 0
M  V30 8943 H 890.993 0.467207 3.08583 0
M  V30 8944 N 891.294 -1.47756 0.548274 0
M  V30 8945 C 892.705 -1.8636 0.112547 0
M  V30 8946 C 893.056 -1.45589 -1.31523 0
M  V30 8947 O 892.181 -0.854874 -1.98799 0
M  V30 8948 C 892.776 -3.38224 0.197473 0
M  V30 8949 C 891.335 -3.75954 -0.183163 0
M  V30 8950 C 890.482 -2.7181 0.549059 0
M  V30 8951 H 893.433 -1.394 0.758506 0
M  V30 8952 H 893.454 -3.75957 -0.586217 0
M  V30 8953 H 892.966 -3.67868 1.23673 0
M  V30 8954 H 891.067 -3.51926 -1.22387 0
M  V30 8955 H 891.18 -4.78801 0.169178 0
M  V30 8956 H 889.544 -2.54699 -0.00682862 0
M  V30 8957 H 890.327 -3.04296 1.5893 0
M  V30 8958 N 892.772 -0.284283 -1.55015 0
M  V30 8959 C 894.021 0.33055 -1.98973 0
M  V30 8960 C 894.334 1.56284 -1.17621 0
M  V30 8961 O 895.54 2.2512 -1.51767 0
M  V30 8962 C 893.996 0.639457 -3.54174 0
M  V30 8963 C 893.604 -0.573543 -4.44313 0
M  V30 8964 C 895.348 1.21641 -4.06699 0
M  V30 8965 C 893.255 -0.238715 -5.90918 0
M  V30 8966 H 892.185 0.127285 -0.743179 0
M  V30 8967 H 894.836 -0.390372 -1.793 0
M  V30 8968 H 893.218 1.41953 -3.69683 0
M  V30 8969 H 894.392 -1.3502 -4.40575 0
M  V30 8970 H 892.707 -1.06797 -4.02472 0
M  V30 8971 H 895.304 1.48088 -5.13784 0
M  V30 8972 H 895.647 2.15328 -3.56286 0
M  V30 8973 H 896.18 0.498422 -3.94665 0
M  V30 8974 H 892.919 -1.1437 -6.45445 0
M  V30 8975 H 892.439 0.500997 -5.97704 0
M  V30 8976 H 894.118 0.165774 -6.46788 0
M  V30 8977 N 894.251 1.57596 -0.0117121 0
M  V30 8978 C 895.183 2.06025 1.0043 0
M  V30 8979 C 896.196 0.980348 1.29973 0
M  V30 8980 O 897.385 1.25691 1.26744 0
M  V30 8981 C 894.485 2.45514 2.33615 0
M  V30 8982 C 893.658 3.76378 2.22842 0
M  V30 8983 C 892.717 4.02606 3.38814 0
M  V30 8984 O 891.743 4.73108 3.16477 0
M  V30 8985 N 892.945 3.51416 4.62047 0
M  V30 8986 H 895.71 2.93811 0.591206 0
M  V30 8987 H 893.271 1.60947 0.175427 0
M  V30 8988 H 895.263 2.60166 3.09993 0
M  V30 8989 H 893.833 1.63186 2.66625 0
M  V30 8990 H 893.053 3.71691 1.313 0
M  V30 8991 H 894.341 4.62149 2.12829 0
M  V30 8992 H 893.739 2.94346 4.83091 0
M  V30 8993 H 892.296 3.71377 5.35651 0
M  V30 8994 N 895.729 -0.261212 1.5542 0
M  V30 8995 C 896.677 -1.34298 1.89913 0
M  V30 8996 C 897.671 -1.50547 0.776665 0
M  V30 8997 O 898.877 -1.52191 0.961139 0
M  V30 8998 H 895.252 -0.4494 0.602946 0
M  V30 8999 H 897.223 -1.02464 2.80256 0
M  V30 9000 C 895.972 -2.69423 2.19788 0
M  V30 9001 H 895.295 -2.57715 3.05652 0
M  V30 9002 H 896.735 -3.44026 2.47835 0
M  V30 9003 C 895.194 -3.21423 1.00939 0
M  V30 9004 O 895.724 -4.00921 0.250034 0
M  V30 9005 N 893.93 -2.7926 0.803883 0
M  V30 9006 H 893.477 -2.14724 1.42308 0
M  V30 9007 H 893.435 -3.14398 0.0103257 0
M  V30 9008 N 897.207 -1.48554 -0.526253 0
M  V30 9009 C 898.117 -1.66044 -1.65731 0
M  V30 9010 C 899.133 -0.542951 -1.65312 0
M  V30 9011 O 900.309 -0.814495 -1.84195 0
M  V30 9012 C 897.374 -1.69959 -3.02184 0
M  V30 9013 C 896.435 -2.93362 -3.13428 0
M  V30 9014 C 895.668 -2.97081 -4.43372 0
M  V30 9015 O 895.891 -2.09103 -5.3069 0
M  V30 9016 O 894.825 -3.8929 -4.59061 0
M  V30 9017 H 898.651 -2.61811 -1.53912 0
M  V30 9018 H 896.236 -1.31999 -0.699759 0
M  V30 9019 H 898.118 -1.75033 -3.83329 0
M  V30 9020 H 896.793 -0.773658 -3.14319 0
M  V30 9021 H 895.7 -2.93818 -2.31564 0
M  V30 9022 H 897.033 -3.85352 -3.06211 0
M  V30 9023 N 898.685 0.775411 -1.37205 0
M  V30 9024 C 899.913 1.56446 -1.35397 0
M  V30 9025 C 900.328 1.887 0.0615437 0
M  V30 9026 O 899.685 1.51178 1.02233 0
M  V30 9027 C 899.736 2.87697 -2.18889 0
M  V30 9028 O 899.457 2.56828 -3.54924 0
M  V30 9029 C 900.958 3.81944 -2.25019 0
M  V30 9030 H 898.178 0.484792 -0.463916 0
M  V30 9031 H 900.722 0.961346 -1.80495 0
M  V30 9032 H 898.877 3.44442 -1.7731 0
M  V30 9033 H 899.291 3.40851 -3.98649 0
M  V30 9034 H 900.765 4.71055 -2.87769 0
M  V30 9035 H 901.242 4.20811 -1.25757 0
M  V30 9036 H 901.848 3.3113 -2.66895 0
M  V30 9037 N 900.163 1.21714 1.00117 0
M  V30 9038 C 901.403 1.04818 1.75478 0
M  V30 9039 C 901.767 -0.410653 1.87557 0
M  V30 9040 O 902.968 -0.700241 2.59519 0
M  V30 9041 C 901.239 1.73055 3.12709 0
M  V30 9042 S 902.798 1.71464 4.03913 0
M  V30 9043 H 899.616 0.375534 0.603734 0
M  V30 9044 H 902.218 1.54522 1.19763 0
M  V30 9045 H 900.922 2.78376 3.01554 0
M  V30 9046 H 900.453 1.23546 3.73497 0
M  V30 9047 H 902.468 0.75845 4.90369 0
M  V30 9048 N 901.641 -1.19671 1.02551 0
M  V30 9049 C 902.571 -2.25009 0.623965 0
M  V30 9050 C 903.552 -1.66129 -0.36538 0
M  V30 9051 O 904.737 -1.92599 -0.248842 0
M  V30 9052 C 901.867 -3.47287 -0.0294869 0
M  V30 9053 C 900.821 -4.18818 0.881781 0
M  V30 9054 C 900.147 -5.34618 0.0936189 0
M  V30 9055 C 901.447 -4.73986 2.19396 0
M  V30 9056 H 903.141 -2.58851 1.50454 0
M  V30 9057 H 900.687 -1.24425 0.724872 0
M  V30 9058 H 902.64 -4.20168 -0.322016 0
M  V30 9059 H 901.364 -3.12635 -0.944838 0
M  V30 9060 H 900.023 -3.47815 1.15845 0
M  V30 9061 H 899.671 -4.9621 -0.823661 0
M  V30 9062 H 899.371 -5.83409 0.700568 0
M  V30 9063 H 900.895 -6.10297 -0.192249 0
M  V30 9064 H 902.309 -5.38639 1.96319 0
M  V30 9065 H 900.706 -5.3325 2.75254 0
M  V30 9066 H 901.776 -3.92238 2.85092 0
M  V30 9067 N 903.119 -0.802921 -1.35613 0
M  V30 9068 C 904.347 -0.39393 -2.03115 0
M  V30 9069 C 904.762 0.993961 -1.60517 0
M  V30 9070 O 904.119 1.63984 -0.800973 0
M  V30 9071 C 904.17 -0.463486 -3.58516 0
M  V30 9072 O 903.891 -1.79666 -3.99565 0
M  V30 9073 C 905.392 -0.0468377 -4.43275 0
M  V30 9074 H 902.612 -0.160519 -0.651517 0
M  V30 9075 H 905.156 -1.08552 -1.73311 0
M  V30 9076 H 903.311 0.179821 -3.86982 0
M  V30 9077 H 903.725 -1.75688 -4.942 0
M  V30 9078 H 905.199 -0.146626 -5.51805 0
M  V30 9079 H 905.676 1.00741 -4.2749 0
M  V30 9080 H 906.282 -0.663158 -4.20098 0
M  V30 9081 N 904.597 1.47463 -0.556102 0
M  V30 9082 C 905.547 2.27007 0.212592 0
M  V30 9083 C 906.531 1.34288 0.886312 0
M  V30 9084 O 907.723 1.5865 0.784801 0
M  V30 9085 C 904.852 3.20021 1.24263 0
M  V30 9086 C 903.938 4.2022 0.572385 0
M  V30 9087 N 904.329 5.04539 -0.35691 0
M  V30 9088 C 902.627 4.38276 0.826441 0
M  V30 9089 C 903.328 5.76895 -0.746134 0
M  V30 9090 N 902.304 5.43506 -0.101225 0
M  V30 9091 H 906.106 2.89582 -0.501925 0
M  V30 9092 H 903.62 1.57988 -0.375961 0
M  V30 9093 H 905.617 3.7569 1.80728 0
M  V30 9094 H 904.277 2.59003 1.95826 0
M  V30 9095 H 905.288 5.12715 -0.731012 0
M  V30 9096 H 901.965 3.88429 1.53066 0
M  V30 9097 H 903.355 6.5472 -1.50967 0
M  V30 9098 N 906.075 0.2925 1.54862 0
M  V30 9099 C 907.486 -0.201841 1.85606 0
M  V30 9100 C 907.837 -1.54093 1.21449 0
M  V30 9101 O 906.962 -2.10327 0.509079 0
M  V30 9102 C 907.557 -0.373011 3.3674 0
M  V30 9103 C 906.116 -0.811574 3.67547 0
M  V30 9104 C 905.263 0.0850583 2.7717 0
M  V30 9105 H 908.214 0.513774 1.50153 0
M  V30 9106 H 908.235 -1.20892 3.60785 0
M  V30 9107 H 907.747 0.601751 3.83407 0
M  V30 9108 H 905.848 -1.79719 3.26392 0
M  V30 9109 H 905.961 -0.636853 4.74848 0
M  V30 9110 H 904.325 -0.434224 2.50971 0
M  V30 9111 H 905.108 1.05602 3.26654 0
M  V30 9112 N 907.553 -1.57587 0.0200696 0
M  V30 9113 C 908.799 -1.91708 -0.661503 0
M  V30 9114 C 909.132 -0.895968 -1.72296 0
M  V30 9115 O 908.407 0.082577 -1.94325 0
M  V30 9116 C 908.69 -3.36344 -1.28627 0
M  V30 9117 C 908.543 -4.49186 -0.234982 0
M  V30 9118 C 909.862 -3.80771 -2.20685 0
M  V30 9119 H 906.981 -0.69717 -0.239005 0
M  V30 9120 H 909.623 -1.8985 0.0754764 0
M  V30 9121 H 907.773 -3.38058 -1.91439 0
M  V30 9122 H 909.445 -4.59606 0.395011 0
M  V30 9123 H 907.688 -4.31557 0.440565 0
M  V30 9124 H 908.359 -5.47395 -0.711558 0
M  V30 9125 H 910.835 -3.80735 -1.67868 0
M  V30 9126 H 909.711 -4.82685 -2.61356 0
M  V30 9127 H 909.972 -3.15764 -3.09428 0
M  V30 9128 N 909.032 0.252966 -1.55557 0
M  V30 9129 C 910.26 0.999565 -1.81153 0
M  V30 9130 C 910.675 1.79181 -0.594955 0
M  V30 9131 O 910.032 1.77208 0.436311 0
M  V30 9132 C 910.083 1.94227 -3.04891 0
M  V30 9133 O 909.804 1.18209 -4.21851 0
M  V30 9134 C 911.305 2.80536 -3.43241 0
M  V30 9135 H 908.525 0.294402 -0.602966 0
M  V30 9136 H 911.069 0.277686 -2.02606 0
M  V30 9137 H 909.224 2.6185 -2.85505 0
M  V30 9138 H 909.638 1.81922 -4.9194 0
M  V30 9139 H 911.112 3.42442 -4.32941 0
M  V30 9140 H 911.589 3.51337 -2.6355 0
M  V30 9141 H 912.195 2.18373 -3.64956 0
M  V30 9142 N 910.51 1.48831 0.518367 0
M  V30 9143 C 911.457 1.64216 1.62178 0
M  V30 9144 C 912.427 0.483942 1.58894 0
M  V30 9145 O 913.612 0.708857 1.77144 0
M  V30 9146 C 910.752 1.69867 3.00399 0
M  V30 9147 C 909.865 2.96875 3.1383 0
M  V30 9148 C 909 2.93613 4.42679 0
M  V30 9149 C 908.039 4.15276 4.4968 0
M  V30 9150 N 907.176 4.10024 5.69934 0
M  V30 9151 H 912.016 2.58439 1.48368 0
M  V30 9152 H 909.553 1.28154 0.722152 0
M  V30 9153 H 911.511 1.71124 3.8049 0
M  V30 9154 H 910.141 0.791249 3.12952 0
M  V30 9155 H 909.193 3.0531 2.26914 0
M  V30 9156 H 910.505 3.86863 3.14863 0
M  V30 9157 H 909.659 2.93337 5.31073 0
M  V30 9158 H 908.398 2.01375 4.44184 0
M  V30 9159 H 907.403 4.15816 3.59691 0
M  V30 9160 H 908.628 5.08687 4.49904 0
M  V30 9161 H 906.574 3.20613 5.72314 0
M  V30 9162 H 906.491 4.93728 5.72511 0
M  V30 9163 H 907.759 4.13824 6.60583 0
M  V30 9164 N 911.988 -0.768124 1.37614 0
M  V30 9165 C 913.218 -1.555 1.36027 0
M  V30 9166 C 913.626 -1.89119 -0.0554273 0
M  V30 9167 O 912.969 -1.52203 -1.02859 0
M  V30 9168 C 913.031 -2.8906 2.13739 0
M  V30 9169 C 912.695 -2.78058 3.62674 0
M  V30 9170 C 913.692 -2.48841 4.5648 0
M  V30 9171 C 911.377 -2.95966 4.05844 0
M  V30 9172 C 913.371 -2.37665 5.91434 0
M  V30 9173 C 911.058 -2.84411 5.40882 0
M  V30 9174 C 912.056 -2.55301 6.33491 0
M  V30 9175 O 911.744 -2.43779 7.66046 0
M  V30 9176 H 911.476 -0.488263 0.467521 0
M  V30 9177 H 914.03 -0.959583 1.81607 0
M  V30 9178 H 912.26 -3.50735 1.62854 0
M  V30 9179 H 913.949 -3.5048 2.04741 0
M  V30 9180 H 914.715 -2.34687 4.24437 0
M  V30 9181 H 910.594 -3.17625 3.34119 0
M  V30 9182 H 914.138 -2.14865 6.63686 0
M  V30 9183 H 910.035 -2.98134 5.72527 0
M  V30 9184 H 910.803 -2.59101 7.76408 0
M  V30 9185 N 913.466 -1.22244 -0.994698 0
M  V30 9186 C 914.715 -1.04005 -1.72817 0
M  V30 9187 C 915.028 0.425413 -1.90918 0
M  V30 9188 O 916.234 0.727429 -2.61574 0
M  V30 9189 C 914.69 -1.81244 -3.10932 0
M  V30 9190 C 914.298 -3.32028 -3.00768 0
M  V30 9191 C 916.042 -1.71448 -3.88337 0
M  V30 9192 C 913.949 -4.01716 -4.34026 0
M  V30 9193 H 912.879 -0.385559 -0.647966 0
M  V30 9194 H 915.53 -1.46077 -1.11058 0
M  V30 9195 H 913.912 -1.3197 -3.73363 0
M  V30 9196 H 915.086 -3.88682 -2.47513 0
M  V30 9197 H 913.401 -3.4248 -2.36846 0
M  V30 9198 H 915.998 -2.20836 -4.86965 0
M  V30 9199 H 916.341 -0.674568 -4.10798 0
M  V30 9200 H 916.874 -2.18256 -3.3258 0
M  V30 9201 H 913.613 -5.05952 -4.16765 0
M  V30 9202 H 913.133 -3.49849 -4.87202 0
M  V30 9203 H 914.812 -4.0721 -5.02782 0
M  V30 9204 N 914.944 1.19125 -1.03184 0
M  V30 9205 C 915.877 2.21229 -0.559739 0
M  V30 9206 C 916.855 1.57578 0.400998 0
M  V30 9207 O 918.039 1.85809 0.317399 0
M  V30 9208 C 915.166 3.38203 0.183442 0
M  V30 9209 C 914.212 4.2022 -0.729182 0
M  V30 9210 S 915.045 4.87903 -2.20706 0
M  V30 9211 C 916.201 6.08284 -1.47448 0
M  V30 9212 H 916.434 2.60932 -1.42484 0
M  V30 9213 H 913.967 1.29419 -0.842028 0
M  V30 9214 H 915.925 4.06001 0.606084 0
M  V30 9215 H 914.586 2.96929 1.02432 0
M  V30 9216 H 913.779 5.03761 -0.155272 0
M  V30 9217 H 913.381 3.57755 -1.09028 0
M  V30 9218 H 915.673 6.73193 -0.762687 0
M  V30 9219 H 916.616 6.70165 -2.28659 0
M  V30 9220 H 917.024 5.56092 -0.97068 0
M  V30 9221 N 916.422 0.810101 1.35185 0
M  V30 9222 C 917.385 0.22852 2.28058 0
M  V30 9223 C 918.385 -0.586168 1.49735 0
M  V30 9224 O 919.575 -0.40414 1.69447 0
M  V30 9225 C 916.707 -0.681041 3.34028 0
M  V30 9226 H 917.9 1.04768 2.81005 0
M  V30 9227 H 915.453 0.58101 1.451 0
M  V30 9228 H 916.188 -1.52375 2.86273 0
M  V30 9229 H 915.973 -0.0985276 3.91976 0
M  V30 9230 H 917.463 -1.08217 4.03335 0
M  V30 9231 N 917.9 -1.47166 0.563914 0
M  V30 9232 C 919.14 -2.04351 0.0448121 0
M  V30 9233 C 919.504 -1.42808 -1.28336 0
M  V30 9234 O 920.705 -1.91079 -1.89056 0
M  V30 9235 C 918.976 -3.57378 -0.0395795 0
M  V30 9236 S 920.535 -4.35898 -0.503833 0
M  V30 9237 H 917.353 -0.710433 0.0283795 0
M  V30 9238 H 919.955 -1.80451 0.752166 0
M  V30 9239 H 918.659 -3.99693 0.931326 0
M  V30 9240 H 918.19 -3.85785 -0.770282 0
M  V30 9241 H 920.205 -4.63852 -1.76225 0
M  V30 9242 N 919.378 -0.300708 -1.54705 0
M  V30 9243 C 920.311 0.617513 -2.19686 0
M  V30 9244 C 921.289 1.1331 -1.16617 0
M  V30 9245 O 922.473 1.20135 -1.45258 0
M  V30 9246 C 919.6 1.84486 -2.84047 0
M  V30 9247 C 918.646 1.46253 -4.0064 0
M  V30 9248 S 919.479 0.518718 -5.32982 0
M  V30 9249 C 920.635 1.75387 -6.00825 0
M  V30 9250 H 920.868 0.0654548 -2.97228 0
M  V30 9251 H 918.401 -0.0848492 -1.54167 0
M  V30 9252 H 920.359 2.54921 -3.21754 0
M  V30 9253 H 919.02 2.36808 -2.06351 0
M  V30 9254 H 918.213 2.37648 -4.44454 0
M  V30 9255 H 917.815 0.838129 -3.64488 0
M  V30 9256 H 920.107 2.69448 -6.21614 0
M  V30 9257 H 921.05 1.35829 -6.9495 0
M  V30 9258 H 921.458 1.93045 -5.30466 0
M  V30 9259 N 920.856 1.57574 -0.0284266 0
M  V30 9260 C 922.081 1.96479 0.664137 0
M  V30 9261 C 922.506 0.904826 1.64908 0
M  V30 9262 O 921.864 -0.134339 1.80802 0
M  V30 9263 C 921.912 3.34479 1.34745 0
M  V30 9264 O 921.016 3.30794 2.46271 0
M  V30 9265 H 920.357 0.640654 0.174524 0
M  V30 9266 H 922.887 2.04402 -0.0900729 0
M  V30 9267 H 922.897 3.70694 1.7044 0
M  V30 9268 H 921.572 4.1117 0.625468 0
M  V30 9269 H 920.149 3.06294 2.12693 0
M  V30 9270 N 922.334 -0.244713 1.55689 0
M  V30 9271 C 923.297 -1.2864 1.89695 0
M  V30 9272 C 924.297 -1.40969 0.773583 0
M  V30 9273 O 925.487 -1.39632 1.04156 0
M  V30 9274 C 922.619 -2.66379 2.12732 0
M  V30 9275 H 923.812 -0.997033 2.82841 0
M  V30 9276 H 921.365 -0.484103 1.48614 0
M  V30 9277 H 922.1 -3.00452 1.22062 0
M  V30 9278 H 921.885 -2.58812 2.94549 0
M  V30 9279 H 923.375 -3.41592 2.40218 0
M  V30 9280 N 923.813 -1.49104 -0.510467 0
M  V30 9281 C 925.09 -1.48609 -1.27179 0
M  V30 9282 C 925.47 -0.208537 -2.10067 0
M  V30 9283 O 924.818 0.809335 -2.13687 0
M  V30 9284 C 925.028 -2.75953 -2.1366 0
M  V30 9285 C 926.376 -3.25067 -2.73161 0
M  V30 9286 O 927.4 -2.77005 -2.23934 0
M  V30 9287 O 926.259 -4.08747 -3.62751 0
M  V30 9288 H 923.353 -0.594374 -0.57502 0
M  V30 9289 H 925.899 -1.61358 -0.525515 0
M  V30 9290 H 924.671 -3.60434 -1.52325 0
M  V30 9291 H 924.294 -2.66019 -2.95499 0
M  V30 9292 N 925.291 0.760815 -1.38019 0
M  V30 9293 C 926.221 1.88811 -1.37377 0
M  V30 9294 C 927.202 1.68388 -0.240737 0
M  V30 9295 O 928.387 1.89086 -0.442739 0
M  V30 9296 C 925.517 3.26244 -1.1909 0
M  V30 9297 C 924.471 3.61254 -2.29521 0
M  V30 9298 C 923.797 4.97346 -1.96345 0
M  V30 9299 C 925.097 3.66874 -3.71753 0
M  V30 9300 H 926.791 1.89606 -2.31711 0
M  V30 9301 H 924.337 0.910818 -1.11535 0
M  V30 9302 H 926.29 4.04755 -1.17267 0
M  V30 9303 H 925.014 3.2591 -0.212152 0
M  V30 9304 H 923.673 2.85057 -2.30517 0
M  V30 9305 H 923.321 4.93564 -0.969728 0
M  V30 9306 H 923.021 5.21739 -2.703 0
M  V30 9307 H 924.545 5.78244 -1.96129 0
M  V30 9308 H 925.959 4.35514 -3.72828 0
M  V30 9309 H 924.356 4.02772 -4.44853 0
M  V30 9310 H 925.426 2.67273 -4.0459 0
M  V30 9311 N 926.769 1.22769 0.988202 0
M  V30 9312 C 927.679 1.01844 2.11341 0
M  V30 9313 C 928.695 -0.0346937 1.73965 0
M  V30 9314 O 929.871 0.159061 2.00771 0
M  V30 9315 C 926.936 0.603837 3.41401 0
M  V30 9316 C 925.997 1.73113 3.92849 0
M  V30 9317 C 925.23 1.33621 5.16702 0
M  V30 9318 O 925.453 0.217041 5.69987 0
M  V30 9319 O 924.387 2.15444 5.62021 0
M  V30 9320 H 928.213 1.96127 2.31879 0
M  V30 9321 H 925.798 1.01405 1.09715 0
M  V30 9322 H 927.68 0.383196 4.19654 0
M  V30 9323 H 926.355 -0.310082 3.22211 0
M  V30 9324 H 925.262 2.00634 3.15748 0
M  V30 9325 H 926.595 2.62308 4.1648 0
M  V30 9326 N 928.247 -1.18576 1.03814 0
M  V30 9327 C 929.493 -1.88773 0.741132 0
M  V30 9328 C 929.826 -1.79993 -0.729127 0
M  V30 9329 O 929.101 -1.19851 -1.53186 0
M  V30 9330 C 929.384 -3.39352 1.20468 0
M  V30 9331 C 929.237 -3.56955 2.73684 0
M  V30 9332 C 930.556 -4.32901 0.792741 0
M  V30 9333 H 927.675 -0.685482 0.270708 0
M  V30 9334 H 930.317 -1.39523 1.2897 0
M  V30 9335 H 928.467 -3.81427 0.737974 0
M  V30 9336 H 930.139 -3.2399 3.28372 0
M  V30 9337 H 928.382 -2.99696 3.13632 0
M  V30 9338 H 929.053 -4.62598 3.01176 0
M  V30 9339 H 931.529 -3.98592 1.1943 0
M  V30 9340 H 930.405 -5.36828 1.14486 0
M  V30 9341 H 930.666 -4.41052 -0.304295 0
M  V30 9342 N 929.725 -0.817259 -1.34754 0
M  V30 9343 C 930.953 -0.415451 -2.02686 0
M  V30 9344 C 931.368 0.97688 -1.61563 0
M  V30 9345 O 930.725 1.63125 -0.818321 0
M  V30 9346 C 930.776 -0.501486 -3.58005 0
M  V30 9347 O 930.497 -1.83893 -3.97637 0
M  V30 9348 C 931.998 -0.0938504 -4.43201 0
M  V30 9349 H 929.218 -0.16742 -0.649778 0
M  V30 9350 H 931.762 -1.10384 -1.7215 0
M  V30 9351 H 929.917 0.138766 -3.87151 0
M  V30 9352 H 930.331 -1.8092 -4.92309 0
M  V30 9353 H 931.805 -0.205145 -5.51619 0
M  V30 9354 H 932.282 0.962011 -4.28535 0
M  V30 9355 H 932.888 -0.707677 -4.19371 0
M  V30 9356 N 931.203 1.46865 -0.571711 0
M  V30 9357 C 932.431 2.06818 -0.0583975 0
M  V30 9358 C 932.846 1.42218 1.24175 0
M  V30 9359 O 932.203 0.523655 1.74826 0
M  V30 9360 C 932.254 3.61281 0.125673 0
M  V30 9361 O 931.975 4.23462 -1.123 0
M  V30 9362 C 933.476 4.38137 0.674604 0
M  V30 9363 H 930.696 0.668948 -0.052438 0
M  V30 9364 H 933.24 1.88656 -0.789251 0
M  V30 9365 H 931.395 3.78908 0.806707 0
M  V30 9366 H 931.809 5.16192 -0.929869 0
M  V30 9367 H 933.283 5.46845 0.752626 0
M  V30 9368 H 933.76 4.05419 1.68915 0
M  V30 9369 H 934.366 4.2529 0.0287979 0
M  V30 9370 N 932.681 0.308908 1.54543 0
M  V30 9371 C 933.906 -0.303196 2.05172 0
M  V30 9372 C 934.331 -1.46133 1.18434 0
M  V30 9373 O 933.689 -1.803 0.190162 0
M  V30 9374 C 933.737 -0.729526 3.53143 0
M  V30 9375 O 932.841 -1.83348 3.69401 0
M  V30 9376 H 932.182 -0.0575066 0.661505 0
M  V30 9377 H 934.712 0.453055 1.99521 0
M  V30 9378 H 934.722 -1.01619 3.95143 0
M  V30 9379 H 933.397 0.117622 4.15734 0
M  V30 9380 H 931.974 -1.54676 3.39308 0
M  V30 9381 N 934.159 -1.57557 0.0367827 0
M  V30 9382 C 935.387 -1.96419 -0.650168 0
M  V30 9383 C 935.802 -0.913656 -1.6522 0
M  V30 9384 O 935.159 0.103718 -1.82205 0
M  V30 9385 C 935.21 -3.35355 -1.3498 0
M  V30 9386 O 934.931 -4.36379 -0.387905 0
M  V30 9387 C 936.432 -3.88892 -2.12786 0
M  V30 9388 H 933.652 -0.646751 -0.178756 0
M  V30 9389 H 936.196 -2.04261 0.0988197 0
M  V30 9390 H 934.351 -3.28708 -2.05012 0
M  V30 9391 H 934.765 -5.16969 -0.885596 0
M  V30 9392 H 936.239 -4.88428 -2.5718 0
M  V30 9393 H 936.716 -3.23547 -2.97008 0
M  V30 9394 H 937.322 -3.98831 -1.47694 0
M  V30 9395 N 935.637 0.236453 -1.55816 0
M  V30 9396 C 936.883 0.960127 -1.79313 0
M  V30 9397 C 937.238 1.8256 -0.607406 0
M  V30 9398 O 936.531 1.87398 0.399046 0
M  V30 9399 C 936.725 1.84549 -3.06066 0
M  V30 9400 C 936.554 1.06721 -4.36853 0
M  V30 9401 C 935.324 0.76811 -4.99428 0
M  V30 9402 C 937.522 0.439715 -5.12417 0
M  V30 9403 N 935.504 -0.0331365 -6.13891 0
M  V30 9404 C 936.875 -0.225616 -6.19589 0
M  V30 9405 C 938.93 0.351237 -4.9666 0
M  V30 9406 C 937.633 -0.970943 -7.12717 0
M  V30 9407 C 939.659 -0.380585 -5.90174 0
M  V30 9408 C 939.021 -1.03451 -6.96762 0
M  V30 9409 H 935.12 0.332095 -0.707981 0
M  V30 9410 H 937.704 0.232311 -1.93309 0
M  V30 9411 H 935.875 2.54525 -2.93379 0
M  V30 9412 H 937.607 2.50552 -3.17814 0
M  V30 9413 H 934.362 1.08248 -4.61063 0
M  V30 9414 H 934.786 -0.422159 -6.75682 0
M  V30 9415 H 939.428 0.842469 -4.14321 0
M  V30 9416 H 937.146 -1.47374 -7.94548 0
M  V30 9417 H 940.732 -0.449851 -5.80058 0
M  V30 9418 H 939.612 -1.59175 -7.67876 0
M  V30 9419 N 937.115 1.49373 0.502552 0
M  V30 9420 C 938.361 1.59016 1.25864 0
M  V30 9421 C 938.694 0.27532 1.92238 0
M  V30 9422 O 937.969 -0.720988 1.80643 0
M  V30 9423 C 938.252 2.74828 2.32683 0
M  V30 9424 C 938.105 4.16102 1.7082 0
M  V30 9425 C 939.424 2.86288 3.34256 0
M  V30 9426 H 936.543 0.578798 0.456248 0
M  V30 9427 H 939.185 1.81651 0.557032 0
M  V30 9428 H 937.335 2.5566 2.92524 0
M  V30 9429 H 939.007 4.46782 1.14818 0
M  V30 9430 H 937.25 4.21822 1.01238 0
M  V30 9431 H 937.921 4.93006 2.48292 0
M  V30 9432 H 940.397 3.03733 2.84404 0
M  V30 9433 H 939.273 3.69001 4.06362 0
M  V30 9434 H 939.534 1.95576 3.96488 0
M  V30 9435 N 938.594 -0.753485 1.38421 0
M  V30 9436 C 939.524 -1.8808 1.38377 0
M  V30 9437 C 940.505 -1.68258 0.249664 0
M  V30 9438 O 941.69 -1.88848 0.45276 0
M  V30 9439 C 938.82 -3.25608 1.20818 0
M  V30 9440 C 937.774 -3.60032 2.31433 0
M  V30 9441 C 937.1 -4.96297 1.9898 0
M  V30 9442 C 938.4 -3.64898 3.73694 0
M  V30 9443 H 940.094 -1.88375 2.32713 0
M  V30 9444 H 937.64 -0.90489 1.12017 0
M  V30 9445 H 939.593 -4.04127 1.19412 0
M  V30 9446 H 938.317 -3.25793 0.229433 0
M  V30 9447 H 936.976 -2.83831 2.32025 0
M  V30 9448 H 936.624 -4.93043 0.995889 0
M  V30 9449 H 936.324 -5.20298 2.73063 0
M  V30 9450 H 937.848 -5.77196 1.99193 0
M  V30 9451 H 939.262 -4.33531 3.75132 0
M  V30 9452 H 937.659 -4.00407 4.46983 0
M  V30 9453 H 938.729 -2.65124 4.06002 0
M  V30 9454 N 940.072 -1.23292 -0.981677 0
M  V30 9455 C 941.002 -1.03738 -2.09191 0
M  V30 9456 C 941.983 0.0453041 -1.7004 0
M  V30 9457 O 943.168 -0.119092 -1.93834 0
M  V30 9458 C 940.298 -0.626426 -3.41604 0
M  V30 9459 C 939.252 -1.65631 -3.94652 0
M  V30 9460 C 938.578 -1.10084 -5.23245 0
M  V30 9461 C 939.878 -3.04903 -4.24066 0
M  V30 9462 H 941.572 -1.966 -2.25807 0
M  V30 9463 H 939.118 -0.946656 -1.0851 0
M  V30 9464 H 941.071 -0.476689 -4.18695 0
M  V30 9465 H 939.795 0.337873 -3.24848 0
M  V30 9466 H 938.454 -1.79402 -3.19704 0
M  V30 9467 H 938.102 -0.127562 -5.02838 0
M  V30 9468 H 937.802 -1.78896 -5.59705 0
M  V30 9469 H 939.326 -0.962928 -6.02959 0
M  V30 9470 H 940.74 -2.94441 -4.91912 0
M  V30 9471 H 939.137 -3.70941 -4.71724 0
M  V30 9472 H 940.207 -3.53991 -3.31389 0
M  V30 9473 N 941.55 1.18024 -1.04442 0
M  V30 9474 C 942.798 1.87727 -0.74854 0
M  V30 9475 C 943.119 1.80975 0.726156 0
M  V30 9476 O 942.389 1.23061 1.52423 0
M  V30 9477 H 940.969 0.694974 -0.273897 0
M  V30 9478 H 943.631 1.43213 -1.32197 0
M  V30 9479 H 942.727 2.93665 -1.05674 0
M  V30 9480 N 943.028 0.824394 1.34319 0
M  V30 9481 C 944.276 0.41235 1.97849 0
M  V30 9482 C 944.597 -1.02841 1.65677 0
M  V30 9483 O 943.867 -1.71421 0.948245 0
M  V30 9484 H 942.447 0.149486 0.73189 0
M  V30 9485 H 945.109 1.05416 1.63931 0
M  V30 9486 H 944.205 0.532557 3.07523 0
M  V30 9487 N 944.506 -1.46559 0.579492 0
M  V30 9488 C 945.752 -2.02699 0.0639363 0
M  V30 9489 C 946.085 -1.4504 -1.29139 0
M  V30 9490 O 945.36 -0.614284 -1.84545 0
M  V30 9491 C 945.643 -3.601 -0.00528618 0
M  V30 9492 C 945.496 -4.28149 1.37871 0
M  V30 9493 C 946.815 -4.34375 -0.707537 0
M  V30 9494 H 943.934 -0.736586 0.0247085 0
M  V30 9495 H 946.576 -1.74739 0.746071 0
M  V30 9496 H 944.726 -3.84052 -0.586206 0
M  V30 9497 H 946.398 -4.1547 2.00455 0
M  V30 9498 H 944.641 -3.87636 1.94732 0
M  V30 9499 H 945.312 -5.36888 1.28278 0
M  V30 9500 H 947.788 -4.15549 -0.214064 0
M  V30 9501 H 946.664 -5.44091 -0.724992 0
M  V30 9502 H 946.925 -4.052 -1.7682 0
M  V30 9503 N 945.984 -0.3171 -1.54377 0
M  V30 9504 C 946.914 0.544623 -2.2706 0
M  V30 9505 C 947.895 1.12469 -1.27611 0
M  V30 9506 O 949.08 1.15103 -1.56413 0
M  V30 9507 C 946.21 1.70879 -3.02353 0
M  V30 9508 C 945.164 1.25833 -4.09084 0
M  V30 9509 C 944.49 2.50894 -4.72182 0
M  V30 9510 C 945.79 0.377876 -5.20931 0
M  V30 9511 H 947.484 -0.0616372 -2.99337 0
M  V30 9512 H 945.03 -0.0310848 -1.43966 0
M  V30 9513 H 946.983 2.31787 -3.51927 0
M  V30 9514 H 945.707 2.34155 -2.27682 0
M  V30 9515 H 944.366 0.672228 -3.60384 0
M  V30 9516 H 944.014 3.12518 -3.94134 0
M  V30 9517 H 943.714 2.21447 -5.44275 0
M  V30 9518 H 945.238 3.12575 -5.24528 0
M  V30 9519 H 946.652 0.893056 -5.66302 0
M  V30 9520 H 945.049 0.176474 -5.9984 0
M  V30 9521 H 946.119 -0.592943 -4.81261 0
M  V30 9522 N 947.462 1.57535 -0.0451378 0
M  V30 9523 C 948.425 2.1008 0.916461 0
M  V30 9524 C 949.425 1.01913 1.2438 0
M  V30 9525 O 950.615 1.2801 1.18148 0
M  V30 9526 C 947.747 2.58001 2.22818 0
M  V30 9527 H 948.94 2.96334 0.461076 0
M  V30 9528 H 946.493 1.54974 0.203169 0
M  V30 9529 H 947.228 1.75123 2.72951 0
M  V30 9530 H 947.013 3.3704 2.00366 0
M  V30 9531 H 948.503 2.98822 2.9171 0
M  V30 9532 N 948.94 -0.228186 1.55939 0
M  V30 9533 C 949.903 -1.26621 1.91049 0
M  V30 9534 C 950.903 -1.40141 0.788491 0
M  V30 9535 O 952.093 -1.3852 1.05631 0
M  V30 9536 C 949.225 -2.64108 2.15545 0
M  V30 9537 H 950.418 -0.966978 2.83883 0
M  V30 9538 H 947.971 -0.468313 1.49119 0
M  V30 9539 H 948.706 -2.99141 1.25241 0
M  V30 9540 H 948.491 -2.55673 2.97277 0
M  V30 9541 H 949.981 -3.39025 2.43827 0
M  V30 9542 N 950.418 -1.49637 -0.494624 0
M  V30 9543 C 951.348 -1.69692 -1.60396 0
M  V30 9544 C 952.329 -0.545648 -1.61111 0
M  V30 9545 O 953.514 -0.782202 -1.77751 0
M  V30 9546 C 950.644 -1.76934 -2.9885 0
M  V30 9547 C 949.598 -2.91915 -3.13001 0
M  V30 9548 C 948.924 -2.84276 -4.5287 0
M  V30 9549 C 950.224 -4.32764 -2.92426 0
M  V30 9550 H 951.918 -2.6257 -1.43866 0
M  V30 9551 H 949.464 -1.26355 -0.690679 0
M  V30 9552 H 951.417 -1.8955 -3.76362 0
M  V30 9553 H 950.141 -0.806609 -3.16483 0
M  V30 9554 H 948.8 -2.78911 -2.37916 0
M  V30 9555 H 948.448 -1.85897 -4.67388 0
M  V30 9556 H 948.148 -3.61452 -4.63278 0
M  V30 9557 H 949.672 -2.98909 -5.32434 0
M  V30 9558 H 951.086 -4.46415 -3.59703 0
M  V30 9559 H 949.483 -5.1121 -3.143 0
M  V30 9560 H 950.553 -4.46765 -1.88491 0
M  V30 9561 N 951.896 0.746133 -1.38819 0
M  V30 9562 C 952.859 1.84167 -1.36437 0
M  V30 9563 C 953.859 1.58626 -0.263499 0
M  V30 9564 O 955.049 1.66233 -0.520801 0
M  V30 9565 C 952.181 3.21769 -1.12596 0
M  V30 9566 H 953.374 1.87684 -2.33912 0
M  V30 9567 H 950.927 0.948625 -1.24221 0
M  V30 9568 H 951.662 3.23917 -0.15758 0
M  V30 9569 H 951.447 3.41702 -1.92307 0
M  V30 9570 H 952.937 4.0184 -1.13643 0
M  V30 9571 N 953.375 1.23811 0.975125 0
M  V30 9572 C 954.338 1.02505 2.05001 0
M  V30 9573 C 955.338 -0.0150084 1.60793 0
M  V30 9574 O 956.528 0.225246 1.72738 0
M  V30 9575 C 953.66 0.552087 3.364 0
M  V30 9576 H 954.853 1.979 2.25335 0
M  V30 9577 H 952.406 1.05929 1.1493 0
M  V30 9578 H 953.141 -0.405394 3.21756 0
M  V30 9579 H 952.926 1.30267 3.69828 0
M  V30 9580 H 954.416 0.423828 4.15444 0
M  V30 9581 N 954.853 -1.17469 1.05066 0
M  V30 9582 C 956.083 -1.91343 0.779202 0
M  V30 9583 C 956.491 -1.76986 -0.668764 0
M  V30 9584 O 955.834 -1.1037 -1.46848 0
M  V30 9585 C 955.896 -3.42938 1.0786 0
M  V30 9586 C 955.56 -3.81076 2.52249 0
M  V30 9587 C 956.557 -3.84027 3.50456 0
M  V30 9588 C 954.242 -4.12076 2.87225 0
M  V30 9589 C 956.236 -4.17445 4.81683 0
M  V30 9590 C 953.923 -4.45163 4.18656 0
M  V30 9591 C 954.921 -4.47825 5.15696 0
M  V30 9592 O 954.609 -4.80133 6.44769 0
M  V30 9593 H 954.341 -0.613974 0.282863 0
M  V30 9594 H 956.895 -1.49907 1.40417 0
M  V30 9595 H 955.125 -3.84662 0.39653 0
M  V30 9596 H 956.814 -3.98071 0.793357 0
M  V30 9597 H 957.58 -3.60203 3.24775 0
M  V30 9598 H 953.459 -4.09176 2.12358 0
M  V30 9599 H 957.003 -4.19437 5.57421 0
M  V30 9600 H 952.9 -4.68449 4.44101 0
M  V30 9601 H 953.668 -4.97995 6.49571 0
M  V30 9602 N 956.331 -0.831506 -1.3388 0
M  V30 9603 C 957.571 -0.429648 -1.99833 0
M  V30 9604 C 957.935 0.990796 -1.6446 0
M  V30 9605 O 959.136 1.49599 -2.23324 0
M  V30 9606 C 957.407 -0.635558 -3.51704 0
M  V30 9607 S 958.966 -0.327824 -4.37574 0
M  V30 9608 H 955.784 -0.161939 -0.692313 0
M  V30 9609 H 958.386 -1.07919 -1.63015 0
M  V30 9610 H 957.09 -1.66887 -3.74936 0
M  V30 9611 H 956.621 0.0284073 -3.9339 0
M  V30 9612 H 958.636 0.855231 -4.88774 0
M  V30 9613 N 957.809 1.4625 -0.587256 0
M  V30 9614 C 958.739 2.33132 0.131076 0
M  V30 9615 C 959.72 1.45619 0.879158 0
M  V30 9616 O 960.905 1.74428 0.853723 0
M  V30 9617 C 958.035 3.27975 1.14236 0
M  V30 9618 C 956.989 4.24965 0.508819 0
M  V30 9619 C 956.315 5.09349 1.62689 0
M  V30 9620 C 957.615 5.19322 -0.55694 0
M  V30 9621 H 959.309 2.93442 -0.594333 0
M  V30 9622 H 956.855 1.41106 -0.287263 0
M  V30 9623 H 958.808 3.87614 1.65328 0
M  V30 9624 H 957.532 2.65781 1.8981 0
M  V30 9625 H 956.191 3.66595 0.0189337 0
M  V30 9626 H 955.839 4.43537 2.37242 0
M  V30 9627 H 955.539 5.75036 1.20861 0
M  V30 9628 H 957.063 5.71852 2.14049 0
M  V30 9629 H 958.477 5.73151 -0.130903 0
M  V30 9630 H 956.874 5.93376 -0.895801 0
M  V30 9631 H 957.944 4.62979 -1.44148 0
M  V30 9632 N 959.287 0.325282 1.54207 0
M  V30 9633 C 960.512 -0.281418 2.05482 0
M  V30 9634 C 960.937 -1.44869 1.19977 0
M  V30 9635 O 960.295 -1.80088 0.209275 0
M  V30 9636 C 960.343 -0.692029 3.53897 0
M  V30 9637 O 959.447 -1.7942 3.71325 0
M  V30 9638 H 958.788 -0.0504872 0.662078 0
M  V30 9639 H 961.318 0.474191 1.99029 0
M  V30 9640 H 961.328 -0.974219 3.96198 0
M  V30 9641 H 960.003 0.161709 4.15586 0
M  V30 9642 H 958.58 -1.51069 3.40929 0
M  V30 9643 N 960.765 -1.57509 0.0534917 0
M  V30 9644 C 962.011 -1.93068 -0.62069 0
M  V30 9645 C 962.344 -0.932313 -1.70357 0
M  V30 9646 O 961.619 0.0413393 -1.94456 0
M  V30 9647 C 961.902 -3.38997 -1.21463 0
M  V30 9648 C 961.755 -4.49583 -0.13965 0
M  V30 9649 C 963.074 -3.85366 -2.12558 0
M  V30 9650 H 960.193 -0.702083 -0.224163 0
M  V30 9651 H 962.835 -1.89647 0.115729 0
M  V30 9652 H 960.985 -3.42043 -1.84226 0
M  V30 9653 H 962.657 -4.58664 0.492411 0
M  V30 9654 H 960.9 -4.30525 0.532006 0
M  V30 9655 H 961.571 -5.48781 -0.595287 0
M  V30 9656 H 964.047 -3.8421 -1.59755 0
M  V30 9657 H 962.923 -4.8812 -2.51058 0
M  V30 9658 H 963.184 -3.22256 -3.02661 0
M  V30 9659 N 962.243 0.219913 -1.56058 0
M  V30 9660 C 963.491 0.942199 -1.78793 0
M  V30 9661 C 963.812 1.84804 -0.622284 0
M  V30 9662 O 963.082 1.9255 0.360735 0
M  V30 9663 H 961.662 0.350895 -0.659455 0
M  V30 9664 H 964.324 0.231376 -1.93522 0
M  V30 9665 H 963.42 1.54804 -2.71002 0
M  V30 9666 N 963.721 1.49897 0.486681 0
M  V30 9667 C 964.946 1.64106 1.26823 0
M  V30 9668 C 965.371 0.317967 1.85393 0
M  V30 9669 O 964.729 -0.71626 1.66551 0
M  V30 9670 C 964.777 2.72301 2.36399 0
M  V30 9671 O 963.881 2.32469 3.40634 0
M  V30 9672 H 963.222 0.548794 0.373793 0
M  V30 9673 H 965.752 1.96177 0.581017 0
M  V30 9674 H 965.762 2.94906 2.81948 0
M  V30 9675 H 964.437 3.68335 1.93137 0
M  V30 9676 H 963.014 2.20251 3.00905 0
M  V30 9677 N 965.199 -0.738761 1.39212 0
M  V30 9678 C 966.445 -1.50046 1.36433 0
M  V30 9679 C 966.778 -1.94157 -0.0409474 0
M  V30 9680 O 966.053 -1.66515 -1.00514 0
M  V30 9681 C 966.336 -2.74277 2.33333 0
M  V30 9682 C 966.189 -2.36209 3.82786 0
M  V30 9683 C 967.508 -3.76361 2.28123 0
M  V30 9684 H 964.627 -0.544294 0.496903 0
M  V30 9685 H 967.269 -0.845005 1.70175 0
M  V30 9686 H 965.419 -3.30204 2.04689 0
M  V30 9687 H 967.091 -1.85942 4.22165 0
M  V30 9688 H 965.334 -1.68483 3.99745 0
M  V30 9689 H 966.005 -3.25156 4.46069 0
M  V30 9690 H 968.481 -3.30009 2.53443 0
M  V30 9691 H 967.357 -4.60957 2.9801 0
M  V30 9692 H 967.618 -4.23013 1.28499 0
M  V30 9693 N 966.677 -1.24326 -0.968545 0
M  V30 9694 C 967.923 -1.08406 -1.71394 0
M  V30 9695 C 968.256 0.376353 -1.90518 0
M  V30 9696 O 967.531 1.27816 -1.46606 0
M  V30 9697 C 967.814 -1.82344 -3.1052 0
M  V30 9698 C 967.667 -3.3613 -2.98893 0
M  V30 9699 C 968.986 -1.59545 -4.10163 0
M  V30 9700 H 966.105 -0.395205 -0.622079 0
M  V30 9701 H 968.747 -1.52983 -1.12677 0
M  V30 9702 H 966.897 -1.44452 -3.60646 0
M  V30 9703 H 968.569 -3.83614 -2.56199 0
M  V30 9704 H 966.812 -3.64553 -2.35124 0
M  V30 9705 H 967.483 -3.83064 -3.97449 0
M  V30 9706 H 969.959 -1.92504 -3.68892 0
M  V30 9707 H 968.835 -2.13736 -5.05577 0
M  V30 9708 H 969.096 -0.533503 -4.38869 0
M  V30 9709 N 968.156 1.1691 -1.05688 0
M  V30 9710 C 969.405 1.86629 -0.765022 0
M  V30 9711 C 969.718 1.82223 0.710918 0
M  V30 9712 O 970.924 2.47462 1.11691 0
M  V30 9713 C 969.38 3.34886 -1.3183 0
M  V30 9714 C 968.988 3.47781 -2.82404 0
M  V30 9715 C 970.732 4.099 -1.10372 0
M  V30 9716 C 968.639 4.9009 -3.31008 0
M  V30 9717 H 967.569 0.699082 -0.282491 0
M  V30 9718 H 970.22 1.31989 -1.27481 0
M  V30 9719 H 968.602 3.89094 -0.736312 0
M  V30 9720 H 969.776 3.03765 -3.46502 0
M  V30 9721 H 968.091 2.86193 -3.02461 0
M  V30 9722 H 970.688 5.14894 -1.4418 0
M  V30 9723 H 971.031 4.16279 -0.0417372 0
M  V30 9724 H 971.564 3.61913 -1.65117 0
M  V30 9725 H 968.303 4.88887 -4.36657 0
M  V30 9726 H 967.823 5.34756 -2.71655 0
M  V30 9727 H 969.502 5.58881 -3.25977 0
M  V30 9728 N 969.634 0.838594 1.33437 0
M  V30 9729 C 970.88 0.434813 1.98084 0
M  V30 9730 C 971.213 -1.00331 1.66275 0
M  V30 9731 O 970.488 -1.70139 0.942501 0
M  V30 9732 C 970.771 0.655602 3.54082 0
M  V30 9733 C 970.624 2.14097 3.95578 0
M  V30 9734 C 971.943 0.101576 4.39983 0
M  V30 9735 H 969.062 0.159456 0.719544 0
M  V30 9736 H 971.704 1.05406 1.58081 0
M  V30 9737 H 969.854 0.128501 3.88287 0
M  V30 9738 H 971.526 2.73292 3.71631 0
M  V30 9739 H 969.769 2.62558 3.4532 0
M  V30 9740 H 970.44 2.24621 5.04231 0
M  V30 9741 H 972.916 0.552122 4.12421 0
M  V30 9742 H 971.792 0.28575 5.48156 0
M  V30 9743 H 972.053 -0.994616 4.30767 0
M  V30 9744 N 971.112 -1.45937 0.595003 0
M  V30 9745 C 972.36 -2.01921 0.0851368 0
M  V30 9746 C 972.681 -1.46748 -1.28413 0
M  V30 9747 O 971.951 -0.656873 -1.84559 0
M  V30 9748 H 970.531 -0.746457 0.0284826 0
M  V30 9749 H 973.193 -1.78891 0.773561 0
M  V30 9750 H 972.289 -3.1209 0.0254002 0
M  V30 9751 N 972.59 -0.333456 -1.54032 0
M  V30 9752 C 973.54 0.543745 -2.21421 0
M  V30 9753 C 974.524 1.07396 -1.19812 0
M  V30 9754 O 975.716 1.00934 -1.45401 0
M  V30 9755 C 972.845 1.69925 -2.98296 0
M  V30 9756 C 971.931 1.18345 -4.07253 0
M  V30 9757 N 972.322 0.388098 -5.04309 0
M  V30 9758 C 970.62 1.46128 -4.21382 0
M  V30 9759 C 971.321 0.109383 -5.81597 0
M  V30 9760 N 970.297 0.69825 -5.39097 0
M  V30 9761 H 974.099 -0.0711018 -2.93814 0
M  V30 9762 H 971.613 -0.139807 -1.61797 0
M  V30 9763 H 973.61 2.33954 -3.45067 0
M  V30 9764 H 972.27 2.31747 -2.27428 0
M  V30 9765 H 973.281 0.0300645 -5.17891 0
M  V30 9766 H 969.958 2.08463 -3.61731 0
M  V30 9767 H 971.348 -0.531554 -6.69794 0
M  V30 9768 N 974.068 1.57479 -0.061844 0
M  V30 9769 C 975.317 1.92285 0.609055 0
M  V30 9770 C 975.63 0.942983 1.71369 0
M  V30 9771 O 976.836 1.18349 2.44348 0
M  V30 9772 C 975.292 3.41545 1.13468 0
M  V30 9773 C 974.9 4.47958 0.0615926 0
M  V30 9774 C 976.644 3.85368 1.78022 0
M  V30 9775 C 974.551 5.88341 0.600705 0
M  V30 9776 H 973.481 0.717656 0.23127 0
M  V30 9777 H 976.132 1.83021 -0.132466 0
M  V30 9778 H 974.514 3.45848 1.92886 0
M  V30 9779 H 975.688 4.55258 -0.712527 0
M  V30 9780 H 974.003 4.13541 -0.487116 0
M  V30 9781 H 976.6 4.87627 2.19371 0
M  V30 9782 H 976.943 3.22193 2.63623 0
M  V30 9783 H 977.476 3.83626 1.05242 0
M  V30 9784 H 974.215 6.55138 -0.217922 0
M  V30 9785 H 973.735 5.84581 1.34257 0
M  V30 9786 H 975.414 6.37918 1.08025 0
M  V30 9787 N 975.546 -0.211634 1.56173 0
M  V30 9788 C 976.456 -1.2831 1.96402 0
M  V30 9789 C 977.472 -1.50731 0.869254 0
M  V30 9790 O 978.648 -1.63669 1.17365 0
M  V30 9791 C 975.713 -2.61084 2.28114 0
M  V30 9792 C 974.774 -2.46879 3.51211 0
M  V30 9793 C 974.007 -3.73321 3.81401 0
M  V30 9794 O 974.23 -4.76773 3.13119 0
M  V30 9795 O 973.164 -3.69839 4.74871 0
M  V30 9796 H 976.99 -0.971733 2.87734 0
M  V30 9797 H 974.575 -0.415305 1.43512 0
M  V30 9798 H 976.457 -3.39481 2.49661 0
M  V30 9799 H 975.132 -2.91881 1.39954 0
M  V30 9800 H 974.039 -1.66648 3.34932 0
M  V30 9801 H 975.372 -2.21018 4.39786 0
M  V30 9802 N 977.024 -1.50153 -0.478725 0
M  V30 9803 C 977.954 -1.71384 -1.58587 0
M  V30 9804 C 978.935 -0.562705 -1.60523 0
M  V30 9805 O 980.12 -0.80101 -1.76911 0
M  V30 9806 C 977.25 -1.80094 -2.96957 0
M  V30 9807 C 976.204 -2.95218 -3.09888 0
M  V30 9808 C 975.53 -2.89063 -4.49829 0
M  V30 9809 C 976.83 -4.35841 -2.8782 0
M  V30 9810 H 978.524 -2.64081 -1.41073 0
M  V30 9811 H 976.07 -1.27081 -0.677239 0
M  V30 9812 H 978.023 -1.93531 -3.74331 0
M  V30 9813 H 976.747 -0.840131 -3.1561 0
M  V30 9814 H 975.406 -2.81419 -2.34944 0
M  V30 9815 H 975.054 -1.90844 -4.6539 0
M  V30 9816 H 974.754 -3.66345 -4.59418 0
M  V30 9817 H 976.278 -3.04539 -5.29234 0
M  V30 9818 H 977.692 -4.50205 -3.54948 0
M  V30 9819 H 976.089 -5.14515 -3.0886 0
M  V30 9820 H 977.159 -4.48739 -1.83742 0
M  V30 9821 N 978.502 0.731368 -1.39602 0
M  V30 9822 C 979.75 1.48805 -1.36753 0
M  V30 9823 C 980.071 1.94969 0.034676 0
M  V30 9824 O 979.341 1.69243 0.986591 0
M  V30 9825 H 977.921 0.55203 -0.503261 0
M  V30 9826 H 980.583 0.868013 -1.74504 0
M  V30 9827 H 979.679 2.36844 -2.03252 0
M  V30 9828 N 979.98 1.24838 0.961938 0
M  V30 9829 C 981.228 1.08936 1.70227 0
M  V30 9830 C 981.549 -0.371582 1.91427 0
M  V30 9831 O 980.819 -1.26461 1.49614 0
M  V30 9832 H 979.399 0.400128 0.630799 0
M  V30 9833 H 982.061 1.56848 1.15692 0
M  V30 9834 H 981.157 1.59195 2.68446 0
M  V30 9835 N 981.458 -1.16348 1.06306 0
M  V30 9836 C 982.405 -2.20741 0.673962 0
M  V30 9837 C 983.375 -1.628 -0.329454 0
M  V30 9838 O 984.56 -1.89547 -0.218313 0
M  V30 9839 C 981.7 -3.45036 0.0667008 0
M  V30 9840 C 980.813 -4.17221 1.12031 0
M  V30 9841 C 979.948 -5.29034 0.479176 0
M  V30 9842 C 978.987 -5.93021 1.51631 0
M  V30 9843 N 978.124 -6.96327 0.898528 0
M  V30 9844 H 982.964 -2.53376 1.56859 0
M  V30 9845 H 980.501 -1.24449 0.784276 0
M  V30 9846 H 982.459 -4.16099 -0.302916 0
M  V30 9847 H 981.089 -3.1295 -0.791333 0
M  V30 9848 H 980.141 -3.4476 1.60763 0
M  V30 9849 H 981.453 -4.60902 1.90712 0
M  V30 9850 H 980.607 -6.06674 0.0565993 0
M  V30 9851 H 979.346 -4.86517 -0.33951 0
M  V30 9852 H 978.351 -5.14104 1.94878 0
M  V30 9853 H 979.576 -6.37618 2.3371 0
M  V30 9854 H 977.522 -6.55923 0.100555 0
M  V30 9855 H 977.439 -7.38379 1.62272 0
M  V30 9856 H 978.707 -7.77888 0.5011 0
M  V30 9857 N 982.937 -0.845659 -1.3299 0
M  V30 9858 C 984.348 -0.50048 -1.79867 0
M  V30 9859 C 984.699 0.981027 -1.69913 0
M  V30 9860 O 983.824 1.76477 -1.25239 0
M  V30 9861 C 984.419 -0.901679 -3.26581 0
M  V30 9862 C 982.978 -0.608536 -3.71448 0
M  V30 9863 C 982.125 -1.10632 -2.54275 0
M  V30 9864 H 985.076 -1.03372 -1.20416 0
M  V30 9865 H 985.097 -0.214433 -3.79895 0
M  V30 9866 H 984.609 -1.97998 -3.33794 0
M  V30 9867 H 982.71 0.459416 -3.69757 0
M  V30 9868 H 982.823 -1.16853 -4.64631 0
M  V30 9869 H 981.187 -0.526925 -2.4919 0
M  V30 9870 H 981.97 -2.19154 -2.64247 0
M  V30 9871 N 984.415 1.45619 -0.602734 0
M  V30 9872 C 985.378 2.28941 0.108962 0
M  V30 9873 C 986.378 1.39501 0.799762 0
M  V30 9874 O 987.568 1.61673 0.648663 0
M  V30 9875 C 984.7 3.204 1.16432 0
M  V30 9876 H 985.893 2.93346 -0.623534 0
M  V30 9877 H 983.446 1.52061 -0.361565 0
M  V30 9878 H 984.181 2.60785 1.92774 0
M  V30 9879 H 983.966 3.86277 0.673248 0
M  V30 9880 H 985.456 3.83063 1.6629 0
M  V30 9881 N 985.893 0.34162 1.53853 0
M  V30 9882 C 986.823 -0.508431 2.27897 0
M  V30 9883 C 987.804 -1.10425 1.29384 0
M  V30 9884 O 988.989 -1.126 1.58224 0
M  V30 9885 C 986.119 -1.66048 3.05034 0
M  V30 9886 C 985.073 -1.19309 4.11035 0
M  V30 9887 C 984.399 -2.4335 4.76114 0
M  V30 9888 C 985.699 -0.294952 5.21467 0
M  V30 9889 H 987.393 0.109251 2.99201 0
M  V30 9890 H 984.939 0.0539847 1.43899 0
M  V30 9891 H 986.892 -2.26158 3.5557 0
M  V30 9892 H 985.616 -2.30503 2.31379 0
M  V30 9893 H 984.275 -0.614809 3.61408 0
M  V30 9894 H 983.923 -3.06208 3.99056 0
M  V30 9895 H 983.623 -2.1276 5.47729 0
M  V30 9896 H 985.147 -3.0419 5.29434 0
M  V30 9897 H 986.561 -0.80285 5.67651 0
M  V30 9898 H 984.958 -0.0810221 6.00045 0
M  V30 9899 H 986.028 0.669433 4.80257 0
M  V30 9900 N 987.371 -1.57444 0.0701946 0
M  V30 9901 C 988.617 -1.93716 -0.600178 0
M  V30 9902 C 988.95 -0.950329 -1.69359 0
M  V30 9903 O 988.225 0.0207123 -1.94489 0
M  V30 9904 C 988.508 -3.40266 -1.17861 0
M  V30 9905 C 988.361 -4.49706 -0.0919575 0
M  V30 9906 C 989.68 -3.87599 -2.08459 0
M  V30 9907 H 986.799 -0.704421 -0.216704 0
M  V30 9908 H 989.441 -1.89514 0.135838 0
M  V30 9909 H 987.591 -3.43977 -1.80587 0
M  V30 9910 H 989.263 -4.58116 0.541031 0
M  V30 9911 H 987.506 -4.29937 0.577639 0
M  V30 9912 H 988.177 -5.49381 -0.537048 0
M  V30 9913 H 990.653 -3.85883 -1.5567 0
M  V30 9914 H 989.529 -4.90755 -2.45867 0
M  V30 9915 H 989.79 -3.25448 -2.99226 0
M  V30 9916 N 988.849 0.203349 -1.56283 0
M  V30 9917 C 990.26 0.768764 -1.70138 0
M  V30 9918 C 990.611 1.8421 -0.675358 0
M  V30 9919 O 989.736 2.15732 0.1699 0
M  V30 9920 C 990.331 1.40123 -3.08466 0
M  V30 9921 C 988.89 1.91382 -3.24114 0
M  V30 9922 C 988.037 0.780685 -2.66084 0
M  V30 9923 H 990.988 -0.0215997 -1.58685 0
M  V30 9924 H 991.009 2.27046 -3.05336 0
M  V30 9925 H 990.521 0.619805 -3.83119 0
M  V30 9926 H 988.622 2.7227 -2.54362 0
M  V30 9927 H 988.735 2.08128 -4.31531 0
M  V30 9928 H 987.099 1.19281 -2.25042 0
M  V30 9929 H 987.882 0.0116351 -3.43298 0
M  V30 9930 N 990.327 1.50405 0.470755 0
M  V30 9931 C 991.604 1.51929 1.23195 0
M  V30 9932 C 991.984 0.264159 2.09441 0
M  V30 9933 O 991.332 -0.752395 2.15757 0
M  V30 9934 C 991.542 2.81521 2.06269 0
M  V30 9935 C 992.89 3.32195 2.64446 0
M  V30 9936 O 993.914 2.82845 2.16511 0
M  V30 9937 O 992.773 4.18221 3.51786 0
M  V30 9938 H 989.867 0.609411 0.559059 0
M  V30 9939 H 992.413 1.62695 0.482549 0
M  V30 9940 H 991.185 3.64346 1.42715 0
M  V30 9941 H 990.808 2.7376 2.88342 0
M  V30 9942 N 991.805 -0.723954 1.39988 0
M  V30 9943 C 993.221 -1.03095 1.21834 0
M  V30 9944 C 993.421 -2.01309 0.0876647 0
M  V30 9945 O 992.477 -2.46277 -0.55714 0
M  V30 9946 C 993.79 -1.58267 2.5568 0
M  V30 9947 C 995.338 -1.70293 2.6262 0
M  V30 9948 C 995.813 -2.28872 3.96713 0
M  V30 9949 N 997.304 -2.36269 3.98411 0
M  V30 9950 C 998.039 -2.82557 4.98948 0
M  V30 9951 N 997.535 -3.28661 6.0988 0
M  V30 9952 N 999.328 -2.81866 4.86321 0
M  V30 9953 H 991.479 -0.0727891 2.12275 0
M  V30 9954 H 993.742 -0.0949029 0.943238 0
M  V30 9955 H 993.448 -0.935642 3.39026 0
M  V30 9956 H 993.322 -2.56914 2.76179 0
M  V30 9957 H 995.709 -2.34115 1.7965 0
M  V30 9958 H 995.79 -0.70268 2.45959 0
M  V30 9959 H 995.434 -1.65675 4.80119 0
M  V30 9960 H 995.364 -3.29595 4.107 0
M  V30 9961 H 997.855 -2.03697 3.18302 0
M  V30 9962 H 998.168 -3.62524 6.82493 0
M  V30 9963 H 996.513 -3.26641 6.13458 0
M  V30 9964 H 999.704 -2.45179 3.98754 0
M  V30 9965 H 999.877 -3.17626 5.64817 0
M  V30 9966 N 993.283 -1.25346 -0.955304 0
M  V30 9967 C 994.193 -1.07412 -2.08566 0
M  V30 9968 C 995.209 -0.0114424 -1.73996 0
M  V30 9969 O 996.385 -0.212236 -2.00279 0
M  V30 9970 C 993.45 -0.694141 -3.3968 0
M  V30 9971 C 992.511 -1.83468 -3.88121 0
M  V30 9972 C 991.744 -1.47274 -5.12978 0
M  V30 9973 O 991.967 -0.368086 -5.69211 0
M  V30 9974 O 990.901 -2.30269 -5.56111 0
M  V30 9975 H 994.727 -2.02206 -2.26598 0
M  V30 9976 H 992.312 -1.04279 -1.06988 0
M  V30 9977 H 994.194 -0.494325 -4.18491 0
M  V30 9978 H 992.869 0.224545 -3.2292 0
M  V30 9979 H 991.776 -2.08935 -3.10318 0
M  V30 9980 H 993.109 -2.73258 -4.09379 0
M  V30 9981 N 994.761 1.15782 -1.06922 0
M  V30 9982 C 996.007 1.86741 -0.790922 0
M  V30 9983 C 996.34 1.81863 0.681149 0
M  V30 9984 O 995.615 1.23871 1.49954 0
M  V30 9985 C 995.898 3.36038 -1.29422 0
M  V30 9986 C 995.751 3.49573 -2.83052 0
M  V30 9987 C 997.07 4.30647 -0.907239 0
M  V30 9988 H 994.189 0.678064 -0.288787 0
M  V30 9989 H 996.831 1.36054 -1.32624 0
M  V30 9990 H 994.981 3.79336 -0.838843 0
M  V30 9991 H 996.653 3.1517 -3.36847 0
M  V30 9992 H 994.896 2.91275 -3.21467 0
M  V30 9993 H 995.567 4.5445 -3.13335 0
M  V30 9994 H 998.043 3.95286 -1.29956 0
M  V30 9995 H 996.919 5.33604 -1.28679 0
M  V30 9996 H 997.18 4.41703 0.187251 0
M  V30 9997 N 996.239 0.8527 1.3254 0
M  V30 9998 C 997.169 0.311234 2.31416 0
M  V30 9999 C 998.15 -0.588557 1.59593 0
M  V30 10000 O 999.335 -0.509211 1.87405 0
M  V30 10001 C 996.465 -0.502892 3.4364 0
M  V30 10002 C 995.419 0.302296 4.26931 0
M  V30 10003 C 994.745 -0.636445 5.30899 0
M  V30 10004 C 996.045 1.52697 4.99481 0
M  V30 10005 H 997.739 1.13742 2.76953 0
M  V30 10006 H 995.285 0.548389 1.33149 0
M  V30 10007 H 997.238 -0.892092 4.11849 0
M  V30 10008 H 995.962 -1.36242 2.96826 0
M  V30 10009 H 994.621 0.673226 3.60365 0
M  V30 10010 H 994.269 -1.49277 4.80339 0
M  V30 10011 H 993.969 -0.101716 5.87512 0
M  V30 10012 H 995.493 -1.02286 6.01972 0
M  V30 10013 H 996.907 1.21017 5.60382 0
M  V30 10014 H 995.304 1.9995 5.65809 0
M  V30 10015 H 996.374 2.28929 4.27457 0
M  V30 10016 N 997.718 -1.45297 0.610449 0
M  V30 10017 C 998.948 -2.0629 0.113047 0
M  V30 10018 C 999.356 -1.45527 -1.20907 0
M  V30 10019 O 998.699 -0.564837 -1.74801 0
M  V30 10020 C 998.761 -3.59366 -0.0979692 0
M  V30 10021 C 998.425 -4.42481 1.14279 0
M  V30 10022 C 999.422 -4.77277 2.06161 0
M  V30 10023 C 997.107 -4.83187 1.37241 0
M  V30 10024 C 999.101 -5.51639 3.19333 0
M  V30 10025 C 996.788 -5.57303 2.50713 0
M  V30 10026 C 997.786 -5.91445 3.41587 0
M  V30 10027 O 997.474 -6.64056 4.53083 0
M  V30 10028 H 997.206 -0.67264 0.0673159 0
M  V30 10029 H 999.76 -1.87486 0.838937 0
M  V30 10030 H 997.99 -3.76582 -0.878783 0
M  V30 10031 H 999.679 -4.02193 -0.547327 0
M  V30 10032 H 1000.44 -4.46384 1.89647 0
M  V30 10033 H 996.324 -4.56045 0.67407 0
M  V30 10034 H 999.868 -5.78207 3.90286 0
M  V30 10035 H 995.765 -5.8761 2.67179 0
M  V30 10036 H 996.533 -6.82509 4.51801 0
M  V30 10037 N 999.196 -0.349774 -1.5367 0
M  V30 10038 C 1000.13 0.538575 -2.22782 0
M  V30 10039 C 1001.14 1.05896 -1.23652 0
M  V30 10040 O 1002.33 0.968045 -1.4997 0
M  V30 10041 C 999.43 1.7546 -2.89943 0
M  V30 10042 C 998.603 1.36843 -4.15443 0
M  V30 10043 C 997.662 2.4448 -4.65957 0
M  V30 10044 O 996.688 2.07528 -5.3002 0
M  V30 10045 N 997.89 3.75829 -4.42417 0
M  V30 10046 H 1000.65 -0.053348 -2.99653 0
M  V30 10047 H 998.216 -0.174193 -1.6096 0
M  V30 10048 H 1000.21 2.46911 -3.20651 0
M  V30 10049 H 998.778 2.25375 -2.16622 0
M  V30 10050 H 997.998 0.484421 -3.91212 0
M  V30 10051 H 999.286 1.0865 -4.97064 0
M  V30 10052 H 998.684 4.08635 -3.91196 0
M  V30 10053 H 997.241 4.43432 -4.77714 0
M  V30 10054 N 1000.67 1.57404 -0.0785433 0
M  V30 10055 C 1001.61 2.101 0.916013 0
M  V30 10056 C 1002.62 1.03459 1.25698 0
M  V30 10057 O 1003.81 1.30954 1.21299 0
M  V30 10058 C 1000.91 2.55202 2.22992 0
M  V30 10059 C 1000.08 3.85491 2.06678 0
M  V30 10060 C 999.14 4.16614 3.21433 0
M  V30 10061 O 998.166 4.86105 2.96126 0
M  V30 10062 N 999.368 3.70697 4.46726 0
M  V30 10063 H 1002.13 2.96054 0.466059 0
M  V30 10064 H 999.694 1.61546 0.107006 0
M  V30 10065 H 1001.69 2.7308 2.9868 0
M  V30 10066 H 1000.26 1.74348 2.59464 0
M  V30 10067 H 999.476 3.76925 1.15417 0
M  V30 10068 H 1000.76 4.70759 1.93036 0
M  V30 10069 H 1000.16 3.14571 4.70172 0
M  V30 10070 H 998.719 3.93762 5.19418 0
M  V30 10071 N 1002.15 -0.195058 1.56388 0
M  V30 10072 C 1003.38 -0.930291 1.8447 0
M  V30 10073 C 1003.79 -1.77356 0.658901 0
M  V30 10074 O 1003.13 -1.79691 -0.381664 0
M  V30 10075 C 1003.19 -1.87626 3.06654 0
M  V30 10076 C 1002.86 -1.21494 4.40555 0
M  V30 10077 C 1003.86 -0.591847 5.1652 0
M  V30 10078 C 1001.54 -1.21878 4.8729 0
M  V30 10079 C 1003.53 0.0185743 6.37397 0
M  V30 10080 C 1001.22 -0.604524 6.08103 0
M  V30 10081 C 1002.22 0.0130731 6.82999 0
M  V30 10082 O 1001.91 0.617703 8.01523 0
M  V30 10083 H 1001.64 -0.276933 0.616672 0
M  V30 10084 H 1004.19 -0.207277 2.04351 0
M  V30 10085 H 1002.42 -2.63897 2.82658 0
M  V30 10086 H 1004.11 -2.47929 3.21382 0
M  V30 10087 H 1004.88 -0.581018 4.81507 0
M  V30 10088 H 1000.76 -1.68888 4.2895 0
M  V30 10089 H 1004.3 0.50124 6.95797 0
M  V30 10090 H 1000.2 -0.612855 6.42584 0
M  V30 10091 H 1000.97 0.514612 8.16881 0
M  V30 10092 N 1003.63 -1.50653 -0.462772 0
M  V30 10093 C 1004.91 -1.5258 -1.22387 0
M  V30 10094 C 1005.29 -0.275263 -2.09298 0
M  V30 10095 O 1004.63 0.740943 -2.16153 0
M  V30 10096 C 1004.84 -2.82611 -2.04773 0
M  V30 10097 C 1006.19 -3.33592 -2.62681 0
M  V30 10098 O 1007.22 -2.83989 -2.15008 0
M  V30 10099 O 1006.08 -4.20081 -3.49563 0
M  V30 10100 H 1003.17 -0.612367 -0.55582 0
M  V30 10101 H 1005.72 -1.62948 -0.473914 0
M  V30 10102 H 1004.49 -3.65098 -1.40781 0
M  V30 10103 H 1004.11 -2.75286 -2.86886 0
M  V30 10104 N 1005.11 0.71652 -1.4037 0
M  V30 10105 C 1006.02 1.86074 -1.42876 0
M  V30 10106 C 1007.03 1.71005 -0.321475 0
M  V30 10107 O 1008.21 1.93286 -0.565909 0
M  V30 10108 C 1005.28 3.21862 -1.28863 0
M  V30 10109 C 1004.34 3.49193 -2.49726 0
M  V30 10110 C 1003.57 4.78502 -2.36372 0
M  V30 10111 O 1003.79 5.53529 -1.37703 0
M  V30 10112 O 1002.73 5.06147 -3.25728 0
M  V30 10113 H 1006.55 1.86916 -2.39366 0
M  V30 10114 H 1004.14 0.866818 -1.21683 0
M  V30 10115 H 1006.02 4.02972 -1.23253 0
M  V30 10116 H 1004.69 3.2175 -0.354783 0
M  V30 10117 H 1003.6 2.68095 -2.60913 0
M  V30 10118 H 1004.93 3.54101 -3.41868 0
M  V30 10119 N 1006.59 1.25851 0.948643 0
M  V30 10120 C 1007.52 1.0108 2.04593 0
M  V30 10121 C 1008.5 -0.0619691 1.62482 0
M  V30 10122 O 1009.68 0.0789196 1.88335 0
M  V30 10123 C 1006.81 0.529174 3.34541 0
M  V30 10124 C 1005.85 1.59337 3.95618 0
M  V30 10125 S 1006.69 3.18026 4.30836 0
M  V30 10126 C 1007.84 2.71613 5.63895 0
M  V30 10127 H 1008.08 1.93988 2.2529 0
M  V30 10128 H 1005.61 1.09448 1.08906 0
M  V30 10129 H 1007.57 0.25795 4.09689 0
M  V30 10130 H 1006.23 -0.37951 3.11799 0
M  V30 10131 H 1005.42 1.20722 4.89328 0
M  V30 10132 H 1005.02 1.81559 3.26975 0
M  V30 10133 H 1007.32 2.15612 6.42275 0
M  V30 10134 H 1008.26 3.63986 6.07387 0
M  V30 10135 H 1008.67 2.11417 5.23415 0
M  V30 10136 N 1008.06 -1.15214 1.07534 0
M  V30 10137 C 1008.97 -2.23636 0.708818 0
M  V30 10138 C 1009.99 -1.7172 -0.280759 0
M  V30 10139 O 1011.17 -2.01 -0.126927 0
M  V30 10140 C 1008.23 -3.46512 0.114167 0
M  V30 10141 C 1007.29 -4.13409 1.15722 0
M  V30 10142 C 1006.53 -5.30419 0.59085 0
M  V30 10143 O 1006.75 -5.67314 -0.592512 0
M  V30 10144 O 1005.68 -5.86871 1.33663 0
M  V30 10145 H 1009.51 -2.57322 1.61305 0
M  V30 10146 H 1007.09 -1.22972 0.848422 0
M  V30 10147 H 1008.98 -4.20851 -0.215091 0
M  V30 10148 H 1007.65 -3.1457 -0.763356 0
M  V30 10149 H 1006.56 -3.40984 1.53886 0
M  V30 10150 H 1007.89 -4.49435 2.00671 0
M  V30 10151 N 1009.54 -0.859717 -1.32086 0
M  V30 10152 C 1010.45 -0.31108 -2.32528 0
M  V30 10153 C 1011.47 0.573714 -1.6427 0
M  V30 10154 O 1012.64 0.472878 -1.9577 0
M  V30 10155 C 1009.71 0.487256 -3.43259 0
M  V30 10156 C 1008.77 -0.424279 -4.27198 0
M  V30 10157 C 1008 0.336051 -5.32641 0
M  V30 10158 O 1008.23 1.56541 -5.48499 0
M  V30 10159 O 1007.16 -0.300777 -6.01148 0
M  V30 10160 H 1010.99 -1.14336 -2.81355 0
M  V30 10161 H 1008.57 -0.622794 -1.358 0
M  V30 10162 H 1010.45 0.940203 -4.10777 0
M  V30 10163 H 1009.13 1.29626 -2.96612 0
M  V30 10164 H 1008.04 -0.925509 -3.62471 0
M  V30 10165 H 1009.37 -1.1986 -4.77383 0
M  V30 10166 N 1011.02 1.44971 -0.618145 0
M  V30 10167 C 1012.26 2.04044 -0.120625 0
M  V30 10168 C 1012.62 1.47472 1.22947 0
M  V30 10169 O 1013.83 1.97965 1.81834 0
M  V30 10170 C 1012.1 3.57279 -0.0930863 0
M  V30 10171 S 1013.66 4.37468 0.341705 0
M  V30 10172 H 1010.47 0.708891 -0.0547272 0
M  V30 10173 H 1013.08 1.77535 -0.818621 0
M  V30 10174 H 1011.78 3.95961 -1.07903 0
M  V30 10175 H 1011.31 3.88378 0.62657 0
M  V30 10176 H 1013.33 4.70073 1.58888 0
M  V30 10177 O 1012.54 0.500115 1.53561 0
M  V30 10178 H 1013.23 -0.0177336 1.93692 0
M  V30 END ATOM
M  V30 BEGIN BOND
M  V30 END BOND
M  V30 END CTAB
M  END
$$$$
