drugbank_target|B2ZTR6 Beta-lactamase (DB00493)
 OpenBabel12092121043D

  0  0  0     0  0            999 V3000
M  V30 BEGIN CTAB
M  V30 COUNTS 5731 5800 0 0 0
M  V30 BEGIN ATOM
M  V30 1 H -0.908 1.98254 -0.117106 0
M  V30 2 N 0 1.576 0 0
M  V30 3 C 0.93 2.11458 0.990341 0
M  V30 4 C 1.911 1.02372 1.35845 0
M  V30 5 O 3.096 1.30055 1.4422 0
M  V30 6 C 0.226 2.61788 2.2822 0
M  V30 7 C -0.82 3.754 2.0557 0
M  V30 8 C -1.494 4.12045 3.40769 0
M  V30 9 C -0.194 5.02675 1.41829 0
M  V30 10 H 1.5 2.94455 0.541905 0
M  V30 11 H -0.954 1.41648 0.259219 0
M  V30 12 H 0.999 2.98093 2.97856 0
M  V30 13 H -0.277 1.75913 2.75177 0
M  V30 14 H -1.618 3.39488 1.38359 0
M  V30 15 H -1.97 3.23193 3.85429 0
M  V30 16 H -2.27 4.88587 3.26429 0
M  V30 17 H -0.746 4.50909 4.1172 0
M  V30 18 H 0.668 5.36751 2.01422 0
M  V30 19 H -0.935 5.84022 1.37978 0
M  V30 20 H 0.135 4.83349 0.387506 0
M  V30 21 N 1.4781 -0.272755 1.55222 0
M  V30 22 C 2.7251 -1.00433 1.7584 0
M  V30 23 C 3.0531 -1.86275 0.559629 0
M  V30 24 O 2.3081 -1.90269 -0.457857 0
M  V30 25 C 2.6071 -1.91642 3.01675 0
M  V30 26 C 2.2731 -1.21548 4.34208 0
M  V30 27 C 0.9351 -1.02166 4.70229 0
M  V30 28 C 3.2871 -0.716684 5.16249 0
M  V30 29 C 0.6151 -0.316334 5.85847 0
M  V30 30 C 2.9671 -0.0249476 6.32595 0
M  V30 31 C 1.6311 0.180579 6.67256 0
M  V30 32 H 0.9011 -0.367509 0.643443 0
M  V30 33 H 3.5481 -0.276596 1.89492 0
M  V30 34 H 1.8531 -2.71037 2.82924 0
M  V30 35 H 3.5501 -2.48369 3.14824 0
M  V30 36 H 0.1401 -1.37645 4.05896 0
M  V30 37 H 4.3241 -0.854047 4.88896 0
M  V30 38 H -0.4199 -0.146378 6.11225 0
M  V30 39 H 3.7541 0.369311 6.9542 0
M  V30 40 H 1.3811 0.729098 7.56696 0
M  V30 41 N 2.9562 -1.48159 -0.537278 0
M  V30 42 C 4.2052 -1.5506 -1.28993 0
M  V30 43 C 4.5182 -0.226211 -1.94288 0
M  V30 44 O 5.7242 -0.173395 -2.70946 0
M  V30 45 C 4.1802 -2.73429 -2.34018 0
M  V30 46 C 3.7882 -4.1248 -1.74825 0
M  V30 47 C 5.5322 -2.89638 -3.10339 0
M  V30 48 C 3.4392 -5.22121 -2.77747 0
M  V30 49 H 2.3692 -0.577231 -0.485098 0
M  V30 50 H 5.0202 -1.74478 -0.568317 0
M  V30 51 H 3.4022 -2.47431 -3.09182 0
M  V30 52 H 4.5762 -4.48466 -1.05899 0
M  V30 53 H 2.8912 -4.01327 -1.11022 0
M  V30 54 H 5.4882 -3.68718 -3.87235 0
M  V30 55 H 5.8312 -1.9882 -3.65754 0
M  V30 56 H 6.3642 -3.15502 -2.42288 0
M  V30 57 H 3.1032 -6.1488 -2.27161 0
M  V30 58 H 2.6232 -4.90631 -3.45024 0
M  V30 59 H 4.3022 -5.49924 -3.4087 0
M  V30 60 N 4.4343 0.785586 -1.36625 0
M  V30 61 C 5.6813 1.54362 -1.31067 0
M  V30 62 C 6.0093 1.94195 0.10893 0
M  V30 63 O 5.2643 1.63262 1.07908 0
M  V30 64 C 5.5633 2.83007 -2.1827 0
M  V30 65 C 5.2293 2.62294 -3.6676 0
M  V30 66 C 3.8913 2.56353 -4.0723 0
M  V30 67 C 6.2433 2.43371 -4.6089 0
M  V30 68 C 3.5713 2.29461 -5.39967 0
M  V30 69 C 5.9233 2.18005 -5.93849 0
M  V30 70 C 4.5873 2.105 -6.3344 0
M  V30 71 H 3.8573 0.564851 -0.479609 0
M  V30 72 H 6.5043 0.906028 -1.68711 0
M  V30 73 H 4.8093 3.51253 -1.73576 0
M  V30 74 H 6.5063 3.40817 -2.11292 0
M  V30 75 H 3.0963 2.67774 -3.34656 0
M  V30 76 H 7.2803 2.46959 -4.30494 0
M  V30 77 H 2.5363 2.22135 -5.69619 0
M  V30 78 H 6.7103 2.02359 -6.66351 0
M  V30 79 H 4.3373 1.89425 -7.36222 0
M  V30 80 N 5.9124 1.20967 1.01018 0
M  V30 81 C 6.8604 0.961223 2.1181 0
M  V30 82 C 7.8544 -0.0897034 1.69162 0
M  V30 83 O 9.0604 0.0612271 1.79896 0
M  V30 84 H 5.4354 0.29355 0.692338 0
M  V30 85 H 7.4064 1.90178 2.29946 0
M  V30 86 C 6.1554 0.536854 3.4353 0
M  V30 87 H 5.4784 1.33713 3.76777 0
M  V30 88 H 6.9184 0.402286 4.22087 0
M  V30 89 C 5.3774 -0.751574 3.2841 0
M  V30 90 O 5.9074 -1.80841 3.58691 0
M  V30 91 N 4.1134 -0.716079 2.81639 0
M  V30 92 H 3.6604 0.144236 2.57196 0
M  V30 93 H 3.6184 -1.57847 2.71904 0
M  V30 94 N 7.3905 -1.2043 1.01659 0
M  V30 95 C 8.6185 -1.93777 0.725132 0
M  V30 96 C 9.0335 -1.74772 -0.714166 0
M  V30 97 O 8.3905 -1.06169 -1.4844 0
M  V30 98 C 8.4415 -3.45876 1.05129 0
M  V30 99 O 8.1625 -3.6426 2.43406 0
M  V30 100 C 9.6635 -4.36368 0.780891 0
M  V30 101 H 6.8835 -0.615901 0.266284 0
M  V30 102 H 9.4275 -1.52922 1.35776 0
M  V30 103 H 7.5825 -3.8461 0.464065 0
M  V30 104 H 7.9965 -4.58246 2.55169 0
M  V30 105 H 9.4705 -5.41743 1.05918 0
M  V30 106 H 9.9475 -4.38275 -0.284937 0
M  V30 107 H 10.5535 -4.03296 1.35027 0
M  V30 108 N 8.8686 -0.792821 -1.36206 0
M  V30 109 C 10.0936 -0.377701 -2.03932 0
M  V30 110 C 10.5186 0.998947 -1.59382 0
M  V30 111 O 9.8766 1.64421 -0.763903 0
M  V30 112 C 9.9246 -0.453635 -3.57735 0
M  V30 113 O 9.0286 0.538151 -4.08874 0
M  V30 114 H 8.3696 -0.159855 -0.644471 0
M  V30 115 H 10.8996 -1.07488 -1.7409 0
M  V30 116 H 10.9096 -0.318464 -4.06755 0
M  V30 117 H 9.5846 -1.45784 -3.89512 0
M  V30 118 H 8.1616 0.364359 -3.71116 0
M  V30 119 N 10.3467 1.47872 -0.545128 0
M  V30 120 C 11.5957 2.01695 -0.0145033 0
M  V30 121 C 11.9087 1.42609 1.33873 0
M  V30 122 O 13.1147 1.88021 1.95858 0
M  V30 123 C 11.5707 3.59892 0.0245068 0
M  V30 124 C 11.1787 4.27966 -1.32475 0
M  V30 125 C 12.9227 4.21507 0.50316 0
M  V30 126 C 10.8297 5.78136 -1.2455 0
M  V30 127 H 9.7597 0.753998 -0.00165172 0
M  V30 128 H 12.4107 1.69985 -0.691175 0
M  V30 129 H 10.7927 3.88509 0.766575 0
M  V30 130 H 11.9667 4.11003 -2.08357 0
M  V30 131 H 10.2817 3.78286 -1.74036 0
M  V30 132 H 12.8787 5.31538 0.580656 0
M  V30 133 H 13.2217 3.87855 1.51243 0
M  V30 134 H 13.7547 3.97376 -0.183681 0
M  V30 135 H 10.4937 6.16388 -2.23039 0
M  V30 136 H 10.0137 5.97469 -0.528282 0
M  V30 137 H 11.6927 6.40099 -0.942488 0
M  V30 138 N 11.8248 0.280983 1.55075 0
M  V30 139 C 13.0548 -0.336804 2.03836 0
M  V30 140 C 13.4628 -1.49577 1.15859 0
M  V30 141 O 12.8058 -1.82888 0.172503 0
M  V30 142 C 12.8678 -0.874616 3.48699 0
M  V30 143 C 12.5318 0.156478 4.56732 0
M  V30 144 C 13.5288 0.978032 5.10618 0
M  V30 145 C 11.2138 0.292409 5.01448 0
M  V30 146 C 13.2078 1.92165 6.07743 0
M  V30 147 C 10.8948 1.23949 5.98398 0
M  V30 148 C 11.8928 2.05261 6.51427 0
M  V30 149 O 11.5808 2.98367 7.4648 0
M  V30 150 H 11.3128 -0.0800885 0.671239 0
M  V30 151 H 13.8668 0.412589 2.01213 0
M  V30 152 H 12.0968 -1.67418 3.4858 0
M  V30 153 H 13.7858 -1.40612 3.80766 0
M  V30 154 H 14.5518 0.883782 4.7688 0
M  V30 155 H 10.4308 -0.330498 4.59814 0
M  V30 156 H 13.9748 2.55672 6.49059 0
M  V30 157 H 9.8718 1.33454 6.31554 0
M  V30 158 H 10.6398 2.93116 7.64215 0
M  V30 159 N 13.3029 -1.57598 0.00835791 0
M  V30 160 C 14.2659 -2.07884 -0.965242 0
M  V30 161 C 15.2659 -0.989825 -1.26725 0
M  V30 162 O 16.4559 -1.25218 -1.21104 0
M  V30 163 C 13.5879 -2.52731 -2.28779 0
M  V30 164 H 14.7809 -2.95178 -0.530112 0
M  V30 165 H 12.3339 -1.54458 -0.239283 0
M  V30 166 H 13.0689 -1.68705 -2.76964 0
M  V30 167 H 12.8539 -3.32272 -2.08177 0
M  V30 168 H 14.3439 -2.91933 -2.98605 0
M  V30 169 N 14.781 0.264519 -1.55364 0
M  V30 170 C 16.029 0.993021 -1.76021 0
M  V30 171 C 16.35 1.86511 -0.569099 0
M  V30 172 O 15.62 1.91438 0.415735 0
M  V30 173 H 14.2 0.369639 -0.649135 0
M  V30 174 H 16.862 0.286707 -1.9278 0
M  V30 175 H 15.958 1.62502 -2.66457 0
M  V30 176 N 16.2591 1.48442 0.529413 0
M  V30 177 C 17.2071 1.63452 1.65487 0
M  V30 178 C 18.2011 0.500955 1.61823 0
M  V30 179 O 19.4071 0.679695 1.66674 0
M  V30 180 H 15.7821 0.514905 0.548066 0
M  V30 181 H 17.7531 2.57975 1.49971 0
M  V30 182 C 16.5021 1.69196 3.03756 0
M  V30 183 H 15.8251 2.55784 3.07269 0
M  V30 184 H 17.2651 1.83743 3.82119 0
M  V30 185 C 15.7241 0.430765 3.34135 0
M  V30 186 O 16.2541 -0.4561 3.99102 0
M  V30 187 N 14.4601 0.302293 2.89023 0
M  V30 188 H 14.0071 1.02496 2.36331 0
M  V30 189 H 13.9651 -0.540546 3.09718 0
M  V30 190 N 17.7372 -0.778329 1.37039 0
M  V30 191 C 18.9652 -1.56734 1.35063 0
M  V30 192 C 19.3802 -1.88686 -0.0655597 0
M  V30 193 O 18.7372 -1.5096 -1.02554 0
M  V30 194 C 18.7882 -2.88163 2.18276 0
M  V30 195 O 18.5092 -2.57583 3.54376 0
M  V30 196 C 20.0102 -3.82422 2.24206 0
M  V30 197 H 17.2302 -0.485778 0.462883 0
M  V30 198 H 19.7742 -0.965185 1.8029 0
M  V30 199 H 17.9292 -3.44818 1.76576 0
M  V30 200 H 18.3432 -3.41699 3.97922 0
M  V30 201 H 19.8172 -4.71667 2.86765 0
M  V30 202 H 20.2942 -4.21078 1.24861 0
M  V30 203 H 20.9002 -3.31697 2.6619 0
M  V30 204 N 19.2153 -1.21501 -1.00376 0
M  V30 205 C 20.6263 -1.03146 -1.55621 0
M  V30 206 C 20.9773 0.408375 -1.91903 0
M  V30 207 O 20.1023 1.29177 -1.73616 0
M  V30 208 C 20.6973 -1.86612 -2.82775 0
M  V30 209 C 19.2563 -1.72586 -3.34501 0
M  V30 210 C 18.4033 -1.83747 -2.07683 0
M  V30 211 H 21.3543 -1.35505 -0.826081 0
M  V30 212 H 21.3753 -1.3771 -3.54706 0
M  V30 213 H 20.8873 -2.91399 -2.56336 0
M  V30 214 H 18.9883 -0.704877 -3.65872 0
M  V30 215 H 19.1013 -2.54623 -4.05837 0
M  V30 216 H 17.4653 -1.27069 -2.20739 0
M  V30 217 H 18.2483 -2.90044 -1.83655 0
M  V30 218 N 20.6934 1.19889 -1.02296 0
M  V30 219 C 21.6404 2.22901 -0.598651 0
M  V30 220 C 22.6104 1.61588 0.384521 0
M  V30 221 O 23.7954 1.88697 0.282522 0
M  V30 222 C 20.9354 3.45063 0.0504476 0
M  V30 223 C 20.0484 4.20783 -0.978053 0
M  V30 224 C 19.1834 5.30356 -0.299338 0
M  V30 225 C 18.2224 5.97826 -1.31416 0
M  V30 226 N 17.3594 6.98975 -0.661667 0
M  V30 227 H 22.1994 2.58554 -1.48169 0
M  V30 228 H 19.7364 1.27039 -0.741584 0
M  V30 229 H 21.6944 4.14831 0.443971 0
M  V30 230 H 20.3244 3.10084 0.897097 0
M  V30 231 H 19.3764 3.50018 -1.48969 0
M  V30 232 H 20.6884 4.67109 -1.74958 0
M  V30 233 H 19.8424 6.06516 0.149347 0
M  V30 234 H 18.5814 4.85084 0.504445 0
M  V30 235 H 17.5864 5.20422 -1.77317 0
M  V30 236 H 18.8114 6.45183 -2.11933 0
M  V30 237 H 16.7574 6.55886 0.122132 0
M  V30 238 H 16.6744 7.43461 -1.37117 0
M  V30 239 H 17.9424 7.7914 -0.236785 0
M  V30 240 N 22.1715 0.800033 1.35784 0
M  V30 241 C 23.4485 0.30088 1.93272 0
M  V30 242 C 23.8285 -1.20857 1.73081 0
M  V30 243 O 23.1765 -2.00502 1.09596 0
M  V30 244 C 23.3865 0.70511 3.41803 0
M  V30 245 C 24.7345 0.690871 4.18942 0
M  V30 246 O 25.7585 0.646244 3.50289 0
M  V30 247 O 24.6175 0.74332 5.41421 0
M  V30 248 H 21.7115 0.0771605 0.823393 0
M  V30 249 H 24.2575 0.88329 1.449 0
M  V30 250 H 23.0295 1.74571 3.50201 0
M  V30 251 H 22.6525 0.0971541 3.97481 0
M  V30 252 N 23.6496 -1.47581 0.552962 0
M  V30 253 C 24.5816 -2.27997 -0.234533 0
M  V30 254 C 25.5946 -1.36753 -0.883321 0
M  V30 255 O 26.7836 -1.61612 -0.757889 0
M  V30 256 C 23.8836 -3.10879 -1.34935 0
M  V30 257 C 23.0566 -4.30056 -0.798158 0
M  V30 258 C 22.1156 -4.94567 -1.79694 0
M  V30 259 O 21.1416 -5.53087 -1.34474 0
M  V30 260 N 22.3436 -4.88878 -3.13015 0
M  V30 261 H 25.1086 -2.96222 0.455255 0
M  V30 262 H 22.6696 -1.57163 0.388761 0
M  V30 263 H 24.6616 -3.50903 -2.01616 0
M  V30 264 H 23.2316 -2.44924 -1.94244 0
M  V30 265 H 22.4516 -3.94174 0.0453079 0
M  V30 266 H 23.7396 -5.07152 -0.409173 0
M  V30 267 H 23.1376 -4.42526 -3.52402 0
M  V30 268 H 21.6946 -5.32934 -3.75266 0
M  V30 269 N 25.1277 -0.289203 -1.54924 0
M  V30 270 C 26.0377 0.601863 -2.26748 0
M  V30 271 C 27.0537 1.15834 -1.2984 0
M  V30 272 O 28.2297 1.18564 -1.62802 0
M  V30 273 C 25.2947 1.76299 -2.98529 0
M  V30 274 C 24.3557 1.24178 -4.10948 0
M  V30 275 C 23.5887 2.34757 -4.79296 0
M  V30 276 O 23.8117 3.54411 -4.46933 0
M  V30 277 O 22.7457 2.02115 -5.66951 0
M  V30 278 H 26.5717 0.0195879 -3.03694 0
M  V30 279 H 24.1567 -0.0560868 -1.49295 0
M  V30 280 H 26.0387 2.43973 -3.43592 0
M  V30 281 H 24.7137 2.33209 -2.24488 0
M  V30 282 H 23.6207 0.531104 -3.70311 0
M  V30 283 H 24.9537 0.718252 -4.86931 0
M  V30 284 N 26.6058 1.57591 -0.0167156 0
M  V30 285 C 27.8548 1.90461 0.663877 0
M  V30 286 C 28.1678 0.893515 1.73999 0
M  V30 287 O 29.3738 1.11302 2.47637 0
M  V30 288 C 27.8298 3.38155 1.23204 0
M  V30 289 C 27.4378 4.47597 0.189866 0
M  V30 290 C 29.1818 3.80111 1.88986 0
M  V30 291 C 27.0888 5.86379 0.768964 0
M  V30 292 H 26.0188 0.710738 0.251729 0
M  V30 293 H 28.6698 1.83326 -0.0799926 0
M  V30 294 H 27.0518 3.40182 2.02712 0
M  V30 295 H 28.2258 4.57112 -0.581846 0
M  V30 296 H 26.5408 4.14766 -0.368475 0
M  V30 297 H 29.1378 4.81145 2.33247 0
M  V30 298 H 29.4808 3.14511 2.72743 0
M  V30 299 H 30.0138 3.80454 1.16187 0
M  V30 300 H 26.7528 6.55493 -0.0301957 0
M  V30 301 H 26.2728 5.80496 1.50945 0
M  V30 302 H 27.9518 6.34563 1.26251 0
M  V30 303 N 28.0839 -0.256276 1.55502 0
M  V30 304 C 29.0309 -1.31714 1.89526 0
M  V30 305 C 30.0009 -1.4828 0.748479 0
M  V30 306 O 31.1859 -1.62416 1.00128 0
M  V30 307 C 28.3259 -2.66933 2.18725 0
M  V30 308 C 27.4389 -2.58452 3.4616 0
M  V30 309 C 26.5739 -3.85961 3.64976 0
M  V30 310 C 25.6129 -3.72059 4.86044 0
M  V30 311 N 24.7499 -4.9144 5.01429 0
M  V30 312 H 29.5899 -1.01998 2.80001 0
M  V30 313 H 27.1269 -0.492413 1.38613 0
M  V30 314 H 29.0849 -3.4563 2.33657 0
M  V30 315 H 27.7149 -2.94816 1.31466 0
M  V30 316 H 26.7669 -1.71374 3.3961 0
M  V30 317 H 28.0789 -2.44085 4.34999 0
M  V30 318 H 27.2329 -4.73101 3.79816 0
M  V30 319 H 25.9719 -4.03215 2.74353 0
M  V30 320 H 24.9769 -2.83302 4.7119 0
M  V30 321 H 26.2019 -3.56309 5.78118 0
M  V30 322 H 24.1479 -5.09072 4.13741 0
M  V30 323 H 24.0649 -4.79668 5.84341 0
M  V30 324 H 25.3329 -5.80104 5.20672 0
M  V30 325 N 29.562 -1.4872 -0.521534 0
M  V30 326 C 30.509 -1.63871 -1.62527 0
M  V30 327 C 31.479 -0.480559 -1.58996 0
M  V30 328 O 32.664 -0.705085 -1.77294 0
M  V30 329 C 29.804 -1.69227 -3.00759 0
M  V30 330 C 28.917 -2.96207 -3.14461 0
M  V30 331 C 28.052 -2.92671 -4.43303 0
M  V30 332 C 27.091 -4.14318 -4.50563 0
M  V30 333 N 26.228 -4.0881 -5.70805 0
M  V30 334 H 31.068 -2.58123 -1.48918 0
M  V30 335 H 28.605 -1.28 -0.724878 0
M  V30 336 H 30.563 -1.70314 -3.80853 0
M  V30 337 H 29.193 -0.784586 -3.1312 0
M  V30 338 H 28.245 -3.04826 -2.27564 0
M  V30 339 H 29.557 -3.86192 -3.15686 0
M  V30 340 H 28.711 -2.92206 -5.31696 0
M  V30 341 H 27.45 -2.00429 -4.44612 0
M  V30 342 H 26.455 -4.15049 -3.60575 0
M  V30 343 H 27.68 -5.07729 -4.50986 0
M  V30 344 H 25.626 -3.19394 -5.72995 0
M  V30 345 H 25.543 -4.92509 -5.7356 0
M  V30 346 H 26.811 -4.12418 -6.61462 0
M  V30 347 N 31.0401 0.771051 -1.3745 0
M  V30 348 C 31.9701 1.89827 -1.3597 0
M  V30 349 C 32.9511 1.68562 -0.228216 0
M  V30 350 O 34.1361 1.8941 -0.428675 0
M  V30 351 C 31.2661 3.2712 -1.16662 0
M  V30 352 C 30.2201 3.6295 -2.2683 0
M  V30 353 C 29.5461 4.98791 -1.92644 0
M  V30 354 C 30.8461 3.69627 -3.69017 0
M  V30 355 H 32.5401 1.91323 -2.30295 0
M  V30 356 H 30.0861 0.919082 -1.10855 0
M  V30 357 H 32.0391 4.05615 -1.14256 0
M  V30 358 H 30.7631 3.26059 -0.187926 0
M  V30 359 H 29.4221 2.86763 -2.28392 0
M  V30 360 H 29.0701 4.94271 -0.933021 0
M  V30 361 H 28.7701 5.23733 -2.66416 0
M  V30 362 H 30.2941 5.79685 -1.91826 0
M  V30 363 H 31.7081 4.38273 -3.69581 0
M  V30 364 H 30.1051 4.06067 -4.41848 0
M  V30 365 H 31.1751 2.70273 -4.02592 0
M  V30 366 N 32.5182 1.22032 0.997298 0
M  V30 367 C 33.7642 1.04376 1.73878 0
M  V30 368 C 34.0972 -0.420716 1.89588 0
M  V30 369 O 33.3722 -1.31202 1.43583 0
M  V30 370 C 33.6552 1.75047 3.14691 0
M  V30 371 C 33.5082 3.29062 3.06656 0
M  V30 372 C 34.8272 1.49928 4.13775 0
M  V30 373 H 31.9462 0.380578 0.631133 0
M  V30 374 H 34.5882 1.50312 1.16217 0
M  V30 375 H 32.7382 1.35996 3.63919 0
M  V30 376 H 34.4102 3.7753 2.65083 0
M  V30 377 H 32.6532 3.58967 2.43568 0
M  V30 378 H 33.3242 3.73683 4.06282 0
M  V30 379 H 35.8002 1.83842 3.73285 0
M  V30 380 H 34.6762 2.01878 5.10428 0
M  V30 381 H 34.9372 0.430929 4.39995 0
M  V30 382 N 33.9963 -1.19345 1.0293 0
M  V30 383 C 35.2733 -1.84811 0.640642 0
M  V30 384 C 35.6533 -1.91855 -0.88062 0
M  V30 385 O 35.0013 -1.43587 -1.7775 0
M  V30 386 C 35.2113 -3.23755 1.30321 0
M  V30 387 C 36.5593 -3.99912 1.42673 0
M  V30 388 O 37.5833 -3.33155 1.26041 0
M  V30 389 O 36.4423 -5.19494 1.6967 0
M  V30 390 H 33.5363 -0.796443 0.222726 0
M  V30 391 H 36.0823 -1.26831 1.12748 0
M  V30 392 H 34.8543 -3.13466 2.34211 0
M  V30 393 H 34.4773 -3.89381 0.804261 0
M  V30 394 N 35.4744 -0.807222 -1.35358 0
M  V30 395 C 36.4064 -0.175717 -2.28525 0
M  V30 396 C 37.4194 0.625354 -1.5031 0
M  V30 397 O 38.6084 0.457611 -1.72535 0
M  V30 398 C 35.7084 0.773471 -3.29956 0
M  V30 399 C 34.8814 0.0186296 -4.37396 0
M  V30 400 C 33.9404 0.886395 -5.18681 0
M  V30 401 O 32.9664 0.337106 -5.68201 0
M  V30 402 N 34.1684 2.20839 -5.36852 0
M  V30 403 H 36.9334 -0.976091 -2.83359 0
M  V30 404 H 34.4944 -0.662737 -1.47714 0
M  V30 405 H 36.4864 1.35824 -3.81227 0
M  V30 406 H 35.0564 1.47465 -2.75632 0
M  V30 407 H 34.2764 -0.747349 -3.87051 0
M  V30 408 H 35.5644 -0.501577 -5.06322 0
M  V30 409 H 34.9624 2.67858 -4.98265 0
M  V30 410 H 33.5194 2.74237 -5.91301 0
M  V30 411 N 36.9525 1.47285 -0.560781 0
M  V30 412 C 37.9005 2.31756 0.197942 0
M  V30 413 C 38.8945 1.43146 0.905854 0
M  V30 414 O 40.1005 1.59891 0.826733 0
M  V30 415 H 36.4755 0.747438 0.0827049 0
M  V30 416 H 38.4465 2.9359 -0.533629 0
M  V30 417 C 37.1955 3.25874 1.21249 0
M  V30 418 H 36.5185 3.94023 0.67719 0
M  V30 419 H 37.9585 3.87803 1.71419 0
M  V30 420 C 36.4175 2.49651 2.26221 0
M  V30 421 O 36.9475 2.24355 3.33208 0
M  V30 422 N 35.1535 2.10597 2.00243 0
M  V30 423 H 34.7005 2.31369 1.13252 0
M  V30 424 H 34.6585 1.59913 2.70694 0
M  V30 425 N 38.4306 0.297415 1.54768 0
M  V30 426 C 39.6776 -0.312913 2.00068 0
M  V30 427 C 40.0056 -1.54171 1.18582 0
M  V30 428 O 39.2606 -1.94108 0.249133 0
M  V30 429 C 39.5596 -0.717561 3.50123 0
M  V30 430 C 39.2256 0.409095 4.4904 0
M  V30 431 C 37.8876 0.718399 4.75807 0
M  V30 432 C 40.2396 1.16717 5.07963 0
M  V30 433 C 37.5676 1.78896 5.5876 0
M  V30 434 C 39.9196 2.22762 5.92081 0
M  V30 435 C 38.5836 2.54303 6.1716 0
M  V30 436 H 37.8536 -0.114503 0.7321 0
M  V30 437 H 40.5006 0.415767 1.86932 0
M  V30 438 H 38.8056 -1.52627 3.60849 0
M  V30 439 H 40.5026 -1.20091 3.82595 0
M  V30 440 H 37.0926 0.157918 4.28309 0
M  V30 441 H 41.2766 0.941466 4.87289 0
M  V30 442 H 36.5326 2.0381 5.7643 0
M  V30 443 H 40.7066 2.81962 6.36765 0
M  V30 444 H 38.3336 3.3739 6.81229 0
M  V30 445 N 39.9087 -1.5758 0.0250728 0
M  V30 446 C 40.8557 -2.09973 -0.958129 0
M  V30 447 C 41.8257 -1.00085 -1.3256 0
M  V30 448 O 43.0107 -1.27481 -1.41962 0
M  V30 449 C 40.1507 -2.62812 -2.2366 0
M  V30 450 C 39.2637 -3.86693 -1.92594 0
M  V30 451 C 38.3987 -4.27941 -3.14707 0
M  V30 452 C 37.4377 -5.44591 -2.79442 0
M  V30 453 N 36.5747 -5.81014 -3.94167 0
M  V30 454 H 41.4147 -2.937 -0.504428 0
M  V30 455 H 38.9517 -1.45172 -0.237392 0
M  V30 456 H 40.9097 -2.91536 -2.98434 0
M  V30 457 H 39.5397 -1.81922 -2.66654 0
M  V30 458 H 38.5917 -3.64723 -1.0808 0
M  V30 459 H 39.9037 -4.71547 -1.62619 0
M  V30 460 H 39.0577 -4.58079 -3.97804 0
M  V30 461 H 37.7967 -3.41845 -3.4784 0
M  V30 462 H 36.8017 -5.1415 -1.94755 0
M  V30 463 H 38.0267 -6.32382 -2.47528 0
M  V30 464 H 35.9727 -4.97874 -4.2715 0
M  V30 465 H 35.8897 -6.60498 -3.67801 0
M  V30 466 H 37.1577 -6.15756 -4.7798 0
M  V30 467 N 41.3868 0.248026 -1.55636 0
M  V30 468 C 42.7978 0.817177 -1.67866 0
M  V30 469 C 43.1488 1.86069 -0.622322 0
M  V30 470 O 42.2738 2.15157 0.231618 0
M  V30 471 C 42.8688 1.489 -3.04326 0
M  V30 472 C 41.4278 2.00587 -3.185 0
M  V30 473 C 40.5748 0.856573 -2.63739 0
M  V30 474 H 43.5258 0.0238579 -1.58682 0
M  V30 475 H 43.5468 2.35698 -2.98708 0
M  V30 476 H 43.0588 0.729279 -3.81186 0
M  V30 477 H 41.1598 2.79443 -2.4646 0
M  V30 478 H 41.2728 2.20402 -4.25393 0
M  V30 479 H 39.6368 1.25678 -2.21534 0
M  V30 480 H 40.4198 0.109953 -3.43124 0
M  V30 481 N 42.8649 1.48995 0.513639 0
M  V30 482 C 43.7949 1.67636 1.62544 0
M  V30 483 C 44.7759 0.525087 1.61793 0
M  V30 484 O 45.9609 0.759502 1.78732 0
M  V30 485 C 43.0909 1.73114 3.01079 0
M  V30 486 C 42.0449 2.87905 3.16693 0
M  V30 487 C 41.3709 2.78486 4.56453 0
M  V30 488 C 42.6709 4.29005 2.97913 0
M  V30 489 H 44.3649 2.60716 1.47198 0
M  V30 490 H 41.9109 1.25465 0.706714 0
M  V30 491 H 43.8639 1.84742 3.78746 0
M  V30 492 H 42.5879 0.766241 3.17484 0
M  V30 493 H 41.2469 2.75859 2.41448 0
M  V30 494 H 40.8949 1.7993 4.69717 0
M  V30 495 H 40.5949 3.55523 4.67843 0
M  V30 496 H 42.1189 2.92104 5.36197 0
M  V30 497 H 43.5329 4.41798 3.65359 0
M  V30 498 H 41.9299 5.07166 3.20785 0
M  V30 499 H 42.9999 4.44329 1.94165 0
M  V30 500 N 44.343 -0.763751 1.37857 0
M  V30 501 C 45.273 -1.89103 1.36975 0
M  V30 502 C 46.254 -1.68439 0.237152 0
M  V30 503 O 47.439 -1.8918 0.438713 0
M  V30 504 C 44.569 -3.26496 1.18395 0
M  V30 505 C 43.523 -3.61741 2.28751 0
M  V30 506 C 42.849 -4.97762 1.95286 0
M  V30 507 C 44.149 -3.67665 3.70972 0
M  V30 508 H 45.843 -1.90099 2.31307 0
M  V30 509 H 43.389 -0.91319 1.11341 0
M  V30 510 H 45.342 -4.05003 1.16406 0
M  V30 511 H 44.066 -3.25955 0.205215 0
M  V30 512 H 42.725 -2.85547 2.29909 0
M  V30 513 H 42.373 -4.93769 0.959221 0
M  V30 514 H 42.073 -5.22313 2.69189 0
M  V30 515 H 43.597 -5.7866 1.94898 0
M  V30 516 H 45.011 -4.36307 3.719 0
M  V30 517 H 43.408 -4.03718 4.43995 0
M  V30 518 H 44.478 -2.68134 4.0402 0
M  V30 519 N 45.8211 -1.22559 -0.990812 0
M  V30 520 C 46.7311 -1.01394 -2.11557 0
M  V30 521 C 47.7471 0.0383962 -1.73958 0
M  V30 522 O 48.9231 -0.154787 -2.00804 0
M  V30 523 C 45.9881 -0.596569 -3.41529 0
M  V30 524 C 45.0491 -1.72276 -3.93217 0
M  V30 525 C 44.2821 -1.32521 -5.16985 0
M  V30 526 O 44.5051 -0.204909 -5.70032 0
M  V30 527 O 43.4391 -2.14247 -5.62478 0
M  V30 528 H 47.2651 -1.95633 -2.32296 0
M  V30 529 H 44.8501 -1.01172 -1.0993 0
M  V30 530 H 46.7321 -0.374263 -4.19735 0
M  V30 531 H 45.4071 0.316939 -3.22145 0
M  V30 532 H 44.3141 -1.99961 -3.16174 0
M  V30 533 H 45.6471 -2.61421 -4.17037 0
M  V30 534 N 47.2992 1.18797 -1.03562 0
M  V30 535 C 48.2462 2.22253 -0.622259 0
M  V30 536 C 49.2162 1.61987 0.36736 0
M  V30 537 O 50.4012 1.88986 0.262492 0
M  V30 538 C 47.5412 3.45097 0.0138462 0
M  V30 539 C 46.6542 4.19722 -1.02263 0
M  V30 540 C 45.7892 5.30009 -0.355573 0
M  V30 541 C 44.8282 5.96399 -1.37749 0
M  V30 542 N 43.9652 6.98234 -0.735766 0
M  V30 543 H 48.8052 2.56968 -1.50903 0
M  V30 544 H 46.3422 1.26245 -0.755017 0
M  V30 545 H 48.3002 4.15279 0.399948 0
M  V30 546 H 46.9302 3.11018 0.864158 0
M  V30 547 H 45.9822 3.48418 -1.52673 0
M  V30 548 H 47.2942 4.65227 -1.79903 0
M  V30 549 H 46.4482 6.0664 0.0850095 0
M  V30 550 H 45.1872 4.85592 0.452967 0
M  V30 551 H 44.1922 5.18512 -1.82826 0
M  V30 552 H 45.4172 6.42899 -2.18764 0
M  V30 553 H 43.3632 6.55979 0.0525597 0
M  V30 554 H 43.2802 7.41965 -1.44995 0
M  V30 555 H 44.5482 7.78845 -0.31941 0
M  V30 556 N 48.7773 0.814389 1.34928 0
M  V30 557 C 50.0073 0.41054 2.0248 0
M  V30 558 C 50.4153 -0.985625 1.61499 0
M  V30 559 O 49.7583 -1.64781 0.811976 0
M  V30 560 C 49.8203 0.423384 3.56998 0
M  V30 561 C 49.4843 1.77141 4.21272 0
M  V30 562 C 50.4813 2.73093 4.42398 0
M  V30 563 C 48.1663 2.05755 4.58225 0
M  V30 564 C 50.1603 3.95838 4.9959 0
M  V30 565 C 47.8473 3.28762 5.1513 0
M  V30 566 C 48.8453 4.23621 5.35755 0
M  V30 567 O 48.5333 5.44456 5.91458 0
M  V30 568 H 48.2653 0.163997 0.655806 0
M  V30 569 H 50.8193 1.10155 1.73364 0
M  V30 570 H 49.0493 -0.324276 3.85338 0
M  V30 571 H 50.7383 0.0407683 4.0588 0
M  V30 572 H 51.5043 2.5228 4.14222 0
M  V30 573 H 47.3833 1.32727 4.4148 0
M  V30 574 H 50.9273 4.69891 5.15605 0
M  V30 575 H 46.8243 3.49443 5.42734 0
M  V30 576 H 47.5923 5.4586 6.09901 0
M  V30 577 N 50.2554 -1.46986 0.568584 0
M  V30 578 C 51.5324 -1.95592 -0.0174074 0
M  V30 579 C 51.9124 -1.51124 -1.47393 0
M  V30 580 O 51.2604 -0.755329 -2.15655 0
M  V30 581 C 51.4704 -3.48719 0.139913 0
M  V30 582 C 52.8184 -4.246 0.000426376 0
M  V30 583 O 53.8424 -3.56135 0.0680316 0
M  V30 584 O 52.7014 -5.46302 -0.146988 0
M  V30 585 H 49.7954 -0.82498 -0.0577599 0
M  V30 586 H 52.3414 -1.57335 0.635909 0
M  V30 587 H 51.1134 -3.73927 1.15301 0
M  V30 588 H 50.7364 -3.93771 -0.550491 0
M  V30 589 N 51.7335 -0.305618 -1.54608 0
M  V30 590 C 52.9795 0.302746 -2.00528 0
M  V30 591 C 53.3125 1.53184 -1.19367 0
M  V30 592 O 52.5875 1.92598 -0.271321 0
M  V30 593 C 52.8705 0.654756 -3.54097 0
M  V30 594 C 52.7235 -0.583793 -4.45995 0
M  V30 595 C 54.0425 1.47947 -4.14487 0
M  V30 596 H 51.1615 0.108564 -0.72896 0
M  V30 597 H 53.8035 -0.418634 -1.85331 0
M  V30 598 H 51.9535 1.26935 -3.67178 0
M  V30 599 H 53.6255 -1.22224 -4.44814 0
M  V30 600 H 51.8685 -1.21615 -4.16404 0
M  V30 601 H 52.5395 -0.293287 -5.5122 0
M  V30 602 H 55.0155 0.96013 -4.04871 0
M  V30 603 H 53.8915 1.69454 -5.22088 0
M  V30 604 H 54.1525 2.47011 -3.66658 0
M  V30 605 N 53.2116 1.57565 -0.0334293 0
M  V30 606 C 54.6226 1.79746 0.504798 0
M  V30 607 C 54.9736 0.944091 1.71992 0
M  V30 608 O 54.0986 0.155694 2.15839 0
M  V30 609 C 54.6936 3.25997 0.922567 0
M  V30 610 C 53.2526 3.49159 1.40588 0
M  V30 611 C 52.3996 2.74785 0.372633 0
M  V30 612 H 55.3506 1.56565 -0.259436 0
M  V30 613 H 55.3716 3.35945 1.78666 0
M  V30 614 H 54.8836 3.88081 0.0379825 0
M  V30 615 H 52.9846 2.92332 2.31025 0
M  V30 616 H 53.0976 4.57873 1.41028 0
M  V30 617 H 51.4616 2.40391 0.841672 0
M  V30 618 H 52.2446 3.39587 -0.503559 0
M  V30 619 N 54.6897 -0.239769 1.55765 0
M  V30 620 C 55.9377 -0.964892 1.77579 0
M  V30 621 C 56.2587 -1.85582 0.598699 0
M  V30 622 O 55.5287 -1.92075 -0.385226 0
M  V30 623 H 54.1087 -0.359265 0.654933 0
M  V30 624 H 56.7707 -0.256001 1.93211 0
M  V30 625 H 55.8667 -1.58243 2.69009 0
M  V30 626 N 56.1678 -1.49265 -0.50573 0
M  V30 627 C 57.1008 -1.60183 -1.62532 0
M  V30 628 C 58.0788 -0.451107 -1.56217 0
M  V30 629 O 59.2628 -0.666016 -1.76342 0
M  V30 630 C 56.3898 -1.55238 -3.01029 0
M  V30 631 C 55.4358 -2.7545 -3.25621 0
M  V30 632 S 56.2688 -4.37174 -3.09256 0
M  V30 633 C 57.4248 -4.34866 -4.50158 0
M  V30 634 H 57.6578 -2.54894 -1.53025 0
M  V30 635 H 55.1908 -1.38098 -0.690535 0
M  V30 636 H 57.1488 -1.53071 -3.80893 0
M  V30 637 H 55.8098 -0.618238 -3.07956 0
M  V30 638 H 55.0028 -2.68197 -4.26716 0
M  V30 639 H 54.6048 -2.75005 -2.53472 0
M  V30 640 H 56.8968 -4.06295 -5.42154 0
M  V30 641 H 57.8398 -5.36223 -4.62462 0
M  V30 642 H 58.2478 -3.65007 -4.30616 0
M  V30 643 N 57.6459 0.756429 -1.3826 0
M  V30 644 C 58.6089 1.85176 -1.35065 0
M  V30 645 C 59.6089 1.58818 -0.251703 0
M  V30 646 O 60.7989 1.66615 -0.508433 0
M  V30 647 C 57.9309 3.22596 -1.10201 0
M  V30 648 H 59.1239 1.89417 -2.3251 0
M  V30 649 H 56.6769 0.95783 -1.23512 0
M  V30 650 H 57.4119 3.24025 -0.133504 0
M  V30 651 H 57.1969 3.43122 -1.89762 0
M  V30 652 H 58.6869 4.02673 -1.10654 0
M  V30 653 N 59.124 1.23083 0.984299 0
M  V30 654 C 60.37 1.06214 1.72761 0
M  V30 655 C 60.703 -0.400584 1.90024 0
M  V30 656 O 59.978 -1.29672 1.44967 0
M  V30 657 C 60.261 1.78375 3.12817 0
M  V30 658 C 60.114 3.32296 3.03149 0
M  V30 659 C 61.433 1.54309 4.12161 0
M  V30 660 H 58.552 0.387251 0.627061 0
M  V30 661 H 61.194 1.51536 1.14616 0
M  V30 662 H 59.344 1.39848 3.62457 0
M  V30 663 H 61.016 3.8032 2.61064 0
M  V30 664 H 59.259 3.6153 2.39747 0
M  V30 665 H 59.93 3.77972 4.02295 0
M  V30 666 H 62.406 1.87791 3.71314 0
M  V30 667 H 61.282 2.07281 5.08258 0
M  V30 668 H 61.543 0.477572 4.39513 0
M  V30 669 N 60.6021 -1.18246 1.0419 0
M  V30 670 C 61.8501 -1.87886 0.744543 0
M  V30 671 C 62.1711 -1.8082 -0.730006 0
M  V30 672 O 61.4411 -1.22736 -1.52685 0
M  V30 673 H 60.0211 -0.695556 0.272417 0
M  V30 674 H 62.6831 -1.43494 1.31892 0
M  V30 675 H 61.7791 -2.9389 1.05049 0
M  V30 676 N 62.0802 -0.821533 -1.34494 0
M  V30 677 C 63.3262 -0.409552 -1.98622 0
M  V30 678 C 63.6592 1.0244 -1.64984 0
M  V30 679 O 62.9342 1.71325 -0.920758 0
M  V30 680 C 63.2172 -0.610458 -3.54888 0
M  V30 681 C 63.0702 -2.09043 -3.98273 0
M  V30 682 C 64.3892 -0.0455379 -4.40076 0
M  V30 683 H 61.5082 -0.15028 -0.721516 0
M  V30 684 H 64.1502 -1.03384 -1.59411 0
M  V30 685 H 62.3002 -0.079044 -3.8842 0
M  V30 686 H 63.9722 -2.68537 -3.75081 0
M  V30 687 H 62.2152 -2.58139 -3.48635 0
M  V30 688 H 62.8862 -2.18182 -5.07051 0
M  V30 689 H 65.3622 -0.499557 -4.1309 0
M  V30 690 H 64.2382 -0.215922 -5.48475 0
M  V30 691 H 64.4992 1.04939 -4.29465 0
M  V30 692 N 63.5583 1.46682 -0.576371 0
M  V30 693 C 64.8073 2.01619 -0.0572825 0
M  V30 694 C 65.1203 1.45417 1.30818 0
M  V30 695 O 66.3263 1.92133 1.91825 0
M  V30 696 C 64.7823 3.59863 -0.0518371 0
M  V30 697 C 64.3903 4.25059 -1.41523 0
M  V30 698 C 66.1343 4.2248 0.413639 0
M  V30 699 C 64.0413 5.75364 -1.36785 0
M  V30 700 H 62.9713 0.753794 -0.0176448 0
M  V30 701 H 65.6223 1.68481 -0.727076 0
M  V30 702 H 64.0043 3.90048 0.683994 0
M  V30 703 H 65.1783 4.06491 -2.17029 0
M  V30 704 H 63.4933 3.7451 -1.8202 0
M  V30 705 H 66.0903 5.3265 0.467779 0
M  V30 706 H 66.4333 3.90976 1.42982 0
M  V30 707 H 66.9663 3.96897 -0.267929 0
M  V30 708 H 63.7053 6.11518 -2.36063 0
M  V30 709 H 63.2253 5.96214 -0.654895 0
M  V30 710 H 64.9043 6.37955 -1.07805 0
M  V30 711 N 65.0364 0.313813 1.54444 0
M  V30 712 C 65.9684 -0.590425 2.21465 0
M  V30 713 C 66.9814 -1.08753 1.21147 0
M  V30 714 O 68.1704 -1.00278 1.4767 0
M  V30 715 C 65.2704 -1.82179 2.85769 0
M  V30 716 C 64.4434 -1.46502 4.12136 0
M  V30 717 C 63.5024 -2.55288 4.60124 0
M  V30 718 O 62.5284 -2.19842 5.25032 0
M  V30 719 N 63.7304 -3.86053 4.33525 0
M  V30 720 H 66.4954 -0.0166033 2.99695 0
M  V30 721 H 64.0564 0.136578 1.61323 0
M  V30 722 H 66.0484 -2.54328 3.14801 0
M  V30 723 H 64.6184 -2.30369 2.11303 0
M  V30 724 H 63.8384 -0.575595 3.89975 0
M  V30 725 H 65.1264 -1.20221 4.94393 0
M  V30 726 H 64.5244 -4.17654 3.81552 0
M  V30 727 H 63.0814 -4.54461 4.67235 0
M  V30 728 N 66.5145 -1.57545 0.0417849 0
M  V30 729 C 67.4625 -2.12148 -0.953723 0
M  V30 730 C 68.4565 -1.05104 -1.32852 0
M  V30 731 O 69.6625 -1.23524 -1.30927 0
M  V30 732 H 66.0375 -0.677957 -0.325389 0
M  V30 733 H 68.0085 -2.94707 -0.467991 0
M  V30 734 C 66.7575 -2.6739 -2.22257 0
M  V30 735 H 66.0805 -3.49413 -1.94295 0
M  V30 736 H 67.5205 -3.09227 -2.90094 0
M  V30 737 C 65.9795 -1.60723 -2.96091 0
M  V30 738 O 66.5095 -1.01449 -3.88679 0
M  V30 739 N 64.7155 -1.32466 -2.58652 0
M  V30 740 H 64.2625 -1.80856 -1.83437 0
M  V30 741 H 64.2205 -0.61325 -3.08361 0
M  V30 742 N 67.9926 0.231505 -1.5589 0
M  V30 743 C 68.9406 1.30649 -1.92441 0
M  V30 744 C 69.9346 1.49037 -0.805254 0
M  V30 745 O 71.1406 1.50329 -0.990007 0
M  V30 746 H 67.5156 0.437812 -0.611412 0
M  V30 747 H 69.4866 0.970973 -2.82161 0
M  V30 748 C 68.2356 2.65179 -2.24889 0
M  V30 749 H 67.5586 2.51835 -3.10514 0
M  V30 750 H 68.9986 3.39234 -2.54355 0
M  V30 751 C 67.4576 3.19439 -1.07054 0
M  V30 752 O 67.9876 4.00371 -0.326499 0
M  V30 753 N 66.1936 2.77675 -0.85703 0
M  V30 754 H 65.7406 2.11969 -1.46379 0
M  V30 755 H 65.6986 3.14321 -0.0703223 0
M  V30 756 N 69.4707 1.49531 0.497807 0
M  V30 757 C 70.4177 1.66436 1.59899 0
M  V30 758 C 71.3877 0.505793 1.58212 0
M  V30 759 O 72.5727 0.733202 1.7615 0
M  V30 760 C 69.7127 1.7399 2.98029 0
M  V30 761 C 68.8257 3.01172 3.09708 0
M  V30 762 C 67.9607 2.99686 4.38591 0
M  V30 763 C 66.9997 4.21434 4.43914 0
M  V30 764 N 66.1367 4.1784 5.64229 0
M  V30 765 H 70.9767 2.60459 1.44793 0
M  V30 766 H 68.5137 1.29137 0.704423 0
M  V30 767 H 70.4717 1.76352 3.78095 0
M  V30 768 H 69.1017 0.834301 3.11832 0
M  V30 769 H 68.1537 3.08408 2.22685 0
M  V30 770 H 69.4657 3.91165 3.09502 0
M  V30 771 H 68.6197 3.00628 5.2698 0
M  V30 772 H 67.3587 2.07477 4.41367 0
M  V30 773 H 66.3637 4.20733 3.53926 0
M  V30 774 H 67.5887 5.14839 4.42851 0
M  V30 775 H 65.5347 3.28469 5.67841 0
M  V30 776 H 65.4517 5.01571 5.65652 0
M  V30 777 H 66.7197 4.22889 6.54817 0
M  V30 778 N 70.9488 -0.749086 1.3866 0
M  V30 779 C 71.8958 -1.86291 1.36251 0
M  V30 780 C 72.8658 -1.64578 0.224347 0
M  V30 781 O 74.0508 -1.86181 0.417279 0
M  V30 782 C 71.1908 -3.23644 1.19786 0
M  V30 783 C 70.3038 -3.57158 2.43027 0
M  V30 784 C 69.4388 -4.83838 2.19258 0
M  V30 785 C 68.4778 -5.10152 3.38247 0
M  V30 786 N 67.6148 -6.28029 3.13884 0
M  V30 787 H 72.4548 -1.87685 2.3147 0
M  V30 788 H 69.9918 -0.917287 1.14997 0
M  V30 789 H 71.9498 -4.0291 1.08254 0
M  V30 790 H 70.5798 -3.21566 0.282031 0
M  V30 791 H 69.6318 -2.72701 2.65214 0
M  V30 792 H 70.9438 -3.7253 3.31697 0
M  V30 793 H 70.0978 -5.71057 2.04888 0
M  V30 794 H 68.8368 -4.70614 1.2796 0
M  V30 795 H 67.8418 -4.21401 3.53131 0
M  V30 796 H 69.0668 -5.25271 4.30427 0
M  V30 797 H 67.0128 -6.1612 2.25238 0
M  V30 798 H 66.9298 -6.43922 3.96106 0
M  V30 799 H 68.1978 -7.18124 3.03179 0
M  V30 800 N 72.4269 -1.23603 -0.977757 0
M  V30 801 C 73.6569 -1.09487 -1.75203 0
M  V30 802 C 74.0649 0.356321 -1.85814 0
M  V30 803 O 73.4079 1.25816 -1.33851 0
M  V30 804 C 73.4699 -1.64905 -3.19447 0
M  V30 805 C 73.1339 -3.13688 -3.32338 0
M  V30 806 C 74.1309 -4.10953 -3.18455 0
M  V30 807 C 71.8159 -3.53449 -3.56902 0
M  V30 808 C 73.8099 -5.45962 -3.28944 0
M  V30 809 C 71.4969 -4.88602 -3.6703 0
M  V30 810 C 72.4949 -5.84668 -3.53062 0
M  V30 811 O 72.1829 -7.17365 -3.62826 0
M  V30 812 H 71.9149 -0.38367 -0.556573 0
M  V30 813 H 74.4689 -1.6398 -1.23693 0
M  V30 814 H 72.6989 -1.04835 -3.72218 0
M  V30 815 H 74.3879 -1.46226 -3.78646 0
M  V30 816 H 75.1539 -3.81577 -2.99372 0
M  V30 817 H 71.0329 -2.79188 -3.66844 0
M  V30 818 H 74.5769 -6.20925 -3.17958 0
M  V30 819 H 70.4739 -5.17653 -3.85623 0
M  V30 820 H 71.2419 -7.2515 -3.79605 0
M  V30 821 N 73.905 1.17692 -1.04816 0
M  V30 822 C 74.815 2.25229 -0.65643 0
M  V30 823 C 75.831 1.71018 0.320761 0
M  V30 824 O 77.007 2.00649 0.173805 0
M  V30 825 C 74.072 3.46684 -0.0332629 0
M  V30 826 C 73.133 4.15997 -1.06042 0
M  V30 827 C 72.366 5.31654 -0.466893 0
M  V30 828 O 72.589 5.65777 0.724758 0
M  V30 829 O 71.523 5.89831 -1.1993 0
M  V30 830 H 75.349 2.61016 -1.55255 0
M  V30 831 H 72.934 1.24919 -0.81949 0
M  V30 832 H 74.816 4.20234 0.313256 0
M  V30 833 H 73.491 3.12703 0.836566 0
M  V30 834 H 72.398 3.44482 -1.45886 0
M  V30 835 H 73.731 4.53996 -1.90127 0
M  V30 836 N 75.3831 0.828654 1.34056 0
M  V30 837 C 76.3161 0.199763 2.27324 0
M  V30 838 C 77.2941 -0.647168 1.49166 0
M  V30 839 O 78.4781 -0.609661 1.78369 0
M  V30 840 C 75.6051 -0.720455 3.30949 0
M  V30 841 C 74.6511 0.0496888 4.26471 0
M  V30 842 S 75.4841 1.40072 5.16856 0
M  V30 843 C 76.6401 0.485527 6.24014 0
M  V30 844 H 76.8731 0.990478 2.80316 0
M  V30 845 H 74.4061 0.624857 1.41191 0
M  V30 846 H 76.3641 -1.24581 3.91139 0
M  V30 847 H 75.0251 -1.48474 2.76793 0
M  V30 848 H 74.2181 -0.650104 4.9979 0
M  V30 849 H 73.8201 0.505779 3.70564 0
M  V30 850 H 76.1121 -0.320672 6.76741 0
M  V30 851 H 77.0551 1.18856 6.98054 0
M  V30 852 H 77.4631 0.0714109 5.64455 0
M  V30 853 N 76.8612 -1.46375 0.584142 0
M  V30 854 C 78.0912 -2.06461 0.0758195 0
M  V30 855 C 78.4992 -1.43322 -1.23512 0
M  V30 856 O 77.8422 -0.533216 -1.75791 0
M  V30 857 C 77.9042 -3.59131 -0.162773 0
M  V30 858 C 77.5682 -4.4447 1.06279 0
M  V30 859 C 78.5652 -4.80918 1.97519 0
M  V30 860 C 76.2502 -4.85584 1.28504 0
M  V30 861 C 78.2442 -5.57309 3.09331 0
M  V30 862 C 75.9312 -5.61734 2.4062 0
M  V30 863 C 76.9292 -5.9751 3.30863 0
M  V30 864 O 76.6172 -6.72121 4.41032 0
M  V30 865 H 76.3492 -0.673745 0.0551725 0
M  V30 866 H 78.9032 -1.88969 0.804984 0
M  V30 867 H 77.1332 -3.74936 -0.946565 0
M  V30 868 H 78.8222 -4.0114 -0.619782 0
M  V30 869 H 79.5882 -4.49732 1.81565 0
M  V30 870 H 75.4672 -4.57187 0.591702 0
M  V30 871 H 79.0112 -5.85152 3.79793 0
M  V30 872 H 74.9082 -5.92334 2.56537 0
M  V30 873 H 75.6762 -6.90547 4.39417 0
M  V30 874 N 78.3393 -0.321999 -1.54275 0
M  V30 875 C 79.5693 0.282642 -2.04658 0
M  V30 876 C 79.9773 1.46453 -1.19784 0
M  V30 877 O 79.3203 1.82367 -0.220932 0
M  V30 878 C 79.3823 0.781857 -3.50895 0
M  V30 879 C 79.0463 -0.277517 -4.56157 0
M  V30 880 C 80.0433 -1.11307 -5.07845 0
M  V30 881 C 77.7283 -0.425256 -5.00497 0
M  V30 882 C 79.7223 -2.08211 -6.02434 0
M  V30 883 C 77.4093 -1.39771 -5.94901 0
M  V30 884 C 78.4073 -2.2246 -6.45756 0
M  V30 885 O 78.0953 -3.18054 -7.38307 0
M  V30 886 H 77.8273 0.0622636 -0.673126 0
M  V30 887 H 80.3813 -0.465792 -2.00049 0
M  V30 888 H 78.6113 1.58118 -3.52896 0
M  V30 889 H 80.3003 1.30467 -3.84361 0
M  V30 890 H 81.0663 -1.00991 -4.74369 0
M  V30 891 H 76.9453 0.20847 -4.60528 0
M  V30 892 H 80.4893 -2.72791 -6.42052 0
M  V30 893 H 76.3863 -1.50152 -6.27794 0
M  V30 894 H 77.1543 -3.13275 -7.56175 0
M  V30 895 N 79.8174 1.5752 -0.0501392 0
M  V30 896 C 81.0654 1.9227 0.622642 0
M  V30 897 C 81.3864 0.929083 1.71444 0
M  V30 898 O 80.6564 -0.0262186 1.95882 0
M  V30 899 H 79.2364 0.709739 0.232981 0
M  V30 900 H 81.8984 1.94628 -0.102898 0
M  V30 901 H 80.9944 2.93479 1.06191 0
M  V30 902 N 81.2955 -0.223234 1.56011 0
M  V30 903 C 82.2255 -1.27988 1.95298 0
M  V30 904 C 83.2065 -1.48976 0.820979 0
M  V30 905 O 84.3915 -1.61188 1.08315 0
M  V30 906 C 81.5215 -2.63 2.26822 0
M  V30 907 C 80.4755 -2.56671 3.42497 0
M  V30 908 C 79.8015 -3.95697 3.59622 0
M  V30 909 C 81.1015 -2.11601 4.77517 0
M  V30 910 H 82.7955 -0.953525 2.8381 0
M  V30 911 H 80.3415 -0.457244 1.36548 0
M  V30 912 H 82.2945 -3.37077 2.52898 0
M  V30 913 H 81.0185 -2.9732 1.35161 0
M  V30 914 H 79.6775 -1.85051 3.16467 0
M  V30 915 H 79.3255 -4.27322 2.6534 0
M  V30 916 H 79.0255 -3.92345 4.37424 0
M  V30 917 H 80.5495 -4.71438 3.88044 0
M  V30 918 H 81.9635 -2.7542 5.02809 0
M  V30 919 H 80.3605 -2.19311 5.5859 0
M  V30 920 H 81.4305 -1.06824 4.72987 0
M  V30 921 N 82.7736 -1.49793 -0.48987 0
M  V30 922 C 83.7056 -1.63413 -1.60713 0
M  V30 923 C 84.7186 -0.516329 -1.54395 0
M  V30 924 O 85.9076 -0.788812 -1.60125 0
M  V30 925 C 83.0076 -1.58516 -2.99543 0
M  V30 926 C 82.1806 -2.86016 -3.30928 0
M  V30 927 C 81.2396 -2.74018 -4.49222 0
M  V30 928 O 80.2656 -3.47964 -4.50455 0
M  V30 929 N 81.4676 -1.86309 -5.4979 0
M  V30 930 H 84.2326 -2.59777 -1.49452 0
M  V30 931 H 81.7936 -1.47022 -0.677955 0
M  V30 932 H 83.7856 -1.48128 -3.76617 0
M  V30 933 H 82.3556 -0.69965 -3.0467 0
M  V30 934 H 81.5756 -3.10672 -2.42645 0
M  V30 935 H 82.8636 -3.70521 -3.487 0
M  V30 936 H 82.2616 -1.2551 -5.51601 0
M  V30 937 H 80.8186 -1.81837 -6.25922 0
M  V30 938 N 84.2517 0.741722 -1.39055 0
M  V30 939 C 85.4767 1.53607 -1.39354 0
M  V30 940 C 85.9017 1.88096 0.0116905 0
M  V30 941 O 85.2597 1.5143 0.996924 0
M  V30 942 C 85.3077 2.80441 -2.26682 0
M  V30 943 O 84.4117 3.76088 -1.69208 0
M  V30 944 H 83.7527 0.464142 -0.474835 0
M  V30 945 H 86.2827 0.915665 -1.82967 0
M  V30 946 H 86.2927 3.29246 -2.40959 0
M  V30 947 H 84.9677 2.5467 -3.2881 0
M  V30 948 H 83.5447 3.34833 -1.64138 0
M  V30 949 N 85.7298 1.2412 0.971189 0
M  V30 950 C 86.9758 1.08041 1.71625 0
M  V30 951 C 87.3088 -0.380407 1.90438 0
M  V30 952 O 86.5838 -1.28127 1.46334 0
M  V30 953 C 86.8668 1.81682 3.10908 0
M  V30 954 C 86.7198 3.35493 2.99608 0
M  V30 955 C 88.0388 1.58671 4.10501 0
M  V30 956 H 85.1578 0.39388 0.622919 0
M  V30 957 H 87.7998 1.52743 1.13003 0
M  V30 958 H 85.9498 1.43684 3.60953 0
M  V30 959 H 87.6218 3.83068 2.57015 0
M  V30 960 H 85.8648 3.64052 2.35899 0
M  V30 961 H 86.5358 3.82217 3.98264 0
M  V30 962 H 89.0118 1.91719 3.69301 0
M  V30 963 H 87.8878 2.1266 5.06031 0
M  V30 964 H 88.1488 0.524161 4.38982 0
M  V30 965 N 87.2079 -1.17134 1.05439 0
M  V30 966 C 88.1399 -2.2078 0.615539 0
M  V30 967 C 89.1529 -1.59584 -0.322001 0
M  V30 968 O 90.3419 -1.78133 -0.114344 0
M  V30 969 C 87.4419 -3.38691 -0.118938 0
M  V30 970 C 86.6149 -4.29454 0.829924 0
M  V30 971 C 85.6739 -5.26024 0.136258 0
M  V30 972 O 84.6999 -5.63952 0.77115 0
M  V30 973 N 85.9019 -5.69487 -1.1254 0
M  V30 974 H 88.6669 -2.59052 1.50705 0
M  V30 975 H 86.2279 -1.32058 0.936603 0
M  V30 976 H 88.2199 -4.00329 -0.593179 0
M  V30 977 H 86.7899 -2.98996 -0.91215 0
M  V30 978 H 86.0099 -3.65211 1.48373 0
M  V30 979 H 87.2979 -4.86984 1.47392 0
M  V30 980 H 86.6959 -5.4075 -1.6615 0
M  V30 981 H 85.2529 -6.33257 -1.54366 0
M  V30 982 N 88.686 -0.835752 -1.33615 0
M  V30 983 C 89.963 -0.352017 -1.92406 0
M  V30 984 C 90.343 1.16225 -1.76224 0
M  V30 985 O 89.691 1.97526 -1.14873 0
M  V30 986 C 89.901 -0.795485 -3.39813 0
M  V30 987 C 91.249 -0.801703 -4.16963 0
M  V30 988 O 92.273 -0.738889 -3.48452 0
M  V30 989 O 91.132 -0.886607 -5.3926 0
M  V30 990 H 88.226 -0.0989641 -0.821057 0
M  V30 991 H 90.772 -0.921397 -1.42507 0
M  V30 992 H 89.544 -1.83795 -3.45449 0
M  V30 993 H 89.167 -0.202505 -3.97084 0
M  V30 994 N 90.1641 1.46063 -0.591896 0
M  V30 995 C 91.1111 2.30399 0.136069 0
M  V30 996 C 92.0811 1.41169 0.875238 0
M  V30 997 O 93.2661 1.70112 0.86409 0
M  V30 998 C 90.4061 3.25804 1.13781 0
M  V30 999 C 89.5191 4.30134 0.401137 0
M  V30 1000 C 88.6541 5.12659 1.39121 0
M  V30 1001 C 87.6931 6.0873 0.641462 0
M  V30 1002 N 86.8301 6.8409 1.58004 0
M  V30 1003 H 91.6701 2.92118 -0.589144 0
M  V30 1004 H 89.2071 1.43959 -0.302342 0
M  V30 1005 H 91.1651 3.79569 1.73156 0
M  V30 1006 H 89.7951 2.65872 1.83062 0
M  V30 1007 H 88.8471 3.79152 -0.307826 0
M  V30 1008 H 90.1591 4.98458 -0.184565 0
M  V30 1009 H 89.3131 5.70747 2.05749 0
M  V30 1010 H 88.0521 4.44316 2.01084 0
M  V30 1011 H 87.0571 5.49786 -0.0385419 0
M  V30 1012 H 88.2821 6.79095 0.0270945 0
M  V30 1013 H 86.2281 6.18449 2.18761 0
M  V30 1014 H 86.1451 7.48709 1.04738 0
M  V30 1015 H 87.4131 7.4673 2.23639 0
M  V30 1016 N 91.6422 0.330177 1.54103 0
M  V30 1017 C 92.5892 -0.532762 2.24567 0
M  V30 1018 C 93.5592 -1.10635 1.23892 0
M  V30 1019 O 94.7442 -1.14546 1.5259 0
M  V30 1020 C 91.8842 -1.6845 3.01195 0
M  V30 1021 C 90.9972 -1.13951 4.167 0
M  V30 1022 C 90.1322 -2.25746 4.80845 0
M  V30 1023 C 89.1712 -1.6853 5.88442 0
M  V30 1024 N 88.3082 -2.74014 6.46421 0
M  V30 1025 H 93.1482 0.0746905 2.97906 0
M  V30 1026 H 90.6852 0.048632 1.4702 0
M  V30 1027 H 92.6432 -2.36234 3.43874 0
M  V30 1028 H 91.2732 -2.26314 2.30178 0
M  V30 1029 H 90.3252 -0.35301 3.78758 0
M  V30 1030 H 91.6372 -0.680892 4.94131 0
M  V30 1031 H 90.7912 -3.01422 5.26526 0
M  V30 1032 H 89.5302 -2.74947 4.0281 0
M  V30 1033 H 88.5352 -0.913543 5.42157 0
M  V30 1034 H 89.7602 -1.20198 6.68378 0
M  V30 1035 H 87.7062 -3.22494 5.71256 0
M  V30 1036 H 87.6232 -2.32735 7.19285 0
M  V30 1037 H 88.8912 -3.49499 6.96757 0
M  V30 1038 N 93.1203 -1.57491 0.0584922 0
M  V30 1039 C 94.0833 -2.1085 -0.898617 0
M  V30 1040 C 95.0833 -1.02964 -1.23511 0
M  V30 1041 O 96.2733 -1.29007 -1.17059 0
M  V30 1042 C 93.4053 -2.59881 -2.20623 0
M  V30 1043 H 94.5983 -2.96715 -0.435936 0
M  V30 1044 H 92.1513 -1.55141 -0.190023 0
M  V30 1045 H 92.8863 -1.77431 -2.71457 0
M  V30 1046 H 92.6713 -3.38727 -1.97501 0
M  V30 1047 H 94.1613 -3.01285 -2.89166 0
M  V30 1048 N 94.5984 0.214957 -1.56127 0
M  V30 1049 C 95.8444 0.939762 -1.79712 0
M  V30 1050 C 96.1774 1.83723 -0.629247 0
M  V30 1051 O 95.4524 1.90925 0.371197 0
M  V30 1052 C 95.7354 1.77306 -3.13424 0
M  V30 1053 C 95.5884 0.90164 -4.40671 0
M  V30 1054 C 96.9074 2.74956 -3.43638 0
M  V30 1055 H 94.0264 0.340214 -0.653776 0
M  V30 1056 H 96.6684 0.20824 -1.88855 0
M  V30 1057 H 94.8184 2.39673 -3.0576 0
M  V30 1058 H 96.4904 0.294206 -4.60361 0
M  V30 1059 H 94.7334 0.207368 -4.33304 0
M  V30 1060 H 95.4044 1.51923 -5.30682 0
M  V30 1061 H 97.8804 2.22724 -3.51473 0
M  V30 1062 H 96.7564 3.30358 -4.38355 0
M  V30 1063 H 97.0174 3.53023 -2.66134 0
M  V30 1064 N 96.0765 1.50051 0.48192 0
M  V30 1065 C 97.0245 1.68635 1.60203 0
M  V30 1066 C 98.0185 0.552184 1.60148 0
M  V30 1067 O 99.2245 0.732377 1.64427 0
M  V30 1068 H 95.5995 0.532081 0.531407 0
M  V30 1069 H 97.5705 2.62616 1.41688 0
M  V30 1070 C 96.3195 1.78775 2.9822 0
M  V30 1071 H 95.6425 2.6543 2.98976 0
M  V30 1072 H 97.0825 1.95806 3.7608 0
M  V30 1073 C 95.5415 0.536849 3.32595 0
M  V30 1074 O 96.0715 -0.328897 4.00351 0
M  V30 1075 N 94.2775 0.394091 2.87915 0
M  V30 1076 H 93.8245 1.09962 2.32951 0
M  V30 1077 H 93.7825 -0.441737 3.11281 0
M  V30 1078 N 97.5546 -0.734337 1.39446 0
M  V30 1079 C 98.7796 -1.52866 1.40167 0
M  V30 1080 C 99.2046 -1.881 -0.00171513 0
M  V30 1081 O 98.5626 -1.51957 -0.988879 0
M  V30 1082 C 98.6106 -2.79235 2.28167 0
M  V30 1083 O 97.7146 -3.75185 1.71201 0
M  V30 1084 H 97.0556 -0.461618 0.477289 0
M  V30 1085 H 99.5856 -0.905949 1.8345 0
M  V30 1086 H 99.5956 -3.27963 2.42702 0
M  V30 1087 H 98.2706 -2.52923 3.30156 0
M  V30 1088 H 96.8476 -3.33958 1.65912 0
M  V30 1089 N 99.0327 -1.24633 -0.964593 0
M  V30 1090 C 100.258 -1.11596 -1.74818 0
M  V30 1091 C 100.683 0.32723 -1.85232 0
M  V30 1092 O 100.041 1.23695 -1.32549 0
M  V30 1093 C 100.089 -1.76397 -3.1451 0
M  V30 1094 O 99.1927 -1.03685 -3.99153 0
M  V30 1095 H 98.5337 -0.390196 -0.537255 0
M  V30 1096 H 101.064 -1.65002 -1.20977 0
M  V30 1097 H 101.074 -1.8228 -3.65018 0
M  V30 1098 H 99.7487 -2.81401 -3.06246 0
M  V30 1099 H 98.3257 -1.05611 -3.57632 0
M  V30 1100 N 100.511 1.16574 -1.06058 0
M  V30 1101 C 101.739 1.90952 -0.796552 0
M  V30 1102 C 102.154 1.77302 0.648808 0
M  V30 1103 O 101.511 1.11605 1.44397 0
M  V30 1104 C 101.562 3.41736 -1.17894 0
M  V30 1105 O 101.283 3.54975 -2.56758 0
M  V30 1106 C 102.784 4.33169 -0.942308 0
M  V30 1107 H 100.004 0.605594 -0.288959 0
M  V30 1108 H 102.548 1.47777 -1.41358 0
M  V30 1109 H 100.703 3.82623 -0.606491 0
M  V30 1110 H 101.117 4.4846 -2.72 0
M  V30 1111 H 102.591 5.37439 -1.25952 0
M  V30 1112 H 103.068 4.3903 0.122078 0
M  V30 1113 H 103.674 3.98007 -1.49902 0
M  V30 1114 N 101.989 0.842826 1.3317 0
M  V30 1115 C 103.238 0.436738 1.96915 0
M  V30 1116 C 103.551 -1.01025 1.67491 0
M  V30 1117 O 104.757 -1.5212 2.24881 0
M  V30 1118 C 103.213 0.730021 3.52418 0
M  V30 1119 C 102.821 2.19195 3.90714 0
M  V30 1120 C 104.565 0.391076 4.22695 0
M  V30 1121 C 102.472 2.42907 5.39212 0
M  V30 1122 H 101.402 0.15958 0.736919 0
M  V30 1123 H 104.053 1.03196 1.51733 0
M  V30 1124 H 102.435 0.0643755 3.95948 0
M  V30 1125 H 103.609 2.8984 3.58231 0
M  V30 1126 H 101.924 2.49425 3.33431 0
M  V30 1127 H 104.521 0.545817 5.31907 0
M  V30 1128 H 104.864 -0.666294 4.10933 0
M  V30 1129 H 105.397 1.01212 3.84709 0
M  V30 1130 H 102.136 3.47224 5.55982 0
M  V30 1131 H 101.656 1.76827 5.73142 0
M  V30 1132 H 103.335 2.2626 6.06148 0
M  V30 1133 N 103.467 -1.45747 0.599634 0
M  V30 1134 C 104.714 -2.02292 0.0917284 0
M  V30 1135 C 105.042 -1.46906 -1.27472 0
M  V30 1136 O 104.297 -0.630652 -1.8526 0
M  V30 1137 C 104.596 -3.57399 -0.00602758 0
M  V30 1138 C 104.262 -4.31902 1.29503 0
M  V30 1139 C 102.924 -4.51974 1.65144 0
M  V30 1140 C 105.276 -4.74551 2.15525 0
M  V30 1141 C 102.604 -5.11949 2.86574 0
M  V30 1142 C 104.956 -5.35868 3.36196 0
M  V30 1143 C 103.62 -5.54165 3.72099 0
M  V30 1144 H 102.89 -0.740239 0.0335658 0
M  V30 1145 H 105.537 -1.7491 0.779661 0
M  V30 1146 H 103.842 -3.84014 -0.777183 0
M  V30 1147 H 105.539 -3.98846 -0.415038 0
M  V30 1148 H 102.129 -4.16588 1.00761 0
M  V30 1149 H 106.313 -4.58784 1.8929 0
M  V30 1150 H 101.569 -5.24305 3.14507 0
M  V30 1151 H 105.743 -5.6787 4.03109 0
M  V30 1152 H 103.37 -6.00406 4.6628 0
M  V30 1153 N 104.945 -0.338344 -1.53925 0
M  V30 1154 C 105.855 0.529421 -2.28548 0
M  V30 1155 C 106.871 1.11645 -1.3346 0
M  V30 1156 O 108.047 1.13325 -1.66492 0
M  V30 1157 C 105.112 1.66713 -3.03987 0
M  V30 1158 C 104.173 1.11041 -4.14691 0
M  V30 1159 C 103.406 2.19389 -4.86522 0
M  V30 1160 O 103.629 3.40013 -4.57982 0
M  V30 1161 O 102.563 1.83976 -5.73094 0
M  V30 1162 H 106.389 -0.0770399 -3.03602 0
M  V30 1163 H 103.974 -0.103555 -1.49041 0
M  V30 1164 H 105.856 2.32918 -3.5118 0
M  V30 1165 H 104.531 2.25949 -2.31794 0
M  V30 1166 H 103.438 0.413024 -3.71813 0
M  V30 1167 H 104.771 0.562975 -4.8897 0
M  V30 1168 N 106.423 1.57458 -0.0668435 0
M  V30 1169 C 107.353 2.15468 0.899764 0
M  V30 1170 C 108.334 1.08042 1.31381 0
M  V30 1171 O 109.519 1.36054 1.38574 0
M  V30 1172 C 106.649 2.71232 2.16911 0
M  V30 1173 C 105.603 3.83781 1.89463 0
M  V30 1174 C 104.929 4.26127 3.22986 0
M  V30 1175 C 106.229 5.08238 1.20381 0
M  V30 1176 H 107.923 2.96488 0.416529 0
M  V30 1177 H 105.469 1.4262 0.198908 0
M  V30 1178 H 107.422 3.10458 2.84945 0
M  V30 1179 H 106.146 1.87426 2.67468 0
M  V30 1180 H 104.805 3.45051 1.23836 0
M  V30 1181 H 104.453 3.39249 3.71374 0
M  V30 1182 H 104.153 5.01993 3.05413 0
M  V30 1183 H 105.677 4.67966 3.92225 0
M  V30 1184 H 107.091 5.44811 1.78475 0
M  V30 1185 H 105.488 5.89349 1.13083 0
M  V30 1186 H 106.558 4.84558 0.182153 0
M  V30 1187 N 107.901 -0.206675 1.56239 0
M  V30 1188 C 109.149 -0.927007 1.79586 0
M  V30 1189 C 109.47 -1.8427 0.637929 0
M  V30 1190 O 108.74 -1.92849 -0.344398 0
M  V30 1191 H 107.32 -0.345292 0.662407 0
M  V30 1192 H 109.982 -0.21496 1.93711 0
M  V30 1193 H 109.078 -1.52501 2.72305 0
M  V30 1194 N 109.379 -1.50304 -0.473955 0
M  V30 1195 C 110.604 -1.65175 -1.25427 0
M  V30 1196 C 111.029 -0.333673 -1.85117 0
M  V30 1197 O 110.387 0.702114 -1.67153 0
M  V30 1198 C 110.435 -2.74295 -2.34082 0
M  V30 1199 O 109.539 -2.35349 -3.38651 0
M  V30 1200 H 108.88 -0.551944 -0.369126 0
M  V30 1201 H 111.41 -1.96662 -0.564364 0
M  V30 1202 H 111.42 -2.97285 -2.79438 0
M  V30 1203 H 110.095 -3.69959 -1.90008 0
M  V30 1204 H 108.672 -2.22794 -2.99027 0
M  V30 1205 N 110.857 0.726932 -1.39834 0
M  V30 1206 C 112.103 1.48884 -1.377 0
M  V30 1207 C 112.436 1.94185 0.0244852 0
M  V30 1208 O 111.711 1.67361 0.990986 0
M  V30 1209 C 111.994 2.72288 -2.3565 0
M  V30 1210 C 111.847 2.32956 -3.84775 0
M  V30 1211 C 113.166 3.74414 -2.31306 0
M  V30 1212 H 110.285 0.540062 -0.5015 0
M  V30 1213 H 112.927 0.830547 -1.70886 0
M  V30 1214 H 111.077 3.28457 -2.07481 0
M  V30 1215 H 112.749 1.82356 -4.23726 0
M  V30 1216 H 110.992 1.65088 -4.01159 0
M  V30 1217 H 111.663 3.21362 -4.4881 0
M  V30 1218 H 114.139 3.27849 -2.56231 0
M  V30 1219 H 113.015 4.58414 -3.01907 0
M  V30 1220 H 113.276 4.21909 -1.32081 0
M  V30 1221 N 112.336 1.25143 0.95797 0
M  V30 1222 C 113.561 1.12521 1.74223 0
M  V30 1223 C 113.986 -0.317402 1.85403 0
M  V30 1224 O 113.344 -1.2299 1.33204 0
M  V30 1225 C 113.392 1.78062 3.1357 0
M  V30 1226 O 112.496 1.058 3.98598 0
M  V30 1227 H 111.837 0.39304 0.535178 0
M  V30 1228 H 114.367 1.65641 1.201 0
M  V30 1229 H 114.377 1.84213 3.64046 0
M  V30 1230 H 113.052 2.83021 3.04749 0
M  V30 1231 H 111.629 1.07506 3.57067 0
M  V30 1232 N 113.814 -1.1601 1.06675 0
M  V30 1233 C 114.761 -2.20525 0.680967 0
M  V30 1234 C 115.731 -1.62904 -0.324283 0
M  V30 1235 O 116.916 -1.89615 -0.212294 0
M  V30 1236 C 114.056 -3.45013 0.0776551 0
M  V30 1237 C 113.169 -4.16863 1.13355 0
M  V30 1238 C 112.304 -5.2888 0.49597 0
M  V30 1239 C 111.343 -5.92537 1.53513 0
M  V30 1240 N 110.48 -6.96038 0.920631 0
M  V30 1241 H 115.32 -2.52876 1.57663 0
M  V30 1242 H 112.857 -1.24199 0.788223 0
M  V30 1243 H 114.815 -4.16193 -0.289704 0
M  V30 1244 H 113.445 -3.132 -0.781393 0
M  V30 1245 H 112.497 -3.44248 1.61857 0
M  V30 1246 H 113.809 -4.60294 1.92174 0
M  V30 1247 H 112.963 -6.06653 0.0758604 0
M  V30 1248 H 111.702 -4.86622 -0.324062 0
M  V30 1249 H 110.707 -5.13482 1.9651 0
M  V30 1250 H 111.932 -6.36873 2.35733 0
M  V30 1251 H 109.878 -6.55888 0.12138 0
M  V30 1252 H 109.795 -7.3786 1.64616 0
M  V30 1253 H 111.063 -7.77725 0.525795 0
M  V30 1254 N 115.292 -0.849877 -1.32721 0
M  V30 1255 C 116.222 -0.306308 -2.31482 0
M  V30 1256 C 117.203 0.591952 -1.59468 0
M  V30 1257 O 118.388 0.513199 -1.87296 0
M  V30 1258 C 115.518 0.510204 -3.43532 0
M  V30 1259 C 114.472 -0.293209 -4.26994 0
M  V30 1260 C 113.798 0.647743 -5.30762 0
M  V30 1261 C 115.098 -1.51634 -4.99804 0
M  V30 1262 H 116.792 -1.13153 -2.77195 0
M  V30 1263 H 114.338 -0.545553 -1.33266 0
M  V30 1264 H 116.291 0.900856 -4.11658 0
M  V30 1265 H 115.015 1.36874 -2.96535 0
M  V30 1266 H 113.674 -0.665555 -3.60508 0
M  V30 1267 H 113.322 1.50299 -4.8002 0
M  V30 1268 H 113.022 0.11422 -5.87489 0
M  V30 1269 H 114.546 1.03567 -6.01753 0
M  V30 1270 H 115.96 -1.19824 -5.60638 0
M  V30 1271 H 114.357 -1.98745 -5.66234 0
M  V30 1272 H 115.427 -2.28018 -4.27943 0
M  V30 1273 N 116.77 1.45427 -0.607355 0
M  V30 1274 C 118.017 2.02241 -0.102455 0
M  V30 1275 C 118.345 1.4758 1.26691 0
M  V30 1276 O 117.6 0.640468 1.84923 0
M  V30 1277 C 117.899 3.57398 -0.0129263 0
M  V30 1278 C 117.565 4.3121 -1.31792 0
M  V30 1279 C 116.227 4.51092 -1.67539 0
M  V30 1280 C 118.579 4.73401 -2.18039 0
M  V30 1281 C 115.907 5.10422 -2.89285 0
M  V30 1282 C 118.259 5.34078 -3.39034 0
M  V30 1283 C 116.923 5.52184 -3.75033 0
M  V30 1284 H 116.193 0.740051 -0.037491 0
M  V30 1285 H 118.84 1.74494 -0.788926 0
M  V30 1286 H 117.145 3.84421 0.756806 0
M  V30 1287 H 118.842 3.99061 0.393881 0
M  V30 1288 H 115.432 4.16047 -1.02968 0
M  V30 1289 H 119.616 4.57774 -1.91721 0
M  V30 1290 H 114.872 5.22629 -3.17283 0
M  V30 1291 H 119.046 5.65724 -4.06115 0
M  V30 1292 H 116.673 5.97925 -4.69457 0
M  V30 1293 N 118.248 0.346503 1.53744 0
M  V30 1294 C 119.476 -0.25041 2.05379 0
M  V30 1295 C 119.891 -1.43979 1.22129 0
M  V30 1296 O 119.248 -1.80677 0.257321 0
M  V30 1297 C 119.299 -0.662575 3.55376 0
M  V30 1298 O 119.02 0.479515 4.35468 0
M  V30 1299 C 120.521 -1.31989 4.23195 0
M  V30 1300 H 117.741 -0.0478198 0.669294 0
M  V30 1301 H 120.285 0.499346 1.9831 0
M  V30 1302 H 118.44 -1.36227 3.62658 0
M  V30 1303 H 118.854 0.15037 5.24284 0
M  V30 1304 H 120.328 -1.55902 5.29527 0
M  V30 1305 H 120.805 -2.27436 3.75725 0
M  V30 1306 H 121.411 -0.662154 4.20114 0
M  V30 1307 N 119.726 -1.57421 0.075193 0
M  V30 1308 C 120.689 -2.11791 -0.876203 0
M  V30 1309 C 121.689 -1.04268 -1.22412 0
M  V30 1310 O 122.879 -1.30242 -1.15684 0
M  V30 1311 C 120.011 -2.62207 -2.17854 0
M  V30 1312 H 121.204 -2.9716 -0.40444 0
M  V30 1313 H 118.757 -1.55333 -0.173557 0
M  V30 1314 H 119.492 -1.803 -2.6956 0
M  V30 1315 H 119.277 -3.40802 -1.93897 0
M  V30 1316 H 120.767 -3.04335 -2.85955 0
M  V30 1317 N 121.204 0.198386 -1.56346 0
M  V30 1318 C 122.432 0.935572 -1.84539 0
M  V30 1319 C 122.847 1.76989 -0.657281 0
M  V30 1320 O 122.204 1.78626 0.374043 0
M  V30 1321 C 122.255 1.8344 -3.11499 0
M  V30 1322 O 121.976 1.03377 -4.25728 0
M  V30 1323 C 123.477 2.68355 -3.52846 0
M  V30 1324 H 120.697 0.273126 -0.612897 0
M  V30 1325 H 123.241 0.20663 -2.03453 0
M  V30 1326 H 121.396 2.51701 -2.94492 0
M  V30 1327 H 121.81 1.64599 -4.98003 0
M  V30 1328 H 123.284 3.27085 -4.44657 0
M  V30 1329 H 123.761 3.41901 -2.75681 0
M  V30 1330 H 124.367 2.05471 -3.72373 0
M  V30 1331 N 122.682 1.50554 0.465978 0
M  V30 1332 C 123.645 1.69233 1.54574 0
M  V30 1333 C 124.645 0.562901 1.50626 0
M  V30 1334 O 125.835 0.830016 1.53155 0
M  V30 1335 C 122.967 1.7223 2.94193 0
M  V30 1336 H 124.16 2.65571 1.39327 0
M  V30 1337 H 121.713 1.40111 0.692711 0
M  V30 1338 H 122.448 0.77603 3.14878 0
M  V30 1339 H 122.233 2.54285 2.98466 0
M  V30 1340 H 123.723 1.88618 3.72576 0
M  V30 1341 N 124.16 -0.719506 1.40217 0
M  V30 1342 C 125.408 -1.47641 1.3801 0
M  V30 1343 C 125.729 -1.94992 -0.018145 0
M  V30 1344 O 124.999 -1.70073 -0.972207 0
M  V30 1345 H 123.579 -0.547744 0.507923 0
M  V30 1346 H 126.241 -0.853187 1.75233 0
M  V30 1347 H 125.337 -2.35112 2.05253 0
M  V30 1348 N 125.638 -1.25649 -0.95132 0
M  V30 1349 C 126.601 -1.06399 -2.03007 0
M  V30 1350 C 127.601 -0.0156794 -1.60792 0
M  V30 1351 O 128.791 -0.25817 -1.72276 0
M  V30 1352 C 125.923 -0.616184 -3.35285 0
M  V30 1353 H 127.116 -2.02164 -2.21517 0
M  V30 1354 H 124.669 -1.08103 -1.12887 0
M  V30 1355 H 125.404 0.343917 -3.22471 0
M  V30 1356 H 125.189 -1.37301 -3.67275 0
M  V30 1357 H 126.679 -0.503032 -4.14559 0
M  V30 1358 N 127.117 1.15442 -1.07289 0
M  V30 1359 C 128.347 1.89821 -0.815576 0
M  V30 1360 C 128.755 1.7823 0.634867 0
M  V30 1361 O 128.098 1.13152 1.44715 0
M  V30 1362 C 128.16 3.40817 -1.14385 0
M  V30 1363 C 127.824 3.76193 -2.59476 0
M  V30 1364 C 128.821 3.77269 -3.57721 0
M  V30 1365 C 126.506 4.0652 -2.95037 0
M  V30 1366 C 128.5 4.08176 -4.89562 0
M  V30 1367 C 126.187 4.37092 -4.27076 0
M  V30 1368 C 127.185 4.37902 -5.24148 0
M  V30 1369 O 126.873 4.67741 -6.53815 0
M  V30 1370 H 126.605 0.608465 -0.294528 0
M  V30 1371 H 129.159 1.472 -1.43252 0
M  V30 1372 H 127.389 3.83835 -0.469865 0
M  V30 1373 H 129.078 3.96485 -0.869179 0
M  V30 1374 H 129.844 3.5394 -3.3159 0
M  V30 1375 H 125.723 4.05049 -2.20128 0
M  V30 1376 H 129.267 4.08723 -5.65324 0
M  V30 1377 H 125.164 4.59889 -4.5296 0
M  V30 1378 H 125.932 4.85509 -6.58957 0
M  V30 1379 N 128.595 0.856903 1.32268 0
M  V30 1380 C 129.558 0.308171 2.27119 0
M  V30 1381 C 130.558 -0.533421 1.51695 0
M  V30 1382 O 131.748 -0.344607 1.70757 0
M  V30 1383 C 128.88 -0.563757 3.36206 0
M  V30 1384 H 130.073 1.14535 2.77167 0
M  V30 1385 H 127.626 0.631421 1.42978 0
M  V30 1386 H 128.361 -1.42266 2.91429 0
M  V30 1387 H 128.146 0.0386749 3.92081 0
M  V30 1388 H 129.636 -0.940386 4.06874 0
M  V30 1389 N 130.073 -1.45103 0.615059 0
M  V30 1390 C 131.02 -2.30586 -0.0993978 0
M  V30 1391 C 131.99 -1.42544 -0.852669 0
M  V30 1392 O 133.175 -1.71465 -0.836917 0
M  V30 1393 C 130.315 -3.27572 -1.08583 0
M  V30 1394 C 129.428 -4.30717 -0.332656 0
M  V30 1395 C 128.563 -5.14807 -1.30947 0
M  V30 1396 C 127.602 -6.09673 -0.544538 0
M  V30 1397 N 126.739 -6.86517 -1.47101 0
M  V30 1398 H 131.579 -2.91144 0.635542 0
M  V30 1399 H 129.116 -1.4346 0.325206 0
M  V30 1400 H 131.074 -3.82276 -1.67095 0
M  V30 1401 H 129.704 -2.68751 -1.78809 0
M  V30 1402 H 128.756 -3.78615 0.368107 0
M  V30 1403 H 130.068 -4.98102 0.263842 0
M  V30 1404 H 129.222 -5.73948 -1.96643 0
M  V30 1405 H 127.961 -4.47458 -1.9399 0
M  V30 1406 H 126.966 -5.49656 0.126003 0
M  V30 1407 H 128.191 -6.79052 0.080947 0
M  V30 1408 H 126.137 -6.21851 -2.08895 0
M  V30 1409 H 126.054 -7.50281 -0.928137 0
M  V30 1410 H 127.322 -7.50194 -2.11731 0
M  V30 1411 N 131.551 -0.354651 -1.53558 0
M  V30 1412 C 132.499 0.512195 -2.26891 0
M  V30 1413 C 133.493 1.09263 -1.29452 0
M  V30 1414 O 134.699 1.03709 -1.47121 0
M  V30 1415 H 131.074 0.183878 -0.729173 0
M  V30 1416 H 133.045 -0.128202 -2.98124 0
M  V30 1417 C 131.794 1.64563 -3.06291 0
M  V30 1418 H 131.117 1.20829 -3.81104 0
M  V30 1419 H 132.557 2.22711 -3.60799 0
M  V30 1420 C 131.016 2.58158 -2.16462 0
M  V30 1421 O 131.546 3.60695 -1.76811 0
M  V30 1422 N 129.752 2.27096 -1.81317 0
M  V30 1423 H 129.299 1.43751 -2.1376 0
M  V30 1424 H 129.257 2.89975 -1.21498 0
M  V30 1425 N 133.029 1.57378 -0.0835403 0
M  V30 1426 C 133.976 2.13384 0.879539 0
M  V30 1427 C 134.946 1.04936 1.28754 0
M  V30 1428 O 136.131 1.32662 1.37133 0
M  V30 1429 C 133.271 2.70932 2.13752 0
M  V30 1430 C 132.384 3.93575 1.7811 0
M  V30 1431 C 131.519 4.39326 2.98607 0
M  V30 1432 C 130.558 5.54587 2.59037 0
M  V30 1433 N 129.695 5.95243 3.72331 0
M  V30 1434 H 134.535 2.9537 0.395076 0
M  V30 1435 H 132.072 1.45953 0.183349 0
M  V30 1436 H 134.03 3.02411 2.87408 0
M  V30 1437 H 132.66 1.91693 2.59718 0
M  V30 1438 H 131.712 3.68483 0.94469 0
M  V30 1439 H 133.024 4.77258 1.45005 0
M  V30 1440 H 132.178 4.72528 3.80529 0
M  V30 1441 H 130.917 3.5452 3.34913 0
M  V30 1442 H 129.922 5.21024 1.75539 0
M  V30 1443 H 131.147 6.41133 2.23887 0
M  V30 1444 H 129.093 5.13385 4.08378 0
M  V30 1445 H 129.01 6.73694 3.43034 0
M  V30 1446 H 130.278 6.33072 4.54797 0
M  V30 1447 N 134.507 -0.190092 1.56449 0
M  V30 1448 C 135.755 -0.907908 1.80559 0
M  V30 1449 C 136.076 -1.83583 0.657438 0
M  V30 1450 O 135.346 -1.93203 -0.323924 0
M  V30 1451 H 133.926 -0.338247 0.666032 0
M  V30 1452 H 136.588 -0.194403 1.93928 0
M  V30 1453 H 135.684 -1.49604 2.73907 0
M  V30 1454 N 135.985 -1.50799 -0.457987 0
M  V30 1455 C 136.932 -1.70617 -1.5543 0
M  V30 1456 C 137.902 -0.547562 -1.56815 0
M  V30 1457 O 139.087 -0.779647 -1.74144 0
M  V30 1458 C 136.227 -1.81831 -2.93311 0
M  V30 1459 C 135.34 -3.09278 -3.01615 0
M  V30 1460 C 134.475 -3.11209 -4.30491 0
M  V30 1461 C 133.514 -4.33055 -4.32585 0
M  V30 1462 N 132.651 -4.32652 -5.52952 0
M  V30 1463 H 137.491 -2.64207 -1.37836 0
M  V30 1464 H 135.028 -1.30959 -0.669937 0
M  V30 1465 H 136.986 -1.86314 -3.73287 0
M  V30 1466 H 135.616 -0.916685 -3.0951 0
M  V30 1467 H 134.668 -3.14203 -2.1443 0
M  V30 1468 H 135.98 -3.99233 -2.99022 0
M  V30 1469 H 135.134 -3.14494 -5.18824 0
M  V30 1470 H 133.873 -2.19106 -4.35711 0
M  V30 1471 H 132.878 -4.29969 -3.42647 0
M  V30 1472 H 134.103 -5.264 -4.29046 0
M  V30 1473 H 132.049 -3.43409 -5.58933 0
M  V30 1474 H 131.966 -5.16392 -5.52155 0
M  V30 1475 H 133.234 -4.40101 -6.43375 0
M  V30 1476 N 137.463 0.71206 -1.40597 0
M  V30 1477 C 138.712 1.46754 -1.38369 0
M  V30 1478 C 139.025 1.95598 0.0097839 0
M  V30 1479 O 140.231 2.71059 0.154677 0
M  V30 1480 C 138.687 2.65289 -2.43207 0
M  V30 1481 C 138.295 2.23301 -3.88382 0
M  V30 1482 C 140.039 3.43008 -2.50091 0
M  V30 1483 C 137.946 3.38696 -4.84808 0
M  V30 1484 H 136.876 0.55118 -0.514506 0
M  V30 1485 H 139.527 0.774616 -1.66349 0
M  V30 1486 H 137.909 3.36769 -2.08332 0
M  V30 1487 H 139.083 1.59218 -4.32419 0
M  V30 1488 H 137.398 1.58618 -3.85006 0
M  V30 1489 H 139.995 4.28881 -3.1932 0
M  V30 1490 H 140.338 3.87065 -1.53253 0
M  V30 1491 H 140.871 2.78574 -2.83974 0
M  V30 1492 H 137.61 2.99668 -5.82992 0
M  V30 1493 H 137.13 4.01683 -4.45433 0
M  V30 1494 H 138.809 4.04712 -5.04794 0
M  V30 1495 N 138.941 1.26152 0.944643 0
M  V30 1496 C 140.166 1.14363 1.7302 0
M  V30 1497 C 140.591 -0.29772 1.85729 0
M  V30 1498 O 139.949 -1.2157 1.34501 0
M  V30 1499 C 139.997 1.81378 3.11664 0
M  V30 1500 O 139.101 1.10022 3.97453 0
M  V30 1501 H 138.442 0.398694 0.53098 0
M  V30 1502 H 140.972 1.66906 1.18337 0
M  V30 1503 H 140.982 1.88064 3.62072 0
M  V30 1504 H 139.657 2.86237 3.0173 0
M  V30 1505 H 138.234 1.11287 3.55907 0
M  V30 1506 N 140.419 -1.14872 1.07899 0
M  V30 1507 C 141.666 -1.85789 0.805532 0
M  V30 1508 C 141.994 -1.82649 -0.668561 0
M  V30 1509 O 141.249 -1.24858 -1.50695 0
M  V30 1510 C 141.548 -3.34223 1.26609 0
M  V30 1511 C 141.214 -3.57555 2.74709 0
M  V30 1512 C 139.876 -3.63631 3.1516 0
M  V30 1513 C 142.228 -3.66803 3.70277 0
M  V30 1514 C 139.556 -3.76473 4.49983 0
M  V30 1515 C 141.908 -3.8117 5.04869 0
M  V30 1516 C 140.572 -3.85494 5.44932 0
M  V30 1517 H 139.842 -0.679849 0.294765 0
M  V30 1518 H 142.489 -1.3572 1.35101 0
M  V30 1519 H 140.794 -3.86536 0.640103 0
M  V30 1520 H 142.491 -3.87511 1.03132 0
M  V30 1521 H 139.081 -3.5347 2.42398 0
M  V30 1522 H 143.265 -3.61404 3.40149 0
M  V30 1523 H 138.521 -3.7808 4.80484 0
M  V30 1524 H 142.695 -3.87268 5.78789 0
M  V30 1525 H 140.322 -3.95197 6.49403 0
M  V30 1526 N 141.898 -0.863906 -1.31812 0
M  V30 1527 C 143.175 -0.39275 -1.91616 0
M  V30 1528 C 143.555 1.12461 -1.7865 0
M  V30 1529 O 142.903 1.95045 -1.19037 0
M  V30 1530 C 143.113 -0.867385 -3.38049 0
M  V30 1531 C 144.461 -0.889966 -4.15168 0
M  V30 1532 O 145.485 -0.812635 -3.46806 0
M  V30 1533 O 144.344 -1.00079 -5.37258 0
M  V30 1534 H 141.438 -0.116358 -0.818773 0
M  V30 1535 H 143.984 -0.951418 -1.40521 0
M  V30 1536 H 142.756 -1.91081 -3.41473 0
M  V30 1537 H 142.379 -0.286687 -3.96565 0
M  V30 1538 N 143.376 1.44774 -0.622745 0
M  V30 1539 C 144.653 1.95522 -0.0551974 0
M  V30 1540 C 145.033 1.5649 1.41683 0
M  V30 1541 O 144.381 0.834848 2.12703 0
M  V30 1542 C 144.591 3.4796 -0.269242 0
M  V30 1543 C 145.939 4.24306 -0.158014 0
M  V30 1544 O 146.963 3.55637 -0.200162 0
M  V30 1545 O 145.822 5.46471 -0.0558693 0
M  V30 1546 H 142.916 0.826556 0.0271015 0
M  V30 1547 H 145.462 1.54866 -0.693864 0
M  V30 1548 H 144.234 3.6939 -1.29099 0
M  V30 1549 H 143.857 3.95543 0.403966 0
M  V30 1550 N 144.854 0.36279 1.53368 0
M  V30 1551 C 146.082 -0.228613 2.05633 0
M  V30 1552 C 146.497 -1.42676 1.23649 0
M  V30 1553 O 145.854 -1.80394 0.27647 0
M  V30 1554 C 145.905 -0.624845 3.56059 0
M  V30 1555 O 145.626 0.525675 4.34935 0
M  V30 1556 C 147.127 -1.27493 4.24571 0
M  V30 1557 H 144.347 -0.0407183 0.669763 0
M  V30 1558 H 146.891 0.520352 1.97769 0
M  V30 1559 H 145.046 -1.32373 3.64083 0
M  V30 1560 H 145.46 0.205969 5.24095 0
M  V30 1561 H 146.934 -1.50277 5.31151 0
M  V30 1562 H 147.411 -2.23439 3.78116 0
M  V30 1563 H 148.017 -0.617558 4.20792 0
M  V30 1564 N 146.332 -1.57332 0.0918853 0
M  V30 1565 C 147.743 -1.81496 -0.437739 0
M  V30 1566 C 148.094 -1.00727 -1.6837 0
M  V30 1567 O 147.219 -0.235694 -2.15113 0
M  V30 1568 C 147.814 -3.29197 -0.800939 0
M  V30 1569 C 146.373 -3.54136 -1.27532 0
M  V30 1570 C 145.52 -2.75979 -0.270392 0
M  V30 1571 H 148.471 -1.55494 0.317366 0
M  V30 1572 H 148.492 -3.42344 -1.66074 0
M  V30 1573 H 148.004 -3.87955 0.106078 0
M  V30 1574 H 146.105 -3.00705 -2.20016 0
M  V30 1575 H 146.218 -4.62792 -1.23938 0
M  V30 1576 H 144.582 -2.43349 -0.751872 0
M  V30 1577 H 145.365 -3.37484 0.629248 0
M  V30 1578 N 147.81 0.181792 -1.56548 0
M  V30 1579 C 149.058 0.89832 -1.81038 0
M  V30 1580 C 149.379 1.83232 -0.667164 0
M  V30 1581 O 148.649 1.93372 0.313673 0
M  V30 1582 H 147.229 0.33471 -0.667816 0
M  V30 1583 H 149.891 0.184116 -1.94028 0
M  V30 1584 H 148.987 1.4815 -2.74696 0
M  V30 1585 N 149.288 1.51039 0.449983 0
M  V30 1586 C 150.235 1.71439 1.54523 0
M  V30 1587 C 151.205 0.555871 1.56522 0
M  V30 1588 O 152.39 0.788871 1.73728 0
M  V30 1589 C 149.53 1.83384 2.92343 0
M  V30 1590 C 148.643 3.10873 2.9997 0
M  V30 1591 C 147.778 3.13488 4.28834 0
M  V30 1592 C 146.817 4.35343 4.30282 0
M  V30 1593 N 145.954 4.35579 5.5065 0
M  V30 1594 H 150.794 2.64934 1.36433 0
M  V30 1595 H 148.331 1.31312 0.662982 0
M  V30 1596 H 150.289 1.88291 3.72293 0
M  V30 1597 H 148.919 0.933086 3.0902 0
M  V30 1598 H 147.971 3.15336 2.12761 0
M  V30 1599 H 149.283 4.00814 2.96901 0
M  V30 1600 H 148.437 3.17241 5.17149 0
M  V30 1601 H 147.176 2.21414 4.34543 0
M  V30 1602 H 146.181 4.3178 3.40362 0
M  V30 1603 H 147.406 5.28668 4.26248 0
M  V30 1604 H 145.352 3.46369 5.57104 0
M  V30 1605 H 145.269 5.19313 5.49409 0
M  V30 1606 H 146.537 4.43507 6.41032 0
M  V30 1607 N 150.766 -0.704594 1.40972 0
M  V30 1608 C 151.996 -1.49138 1.42974 0
M  V30 1609 C 152.404 -1.89175 0.0308406 0
M  V30 1610 O 151.747 -1.56734 -0.958138 0
M  V30 1611 C 151.809 -2.79016 2.26694 0
M  V30 1612 C 151.473 -2.61236 3.74973 0
M  V30 1613 C 152.47 -2.27773 4.67349 0
M  V30 1614 C 150.155 -2.77158 4.18914 0
M  V30 1615 C 152.149 -2.10457 6.01653 0
M  V30 1616 C 149.836 -2.59459 5.53285 0
M  V30 1617 C 150.834 -2.26158 6.4447 0
M  V30 1618 O 150.522 -2.08605 7.76363 0
M  V30 1619 H 150.254 -0.466443 0.489292 0
M  V30 1620 H 152.808 -0.8758 1.85793 0
M  V30 1621 H 151.038 -3.42947 1.78673 0
M  V30 1622 H 152.727 -3.40782 2.20504 0
M  V30 1623 H 153.493 -2.15095 4.34694 0
M  V30 1624 H 149.372 -3.02064 3.48251 0
M  V30 1625 H 152.916 -1.84387 6.72791 0
M  V30 1626 H 148.813 -2.71725 5.85522 0
M  V30 1627 H 149.581 -2.23439 7.87412 0
M  V30 1628 N 152.244 -1.26651 -0.937939 0
M  V30 1629 C 153.49 -1.13562 -1.68746 0
M  V30 1630 C 153.845 0.317241 -1.89767 0
M  V30 1631 O 153.138 1.22939 -1.46957 0
M  V30 1632 C 153.332 -1.84168 -3.06295 0
M  V30 1633 C 153.161 -3.36171 -2.98696 0
M  V30 1634 C 151.931 -4.05468 -3.01535 0
M  V30 1635 C 154.129 -4.32312 -2.78588 0
M  V30 1636 N 152.111 -5.44118 -2.84269 0
M  V30 1637 C 153.482 -5.58159 -2.69924 0
M  V30 1638 C 155.537 -4.22524 -2.63396 0
M  V30 1639 C 154.24 -6.75335 -2.47618 0
M  V30 1640 C 156.266 -5.39411 -2.42466 0
M  V30 1641 C 155.628 -6.64208 -2.34536 0
M  V30 1642 H 151.727 -0.470361 -0.624728 0
M  V30 1643 H 154.311 -1.59982 -1.10968 0
M  V30 1644 H 152.482 -1.40219 -3.62206 0
M  V30 1645 H 154.214 -1.63674 -3.70126 0
M  V30 1646 H 150.969 -3.56854 -3.11372 0
M  V30 1647 H 151.393 -6.1693 -2.78795 0
M  V30 1648 H 156.035 -3.26771 -2.68292 0
M  V30 1649 H 153.753 -7.71182 -2.41463 0
M  V30 1650 H 157.339 -5.33711 -2.31611 0
M  V30 1651 H 156.219 -7.53129 -2.18555 0
M  V30 1652 N 153.722 1.14298 -1.08507 0
M  V30 1653 C 154.669 2.19414 -0.715965 0
M  V30 1654 C 155.639 1.63399 0.298326 0
M  V30 1655 O 156.824 1.89929 0.182101 0
M  V30 1656 C 153.964 3.44845 -0.132534 0
M  V30 1657 C 153.077 4.15007 -1.19973 0
M  V30 1658 C 152.212 5.28024 -0.580048 0
M  V30 1659 C 151.251 5.9002 -1.62921 0
M  V30 1660 N 150.388 6.94485 -1.03125 0
M  V30 1661 H 155.228 2.50336 -1.61666 0
M  V30 1662 H 152.765 1.2293 -0.807882 0
M  V30 1663 H 154.723 4.16601 0.223454 0
M  V30 1664 H 153.353 3.14403 0.731467 0
M  V30 1665 H 152.405 3.41629 -1.67313 0
M  V30 1666 H 153.717 4.57178 -1.99473 0
M  V30 1667 H 152.871 6.06455 -0.172364 0
M  V30 1668 H 151.61 4.87076 0.246603 0
M  V30 1669 H 150.615 5.10291 -2.04654 0
M  V30 1670 H 151.84 6.33042 -2.45835 0
M  V30 1671 H 149.786 6.55612 -0.225711 0
M  V30 1672 H 149.703 7.35148 -1.76334 0
M  V30 1673 H 150.971 7.7679 -0.649458 0
M  V30 1674 N 155.201 0.870884 1.31352 0
M  V30 1675 C 156.111 0.330783 2.32256 0
M  V30 1676 C 157.127 -0.559767 1.6475 0
M  V30 1677 O 158.303 -0.456263 1.96164 0
M  V30 1678 C 155.368 -0.458137 3.4366 0
M  V30 1679 C 154.429 0.460482 4.26823 0
M  V30 1680 C 153.662 -0.290881 5.32907 0
M  V30 1681 O 153.885 -1.51885 5.49806 0
M  V30 1682 O 152.819 0.351732 6.00871 0
M  V30 1683 H 156.645 1.16718 2.80376 0
M  V30 1684 H 154.23 0.634285 1.35267 0
M  V30 1685 H 156.112 -0.905343 4.1156 0
M  V30 1686 H 154.787 -1.27106 2.97701 0
M  V30 1687 H 153.694 0.956207 3.61673 0
M  V30 1688 H 155.027 1.23903 4.7635 0
M  V30 1689 N 156.679 -1.44442 0.630414 0
M  V30 1690 C 157.609 -2.33418 -0.0618083 0
M  V30 1691 C 158.59 -1.48165 -0.835541 0
M  V30 1692 O 159.775 -1.76886 -0.801564 0
M  V30 1693 C 156.905 -3.31222 -1.04449 0
M  V30 1694 C 155.859 -4.26288 -0.382436 0
M  V30 1695 C 155.185 -5.13954 -1.47497 0
M  V30 1696 C 156.485 -5.1744 0.710865 0
M  V30 1697 H 158.179 -2.91548 0.681184 0
M  V30 1698 H 155.725 -1.40191 0.329026 0
M  V30 1699 H 157.678 -3.92351 -1.53748 0
M  V30 1700 H 156.402 -2.71299 -1.81836 0
M  V30 1701 H 155.061 -3.6649 0.0899054 0
M  V30 1702 H 154.709 -4.50385 -2.2397 0
M  V30 1703 H 154.409 -5.7837 -1.03737 0
M  V30 1704 H 155.933 -5.77955 -1.96979 0
M  V30 1705 H 157.347 -5.72509 0.300996 0
M  V30 1706 H 155.744 -5.90455 1.07156 0
M  V30 1707 H 156.814 -4.58496 1.57829 0
M  V30 1708 N 158.157 -0.370918 -1.53173 0
M  V30 1709 C 159.104 0.473035 -2.259 0
M  V30 1710 C 160.074 1.07311 -1.26781 0
M  V30 1711 O 161.259 1.1046 -1.55574 0
M  V30 1712 C 158.399 1.60405 -3.05556 0
M  V30 1713 C 157.512 1.02863 -4.19575 0
M  V30 1714 C 156.647 2.12918 -4.86661 0
M  V30 1715 C 155.686 1.52869 -5.92704 0
M  V30 1716 N 154.823 2.56779 -6.53459 0
M  V30 1717 H 159.663 -0.153649 -2.97604 0
M  V30 1718 H 157.2 -0.0875946 -1.46839 0
M  V30 1719 H 159.158 2.27034 -3.50016 0
M  V30 1720 H 157.788 2.20131 -2.36097 0
M  V30 1721 H 156.84 0.252465 -3.79561 0
M  V30 1722 H 158.152 0.549642 -4.95762 0
M  V30 1723 H 157.306 2.87356 -5.34333 0
M  V30 1724 H 156.045 2.6417 -4.09958 0
M  V30 1725 H 155.05 0.769479 -5.44389 0
M  V30 1726 H 156.275 1.02435 -6.7133 0
M  V30 1727 H 154.221 3.07235 -5.79606 0
M  V30 1728 H 154.138 2.13583 -7.25202 0
M  V30 1729 H 155.406 3.30903 -7.05779 0
M  V30 1730 N 159.635 1.57281 -0.100228 0
M  V30 1731 C 160.583 2.15542 0.874328 0
M  V30 1732 C 161.577 1.09962 1.28859 0
M  V30 1733 O 162.783 1.28298 1.26252 0
M  V30 1734 H 159.158 0.689567 0.300003 0
M  V30 1735 H 161.129 2.96241 0.35829 0
M  V30 1736 C 159.878 2.75454 2.1218 0
M  V30 1737 H 159.201 3.56384 1.81193 0
M  V30 1738 H 160.641 3.19781 2.78417 0
M  V30 1739 C 159.1 1.71602 2.89921 0
M  V30 1740 O 159.63 1.15804 3.84646 0
M  V30 1741 N 157.836 1.41975 2.53558 0
M  V30 1742 H 157.383 1.87539 1.76598 0
M  V30 1743 H 157.341 0.727274 3.05873 0
M  V30 1744 N 161.113 -0.173488 1.56642 0
M  V30 1745 C 162.341 -0.906095 1.86004 0
M  V30 1746 C 162.756 -1.75921 0.685355 0
M  V30 1747 O 162.113 -1.79198 -0.345578 0
M  V30 1748 C 162.164 -1.78462 3.14378 0
M  V30 1749 O 161.885 -0.965914 4.27319 0
M  V30 1750 C 163.386 -2.62707 3.57071 0
M  V30 1751 H 160.606 -0.263341 0.617165 0
M  V30 1752 H 163.15 -0.174236 2.03756 0
M  V30 1753 H 161.305 -2.46984 2.98459 0
M  V30 1754 H 161.719 -1.56655 5.00559 0
M  V30 1755 H 163.193 -3.19969 4.49804 0
M  V30 1756 H 163.67 -3.37472 2.81086 0
M  V30 1757 H 164.276 -1.99521 3.75595 0
M  V30 1758 N 162.591 -1.51276 -0.441967 0
M  V30 1759 C 164.002 -1.56244 -1.02199 0
M  V30 1760 C 164.353 -0.383149 -1.92422 0
M  V30 1761 O 163.478 0.500613 -2.1053 0
M  V30 1762 C 164.073 -2.83162 -1.86024 0
M  V30 1763 C 162.632 -2.90716 -2.39084 0
M  V30 1764 C 161.779 -2.50858 -1.18175 0
M  V30 1765 H 164.73 -1.5712 -0.223416 0
M  V30 1766 H 164.751 -2.66663 -2.71425 0
M  V30 1767 H 164.263 -3.68974 -1.20331 0
M  V30 1768 H 162.364 -2.09323 -3.08244 0
M  V30 1769 H 162.477 -3.94266 -2.72198 0
M  V30 1770 H 160.841 -2.03951 -1.52565 0
M  V30 1771 H 161.624 -3.3901 -0.541001 0
M  V30 1772 N 164.069 0.697108 -1.41344 0
M  V30 1773 C 165.318 1.45279 -1.39918 0
M  V30 1774 C 165.631 1.95597 -0.0109624 0
M  V30 1775 O 166.837 2.71208 0.125919 0
M  V30 1776 C 165.293 2.62695 -2.46007 0
M  V30 1777 C 164.901 2.19169 -3.90729 0
M  V30 1778 C 166.645 3.40336 -2.53715 0
M  V30 1779 C 164.552 3.33535 -4.88373 0
M  V30 1780 H 163.482 0.545692 -0.520323 0
M  V30 1781 H 166.133 0.756929 -1.67161 0
M  V30 1782 H 164.515 3.34541 -2.11892 0
M  V30 1783 H 165.689 1.54623 -4.34083 0
M  V30 1784 H 164.004 1.54525 -3.86666 0
M  V30 1785 H 166.601 4.2547 -3.2385 0
M  V30 1786 H 166.944 3.85418 -1.5735 0
M  V30 1787 H 167.477 2.75546 -2.86913 0
M  V30 1788 H 164.216 2.93468 -5.86137 0
M  V30 1789 H 163.736 3.96936 -4.49668 0
M  V30 1790 H 165.415 3.99335 -5.09059 0
M  V30 1791 N 165.547 1.27147 0.931209 0
M  V30 1792 C 166.824 1.0401 1.65654 0
M  V30 1793 C 167.204 -0.426297 2.06751 0
M  V30 1794 O 166.552 -1.40879 1.79904 0
M  V30 1795 C 166.762 1.99834 2.86125 0
M  V30 1796 C 168.11 2.29007 3.57549 0
M  V30 1797 O 169.134 1.97779 2.96246 0
M  V30 1798 O 167.993 2.82222 4.67989 0
M  V30 1799 H 165.087 0.396239 0.725895 0
M  V30 1800 H 167.633 1.38397 0.982056 0
M  V30 1801 H 166.405 2.98744 2.52721 0
M  V30 1802 H 166.028 1.65987 3.61295 0
M  V30 1803 N 167.025 -1.13721 1.09112 0
M  V30 1804 C 167.957 -2.1871 0.685467 0
M  V30 1805 C 168.97 -1.60527 -0.271068 0
M  V30 1806 O 170.159 -1.78407 -0.0576148 0
M  V30 1807 C 167.259 -3.38898 -0.0111255 0
M  V30 1808 C 166.432 -4.26597 0.966131 0
M  V30 1809 C 165.491 -5.25324 0.303539 0
M  V30 1810 O 164.517 -5.61213 0.950177 0
M  V30 1811 N 165.719 -5.72779 -0.943651 0
M  V30 1812 H 168.484 -2.54126 1.58871 0
M  V30 1813 H 166.045 -1.29012 0.978143 0
M  V30 1814 H 168.037 -4.02014 -0.465517 0
M  V30 1815 H 166.607 -3.01747 -0.816565 0
M  V30 1816 H 165.827 -3.60306 1.59917 0
M  V30 1817 H 167.115 -4.82048 1.6281 0
M  V30 1818 H 166.513 -5.45762 -1.48862 0
M  V30 1819 H 165.07 -6.37847 -1.34142 0
M  V30 1820 N 168.503 -0.877838 -1.30888 0
M  V30 1821 C 169.749 -0.493426 -1.96706 0
M  V30 1822 C 170.082 0.953504 -1.6918 0
M  V30 1823 O 169.357 1.67266 -0.992594 0
M  V30 1824 C 169.64 -0.760429 -3.51979 0
M  V30 1825 C 169.493 -2.25747 -3.89048 0
M  V30 1826 C 170.812 -0.232148 -4.39487 0
M  V30 1827 H 167.931 -0.180746 -0.714493 0
M  V30 1828 H 170.573 -1.10052 -1.54882 0
M  V30 1829 H 168.723 -0.243715 -3.87735 0
M  V30 1830 H 170.395 -2.84204 -3.63354 0
M  V30 1831 H 168.638 -2.72694 -3.37373 0
M  V30 1832 H 169.309 -2.39491 -4.97341 0
M  V30 1833 H 171.785 -0.674314 -4.106 0
M  V30 1834 H 170.661 -0.448355 -5.47066 0
M  V30 1835 H 170.922 0.866297 -4.33529 0
M  V30 1836 N 169.982 1.44106 -0.638065 0
M  V30 1837 C 170.93 2.3248 0.0748149 0
M  V30 1838 C 171.924 1.47746 0.828702 0
M  V30 1839 O 173.13 1.64049 0.740816 0
M  V30 1840 H 169.505 0.750771 0.0429686 0
M  V30 1841 H 171.476 2.90348 -0.688504 0
M  V30 1842 C 170.225 3.31843 1.03805 0
M  V30 1843 H 169.548 3.97059 0.467375 0
M  V30 1844 H 170.988 3.96345 1.50622 0
M  V30 1845 C 169.447 2.61291 2.1267 0
M  V30 1846 O 169.977 2.41702 3.20847 0
M  V30 1847 N 168.183 2.20915 1.88798 0
M  V30 1848 H 167.73 2.37047 1.00829 0
M  V30 1849 H 167.688 1.74038 2.61836 0
M  V30 1850 N 171.46 0.379036 1.52974 0
M  V30 1851 C 172.39 -0.452706 2.29069 0
M  V30 1852 C 173.371 -1.07237 1.32039 0
M  V30 1853 O 174.556 -1.08708 1.60923 0
M  V30 1854 C 171.686 -1.5856 3.08992 0
M  V30 1855 C 170.64 -1.0925 4.13822 0
M  V30 1856 C 169.966 -2.31668 4.81907 0
M  V30 1857 C 171.266 -0.167702 5.22031 0
M  V30 1858 H 172.96 0.182181 2.98845 0
M  V30 1859 H 170.506 0.0890592 1.43724 0
M  V30 1860 H 172.459 -2.1742 3.6098 0
M  V30 1861 H 171.183 -2.24792 2.36931 0
M  V30 1862 H 169.842 -0.526494 3.628 0
M  V30 1863 H 169.49 -2.96386 4.06404 0
M  V30 1864 H 169.19 -1.9934 5.52754 0
M  V30 1865 H 170.714 -2.91189 5.36695 0
M  V30 1866 H 172.128 -0.664186 5.6944 0
M  V30 1867 H 170.525 0.0653265 6.00064 0
M  V30 1868 H 171.595 0.786347 4.78482 0
M  V30 1869 N 172.938 -1.57226 0.108567 0
M  V30 1870 C 173.868 -2.17778 -0.84232 0
M  V30 1871 C 174.849 -1.11487 -1.2847 0
M  V30 1872 O 176.034 -1.39681 -1.34918 0
M  V30 1873 C 173.164 -2.76888 -2.09644 0
M  V30 1874 C 172.118 -3.88669 -1.79221 0
M  V30 1875 C 171.444 -4.34541 -3.11574 0
M  V30 1876 C 172.744 -5.11251 -1.06864 0
M  V30 1877 H 174.438 -2.97489 -0.337774 0
M  V30 1878 H 171.984 -1.43097 -0.161025 0
M  V30 1879 H 173.937 -3.17904 -2.76614 0
M  V30 1880 H 172.661 -1.94451 -2.62405 0
M  V30 1881 H 171.32 -3.48213 -1.14644 0
M  V30 1882 H 170.968 -3.48977 -3.62249 0
M  V30 1883 H 170.668 -5.09914 -2.91996 0
M  V30 1884 H 172.192 -4.782 -3.7968 0
M  V30 1885 H 173.606 -5.49352 -1.63968 0
M  V30 1886 H 172.003 -5.9214 -0.974178 0
M  V30 1887 H 173.073 -4.8487 -0.0536168 0
M  V30 1888 N 174.416 0.165178 -1.56732 0
M  V30 1889 C 175.348 1.22911 -1.93457 0
M  V30 1890 C 176.361 1.40152 -0.828333 0
M  V30 1891 O 177.55 1.40046 -1.10677 0
M  V30 1892 C 174.65 2.59686 -2.17753 0
M  V30 1893 C 173.823 2.63663 -3.48999 0
M  V30 1894 C 172.882 3.81845 -3.62051 0
M  V30 1895 O 171.908 3.67559 -4.34613 0
M  V30 1896 N 173.11 4.98557 -2.97357 0
M  V30 1897 H 175.875 0.917118 -2.85323 0
M  V30 1898 H 173.436 0.354895 -1.57962 0
M  V30 1899 H 175.428 3.37225 -2.23743 0
M  V30 1900 H 173.998 2.83251 -1.32242 0
M  V30 1901 H 173.218 1.72173 -3.54612 0
M  V30 1902 H 174.506 2.63336 -4.35352 0
M  V30 1903 H 173.904 5.13065 -2.38287 0
M  V30 1904 H 172.461 5.73936 -3.08934 0
M  V30 1905 N 175.894 1.51508 0.433938 0
M  V30 1906 C 176.824 1.76016 1.53429 0
M  V30 1907 C 177.805 0.610112 1.58782 0
M  V30 1908 O 178.99 0.853177 1.74455 0
M  V30 1909 C 176.12 1.88831 2.9148 0
M  V30 1910 C 175.074 3.04288 3.00987 0
M  V30 1911 C 174.4 3.0229 4.4105 0
M  V30 1912 C 175.7 4.44193 2.74754 0
M  V30 1913 H 177.394 2.68152 1.33171 0
M  V30 1914 H 174.94 1.29035 0.639214 0
M  V30 1915 H 176.893 2.04559 3.6842 0
M  V30 1916 H 175.617 0.933455 3.12976 0
M  V30 1917 H 174.276 2.8827 2.26486 0
M  V30 1918 H 173.924 2.04576 4.59519 0
M  V30 1919 H 173.624 3.79822 4.4834 0
M  V30 1920 H 175.148 3.20116 5.1996 0
M  V30 1921 H 176.562 4.60544 3.41426 0
M  V30 1922 H 174.959 5.23457 2.9345 0
M  V30 1923 H 176.029 4.53996 1.70339 0
M  V30 1924 N 177.372 -0.689602 1.41712 0
M  V30 1925 C 178.335 -1.78521 1.43746 0
M  V30 1926 C 179.335 -1.57436 0.327191 0
M  V30 1927 O 180.525 -1.64 0.587348 0
M  V30 1928 C 177.657 -3.16971 1.25467 0
M  V30 1929 H 178.85 -1.78108 2.41283 0
M  V30 1930 H 176.403 -0.89781 1.27942 0
M  V30 1931 H 177.138 -3.23019 0.287948 0
M  V30 1932 H 176.923 -3.33678 2.05917 0
M  V30 1933 H 178.413 -3.96935 1.2974 0
M  V30 1934 N 178.85 -1.27639 -0.924453 0
M  V30 1935 C 180.078 -1.16989 -1.70649 0
M  V30 1936 C 180.493 0.272869 -1.86818 0
M  V30 1937 O 179.85 1.18549 -1.38753 0
M  V30 1938 C 179.901 -1.85229 -3.10439 0
M  V30 1939 O 179.622 -3.23868 -2.95028 0
M  V30 1940 C 181.123 -1.80746 -4.04779 0
M  V30 1941 H 178.343 -0.406595 -0.53378 0
M  V30 1942 H 180.887 -1.68569 -1.15778 0
M  V30 1943 H 179.042 -1.37545 -3.6216 0
M  V30 1944 H 179.456 -3.57889 -3.83426 0
M  V30 1945 H 180.93 -2.33101 -5.00368 0
M  V30 1946 H 181.407 -0.777499 -4.32263 0
M  V30 1947 H 182.013 -2.28059 -3.58984 0
M  V30 1948 N 180.328 1.1314 -1.09713 0
M  V30 1949 C 181.558 1.88048 -0.855656 0
M  V30 1950 C 181.966 1.79537 0.596919 0
M  V30 1951 O 181.309 1.16196 1.42282 0
M  V30 1952 C 181.371 3.38314 -1.21589 0
M  V30 1953 C 181.035 3.70605 -2.67397 0
M  V30 1954 C 182.032 3.69596 -3.65643 0
M  V30 1955 C 179.717 4.0017 -3.03593 0
M  V30 1956 C 181.711 3.977 -4.9811 0
M  V30 1957 C 179.398 4.27935 -4.36251 0
M  V30 1958 C 180.396 4.26685 -5.33318 0
M  V30 1959 O 180.084 4.53767 -6.63589 0
M  V30 1960 H 179.816 0.60208 -0.307368 0
M  V30 1961 H 182.37 1.44128 -1.46343 0
M  V30 1962 H 180.6 3.82752 -0.551177 0
M  V30 1963 H 182.289 3.94552 -0.953083 0
M  V30 1964 H 183.055 3.46826 -3.39023 0
M  V30 1965 H 178.934 4.00289 -2.2867 0
M  V30 1966 H 182.478 3.9664 -5.73866 0
M  V30 1967 H 178.375 4.50178 -4.62613 0
M  V30 1968 H 179.143 4.71422 -6.69107 0
M  V30 1969 N 181.806 0.884767 1.30421 0
M  V30 1970 C 183.034 0.518044 2.0031 0
M  V30 1971 C 183.449 -0.893408 1.66324 0
M  V30 1972 O 182.806 -1.5875 0.900262 0
M  V30 1973 C 182.857 0.682997 3.54989 0
M  V30 1974 O 182.578 2.03888 3.87764 0
M  V30 1975 C 184.079 0.31924 4.42149 0
M  V30 1976 H 181.299 0.200265 0.640418 0
M  V30 1977 H 183.843 1.19001 1.6631 0
M  V30 1978 H 181.998 0.0584052 3.87356 0
M  V30 1979 H 182.412 2.05735 4.82466 0
M  V30 1980 H 183.886 0.485555 5.4986 0
M  V30 1981 H 184.363 -0.742717 4.32875 0
M  V30 1982 H 184.969 0.920147 4.15227 0
M  V30 1983 N 183.284 -1.43765 0.645699 0
M  V30 1984 C 184.509 -2.06767 0.161883 0
M  V30 1985 C 184.934 -1.48034 -1.16049 0
M  V30 1986 O 184.292 -0.587369 -1.71522 0
M  V30 1987 C 184.34 -3.60519 0.0762003 0
M  V30 1988 O 183.444 -4.00982 -0.963721 0
M  V30 1989 H 182.785 -0.657675 0.091429 0
M  V30 1990 H 185.315 -1.84397 0.886499 0
M  V30 1991 H 185.325 -4.07853 -0.109604 0
M  V30 1992 H 184 -4.02646 1.04157 0
M  V30 1993 H 182.577 -3.65253 -0.751312 0
M  V30 1994 N 184.763 -0.387143 -1.52771 0
M  V30 1995 C 186.011 0.195349 -2.01154 0
M  V30 1996 C 186.332 1.475 -1.27549 0
M  V30 1997 O 185.602 1.91878 -0.394924 0
M  V30 1998 H 184.182 0.075178 -0.743207 0
M  V30 1999 H 186.844 -0.518337 -1.87881 0
M  V30 2000 H 185.94 0.407096 -3.09434 0
M  V30 2001 N 186.241 1.57166 -0.116904 0
M  V30 2002 C 187.189 2.16457 0.851418 0
M  V30 2003 C 188.183 1.11323 1.27686 0
M  V30 2004 O 189.389 1.2963 1.24884 0
M  V30 2005 H 185.764 0.69271 0.292672 0
M  V30 2006 H 187.735 2.96605 0.32685 0
M  V30 2007 C 186.484 2.77689 2.09246 0
M  V30 2008 H 185.807 3.58285 1.77402 0
M  V30 2009 H 187.247 3.22716 2.7501 0
M  V30 2010 C 185.706 1.74667 2.88085 0
M  V30 2011 O 186.236 1.19877 3.83396 0
M  V30 2012 N 184.442 1.44656 2.52038 0
M  V30 2013 H 183.989 1.89402 1.74599 0
M  V30 2014 H 183.947 0.759675 3.05084 0
M  V30 2015 N 187.719 -0.156864 1.56817 0
M  V30 2016 C 188.649 -1.19589 2.00551 0
M  V30 2017 C 189.63 -1.4536 0.883426 0
M  V30 2018 O 190.815 -1.56449 1.15054 0
M  V30 2019 C 187.945 -2.53143 2.37773 0
M  V30 2020 C 186.899 -2.41913 3.53075 0
M  V30 2021 C 186.225 -3.80088 3.76081 0
M  V30 2022 C 187.525 -1.91157 4.86062 0
M  V30 2023 H 189.219 -0.832293 2.87599 0
M  V30 2024 H 186.765 -0.398918 1.38364 0
M  V30 2025 H 188.718 -3.26047 2.66967 0
M  V30 2026 H 187.442 -2.91319 1.4765 0
M  V30 2027 H 186.101 -1.71462 3.24031 0
M  V30 2028 H 185.749 -4.15683 2.83225 0
M  V30 2029 H 185.449 -3.73439 4.53671 0
M  V30 2030 H 186.973 -4.54556 4.0769 0
M  V30 2031 H 188.387 -2.53846 5.14038 0
M  V30 2032 H 186.784 -1.95422 5.67389 0
M  V30 2033 H 187.854 -0.866673 4.77092 0
M  V30 2034 N 189.197 -1.51736 -0.425897 0
M  V30 2035 C 190.16 -1.73271 -1.50032 0
M  V30 2036 C 191.16 -0.602639 -1.4908 0
M  V30 2037 O 192.35 -0.87033 -1.509 0
M  V30 2038 C 189.482 -1.79969 -2.89523 0
M  V30 2039 H 190.675 -2.69172 -1.32237 0
M  V30 2040 H 188.228 -1.41899 -0.65532 0
M  V30 2041 H 188.963 -0.859241 -3.1271 0
M  V30 2042 H 188.748 -2.62109 -2.91619 0
M  V30 2043 H 190.238 -1.9843 -3.67444 0
M  V30 2044 N 190.675 0.682077 -1.42076 0
M  V30 2045 C 191.605 1.80796 -1.47767 0
M  V30 2046 C 192.586 1.6677 -0.334954 0
M  V30 2047 O 193.771 1.863 -0.548264 0
M  V30 2048 C 190.901 3.19038 -1.37229 0
M  V30 2049 C 189.855 3.47789 -2.49453 0
M  V30 2050 C 189.181 4.8553 -2.23975 0
M  V30 2051 C 190.481 3.45411 -3.91776 0
M  V30 2052 H 192.175 1.7629 -2.41997 0
M  V30 2053 H 189.721 0.846721 -1.16476 0
M  V30 2054 H 191.674 3.97528 -1.39821 0
M  V30 2055 H 190.398 3.24204 -0.394907 0
M  V30 2056 H 189.057 2.71657 -2.46166 0
M  V30 2057 H 188.705 4.87337 -1.24547 0
M  V30 2058 H 188.405 5.0573 -2.99184 0
M  V30 2059 H 189.929 5.66312 -2.28304 0
M  V30 2060 H 191.343 4.13882 -3.96705 0
M  V30 2061 H 189.74 3.77145 -4.66778 0
M  V30 2062 H 190.81 2.44122 -4.18966 0
M  V30 2063 N 192.153 1.28127 0.917671 0
M  V30 2064 C 193.085 1.07517 2.02417 0
M  V30 2065 C 194.098 0.0281099 1.62776 0
M  V30 2066 O 195.287 0.270748 1.76435 0
M  V30 2067 C 192.387 0.610957 3.33347 0
M  V30 2068 C 191.56 1.73255 4.01624 0
M  V30 2069 C 190.619 1.26238 5.10833 0
M  V30 2070 O 189.645 1.96389 5.34247 0
M  V30 2071 N 190.847 0.123448 5.80369 0
M  V30 2072 H 193.612 2.02806 2.20658 0
M  V30 2073 H 191.173 1.19827 1.08871 0
M  V30 2074 H 193.165 0.280101 4.0373 0
M  V30 2075 H 191.735 -0.24898 3.11607 0
M  V30 2076 H 190.955 2.23319 3.24842 0
M  V30 2077 H 192.243 2.48503 4.43986 0
M  V30 2078 H 191.641 -0.461847 5.63812 0
M  V30 2079 H 190.198 -0.148158 6.51632 0
M  V30 2080 N 193.631 -1.12557 1.10312 0
M  V30 2081 C 194.878 -1.84038 0.844759 0
M  V30 2082 C 195.206 -1.84026 -0.629668 0
M  V30 2083 O 194.461 -1.28026 -1.48013 0
M  V30 2084 C 194.76 -3.31462 1.33669 0
M  V30 2085 C 194.426 -3.51647 2.82232 0
M  V30 2086 C 193.088 -3.56864 3.22802 0
M  V30 2087 C 195.44 -3.58867 3.77974 0
M  V30 2088 C 192.768 -3.66844 4.57867 0
M  V30 2089 C 195.12 -3.70375 5.1284 0
M  V30 2090 C 193.784 -3.73848 5.52986 0
M  V30 2091 H 193.054 -0.673444 0.309119 0
M  V30 2092 H 195.701 -1.32824 1.37949 0
M  V30 2093 H 194.006 -3.85091 0.721949 0
M  V30 2094 H 195.703 -3.85236 1.11329 0
M  V30 2095 H 192.293 -3.48249 2.49842 0
M  V30 2096 H 196.477 -3.54107 3.47738 0
M  V30 2097 H 191.733 -3.67804 4.88396 0
M  V30 2098 H 195.907 -3.74904 5.86873 0
M  V30 2099 H 193.534 -3.81333 6.57639 0
M  V30 2100 N 195.109 -0.891671 -1.2995 0
M  V30 2101 C 196.52 -0.563104 -1.78006 0
M  V30 2102 C 196.871 0.920978 -1.73241 0
M  V30 2103 O 195.996 1.71987 -1.31337 0
M  V30 2104 C 196.591 -1.01539 -3.23226 0
M  V30 2105 C 195.15 -0.738124 -3.69092 0
M  V30 2106 C 194.297 -1.19461 -2.50249 0
M  V30 2107 H 197.248 -1.07522 -1.16725 0
M  V30 2108 H 197.269 -0.347217 -3.78912 0
M  V30 2109 H 196.781 -2.09555 -3.26662 0
M  V30 2110 H 194.882 0.329766 -3.71138 0
M  V30 2111 H 194.995 -1.33037 -4.60259 0
M  V30 2112 H 193.359 -0.613787 -2.47194 0
M  V30 2113 H 194.142 -2.28265 -2.56417 0
M  V30 2114 N 196.587 1.43421 -0.653314 0
M  V30 2115 C 197.864 1.95361 -0.0966581 0
M  V30 2116 C 198.244 1.59461 1.38331 0
M  V30 2117 O 197.592 0.879777 2.10884 0
M  V30 2118 C 197.802 3.47311 -0.342988 0
M  V30 2119 C 199.15 4.23875 -0.24798 0
M  V30 2120 O 200.174 3.55133 -0.275553 0
M  V30 2121 O 199.033 5.4623 -0.171771 0
M  V30 2122 H 196.127 0.826945 0.00956291 0
M  V30 2123 H 198.673 1.5336 -0.726558 0
M  V30 2124 H 197.445 3.66569 -1.36906 0
M  V30 2125 H 197.068 3.9631 0.319975 0
M  V30 2126 N 198.065 0.39524 1.52563 0
M  V30 2127 C 198.975 -0.444232 2.30356 0
M  V30 2128 C 199.991 -1.06615 1.37511 0
M  V30 2129 O 201.167 -1.07067 1.70583 0
M  V30 2130 C 198.232 -1.55315 3.09964 0
M  V30 2131 C 197.293 -0.955734 4.18526 0
M  V30 2132 C 196.526 -2.01181 4.9433 0
M  V30 2133 O 196.749 -3.22781 4.70285 0
M  V30 2134 O 195.683 -1.62579 5.79527 0
M  V30 2135 H 199.509 0.189667 3.03107 0
M  V30 2136 H 197.094 0.1588 1.48554 0
M  V30 2137 H 198.976 -2.19724 3.59582 0
M  V30 2138 H 197.651 -2.17191 2.4002 0
M  V30 2139 H 196.558 -0.274743 3.7309 0
M  V30 2140 H 197.891 -0.381109 4.90722 0
M  V30 2141 N 199.544 -1.57102 0.125237 0
M  V30 2142 C 200.79 -1.95697 -0.532035 0
M  V30 2143 C 201.123 -1.009 -1.6593 0
M  V30 2144 O 200.398 -0.047347 -1.94442 0
M  V30 2145 C 200.681 -3.44181 -1.05884 0
M  V30 2146 C 200.534 -4.49752 0.0654392 0
M  V30 2147 C 201.853 -3.94655 -1.9477 0
M  V30 2148 H 198.972 -0.711571 -0.191925 0
M  V30 2149 H 201.614 -1.88923 0.20206 0
M  V30 2150 H 199.764 -3.50085 -1.68442 0
M  V30 2151 H 201.436 -4.55943 0.700982 0
M  V30 2152 H 199.679 -4.27653 0.727709 0
M  V30 2153 H 200.35 -5.50924 -0.344505 0
M  V30 2154 H 202.826 -3.91094 -1.42074 0
M  V30 2155 H 201.702 -4.99057 -2.28546 0
M  V30 2156 H 201.963 -3.35718 -2.87656 0
M  V30 2157 N 201.022 0.148545 -1.56898 0
M  V30 2158 C 201.954 1.20852 -1.9475 0
M  V30 2159 C 202.967 1.39265 -0.843152 0
M  V30 2160 O 204.156 1.38864 -1.12156 0
M  V30 2161 C 201.256 2.57362 -2.20495 0
M  V30 2162 C 200.429 2.59947 -3.51776 0
M  V30 2163 C 199.488 3.77984 -3.6608 0
M  V30 2164 O 198.514 3.62929 -4.38487 0
M  V30 2165 N 199.716 4.95375 -3.02629 0
M  V30 2166 H 202.481 0.886804 -2.86279 0
M  V30 2167 H 200.042 0.338121 -1.5833 0
M  V30 2168 H 202.034 3.34833 -2.27307 0
M  V30 2169 H 200.604 2.81832 -1.35238 0
M  V30 2170 H 199.824 1.68403 -3.56419 0
M  V30 2171 H 201.112 2.58704 -4.38121 0
M  V30 2172 H 200.51 5.10509 -2.43715 0
M  V30 2173 H 199.067 5.70627 -3.15004 0
M  V30 2174 N 202.5 1.5196 0.417844 0
M  V30 2175 C 203.728 1.69426 1.18753 0
M  V30 2176 C 204.143 0.399955 1.84515 0
M  V30 2177 O 203.5 -0.623288 1.71527 0
M  V30 2178 C 203.551 2.82375 2.25714 0
M  V30 2179 O 203.272 4.06793 1.62638 0
M  V30 2180 C 204.773 3.11277 3.15628 0
M  V30 2181 H 201.993 0.568031 0.357186 0
M  V30 2182 H 204.537 1.98475 0.49273 0
M  V30 2183 H 202.692 2.5587 2.90877 0
M  V30 2184 H 203.106 4.69667 2.3348 0
M  V30 2185 H 204.58 3.93843 3.86771 0
M  V30 2186 H 205.057 2.24473 3.77503 0
M  V30 2187 H 205.663 3.39515 2.56144 0
M  V30 2188 N 203.978 -0.674533 1.42435 0
M  V30 2189 C 205.255 -1.4305 1.33402 0
M  V30 2190 C 205.635 -2.11081 -0.0284674 0
M  V30 2191 O 204.983 -2.03257 -1.04397 0
M  V30 2192 C 205.193 -2.43272 2.50239 0
M  V30 2193 C 206.541 -3.07907 2.92367 0
M  V30 2194 O 207.565 -2.53599 2.50132 0
M  V30 2195 O 206.424 -4.0632 3.65467 0
M  V30 2196 H 203.518 -0.638076 0.526106 0
M  V30 2197 H 206.064 -0.703235 1.54443 0
M  V30 2198 H 204.836 -1.91803 3.41068 0
M  V30 2199 H 204.459 -3.23479 2.31186 0
M  V30 2200 N 205.456 -1.28612 -0.910864 0
M  V30 2201 C 206.388 -1.08589 -2.01844 0
M  V30 2202 C 207.401 -0.0367419 -1.62759 0
M  V30 2203 O 208.59 -0.280101 -1.76289 0
M  V30 2204 C 205.69 -0.628626 -3.33019 0
M  V30 2205 C 204.863 -1.75382 -4.00699 0
M  V30 2206 C 203.922 -1.28945 -5.10156 0
M  V30 2207 O 202.948 -1.9922 -5.33198 0
M  V30 2208 N 204.15 -0.154224 -5.80295 0
M  V30 2209 H 206.915 -2.03973 -2.19579 0
M  V30 2210 H 204.476 -1.20403 -1.08234 0
M  V30 2211 H 206.468 -0.301508 -4.03575 0
M  V30 2212 H 205.038 0.232451 -3.11735 0
M  V30 2213 H 204.258 -2.25039 -3.23653 0
M  V30 2214 H 205.546 -2.50854 -4.42662 0
M  V30 2215 H 204.944 0.43194 -5.64049 0
M  V30 2216 H 203.501 0.113599 -6.51701 0
M  V30 2217 N 206.934 1.1197 -1.10907 0
M  V30 2218 C 207.866 2.17592 -0.720175 0
M  V30 2219 C 208.879 1.60938 0.245495 0
M  V30 2220 O 210.068 1.78476 0.0292245 0
M  V30 2221 C 207.168 3.38873 -0.0427917 0
M  V30 2222 C 206.341 4.25006 -1.03388 0
M  V30 2223 C 205.4 5.24774 -0.387075 0
M  V30 2224 O 204.426 5.59631 -1.03934 0
M  V30 2225 N 205.628 5.74208 0.852407 0
M  V30 2226 H 208.393 2.51567 -1.62893 0
M  V30 2227 H 205.954 1.27439 -0.998543 0
M  V30 2228 H 207.946 4.02703 0.401501 0
M  V30 2229 H 206.516 3.03007 0.768456 0
M  V30 2230 H 205.736 3.57716 -1.65629 0
M  V30 2231 H 207.024 4.79397 -1.70458 0
M  V30 2232 H 206.422 5.48062 1.40161 0
M  V30 2233 H 204.979 6.39901 1.23977 0
M  V30 2234 N 208.412 0.89855 1.29475 0
M  V30 2235 C 209.658 0.524658 1.95896 0
M  V30 2236 C 209.991 -0.926468 1.70676 0
M  V30 2237 O 209.266 -1.65665 1.01908 0
M  V30 2238 C 209.549 0.81633 3.50725 0
M  V30 2239 C 209.402 2.31907 3.85408 0
M  V30 2240 C 210.721 0.302038 4.39062 0
M  V30 2241 H 207.84 0.19209 0.711527 0
M  V30 2242 H 210.482 1.12502 1.53112 0
M  V30 2243 H 208.632 0.305369 3.87298 0
M  V30 2244 H 210.304 2.89949 3.58786 0
M  V30 2245 H 208.547 2.78027 3.32992 0
M  V30 2246 H 209.218 2.47373 4.93468 0
M  V30 2247 H 211.694 0.739551 4.09475 0
M  V30 2248 H 210.57 0.535331 5.46283 0
M  V30 2249 H 210.831 -0.797216 4.34853 0
M  V30 2250 N 209.89 -1.43072 0.660911 0
M  V30 2251 C 210.82 -2.33497 -0.0122829 0
M  V30 2252 C 211.801 -1.49903 -0.803925 0
M  V30 2253 O 212.986 -1.78546 -0.763864 0
M  V30 2254 C 210.116 -3.33363 -0.973994 0
M  V30 2255 C 209.07 -4.27003 -0.291928 0
M  V30 2256 C 208.396 -5.16967 -1.36562 0
M  V30 2257 C 209.696 -5.15816 0.820462 0
M  V30 2258 H 211.39 -2.90038 0.742873 0
M  V30 2259 H 208.936 -1.39461 0.358688 0
M  V30 2260 H 210.889 -3.95524 -1.45392 0
M  V30 2261 H 209.613 -2.75095 -1.7604 0
M  V30 2262 H 208.272 -3.66217 0.167623 0
M  V30 2263 H 207.92 -4.55034 -2.14366 0
M  V30 2264 H 207.62 -5.80441 -0.914454 0
M  V30 2265 H 209.144 -5.82003 -1.84675 0
M  V30 2266 H 210.558 -5.71742 0.422366 0
M  V30 2267 H 208.955 -5.8805 1.19656 0
M  V30 2268 H 210.025 -4.55045 1.67518 0
M  V30 2269 N 211.368 -0.403325 -1.52352 0
M  V30 2270 C 212.596 0.174012 -2.06167 0
M  V30 2271 C 213.011 1.39347 -1.27388 0
M  V30 2272 O 212.368 1.79597 -0.324201 0
M  V30 2273 C 212.419 0.530223 -3.5759 0
M  V30 2274 O 212.14 -0.640806 -4.33388 0
M  V30 2275 C 213.641 1.16192 -4.27802 0
M  V30 2276 H 210.861 0.0229464 -0.670608 0
M  V30 2277 H 213.405 -0.572604 -1.9632 0
M  V30 2278 H 211.56 1.22673 -3.67464 0
M  V30 2279 H 211.974 -0.344851 -5.23365 0
M  V30 2280 H 213.448 1.36141 -5.34948 0
M  V30 2281 H 213.925 2.13335 -3.83907 0
M  V30 2282 H 214.531 0.505775 -4.22282 0
M  V30 2283 N 212.846 1.57033 -0.133567 0
M  V30 2284 C 214.093 1.95686 0.520877 0
M  V30 2285 C 214.421 1.0177 1.6575 0
M  V30 2286 O 213.676 0.0443195 1.9565 0
M  V30 2287 C 213.975 3.40674 1.08057 0
M  V30 2288 C 213.641 4.50855 0.0637899 0
M  V30 2289 C 212.303 4.80716 -0.215757 0
M  V30 2290 C 214.655 5.17398 -0.62835 0
M  V30 2291 C 211.983 5.74433 -1.19348 0
M  V30 2292 C 214.335 6.12167 -1.5948 0
M  V30 2293 C 212.999 6.40414 -1.88218 0
M  V30 2294 H 212.269 0.716067 0.190602 0
M  V30 2295 H 214.916 1.9026 -0.217556 0
M  V30 2296 H 213.221 3.42865 1.89606 0
M  V30 2297 H 214.918 3.67902 1.59529 0
M  V30 2298 H 211.508 4.27605 0.291855 0
M  V30 2299 H 215.692 4.94472 -0.425562 0
M  V30 2300 H 210.948 5.94616 -1.42272 0
M  V30 2301 H 215.122 6.6281 -2.13671 0
M  V30 2302 H 212.749 7.12838 -2.64133 0
M  V30 2303 N 214.325 -0.140222 1.56975 0
M  V30 2304 C 215.572 -0.851687 1.83719 0
M  V30 2305 C 215.9 -1.80862 0.715485 0
M  V30 2306 O 215.155 -1.93464 -0.294956 0
M  V30 2307 C 215.454 -1.65386 3.16832 0
M  V30 2308 C 215.12 -0.843112 4.42947 0
M  V30 2309 C 213.782 -0.619464 4.77196 0
M  V30 2310 C 216.134 -0.276582 5.20466 0
M  V30 2311 C 213.462 0.181312 5.8642 0
M  V30 2312 C 215.814 0.51127 6.30531 0
M  V30 2313 C 214.478 0.745432 6.63325 0
M  V30 2314 H 213.748 -0.311654 0.672274 0
M  V30 2315 H 216.395 -0.115006 1.91154 0
M  V30 2316 H 214.7 -2.46084 3.04877 0
M  V30 2317 H 216.397 -2.20793 3.34741 0
M  V30 2318 H 212.987 -1.0275 4.16101 0
M  V30 2319 H 217.171 -0.436632 4.94376 0
M  V30 2320 H 212.427 0.372165 6.10266 0
M  V30 2321 H 216.601 0.957354 6.89788 0
M  V30 2322 H 214.228 1.36778 7.47794 0
M  V30 2323 N 215.803 -1.52179 -0.40978 0
M  V30 2324 C 216.75 -1.75475 -1.49924 0
M  V30 2325 C 217.72 -0.597175 -1.54994 0
M  V30 2326 O 218.905 -0.834655 -1.71575 0
M  V30 2327 C 216.045 -1.9107 -2.87378 0
M  V30 2328 C 215.158 -3.18717 -2.91622 0
M  V30 2329 C 214.293 -3.24747 -4.20372 0
M  V30 2330 C 213.332 -4.46598 -4.18588 0
M  V30 2331 N 212.469 -4.50025 -5.38908 0
M  V30 2332 H 217.309 -2.68458 -1.29361 0
M  V30 2333 H 214.846 -1.33024 -0.627934 0
M  V30 2334 H 216.804 -1.98096 -3.6717 0
M  V30 2335 H 215.434 -1.01469 -3.06437 0
M  V30 2336 H 214.486 -3.20866 -2.04326 0
M  V30 2337 H 215.798 -4.08544 -2.86169 0
M  V30 2338 H 214.952 -3.30841 -5.08556 0
M  V30 2339 H 213.691 -2.32857 -4.28519 0
M  V30 2340 H 212.696 -4.40652 -3.28794 0
M  V30 2341 H 213.921 -5.39783 -4.12081 0
M  V30 2342 H 211.867 -3.61017 -5.47725 0
M  V30 2343 H 211.784 -5.33697 -5.35447 0
M  V30 2344 H 213.052 -4.60347 -6.29048 0
M  V30 2345 N 217.281 0.66697 -1.42791 0
M  V30 2346 C 218.558 1.4234 -1.34159 0
M  V30 2347 C 218.938 2.11093 0.0172729 0
M  V30 2348 O 218.286 2.03808 1.03318 0
M  V30 2349 C 218.496 2.41942 -2.51526 0
M  V30 2350 C 219.844 3.06353 -2.93995 0
M  V30 2351 O 220.868 2.52269 -2.51473 0
M  V30 2352 O 219.727 4.04376 -3.67617 0
M  V30 2353 H 216.821 0.635277 -0.529483 0
M  V30 2354 H 219.367 0.695034 -1.54814 0
M  V30 2355 H 218.139 1.89991 -3.42081 0
M  V30 2356 H 217.762 3.22249 -2.32898 0
M  V30 2357 N 218.759 1.29093 0.90403 0
M  V30 2358 C 220.005 1.17996 1.65676 0
M  V30 2359 C 220.36 -0.266816 1.90541 0
M  V30 2360 O 219.653 -1.19 1.50165 0
M  V30 2361 C 219.847 1.92224 3.01305 0
M  V30 2362 C 219.676 3.43972 2.89678 0
M  V30 2363 C 218.446 4.1332 2.90679 0
M  V30 2364 C 220.644 4.39546 2.67028 0
M  V30 2365 N 218.626 5.51463 2.69743 0
M  V30 2366 C 219.997 5.65119 2.5503 0
M  V30 2367 C 222.052 4.29359 2.52101 0
M  V30 2368 C 220.755 6.81663 2.29626 0
M  V30 2369 C 222.781 5.4565 2.28079 0
M  V30 2370 C 222.143 6.70193 2.16843 0
M  V30 2371 H 218.242 0.486759 0.612037 0
M  V30 2372 H 220.826 1.62868 1.06688 0
M  V30 2373 H 218.997 1.49773 3.58361 0
M  V30 2374 H 220.729 1.73429 3.65656 0
M  V30 2375 H 217.484 3.64984 3.01801 0
M  V30 2376 H 217.908 6.24105 2.6234 0
M  V30 2377 H 222.55 3.33769 2.59534 0
M  V30 2378 H 220.268 7.77313 2.20932 0
M  V30 2379 H 223.854 5.39664 2.1738 0
M  V30 2380 H 222.734 7.58659 1.98511 0
M  V30 2381 N 220.237 -1.11381 1.11499 0
M  V30 2382 C 221.184 -2.17439 0.773887 0
M  V30 2383 C 222.154 -1.64132 -0.254899 0
M  V30 2384 O 223.339 -1.90345 -0.13168 0
M  V30 2385 C 220.479 -3.44373 0.223917 0
M  V30 2386 C 219.592 -4.1168 1.30934 0
M  V30 2387 C 218.727 -5.263 0.71984 0
M  V30 2388 C 217.766 -5.85493 1.78507 0
M  V30 2389 N 216.903 -6.91507 1.21502 0
M  V30 2390 H 221.743 -2.45962 1.68246 0
M  V30 2391 H 219.28 -1.20744 0.840191 0
M  V30 2392 H 221.238 -4.17047 -0.112921 0
M  V30 2393 H 219.868 -3.16232 -0.647851 0
M  V30 2394 H 218.92 -3.37073 1.76312 0
M  V30 2395 H 220.232 -4.51729 2.11524 0
M  V30 2396 H 219.386 -6.05785 0.333094 0
M  V30 2397 H 218.125 -4.87559 -0.117377 0
M  V30 2398 H 217.13 -5.04686 2.18111 0
M  V30 2399 H 218.355 -6.26301 2.62533 0
M  V30 2400 H 216.301 -6.54783 0.399455 0
M  V30 2401 H 216.218 -7.30214 1.95763 0
M  V30 2402 H 217.486 -7.74795 0.855181 0
M  V30 2403 N 221.715 -0.905404 -1.28997 0
M  V30 2404 C 223.126 -0.581953 -1.77398 0
M  V30 2405 C 223.477 0.902552 -1.74208 0
M  V30 2406 O 222.602 1.70584 -1.33154 0
M  V30 2407 C 223.197 -1.04961 -3.22131 0
M  V30 2408 C 221.756 -0.777229 -3.68288 0
M  V30 2409 C 220.903 -1.22109 -2.48967 0
M  V30 2410 H 223.854 -1.08754 -1.15578 0
M  V30 2411 H 223.875 -0.387387 -3.78523 0
M  V30 2412 H 223.387 -2.13008 -3.24421 0
M  V30 2413 H 221.488 0.290383 -3.71467 0
M  V30 2414 H 221.601 -1.37911 -4.58822 0
M  V30 2415 H 219.965 -0.639971 -2.46529 0
M  V30 2416 H 220.748 -2.30972 -2.53982 0
M  V30 2417 N 223.193 1.4272 -0.668489 0
M  V30 2418 C 224.14 2.30796 0.0137489 0
M  V30 2419 C 225.11 1.4561 0.799177 0
M  V30 2420 O 226.295 1.74453 0.772702 0
M  V30 2421 C 223.435 3.31377 0.963507 0
M  V30 2422 C 222.548 4.31655 0.172569 0
M  V30 2423 C 221.683 5.19312 1.1175 0
M  V30 2424 C 220.722 6.11274 0.317886 0
M  V30 2425 N 219.859 6.91504 1.2152 0
M  V30 2426 H 224.699 2.88585 -0.743161 0
M  V30 2427 H 222.236 1.42154 -0.378226 0
M  V30 2428 H 224.194 3.88214 1.52792 0
M  V30 2429 H 222.824 2.75202 1.68712 0
M  V30 2430 H 221.876 3.76988 -0.508374 0
M  V30 2431 H 223.188 4.96779 -0.448527 0
M  V30 2432 H 222.342 5.80851 1.75206 0
M  V30 2433 H 221.081 4.5435 1.77249 0
M  V30 2434 H 220.086 5.48809 -0.329918 0
M  V30 2435 H 221.311 6.78283 -0.332917 0
M  V30 2436 H 219.257 6.29176 1.85671 0
M  V30 2437 H 219.174 7.53209 0.649036 0
M  V30 2438 H 220.442 7.57535 1.83742 0
M  V30 2439 N 224.671 0.411399 1.52136 0
M  V30 2440 C 225.619 -0.427633 2.28635 0
M  V30 2441 C 226.613 -1.04383 1.33419 0
M  V30 2442 O 227.819 -0.981772 1.50868 0
M  V30 2443 H 224.194 -0.156689 0.735495 0
M  V30 2444 H 226.165 0.238761 2.97443 0
M  V30 2445 C 224.914 -1.53082 3.12188 0
M  V30 2446 H 224.237 -1.06601 3.85326 0
M  V30 2447 H 225.677 -2.09167 3.68816 0
M  V30 2448 C 224.136 -2.49946 2.25895 0
M  V30 2449 O 224.666 -3.53884 1.90076 0
M  V30 2450 N 222.872 -2.2021 1.8962 0
M  V30 2451 H 222.419 -1.35719 2.18948 0
M  V30 2452 H 222.377 -2.85266 1.32176 0
M  V30 2453 N 226.149 -1.5696 0.141893 0
M  V30 2454 C 227.56 -1.82797 -0.379776 0
M  V30 2455 C 227.911 -1.06033 -1.6508 0
M  V30 2456 O 227.036 -0.304011 -2.14254 0
M  V30 2457 C 227.631 -3.31578 -0.695802 0
M  V30 2458 C 226.19 -3.58014 -1.16201 0
M  V30 2459 C 225.337 -2.76699 -0.182455 0
M  V30 2460 H 228.288 -1.54406 0.366675 0
M  V30 2461 H 228.309 -3.47454 -1.55099 0
M  V30 2462 H 227.821 -3.87421 0.229449 0
M  V30 2463 H 225.922 -3.07553 -2.10338 0
M  V30 2464 H 226.035 -4.66501 -1.09151 0
M  V30 2465 H 224.399 -2.45618 -0.674072 0
M  V30 2466 H 225.182 -3.35311 0.736297 0
M  V30 2467 N 227.627 0.131896 -1.57047 0
M  V30 2468 C 228.876 0.84044 -1.83356 0
M  V30 2469 C 229.189 1.81646 -0.725535 0
M  V30 2470 O 230.395 2.57025 -0.874659 0
M  V30 2471 C 228.851 1.54528 -3.25037 0
M  V30 2472 C 228.459 0.610902 -4.43815 0
M  V30 2473 C 230.203 2.23972 -3.60606 0
M  V30 2474 C 228.11 1.31823 -5.76521 0
M  V30 2475 H 227.04 0.317599 -0.683847 0
M  V30 2476 H 229.691 0.0931561 -1.83263 0
M  V30 2477 H 228.073 2.33873 -3.19561 0
M  V30 2478 H 229.247 -0.148407 -4.60561 0
M  V30 2479 H 227.562 0.0241016 -4.16393 0
M  V30 2480 H 230.159 2.77558 -4.57018 0
M  V30 2481 H 230.502 3.01173 -2.87403 0
M  V30 2482 H 231.035 1.51529 -3.6781 0
M  V30 2483 H 227.774 0.587771 -6.52859 0
M  V30 2484 H 227.294 2.04987 -5.63685 0
M  V30 2485 H 228.973 1.855 -6.19838 0
M  V30 2486 N 229.106 1.52395 0.401703 0
M  V30 2487 C 230.354 1.66488 1.14569 0
M  V30 2488 C 230.675 0.400897 1.90835 0
M  V30 2489 O 229.945 -0.584415 1.8698 0
M  V30 2490 H 228.525 0.613672 0.425929 0
M  V30 2491 H 231.187 1.89464 0.457093 0
M  V30 2492 H 230.283 2.50942 1.85566 0
M  V30 2493 N 230.584 -0.659388 1.43143 0
M  V30 2494 C 231.494 -1.80167 1.50256 0
M  V30 2495 C 232.51 -1.69571 0.390106 0
M  V30 2496 O 233.686 -1.90849 0.643319 0
M  V30 2497 C 230.751 -3.16409 1.41725 0
M  V30 2498 C 229.812 -3.38848 2.63591 0
M  V30 2499 C 229.045 -4.68591 2.55458 0
M  V30 2500 O 229.268 -5.47532 1.59891 0
M  V30 2501 O 228.202 -4.92614 3.45854 0
M  V30 2502 H 232.028 -1.77121 2.46702 0
M  V30 2503 H 229.613 -0.817092 1.25076 0
M  V30 2504 H 231.495 -3.9768 1.39387 0
M  V30 2505 H 230.17 -3.20059 0.484118 0
M  V30 2506 H 229.077 -2.57366 2.71502 0
M  V30 2507 H 230.41 -3.4004 3.55856 0
M  V30 2508 N 232.062 -1.29571 -0.897171 0
M  V30 2509 C 233.292 -1.20408 -1.67886 0
M  V30 2510 C 233.7 0.237429 -1.87704 0
M  V30 2511 O 233.043 1.17048 -1.41582 0
M  V30 2512 C 233.105 -1.84887 -3.08314 0
M  V30 2513 C 232.769 -3.34189 -3.11716 0
M  V30 2514 C 233.766 -4.30374 -2.91675 0
M  V30 2515 C 231.451 -3.75431 -3.33701 0
M  V30 2516 C 233.445 -5.65776 -2.93557 0
M  V30 2517 C 231.132 -5.10955 -3.35214 0
M  V30 2518 C 232.13 -6.05938 -3.15164 0
M  V30 2519 O 231.818 -7.38987 -3.1647 0
M  V30 2520 H 231.55 -0.418289 -0.531046 0
M  V30 2521 H 234.104 -1.71514 -1.13014 0
M  V30 2522 H 232.334 -1.28295 -3.64798 0
M  V30 2523 H 234.023 -1.70011 -3.6858 0
M  V30 2524 H 234.789 -3.99844 -2.74499 0
M  V30 2525 H 230.668 -3.01953 -3.48347 0
M  V30 2526 H 234.212 -6.39889 -2.77826 0
M  V30 2527 H 230.109 -5.4113 -3.51922 0
M  V30 2528 H 230.877 -7.47823 -3.3272 0
M  V30 2529 N 233.54 1.10788 -1.12088 0
M  V30 2530 C 234.956 1.34691 -0.856186 0
M  V30 2531 C 235.156 1.94791 0.515615 0
M  V30 2532 O 234.212 2.18524 1.26505 0
M  V30 2533 C 235.525 2.27208 -1.9697 0
M  V30 2534 C 237.073 2.40755 -2.00016 0
M  V30 2535 C 237.548 3.36598 -3.1059 0
M  V30 2536 N 239.039 3.44164 -3.10008 0
M  V30 2537 C 239.774 4.18284 -3.92206 0
M  V30 2538 N 239.27 4.95322 -4.84384 0
M  V30 2539 N 241.063 4.13865 -3.80357 0
M  V30 2540 H 233.214 0.70144 -2.00483 0
M  V30 2541 H 235.477 0.371405 -0.872217 0
M  V30 2542 H 235.183 1.90251 -2.958 0
M  V30 2543 H 235.057 3.27485 -1.87172 0
M  V30 2544 H 237.444 2.76982 -1.01808 0
M  V30 2545 H 237.525 1.40305 -2.13888 0
M  V30 2546 H 237.169 3.01096 -4.09028 0
M  V30 2547 H 237.099 4.36918 -2.93956 0
M  V30 2548 H 239.59 2.8922 -2.43228 0
M  V30 2549 H 239.903 5.49267 -5.43623 0
M  V30 2550 H 238.248 4.94459 -4.884 0
M  V30 2551 H 241.439 3.52773 -3.07683 0
M  V30 2552 H 241.612 4.71372 -4.44649 0
M  V30 2553 N 235.018 0.912232 1.28515 0
M  V30 2554 C 235.95 0.35676 2.26406 0
M  V30 2555 C 236.963 -0.503933 1.54804 0
M  V30 2556 O 238.152 -0.319059 1.75625 0
M  V30 2557 C 235.252 -0.508825 3.35058 0
M  V30 2558 C 234.425 0.329007 4.36161 0
M  V30 2559 C 233.484 -0.471422 5.24084 0
M  V30 2560 O 232.51 0.115482 5.69083 0
M  V30 2561 N 233.712 -1.77479 5.52704 0
M  V30 2562 H 236.477 1.19818 2.74707 0
M  V30 2563 H 234.038 0.778022 1.4198 0
M  V30 2564 H 236.03 -1.051 3.90815 0
M  V30 2565 H 234.6 -1.25095 2.86478 0
M  V30 2566 H 233.82 1.05256 3.79888 0
M  V30 2567 H 235.108 0.90234 5.00735 0
M  V30 2568 H 234.506 -2.27417 5.17975 0
M  V30 2569 H 233.063 -2.26382 6.11224 0
M  V30 2570 N 236.496 -1.42363 0.676048 0
M  V30 2571 C 237.726 -2.05561 0.206967 0
M  V30 2572 C 238.134 -1.50887 -1.14148 0
M  V30 2573 O 237.477 -0.643933 -1.72044 0
M  V30 2574 C 237.539 -3.5944 0.0659508 0
M  V30 2575 C 237.203 -4.36812 1.34331 0
M  V30 2576 C 238.2 -4.67383 2.27704 0
M  V30 2577 C 235.885 -4.76429 1.59125 0
M  V30 2578 C 237.879 -5.36509 3.44147 0
M  V30 2579 C 235.566 -5.45294 2.75857 0
M  V30 2580 C 236.564 -5.75259 3.68193 0
M  V30 2581 O 236.252 -6.42712 4.82883 0
M  V30 2582 H 235.984 -0.668872 0.0979084 0
M  V30 2583 H 238.538 -1.83467 0.923531 0
M  V30 2584 H 236.768 -3.80197 -0.706204 0
M  V30 2585 H 238.457 -4.0427 -0.363418 0
M  V30 2586 H 239.223 -4.37275 2.09799 0
M  V30 2587 H 235.102 -4.52498 0.881258 0
M  V30 2588 H 238.646 -5.59814 4.16238 0
M  V30 2589 H 234.543 -5.7482 2.93688 0
M  V30 2590 H 235.311 -6.61204 4.82444 0
M  V30 2591 N 237.974 -0.419461 -1.51915 0
M  V30 2592 C 239.199 0.154572 -2.06823 0
M  V30 2593 C 239.624 1.3722 -1.28656 0
M  V30 2594 O 238.982 1.78461 -0.319583 0
M  V30 2595 C 239.03 0.473172 -3.57482 0
M  V30 2596 O 238.134 1.56255 -3.81652 0
M  V30 2597 H 237.475 0.0096924 -0.663929 0
M  V30 2598 H 240.005 -0.595642 -1.95738 0
M  V30 2599 H 240.015 0.728825 -4.01438 0
M  V30 2600 H 238.69 -0.416873 -4.13805 0
M  V30 2601 H 237.267 1.29825 -3.49571 0
M  V30 2602 N 239.452 1.56882 -0.150215 0
M  V30 2603 C 240.4 2.18214 0.805313 0
M  V30 2604 C 241.394 1.14006 1.25296 0
M  V30 2605 O 242.6 1.3225 1.22107 0
M  V30 2606 H 238.975 0.698762 0.277913 0
M  V30 2607 H 240.946 2.97231 0.263862 0
M  V30 2608 C 239.695 2.82065 2.03309 0
M  V30 2609 H 239.018 3.61968 1.69763 0
M  V30 2610 H 240.458 3.28477 2.68103 0
M  V30 2611 C 238.917 1.80739 2.84315 0
M  V30 2612 O 239.447 1.27983 3.80767 0
M  V30 2613 N 237.653 1.4997 2.48913 0
M  V30 2614 H 237.2 1.93062 1.70542 0
M  V30 2615 H 237.158 0.824217 3.03404 0
M  V30 2616 N 240.93 -0.123565 1.57115 0
M  V30 2617 C 242.341 -0.681198 1.73829 0
M  V30 2618 C 242.692 -1.80535 0.768214 0
M  V30 2619 O 241.817 -2.16317 -0.0599103 0
M  V30 2620 C 242.412 -1.24246 3.15196 0
M  V30 2621 C 240.971 -1.74643 3.33432 0
M  V30 2622 C 240.118 -0.644284 2.69711 0
M  V30 2623 H 243.069 0.102315 1.5837 0
M  V30 2624 H 243.09 -2.11216 3.16493 0
M  V30 2625 H 242.602 -0.424062 3.85776 0
M  V30 2626 H 240.703 -2.58974 2.67886 0
M  V30 2627 H 240.816 -1.85902 4.41562 0
M  V30 2628 H 239.18 -1.07676 2.3082 0
M  V30 2629 H 239.963 0.163058 3.42913 0
M  V30 2630 N 242.408 -1.52605 -0.393616 0
M  V30 2631 C 243.633 -1.71592 -1.16495 0
M  V30 2632 C 244.058 -0.43133 -1.83088 0
M  V30 2633 O 243.416 0.612523 -1.7064 0
M  V30 2634 C 243.464 -2.86318 -2.19213 0
M  V30 2635 O 242.568 -2.52969 -3.257 0
M  V30 2636 H 241.909 -0.570734 -0.33935 0
M  V30 2637 H 244.439 -1.99377 -0.459324 0
M  V30 2638 H 244.449 -3.1168 -2.63286 0
M  V30 2639 H 243.124 -3.79511 -1.7013 0
M  V30 2640 H 241.701 -2.38332 -2.86797 0
M  V30 2641 N 243.887 0.651787 -1.4349 0
M  V30 2642 C 245.136 1.40754 -1.44469 0
M  V30 2643 C 245.449 1.95463 -0.0731845 0
M  V30 2644 O 246.655 2.71471 0.0395721 0
M  V30 2645 C 245.111 2.54735 -2.5424 0
M  V30 2646 C 244.719 2.06628 -3.97504 0
M  V30 2647 C 246.463 3.32092 -2.64414 0
M  V30 2648 C 244.37 3.17829 -4.98737 0
M  V30 2649 H 243.3 0.528862 -0.53742 0
M  V30 2650 H 245.951 0.703365 -1.69485 0
M  V30 2651 H 244.333 3.2763 -2.22428 0
M  V30 2652 H 245.507 1.40734 -4.38783 0
M  V30 2653 H 243.822 1.42146 -3.91387 0
M  V30 2654 H 246.419 4.14952 -3.37223 0
M  V30 2655 H 246.762 3.80217 -1.69532 0
M  V30 2656 H 247.295 2.66279 -2.95534 0
M  V30 2657 H 244.034 2.74671 -5.95177 0
M  V30 2658 H 243.554 3.82429 -4.62069 0
M  V30 2659 H 245.233 3.82937 -5.21505 0
M  V30 2660 N 245.365 1.30045 0.890287 0
M  V30 2661 C 246.613 1.18327 1.63839 0
M  V30 2662 C 246.934 -0.263455 1.93212 0
M  V30 2663 O 246.204 -1.17856 1.56482 0
M  V30 2664 H 244.784 0.434933 0.607324 0
M  V30 2665 H 247.446 1.631 1.06698 0
M  V30 2666 H 246.542 1.74024 2.59079 0
M  V30 2667 N 246.843 -1.10192 1.12674 0
M  V30 2668 C 247.773 -2.18652 0.819362 0
M  V30 2669 C 248.754 -1.68698 -0.217915 0
M  V30 2670 O 249.939 -1.94041 -0.0785581 0
M  V30 2671 C 247.069 -3.46202 0.27594 0
M  V30 2672 C 246.023 -4.09444 1.24656 0
M  V30 2673 C 245.349 -5.31725 0.563258 0
M  V30 2674 C 246.649 -4.52863 2.60217 0
M  V30 2675 H 248.343 -2.44622 1.72628 0
M  V30 2676 H 245.889 -1.17571 0.831451 0
M  V30 2677 H 247.842 -4.21372 0.0486149 0
M  V30 2678 H 246.566 -3.1973 -0.666331 0
M  V30 2679 H 245.225 -3.36284 1.45974 0
M  V30 2680 H 244.873 -5.0153 -0.384235 0
M  V30 2681 H 244.573 -5.74991 1.21075 0
M  V30 2682 H 246.097 -6.09624 0.34503 0
M  V30 2683 H 247.511 -5.19294 2.42913 0
M  V30 2684 H 245.908 -5.06986 3.21068 0
M  V30 2685 H 246.978 -3.65656 3.18471 0
M  V30 2686 N 248.321 -0.919034 -1.28029 0
M  V30 2687 C 249.568 -0.554934 -1.94748 0
M  V30 2688 C 249.896 0.90231 -1.72304 0
M  V30 2689 O 249.151 1.65767 -1.04018 0
M  V30 2690 C 249.45 -0.816855 -3.4794 0
M  V30 2691 C 249.116 -2.25448 -3.90492 0
M  V30 2692 C 247.778 -2.64752 -4.01821 0
M  V30 2693 C 250.13 -3.18977 -4.12193 0
M  V30 2694 C 247.458 -3.96727 -4.32232 0
M  V30 2695 C 249.81 -4.50523 -4.44086 0
M  V30 2696 C 248.474 -4.89673 -4.53626 0
M  V30 2697 H 247.744 -0.203065 -0.712633 0
M  V30 2698 H 250.391 -1.16136 -1.52265 0
M  V30 2699 H 248.696 -0.127677 -3.91592 0
M  V30 2700 H 250.393 -0.514238 -3.97689 0
M  V30 2701 H 246.983 -1.93952 -3.82205 0
M  V30 2702 H 251.167 -2.89817 -4.02889 0
M  V30 2703 H 246.423 -4.26754 -4.37825 0
M  V30 2704 H 250.597 -5.23005 -4.59825 0
M  V30 2705 H 248.224 -5.91969 -4.76946 0
M  V30 2706 N 249.799 1.42003 -0.683588 0
M  V30 2707 C 251.047 2.01015 -0.209101 0
M  V30 2708 C 251.368 1.54365 1.19149 0
M  V30 2709 O 250.638 0.769083 1.80172 0
M  V30 2710 H 249.218 0.743294 -0.074315 0
M  V30 2711 H 251.88 1.73798 -0.882066 0
M  V30 2712 H 250.976 3.11343 -0.2172 0
M  V30 2713 N 251.277 0.427512 1.51691 0
M  V30 2714 C 252.224 -0.388867 2.275 0
M  V30 2715 C 253.194 -1.02532 1.30677 0
M  V30 2716 O 254.379 -1.0461 1.59566 0
M  V30 2717 C 251.519 -1.48954 3.11298 0
M  V30 2718 C 250.632 -0.872194 4.23104 0
M  V30 2719 C 249.767 -1.94709 4.94228 0
M  V30 2720 C 248.806 -1.30766 5.97969 0
M  V30 2721 N 247.943 -2.32349 6.62539 0
M  V30 2722 H 252.783 0.263997 2.96828 0
M  V30 2723 H 250.32 0.142033 1.46413 0
M  V30 2724 H 252.278 -2.13887 3.58201 0
M  V30 2725 H 250.908 -2.11217 2.44105 0
M  V30 2726 H 249.96 -0.111419 3.80237 0
M  V30 2727 H 251.272 -0.365264 4.97461 0
M  V30 2728 H 250.426 -2.67327 5.44629 0
M  V30 2729 H 249.165 -2.48773 4.1948 0
M  V30 2730 H 248.17 -0.566902 5.4687 0
M  V30 2731 H 249.395 -0.774483 6.74669 0
M  V30 2732 H 247.341 -2.85511 5.90609 0
M  V30 2733 H 247.258 -1.8652 7.3263 0
M  V30 2734 H 248.526 -3.04481 7.17574 0
M  V30 2735 N 252.755 -1.56801 0.158532 0
M  V30 2736 C 254.001 -1.96781 -0.490405 0
M  V30 2737 C 254.334 -1.04397 -1.63753 0
M  V30 2738 O 253.609 -0.0885805 -1.94298 0
M  V30 2739 C 253.892 -3.4635 -0.985594 0
M  V30 2740 C 253.745 -4.49512 0.160824 0
M  V30 2741 C 255.064 -3.98697 -1.86355 0
M  V30 2742 H 252.183 -0.715482 -0.176788 0
M  V30 2743 H 254.825 -1.88451 0.242088 0
M  V30 2744 H 252.975 -3.53579 -1.60978 0
M  V30 2745 H 254.647 -4.54353 0.797537 0
M  V30 2746 H 252.89 -4.26013 0.818256 0
M  V30 2747 H 253.561 -5.51531 -0.227569 0
M  V30 2748 H 256.037 -3.94019 -1.33746 0
M  V30 2749 H 254.913 -5.03792 -2.17909 0
M  V30 2750 H 255.174 -3.41744 -2.8047 0
M  V30 2751 N 254.233 0.115231 -1.57178 0
M  V30 2752 C 255.479 0.82357 -1.85325 0
M  V30 2753 C 255.812 1.79349 -0.744814 0
M  V30 2754 O 255.087 1.92899 0.249024 0
M  V30 2755 C 255.37 1.57014 -3.24066 0
M  V30 2756 C 255.223 0.619565 -4.45513 0
M  V30 2757 C 256.542 2.52545 -3.60429 0
M  V30 2758 H 253.661 0.297948 -0.674089 0
M  V30 2759 H 256.303 0.0877138 -1.89797 0
M  V30 2760 H 254.453 2.19742 -3.20383 0
M  V30 2761 H 256.125 0.000837639 -4.613 0
M  V30 2762 H 254.368 -0.0686174 -4.33746 0
M  V30 2763 H 255.039 1.17866 -5.3927 0
M  V30 2764 H 257.515 1.9992 -3.64926 0
M  V30 2765 H 256.391 3.01811 -4.58477 0
M  V30 2766 H 256.652 3.35383 -2.88047 0
M  V30 2767 N 255.711 1.52812 0.385517 0
M  V30 2768 C 256.674 1.77188 1.45386 0
M  V30 2769 C 257.674 0.641953 1.4743 0
M  V30 2770 O 258.864 0.910033 1.4854 0
M  V30 2771 C 255.996 1.87582 2.8465 0
M  V30 2772 H 257.189 2.72583 1.25054 0
M  V30 2773 H 254.742 1.43586 0.617467 0
M  V30 2774 H 255.477 0.941849 3.10322 0
M  V30 2775 H 255.262 2.69748 2.84567 0
M  V30 2776 H 256.752 2.08102 3.62054 0
M  V30 2777 N 257.189 -0.644168 1.43834 0
M  V30 2778 C 258.119 -1.76814 1.52509 0
M  V30 2779 C 259.1 -1.65823 0.379052 0
M  V30 2780 O 260.285 -1.84781 0.597466 0
M  V30 2781 C 257.415 -3.15288 1.4564 0
M  V30 2782 C 256.369 -3.41053 2.58586 0
M  V30 2783 C 255.695 -4.79421 2.36769 0
M  V30 2784 C 256.995 -3.34902 4.00797 0
M  V30 2785 H 258.689 -1.69812 2.46586 0
M  V30 2786 H 256.235 -0.815542 1.1868 0
M  V30 2787 H 258.188 -3.93681 1.50311 0
M  V30 2788 H 256.912 -3.23043 0.480725 0
M  V30 2789 H 255.571 -2.65035 2.53282 0
M  V30 2790 H 255.219 -4.83863 1.37424 0
M  V30 2791 H 254.919 -4.9762 3.12487 0
M  V30 2792 H 256.443 -5.6006 2.43238 0
M  V30 2793 H 257.857 -4.03218 4.07539 0
M  V30 2794 H 256.254 -3.64637 4.76613 0
M  V30 2795 H 257.324 -2.32928 4.25291 0
M  V30 2796 N 258.668 -1.30515 -0.883378 0
M  V30 2797 C 259.893 -1.22487 -1.67367 0
M  V30 2798 C 260.318 0.208767 -1.86938 0
M  V30 2799 O 259.676 1.15015 -1.40148 0
M  V30 2800 C 259.724 -1.96041 -3.02655 0
M  V30 2801 O 258.828 -1.28859 -3.91751 0
M  V30 2802 H 258.169 -0.423573 -0.511353 0
M  V30 2803 H 260.699 -1.72362 -1.10239 0
M  V30 2804 H 260.709 -2.05124 -3.52687 0
M  V30 2805 H 259.384 -3.00307 -2.8773 0
M  V30 2806 H 257.961 -1.28141 -3.50192 0
M  V30 2807 N 260.146 1.09593 -1.13257 0
M  V30 2808 C 261.079 2.15451 -0.752061 0
M  V30 2809 C 262.057 1.60493 0.260913 0
M  V30 2810 O 263.241 1.8788 0.152819 0
M  V30 2811 C 260.368 3.38506 -0.114594 0
M  V30 2812 C 259.414 4.12183 -1.09579 0
M  V30 2813 S 260.247 4.6661 -2.62745 0
M  V30 2814 C 261.403 5.92966 -2.00354 0
M  V30 2815 H 261.636 2.47395 -1.64872 0
M  V30 2816 H 259.169 1.21515 -0.952545 0
M  V30 2817 H 261.127 4.09757 0.246808 0
M  V30 2818 H 259.788 3.04784 0.759309 0
M  V30 2819 H 258.981 5.00445 -0.597545 0
M  V30 2820 H 258.583 3.46785 -1.40057 0
M  V30 2821 H 260.875 6.63882 -1.35156 0
M  V30 2822 H 261.818 6.47467 -2.86691 0
M  V30 2823 H 262.226 5.45405 -1.4558 0
M  V30 2824 N 261.624 0.925811 1.2754 0
M  V30 2825 C 262.572 0.413897 2.28888 0
M  V30 2826 C 263.566 -0.500779 1.61829 0
M  V30 2827 O 264.772 -0.38069 1.75928 0
M  V30 2828 H 261.147 0.115274 0.743112 0
M  V30 2829 H 263.118 1.28151 2.69481 0
M  V30 2830 C 261.867 -0.319792 3.46226 0
M  V30 2831 H 261.19 0.374846 3.98039 0
M  V30 2832 H 262.63 -0.642435 4.19105 0
M  V30 2833 C 261.089 -1.53209 3.00048 0
M  V30 2834 O 261.619 -2.6309 3.03557 0
M  V30 2835 N 259.825 -1.38326 2.55566 0
M  V30 2836 H 259.372 -0.489292 2.5291 0
M  V30 2837 H 259.33 -2.19564 2.25031 0
M  V30 2838 N 263.102 -1.41638 0.69111 0
M  V30 2839 C 264.049 -2.30789 0.0229705 0
M  V30 2840 C 265.019 -1.46863 -0.775911 0
M  V30 2841 O 266.204 -1.75661 -0.74485 0
M  V30 2842 C 263.344 -3.32868 -0.910666 0
M  V30 2843 C 262.457 -4.31875 -0.103874 0
M  V30 2844 C 261.592 -5.21024 -1.03475 0
M  V30 2845 C 260.631 -6.11702 -0.220598 0
M  V30 2846 N 259.768 -6.93349 -1.10504 0
M  V30 2847 H 264.608 -2.87366 0.788978 0
M  V30 2848 H 262.145 -1.41535 0.400794 0
M  V30 2849 H 264.103 -3.90596 -1.46597 0
M  V30 2850 H 262.733 -2.77851 -1.64312 0
M  V30 2851 H 261.785 -3.76131 0.568285 0
M  V30 2852 H 263.097 -4.96003 0.527504 0
M  V30 2853 H 262.251 -5.83565 -1.65943 0
M  V30 2854 H 260.99 -4.57112 -1.69999 0
M  V30 2855 H 259.995 -5.48215 0.417187 0
M  V30 2856 H 261.22 -6.77668 0.440784 0
M  V30 2857 H 259.166 -6.3205 -1.75638 0
M  V30 2858 H 259.083 -7.54146 -0.529125 0
M  V30 2859 H 260.351 -7.60362 -1.71667 0
M  V30 2860 N 264.58 -0.43555 -1.51462 0
M  V30 2861 C 265.991 0.0279871 -1.86679 0
M  V30 2862 C 266.342 1.42104 -1.35281 0
M  V30 2863 O 265.467 2.04667 -0.702878 0
M  V30 2864 C 266.062 0.0575626 -3.38751 0
M  V30 2865 C 264.621 0.465507 -3.7351 0
M  V30 2866 C 263.768 -0.342996 -2.75171 0
M  V30 2867 H 266.719 -0.651473 -1.44712 0
M  V30 2868 H 266.74 0.867421 -3.70481 0
M  V30 2869 H 266.252 -0.956448 -3.7613 0
M  V30 2870 H 264.353 1.48519 -3.41721 0
M  V30 2871 H 264.466 0.191546 -4.78717 0
M  V30 2872 H 262.83 0.198442 -2.53926 0
M  V30 2873 H 263.613 -1.35585 -3.15391 0
M  V30 2874 N 266.058 1.56714 -0.166846 0
M  V30 2875 C 267.305 1.96747 0.479252 0
M  V30 2876 C 267.633 1.05263 1.63554 0
M  V30 2877 O 266.888 0.0858098 1.95512 0
M  V30 2878 C 267.187 3.42889 1.00806 0
M  V30 2879 C 266.853 4.50889 -0.0318574 0
M  V30 2880 C 265.515 4.8015 -0.317675 0
M  V30 2881 C 267.867 5.15949 -0.737956 0
M  V30 2882 C 265.195 5.71772 -1.31506 0
M  V30 2883 C 267.547 6.08647 -1.72429 0
M  V30 2884 C 266.211 6.36277 -2.0176 0
M  V30 2885 H 265.481 0.719949 0.175371 0
M  V30 2886 H 268.128 1.89756 -0.257864 0
M  V30 2887 H 266.433 3.4681 1.82291 0
M  V30 2888 H 268.13 3.71203 1.51689 0
M  V30 2889 H 264.72 4.28128 0.201088 0
M  V30 2890 H 268.904 4.93458 -0.530351 0
M  V30 2891 H 264.16 5.91465 -1.54853 0
M  V30 2892 H 268.334 6.58129 -2.27682 0
M  V30 2893 H 265.961 7.07075 -2.79194 0
M  V30 2894 N 267.536 -0.106894 1.57237 0
M  V30 2895 C 268.813 -0.843526 1.76477 0
M  V30 2896 C 269.193 -1.97499 0.745464 0
M  V30 2897 O 268.541 -2.27357 -0.228306 0
M  V30 2898 C 268.751 -1.34903 3.21873 0
M  V30 2899 C 270.099 -1.79654 3.8472 0
M  V30 2900 O 271.123 -1.44554 3.2555 0
M  V30 2901 O 269.982 -2.44515 4.88748 0
M  V30 2902 H 267.076 -0.401468 0.723016 0
M  V30 2903 H 269.622 -0.0896927 1.69463 0
M  V30 2904 H 268.394 -0.53781 3.87586 0
M  V30 2905 H 268.017 -2.16522 3.33473 0
M  V30 2906 N 269.014 -1.53014 -0.377408 0
M  V30 2907 C 269.946 -1.74884 -1.48149 0
M  V30 2908 C 270.959 -0.629433 -1.5014 0
M  V30 2909 O 272.148 -0.905416 -1.53833 0
M  V30 2910 C 269.248 -1.80299 -2.86959 0
M  V30 2911 C 268.421 -3.09776 -3.08801 0
M  V30 2912 C 267.48 -3.06586 -4.27658 0
M  V30 2913 O 266.506 -3.80419 -4.23403 0
M  V30 2914 N 267.708 -2.26578 -5.34455 0
M  V30 2915 H 270.473 -2.70147 -1.29771 0
M  V30 2916 H 268.034 -1.51646 -0.56703 0
M  V30 2917 H 270.026 -1.75657 -3.64591 0
M  V30 2918 H 268.596 -0.92372 -2.98641 0
M  V30 2919 H 267.816 -3.27815 -2.18931 0
M  V30 2920 H 269.104 -3.95366 -3.20255 0
M  V30 2921 H 268.502 -1.66081 -5.40771 0
M  V30 2922 H 267.059 -2.27766 -6.10709 0
M  V30 2923 N 270.492 0.636531 -1.44174 0
M  V30 2924 C 271.738 1.39826 -1.4689 0
M  V30 2925 C 272.071 1.93947 -0.0990585 0
M  V30 2926 O 271.346 1.73325 0.882544 0
M  V30 2927 C 271.629 2.56751 -2.5249 0
M  V30 2928 C 271.482 2.08014 -3.98811 0
M  V30 2929 C 272.801 3.58946 -2.54649 0
M  V30 2930 H 269.92 0.507075 -0.53483 0
M  V30 2931 H 272.562 0.720188 -1.75822 0
M  V30 2932 H 270.712 3.14597 -2.2795 0
M  V30 2933 H 272.384 1.5504 -4.34466 0
M  V30 2934 H 270.627 1.39242 -4.10846 0
M  V30 2935 H 271.298 2.92169 -4.68339 0
M  V30 2936 H 273.774 3.1089 -2.76563 0
M  V30 2937 H 272.65 4.38286 -3.3045 0
M  V30 2938 H 272.911 4.12655 -1.58646 0
M  V30 2939 N 271.97 1.30982 0.876444 0
M  V30 2940 C 272.9 1.20668 1.99903 0
M  V30 2941 C 273.881 0.095354 1.69833 0
M  V30 2942 O 275.066 0.27885 1.92188 0
M  V30 2943 C 272.196 0.90655 3.3526 0
M  V30 2944 C 271.15 1.97675 3.79617 0
M  V30 2945 C 270.476 1.52943 5.1236 0
M  V30 2946 C 271.776 3.389 3.97422 0
M  V30 2947 H 273.47 2.14586 2.0879 0
M  V30 2948 H 271.016 1.03308 1.00317 0
M  V30 2949 H 272.969 0.821025 4.13324 0
M  V30 2950 H 271.693 -0.0682969 3.26529 0
M  V30 2951 H 270.352 2.05205 3.03787 0
M  V30 2952 H 270 0.54262 5.00065 0
M  V30 2953 H 269.7 2.24532 5.43009 0
M  V30 2954 H 271.224 1.45786 5.92941 0
M  V30 2955 H 272.638 3.34081 4.659 0
M  V30 2956 H 271.035 4.0865 4.3946 0
M  V30 2957 H 272.105 3.80163 3.01006 0
M  V30 2958 N 273.449 -1.08991 1.13837 0
M  V30 2959 C 274.359 -2.19301 0.833333 0
M  V30 2960 C 275.375 -1.73026 -0.183847 0
M  V30 2961 O 276.551 -2.01395 -0.0138092 0
M  V30 2962 C 273.616 -3.45323 0.308651 0
M  V30 2963 C 272.677 -4.06255 1.38764 0
M  V30 2964 C 271.91 -5.26262 0.887896 0
M  V30 2965 O 272.133 -5.69747 -0.27287 0
M  V30 2966 O 271.067 -5.78435 1.66421 0
M  V30 2967 H 274.893 -2.47854 1.75506 0
M  V30 2968 H 272.478 -1.18012 0.916166 0
M  V30 2969 H 274.36 -4.21394 0.0216739 0
M  V30 2970 H 273.035 -3.18362 -0.585431 0
M  V30 2971 H 271.942 -3.318 1.72799 0
M  V30 2972 H 273.275 -4.37452 2.25602 0
M  V30 2973 N 274.927 -0.932562 -1.27047 0
M  V30 2974 C 275.874 -0.434072 -2.26681 0
M  V30 2975 C 276.844 0.501639 -1.58344 0
M  V30 2976 O 278.029 0.419734 -1.86126 0
M  V30 2977 C 275.169 0.30261 -3.43771 0
M  V30 2978 C 274.282 -0.667774 -4.26808 0
M  V30 2979 C 273.417 0.0892393 -5.31125 0
M  V30 2980 C 272.456 -0.873532 -6.05835 0
M  V30 2981 N 271.593 -0.148832 -7.01942 0
M  V30 2982 H 276.433 -1.28868 -2.68695 0
M  V30 2983 H 273.97 -0.646713 -1.32121 0
M  V30 2984 H 275.928 0.746092 -4.10474 0
M  V30 2985 H 274.558 1.12142 -3.02695 0
M  V30 2986 H 273.61 -1.22978 -3.59973 0
M  V30 2987 H 274.922 -1.40337 -4.78651 0
M  V30 2988 H 274.076 0.592409 -6.03801 0
M  V30 2989 H 272.815 0.85777 -4.80097 0
M  V30 2990 H 271.82 -1.38791 -5.31994 0
M  V30 2991 H 273.045 -1.64193 -6.58952 0
M  V30 2992 H 270.991 0.601365 -6.53238 0
M  V30 2993 H 270.908 -0.82391 -7.51497 0
M  V30 2994 H 272.176 0.333527 -7.78786 0
M  V30 2995 N 276.405 1.4127 -0.698611 0
M  V30 2996 C 277.654 2.00408 -0.227949 0
M  V30 2997 C 277.967 1.55981 1.18023 0
M  V30 2998 O 279.173 2.07699 1.74852 0
M  V30 2999 C 277.629 3.58129 -0.356636 0
M  V30 3000 C 277.237 4.11536 -1.77037 0
M  V30 3001 C 278.981 4.24466 0.0540969 0
M  V30 3002 C 276.888 5.61701 -1.85055 0
M  V30 3003 H 275.818 0.749586 -0.0814657 0
M  V30 3004 H 278.469 1.61713 -0.867249 0
M  V30 3005 H 276.851 3.94442 0.350965 0
M  V30 3006 H 278.025 3.86636 -2.50698 0
M  V30 3007 H 276.34 3.57736 -2.13105 0
M  V30 3008 H 278.937 5.34698 0.0146723 0
M  V30 3009 H 279.28 4.01687 1.09332 0
M  V30 3010 H 279.813 3.93198 -0.603337 0
M  V30 3011 H 276.552 5.89312 -2.8704 0
M  V30 3012 H 276.072 5.88519 -1.15783 0
M  V30 3013 H 277.751 6.26524 -1.61484 0
M  V30 3014 N 277.883 0.443576 1.51229 0
M  V30 3015 C 279.132 -0.122332 2.01329 0
M  V30 3016 C 279.445 -1.43237 1.33201 0
M  V30 3017 O 280.651 -2.0816 1.74304 0
M  V30 3018 C 279.107 -0.268551 3.58897 0
M  V30 3019 C 278.715 1.03142 4.35965 0
M  V30 3020 C 280.459 -0.787894 4.17124 0
M  V30 3021 C 278.366 0.850504 5.85252 0
M  V30 3022 H 277.296 -0.0494929 0.752374 0
M  V30 3023 H 279.947 0.574289 1.74282 0
M  V30 3024 H 278.329 -1.02832 3.82415 0
M  V30 3025 H 279.503 1.80001 4.24189 0
M  V30 3026 H 277.818 1.47977 3.89219 0
M  V30 3027 H 280.415 -0.939841 5.26375 0
M  V30 3028 H 280.758 -1.77201 3.76703 0
M  V30 3029 H 281.291 -0.0862669 3.97706 0
M  V30 3030 H 278.03 1.80718 6.30096 0
M  V30 3031 H 277.55 0.121825 5.99676 0
M  V30 3032 H 279.229 0.506163 6.45017 0
M  V30 3033 N 279.361 -1.56624 0.175154 0
M  V30 3034 C 280.608 -1.96999 -0.468811 0
M  V30 3035 C 280.936 -1.06129 -1.62994 0
M  V30 3036 O 280.191 -0.0961771 -1.95464 0
M  V30 3037 C 280.49 -3.43419 -0.989864 0
M  V30 3038 C 280.156 -4.50866 0.0557687 0
M  V30 3039 C 278.818 -4.79975 0.343134 0
M  V30 3040 C 281.17 -5.15551 0.765308 0
M  V30 3041 C 278.498 -5.71066 1.34536 0
M  V30 3042 C 280.85 -6.07724 1.75654 0
M  V30 3043 C 279.514 -6.35199 2.05132 0
M  V30 3044 H 278.784 -0.720869 -0.17155 0
M  V30 3045 H 281.431 -1.89616 0.267924 0
M  V30 3046 H 279.736 -3.47772 -1.80449 0
M  V30 3047 H 281.433 -3.72002 -1.49719 0
M  V30 3048 H 278.023 -4.28229 -0.178381 0
M  V30 3049 H 282.207 -4.9317 0.556513 0
M  V30 3050 H 277.463 -5.90635 1.57988 0
M  V30 3051 H 281.637 -6.56912 2.31169 0
M  V30 3052 H 279.264 -7.05584 2.8294 0
M  V30 3053 N 280.839 0.0985539 -1.57292 0
M  V30 3054 C 282.25 0.653457 -1.74891 0
M  V30 3055 C 282.601 1.7929 -0.796838 0
M  V30 3056 O 281.726 2.16385 0.0254886 0
M  V30 3057 C 282.321 1.19216 -3.17133 0
M  V30 3058 C 280.88 1.69316 -3.36168 0
M  V30 3059 C 280.027 0.601294 -2.70702 0
M  V30 3060 H 282.978 -0.127497 -1.58187 0
M  V30 3061 H 282.999 2.06154 -3.19814 0
M  V30 3062 H 282.511 0.362635 -3.86402 0
M  V30 3063 H 280.612 2.5468 -2.71972 0
M  V30 3064 H 280.725 1.78853 -4.44464 0
M  V30 3065 H 279.089 1.0399 -2.32504 0
M  V30 3066 H 279.872 -0.217592 -3.4261 0
M  V30 3067 N 282.317 1.53212 0.369288 0
M  V30 3068 C 283.28 1.7872 1.43498 0
M  V30 3069 C 284.28 0.657554 1.46741 0
M  V30 3070 O 285.47 0.925736 1.47566 0
M  V30 3071 C 282.602 1.90591 2.82645 0
M  V30 3072 H 283.795 2.73894 1.22156 0
M  V30 3073 H 281.348 1.44233 0.602203 0
M  V30 3074 H 282.083 0.974709 3.09306 0
M  V30 3075 H 281.868 2.72751 2.8169 0
M  V30 3076 H 283.358 2.11931 3.59826 0
M  V30 3077 N 283.795 -0.628877 1.44509 0
M  V30 3078 C 284.725 -1.75187 1.54376 0
M  V30 3079 C 285.706 -1.65411 0.396618 0
M  V30 3080 O 286.891 -1.84137 0.617031 0
M  V30 3081 C 284.021 -3.13725 1.48976 0
M  V30 3082 C 282.975 -3.38291 2.62189 0
M  V30 3083 C 282.301 -4.76883 2.41841 0
M  V30 3084 C 283.601 -3.30632 4.04326 0
M  V30 3085 H 285.295 -1.67187 2.48373 0
M  V30 3086 H 282.841 -0.802909 1.19538 0
M  V30 3087 H 284.794 -3.92064 1.54478 0
M  V30 3088 H 283.518 -3.22515 0.514961 0
M  V30 3089 H 282.177 -2.62334 2.56079 0
M  V30 3090 H 281.825 -4.82378 1.42548 0
M  V30 3091 H 281.525 -4.94278 3.17747 0
M  V30 3092 H 283.049 -5.57449 2.49165 0
M  V30 3093 H 284.463 -3.98873 4.11793 0
M  V30 3094 H 282.86 -3.59561 4.80454 0
M  V30 3095 H 283.93 -2.28404 4.27738 0
M  V30 3096 N 285.273 -1.31445 -0.869486 0
M  V30 3097 C 286.521 -1.20918 -1.61936 0
M  V30 3098 C 286.842 0.232683 -1.93607 0
M  V30 3099 O 286.112 1.15352 -1.58338 0
M  V30 3100 H 284.692 -0.44454 -0.600328 0
M  V30 3101 H 287.354 -1.64776 -1.0409 0
M  V30 3102 H 286.45 -1.78124 -2.56278 0
M  V30 3103 N 286.751 1.08385 -1.14413 0
M  V30 3104 C 287.681 2.17321 -0.854044 0
M  V30 3105 C 288.662 1.69024 0.191049 0
M  V30 3106 O 289.847 1.94141 0.0476779 0
M  V30 3107 C 286.977 3.45719 -0.330983 0
M  V30 3108 C 285.931 4.07409 -1.31155 0
M  V30 3109 C 285.257 5.30762 -0.64778 0
M  V30 3110 C 286.557 4.48665 -2.67388 0
M  V30 3111 H 288.251 2.41845 -1.76498 0
M  V30 3112 H 285.797 1.16233 -0.850051 0
M  V30 3113 H 287.75 4.21241 -0.115645 0
M  V30 3114 H 286.474 3.2075 0.615381 0
M  V30 3115 H 285.133 3.33919 -1.51306 0
M  V30 3116 H 284.781 5.02078 0.304398 0
M  V30 3117 H 284.481 5.72992 -1.30207 0
M  V30 3118 H 286.005 6.08998 -0.441972 0
M  V30 3119 H 287.419 5.15364 -2.51143 0
M  V30 3120 H 285.816 5.01814 -3.29093 0
M  V30 3121 H 286.886 3.60543 -3.24248 0
M  V30 3122 N 288.23 0.939286 1.26551 0
M  V30 3123 C 289.177 0.446088 2.26448 0
M  V30 3124 C 290.147 -0.493234 1.58608 0
M  V30 3125 O 291.332 -0.409857 1.86346 0
M  V30 3126 C 288.472 -0.284375 3.43926 0
M  V30 3127 C 287.585 0.690399 4.26448 0
M  V30 3128 C 286.72 -0.0610712 5.31165 0
M  V30 3129 C 285.759 0.905649 6.05363 0
M  V30 3130 N 284.896 0.186055 7.01853 0
M  V30 3131 H 289.736 1.30291 2.68008 0
M  V30 3132 H 287.273 0.65371 1.31776 0
M  V30 3133 H 289.231 -0.724313 4.10864 0
M  V30 3134 H 287.861 -1.10535 3.03285 0
M  V30 3135 H 286.913 1.24885 3.59316 0
M  V30 3136 H 288.225 1.42873 4.779 0
M  V30 3137 H 287.379 -0.56038 6.04106 0
M  V30 3138 H 286.118 -0.832297 4.80546 0
M  V30 3139 H 285.123 1.4161 5.3125 0
M  V30 3140 H 286.348 1.67685 6.58072 0
M  V30 3141 H 284.294 -0.566714 6.53548 0
M  V30 3142 H 284.211 0.863752 7.51049 0
M  V30 3143 H 285.479 -0.292221 7.78952 0
M  V30 3144 N 289.708 -1.40897 0.706093 0
M  V30 3145 C 290.658 -2.27987 0.0240746 0
M  V30 3146 C 291.642 -1.42759 -0.742204 0
M  V30 3147 O 292.834 -1.65936 -0.615966 0
M  V30 3148 C 289.963 -3.31186 -0.903907 0
M  V30 3149 C 289.049 -4.2389 -0.133318 0
M  V30 3150 N 289.44 -4.98113 0.878444 0
M  V30 3151 C 287.738 -4.44485 -0.367269 0
M  V30 3152 C 288.439 -5.6604 1.34064 0
M  V30 3153 N 287.415 -5.39522 0.664565 0
M  V30 3154 H 291.217 -2.82812 0.799658 0
M  V30 3155 H 288.731 -1.53235 0.537845 0
M  V30 3156 H 290.728 -3.92413 -1.40775 0
M  V30 3157 H 289.388 -2.77922 -1.67897 0
M  V30 3158 H 290.399 -5.02364 1.25901 0
M  V30 3159 H 287.076 -4.02213 -1.1194 0
M  V30 3160 H 288.466 -6.35524 2.1808 0
M  V30 3161 N 291.186 -0.45159 -1.50991 0
M  V30 3162 C 292.411 0.110667 -2.07105 0
M  V30 3163 C 292.836 1.3446 -1.31538 0
M  V30 3164 O 292.194 1.77743 -0.357365 0
M  V30 3165 C 292.242 0.397238 -3.58405 0
M  V30 3166 O 291.346 1.48124 -3.84881 0
M  V30 3167 H 290.687 -0.00439271 -0.663985 0
M  V30 3168 H 293.217 -0.637026 -1.9443 0
M  V30 3169 H 293.227 0.64351 -4.02893 0
M  V30 3170 H 291.902 -0.504553 -4.12828 0
M  V30 3171 H 290.479 1.22381 -3.52246 0
M  V30 3172 N 292.664 1.56529 -0.183458 0
M  V30 3173 C 293.894 2.01331 0.463612 0
M  V30 3174 C 294.302 1.06278 1.5653 0
M  V30 3175 O 293.645 0.0577976 1.83609 0
M  V30 3176 C 293.707 3.42547 1.09096 0
M  V30 3177 C 293.371 4.56817 0.129442 0
M  V30 3178 C 294.368 5.15734 -0.656807 0
M  V30 3179 C 292.053 5.02295 0.02174 0
M  V30 3180 C 294.047 6.1857 -1.53784 0
M  V30 3181 C 291.734 6.04978 -0.862864 0
M  V30 3182 C 292.732 6.62988 -1.64123 0
M  V30 3183 O 292.42 7.63677 -2.51103 0
M  V30 3184 H 292.152 0.664917 0.121907 0
M  V30 3185 H 294.706 2.034 -0.285954 0
M  V30 3186 H 292.936 3.37428 1.88889 0
M  V30 3187 H 294.625 3.71228 1.64148 0
M  V30 3188 H 295.391 4.81473 -0.583839 0
M  V30 3189 H 291.27 4.56847 0.617392 0
M  V30 3190 H 294.814 6.63777 -2.14583 0
M  V30 3191 H 290.711 6.38663 -0.93699 0
M  V30 3192 H 291.479 7.81049 -2.44753 0
M  V30 3193 N 294.142 -0.090211 1.57342 0
M  V30 3194 C 295.388 -0.793982 1.86611 0
M  V30 3195 C 295.721 -1.78142 0.773252 0
M  V30 3196 O 294.996 -1.93271 -0.218304 0
M  V30 3197 C 295.279 -1.51839 3.26523 0
M  V30 3198 C 295.132 -0.548609 4.46442 0
M  V30 3199 C 296.451 -2.46779 3.64401 0
M  V30 3200 H 293.57 -0.287186 0.678744 0
M  V30 3201 H 296.212 -0.0575076 1.89913 0
M  V30 3202 H 294.362 -2.14617 3.23839 0
M  V30 3203 H 296.034 0.0725513 4.61243 0
M  V30 3204 H 294.277 0.137614 4.33582 0
M  V30 3205 H 294.948 -1.09271 5.41076 0
M  V30 3206 H 297.424 -1.94089 3.68061 0
M  V30 3207 H 296.3 -2.94479 4.63221 0
M  V30 3208 H 296.561 -3.30758 2.93346 0
M  V30 3209 N 295.62 -1.53406 -0.361157 0
M  V30 3210 C 296.568 -1.80832 -1.46296 0
M  V30 3211 C 297.562 -0.677699 -1.55253 0
M  V30 3212 O 298.768 -0.860723 -1.58087 0
M  V30 3213 H 295.143 -0.572627 -0.487445 0
M  V30 3214 H 297.114 -2.73045 -1.20371 0
M  V30 3215 C 295.863 -2.01907 -2.8307 0
M  V30 3216 H 295.186 -2.88349 -2.76938 0
M  V30 3217 H 296.626 -2.25072 -3.59331 0
M  V30 3218 C 295.085 -0.799449 -3.27277 0
M  V30 3219 O 295.615 0.00971761 -4.01699 0
M  V30 3220 N 293.821 -0.621637 -2.83873 0
M  V30 3221 H 293.368 -1.28126 -2.23476 0
M  V30 3222 H 293.326 0.19298 -3.13807 0
M  V30 3223 N 297.098 0.621204 -1.44841 0
M  V30 3224 C 298.344 1.3826 -1.48365 0
M  V30 3225 C 298.677 1.93831 -0.119624 0
M  V30 3226 O 297.952 1.74251 0.864111 0
M  V30 3227 C 298.235 2.54058 -2.55199 0
M  V30 3228 C 298.088 2.03772 -4.00995 0
M  V30 3229 C 299.407 3.56225 -2.58442 0
M  V30 3230 H 296.526 0.501374 -0.540179 0
M  V30 3231 H 299.168 0.7015 -1.76576 0
M  V30 3232 H 297.318 3.12162 -2.31274 0
M  V30 3233 H 298.99 1.50423 -4.36086 0
M  V30 3234 H 297.233 1.34876 -4.12299 0
M  V30 3235 H 297.904 2.87185 -4.71411 0
M  V30 3236 H 300.38 3.07939 -2.79844 0
M  V30 3237 H 299.256 4.34756 -3.3508 0
M  V30 3238 H 299.517 4.10949 -1.63013 0
M  V30 3239 N 298.576 1.31904 0.862503 0
M  V30 3240 C 299.539 1.20131 1.95195 0
M  V30 3241 C 300.539 0.126409 1.60302 0
M  V30 3242 O 301.729 0.376234 1.70089 0
M  V30 3243 C 298.861 0.845691 3.30244 0
M  V30 3244 H 300.054 2.16943 2.07064 0
M  V30 3245 H 297.607 1.15622 1.05172 0
M  V30 3246 H 298.342 -0.120957 3.24074 0
M  V30 3247 H 298.127 1.62276 3.56944 0
M  V30 3248 H 299.617 0.787418 4.10109 0
M  V30 3249 N 300.054 -1.07777 1.14986 0
M  V30 3250 C 301.001 -2.14867 0.842672 0
M  V30 3251 C 301.971 -1.6486 -0.202552 0
M  V30 3252 O 303.156 -1.90668 -0.0710568 0
M  V30 3253 C 300.296 -3.43486 0.333363 0
M  V30 3254 C 299.409 -4.07306 1.43965 0
M  V30 3255 C 298.544 -5.23744 0.886914 0
M  V30 3256 C 297.583 -5.79517 1.97043 0
M  V30 3257 N 296.72 -6.87291 1.4344 0
M  V30 3258 H 301.56 -2.40485 1.75986 0
M  V30 3259 H 299.097 -1.1801 0.878179 0
M  V30 3260 H 301.055 -4.17195 0.0198163 0
M  V30 3261 H 299.685 -3.18133 -0.546916 0
M  V30 3262 H 298.737 -3.31293 1.86946 0
M  V30 3263 H 300.049 -4.44771 2.25788 0
M  V30 3264 H 299.203 -6.04419 0.525651 0
M  V30 3265 H 297.942 -4.87685 0.0377957 0
M  V30 3266 H 296.947 -4.97491 2.34057 0
M  V30 3267 H 298.172 -6.17632 2.82325 0
M  V30 3268 H 296.118 -6.5318 0.607567 0
M  V30 3269 H 296.035 -7.23617 2.18895 0
M  V30 3270 H 297.303 -7.71682 1.10124 0
M  V30 3271 N 301.532 -0.945985 -1.26051 0
M  V30 3272 C 302.76 -0.613025 -1.9761 0
M  V30 3273 C 303.175 0.813035 -1.70397 0
M  V30 3274 O 302.532 1.54274 -0.974979 0
M  V30 3275 C 302.583 -0.85159 -3.51326 0
M  V30 3276 O 302.304 -2.22157 -3.77595 0
M  V30 3277 C 303.805 -0.529831 -4.40122 0
M  V30 3278 H 301.025 -0.230593 -0.630133 0
M  V30 3279 H 303.569 -1.268 -1.60443 0
M  V30 3280 H 301.724 -0.243151 -3.86636 0
M  V30 3281 H 302.138 -2.2852 -4.721 0
M  V30 3282 H 303.612 -0.747348 -5.46917 0
M  V30 3283 H 304.089 0.535341 -4.35925 0
M  V30 3284 H 304.695 -1.11721 -4.10364 0
M  V30 3285 N 303.011 1.40521 -0.713556 0
M  V30 3286 C 303.943 2.29191 -0.0203126 0
M  V30 3287 C 304.956 1.45723 0.725864 0
M  V30 3288 O 306.145 1.69033 0.573581 0
M  V30 3289 C 303.245 3.2395 0.995486 0
M  V30 3290 C 302.418 4.36262 0.315256 0
M  V30 3291 C 301.477 5.11474 1.23616 0
M  V30 3292 O 300.503 5.64606 0.721719 0
M  V30 3293 N 301.705 5.20638 2.56743 0
M  V30 3294 H 304.47 2.89327 -0.781652 0
M  V30 3295 H 302.031 1.51869 -0.561022 0
M  V30 3296 H 304.023 3.71137 1.61368 0
M  V30 3297 H 302.593 2.64995 1.6582 0
M  V30 3298 H 301.813 3.91228 -0.483106 0
M  V30 3299 H 303.101 5.08558 -0.157004 0
M  V30 3300 H 302.499 4.7895 3.01037 0
M  V30 3301 H 301.056 5.71339 3.13712 0
M  V30 3302 N 304.489 0.459591 1.5075 0
M  V30 3303 C 305.422 -0.386257 2.24907 0
M  V30 3304 C 306.4 -1.006 1.27744 0
M  V30 3305 O 307.584 -1.04416 1.56938 0
M  V30 3306 C 304.711 -1.54021 3.01654 0
M  V30 3307 C 303.757 -1.03898 4.13651 0
M  V30 3308 S 304.59 0.0370501 5.35487 0
M  V30 3309 C 305.746 -1.12105 6.15779 0
M  V30 3310 H 305.979 0.243272 2.96303 0
M  V30 3311 H 303.512 0.244339 1.52454 0
M  V30 3312 H 305.47 -2.20163 3.46466 0
M  V30 3313 H 304.131 -2.14121 2.29806 0
M  V30 3314 H 303.324 -1.90254 4.66711 0
M  V30 3315 H 302.926 -0.45545 3.71216 0
M  V30 3316 H 305.218 -2.03501 6.46215 0
M  V30 3317 H 306.161 -0.62995 7.05292 0
M  V30 3318 H 306.569 -1.36967 5.47631 0
M  V30 3319 N 305.967 -1.56429 0.191757 0
M  V30 3320 C 306.899 -2.16154 -0.762245 0
M  V30 3321 C 307.912 -1.12247 -1.17917 0
M  V30 3322 O 309.101 -1.39353 -1.11548 0
M  V30 3323 C 306.201 -2.70606 -2.04024 0
M  V30 3324 C 305.374 -3.99381 -1.78364 0
M  V30 3325 C 304.433 -4.38692 -2.90578 0
M  V30 3326 O 303.459 -5.06179 -2.6033 0
M  V30 3327 N 304.661 -4.01922 -4.18854 0
M  V30 3328 H 307.426 -2.98643 -0.251526 0
M  V30 3329 H 304.987 -1.61897 0.00967373 0
M  V30 3330 H 306.979 -2.93891 -2.78227 0
M  V30 3331 H 305.549 -1.9259 -2.46227 0
M  V30 3332 H 304.769 -3.84262 -0.879581 0
M  V30 3333 H 306.057 -4.83445 -1.58614 0
M  V30 3334 H 305.455 -3.47631 -4.46283 0
M  V30 3335 H 304.012 -4.30165 -4.89695 0
M  V30 3336 N 307.445 0.0818655 -1.57387 0
M  V30 3337 C 308.393 1.11712 -2.04018 0
M  V30 3338 C 309.387 1.40683 -0.94364 0
M  V30 3339 O 310.593 1.40209 -1.12878 0
M  V30 3340 H 306.968 0.377542 -0.650358 0
M  V30 3341 H 308.939 0.697614 -2.90131 0
M  V30 3342 C 307.688 2.42537 -2.49141 0
M  V30 3343 H 307.011 2.21092 -3.33104 0
M  V30 3344 H 308.451 3.13446 -2.85531 0
M  V30 3345 C 306.91 3.0778 -1.37014 0
M  V30 3346 O 307.44 3.95436 -0.706621 0
M  V30 3347 N 305.646 2.68242 -1.11779 0
M  V30 3348 H 305.193 1.97052 -1.65917 0
M  V30 3349 H 305.151 3.1222 -0.369594 0
M  V30 3350 N 308.923 1.53595 0.353017 0
M  V30 3351 C 310.153 1.74058 1.11299 0
M  V30 3352 C 310.561 0.475205 1.83135 0
M  V30 3353 O 309.904 -0.562344 1.74881 0
M  V30 3354 C 309.966 2.85994 2.17825 0
M  V30 3355 C 309.63 4.25923 1.65647 0
M  V30 3356 C 310.627 5.07829 1.11383 0
M  V30 3357 C 308.312 4.72377 1.7078 0
M  V30 3358 C 310.306 6.34285 0.629439 0
M  V30 3359 C 307.993 5.98808 1.21953 0
M  V30 3360 C 308.991 6.79594 0.681265 0
M  V30 3361 O 308.679 8.03651 0.200248 0
M  V30 3362 H 308.411 0.585327 0.338183 0
M  V30 3363 H 310.965 2.01186 0.413927 0
M  V30 3364 H 309.195 2.54368 2.91262 0
M  V30 3365 H 310.884 2.94515 2.79313 0
M  V30 3366 H 311.65 4.73107 1.06746 0
M  V30 3367 H 307.529 4.0956 2.11617 0
M  V30 3368 H 311.073 6.97288 0.208636 0
M  V30 3369 H 306.97 6.33026 1.26287 0
M  V30 3370 H 307.738 8.1788 0.318416 0
M  V30 3371 N 310.401 -0.613514 1.45168 0
M  V30 3372 C 311.364 -1.7065 1.53007 0
M  V30 3373 C 312.364 -1.5548 0.410184 0
M  V30 3374 O 313.554 -1.60656 0.673455 0
M  V30 3375 C 310.686 -3.09875 1.42093 0
M  V30 3376 H 311.879 -1.65068 2.50385 0
M  V30 3377 H 309.432 -0.828728 1.32521 0
M  V30 3378 H 310.167 -3.21039 0.458769 0
M  V30 3379 H 309.952 -3.22293 2.23315 0
M  V30 3380 H 311.442 -3.895 1.50598 0
M  V30 3381 N 311.879 -1.3236 -0.855495 0
M  V30 3382 C 313.126 -1.22872 -1.60962 0
M  V30 3383 C 313.454 0.209658 -1.93367 0
M  V30 3384 O 312.709 1.16243 -1.57436 0
M  V30 3385 C 313.008 -2.03275 -2.93963 0
M  V30 3386 C 312.674 -3.5264 -2.80991 0
M  V30 3387 C 311.336 -3.93364 -2.7716 0
M  V30 3388 C 313.688 -4.47626 -2.66983 0
M  V30 3389 C 311.016 -5.27319 -2.572 0
M  V30 3390 C 313.368 -5.81723 -2.48558 0
M  V30 3391 C 312.032 -6.2165 -2.4312 0
M  V30 3392 H 311.302 -0.44962 -0.589001 0
M  V30 3393 H 313.949 -1.63777 -0.992442 0
M  V30 3394 H 312.254 -1.55095 -3.59795 0
M  V30 3395 H 313.951 -1.93303 -3.51333 0
M  V30 3396 H 310.541 -3.20295 -2.84797 0
M  V30 3397 H 314.725 -4.17084 -2.68988 0
M  V30 3398 H 309.981 -5.57311 -2.51424 0
M  V30 3399 H 314.155 -6.5494 -2.36699 0
M  V30 3400 H 311.782 -7.25388 -2.27412 0
M  V30 3401 N 313.357 1.07166 -1.15556 0
M  V30 3402 C 314.605 1.79443 -0.929764 0
M  V30 3403 C 314.926 1.87246 0.544414 0
M  V30 3404 O 314.196 1.37473 1.39564 0
M  V30 3405 H 312.776 0.664625 -0.341003 0
M  V30 3406 H 315.438 1.29499 -1.45657 0
M  V30 3407 H 314.534 2.81832 -1.34079 0
M  V30 3408 N 314.835 0.952656 1.25548 0
M  V30 3409 C 316.065 0.622592 1.96996 0
M  V30 3410 C 316.473 -0.809112 1.71026 0
M  V30 3411 O 315.816 -1.55258 0.981861 0
M  V30 3412 C 315.878 0.798946 3.5051 0
M  V30 3413 C 315.542 2.20744 4.00151 0
M  V30 3414 C 316.539 3.18394 4.11001 0
M  V30 3415 C 314.224 2.5311 4.33867 0
M  V30 3416 C 316.218 4.46504 4.54877 0
M  V30 3417 C 313.905 3.8145 4.7743 0
M  V30 3418 C 314.903 4.77959 4.87897 0
M  V30 3419 O 314.591 6.04012 5.30494 0
M  V30 3420 H 314.323 0.232503 0.634758 0
M  V30 3421 H 316.877 1.2789 1.60728 0
M  V30 3422 H 315.107 0.0854903 3.86605 0
M  V30 3423 H 316.796 0.47023 4.03167 0
M  V30 3424 H 317.562 2.94715 3.85186 0
M  V30 3425 H 313.441 1.78719 4.24948 0
M  V30 3426 H 316.985 5.21835 4.62962 0
M  V30 3427 H 312.882 4.04936 5.0269 0
M  V30 3428 H 313.65 6.0736 5.48685 0
M  V30 3429 N 316.313 -1.40141 0.720998 0
M  V30 3430 C 317.261 -2.3252 0.0608547 0
M  V30 3431 C 318.255 -1.52326 -0.741152 0
M  V30 3432 O 319.461 -1.68089 -0.643911 0
M  V30 3433 H 315.836 -0.751999 0.000876664 0
M  V30 3434 H 317.807 -2.8584 0.856614 0
M  V30 3435 C 316.556 -3.37331 -0.842809 0
M  V30 3436 H 315.879 -3.99108 -0.235084 0
M  V30 3437 H 317.319 -4.04452 -1.27257 0
M  V30 3438 C 315.778 -2.73246 -1.97074 0
M  V30 3439 O 316.308 -2.59998 -3.06209 0
M  V30 3440 N 314.514 -2.31547 -1.75597 0
M  V30 3441 H 314.061 -2.42522 -0.868368 0
M  V30 3442 H 314.019 -1.89007 -2.51244 0
M  V30 3443 N 317.792 -0.46758 -1.50504 0
M  V30 3444 C 318.724 0.364655 -2.26281 0
M  V30 3445 C 319.737 0.960151 -1.31472 0
M  V30 3446 O 320.926 0.849153 -1.57008 0
M  V30 3447 C 318.026 1.52509 -3.02645 0
M  V30 3448 C 317.199 1.04302 -4.24782 0
M  V30 3449 C 316.258 2.07709 -4.8347 0
M  V30 3450 O 315.284 1.65913 -5.44483 0
M  V30 3451 N 316.486 3.40485 -4.70159 0
M  V30 3452 H 319.251 -0.28495 -2.98342 0
M  V30 3453 H 316.812 -0.298163 -1.59131 0
M  V30 3454 H 318.804 2.21371 -3.38787 0
M  V30 3455 H 317.374 2.07945 -2.33404 0
M  V30 3456 H 316.594 0.180393 -3.93787 0
M  V30 3457 H 317.882 0.698798 -5.03978 0
M  V30 3458 H 317.28 3.77155 -4.21629 0
M  V30 3459 H 315.837 4.05156 -5.1058 0
M  V30 3460 N 319.27 1.56325 -0.20005 0
M  V30 3461 C 320.18 2.22931 0.730668 0
M  V30 3462 C 321.196 1.22997 1.23076 0
M  V30 3463 O 322.372 1.55748 1.27689 0
M  V30 3464 C 319.437 2.87948 1.93098 0
M  V30 3465 C 318.498 4.03166 1.47497 0
M  V30 3466 C 317.731 4.65073 2.61807 0
M  V30 3467 O 317.954 4.25913 3.79413 0
M  V30 3468 O 316.888 5.54452 2.34237 0
M  V30 3469 H 320.714 3.03084 0.193391 0
M  V30 3470 H 318.299 1.49371 0.0294621 0
M  V30 3471 H 320.181 3.29063 2.6324 0
M  V30 3472 H 318.856 2.10771 2.45677 0
M  V30 3473 H 317.763 3.66664 0.742201 0
M  V30 3474 H 319.096 4.82022 0.995796 0
M  V30 3475 N 320.748 -0.0735177 1.57428 0
M  V30 3476 C 321.696 -1.10628 2.04607 0
M  V30 3477 C 322.69 -1.40181 0.951088 0
M  V30 3478 O 323.896 -1.39608 1.1362 0
M  V30 3479 H 320.271 -0.374088 0.652351 0
M  V30 3480 H 322.242 -0.682218 2.90497 0
M  V30 3481 C 320.991 -2.41212 2.50423 0
M  V30 3482 H 320.314 -2.19322 3.34272 0
M  V30 3483 H 321.754 -3.11927 2.87189 0
M  V30 3484 C 320.213 -3.0705 1.38644 0
M  V30 3485 O 320.743 -3.95056 0.727582 0
M  V30 3486 N 318.949 -2.67645 1.132 0
M  V30 3487 H 318.496 -1.96169 1.66959 0
M  V30 3488 H 318.454 -3.1202 0.386147 0
M  V30 3489 N 322.226 -1.5378 -0.344866 0
M  V30 3490 C 323.158 -1.77988 -1.44406 0
M  V30 3491 C 324.171 -0.661138 -1.48771 0
M  V30 3492 O 325.36 -0.937842 -1.51877 0
M  V30 3493 C 322.46 -1.86345 -2.8307 0
M  V30 3494 C 321.633 -3.16256 -3.0216 0
M  V30 3495 C 320.692 -3.15588 -4.21059 0
M  V30 3496 O 319.718 -3.89314 -4.15239 0
M  V30 3497 N 320.92 -2.37864 -5.29529 0
M  V30 3498 H 323.685 -2.72839 -1.24012 0
M  V30 3499 H 321.246 -1.52814 -0.534737 0
M  V30 3500 H 323.238 -1.83351 -3.60783 0
M  V30 3501 H 321.808 -0.986858 -2.96614 0
M  V30 3502 H 321.028 -3.32385 -2.11929 0
M  V30 3503 H 322.316 -4.0207 -3.11797 0
M  V30 3504 H 321.714 -1.77514 -5.37127 0
M  V30 3505 H 320.271 -2.40668 -6.05741 0
M  V30 3506 N 323.704 0.605807 -1.45491 0
M  V30 3507 C 325.115 1.18777 -1.44045 0
M  V30 3508 C 325.466 1.95471 -0.169001 0
M  V30 3509 O 324.591 2.0374 0.729324 0
M  V30 3510 C 325.186 2.16064 -2.60963 0
M  V30 3511 C 323.745 2.69633 -2.62631 0
M  V30 3512 C 322.892 1.45072 -2.36325 0
M  V30 3513 H 325.843 0.395017 -1.53705 0
M  V30 3514 H 325.864 2.9913 -2.35163 0
M  V30 3515 H 325.376 1.60217 -3.53486 0
M  V30 3516 H 323.477 3.29414 -1.74119 0
M  V30 3517 H 323.59 3.13944 -3.61906 0
M  V30 3518 H 321.954 1.74089 -1.85917 0
M  V30 3519 H 322.737 0.910899 -3.30995 0
M  V30 3520 N 325.182 1.32811 0.848464 0
M  V30 3521 C 326.431 1.23075 1.59798 0
M  V30 3522 C 326.744 -0.204419 1.94529 0
M  V30 3523 O 327.95 -0.423701 2.68173 0
M  V30 3524 C 326.406 2.15594 2.88179 0
M  V30 3525 C 326.014 3.64228 2.60849 0
M  V30 3526 C 327.758 2.14709 3.66197 0
M  V30 3527 C 325.665 4.48689 3.85269 0
M  V30 3528 H 324.595 0.457091 0.599653 0
M  V30 3529 H 327.246 1.57813 0.936342 0
M  V30 3530 H 325.628 1.73778 3.55833 0
M  V30 3531 H 326.802 4.14424 2.01467 0
M  V30 3532 H 325.117 3.67306 1.96151 0
M  V30 3533 H 327.714 2.75046 4.58534 0
M  V30 3534 H 328.057 1.13966 4.00397 0
M  V30 3535 H 328.59 2.54837 3.05455 0
M  V30 3536 H 325.329 5.5027 3.56207 0
M  V30 3537 H 324.849 4.03241 4.44024 0
M  V30 3538 H 326.528 4.62006 4.52946 0
M  V30 3539 N 326.66 -1.06551 1.16123 0
M  V30 3540 C 328.076 -1.3142 0.905585 0
M  V30 3541 C 328.276 -1.96571 -0.442964 0
M  V30 3542 O 327.332 -2.23068 -1.18308 0
M  V30 3543 C 328.645 -2.19741 2.05267 0
M  V30 3544 C 330.193 -2.33165 2.08813 0
M  V30 3545 C 330.668 -3.24838 3.22868 0
M  V30 3546 N 332.159 -3.32421 3.22568 0
M  V30 3547 C 332.894 -4.0344 4.0746 0
M  V30 3548 N 332.39 -4.77003 5.02434 0
M  V30 3549 N 334.183 -3.99464 3.95456 0
M  V30 3550 H 326.334 -0.626548 2.02949 0
M  V30 3551 H 328.597 -0.338777 0.8854 0
M  V30 3552 H 328.303 -1.79142 3.02657 0
M  V30 3553 H 328.177 -3.20313 1.99198 0
M  V30 3554 H 330.564 -2.73013 1.12018 0
M  V30 3555 H 330.645 -1.3227 2.18948 0
M  V30 3556 H 330.289 -2.85708 4.19921 0
M  V30 3557 H 330.219 -4.25707 3.0997 0
M  V30 3558 H 332.71 -2.79994 2.53795 0
M  V30 3559 H 333.023 -5.28712 5.63634 0
M  V30 3560 H 331.368 -4.75992 5.06415 0
M  V30 3561 H 334.559 -3.4111 3.20564 0
M  V30 3562 H 334.732 -4.54544 4.61837 0
M  V30 3563 N 328.138 -0.959301 -1.25041 0
M  V30 3564 C 329.384 -0.617525 -1.9317 0
M  V30 3565 C 329.717 0.843981 -1.74902 0
M  V30 3566 O 328.992 1.60615 -1.09696 0
M  V30 3567 C 329.275 -0.982736 -3.46431 0
M  V30 3568 C 329.128 -2.50032 -3.73904 0
M  V30 3569 C 330.447 -0.511176 -4.37121 0
M  V30 3570 H 327.566 -0.22582 -0.701552 0
M  V30 3571 H 330.208 -1.19679 -1.4757 0
M  V30 3572 H 328.358 -0.489806 -3.854 0
M  V30 3573 H 330.03 -3.06737 -3.44544 0
M  V30 3574 H 328.273 -2.93598 -3.19348 0
M  V30 3575 H 328.944 -2.70635 -4.81103 0
M  V30 3576 H 331.42 -0.934075 -4.0548 0
M  V30 3577 H 330.296 -0.795361 -5.43107 0
M  V30 3578 H 330.557 0.588834 -4.38161 0
M  V30 3579 N 329.616 1.39756 -0.72842 0
M  V30 3580 C 330.564 2.32485 -0.0731849 0
M  V30 3581 C 331.558 1.52717 0.733063 0
M  V30 3582 O 332.764 1.68428 0.634988 0
M  V30 3583 H 329.139 0.751984 -0.00486469 0
M  V30 3584 H 331.11 2.85382 -0.871761 0
M  V30 3585 C 329.859 3.37773 0.824908 0
M  V30 3586 H 329.182 3.99227 0.213915 0
M  V30 3587 H 330.622 4.05121 1.25111 0
M  V30 3588 C 329.081 2.74287 1.95622 0
M  V30 3589 O 329.611 2.61618 3.04826 0
M  V30 3590 N 327.817 2.32475 1.74367 0
M  V30 3591 H 327.364 2.4298 0.855494 0
M  V30 3592 H 327.322 1.90337 2.50238 0
M  V30 3593 N 331.094 0.475555 1.50254 0
M  V30 3594 C 332.505 0.0215174 1.86688 0
M  V30 3595 C 332.856 -1.38467 1.39001 0
M  V30 3596 O 331.981 -2.02732 0.756894 0
M  V30 3597 C 332.576 0.0322715 3.38785 0
M  V30 3598 C 331.135 -0.366314 3.74613 0
M  V30 3599 C 330.282 0.415832 2.74164 0
M  V30 3600 H 333.233 0.689612 1.42934 0
M  V30 3601 H 333.254 -0.76889 3.7265 0
M  V30 3602 H 332.766 1.05584 3.73462 0
M  V30 3603 H 330.867 -1.39406 3.45538 0
M  V30 3604 H 330.98 -0.064555 4.79057 0
M  V30 3605 H 329.344 -0.131048 2.54363 0
M  V30 3606 H 330.127 1.43899 3.11686 0
M  V30 3607 N 332.573 -1.56217 0.208337 0
M  V30 3608 C 333.821 -1.97558 -0.426076 0
M  V30 3609 C 334.142 -1.09683 -1.61229 0
M  V30 3610 O 333.412 -0.170956 -1.95153 0
M  V30 3611 H 331.992 -0.729575 -0.160405 0
M  V30 3612 H 334.654 -1.92606 0.298155 0
M  V30 3613 H 333.75 -3.02672 -0.761312 0
M  V30 3614 N 334.051 0.0651679 -1.57465 0
M  V30 3615 C 335.462 0.616213 -1.76238 0
M  V30 3616 C 335.813 1.7756 -0.834689 0
M  V30 3617 O 334.938 2.1639 -0.0204156 0
M  V30 3618 C 335.533 1.12462 -3.1959 0
M  V30 3619 C 334.092 1.62147 -3.39684 0
M  V30 3620 C 333.239 0.543739 -2.71917 0
M  V30 3621 H 336.19 -0.161022 -1.57881 0
M  V30 3622 H 336.211 1.99324 -3.24114 0
M  V30 3623 H 335.723 0.280592 -3.87084 0
M  V30 3624 H 333.824 2.48854 -2.77313 0
M  V30 3625 H 333.937 1.69385 -4.48158 0
M  V30 3626 H 332.301 0.990352 -2.34657 0
M  V30 3627 H 333.084 -0.290216 -3.42071 0
M  V30 3628 N 335.529 1.53961 0.336706 0
M  V30 3629 C 336.459 1.85417 1.41925 0
M  V30 3630 C 337.44 0.709856 1.5458 0
M  V30 3631 O 338.625 0.962396 1.68676 0
M  V30 3632 C 335.755 2.06985 2.78881 0
M  V30 3633 C 334.709 3.22813 2.81026 0
M  V30 3634 C 334.035 3.29727 4.20932 0
M  V30 3635 C 335.335 4.60767 2.45949 0
M  V30 3636 H 337.029 2.76079 1.15848 0
M  V30 3637 H 334.575 1.32839 0.555859 0
M  V30 3638 H 336.528 2.27575 3.54665 0
M  V30 3639 H 335.252 1.13061 3.06406 0
M  V30 3640 H 333.911 3.0209 2.07695 0
M  V30 3641 H 333.559 2.33385 4.45579 0
M  V30 3642 H 333.259 4.07566 4.23277 0
M  V30 3643 H 334.783 3.52536 4.98549 0
M  V30 3644 H 336.197 4.81325 3.11446 0
M  V30 3645 H 334.594 5.4106 2.59566 0
M  V30 3646 H 335.664 4.6391 1.41122 0
M  V30 3647 N 337.007 -0.598083 1.45811 0
M  V30 3648 C 338.284 -1.35777 1.40797 0
M  V30 3649 C 338.664 -2.10935 0.083462 0
M  V30 3650 O 338.012 -2.08505 -0.934763 0
M  V30 3651 C 338.222 -2.29666 2.62783 0
M  V30 3652 C 339.57 -2.91977 3.08277 0
M  V30 3653 O 340.594 -2.39984 2.63223 0
M  V30 3654 O 339.453 -3.86376 3.86491 0
M  V30 3655 H 336.547 -0.609291 0.55919 0
M  V30 3656 H 339.093 -0.620379 1.57954 0
M  V30 3657 H 337.865 -1.73454 3.50756 0
M  V30 3658 H 337.488 -3.1077 2.48008 0
M  V30 3659 N 338.485 -1.33259 -0.841409 0
M  V30 3660 C 339.448 -1.23221 -1.9326 0
M  V30 3661 C 340.448 -0.151895 -1.60081 0
M  V30 3662 O 341.638 -0.403246 -1.69468 0
M  V30 3663 C 338.77 -0.898123 -3.28856 0
M  V30 3664 H 339.963 -2.2021 -2.03587 0
M  V30 3665 H 337.516 -1.17281 -1.03319 0
M  V30 3666 H 338.251 0.0693841 -3.24226 0
M  V30 3667 H 338.036 -1.67934 -3.54317 0
M  V30 3668 H 339.526 -0.852563 -4.08805 0
M  V30 3669 N 339.963 1.05934 -1.16686 0
M  V30 3670 C 341.374 1.60263 -0.957745 0
M  V30 3671 C 341.725 1.89789 0.49745 0
M  V30 3672 O 340.85 1.67401 1.37135 0
M  V30 3673 C 341.445 2.91172 -1.73218 0
M  V30 3674 C 340.004 3.42188 -1.56794 0
M  V30 3675 C 339.151 2.16028 -1.73859 0
M  V30 3676 H 342.102 0.888392 -1.31504 0
M  V30 3677 H 342.123 3.60744 -1.21014 0
M  V30 3678 H 341.635 2.6965 -2.79124 0
M  V30 3679 H 339.736 3.68762 -0.533437 0
M  V30 3680 H 339.849 4.17273 -2.35414 0
M  V30 3681 H 338.213 2.26426 -1.16633 0
M  V30 3682 H 338.996 1.96985 -2.81161 0
M  V30 3683 N 341.441 0.965919 1.2453 0
M  V30 3684 C 342.404 0.499547 2.2369 0
M  V30 3685 C 343.404 -0.40294 1.5567 0
M  V30 3686 O 344.594 -0.19865 1.73064 0
M  V30 3687 C 341.726 -0.276792 3.39774 0
M  V30 3688 H 342.919 1.37613 2.66463 0
M  V30 3689 H 340.472 0.750324 1.37112 0
M  V30 3690 H 341.207 -1.17055 3.02438 0
M  V30 3691 H 340.992 0.370826 3.90343 0
M  V30 3692 H 342.482 -0.592175 4.1338 0
M  V30 3693 N 342.919 -1.39368 0.735821 0
M  V30 3694 C 344.149 -2.04498 0.293967 0
M  V30 3695 C 344.557 -1.55593 -1.07645 0
M  V30 3696 O 343.9 -0.716324 -1.69158 0
M  V30 3697 C 343.962 -3.58836 0.218342 0
M  V30 3698 C 343.626 -4.30721 1.52736 0
M  V30 3699 C 344.623 -4.57305 2.47322 0
M  V30 3700 C 342.308 -4.69251 1.79189 0
M  V30 3701 C 344.302 -5.21429 3.66593 0
M  V30 3702 C 341.989 -5.33104 2.98737 0
M  V30 3703 C 342.987 -5.59125 3.9226 0
M  V30 3704 O 342.675 -6.21653 5.09708 0
M  V30 3705 H 342.407 -0.664118 0.126189 0
M  V30 3706 H 344.961 -1.79385 1.00051 0
M  V30 3707 H 343.191 -3.8285 -0.544314 0
M  V30 3708 H 344.88 -4.05447 -0.191626 0
M  V30 3709 H 345.646 -4.27983 2.28156 0
M  V30 3710 H 341.525 -4.48354 1.07239 0
M  V30 3711 H 345.069 -5.41656 4.39607 0
M  V30 3712 H 340.966 -5.61846 3.17803 0
M  V30 3713 H 341.734 -6.40146 5.10054 0
M  V30 3714 N 344.397 -0.483516 -1.5 0
M  V30 3715 C 345.645 0.067027 -2.01989 0
M  V30 3716 C 345.966 1.3909 -1.36671 0
M  V30 3717 O 345.236 1.88978 -0.516152 0
M  V30 3718 H 343.816 0.0277606 -0.746484 0
M  V30 3719 H 346.478 -0.636773 -1.84204 0
M  V30 3720 H 345.574 0.209484 -3.11396 0
M  V30 3721 N 345.875 1.56104 -0.216619 0
M  V30 3722 C 347.121 1.98466 0.417033 0
M  V30 3723 C 347.454 1.10403 1.59765 0
M  V30 3724 O 346.729 0.160632 1.93836 0
M  V30 3725 C 347.012 3.49769 0.85637 0
M  V30 3726 C 346.865 4.48606 -0.327546 0
M  V30 3727 C 348.184 4.05339 1.7143 0
M  V30 3728 H 345.303 0.721551 0.150112 0
M  V30 3729 H 347.945 1.87423 -0.311864 0
M  V30 3730 H 346.095 3.5931 1.47745 0
M  V30 3731 H 347.767 4.5108 -0.965618 0
M  V30 3732 H 346.01 4.22682 -0.975805 0
M  V30 3733 H 346.681 5.51995 0.0227149 0
M  V30 3734 H 349.157 3.98712 1.19031 0
M  V30 3735 H 348.033 5.11533 1.99061 0
M  V30 3736 H 348.294 3.51918 2.67593 0
M  V30 3737 N 347.353 -0.0568162 1.57498 0
M  V30 3738 C 348.3 -1.06591 2.04712 0
M  V30 3739 C 349.27 -1.3758 0.930644 0
M  V30 3740 O 350.455 -1.48392 1.19935 0
M  V30 3741 C 347.595 -2.3701 2.50839 0
M  V30 3742 C 346.708 -2.12421 3.76167 0
M  V30 3743 C 345.843 -3.36511 4.11015 0
M  V30 3744 C 344.882 -3.07353 5.2934 0
M  V30 3745 N 344.019 -4.23816 5.59754 0
M  V30 3746 H 348.859 -0.65631 2.90683 0
M  V30 3747 H 346.396 -0.312481 1.43743 0
M  V30 3748 H 348.354 -3.13175 2.7564 0
M  V30 3749 H 346.984 -2.75744 1.67825 0
M  V30 3750 H 346.036 -1.2688 3.58616 0
M  V30 3751 H 347.348 -1.86894 4.62463 0
M  V30 3752 H 346.502 -4.21062 4.36797 0
M  V30 3753 H 345.241 -3.65128 3.23315 0
M  V30 3754 H 344.246 -2.212 5.03339 0
M  V30 3755 H 345.471 -2.80043 6.1867 0
M  V30 3756 H 343.417 -4.52436 4.75014 0
M  V30 3757 H 343.334 -4.01614 6.40501 0
M  V30 3758 H 344.602 -5.0932 5.90096 0
M  V30 3759 N 348.832 -1.54138 -0.328536 0
M  V30 3760 C 350.057 -1.76378 -1.09112 0
M  V30 3761 C 350.482 -0.508596 -1.81094 0
M  V30 3762 O 349.84 0.539598 -1.73084 0
M  V30 3763 C 349.888 -2.95358 -2.06872 0
M  V30 3764 O 348.992 -2.66556 -3.14677 0
M  V30 3765 H 348.333 -0.584614 -0.314838 0
M  V30 3766 H 350.863 -2.01146 -0.374348 0
M  V30 3767 H 350.873 -3.22566 -2.4983 0
M  V30 3768 H 349.548 -3.86385 -1.5388 0
M  V30 3769 H 348.125 -2.50282 -2.7643 0
M  V30 3770 N 350.31 0.590341 -1.46126 0
M  V30 3771 C 351.538 1.37504 -1.54597 0
M  V30 3772 C 351.953 1.87897 -0.184447 0
M  V30 3773 O 351.31 1.63192 0.816984 0
M  V30 3774 C 351.361 2.56779 -2.54454 0
M  V30 3775 O 351.082 2.08476 -3.85317 0
M  V30 3776 C 352.583 3.49427 -2.72792 0
M  V30 3777 H 349.803 0.420325 -0.523037 0
M  V30 3778 H 352.347 0.718383 -1.91467 0
M  V30 3779 H 350.502 3.1845 -2.20609 0
M  V30 3780 H 350.916 2.86097 -4.396 0
M  V30 3781 H 352.39 4.29619 -3.466 0
M  V30 3782 H 352.867 4.00876 -1.79429 0
M  V30 3783 H 353.473 2.93598 -3.07702 0
M  V30 3784 N 351.788 1.33704 0.83433 0
M  V30 3785 C 352.718 1.26967 1.95963 0
M  V30 3786 C 353.699 0.149337 1.69443 0
M  V30 3787 O 354.884 0.339852 1.91203 0
M  V30 3788 C 352.014 1.01275 3.32206 0
M  V30 3789 C 350.968 2.09652 3.73136 0
M  V30 3790 C 350.294 1.69166 5.07235 0
M  V30 3791 C 351.594 3.51372 3.86439 0
M  V30 3792 H 353.288 2.2112 2.01857 0
M  V30 3793 H 350.834 1.06447 0.969793 0
M  V30 3794 H 352.787 0.952106 4.10503 0
M  V30 3795 H 351.511 0.0356203 3.26581 0
M  V30 3796 H 350.17 2.14766 2.97104 0
M  V30 3797 H 349.818 0.701437 4.98085 0
M  V30 3798 H 349.518 2.41694 5.35591 0
M  V30 3799 H 351.042 1.64576 5.88003 0
M  V30 3800 H 352.456 3.48734 4.55036 0
M  V30 3801 H 350.853 4.22425 4.26236 0
M  V30 3802 H 351.923 3.89546 2.88759 0
M  V30 3803 N 353.266 -1.05314 1.17247 0
M  V30 3804 C 354.677 -1.59753 0.96623 0
M  V30 3805 C 355.028 -1.9005 -0.487378 0
M  V30 3806 O 354.153 -1.68126 -1.36245 0
M  V30 3807 C 354.748 -2.90249 1.74759 0
M  V30 3808 C 353.307 -3.41352 1.58606 0
M  V30 3809 C 352.454 -2.15103 1.75002 0
M  V30 3810 H 355.405 -0.881406 1.31973 0
M  V30 3811 H 355.426 -3.60097 1.22925 0
M  V30 3812 H 354.938 -2.68166 2.8055 0
M  V30 3813 H 353.039 -3.68474 0.552985 0
M  V30 3814 H 353.152 -4.16019 2.37624 0
M  V30 3815 H 351.516 -2.25804 1.17833 0
M  V30 3816 H 352.299 -1.95491 2.82202 0
M  V30 3817 N 354.744 -0.972509 -1.24016 0
M  V30 3818 C 356.021 -0.553733 -1.87598 0
M  V30 3819 C 356.401 0.969158 -1.87538 0
M  V30 3820 O 355.749 1.84255 -1.35139 0
M  V30 3821 C 355.959 -1.15076 -3.29482 0
M  V30 3822 C 357.307 -1.23862 -4.06132 0
M  V30 3823 O 358.331 -1.10363 -3.38672 0
M  V30 3824 O 357.19 -1.45252 -5.26844 0
M  V30 3825 H 354.284 -0.185331 -0.805966 0
M  V30 3826 H 356.83 -1.06709 -1.31952 0
M  V30 3827 H 355.602 -2.19333 -3.2405 0
M  V30 3828 H 355.225 -0.621746 -3.92709 0
M  V30 3829 N 356.222 1.38976 -0.743202 0
M  V30 3830 C 357.155 2.28128 -0.0572165 0
M  V30 3831 C 358.133 1.44827 0.739182 0
M  V30 3832 O 359.317 1.74207 0.720009 0
M  V30 3833 C 356.444 3.25796 0.926001 0
M  V30 3834 C 355.49 4.25947 0.217099 0
M  V30 3835 S 356.323 5.24604 -1.07477 0
M  V30 3836 C 357.479 6.25829 -0.0943545 0
M  V30 3837 H 357.712 2.85961 -0.813246 0
M  V30 3838 H 355.245 1.44822 -0.535341 0
M  V30 3839 H 357.203 3.82583 1.48797 0
M  V30 3840 H 355.864 2.66966 1.65493 0
M  V30 3841 H 355.057 4.94746 0.961372 0
M  V30 3842 H 354.659 3.73002 -0.273059 0
M  V30 3843 H 356.951 6.73411 0.743239 0
M  V30 3844 H 357.894 7.0412 -0.749713 0
M  V30 3845 H 358.302 5.63797 0.281706 0
M  V30 3846 N 357.7 0.491464 1.49741 0
M  V30 3847 C 358.63 -0.28154 2.31796 0
M  V30 3848 C 359.611 -0.971473 1.3963 0
M  V30 3849 O 360.796 -0.964719 1.68543 0
M  V30 3850 C 357.926 -1.35203 3.19902 0
M  V30 3851 C 356.88 -0.782529 4.20786 0
M  V30 3852 C 356.206 -1.95283 4.97764 0
M  V30 3853 C 357.506 0.21999 5.21837 0
M  V30 3854 H 359.2 0.403355 2.96671 0
M  V30 3855 H 356.746 0.195425 1.42668 0
M  V30 3856 H 358.699 -1.90045 3.76113 0
M  V30 3857 H 357.423 -2.06598 2.52953 0
M  V30 3858 H 356.082 -0.255928 3.65706 0
M  V30 3859 H 355.73 -2.65423 4.2727 0
M  V30 3860 H 355.43 -1.57789 5.66018 0
M  V30 3861 H 356.954 -2.50577 5.56816 0
M  V30 3862 H 358.368 -0.23996 5.72798 0
M  V30 3863 H 356.765 0.51026 5.97927 0
M  V30 3864 H 357.835 1.13911 4.7133 0
M  V30 3865 N 359.178 -1.55987 0.224894 0
M  V30 3866 C 360.403 -2.03232 -0.41369 0
M  V30 3867 C 360.828 -1.10359 -1.52323 0
M  V30 3868 O 360.186 -0.092395 -1.81064 0
M  V30 3869 C 360.234 -3.48682 -0.919405 0
M  V30 3870 O 359.338 -3.58947 -2.03054 0
M  V30 3871 H 358.679 -0.657428 -0.0931903 0
M  V30 3872 H 361.209 -2.01679 0.34451 0
M  V30 3873 H 361.219 -3.8907 -1.22835 0
M  V30 3874 H 359.894 -4.15761 -0.107339 0
M  V30 3875 H 358.471 -3.30448 -1.72796 0
M  V30 3876 N 360.656 0.0484629 -1.57525 0
M  V30 3877 C 361.903 0.743125 -1.88372 0
M  V30 3878 C 362.231 1.76383 -0.819715 0
M  V30 3879 O 361.486 1.94855 0.181659 0
M  V30 3880 C 361.785 1.46632 -3.25935 0
M  V30 3881 C 361.451 0.583427 -4.4711 0
M  V30 3882 C 360.113 0.340191 -4.79996 0
M  V30 3883 C 362.465 -0.0273345 -5.21193 0
M  V30 3884 C 359.793 -0.522903 -5.84365 0
M  V30 3885 C 362.145 -0.878017 -6.26477 0
M  V30 3886 C 360.809 -1.1309 -6.5785 0
M  V30 3887 H 360.079 0.271929 -0.689301 0
M  V30 3888 H 362.726 0.00336166 -1.915 0
M  V30 3889 H 361.031 2.2789 -3.18706 0
M  V30 3890 H 362.728 2.00902 -3.47044 0
M  V30 3891 H 359.318 0.783151 -4.21384 0
M  V30 3892 H 363.502 0.147654 -4.9608 0
M  V30 3893 H 358.758 -0.727335 -6.07058 0
M  V30 3894 H 362.932 -1.35789 -6.83033 0
M  V30 3895 H 360.559 -1.80144 -7.38547 0
M  V30 3896 N 362.134 1.5431 0.320358 0
M  V30 3897 C 363.383 1.7188 1.05546 0
M  V30 3898 C 363.696 0.501143 1.89071 0
M  V30 3899 O 364.902 0.558258 2.65699 0
M  V30 3900 C 363.358 3.04025 1.92605 0
M  V30 3901 C 362.966 4.33207 1.14176 0
M  V30 3902 C 364.71 3.30959 2.65832 0
M  V30 3903 C 362.617 5.56412 2.00399 0
M  V30 3904 H 361.547 0.640547 0.397763 0
M  V30 3905 H 364.198 1.80802 0.313522 0
M  V30 3906 H 362.58 2.89019 2.7071 0
M  V30 3907 H 363.754 4.58989 0.40819 0
M  V30 3908 H 362.069 4.13062 0.526165 0
M  V30 3909 H 364.666 4.20203 3.30656 0
M  V30 3910 H 365.009 2.48979 3.33639 0
M  V30 3911 H 365.542 3.46847 1.94787 0
M  V30 3912 H 362.281 6.41004 1.37094 0
M  V30 3913 H 361.801 5.34844 2.7148 0
M  V30 3914 H 363.48 5.92938 2.58908 0
M  V30 3915 N 363.613 -0.582584 1.46437 0
M  V30 3916 C 364.563 -1.68654 1.53426 0
M  V30 3917 C 365.547 -1.55971 0.395194 0
M  V30 3918 O 366.739 -1.64884 0.643612 0
M  V30 3919 C 363.868 -3.07439 1.52762 0
M  V30 3920 C 362.954 -3.25418 2.71963 0
M  V30 3921 N 363.345 -3.13556 3.96883 0
M  V30 3922 C 361.643 -3.56357 2.68189 0
M  V30 3923 C 362.344 -3.33543 4.76575 0
M  V30 3924 N 361.32 -3.58704 4.08451 0
M  V30 3925 H 365.122 -1.58014 2.47808 0
M  V30 3926 H 362.636 -0.786617 1.42078 0
M  V30 3927 H 364.633 -3.86671 1.55857 0
M  V30 3928 H 363.293 -3.1921 0.594573 0
M  V30 3929 H 364.304 -2.9142 4.28129 0
M  V30 3930 H 360.981 -3.74812 1.83908 0
M  V30 3931 H 362.371 -3.29555 5.85528 0
M  V30 3932 N 365.091 -1.34144 -0.827227 0
M  V30 3933 C 366.054 -1.25264 -1.91942 0
M  V30 3934 C 367.054 -0.168866 -1.59911 0
M  V30 3935 O 368.244 -0.421198 -1.69031 0
M  V30 3936 C 365.376 -0.932952 -3.27885 0
M  V30 3937 H 366.569 -2.22357 -2.0124 0
M  V30 3938 H 364.122 -1.1837 -1.0207 0
M  V30 3939 H 364.857 0.0349917 -3.24281 0
M  V30 3940 H 364.642 -1.71682 -3.52516 0
M  V30 3941 H 366.132 -0.895874 -4.07877 0
M  V30 3942 N 366.569 1.04691 -1.17803 0
M  V30 3943 C 367.517 2.14665 -0.895635 0
M  V30 3944 C 368.511 1.68806 0.141679 0
M  V30 3945 O 369.717 1.79999 -0.00587914 0
M  V30 3946 H 366.092 0.701038 -0.272121 0
M  V30 3947 H 368.063 2.35685 -1.83017 0
M  V30 3948 C 366.812 3.45019 -0.430962 0
M  V30 3949 H 366.135 3.8071 -1.22064 0
M  V30 3950 H 367.575 4.23125 -0.272301 0
M  V30 3951 C 366.034 3.25943 0.852207 0
M  V30 3952 O 366.564 3.5296 1.91786 0
M  V30 3953 N 364.77 2.79304 0.802346 0
M  V30 3954 H 364.317 2.57518 -0.0650788 0
M  V30 3955 H 364.275 2.66921 1.66134 0
M  V30 3956 N 368.047 0.979072 1.23499 0
M  V30 3957 C 368.977 0.537606 2.27227 0
M  V30 3958 C 369.958 -0.428539 1.64613 0
M  V30 3959 O 371.143 -0.322191 1.91509 0
M  V30 3960 C 368.273 -0.162052 3.46922 0
M  V30 3961 C 367.227 0.721242 4.21879 0
M  V30 3962 C 366.553 -0.110555 5.34586 0
M  V30 3963 C 367.853 2.01141 4.82016 0
M  V30 3964 H 369.547 1.40462 2.64406 0
M  V30 3965 H 367.093 0.67684 1.27102 0
M  V30 3966 H 369.046 -0.482192 4.18632 0
M  V30 3967 H 367.77 -1.06351 3.08799 0
M  V30 3968 H 366.429 1.02482 3.51984 0
M  V30 3969 H 366.077 -1.0125 4.92704 0
M  V30 3970 H 365.777 0.477325 5.85658 0
M  V30 3971 H 367.301 -0.425107 6.09118 0
M  V30 3972 H 368.715 1.75612 5.45741 0
M  V30 3973 H 367.112 2.54695 5.43369 0
M  V30 3974 H 368.182 2.69909 4.02836 0
M  V30 3975 N 369.525 -1.3858 0.750561 0
M  V30 3976 C 370.473 -2.32339 0.110162 0
M  V30 3977 C 371.467 -1.53864 -0.708674 0
M  V30 3978 O 372.673 -1.69417 -0.608112 0
M  V30 3979 H 369.048 -0.751812 0.0168275 0
M  V30 3980 H 371.019 -2.83959 0.917053 0
M  V30 3981 C 369.768 -3.39043 -0.771067 0
M  V30 3982 H 369.091 -3.99517 -0.150374 0
M  V30 3983 H 370.531 -4.07061 -1.1865 0
M  V30 3984 C 368.99 -2.77365 -1.91234 0
M  V30 3985 O 369.52 -2.66434 -3.00626 0
M  V30 3986 N 367.726 -2.35219 -1.70646 0
M  V30 3987 H 367.273 -2.4431 -0.81673 0
M  V30 3988 H 367.231 -1.94294 -2.47178 0
M  V30 3989 N 371.003 -0.499398 -1.49478 0
M  V30 3990 C 372.414 -0.051215 -1.8663 0
M  V30 3991 C 372.765 1.36238 -1.41186 0
M  V30 3992 O 371.89 2.01502 -0.789051 0
M  V30 3993 C 372.485 -0.0861651 -3.3869 0
M  V30 3994 C 371.044 0.30667 -3.75149 0
M  V30 3995 C 370.191 -0.459397 -2.73468 0
M  V30 3996 H 373.142 -0.712264 -1.41818 0
M  V30 3997 H 373.163 0.709507 -3.73826 0
M  V30 3998 H 372.675 -1.11512 -3.71735 0
M  V30 3999 H 370.776 1.33892 -3.47712 0
M  V30 4000 H 370.889 -0.0116669 -4.79099 0
M  V30 4001 H 369.253 0.0905645 -2.54539 0
M  V30 4002 H 370.036 -1.4884 -3.09357 0
M  V30 4003 N 372.481 1.55866 -0.233164 0
M  V30 4004 C 373.413 2.18099 0.704668 0
M  V30 4005 C 374.426 1.15334 1.14899 0
M  V30 4006 O 375.615 1.42262 1.07814 0
M  V30 4007 C 372.715 2.7592 1.96777 0
M  V30 4008 C 371.888 4.03969 1.67713 0
M  V30 4009 C 370.947 4.46242 2.78845 0
M  V30 4010 O 369.973 5.12903 2.46818 0
M  V30 4011 N 371.175 4.12886 4.08051 0
M  V30 4012 H 373.94 2.99205 0.172258 0
M  V30 4013 H 371.501 1.61815 -0.0525945 0
M  V30 4014 H 373.493 3.01165 2.70337 0
M  V30 4015 H 372.063 1.99051 2.41034 0
M  V30 4016 H 371.283 3.86459 0.777391 0
M  V30 4017 H 372.571 4.8748 1.4574 0
M  V30 4018 H 371.969 3.59342 4.3691 0
M  V30 4019 H 370.526 4.42997 4.78118 0
M  V30 4020 N 373.959 -0.0401083 1.57549 0
M  V30 4021 C 374.906 -1.04413 2.05831 0
M  V30 4022 C 375.876 -1.36585 0.945184 0
M  V30 4023 O 377.061 -1.47112 1.21502 0
M  V30 4024 C 374.201 -2.34336 2.53339 0
M  V30 4025 C 373.314 -2.08419 3.78398 0
M  V30 4026 C 372.449 -3.32133 4.14561 0
M  V30 4027 C 371.488 -3.01721 5.3257 0
M  V30 4028 N 370.625 -4.17855 5.64218 0
M  V30 4029 H 375.465 -0.625442 2.91363 0
M  V30 4030 H 373.002 -0.297218 1.44066 0
M  V30 4031 H 374.96 -3.10234 2.78946 0
M  V30 4032 H 373.59 -2.73948 1.7074 0
M  V30 4033 H 372.642 -1.23069 3.59942 0
M  V30 4034 H 373.954 -1.81978 4.64419 0
M  V30 4035 H 373.108 -4.16406 4.41238 0
M  V30 4036 H 371.847 -3.61678 3.2717 0
M  V30 4037 H 370.852 -2.15849 5.05657 0
M  V30 4038 H 372.077 -2.73466 6.21605 0
M  V30 4039 H 370.023 -4.47372 4.79786 0
M  V30 4040 H 369.94 -3.94798 6.44725 0
M  V30 4041 H 371.208 -5.03033 5.95465 0
M  V30 4042 N 375.437 -1.54477 -0.31217 0
M  V30 4043 C 376.667 -1.76948 -1.06645 0
M  V30 4044 C 377.075 -0.523593 -1.81811 0
M  V30 4045 O 376.418 0.51578 -1.76311 0
M  V30 4046 C 376.48 -2.91668 -2.10166 0
M  V30 4047 C 376.144 -4.30165 -1.54296 0
M  V30 4048 C 377.141 -5.10603 -0.978793 0
M  V30 4049 C 374.826 -4.76738 -1.58196 0
M  V30 4050 C 376.82 -6.3573 -0.461048 0
M  V30 4051 C 374.507 -6.01831 -1.06034 0
M  V30 4052 C 375.505 -6.81161 -0.500844 0
M  V30 4053 O 375.193 -8.03899 0.0128958 0
M  V30 4054 H 374.925 -0.594088 -0.322546 0
M  V30 4055 H 377.479 -2.02213 -0.360441 0
M  V30 4056 H 375.709 -2.62001 -2.84416 0
M  V30 4057 H 377.398 -3.01817 -2.71406 0
M  V30 4058 H 378.164 -4.75771 -0.941651 0
M  V30 4059 H 374.043 -4.15027 -2.00683 0
M  V30 4060 H 377.587 -6.97596 -0.0236894 0
M  V30 4061 H 373.484 -6.36152 -1.09459 0
M  V30 4062 H 374.252 -8.18437 -0.101457 0
M  V30 4063 N 376.915 0.57481 -1.46744 0
M  V30 4064 C 378.326 1.15695 -1.46532 0
M  V30 4065 C 378.677 1.95068 -0.210425 0
M  V30 4066 O 377.802 2.05241 0.685944 0
M  V30 4067 C 378.397 2.1048 -2.65487 0
M  V30 4068 C 376.956 2.64002 -2.68291 0
M  V30 4069 C 376.103 1.40026 -2.39349 0
M  V30 4070 H 379.054 0.362325 -1.54509 0
M  V30 4071 H 379.075 2.94074 -2.41455 0
M  V30 4072 H 378.587 1.52683 -3.56805 0
M  V30 4073 H 376.688 3.25646 -1.81067 0
M  V30 4074 H 376.801 3.06197 -3.68483 0
M  V30 4075 H 375.165 1.70106 -1.89568 0
M  V30 4076 H 375.948 0.840485 -3.32852 0
M  V30 4077 N 378.394 1.34581 0.820102 0
M  V30 4078 C 379.357 1.2628 1.91275 0
M  V30 4079 C 380.357 0.177344 1.59819 0
M  V30 4080 O 381.547 0.430156 1.68806 0
M  V30 4081 C 378.679 0.950327 3.27386 0
M  V30 4082 H 379.872 2.23421 2.00057 0
M  V30 4083 H 377.425 1.1891 1.0144 0
M  V30 4084 H 378.16 -0.0177938 3.24295 0
M  V30 4085 H 377.945 1.73549 3.51601 0
M  V30 4086 H 379.435 0.917492 4.07396 0
M  V30 4087 N 379.872 -1.04064 1.18357 0
M  V30 4088 C 381.149 -1.74252 0.888581 0
M  V30 4089 C 381.529 -2.02138 -0.60856 0
M  V30 4090 O 380.877 -1.66656 -1.56327 0
M  V30 4091 C 381.087 -3.0277 1.73584 0
M  V30 4092 C 382.435 -3.76506 1.96286 0
M  V30 4093 O 383.459 -3.12668 1.70637 0
M  V30 4094 O 382.318 -4.91243 2.39464 0
M  V30 4095 H 379.412 -0.758271 0.330082 0
M  V30 4096 H 381.958 -1.1013 1.2911 0
M  V30 4097 H 380.73 -2.78299 2.75073 0
M  V30 4098 H 380.353 -3.74631 1.33183 0
M  V30 4099 N 381.35 -0.985608 -1.22978 0
M  V30 4100 C 382.599 -0.652881 -1.90841 0
M  V30 4101 C 382.912 0.817842 -1.77681 0
M  V30 4102 O 384.118 1.26185 -2.40395 0
M  V30 4103 C 382.574 -1.11717 -3.42122 0
M  V30 4104 C 382.182 -2.6126 -3.63933 0
M  V30 4105 C 383.926 -0.85843 -4.1573 0
M  V30 4106 C 381.833 -3.0133 -5.08876 0
M  V30 4107 H 380.763 -0.240491 -0.714619 0
M  V30 4108 H 383.414 -1.1942 -1.39324 0
M  V30 4109 H 381.796 -0.504027 -3.92779 0
M  V30 4110 H 382.97 -3.27858 -3.23799 0
M  V30 4111 H 381.285 -2.84937 -3.03644 0
M  V30 4112 H 383.882 -1.13359 -5.22546 0
M  V30 4113 H 384.225 0.205461 -4.15793 0
M  V30 4114 H 384.758 -1.43341 -3.71077 0
M  V30 4115 H 381.497 -4.06864 -5.13947 0
M  V30 4116 H 381.017 -2.3943 -5.49939 0
M  V30 4117 H 382.696 -2.92224 -5.77247 0
M  V30 4118 N 382.828 1.3818 -0.7579 0
M  V30 4119 C 383.76 2.2901 -0.0932177 0
M  V30 4120 C 384.773 1.47958 0.679136 0
M  V30 4121 O 385.962 1.70773 0.519514 0
M  V30 4122 C 383.062 3.26953 0.89192 0
M  V30 4123 C 382.235 4.37045 0.176303 0
M  V30 4124 C 381.294 5.15148 1.07281 0
M  V30 4125 O 380.32 5.66616 0.541728 0
M  V30 4126 N 381.522 5.28542 2.40049 0
M  V30 4127 H 384.287 2.86694 -0.873303 0
M  V30 4128 H 381.848 1.50007 -0.609054 0
M  V30 4129 H 383.84 3.76083 1.49479 0
M  V30 4130 H 382.41 2.70136 1.57306 0
M  V30 4131 H 381.63 3.89493 -0.607328 0
M  V30 4132 H 382.918 5.07801 -0.318718 0
M  V30 4133 H 382.316 4.88285 2.85647 0
M  V30 4134 H 380.873 5.8103 2.95376 0
M  V30 4135 N 384.306 0.507319 1.49211 0
M  V30 4136 C 385.722 0.163682 1.58758 0
M  V30 4137 C 385.922 -1.33208 1.51188 0
M  V30 4138 O 384.978 -2.10855 1.38911 0
M  V30 4139 C 386.291 0.746095 2.91297 0
M  V30 4140 C 387.839 0.712773 3.04776 0
M  V30 4141 C 388.314 1.27336 4.39943 0
M  V30 4142 N 389.805 1.23433 4.46451 0
M  V30 4143 C 390.54 1.63821 5.495 0
M  V30 4144 N 390.036 2.11832 6.5962 0
M  V30 4145 N 391.829 1.55198 5.4025 0
M  V30 4146 H 383.98 1.47972 1.52375 0
M  V30 4147 H 386.243 0.614147 0.722168 0
M  V30 4148 H 385.949 1.79534 3.02424 0
M  V30 4149 H 385.823 0.210137 3.76614 0
M  V30 4150 H 388.21 -0.327656 2.93275 0
M  V30 4151 H 388.291 1.28595 2.21127 0
M  V30 4152 H 387.935 2.3126 4.52196 0
M  V30 4153 H 387.865 0.676066 5.22242 0
M  V30 4154 H 390.356 0.882627 3.67448 0
M  V30 4155 H 390.669 2.40703 7.34358 0
M  V30 4156 H 389.014 2.1581 6.60644 0
M  V30 4157 H 392.205 1.17505 4.53112 0
M  V30 4158 H 392.378 1.86997 6.20432 0
M  V30 4159 N 385.784 -1.5574 0.241426 0
M  V30 4160 C 386.747 -2.19877 -0.647063 0
M  V30 4161 C 387.747 -1.16642 -1.10686 0
M  V30 4162 O 388.937 -1.41757 -1.01245 0
M  V30 4163 C 386.069 -2.83797 -1.88871 0
M  V30 4164 H 387.262 -2.99772 -0.087574 0
M  V30 4165 H 384.815 -1.56298 -0.00813574 0
M  V30 4166 H 385.55 -2.07824 -2.48957 0
M  V30 4167 H 385.335 -3.59414 -1.56728 0
M  V30 4168 H 386.825 -3.32898 -2.52129 0
M  V30 4169 N 387.262 0.0317525 -1.57568 0
M  V30 4170 C 388.511 0.722131 -1.8833 0
M  V30 4171 C 388.824 1.76664 -0.839587 0
M  V30 4172 O 390.03 2.50942 -1.03635 0
M  V30 4173 C 388.486 1.33544 -3.34207 0
M  V30 4174 C 388.094 0.327415 -4.46802 0
M  V30 4175 C 389.838 2.00585 -3.7412 0
M  V30 4176 C 387.745 0.948915 -5.83738 0
M  V30 4177 H 386.675 0.273466 -0.702661 0
M  V30 4178 H 389.326 -0.0235811 -1.83485 0
M  V30 4179 H 387.708 2.13077 -3.33788 0
M  V30 4180 H 388.882 -0.441006 -4.58685 0
M  V30 4181 H 387.197 -0.240758 -4.15703 0
M  V30 4182 H 389.794 2.47932 -4.73744 0
M  V30 4183 H 390.137 2.82285 -3.05975 0
M  V30 4184 H 390.67 1.27831 -3.76702 0
M  V30 4185 H 387.409 0.171387 -6.55276 0
M  V30 4186 H 386.929 1.68724 -5.7558 0
M  V30 4187 H 388.608 1.45705 -6.3038 0
M  V30 4188 N 388.74 1.54641 0.303973 0
M  V30 4189 C 389.688 1.86137 1.39484 0
M  V30 4190 C 390.682 0.734854 1.52631 0
M  V30 4191 O 391.888 0.918803 1.54784 0
M  V30 4192 H 388.263 0.590324 0.465856 0
M  V30 4193 H 390.234 2.77324 1.10154 0
M  V30 4194 C 388.983 2.12274 2.75382 0
M  V30 4195 H 388.306 2.98429 2.66046 0
M  V30 4196 H 389.746 2.38254 3.5073 0
M  V30 4197 C 388.205 0.920365 3.24085 0
M  V30 4198 O 388.735 0.139377 4.01458 0
M  V30 4199 N 386.941 0.726566 2.81371 0
M  V30 4200 H 386.488 1.36332 2.18567 0
M  V30 4201 H 386.446 -0.0763799 3.14307 0
M  V30 4202 N 390.218 -0.567019 1.47046 0
M  V30 4203 C 391.128 -1.70247 1.6141 0
M  V30 4204 C 392.144 -1.66746 0.497157 0
M  V30 4205 O 393.32 -1.86371 0.763389 0
M  V30 4206 C 390.385 -3.06756 1.61561 0
M  V30 4207 C 389.446 -3.21399 2.84607 0
M  V30 4208 C 388.679 -4.51396 2.84741 0
M  V30 4209 O 388.902 -5.36255 1.94388 0
M  V30 4210 O 387.836 -4.69621 3.76483 0
M  V30 4211 H 391.662 -1.61073 2.57467 0
M  V30 4212 H 389.247 -0.735894 1.30019 0
M  V30 4213 H 391.129 -3.8801 1.64396 0
M  V30 4214 H 389.804 -3.16333 0.686684 0
M  V30 4215 H 388.711 -2.39579 2.8732 0
M  V30 4216 H 390.044 -3.16721 3.76761 0
M  V30 4217 N 391.696 -1.35014 -0.812953 0
M  V30 4218 C 392.924 -1.31031 -1.6012 0
M  V30 4219 C 393.339 0.113558 -1.88458 0
M  V30 4220 O 392.696 1.06363 -1.48301 0
M  V30 4221 C 392.747 -2.10872 -2.93624 0
M  V30 4222 O 392.468 -3.47706 -2.66518 0
M  V30 4223 C 393.969 -2.14401 -3.88004 0
M  V30 4224 H 391.189 -0.45037 -0.497401 0
M  V30 4225 H 393.733 -1.77775 -1.01076 0
M  V30 4226 H 391.888 -1.67744 -3.492 0
M  V30 4227 H 392.302 -3.89097 -3.51715 0
M  V30 4228 H 393.776 -2.74669 -4.78812 0
M  V30 4229 H 394.253 -1.14105 -4.24119 0
M  V30 4230 H 394.859 -2.57662 -3.38364 0
M  V30 4231 N 393.175 1.03435 -1.18907 0
M  V30 4232 C 394.125 2.09924 -0.889706 0
M  V30 4233 C 395.109 1.60261 0.143216 0
M  V30 4234 O 396.301 1.76892 -0.0617122 0
M  V30 4235 C 393.43 3.40669 -0.424168 0
M  V30 4236 C 392.516 3.97082 -1.48952 0
M  V30 4237 N 392.907 4.27227 -2.70759 0
M  V30 4238 C 391.205 4.25029 -1.35152 0
M  V30 4239 C 391.906 4.7246 -3.39347 0
M  V30 4240 N 390.882 4.7366 -2.66735 0
M  V30 4241 H 394.684 2.31116 -1.81555 0
M  V30 4242 H 392.198 1.21246 -1.08042 0
M  V30 4243 H 394.195 4.16461 -0.191176 0
M  V30 4244 H 392.855 3.20901 0.495263 0
M  V30 4245 H 393.866 4.16678 -3.0757 0
M  V30 4246 H 390.543 4.14554 -0.495126 0
M  V30 4247 H 391.933 5.04751 -4.43481 0
M  V30 4248 N 394.653 0.992116 1.22453 0
M  V30 4249 C 395.585 0.500024 2.23679 0
M  V30 4250 C 396.598 -0.404463 1.57696 0
M  V30 4251 O 397.787 -0.206722 1.77299 0
M  V30 4252 C 394.887 -0.294711 3.37616 0
M  V30 4253 C 394.06 0.605723 4.33186 0
M  V30 4254 C 393.119 -0.13717 5.26021 0
M  V30 4255 O 392.145 0.477164 5.67196 0
M  V30 4256 N 393.347 -1.4197 5.62872 0
M  V30 4257 H 396.112 1.37045 2.66531 0
M  V30 4258 H 393.673 0.866741 1.36745 0
M  V30 4259 H 395.665 -0.800329 3.96707 0
M  V30 4260 H 394.235 -1.06623 2.93854 0
M  V30 4261 H 393.455 1.29202 3.72425 0
M  V30 4262 H 394.743 1.21896 4.93983 0
M  V30 4263 H 394.141 -1.94015 5.31389 0
M  V30 4264 H 392.698 -1.87052 6.24383 0
M  V30 4265 N 396.131 -1.37776 0.765217 0
M  V30 4266 C 397.379 -1.99454 0.325943 0
M  V30 4267 C 397.7 -1.61049 -1.09947 0
M  V30 4268 O 396.97 -0.872821 -1.75381 0
M  V30 4269 H 395.55 -0.737697 0.117525 0
M  V30 4270 H 398.212 -1.68359 0.981895 0
M  V30 4271 H 397.308 -3.09547 0.398353 0
M  V30 4272 N 397.609 -0.515225 -1.4894 0
M  V30 4273 C 399.025 -0.172099 -1.58669 0
M  V30 4274 C 399.225 1.32405 -1.51892 0
M  V30 4275 O 398.281 2.10116 -1.40027 0
M  V30 4276 C 399.594 -0.761533 -2.90897 0
M  V30 4277 C 401.142 -0.728926 -3.04394 0
M  V30 4278 C 401.617 -1.29667 -4.39261 0
M  V30 4279 N 403.108 -1.25799 -4.4579 0
M  V30 4280 C 403.843 -1.66733 -5.48623 0
M  V30 4281 N 403.339 -2.15327 -6.58488 0
M  V30 4282 N 405.132 -1.58061 -5.39419 0
M  V30 4283 H 397.283 -1.48778 -1.51588 0
M  V30 4284 H 399.546 -0.617968 -0.718901 0
M  V30 4285 H 399.252 -1.81136 -3.01468 0
M  V30 4286 H 399.126 -0.230106 -3.76497 0
M  V30 4287 H 401.513 0.312098 -2.93445 0
M  V30 4288 H 401.594 -1.29766 -2.20442 0
M  V30 4289 H 401.238 -2.33655 -4.50963 0
M  V30 4290 H 401.168 -0.703752 -5.21876 0
M  V30 4291 H 403.659 -0.902102 -3.66975 0
M  V30 4292 H 403.972 -2.44594 -7.33071 0
M  V30 4293 H 402.317 -2.19311 -6.59491 0
M  V30 4294 H 405.508 -1.19906 -4.52482 0
M  V30 4295 H 405.681 -1.90284 -6.19432 0
M  V30 4296 N 399.087 1.5561 -0.249682 0
M  V30 4297 C 400.317 2.03116 0.377803 0
M  V30 4298 C 400.725 1.12822 1.51881 0
M  V30 4299 O 400.068 0.13562 1.83199 0
M  V30 4300 C 400.13 3.46866 0.944693 0
M  V30 4301 C 399.794 4.56955 -0.0644259 0
M  V30 4302 C 400.791 5.12485 -0.874957 0
M  V30 4303 C 398.476 5.01936 -0.19132 0
M  V30 4304 C 400.47 6.11491 -1.79881 0
M  V30 4305 C 398.157 6.00773 -1.11868 0
M  V30 4306 C 399.155 6.5543 -1.92095 0
M  V30 4307 O 398.843 7.5234 -2.83267 0
M  V30 4308 H 398.575 0.669489 0.0935961 0
M  V30 4309 H 401.129 2.02004 -0.371966 0
M  V30 4310 H 399.359 3.45136 1.74407 0
M  V30 4311 H 401.048 3.77856 1.48255 0
M  V30 4312 H 401.814 4.78564 -0.787523 0
M  V30 4313 H 397.693 4.59055 0.423072 0
M  V30 4314 H 401.237 6.54078 -2.42543 0
M  V30 4315 H 397.134 6.34114 -1.20703 0
M  V30 4316 H 397.902 7.69966 -2.7766 0
M  V30 4317 N 400.565 -0.0233959 1.57583 0
M  V30 4318 C 401.497 -1.04994 2.03737 0
M  V30 4319 C 402.51 -1.32125 0.951152 0
M  V30 4320 O 403.699 -1.29512 1.22837 0
M  V30 4321 C 400.799 -2.39026 2.40249 0
M  V30 4322 C 399.972 -2.31171 3.7132 0
M  V30 4323 C 399.031 -3.47698 3.94959 0
M  V30 4324 O 398.057 -3.26937 4.65941 0
M  V30 4325 N 399.259 -4.6976 3.41037 0
M  V30 4326 H 402.024 -0.656507 2.92421 0
M  V30 4327 H 399.585 -0.211235 1.60516 0
M  V30 4328 H 401.577 -3.15712 2.53196 0
M  V30 4329 H 400.147 -2.70194 1.57207 0
M  V30 4330 H 399.367 -1.39547 3.68674 0
M  V30 4331 H 400.655 -2.23071 4.57293 0
M  V30 4332 H 400.053 -4.89528 2.83512 0
M  V30 4333 H 398.61 -5.43791 3.59353 0
M  V30 4334 N 402.043 -1.548 -0.295768 0
M  V30 4335 C 403.289 -1.74588 -1.03184 0
M  V30 4336 C 403.622 -0.532962 -1.86744 0
M  V30 4337 O 402.897 0.469872 -1.88739 0
M  V30 4338 C 403.18 -3.03791 -1.93347 0
M  V30 4339 C 403.033 -4.35392 -1.12933 0
M  V30 4340 C 404.352 -3.28892 -2.92435 0
M  V30 4341 H 401.471 -0.635221 -0.373715 0
M  V30 4342 H 404.113 -1.87519 -0.30606 0
M  V30 4343 H 402.263 -2.92898 -2.55232 0
M  V30 4344 H 403.935 -4.58211 -0.532943 0
M  V30 4345 H 402.178 -4.31642 -0.432168 0
M  V30 4346 H 402.849 -5.22074 -1.79284 0
M  V30 4347 H 405.325 -3.39429 -2.4068 0
M  V30 4348 H 404.201 -4.20603 -3.52682 0
M  V30 4349 H 404.462 -2.47437 -3.6637 0
M  V30 4350 N 403.521 0.559213 -1.47345 0
M  V30 4351 C 404.469 1.68747 -1.60085 0
M  V30 4352 C 405.463 1.628 -0.46825 0
M  V30 4353 O 406.669 1.68009 -0.645977 0
M  V30 4354 H 403.044 0.558329 -0.503759 0
M  V30 4355 H 405.015 1.55138 -2.54902 0
M  V30 4356 C 403.764 3.07103 -1.63042 0
M  V30 4357 H 403.087 3.12361 -2.49541 0
M  V30 4358 H 404.527 3.85743 -1.76006 0
M  V30 4359 C 402.986 3.34935 -0.363357 0
M  V30 4360 O 403.516 3.98102 0.536416 0
M  V30 4361 N 401.722 2.89574 -0.244 0
M  V30 4362 H 401.269 2.38348 -0.977133 0
M  V30 4363 H 401.227 3.08566 0.602836 0
M  V30 4364 N 404.999 1.35443 0.805782 0
M  V30 4365 C 406.227 1.31878 1.59423 0
M  V30 4366 C 406.642 -0.103562 1.88516 0
M  V30 4367 O 405.999 -1.05575 1.48863 0
M  V30 4368 C 406.05 2.12426 2.92502 0
M  V30 4369 O 405.771 3.49115 2.6467 0
M  V30 4370 C 407.272 2.16455 3.86862 0
M  V30 4371 H 404.492 0.453002 0.495005 0
M  V30 4372 H 407.036 1.78309 1.00131 0
M  V30 4373 H 405.191 1.69593 3.48306 0
M  V30 4374 H 405.605 3.90957 3.49647 0
M  V30 4375 H 407.079 2.77204 4.77349 0
M  V30 4376 H 407.556 1.16352 4.23508 0
M  V30 4377 H 408.162 2.59453 3.36993 0
M  V30 4378 N 406.477 -1.02803 1.19454 0
M  V30 4379 C 407.41 -2.107 0.876396 0
M  V30 4380 C 408.388 -1.61741 -0.166897 0
M  V30 4381 O 409.572 -1.88451 -0.0430195 0
M  V30 4382 C 406.699 -3.37262 0.311758 0
M  V30 4383 C 405.745 -4.05093 1.33424 0
M  V30 4384 S 406.578 -4.50498 2.89503 0
M  V30 4385 C 407.734 -5.80277 2.34584 0
M  V30 4386 H 407.967 -2.37362 1.79016 0
M  V30 4387 H 405.5 -1.15755 1.02177 0
M  V30 4388 H 407.458 -4.10499 -0.00748752 0
M  V30 4389 H 406.119 -3.08693 -0.58032 0
M  V30 4390 H 405.312 -4.9611 0.888302 0
M  V30 4391 H 404.914 -3.3803 1.60037 0
M  V30 4392 H 407.206 -6.54873 1.73633 0
M  V30 4393 H 408.149 -6.29651 3.23952 0
M  V30 4394 H 408.557 -5.3599 1.77131 0
M  V30 4395 N 407.956 -0.998596 -1.21925 0
M  V30 4396 C 409.186 -0.695276 -1.94549 0
M  V30 4397 C 409.594 0.745079 -1.73911 0
M  V30 4398 O 408.937 1.51507 -1.03881 0
M  V30 4399 C 408.999 -0.928485 -3.47303 0
M  V30 4400 C 408.663 -2.35443 -3.91683 0
M  V30 4401 C 409.66 -3.33428 -3.98901 0
M  V30 4402 C 407.345 -2.69038 -4.24174 0
M  V30 4403 C 409.339 -4.63079 -4.37992 0
M  V30 4404 C 407.026 -3.98906 -4.62944 0
M  V30 4405 C 408.024 -4.95738 -4.69822 0
M  V30 4406 O 407.712 -6.23285 -5.07711 0
M  V30 4407 H 407.444 -0.255902 -0.625692 0
M  V30 4408 H 409.998 -1.33767 -1.5587 0
M  V30 4409 H 408.228 -0.228917 -3.86022 0
M  V30 4410 H 409.917 -0.619539 -4.01144 0
M  V30 4411 H 410.683 -3.08807 -3.73983 0
M  V30 4412 H 406.562 -1.94367 -4.18022 0
M  V30 4413 H 410.106 -5.38658 -4.43275 0
M  V30 4414 H 406.003 -4.23314 -4.87314 0
M  V30 4415 H 406.771 -6.27306 -5.25766 0
M  V30 4416 N 409.434 1.37368 -0.772513 0
M  V30 4417 C 410.366 2.28899 -0.117502 0
M  V30 4418 C 411.379 1.4867 0.663405 0
M  V30 4419 O 412.568 1.71314 0.501372 0
M  V30 4420 C 409.668 3.2788 0.857192 0
M  V30 4421 C 408.841 4.37207 0.129938 0
M  V30 4422 C 407.9 5.16257 1.01811 0
M  V30 4423 O 406.926 5.67159 0.481601 0
M  V30 4424 N 408.128 5.31058 2.3443 0
M  V30 4425 H 410.893 2.85752 -0.903662 0
M  V30 4426 H 408.454 1.49353 -0.62493 0
M  V30 4427 H 410.446 3.77647 1.45482 0
M  V30 4428 H 409.016 2.7179 1.54432 0
M  V30 4429 H 408.236 3.88827 -0.648605 0
M  V30 4430 H 409.524 5.07434 -0.372559 0
M  V30 4431 H 408.922 4.91287 2.80452 0
M  V30 4432 H 407.479 5.84131 2.89197 0
M  V30 4433 N 410.912 0.523116 1.48665 0
M  V30 4434 C 411.875 -0.232592 2.28017 0
M  V30 4435 C 412.875 -0.874021 1.34972 0
M  V30 4436 O 414.065 -0.735132 1.57929 0
M  V30 4437 C 411.197 -1.33586 3.13636 0
M  V30 4438 H 412.39 0.464008 2.96289 0
M  V30 4439 H 409.943 0.278816 1.53793 0
M  V30 4440 H 410.678 -2.06593 2.4998 0
M  V30 4441 H 410.463 -0.881125 3.82071 0
M  V30 4442 H 411.953 -1.86759 3.73511 0
M  V30 4443 N 412.39 -1.55475 0.257931 0
M  V30 4444 C 413.32 -2.24815 -0.630912 0
M  V30 4445 C 414.301 -1.23224 -1.17259 0
M  V30 4446 O 415.486 -1.51904 -1.20991 0
M  V30 4447 C 412.616 -2.95609 -1.82298 0
M  V30 4448 C 411.57 -4.03982 -1.41359 0
M  V30 4449 C 410.896 -4.6226 -2.68738 0
M  V30 4450 C 412.196 -5.19109 -0.57648 0
M  V30 4451 H 413.89 -2.99354 -0.0526878 0
M  V30 4452 H 411.436 -1.4398 -0.023901 0
M  V30 4453 H 413.389 -3.42822 -2.45054 0
M  V30 4454 H 412.113 -2.18577 -2.42676 0
M  V30 4455 H 410.772 -3.57555 -0.809324 0
M  V30 4456 H 410.42 -3.81915 -3.27338 0
M  V30 4457 H 410.12 -5.35424 -2.42065 0
M  V30 4458 H 411.644 -5.12212 -3.32372 0
M  V30 4459 H 413.058 -5.62479 -1.10861 0
M  V30 4460 H 411.455 -5.98729 -0.405351 0
M  V30 4461 H 412.525 -4.83174 0.408776 0
M  V30 4462 N 413.868 0.0150385 -1.57593 0
M  V30 4463 C 415.116 0.701613 -1.8953 0
M  V30 4464 C 415.437 1.75139 -0.857396 0
M  V30 4465 O 414.707 1.95607 0.107194 0
M  V30 4466 H 413.287 0.26213 -0.699498 0
M  V30 4467 H 415.949 -0.0223304 -1.94887 0
M  V30 4468 H 415.045 1.18236 -2.88837 0
M  V30 4469 N 415.346 1.54954 0.287554 0
M  V30 4470 C 416.592 1.76059 1.01856 0
M  V30 4471 C 416.947 0.547056 1.84459 0
M  V30 4472 O 416.24 -0.460442 1.85985 0
M  V30 4473 C 416.434 2.99833 1.94512 0
M  V30 4474 C 416.263 4.33108 1.21026 0
M  V30 4475 C 415.033 4.96632 0.931896 0
M  V30 4476 C 417.231 5.10694 0.607949 0
M  V30 4477 N 415.213 6.13668 0.168716 0
M  V30 4478 C 416.584 6.19996 -0.0217865 0
M  V30 4479 C 418.639 4.95236 0.514338 0
M  V30 4480 C 417.342 7.15524 -0.736092 0
M  V30 4481 C 419.368 5.91106 -0.186343 0
M  V30 4482 C 418.73 6.99786 -0.804875 0
M  V30 4483 H 414.829 0.696679 0.355193 0
M  V30 4484 H 417.413 1.92441 0.295741 0
M  V30 4485 H 415.584 2.84853 2.64033 0
M  V30 4486 H 417.316 3.09405 2.60865 0
M  V30 4487 H 414.071 4.57255 1.23348 0
M  V30 4488 H 414.495 6.76705 -0.199781 0
M  V30 4489 H 419.137 4.11328 0.978234 0
M  V30 4490 H 416.855 7.98964 -1.21172 0
M  V30 4491 H 420.441 5.81224 -0.258897 0
M  V30 4492 H 419.321 7.72694 -1.33843 0
M  V30 4493 N 416.824 -0.551391 1.4764 0
M  V30 4494 C 417.734 -1.68525 1.63207 0
M  V30 4495 C 418.75 -1.6621 0.514815 0
M  V30 4496 O 419.926 -1.85551 0.783113 0
M  V30 4497 C 416.991 -3.05025 1.64805 0
M  V30 4498 C 416.052 -3.18362 2.88 0
M  V30 4499 C 415.285 -4.4835 2.89513 0
M  V30 4500 O 415.508 -5.34163 2.00065 0
M  V30 4501 O 414.442 -4.65602 3.81443 0
M  V30 4502 H 418.268 -1.58333 2.59161 0
M  V30 4503 H 415.853 -0.722063 1.30792 0
M  V30 4504 H 417.735 -3.86245 1.68502 0
M  V30 4505 H 416.41 -3.15587 0.720197 0
M  V30 4506 H 415.317 -2.36518 2.89845 0
M  V30 4507 H 416.65 -3.12707 3.80099 0
M  V30 4508 N 418.302 -1.35869 -0.798587 0
M  V30 4509 C 419.212 -1.31578 -1.94228 0
M  V30 4510 C 420.228 -0.21939 -1.72611 0
M  V30 4511 O 421.404 -0.450167 -1.96305 0
M  V30 4512 C 418.469 -1.09528 -3.28944 0
M  V30 4513 C 417.53 -2.28556 -3.63402 0
M  V30 4514 C 416.763 -2.07549 -4.9169 0
M  V30 4515 O 416.986 -1.046 -5.60727 0
M  V30 4516 O 415.92 -2.95106 -5.24591 0
M  V30 4517 H 419.746 -2.27847 -2.00796 0
M  V30 4518 H 417.331 -1.16322 -0.937526 0
M  V30 4519 H 419.213 -0.991127 -4.09579 0
M  V30 4520 H 417.888 -0.16315 -3.23289 0
M  V30 4521 H 416.795 -2.44538 -2.83112 0
M  V30 4522 H 418.128 -3.20244 -3.73771 0
M  V30 4523 N 419.78 1.02168 -1.19998 0
M  V30 4524 C 421.027 1.75685 -1.00702 0
M  V30 4525 C 421.355 1.88947 0.461426 0
M  V30 4526 O 420.61 1.40832 1.35885 0
M  V30 4527 C 420.909 3.18081 -1.62969 0
M  V30 4528 C 420.575 3.24809 -3.12746 0
M  V30 4529 C 419.237 3.26352 -3.53621 0
M  V30 4530 C 421.589 3.23379 -4.08749 0
M  V30 4531 C 418.917 3.2413 -4.89036 0
M  V30 4532 C 421.269 3.22698 -5.44104 0
M  V30 4533 C 419.933 3.22542 -5.84399 0
M  V30 4534 H 419.203 0.642877 -0.368496 0
M  V30 4535 H 421.85 1.19865 -1.49348 0
M  V30 4536 H 420.155 3.77027 -1.06573 0
M  V30 4537 H 421.852 3.73648 -1.45561 0
M  V30 4538 H 418.442 3.2434 -2.80181 0
M  V30 4539 H 422.626 3.21361 -3.78207 0
M  V30 4540 H 417.882 3.22338 -5.19527 0
M  V30 4541 H 422.056 3.20543 -6.18244 0
M  V30 4542 H 419.683 3.20575 -6.89301 0
M  V30 4543 N 421.258 1.00505 1.21394 0
M  V30 4544 C 422.483 0.706367 1.95001 0
M  V30 4545 C 422.908 -0.72463 1.73582 0
M  V30 4546 O 422.266 -1.49702 1.0227 0
M  V30 4547 C 422.314 1.03299 3.45487 0
M  V30 4548 O 421.418 0.138275 4.12168 0
M  V30 4549 H 420.759 0.263175 0.609619 0
M  V30 4550 H 423.289 1.34531 1.54151 0
M  V30 4551 H 423.299 0.979872 3.96059 0
M  V30 4552 H 421.974 2.07567 3.60401 0
M  V30 4553 H 420.551 0.247928 3.72075 0
M  V30 4554 N 422.737 -1.36956 0.779787 0
M  V30 4555 C 423.967 -2.03459 0.358877 0
M  V30 4556 C 424.375 -1.58939 -1.02641 0
M  V30 4557 O 423.718 -0.769777 -1.66794 0
M  V30 4558 C 423.78 -3.5796 0.332393 0
M  V30 4559 C 423.444 -4.25644 1.66362 0
M  V30 4560 C 424.441 -4.49205 2.61746 0
M  V30 4561 C 422.126 -4.63313 1.94027 0
M  V30 4562 C 424.12 -5.09503 3.82996 0
M  V30 4563 C 421.807 -5.2333 3.15546 0
M  V30 4564 C 422.805 -5.46363 4.0985 0
M  V30 4565 O 422.493 -6.05122 5.29228 0
M  V30 4566 H 422.225 -0.659767 0.147254 0
M  V30 4567 H 424.779 -1.76111 1.05708 0
M  V30 4568 H 423.009 -3.84388 -0.422237 0
M  V30 4569 H 424.698 -4.05852 -0.0625389 0
M  V30 4570 H 425.464 -4.20508 2.41657 0
M  V30 4571 H 421.343 -4.44715 1.21448 0
M  V30 4572 H 424.887 -5.27397 4.56617 0
M  V30 4573 H 420.784 -5.51451 3.35517 0
M  V30 4574 H 421.552 -6.23595 5.30161 0
M  V30 4575 N 424.215 -0.530993 -1.48385 0
M  V30 4576 C 425.626 -0.0907905 -1.86479 0
M  V30 4577 C 425.977 1.33213 -1.44044 0
M  V30 4578 O 425.102 1.99783 -0.831615 0
M  V30 4579 C 425.697 -0.157987 -3.38431 0
M  V30 4580 C 424.256 0.227026 -3.75715 0
M  V30 4581 C 423.403 -0.5173 -2.72432 0
M  V30 4582 H 426.354 -0.742186 -1.40276 0
M  V30 4583 H 426.375 0.630053 -3.75247 0
M  V30 4584 H 425.887 -1.19372 -3.69286 0
M  V30 4585 H 423.988 1.26486 -3.50474 0
M  V30 4586 H 424.101 -0.113288 -4.78966 0
M  V30 4587 H 422.465 0.0365527 -2.54674 0
M  V30 4588 H 423.248 -1.55368 -3.0613 0
M  V30 4589 N 425.693 1.55336 -0.266172 0
M  V30 4590 C 426.656 2.20878 0.612001 0
M  V30 4591 C 427.656 1.18388 1.08816 0
M  V30 4592 O 428.846 1.4335 0.989774 0
M  V30 4593 C 425.978 2.86765 1.84332 0
M  V30 4594 H 427.171 2.99873 0.0398718 0
M  V30 4595 H 424.724 1.56291 -0.0167309 0
M  V30 4596 H 425.459 2.11759 2.45619 0
M  V30 4597 H 425.244 3.61862 1.5099 0
M  V30 4598 H 426.734 3.36867 2.46801 0
M  V30 4599 N 427.171 -0.0066808 1.57599 0
M  V30 4600 C 428.399 -0.704087 1.94551 0
M  V30 4601 C 428.814 -1.67677 0.867746 0
M  V30 4602 O 428.171 -1.8185 -0.153925 0
M  V30 4603 C 428.222 -1.44177 3.31505 0
M  V30 4604 O 427.943 -0.508097 4.35144 0
M  V30 4605 C 429.444 -2.23429 3.82876 0
M  V30 4606 H 426.664 -0.196523 0.641576 0
M  V30 4607 H 429.208 0.042453 2.04456 0
M  V30 4608 H 427.363 -2.13999 3.22929 0
M  V30 4609 H 427.777 -1.02782 5.14331 0
M  V30 4610 H 429.251 -2.70552 4.8115 0
M  V30 4611 H 429.728 -3.05818 3.15233 0
M  V30 4612 H 430.334 -1.58636 3.94607 0
M  V30 4613 N 428.649 -1.55105 -0.279332 0
M  V30 4614 C 429.579 -1.90557 -1.34945 0
M  V30 4615 C 430.56 -0.766738 -1.51839 0
M  V30 4616 O 431.745 -1.02434 -1.64988 0
M  V30 4617 C 428.875 -2.17193 -2.71006 0
M  V30 4618 C 427.829 -3.33021 -2.68851 0
M  V30 4619 C 427.155 -3.45123 -4.08405 0
M  V30 4620 C 428.455 -4.69578 -2.28678 0
M  V30 4621 H 430.149 -2.80188 -1.05522 0
M  V30 4622 H 427.695 -1.34811 -0.506173 0
M  V30 4623 H 429.648 -2.40581 -3.45975 0
M  V30 4624 H 428.372 -1.24355 -3.01999 0
M  V30 4625 H 427.031 -3.0959 -1.9634 0
M  V30 4626 H 426.679 -2.49762 -4.3661 0
M  V30 4627 H 426.379 -4.22995 -4.07859 0
M  V30 4628 H 427.903 -3.70796 -4.85121 0
M  V30 4629 H 429.317 -4.92553 -2.93368 0
M  V30 4630 H 427.714 -5.5032 -2.39306 0
M  V30 4631 H 428.784 -4.68828 -1.23807 0
M  V30 4632 N 430.127 0.543554 -1.4793 0
M  V30 4633 C 431.059 1.665 -1.57513 0
M  V30 4634 C 432.072 1.56156 -0.460333 0
M  V30 4635 O 433.261 1.62865 -0.730573 0
M  V30 4636 C 430.361 3.05063 -1.47614 0
M  V30 4637 C 429.534 3.41024 -2.739 0
M  V30 4638 C 428.593 4.58809 -2.57645 0
M  V30 4639 O 427.619 4.62707 -3.31498 0
M  V30 4640 N 428.821 5.56149 -1.66368 0
M  V30 4641 H 431.586 1.5872 -2.5422 0
M  V30 4642 H 429.147 0.730517 -1.44482 0
M  V30 4643 H 431.139 3.81712 -1.34455 0
M  V30 4644 H 429.709 3.06994 -0.589359 0
M  V30 4645 H 428.929 2.53687 -3.01723 0
M  V30 4646 H 430.217 3.61831 -3.57709 0
M  V30 4647 H 429.615 5.55767 -1.05543 0
M  V30 4648 H 428.172 6.32071 -1.59154 0
M  V30 4649 N 431.605 1.3629 0.791371 0
M  V30 4650 C 432.833 1.33562 1.58016 0
M  V30 4651 C 433.248 -0.0835616 1.88615 0
M  V30 4652 O 432.605 -1.0399 1.49974 0
M  V30 4653 C 432.656 2.15517 2.90232 0
M  V30 4654 O 432.377 3.51902 2.60953 0
M  V30 4655 C 433.878 2.20546 3.84544 0
M  V30 4656 H 431.098 0.458226 0.490173 0
M  V30 4657 H 433.642 1.79361 0.982345 0
M  V30 4658 H 431.797 1.73278 3.46487 0
M  V30 4659 H 432.211 3.94644 3.4548 0
M  V30 4660 H 433.685 2.82252 4.74382 0
M  V30 4661 H 434.162 1.20838 4.2225 0
M  V30 4662 H 434.768 2.63013 3.34222 0
M  V30 4663 N 433.083 -1.0153 1.20538 0
M  V30 4664 C 434.013 -2.11972 0.979295 0
M  V30 4665 C 434.994 -1.6985 -0.0921787 0
M  V30 4666 O 436.179 -1.94089 0.0655932 0
M  V30 4667 C 433.309 -3.43201 0.531984 0
M  V30 4668 C 432.263 -3.9907 1.54685 0
M  V30 4669 C 431.589 -5.26082 0.956127 0
M  V30 4670 C 432.889 -4.32313 2.93092 0
M  V30 4671 H 434.583 -2.31143 1.90298 0
M  V30 4672 H 432.129 -1.11079 0.916372 0
M  V30 4673 H 434.082 -4.1985 0.361044 0
M  V30 4674 H 432.806 -3.23792 -0.427327 0
M  V30 4675 H 431.465 -3.2453 1.70517 0
M  V30 4676 H 431.113 -5.02999 -0.0111538 0
M  V30 4677 H 430.813 -5.64426 1.63393 0
M  V30 4678 H 432.337 -6.05386 0.796284 0
M  V30 4679 H 433.751 -4.99845 2.80763 0
M  V30 4680 H 432.148 -4.81774 3.57791 0
M  V30 4681 H 433.218 -3.41025 3.44717 0
M  V30 4682 N 434.561 -1.01147 -1.20859 0
M  V30 4683 C 435.491 -0.597663 -2.25722 0
M  V30 4684 C 436.472 0.384744 -1.65692 0
M  V30 4685 O 437.657 0.271303 -1.92296 0
M  V30 4686 C 434.787 0.0700149 -3.47229 0
M  V30 4687 C 433.741 -0.832843 -4.19819 0
M  V30 4688 C 433.067 -0.0312202 -5.34691 0
M  V30 4689 C 434.367 -2.1385 -4.76514 0
M  V30 4690 H 436.061 -1.47423 -2.60589 0
M  V30 4691 H 433.607 -0.710301 -1.25263 0
M  V30 4692 H 435.56 0.37103 -4.19763 0
M  V30 4693 H 434.284 0.981259 -3.11511 0
M  V30 4694 H 432.943 -1.11778 -3.49144 0
M  V30 4695 H 432.591 0.881515 -4.95215 0
M  V30 4696 H 432.291 -0.632434 -5.84187 0
M  V30 4697 H 433.815 0.26346 -6.10031 0
M  V30 4698 H 435.229 -1.9002 -5.40893 0
M  V30 4699 H 433.626 -2.69012 -5.36426 0
M  V30 4700 H 434.696 -2.80495 -3.95538 0
M  V30 4701 N 436.039 1.36541 -0.78704 0
M  V30 4702 C 437.316 1.9355 -0.282424 0
M  V30 4703 C 437.696 1.71919 1.22503 0
M  V30 4704 O 437.044 1.07677 2.01539 0
M  V30 4705 C 437.254 3.4246 -0.672462 0
M  V30 4706 C 438.602 4.19582 -0.650863 0
M  V30 4707 O 439.626 3.50889 -0.612789 0
M  V30 4708 O 438.485 5.42106 -0.691623 0
M  V30 4709 H 435.579 0.824091 -0.0693 0
M  V30 4710 H 438.125 1.45736 -0.869423 0
M  V30 4711 H 436.897 3.51851 -1.71221 0
M  V30 4712 H 436.52 3.97556 -0.0592211 0
M  V30 4713 N 437.518 0.538854 1.48102 0
M  V30 4714 C 438.743 0.0102694 2.07397 0
M  V30 4715 C 439.168 -1.26562 1.39153 0
M  V30 4716 O 438.526 -1.75357 0.460387 0
M  V30 4717 C 438.574 -0.187602 3.60112 0
M  V30 4718 O 437.678 -1.25432 3.92862 0
M  V30 4719 H 437.019 0.0430975 0.6626 0
M  V30 4720 H 439.549 0.749301 1.90385 0
M  V30 4721 H 439.559 -0.407517 4.0596 0
M  V30 4722 H 438.234 0.744386 4.09184 0
M  V30 4723 H 436.811 -1.01636 3.58782 0
M  V30 4724 N 438.996 -1.55193 0.274407 0
M  V30 4725 C 439.944 -2.23924 -0.629362 0
M  V30 4726 C 440.938 -1.23602 -1.1584 0
M  V30 4727 O 442.144 -1.41535 -1.11211 0
M  V30 4728 H 438.519 -0.718637 -0.221507 0
M  V30 4729 H 440.49 -2.98388 -0.0268322 0
M  V30 4730 C 439.239 -2.97329 -1.80252 0
M  V30 4731 H 438.562 -3.74313 -1.40462 0
M  V30 4732 H 440.002 -3.48743 -2.41152 0
M  V30 4733 C 438.461 -2.0276 -2.69054 0
M  V30 4734 O 438.991 -1.57836 -3.69392 0
M  V30 4735 N 437.197 -1.69275 -2.36208 0
M  V30 4736 H 436.744 -2.06004 -1.54661 0
M  V30 4737 H 436.702 -1.06271 -2.95895 0
M  V30 4738 N 440.474 -0.00167713 -1.576 0
M  V30 4739 C 441.699 0.69739 -1.95323 0
M  V30 4740 C 442.124 1.6642 -0.876706 0
M  V30 4741 O 441.482 1.80548 0.165007 0
M  V30 4742 C 441.53 1.40403 -3.32144 0
M  V30 4743 O 440.634 2.5185 -3.26566 0
M  V30 4744 H 439.975 0.185373 -0.637599 0
M  V30 4745 H 442.505 -0.0553665 -2.04525 0
M  V30 4746 H 442.515 1.76707 -3.67748 0
M  V30 4747 H 441.19 0.695167 -4.10049 0
M  V30 4748 H 439.767 2.17861 -3.0264 0
M  V30 4749 N 441.952 1.55251 0.271103 0
M  V30 4750 C 442.862 1.9136 1.35714 0
M  V30 4751 C 443.878 0.811075 1.5394 0
M  V30 4752 O 445.054 1.11031 1.6803 0
M  V30 4753 C 442.119 2.1798 2.69603 0
M  V30 4754 C 441.18 3.4153 2.60107 0
M  V30 4755 C 440.413 3.66871 3.8761 0
M  V30 4756 O 440.636 2.94689 4.8838 0
M  V30 4757 O 439.57 4.60405 3.87699 0
M  V30 4758 H 443.396 2.83815 1.08088 0
M  V30 4759 H 440.981 1.41821 0.469792 0
M  V30 4760 H 442.863 2.36518 3.48765 0
M  V30 4761 H 441.538 1.28708 2.97012 0
M  V30 4762 H 440.445 3.28325 1.79314 0
M  V30 4763 H 441.778 4.31027 2.37647 0
M  V30 4764 N 443.43 -0.535701 1.48216 0
M  V30 4765 C 444.362 -1.65662 1.58394 0
M  V30 4766 C 445.375 -1.5591 0.468607 0
M  V30 4767 O 446.564 -1.62475 0.7392 0
M  V30 4768 C 443.664 -3.04276 1.4923 0
M  V30 4769 C 442.837 -3.39567 2.75705 0
M  V30 4770 C 441.896 -4.57436 2.60075 0
M  V30 4771 O 440.922 -4.60942 3.33948 0
M  V30 4772 N 442.124 -5.55259 1.69315 0
M  V30 4773 H 444.889 -1.5737 2.55058 0
M  V30 4774 H 442.45 -0.722845 1.44867 0
M  V30 4775 H 444.442 -3.80994 1.36477 0
M  V30 4776 H 443.012 -3.06677 0.605632 0
M  V30 4777 H 442.232 -2.52083 3.03064 0
M  V30 4778 H 443.52 -3.59929 3.59623 0
M  V30 4779 H 442.918 -5.552 1.08489 0
M  V30 4780 H 441.475 -6.31218 1.62504 0
M  V30 4781 N 444.908 -1.36708 -0.784132 0
M  V30 4782 C 446.157 -1.30559 -1.53744 0
M  V30 4783 C 446.47 0.111374 -1.95283 0
M  V30 4784 O 447.676 0.29527 -2.6989 0
M  V30 4785 C 446.132 -2.29098 -2.77565 0
M  V30 4786 C 445.74 -3.76258 -2.43174 0
M  V30 4787 C 447.484 -2.31936 -3.55536 0
M  V30 4788 C 445.391 -4.6656 -3.63422 0
M  V30 4789 H 444.321 -0.48518 -0.577162 0
M  V30 4790 H 446.972 -1.62101 -0.859981 0
M  V30 4791 H 445.354 -1.90557 -3.47137 0
M  V30 4792 H 446.528 -4.23565 -1.81465 0
M  V30 4793 H 444.843 -3.76246 -1.78403 0
M  V30 4794 H 447.44 -2.9661 -4.44889 0
M  V30 4795 H 447.783 -1.3294 -3.94503 0
M  V30 4796 H 448.316 -2.6912 -2.92949 0
M  V30 4797 H 445.055 -5.66638 -3.29547 0
M  V30 4798 H 444.575 -4.23966 -4.24279 0
M  V30 4799 H 446.254 -4.8309 -4.30387 0
M  V30 4800 N 446.386 1.0089 -1.21074 0
M  V30 4801 C 447.632 1.74866 -1.02712 0
M  V30 4802 C 447.965 1.89178 0.438787 0
M  V30 4803 O 447.24 1.42325 1.32567 0
M  V30 4804 C 447.523 3.16347 -1.72036 0
M  V30 4805 C 447.376 3.09782 -3.26121 0
M  V30 4806 C 448.695 4.15187 -1.45973 0
M  V30 4807 H 445.814 0.634736 -0.374539 0
M  V30 4808 H 448.456 1.17646 -1.49196 0
M  V30 4809 H 446.606 3.65201 -1.32517 0
M  V30 4810 H 448.278 2.68673 -3.74983 0
M  V30 4811 H 446.521 2.46982 -3.56626 0
M  V30 4812 H 447.192 4.09829 -3.6979 0
M  V30 4813 H 449.668 3.75022 -1.80272 0
M  V30 4814 H 448.544 5.12331 -1.96999 0
M  V30 4815 H 448.805 4.40386 -0.388924 0
M  V30 4816 N 447.864 1.01787 1.20321 0
M  V30 4817 C 448.797 0.533882 2.21867 0
M  V30 4818 C 449.775 -0.419361 1.57099 0
M  V30 4819 O 450.959 -0.339062 1.85426 0
M  V30 4820 C 448.086 -0.222899 3.37966 0
M  V30 4821 C 447.132 0.680091 4.21043 0
M  V30 4822 S 447.965 2.14997 4.90445 0
M  V30 4823 C 449.121 1.40339 6.09964 0
M  V30 4824 H 449.354 1.39429 2.62577 0
M  V30 4825 H 446.887 0.826867 1.30393 0
M  V30 4826 H 448.845 -0.653425 4.05266 0
M  V30 4827 H 447.506 -1.0589 2.95713 0
M  V30 4828 H 446.699 0.0964704 5.03908 0
M  V30 4829 H 446.301 1.04845 3.59004 0
M  V30 4830 H 448.593 0.68407 6.74038 0
M  V30 4831 H 449.536 2.20823 6.72787 0
M  V30 4832 H 449.944 0.905716 5.57187 0
M  V30 4833 N 449.342 -1.36122 0.79427 0
M  V30 4834 C 450.289 -2.29982 0.194101 0
M  V30 4835 C 451.259 -1.52214 -0.664833 0
M  V30 4836 O 452.444 -1.80702 -0.612498 0
M  V30 4837 C 449.584 -3.38706 -0.661244 0
M  V30 4838 C 448.697 -4.31456 0.216766 0
M  V30 4839 C 447.832 -5.27265 -0.645411 0
M  V30 4840 C 446.871 -6.11653 0.233756 0
M  V30 4841 N 446.008 -6.99636 -0.587682 0
M  V30 4842 H 450.848 -2.80722 0.999965 0
M  V30 4843 H 448.385 -1.38172 0.504677 0
M  V30 4844 H 450.343 -4.00394 -1.17219 0
M  V30 4845 H 448.973 -2.89274 -1.43249 0
M  V30 4846 H 448.025 -3.7088 0.845724 0
M  V30 4847 H 449.337 -4.90724 0.893973 0
M  V30 4848 H 448.491 -5.94266 -1.22198 0
M  V30 4849 H 447.23 -4.68463 -1.35623 0
M  V30 4850 H 446.235 -5.4361 0.82269 0
M  V30 4851 H 447.46 -6.72531 0.942247 0
M  V30 4852 H 445.406 -6.43337 -1.2827 0
M  V30 4853 H 445.323 -7.55993 0.0317402 0
M  V30 4854 H 446.591 -7.71001 -1.14792 0
M  V30 4855 N 450.82 -0.546701 -1.47814 0
M  V30 4856 C 452.231 -0.110564 -1.86372 0
M  V30 4857 C 452.582 1.31678 -1.45449 0
M  V30 4858 O 451.707 1.98889 -0.852758 0
M  V30 4859 C 452.302 -0.193873 -3.38245 0
M  V30 4860 C 450.861 0.187164 -3.75934 0
M  V30 4861 C 450.008 -0.546166 -2.71868 0
M  V30 4862 H 452.959 -0.757022 -1.39481 0
M  V30 4863 H 452.98 0.590218 -3.75895 0
M  V30 4864 H 452.492 -1.23282 -3.67999 0
M  V30 4865 H 450.593 1.22762 -3.51796 0
M  V30 4866 H 450.706 -0.164083 -4.78819 0
M  V30 4867 H 449.07 0.00953904 -2.54698 0
M  V30 4868 H 449.853 -1.58606 -3.04465 0
M  V30 4869 N 452.299 1.55045 -0.282633 0
M  V30 4870 C 453.247 2.24254 0.617478 0
M  V30 4871 C 454.241 1.24215 1.15183 0
M  V30 4872 O 455.447 1.42123 1.10459 0
M  V30 4873 H 451.822 0.719801 0.217693 0
M  V30 4874 H 453.793 2.98398 0.0110076 0
M  V30 4875 C 452.542 2.98281 1.78672 0
M  V30 4876 H 451.865 3.75053 1.38475 0
M  V30 4877 H 453.305 3.50017 2.393 0
M  V30 4878 C 451.764 2.04184 2.67975 0
M  V30 4879 O 452.294 1.59792 3.6855 0
M  V30 4880 N 450.5 1.70526 2.35307 0
M  V30 4881 H 450.047 2.06821 1.53567 0
M  V30 4882 H 450.005 1.07839 2.95327 0
M  V30 4883 N 453.777 0.010035 1.57597 0
M  V30 4884 C 454.724 -0.978122 2.09049 0
M  V30 4885 C 455.694 -1.33509 0.988159 0
M  V30 4886 O 456.879 -1.43172 1.26121 0
M  V30 4887 C 454.019 -2.26158 2.60666 0
M  V30 4888 C 453.132 -1.96275 3.84838 0
M  V30 4889 C 452.267 -3.18776 4.24918 0
M  V30 4890 C 451.306 -2.84625 5.41899 0
M  V30 4891 N 450.443 -3.99693 5.77226 0
M  V30 4892 H 455.283 -0.532431 2.93205 0
M  V30 4893 H 452.82 -0.251234 1.44939 0
M  V30 4894 H 454.778 -3.01202 2.88675 0
M  V30 4895 H 453.408 -2.68378 1.79369 0
M  V30 4896 H 452.46 -1.11555 3.63675 0
M  V30 4897 H 453.772 -1.67111 4.69974 0
M  V30 4898 H 452.926 -4.02157 4.54262 0
M  V30 4899 H 451.665 -3.51087 3.38511 0
M  V30 4900 H 450.67 -1.99653 5.12268 0
M  V30 4901 H 451.895 -2.53551 6.29991 0
M  V30 4902 H 449.841 -4.31882 4.93776 0
M  V30 4903 H 449.758 -3.74087 6.56959 0
M  V30 4904 H 451.026 -4.83834 6.11167 0
M  V30 4905 N 455.255 -1.55392 -0.262866 0
M  V30 4906 C 456.501 -1.76737 -0.99458 0
M  V30 4907 C 456.834 -0.572453 -1.85571 0
M  V30 4908 O 456.109 0.429732 -1.89693 0
M  V30 4909 C 456.392 -3.07824 -1.8686 0
M  V30 4910 C 456.245 -4.3769 -1.03672 0
M  V30 4911 C 457.564 -3.35021 -2.85393 0
M  V30 4912 H 454.683 -0.643005 -0.360157 0
M  V30 4913 H 457.325 -1.88126 -0.266216 0
M  V30 4914 H 455.475 -2.98245 -2.48962 0
M  V30 4915 H 457.147 -4.59238 -0.43563 0
M  V30 4916 H 455.39 -4.32461 -0.340513 0
M  V30 4917 H 456.061 -5.25759 -1.6817 0
M  V30 4918 H 458.537 -3.44458 -2.33426 0
M  V30 4919 H 457.413 -4.27989 -3.43681 0
M  V30 4920 H 457.674 -2.55153 -3.61039 0
M  V30 4921 N 456.733 0.527833 -1.48498 0
M  V30 4922 C 457.961 1.30823 -1.6029 0
M  V30 4923 C 458.376 1.86945 -0.263974 0
M  V30 4924 O 457.733 1.6651 0.747034 0
M  V30 4925 C 457.784 2.45756 -2.65116 0
M  V30 4926 O 457.505 1.91946 -3.93813 0
M  V30 4927 C 459.006 3.37543 -2.87367 0
M  V30 4928 H 456.226 0.397763 -0.540394 0
M  V30 4929 H 458.77 0.636529 -1.94341 0
M  V30 4930 H 456.925 3.08806 -2.33917 0
M  V30 4931 H 457.339 2.67195 -4.51339 0
M  V30 4932 H 458.813 4.14532 -3.6451 0
M  V30 4933 H 459.29 3.92905 -1.9627 0
M  V30 4934 H 459.896 2.80283 -3.19878 0
M  V30 4935 N 458.211 1.37122 0.776871 0
M  V30 4936 C 459.174 1.32301 1.8716 0
M  V30 4937 C 460.174 0.228099 1.59174 0
M  V30 4938 O 461.364 0.483642 1.67352 0
M  V30 4939 C 458.496 1.054 3.24197 0
M  V30 4940 H 459.689 2.29673 1.92848 0
M  V30 4941 H 457.242 1.22077 0.97606 0
M  V30 4942 H 457.977 0.0853872 3.24188 0
M  V30 4943 H 457.762 1.84648 3.45901 0
M  V30 4944 H 459.252 1.04664 4.04271 0
M  V30 4945 N 459.689 -1.00246 1.21608 0
M  V30 4946 C 460.938 -1.73476 1.02902 0
M  V30 4947 C 461.251 -1.90643 -0.437561 0
M  V30 4948 O 462.457 -2.61105 -0.74407 0
M  V30 4949 C 460.913 -3.12079 1.79261 0
M  V30 4950 C 460.521 -3.02877 3.30106 0
M  V30 4951 C 462.265 -3.89421 1.68972 0
M  V30 4952 C 460.172 -4.36575 3.98944 0
M  V30 4953 H 459.102 -0.650408 0.381425 0
M  V30 4954 H 461.753 -1.11985 1.45367 0
M  V30 4955 H 460.135 -3.74196 1.2959 0
M  V30 4956 H 461.309 -2.49983 3.87098 0
M  V30 4957 H 459.624 -2.39022 3.40965 0
M  V30 4958 H 462.221 -4.88362 2.17731 0
M  V30 4959 H 462.564 -4.1122 0.648397 0
M  V30 4960 H 463.097 -3.33963 2.16133 0
M  V30 4961 H 459.836 -4.19978 5.03288 0
M  V30 4962 H 459.356 -4.8942 3.4674 0
M  V30 4963 H 461.035 -5.05364 4.04 0
M  V30 4964 N 461.167 -1.02423 -1.1978 0
M  V30 4965 C 462.392 -0.7373 -1.93852 0
M  V30 4966 C 462.817 0.696923 -1.74713 0
M  V30 4967 O 462.175 1.48056 -1.04638 0
M  V30 4968 C 462.223 -1.08783 -3.438 0
M  V30 4969 O 461.327 -0.20383 -4.11896 0
M  V30 4970 H 460.668 -0.27284 -0.605355 0
M  V30 4971 H 463.198 -1.36966 -1.51992 0
M  V30 4972 H 463.208 -1.04276 -3.9445 0
M  V30 4973 H 461.883 -2.13274 -3.57053 0
M  V30 4974 H 460.46 -0.307091 -3.71633 0
M  V30 4975 N 462.645 1.35699 -0.801477 0
M  V30 4976 C 463.592 2.29876 -0.206294 0
M  V30 4977 C 464.562 1.52565 0.656752 0
M  V30 4978 O 465.747 1.81024 0.602906 0
M  V30 4979 C 462.887 3.39052 0.643272 0
M  V30 4980 C 462 4.31335 -0.239644 0
M  V30 4981 C 461.135 5.27599 0.61744 0
M  V30 4982 C 460.174 6.11521 -0.26619 0
M  V30 4983 N 459.311 6.99938 0.550571 0
M  V30 4984 H 464.151 2.80187 -1.01484 0
M  V30 4985 H 461.688 1.37902 -0.511997 0
M  V30 4986 H 463.646 4.0101 1.15094 0
M  V30 4987 H 462.276 2.9003 1.41713 0
M  V30 4988 H 461.328 3.70426 -0.865381 0
M  V30 4989 H 462.64 4.90243 -0.919985 0
M  V30 4990 H 461.794 5.94906 1.19045 0
M  V30 4991 H 460.533 4.69176 1.33137 0
M  V30 4992 H 459.538 5.43166 -0.851507 0
M  V30 4993 H 460.763 6.72022 -0.9779 0
M  V30 4994 H 458.709 6.44008 1.24856 0
M  V30 4995 H 458.626 7.55966 -0.071832 0
M  V30 4996 H 459.894 7.71599 1.10702 0
M  V30 4997 N 464.123 0.554532 1.47522 0
M  V30 4998 C 465.033 -0.197865 2.33764 0
M  V30 4999 C 466.049 -0.914576 1.48025 0
M  V30 5000 O 467.225 -0.884067 1.80959 0
M  V30 5001 C 464.29 -1.21628 3.24665 0
M  V30 5002 C 463.351 -0.507283 4.26292 0
M  V30 5003 C 462.584 -1.47718 5.1285 0
M  V30 5004 O 462.807 -2.7118 5.01814 0
M  V30 5005 O 461.741 -1.00313 5.93482 0
M  V30 5006 H 465.567 0.50949 2.99396 0
M  V30 5007 H 463.152 0.315176 1.46038 0
M  V30 5008 H 465.034 -1.80421 3.80823 0
M  V30 5009 H 463.709 -1.9056 2.61665 0
M  V30 5010 H 462.616 0.121778 3.73902 0
M  V30 5011 H 463.949 0.140544 4.91999 0
M  V30 5012 N 465.601 -1.54893 0.290851 0
M  V30 5013 C 467.012 -1.85584 -0.203816 0
M  V30 5014 C 467.363 -1.21285 -1.54222 0
M  V30 5015 O 466.488 -0.506841 -2.10381 0
M  V30 5016 C 467.083 -3.367 -0.376595 0
M  V30 5017 C 465.642 -3.6746 -0.815485 0
M  V30 5018 C 464.789 -2.77178 0.0821087 0
M  V30 5019 H 467.74 -1.50208 0.512175 0
M  V30 5020 H 467.761 -3.60656 -1.21275 0
M  V30 5021 H 467.273 -3.8347 0.59767 0
M  V30 5022 H 465.374 -3.26201 -1.80066 0
M  V30 5023 H 465.487 -4.7478 -0.641905 0
M  V30 5024 H 463.851 -2.50925 -0.436895 0
M  V30 5025 H 464.634 -3.26767 1.05254 0
M  V30 5026 N 467.08 -0.0183926 -1.57589 0
M  V30 5027 C 468.305 0.676634 -1.96052 0
M  V30 5028 C 468.73 1.6548 -0.894307 0
M  V30 5029 O 468.088 1.80712 0.145849 0
M  V30 5030 C 468.136 1.36872 -3.33614 0
M  V30 5031 O 467.24 2.48372 -3.29219 0
M  V30 5032 H 466.581 0.1786 -0.63953 0
M  V30 5033 H 469.111 -0.077056 -2.04455 0
M  V30 5034 H 469.121 1.72797 -3.69601 0
M  V30 5035 H 467.796 0.651636 -4.10763 0
M  V30 5036 H 466.373 2.14639 -3.04934 0
M  V30 5037 N 468.558 1.5553 0.254621 0
M  V30 5038 C 469.804 1.77262 0.985193 0
M  V30 5039 C 470.137 0.582286 1.85265 0
M  V30 5040 O 469.412 -0.419666 1.89919 0
M  V30 5041 C 469.695 3.0881 1.85225 0
M  V30 5042 C 469.548 4.38233 1.0135 0
M  V30 5043 C 470.867 3.3653 2.83612 0
M  V30 5044 H 467.986 0.644906 0.356742 0
M  V30 5045 H 470.628 1.88264 0.256236 0
M  V30 5046 H 468.778 2.99562 2.47376 0
M  V30 5047 H 470.45 4.59463 0.411269 0
M  V30 5048 H 468.693 4.32636 0.317574 0
M  V30 5049 H 469.364 5.26644 1.65379 0
M  V30 5050 H 471.84 3.45691 2.31596 0
M  V30 5051 H 470.716 4.29805 3.41407 0
M  V30 5052 H 470.977 2.57064 3.59681 0
M  V30 5053 N 470.036 -0.519951 1.48776 0
M  V30 5054 C 470.983 -1.62352 1.64044 0
M  V30 5055 C 471.953 -1.58945 0.482251 0
M  V30 5056 O 473.138 -1.77219 0.706971 0
M  V30 5057 C 470.278 -3.00579 1.69547 0
M  V30 5058 C 469.391 -3.14145 2.96541 0
M  V30 5059 C 468.526 -4.42991 2.93142 0
M  V30 5060 C 467.565 -4.50122 4.14797 0
M  V30 5061 N 466.702 -5.7037 4.09418 0
M  V30 5062 H 471.542 -1.48643 2.58281 0
M  V30 5063 H 469.079 -0.723516 1.28077 0
M  V30 5064 H 471.037 -3.80671 1.70719 0
M  V30 5065 H 469.667 -3.13036 0.787918 0
M  V30 5066 H 468.719 -2.27239 3.05068 0
M  V30 5067 H 470.031 -3.15275 3.86527 0
M  V30 5068 H 469.185 -5.31385 2.92772 0
M  V30 5069 H 467.924 -4.44398 2.00902 0
M  V30 5070 H 466.929 -3.60133 4.15433 0
M  V30 5071 H 468.154 -4.50445 5.08208 0
M  V30 5072 H 466.1 -5.72655 3.20004 0
M  V30 5073 H 466.017 -5.73036 4.93119 0
M  V30 5074 H 467.285 -6.61023 4.13121 0
M  V30 5075 N 471.514 -1.37532 -0.769588 0
M  V30 5076 C 472.447 -1.27839 -1.8903 0
M  V30 5077 C 473.425 -0.158504 -1.61826 0
M  V30 5078 O 474.609 -0.333086 -1.85534 0
M  V30 5079 C 471.736 -0.977072 -3.24301 0
M  V30 5080 C 470.782 -2.11414 -3.70414 0
M  V30 5081 S 471.615 -3.73409 -3.83831 0
M  V30 5082 C 472.771 -3.45432 -5.21946 0
M  V30 5083 H 473.004 -2.22694 -1.96963 0
M  V30 5084 H 470.537 -1.2318 -0.930914 0
M  V30 5085 H 472.495 -0.810049 -4.02428 0
M  V30 5086 H 471.156 -0.0459701 -3.14066 0
M  V30 5087 H 470.349 -1.85837 -4.68488 0
M  V30 5088 H 469.951 -2.24141 -2.99394 0
M  V30 5089 H 472.243 -3.00554 -6.07185 0
M  V30 5090 H 473.186 -4.42841 -5.52537 0
M  V30 5091 H 473.594 -2.80311 -4.89986 0
M  V30 5092 N 472.992 0.995999 -1.22138 0
M  V30 5093 C 474.222 1.76809 -1.06874 0
M  V30 5094 C 474.63 1.85265 0.383866 0
M  V30 5095 O 473.973 1.31969 1.27789 0
M  V30 5096 C 474.035 3.2186 -1.60144 0
M  V30 5097 C 473.699 3.36958 -3.0872 0
M  V30 5098 C 474.696 3.2452 -4.0618 0
M  V30 5099 C 472.381 3.62109 -3.48112 0
M  V30 5100 C 474.375 3.37013 -5.41019 0
M  V30 5101 C 472.062 3.74243 -4.831 0
M  V30 5102 C 473.06 3.61702 -5.79362 0
M  V30 5103 O 472.748 3.73436 -7.119 0
M  V30 5104 H 472.48 0.562207 -0.375365 0
M  V30 5105 H 475.034 1.26113 -1.62125 0
M  V30 5106 H 473.264 3.73734 -0.992981 0
M  V30 5107 H 474.953 3.80775 -1.40589 0
M  V30 5108 H 475.719 3.05004 -3.77091 0
M  V30 5109 H 471.598 3.70949 -2.73712 0
M  V30 5110 H 475.142 3.27141 -6.16137 0
M  V30 5111 H 471.039 3.93266 -5.11872 0
M  V30 5112 H 471.807 3.90328 -7.19435 0
M  V30 5113 N 474.47 1.03057 1.19235 0
M  V30 5114 C 475.42 0.583386 2.2041 0
M  V30 5115 C 476.404 -0.368776 1.56617 0
M  V30 5116 O 477.596 -0.189471 1.75983 0
M  V30 5117 C 474.725 -0.0626534 3.43243 0
M  V30 5118 C 473.811 0.91205 4.14177 0
M  V30 5119 N 474.202 2.07514 4.61272 0
M  V30 5120 C 472.5 0.735859 4.39888 0
M  V30 5121 C 473.201 2.69003 5.15764 0
M  V30 5122 N 472.177 1.96954 5.06666 0
M  V30 5123 H 475.979 1.46988 2.54503 0
M  V30 5124 H 473.493 0.897785 1.35328 0
M  V30 5125 H 475.49 -0.400653 4.1497 0
M  V30 5126 H 474.15 -0.944813 3.1065 0
M  V30 5127 H 475.161 2.45448 4.56043 0
M  V30 5128 H 471.838 -0.0970656 4.17387 0
M  V30 5129 H 473.228 3.67514 5.6248 0
M  V30 5130 N 475.948 -1.35272 0.808662 0
M  V30 5131 C 476.895 -2.29764 0.218482 0
M  V30 5132 C 477.865 -1.52911 -0.648652 0
M  V30 5133 O 479.05 -1.81341 -0.593297 0
M  V30 5134 C 476.19 -3.39388 -0.625282 0
M  V30 5135 C 475.303 -4.31202 0.262516 0
M  V30 5136 C 474.438 -5.27919 -0.589451 0
M  V30 5137 C 473.477 -6.11371 0.298617 0
M  V30 5138 N 472.614 -7.0022 -0.513443 0
M  V30 5139 H 477.454 -2.79645 1.02968 0
M  V30 5140 H 474.991 -1.37629 0.519303 0
M  V30 5141 H 476.949 -4.01615 -1.12966 0
M  V30 5142 H 475.579 -2.90777 -1.40173 0
M  V30 5143 H 474.631 -3.69962 0.885013 0
M  V30 5144 H 475.943 -4.89748 0.945971 0
M  V30 5145 H 475.097 -5.95529 -1.15888 0
M  V30 5146 H 473.836 -4.69875 -1.30647 0
M  V30 5147 H 472.841 -5.42707 0.880301 0
M  V30 5148 H 474.066 -6.71494 1.01352 0
M  V30 5149 H 472.012 -6.44662 -1.21439 0
M  V30 5150 H 471.929 -7.55917 0.111922 0
M  V30 5151 H 473.197 -7.72175 -1.06608 0
M  V30 5152 N 477.426 -0.562348 -1.47226 0
M  V30 5153 C 478.654 -0.0452275 -2.06851 0
M  V30 5154 C 479.069 1.25078 -1.41424 0
M  V30 5155 O 478.426 1.75156 -0.512513 0
M  V30 5156 C 478.477 0.148674 -3.61194 0
M  V30 5157 O 478.198 -1.09602 -4.24169 0
M  V30 5158 C 479.699 0.702488 -4.37699 0
M  V30 5159 H 476.919 -0.0481775 -0.669268 0
M  V30 5160 H 479.463 -0.777223 -1.89155 0
M  V30 5161 H 477.618 0.830817 -3.78386 0
M  V30 5162 H 478.032 -0.896982 -5.16773 0
M  V30 5163 H 479.506 0.78743 -5.46355 0
M  V30 5164 H 479.983 1.71493 -4.04335 0
M  V30 5165 H 480.589 0.0558772 -4.25263 0
M  V30 5166 N 478.904 1.54736 -0.299062 0
M  V30 5167 C 480.152 1.99706 0.31017 0
M  V30 5168 C 480.473 1.18896 1.54559 0
M  V30 5169 O 479.743 0.284445 1.93824 0
M  V30 5170 H 478.323 0.737686 0.117596 0
M  V30 5171 H 480.985 1.9054 -0.409943 0
M  V30 5172 H 480.081 3.06596 0.58355 0
M  V30 5173 N 480.382 0.0267497 1.57577 0
M  V30 5174 C 481.607 -0.666227 1.96408 0
M  V30 5175 C 482.032 -1.65004 0.903071 0
M  V30 5176 O 481.39 -1.80787 -0.136263 0
M  V30 5177 C 481.438 -1.35101 3.34335 0
M  V30 5178 O 480.542 -2.46623 3.30531 0
M  V30 5179 H 479.883 -0.175206 0.640468 0
M  V30 5180 H 482.413 0.0878977 2.04411 0
M  V30 5181 H 482.423 -1.70834 3.70513 0
M  V30 5182 H 481.098 -0.629844 4.11103 0
M  V30 5183 H 479.675 -2.13019 3.06068 0
M  V30 5184 N 481.861 -1.55662 -0.24637 0
M  V30 5185 C 483.089 -1.81575 -0.991876 0
M  V30 5186 C 483.504 -0.602545 -1.78927 0
M  V30 5187 O 482.861 0.428795 -1.77391 0
M  V30 5188 C 482.912 -3.05711 -1.92933 0
M  V30 5189 O 482.633 -4.22348 -1.1642 0
M  V30 5190 C 484.134 -3.44428 -2.79078 0
M  V30 5191 H 481.354 -0.604209 -0.291844 0
M  V30 5192 H 483.898 -2.02722 -0.269095 0
M  V30 5193 H 482.053 -2.86612 -2.60638 0
M  V30 5194 H 482.467 -4.92706 -1.79835 0
M  V30 5195 H 483.941 -4.34388 -3.40603 0
M  V30 5196 H 484.418 -2.65037 -3.50217 0
M  V30 5197 H 485.024 -3.65879 -2.16824 0
M  V30 5198 N 483.339 0.512053 -1.4905 0
M  V30 5199 C 484.287 1.63568 -1.65373 0
M  V30 5200 C 485.281 1.61228 -0.519806 0
M  V30 5201 O 486.487 1.65869 -0.699101 0
M  V30 5202 H 482.862 0.542019 -0.521267 0
M  V30 5203 H 484.833 1.4695 -2.59708 0
M  V30 5204 C 483.582 3.01761 -1.7273 0
M  V30 5205 H 482.905 3.04263 -2.59353 0
M  V30 5206 H 484.345 3.79948 -1.8819 0
M  V30 5207 C 482.804 3.33609 -0.46973 0
M  V30 5208 O 483.334 3.99607 0.409492 0
M  V30 5209 N 481.54 2.88651 -0.336003 0
M  V30 5210 H 481.087 2.35119 -1.05247 0
M  V30 5211 H 481.045 3.10328 0.504363 0
M  V30 5212 N 484.817 1.37938 0.762283 0
M  V30 5213 C 486.065 1.33404 1.51815 0
M  V30 5214 C 486.386 -0.0780975 1.94844 0
M  V30 5215 O 485.656 -1.02405 1.67003 0
M  V30 5216 H 484.236 0.490839 0.563104 0
M  V30 5217 H 486.898 1.72527 0.906669 0
M  V30 5218 H 485.994 1.97926 2.41313 0
M  V30 5219 N 486.295 -0.989507 1.22664 0
M  V30 5220 C 487.542 -1.72953 1.05325 0
M  V30 5221 C 487.87 -1.90104 -0.411168 0
M  V30 5222 O 487.125 -1.44386 -1.32103 0
M  V30 5223 C 487.424 -3.13649 1.71345 0
M  V30 5224 C 487.09 -3.16403 3.21248 0
M  V30 5225 C 485.752 -3.16862 3.62149 0
M  V30 5226 C 488.104 -3.12428 4.17179 0
M  V30 5227 C 485.432 -3.11051 4.97458 0
M  V30 5228 C 487.784 -3.08159 5.52468 0
M  V30 5229 C 486.448 -3.06935 5.92746 0
M  V30 5230 H 485.718 -0.632881 0.385412 0
M  V30 5231 H 488.365 -1.15863 1.52473 0
M  V30 5232 H 486.67 -3.74069 1.16532 0
M  V30 5233 H 488.367 -3.69658 1.55416 0
M  V30 5234 H 484.957 -3.16798 2.88682 0
M  V30 5235 H 489.141 -3.11221 3.86595 0
M  V30 5236 H 484.397 -3.0845 5.27891 0
M  V30 5237 H 488.571 -3.04039 6.26525 0
M  V30 5238 H 486.198 -3.02186 6.97558 0
M  V30 5239 N 487.773 -1.03688 -1.18687 0
M  V30 5240 C 489.021 -0.736572 -1.88199 0
M  V30 5241 C 489.342 0.737665 -1.80509 0
M  V30 5242 O 488.612 1.53204 -1.22088 0
M  V30 5243 H 487.192 -0.269466 -0.696704 0
M  V30 5244 H 489.854 -1.31282 -1.44052 0
M  V30 5245 H 488.95 -1.03802 -2.94332 0
M  V30 5246 N 489.251 1.34841 -0.815825 0
M  V30 5247 C 490.479 2.0273 -0.413294 0
M  V30 5248 C 490.894 1.61459 0.978599 0
M  V30 5249 O 490.251 0.816584 1.63212 0
M  V30 5250 C 490.302 3.58058 -0.497676 0
M  V30 5251 O 490.023 3.97832 -1.8347 0
M  V30 5252 C 491.524 4.4321 -0.0891339 0
M  V30 5253 H 488.744 0.649956 -0.166728 0
M  V30 5254 H 491.288 1.72267 -1.10201 0
M  V30 5255 H 489.443 3.87136 0.142886 0
M  V30 5256 H 489.857 4.92501 -1.80396 0
M  V30 5257 H 491.331 5.5164 -0.199274 0
M  V30 5258 H 491.808 4.28432 0.966571 0
M  V30 5259 H 492.414 4.19446 -0.703214 0
M  V30 5260 N 490.729 0.570148 1.46925 0
M  V30 5261 C 491.959 0.0561151 2.06524 0
M  V30 5262 C 492.367 -1.24874 1.42137 0
M  V30 5263 O 491.71 -1.76292 0.516417 0
M  V30 5264 C 491.772 -0.197035 3.5896 0
M  V30 5265 C 491.436 1.02033 4.45464 0
M  V30 5266 C 492.433 1.92921 4.82781 0
M  V30 5267 C 490.118 1.23864 4.86788 0
M  V30 5268 C 492.112 3.03999 5.60235 0
M  V30 5269 C 489.799 2.35249 5.64004 0
M  V30 5270 C 490.797 3.25146 6.0064 0
M  V30 5271 O 490.485 4.34598 6.76299 0
M  V30 5272 H 490.217 0.0487409 0.674241 0
M  V30 5273 H 492.771 0.786915 1.89728 0
M  V30 5274 H 491.001 -0.982299 3.74016 0
M  V30 5275 H 492.69 -0.658032 4.00531 0
M  V30 5276 H 493.456 1.77265 4.51444 0
M  V30 5277 H 489.335 0.54805 4.57731 0
M  V30 5278 H 492.879 3.74192 5.8875 0
M  V30 5279 H 488.776 2.50873 5.94755 0
M  V30 5280 H 489.544 4.32808 6.94708 0
M  V30 5281 N 492.207 -1.54576 0.307264 0
M  V30 5282 C 493.453 -2.0056 -0.300612 0
M  V30 5283 C 493.786 -1.1953 -1.53057 0
M  V30 5284 O 493.061 -0.27337 -1.92569 0
M  V30 5285 C 493.344 -3.54167 -0.650987 0
M  V30 5286 C 493.197 -4.45933 0.588539 0
M  V30 5287 C 494.516 -4.14645 -1.47506 0
M  V30 5288 H 491.635 -0.729075 -0.107788 0
M  V30 5289 H 494.277 -1.85286 0.420606 0
M  V30 5290 H 492.427 -3.67313 -1.26544 0
M  V30 5291 H 494.099 -4.44683 1.22697 0
M  V30 5292 H 492.342 -4.16274 1.22058 0
M  V30 5293 H 493.013 -5.51189 0.299153 0
M  V30 5294 H 495.489 -4.04973 -0.955821 0
M  V30 5295 H 494.365 -5.22269 -1.68899 0
M  V30 5296 H 494.626 -3.66921 -2.4662 0
M  V30 5297 N 493.685 -0.035106 -1.57561 0
M  V30 5298 C 494.931 0.64318 -1.92331 0
M  V30 5299 C 495.264 1.71434 -0.912368 0
M  V30 5300 O 494.539 1.94395 0.0640303 0
M  V30 5301 C 494.822 1.25411 -3.37556 0
M  V30 5302 C 494.675 0.192109 -4.4939 0
M  V30 5303 C 495.994 2.17041 -3.82859 0
M  V30 5304 H 493.113 0.232341 -0.699419 0
M  V30 5305 H 495.755 -0.0935889 -1.89769 0
M  V30 5306 H 493.905 1.88205 -3.39869 0
M  V30 5307 H 495.577 -0.438849 -4.59208 0
M  V30 5308 H 493.82 -0.481725 -4.31117 0
M  V30 5309 H 494.491 0.659292 -5.48049 0
M  V30 5310 H 496.967 1.64228 -3.8232 0
M  V30 5311 H 495.843 2.56738 -4.85157 0
M  V30 5312 H 496.104 3.06401 -3.18702 0
M  V30 5313 N 495.163 1.55791 0.238111 0
M  V30 5314 C 496.41 1.78033 0.964907 0
M  V30 5315 C 496.738 0.600984 1.84982 0
M  V30 5316 O 495.993 -0.41536 1.91241 0
M  V30 5317 C 496.292 3.05869 1.84875 0
M  V30 5318 C 495.958 4.36808 1.11846 0
M  V30 5319 C 494.62 4.72388 0.916662 0
M  V30 5320 C 496.972 5.17717 0.60151 0
M  V30 5321 C 494.3 5.86406 0.185756 0
M  V30 5322 C 496.652 6.32494 -0.115972 0
M  V30 5323 C 495.316 6.66688 -0.329168 0
M  V30 5324 H 494.586 0.651469 0.353085 0
M  V30 5325 H 497.233 1.90061 0.234318 0
M  V30 5326 H 495.538 2.88891 2.64668 0
M  V30 5327 H 497.235 3.20278 2.41294 0
M  V30 5328 H 493.825 4.08862 1.28569 0
M  V30 5329 H 498.009 4.90678 0.744932 0
M  V30 5330 H 493.265 6.11399 0.0101886 0
M  V30 5331 H 497.439 6.94425 -0.524127 0
M  V30 5332 H 495.066 7.54884 -0.897474 0
M  V30 5333 N 496.642 -0.504142 1.49319 0
M  V30 5334 C 497.891 -1.25507 1.57895 0
M  V30 5335 C 498.204 -1.93735 0.269433 0
M  V30 5336 O 499.41 -2.70492 0.233706 0
M  V30 5337 C 497.866 -2.27869 2.78574 0
M  V30 5338 C 497.474 -1.65594 4.16272 0
M  V30 5339 C 499.218 -3.0381 2.96479 0
M  V30 5340 C 497.125 -2.66048 5.28178 0
M  V30 5341 H 496.055 -0.47212 0.587894 0
M  V30 5342 H 498.706 -0.52931 1.757 0
M  V30 5343 H 497.088 -3.03594 2.54257 0
M  V30 5344 H 498.262 -0.958826 4.50714 0
M  V30 5345 H 496.577 -1.02055 4.037 0
M  V30 5346 H 499.174 -3.78925 3.77253 0
M  V30 5347 H 499.517 -3.61235 2.06918 0
M  V30 5348 H 500.05 -2.352 3.20821 0
M  V30 5349 H 496.789 -2.13408 6.19788 0
M  V30 5350 H 496.309 -3.34009 4.98195 0
M  V30 5351 H 497.988 -3.28536 5.57381 0
M  V30 5352 N 498.12 -1.38341 -0.754957 0
M  V30 5353 C 499.531 -1.30803 -1.3322 0
M  V30 5354 C 499.882 0.0368 -1.96165 0
M  V30 5355 O 499.007 0.938844 -1.94974 0
M  V30 5356 C 499.602 -2.3688 -2.42225 0
M  V30 5357 C 498.161 -2.32925 -2.95674 0
M  V30 5358 C 497.308 -2.19819 -1.69042 0
M  V30 5359 H 500.259 -1.48719 -0.553937 0
M  V30 5360 H 500.28 -2.02517 -3.22129 0
M  V30 5361 H 499.792 -3.34747 -1.96383 0
M  V30 5362 H 497.893 -1.38635 -3.45848 0
M  V30 5363 H 498.006 -3.27008 -3.50146 0
M  V30 5364 H 496.37 -1.66648 -1.92615 0
M  V30 5365 H 497.153 -3.19625 -1.25279 0
M  V30 5366 N 499.598 0.982988 -1.23187 0
M  V30 5367 C 500.545 2.07491 -1.01075 0
M  V30 5368 C 501.515 1.65949 0.070905 0
M  V30 5369 O 502.7 1.90629 -0.0806822 0
M  V30 5370 C 499.84 3.39751 -0.605261 0
M  V30 5371 C 498.953 3.94578 -1.75876 0
M  V30 5372 C 498.088 5.15039 -1.3003 0
M  V30 5373 C 497.127 5.62027 -2.42472 0
M  V30 5374 N 496.264 6.73719 -1.97602 0
M  V30 5375 H 501.104 2.25739 -1.9454 0
M  V30 5376 H 498.641 1.10659 -0.969179 0
M  V30 5377 H 500.599 4.15719 -0.351279 0
M  V30 5378 H 499.229 3.21473 0.292382 0
M  V30 5379 H 498.281 3.1539 -2.12681 0
M  V30 5380 H 499.593 4.25422 -2.60418 0
M  V30 5381 H 498.747 5.9833 -1.00429 0
M  V30 5382 H 497.486 4.85843 -0.425216 0
M  V30 5383 H 496.491 4.77318 -2.7285 0
M  V30 5384 H 497.716 5.93244 -3.30512 0
M  V30 5385 H 495.662 6.46287 -1.1247 0
M  V30 5386 H 495.579 7.03934 -2.75705 0
M  V30 5387 H 496.847 7.6049 -1.71098 0
M  V30 5388 N 501.076 1.04316 1.18135 0
M  V30 5389 C 501.986 0.646876 2.25505 0
M  V30 5390 C 503.002 -0.328008 1.7088 0
M  V30 5391 O 504.178 -0.182309 2.00573 0
M  V30 5392 C 501.243 0.0185664 3.46695 0
M  V30 5393 C 500.304 1.04277 4.16443 0
M  V30 5394 C 499.537 0.444352 5.31847 0
M  V30 5395 O 499.76 -0.748735 5.65465 0
M  V30 5396 O 498.694 1.17428 5.90334 0
M  V30 5397 H 502.52 1.54147 2.61672 0
M  V30 5398 H 500.105 0.814188 1.25265 0
M  V30 5399 H 501.987 -0.331068 4.20097 0
M  V30 5400 H 500.662 -0.849814 3.12346 0
M  V30 5401 H 499.569 1.44425 3.45098 0
M  V30 5402 H 500.902 1.882 4.54798 0
M  V30 5403 N 502.554 -1.34406 0.822964 0
M  V30 5404 C 503.502 -2.31428 0.233165 0
M  V30 5405 C 504.496 -1.57404 -0.626118 0
M  V30 5406 O 505.702 -1.72402 -0.517453 0
M  V30 5407 H 502.077 -0.749863 0.0566557 0
M  V30 5408 H 504.048 -2.78699 1.06628 0
M  V30 5409 C 502.797 -3.42653 -0.590264 0
M  V30 5410 H 502.12 -3.99753 0.0616129 0
M  V30 5411 H 503.56 -4.12778 -0.969054 0
M  V30 5412 C 502.019 -2.87112 -1.76262 0
M  V30 5413 O 502.549 -2.81995 -2.8608 0
M  V30 5414 N 500.755 -2.43934 -1.57938 0
M  V30 5415 H 500.302 -2.48296 -0.686078 0
M  V30 5416 H 500.26 -2.07123 -2.36532 0
M  V30 5417 N 504.032 -0.577932 -1.46621 0
M  V30 5418 C 505.281 -0.0594281 -2.01612 0
M  V30 5419 C 505.594 1.30663 -1.45556 0
M  V30 5420 O 506.8 1.91621 -1.92337 0
M  V30 5421 C 505.256 -0.0556666 -3.59857 0
M  V30 5422 C 504.864 -1.41975 -4.24908 0
M  V30 5423 C 506.608 0.409143 -4.22524 0
M  V30 5424 C 504.515 -1.37397 -5.75218 0
M  V30 5425 H 503.445 -0.0184469 -0.753774 0
M  V30 5426 H 506.096 -0.728869 -1.68404 0
M  V30 5427 H 504.478 0.679843 -3.90121 0
M  V30 5428 H 505.652 -2.17461 -4.0626 0
M  V30 5429 H 503.967 -1.82419 -3.74316 0
M  V30 5430 H 506.564 0.46211 -5.32699 0
M  V30 5431 H 506.907 1.42565 -3.91128 0
M  V30 5432 H 507.44 -0.272152 -3.96868 0
M  V30 5433 H 504.179 -2.36714 -6.11267 0
M  V30 5434 H 503.699 -0.661239 -5.96144 0
M  V30 5435 H 505.378 -1.08484 -6.3784 0
M  V30 5436 N 505.51 1.54411 -0.315457 0
M  V30 5437 C 506.758 2.00023 0.288971 0
M  V30 5438 C 507.079 1.20529 1.5329 0
M  V30 5439 O 506.349 0.304986 1.93511 0
M  V30 5440 H 504.929 0.738891 0.109766 0
M  V30 5441 H 507.591 1.90094 -0.430129 0
M  V30 5442 H 506.687 3.07198 0.550999 0
M  V30 5443 N 506.988 0.0434614 1.5754 0
M  V30 5444 C 507.918 -0.931651 2.14109 0
M  V30 5445 C 508.899 -1.32971 1.06079 0
M  V30 5446 O 510.084 -1.40579 1.33982 0
M  V30 5447 C 507.214 -2.20914 2.67982 0
M  V30 5448 C 506.168 -1.95139 3.80926 0
M  V30 5449 C 505.494 -3.29276 4.21285 0
M  V30 5450 C 506.794 -1.27913 5.06395 0
M  V30 5451 H 508.488 -0.460497 2.95837 0
M  V30 5452 H 506.034 -0.220058 1.42309 0
M  V30 5453 H 507.987 -2.89522 3.06194 0
M  V30 5454 H 506.711 -2.70221 1.83434 0
M  V30 5455 H 505.37 -1.28945 3.43175 0
M  V30 5456 H 505.018 -3.76369 3.33699 0
M  V30 5457 H 504.718 -3.12831 4.97404 0
M  V30 5458 H 506.242 -3.99129 4.62091 0
M  V30 5459 H 507.656 -1.86544 5.42102 0
M  V30 5460 H 506.053 -1.2182 5.87605 0
M  V30 5461 H 507.123 -0.254066 4.84234 0
M  V30 5462 N 508.466 -1.55915 -0.229846 0
M  V30 5463 C 509.712 -1.78807 -0.956868 0
M  V30 5464 C 510.045 -0.611687 -1.84315 0
M  V30 5465 O 509.32 0.389398 -1.90562 0
M  V30 5466 C 509.603 -3.11718 -1.80288 0
M  V30 5467 C 509.456 -4.3979 -0.943649 0
M  V30 5468 C 510.775 -3.40999 -2.78222 0
M  V30 5469 H 507.894 -0.6505 -0.346437 0
M  V30 5470 H 510.536 -1.88648 -0.226252 0
M  V30 5471 H 508.686 -3.03459 -2.42579 0
M  V30 5472 H 510.358 -4.60059 -0.338121 0
M  V30 5473 H 508.601 -4.33086 -0.248705 0
M  V30 5474 H 509.272 -5.29208 -1.5698 0
M  V30 5475 H 511.748 -3.49332 -2.26067 0
M  V30 5476 H 510.624 -4.35183 -3.34526 0
M  V30 5477 H 510.885 -2.62754 -3.55546 0
M  V30 5478 N 509.944 0.496216 -1.49584 0
M  V30 5479 C 510.877 1.61508 -1.61215 0
M  V30 5480 C 511.855 1.55927 -0.461045 0
M  V30 5481 O 513.039 1.75914 -0.677231 0
M  V30 5482 C 510.166 3.00035 -1.57152 0
M  V30 5483 C 509.212 3.23861 -2.77518 0
M  V30 5484 S 510.045 3.06466 -4.39134 0
M  V30 5485 C 511.201 4.4738 -4.37724 0
M  V30 5486 H 511.434 1.51398 -2.55863 0
M  V30 5487 H 508.967 0.681727 -1.38535 0
M  V30 5488 H 510.925 3.7991 -1.55494 0
M  V30 5489 H 509.586 3.07556 -0.637834 0
M  V30 5490 H 508.779 4.25 -2.70908 0
M  V30 5491 H 508.381 2.51716 -2.76614 0
M  V30 5492 H 510.673 5.39556 -4.09738 0
M  V30 5493 H 511.616 4.59038 -5.39156 0
M  V30 5494 H 512.024 4.28283 -3.67742 0
M  V30 5495 N 511.423 1.38739 0.74761 0
M  V30 5496 C 512.353 1.39173 1.87492 0
M  V30 5497 C 513.334 0.256794 1.6815 0
M  V30 5498 O 514.519 0.460762 1.88655 0
M  V30 5499 C 511.649 1.22197 3.25093 0
M  V30 5500 C 510.603 2.32957 3.59047 0
M  V30 5501 C 509.929 2.01082 4.95449 0
M  V30 5502 C 511.229 3.75237 3.6331 0
M  V30 5503 H 512.923 2.3351 1.87386 0
M  V30 5504 H 510.469 1.12399 0.900134 0
M  V30 5505 H 512.422 1.21124 4.03617 0
M  V30 5506 H 511.146 0.243241 3.25693 0
M  V30 5507 H 509.805 2.33226 2.82845 0
M  V30 5508 H 509.453 1.01678 4.92616 0
M  V30 5509 H 509.153 2.75267 5.19136 0
M  V30 5510 H 510.677 2.01638 5.76346 0
M  V30 5511 H 512.091 3.76966 4.31937 0
M  V30 5512 H 510.488 4.48677 3.98509 0
M  V30 5513 H 511.558 4.07122 2.634 0
M  V30 5514 N 512.901 -0.976442 1.23707 0
M  V30 5515 C 514.129 -1.75341 1.09833 0
M  V30 5516 C 514.544 -1.8553 -0.349885 0
M  V30 5517 O 513.901 -1.33732 -1.24185 0
M  V30 5518 C 513.952 -3.17833 1.72233 0
M  V30 5519 O 513.673 -3.08167 3.11391 0
M  V30 5520 C 515.174 -4.11906 1.63853 0
M  V30 5521 H 512.394 -0.550137 0.384175 0
M  V30 5522 H 514.938 -1.2265 1.63638 0
M  V30 5523 H 513.093 -3.67538 1.22452 0
M  V30 5524 H 513.507 -3.97897 3.41729 0
M  V30 5525 H 514.981 -5.09579 2.12211 0
M  V30 5526 H 515.458 -4.35109 0.598092 0
M  V30 5527 H 516.064 -3.68107 2.13019 0
M  V30 5528 N 514.379 -1.04941 -1.1758 0
M  V30 5529 C 515.327 -0.64204 -2.23563 0
M  V30 5530 C 516.321 0.335453 -1.66045 0
M  V30 5531 O 517.527 0.20179 -1.78865 0
M  V30 5532 H 513.902 -0.18944 -0.727748 0
M  V30 5533 H 515.873 -1.54609 -2.55223 0
M  V30 5534 C 514.622 -0.0301051 -3.47687 0
M  V30 5535 H 513.945 -0.773339 -3.92249 0
M  V30 5536 H 515.385 0.217592 -4.23441 0
M  V30 5537 C 513.844 1.2225 -3.13937 0
M  V30 5538 O 514.374 2.3122 -3.28482 0
M  V30 5539 N 512.58 1.11917 -2.68185 0
M  V30 5540 H 512.127 0.232403 -2.5655 0
M  V30 5541 H 512.085 1.95814 -2.45976 0
M  V30 5542 N 515.857 1.33968 -0.830081 0
M  V30 5543 C 516.804 2.29387 -0.255008 0
M  V30 5544 C 517.774 1.53923 0.624243 0
M  V30 5545 O 518.959 1.82262 0.564372 0
M  V30 5546 C 516.099 3.4034 0.571209 0
M  V30 5547 C 515.212 4.30729 -0.331083 0
M  V30 5548 C 514.347 5.2879 0.505389 0
M  V30 5549 C 513.386 6.10819 -0.395843 0
M  V30 5550 N 512.523 7.00948 0.401979 0
M  V30 5551 H 517.363 2.77972 -1.07404 0
M  V30 5552 H 514.9 1.36785 -0.541133 0
M  V30 5553 H 516.858 4.03361 1.06562 0
M  V30 5554 H 515.488 2.9297 1.35529 0
M  V30 5555 H 514.54 3.68507 -0.943759 0
M  V30 5556 H 515.852 4.88181 -1.02377 0
M  V30 5557 H 515.006 5.97297 1.06399 0
M  V30 5558 H 513.745 4.71894 1.23155 0
M  V30 5559 H 512.75 5.41238 -0.966529 0
M  V30 5560 H 513.975 6.69797 -1.12023 0
M  V30 5561 H 511.921 6.46512 1.11168 0
M  V30 5562 H 511.838 7.55643 -0.232167 0
M  V30 5563 H 513.106 7.73774 0.943102 0
M  V30 5564 N 517.335 0.585699 1.46312 0
M  V30 5565 C 518.751 0.247607 1.57668 0
M  V30 5566 C 518.951 -1.25007 1.58037 0
M  V30 5567 O 518.007 -2.03196 1.49893 0
M  V30 5568 C 519.32 0.899456 2.86933 0
M  V30 5569 C 520.868 0.873326 3.00569 0
M  V30 5570 C 521.343 1.50477 4.32574 0
M  V30 5571 N 522.834 1.46925 4.3928 0
M  V30 5572 C 523.569 1.92719 5.40044 0
M  V30 5573 N 523.065 2.46499 6.47464 0
M  V30 5574 N 524.858 1.83617 5.31264 0
M  V30 5575 H 517.009 1.55841 1.44317 0
M  V30 5576 H 519.272 0.651564 0.688599 0
M  V30 5577 H 518.978 1.95313 2.92482 0
M  V30 5578 H 518.852 0.409476 3.74971 0
M  V30 5579 H 521.239 -0.171736 2.946 0
M  V30 5580 H 521.32 1.40136 2.13999 0
M  V30 5581 H 520.964 2.54905 4.39302 0
M  V30 5582 H 520.894 0.951944 5.17924 0
M  V30 5583 H 523.385 1.07616 3.62253 0
M  V30 5584 H 523.698 2.79291 7.20567 0
M  V30 5585 H 522.043 2.50526 6.48276 0
M  V30 5586 H 525.234 1.41358 4.46246 0
M  V30 5587 H 525.407 2.19622 6.09648 0
M  V30 5588 N 518.813 -1.54241 0.323641 0
M  V30 5589 C 520.062 -1.9975 -0.279806 0
M  V30 5590 C 520.375 -1.2156 -1.5324 0
M  V30 5591 O 521.581 -1.57447 -2.21185 0
M  V30 5592 C 520.037 -3.55686 -0.549115 0
M  V30 5593 C 519.645 -4.4271 0.686432 0
M  V30 5594 C 521.389 -4.09663 -1.11251 0
M  V30 5595 C 519.296 -5.90119 0.389022 0
M  V30 5596 H 518.226 -0.746177 -0.10833 0
M  V30 5597 H 520.877 -1.78248 0.435877 0
M  V30 5598 H 519.259 -3.73176 -1.32499 0
M  V30 5599 H 520.433 -4.36996 1.46188 0
M  V30 5600 H 518.748 -3.99623 1.17005 0
M  V30 5601 H 521.345 -5.17386 -1.34965 0
M  V30 5602 H 521.688 -3.61651 -2.06191 0
M  V30 5603 H 522.221 -3.95806 -0.39782 0
M  V30 5604 H 518.96 -6.42326 1.30759 0
M  V30 5605 H 518.48 -5.98785 -0.348722 0
M  V30 5606 H 520.159 -6.47 -0.0011164 0
M  V30 5607 N 520.291 -0.0518155 -1.57515 0
M  V30 5608 C 521.702 0.483787 -1.80323 0
M  V30 5609 C 522.053 1.70879 -0.964099 0
M  V30 5610 O 521.178 2.15643 -0.180872 0
M  V30 5611 C 521.773 0.884459 -3.27052 0
M  V30 5612 C 520.332 1.36504 -3.50776 0
M  V30 5613 C 519.479 0.340539 -2.75201 0
M  V30 5614 H 522.43 -0.277691 -1.56252 0
M  V30 5615 H 522.451 1.74733 -3.38007 0
M  V30 5616 H 521.963 -0.00731093 -3.88099 0
M  V30 5617 H 520.064 2.27598 -2.95009 0
M  V30 5618 H 520.177 1.35675 -4.59488 0
M  V30 5619 H 518.541 0.81356 -2.41357 0
M  V30 5620 H 519.324 -0.543156 -3.38976 0
M  V30 5621 N 521.769 1.56035 0.221574 0
M  V30 5622 C 522.717 1.93269 1.29421 0
M  V30 5623 C 523.711 0.814727 1.48521 0
M  V30 5624 O 524.917 0.999559 1.49696 0
M  V30 5625 H 521.292 0.614188 0.43391 0
M  V30 5626 H 523.263 2.82773 0.952987 0
M  V30 5627 C 522.012 2.26573 2.63742 0
M  V30 5628 H 521.335 3.12112 2.49853 0
M  V30 5629 H 522.775 2.5651 3.37607 0
M  V30 5630 C 521.234 1.09086 3.1875 0
M  V30 5631 O 521.764 0.351985 4.00155 0
M  V30 5632 N 519.97 0.874693 2.77124 0
M  V30 5633 H 519.517 1.47726 2.11033 0
M  V30 5634 H 519.475 0.0903349 3.1427 0
M  V30 5635 N 523.247 -0.488276 1.49845 0
M  V30 5636 C 524.157 -1.61451 1.70207 0
M  V30 5637 C 525.173 -1.63877 0.584846 0
M  V30 5638 O 526.349 -1.82063 0.861107 0
M  V30 5639 C 523.414 -2.9776 1.77594 0
M  V30 5640 C 522.475 -3.05861 3.01243 0
M  V30 5641 C 521.708 -4.35668 3.08268 0
M  V30 5642 O 521.931 -5.25197 2.22541 0
M  V30 5643 O 520.865 -4.49005 4.00847 0
M  V30 5644 H 524.691 -1.47199 2.65643 0
M  V30 5645 H 522.276 -0.665939 1.33737 0
M  V30 5646 H 524.158 -3.7875 1.84732 0
M  V30 5647 H 522.833 -3.12248 0.8534 0
M  V30 5648 H 521.74 -2.24012 2.99616 0
M  V30 5649 H 523.073 -2.96304 3.9302 0
M  V30 5650 N 524.725 -1.39134 -0.740242 0
M  V30 5651 C 525.635 -1.39697 -1.88473 0
M  V30 5652 C 526.651 -0.292403 -1.71526 0
M  V30 5653 O 527.827 -0.533021 -1.94219 0
M  V30 5654 C 524.892 -1.23382 -3.24003 0
M  V30 5655 C 523.953 -2.43763 -3.53381 0
M  V30 5656 C 523.186 -2.28216 -4.82445 0
M  V30 5657 O 523.409 -1.28288 -5.55786 0
M  V30 5658 O 522.343 -3.1709 -5.11603 0
M  V30 5659 H 526.169 -2.36159 -1.90952 0
M  V30 5660 H 523.754 -1.20194 -0.887346 0
M  V30 5661 H 525.636 -1.16395 -4.05006 0
M  V30 5662 H 524.311 -0.300121 -3.22306 0
M  V30 5663 H 523.218 -2.56325 -2.72485 0
M  V30 5664 H 524.551 -3.35808 -3.59852 0
M  V30 5665 N 526.204 0.969867 -1.24223 0
M  V30 5666 C 527.62 1.23809 -1.00716 0
M  V30 5667 C 527.82 1.99469 0.285358 0
M  V30 5668 O 526.876 2.31764 1.00207 0
M  V30 5669 C 528.189 2.02734 -2.2208 0
M  V30 5670 C 529.737 2.15834 -2.26681 0
M  V30 5671 C 530.212 2.98154 -3.47661 0
M  V30 5672 N 531.703 3.05737 -3.47964 0
M  V30 5673 C 532.438 3.69785 -4.38231 0
M  V30 5674 N 531.934 4.35569 -5.3875 0
M  V30 5675 N 533.727 3.66775 -4.25949 0
M  V30 5676 H 525.878 0.463294 -2.07286 0
M  V30 5677 H 528.141 0.267348 -0.909521 0
M  V30 5678 H 527.847 1.54524 -3.15935 0
M  V30 5679 H 527.721 3.0347 -2.24021 0
M  V30 5680 H 530.108 2.63248 -1.33359 0
M  V30 5681 H 530.189 1.14453 -2.28767 0
M  V30 5682 H 529.833 2.51435 -4.41297 0
M  V30 5683 H 529.763 3.99729 -3.42818 0
M  V30 5684 H 532.254 2.58941 -2.75242 0
M  V30 5685 H 532.567 4.82251 -6.03866 0
M  V30 5686 H 530.912 4.34244 -5.42639 0
M  V30 5687 H 534.103 3.14558 -3.46657 0
M  V30 5688 H 534.276 4.16407 -4.96497 0
M  V30 5689 N 527.682 1.05563 1.17022 0
M  V30 5690 C 528.931 0.763036 1.8671 0
M  V30 5691 C 529.244 -0.712857 1.82147 0
M  V30 5692 O 530.45 -1.11955 2.47343 0
M  V30 5693 C 528.906 1.31474 3.35026 0
M  V30 5694 C 528.514 2.82034 3.48081 0
M  V30 5695 C 530.258 1.09935 4.10018 0
M  V30 5696 C 528.165 3.30486 4.90442 0
M  V30 5697 H 527.095 0.281747 0.699382 0
M  V30 5698 H 529.746 1.2734 1.32124 0
M  V30 5699 H 528.128 0.732171 3.89173 0
M  V30 5700 H 529.302 3.46178 3.04133 0
M  V30 5701 H 527.617 3.02156 2.86515 0
M  V30 5702 H 530.214 1.43632 5.15048 0
M  V30 5703 H 530.557 0.0373072 4.16283 0
M  V30 5704 H 531.09 1.64732 3.62089 0
M  V30 5705 H 527.829 4.36137 4.89352 0
M  V30 5706 H 527.349 2.71086 5.35044 0
M  V30 5707 H 529.028 3.25382 5.59227 0
M  V30 5708 N 529.16 -1.33526 0.837174 0
M  V30 5709 C 530.107 -2.29248 0.267169 0
M  V30 5710 C 531.077 -1.54252 -0.616071 0
M  V30 5711 O 532.262 -1.82559 -0.554699 0
M  V30 5712 C 529.402 -3.40638 -0.553152 0
M  V30 5713 C 528.515 -4.30548 0.353921 0
M  V30 5714 C 527.65 -5.29051 -0.477339 0
M  V30 5715 C 526.689 -6.106 0.42823 0
M  V30 5716 N 525.826 -7.01152 -0.364801 0
M  V30 5717 H 530.666 -2.77398 1.08877 0
M  V30 5718 H 528.203 -1.36496 0.54838 0
M  V30 5719 H 530.161 -4.03921 -1.04422 0
M  V30 5720 H 528.791 -2.93685 -1.33973 0
M  V30 5721 H 527.843 -3.68001 0.963289 0
M  V30 5722 H 529.155 -4.87631 1.04964 0
M  V30 5723 H 528.309 -5.97853 -1.0323 0
M  V30 5724 H 527.048 -4.72541 -1.2065 0
M  V30 5725 H 526.053 -5.40718 0.995219 0
M  V30 5726 H 527.278 -6.69193 1.15573 0
M  V30 5727 H 525.224 -6.47092 -1.07738 0
M  V30 5728 H 525.141 -7.5551 0.272238 0
M  V30 5729 H 526.409 -7.74263 -0.902054 0
M  V30 5730 O 530.677 -0.734023 -1.43855 0
M  V30 5731 H 531.368 -0.285275 -1.91588 0
M  V30 END ATOM
M  V30 BEGIN BOND
M  V30 END BOND
M  V30 END CTAB
M  END
$$$$
