drugbank_target|B4DP61 Survival motor neuron protein (DB13161)
 OpenBabel12092121093D

  0  0  0     0  0            999 V3000
M  V30 BEGIN CTAB
M  V30 COUNTS 3381 3440 0 0 0
M  V30 BEGIN ATOM
M  V30 1 H -0.908 1.98254 -0.117106 0
M  V30 2 N 0 1.576 0 0
M  V30 3 C 0.933 2.03868 1.02534 0
M  V30 4 C 1.911 0.928543 1.3348 0
M  V30 5 O 3.095 1.19667 1.45644 0
M  V30 6 C 0.222 2.43627 2.35294 0
M  V30 7 C -0.732 3.65373 2.2001 0
M  V30 8 S 0.101 5.13292 1.52614 0
M  V30 9 C 1.257 5.56322 2.86805 0
M  V30 10 H 1.49 2.90518 0.631377 0
M  V30 11 H -0.977 1.52953 0.210867 0
M  V30 12 H 0.981 2.67203 3.11629 0
M  V30 13 H -0.358 1.57376 2.7183 0
M  V30 14 H -1.165 3.90944 3.18086 0
M  V30 15 H -1.563 3.418 1.51819 0
M  V30 16 H 0.729 5.58782 3.83104 0
M  V30 17 H 1.672 6.56266 2.65933 0
M  V30 18 H 2.08 4.83886 2.90714 0
M  V30 19 N 1.4781 -0.272755 1.55222 0
M  V30 20 C 2.4411 -1.32041 1.87344 0
M  V30 21 C 3.4411 -1.42342 0.74803 0
M  V30 22 O 4.6311 -1.41488 1.0162 0
M  V30 23 C 1.7631 -2.70173 2.07893 0
M  V30 24 H 2.9561 -1.04789 2.80997 0
M  V30 25 H 0.5091 -0.51083 1.47717 0
M  V30 26 H 1.2441 -3.02605 1.16622 0
M  V30 27 H 1.0291 -2.64082 2.89833 0
M  V30 28 H 2.5191 -3.45869 2.34017 0
M  V30 29 N 2.9562 -1.48159 -0.537278 0
M  V30 30 C 3.8892 -1.567 -1.65893 0
M  V30 31 C 4.8672 -0.41787 -1.57139 0
M  V30 32 O 6.0512 -0.628461 -1.77715 0
M  V30 33 C 3.1782 -1.48818 -3.04255 0
M  V30 34 C 2.2242 -2.68482 -3.31391 0
M  V30 35 S 3.0572 -4.30516 -3.1846 0
M  V30 36 C 4.2132 -4.2522 -4.59281 0
M  V30 37 H 4.4462 -2.5159 -1.58397 0
M  V30 38 H 1.9792 -1.36602 -0.719672 0
M  V30 39 H 3.9372 -1.44958 -3.84054 0
M  V30 40 H 2.5982 -0.552777 -3.09198 0
M  V30 41 H 1.7912 -2.59085 -4.32309 0
M  V30 42 H 1.3932 -2.69567 -2.59248 0
M  V30 43 H 3.6852 -3.94703 -5.5065 0
M  V30 44 H 4.6282 -5.26292 -4.73732 0
M  V30 45 H 5.0362 -3.55791 -4.38261 0
M  V30 46 N 4.4343 0.785586 -1.36625 0
M  V30 47 C 5.6593 1.57963 -1.34397 0
M  V30 48 C 6.0843 1.87964 0.071526 0
M  V30 49 O 5.4423 1.48182 1.0446 0
M  V30 50 C 5.4903 2.87511 -2.17646 0
M  V30 51 O 4.5943 3.81281 -1.57158 0
M  V30 52 H 3.9353 0.479014 -0.459828 0
M  V30 53 H 6.4653 0.973411 -1.79961 0
M  V30 54 H 6.4753 3.36745 -2.30362 0
M  V30 55 H 5.1503 2.65002 -3.20541 0
M  V30 56 H 3.7273 3.39885 -1.53403 0
M  V30 57 N 5.9124 1.20967 1.01018 0
M  V30 58 C 7.1374 1.0503 1.78839 0
M  V30 59 C 7.5624 -0.395752 1.8389 0
M  V30 60 O 6.9204 -1.28529 1.27867 0
M  V30 61 C 6.9684 1.64602 3.2084 0
M  V30 62 O 6.0724 0.887988 4.02726 0
M  V30 63 H 5.4134 0.369987 0.551367 0
M  V30 64 H 7.9434 1.60399 1.27018 0
M  V30 65 H 7.9534 1.68607 3.71532 0
M  V30 66 H 6.6284 2.69841 3.16479 0
M  V30 67 H 5.2054 0.922648 3.61305 0
M  V30 68 N 7.3905 -1.2043 1.01659 0
M  V30 69 C 8.6385 -1.89423 0.704522 0
M  V30 70 C 8.9595 -1.79231 -0.768197 0
M  V30 71 O 8.2295 -1.1947 -1.55254 0
M  V30 72 H 6.8095 -0.701178 0.257602 0
M  V30 73 H 9.4715 -1.4626 1.28818 0
M  V30 74 H 8.5675 -2.96052 0.987916 0
M  V30 75 N 8.8686 -0.792821 -1.36206 0
M  V30 76 C 10.1166 -0.366062 -1.98757 0
M  V30 77 C 10.4376 1.0668 -1.63231 0
M  V30 78 O 9.7076 1.73587 -0.907978 0
M  V30 79 H 8.2876 -0.132364 -0.735179 0
M  V30 80 H 10.9496 -1.01562 -1.66347 0
M  V30 81 H 10.0456 -0.460638 -3.08682 0
M  V30 82 N 10.3467 1.47872 -0.545128 0
M  V30 83 C 11.5717 2.07391 -0.0190611 0
M  V30 84 C 11.9967 1.39688 1.25971 0
M  V30 85 O 11.3547 0.467816 1.7516 0
M  V30 86 C 11.4027 3.60188 0.172335 0
M  V30 87 O 10.5067 3.9339 1.23766 0
M  V30 88 H 9.8477 0.662411 -0.0459059 0
M  V30 89 H 12.3777 1.90066 -0.757365 0
M  V30 90 H 12.3877 4.06129 0.390305 0
M  V30 91 H 11.0627 4.08865 -0.761725 0
M  V30 92 H 9.6397 3.5921 1.00114 0
M  V30 93 N 11.8248 0.280983 1.55075 0
M  V30 94 C 13.0728 -0.333455 1.9933 0
M  V30 95 C 13.3938 -1.55937 1.17085 0
M  V30 96 O 12.6638 -1.94143 0.261805 0
M  V30 97 H 11.2438 -0.126197 0.736263 0
M  V30 98 H 13.9058 0.387678 1.91005 0
M  V30 99 H 13.0018 -0.619292 3.05894 0
M  V30 100 N 13.3029 -1.57598 0.00835791 0
M  V30 101 C 14.5509 -1.90551 -0.6734 0
M  V30 102 C 14.8719 -0.883301 -1.73847 0
M  V30 103 O 14.1419 0.0781442 -1.95744 0
M  V30 104 H 12.7219 -0.703312 -0.251717 0
M  V30 105 H 15.3839 -1.94833 0.0512592 0
M  V30 106 H 14.4799 -2.9056 -1.13935 0
M  V30 107 N 14.781 0.264519 -1.55364 0
M  V30 108 C 16.029 0.993021 -1.76021 0
M  V30 109 C 16.35 1.86511 -0.569099 0
M  V30 110 O 15.62 1.91438 0.415735 0
M  V30 111 H 14.2 0.369639 -0.649135 0
M  V30 112 H 16.862 0.286707 -1.9278 0
M  V30 113 H 15.958 1.62502 -2.66457 0
M  V30 114 N 16.2591 1.48442 0.529413 0
M  V30 115 C 17.5051 1.5672 1.28711 0
M  V30 116 C 17.8381 0.2406 1.92704 0
M  V30 117 O 17.1131 -0.753454 1.79313 0
M  V30 118 C 17.3961 2.70587 2.37603 0
M  V30 119 C 17.2491 4.12953 1.78297 0
M  V30 120 C 18.5681 2.80212 3.39366 0
M  V30 121 H 15.6871 0.570474 0.466613 0
M  V30 122 H 18.3291 1.80617 0.589706 0
M  V30 123 H 16.4791 2.50342 2.97088 0
M  V30 124 H 18.1511 4.44639 1.22858 0
M  V30 125 H 16.3941 4.19927 1.0883 0
M  V30 126 H 17.0651 4.88448 2.57144 0
M  V30 127 H 19.5411 2.98553 2.89836 0
M  V30 128 H 18.4171 3.61611 4.12951 0
M  V30 129 H 18.6781 1.88393 3.99951 0
M  V30 130 N 17.7372 -0.778329 1.37039 0
M  V30 131 C 19.1482 -1.35421 1.28523 0
M  V30 132 C 19.4992 -1.96075 -0.0700901 0
M  V30 133 O 18.6242 -1.93352 -0.971801 0
M  V30 134 C 19.2192 -2.46211 2.32735 0
M  V30 135 C 17.7782 -2.99585 2.27873 0
M  V30 136 C 16.9252 -1.72748 2.16918 0
M  V30 137 H 19.8762 -0.5791 1.47757 0
M  V30 138 H 19.8972 -3.2552 1.9702 0
M  V30 139 H 19.4092 -2.02036 3.31365 0
M  V30 140 H 17.5102 -3.48152 1.32745 0
M  V30 141 H 17.6232 -3.55646 3.21018 0
M  V30 142 H 15.9872 -1.95416 1.63354 0
M  V30 143 H 16.7702 -1.30686 3.17452 0
M  V30 144 N 19.2153 -1.21501 -1.00376 0
M  V30 145 C 20.1253 -0.991447 -2.12621 0
M  V30 146 C 21.1413 0.0568446 -1.73907 0
M  V30 147 O 22.3173 -0.13348 -2.00957 0
M  V30 148 C 19.3823 -0.560312 -3.42142 0
M  V30 149 C 18.4433 -1.68096 -3.95022 0
M  V30 150 C 17.6763 -1.2703 -5.18362 0
M  V30 151 O 17.8993 -0.144438 -5.70217 0
M  V30 152 O 16.8333 -2.08269 -5.64719 0
M  V30 153 H 20.6593 -1.93158 -2.34358 0
M  V30 154 H 18.2443 -0.999999 -1.10997 0
M  V30 155 H 20.1263 -0.329724 -4.20108 0
M  V30 156 H 18.8013 0.351089 -3.2179 0
M  V30 157 H 17.7083 -1.96597 -3.18278 0
M  V30 158 H 19.0413 -2.56983 -4.19786 0
M  V30 159 N 20.6934 1.19889 -1.02296 0
M  V30 160 C 21.6254 2.22334 -0.556787 0
M  V30 161 C 22.6384 1.58674 0.364199 0
M  V30 162 O 23.8274 1.77768 0.161533 0
M  V30 163 C 20.9274 3.38257 0.208694 0
M  V30 164 C 20.1004 4.31504 -0.71577 0
M  V30 165 C 19.1594 5.262 0.00325597 0
M  V30 166 O 18.1854 5.65798 -0.621357 0
M  V30 167 N 19.3874 5.66303 1.27599 0
M  V30 168 H 22.1524 2.62957 -1.43784 0
M  V30 169 H 19.7134 1.34495 -0.901261 0
M  V30 170 H 21.7054 3.98616 0.699111 0
M  V30 171 H 20.2754 2.96472 0.991102 0
M  V30 172 H 19.4954 3.69016 -1.38638 0
M  V30 173 H 20.7834 4.9072 -1.34428 0
M  V30 174 H 20.1814 5.36155 1.80429 0
M  V30 175 H 18.7384 6.28942 1.71102 0
M  V30 176 N 22.1715 0.800033 1.35784 0
M  V30 177 C 23.0815 0.207204 2.33683 0
M  V30 178 C 24.0975 -0.64631 1.61551 0
M  V30 179 O 25.2735 -0.559604 1.93469 0
M  V30 180 C 22.3385 -0.639659 3.40748 0
M  V30 181 C 21.3995 0.233585 4.28664 0
M  V30 182 C 20.6325 -0.572954 5.30616 0
M  V30 183 O 20.8555 -1.80816 5.40982 0
M  V30 184 O 19.7895 0.0327285 6.01891 0
M  V30 185 H 23.6155 1.01692 2.86169 0
M  V30 186 H 21.2005 0.561691 1.38439 0
M  V30 187 H 23.0825 -1.12223 4.06182 0
M  V30 188 H 21.7575 -1.42708 2.90544 0
M  V30 189 H 20.6645 0.763147 3.66233 0
M  V30 190 H 21.9975 0.984784 4.82248 0
M  V30 191 N 23.6496 -1.47581 0.552962 0
M  V30 192 C 24.9266 -1.95563 -0.0381515 0
M  V30 193 C 25.3066 -1.49552 -1.48988 0
M  V30 194 O 24.6546 -0.732414 -2.16444 0
M  V30 195 C 24.8646 -3.48848 0.102919 0
M  V30 196 C 26.2126 -4.24577 -0.0446082 0
M  V30 197 O 27.2366 -3.56187 0.0302548 0
M  V30 198 O 26.0956 -5.46116 -0.204923 0
M  V30 199 H 23.1896 -0.824321 -0.0665067 0
M  V30 200 H 25.7356 -1.58001 0.619186 0
M  V30 201 H 24.5076 -3.75129 1.11328 0
M  V30 202 H 24.1306 -3.93165 -0.592224 0
M  V30 203 N 25.1277 -0.289203 -1.54924 0
M  V30 204 C 26.3527 0.329299 -2.04769 0
M  V30 205 C 26.7777 1.4763 -1.16564 0
M  V30 206 O 26.1357 1.80527 -0.167186 0
M  V30 207 C 26.1837 0.774438 -3.52186 0
M  V30 208 O 25.2877 1.88038 -3.67036 0
M  V30 209 H 24.6287 0.0659259 -0.660719 0
M  V30 210 H 27.1587 -0.42761 -2.00082 0
M  V30 211 H 27.1687 1.06642 -3.93816 0
M  V30 212 H 25.8437 -0.0646707 -4.1585 0
M  V30 213 H 24.4207 1.58985 -3.3731 0
M  V30 214 N 26.6058 1.57591 -0.0167156 0
M  V30 215 C 27.8518 1.91567 0.665582 0
M  V30 216 C 28.1848 0.892298 1.72487 0
M  V30 217 O 27.4598 -0.0867127 1.94307 0
M  V30 218 C 27.7428 3.36069 1.29342 0
M  V30 219 C 27.5958 4.49135 0.244541 0
M  V30 220 C 28.9148 3.803 2.21495 0
M  V30 221 H 26.0338 0.69666 0.240488 0
M  V30 222 H 28.6758 1.89866 -0.0714356 0
M  V30 223 H 26.8258 3.3765 1.92158 0
M  V30 224 H 28.4978 4.59689 -0.385228 0
M  V30 225 H 26.7408 4.3165 -0.431379 0
M  V30 226 H 27.4118 5.47242 0.723207 0
M  V30 227 H 29.8878 3.80377 1.68678 0
M  V30 228 H 28.7638 4.82127 2.62382 0
M  V30 229 H 29.0248 3.15104 3.101 0
M  V30 230 N 28.0839 -0.256276 1.55502 0
M  V30 231 C 29.0139 -1.32102 1.92539 0
M  V30 232 C 29.9949 -1.50684 0.789194 0
M  V30 233 O 31.1799 -1.63449 1.04872 0
M  V30 234 C 28.3099 -2.67752 2.21192 0
M  V30 235 C 27.2639 -2.63878 3.36975 0
M  V30 236 C 26.5899 -4.03236 3.51147 0
M  V30 237 C 27.8899 -2.21682 4.72921 0
M  V30 238 H 29.5839 -1.01351 2.81724 0
M  V30 239 H 27.1299 -0.486105 1.35547 0
M  V30 240 H 29.0829 -3.42365 2.45691 0
M  V30 241 H 27.8069 -3.0012 1.28824 0
M  V30 242 H 26.4659 -1.91722 3.12471 0
M  V30 243 H 26.1139 -4.32854 2.56216 0
M  V30 244 H 25.8139 -4.01535 4.29003 0
M  V30 245 H 27.3379 -4.79563 3.77957 0
M  V30 246 H 28.7519 -2.86023 4.96854 0
M  V30 247 H 27.1489 -2.3111 5.53812 0
M  V30 248 H 28.2189 -1.16833 4.70615 0
M  V30 249 N 29.562 -1.4872 -0.521534 0
M  V30 250 C 30.809 -1.57168 -1.27689 0
M  V30 251 C 31.137 -0.249275 -1.92896 0
M  V30 252 O 30.392 0.761162 -1.80291 0
M  V30 253 C 30.691 -2.66497 -2.38148 0
M  V30 254 C 30.357 -4.08664 -1.90538 0
M  V30 255 C 29.019 -4.47357 -1.77271 0
M  V30 256 C 31.371 -4.97724 -1.54663 0
M  V30 257 C 28.699 -5.72905 -1.26478 0
M  V30 258 C 31.051 -6.2377 -1.05329 0
M  V30 259 C 29.715 -6.61311 -0.906861 0
M  V30 260 H 28.985 -0.575117 -0.467249 0
M  V30 261 H 31.632 -1.82472 -0.581051 0
M  V30 262 H 29.937 -2.35085 -3.13437 0
M  V30 263 H 31.634 -2.70246 -2.96257 0
M  V30 264 H 28.224 -3.78111 -2.01816 0
M  V30 265 H 32.408 -4.68501 -1.63768 0
M  V30 266 H 27.664 -6.00709 -1.13835 0
M  V30 267 H 31.838 -6.9217 -0.76644 0
M  V30 268 H 29.465 -7.5848 -0.511083 0
M  V30 269 N 31.0401 0.771051 -1.3745 0
M  V30 270 C 32.4561 1.07171 -1.18265 0
M  V30 271 C 32.6561 2.01491 -0.019287 0
M  V30 272 O 31.7121 2.44244 0.640408 0
M  V30 273 C 33.0251 1.66854 -2.50161 0
M  V30 274 C 34.5731 1.79109 -2.56689 0
M  V30 275 C 35.0481 2.42205 -3.88717 0
M  V30 276 N 36.5391 2.49655 -3.90162 0
M  V30 277 C 37.2741 2.9933 -4.8907 0
M  V30 278 N 36.7701 3.49172 -5.98374 0
M  V30 279 N 38.5631 2.9821 -4.76474 0
M  V30 280 H 30.7141 0.144796 -2.11906 0
M  V30 281 H 32.9771 0.126863 -0.939473 0
M  V30 282 H 32.6831 1.05017 -3.35655 0
M  V30 283 H 32.5571 2.6614 -2.673 0
M  V30 284 H 34.9441 2.40077 -1.71601 0
M  V30 285 H 35.0251 0.785757 -2.43433 0
M  V30 286 H 34.6691 1.81875 -4.74219 0
M  V30 287 H 34.5991 3.43345 -3.99276 0
M  V30 288 H 37.0901 2.14383 -3.11205 0
M  V30 289 H 37.4031 3.8548 -6.69795 0
M  V30 290 H 35.7481 3.47275 -6.02018 0
M  V30 291 H 38.9391 2.58572 -3.90203 0
M  V30 292 H 39.1121 3.36613 -5.53711 0
M  V30 293 N 32.5182 1.22032 0.997298 0
M  V30 294 C 33.9342 0.979326 1.26021 0
M  V30 295 C 34.1342 -0.32972 1.98784 0
M  V30 296 O 33.1902 -1.05345 2.29475 0
M  V30 297 C 34.5032 2.17509 2.07631 0
M  V30 298 C 36.0512 2.21817 2.2083 0
M  V30 299 C 36.5262 3.40933 3.05825 0
M  V30 300 N 38.0172 3.41067 3.13412 0
M  V30 301 C 38.7522 4.29885 3.79455 0
M  V30 302 N 38.2482 5.28914 4.47462 0
M  V30 303 N 40.0412 4.17673 3.76173 0
M  V30 304 H 32.1922 2.06202 0.509352 0
M  V30 305 H 34.4552 0.90334 0.287541 0
M  V30 306 H 34.1612 3.12415 1.61524 0
M  V30 307 H 34.0352 2.17206 3.08385 0
M  V30 308 H 36.4222 1.27462 2.66153 0
M  V30 309 H 36.5032 2.2616 1.1952 0
M  V30 310 H 36.1472 4.35586 2.61203 0
M  V30 311 H 36.0772 3.33829 4.07266 0
M  V30 312 H 38.5682 2.69406 2.65007 0
M  V30 313 H 38.8812 5.92973 4.95583 0
M  V30 314 H 37.2262 5.32831 4.46224 0
M  V30 315 H 40.4172 3.39564 3.22202 0
M  V30 316 H 40.5902 4.87098 4.27363 0
M  V30 317 N 33.9963 -1.19345 1.0293 0
M  V30 318 C 35.2443 -1.88665 0.724574 0
M  V30 319 C 35.5653 -1.80036 -0.749144 0
M  V30 320 O 34.8353 -1.2111 -1.53978 0
M  V30 321 H 33.4153 -0.698406 0.265025 0
M  V30 322 H 36.0773 -1.44885 1.30362 0
M  V30 323 H 35.1733 -2.94987 1.01926 0
M  V30 324 N 35.4744 -0.807222 -1.35358 0
M  V30 325 C 36.7024 -0.400377 -2.02989 0
M  V30 326 C 37.1174 0.988859 -1.60832 0
M  V30 327 O 36.4744 1.63729 -0.806175 0
M  V30 328 C 36.5254 -0.474867 -3.58368 0
M  V30 329 O 36.2464 -1.80933 -3.98992 0
M  V30 330 C 37.7474 -0.0609112 -4.43258 0
M  V30 331 H 34.9674 -0.162587 -0.651004 0
M  V30 332 H 37.5114 -1.09102 -1.72965 0
M  V30 333 H 35.6664 0.167534 -3.87038 0
M  V30 334 H 36.0804 -1.77256 -4.9364 0
M  V30 335 H 37.5544 -0.164145 -5.51756 0
M  V30 336 H 38.0314 0.993831 -4.27808 0
M  V30 337 H 38.6374 -0.676492 -4.19885 0
M  V30 338 N 36.9525 1.47285 -0.560781 0
M  V30 339 C 38.2005 2.02064 -0.0379868 0
M  V30 340 C 38.5215 1.43711 1.31803 0
M  V30 341 O 37.7915 0.61362 1.86042 0
M  V30 342 H 36.3715 0.746918 -0.0110531 0
M  V30 343 H 39.0335 1.80648 -0.731598 0
M  V30 344 H 38.1295 3.12064 0.0474463 0
M  V30 345 N 38.4306 0.297415 1.54768 0
M  V30 346 C 39.3626 -0.613881 2.20826 0
M  V30 347 C 40.3756 -1.10032 1.19987 0
M  V30 348 O 41.5646 -1.01839 1.46598 0
M  V30 349 C 38.6646 -1.852 2.83821 0
M  V30 350 C 37.8376 -1.50865 4.10559 0
M  V30 351 C 36.8966 -2.60154 4.57391 0
M  V30 352 O 35.9226 -2.25398 5.2267 0
M  V30 353 N 37.1246 -3.90629 4.29406 0
M  V30 354 H 39.8896 -0.048389 2.99661 0
M  V30 355 H 37.4506 0.11946 1.61459 0
M  V30 356 H 39.4426 -2.57652 3.12086 0
M  V30 357 H 38.0126 -2.32597 2.08847 0
M  V30 358 H 37.2326 -0.616925 3.89343 0
M  V30 359 H 38.5206 -1.25458 4.9309 0
M  V30 360 H 37.9186 -4.21677 3.77101 0
M  V30 361 H 36.4756 -4.59391 4.62388 0
M  V30 362 N 39.9087 -1.5758 0.0250728 0
M  V30 363 C 41.1337 -1.96337 -0.668317 0
M  V30 364 C 41.5587 -0.901314 -1.651 0
M  V30 365 O 40.9167 0.138187 -1.80773 0
M  V30 366 C 40.9647 -3.34191 -1.35457 0
M  V30 367 O 40.0687 -3.30269 -2.46974 0
M  V30 368 H 39.4097 -0.640281 -0.175887 0
M  V30 369 H 41.9397 -2.0442 0.0857224 0
M  V30 370 H 41.9497 -3.70331 -1.71228 0
M  V30 371 H 40.6247 -4.11036 -0.634218 0
M  V30 372 H 39.2017 -3.05841 -2.13344 0
M  V30 373 N 41.3868 0.248026 -1.55636 0
M  V30 374 C 42.6638 0.998988 -1.68165 0
M  V30 375 C 43.0438 2.03409 -0.564621 0
M  V30 376 O 42.3918 2.24378 0.432076 0
M  V30 377 C 42.6018 1.63334 -3.0842 0
M  V30 378 C 43.9498 2.13562 -3.66983 0
M  V30 379 O 44.9738 1.73277 -3.11213 0
M  V30 380 O 43.8328 2.87526 -4.64749 0
M  V30 381 H 40.9268 0.464933 -0.683935 0
M  V30 382 H 43.4728 0.241902 -1.67967 0
M  V30 383 H 42.2448 0.884583 -3.8117 0
M  V30 384 H 41.8678 2.45666 -3.12624 0
M  V30 385 N 42.8649 1.48995 0.513639 0
M  V30 386 C 44.1419 1.48338 1.27495 0
M  V30 387 C 44.5219 0.204065 2.10111 0
M  V30 388 O 43.8699 -0.813881 2.13514 0
M  V30 389 C 44.0799 2.75498 2.14247 0
M  V30 390 C 45.4279 3.24484 2.73852 0
M  V30 391 O 46.4519 2.76528 2.24523 0
M  V30 392 O 45.3109 4.07974 3.6362 0
M  V30 393 H 42.4049 0.593149 0.576284 0
M  V30 394 H 44.9509 1.61246 0.528948 0
M  V30 395 H 43.7229 3.60109 1.53092 0
M  V30 396 H 43.3459 2.6539 2.96064 0
M  V30 397 N 44.343 -0.763751 1.37857 0
M  V30 398 C 45.568 -1.55805 1.36893 0
M  V30 399 C 45.993 -1.88054 -0.0416135 0
M  V30 400 O 45.351 -1.49825 -1.02089 0
M  V30 401 C 45.399 -2.84012 2.22192 0
M  V30 402 O 44.503 -3.78732 1.63204 0
M  V30 403 H 43.844 -0.471638 0.46739 0
M  V30 404 H 46.374 -0.944657 1.81487 0
M  V30 405 H 46.384 -3.33037 2.35691 0
M  V30 406 H 45.059 -2.59869 3.24716 0
M  V30 407 H 43.636 -3.37402 1.58791 0
M  V30 408 N 45.8211 -1.22559 -0.990812 0
M  V30 409 C 47.0981 -0.959875 -1.70428 0
M  V30 410 C 47.4781 0.524455 -2.04481 0
M  V30 411 O 46.8261 1.49302 -1.72977 0
M  V30 412 C 47.0361 -1.85955 -2.95333 0
M  V30 413 C 48.3841 -2.11687 -3.68068 0
M  V30 414 O 49.4081 -1.8342 -3.05345 0
M  V30 415 O 48.2671 -2.59572 -4.80921 0
M  V30 416 H 45.3611 -0.361154 -0.743974 0
M  V30 417 H 47.9071 -1.33554 -1.04697 0
M  V30 418 H 46.6791 -2.86346 -2.66687 0
M  V30 419 H 46.3021 -1.4856 -3.68803 0
M  V30 420 N 47.2992 1.18797 -1.03562 0
M  V30 421 C 48.5482 1.87978 -0.731235 0
M  V30 422 C 48.8612 1.80911 0.743671 0
M  V30 423 O 50.0672 2.45407 1.16137 0
M  V30 424 C 48.5232 3.3721 -1.25768 0
M  V30 425 C 48.1312 3.52818 -2.76085 0
M  V30 426 C 49.8752 4.11825 -1.0296 0
M  V30 427 C 47.7822 4.9598 -3.22114 0
M  V30 428 H 46.7122 0.704063 -0.269835 0
M  V30 429 H 49.3632 1.34266 -1.25079 0
M  V30 430 H 47.7452 3.90359 -0.666011 0
M  V30 431 H 48.9192 3.09965 -3.40966 0
M  V30 432 H 47.2342 2.91602 -2.97249 0
M  V30 433 H 49.8312 5.17411 -1.34869 0
M  V30 434 H 50.1742 4.16287 0.0333546 0
M  V30 435 H 50.7072 3.64833 -1.58562 0
M  V30 436 H 47.4462 4.96684 -4.27768 0
M  V30 437 H 46.9662 5.39569 -2.61965 0
M  V30 438 H 48.6452 5.6467 -3.15844 0
M  V30 439 N 48.7773 0.814389 1.34928 0
M  V30 440 C 50.0233 0.408167 1.99263 0
M  V30 441 C 50.3783 -1.0154 1.63424 0
M  V30 442 O 49.6713 -1.69607 0.891289 0
M  V30 443 C 49.8653 0.537781 3.53331 0
M  V30 444 C 49.6943 1.9724 4.04137 0
M  V30 445 C 48.4643 2.60245 4.33129 0
M  V30 446 C 50.6623 2.93801 4.2212 0
M  V30 447 N 48.6443 3.95036 4.69914 0
M  V30 448 C 50.0153 4.1348 4.6199 0
M  V30 449 C 52.0703 2.9053 4.04348 0
M  V30 450 C 50.7733 5.3033 4.85945 0
M  V30 451 C 52.7993 4.06589 4.29464 0
M  V30 452 C 52.1613 5.25017 4.69613 0
M  V30 453 H 48.2603 0.197289 0.756704 0
M  V30 454 H 50.8443 1.05728 1.63492 0
M  V30 455 H 49.0153 -0.0813868 3.88315 0
M  V30 456 H 50.7473 0.105389 4.04563 0
M  V30 457 H 47.5023 2.11545 4.23728 0
M  V30 458 H 47.9263 4.64455 4.92555 0
M  V30 459 H 52.5683 2.00115 3.72443 0
M  V30 460 H 50.2863 6.21309 5.16721 0
M  V30 461 H 53.8723 4.05447 4.17257 0
M  V30 462 H 52.7523 6.1333 4.88667 0
M  V30 463 N 50.2554 -1.46986 0.568584 0
M  V30 464 C 51.5324 -1.95592 -0.0174074 0
M  V30 465 C 51.9124 -1.51124 -1.47393 0
M  V30 466 O 51.2604 -0.755329 -2.15655 0
M  V30 467 C 51.4704 -3.48719 0.139913 0
M  V30 468 C 52.8184 -4.246 0.000426376 0
M  V30 469 O 53.8424 -3.56135 0.0680316 0
M  V30 470 O 52.7014 -5.46302 -0.146988 0
M  V30 471 H 49.7954 -0.82498 -0.0577599 0
M  V30 472 H 52.3414 -1.57335 0.635909 0
M  V30 473 H 51.1134 -3.73927 1.15301 0
M  V30 474 H 50.7364 -3.93771 -0.550491 0
M  V30 475 N 51.7335 -0.305618 -1.54608 0
M  V30 476 C 53.0105 0.355652 -1.92339 0
M  V30 477 C 53.3905 1.71324 -1.23335 0
M  V30 478 O 52.7385 2.25473 -0.370702 0
M  V30 479 C 52.9485 0.46572 -3.45879 0
M  V30 480 C 54.2965 0.734426 -4.182 0
M  V30 481 O 55.3205 0.54935 -3.51938 0
M  V30 482 O 54.1795 1.09024 -5.35515 0
M  V30 483 H 51.2735 0.199666 -0.802535 0
M  V30 484 H 53.8195 -0.354017 -1.65966 0
M  V30 485 H 52.5915 -0.488461 -3.88239 0
M  V30 486 H 52.2145 1.22367 -3.78301 0
M  V30 487 N 53.2116 1.57565 -0.0334293 0
M  V30 488 C 54.4396 1.9628 0.654347 0
M  V30 489 C 54.8546 0.910138 1.65414 0
M  V30 490 O 54.2116 -0.107595 1.82183 0
M  V30 491 C 54.2626 3.35067 1.35693 0
M  V30 492 O 53.9836 4.36296 0.397191 0
M  V30 493 C 55.4846 3.88439 2.13613 0
M  V30 494 H 52.7046 0.646369 0.180132 0
M  V30 495 H 55.2486 2.04282 -0.0944721 0
M  V30 496 H 53.4036 3.2827 2.05712 0
M  V30 497 H 53.8176 5.1678 0.896597 0
M  V30 498 H 55.2916 4.8788 2.58219 0
M  V30 499 H 55.7686 3.22914 2.97696 0
M  V30 500 H 56.3746 3.98516 1.48543 0
M  V30 501 N 54.6897 -0.239769 1.55765 0
M  V30 502 C 55.6527 -1.28038 1.90103 0
M  V30 503 C 56.6527 -1.40723 0.778055 0
M  V30 504 O 57.8427 -1.39301 1.04599 0
M  V30 505 C 54.9747 -2.65702 2.13577 0
M  V30 506 H 56.1677 -0.988048 2.83157 0
M  V30 507 H 53.7207 -0.479382 1.48767 0
M  V30 508 H 54.4557 -3.00063 1.23015 0
M  V30 509 H 54.2407 -2.57875 2.95369 0
M  V30 510 H 55.7307 -3.40828 2.41301 0
M  V30 511 N 56.1678 -1.49265 -0.50573 0
M  V30 512 C 57.0978 -1.68495 -1.61653 0
M  V30 513 C 58.0788 -0.53366 -1.61512 0
M  V30 514 O 59.2638 -0.76897 -1.78327 0
M  V30 515 C 56.3938 -1.74709 -3.00157 0
M  V30 516 C 55.3478 -2.89581 -3.15162 0
M  V30 517 C 54.6738 -2.80903 -4.5497 0
M  V30 518 C 55.9738 -4.30578 -2.95634 0
M  V30 519 H 57.6678 -2.61493 -1.45814 0
M  V30 520 H 55.2138 -1.25838 -0.70005 0
M  V30 521 H 57.1668 -1.86748 -3.77761 0
M  V30 522 H 55.8908 -0.783067 -3.17074 0
M  V30 523 H 54.5498 -2.77136 -2.39982 0
M  V30 524 H 54.1978 -1.82419 -4.68756 0
M  V30 525 H 53.8978 -3.57999 -4.65951 0
M  V30 526 H 55.4218 -2.94944 -5.34641 0
M  V30 527 H 56.8358 -4.4373 -3.63011 0
M  V30 528 H 55.2328 -5.0886 -3.18091 0
M  V30 529 H 56.3028 -4.45352 -1.91806 0
M  V30 530 N 57.6459 0.756429 -1.3826 0
M  V30 531 C 58.8949 1.51082 -1.3363 0
M  V30 532 C 59.2079 1.95467 0.0720068 0
M  V30 533 O 60.4139 2.7043 0.240834 0
M  V30 534 C 58.8699 2.72893 -2.34644 0
M  V30 535 C 58.4779 2.35544 -3.81081 0
M  V30 536 C 60.2219 3.50791 -2.39052 0
M  V30 537 C 58.1289 3.53948 -4.73787 0
M  V30 538 H 57.0589 0.56727 -0.49671 0
M  V30 539 H 59.7099 0.827147 -1.638 0
M  V30 540 H 58.0919 3.43227 -1.97513 0
M  V30 541 H 59.2659 1.72894 -4.27135 0
M  V30 542 H 57.5809 1.70786 -3.79764 0
M  V30 543 H 60.1779 4.38823 -3.05513 0
M  V30 544 H 60.5209 3.91745 -1.40861 0
M  V30 545 H 61.0539 2.87467 -2.74968 0
M  V30 546 H 57.7929 3.18064 -5.73163 0
M  V30 547 H 57.3129 4.15651 -4.32428 0
M  V30 548 H 58.9919 4.20566 -4.91663 0
M  V30 549 N 59.124 1.23083 0.984299 0
M  V30 550 C 60.071 1.00854 2.07598 0
M  V30 551 C 61.041 -0.0726709 1.65941 0
M  V30 552 O 62.226 0.0786535 1.90638 0
M  V30 553 C 59.366 0.601645 3.39815 0
M  V30 554 C 58.479 1.75456 3.94765 0
M  V30 555 C 57.614 1.29482 5.15177 0
M  V30 556 C 56.653 2.41873 5.62284 0
M  V30 557 N 55.79 1.96885 6.73929 0
M  V30 558 H 60.63 1.943 2.25946 0
M  V30 559 H 58.167 0.968001 1.10762 0
M  V30 560 H 60.125 0.346854 4.15756 0
M  V30 561 H 58.755 -0.295803 3.21442 0
M  V30 562 H 57.807 2.12346 3.15616 0
M  V30 563 H 59.119 2.59965 4.25699 0
M  V30 564 H 58.273 0.997923 5.98437 0
M  V30 565 H 57.012 0.420046 4.85888 0
M  V30 566 H 56.017 2.72342 4.77608 0
M  V30 567 H 57.242 3.29881 5.93595 0
M  V30 568 H 55.188 1.11782 6.46406 0
M  V30 569 H 55.105 2.74956 7.04227 0
M  V30 570 H 56.373 1.70289 7.60672 0
M  V30 571 N 60.6021 -1.18246 1.0419 0
M  V30 572 C 61.5651 -2.20128 0.638452 0
M  V30 573 C 62.5651 -1.57885 -0.304805 0
M  V30 574 O 63.7551 -1.73967 -0.0900369 0
M  V30 575 C 60.8871 -3.4084 -0.0637751 0
M  V30 576 H 62.0801 -2.57336 1.54007 0
M  V30 577 H 59.6331 -1.32152 0.834598 0
M  V30 578 H 60.3681 -3.09166 -0.979136 0
M  V30 579 H 60.1531 -3.8726 0.614198 0
M  V30 580 H 61.6431 -4.16274 -0.332512 0
M  V30 581 N 62.0802 -0.821533 -1.34494 0
M  V30 582 C 63.3102 -0.421272 -2.02259 0
M  V30 583 C 63.7182 0.977047 -1.6202 0
M  V30 584 O 63.0612 1.64348 -0.820703 0
M  V30 585 C 63.1232 -0.44231 -3.56769 0
M  V30 586 C 62.7872 -1.79372 -4.20327 0
M  V30 587 C 63.7842 -2.75435 -4.40944 0
M  V30 588 C 61.4692 -2.08182 -4.57127 0
M  V30 589 C 63.4632 -3.98482 -4.97484 0
M  V30 590 C 61.1502 -3.31489 -5.13379 0
M  V30 591 C 62.1482 -4.26457 -5.33501 0
M  V30 592 O 61.8362 -5.47585 -5.88562 0
M  V30 593 H 61.5682 -0.167473 -0.654927 0
M  V30 594 H 64.1222 -1.11073 -1.72777 0
M  V30 595 H 62.3522 0.303836 -3.85505 0
M  V30 596 H 64.0412 -0.0622925 -4.05852 0
M  V30 597 H 64.8072 -2.54473 -4.12878 0
M  V30 598 H 60.6862 -1.35066 -4.4077 0
M  V30 599 H 64.2302 -4.72618 -5.13106 0
M  V30 600 H 60.1272 -3.52316 -5.40873 0
M  V30 601 H 60.8952 -5.49086 -6.06998 0
M  V30 602 N 63.5583 1.46682 -0.576371 0
M  V30 603 C 64.8353 1.95599 0.00703437 0
M  V30 604 C 65.2153 1.51904 1.46589 0
M  V30 605 O 64.5633 0.766755 2.15251 0
M  V30 606 C 64.7733 3.4864 -0.158404 0
M  V30 607 C 66.1213 4.24594 -0.0229439 0
M  V30 608 O 67.1453 3.56094 -0.0869173 0
M  V30 609 O 66.0043 5.46373 0.118015 0
M  V30 610 H 63.0983 0.825275 0.053384 0
M  V30 611 H 65.6443 1.56996 -0.644244 0
M  V30 612 H 64.4163 3.7331 -1.17282 0
M  V30 613 H 64.0393 3.94057 0.5296 0
M  V30 614 N 65.0364 0.313813 1.54444 0
M  V30 615 C 65.9834 -0.55655 2.23989 0
M  V30 616 C 66.9534 -1.11943 1.22711 0
M  V30 617 O 68.1384 -1.16158 1.51367 0
M  V30 618 C 65.2784 -1.71635 2.99392 0
M  V30 619 C 64.3914 -1.18364 4.15468 0
M  V30 620 C 63.5264 -2.30834 4.78424 0
M  V30 621 C 62.5654 -1.74762 5.86622 0
M  V30 622 N 61.7024 -2.80855 6.43479 0
M  V30 623 H 66.5424 0.0430893 2.97969 0
M  V30 624 H 64.0794 0.0330359 1.47063 0
M  V30 625 H 66.0374 -2.39868 3.41349 0
M  V30 626 H 64.6674 -2.28742 2.27765 0
M  V30 627 H 63.7194 -0.393163 3.78363 0
M  V30 628 H 65.0314 -0.733262 4.93381 0
M  V30 629 H 64.1854 -3.0699 5.23299 0
M  V30 630 H 62.9244 -2.79204 3.99871 0
M  V30 631 H 61.9294 -0.970995 5.41158 0
M  V30 632 H 63.1544 -1.2728 6.67066 0
M  V30 633 H 61.1004 -3.28535 5.67804 0
M  V30 634 H 61.0174 -2.40351 7.16776 0
M  V30 635 H 62.2854 -3.5687 6.93011 0
M  V30 636 N 66.5145 -1.57545 0.0417849 0
M  V30 637 C 67.4775 -2.09885 -0.92093 0
M  V30 638 C 68.4775 -1.01648 -1.24596 0
M  V30 639 O 69.6675 -1.27759 -1.1842 0
M  V30 640 C 66.7995 -2.57527 -2.23367 0
M  V30 641 H 67.9925 -2.96236 -0.467382 0
M  V30 642 H 65.5455 -1.5493 -0.206467 0
M  V30 643 H 66.2805 -1.74542 -2.73323 0
M  V30 644 H 66.0655 -3.36613 -2.01083 0
M  V30 645 H 67.5555 -2.98201 -2.92346 0
M  V30 646 N 67.9926 0.231505 -1.5589 0
M  V30 647 C 69.2386 0.95877 -1.78705 0
M  V30 648 C 69.5716 1.8438 -0.609725 0
M  V30 649 O 68.8466 1.90521 0.391426 0
M  V30 650 C 69.1296 1.8062 -3.11526 0
M  V30 651 C 68.9826 0.948328 -4.39689 0
M  V30 652 C 70.3016 2.78585 -3.40703 0
M  V30 653 H 67.4206 0.347129 -0.650131 0
M  V30 654 H 70.0626 0.228259 -1.88624 0
M  V30 655 H 68.2126 2.42902 -3.03201 0
M  V30 656 H 69.8846 0.343016 -4.60023 0
M  V30 657 H 68.1276 0.253314 -4.3306 0
M  V30 658 H 68.7986 1.57543 -5.29041 0
M  V30 659 H 71.2746 2.26439 -3.49091 0
M  V30 660 H 70.1506 3.34988 -4.34826 0
M  V30 661 H 70.4116 3.55825 -2.62375 0
M  V30 662 N 69.4707 1.49531 0.497807 0
M  V30 663 C 70.4337 1.65916 1.58128 0
M  V30 664 C 71.4337 0.530825 1.51786 0
M  V30 665 O 72.6237 0.797342 1.54881 0
M  V30 666 C 69.7557 1.65951 2.9778 0
M  V30 667 H 70.9487 2.62556 1.44929 0
M  V30 668 H 68.5017 1.38611 0.722275 0
M  V30 669 H 69.2367 0.709065 3.16453 0
M  V30 670 H 69.0217 2.47897 3.03792 0
M  V30 671 H 70.5117 1.80673 3.76493 0
M  V30 672 N 70.9488 -0.749086 1.3866 0
M  V30 673 C 72.1738 -1.54344 1.38538 0
M  V30 674 C 72.5988 -1.88088 -0.0216655 0
M  V30 675 O 71.9568 -1.50899 -1.00494 0
M  V30 676 C 72.0048 -2.8164 2.25192 0
M  V30 677 O 71.1088 -3.7698 1.67212 0
M  V30 678 H 70.4498 -0.466654 0.472367 0
M  V30 679 H 72.9798 -0.925355 1.82478 0
M  V30 680 H 72.9898 -3.30519 2.3921 0
M  V30 681 H 71.6648 -2.56411 3.27454 0
M  V30 682 H 70.2418 -3.35699 1.6236 0
M  V30 683 N 72.4269 -1.23603 -0.977757 0
M  V30 684 C 73.6739 -1.06971 -1.71941 0
M  V30 685 C 74.0019 0.393009 -1.90488 0
M  V30 686 O 73.2569 1.30719 -1.4564 0
M  V30 687 C 73.5559 -1.7433 -3.11999 0
M  V30 688 C 73.2219 -3.24252 -3.13323 0
M  V30 689 C 71.8839 -3.65156 -3.13392 0
M  V30 690 C 74.2359 -4.20141 -3.08433 0
M  V30 691 C 71.5639 -5.00403 -3.0629 0
M  V30 692 C 73.9159 -5.55384 -3.02873 0
M  V30 693 C 72.5799 -5.95647 -3.01265 0
M  V30 694 H 71.8499 -0.391433 -0.629175 0
M  V30 695 H 74.4969 -1.53572 -1.14403 0
M  V30 696 H 72.8019 -1.20096 -3.7294 0
M  V30 697 H 74.4989 -1.58936 -3.68158 0
M  V30 698 H 71.0889 -2.91692 -3.14029 0
M  V30 699 H 75.2729 -3.89547 -3.07517 0
M  V30 700 H 70.5289 -5.3081 -3.03399 0
M  V30 701 H 74.7029 -6.29398 -2.98046 0
M  V30 702 H 72.3299 -7.0041 -2.95516 0
M  V30 703 N 73.905 1.17692 -1.04816 0
M  V30 704 C 74.852 2.21581 -0.645797 0
M  V30 705 C 75.822 1.62367 0.350159 0
M  V30 706 O 77.007 1.89254 0.242433 0
M  V30 707 C 74.147 3.45092 -0.0227568 0
M  V30 708 C 73.26 4.18613 -1.06709 0
M  V30 709 C 72.395 5.29602 -0.411767 0
M  V30 710 C 71.434 5.94904 -1.44067 0
M  V30 711 N 70.571 6.97414 -0.809781 0
M  V30 712 H 75.411 2.55353 -1.5362 0
M  V30 713 H 72.948 1.25438 -0.768364 0
M  V30 714 H 74.906 4.15679 0.35588 0
M  V30 715 H 73.536 3.11917 0.831122 0
M  V30 716 H 72.588 3.46779 -1.5636 0
M  V30 717 H 73.9 4.63293 -1.84827 0
M  V30 718 H 73.054 6.06696 0.0206623 0
M  V30 719 H 71.793 4.86045 0.401438 0
M  V30 720 H 70.798 5.16544 -1.88316 0
M  V30 721 H 72.023 6.40542 -2.25571 0
M  V30 722 H 69.969 6.55998 -0.0170186 0
M  V30 723 H 69.886 7.40386 -1.52856 0
M  V30 724 H 71.154 7.78463 -0.401999 0
M  V30 725 N 75.3831 0.828654 1.34056 0
M  V30 726 C 76.3331 0.226828 2.26869 0
M  V30 727 C 77.3171 -0.612243 1.48796 0
M  V30 728 O 78.5091 -0.465884 1.70759 0
M  V30 729 C 75.6381 -0.605654 3.37915 0
M  V30 730 C 74.7241 0.244361 4.23395 0
M  V30 731 N 75.1151 1.31815 4.88322 0
M  V30 732 C 73.4131 0.0296616 4.4599 0
M  V30 733 C 74.1141 1.83895 5.51867 0
M  V30 734 N 73.0901 1.14196 5.3147 0
M  V30 735 H 76.8921 1.04811 2.74576 0
M  V30 736 H 74.4061 0.67205 1.47842 0
M  V30 737 H 76.4031 -1.05302 4.03382 0
M  V30 738 H 75.0631 -1.42504 2.91758 0
M  V30 739 H 76.0741 1.70099 4.8917 0
M  V30 740 H 72.7511 -0.757097 4.10578 0
M  V30 741 H 74.1411 2.7376 6.136 0
M  V30 742 N 76.8612 -1.46375 0.584142 0
M  V30 743 C 77.8242 -2.28784 -0.138108 0
M  V30 744 C 78.8242 -1.38471 -0.817462 0
M  V30 745 O 80.0142 -1.60833 -0.669199 0
M  V30 746 C 77.1462 -3.18892 -1.20503 0
M  V30 747 H 78.3392 -2.94117 0.586127 0
M  V30 748 H 75.8922 -1.52509 0.342171 0
M  V30 749 H 76.6272 -2.58309 -1.96079 0
M  V30 750 H 76.4122 -3.85388 -0.722384 0
M  V30 751 H 77.9022 -3.80914 -1.71155 0
M  V30 752 N 78.3393 -0.321999 -1.54275 0
M  V30 753 C 79.2693 0.537411 -2.27231 0
M  V30 754 C 80.2503 1.12064 -1.27968 0
M  V30 755 O 81.4353 1.14606 -1.56777 0
M  V30 756 C 78.5653 1.69919 -3.02894 0
M  V30 757 C 77.5193 1.24534 -4.09482 0
M  V30 758 C 76.8453 2.49394 -4.72977 0
M  V30 759 C 78.1453 0.361335 -5.21049 0
M  V30 760 H 79.8393 -0.0711406 -2.99315 0
M  V30 761 H 77.3853 -0.0356555 -1.43956 0
M  V30 762 H 79.3383 2.30668 -3.52662 0
M  V30 763 H 78.0623 2.33431 -2.28424 0
M  V30 764 H 76.7213 0.660782 -3.60596 0
M  V30 765 H 76.3693 3.11265 -3.95124 0
M  V30 766 H 76.0693 2.19718 -5.44975 0
M  V30 767 H 77.5933 3.10908 -5.25517 0
M  V30 768 H 79.0073 0.875072 -5.66582 0
M  V30 769 H 77.4043 0.157428 -5.99893 0
M  V30 770 H 78.4743 -0.60822 -4.8107 0
M  V30 771 N 79.8174 1.5752 -0.0501392 0
M  V30 772 C 80.7644 2.1147 0.924603 0
M  V30 773 C 81.7344 1.02182 1.30951 0
M  V30 774 O 82.9194 1.29723 1.39916 0
M  V30 775 C 80.0594 2.66337 2.19451 0
M  V30 776 C 79.1724 3.89708 1.86418 0
M  V30 777 C 78.3074 4.32893 3.07859 0
M  V30 778 C 77.3464 5.48967 2.70742 0
M  V30 779 N 76.4834 5.87211 3.84874 0
M  V30 780 H 81.3234 2.94465 0.457639 0
M  V30 781 H 78.8604 1.45531 0.214266 0
M  V30 782 H 80.8184 2.96247 2.93758 0
M  V30 783 H 79.4484 1.86141 2.63726 0
M  V30 784 H 78.5004 3.66396 1.02264 0
M  V30 785 H 79.8124 4.74074 1.55096 0
M  V30 786 H 78.9664 4.6435 3.90466 0
M  V30 787 H 77.7054 3.47336 3.42358 0
M  V30 788 H 76.7104 5.17183 1.86551 0
M  V30 789 H 77.9354 6.3624 2.37436 0
M  V30 790 H 75.8814 5.04607 4.19175 0
M  V30 791 H 75.7984 6.66266 3.57247 0
M  V30 792 H 77.0664 6.23282 4.68123 0
M  V30 793 N 81.2955 -0.223234 1.56011 0
M  V30 794 C 82.2435 -1.29627 1.93131 0
M  V30 795 C 83.2375 -1.48608 0.813146 0
M  V30 796 O 84.4435 -1.49802 0.997966 0
M  V30 797 H 80.8185 -0.434563 0.613726 0
M  V30 798 H 82.7895 -0.955995 2.82672 0
M  V30 799 C 81.5385 -2.63983 2.26292 0
M  V30 800 H 80.8615 -2.50185 3.11846 0
M  V30 801 H 82.3015 -3.3788 2.56151 0
M  V30 802 C 80.7605 -3.18866 1.08747 0
M  V30 803 O 81.2905 -4.00192 0.347727 0
M  V30 804 N 79.4965 -2.77217 0.871743 0
M  V30 805 H 79.0435 -2.1119 1.47501 0
M  V30 806 H 79.0015 -3.1428 0.0869905 0
M  V30 807 N 82.7736 -1.49793 -0.48987 0
M  V30 808 C 84.0216 -1.59525 -1.24081 0
M  V30 809 C 84.3426 -0.288953 -1.92847 0
M  V30 810 O 83.6126 0.692436 -1.83254 0
M  V30 811 H 82.1926 -0.587796 -0.460983 0
M  V30 812 H 84.8546 -1.86477 -0.566778 0
M  V30 813 H 83.9506 -2.39696 -1.99881 0
M  V30 814 N 84.2517 0.741722 -1.39055 0
M  V30 815 C 85.5287 1.49252 -1.26425 0
M  V30 816 C 85.9087 2.10705 0.129144 0
M  V30 817 O 85.2567 1.98045 1.13976 0
M  V30 818 C 85.4667 2.54934 -2.38347 0
M  V30 819 C 86.8147 3.21506 -2.77343 0
M  V30 820 O 87.8387 2.65245 -2.37747 0
M  V30 821 O 86.6977 4.23294 -3.45665 0
M  V30 822 H 83.7917 0.662451 -0.495064 0
M  V30 823 H 86.3377 0.776121 -1.50912 0
M  V30 824 H 85.1097 2.07857 -3.31529 0
M  V30 825 H 84.7327 3.34141 -2.15489 0
M  V30 826 N 85.7298 1.2412 0.971189 0
M  V30 827 C 86.9788 1.07284 1.70801 0
M  V30 828 C 87.2918 -0.388902 1.91695 0
M  V30 829 O 88.4978 -0.677379 2.62914 0
M  V30 830 C 86.9538 1.87145 3.07416 0
M  V30 831 C 86.5618 3.37707 2.94377 0
M  V30 832 C 88.3058 1.78828 3.84995 0
M  V30 833 C 86.2128 4.09925 4.26281 0
M  V30 834 H 85.1428 0.397854 0.64049 0
M  V30 835 H 87.7938 1.4817 1.0825 0
M  V30 836 H 86.1758 1.39071 3.70777 0
M  V30 837 H 87.3498 3.93335 2.4005 0
M  V30 838 H 85.6648 3.46938 2.30267 0
M  V30 839 H 88.2618 2.30089 4.82662 0
M  V30 840 H 88.6048 0.75284 4.09436 0
M  V30 841 H 89.1378 2.24563 3.28354 0
M  V30 842 H 85.8768 5.13813 4.07033 0
M  V30 843 H 85.3968 3.59083 4.80437 0
M  V30 844 H 87.0758 4.1673 4.94919 0
M  V30 845 N 87.2079 -1.17134 1.05439 0
M  V30 846 C 88.4479 -1.89137 0.77502 0
M  V30 847 C 88.8119 -1.79345 -0.685526 0
M  V30 848 O 90.0129 -2.46188 -1.0791 0
M  V30 849 C 88.2839 -3.35003 1.2453 0
M  V30 850 S 89.8429 -4.24952 1.09367 0
M  V30 851 H 86.6609 -0.652949 0.281387 0
M  V30 852 H 89.2629 -1.4145 1.34953 0
M  V30 853 H 87.9669 -3.39666 2.30338 0
M  V30 854 H 87.4979 -3.87736 0.665166 0
M  V30 855 H 89.5129 -4.96196 0.0193397 0
M  V30 856 N 88.686 -0.835752 -1.33615 0
M  V30 857 C 89.596 -0.269088 -2.33052 0
M  V30 858 C 90.612 0.603251 -1.63208 0
M  V30 859 O 91.788 0.508112 -1.94885 0
M  V30 860 C 88.853 0.549091 -3.42324 0
M  V30 861 C 87.914 -0.347156 -4.27894 0
M  V30 862 C 87.147 0.43207 -5.31948 0
M  V30 863 O 87.37 1.66409 -5.45586 0
M  V30 864 O 86.304 -0.192298 -6.01593 0
M  V30 865 H 90.13 -1.09243 -2.83372 0
M  V30 866 H 87.715 -0.598198 -1.36901 0
M  V30 867 H 89.597 1.01414 -4.09015 0
M  V30 868 H 88.272 1.34955 -2.94226 0
M  V30 869 H 87.179 -0.859979 -3.64081 0
M  V30 870 H 88.512 -1.1123 -4.79467 0
M  V30 871 N 90.1641 1.46063 -0.591896 0
M  V30 872 C 91.3921 2.06717 -0.0868936 0
M  V30 873 C 91.8071 1.43916 1.22203 0
M  V30 874 O 91.1641 0.547698 1.74088 0
M  V30 875 C 91.2151 3.6142 0.0758725 0
M  V30 876 O 90.9361 4.21874 -1.18126 0
M  V30 877 C 92.4371 4.39025 0.61416 0
M  V30 878 H 89.6571 0.668162 -0.0616518 0
M  V30 879 H 92.2011 1.8755 -0.815175 0
M  V30 880 H 90.3561 3.79983 0.754413 0
M  V30 881 H 90.7701 5.14861 -1.00092 0
M  V30 882 H 92.2441 5.4783 0.677193 0
M  V30 883 H 92.7211 4.07708 1.63312 0
M  V30 884 H 93.3271 4.2529 -0.0298142 0
M  V30 885 N 91.6422 0.330177 1.54103 0
M  V30 886 C 92.8672 -0.274893 2.0557 0
M  V30 887 C 93.2922 -1.44487 1.20437 0
M  V30 888 O 92.6502 -1.80021 0.214991 0
M  V30 889 C 92.6982 -0.68079 3.54115 0
M  V30 890 O 91.8022 -1.7824 3.71893 0
M  V30 891 H 91.1432 -0.0483849 0.662235 0
M  V30 892 H 93.6732 0.480508 1.98878 0
M  V30 893 H 93.6832 -0.961635 3.96505 0
M  V30 894 H 92.3582 0.174903 4.15532 0
M  V30 895 H 90.9352 -1.49985 3.41407 0
M  V30 896 N 93.1203 -1.57491 0.0584922 0
M  V30 897 C 94.3683 -1.92597 -0.612436 0
M  V30 898 C 94.6893 -0.938162 -1.70949 0
M  V30 899 O 93.9593 0.0158301 -1.95894 0
M  V30 900 H 92.5393 -0.710964 -0.229214 0
M  V30 901 H 95.2013 -1.94571 0.113218 0
M  V30 902 H 94.2973 -2.94038 -1.04633 0
M  V30 903 N 94.5984 0.214957 -1.56127 0
M  V30 904 C 95.5454 1.26642 -1.92952 0
M  V30 905 C 96.5154 1.46244 -0.78753 0
M  V30 906 O 97.7004 1.59704 -1.04399 0
M  V30 907 C 94.8404 2.6104 -2.25726 0
M  V30 908 C 93.9534 2.49183 -3.52891 0
M  V30 909 C 93.0884 3.76149 -3.7508 0
M  V30 910 C 92.1274 3.59041 -4.95738 0
M  V30 911 N 91.2644 4.77972 -5.14283 0
M  V30 912 H 96.1044 0.945384 -2.82607 0
M  V30 913 H 93.6414 0.455489 -1.3987 0
M  V30 914 H 95.5994 3.39313 -2.42739 0
M  V30 915 H 94.2294 2.91227 -1.39236 0
M  V30 916 H 93.2814 1.6231 -3.44034 0
M  V30 917 H 94.5934 2.32466 -4.41318 0
M  V30 918 H 93.7474 4.62865 -3.92226 0
M  V30 919 H 92.4864 3.95799 -2.84947 0
M  V30 920 H 91.4914 2.7071 -4.78535 0
M  V30 921 H 92.7164 3.40856 -5.87362 0
M  V30 922 H 90.6624 4.97923 -4.27093 0
M  V30 923 H 90.5794 4.64006 -5.96853 0
M  V30 924 H 91.8474 5.66096 -5.35869 0
M  V30 925 N 96.0765 1.50051 0.48192 0
M  V30 926 C 97.4875 1.5348 1.06305 0
M  V30 927 C 97.8385 0.331997 1.93371 0
M  V30 928 O 96.9635 -0.556256 2.09129 0
M  V30 929 C 97.5585 2.7813 1.93466 0
M  V30 930 C 96.1175 2.84275 2.46707 0
M  V30 931 C 95.2645 2.47637 1.24785 0
M  V30 932 H 98.2155 1.56472 0.264995 0
M  V30 933 H 98.2365 2.59372 2.78399 0
M  V30 934 H 97.7485 3.65654 1.30072 0
M  V30 935 H 95.8495 2.01077 3.13686 0
M  V30 936 H 95.9625 3.8691 2.82555 0
M  V30 937 H 94.3265 1.99835 1.57918 0
M  V30 938 H 95.1095 3.37457 0.630694 0
M  V30 939 N 97.5546 -0.734337 1.39446 0
M  V30 940 C 98.5016 -1.84835 1.38219 0
M  V30 941 C 99.4716 -1.64331 0.24179 0
M  V30 942 O 100.657 -1.85728 0.437002 0
M  V30 943 C 97.7966 -3.22355 1.23212 0
M  V30 944 C 96.9096 -3.5456 2.46801 0
M  V30 945 C 96.0446 -4.81485 2.24377 0
M  V30 946 C 95.0836 -5.06536 3.43639 0
M  V30 947 N 94.2206 -6.24665 3.20528 0
M  V30 948 H 99.0606 -1.85219 2.33448 0
M  V30 949 H 96.5976 -0.905039 1.15963 0
M  V30 950 H 98.5556 -4.0174 1.12522 0
M  V30 951 H 97.1856 -3.21248 0.316121 0
M  V30 952 H 96.2376 -2.69872 2.68092 0
M  V30 953 H 97.5496 -3.6899 3.3563 0
M  V30 954 H 96.7036 -5.68852 2.10933 0
M  V30 955 H 95.4426 -4.6923 1.32944 0
M  V30 956 H 94.4476 -4.17632 3.5758 0
M  V30 957 H 95.6726 -5.20676 4.35974 0
M  V30 958 H 93.6186 -6.13696 2.3176 0
M  V30 959 H 93.5356 -6.39685 4.02913 0
M  V30 960 H 94.8036 -7.14868 3.10779 0
M  V30 961 N 99.0327 -1.24633 -0.964593 0
M  V30 962 C 100.261 -1.11501 -1.74285 0
M  V30 963 C 100.676 0.332165 -1.85855 0
M  V30 964 O 100.033 1.22903 -1.34911 0
M  V30 965 C 100.084 -1.75258 -3.16175 0
M  V30 966 O 99.8047 -3.14318 -3.05182 0
M  V30 967 C 101.306 -1.67776 -4.10324 0
M  V30 968 H 98.5257 -0.389407 -0.546446 0
M  V30 969 H 101.07 -1.64801 -1.21083 0
M  V30 970 H 99.2247 -1.25954 -3.66353 0
M  V30 971 H 99.6387 -3.4551 -3.94618 0
M  V30 972 H 101.113 -2.17064 -5.0753 0
M  V30 973 H 101.59 -0.639584 -4.34518 0
M  V30 974 H 102.196 -2.16522 -3.66058 0
M  V30 975 N 100.511 1.16574 -1.06058 0
M  V30 976 C 101.739 1.90952 -0.796552 0
M  V30 977 C 102.154 1.77302 0.648808 0
M  V30 978 O 101.511 1.11605 1.44397 0
M  V30 979 C 101.562 3.41736 -1.17894 0
M  V30 980 O 101.283 3.54975 -2.56758 0
M  V30 981 C 102.784 4.33169 -0.942308 0
M  V30 982 H 100.004 0.605594 -0.288959 0
M  V30 983 H 102.548 1.47777 -1.41358 0
M  V30 984 H 100.703 3.82623 -0.606491 0
M  V30 985 H 101.117 4.4846 -2.72 0
M  V30 986 H 102.591 5.37439 -1.25952 0
M  V30 987 H 103.068 4.3903 0.122078 0
M  V30 988 H 103.674 3.98007 -1.49902 0
M  V30 989 N 101.989 0.842826 1.3317 0
M  V30 990 C 103.4 0.496651 1.79973 0
M  V30 991 C 103.751 -0.984641 1.69703 0
M  V30 992 O 102.876 -1.76743 1.24863 0
M  V30 993 C 103.471 0.894727 3.26772 0
M  V30 994 C 102.03 0.600629 3.71577 0
M  V30 995 C 101.177 1.10091 2.5451 0
M  V30 996 H 104.128 1.03116 1.20635 0
M  V30 997 H 104.149 0.206347 3.7994 0
M  V30 998 H 103.661 1.97287 3.34215 0
M  V30 999 H 101.762 -0.467284 3.69658 0
M  V30 1000 H 101.875 1.15863 4.64879 0
M  V30 1001 H 100.239 0.52162 2.49301 0
M  V30 1002 H 101.022 2.18591 2.64713 0
M  V30 1003 N 103.467 -1.45747 0.599634 0
M  V30 1004 C 104.414 -2.30467 -0.123849 0
M  V30 1005 C 105.384 -1.41632 -0.86774 0
M  V30 1006 O 106.569 -1.70568 -0.855056 0
M  V30 1007 C 103.709 -3.26402 -1.12051 0
M  V30 1008 C 102.822 -4.3034 -0.37832 0
M  V30 1009 C 101.957 -5.13389 -1.364 0
M  V30 1010 C 100.996 -6.09061 -0.609171 0
M  V30 1011 N 100.133 -6.84918 -1.54374 0
M  V30 1012 H 104.973 -2.91802 0.604627 0
M  V30 1013 H 102.51 -1.43797 0.309972 0
M  V30 1014 H 104.468 -3.80482 -1.7114 0
M  V30 1015 H 103.098 -2.66839 -1.8165 0
M  V30 1016 H 102.15 -3.78984 0.327929 0
M  V30 1017 H 103.462 -4.98354 0.210997 0
M  V30 1018 H 102.616 -5.7183 -2.02719 0
M  V30 1019 H 101.355 -4.45376 -1.98725 0
M  V30 1020 H 100.36 -5.49758 0.0676979 0
M  V30 1021 H 101.585 -6.79099 0.00891991 0
M  V30 1022 H 99.531 -6.19601 -2.15478 0
M  V30 1023 H 99.448 -7.49254 -1.00766 0
M  V30 1024 H 100.716 -7.47906 -2.19676 0
M  V30 1025 N 104.945 -0.338344 -1.53925 0
M  V30 1026 C 106.361 0.0137736 -1.59594 0
M  V30 1027 C 106.561 1.49186 -1.35447 0
M  V30 1028 O 105.617 2.24987 -1.14616 0
M  V30 1029 C 106.93 -0.41773 -2.97784 0
M  V30 1030 C 108.478 -0.369633 -3.1081 0
M  V30 1031 C 108.953 -0.776524 -4.51369 0
M  V30 1032 N 110.444 -0.730506 -4.57403 0
M  V30 1033 C 111.179 -1.01736 -5.64303 0
M  V30 1034 N 110.675 -1.3721 -6.79077 0
M  V30 1035 N 112.468 -0.941942 -5.54151 0
M  V30 1036 H 104.619 -1.3012 -1.67876 0
M  V30 1037 H 106.882 -0.530082 -0.78595 0
M  V30 1038 H 106.588 -1.44811 -3.20504 0
M  V30 1039 H 106.462 0.209729 -3.76616 0
M  V30 1040 H 108.849 0.651568 -2.87817 0
M  V30 1041 H 108.93 -1.03223 -2.34049 0
M  V30 1042 H 108.574 -1.79571 -4.75096 0
M  V30 1043 H 108.504 -0.0914649 -5.26521 0
M  V30 1044 H 110.995 -0.468783 -3.74981 0
M  V30 1045 H 111.308 -1.57597 -7.5656 0
M  V30 1046 H 109.653 -1.4105 -6.80536 0
M  V30 1047 H 112.844 -0.664184 -4.63364 0
M  V30 1048 H 113.017 -1.16884 -6.37371 0
M  V30 1049 N 106.423 1.57458 -0.0668435 0
M  V30 1050 C 107.37 2.12439 0.902122 0
M  V30 1051 C 108.34 1.03565 1.2986 0
M  V30 1052 O 109.525 1.312 1.38532 0
M  V30 1053 C 106.665 2.6865 2.16614 0
M  V30 1054 C 105.778 3.91663 1.82274 0
M  V30 1055 C 104.913 4.36134 3.0325 0
M  V30 1056 C 103.952 5.51808 2.64904 0
M  V30 1057 N 103.089 5.9126 3.78624 0
M  V30 1058 H 107.929 2.94934 0.426382 0
M  V30 1059 H 105.466 1.4575 0.198819 0
M  V30 1060 H 107.424 2.99346 2.90599 0
M  V30 1061 H 106.054 1.88928 2.61737 0
M  V30 1062 H 105.106 3.6746 0.983719 0
M  V30 1063 H 106.418 4.75693 1.50059 0
M  V30 1064 H 105.572 4.68465 3.85519 0
M  V30 1065 H 104.311 3.50948 3.38655 0
M  V30 1066 H 103.316 5.19133 1.81055 0
M  V30 1067 H 104.541 6.38722 2.30675 0
M  V30 1068 H 102.487 5.09024 4.138 0
M  V30 1069 H 102.404 6.70018 3.5016 0
M  V30 1070 H 103.672 6.28212 4.61486 0
M  V30 1071 N 107.901 -0.206675 1.56239 0
M  V30 1072 C 109.312 -0.772383 1.69974 0
M  V30 1073 C 109.663 -1.84353 0.671436 0
M  V30 1074 O 108.788 -2.15695 -0.174491 0
M  V30 1075 C 109.383 -1.40779 3.08167 0
M  V30 1076 C 107.942 -1.92072 3.23706 0
M  V30 1077 C 107.089 -0.786347 2.65917 0
M  V30 1078 H 110.04 0.0182223 1.5869 0
M  V30 1079 H 110.061 -2.27696 3.04852 0
M  V30 1080 H 109.573 -0.627958 3.82986 0
M  V30 1081 H 107.674 -2.7281 2.53782 0
M  V30 1082 H 107.787 -2.09046 4.31087 0
M  V30 1083 H 106.151 -1.1976 2.24788 0
M  V30 1084 H 106.934 -0.0189416 3.43295 0
M  V30 1085 N 109.379 -1.50304 -0.473955 0
M  V30 1086 C 110.342 -1.6841 -1.55469 0
M  V30 1087 C 111.342 -0.554905 -1.50922 0
M  V30 1088 O 112.532 -0.821882 -1.53593 0
M  V30 1089 C 109.664 -1.70667 -2.95102 0
M  V30 1090 H 110.857 -2.64828 -1.40733 0
M  V30 1091 H 108.41 -1.39742 -0.700132 0
M  V30 1092 H 109.145 -0.75932 -3.15285 0
M  V30 1093 H 108.93 -2.52698 -2.9981 0
M  V30 1094 H 110.42 -1.8664 -3.73571 0
M  V30 1095 N 110.857 0.726932 -1.39834 0
M  V30 1096 C 111.804 1.841 -1.39197 0
M  V30 1097 C 112.774 1.642 -0.250502 0
M  V30 1098 O 113.959 1.85494 -0.446846 0
M  V30 1099 C 111.099 3.21697 -1.24919 0
M  V30 1100 C 110.212 3.53247 -2.48678 0
M  V30 1101 C 109.347 4.80289 -2.26928 0
M  V30 1102 C 108.386 5.04707 -3.4632 0
M  V30 1103 N 107.523 6.22956 -3.23836 0
M  V30 1104 H 112.363 1.83979 -2.34427 0
M  V30 1105 H 109.9 0.898876 -1.16442 0
M  V30 1106 H 111.858 4.01137 -1.1465 0
M  V30 1107 H 110.488 3.21076 -0.333153 0
M  V30 1108 H 109.54 2.68447 -2.69519 0
M  V30 1109 H 110.852 3.67205 -3.37582 0
M  V30 1110 H 110.006 5.67725 -2.13947 0
M  V30 1111 H 108.745 4.68519 -1.35431 0
M  V30 1112 H 107.75 4.1573 -3.5979 0
M  V30 1113 H 108.975 5.18357 -4.38729 0
M  V30 1114 H 106.921 6.12459 -2.35011 0
M  V30 1115 H 106.838 6.37539 -4.063 0
M  V30 1116 H 108.106 7.1321 -3.14566 0
M  V30 1117 N 112.336 1.25143 0.95797 0
M  V30 1118 C 113.283 1.05235 2.05412 0
M  V30 1119 C 114.253 -0.0374561 1.66058 0
M  V30 1120 O 115.438 0.119073 1.90428 0
M  V30 1121 C 112.578 0.673589 3.38462 0
M  V30 1122 C 111.691 1.8379 3.90954 0
M  V30 1123 C 110.826 1.40381 5.12315 0
M  V30 1124 C 109.865 2.53746 5.57027 0
M  V30 1125 N 109.002 2.11136 6.69601 0
M  V30 1126 H 113.842 1.99048 2.21774 0
M  V30 1127 H 111.379 0.991277 1.08683 0
M  V30 1128 H 113.337 0.434964 4.14926 0
M  V30 1129 H 111.967 -0.227554 3.21997 0
M  V30 1130 H 111.019 2.18992 3.11041 0
M  V30 1131 H 112.331 2.68937 4.20089 0
M  V30 1132 H 111.485 1.12464 5.96185 0
M  V30 1133 H 110.224 0.523015 4.84887 0
M  V30 1134 H 109.229 2.82412 4.71724 0
M  V30 1135 H 110.454 3.42398 5.86464 0
M  V30 1136 H 108.4 1.25468 6.4389 0
M  V30 1137 H 108.317 2.89832 6.98236 0
M  V30 1138 H 109.585 1.86385 7.56889 0
M  V30 1139 N 113.814 -1.1601 1.06675 0
M  V30 1140 C 114.762 -2.22586 0.675157 0
M  V30 1141 C 115.756 -1.66525 -0.310766 0
M  V30 1142 O 116.962 -1.79145 -0.175215 0
M  V30 1143 H 113.337 -0.724855 0.200223 0
M  V30 1144 H 115.308 -2.52899 1.58381 0
M  V30 1145 C 114.057 -3.47604 0.0817162 0
M  V30 1146 H 113.38 -3.91058 0.831484 0
M  V30 1147 H 114.82 -4.23718 -0.154708 0
M  V30 1148 C 113.279 -3.15718 -1.17576 0
M  V30 1149 O 113.809 -3.31878 -2.26318 0
M  V30 1150 N 112.015 -2.69816 -1.07923 0
M  V30 1151 H 111.562 -2.56866 -0.194293 0
M  V30 1152 H 111.52 -2.48855 -1.92141 0
M  V30 1153 N 115.292 -0.849877 -1.32721 0
M  V30 1154 C 116.239 -0.289033 -2.28983 0
M  V30 1155 C 117.209 0.601324 -1.54833 0
M  V30 1156 O 118.394 0.537253 -1.8308 0
M  V30 1157 C 115.534 0.520623 -3.4115 0
M  V30 1158 C 114.647 -0.394989 -4.3019 0
M  V30 1159 C 113.782 0.426834 -5.29482 0
M  V30 1160 C 112.821 -0.486476 -6.10164 0
M  V30 1161 N 111.958 0.297879 -7.01468 0
M  V30 1162 H 116.798 -1.11519 -2.76347 0
M  V30 1163 H 114.335 -0.56138 -1.35967 0
M  V30 1164 H 116.293 1.00563 -4.04899 0
M  V30 1165 H 114.923 1.31165 -2.9495 0
M  V30 1166 H 113.975 -0.99836 -3.67065 0
M  V30 1167 H 115.287 -1.09612 -4.86607 0
M  V30 1168 H 114.441 0.975205 -5.98811 0
M  V30 1169 H 113.18 1.16136 -4.73671 0
M  V30 1170 H 112.185 -1.04677 -5.39743 0
M  V30 1171 H 113.41 -1.21953 -6.6806 0
M  V30 1172 H 111.356 1.01558 -6.48091 0
M  V30 1173 H 111.273 -0.344318 -7.55216 0
M  V30 1174 H 112.541 0.828131 -7.75089 0
M  V30 1175 N 116.77 1.45427 -0.607355 0
M  V30 1176 C 117.995 2.07124 -0.107006 0
M  V30 1177 C 118.42 1.44906 1.19933 0
M  V30 1178 O 117.778 0.541687 1.73019 0
M  V30 1179 C 117.826 3.60595 0.0194119 0
M  V30 1180 O 116.93 3.98285 1.0697 0
M  V30 1181 H 116.271 0.659868 -0.0739597 0
M  V30 1182 H 118.801 1.86683 -0.837297 0
M  V30 1183 H 118.811 4.07419 0.2177 0
M  V30 1184 H 117.486 4.05266 -0.934453 0
M  V30 1185 H 116.063 3.63133 0.847889 0
M  V30 1186 N 118.248 0.346503 1.53744 0
M  V30 1187 C 119.18 -0.543316 2.22667 0
M  V30 1188 C 120.193 -1.06159 1.23427 0
M  V30 1189 O 121.382 -0.971235 1.49764 0
M  V30 1190 C 118.482 -1.76076 2.89569 0
M  V30 1191 C 117.655 -1.37727 4.15151 0
M  V30 1192 C 116.714 -2.45471 4.65436 0
M  V30 1193 O 115.74 -2.08655 5.29577 0
M  V30 1194 N 116.942 -3.7677 4.41616 0
M  V30 1195 H 119.707 0.0469703 2.99663 0
M  V30 1196 H 117.268 0.170766 1.60997 0
M  V30 1197 H 119.26 -2.47593 3.20125 0
M  V30 1198 H 117.83 -2.25835 2.16142 0
M  V30 1199 H 117.05 -0.492746 3.91108 0
M  V30 1200 H 118.338 -1.09708 4.96832 0
M  V30 1201 H 117.736 -4.09467 3.90325 0
M  V30 1202 H 116.293 -4.44448 4.7677 0
M  V30 1203 N 119.726 -1.57421 0.075193 0
M  V30 1204 C 120.673 -2.12915 -0.890843 0
M  V30 1205 C 121.643 -1.04252 -1.29309 0
M  V30 1206 O 122.828 -1.31933 -1.37834 0
M  V30 1207 C 119.968 -2.69795 -2.15186 0
M  V30 1208 C 119.081 -3.92624 -1.80194 0
M  V30 1209 C 118.216 -4.37736 -3.00933 0
M  V30 1210 C 117.255 -5.53205 -2.61974 0
M  V30 1211 N 116.392 -5.9326 -3.75483 0
M  V30 1212 H 121.232 -2.95156 -0.410735 0
M  V30 1213 H 118.769 -1.45854 -0.191086 0
M  V30 1214 H 120.727 -3.00883 -2.89008 0
M  V30 1215 H 119.357 -1.90313 -2.60731 0
M  V30 1216 H 118.409 -3.67977 -0.964218 0
M  V30 1217 H 119.721 -4.76482 -1.47534 0
M  V30 1218 H 118.875 -4.70503 -3.8303 0
M  V30 1219 H 117.614 -3.52739 -3.36789 0
M  V30 1220 H 116.619 -5.20086 -1.783 0
M  V30 1221 H 117.844 -6.39936 -2.27284 0
M  V30 1222 H 115.79 -5.11212 -4.11094 0
M  V30 1223 H 115.707 -6.71865 -3.46602 0
M  V30 1224 H 116.975 -6.30651 -4.58148 0
M  V30 1225 N 121.204 0.198386 -1.56346 0
M  V30 1226 C 122.151 1.24589 -1.94284 0
M  V30 1227 C 123.121 1.454 -0.802997 0
M  V30 1228 O 124.306 1.58588 -1.06087 0
M  V30 1229 C 121.446 2.58631 -2.28482 0
M  V30 1230 C 120.559 2.45426 -3.55514 0
M  V30 1231 C 119.694 3.7215 -3.79049 0
M  V30 1232 C 118.733 3.53763 -4.99518 0
M  V30 1233 N 117.87 4.72491 -5.19323 0
M  V30 1234 H 122.71 0.915356 -2.83593 0
M  V30 1235 H 120.247 0.440629 -1.40346 0
M  V30 1236 H 122.205 3.3672 -2.46324 0
M  V30 1237 H 120.835 2.89734 -1.42317 0
M  V30 1238 H 119.887 1.58652 -3.45737 0
M  V30 1239 H 121.199 2.27772 -4.43758 0
M  V30 1240 H 120.353 4.58679 -3.97113 0
M  V30 1241 H 119.092 3.92754 -2.89129 0
M  V30 1242 H 118.097 2.65619 -4.8138 0
M  V30 1243 H 119.322 3.34607 -5.90944 0
M  V30 1244 H 117.268 4.93365 -4.3235 0
M  V30 1245 H 117.185 4.5765 -6.01741 0
M  V30 1246 H 118.453 5.6038 -5.41843 0
M  V30 1247 N 122.682 1.50554 0.465978 0
M  V30 1248 C 123.63 1.70324 1.58406 0
M  V30 1249 C 124.624 0.569139 1.59553 0
M  V30 1250 O 125.83 0.749776 1.63641 0
M  V30 1251 H 122.205 0.537688 0.525734 0
M  V30 1252 H 124.176 2.64104 1.38894 0
M  V30 1253 C 122.925 1.81928 2.96307 0
M  V30 1254 H 122.248 2.68586 2.96144 0
M  V30 1255 H 123.688 1.99784 3.73982 0
M  V30 1256 C 122.147 0.572095 3.32007 0
M  V30 1257 O 122.677 -0.286416 4.00678 0
M  V30 1258 N 120.883 0.424606 2.87481 0
M  V30 1259 H 120.43 1.12427 2.31771 0
M  V30 1260 H 120.388 -0.408697 3.11732 0
M  V30 1261 N 124.16 -0.719506 1.40217 0
M  V30 1262 C 125.388 -1.50864 1.41589 0
M  V30 1263 C 125.803 -1.88794 0.0145275 0
M  V30 1264 O 125.16 -1.55174 -0.960594 0
M  V30 1265 C 125.211 -2.78646 2.30302 0
M  V30 1266 O 124.932 -2.42321 3.64983 0
M  V30 1267 C 126.433 -3.72569 2.40224 0
M  V30 1268 H 123.653 -0.465709 0.48307 0
M  V30 1269 H 126.197 -0.88785 1.84221 0
M  V30 1270 H 124.352 -3.37019 1.91042 0
M  V30 1271 H 124.766 -3.24514 4.12057 0
M  V30 1272 H 126.24 -4.5908 3.06512 0
M  V30 1273 H 126.717 -4.15403 1.42608 0
M  V30 1274 H 127.323 -3.20109 2.80019 0
M  V30 1275 N 125.638 -1.25649 -0.95132 0
M  V30 1276 C 126.601 -1.06399 -2.03007 0
M  V30 1277 C 127.601 -0.0156794 -1.60792 0
M  V30 1278 O 128.791 -0.25817 -1.72276 0
M  V30 1279 C 125.923 -0.616184 -3.35285 0
M  V30 1280 H 127.116 -2.02164 -2.21517 0
M  V30 1281 H 124.669 -1.08103 -1.12887 0
M  V30 1282 H 125.404 0.343917 -3.22471 0
M  V30 1283 H 125.189 -1.37301 -3.67275 0
M  V30 1284 H 126.679 -0.503032 -4.14559 0
M  V30 1285 N 127.117 1.15442 -1.07289 0
M  V30 1286 C 128.08 2.18358 -0.696591 0
M  V30 1287 C 129.08 1.58637 0.262837 0
M  V30 1288 O 130.27 1.74145 0.0438809 0
M  V30 1289 C 127.402 3.4089 -0.0266151 0
M  V30 1290 H 128.595 2.53162 -1.60776 0
M  V30 1291 H 126.148 1.29893 -0.869342 0
M  V30 1292 H 126.883 3.11653 0.896822 0
M  V30 1293 H 126.668 3.85495 -0.716657 0
M  V30 1294 H 128.158 4.17009 0.222028 0
M  V30 1295 N 128.595 0.856903 1.32268 0
M  V30 1296 C 129.82 0.474569 2.01897 0
M  V30 1297 C 130.245 -0.921766 1.63967 0
M  V30 1298 O 129.603 -1.60589 0.84148 0
M  V30 1299 C 129.651 0.623799 3.55164 0
M  V30 1300 O 128.755 -0.342459 4.10976 0
M  V30 1301 H 128.096 0.190422 0.63611 0
M  V30 1302 H 130.626 1.15672 1.68764 0
M  V30 1303 H 130.636 0.512169 4.04773 0
M  V30 1304 H 129.311 1.64202 3.82113 0
M  V30 1305 H 127.888 -0.18688 3.72431 0
M  V30 1306 N 130.073 -1.45103 0.615059 0
M  V30 1307 C 131.003 -2.33339 -0.0865619 0
M  V30 1308 C 131.984 -1.4727 -0.851209 0
M  V30 1309 O 133.169 -1.76026 -0.820281 0
M  V30 1310 C 130.299 -3.30095 -1.07956 0
M  V30 1311 C 129.253 -4.25858 -0.427628 0
M  V30 1312 C 128.579 -5.12361 -1.5294 0
M  V30 1313 C 129.879 -5.18165 0.655944 0
M  V30 1314 H 131.573 -2.92254 0.650224 0
M  V30 1315 H 129.119 -1.40532 0.314138 0
M  V30 1316 H 131.072 -3.90698 -1.57901 0
M  V30 1317 H 129.796 -2.69355 -1.84703 0
M  V30 1318 H 128.455 -3.66564 0.0510292 0
M  V30 1319 H 128.103 -4.47984 -2.28734 0
M  V30 1320 H 127.803 -5.77238 -1.09865 0
M  V30 1321 H 129.327 -5.75833 -2.03098 0
M  V30 1322 H 130.741 -5.72796 0.240257 0
M  V30 1323 H 129.138 -5.91559 1.00888 0
M  V30 1324 H 130.208 -4.60144 1.52957 0
M  V30 1325 N 131.551 -0.354651 -1.53558 0
M  V30 1326 C 132.483 0.5315 -2.22952 0
M  V30 1327 C 133.496 1.05503 -1.23988 0
M  V30 1328 O 134.685 0.963279 -1.50277 0
M  V30 1329 C 131.785 1.74538 -2.90499 0
M  V30 1330 C 130.958 1.35524 -4.15875 0
M  V30 1331 C 130.017 2.42999 -4.66731 0
M  V30 1332 O 129.043 2.05844 -5.30676 0
M  V30 1333 N 130.245 3.74423 -4.43608 0
M  V30 1334 H 133.01 -0.0628615 -2.99634 0
M  V30 1335 H 130.571 -0.179302 -1.60904 0
M  V30 1336 H 132.563 2.45892 -3.21433 0
M  V30 1337 H 131.133 2.24686 -2.17336 0
M  V30 1338 H 130.353 0.471998 -3.91364 0
M  V30 1339 H 131.641 1.07071 -4.97406 0
M  V30 1340 H 131.039 4.07391 -3.92491 0
M  V30 1341 H 129.596 4.41913 -4.7912 0
M  V30 1342 N 133.029 1.57378 -0.0835403 0
M  V30 1343 C 133.961 2.10389 0.909338 0
M  V30 1344 C 134.974 1.03858 1.25369 0
M  V30 1345 O 136.163 1.31338 1.20882 0
M  V30 1346 C 133.263 2.55908 2.2218 0
M  V30 1347 C 132.436 3.86145 2.05453 0
M  V30 1348 C 131.495 4.17633 3.20108 0
M  V30 1349 O 130.521 4.87043 2.94581 0
M  V30 1350 N 131.723 3.72113 4.45547 0
M  V30 1351 H 134.488 2.962 0.456657 0
M  V30 1352 H 132.049 1.61579 0.101877 0
M  V30 1353 H 134.041 2.74027 2.97811 0
M  V30 1354 H 132.611 1.75171 2.58909 0
M  V30 1355 H 131.831 3.7729 1.1422 0
M  V30 1356 H 133.119 4.7137 1.91541 0
M  V30 1357 H 132.517 3.16062 4.69171 0
M  V30 1358 H 131.074 3.95409 5.18165 0
M  V30 1359 N 134.507 -0.190092 1.56449 0
M  V30 1360 C 135.455 -1.25501 1.95837 0
M  V30 1361 C 136.449 -1.4685 0.844485 0
M  V30 1362 O 137.655 -1.47651 1.02952 0
M  V30 1363 H 134.03 -0.421447 0.622805 0
M  V30 1364 H 136.001 -0.895821 2.84636 0
M  V30 1365 C 134.75 -2.59124 2.31841 0
M  V30 1366 H 134.073 -2.43514 3.17082 0
M  V30 1367 H 135.513 -3.32371 2.6326 0
M  V30 1368 C 133.972 -3.16488 1.15486 0
M  V30 1369 O 134.502 -3.99365 0.432535 0
M  V30 1370 N 132.708 -2.75305 0.930349 0
M  V30 1371 H 132.255 -2.08013 1.51948 0
M  V30 1372 H 132.213 -3.14024 0.153634 0
M  V30 1373 N 135.985 -1.50799 -0.457987 0
M  V30 1374 C 136.895 -1.73426 -1.57989 0
M  V30 1375 C 137.911 -0.617745 -1.62665 0
M  V30 1376 O 139.087 -0.897614 -1.80291 0
M  V30 1377 C 136.152 -1.83557 -2.94122 0
M  V30 1378 C 135.213 -3.07345 -2.99729 0
M  V30 1379 C 134.446 -3.16983 -4.29368 0
M  V30 1380 O 134.669 -2.33077 -5.20607 0
M  V30 1381 O 133.603 -4.09812 -4.40837 0
M  V30 1382 H 137.429 -2.68555 -1.41817 0
M  V30 1383 H 135.014 -1.35052 -0.638859 0
M  V30 1384 H 136.896 -1.92326 -3.74952 0
M  V30 1385 H 135.571 -0.916137 -3.10465 0
M  V30 1386 H 134.478 -3.04068 -2.1793 0
M  V30 1387 H 135.811 -3.9891 -2.88326 0
M  V30 1388 N 137.463 0.71206 -1.40597 0
M  V30 1389 C 138.411 1.84746 -1.41321 0
M  V30 1390 C 139.405 1.66842 -0.293268 0
M  V30 1391 O 140.611 1.73904 -0.464481 0
M  V30 1392 H 136.986 0.608522 -0.441819 0
M  V30 1393 H 138.957 1.81252 -2.37045 0
M  V30 1394 C 137.706 3.22638 -1.29614 0
M  V30 1395 H 137.029 3.37023 -2.15071 0
M  V30 1396 H 138.469 4.02209 -1.3418 0
M  V30 1397 C 136.928 3.36899 -0.00673121 0
M  V30 1398 O 137.458 3.90186 0.954859 0
M  V30 1399 N 135.664 2.9053 0.0639327 0
M  V30 1400 H 135.211 2.47353 -0.719311 0
M  V30 1401 H 135.169 3.0045 0.926118 0
M  V30 1402 N 138.941 1.26152 0.944643 0
M  V30 1403 C 139.851 1.09176 2.07648 0
M  V30 1404 C 140.867 0.0261935 1.7398 0
M  V30 1405 O 142.043 0.229208 2.00091 0
M  V30 1406 C 139.108 0.722915 3.39079 0
M  V30 1407 C 138.169 1.86752 3.86552 0
M  V30 1408 C 137.402 1.51617 5.11711 0
M  V30 1409 O 137.625 0.416331 5.68879 0
M  V30 1410 O 136.559 2.34975 5.54139 0
M  V30 1411 H 140.385 2.0412 2.24875 0
M  V30 1412 H 137.97 1.05182 1.061 0
M  V30 1413 H 139.852 0.529787 4.18056 0
M  V30 1414 H 138.527 -0.197159 3.23099 0
M  V30 1415 H 137.434 2.11558 3.08535 0
M  V30 1416 H 138.767 2.76719 4.07047 0
M  V30 1417 N 140.419 -1.14872 1.07899 0
M  V30 1418 C 141.644 -1.90202 0.826926 0
M  V30 1419 C 142.069 -1.77774 -0.614664 0
M  V30 1420 O 141.427 -1.11431 -1.43013 0
M  V30 1421 C 141.475 -3.38352 1.24702 0
M  V30 1422 O 140.579 -4.10497 0.39575 0
M  V30 1423 H 139.92 -0.591968 0.300782 0
M  V30 1424 H 142.45 -1.45437 1.43907 0
M  V30 1425 H 142.46 -3.89156 1.22563 0
M  V30 1426 H 141.135 -3.46715 2.29698 0
M  V30 1427 H 139.712 -3.69796 0.480117 0
M  V30 1428 N 141.898 -0.863906 -1.31812 0
M  V30 1429 C 142.83 -0.272485 -2.27575 0
M  V30 1430 C 143.843 0.56104 -1.52827 0
M  V30 1431 O 145.032 0.384021 -1.7432 0
M  V30 1432 C 142.132 0.63283 -3.32939 0
M  V30 1433 C 141.305 -0.166902 -4.37081 0
M  V30 1434 C 140.364 0.665608 -5.21973 0
M  V30 1435 O 139.39 0.0958091 -5.69119 0
M  V30 1436 N 140.592 1.9787 -5.45736 0
M  V30 1437 H 143.357 -1.0954 -2.78964 0
M  V30 1438 H 140.918 -0.724791 -1.4477 0
M  V30 1439 H 142.91 1.19532 -3.86645 0
M  V30 1440 H 141.48 1.35642 -2.81638 0
M  V30 1441 H 140.7 -0.910838 -3.83533 0
M  V30 1442 H 141.988 -0.715874 -5.03739 0
M  V30 1443 H 141.386 2.46484 -5.09178 0
M  V30 1444 H 139.943 2.48911 -6.024 0
M  V30 1445 N 143.376 1.44774 -0.622745 0
M  V30 1446 C 144.622 2.0242 -0.124083 0
M  V30 1447 C 144.955 1.4881 1.24777 0
M  V30 1448 O 144.23 0.668799 1.8264 0
M  V30 1449 C 144.513 3.59957 -0.101619 0
M  V30 1450 C 144.366 4.23867 -1.50521 0
M  V30 1451 C 145.685 4.36284 0.578272 0
M  V30 1452 H 142.804 0.735528 -0.0465645 0
M  V30 1453 H 145.446 1.72447 -0.797617 0
M  V30 1454 H 143.596 3.85623 0.471934 0
M  V30 1455 H 145.268 4.09336 -2.12701 0
M  V30 1456 H 143.511 3.81684 -2.06154 0
M  V30 1457 H 144.182 5.32843 -1.4416 0
M  V30 1458 H 146.658 4.16001 0.0906057 0
M  V30 1459 H 145.534 5.46004 0.563149 0
M  V30 1460 H 145.795 4.10271 1.64713 0
M  V30 1461 N 144.854 0.36279 1.53368 0
M  V30 1462 C 146.079 -0.231226 2.06107 0
M  V30 1463 C 146.504 -1.419 1.23474 0
M  V30 1464 O 145.862 -1.79524 0.253128 0
M  V30 1465 C 145.91 -0.605523 3.5548 0
M  V30 1466 O 145.014 -1.70312 3.7559 0
M  V30 1467 H 144.355 -0.034327 0.663112 0
M  V30 1468 H 146.885 0.522584 1.97814 0
M  V30 1469 H 146.895 -0.877314 3.98456 0
M  V30 1470 H 145.57 0.263004 4.15068 0
M  V30 1471 H 144.147 -1.4271 3.44512 0
M  V30 1472 N 146.332 -1.57332 0.0918853 0
M  V30 1473 C 147.56 -1.98574 -0.581048 0
M  V30 1474 C 147.975 -0.970903 -1.61923 0
M  V30 1475 O 147.332 0.0399054 -1.82456 0
M  V30 1476 C 147.383 -3.39872 -1.23164 0
M  V30 1477 O 147.104 -4.37469 -0.234989 0
M  V30 1478 C 148.605 -3.96099 -1.99049 0
M  V30 1479 H 145.825 -0.65261 -0.156018 0
M  V30 1480 H 148.369 -2.0379 0.170225 0
M  V30 1481 H 146.524 -3.35679 -1.93386 0
M  V30 1482 H 146.938 -5.19751 -0.70418 0
M  V30 1483 H 148.412 -4.97127 -2.39934 0
M  V30 1484 H 148.889 -3.3374 -2.85507 0
M  V30 1485 H 149.495 -4.03755 -1.3365 0
M  V30 1486 N 147.81 0.181792 -1.56548 0
M  V30 1487 C 149.087 0.926765 -1.72251 0
M  V30 1488 C 149.467 2.00831 -0.650386 0
M  V30 1489 O 148.815 2.26008 0.336521 0
M  V30 1490 C 149.025 1.50106 -3.1507 0
M  V30 1491 C 150.373 1.97805 -3.75711 0
M  V30 1492 O 151.397 1.59922 -3.18282 0
M  V30 1493 O 150.256 2.67555 -4.76525 0
M  V30 1494 H 147.35 0.435506 -0.703039 0
M  V30 1495 H 149.896 0.170443 -1.68842 0
M  V30 1496 H 148.668 0.72212 -3.84579 0
M  V30 1497 H 148.291 2.32186 -3.22763 0
M  V30 1498 N 149.288 1.51039 0.449983 0
M  V30 1499 C 150.198 1.74261 1.57067 0
M  V30 1500 C 151.214 0.626363 1.62335 0
M  V30 1501 O 152.39 0.907162 1.79812 0
M  V30 1502 C 149.455 1.85114 2.93144 0
M  V30 1503 C 148.516 3.0893 2.98095 0
M  V30 1504 C 147.749 3.19256 4.27681 0
M  V30 1505 O 147.972 2.35835 5.19363 0
M  V30 1506 O 146.906 4.12144 4.38658 0
M  V30 1507 H 150.732 2.69303 1.40391 0
M  V30 1508 H 148.317 1.35389 0.631688 0
M  V30 1509 H 150.199 1.94311 3.73926 0
M  V30 1510 H 148.874 0.932588 3.09975 0
M  V30 1511 H 147.781 3.0522 2.16314 0
M  V30 1512 H 149.114 4.00433 2.86206 0
M  V30 1513 N 150.766 -0.704594 1.40972 0
M  V30 1514 C 151.991 -1.49858 1.43378 0
M  V30 1515 C 152.416 -1.88061 0.038184 0
M  V30 1516 O 151.774 -1.5402 -0.956425 0
M  V30 1517 C 151.822 -2.74333 2.34038 0
M  V30 1518 O 150.926 -3.7147 1.7912 0
M  V30 1519 H 150.267 -0.45139 0.486974 0
M  V30 1520 H 152.797 -0.866832 1.8533 0
M  V30 1521 H 152.807 -3.22741 2.49604 0
M  V30 1522 H 151.482 -2.45863 3.35446 0
M  V30 1523 H 150.059 -3.30363 1.72958 0
M  V30 1524 N 152.244 -1.26651 -0.937939 0
M  V30 1525 C 153.154 -1.10276 -2.07066 0
M  V30 1526 C 154.17 -0.0354197 -1.73964 0
M  V30 1527 O 155.346 -0.239816 -1.99967 0
M  V30 1528 C 152.411 -0.740887 -3.38691 0
M  V30 1529 C 151.472 -1.88799 -3.85556 0
M  V30 1530 C 150.705 -1.54329 -5.10899 0
M  V30 1531 O 150.928 -0.446494 -5.6865 0
M  V30 1532 O 149.862 -2.37911 -5.52885 0
M  V30 1533 H 153.688 -2.05309 -2.23789 0
M  V30 1534 H 151.273 -1.05743 -1.0554 0
M  V30 1535 H 153.155 -0.55195 -4.1777 0
M  V30 1536 H 151.83 0.180022 -3.23199 0
M  V30 1537 H 150.737 -2.13191 -3.07409 0
M  V30 1538 H 152.07 -2.78874 -4.05574 0
M  V30 1539 N 153.722 1.14298 -1.08507 0
M  V30 1540 C 154.67 2.21483 -0.710483 0
M  V30 1541 C 155.664 1.66998 0.284234 0
M  V30 1542 O 156.87 1.79401 0.146692 0
M  V30 1543 H 153.245 0.721578 -0.211729 0
M  V30 1544 H 155.216 2.50348 -1.62384 0
M  V30 1545 C 153.965 3.4743 -0.137007 0
M  V30 1546 H 153.288 3.89686 -0.893592 0
M  V30 1547 H 154.728 4.2391 0.0872789 0
M  V30 1548 C 153.187 3.17548 1.12538 0
M  V30 1549 O 153.717 3.35437 2.21009 0
M  V30 1550 N 151.923 2.71499 1.03617 0
M  V30 1551 H 151.47 2.57143 0.153403 0
M  V30 1552 H 151.428 2.51881 1.88158 0
M  V30 1553 N 155.201 0.870884 1.31352 0
M  V30 1554 C 156.426 0.495957 2.01383 0
M  V30 1555 C 156.851 -0.904324 1.64935 0
M  V30 1556 O 156.209 -1.59687 0.858466 0
M  V30 1557 C 156.257 0.661433 3.54482 0
M  V30 1558 O 155.361 -0.298851 4.11316 0
M  V30 1559 H 154.702 0.197158 0.634054 0
M  V30 1560 H 157.232 1.17455 1.67527 0
M  V30 1561 H 157.242 0.555072 4.04207 0
M  V30 1562 H 155.917 1.68246 3.8035 0
M  V30 1563 H 154.494 -0.147368 3.72609 0
M  V30 1564 N 156.679 -1.44442 0.630414 0
M  V30 1565 C 158.095 -1.56832 0.295973 0
M  V30 1566 C 158.295 -1.61806 -1.20088 0
M  V30 1567 O 157.351 -1.5607 -1.9849 0
M  V30 1568 C 158.664 -2.84031 0.987264 0
M  V30 1569 C 160.212 -2.97742 0.96534 0
M  V30 1570 C 160.687 -4.27743 1.63708 0
M  V30 1571 N 162.178 -4.34555 1.60364 0
M  V30 1572 C 162.913 -5.33862 2.09234 0
M  V30 1573 N 162.409 -6.39578 2.66292 0
M  V30 1574 N 164.202 -5.25366 1.99867 0
M  V30 1575 H 156.353 -1.39457 1.60205 0
M  V30 1576 H 158.616 -0.668237 0.672431 0
M  V30 1577 H 158.322 -2.86338 2.04215 0
M  V30 1578 H 158.196 -3.73534 0.524588 0
M  V30 1579 H 160.583 -2.94989 -0.0810639 0
M  V30 1580 H 160.664 -2.09589 1.4665 0
M  V30 1581 H 160.308 -4.31255 2.68293 0
M  V30 1582 H 160.238 -5.14752 1.11076 0
M  V30 1583 H 162.729 -3.58772 1.18705 0
M  V30 1584 H 163.042 -7.11637 3.01317 0
M  V30 1585 H 161.387 -6.40265 2.70343 0
M  V30 1586 H 164.578 -4.41688 1.55013 0
M  V30 1587 H 164.751 -6.02606 2.38265 0
M  V30 1588 N 158.157 -0.370918 -1.53173 0
M  V30 1589 C 159.382 0.220293 -2.06227 0
M  V30 1590 C 159.807 1.41243 -1.24225 0
M  V30 1591 O 159.165 1.79387 -0.262645 0
M  V30 1592 C 159.213 0.586663 -3.55796 0
M  V30 1593 O 158.317 1.68317 -3.76488 0
M  V30 1594 H 157.658 0.0308099 -0.663285 0
M  V30 1595 H 160.188 -0.533068 -1.97534 0
M  V30 1596 H 160.198 0.85617 -3.98916 0
M  V30 1597 H 158.873 -0.285013 -4.14922 0
M  V30 1598 H 157.45 1.40881 -3.45264 0
M  V30 1599 N 159.635 1.57281 -0.100228 0
M  V30 1600 C 161.046 1.81725 0.428107 0
M  V30 1601 C 161.397 1.01619 1.67833 0
M  V30 1602 O 160.522 0.247098 2.14985 0
M  V30 1603 C 161.117 3.29617 0.78347 0
M  V30 1604 C 159.676 3.54808 1.25653 0
M  V30 1605 C 158.823 2.76118 0.255752 0
M  V30 1606 H 161.774 1.55324 -0.325608 0
M  V30 1607 H 161.795 3.4322 1.64256 0
M  V30 1608 H 161.307 3.87893 -0.12665 0
M  V30 1609 H 159.408 3.01868 2.18418 0
M  V30 1610 H 159.521 4.63443 1.21482 0
M  V30 1611 H 157.885 2.43745 0.738956 0
M  V30 1612 H 158.668 3.37145 -0.647136 0
M  V30 1613 N 161.113 -0.173488 1.56642 0
M  V30 1614 C 162.361 -0.888706 1.81512 0
M  V30 1615 C 162.682 -1.82875 0.676872 0
M  V30 1616 O 161.952 -1.93536 -0.303414 0
M  V30 1617 H 160.532 -0.331164 0.669582 0
M  V30 1618 H 163.194 -0.173823 1.94123 0
M  V30 1619 H 162.29 -1.46691 2.75478 0
M  V30 1620 N 162.591 -1.51276 -0.441967 0
M  V30 1621 C 163.539 -1.72823 -1.55676 0
M  V30 1622 C 164.533 -0.59445 -1.58627 0
M  V30 1623 O 165.739 -0.775715 -1.62427 0
M  V30 1624 H 162.114 -0.545983 -0.517113 0
M  V30 1625 H 164.085 -2.6628 -1.34675 0
M  V30 1626 C 162.834 -1.86619 -2.93375 0
M  V30 1627 H 162.157 -2.73264 -2.91834 0
M  V30 1628 H 163.597 -2.05709 -3.70756 0
M  V30 1629 C 162.056 -0.624842 -3.31055 0
M  V30 1630 O 162.586 0.222636 -4.01083 0
M  V30 1631 N 160.792 -0.470288 -2.86769 0
M  V30 1632 H 160.339 -1.161 -2.29953 0
M  V30 1633 H 160.297 0.359051 -3.12343 0
M  V30 1634 N 164.069 0.697108 -1.41344 0
M  V30 1635 C 165.016 1.81106 -1.43071 0
M  V30 1636 C 165.986 1.63632 -0.285275 0
M  V30 1637 O 167.171 1.84504 -0.486091 0
M  V30 1638 C 164.311 3.18975 -1.31715 0
M  V30 1639 C 163.424 3.47892 -2.56115 0
M  V30 1640 C 162.559 4.75367 -2.37064 0
M  V30 1641 C 161.598 4.97247 -3.56948 0
M  V30 1642 N 160.735 6.15947 -3.36977 0
M  V30 1643 H 165.575 1.78965 -2.38276 0
M  V30 1644 H 163.112 0.873975 -1.18322 0
M  V30 1645 H 165.07 3.98615 -1.23133 0
M  V30 1646 H 163.7 3.20297 -0.401183 0
M  V30 1647 H 162.752 2.62669 -2.75153 0
M  V30 1648 H 164.064 3.59962 -3.45295 0
M  V30 1649 H 163.218 5.63059 -2.25941 0
M  V30 1650 H 161.957 4.65541 -1.45338 0
M  V30 1651 H 160.962 4.08004 -3.68527 0
M  V30 1652 H 162.187 5.08934 -4.49626 0
M  V30 1653 H 160.133 6.07336 -2.47949 0
M  V30 1654 H 160.05 6.28777 -4.19732 0
M  V30 1655 H 161.318 7.06377 -3.29623 0
M  V30 1656 N 165.547 1.27147 0.931209 0
M  V30 1657 C 166.772 1.16191 1.71797 0
M  V30 1658 C 167.197 -0.278004 1.86034 0
M  V30 1659 O 166.555 -1.20137 1.35782 0
M  V30 1660 C 166.603 1.84673 3.09723 0
M  V30 1661 O 165.707 1.14231 3.96264 0
M  V30 1662 H 165.048 0.404303 0.526721 0
M  V30 1663 H 167.578 1.68152 1.1656 0
M  V30 1664 H 167.588 1.91893 3.60057 0
M  V30 1665 H 166.263 2.89421 2.98677 0
M  V30 1666 H 164.84 1.15056 3.54706 0
M  V30 1667 N 167.025 -1.13721 1.09112 0
M  V30 1668 C 168.302 -1.81155 0.737706 0
M  V30 1669 C 168.682 -1.96253 -0.777683 0
M  V30 1670 O 168.03 -1.52807 -1.69889 0
M  V30 1671 C 168.24 -3.16392 1.47299 0
M  V30 1672 C 169.588 -3.91787 1.63671 0
M  V30 1673 O 170.612 -3.26005 1.43524 0
M  V30 1674 O 169.471 -5.0977 1.96969 0
M  V30 1675 H 166.565 -0.783518 0.26463 0
M  V30 1676 H 169.111 -1.20676 1.19312 0
M  V30 1677 H 167.883 -3.0061 2.50498 0
M  V30 1678 H 167.506 -3.8457 1.00953 0
M  V30 1679 N 168.503 -0.877838 -1.30888 0
M  V30 1680 C 169.451 -0.328662 -2.30266 0
M  V30 1681 C 170.445 0.560496 -1.59859 0
M  V30 1682 O 171.651 0.445722 -1.74394 0
M  V30 1683 H 168.026 -0.0876142 -0.746879 0
M  V30 1684 H 169.997 -1.18061 -2.74051 0
M  V30 1685 C 168.746 0.448071 -3.44801 0
M  V30 1686 H 168.069 -0.226859 -3.99156 0
M  V30 1687 H 169.509 0.797541 -4.16432 0
M  V30 1688 C 167.968 1.64239 -2.94155 0
M  V30 1689 O 168.498 2.74175 -2.93583 0
M  V30 1690 N 166.704 1.47716 -2.50256 0
M  V30 1691 H 166.251 0.582821 -2.5092 0
M  V30 1692 H 166.209 2.27765 -2.16727 0
M  V30 1693 N 169.982 1.44106 -0.638065 0
M  V30 1694 C 171.231 2.01194 -0.142744 0
M  V30 1695 C 171.544 1.50835 1.24532 0
M  V30 1696 O 172.75 2.00096 1.83504 0
M  V30 1697 C 171.206 3.59319 -0.20442 0
M  V30 1698 C 170.814 4.18674 -1.59423 0
M  V30 1699 C 172.558 4.23854 0.234079 0
M  V30 1700 C 170.465 5.69045 -1.61065 0
M  V30 1701 H 169.395 0.752367 -0.0495998 0
M  V30 1702 H 172.046 1.65246 -0.797881 0
M  V30 1703 H 170.428 3.92598 0.517946 0
M  V30 1704 H 171.602 3.96921 -2.34074 0
M  V30 1705 H 169.917 3.66453 -1.97741 0
M  V30 1706 H 172.514 5.34155 0.241443 0
M  V30 1707 H 172.857 3.96688 1.2627 0
M  V30 1708 H 173.39 3.95403 -0.436025 0
M  V30 1709 H 170.129 6.00956 -2.61787 0
M  V30 1710 H 169.649 5.929 -0.90718 0
M  V30 1711 H 171.328 6.32809 -1.34766 0
M  V30 1712 N 171.46 0.379036 1.52974 0
M  V30 1713 C 172.407 -0.461048 2.26148 0
M  V30 1714 C 173.377 -1.06637 1.27349 0
M  V30 1715 O 174.562 -1.09633 1.56157 0
M  V30 1716 C 171.702 -1.58782 3.06402 0
M  V30 1717 C 170.815 -1.00636 4.20115 0
M  V30 1718 C 169.95 -2.10334 4.87784 0
M  V30 1719 C 168.989 -1.49724 5.93506 0
M  V30 1720 N 168.126 -2.5331 6.54812 0
M  V30 1721 H 172.966 0.169429 2.97518 0
M  V30 1722 H 170.503 0.0953806 1.4679 0
M  V30 1723 H 172.461 -2.25174 3.51215 0
M  V30 1724 H 171.091 -2.18876 2.37261 0
M  V30 1725 H 170.143 -0.232332 3.7969 0
M  V30 1726 H 171.455 -0.523343 4.96047 0
M  V30 1727 H 170.609 -2.84519 5.35849 0
M  V30 1728 H 169.348 -2.61992 4.11353 0
M  V30 1729 H 168.353 -0.740598 5.44789 0
M  V30 1730 H 169.578 -0.988732 6.71864 0
M  V30 1731 H 167.524 -3.04156 5.81227 0
M  V30 1732 H 167.441 -2.09734 7.26325 0
M  V30 1733 H 168.709 -3.27155 7.07524 0
M  V30 1734 N 172.938 -1.57226 0.108567 0
M  V30 1735 C 174.349 -1.8195 -0.418464 0
M  V30 1736 C 174.7 -1.02508 -1.67292 0
M  V30 1737 O 173.825 -0.258496 -2.14851 0
M  V30 1738 C 174.42 -3.30028 -0.765979 0
M  V30 1739 C 172.979 -3.55469 -1.23769 0
M  V30 1740 C 172.126 -2.7625 -0.241106 0
M  V30 1741 H 175.077 -1.55149 0.33384 0
M  V30 1742 H 175.098 -3.44086 -1.62434 0
M  V30 1743 H 174.61 -3.87821 0.147219 0
M  V30 1744 H 172.711 -3.03022 -2.16814 0
M  V30 1745 H 172.824 -4.6408 -1.19022 0
M  V30 1746 H 171.188 -2.44133 -0.72602 0
M  V30 1747 H 171.971 -3.36797 0.665007 0
M  V30 1748 N 174.416 0.165178 -1.56732 0
M  V30 1749 C 175.363 1.2044 -1.96883 0
M  V30 1750 C 176.333 1.43664 -0.833657 0
M  V30 1751 O 177.518 1.56302 -1.09427 0
M  V30 1752 C 174.658 2.53727 -2.33916 0
M  V30 1753 C 173.771 2.3783 -3.6064 0
M  V30 1754 C 172.906 3.64026 -3.86857 0
M  V30 1755 C 171.945 3.43088 -5.06909 0
M  V30 1756 N 171.082 4.61369 -5.29229 0
M  V30 1757 H 175.922 0.854996 -2.85471 0
M  V30 1758 H 173.459 0.41076 -1.41249 0
M  V30 1759 H 175.417 3.31419 -2.53411 0
M  V30 1760 H 174.047 2.8665 -1.48431 0
M  V30 1761 H 173.099 1.51282 -3.49024 0
M  V30 1762 H 174.411 2.18308 -4.4849 0
M  V30 1763 H 173.565 4.50152 -4.06753 0
M  V30 1764 H 172.304 3.86533 -2.97394 0
M  V30 1765 H 171.309 2.55349 -4.86906 0
M  V30 1766 H 172.534 3.21997 -5.97909 0
M  V30 1767 H 170.48 4.84084 -4.42718 0
M  V30 1768 H 170.397 4.44783 -6.11313 0
M  V30 1769 H 171.665 5.48761 -5.53608 0
M  V30 1770 N 175.894 1.51508 0.433938 0
M  V30 1771 C 177.119 1.68443 1.21003 0
M  V30 1772 C 177.544 0.382636 1.84167 0
M  V30 1773 O 176.902 -0.65755 1.68956 0
M  V30 1774 C 176.95 2.80405 2.26727 0
M  V30 1775 O 176.054 2.44245 3.32292 0
M  V30 1776 H 175.395 0.561536 0.354363 0
M  V30 1777 H 177.925 1.9809 0.512024 0
M  V30 1778 H 177.935 3.0459 2.71457 0
M  V30 1779 H 176.61 3.74867 1.80132 0
M  V30 1780 H 175.187 2.30644 2.93015 0
M  V30 1781 N 177.372 -0.689602 1.41712 0
M  V30 1782 C 178.335 -1.78521 1.43746 0
M  V30 1783 C 179.335 -1.57436 0.327191 0
M  V30 1784 O 180.525 -1.64 0.587348 0
M  V30 1785 C 177.657 -3.16971 1.25467 0
M  V30 1786 H 178.85 -1.78108 2.41283 0
M  V30 1787 H 176.403 -0.89781 1.27942 0
M  V30 1788 H 177.138 -3.23019 0.287948 0
M  V30 1789 H 176.923 -3.33678 2.05917 0
M  V30 1790 H 178.413 -3.96935 1.2974 0
M  V30 1791 N 178.85 -1.27639 -0.924453 0
M  V30 1792 C 180.261 -1.12834 -1.48746 0
M  V30 1793 C 180.612 0.285505 -1.94112 0
M  V30 1794 O 179.737 1.17874 -1.81479 0
M  V30 1795 C 180.332 -2.04217 -2.70334 0
M  V30 1796 C 178.891 -1.93509 -3.22848 0
M  V30 1797 C 178.038 -1.96583 -1.95577 0
M  V30 1798 H 180.989 -1.40484 -0.738233 0
M  V30 1799 H 181.01 -1.59989 -3.4523 0
M  V30 1800 H 180.522 -3.07111 -2.37285 0
M  V30 1801 H 178.623 -0.936131 -3.60649 0
M  V30 1802 H 178.736 -2.79917 -3.88823 0
M  V30 1803 H 177.1 -1.4085 -2.12211 0
M  V30 1804 H 177.883 -3.01137 -1.64837 0
M  V30 1805 N 180.328 1.1314 -1.09713 0
M  V30 1806 C 181.574 1.84967 -0.846104 0
M  V30 1807 C 181.929 1.82082 0.621601 0
M  V30 1808 O 181.222 1.2501 1.452 0
M  V30 1809 C 181.416 3.32167 -1.3191 0
M  V30 1810 C 181.245 3.49386 -2.83125 0
M  V30 1811 C 180.015 3.63456 -3.51038 0
M  V30 1812 C 182.213 3.45179 -3.81256 0
M  V30 1813 N 180.195 3.68966 -4.9065 0
M  V30 1814 C 181.566 3.57094 -5.06837 0
M  V30 1815 C 183.621 3.28598 -3.74069 0
M  V30 1816 C 182.324 3.5414 -6.26081 0
M  V30 1817 C 184.35 3.26953 -4.92804 0
M  V30 1818 C 183.712 3.39422 -6.17229 0
M  V30 1819 H 179.811 0.692899 -0.362512 0
M  V30 1820 H 182.395 1.35506 -1.39808 0
M  V30 1821 H 180.566 3.80186 -0.794535 0
M  V30 1822 H 182.298 3.91815 -1.01308 0
M  V30 1823 H 179.053 3.65256 -3.01471 0
M  V30 1824 H 179.477 3.75404 -5.63383 0
M  V30 1825 H 184.119 3.17858 -2.78794 0
M  V30 1826 H 181.837 3.63653 -7.21653 0
M  V30 1827 H 185.423 3.15316 -4.88945 0
M  V30 1828 H 184.303 3.38114 -7.07565 0
M  V30 1829 N 181.806 0.884767 1.30421 0
M  V30 1830 C 182.754 0.340869 2.30089 0
M  V30 1831 C 183.748 -0.55201 1.60154 0
M  V30 1832 O 184.954 -0.436467 1.74628 0
M  V30 1833 H 181.329 0.0915739 0.746404 0
M  V30 1834 H 183.3 1.19513 2.73421 0
M  V30 1835 C 182.049 -0.429779 3.45034 0
M  V30 1836 H 181.372 0.248024 3.9903 0
M  V30 1837 H 182.812 -0.775445 4.16849 0
M  V30 1838 C 181.271 -1.62677 2.95022 0
M  V30 1839 O 181.801 -2.72614 2.95033 0
M  V30 1840 N 180.007 -1.46387 2.51036 0
M  V30 1841 H 179.554 -0.569506 2.51226 0
M  V30 1842 H 179.512 -2.26612 2.17932 0
M  V30 1843 N 183.284 -1.43765 0.645699 0
M  V30 1844 C 184.509 -2.06767 0.161883 0
M  V30 1845 C 184.934 -1.48034 -1.16049 0
M  V30 1846 O 184.292 -0.587369 -1.71522 0
M  V30 1847 C 184.34 -3.60519 0.0762003 0
M  V30 1848 O 183.444 -4.00982 -0.963721 0
M  V30 1849 H 182.785 -0.657675 0.091429 0
M  V30 1850 H 185.315 -1.84397 0.886499 0
M  V30 1851 H 185.325 -4.07853 -0.109604 0
M  V30 1852 H 184 -4.02646 1.04157 0
M  V30 1853 H 182.577 -3.65253 -0.751312 0
M  V30 1854 N 184.763 -0.387143 -1.52771 0
M  V30 1855 C 186.01 0.195735 -2.01552 0
M  V30 1856 C 186.338 1.46995 -1.27369 0
M  V30 1857 O 185.593 1.92325 -0.361879 0
M  V30 1858 C 185.892 0.512209 -3.53711 0
M  V30 1859 C 185.558 -0.670202 -4.45891 0
M  V30 1860 C 184.22 -0.994586 -4.70809 0
M  V30 1861 C 186.572 -1.46134 -5.00294 0
M  V30 1862 C 183.9 -2.11169 -5.4738 0
M  V30 1863 C 186.252 -2.56903 -5.78086 0
M  V30 1864 C 184.916 -2.89852 -6.01284 0
M  V30 1865 H 184.186 0.0716246 -0.73753 0
M  V30 1866 H 186.833 -0.524046 -1.8419 0
M  V30 1867 H 185.138 1.31329 -3.69134 0
M  V30 1868 H 186.835 0.975804 -3.88946 0
M  V30 1869 H 183.425 -0.407366 -4.2666 0
M  V30 1870 H 187.609 -1.22397 -4.80971 0
M  V30 1871 H 182.865 -2.3707 -5.63567 0
M  V30 1872 H 187.039 -3.18608 -6.19243 0
M  V30 1873 H 184.666 -3.76533 -6.60399 0
M  V30 1874 N 186.241 1.57166 -0.116904 0
M  V30 1875 C 187.171 2.18222 0.830759 0
M  V30 1876 C 188.152 1.12167 1.27877 0
M  V30 1877 O 189.337 1.40394 1.34176 0
M  V30 1878 C 186.467 2.77996 2.08172 0
M  V30 1879 C 185.421 3.89614 1.77157 0
M  V30 1880 C 184.747 4.36187 3.09265 0
M  V30 1881 C 186.047 5.1181 1.04151 0
M  V30 1882 H 187.741 2.97664 0.321992 0
M  V30 1883 H 185.287 1.4318 0.153434 0
M  V30 1884 H 187.24 3.19366 2.74924 0
M  V30 1885 H 185.964 1.9584 2.6137 0
M  V30 1886 H 184.623 3.48816 1.12796 0
M  V30 1887 H 184.271 3.50893 3.60393 0
M  V30 1888 H 183.971 5.11455 2.89288 0
M  V30 1889 H 185.495 4.80207 3.77139 0
M  V30 1890 H 186.909 5.50214 1.61052 0
M  V30 1891 H 185.306 5.92648 0.942762 0
M  V30 1892 H 186.376 4.84892 0.0279022 0
M  V30 1893 N 187.719 -0.156864 1.56817 0
M  V30 1894 C 189.13 -0.717916 1.72345 0
M  V30 1895 C 189.481 -1.82124 0.729747 0
M  V30 1896 O 188.606 -2.16141 -0.105781 0
M  V30 1897 C 189.201 -1.30904 3.12489 0
M  V30 1898 C 187.76 -1.81676 3.29653 0
M  V30 1899 C 186.907 -0.701349 2.68284 0
M  V30 1900 H 189.858 0.0686989 1.58551 0
M  V30 1901 H 189.879 -2.17882 3.11942 0
M  V30 1902 H 189.391 -0.505796 3.8479 0
M  V30 1903 H 187.492 -2.64598 2.62333 0
M  V30 1904 H 187.605 -1.95226 4.3752 0
M  V30 1905 H 185.969 -1.12548 2.28484 0
M  V30 1906 H 186.752 0.0902846 3.43181 0
M  V30 1907 N 189.197 -1.51736 -0.425897 0
M  V30 1908 C 190.608 -1.5732 -1.00536 0
M  V30 1909 C 190.959 -0.403537 -1.92005 0
M  V30 1910 O 190.084 0.478256 -2.11049 0
M  V30 1911 C 190.679 -2.85119 -1.8301 0
M  V30 1912 C 189.238 -2.93236 -2.35987 0
M  V30 1913 C 188.385 -2.52098 -1.15508 0
M  V30 1914 H 191.336 -1.57348 -0.206739 0
M  V30 1915 H 191.357 -2.69526 -2.68581 0
M  V30 1916 H 190.869 -3.7023 -1.16411 0
M  V30 1917 H 188.97 -2.12581 -3.06007 0
M  V30 1918 H 189.083 -3.9713 -2.68001 0
M  V30 1919 H 187.447 -2.05558 -1.50393 0
M  V30 1920 H 188.23 -3.39565 -0.505014 0
M  V30 1921 N 190.675 0.682077 -1.42076 0
M  V30 1922 C 192.086 1.26246 -1.37546 0
M  V30 1923 C 192.437 1.96092 -0.0651481 0
M  V30 1924 O 191.562 1.99587 0.836297 0
M  V30 1925 C 192.157 2.29594 -2.49143 0
M  V30 1926 C 190.716 2.83175 -2.47969 0
M  V30 1927 C 189.863 1.57395 -2.28303 0
M  V30 1928 H 192.814 0.475937 -1.51395 0
M  V30 1929 H 192.835 3.11175 -2.18976 0
M  V30 1930 H 192.347 1.78729 -3.44496 0
M  V30 1931 H 190.448 3.3818 -1.56413 0
M  V30 1932 H 190.561 3.32687 -3.44755 0
M  V30 1933 H 188.925 1.83699 -1.76428 0
M  V30 1934 H 189.708 1.08507 -3.25701 0
M  V30 1935 N 192.153 1.28127 0.917671 0
M  V30 1936 C 193.564 1.13622 1.48145 0
M  V30 1937 C 193.915 -0.275207 1.9426 0
M  V30 1938 O 193.04 -1.1691 1.82102 0
M  V30 1939 C 193.635 2.05648 2.69248 0
M  V30 1940 C 192.194 1.95219 3.21818 0
M  V30 1941 C 191.341 1.97618 1.94532 0
M  V30 1942 H 194.292 1.40874 0.730772 0
M  V30 1943 H 194.313 1.61818 3.44377 0
M  V30 1944 H 193.825 3.08365 2.35653 0
M  V30 1945 H 191.926 0.955244 3.60147 0
M  V30 1946 H 192.039 2.81976 3.87333 0
M  V30 1947 H 190.403 1.41973 2.11461 0
M  V30 1948 H 191.186 3.02007 1.63238 0
M  V30 1949 N 193.631 -1.12557 1.10312 0
M  V30 1950 C 195.042 -1.65574 0.862678 0
M  V30 1951 C 195.393 -1.86566 -0.607256 0
M  V30 1952 O 194.518 -1.59121 -1.46662 0
M  V30 1953 C 195.113 -3.00776 1.55947 0
M  V30 1954 C 193.672 -3.50748 1.36576 0
M  V30 1955 C 192.819 -2.25797 1.60968 0
M  V30 1956 H 195.77 -0.963552 1.26101 0
M  V30 1957 H 195.791 -3.67185 0.997753 0
M  V30 1958 H 195.303 -2.85465 2.62928 0
M  V30 1959 H 193.404 -3.71245 0.317531 0
M  V30 1960 H 193.517 -4.30289 2.10686 0
M  V30 1961 H 191.881 -2.32841 1.03234 0
M  V30 1962 H 192.664 -2.13043 2.69198 0
M  V30 1963 N 195.109 -0.891671 -1.2995 0
M  V30 1964 C 196.042 -0.307994 -2.26112 0
M  V30 1965 C 197.02 0.575262 -1.52084 0
M  V30 1966 O 198.204 0.523864 -1.81074 0
M  V30 1967 C 195.331 0.561734 -3.34009 0
M  V30 1968 C 194.377 -0.253107 -4.25748 0
M  V30 1969 S 195.21 -1.64572 -5.09584 0
M  V30 1970 C 196.366 -0.782699 -6.20987 0
M  V30 1971 H 196.599 -1.12309 -2.75271 0
M  V30 1972 H 194.132 -0.691509 -1.38049 0
M  V30 1973 H 196.09 1.05777 -3.96638 0
M  V30 1974 H 194.751 1.35099 -2.83561 0
M  V30 1975 H 193.944 0.410908 -5.02322 0
M  V30 1976 H 193.546 -0.682004 -3.67729 0
M  V30 1977 H 195.838 -0.00257476 -6.775 0
M  V30 1978 H 196.781 -1.52026 -6.91588 0
M  V30 1979 H 197.189 -0.340638 -5.63471 0
M  V30 1980 N 196.587 1.43421 -0.653314 0
M  V30 1981 C 197.998 1.85065 -0.246537 0
M  V30 1982 C 198.349 1.54688 1.2069 0
M  V30 1983 O 197.474 0.995896 1.92122 0
M  V30 1984 C 198.069 3.35922 -0.440666 0
M  V30 1985 C 196.628 3.76297 -0.0882064 0
M  V30 1986 C 195.775 2.67147 -0.743484 0
M  V30 1987 H 198.726 1.33572 -0.856979 0
M  V30 1988 H 198.747 3.79204 0.313798 0
M  V30 1989 H 198.259 3.58 -1.49858 0
M  V30 1990 H 196.36 3.5983 0.96711 0
M  V30 1991 H 196.473 4.76338 -0.513738 0
M  V30 1992 H 194.837 2.54086 -0.176712 0
M  V30 1993 H 195.62 2.92053 -1.80443 0
M  V30 1994 N 198.065 0.39524 1.52563 0
M  V30 1995 C 199.313 -0.184678 2.01254 0
M  V30 1996 C 199.634 -1.46822 1.28329 0
M  V30 1997 O 198.904 -1.91666 0.405094 0
M  V30 1998 H 197.484 -0.0712355 0.743596 0
M  V30 1999 H 200.146 0.528293 1.87603 0
M  V30 2000 H 199.242 -0.390681 3.09645 0
M  V30 2001 N 199.544 -1.57102 0.125237 0
M  V30 2002 C 200.955 -1.82384 -0.399142 0
M  V30 2003 C 201.306 -1.04276 -1.66195 0
M  V30 2004 O 200.431 -0.281269 -2.14564 0
M  V30 2005 C 201.026 -3.30821 -0.730932 0
M  V30 2006 C 199.585 -3.56762 -1.19992 0
M  V30 2007 C 198.732 -2.7649 -0.211792 0
M  V30 2008 H 201.683 -1.54786 0.350277 0
M  V30 2009 H 201.704 -3.4579 -1.58775 0
M  V30 2010 H 201.216 -3.87643 0.188345 0
M  V30 2011 H 199.317 -3.05305 -2.13588 0
M  V30 2012 H 199.43 -4.65317 -1.14093 0
M  V30 2013 H 197.794 -2.4489 -0.700085 0
M  V30 2014 H 198.577 -3.36073 0.700691 0
M  V30 2015 N 201.022 0.148545 -1.56898 0
M  V30 2016 C 202.438 0.501131 -1.51528 0
M  V30 2017 C 202.638 1.83458 -0.833399 0
M  V30 2018 O 201.694 2.49259 -0.40328 0
M  V30 2019 C 203.007 0.512864 -2.96294 0
M  V30 2020 C 204.555 0.598487 -3.07225 0
M  V30 2021 C 205.03 0.640897 -4.53494 0
M  V30 2022 N 206.521 0.703163 -4.57832 0
M  V30 2023 C 207.256 0.756935 -5.68382 0
M  V30 2024 N 206.752 0.770147 -6.88506 0
M  V30 2025 N 208.545 0.797698 -5.56411 0
M  V30 2026 H 200.696 -0.725532 -1.99624 0
M  V30 2027 H 202.959 -0.264358 -0.910395 0
M  V30 2028 H 202.665 -0.398691 -3.49433 0
M  V30 2029 H 202.539 1.35133 -3.52163 0
M  V30 2030 H 204.926 1.50046 -2.54106 0
M  V30 2031 H 205.007 -0.267093 -2.54402 0
M  V30 2032 H 204.651 -0.256915 -5.0725 0
M  V30 2033 H 204.581 1.52295 -5.04097 0
M  V30 2034 H 207.072 0.700314 -3.71354 0
M  V30 2035 H 207.385 0.812983 -7.68512 0
M  V30 2036 H 205.73 0.738049 -6.9107 0
M  V30 2037 H 208.921 0.784535 -4.61479 0
M  V30 2038 H 209.094 0.83614 -6.42583 0
M  V30 2039 N 202.5 1.5196 0.417844 0
M  V30 2040 C 203.43 1.77634 1.51554 0
M  V30 2041 C 204.411 0.626918 1.58126 0
M  V30 2042 O 205.596 0.871632 1.7354 0
M  V30 2043 C 202.726 1.91911 2.8946 0
M  V30 2044 C 201.68 3.07463 2.97743 0
M  V30 2045 C 201.006 3.06951 4.37819 0
M  V30 2046 C 202.306 4.47082 2.70027 0
M  V30 2047 H 204 2.6955 1.3032 0
M  V30 2048 H 201.546 1.29706 0.625492 0
M  V30 2049 H 203.499 2.08455 3.6623 0
M  V30 2050 H 202.223 0.966598 3.11969 0
M  V30 2051 H 200.882 2.90656 2.23416 0
M  V30 2052 H 200.53 2.09438 4.57323 0
M  V30 2053 H 200.23 3.84556 4.44286 0
M  V30 2054 H 201.754 3.25613 5.16535 0
M  V30 2055 H 203.168 4.6414 3.36522 0
M  V30 2056 H 201.565 5.2654 2.87881 0
M  V30 2057 H 202.635 4.55777 1.65514 0
M  V30 2058 N 203.978 -0.674533 1.42435 0
M  V30 2059 C 205.226 -1.43175 1.42637 0
M  V30 2060 C 205.547 -1.94951 0.0438992 0
M  V30 2061 O 204.817 -1.7308 -0.917607 0
M  V30 2062 H 203.397 -0.531307 0.525092 0
M  V30 2063 H 206.059 -0.797006 1.77859 0
M  V30 2064 H 205.155 -2.28463 2.12629 0
M  V30 2065 N 205.456 -1.28612 -0.910864 0
M  V30 2066 C 206.867 -1.14406 -1.47541 0
M  V30 2067 C 207.218 0.264901 -1.94403 0
M  V30 2068 O 206.343 1.15942 -1.82719 0
M  V30 2069 C 206.938 -2.07073 -2.68153 0
M  V30 2070 C 205.497 -1.96923 -3.20778 0
M  V30 2071 C 204.644 -1.98646 -1.93481 0
M  V30 2072 H 207.595 -1.41259 -0.723291 0
M  V30 2073 H 207.616 -1.63642 -3.43514 0
M  V30 2074 H 207.128 -3.09611 -2.34015 0
M  V30 2075 H 205.229 -0.97433 -3.59635 0
M  V30 2076 H 205.342 -2.84026 -3.85832 0
M  V30 2077 H 203.706 -1.43093 -2.10705 0
M  V30 2078 H 204.489 -3.02868 -1.61634 0
M  V30 2079 N 206.934 1.1197 -1.10907 0
M  V30 2080 C 208.182 1.83225 -0.852819 0
M  V30 2081 C 208.503 1.84769 0.623341 0
M  V30 2082 O 207.773 1.3143 1.45269 0
M  V30 2083 H 206.353 0.67849 -0.312507 0
M  V30 2084 H 209.015 1.3556 -1.40033 0
M  V30 2085 H 208.111 2.87265 -1.22005 0
M  V30 2086 N 208.412 0.89855 1.29475 0
M  V30 2087 C 209.359 0.373819 2.27753 0
M  V30 2088 C 210.329 -0.543444 1.56958 0
M  V30 2089 O 211.514 -0.468934 1.84948 0
M  V30 2090 C 208.654 -0.393648 3.42848 0
M  V30 2091 C 207.767 0.554379 4.28428 0
M  V30 2092 C 206.902 -0.230026 5.30702 0
M  V30 2093 C 205.941 0.712599 6.07938 0
M  V30 2094 N 205.078 -0.0373283 7.0209 0
M  V30 2095 H 209.918 1.21699 2.72017 0
M  V30 2096 H 207.455 0.611456 1.33789 0
M  V30 2097 H 209.413 -0.85466 4.08352 0
M  V30 2098 H 208.043 -1.20128 2.99615 0
M  V30 2099 H 207.095 1.13391 3.63107 0
M  V30 2100 H 208.407 1.27597 4.82204 0
M  V30 2101 H 207.561 -0.752288 6.02018 0
M  V30 2102 H 206.3 -0.984758 4.77654 0
M  V30 2103 H 205.305 1.24637 5.35486 0
M  V30 2104 H 206.53 1.46664 6.63074 0
M  V30 2105 H 204.476 -0.774348 6.51414 0
M  V30 2106 H 204.393 0.624374 7.53417 0
M  V30 2107 H 205.661 -0.539891 7.77628 0
M  V30 2108 N 209.89 -1.43072 0.660911 0
M  V30 2109 C 211.301 -1.84932 0.256348 0
M  V30 2110 C 211.652 -1.55325 -1.19868 0
M  V30 2111 O 210.777 -1.00607 -1.91591 0
M  V30 2112 C 211.372 -3.35684 0.458475 0
M  V30 2113 C 209.931 -3.76245 0.108161 0
M  V30 2114 C 209.078 -2.66749 0.757641 0
M  V30 2115 H 212.029 -1.33116 0.864051 0
M  V30 2116 H 212.05 -3.79365 -0.293683 0
M  V30 2117 H 211.562 -3.572 1.51755 0
M  V30 2118 H 209.663 -3.60338 -0.948014 0
M  V30 2119 H 209.776 -4.76058 0.538992 0
M  V30 2120 H 208.14 -2.53989 0.190185 0
M  V30 2121 H 208.923 -2.91092 1.81989 0
M  V30 2122 N 211.368 -0.403325 -1.52352 0
M  V30 2123 C 212.616 0.174003 -2.0135 0
M  V30 2124 C 212.937 1.46139 -1.29106 0
M  V30 2125 O 212.207 1.91448 -0.415253 0
M  V30 2126 H 210.787 0.0672911 -0.743963 0
M  V30 2127 H 213.449 -0.538235 -1.87321 0
M  V30 2128 H 212.545 0.374254 -3.09848 0
M  V30 2129 N 212.846 1.57033 -0.133567 0
M  V30 2130 C 213.776 2.1909 0.807567 0
M  V30 2131 C 214.757 1.13517 1.26681 0
M  V30 2132 O 215.942 1.41809 1.32679 0
M  V30 2133 C 213.072 2.80188 2.05212 0
M  V30 2134 C 212.026 3.91471 1.73015 0
M  V30 2135 C 211.352 4.39443 3.04622 0
M  V30 2136 C 212.652 5.12886 0.987168 0
M  V30 2137 H 214.346 2.97988 0.290403 0
M  V30 2138 H 211.892 1.43335 0.138239 0
M  V30 2139 H 213.845 3.22264 2.71521 0
M  V30 2140 H 212.569 1.98601 2.59278 0
M  V30 2141 H 211.228 3.49993 1.0909 0
M  V30 2142 H 210.876 3.54695 3.56651 0
M  V30 2143 H 210.576 5.14495 2.83847 0
M  V30 2144 H 212.1 4.8418 3.72024 0
M  V30 2145 H 213.514 5.51891 1.55208 0
M  V30 2146 H 211.911 5.93615 0.87985 0
M  V30 2147 H 212.981 4.84894 -0.0235286 0
M  V30 2148 N 214.325 -0.140222 1.56975 0
M  V30 2149 C 215.272 -1.17292 1.98774 0
M  V30 2150 C 216.242 -1.4232 0.856408 0
M  V30 2151 O 217.427 -1.54541 1.119 0
M  V30 2152 C 214.567 -2.49973 2.37923 0
M  V30 2153 C 213.68 -2.32062 3.64378 0
M  V30 2154 C 212.815 -3.57825 3.926 0
M  V30 2155 C 211.854 -3.3498 5.12303 0
M  V30 2156 N 210.991 -4.52891 5.36502 0
M  V30 2157 H 215.831 -0.809472 2.86795 0
M  V30 2158 H 213.368 -0.388237 1.41884 0
M  V30 2159 H 215.326 -3.27346 2.58652 0
M  V30 2160 H 213.956 -2.84252 1.52972 0
M  V30 2161 H 213.008 -1.45711 3.51387 0
M  V30 2162 H 214.32 -2.11145 4.51906 0
M  V30 2163 H 213.474 -4.43624 4.13863 0
M  V30 2164 H 212.213 -3.81753 3.03506 0
M  V30 2165 H 211.218 -2.4757 4.90906 0
M  V30 2166 H 212.443 -3.12444 6.02956 0
M  V30 2167 H 210.389 -4.76979 4.50363 0
M  V30 2168 H 210.306 -4.35001 6.18312 0
M  V30 2169 H 211.574 -5.39884 5.62268 0
M  V30 2170 N 215.803 -1.52179 -0.40978 0
M  V30 2171 C 217.05 -1.66206 -1.15679 0
M  V30 2172 C 217.378 -0.391674 -1.90516 0
M  V30 2173 O 216.633 0.62533 -1.8544 0
M  V30 2174 C 216.932 -2.83428 -2.17723 0
M  V30 2175 C 216.598 -4.21672 -1.59699 0
M  V30 2176 C 215.26 -4.59274 -1.43599 0
M  V30 2177 C 217.612 -5.07825 -1.17317 0
M  V30 2178 C 214.94 -5.80709 -0.836328 0
M  V30 2179 C 217.292 -6.29864 -0.587691 0
M  V30 2180 C 215.956 -6.66216 -0.413818 0
M  V30 2181 H 215.226 -0.608192 -0.423301 0
M  V30 2182 H 217.873 -1.86279 -0.444097 0
M  V30 2183 H 216.178 -2.57687 -2.95135 0
M  V30 2184 H 217.875 -2.91477 -2.75394 0
M  V30 2185 H 214.465 -3.9204 -1.73213 0
M  V30 2186 H 218.649 -4.79359 -1.28565 0
M  V30 2187 H 213.905 -6.07498 -0.689626 0
M  V30 2188 H 218.079 -6.95948 -0.250894 0
M  V30 2189 H 215.706 -7.60182 0.0529471 0
M  V30 2190 N 217.281 0.66697 -1.42791 0
M  V30 2191 C 218.229 1.80157 -1.47127 0
M  V30 2192 C 219.223 1.65825 -0.346199 0
M  V30 2193 O 220.429 1.72338 -0.519572 0
M  V30 2194 H 216.804 0.594158 -0.460956 0
M  V30 2195 H 218.775 1.73619 -2.42692 0
M  V30 2196 C 217.524 3.18351 -1.39813 0
M  V30 2197 H 216.847 3.3001 -2.25684 0
M  V30 2198 H 218.287 3.97736 -1.46908 0
M  V30 2199 C 216.746 3.36707 -0.11391 0
M  V30 2200 O 217.276 3.93027 0.830241 0
M  V30 2201 N 215.482 2.90586 -0.0285295 0
M  V30 2202 H 215.029 2.4494 -0.79764 0
M  V30 2203 H 214.987 3.03245 0.830063 0
M  V30 2204 N 218.759 1.29093 0.90403 0
M  V30 2205 C 220.007 1.16583 1.65085 0
M  V30 2206 C 220.328 -0.283933 1.92922 0
M  V30 2207 O 219.598 -1.19509 1.55224 0
M  V30 2208 H 218.178 0.428467 0.611903 0
M  V30 2209 H 220.84 1.61959 1.08422 0
M  V30 2210 H 219.936 1.71266 2.6091 0
M  V30 2211 N 220.237 -1.11381 1.11499 0
M  V30 2212 C 221.648 -1.6465 0.880191 0
M  V30 2213 C 221.999 -1.87199 -0.587434 0
M  V30 2214 O 221.124 -1.60667 -1.44966 0
M  V30 2215 C 221.719 -2.99105 1.59128 0
M  V30 2216 C 220.278 -3.49279 1.40289 0
M  V30 2217 C 219.425 -2.24077 1.63354 0
M  V30 2218 H 222.376 -0.950123 1.27116 0
M  V30 2219 H 222.397 -3.66107 1.03664 0
M  V30 2220 H 221.909 -2.82661 2.65941 0
M  V30 2221 H 220.01 -3.70887 0.356888 0
M  V30 2222 H 220.123 -4.2803 2.15238 0
M  V30 2223 H 218.487 -2.31733 1.05698 0
M  V30 2224 H 219.27 -2.10175 2.71443 0
M  V30 2225 N 221.715 -0.905404 -1.28997 0
M  V30 2226 C 223.126 -0.581953 -1.77398 0
M  V30 2227 C 223.477 0.902552 -1.74208 0
M  V30 2228 O 222.602 1.70584 -1.33154 0
M  V30 2229 C 223.197 -1.04961 -3.22131 0
M  V30 2230 C 221.756 -0.777229 -3.68288 0
M  V30 2231 C 220.903 -1.22109 -2.48967 0
M  V30 2232 H 223.854 -1.08754 -1.15578 0
M  V30 2233 H 223.875 -0.387387 -3.78523 0
M  V30 2234 H 223.387 -2.13008 -3.24421 0
M  V30 2235 H 221.488 0.290383 -3.71467 0
M  V30 2236 H 221.601 -1.37911 -4.58822 0
M  V30 2237 H 219.965 -0.639971 -2.46529 0
M  V30 2238 H 220.748 -2.30972 -2.53982 0
M  V30 2239 N 223.193 1.4272 -0.668489 0
M  V30 2240 C 224.604 1.84793 -0.266151 0
M  V30 2241 C 224.955 1.55959 1.19043 0
M  V30 2242 O 224.08 1.01622 1.91055 0
M  V30 2243 C 224.675 3.35436 -0.476271 0
M  V30 2244 C 223.234 3.76182 -0.128113 0
M  V30 2245 C 222.381 2.66344 -0.771777 0
M  V30 2246 H 225.332 1.32656 -0.871098 0
M  V30 2247 H 225.353 3.79515 0.273561 0
M  V30 2248 H 224.865 3.5639 -1.53647 0
M  V30 2249 H 222.966 3.60836 0.928891 0
M  V30 2250 H 223.079 4.75766 -0.564231 0
M  V30 2251 H 221.443 2.53885 -0.203652 0
M  V30 2252 H 222.226 2.90123 -1.83531 0
M  V30 2253 N 224.671 0.411399 1.52136 0
M  V30 2254 C 226.082 -0.0576826 1.86611 0
M  V30 2255 C 226.433 -1.44238 1.33003 0
M  V30 2256 O 225.558 -2.05759 0.670228 0
M  V30 2257 C 226.153 -0.111448 3.38617 0
M  V30 2258 C 224.712 -0.52487 3.72723 0
M  V30 2259 C 223.859 0.299176 2.75681 0
M  V30 2260 H 226.81 0.628368 1.4573 0
M  V30 2261 H 226.831 -0.926252 3.69054 0
M  V30 2262 H 226.343 0.896488 3.77604 0
M  V30 2263 H 224.444 -1.53936 3.39315 0
M  V30 2264 H 224.557 -0.267681 4.78352 0
M  V30 2265 H 222.921 -0.238814 2.53578 0
M  V30 2266 H 223.704 1.3055 3.17508 0
M  V30 2267 N 226.149 -1.5696 0.141893 0
M  V30 2268 C 227.56 -1.82797 -0.379776 0
M  V30 2269 C 227.911 -1.06033 -1.6508 0
M  V30 2270 O 227.036 -0.304011 -2.14254 0
M  V30 2271 C 227.631 -3.31578 -0.695802 0
M  V30 2272 C 226.19 -3.58014 -1.16201 0
M  V30 2273 C 225.337 -2.76699 -0.182455 0
M  V30 2274 H 228.288 -1.54406 0.366675 0
M  V30 2275 H 228.309 -3.47454 -1.55099 0
M  V30 2276 H 227.821 -3.87421 0.229449 0
M  V30 2277 H 225.922 -3.07553 -2.10338 0
M  V30 2278 H 226.035 -4.66501 -1.09151 0
M  V30 2279 H 224.399 -2.45618 -0.674072 0
M  V30 2280 H 225.182 -3.35311 0.736297 0
M  V30 2281 N 227.627 0.131896 -1.57047 0
M  V30 2282 C 229.038 0.690407 -1.73465 0
M  V30 2283 C 229.389 1.8094 -0.758629 0
M  V30 2284 O 228.514 2.16282 0.0713813 0
M  V30 2285 C 229.109 1.25916 -3.14532 0
M  V30 2286 C 227.668 1.76409 -3.32501 0
M  V30 2287 C 226.815 0.658579 -2.69366 0
M  V30 2288 H 229.766 -0.0939144 -1.58422 0
M  V30 2289 H 229.787 2.12892 -3.15369 0
M  V30 2290 H 229.299 0.444515 -3.85546 0
M  V30 2291 H 227.4 2.60391 -2.66509 0
M  V30 2292 H 227.513 1.88241 -4.4057 0
M  V30 2293 H 225.877 1.08899 -2.30246 0
M  V30 2294 H 226.66 -0.14487 -3.42994 0
M  V30 2295 N 229.106 1.52395 0.401703 0
M  V30 2296 C 230.517 1.58899 0.980202 0
M  V30 2297 C 230.868 0.434032 1.91339 0
M  V30 2298 O 229.993 -0.444619 2.11783 0
M  V30 2299 C 230.588 2.87994 1.78451 0
M  V30 2300 C 229.147 2.96953 2.31292 0
M  V30 2301 C 228.294 2.53903 1.11483 0
M  V30 2302 H 231.245 1.57657 0.18168 0
M  V30 2303 H 231.266 2.73765 2.64259 0
M  V30 2304 H 230.778 3.72035 1.10506 0
M  V30 2305 H 228.879 2.17422 3.02586 0
M  V30 2306 H 228.992 4.01344 2.61649 0
M  V30 2307 H 227.356 2.07925 1.47104 0
M  V30 2308 H 228.139 3.40326 0.450928 0
M  V30 2309 N 230.584 -0.659388 1.43143 0
M  V30 2310 C 231.995 -1.24041 1.39537 0
M  V30 2311 C 232.346 -1.95963 0.0963364 0
M  V30 2312 O 231.471 -2.00892 -0.804438 0
M  V30 2313 C 232.066 -2.25601 2.52764 0
M  V30 2314 C 230.625 -2.79195 2.52443 0
M  V30 2315 C 229.772 -1.53743 2.30778 0
M  V30 2316 H 232.723 -0.451792 1.52133 0
M  V30 2317 H 232.744 -3.07651 2.23899 0
M  V30 2318 H 232.256 -1.73226 3.47296 0
M  V30 2319 H 230.357 -3.35649 1.61773 0
M  V30 2320 H 230.47 -3.2716 3.50004 0
M  V30 2321 H 228.834 -1.80869 1.79328 0
M  V30 2322 H 229.617 -1.03312 3.27386 0
M  V30 2323 N 232.062 -1.29571 -0.897171 0
M  V30 2324 C 233.473 -1.15964 -1.46319 0
M  V30 2325 C 233.824 0.244267 -1.94674 0
M  V30 2326 O 232.949 1.13998 -1.83939 0
M  V30 2327 C 233.544 -2.09906 -2.65942 0
M  V30 2328 C 232.103 -2.00314 -3.18671 0
M  V30 2329 C 231.25 -2.00687 -1.91363 0
M  V30 2330 H 234.201 -1.42019 -0.708268 0
M  V30 2331 H 234.222 -1.67276 -3.41759 0
M  V30 2332 H 233.734 -3.12075 -2.30718 0
M  V30 2333 H 231.835 -1.01242 -3.58582 0
M  V30 2334 H 231.948 -2.88102 -3.82798 0
M  V30 2335 H 230.312 -1.45319 -2.09175 0
M  V30 2336 H 231.095 -3.04566 -1.58413 0
M  V30 2337 N 233.54 1.10788 -1.12088 0
M  V30 2338 C 234.951 1.64181 -0.88891 0
M  V30 2339 C 235.302 1.87508 0.577498 0
M  V30 2340 O 234.427 1.61434 1.44112 0
M  V30 2341 C 235.022 2.98257 -1.60712 0
M  V30 2342 C 233.581 3.4853 -1.42139 0
M  V30 2343 C 232.728 2.23208 -1.6454 0
M  V30 2344 H 235.679 0.943368 -1.27618 0
M  V30 2345 H 235.7 3.65552 -1.05604 0
M  V30 2346 H 235.212 2.81246 -2.67436 0
M  V30 2347 H 233.313 3.70692 -0.376552 0
M  V30 2348 H 233.426 4.26882 -2.17505 0
M  V30 2349 H 231.79 2.31169 -1.06925 0
M  V30 2350 H 232.573 2.08733 -2.72554 0
M  V30 2351 N 235.018 0.912232 1.28515 0
M  V30 2352 C 235.968 0.370649 2.24967 0
M  V30 2353 C 236.952 -0.516375 1.52389 0
M  V30 2354 O 238.144 -0.356345 1.73376 0
M  V30 2355 C 235.273 -0.389526 3.41083 0
M  V30 2356 C 234.359 0.51313 4.20984 0
M  V30 2357 N 234.75 1.62604 4.78951 0
M  V30 2358 C 233.048 0.313235 4.44899 0
M  V30 2359 C 233.749 2.18619 5.39055 0
M  V30 2360 N 232.725 1.47765 5.23132 0
M  V30 2361 H 236.527 1.22061 2.67354 0
M  V30 2362 H 234.041 0.764712 1.43269 0
M  V30 2363 H 236.038 -0.794353 4.09262 0
M  V30 2364 H 234.698 -1.2366 3.0023 0
M  V30 2365 H 235.709 2.00864 4.77362 0
M  V30 2366 H 232.386 -0.494452 4.14562 0
M  V30 2367 H 233.776 3.12228 5.94948 0
M  V30 2368 N 236.496 -1.42363 0.676048 0
M  V30 2369 C 237.426 -2.33497 0.0124832 0
M  V30 2370 C 238.407 -1.50748 -0.787981 0
M  V30 2371 O 239.592 -1.79346 -0.744884 0
M  V30 2372 C 236.722 -3.34377 -0.938582 0
M  V30 2373 C 235.676 -4.27289 -0.246622 0
M  V30 2374 C 235.002 -5.18386 -1.31071 0
M  V30 2375 C 236.302 -5.14916 0.875125 0
M  V30 2376 H 237.996 -2.89233 0.773593 0
M  V30 2377 H 235.542 -1.39073 0.37346 0
M  V30 2378 H 237.495 -3.97044 -1.41188 0
M  V30 2379 H 236.219 -2.76947 -1.73113 0
M  V30 2380 H 234.878 -3.66018 0.206456 0
M  V30 2381 H 234.526 -4.57282 -2.09528 0
M  V30 2382 H 234.226 -5.81378 -0.852839 0
M  V30 2383 H 235.75 -5.83929 -1.78492 0
M  V30 2384 H 237.164 -5.71262 0.482983 0
M  V30 2385 H 235.561 -5.86747 1.25887 0
M  V30 2386 H 236.631 -4.53242 1.72335 0
M  V30 2387 N 237.974 -0.419461 -1.51915 0
M  V30 2388 C 238.904 0.391813 -2.30189 0
M  V30 2389 C 239.885 1.03699 -1.34836 0
M  V30 2390 O 241.07 1.04403 -1.63748 0
M  V30 2391 C 238.2 1.50312 -3.13087 0
M  V30 2392 C 237.154 0.9824 -4.16573 0
M  V30 2393 C 236.48 2.18809 -4.8788 0
M  V30 2394 C 237.78 0.0292356 -5.22292 0
M  V30 2395 H 239.474 -0.26135 -2.98257 0
M  V30 2396 H 237.02 -0.127134 -1.43438 0
M  V30 2397 H 238.973 2.07773 -3.66617 0
M  V30 2398 H 237.697 2.18431 -2.42807 0
M  V30 2399 H 236.356 0.430119 -3.64068 0
M  V30 2400 H 236.004 2.85507 -4.14119 0
M  V30 2401 H 235.704 1.84615 -5.57845 0
M  V30 2402 H 237.228 2.76858 -5.44226 0
M  V30 2403 H 238.642 0.512976 -5.71 0
M  V30 2404 H 237.039 -0.2244 -5.9968 0
M  V30 2405 H 238.109 -0.912931 -4.76228 0
M  V30 2406 N 239.452 1.56882 -0.150215 0
M  V30 2407 C 240.677 2.01027 0.510184 0
M  V30 2408 C 241.102 1.02966 1.57415 0
M  V30 2409 O 240.46 0.00590158 1.81299 0
M  V30 2410 C 240.508 3.43899 1.08472 0
M  V30 2411 O 239.612 3.4885 2.19948 0
M  V30 2412 H 238.953 0.652233 0.124451 0
M  V30 2413 H 241.483 2.03093 -0.247894 0
M  V30 2414 H 241.493 3.82766 1.41259 0
M  V30 2415 H 240.168 4.14776 0.305582 0
M  V30 2416 H 238.745 3.21827 1.88366 0
M  V30 2417 N 240.93 -0.123565 1.57115 0
M  V30 2418 C 242.17 -0.838097 1.86428 0
M  V30 2419 C 242.534 -1.77266 0.737611 0
M  V30 2420 O 243.735 -2.52842 0.912389 0
M  V30 2421 C 242.006 -1.57219 3.20962 0
M  V30 2422 S 243.565 -2.32893 3.71896 0
M  V30 2423 H 240.383 -0.279811 0.653626 0
M  V30 2424 H 242.985 -0.0967034 1.95261 0
M  V30 2425 H 241.689 -0.877522 4.00909 0
M  V30 2426 H 241.22 -2.35405 3.15195 0
M  V30 2427 H 243.235 -3.5853 3.43032 0
M  V30 2428 N 242.408 -1.52605 -0.393616 0
M  V30 2429 C 243.654 -1.68624 -1.13743 0
M  V30 2430 C 244.009 -0.418687 -1.87789 0
M  V30 2431 O 243.302 0.58747 -1.82371 0
M  V30 2432 C 243.496 -2.85721 -2.14705 0
M  V30 2433 C 243.325 -4.23742 -1.50575 0
M  V30 2434 C 242.095 -4.89033 -1.2718 0
M  V30 2435 C 244.293 -5.05293 -0.958311 0
M  V30 2436 N 242.275 -6.11048 -0.591058 0
M  V30 2437 C 243.646 -6.18673 -0.405367 0
M  V30 2438 C 245.701 -4.90517 -0.854274 0
M  V30 2439 C 244.404 -7.18895 0.241434 0
M  V30 2440 C 246.43 -5.90986 -0.221301 0
M  V30 2441 C 245.792 -7.03669 0.320894 0
M  V30 2442 H 241.891 -0.670556 -0.402342 0
M  V30 2443 H 244.475 -1.89946 -0.427607 0
M  V30 2444 H 242.646 -2.65987 -2.83029 0
M  V30 2445 H 244.378 -2.90699 -2.8156 0
M  V30 2446 H 241.133 -4.47672 -1.54554 0
M  V30 2447 H 241.557 -6.76474 -0.266862 0
M  V30 2448 H 246.199 -4.03612 -1.25926 0
M  V30 2449 H 243.917 -8.05413 0.658448 0
M  V30 2450 H 247.503 -5.81626 -0.142111 0
M  V30 2451 H 246.383 -7.80078 0.802956 0
M  V30 2452 N 243.887 0.651787 -1.4349 0
M  V30 2453 C 244.817 1.77621 -1.51569 0
M  V30 2454 C 245.798 1.66022 -0.370253 0
M  V30 2455 O 246.983 1.85095 -0.587658 0
M  V30 2456 C 244.113 3.16056 -1.43966 0
M  V30 2457 C 243.067 3.4242 -2.56774 0
M  V30 2458 C 242.393 4.8067 -2.34223 0
M  V30 2459 C 243.693 3.37023 -3.99015 0
M  V30 2460 H 245.387 1.71117 -2.45681 0
M  V30 2461 H 242.933 0.821825 -1.18246 0
M  V30 2462 H 244.886 3.94472 -1.48221 0
M  V30 2463 H 243.61 3.23293 -0.463586 0
M  V30 2464 H 242.269 2.66375 -2.51873 0
M  V30 2465 H 241.917 4.84585 -1.34856 0
M  V30 2466 H 241.617 4.9927 -3.09844 0
M  V30 2467 H 243.141 5.61342 -2.40265 0
M  V30 2468 H 244.555 4.05374 -4.05395 0
M  V30 2469 H 242.952 3.67159 -4.74673 0
M  V30 2470 H 244.022 2.3518 -4.2405 0
M  V30 2471 N 245.365 1.30045 0.890287 0
M  V30 2472 C 246.776 1.16738 1.45702 0
M  V30 2473 C 247.127 -0.233939 1.948 0
M  V30 2474 O 246.252 -1.13021 1.84541 0
M  V30 2475 C 246.847 2.11313 2.64825 0
M  V30 2476 C 245.406 2.02001 3.17604 0
M  V30 2477 C 244.553 2.01699 1.90296 0
M  V30 2478 H 247.504 1.42392 0.700726 0
M  V30 2479 H 247.525 1.69086 3.40867 0
M  V30 2480 H 247.037 3.13294 2.2906 0
M  V30 2481 H 245.138 1.03142 3.5804 0
M  V30 2482 H 245.251 2.90128 3.81264 0
M  V30 2483 H 243.615 1.46427 2.08402 0
M  V30 2484 H 244.398 3.05402 1.56795 0
M  V30 2485 N 246.843 -1.10192 1.12674 0
M  V30 2486 C 248.254 -1.63707 0.897604 0
M  V30 2487 C 248.605 -1.87812 -0.567546 0
M  V30 2488 O 247.73 -1.62196 -1.43253 0
M  V30 2489 C 248.325 -2.974 1.62292 0
M  V30 2490 C 246.884 -3.47772 1.43986 0
M  V30 2491 C 246.031 -2.22332 1.65722 0
M  V30 2492 H 248.982 -0.936587 1.28116 0
M  V30 2493 H 249.003 -3.64986 1.07541 0
M  V30 2494 H 248.515 -2.79824 2.68924 0
M  V30 2495 H 246.616 -3.70487 0.396206 0
M  V30 2496 H 246.729 -4.25723 2.19765 0
M  V30 2497 H 245.093 -2.30599 1.08149 0
M  V30 2498 H 245.876 -2.07285 2.73657 0
M  V30 2499 N 248.321 -0.919034 -1.28029 0
M  V30 2500 C 249.568 -0.554934 -1.94748 0
M  V30 2501 C 249.896 0.90231 -1.72304 0
M  V30 2502 O 249.151 1.65767 -1.04018 0
M  V30 2503 C 249.45 -0.816855 -3.4794 0
M  V30 2504 C 249.116 -2.25448 -3.90492 0
M  V30 2505 C 247.778 -2.64752 -4.01821 0
M  V30 2506 C 250.13 -3.18977 -4.12193 0
M  V30 2507 C 247.458 -3.96727 -4.32232 0
M  V30 2508 C 249.81 -4.50523 -4.44086 0
M  V30 2509 C 248.474 -4.89673 -4.53626 0
M  V30 2510 H 247.744 -0.203065 -0.712633 0
M  V30 2511 H 250.391 -1.16136 -1.52265 0
M  V30 2512 H 248.696 -0.127677 -3.91592 0
M  V30 2513 H 250.393 -0.514238 -3.97689 0
M  V30 2514 H 246.983 -1.93952 -3.82205 0
M  V30 2515 H 251.167 -2.89817 -4.02889 0
M  V30 2516 H 246.423 -4.26754 -4.37825 0
M  V30 2517 H 250.597 -5.23005 -4.59825 0
M  V30 2518 H 248.224 -5.91969 -4.76946 0
M  V30 2519 N 249.799 1.42003 -0.683588 0
M  V30 2520 C 251.21 1.84501 -0.285736 0
M  V30 2521 C 251.561 1.57213 1.17382 0
M  V30 2522 O 250.686 1.03642 1.89966 0
M  V30 2523 C 251.281 3.34912 -0.511821 0
M  V30 2524 C 249.84 3.76025 -0.168005 0
M  V30 2525 C 248.987 2.6551 -0.799983 0
M  V30 2526 H 251.938 1.31724 -0.885119 0
M  V30 2527 H 251.959 3.79784 0.233292 0
M  V30 2528 H 251.471 3.54741 -1.57418 0
M  V30 2529 H 249.572 3.61801 0.890567 0
M  V30 2530 H 249.685 4.75141 -0.614661 0
M  V30 2531 H 248.049 2.53654 -0.230568 0
M  V30 2532 H 248.832 2.8816 -1.86597 0
M  V30 2533 N 251.277 0.427512 1.51691 0
M  V30 2534 C 252.502 -0.143601 2.06902 0
M  V30 2535 C 252.927 -1.36536 1.29382 0
M  V30 2536 O 252.285 -1.78289 0.329043 0
M  V30 2537 C 252.333 -0.454207 3.57728 0
M  V30 2538 O 251.437 -1.54228 3.82475 0
M  V30 2539 H 250.778 -0.00617128 0.663971 0
M  V30 2540 H 253.308 0.606014 1.95419 0
M  V30 2541 H 253.318 -0.707525 4.01818 0
M  V30 2542 H 251.993 0.438812 4.13579 0
M  V30 2543 H 250.57 -1.2797 3.50254 0
M  V30 2544 N 252.755 -1.56801 0.158532 0
M  V30 2545 C 254.003 -1.96102 -0.488712 0
M  V30 2546 C 254.324 -1.04498 -1.64636 0
M  V30 2547 O 253.594 -0.108783 -1.95598 0
M  V30 2548 H 252.174 -0.724102 -0.183535 0
M  V30 2549 H 254.836 -1.93457 0.236728 0
M  V30 2550 H 253.932 -3.00097 -0.857219 0
M  V30 2551 N 254.233 0.115231 -1.57178 0
M  V30 2552 C 255.644 0.67197 -1.74188 0
M  V30 2553 C 255.995 1.80125 -0.777777 0
M  V30 2554 O 255.12 2.16346 0.0484376 0
M  V30 2555 C 255.715 1.22573 -3.1585 0
M  V30 2556 C 254.274 1.72872 -3.34353 0
M  V30 2557 C 253.421 0.629972 -2.70049 0
M  V30 2558 H 256.372 -0.110712 -1.58313 0
M  V30 2559 H 256.393 2.09535 -3.17609 0
M  V30 2560 H 255.905 0.403598 -3.85996 0
M  V30 2561 H 254.006 2.5755 -2.69256 0
M  V30 2562 H 254.119 1.83557 -4.42542 0
M  V30 2563 H 252.483 1.0645 -2.31388 0
M  V30 2564 H 253.266 -0.181241 -3.42821 0
M  V30 2565 N 255.711 1.52812 0.385517 0
M  V30 2566 C 257.122 1.5993 0.963293 0
M  V30 2567 C 257.473 0.454302 1.90868 0
M  V30 2568 O 256.598 -0.422132 2.12243 0
M  V30 2569 C 257.193 2.89871 1.75387 0
M  V30 2570 C 255.752 2.99389 2.28129 0
M  V30 2571 C 254.899 2.55071 1.08783 0
M  V30 2572 H 257.85 1.5784 0.164948 0
M  V30 2573 H 257.871 2.76553 2.61341 0
M  V30 2574 H 257.383 3.73186 1.06554 0
M  V30 2575 H 255.484 2.20619 3.00263 0
M  V30 2576 H 255.597 4.04096 2.57377 0
M  V30 2577 H 253.961 2.09473 1.4489 0
M  V30 2578 H 254.744 3.40785 0.414807 0
M  V30 2579 N 257.189 -0.644168 1.43834 0
M  V30 2580 C 258.438 -1.39985 1.45214 0
M  V30 2581 C 258.751 -1.95421 0.0835494 0
M  V30 2582 O 259.957 -2.71488 -0.0251748 0
M  V30 2583 C 258.413 -2.53384 2.55587 0
M  V30 2584 C 258.021 -2.04517 3.98594 0
M  V30 2585 C 259.765 -3.30685 2.66172 0
M  V30 2586 C 257.672 -3.1518 5.00416 0
M  V30 2587 H 256.602 -0.526005 0.540218 0
M  V30 2588 H 259.253 -0.694367 1.69855 0
M  V30 2589 H 257.635 -3.26446 2.24163 0
M  V30 2590 H 258.809 -1.38405 4.39523 0
M  V30 2591 H 257.124 -1.40068 3.92135 0
M  V30 2592 H 259.721 -4.13158 3.39418 0
M  V30 2593 H 260.064 -3.79312 1.71546 0
M  V30 2594 H 260.597 -2.64708 2.96942 0
M  V30 2595 H 257.336 -2.71511 5.96625 0
M  V30 2596 H 256.856 -3.79974 4.64091 0
M  V30 2597 H 258.535 -3.80166 5.23529 0
M  V30 2598 N 258.668 -1.30515 -0.883378 0
M  V30 2599 C 259.917 -1.18795 -1.63005 0
M  V30 2600 C 260.23 0.255923 -1.93919 0
M  V30 2601 O 261.436 0.494654 -2.66956 0
M  V30 2602 C 259.892 -2.07878 -2.93794 0
M  V30 2603 C 259.5 -3.57184 -2.70414 0
M  V30 2604 C 261.244 -2.04924 -3.71761 0
M  V30 2605 C 259.151 -4.38317 -3.97029 0
M  V30 2606 H 258.081 -0.441031 -0.611562 0
M  V30 2607 H 260.732 -1.55275 -0.977854 0
M  V30 2608 H 259.114 -1.64283 -3.60315 0
M  V30 2609 H 260.288 -4.08937 -2.12384 0
M  V30 2610 H 258.603 -3.61976 -2.0582 0
M  V30 2611 H 261.2 -2.62792 -4.65665 0
M  V30 2612 H 261.543 -1.0331 -4.03277 0
M  V30 2613 H 262.076 -2.46649 -3.12104 0
M  V30 2614 H 258.815 -5.40632 -3.70671 0
M  V30 2615 H 258.335 -3.91326 -4.54559 0
M  V30 2616 H 260.014 -4.49834 -4.65036 0
M  V30 2617 N 260.146 1.09593 -1.13257 0
M  V30 2618 C 261.557 1.63229 -0.906274 0
M  V30 2619 C 261.908 1.8811 0.557578 0
M  V30 2620 O 261.033 1.62953 1.42391 0
M  V30 2621 C 261.628 2.96535 -1.63867 0
M  V30 2622 C 260.187 3.47003 -1.45828 0
M  V30 2623 C 259.334 2.2145 -1.66898 0
M  V30 2624 H 262.285 0.92978 -1.28611 0
M  V30 2625 H 262.306 3.64411 -1.09476 0
M  V30 2626 H 261.818 2.78394 -2.70404 0
M  V30 2627 H 259.919 3.70272 -0.415848 0
M  V30 2628 H 260.032 4.24551 -2.2202 0
M  V30 2629 H 258.396 2.30022 -1.09371 0
M  V30 2630 H 259.179 2.0583 -2.74752 0
M  V30 2631 N 261.624 0.925811 1.2754 0
M  V30 2632 C 263.035 0.610102 1.7645 0
M  V30 2633 C 263.386 -0.874723 1.75622 0
M  V30 2634 O 262.511 -1.68444 1.35851 0
M  V30 2635 C 263.106 1.10073 3.20421 0
M  V30 2636 C 261.665 0.835723 3.67005 0
M  V30 2637 C 260.812 1.26054 2.46993 0
M  V30 2638 H 263.763 1.10579 1.13833 0
M  V30 2639 H 263.784 0.447557 3.77859 0
M  V30 2640 H 263.296 2.18143 3.20991 0
M  V30 2641 H 261.397 -0.231249 3.71882 0
M  V30 2642 H 261.51 1.45193 4.56569 0
M  V30 2643 H 259.874 0.679111 2.45479 0
M  V30 2644 H 260.657 2.34984 2.50275 0
M  V30 2645 N 263.102 -1.41638 0.69111 0
M  V30 2646 C 264.513 -1.84346 0.295517 0
M  V30 2647 C 264.864 -1.57833 -1.16547 0
M  V30 2648 O 263.989 -1.04648 -1.89414 0
M  V30 2649 C 264.584 -3.34636 0.529575 0
M  V30 2650 C 263.143 -3.7593 0.187944 0
M  V30 2651 C 262.29 -2.65082 0.814052 0
M  V30 2652 H 265.241 -1.31253 0.892092 0
M  V30 2653 H 265.262 -3.79903 -0.213148 0
M  V30 2654 H 264.774 -3.53901 1.59297 0
M  V30 2655 H 262.875 -3.62268 -0.871367 0
M  V30 2656 H 262.988 -4.74808 0.63985 0
M  V30 2657 H 261.352 -2.53528 0.244017 0
M  V30 2658 H 262.135 -2.87167 1.88123 0
M  V30 2659 N 264.58 -0.43555 -1.51462 0
M  V30 2660 C 265.991 0.0279871 -1.86679 0
M  V30 2661 C 266.342 1.42104 -1.35281 0
M  V30 2662 O 265.467 2.04667 -0.702878 0
M  V30 2663 C 266.062 0.0575626 -3.38751 0
M  V30 2664 C 264.621 0.465507 -3.7351 0
M  V30 2665 C 263.768 -0.342996 -2.75171 0
M  V30 2666 H 266.719 -0.651473 -1.44712 0
M  V30 2667 H 266.74 0.867421 -3.70481 0
M  V30 2668 H 266.252 -0.956448 -3.7613 0
M  V30 2669 H 264.353 1.48519 -3.41721 0
M  V30 2670 H 264.466 0.191546 -4.78717 0
M  V30 2671 H 262.83 0.198442 -2.53926 0
M  V30 2672 H 263.613 -1.35585 -3.15391 0
M  V30 2673 N 266.058 1.56714 -0.166846 0
M  V30 2674 C 267.469 1.83378 0.350646 0
M  V30 2675 C 267.82 1.08646 1.63372 0
M  V30 2676 O 266.945 0.338058 2.13743 0
M  V30 2677 C 267.54 3.32643 0.642963 0
M  V30 2678 C 266.099 3.59818 1.10491 0
M  V30 2679 C 265.246 2.76954 0.138411 0
M  V30 2680 H 268.197 1.53803 -0.391193 0
M  V30 2681 H 268.218 3.49878 1.49551 0
M  V30 2682 H 267.73 3.87007 -0.291055 0
M  V30 2683 H 265.831 3.1086 2.05418 0
M  V30 2684 H 265.944 4.68178 1.01716 0
M  V30 2685 H 264.308 2.4666 0.634911 0
M  V30 2686 H 265.091 3.34097 -0.789549 0
M  V30 2687 N 267.536 -0.106894 1.57237 0
M  V30 2688 C 268.785 -0.811163 1.8467 0
M  V30 2689 C 269.098 -1.80469 0.754342 0
M  V30 2690 O 270.304 -2.55601 0.915439 0
M  V30 2691 C 268.76 -1.49337 3.27454 0
M  V30 2692 C 268.368 -0.540217 4.44731 0
M  V30 2693 C 270.112 -2.18206 3.64124 0
M  V30 2694 C 268.019 -1.22634 5.78545 0
M  V30 2695 H 266.949 -0.306679 0.688813 0
M  V30 2696 H 269.6 -0.0639887 1.83388 0
M  V30 2697 H 267.982 -2.2876 3.23241 0
M  V30 2698 H 269.156 0.221659 4.60267 0
M  V30 2699 H 267.471 0.042146 4.16379 0
M  V30 2700 H 270.068 -2.70253 4.61376 0
M  V30 2701 H 270.411 -2.96562 2.92158 0
M  V30 2702 H 270.944 -1.45658 3.70174 0
M  V30 2703 H 267.683 -0.483832 6.53712 0
M  V30 2704 H 267.203 -1.95993 5.66874 0
M  V30 2705 H 268.882 -1.75615 6.2271 0
M  V30 2706 N 269.014 -1.53014 -0.377408 0
M  V30 2707 C 270.254 -1.70318 -1.1301 0
M  V30 2708 C 270.618 -0.439538 -1.86901 0
M  V30 2709 O 271.819 -0.489095 -2.64313 0
M  V30 2710 C 270.09 -2.91125 -2.07319 0
M  V30 2711 S 271.649 -3.29075 -2.90268 0
M  V30 2712 H 268.467 -0.599426 -0.382374 0
M  V30 2713 H 271.069 -1.91089 -0.412933 0
M  V30 2714 H 269.773 -3.81303 -1.51777 0
M  V30 2715 H 269.304 -2.7272 -2.83526 0
M  V30 2716 H 271.319 -2.80165 -4.09539 0
M  V30 2717 N 270.492 0.636531 -1.44174 0
M  V30 2718 C 271.903 1.21806 -1.41493 0
M  V30 2719 C 272.254 1.95785 -0.1275 0
M  V30 2720 O 271.379 2.02147 0.772376 0
M  V30 2721 C 271.974 2.21551 -2.56321 0
M  V30 2722 C 270.533 2.75143 -2.56853 0
M  V30 2723 C 269.68 1.50052 -2.33195 0
M  V30 2724 H 272.631 0.427531 -1.52833 0
M  V30 2725 H 272.652 3.0405 -2.28765 0
M  V30 2726 H 272.164 1.67679 -3.50008 0
M  V30 2727 H 270.265 3.33033 -1.67093 0
M  V30 2728 H 270.378 3.2155 -3.55165 0
M  V30 2729 H 268.742 1.77993 -1.82183 0
M  V30 2730 H 269.525 0.980903 -3.28988 0
M  V30 2731 N 271.97 1.30982 0.876444 0
M  V30 2732 C 273.247 1.10942 1.61094 0
M  V30 2733 C 273.627 -0.338223 2.08373 0
M  V30 2734 O 272.975 -1.33122 1.85717 0
M  V30 2735 C 273.185 2.11789 2.77392 0
M  V30 2736 C 274.533 2.43965 3.47514 0
M  V30 2737 O 275.557 2.10166 2.87591 0
M  V30 2738 O 274.416 3.01817 4.55597 0
M  V30 2739 H 271.51 0.42667 0.708436 0
M  V30 2740 H 274.056 1.42438 0.922474 0
M  V30 2741 H 272.828 3.09194 2.39823 0
M  V30 2742 H 272.451 1.81161 3.5393 0
M  V30 2743 N 273.449 -1.08991 1.13837 0
M  V30 2744 C 274.674 -1.85551 0.926585 0
M  V30 2745 C 275.099 -1.80782 -0.519566 0
M  V30 2746 O 274.457 -1.18855 -1.36906 0
M  V30 2747 C 274.505 -3.31266 1.42462 0
M  V30 2748 O 273.609 -4.07822 0.612789 0
M  V30 2749 H 272.95 -0.575192 0.331738 0
M  V30 2750 H 275.48 -1.37604 1.51414 0
M  V30 2751 H 275.49 -3.82112 1.43019 0
M  V30 2752 H 274.165 -3.34052 2.47754 0
M  V30 2753 H 272.742 -3.66731 0.675463 0
M  V30 2754 N 274.927 -0.932562 -1.27047 0
M  V30 2755 C 275.857 -0.452902 -2.29066 0
M  V30 2756 C 276.838 0.489338 -1.62909 0
M  V30 2757 O 278.023 0.393046 -1.90181 0
M  V30 2758 C 275.153 0.290698 -3.46081 0
M  V30 2759 C 274.107 -0.564168 -4.24265 0
M  V30 2760 C 273.433 0.308886 -5.33807 0
M  V30 2761 C 274.733 -1.83112 -4.89149 0
M  V30 2762 H 276.427 -1.30552 -2.69437 0
M  V30 2763 H 273.973 -0.629201 -1.29526 0
M  V30 2764 H 275.926 0.637233 -4.16554 0
M  V30 2765 H 274.65 1.17738 -3.0464 0
M  V30 2766 H 273.309 -0.893477 -3.55545 0
M  V30 2767 H 272.957 1.19467 -4.88607 0
M  V30 2768 H 272.657 -0.259633 -5.87026 0
M  V30 2769 H 274.181 0.650884 -6.07121 0
M  V30 2770 H 275.595 -1.55236 -5.51883 0
M  V30 2771 H 273.992 -2.34353 -5.52448 0
M  V30 2772 H 275.062 -2.54772 -4.12576 0
M  V30 2773 N 276.405 1.4127 -0.698611 0
M  V30 2774 C 277.682 1.94955 -0.158762 0
M  V30 2775 C 278.062 1.63781 1.33188 0
M  V30 2776 O 277.41 0.946423 2.07979 0
M  V30 2777 C 277.62 3.46044 -0.453309 0
M  V30 2778 C 278.968 4.22872 -0.382707 0
M  V30 2779 O 279.992 3.54076 -0.388396 0
M  V30 2780 O 278.851 5.45407 -0.345463 0
M  V30 2781 H 275.945 0.82683 -0.0167505 0
M  V30 2782 H 278.491 1.50971 -0.77498 0
M  V30 2783 H 277.263 3.62028 -1.48498 0
M  V30 2784 H 276.886 3.97128 0.19373 0
M  V30 2785 N 277.883 0.443576 1.51229 0
M  V30 2786 C 279.16 -0.181038 1.9476 0
M  V30 2787 C 279.54 -1.59523 1.38259 0
M  V30 2788 O 278.888 -2.2122 0.572198 0
M  V30 2789 C 279.098 -0.152422 3.48667 0
M  V30 2790 C 280.446 -0.354923 4.23114 0
M  V30 2791 O 281.47 -0.230257 3.55455 0
M  V30 2792 O 280.329 -0.603674 5.43156 0
M  V30 2793 H 277.423 -0.1266 0.817252 0
M  V30 2794 H 279.969 0.502004 1.62105 0
M  V30 2795 H 278.741 0.836022 3.82265 0
M  V30 2796 H 278.364 -0.878107 3.87782 0
M  V30 2797 N 279.361 -1.56624 0.175154 0
M  V30 2798 C 280.324 -2.16934 -0.739738 0
M  V30 2799 C 281.324 -1.11842 -1.15533 0
M  V30 2800 O 282.514 -1.37335 -1.07167 0
M  V30 2801 C 279.646 -2.75531 -2.00738 0
M  V30 2802 H 280.839 -2.99131 -0.214639 0
M  V30 2803 H 278.392 -1.56123 -0.0744197 0
M  V30 2804 H 279.127 -1.97078 -2.57548 0
M  V30 2805 H 278.912 -3.52444 -1.71831 0
M  V30 2806 H 280.402 -3.21904 -2.66021 0
M  V30 2807 N 280.839 0.0985539 -1.57292 0
M  V30 2808 C 282.116 0.834155 -1.76921 0
M  V30 2809 C 282.496 1.97101 -0.755928 0
M  V30 2810 O 281.844 2.27474 0.216245 0
M  V30 2811 C 282.054 1.33194 -3.22584 0
M  V30 2812 C 283.402 1.77611 -3.85668 0
M  V30 2813 O 284.426 1.42825 -3.26312 0
M  V30 2814 O 283.285 2.4192 -4.90038 0
M  V30 2815 H 280.379 0.397628 -0.725135 0
M  V30 2816 H 282.925 0.0807044 -1.69508 0
M  V30 2817 H 281.697 0.517248 -3.87866 0
M  V30 2818 H 281.32 2.1475 -3.34616 0
M  V30 2819 N 282.317 1.53212 0.369288 0
M  V30 2820 C 283.28 1.7872 1.43498 0
M  V30 2821 C 284.28 0.657554 1.46741 0
M  V30 2822 O 285.47 0.925736 1.47566 0
M  V30 2823 C 282.602 1.90591 2.82645 0
M  V30 2824 H 283.795 2.73894 1.22156 0
M  V30 2825 H 281.348 1.44233 0.602203 0
M  V30 2826 H 282.083 0.974709 3.09306 0
M  V30 2827 H 281.868 2.72751 2.8169 0
M  V30 2828 H 283.358 2.11931 3.59826 0
M  V30 2829 N 283.795 -0.628877 1.44509 0
M  V30 2830 C 284.725 -1.75187 1.54376 0
M  V30 2831 C 285.706 -1.65411 0.396618 0
M  V30 2832 O 286.891 -1.84137 0.617031 0
M  V30 2833 C 284.021 -3.13725 1.48976 0
M  V30 2834 C 282.975 -3.38291 2.62189 0
M  V30 2835 C 282.301 -4.76883 2.41841 0
M  V30 2836 C 283.601 -3.30632 4.04326 0
M  V30 2837 H 285.295 -1.67187 2.48373 0
M  V30 2838 H 282.841 -0.802909 1.19538 0
M  V30 2839 H 284.794 -3.92064 1.54478 0
M  V30 2840 H 283.518 -3.22515 0.514961 0
M  V30 2841 H 282.177 -2.62334 2.56079 0
M  V30 2842 H 281.825 -4.82378 1.42548 0
M  V30 2843 H 281.525 -4.94278 3.17747 0
M  V30 2844 H 283.049 -5.57449 2.49165 0
M  V30 2845 H 284.463 -3.98873 4.11793 0
M  V30 2846 H 282.86 -3.59561 4.80454 0
M  V30 2847 H 283.93 -2.28404 4.27738 0
M  V30 2848 N 285.273 -1.31445 -0.869486 0
M  V30 2849 C 286.521 -1.20918 -1.61936 0
M  V30 2850 C 286.842 0.232683 -1.93607 0
M  V30 2851 O 286.112 1.15352 -1.58338 0
M  V30 2852 H 284.692 -0.44454 -0.600328 0
M  V30 2853 H 287.354 -1.64776 -1.0409 0
M  V30 2854 H 286.45 -1.78124 -2.56278 0
M  V30 2855 N 286.751 1.08385 -1.14413 0
M  V30 2856 C 287.976 1.85057 -0.936413 0
M  V30 2857 C 288.401 1.81055 0.509971 0
M  V30 2858 O 287.759 1.1958 1.36273 0
M  V30 2859 C 287.807 3.30505 -1.44217 0
M  V30 2860 O 286.911 4.07491 -0.634409 0
M  V30 2861 H 286.252 0.573425 -0.334784 0
M  V30 2862 H 288.782 1.36799 -1.52142 0
M  V30 2863 H 288.792 3.81348 -1.45043 0
M  V30 2864 H 287.467 3.32734 -2.49522 0
M  V30 2865 H 286.044 3.66368 -0.694902 0
M  V30 2866 N 288.23 0.939286 1.26551 0
M  V30 2867 C 289.163 0.391702 2.24813 0
M  V30 2868 C 290.141 -0.518421 1.54114 0
M  V30 2869 O 291.325 -0.456299 1.82894 0
M  V30 2870 C 288.452 -0.437382 3.35864 0
M  V30 2871 C 287.498 0.410946 4.24516 0
M  V30 2872 S 288.331 1.83372 5.03125 0
M  V30 2873 C 289.487 1.01264 6.17654 0
M  V30 2874 H 289.72 1.22448 2.70913 0
M  V30 2875 H 287.253 0.742269 1.35387 0
M  V30 2876 H 289.211 -0.909837 4.0029 0
M  V30 2877 H 287.872 -1.24482 2.8838 0
M  V30 2878 H 287.065 -0.224191 5.03501 0
M  V30 2879 H 286.667 0.818014 3.64945 0
M  V30 2880 H 288.959 0.254023 6.77024 0
M  V30 2881 H 289.902 1.77589 6.85469 0
M  V30 2882 H 290.31 0.549532 5.61819 0
M  V30 2883 N 289.708 -1.40897 0.706093 0
M  V30 2884 C 290.638 -2.33418 0.0620085 0
M  V30 2885 C 291.619 -1.52385 -0.755827 0
M  V30 2886 O 292.804 -1.80886 -0.706674 0
M  V30 2887 C 289.934 -3.36293 -0.867445 0
M  V30 2888 C 288.888 -4.27716 -0.155932 0
M  V30 2889 C 288.214 -5.2105 -1.20046 0
M  V30 2890 C 289.514 -5.12944 0.984149 0
M  V30 2891 H 291.208 -2.87527 0.83477 0
M  V30 2892 H 288.754 -1.38249 0.402875 0
M  V30 2893 H 290.707 -3.99949 -1.32735 0
M  V30 2894 H 289.431 -2.80556 -1.67199 0
M  V30 2895 H 288.09 -3.65498 0.284047 0
M  V30 2896 H 287.738 -4.61624 -1.99781 0
M  V30 2897 H 287.438 -5.83056 -0.729328 0
M  V30 2898 H 288.962 -5.87584 -1.66066 0
M  V30 2899 H 290.376 -5.70109 0.604048 0
M  V30 2900 H 288.773 -5.83945 1.38304 0
M  V30 2901 H 289.843 -4.49485 1.81911 0
M  V30 2902 N 291.186 -0.45159 -1.50991 0
M  V30 2903 C 292.435 0.111653 -2.01391 0
M  V30 2904 C 292.748 1.42529 -1.33959 0
M  V30 2905 O 293.954 2.07232 -1.75405 0
M  V30 2906 C 292.41 0.249514 -3.59034 0
M  V30 2907 C 292.018 -1.05453 -4.35412 0
M  V30 2908 C 293.762 0.765762 -4.17536 0
M  V30 2909 C 291.669 -0.881529 -5.84793 0
M  V30 2910 H 290.599 0.0455022 -0.752626 0
M  V30 2911 H 293.25 -0.583524 -1.73975 0
M  V30 2912 H 291.632 1.00803 -3.82955 0
M  V30 2913 H 292.806 -1.82248 -4.23229 0
M  V30 2914 H 291.121 -1.50039 -3.88429 0
M  V30 2915 H 293.718 0.911913 -5.26866 0
M  V30 2916 H 294.061 1.75201 -3.77638 0
M  V30 2917 H 294.594 0.0651744 -3.97747 0
M  V30 2918 H 291.333 -1.84057 -6.29129 0
M  V30 2919 H 290.853 -0.153625 -5.99603 0
M  V30 2920 H 292.532 -0.540363 -6.4474 0
M  V30 2921 N 292.664 1.56529 -0.183458 0
M  V30 2922 C 293.889 2.02064 0.467428 0
M  V30 2923 C 294.314 1.06282 1.55196 0
M  V30 2924 O 293.672 0.0443565 1.81246 0
M  V30 2925 C 293.72 3.46122 1.01153 0
M  V30 2926 O 292.824 3.53437 2.12499 0
M  V30 2927 H 292.165 0.654726 0.110588 0
M  V30 2928 H 294.695 2.02521 -0.290917 0
M  V30 2929 H 294.705 3.85676 1.33108 0
M  V30 2930 H 293.38 4.15331 0.217533 0
M  V30 2931 H 291.957 3.2575 1.81497 0
M  V30 2932 N 294.142 -0.090211 1.57342 0
M  V30 2933 C 295.388 -0.788838 1.8748 0
M  V30 2934 C 295.743 -1.76105 0.7749 0
M  V30 2935 O 295.036 -1.90302 -0.222663 0
M  V30 2936 C 295.23 -1.55222 3.21933 0
M  V30 2937 C 295.059 -0.655441 4.44898 0
M  V30 2938 C 293.829 -0.299325 5.04413 0
M  V30 2939 C 296.027 0.0397458 5.14285 0
M  V30 2940 N 294.009 0.605108 6.10911 0
M  V30 2941 C 295.38 0.802061 6.1479 0
M  V30 2942 C 297.435 0.113154 4.97771 0
M  V30 2943 C 296.138 1.63093 7.00566 0
M  V30 2944 C 298.164 0.928942 5.84059 0
M  V30 2945 C 297.526 1.67936 6.84088 0
M  V30 2946 H 293.625 -0.26467 0.735849 0
M  V30 2947 H 296.209 -0.0511453 1.94633 0
M  V30 2948 H 294.38 -2.26076 3.15823 0
M  V30 2949 H 296.112 -2.19843 3.39781 0
M  V30 2950 H 292.867 -0.648079 4.69145 0
M  V30 2951 H 293.291 1.05002 6.68808 0
M  V30 2952 H 297.933 -0.452676 4.2037 0
M  V30 2953 H 295.651 2.20781 7.77355 0
M  V30 2954 H 299.237 0.988478 5.73341 0
M  V30 2955 H 298.117 2.30044 7.49699 0
M  V30 2956 N 295.62 -1.53406 -0.361157 0
M  V30 2957 C 296.85 -1.73465 -1.1222 0
M  V30 2958 C 297.258 -0.465486 -1.83384 0
M  V30 2959 O 296.601 0.571611 -1.7458 0
M  V30 2960 C 296.663 -2.84834 -2.19339 0
M  V30 2961 C 296.327 -4.25038 -1.67903 0
M  V30 2962 C 297.324 -5.07231 -1.14074 0
M  V30 2963 C 295.009 -4.71464 -1.73282 0
M  V30 2964 C 297.003 -6.33942 -0.663068 0
M  V30 2965 C 294.69 -5.98153 -1.25127 0
M  V30 2966 C 295.688 -6.79223 -0.717296 0
M  V30 2967 O 295.376 -8.03533 -0.242865 0
M  V30 2968 H 295.108 -0.583526 -0.341283 0
M  V30 2969 H 297.662 -2.00964 -0.424591 0
M  V30 2970 H 295.892 -2.5282 -2.92607 0
M  V30 2971 H 297.581 -2.9303 -2.80871 0
M  V30 2972 H 298.347 -4.72534 -1.09254 0
M  V30 2973 H 294.226 -4.08432 -2.13786 0
M  V30 2974 H 297.77 -6.97167 -0.245612 0
M  V30 2975 H 293.667 -6.32347 -1.29642 0
M  V30 2976 H 294.435 -8.177 -0.361786 0
M  V30 2977 N 297.098 0.621204 -1.44841 0
M  V30 2978 C 298.031 1.7459 -1.46947 0
M  V30 2979 C 299.009 1.59273 -0.327238 0
M  V30 2980 O 300.193 1.81021 -0.525706 0
M  V30 2981 C 297.32 3.12274 -1.31159 0
M  V30 2982 C 296.366 3.46216 -2.49072 0
M  V30 2983 S 297.199 3.4258 -4.11581 0
M  V30 2984 C 298.355 4.82867 -3.98233 0
M  V30 2985 H 298.588 1.72538 -2.42111 0
M  V30 2986 H 296.121 0.796683 -1.32259 0
M  V30 2987 H 298.079 3.91722 -1.22737 0
M  V30 2988 H 296.74 3.11855 -0.374885 0
M  V30 2989 H 295.933 4.4643 -2.33915 0
M  V30 2990 H 295.535 2.74253 -2.54286 0
M  V30 2991 H 297.827 5.7234 -3.62537 0
M  V30 2992 H 298.77 5.0308 -4.98313 0
M  V30 2993 H 299.178 4.57908 -3.30121 0
M  V30 2994 N 298.576 1.31904 0.862503 0
M  V30 2995 C 299.801 1.25135 1.65397 0
M  V30 2996 C 300.226 -0.179 1.87246 0
M  V30 2997 O 299.584 -1.1277 1.4196 0
M  V30 2998 C 299.632 2.00832 2.99498 0
M  V30 2999 O 298.736 1.35075 3.89652 0
M  V30 3000 H 298.077 0.431655 0.504549 0
M  V30 3001 H 300.607 1.74094 1.07483 0
M  V30 3002 H 300.617 2.10709 3.49379 0
M  V30 3003 H 299.292 3.04847 2.82916 0
M  V30 3004 H 297.869 1.33696 3.48109 0
M  V30 3005 N 300.054 -1.07777 1.14986 0
M  V30 3006 C 301.302 -1.79934 0.920235 0
M  V30 3007 C 301.623 -1.86955 -0.554336 0
M  V30 3008 O 300.893 -1.36731 -1.40291 0
M  V30 3009 H 299.473 -0.666424 0.337473 0
M  V30 3010 H 302.135 -1.3027 1.44968 0
M  V30 3011 H 301.231 -2.82539 1.32583 0
M  V30 3012 N 301.532 -0.945985 -1.26051 0
M  V30 3013 C 302.762 -0.612136 -1.97323 0
M  V30 3014 C 303.17 0.818171 -1.70595 0
M  V30 3015 O 302.513 1.55777 -0.973613 0
M  V30 3016 C 302.575 -0.780347 -3.50929 0
M  V30 3017 C 302.239 -2.18619 -4.01317 0
M  V30 3018 C 303.236 -3.16209 -4.12683 0
M  V30 3019 C 300.921 -2.50805 -4.35203 0
M  V30 3020 C 302.915 -4.44085 -4.57238 0
M  V30 3021 C 300.602 -3.78912 -4.79446 0
M  V30 3022 C 301.6 -4.75365 -4.90425 0
M  V30 3023 O 301.288 -6.01191 -5.3369 0
M  V30 3024 H 301.02 -0.229134 -0.635982 0
M  V30 3025 H 303.574 -1.27036 -1.61404 0
M  V30 3026 H 301.804 -0.0649864 -3.86645 0
M  V30 3027 H 303.493 -0.448842 -4.03411 0
M  V30 3028 H 304.259 -2.92668 -3.86744 0
M  V30 3029 H 300.138 -1.76463 -4.2589 0
M  V30 3030 H 303.682 -5.19373 -4.65723 0
M  V30 3031 H 299.579 -4.02265 -5.0483 0
M  V30 3032 H 300.347 -6.04442 -5.51899 0
M  V30 3033 N 303.011 1.40521 -0.713556 0
M  V30 3034 C 303.961 2.27971 -0.036165 0
M  V30 3035 C 304.945 1.43151 0.734623 0
M  V30 3036 O 306.137 1.66261 0.607158 0
M  V30 3037 C 303.266 3.31661 0.886331 0
M  V30 3038 C 302.352 4.23955 0.110836 0
M  V30 3039 N 302.743 4.97641 -0.904847 0
M  V30 3040 C 301.041 4.44674 0.343692 0
M  V30 3041 C 301.742 5.65322 -1.37064 0
M  V30 3042 N 300.718 5.39162 -0.693168 0
M  V30 3043 H 304.52 2.82384 -0.814645 0
M  V30 3044 H 302.034 1.52948 -0.545963 0
M  V30 3045 H 304.031 3.93154 1.38692 0
M  V30 3046 H 302.691 2.78808 1.66421 0
M  V30 3047 H 303.702 5.01689 -1.28563 0
M  V30 3048 H 300.379 4.02801 1.09805 0
M  V30 3049 H 301.769 6.34359 -2.21447 0
M  V30 3050 N 304.489 0.459591 1.5075 0
M  V30 3051 C 305.717 -0.0973749 2.06671 0
M  V30 3052 C 306.132 -1.34524 1.32472 0
M  V30 3053 O 305.489 -1.7827 0.390634 0
M  V30 3054 C 305.54 -0.39714 3.59312 0
M  V30 3055 O 305.261 0.801214 4.30711 0
M  V30 3056 C 306.762 -1.00234 4.31819 0
M  V30 3057 H 303.982 0.00195854 0.670997 0
M  V30 3058 H 306.526 0.645072 1.94059 0
M  V30 3059 H 304.681 -1.08951 3.71764 0
M  V30 3060 H 305.095 0.538857 5.21725 0
M  V30 3061 H 306.569 -1.16193 5.39632 0
M  V30 3062 H 307.046 -1.98939 3.91561 0
M  V30 3063 H 307.652 -0.348699 4.23868 0
M  V30 3064 N 305.967 -1.56429 0.191757 0
M  V30 3065 C 307.215 -1.97095 -0.447006 0
M  V30 3066 C 307.536 -1.07967 -1.62383 0
M  V30 3067 O 306.806 -0.150248 -1.95323 0
M  V30 3068 H 305.386 -0.727832 -0.168135 0
M  V30 3069 H 308.048 -1.92911 0.27771 0
M  V30 3070 H 307.144 -3.01848 -0.793371 0
M  V30 3071 N 307.445 0.0818655 -1.57387 0
M  V30 3072 C 308.675 0.794954 -1.90694 0
M  V30 3073 C 309.083 1.72147 -0.784982 0
M  V30 3074 O 308.426 1.81974 0.251196 0
M  V30 3075 C 308.488 1.65042 -3.19376 0
M  V30 3076 C 308.152 0.894337 -4.48164 0
M  V30 3077 C 309.149 0.21813 -5.19442 0
M  V30 3078 C 306.834 0.864495 -4.94805 0
M  V30 3079 C 308.828 -0.477802 -6.35607 0
M  V30 3080 C 306.515 0.164785 -6.10878 0
M  V30 3081 C 307.513 -0.505173 -6.81129 0
M  V30 3082 O 307.201 -1.19363 -7.94989 0
M  V30 3083 H 306.933 0.231779 -0.635023 0
M  V30 3084 H 309.487 0.059493 -2.05314 0
M  V30 3085 H 307.717 2.42844 -3.00938 0
M  V30 3086 H 309.406 2.24127 -3.38411 0
M  V30 3087 H 310.172 0.232558 -4.84442 0
M  V30 3088 H 306.051 1.37542 -4.40004 0
M  V30 3089 H 309.595 -1.00129 -6.90377 0
M  V30 3090 H 305.492 0.148249 -6.4533 0
M  V30 3091 H 306.26 -1.10188 -8.11049 0
M  V30 3092 N 308.923 1.53595 0.353017 0
M  V30 3093 C 310.153 1.74058 1.11299 0
M  V30 3094 C 310.561 0.475205 1.83135 0
M  V30 3095 O 309.904 -0.562344 1.74881 0
M  V30 3096 C 309.966 2.85994 2.17825 0
M  V30 3097 C 309.63 4.25923 1.65647 0
M  V30 3098 C 310.627 5.07829 1.11383 0
M  V30 3099 C 308.312 4.72377 1.7078 0
M  V30 3100 C 310.306 6.34285 0.629439 0
M  V30 3101 C 307.993 5.98808 1.21953 0
M  V30 3102 C 308.991 6.79594 0.681265 0
M  V30 3103 O 308.679 8.03651 0.200248 0
M  V30 3104 H 308.411 0.585327 0.338183 0
M  V30 3105 H 310.965 2.01186 0.413927 0
M  V30 3106 H 309.195 2.54368 2.91262 0
M  V30 3107 H 310.884 2.94515 2.79313 0
M  V30 3108 H 311.65 4.73107 1.06746 0
M  V30 3109 H 307.529 4.0956 2.11617 0
M  V30 3110 H 311.073 6.97288 0.208636 0
M  V30 3111 H 306.97 6.33026 1.26287 0
M  V30 3112 H 307.738 8.1788 0.318416 0
M  V30 3113 N 310.401 -0.613514 1.45168 0
M  V30 3114 C 311.334 -1.73809 1.47871 0
M  V30 3115 C 312.312 -1.59097 0.33568 0
M  V30 3116 O 313.496 -1.8074 0.535299 0
M  V30 3117 C 310.623 -3.11574 1.32813 0
M  V30 3118 C 309.669 -3.4489 2.50905 0
M  V30 3119 S 310.502 -3.40393 4.13392 0
M  V30 3120 C 311.658 -4.80749 4.00789 0
M  V30 3121 H 311.891 -1.71252 2.43023 0
M  V30 3122 H 309.424 -0.789658 1.32679 0
M  V30 3123 H 311.382 -3.91065 1.24812 0
M  V30 3124 H 310.043 -3.11652 0.391418 0
M  V30 3125 H 309.236 -4.45183 2.36279 0
M  V30 3126 H 308.838 -2.72901 2.55736 0
M  V30 3127 H 311.13 -5.7041 3.65567 0
M  V30 3128 H 312.073 -5.00431 5.00974 0
M  V30 3129 H 312.481 -4.56151 3.32545 0
M  V30 3130 N 311.879 -1.3236 -0.855495 0
M  V30 3131 C 313.127 -1.22629 -1.60644 0
M  V30 3132 C 313.448 0.212136 -1.93843 0
M  V30 3133 O 312.718 1.13666 -1.59552 0
M  V30 3134 H 311.298 -0.450882 -0.595579 0
M  V30 3135 H 313.96 -1.65871 -1.02337 0
M  V30 3136 H 313.056 -1.80832 -2.54374 0
M  V30 3137 N 313.357 1.07166 -1.15556 0
M  V30 3138 C 314.604 1.79798 -0.931604 0
M  V30 3139 C 314.932 1.8682 0.54115 0
M  V30 3140 O 314.187 1.34942 1.41736 0
M  V30 3141 C 314.486 3.24707 -1.49332 0
M  V30 3142 C 314.152 3.37781 -2.98688 0
M  V30 3143 C 312.814 3.41057 -3.39461 0
M  V30 3144 C 315.166 3.40424 -3.94665 0
M  V30 3145 C 312.494 3.4458 -4.74849 0
M  V30 3146 C 314.846 3.45485 -5.29927 0
M  V30 3147 C 313.51 3.47039 -5.70193 0
M  V30 3148 H 312.78 0.657928 -0.340898 0
M  V30 3149 H 315.427 1.26091 -1.44129 0
M  V30 3150 H 313.732 3.81208 -0.904859 0
M  V30 3151 H 315.429 3.79486 -1.29582 0
M  V30 3152 H 312.019 3.35932 -2.66172 0
M  V30 3153 H 316.203 3.37113 -3.64237 0
M  V30 3154 H 311.459 3.44083 -5.05388 0
M  V30 3155 H 315.633 3.46476 -6.04092 0
M  V30 3156 H 313.26 3.49522 -6.75084 0
M  V30 3157 N 314.835 0.952656 1.25548 0
M  V30 3158 C 316.251 0.656769 1.4546 0
M  V30 3159 C 316.451 -0.78633 1.85524 0
M  V30 3160 O 315.507 -1.56183 1.98402 0
M  V30 3161 C 316.82 1.62801 2.52817 0
M  V30 3162 C 318.368 1.63897 2.66659 0
M  V30 3163 C 318.843 2.5978 3.77198 0
M  V30 3164 N 320.334 2.58133 3.84606 0
M  V30 3165 C 321.069 3.29003 4.69621 0
M  V30 3166 N 320.565 4.09339 5.58939 0
M  V30 3167 N 322.358 3.179 4.63569 0
M  V30 3168 H 314.509 1.88526 0.978344 0
M  V30 3169 H 316.772 0.810815 0.491206 0
M  V30 3170 H 316.478 2.65869 2.30232 0
M  V30 3171 H 316.352 1.38898 3.50695 0
M  V30 3172 H 318.739 0.615481 2.8861 0
M  V30 3173 H 318.82 1.91858 1.69187 0
M  V30 3174 H 318.464 3.62254 3.55997 0
M  V30 3175 H 318.394 2.29105 4.7415 0
M  V30 3176 H 320.885 1.99809 3.20757 0
M  V30 3177 H 321.198 4.6034 6.20731 0
M  V30 3178 H 319.543 4.13438 5.58654 0
M  V30 3179 H 322.734 2.54612 3.92798 0
M  V30 3180 H 322.907 3.73398 5.29602 0
M  V30 3181 N 316.313 -1.40141 0.720998 0
M  V30 3182 C 317.245 -2.29177 0.0324669 0
M  V30 3183 C 318.258 -1.46105 -0.718126 0
M  V30 3184 O 319.447 -1.69335 -0.564608 0
M  V30 3185 C 316.547 -3.24473 -0.978292 0
M  V30 3186 C 315.72 -4.36423 -0.292115 0
M  V30 3187 C 314.779 -5.12122 -1.20901 0
M  V30 3188 O 313.805 -5.64981 -0.691766 0
M  V30 3189 N 315.007 -5.21992 -2.53978 0
M  V30 3190 H 317.772 -2.88909 0.796984 0
M  V30 3191 H 315.333 -1.51569 0.569068 0
M  V30 3192 H 317.325 -3.71987 -1.59398 0
M  V30 3193 H 315.895 -2.65871 -1.64413 0
M  V30 3194 H 315.115 -3.90967 0.503847 0
M  V30 3195 H 316.403 -5.08467 0.183971 0
M  V30 3196 H 315.801 -4.8054 -2.98493 0
M  V30 3197 H 314.358 -5.72995 -3.10677 0
M  V30 3198 N 317.792 -0.46758 -1.50504 0
M  V30 3199 C 318.74 0.342482 -2.30065 0
M  V30 3200 C 319.734 0.993596 -1.37201 0
M  V30 3201 O 320.94 0.925102 -1.54408 0
M  V30 3202 H 317.315 0.129283 -0.740803 0
M  V30 3203 H 319.286 -0.34899 -2.96352 0
M  V30 3204 C 318.035 1.4139 -3.17654 0
M  V30 3205 H 317.358 0.922264 -3.89017 0
M  V30 3206 H 318.798 1.95335 -3.76325 0
M  V30 3207 C 317.257 2.4139 -2.35016 0
M  V30 3208 O 317.787 3.46586 -2.03079 0
M  V30 3209 N 315.993 2.13021 -1.97662 0
M  V30 3210 H 315.54 1.27499 -2.23834 0
M  V30 3211 H 315.498 2.80164 -1.42673 0
M  V30 3212 N 319.27 1.56325 -0.20005 0
M  V30 3213 C 320.202 2.16555 0.750771 0
M  V30 3214 C 321.215 1.12871 1.1732 0
M  V30 3215 O 322.404 1.39943 1.10807 0
M  V30 3216 C 319.504 2.71684 2.02586 0
M  V30 3217 C 318.677 4.00321 1.76244 0
M  V30 3218 C 317.736 4.40227 2.88248 0
M  V30 3219 O 316.762 5.07552 2.57642 0
M  V30 3220 N 317.964 4.04138 4.16717 0
M  V30 3221 H 320.729 2.98772 0.235685 0
M  V30 3222 H 318.29 1.6189 -0.0182594 0
M  V30 3223 H 320.282 2.95363 2.76664 0
M  V30 3224 H 318.852 1.93893 2.45202 0
M  V30 3225 H 318.072 3.84723 0.85919 0
M  V30 3226 H 319.36 4.84279 1.56048 0
M  V30 3227 H 318.758 3.49993 4.44434 0
M  V30 3228 H 317.315 4.32756 4.87407 0
M  V30 3229 N 320.748 -0.0735177 1.57428 0
M  V30 3230 C 321.695 -1.08756 2.0357 0
M  V30 3231 C 322.665 -1.38559 0.916 0
M  V30 3232 O 323.85 -1.49656 1.18354 0
M  V30 3233 C 320.99 -2.39657 2.48311 0
M  V30 3234 C 320.103 -2.16399 3.73892 0
M  V30 3235 C 319.238 -3.40852 4.07423 0
M  V30 3236 C 318.277 -3.1295 5.2605 0
M  V30 3237 N 317.414 -4.29729 5.55228 0
M  V30 3238 H 322.254 -0.687104 2.8997 0
M  V30 3239 H 319.791 -0.327709 1.43403 0
M  V30 3240 H 321.749 -3.16081 2.72303 0
M  V30 3241 H 320.379 -2.77508 1.64891 0
M  V30 3242 H 319.431 -1.30676 3.57251 0
M  V30 3243 H 320.743 -1.91788 4.60455 0
M  V30 3244 H 319.897 -4.25671 4.32306 0
M  V30 3245 H 318.636 -3.68537 3.19425 0
M  V30 3246 H 317.641 -2.26526 5.00965 0
M  V30 3247 H 318.866 -2.86589 6.15665 0
M  V30 3248 H 316.812 -4.57448 4.70188 0
M  V30 3249 H 316.729 -4.08385 6.36206 0
M  V30 3250 H 317.997 -5.1555 5.84661 0
M  V30 3251 N 322.226 -1.5378 -0.344866 0
M  V30 3252 C 323.136 -1.84667 -1.4469 0
M  V30 3253 C 324.152 -0.736704 -1.57635 0
M  V30 3254 O 325.328 -1.02888 -1.73136 0
M  V30 3255 C 322.393 -2.04869 -2.79696 0
M  V30 3256 C 321.454 -3.28731 -2.76106 0
M  V30 3257 C 320.687 -3.4796 -4.04673 0
M  V30 3258 O 320.91 -2.71052 -5.01883 0
M  V30 3259 O 319.844 -4.41383 -4.09224 0
M  V30 3260 H 323.67 -2.78334 -1.21506 0
M  V30 3261 H 321.255 -1.39418 -0.536921 0
M  V30 3262 H 323.137 -2.19609 -3.59652 0
M  V30 3263 H 321.812 -1.14391 -3.02814 0
M  V30 3264 H 320.719 -3.19396 -1.94774 0
M  V30 3265 H 322.052 -4.19198 -2.57941 0
M  V30 3266 N 323.704 0.605807 -1.45491 0
M  V30 3267 C 324.952 1.36207 -1.49305 0
M  V30 3268 C 325.273 1.94519 -0.136863 0
M  V30 3269 O 324.543 1.77261 0.833983 0
M  V30 3270 H 323.123 0.50565 -0.549843 0
M  V30 3271 H 325.785 0.711239 -1.81459 0
M  V30 3272 H 324.881 2.18058 -2.23287 0
M  V30 3273 N 325.182 1.32811 0.848464 0
M  V30 3274 C 326.598 1.11937 1.13764 0
M  V30 3275 C 326.798 -0.0960789 2.01271 0
M  V30 3276 O 325.854 -0.779165 2.40178 0
M  V30 3277 C 327.167 2.402 1.809 0
M  V30 3278 C 328.715 2.46016 1.93508 0
M  V30 3279 C 329.19 3.74215 2.64059 0
M  V30 3280 N 330.681 3.75232 2.71579 0
M  V30 3281 C 331.416 4.71134 3.26833 0
M  V30 3282 N 330.912 5.77406 3.8285 0
M  V30 3283 N 332.705 4.58623 3.24995 0
M  V30 3284 H 324.856 2.1073 0.265855 0
M  V30 3285 H 327.119 0.930671 0.180431 0
M  V30 3286 H 326.825 3.29093 1.24058 0
M  V30 3287 H 326.699 2.51628 2.81004 0
M  V30 3288 H 329.086 1.57577 2.49506 0
M  V30 3289 H 329.167 2.38536 0.923811 0
M  V30 3290 H 328.811 4.63031 2.08722 0
M  V30 3291 H 328.741 3.78968 3.65637 0
M  V30 3292 H 331.232 2.98423 2.31845 0
M  V30 3293 H 331.545 6.46632 4.23187 0
M  V30 3294 H 329.89 5.81152 3.81165 0
M  V30 3295 H 333.081 3.74762 2.80484 0
M  V30 3296 H 333.254 5.33535 3.67756 0
M  V30 3297 N 326.66 -1.06551 1.16123 0
M  V30 3298 C 327.9 -1.80889 0.951766 0
M  V30 3299 C 328.264 -1.85062 -0.511465 0
M  V30 3300 O 329.465 -2.55353 -0.83954 0
M  V30 3301 C 327.736 -3.21609 1.55893 0
M  V30 3302 S 329.295 -4.12593 1.49373 0
M  V30 3303 H 326.113 -0.623156 0.342341 0
M  V30 3304 H 328.715 -1.27943 1.47821 0
M  V30 3305 H 327.419 -3.16165 2.61664 0
M  V30 3306 H 326.95 -3.79631 1.0317 0
M  V30 3307 H 328.965 -4.93753 0.492196 0
M  V30 3308 N 328.138 -0.959301 -1.25041 0
M  V30 3309 C 329.363 -0.633507 -1.97488 0
M  V30 3310 C 329.788 0.788555 -1.70773 0
M  V30 3311 O 329.146 1.53394 -0.966431 0
M  V30 3312 C 329.194 -0.904057 -3.49083 0
M  V30 3313 O 328.298 0.0147939 -4.12397 0
M  V30 3314 H 327.639 -0.240368 -0.618966 0
M  V30 3315 H 330.169 -1.28717 -1.59038 0
M  V30 3316 H 330.179 -0.832203 -3.99423 0
M  V30 3317 H 328.854 -1.94048 -3.67856 0
M  V30 3318 H 327.431 -0.109664 -3.72739 0
M  V30 3319 N 329.616 1.39756 -0.72842 0
M  V30 3320 C 330.566 2.2792 -0.0603424 0
M  V30 3321 C 331.55 1.43922 0.719399 0
M  V30 3322 O 332.742 1.66895 0.589489 0
M  V30 3323 C 329.871 3.32582 0.851104 0
M  V30 3324 C 328.957 4.24049 0.0658641 0
M  V30 3325 N 329.348 4.96653 -0.957578 0
M  V30 3326 C 327.646 4.45013 0.296509 0
M  V30 3327 C 328.347 5.63836 -1.43052 0
M  V30 3328 N 327.323 5.38397 -0.750315 0
M  V30 3329 H 331.125 2.81504 -0.84455 0
M  V30 3330 H 328.639 1.5236 -0.562155 0
M  V30 3331 H 330.636 3.94603 1.34514 0
M  V30 3332 H 329.296 2.80558 1.63454 0
M  V30 3333 H 330.307 5.00297 -1.33877 0
M  V30 3334 H 326.984 4.03943 1.05527 0
M  V30 3335 H 328.374 6.31974 -2.28163 0
M  V30 3336 N 331.094 0.475555 1.50254 0
M  V30 3337 C 332.319 -0.0777042 2.07254 0
M  V30 3338 C 332.744 -1.3235 1.3366 0
M  V30 3339 O 332.102 -1.77152 0.385597 0
M  V30 3340 C 332.15 -0.340169 3.58992 0
M  V30 3341 O 331.254 -1.41982 3.87188 0
M  V30 3342 H 330.595 0.0149556 0.663832 0
M  V30 3343 H 333.125 0.667878 1.93392 0
M  V30 3344 H 333.135 -0.579332 4.03866 0
M  V30 3345 H 331.81 0.570167 4.11973 0
M  V30 3346 H 330.387 -1.16762 3.54148 0
M  V30 3347 N 332.573 -1.56217 0.208337 0
M  V30 3348 C 333.503 -2.22694 -0.702116 0
M  V30 3349 C 334.484 -1.19432 -1.2112 0
M  V30 3350 O 335.669 -1.47978 -1.25762 0
M  V30 3351 C 332.799 -2.8966 -1.9161 0
M  V30 3352 C 331.753 -3.9928 -1.5414 0
M  V30 3353 C 331.079 -4.53476 -2.83308 0
M  V30 3354 C 332.379 -5.17012 -0.741339 0
M  V30 3355 H 334.073 -2.99034 -0.147898 0
M  V30 3356 H 331.619 -1.43831 -0.0696951 0
M  V30 3357 H 333.572 -3.34852 -2.55836 0
M  V30 3358 H 332.296 -2.10746 -2.49507 0
M  V30 3359 H 330.955 -3.54799 -0.922668 0
M  V30 3360 H 330.603 -3.71308 -3.39322 0
M  V30 3361 H 330.303 -5.27451 -2.58976 0
M  V30 3362 H 331.827 -5.01378 -3.485 0
M  V30 3363 H 333.241 -5.58667 -1.28699 0
M  V30 3364 H 331.638 -5.97137 -0.595627 0
M  V30 3365 H 332.708 -4.8423 0.254851 0
M  V30 3366 N 334.051 0.0651679 -1.57465 0
M  V30 3367 C 334.999 1.09542 -2.05191 0
M  V30 3368 C 335.993 1.39675 -0.958509 0
M  V30 3369 O 337.199 1.39003 -1.14359 0
M  V30 3370 H 333.574 0.370623 -0.654326 0
M  V30 3371 H 335.545 0.666802 -2.90854 0
M  V30 3372 C 334.294 2.39881 -2.51699 0
M  V30 3373 H 333.617 2.17547 -3.3543 0
M  V30 3374 H 335.057 3.104 -2.88839 0
M  V30 3375 C 333.516 3.0631 -1.40271 0
M  V30 3376 O 334.046 3.94664 -0.748523 0
M  V30 3377 N 332.252 2.67041 -1.14618 0
M  V30 3378 H 331.799 1.95281 -1.67997 0
M  V30 3379 H 331.757 3.1181 -0.402688 0
M  V30 3380 O 335.568 1.60146 0.208664 0
M  V30 3381 H 336.259 1.74115 0.848742 0
M  V30 END ATOM
M  V30 BEGIN BOND
M  V30 END BOND
M  V30 END CTAB
M  END
$$$$
