drugbank_target|B4YQT9 Gyrase A (DB00537)
 OpenBabel12092121043D

  0  0  0     0  0            999 V3000
M  V30 BEGIN CTAB
M  V30 COUNTS 2364 2386 0 0 0
M  V30 BEGIN ATOM
M  V30 1 H -0.908 1.98254 -0.117106 0
M  V30 2 N 0 1.576 0 0
M  V30 3 C 0.963 2.07369 0.976253 0
M  V30 4 C 1.963 0.98309 1.27248 0
M  V30 5 O 3.153 1.24574 1.21766 0
M  V30 6 C 0.285 2.51514 2.30116 0
M  V30 7 H 1.478 2.94892 0.545759 0
M  V30 8 H -0.969 1.54328 0.247471 0
M  V30 9 H -0.234 1.67234 2.77855 0
M  V30 10 H -0.449 3.31163 2.09937 0
M  V30 11 H 1.041 2.90345 3.00149 0
M  V30 12 N 1.4781 -0.272755 1.55222 0
M  V30 13 C 2.4411 -1.32041 1.87344 0
M  V30 14 C 3.4411 -1.42342 0.74803 0
M  V30 15 O 4.6311 -1.41488 1.0162 0
M  V30 16 C 1.7631 -2.70173 2.07893 0
M  V30 17 H 2.9561 -1.04789 2.80997 0
M  V30 18 H 0.5091 -0.51083 1.47717 0
M  V30 19 H 1.2441 -3.02605 1.16622 0
M  V30 20 H 1.0291 -2.64082 2.89833 0
M  V30 21 H 2.5191 -3.45869 2.34017 0
M  V30 22 N 2.9562 -1.48159 -0.537278 0
M  V30 23 C 3.8892 -1.567 -1.65893 0
M  V30 24 C 4.8672 -0.41787 -1.57139 0
M  V30 25 O 6.0512 -0.628461 -1.77715 0
M  V30 26 C 3.1782 -1.48818 -3.04255 0
M  V30 27 C 2.2242 -2.68482 -3.31391 0
M  V30 28 S 3.0572 -4.30516 -3.1846 0
M  V30 29 C 4.2132 -4.2522 -4.59281 0
M  V30 30 H 4.4462 -2.5159 -1.58397 0
M  V30 31 H 1.9792 -1.36602 -0.719672 0
M  V30 32 H 3.9372 -1.44958 -3.84054 0
M  V30 33 H 2.5982 -0.552777 -3.09198 0
M  V30 34 H 1.7912 -2.59085 -4.32309 0
M  V30 35 H 1.3932 -2.69567 -2.59248 0
M  V30 36 H 3.6852 -3.94703 -5.5065 0
M  V30 37 H 4.6282 -5.26292 -4.73732 0
M  V30 38 H 5.0362 -3.55791 -4.38261 0
M  V30 39 N 4.4343 0.785586 -1.36625 0
M  V30 40 C 5.8503 1.08419 -1.17122 0
M  V30 41 C 6.0503 2.015 0.00208491 0
M  V30 42 O 5.1063 2.43551 0.666278 0
M  V30 43 C 6.4193 1.69498 -2.48377 0
M  V30 44 C 7.9673 1.81821 -2.54775 0
M  V30 45 C 8.4423 2.46315 -3.86126 0
M  V30 46 N 9.9333 2.53779 -3.87492 0
M  V30 47 C 10.6683 3.045 -4.85868 0
M  V30 48 N 10.1643 3.55499 -5.94637 0
M  V30 49 N 11.9573 3.03247 -4.73284 0
M  V30 50 H 4.1083 0.167264 -2.1174 0
M  V30 51 H 6.3713 0.13682 -0.938075 0
M  V30 52 H 6.0773 1.08571 -3.34522 0
M  V30 53 H 5.9513 2.6896 -2.64462 0
M  V30 54 H 8.3383 2.41884 -1.69045 0
M  V30 55 H 8.4193 0.811532 -2.42586 0
M  V30 56 H 8.0633 1.86895 -4.72263 0
M  V30 57 H 7.9933 3.47561 -3.95612 0
M  V30 58 H 10.4843 2.17672 -3.08913 0
M  V30 59 H 10.7973 3.92562 -6.65669 0
M  V30 60 H 9.1423 3.5364 -5.98301 0
M  V30 61 H 12.3333 2.62696 -3.87438 0
M  V30 62 H 12.5063 3.42467 -5.50109 0
M  V30 63 N 5.9124 1.20967 1.01018 0
M  V30 64 C 7.1424 1.04803 1.78044 0
M  V30 65 C 7.5504 -0.405462 1.84804 0
M  V30 66 O 6.8934 -1.2932 1.30468 0
M  V30 67 C 6.9554 1.56377 3.23707 0
M  V30 68 C 6.6194 3.04767 3.40538 0
M  V30 69 C 7.6164 4.02366 3.29239 0
M  V30 70 C 5.3014 3.43862 3.66147 0
M  V30 71 C 7.2954 5.37049 3.43304 0
M  V30 72 C 4.9824 4.78699 3.79855 0
M  V30 73 C 5.9804 5.75101 3.68439 0
M  V30 74 O 5.6684 7.07493 3.81719 0
M  V30 75 H 5.4004 0.368778 0.56655 0
M  V30 76 H 7.9544 1.60642 1.27997 0
M  V30 77 H 6.1844 0.949297 3.74867 0
M  V30 78 H 7.8734 1.36136 3.8239 0
M  V30 79 H 8.6394 3.73506 3.09384 0
M  V30 80 H 4.5184 2.69364 3.74118 0
M  V30 81 H 8.0624 6.12277 3.34309 0
M  V30 82 H 3.9594 5.07247 3.99213 0
M  V30 83 H 4.7274 7.1483 3.98697 0
M  V30 84 N 7.3905 -1.2043 1.01659 0
M  V30 85 C 8.6185 -1.93777 0.725132 0
M  V30 86 C 9.0335 -1.74772 -0.714166 0
M  V30 87 O 8.3905 -1.06169 -1.4844 0
M  V30 88 C 8.4415 -3.45876 1.05129 0
M  V30 89 O 8.1625 -3.6426 2.43406 0
M  V30 90 C 9.6635 -4.36368 0.780891 0
M  V30 91 H 6.8835 -0.615901 0.266284 0
M  V30 92 H 9.4275 -1.52922 1.35776 0
M  V30 93 H 7.5825 -3.8461 0.464065 0
M  V30 94 H 7.9965 -4.58246 2.55169 0
M  V30 95 H 9.4705 -5.41743 1.05918 0
M  V30 96 H 9.9475 -4.38275 -0.284937 0
M  V30 97 H 10.5535 -4.03296 1.35027 0
M  V30 98 N 8.8686 -0.792821 -1.36206 0
M  V30 99 C 9.7786 -0.194808 -2.3379 0
M  V30 100 C 10.7946 0.654869 -1.61206 0
M  V30 101 O 11.9706 0.569856 -1.9317 0
M  V30 102 C 9.0356 0.657721 -3.40404 0
M  V30 103 C 8.0966 -0.210849 -4.28782 0
M  V30 104 C 7.3296 0.601086 -5.30304 0
M  V30 105 O 7.5526 1.83682 -5.40016 0
M  V30 106 O 6.4866 -0.000808277 -6.019 0
M  V30 107 H 10.3126 -1.00172 -2.86704 0
M  V30 108 H 7.8976 -0.554341 -1.38735 0
M  V30 109 H 9.7796 1.14375 -4.05581 0
M  V30 110 H 8.4546 1.44247 -2.89784 0
M  V30 111 H 7.3616 -0.743714 -3.66633 0
M  V30 112 H 8.6946 -0.959195 -4.82763 0
M  V30 113 N 10.3467 1.47872 -0.545128 0
M  V30 114 C 11.3097 2.28337 0.198717 0
M  V30 115 C 12.3097 1.36255 0.853888 0
M  V30 116 O 13.4997 1.59003 0.711606 0
M  V30 117 C 10.6317 3.15585 1.28915 0
M  V30 118 H 11.8247 2.95567 -0.507941 0
M  V30 119 H 9.3777 1.53362 -0.301616 0
M  V30 120 H 10.1127 2.53019 2.02859 0
M  V30 121 H 9.8977 3.83337 0.824309 0
M  V30 122 H 11.3877 3.76243 1.81194 0
M  V30 123 N 11.8248 0.280983 1.55075 0
M  V30 124 C 13.2408 -0.0729964 1.59433 0
M  V30 125 C 13.4408 -1.5411 1.29817 0
M  V30 126 O 12.4968 -2.29086 1.06187 0
M  V30 127 C 13.8098 0.306921 2.9913 0
M  V30 128 C 15.3578 0.254023 3.11968 0
M  V30 129 C 15.8328 0.608467 4.5394 0
M  V30 130 N 17.3238 0.560241 4.59799 0
M  V30 131 C 18.0588 0.80722 5.6769 0
M  V30 132 N 17.5548 1.11912 6.83701 0
M  V30 133 N 19.3478 0.735623 5.57266 0
M  V30 134 H 11.4988 1.238 1.7259 0
M  V30 135 H 13.7618 0.500547 0.805082 0
M  V30 136 H 13.4678 1.32816 3.25657 0
M  V30 137 H 13.3418 -0.349363 3.75579 0
M  V30 138 H 15.7288 -0.75794 2.852 0
M  V30 139 H 15.8098 0.944649 2.37718 0
M  V30 140 H 15.4538 1.61814 4.81434 0
M  V30 141 H 15.3838 -0.104013 5.26497 0
M  V30 142 H 17.8748 0.329288 3.76463 0
M  V30 143 H 18.1878 1.29409 7.61888 0
M  V30 144 H 16.5328 1.15695 6.85303 0
M  V30 145 H 19.7238 0.491752 4.6551 0
M  V30 146 H 19.8968 0.931482 6.4127 0
M  V30 147 N 13.3029 -1.57598 0.00835791 0
M  V30 148 C 14.2329 -2.1198 -0.979113 0
M  V30 149 C 15.2139 -1.03091 -1.35301 0
M  V30 150 O 16.3989 -1.30818 -1.43528 0
M  V30 151 C 13.5289 -2.62995 -2.26828 0
M  V30 152 C 12.4829 -3.76485 -2.03576 0
M  V30 153 C 11.8089 -4.13846 -3.38579 0
M  V30 154 C 13.1089 -5.0342 -1.39161 0
M  V30 155 H 14.8029 -2.94738 -0.526281 0
M  V30 156 H 12.3489 -1.41783 -0.251704 0
M  V30 157 H 14.3019 -2.99669 -2.96271 0
M  V30 158 H 13.0259 -1.7737 -2.7424 0
M  V30 159 H 11.6849 -3.40217 -1.36557 0
M  V30 160 H 11.3329 -3.25232 -3.83709 0
M  V30 161 H 11.0329 -4.90312 -3.23834 0
M  V30 162 H 12.5569 -4.53086 -4.09323 0
M  V30 163 H 13.9709 -5.37812 -1.98573 0
M  V30 164 H 12.3679 -5.84746 -1.34878 0
M  V30 165 H 13.4379 -4.83548 -0.361868 0
M  V30 166 N 14.781 0.264519 -1.55364 0
M  V30 167 C 16.009 1.013 -1.80405 0
M  V30 168 C 16.424 1.79618 -0.581622 0
M  V30 169 O 15.781 1.76879 0.449468 0
M  V30 170 C 15.832 1.96487 -3.03439 0
M  V30 171 O 15.553 1.21341 -4.20961 0
M  V30 172 C 17.054 2.83079 -3.41147 0
M  V30 173 H 14.274 0.298875 -0.600762 0
M  V30 174 H 16.818 0.292736 -2.02394 0
M  V30 175 H 14.973 2.63965 -2.83551 0
M  V30 176 H 15.387 1.85573 -4.90574 0
M  V30 177 H 16.861 3.4565 -4.30384 0
M  V30 178 H 17.338 3.53286 -2.60932 0
M  V30 179 H 17.944 2.2108 -3.63323 0
M  V30 180 N 16.2591 1.48442 0.529413 0
M  V30 181 C 17.6701 1.5002 1.11134 0
M  V30 182 C 18.0211 0.27031 1.94329 0
M  V30 183 O 17.1461 -0.622507 2.07253 0
M  V30 184 C 17.7411 2.71834 2.02217 0
M  V30 185 C 16.3001 2.76283 2.55627 0
M  V30 186 C 15.4471 2.43542 1.326 0
M  V30 187 H 18.3981 1.5555 0.314641 0
M  V30 188 H 18.4191 2.50384 2.8651 0
M  V30 189 H 17.9311 3.61331 1.41639 0
M  V30 190 H 16.0321 1.90995 3.19924 0
M  V30 191 H 16.1451 3.77725 2.94721 0
M  V30 192 H 14.5091 1.94709 1.64196 0
M  V30 193 H 15.2921 3.3528 0.737734 0
M  V30 194 N 17.7372 -0.778329 1.37039 0
M  V30 195 C 18.6672 -1.90546 1.34962 0
M  V30 196 C 19.6482 -1.68681 0.219274 0
M  V30 197 O 20.8332 -1.89634 0.418624 0
M  V30 198 C 17.9632 -3.27734 1.14925 0
M  V30 199 C 16.9172 -3.64147 2.24902 0
M  V30 200 C 16.2432 -4.99806 1.89996 0
M  V30 201 C 17.5432 -3.71579 3.67051 0
M  V30 202 H 19.2372 -1.92541 2.29277 0
M  V30 203 H 16.7832 -0.924948 1.10366 0
M  V30 204 H 18.7362 -4.06215 1.12104 0
M  V30 205 H 17.4602 -3.26154 0.170631 0
M  V30 206 H 16.1192 -2.8797 2.26868 0
M  V30 207 H 15.7672 -4.94759 0.906796 0
M  V30 208 H 15.4672 -5.25139 2.63634 0
M  V30 209 H 16.9912 -5.80694 1.88749 0
M  V30 210 H 18.4052 -4.40227 3.67251 0
M  V30 211 H 16.8022 -4.08405 4.39688 0
M  V30 212 H 17.8722 -2.72404 4.01154 0
M  V30 213 N 19.2153 -1.21501 -1.00376 0
M  V30 214 C 20.1783 -0.976927 -2.07337 0
M  V30 215 C 21.1783 0.0525322 -1.60714 0
M  V30 216 O 22.3683 -0.184869 -1.73216 0
M  V30 217 C 19.5003 -0.473423 -3.37597 0
M  V30 218 H 20.6933 -1.92587 -2.29892 0
M  V30 219 H 18.2463 -1.03217 -1.17371 0
M  V30 220 H 18.9813 0.480379 -3.20722 0
M  V30 221 H 18.7663 -1.216 -3.72768 0
M  V30 222 H 20.2563 -0.32675 -4.1632 0
M  V30 223 N 20.6934 1.19889 -1.02296 0
M  V30 224 C 21.6264 2.21639 -0.543282 0
M  V30 225 C 22.6044 1.57275 0.412698 0
M  V30 226 O 23.7884 1.85568 0.331198 0
M  V30 227 C 20.9154 3.38057 0.208571 0
M  V30 228 C 19.9614 4.20751 -0.697933 0
M  V30 229 S 20.7944 4.89529 -2.17075 0
M  V30 230 C 21.9504 6.09363 -1.42923 0
M  V30 231 H 22.1834 2.61984 -1.40541 0
M  V30 232 H 19.7164 1.30041 -0.832387 0
M  V30 233 H 21.6744 4.05539 0.63624 0
M  V30 234 H 20.3354 2.96159 1.04635 0
M  V30 235 H 19.5284 5.03862 -0.117831 0
M  V30 236 H 19.1304 3.58556 -1.06366 0
M  V30 237 H 21.4224 6.73742 -0.712637 0
M  V30 238 H 22.3654 6.71845 -2.23673 0
M  V30 239 H 22.7734 5.56798 -0.929327 0
M  V30 240 N 22.1715 0.800033 1.35784 0
M  V30 241 C 23.0815 0.207204 2.33683 0
M  V30 242 C 24.0975 -0.64631 1.61551 0
M  V30 243 O 25.2735 -0.559604 1.93469 0
M  V30 244 C 22.3385 -0.639659 3.40748 0
M  V30 245 C 21.3995 0.233585 4.28664 0
M  V30 246 C 20.6325 -0.572954 5.30616 0
M  V30 247 O 20.8555 -1.80816 5.40982 0
M  V30 248 O 19.7895 0.0327285 6.01891 0
M  V30 249 H 23.6155 1.01692 2.86169 0
M  V30 250 H 21.2005 0.561691 1.38439 0
M  V30 251 H 23.0825 -1.12223 4.06182 0
M  V30 252 H 21.7575 -1.42708 2.90544 0
M  V30 253 H 20.6645 0.763147 3.66233 0
M  V30 254 H 21.9975 0.984784 4.82248 0
M  V30 255 N 23.6496 -1.47581 0.552962 0
M  V30 256 C 24.5826 -2.26883 -0.244857 0
M  V30 257 C 25.5606 -1.33784 -0.924147 0
M  V30 258 O 26.7446 -1.6316 -0.943981 0
M  V30 259 C 23.8716 -3.10695 -1.34856 0
M  V30 260 C 22.9176 -4.19339 -0.778268 0
M  V30 261 S 23.7506 -5.34207 0.37184 0
M  V30 262 C 24.9066 -6.21584 -0.733779 0
M  V30 263 H 25.1396 -2.94202 0.428087 0
M  V30 264 H 22.6726 -1.50628 0.339197 0
M  V30 265 H 24.6306 -3.59555 -1.98066 0
M  V30 266 H 23.2916 -2.42746 -1.99332 0
M  V30 267 H 22.4846 -4.77695 -1.60696 0
M  V30 268 H 22.0866 -3.73338 -0.222422 0
M  V30 269 H 24.3786 -6.57676 -1.62692 0
M  V30 270 H 25.3216 -7.07851 -0.187668 0
M  V30 271 H 25.7296 -5.55125 -1.02454 0
M  V30 272 N 25.1277 -0.289203 -1.54924 0
M  V30 273 C 26.0577 0.58549 -2.2604 0
M  V30 274 C 27.0387 1.14753 -1.25562 0
M  V30 275 O 28.2237 1.17906 -1.54311 0
M  V30 276 C 25.3537 1.76305 -2.99222 0
M  V30 277 C 24.3077 1.33191 -4.06748 0
M  V30 278 C 23.6337 2.5937 -4.6758 0
M  V30 279 C 24.9337 0.471775 -5.20165 0
M  V30 280 H 26.6277 -0.00763532 -2.99399 0
M  V30 281 H 24.1737 -0.00511229 -1.43999 0
M  V30 282 H 26.1267 2.38097 -3.47689 0
M  V30 283 H 24.8507 2.38223 -2.23422 0
M  V30 284 H 23.5097 0.737121 -3.59113 0
M  V30 285 H 23.1577 3.19576 -3.88433 0
M  V30 286 H 22.8577 2.31228 -5.40192 0
M  V30 287 H 24.3817 3.21985 -5.18804 0
M  V30 288 H 25.7957 0.995056 -5.64599 0
M  V30 289 H 24.1927 0.284639 -5.99425 0
M  V30 290 H 25.2627 -0.506041 -4.82252 0
M  V30 291 N 26.6058 1.57591 -0.0167156 0
M  V30 292 C 28.0218 1.55946 0.339557 0
M  V30 293 C 28.2218 1.02109 1.73713 0
M  V30 294 O 27.2778 0.662303 2.43659 0
M  V30 295 C 28.5908 3.00037 0.199499 0
M  V30 296 C 30.1388 3.11805 0.273193 0
M  V30 297 C 30.6138 4.57713 0.162068 0
M  V30 298 N 32.1048 4.6268 0.219444 0
M  V30 299 C 32.8398 5.73185 0.157054 0
M  V30 300 N 32.3358 6.92786 0.0442936 0
M  V30 301 N 34.1288 5.61707 0.21014 0
M  V30 302 H 26.2798 1.90921 -0.930758 0
M  V30 303 H 28.5428 0.877674 -0.358319 0
M  V30 304 H 28.2488 3.4333 -0.76273 0
M  V30 305 H 28.1228 3.64387 0.974786 0
M  V30 306 H 30.5098 2.68433 1.22587 0
M  V30 307 H 30.5908 2.50201 -0.532256 0
M  V30 308 H 30.2348 5.01763 -0.78714 0
M  V30 309 H 30.1648 5.17283 0.986222 0
M  V30 310 H 32.6558 3.76649 0.307246 0
M  V30 311 H 32.9688 7.728 0.00304069 0
M  V30 312 H 31.3138 6.94999 0.00968457 0
M  V30 313 H 34.5048 4.6716 0.296546 0
M  V30 314 H 34.6778 6.47807 0.158054 0
M  V30 315 N 28.0839 -0.256276 1.55502 0
M  V30 316 C 28.9939 -1.33882 1.92647 0
M  V30 317 C 30.0099 -1.53159 0.825727 0
M  V30 318 O 31.1859 -1.66963 1.12629 0
M  V30 319 C 28.2509 -2.6751 2.20543 0
M  V30 320 C 27.3119 -2.56836 3.43997 0
M  V30 321 C 26.5449 -3.84092 3.70553 0
M  V30 322 O 26.7679 -4.85545 2.99336 0
M  V30 323 O 25.7019 -3.83288 4.64084 0
M  V30 324 H 29.5279 -1.05374 2.84833 0
M  V30 325 H 27.1129 -0.456237 1.42263 0
M  V30 326 H 28.9949 -3.46492 2.39835 0
M  V30 327 H 27.6699 -2.9577 1.31536 0
M  V30 328 H 26.5769 -1.76172 3.30021 0
M  V30 329 H 27.9099 -2.33523 4.33275 0
M  V30 330 N 29.562 -1.4872 -0.521534 0
M  V30 331 C 30.811 -1.56419 -1.27341 0
M  V30 332 C 31.124 -0.246805 -1.94037 0
M  V30 333 O 32.33 -0.202122 -2.70747 0
M  V30 334 C 30.786 -2.75896 -2.31105 0
M  V30 335 C 30.394 -4.14311 -1.70441 0
M  V30 336 C 32.138 -2.92913 -3.07249 0
M  V30 337 C 30.045 -5.25038 -2.72194 0
M  V30 338 H 28.975 -0.582344 -0.478949 0
M  V30 339 H 31.626 -1.75071 -0.549779 0
M  V30 340 H 30.008 -2.50697 -3.06541 0
M  V30 341 H 31.182 -4.49564 -1.01136 0
M  V30 342 H 29.497 -4.02482 -1.06759 0
M  V30 343 H 32.094 -3.72805 -3.83302 0
M  V30 344 H 32.437 -2.02689 -3.63625 0
M  V30 345 H 32.97 -3.18054 -2.38928 0
M  V30 346 H 29.709 -6.17255 -2.20627 0
M  V30 347 H 29.229 -4.94263 -3.39801 0
M  V30 348 H 30.908 -5.53508 -3.35019 0
M  V30 349 N 31.0401 0.771051 -1.3745 0
M  V30 350 C 32.3171 1.519 -1.23231 0
M  V30 351 C 32.6971 2.10383 0.173809 0
M  V30 352 O 32.0451 1.95583 1.18151 0
M  V30 353 C 32.2551 2.59933 -2.32886 0
M  V30 354 C 33.6031 3.27316 -2.70461 0
M  V30 355 O 34.6271 2.70228 -2.32068 0
M  V30 356 O 33.4861 4.30531 -3.36608 0
M  V30 357 H 30.5801 0.672803 -0.480901 0
M  V30 358 H 33.1261 0.807957 -1.49232 0
M  V30 359 H 31.8981 2.14842 -3.27045 0
M  V30 360 H 31.5211 3.38637 -2.08353 0
M  V30 361 N 32.5182 1.22032 0.997298 0
M  V30 362 C 33.4282 1.00271 2.12092 0
M  V30 363 C 34.4442 -0.047621 1.73935 0
M  V30 364 O 35.6202 0.144136 2.00884 0
M  V30 365 C 32.6852 0.578449 3.4184 0
M  V30 366 C 31.7462 1.70189 3.94125 0
M  V30 367 C 30.9792 1.29778 5.17681 0
M  V30 368 O 31.2022 0.174676 5.70132 0
M  V30 369 O 30.1362 2.11261 5.63607 0
M  V30 370 H 33.9622 1.94398 2.3333 0
M  V30 371 H 31.5472 1.00587 1.10465 0
M  V30 372 H 33.4292 0.351998 4.19927 0
M  V30 373 H 32.1042 -0.334019 3.21972 0
M  V30 374 H 31.0112 1.98282 3.1723 0
M  V30 375 H 32.3442 2.59206 4.18417 0
M  V30 376 N 33.9963 -1.19345 1.0293 0
M  V30 377 C 34.9063 -2.26245 0.620515 0
M  V30 378 C 35.9223 -1.70486 -0.347928 0
M  V30 379 O 37.0983 -2.00347 -0.205704 0
M  V30 380 C 34.1633 -3.46693 -0.0218957 0
M  V30 381 C 33.2243 -4.17632 0.994102 0
M  V30 382 C 32.4573 -5.32329 0.382253 0
M  V30 383 O 32.6803 -5.64552 -0.814676 0
M  V30 384 O 31.6143 -5.91664 1.10531 0
M  V30 385 H 35.4403 -2.63453 1.51083 0
M  V30 386 H 33.0253 -1.26207 0.799513 0
M  V30 387 H 34.9073 -4.19683 -0.380072 0
M  V30 388 H 33.5823 -3.11333 -0.886209 0
M  V30 389 H 32.4893 -3.4676 1.40387 0
M  V30 390 H 33.8223 -4.56964 1.8288 0
M  V30 391 N 35.4744 -0.807222 -1.35358 0
M  V30 392 C 36.7024 -0.400377 -2.02989 0
M  V30 393 C 37.1174 0.988859 -1.60832 0
M  V30 394 O 36.4744 1.63729 -0.806175 0
M  V30 395 C 36.5254 -0.474867 -3.58368 0
M  V30 396 O 36.2464 -1.80933 -3.98992 0
M  V30 397 C 37.7474 -0.0609112 -4.43258 0
M  V30 398 H 34.9674 -0.162587 -0.651004 0
M  V30 399 H 37.5114 -1.09102 -1.72965 0
M  V30 400 H 35.6664 0.167534 -3.87038 0
M  V30 401 H 36.0804 -1.77256 -4.9364 0
M  V30 402 H 37.5544 -0.164145 -5.51756 0
M  V30 403 H 38.0314 0.993831 -4.27808 0
M  V30 404 H 38.6374 -0.676492 -4.19885 0
M  V30 405 N 36.9525 1.47285 -0.560781 0
M  V30 406 C 38.1985 2.02764 -0.0381184 0
M  V30 407 C 38.5315 1.43384 1.30976 0
M  V30 408 O 37.8065 0.590733 1.85312 0
M  V30 409 C 38.0895 3.60064 0.0511427 0
M  V30 410 C 37.9425 4.2987 -1.32408 0
M  V30 411 C 39.2615 4.33439 0.762795 0
M  V30 412 H 36.3805 0.736841 -0.0153264 0
M  V30 413 H 39.0225 1.75675 -0.723759 0
M  V30 414 H 37.1725 3.83274 0.635065 0
M  V30 415 H 38.8445 4.17989 -1.95148 0
M  V30 416 H 37.0875 3.90085 -1.8978 0
M  V30 417 H 37.7585 5.38478 -1.21431 0
M  V30 418 H 40.2345 4.15243 0.266965 0
M  V30 419 H 39.1105 5.43124 0.794221 0
M  V30 420 H 39.3715 4.02915 1.81966 0
M  V30 421 N 38.4306 0.297415 1.54768 0
M  V30 422 C 39.7076 -0.365847 1.92148 0
M  V30 423 C 40.0876 -1.71975 1.22424 0
M  V30 424 O 39.4356 -2.25666 0.358739 0
M  V30 425 C 39.6456 -0.484056 3.45627 0
M  V30 426 C 40.9936 -0.756594 4.17805 0
M  V30 427 O 42.0176 -0.568007 3.51642 0
M  V30 428 O 40.8766 -1.11863 5.34929 0
M  V30 429 H 37.9706 -0.203919 0.801465 0
M  V30 430 H 40.5166 0.34521 1.66152 0
M  V30 431 H 39.2886 0.467865 3.88493 0
M  V30 432 H 38.9116 -1.24372 3.77647 0
M  V30 433 N 39.9087 -1.5758 0.0250728 0
M  V30 434 C 41.1557 -1.91633 -0.654444 0
M  V30 435 C 41.4837 -0.901103 -1.72367 0
M  V30 436 O 40.7387 0.0905647 -1.9549 0
M  V30 437 C 41.0377 -3.32421 -1.31268 0
M  V30 438 C 40.7037 -4.49344 -0.374223 0
M  V30 439 C 39.3657 -4.8106 -0.115911 0
M  V30 440 C 41.7177 -5.20498 0.270432 0
M  V30 441 C 39.0457 -5.8129 0.79493 0
M  V30 442 C 41.3977 -6.21699 1.1693 0
M  V30 443 C 40.0617 -6.51859 1.43655 0
M  V30 444 H 39.3317 -0.701236 -0.239478 0
M  V30 445 H 41.9787 -1.91307 0.0859734 0
M  V30 446 H 40.2837 -3.28989 -2.12775 0
M  V30 447 H 41.9807 -3.56038 -1.84494 0
M  V30 448 H 38.5707 -4.24579 -0.58573 0
M  V30 449 H 42.7547 -4.96229 0.0839194 0
M  V30 450 H 38.0107 -6.03005 1.00973 0
M  V30 451 H 42.1847 -6.75955 1.67504 0
M  V30 452 H 39.8117 -7.2934 2.144 0
M  V30 453 N 41.3868 0.248026 -1.55636 0
M  V30 454 C 42.6358 0.974134 -1.76617 0
M  V30 455 C 42.9488 1.86528 -0.588796 0
M  V30 456 O 44.1548 2.62805 -0.681594 0
M  V30 457 C 42.6108 1.78213 -3.12679 0
M  V30 458 C 42.2188 0.93843 -4.38061 0
M  V30 459 C 43.9628 2.50104 -3.42999 0
M  V30 460 C 41.8698 1.74225 -5.65155 0
M  V30 461 H 40.7998 0.36745 -0.658405 0
M  V30 462 H 43.4508 0.22884 -1.82067 0
M  V30 463 H 41.8328 2.56933 -3.01333 0
M  V30 464 H 43.0068 0.193635 -4.60393 0
M  V30 465 H 41.3218 0.332905 -4.15067 0
M  V30 466 H 43.9188 3.10694 -4.3517 0
M  V30 467 H 44.2618 3.21662 -2.64271 0
M  V30 468 H 44.7948 1.78395 -3.55556 0
M  V30 469 H 41.5338 1.07043 -6.46701 0
M  V30 470 H 41.0538 2.46235 -5.46926 0
M  V30 471 H 42.7328 2.30967 -6.0437 0
M  V30 472 N 42.8649 1.48995 0.513639 0
M  V30 473 C 44.2759 1.5119 1.09537 0
M  V30 474 C 44.6269 0.290906 1.94031 0
M  V30 475 O 43.7519 -0.60049 2.07902 0
M  V30 476 C 44.3469 2.73964 1.99322 0
M  V30 477 C 42.9059 2.78978 2.52682 0
M  V30 478 C 42.0529 2.44934 1.30009 0
M  V30 479 H 45.0039 1.55875 0.298125 0
M  V30 480 H 45.0249 2.53409 2.83838 0
M  V30 481 H 44.5369 3.62813 1.37799 0
M  V30 482 H 42.6379 1.94378 3.1788 0
M  V30 483 H 42.7509 3.8083 2.90698 0
M  V30 484 H 41.1149 1.9644 1.62122 0
M  V30 485 H 41.8979 3.36043 0.702131 0
M  V30 486 N 44.343 -0.763751 1.37857 0
M  V30 487 C 45.291 -1.89864 1.34367 0
M  V30 488 C 46.285 -1.67816 0.231143 0
M  V30 489 O 47.491 -1.75508 0.399617 0
M  V30 490 H 43.866 -0.624501 0.41893 0
M  V30 491 H 45.837 -1.89925 2.30155 0
M  V30 492 C 44.586 -3.27227 1.1755 0
M  V30 493 H 43.909 -3.44773 2.02414 0
M  V30 494 H 45.349 -4.06911 1.1916 0
M  V30 495 C 43.808 -3.36692 -0.118311 0
M  V30 496 O 44.338 -3.86374 -1.09902 0
M  V30 497 N 42.544 -2.90092 -0.171717 0
M  V30 498 H 42.091 -2.49853 0.627012 0
M  V30 499 H 42.049 -2.96806 -1.03699 0
M  V30 500 N 45.8211 -1.22559 -0.990812 0
M  V30 501 C 47.0511 -1.07623 -1.76355 0
M  V30 502 C 47.4591 0.37601 -1.85426 0
M  V30 503 O 46.8021 1.27228 -1.32509 0
M  V30 504 C 46.8641 -1.61507 -3.21179 0
M  V30 505 C 46.5281 -3.10146 -3.35646 0
M  V30 506 C 47.5251 -4.07553 -3.22796 0
M  V30 507 C 45.2101 -3.49644 -3.60631 0
M  V30 508 C 47.2041 -5.42442 -3.34716 0
M  V30 509 C 44.8911 -4.84682 -3.72192 0
M  V30 510 C 45.8891 -5.8089 -3.59243 0
M  V30 511 O 45.5771 -7.13476 -3.70415 0
M  V30 512 H 45.3091 -0.377745 -0.560611 0
M  V30 513 H 47.8631 -1.62658 -1.25425 0
M  V30 514 H 46.0931 -1.00881 -3.73309 0
M  V30 515 H 47.7821 -1.42202 -3.80175 0
M  V30 516 H 48.5481 -3.78381 -3.03403 0
M  V30 517 H 44.4271 -2.75282 -3.69785 0
M  V30 518 H 47.9711 -6.17518 -3.24526 0
M  V30 519 H 43.8681 -5.13534 -3.91092 0
M  V30 520 H 44.6361 -7.21083 -3.87275 0
M  V30 521 N 47.2992 1.18797 -1.03562 0
M  V30 522 C 48.5762 1.84469 -0.650434 0
M  V30 523 C 48.9562 1.92319 0.870433 0
M  V30 524 O 48.3042 1.44528 1.76986 0
M  V30 525 C 48.5142 3.2306 -1.32036 0
M  V30 526 C 49.8622 3.9915 -1.44792 0
M  V30 527 O 50.8862 3.32481 -1.27806 0
M  V30 528 O 49.7452 5.18587 -1.72423 0
M  V30 529 H 46.8392 0.795251 -0.226946 0
M  V30 530 H 49.3852 1.26231 -1.13419 0
M  V30 531 H 48.1572 3.1222 -2.3587 0
M  V30 532 H 47.7802 3.88949 -0.8249 0
M  V30 533 N 48.7773 0.814389 1.34928 0
M  V30 534 C 50.0253 0.397636 1.9815 0
M  V30 535 C 50.3463 -1.04069 1.64908 0
M  V30 536 O 49.6163 -1.72121 0.93548 0
M  V30 537 H 48.1963 0.144043 0.732981 0
M  V30 538 H 50.8583 1.04195 1.6471 0
M  V30 539 H 49.9543 0.509688 3.0791 0
M  V30 540 N 50.2554 -1.46986 0.568584 0
M  V30 541 C 51.6714 -1.57946 0.229189 0
M  V30 542 C 51.8714 -1.56567 -1.26843 0
M  V30 543 O 50.9274 -1.47511 -2.04931 0
M  V30 544 C 52.2404 -2.87963 0.865909 0
M  V30 545 C 53.7884 -3.01568 0.838188 0
M  V30 546 C 54.2634 -4.34301 1.45419 0
M  V30 547 N 55.7544 -4.40965 1.41788 0
M  V30 548 C 56.4894 -5.42256 1.86403 0
M  V30 549 N 55.9854 -6.50297 2.38926 0
M  V30 550 N 57.7784 -5.3337 1.77405 0
M  V30 551 H 49.9294 -1.46126 1.54146 0
M  V30 552 H 52.1924 -0.696156 0.643484 0
M  V30 553 H 51.8984 -2.94742 1.91886 0
M  V30 554 H 51.7724 -3.75423 0.365687 0
M  V30 555 H 54.1594 -2.94379 -0.206106 0
M  V30 556 H 54.2404 -2.1562 1.37629 0
M  V30 557 H 53.8844 -4.42247 2.49761 0
M  V30 558 H 53.8144 -5.19 0.891435 0
M  V30 559 H 56.3054 -3.63484 1.03381 0
M  V30 560 H 56.6184 -7.23777 2.70863 0
M  V30 561 H 54.9634 -6.51155 2.42944 0
M  V30 562 H 58.1544 -4.47865 1.3614 0
M  V30 563 H 58.3274 -6.12169 2.12492 0
M  V30 564 N 51.7335 -0.305618 -1.54608 0
M  V30 565 C 52.9795 0.302746 -2.00528 0
M  V30 566 C 53.3125 1.53184 -1.19367 0
M  V30 567 O 52.5875 1.92598 -0.271321 0
M  V30 568 C 52.8705 0.654756 -3.54097 0
M  V30 569 C 52.7235 -0.583793 -4.45995 0
M  V30 570 C 54.0425 1.47947 -4.14487 0
M  V30 571 H 51.1615 0.108564 -0.72896 0
M  V30 572 H 53.8035 -0.418634 -1.85331 0
M  V30 573 H 51.9535 1.26935 -3.67178 0
M  V30 574 H 53.6255 -1.22224 -4.44814 0
M  V30 575 H 51.8685 -1.21615 -4.16404 0
M  V30 576 H 52.5395 -0.293287 -5.5122 0
M  V30 577 H 55.0155 0.96013 -4.04871 0
M  V30 578 H 53.8915 1.69454 -5.22088 0
M  V30 579 H 54.1525 2.47011 -3.66658 0
M  V30 580 N 53.2116 1.57565 -0.0334293 0
M  V30 581 C 54.1436 2.0739 0.975811 0
M  V30 582 C 55.1566 0.998166 1.2861 0
M  V30 583 O 56.3456 1.27426 1.25 0
M  V30 584 C 53.4456 2.4871 2.30209 0
M  V30 585 C 52.6186 3.79413 2.17634 0
M  V30 586 C 51.6776 4.07237 3.33233 0
M  V30 587 O 50.7036 4.77425 3.09927 0
M  V30 588 N 51.9056 3.5775 4.5716 0
M  V30 589 H 54.6706 2.94598 0.55066 0
M  V30 590 H 52.2316 1.61173 0.15323 0
M  V30 591 H 54.2236 2.64413 3.06378 0
M  V30 592 H 52.7936 1.66845 2.64351 0
M  V30 593 H 52.0136 3.73465 1.26165 0
M  V30 594 H 53.3016 4.65038 2.0644 0
M  V30 595 H 52.6996 3.00976 4.78989 0
M  V30 596 H 51.2566 3.78724 5.30482 0
M  V30 597 N 54.6897 -0.239769 1.55765 0
M  V30 598 C 55.5997 -1.31831 1.94056 0
M  V30 599 C 56.6157 -1.52275 0.841925 0
M  V30 600 O 57.7917 -1.65759 1.14394 0
M  V30 601 C 54.8567 -2.65156 2.23368 0
M  V30 602 C 53.9177 -2.53173 3.46701 0
M  V30 603 C 53.1507 -3.8014 3.74606 0
M  V30 604 O 53.3737 -4.82343 3.04469 0
M  V30 605 O 52.3077 -3.78344 4.68123 0
M  V30 606 H 56.1337 -1.02347 2.85935 0
M  V30 607 H 53.7187 -0.441123 1.42739 0
M  V30 608 H 55.6007 -3.43929 2.43497 0
M  V30 609 H 54.2757 -2.94358 1.34666 0
M  V30 610 H 53.1827 -1.72662 3.31871 0
M  V30 611 H 54.5157 -2.28915 4.35728 0
M  V30 612 N 56.1678 -1.49265 -0.50573 0
M  V30 613 C 57.5788 -1.51769 -1.08734 0
M  V30 614 C 57.9298 -0.301192 -1.93874 0
M  V30 615 O 57.0548 0.589456 -2.08217 0
M  V30 616 C 57.6498 -2.75017 -1.97867 0
M  V30 617 C 56.2088 -2.80314 -2.51199 0
M  V30 618 C 55.3558 -2.4562 -1.28709 0
M  V30 619 H 58.3068 -1.56031 -0.289855 0
M  V30 620 H 58.3278 -2.5491 -2.82491 0
M  V30 621 H 57.8398 -3.63539 -1.35873 0
M  V30 622 H 55.9408 -1.96061 -3.16845 0
M  V30 623 H 56.0538 -3.82366 -2.88675 0
M  V30 624 H 54.4178 -1.97297 -1.61078 0
M  V30 625 H 55.2008 -3.36411 -0.6843 0
M  V30 626 N 57.6459 0.756429 -1.3826 0
M  V30 627 C 58.8739 1.54565 -1.3754 0
M  V30 628 C 59.2889 1.88767 0.0355331 0
M  V30 629 O 58.6459 1.52572 1.0014 0
M  V30 630 C 58.6969 2.84654 -2.22833 0
M  V30 631 O 58.4179 2.51912 -3.5843 0
M  V30 632 C 59.9189 3.78807 -2.30261 0
M  V30 633 H 57.1389 0.478353 -0.470553 0
M  V30 634 H 59.6829 0.936381 -1.81803 0
M  V30 635 H 57.8379 3.41965 -1.8204 0
M  V30 636 H 58.2519 3.35325 -4.03308 0
M  V30 637 H 59.7259 4.67045 -2.94233 0
M  V30 638 H 60.2029 4.19038 -1.31545 0
M  V30 639 H 60.8089 3.2742 -2.71433 0
M  V30 640 N 59.124 1.23083 0.984299 0
M  V30 641 C 60.37 1.06214 1.72761 0
M  V30 642 C 60.703 -0.400584 1.90024 0
M  V30 643 O 59.978 -1.29672 1.44967 0
M  V30 644 C 60.261 1.78375 3.12817 0
M  V30 645 C 60.114 3.32296 3.03149 0
M  V30 646 C 61.433 1.54309 4.12161 0
M  V30 647 H 58.552 0.387251 0.627061 0
M  V30 648 H 61.194 1.51536 1.14616 0
M  V30 649 H 59.344 1.39848 3.62457 0
M  V30 650 H 61.016 3.8032 2.61064 0
M  V30 651 H 59.259 3.6153 2.39747 0
M  V30 652 H 59.93 3.77972 4.02295 0
M  V30 653 H 62.406 1.87791 3.71314 0
M  V30 654 H 61.282 2.07281 5.08258 0
M  V30 655 H 61.543 0.477572 4.39513 0
M  V30 656 N 60.6021 -1.18246 1.0419 0
M  V30 657 C 61.5321 -2.24127 0.654914 0
M  V30 658 C 62.5131 -1.66617 -0.342451 0
M  V30 659 O 63.6981 -1.92924 -0.222277 0
M  V30 660 C 60.8281 -3.47295 0.0183757 0
M  V30 661 C 59.7821 -4.17563 0.939414 0
M  V30 662 C 59.1081 -5.34438 0.167286 0
M  V30 663 C 60.4081 -4.70917 2.25908 0
M  V30 664 H 62.1021 -2.56753 1.54007 0
M  V30 665 H 59.6481 -1.23414 0.74195 0
M  V30 666 H 61.6011 -4.20572 -0.264082 0
M  V30 667 H 60.3251 -3.13907 -0.901664 0
M  V30 668 H 58.9841 -3.46186 1.20628 0
M  V30 669 H 58.6321 -4.97298 -0.7552 0
M  V30 670 H 58.3321 -5.82388 0.780901 0
M  V30 671 H 59.8561 -6.10504 -0.108125 0
M  V30 672 H 61.2701 -5.35882 2.03724 0
M  V30 673 H 59.6671 -5.29406 2.82577 0
M  V30 674 H 60.7371 -3.88272 2.9047 0
M  V30 675 N 62.0802 -0.821533 -1.34494 0
M  V30 676 C 63.4912 -0.467956 -1.8074 0
M  V30 677 C 63.8422 1.01151 -1.68116 0
M  V30 678 O 62.9672 1.78707 -1.22036 0
M  V30 679 C 63.5622 -0.842627 -3.28154 0
M  V30 680 C 62.1212 -0.541439 -3.72485 0
M  V30 681 C 61.2682 -1.06028 -2.56229 0
M  V30 682 H 64.2192 -1.01183 -1.22261 0
M  V30 683 H 64.2402 -0.145876 -3.8022 0
M  V30 684 H 63.7522 -1.91945 -3.37311 0
M  V30 685 H 61.8532 0.526034 -3.68868 0
M  V30 686 H 61.9662 -1.08453 -4.66663 0
M  V30 687 H 60.3302 -0.481892 -2.501 0
M  V30 688 H 61.1132 -2.14352 -2.68157 0
M  V30 689 N 63.5583 1.46682 -0.576371 0
M  V30 690 C 64.7833 2.07304 -0.0630475 0
M  V30 691 C 65.2083 1.42329 1.2298 0
M  V30 692 O 64.5663 0.504865 1.74129 0
M  V30 693 C 64.6143 3.60472 0.095895 0
M  V30 694 O 63.7183 3.95927 1.15394 0
M  V30 695 H 63.0593 0.661288 -0.0599463 0
M  V30 696 H 65.5893 1.88417 -0.797511 0
M  V30 697 H 65.5993 4.06865 0.304071 0
M  V30 698 H 64.2743 4.07157 -0.84828 0
M  V30 699 H 62.8513 3.61252 0.924724 0
M  V30 700 N 65.0364 0.313813 1.54444 0
M  V30 701 C 66.4524 -0.0391619 1.59552 0
M  V30 702 C 66.6524 -1.51322 1.33056 0
M  V30 703 O 65.7084 -2.26782 1.11022 0
M  V30 704 C 67.0214 0.370302 2.98411 0
M  V30 705 C 68.5694 0.320139 3.11358 0
M  V30 706 C 69.0444 0.704617 4.52547 0
M  V30 707 N 70.5354 0.657645 4.58508 0
M  V30 708 C 71.2704 0.927453 5.6585 0
M  V30 709 N 70.7664 1.26389 6.81174 0
M  V30 710 N 72.5594 0.853662 5.5558 0
M  V30 711 H 64.7104 1.27433 1.69925 0
M  V30 712 H 66.9734 0.517511 0.794284 0
M  V30 713 H 66.6794 1.39694 3.22767 0
M  V30 714 H 66.5534 -0.269619 3.76235 0
M  V30 715 H 68.9404 -0.697275 2.86744 0
M  V30 716 H 69.0214 0.99486 2.35661 0
M  V30 717 H 68.6654 1.7199 4.77893 0
M  V30 718 H 68.5954 0.00768843 5.26599 0
M  V30 719 H 71.0864 0.409067 3.75679 0
M  V30 720 H 71.3994 1.4554 7.58972 0
M  V30 721 H 69.7444 1.30206 6.82694 0
M  V30 722 H 72.9354 0.590383 4.64362 0
M  V30 723 H 73.1084 1.0673 6.3915 0
M  V30 724 N 66.5145 -1.57545 0.0417849 0
M  V30 725 C 67.7615 -1.92317 -0.634082 0
M  V30 726 C 68.0895 -0.919334 -1.71402 0
M  V30 727 O 67.3445 0.0698253 -1.95575 0
M  V30 728 C 67.6435 -3.33794 -1.27735 0
M  V30 729 C 67.3095 -4.49716 -0.326543 0
M  V30 730 C 65.9715 -4.81156 -0.0648814 0
M  V30 731 C 68.3235 -5.20182 0.325623 0
M  V30 732 C 65.6515 -5.80414 0.856539 0
M  V30 733 C 68.0035 -6.20424 1.23518 0
M  V30 734 C 66.6675 -6.50298 1.5056 0
M  V30 735 H 65.9375 -0.703736 -0.232027 0
M  V30 736 H 68.5845 -1.91205 0.106259 0
M  V30 737 H 66.8895 -3.31228 -2.09274 0
M  V30 738 H 68.5865 -3.57975 -1.80707 0
M  V30 739 H 65.1765 -4.25176 -0.540665 0
M  V30 740 H 69.3605 -4.96112 0.136546 0
M  V30 741 H 64.6165 -6.019 1.07363 0
M  V30 742 H 68.7905 -6.74141 1.74664 0
M  V30 743 H 66.4175 -7.27025 2.22123 0
M  V30 744 N 67.9926 0.231505 -1.5589 0
M  V30 745 C 69.4036 0.799327 -1.68724 0
M  V30 746 C 69.7546 1.85398 -0.642022 0
M  V30 747 O 68.8796 2.1539 0.208784 0
M  V30 748 C 69.4746 1.45664 -3.05888 0
M  V30 749 C 68.0336 1.97197 -3.20609 0
M  V30 750 C 67.1806 0.828552 -2.64632 0
M  V30 751 H 70.1316 0.00702616 -1.58698 0
M  V30 752 H 70.1526 2.32517 -3.01191 0
M  V30 753 H 69.6646 0.688808 -3.81939 0
M  V30 754 H 67.7656 2.76813 -2.4941 0
M  V30 755 H 67.8786 2.15878 -4.27707 0
M  V30 756 H 66.2426 1.23321 -2.22854 0
M  V30 757 H 67.0256 0.0735544 -3.43221 0
M  V30 758 N 69.4707 1.49531 0.497807 0
M  V30 759 C 70.4187 1.66926 1.61983 0
M  V30 760 C 71.4127 0.535167 1.60724 0
M  V30 761 O 72.6187 0.714896 1.65195 0
M  V30 762 H 68.9937 0.526415 0.537021 0
M  V30 763 H 70.9647 2.61098 1.44465 0
M  V30 764 C 69.7137 1.75602 3.00099 0
M  V30 765 H 69.0367 2.62244 3.01775 0
M  V30 766 H 70.4767 1.91807 3.78135 0
M  V30 767 C 68.9357 0.501543 3.33146 0
M  V30 768 O 69.4657 -0.371342 3.9998 0
M  V30 769 N 67.6717 0.363531 2.88317 0
M  V30 770 H 67.2187 1.07485 2.34104 0
M  V30 771 H 67.1767 -0.474728 3.10795 0
M  V30 772 N 70.9488 -0.749086 1.3866 0
M  V30 773 C 71.8788 -1.8764 1.38973 0
M  V30 774 C 72.8598 -1.68178 0.255004 0
M  V30 775 O 74.0448 -1.88704 0.458754 0
M  V30 776 C 71.1748 -3.25222 1.21851 0
M  V30 777 C 70.1288 -3.59295 2.32575 0
M  V30 778 C 69.4548 -4.95663 2.00555 0
M  V30 779 C 70.7548 -3.63709 3.7485 0
M  V30 780 H 72.4488 -1.87635 2.3331 0
M  V30 781 H 69.9948 -0.901329 1.12303 0
M  V30 782 H 71.9478 -4.03746 1.20695 0
M  V30 783 H 70.6718 -3.25719 0.239775 0
M  V30 784 H 69.3308 -2.83093 2.32925 0
M  V30 785 H 68.9788 -4.92724 1.01154 0
M  V30 786 H 68.6788 -5.19429 2.74714 0
M  V30 787 H 70.2028 -5.7656 2.01024 0
M  V30 788 H 71.6168 -4.32338 3.76506 0
M  V30 789 H 70.0138 -3.98986 4.48252 0
M  V30 790 H 71.0838 -2.63834 4.06841 0
M  V30 791 N 72.4269 -1.23603 -0.977757 0
M  V30 792 C 73.3569 -1.04401 -2.0886 0
M  V30 793 C 74.3379 0.0399052 -1.70053 0
M  V30 794 O 75.5229 -0.125246 -1.93796 0
M  V30 795 C 72.6529 -0.637269 -3.41403 0
M  V30 796 C 71.6069 -1.66883 -3.94124 0
M  V30 797 C 70.9329 -1.11745 -5.22893 0
M  V30 798 C 72.2329 -3.06247 -4.23096 0
M  V30 799 H 73.9269 -1.97316 -2.25182 0
M  V30 800 H 71.4729 -0.950096 -1.08209 0
M  V30 801 H 73.4259 -0.48998 -4.18542 0
M  V30 802 H 72.1499 0.327557 -3.24953 0
M  V30 803 H 70.8089 -1.80416 -3.19133 0
M  V30 804 H 70.4569 -0.143527 -5.02795 0
M  V30 805 H 70.1569 -1.80672 -5.59134 0
M  V30 806 H 71.6809 -0.982067 -6.02651 0
M  V30 807 H 73.0949 -2.96001 -4.90975 0
M  V30 808 H 71.4919 -3.72436 -4.70544 0
M  V30 809 H 72.5619 -3.55041 -3.30263 0
M  V30 810 N 73.905 1.17692 -1.04816 0
M  V30 811 C 74.868 2.19787 -0.650117 0
M  V30 812 C 75.868 1.58044 0.296427 0
M  V30 813 O 77.058 1.74012 0.0808097 0
M  V30 814 C 74.19 3.40869 0.0456987 0
M  V30 815 H 75.383 2.56516 -1.5537 0
M  V30 816 H 72.936 1.31708 -0.841594 0
M  V30 817 H 73.671 3.09681 0.962726 0
M  V30 818 H 73.456 3.86928 -0.634727 0
M  V30 819 H 74.946 4.16445 0.310432 0
M  V30 820 N 75.3831 0.828654 1.34056 0
M  V30 821 C 76.3311 0.242973 2.31327 0
M  V30 822 C 77.3251 -0.61944 1.57668 0
M  V30 823 O 78.5311 -0.51014 1.7262 0
M  V30 824 H 74.9061 0.059834 0.749616 0
M  V30 825 H 76.8771 1.07809 2.78244 0
M  V30 826 C 75.6261 -0.575733 3.429 0
M  V30 827 H 74.9491 0.0785582 3.99723 0
M  V30 828 H 76.3891 -0.951547 4.13185 0
M  V30 829 C 74.8481 -1.75044 2.87856 0
M  V30 830 O 75.3781 -2.84882 2.83205 0
M  V30 831 N 73.5841 -1.56903 2.44602 0
M  V30 832 H 73.1311 -0.675547 2.48584 0
M  V30 833 H 73.0891 -2.35652 2.08124 0
M  V30 834 N 76.8612 -1.46375 0.584142 0
M  V30 835 C 78.1092 -2.01978 0.0701287 0
M  V30 836 C 78.4302 -1.4579 -1.295 0
M  V30 837 O 77.7002 -0.64314 -1.85042 0
M  V30 838 H 76.2802 -0.746648 0.0229345 0
M  V30 839 H 78.9422 -1.79461 0.760245 0
M  V30 840 H 78.0382 -3.121 0.0022064 0
M  V30 841 N 78.3393 -0.321999 -1.54275 0
M  V30 842 C 79.5643 0.285791 -2.05422 0
M  V30 843 C 79.9893 1.45124 -1.19669 0
M  V30 844 O 79.3473 1.80132 -0.205441 0
M  V30 845 C 79.3953 0.69956 -3.53749 0
M  V30 846 O 78.4993 1.8021 -3.70942 0
M  V30 847 H 77.8403 0.0518962 -0.661969 0
M  V30 848 H 80.3703 -0.469954 -1.9913 0
M  V30 849 H 80.3803 0.982649 -3.9599 0
M  V30 850 H 79.0553 -0.152864 -4.15619 0
M  V30 851 H 77.6323 1.51794 -3.40607 0
M  V30 852 N 79.8174 1.5752 -0.0501392 0
M  V30 853 C 81.0654 1.9227 0.622642 0
M  V30 854 C 81.3864 0.929083 1.71444 0
M  V30 855 O 80.6564 -0.0262186 1.95882 0
M  V30 856 H 79.2364 0.709739 0.232981 0
M  V30 857 H 81.8984 1.94628 -0.102898 0
M  V30 858 H 80.9944 2.93479 1.06191 0
M  V30 859 N 81.2955 -0.223234 1.56011 0
M  V30 860 C 82.5435 -0.946003 1.78592 0
M  V30 861 C 82.8645 -1.84936 0.618349 0
M  V30 862 O 82.1345 -1.92473 -0.364833 0
M  V30 863 H 80.7145 -0.352298 0.658707 0
M  V30 864 H 83.3765 -0.235494 1.93472 0
M  V30 865 H 82.4725 -1.55381 2.70672 0
M  V30 866 N 82.7736 -1.49793 -0.48987 0
M  V30 867 C 84.0226 -1.59085 -1.23995 0
M  V30 868 C 84.3356 -0.287907 -1.9347 0
M  V30 869 O 85.5416 -0.259506 -2.70257 0
M  V30 870 C 83.9976 -2.80736 -2.252 0
M  V30 871 C 83.6056 -4.17833 -1.61614 0
M  V30 872 C 85.3496 -2.99364 -3.00967 0
M  V30 873 C 83.2566 -5.30693 -2.60996 0
M  V30 874 H 82.1866 -0.592372 -0.466488 0
M  V30 875 H 84.8376 -1.76197 -0.51252 0
M  V30 876 H 83.2196 -2.57142 -3.01154 0
M  V30 877 H 84.3936 -4.51608 -0.915774 0
M  V30 878 H 82.7086 -4.04656 -0.981977 0
M  V30 879 H 85.3056 -3.80851 -3.75308 0
M  V30 880 H 85.6486 -2.10356 -3.59244 0
M  V30 881 H 86.1816 -3.2305 -2.32128 0
M  V30 882 H 82.9206 -6.21796 -2.07485 0
M  V30 883 H 82.4406 -5.01359 -3.2924 0
M  V30 884 H 84.1196 -5.6049 -3.23202 0
M  V30 885 N 84.2517 0.741722 -1.39055 0
M  V30 886 C 85.2147 1.83733 -1.37021 0
M  V30 887 C 86.2147 1.58542 -0.268534 0
M  V30 888 O 87.4047 1.66067 -0.526076 0
M  V30 889 C 84.5367 3.2141 -1.13617 0
M  V30 890 H 85.7297 1.86941 -2.34506 0
M  V30 891 H 83.2827 0.944676 -1.24521 0
M  V30 892 H 84.0177 3.23865 -0.167863 0
M  V30 893 H 83.8027 3.4109 -1.93391 0
M  V30 894 H 85.2927 4.01477 -1.14918 0
M  V30 895 N 85.7298 1.2412 0.971189 0
M  V30 896 C 86.9758 1.08041 1.71625 0
M  V30 897 C 87.3088 -0.380407 1.90438 0
M  V30 898 O 86.5838 -1.28127 1.46334 0
M  V30 899 C 86.8668 1.81682 3.10908 0
M  V30 900 C 86.7198 3.35493 2.99608 0
M  V30 901 C 88.0388 1.58671 4.10501 0
M  V30 902 H 85.1578 0.39388 0.622919 0
M  V30 903 H 87.7998 1.52743 1.13003 0
M  V30 904 H 85.9498 1.43684 3.60953 0
M  V30 905 H 87.6218 3.83068 2.57015 0
M  V30 906 H 85.8648 3.64052 2.35899 0
M  V30 907 H 86.5358 3.82217 3.98264 0
M  V30 908 H 89.0118 1.91719 3.69301 0
M  V30 909 H 87.8878 2.1266 5.06031 0
M  V30 910 H 88.1488 0.524161 4.38982 0
M  V30 911 N 87.2079 -1.17134 1.05439 0
M  V30 912 C 88.4559 -1.87085 0.764429 0
M  V30 913 C 88.7769 -1.81584 -0.710787 0
M  V30 914 O 88.0469 -1.24349 -1.51374 0
M  V30 915 H 86.6269 -0.692627 0.279779 0
M  V30 916 H 89.2889 -1.42087 1.33406 0
M  V30 917 H 88.3849 -2.92759 1.0816 0
M  V30 918 N 88.686 -0.835752 -1.33615 0
M  V30 919 C 89.619 -0.211815 -2.27215 0
M  V30 920 C 90.597 0.639249 -1.49507 0
M  V30 921 O 91.781 0.600193 -1.78689 0
M  V30 922 C 88.908 0.702893 -3.31326 0
M  V30 923 C 87.954 -0.0723049 -4.26439 0
M  V30 924 S 88.787 -1.42811 -5.16106 0
M  V30 925 C 89.943 -0.518613 -6.23748 0
M  V30 926 H 90.176 -1.00533 -2.79786 0
M  V30 927 H 87.709 -0.632336 -1.40858 0
M  V30 928 H 89.667 1.22505 -3.91794 0
M  V30 929 H 88.328 1.47004 -2.77576 0
M  V30 930 H 87.521 0.62359 -5.00127 0
M  V30 931 H 87.123 -0.525424 -3.70291 0
M  V30 932 H 89.415 0.284778 -6.76901 0
M  V30 933 H 90.358 -1.22556 -6.97413 0
M  V30 934 H 90.766 -0.101344 -5.64409 0
M  V30 935 N 90.1641 1.46063 -0.591896 0
M  V30 936 C 91.1271 2.28854 0.125973 0
M  V30 937 C 92.1271 1.38903 0.810107 0
M  V30 938 O 93.3171 1.61186 0.66066 0
M  V30 939 C 90.4491 3.19526 1.1881 0
M  V30 940 H 91.6421 2.93802 -0.601717 0
M  V30 941 H 89.1951 1.52325 -0.350254 0
M  V30 942 H 89.9301 2.59345 1.94707 0
M  V30 943 H 89.7151 3.85766 0.701936 0
M  V30 944 H 91.2051 3.81817 1.69132 0
M  V30 945 N 91.6422 0.330177 1.54103 0
M  V30 946 C 92.8702 -0.272179 2.05102 0
M  V30 947 C 93.2852 -1.45267 1.20595 0
M  V30 948 O 92.6422 -1.8094 0.238144 0
M  V30 949 C 92.6932 -0.70023 3.54653 0
M  V30 950 O 92.4142 0.433301 4.35952 0
M  V30 951 C 93.9152 -1.3647 4.21771 0
M  V30 952 H 91.1352 -0.0549159 0.668749 0
M  V30 953 H 93.6792 0.478285 1.98828 0
M  V30 954 H 91.8342 -1.40066 3.61193 0
M  V30 955 H 92.2482 0.0947539 5.24414 0
M  V30 956 H 93.7222 -1.61509 5.27843 0
M  V30 957 H 94.1992 -2.31409 3.73292 0
M  V30 958 H 94.8052 -0.706675 4.19388 0
M  V30 959 N 93.1203 -1.57491 0.0584922 0
M  V30 960 C 94.0683 -2.13148 -0.931168 0
M  V30 961 C 95.0623 -1.06507 -1.31729 0
M  V30 962 O 96.2683 -1.24906 -1.29609 0
M  V30 963 H 92.6433 -0.68137 -0.31818 0
M  V30 964 H 94.6143 -2.95187 -0.436707 0
M  V30 965 C 93.3633 -2.69732 -2.19408 0
M  V30 966 H 92.6863 -3.51454 -1.90578 0
M  V30 967 H 94.1263 -3.12287 -2.86798 0
M  V30 968 C 92.5853 -1.63855 -2.94369 0
M  V30 969 O 93.1153 -1.05565 -3.87581 0
M  V30 970 N 91.3213 -1.35202 -2.57233 0
M  V30 971 H 90.8683 -1.82791 -1.81508 0
M  V30 972 H 90.8263 -0.645922 -3.07693 0
M  V30 973 N 94.5984 0.214957 -1.56127 0
M  V30 974 C 95.8474 0.936451 -1.78643 0
M  V30 975 C 96.1604 1.85237 -0.628229 0
M  V30 976 O 97.3664 2.613 -0.737186 0
M  V30 977 C 95.8224 1.7154 -3.16389 0
M  V30 978 C 95.4304 0.845299 -4.39953 0
M  V30 979 C 97.1744 2.42772 -3.48227 0
M  V30 980 C 95.0814 1.62198 -5.68723 0
M  V30 981 H 94.0114 0.353401 -0.666051 0
M  V30 982 H 96.6624 0.190169 -1.82512 0
M  V30 983 H 95.0444 2.50484 -3.06715 0
M  V30 984 H 96.2184 0.0959353 -4.607 0
M  V30 985 H 94.5334 0.244789 -4.1568 0
M  V30 986 H 97.1304 3.01394 -4.41663 0
M  V30 987 H 97.4734 3.15984 -2.71035 0
M  V30 988 H 98.0064 1.70813 -3.5926 0
M  V30 989 H 94.7454 0.933011 -6.48826 0
M  V30 990 H 94.2654 2.34579 -5.52026 0
M  V30 991 H 95.9444 2.18095 -6.09133 0
M  V30 992 N 96.0765 1.50051 0.48192 0
M  V30 993 C 97.4875 1.5348 1.06305 0
M  V30 994 C 97.8385 0.331997 1.93371 0
M  V30 995 O 96.9635 -0.556256 2.09129 0
M  V30 996 C 97.5585 2.7813 1.93466 0
M  V30 997 C 96.1175 2.84275 2.46707 0
M  V30 998 C 95.2645 2.47637 1.24785 0
M  V30 999 H 98.2155 1.56472 0.264995 0
M  V30 1000 H 98.2365 2.59372 2.78399 0
M  V30 1001 H 97.7485 3.65654 1.30072 0
M  V30 1002 H 95.8495 2.01077 3.13686 0
M  V30 1003 H 95.9625 3.8691 2.82555 0
M  V30 1004 H 94.3265 1.99835 1.57918 0
M  V30 1005 H 95.1095 3.37457 0.630694 0
M  V30 1006 N 97.5546 -0.734337 1.39446 0
M  V30 1007 C 98.9656 -1.31264 1.32766 0
M  V30 1008 C 99.3166 -1.96198 -0.00767497 0
M  V30 1009 O 98.4416 -1.96346 -0.909796 0
M  V30 1010 C 99.0366 -2.38682 2.4045 0
M  V30 1011 C 97.5956 -2.92184 2.37288 0
M  V30 1012 C 96.7426 -1.6576 2.22304 0
M  V30 1013 H 99.6936 -0.531799 1.49525 0
M  V30 1014 H 99.7146 -3.19087 2.07276 0
M  V30 1015 H 99.2266 -1.91392 3.37625 0
M  V30 1016 H 97.3276 -3.43752 1.43754 0
M  V30 1017 H 97.4406 -3.45253 3.3217 0
M  V30 1018 H 95.8046 -1.9012 1.69489 0
M  V30 1019 H 96.5876 -1.20521 3.21449 0
M  V30 1020 N 99.0327 -1.24633 -0.964593 0
M  V30 1021 C 99.9827 -1.00841 -2.04487 0
M  V30 1022 C 100.967 0.0512468 -1.60818 0
M  V30 1023 O 102.159 -0.162865 -1.76249 0
M  V30 1024 C 99.2877 -0.618474 -3.37683 0
M  V30 1025 C 98.3737 -1.71437 -3.87905 0
M  V30 1026 N 98.7647 -2.9477 -4.11029 0
M  V30 1027 C 97.0627 -1.5926 -4.16596 0
M  V30 1028 C 97.7637 -3.65834 -4.52261 0
M  V30 1029 N 96.7397 -2.9341 -4.57615 0
M  V30 1030 H 100.542 -1.94487 -2.20345 0
M  V30 1031 H 98.0557 -1.14805 -1.14863 0
M  V30 1032 H 100.053 -0.429247 -4.14684 0
M  V30 1033 H 98.7127 0.310766 -3.23209 0
M  V30 1034 H 99.7237 -3.30917 -3.9839 0
M  V30 1035 H 96.4007 -0.731606 -4.1104 0
M  V30 1036 H 97.7907 -4.71646 -4.78539 0
M  V30 1037 N 100.511 1.16574 -1.06058 0
M  V30 1038 C 101.459 2.22941 -0.663343 0
M  V30 1039 C 102.453 1.66358 0.319593 0
M  V30 1040 O 103.659 1.7905 0.184713 0
M  V30 1041 H 100.034 0.725907 -0.196376 0
M  V30 1042 H 102.005 2.53736 -1.57037 0
M  V30 1043 C 100.754 3.47642 -0.0632808 0
M  V30 1044 H 100.077 3.91493 -0.810733 0
M  V30 1045 H 101.517 4.2363 0.177177 0
M  V30 1046 C 99.9758 3.1509 1.19248 0
M  V30 1047 O 100.506 3.30673 2.28075 0
M  V30 1048 N 98.7118 2.6924 1.09353 0
M  V30 1049 H 98.2588 2.5676 0.207912 0
M  V30 1050 H 98.2168 2.47833 1.93458 0
M  V30 1051 N 101.989 0.842826 1.3317 0
M  V30 1052 C 102.919 0.294028 2.31641 0
M  V30 1053 C 103.9 -0.600401 1.59151 0
M  V30 1054 O 105.085 -0.523124 1.87022 0
M  V30 1055 C 102.215 -0.528416 3.43257 0
M  V30 1056 C 101.169 0.27056 4.27144 0
M  V30 1057 C 100.495 -0.675881 5.30411 0
M  V30 1058 C 101.795 1.48981 5.00602 0
M  V30 1059 H 103.489 1.11681 2.77791 0
M  V30 1060 H 101.035 0.538478 1.33553 0
M  V30 1061 H 102.988 -0.922674 4.11175 0
M  V30 1062 H 101.712 -1.38445 2.95805 0
M  V30 1063 H 100.371 0.646427 3.60856 0
M  V30 1064 H 100.019 -1.52842 4.79216 0
M  V30 1065 H 99.7189 -0.145374 5.8742 0
M  V30 1066 H 101.243 -1.06757 6.01195 0
M  V30 1067 H 102.657 1.16849 5.61266 0
M  V30 1068 H 101.054 1.95739 5.6728 0
M  V30 1069 H 102.124 2.25746 4.29147 0
M  V30 1070 N 103.467 -1.45747 0.599634 0
M  V30 1071 C 104.883 -1.57424 0.26264 0
M  V30 1072 C 105.083 -1.59222 -1.23493 0
M  V30 1073 O 104.139 -1.51825 -2.01756 0
M  V30 1074 C 105.452 -2.86061 0.926795 0
M  V30 1075 C 107 -2.99722 0.901967 0
M  V30 1076 C 107.475 -4.31119 1.54598 0
M  V30 1077 N 108.966 -4.37858 1.5111 0
M  V30 1078 C 109.701 -5.3818 1.97863 0
M  V30 1079 N 109.197 -6.45083 2.52666 0
M  V30 1080 N 110.99 -5.29487 1.88679 0
M  V30 1081 H 103.141 -1.42823 1.57211 0
M  V30 1082 H 105.404 -0.68235 0.658105 0
M  V30 1083 H 105.11 -2.90605 1.98095 0
M  V30 1084 H 104.984 -3.74563 0.445238 0
M  V30 1085 H 107.371 -2.9475 -0.143617 0
M  V30 1086 H 107.452 -2.12652 1.42171 0
M  V30 1087 H 107.096 -4.36849 2.59085 0
M  V30 1088 H 107.026 -5.16992 1.00132 0
M  V30 1089 H 109.517 -3.61209 1.11068 0
M  V30 1090 H 109.83 -7.17869 2.86155 0
M  V30 1091 H 108.175 -6.45856 2.56701 0
M  V30 1092 H 111.366 -4.44877 1.4561 0
M  V30 1093 H 111.539 -6.07524 2.25429 0
M  V30 1094 N 104.945 -0.338344 -1.53925 0
M  V30 1095 C 105.855 0.529421 -2.28548 0
M  V30 1096 C 106.871 1.11645 -1.3346 0
M  V30 1097 O 108.047 1.13325 -1.66492 0
M  V30 1098 C 105.112 1.66713 -3.03987 0
M  V30 1099 C 104.173 1.11041 -4.14691 0
M  V30 1100 C 103.406 2.19389 -4.86522 0
M  V30 1101 O 103.629 3.40013 -4.57982 0
M  V30 1102 O 102.563 1.83976 -5.73094 0
M  V30 1103 H 106.389 -0.0770399 -3.03602 0
M  V30 1104 H 103.974 -0.103555 -1.49041 0
M  V30 1105 H 105.856 2.32918 -3.5118 0
M  V30 1106 H 104.531 2.25949 -2.31794 0
M  V30 1107 H 103.438 0.413024 -3.71813 0
M  V30 1108 H 104.771 0.562975 -4.8897 0
M  V30 1109 N 106.423 1.57458 -0.0668435 0
M  V30 1110 C 107.353 2.15468 0.899764 0
M  V30 1111 C 108.334 1.08042 1.31381 0
M  V30 1112 O 109.519 1.36054 1.38574 0
M  V30 1113 C 106.649 2.71232 2.16911 0
M  V30 1114 C 105.603 3.83781 1.89463 0
M  V30 1115 C 104.929 4.26127 3.22986 0
M  V30 1116 C 106.229 5.08238 1.20381 0
M  V30 1117 H 107.923 2.96488 0.416529 0
M  V30 1118 H 105.469 1.4262 0.198908 0
M  V30 1119 H 107.422 3.10458 2.84945 0
M  V30 1120 H 106.146 1.87426 2.67468 0
M  V30 1121 H 104.805 3.45051 1.23836 0
M  V30 1122 H 104.453 3.39249 3.71374 0
M  V30 1123 H 104.153 5.01993 3.05413 0
M  V30 1124 H 105.677 4.67966 3.92225 0
M  V30 1125 H 107.091 5.44811 1.78475 0
M  V30 1126 H 105.488 5.89349 1.13083 0
M  V30 1127 H 106.558 4.84558 0.182153 0
M  V30 1128 N 107.901 -0.206675 1.56239 0
M  V30 1129 C 108.864 -1.23976 1.92776 0
M  V30 1130 C 109.864 -1.39041 0.807729 0
M  V30 1131 O 111.054 -1.37051 1.0753 0
M  V30 1132 C 108.186 -2.61112 2.19165 0
M  V30 1133 H 109.379 -0.927764 2.85189 0
M  V30 1134 H 106.932 -0.447718 1.4975 0
M  V30 1135 H 107.667 -2.97386 1.29352 0
M  V30 1136 H 107.452 -2.51552 3.00772 0
M  V30 1137 H 108.942 -3.35633 2.48476 0
M  V30 1138 N 109.379 -1.50304 -0.473955 0
M  V30 1139 C 110.656 -1.51667 -1.23518 0
M  V30 1140 C 111.036 -0.259701 -2.09496 0
M  V30 1141 O 110.384 0.756986 -2.15597 0
M  V30 1142 C 110.594 -2.81082 -2.06868 0
M  V30 1143 C 111.942 -3.31631 -2.65153 0
M  V30 1144 O 112.966 -2.82384 -2.17113 0
M  V30 1145 O 111.825 -4.17471 -3.52675 0
M  V30 1146 H 108.919 -0.60822 -0.560355 0
M  V30 1147 H 111.465 -1.62592 -0.486011 0
M  V30 1148 H 110.237 -3.64041 -1.4349 0
M  V30 1149 H 109.86 -2.73146 -2.88924 0
M  V30 1150 N 110.857 0.726932 -1.39834 0
M  V30 1151 C 111.82 1.82269 -1.38962 0
M  V30 1152 C 112.82 1.58248 -0.285334 0
M  V30 1153 O 114.01 1.65499 -0.54366 0
M  V30 1154 C 111.142 3.20186 -1.17019 0
M  V30 1155 H 112.335 1.84443 -2.36476 0
M  V30 1156 H 109.888 0.931416 -1.25516 0
M  V30 1157 H 110.623 3.23669 -0.202204 0
M  V30 1158 H 110.408 3.3902 -1.96998 0
M  V30 1159 H 111.898 4.00235 -1.1917 0
M  V30 1160 N 112.336 1.25143 0.95797 0
M  V30 1161 C 113.582 1.09855 1.70469 0
M  V30 1162 C 113.915 -0.360187 1.90831 0
M  V30 1163 O 113.19 -1.26568 1.47685 0
M  V30 1164 C 113.473 1.8497 3.08963 0
M  V30 1165 C 113.326 3.38652 2.96032 0
M  V30 1166 C 114.645 1.63016 4.08795 0
M  V30 1167 H 111.764 0.400465 0.618706 0
M  V30 1168 H 114.406 1.53933 1.11376 0
M  V30 1169 H 112.556 1.47505 3.59409 0
M  V30 1170 H 114.228 3.85772 2.52938 0
M  V30 1171 H 112.471 3.66534 2.32025 0
M  V30 1172 H 113.142 3.8642 3.94187 0
M  V30 1173 H 115.618 1.95625 3.67247 0
M  V30 1174 H 114.494 2.18015 5.03747 0
M  V30 1175 H 114.755 0.570692 4.38401 0
M  V30 1176 N 113.814 -1.1601 1.06675 0
M  V30 1177 C 115.061 -1.86633 0.785781 0
M  V30 1178 C 115.389 -1.81929 -0.687896 0
M  V30 1179 O 114.644 -1.23253 -1.52011 0
M  V30 1180 C 114.943 -3.35547 1.23057 0
M  V30 1181 C 114.609 -3.60448 2.70902 0
M  V30 1182 C 113.271 -3.66954 3.11285 0
M  V30 1183 C 115.623 -3.7071 3.66365 0
M  V30 1184 C 112.951 -3.81225 4.45965 0
M  V30 1185 C 115.303 -3.86503 5.00797 0
M  V30 1186 C 113.967 -3.91252 5.40813 0
M  V30 1187 H 113.237 -0.682937 0.287538 0
M  V30 1188 H 115.884 -1.37146 1.33654 0
M  V30 1189 H 114.189 -3.87193 0.59907 0
M  V30 1190 H 115.886 -3.88583 0.990163 0
M  V30 1191 H 112.476 -3.56021 2.38636 0
M  V30 1192 H 116.66 -3.64991 3.36296 0
M  V30 1193 H 111.916 -3.83155 4.76447 0
M  V30 1194 H 116.09 -3.93385 5.74649 0
M  V30 1195 H 113.717 -4.02062 6.45174 0
M  V30 1196 N 115.292 -0.849877 -1.32721 0
M  V30 1197 C 116.538 -0.460855 -1.9811 0
M  V30 1198 C 116.893 0.971716 -1.66059 0
M  V30 1199 O 116.186 1.67184 -0.935944 0
M  V30 1200 C 116.38 -0.631272 -3.51781 0
M  V30 1201 C 116.209 -2.07886 -3.98765 0
M  V30 1202 C 114.979 -2.71637 -4.26077 0
M  V30 1203 C 117.177 -3.04889 -4.14182 0
M  V30 1204 N 115.159 -4.07356 -4.59276 0
M  V30 1205 C 116.53 -4.25583 -4.50865 0
M  V30 1206 C 118.585 -3.01148 -3.96503 0
M  V30 1207 C 117.288 -5.43027 -4.71714 0
M  V30 1208 C 119.314 -4.17832 -4.18533 0
M  V30 1209 C 118.676 -5.37284 -4.55528 0
M  V30 1210 H 114.775 -0.217283 -0.751207 0
M  V30 1211 H 117.359 -1.10026 -1.60631 0
M  V30 1212 H 115.53 -0.0215966 -3.88394 0
M  V30 1213 H 117.262 -0.212614 -4.04141 0
M  V30 1214 H 114.017 -2.22705 -4.17971 0
M  V30 1215 H 114.441 -4.77351 -4.80068 0
M  V30 1216 H 119.083 -2.0992 -3.67006 0
M  V30 1217 H 116.801 -6.34791 -5.00066 0
M  V30 1218 H 120.387 -4.16368 -4.06361 0
M  V30 1219 H 119.267 -6.26071 -4.72234 0
M  V30 1220 N 116.77 1.45427 -0.607355 0
M  V30 1221 C 117.733 2.28974 0.101693 0
M  V30 1222 C 118.733 1.39754 0.795329 0
M  V30 1223 O 119.923 1.61878 0.643527 0
M  V30 1224 C 117.055 3.20768 1.15414 0
M  V30 1225 H 118.248 2.93147 -0.632844 0
M  V30 1226 H 115.801 1.51945 -0.366391 0
M  V30 1227 H 116.536 2.61395 1.91945 0
M  V30 1228 H 116.321 3.86489 0.66098 0
M  V30 1229 H 117.811 3.83589 1.65073 0
M  V30 1230 N 118.248 0.346503 1.53744 0
M  V30 1231 C 119.178 -0.501193 2.28058 0
M  V30 1232 C 120.159 -1.10014 1.29734 0
M  V30 1233 O 121.344 -1.12097 1.58581 0
M  V30 1234 C 118.474 -1.65078 3.05559 0
M  V30 1235 C 117.428 -1.18003 4.11411 0
M  V30 1236 C 116.754 -2.41837 4.76884 0
M  V30 1237 C 118.054 -0.278394 5.21558 0
M  V30 1238 H 119.748 0.11875 2.99164 0
M  V30 1239 H 117.294 0.0585531 1.43881 0
M  V30 1240 H 119.247 -2.25028 3.56287 0
M  V30 1241 H 117.971 -2.29767 2.32109 0
M  V30 1242 H 116.63 -0.603331 3.61601 0
M  V30 1243 H 116.278 -3.0494 4.00026 0
M  V30 1244 H 115.978 -2.1102 5.48402 0
M  V30 1245 H 117.502 -3.02508 5.30397 0
M  V30 1246 H 118.916 -0.784823 5.67903 0
M  V30 1247 H 117.313 -0.0619707 6.00068 0
M  V30 1248 H 118.383 0.684677 4.80042 0
M  V30 1249 N 119.726 -1.57421 0.075193 0
M  V30 1250 C 120.636 -2.1642 -0.905511 0
M  V30 1251 C 121.652 -1.12828 -1.32461 0
M  V30 1252 O 122.828 -1.45109 -1.39661 0
M  V30 1253 C 119.893 -2.71693 -2.15369 0
M  V30 1254 C 118.954 -3.90171 -1.79068 0
M  V30 1255 C 118.187 -4.42798 -2.97936 0
M  V30 1256 O 118.41 -3.94416 -4.12058 0
M  V30 1257 O 117.344 -5.34085 -2.77555 0
M  V30 1258 H 121.17 -3.00588 -0.433626 0
M  V30 1259 H 118.755 -1.48664 -0.148067 0
M  V30 1260 H 120.637 -3.07104 -2.88557 0
M  V30 1261 H 119.312 -1.90582 -2.61649 0
M  V30 1262 H 118.219 -3.59606 -1.03122 0
M  V30 1263 H 119.552 -4.72584 -1.37569 0
M  V30 1264 N 121.204 0.198386 -1.56346 0
M  V30 1265 C 122.152 1.26538 -1.95169 0
M  V30 1266 C 123.146 1.47295 -0.836685 0
M  V30 1267 O 124.352 1.48195 -1.02167 0
M  V30 1268 H 120.727 0.424744 -0.620561 0
M  V30 1269 H 122.698 0.910904 -2.84157 0
M  V30 1270 C 121.447 2.6035 -2.30463 0
M  V30 1271 H 120.77 2.45192 -3.15786 0
M  V30 1272 H 122.21 3.33762 -2.61494 0
M  V30 1273 C 120.669 3.17096 -1.13806 0
M  V30 1274 O 121.199 3.99588 -0.41135 0
M  V30 1275 N 119.405 2.75795 -0.915736 0
M  V30 1276 H 118.952 2.08816 -1.50843 0
M  V30 1277 H 118.91 3.14101 -0.136979 0
M  V30 1278 N 122.682 1.50554 0.465978 0
M  V30 1279 C 123.632 1.66177 1.56106 0
M  V30 1280 C 124.616 0.516265 1.52393 0
M  V30 1281 O 125.808 0.770906 1.5933 0
M  V30 1282 C 122.937 1.76396 2.94515 0
M  V30 1283 C 122.023 2.9664 3.03093 0
M  V30 1284 N 122.414 4.20245 2.81474 0
M  V30 1285 C 120.712 2.95304 3.34233 0
M  V30 1286 C 121.413 5.01259 2.95151 0
M  V30 1287 N 120.389 4.35318 3.25576 0
M  V30 1288 H 124.191 2.59434 1.38099 0
M  V30 1289 H 121.705 1.47808 0.6728 0
M  V30 1290 H 123.702 1.85694 3.73261 0
M  V30 1291 H 122.362 0.843017 3.13565 0
M  V30 1292 H 123.373 4.4966 2.56956 0
M  V30 1293 H 120.05 2.12729 3.59239 0
M  V30 1294 H 121.44 6.09564 2.82632 0
M  V30 1295 N 124.16 -0.719506 1.40217 0
M  V30 1296 C 125.437 -1.47221 1.28784 0
M  V30 1297 C 125.817 -2.10883 -0.0956067 0
M  V30 1298 O 125.165 -1.99833 -1.10811 0
M  V30 1299 C 125.375 -2.5111 2.42373 0
M  V30 1300 C 126.723 -3.17053 2.82423 0
M  V30 1301 O 127.747 -2.61429 2.41937 0
M  V30 1302 O 126.606 -4.17742 3.52355 0
M  V30 1303 H 123.7 -0.654491 0.50554 0
M  V30 1304 H 126.246 -0.752014 1.52128 0
M  V30 1305 H 125.018 -2.02556 3.34793 0
M  V30 1306 H 124.641 -3.3067 2.20778 0
M  V30 1307 N 125.638 -1.25649 -0.95132 0
M  V30 1308 C 126.601 -1.06399 -2.03007 0
M  V30 1309 C 127.601 -0.0156794 -1.60792 0
M  V30 1310 O 128.791 -0.25817 -1.72276 0
M  V30 1311 C 125.923 -0.616184 -3.35285 0
M  V30 1312 H 127.116 -2.02164 -2.21517 0
M  V30 1313 H 124.669 -1.08103 -1.12887 0
M  V30 1314 H 125.404 0.343917 -3.22471 0
M  V30 1315 H 125.189 -1.37301 -3.67275 0
M  V30 1316 H 126.679 -0.503032 -4.14559 0
M  V30 1317 N 127.117 1.15442 -1.07289 0
M  V30 1318 C 128.394 1.82306 -0.708792 0
M  V30 1319 C 128.774 1.94991 0.808807 0
M  V30 1320 O 128.122 1.50085 1.72298 0
M  V30 1321 C 128.332 3.18695 -1.42247 0
M  V30 1322 C 129.68 3.94341 -1.57417 0
M  V30 1323 O 130.704 3.28247 -1.38319 0
M  V30 1324 O 129.563 5.12839 -1.88834 0
M  V30 1325 H 126.657 0.787628 -0.252132 0
M  V30 1326 H 129.203 1.22559 -1.17377 0
M  V30 1327 H 127.975 3.04557 -2.45684 0
M  V30 1328 H 127.598 3.86128 -0.948223 0
M  V30 1329 N 128.595 0.856903 1.32268 0
M  V30 1330 C 129.505 0.306131 2.32594 0
M  V30 1331 C 130.521 -0.577209 1.64147 0
M  V30 1332 O 131.697 -0.477043 1.95669 0
M  V30 1333 C 128.762 -0.494561 3.43154 0
M  V30 1334 C 127.823 0.415186 4.27288 0
M  V30 1335 C 127.056 -0.347387 5.32568 0
M  V30 1336 O 127.279 -1.57708 5.48165 0
M  V30 1337 O 126.213 0.287982 6.01211 0
M  V30 1338 H 130.039 1.13737 2.81598 0
M  V30 1339 H 127.624 0.619902 1.35932 0
M  V30 1340 H 129.506 -0.948944 4.10576 0
M  V30 1341 H 128.181 -1.30257 2.96336 0
M  V30 1342 H 127.088 0.917793 3.62667 0
M  V30 1343 H 128.421 1.18844 4.77637 0
M  V30 1344 N 130.073 -1.45103 0.615059 0
M  V30 1345 C 130.983 -2.34382 -0.101034 0
M  V30 1346 C 131.999 -1.51681 -0.852585 0
M  V30 1347 O 133.175 -1.8446 -0.808484 0
M  V30 1348 C 130.24 -3.29417 -1.08099 0
M  V30 1349 C 129.301 -4.28025 -0.330577 0
M  V30 1350 C 128.534 -5.1852 -1.26385 0
M  V30 1351 O 128.757 -5.12598 -2.50198 0
M  V30 1352 O 127.691 -5.97122 -0.756866 0
M  V30 1353 H 131.517 -2.97033 0.632855 0
M  V30 1354 H 129.102 -1.4461 0.375293 0
M  V30 1355 H 130.984 -3.87958 -1.6452 0
M  V30 1356 H 129.659 -2.69321 -1.79577 0
M  V30 1357 H 128.566 -3.73078 0.276283 0
M  V30 1358 H 129.899 -4.90997 0.343866 0
M  V30 1359 N 131.551 -0.354651 -1.53558 0
M  V30 1360 C 132.461 0.50515 -2.29097 0
M  V30 1361 C 133.477 1.10223 -1.34636 0
M  V30 1362 O 134.653 1.11553 -1.67684 0
M  V30 1363 C 131.718 1.63479 -3.05738 0
M  V30 1364 C 130.779 1.06636 -4.15845 0
M  V30 1365 C 130.012 2.14217 -4.88822 0
M  V30 1366 O 130.235 3.35137 -4.61562 0
M  V30 1367 O 129.169 1.77887 -5.75013 0
M  V30 1368 H 132.995 -0.109237 -3.03503 0
M  V30 1369 H 130.58 -0.119357 -1.48922 0
M  V30 1370 H 132.462 2.2918 -3.5363 0
M  V30 1371 H 131.137 2.23478 -2.34178 0
M  V30 1372 H 130.044 0.373565 -3.7223 0
M  V30 1373 H 131.377 0.511081 -4.89539 0
M  V30 1374 N 133.029 1.57378 -0.0835403 0
M  V30 1375 C 134.257 1.98263 0.59157 0
M  V30 1376 C 134.672 0.962302 1.62435 0
M  V30 1377 O 134.029 -0.049581 1.82433 0
M  V30 1378 C 134.08 3.39214 1.24965 0
M  V30 1379 O 133.801 4.37339 0.258186 0
M  V30 1380 C 135.302 3.95038 2.01147 0
M  V30 1381 H 132.522 0.651773 0.159477 0
M  V30 1382 H 135.066 2.03878 -0.159415 0
M  V30 1383 H 133.221 3.34649 1.95164 0
M  V30 1384 H 133.635 5.19371 0.731734 0
M  V30 1385 H 135.109 4.95848 2.42567 0
M  V30 1386 H 135.586 3.32222 2.87272 0
M  V30 1387 H 136.192 4.0304 1.35789 0
M  V30 1388 N 134.507 -0.190092 1.56449 0
M  V30 1389 C 135.437 -1.23816 1.97969 0
M  V30 1390 C 136.418 -1.47201 0.852395 0
M  V30 1391 O 137.603 -1.58854 1.1171 0
M  V30 1392 C 134.733 -2.5813 2.3235 0
M  V30 1393 C 133.687 -2.49348 3.47864 0
M  V30 1394 C 133.013 -3.8798 3.67934 0
M  V30 1395 C 134.313 -2.01424 4.81898 0
M  V30 1396 H 136.007 -0.89311 2.85769 0
M  V30 1397 H 133.553 -0.428177 1.37487 0
M  V30 1398 H 135.506 -3.31637 2.59991 0
M  V30 1399 H 134.23 -2.94386 1.41438 0
M  V30 1400 H 132.889 -1.78297 3.20321 0
M  V30 1401 H 132.537 -4.21597 2.74344 0
M  V30 1402 H 132.237 -3.82978 4.45648 0
M  V30 1403 H 133.761 -4.63101 3.97957 0
M  V30 1404 H 135.175 -2.64693 5.08538 0
M  V30 1405 H 133.572 -2.07413 5.63116 0
M  V30 1406 H 134.642 -0.967677 4.75146 0
M  V30 1407 N 135.985 -1.50799 -0.457987 0
M  V30 1408 C 136.948 -1.7005 -1.53674 0
M  V30 1409 C 137.948 -0.570881 -1.50325 0
M  V30 1410 O 139.138 -0.838126 -1.52712 0
M  V30 1411 C 136.27 -1.73788 -2.93276 0
M  V30 1412 H 137.463 -2.66306 -1.37917 0
M  V30 1413 H 135.016 -1.40477 -0.685271 0
M  V30 1414 H 135.751 -0.792717 -3.14462 0
M  V30 1415 H 135.536 -2.55864 -2.97113 0
M  V30 1416 H 137.026 -1.90591 -3.71571 0
M  V30 1417 N 137.463 0.71206 -1.40597 0
M  V30 1418 C 138.426 1.80785 -1.40888 0
M  V30 1419 C 139.426 1.57937 -0.302103 0
M  V30 1420 O 140.616 1.64913 -0.561182 0
M  V30 1421 C 137.748 3.18927 -1.20409 0
M  V30 1422 H 138.941 1.81924 -2.38419 0
M  V30 1423 H 136.494 0.91805 -1.26497 0
M  V30 1424 H 137.229 3.23436 -0.236522 0
M  V30 1425 H 137.014 3.36911 -2.00582 0
M  V30 1426 H 138.504 3.98949 -1.23408 0
M  V30 1427 N 138.941 1.26152 0.944643 0
M  V30 1428 C 140.187 1.11657 1.69294 0
M  V30 1429 C 140.52 -0.339926 1.91202 0
M  V30 1430 O 139.795 -1.24994 1.49019 0
M  V30 1431 C 140.078 1.88236 3.06984 0
M  V30 1432 C 139.931 3.41772 2.92424 0
M  V30 1433 C 141.25 1.67343 4.07043 0
M  V30 1434 H 138.369 0.407004 0.614424 0
M  V30 1435 H 141.011 1.55106 1.09737 0
M  V30 1436 H 139.161 1.51308 3.57824 0
M  V30 1437 H 140.833 3.88433 2.48832 0
M  V30 1438 H 139.076 3.68974 2.28124 0
M  V30 1439 H 139.747 3.90579 3.90067 0
M  V30 1440 H 142.223 1.99509 3.65151 0
M  V30 1441 H 141.099 2.23346 5.01406 0
M  V30 1442 H 141.36 0.617158 4.37771 0
M  V30 1443 N 140.419 -1.14872 1.07899 0
M  V30 1444 C 141.352 -2.18794 0.64841 0
M  V30 1445 C 142.33 -1.59065 -0.337189 0
M  V30 1446 O 143.514 -1.86936 -0.242284 0
M  V30 1447 C 140.641 -3.38667 -0.0470417 0
M  V30 1448 C 139.687 -4.16942 0.897884 0
M  V30 1449 S 140.52 -4.78615 2.40183 0
M  V30 1450 C 141.676 -6.0185 1.71834 0
M  V30 1451 H 141.909 -2.5498 1.52881 0
M  V30 1452 H 139.442 -1.25922 0.893484 0
M  V30 1453 H 141.4 -4.08113 -0.442027 0
M  V30 1454 H 140.061 -3.00814 -0.903861 0
M  V30 1455 H 139.254 -5.02726 0.358096 0
M  V30 1456 H 138.856 -3.53073 1.23352 0
M  V30 1457 H 141.148 -6.69574 1.03328 0
M  V30 1458 H 142.091 -6.60408 2.55473 0
M  V30 1459 H 142.499 -5.5173 1.19392 0
M  V30 1460 N 141.898 -0.863906 -1.31812 0
M  V30 1461 C 143.146 -0.470904 -1.96537 0
M  V30 1462 C 143.467 0.978771 -1.68657 0
M  V30 1463 O 142.737 1.6853 -0.998717 0
M  V30 1464 H 141.317 -0.171148 -0.72713 0
M  V30 1465 H 143.979 -1.10236 -1.60729 0
M  V30 1466 H 143.075 -0.623616 -3.05806 0
M  V30 1467 N 143.376 1.44774 -0.622745 0
M  V30 1468 C 144.792 1.56986 -0.287652 0
M  V30 1469 C 144.992 1.61167 1.20944 0
M  V30 1470 O 144.048 1.55015 1.99315 0
M  V30 1471 C 145.361 2.84551 -0.972188 0
M  V30 1472 C 146.909 2.9825 -0.949536 0
M  V30 1473 C 147.384 4.28605 -1.61437 0
M  V30 1474 N 148.875 4.35399 -1.58057 0
M  V30 1475 C 149.61 5.34964 -2.064 0
M  V30 1476 N 149.106 6.40981 -2.62897 0
M  V30 1477 N 150.899 5.26419 -1.97078 0
M  V30 1478 H 143.05 1.40304 -1.59463 0
M  V30 1479 H 145.313 0.671794 -0.668878 0
M  V30 1480 H 145.019 2.87417 -2.02693 0
M  V30 1481 H 144.893 3.73807 -0.504771 0
M  V30 1482 H 147.28 2.94941 0.0967067 0
M  V30 1483 H 147.361 2.10364 -1.45536 0
M  V30 1484 H 147.005 4.32672 -2.66002 0
M  V30 1485 H 146.935 5.15334 -1.08344 0
M  V30 1486 H 149.426 3.59397 -1.16801 0
M  V30 1487 H 149.739 7.13225 -2.97539 0
M  V30 1488 H 148.084 6.4169 -2.66943 0
M  V30 1489 H 151.275 4.42504 -1.52669 0
M  V30 1490 H 151.448 6.03861 -2.35066 0
M  V30 1491 N 144.854 0.36279 1.53368 0
M  V30 1492 C 146.1 -0.228113 2.01513 0
M  V30 1493 C 146.433 -1.48648 1.2497 0
M  V30 1494 O 145.708 -1.91459 0.342616 0
M  V30 1495 C 145.991 -0.522884 3.56284 0
M  V30 1496 C 145.844 0.74892 4.43521 0
M  V30 1497 C 147.163 -1.32461 4.19693 0
M  V30 1498 H 144.282 -0.0814343 0.732487 0
M  V30 1499 H 146.924 0.48713 1.83649 0
M  V30 1500 H 145.074 -1.1322 3.71636 0
M  V30 1501 H 146.746 1.38648 4.39971 0
M  V30 1502 H 144.989 1.36986 4.11603 0
M  V30 1503 H 145.66 0.497667 5.49752 0
M  V30 1504 H 148.136 -0.809203 4.08156 0
M  V30 1505 H 147.012 -1.49961 5.28018 0
M  V30 1506 H 147.273 -2.33232 3.75573 0
M  V30 1507 N 146.332 -1.57332 0.0918853 0
M  V30 1508 C 147.279 -2.13847 -0.868211 0
M  V30 1509 C 148.249 -1.05618 -1.28196 0
M  V30 1510 O 149.434 -1.33387 -1.36427 0
M  V30 1511 C 146.574 -2.72062 -2.12312 0
M  V30 1512 C 145.687 -3.94514 -1.7602 0
M  V30 1513 C 144.822 -4.40903 -2.96273 0
M  V30 1514 C 143.861 -5.55953 -2.56092 0
M  V30 1515 N 142.998 -5.97209 -3.69169 0
M  V30 1516 H 147.838 -2.95575 -0.379406 0
M  V30 1517 H 145.375 -1.46048 -0.175606 0
M  V30 1518 H 147.333 -3.03931 -2.858 0
M  V30 1519 H 145.963 -1.93068 -2.58698 0
M  V30 1520 H 145.015 -3.68979 -0.925135 0
M  V30 1521 H 146.327 -4.7802 -1.42472 0
M  V30 1522 H 145.481 -4.74539 -3.78018 0
M  V30 1523 H 144.22 -3.56291 -3.33029 0
M  V30 1524 H 143.225 -5.21948 -1.72773 0
M  V30 1525 H 144.45 -6.42311 -2.20484 0
M  V30 1526 H 142.396 -5.15543 -4.05649 0
M  V30 1527 H 142.313 -6.75504 -3.39456 0
M  V30 1528 H 143.581 -6.35475 -4.51434 0
M  V30 1529 N 147.81 0.181792 -1.56548 0
M  V30 1530 C 149.058 0.89832 -1.81038 0
M  V30 1531 C 149.379 1.83232 -0.667164 0
M  V30 1532 O 148.649 1.93372 0.313673 0
M  V30 1533 H 147.229 0.33471 -0.667816 0
M  V30 1534 H 149.891 0.184116 -1.94028 0
M  V30 1535 H 148.987 1.4815 -2.74696 0
M  V30 1536 N 149.288 1.51039 0.449983 0
M  V30 1537 C 150.699 1.557 1.03026 0
M  V30 1538 C 151.05 0.372939 1.92623 0
M  V30 1539 O 150.175 -0.511771 2.10261 0
M  V30 1540 C 150.77 2.82171 1.87523 0
M  V30 1541 C 149.329 2.89444 2.40622 0
M  V30 1542 C 148.476 2.50228 1.19504 0
M  V30 1543 H 151.427 1.56999 0.231745 0
M  V30 1544 H 151.448 2.65219 2.72835 0
M  V30 1545 H 150.96 3.68331 1.22286 0
M  V30 1546 H 149.061 2.07685 3.0935 0
M  V30 1547 H 149.174 3.92816 2.74285 0
M  V30 1548 H 147.538 2.03139 1.53644 0
M  V30 1549 H 148.321 3.38719 0.558972 0
M  V30 1550 N 150.766 -0.704594 1.40972 0
M  V30 1551 C 152.043 -1.45847 1.30338 0
M  V30 1552 C 152.423 -2.10973 -0.0732344 0
M  V30 1553 O 151.771 -2.00997 -1.08685 0
M  V30 1554 C 151.981 -2.48525 2.45023 0
M  V30 1555 C 153.329 -3.1404 2.8577 0
M  V30 1556 O 154.353 -2.58848 2.44696 0
M  V30 1557 O 153.212 -4.13981 3.56766 0
M  V30 1558 H 150.306 -0.649092 0.512454 0
M  V30 1559 H 152.852 -0.735836 1.52917 0
M  V30 1560 H 151.624 -1.98994 3.36923 0
M  V30 1561 H 151.247 -3.2831 2.24272 0
M  V30 1562 N 152.244 -1.26651 -0.937939 0
M  V30 1563 C 153.491 -1.12387 -1.6845 0
M  V30 1564 C 153.819 0.332208 -1.91642 0
M  V30 1565 O 153.074 1.2602 -1.49725 0
M  V30 1566 C 153.373 -1.84168 -3.06295 0
M  V30 1567 C 153.039 -3.34056 -3.02849 0
M  V30 1568 C 151.701 -3.74942 -3.01616 0
M  V30 1569 C 154.053 -4.29741 -2.9491 0
M  V30 1570 C 151.381 -5.09894 -2.90215 0
M  V30 1571 C 153.733 -5.64738 -2.8505 0
M  V30 1572 C 152.397 -6.0493 -2.82162 0
M  V30 1573 H 151.667 -0.411252 -0.616403 0
M  V30 1574 H 154.314 -1.57134 -1.09459 0
M  V30 1575 H 152.619 -1.319 -3.6893 0
M  V30 1576 H 154.316 -1.70569 -3.62915 0
M  V30 1577 H 150.906 -3.01534 -3.0459 0
M  V30 1578 H 155.09 -3.99133 -2.94969 0
M  V30 1579 H 150.346 -5.40194 -2.86358 0
M  V30 1580 H 154.52 -6.38561 -2.77872 0
M  V30 1581 H 152.147 -7.09457 -2.73084 0
M  V30 1582 N 153.722 1.14298 -1.08507 0
M  V30 1583 C 155.133 1.66926 -0.836227 0
M  V30 1584 C 155.484 1.85576 0.63686 0
M  V30 1585 O 154.609 1.56767 1.49175 0
M  V30 1586 C 155.204 3.03219 -1.51142 0
M  V30 1587 C 153.763 3.52876 -1.30979 0
M  V30 1588 C 152.91 2.2833 -1.57356 0
M  V30 1589 H 155.861 0.983491 -1.24552 0
M  V30 1590 H 155.882 3.68726 -0.939211 0
M  V30 1591 H 155.394 2.89612 -2.58353 0
M  V30 1592 H 153.495 3.71703 -0.258429 0
M  V30 1593 H 153.608 4.33586 -2.03814 0
M  V30 1594 H 151.972 2.34454 -0.995164 0
M  V30 1595 H 152.755 2.17298 -2.65775 0
M  V30 1596 N 155.201 0.870884 1.31352 0
M  V30 1597 C 156.429 0.49677 2.00848 0
M  V30 1598 C 156.844 -0.910998 1.65367 0
M  V30 1599 O 156.201 -1.59696 0.883374 0
M  V30 1600 C 156.252 0.645308 3.55694 0
M  V30 1601 O 155.973 1.99764 3.89905 0
M  V30 1602 C 157.474 0.272326 4.42463 0
M  V30 1603 H 154.694 0.193462 0.642506 0
M  V30 1604 H 157.238 1.1723 1.67563 0
M  V30 1605 H 155.393 0.0173176 3.87396 0
M  V30 1606 H 155.807 2.00607 4.84621 0
M  V30 1607 H 157.281 0.427208 5.50344 0
M  V30 1608 H 157.758 -0.788587 4.32062 0
M  V30 1609 H 158.364 0.876054 4.1618 0
M  V30 1610 N 156.679 -1.44442 0.630414 0
M  V30 1611 C 157.642 -2.29107 -0.0652523 0
M  V30 1612 C 158.642 -1.41002 -0.772995 0
M  V30 1613 O 159.832 -1.62881 -0.617692 0
M  V30 1614 C 156.964 -3.22564 -1.10296 0
M  V30 1615 H 158.157 -2.92103 0.679401 0
M  V30 1616 H 155.71 -1.51343 0.390517 0
M  V30 1617 H 156.445 -2.64416 -1.87762 0
M  V30 1618 H 156.23 -3.87491 -0.59941 0
M  V30 1619 H 157.72 -3.86167 -1.5895 0
M  V30 1620 N 158.157 -0.370918 -1.53173 0
M  V30 1621 C 159.405 0.216673 -2.00935 0
M  V30 1622 C 159.726 1.48845 -1.25977 0
M  V30 1623 O 158.996 1.92286 -0.374551 0
M  V30 1624 H 157.576 0.0830565 -0.742368 0
M  V30 1625 H 160.238 -0.49838 -1.8842 0
M  V30 1626 H 159.334 0.439893 -3.08984 0
M  V30 1627 N 159.635 1.57281 -0.100228 0
M  V30 1628 C 160.565 2.17328 0.853857 0
M  V30 1629 C 161.546 1.10804 1.2906 0
M  V30 1630 O 162.731 1.38963 1.35657 0
M  V30 1631 C 159.861 2.75772 2.11109 0
M  V30 1632 C 158.815 3.87713 1.81279 0
M  V30 1633 C 158.141 4.32882 3.13874 0
M  V30 1634 C 159.441 5.10677 1.09574 0
M  V30 1635 H 161.135 2.97305 0.353545 0
M  V30 1636 H 158.681 1.43009 0.168612 0
M  V30 1637 H 160.634 3.16433 2.78296 0
M  V30 1638 H 159.358 1.93057 2.63432 0
M  V30 1639 H 158.017 3.476 1.16489 0
M  V30 1640 H 157.665 3.47051 3.64095 0
M  V30 1641 H 157.365 5.08358 2.94696 0
M  V30 1642 H 158.889 4.7618 3.82211 0
M  V30 1643 H 160.303 5.48474 1.66879 0
M  V30 1644 H 158.7 5.91615 1.00557 0
M  V30 1645 H 159.77 4.84835 0.0793299 0
M  V30 1646 N 161.113 -0.173488 1.56642 0
M  V30 1647 C 162.362 -0.888758 1.81063 0
M  V30 1648 C 162.675 -1.83506 0.67712 0
M  V30 1649 O 163.881 -2.59254 0.806206 0
M  V30 1650 C 162.337 -1.63091 3.20826 0
M  V30 1651 C 161.945 -0.728357 4.4204 0
M  V30 1652 C 163.689 -2.33454 3.54541 0
M  V30 1653 C 161.596 -1.47062 5.72823 0
M  V30 1654 H 160.526 -0.335618 0.675186 0
M  V30 1655 H 163.177 -0.141712 1.82952 0
M  V30 1656 H 161.559 -2.42263 3.13248 0
M  V30 1657 H 162.733 0.0262449 4.60793 0
M  V30 1658 H 161.048 -0.134492 4.16183 0
M  V30 1659 H 163.645 -2.89578 4.49498 0
M  V30 1660 H 163.988 -3.08687 2.79317 0
M  V30 1661 H 164.521 -1.61227 3.63663 0
M  V30 1662 H 161.26 -0.760658 6.51072 0
M  V30 1663 H 160.78 -2.1986 5.58052 0
M  V30 1664 H 162.459 -2.01868 6.14702 0
M  V30 1665 N 162.591 -1.51276 -0.441967 0
M  V30 1666 C 163.837 -1.63958 -1.19355 0
M  V30 1667 C 164.17 -0.352543 -1.90973 0
M  V30 1668 O 163.445 0.647627 -1.83401 0
M  V30 1669 C 163.728 -2.83979 -2.21422 0
M  V30 1670 C 163.581 -4.22646 -1.53918 0
M  V30 1671 C 164.9 -2.99521 -3.22451 0
M  V30 1672 H 162.019 -0.596709 -0.432559 0
M  V30 1673 H 164.661 -1.83748 -0.483398 0
M  V30 1674 H 162.811 -2.67237 -2.81987 0
M  V30 1675 H 164.483 -4.51045 -0.967256 0
M  V30 1676 H 162.726 -4.25558 -0.841615 0
M  V30 1677 H 163.397 -5.02609 -2.28229 0
M  V30 1678 H 165.873 -3.14944 -2.71937 0
M  V30 1679 H 164.749 -3.85072 -3.91166 0
M  V30 1680 H 165.01 -2.11391 -3.88287 0
M  V30 1681 N 164.069 0.697108 -1.41344 0
M  V30 1682 C 165.317 1.45426 -1.40341 0
M  V30 1683 C 165.638 1.94996 -0.0128787 0
M  V30 1684 O 164.908 1.71599 0.945027 0
M  V30 1685 H 163.488 0.539594 -0.516573 0
M  V30 1686 H 166.15 0.825201 -1.76569 0
M  V30 1687 H 165.246 2.31817 -2.08967 0
M  V30 1688 N 165.547 1.27147 0.931209 0
M  V30 1689 C 166.772 1.16191 1.71797 0
M  V30 1690 C 167.197 -0.278004 1.86034 0
M  V30 1691 O 166.555 -1.20137 1.35782 0
M  V30 1692 C 166.603 1.84673 3.09723 0
M  V30 1693 O 165.707 1.14231 3.96264 0
M  V30 1694 H 165.048 0.404303 0.526721 0
M  V30 1695 H 167.578 1.68152 1.1656 0
M  V30 1696 H 167.588 1.91893 3.60057 0
M  V30 1697 H 166.263 2.89421 2.98677 0
M  V30 1698 H 164.84 1.15056 3.54706 0
M  V30 1699 N 167.025 -1.13721 1.09112 0
M  V30 1700 C 167.957 -2.1871 0.685467 0
M  V30 1701 C 168.97 -1.60527 -0.271068 0
M  V30 1702 O 170.159 -1.78407 -0.0576148 0
M  V30 1703 C 167.259 -3.38898 -0.0111255 0
M  V30 1704 C 166.432 -4.26597 0.966131 0
M  V30 1705 C 165.491 -5.25324 0.303539 0
M  V30 1706 O 164.517 -5.61213 0.950177 0
M  V30 1707 N 165.719 -5.72779 -0.943651 0
M  V30 1708 H 168.484 -2.54126 1.58871 0
M  V30 1709 H 166.045 -1.29012 0.978143 0
M  V30 1710 H 168.037 -4.02014 -0.465517 0
M  V30 1711 H 166.607 -3.01747 -0.816565 0
M  V30 1712 H 165.827 -3.60306 1.59917 0
M  V30 1713 H 167.115 -4.82048 1.6281 0
M  V30 1714 H 166.513 -5.45762 -1.48862 0
M  V30 1715 H 165.07 -6.37847 -1.34142 0
M  V30 1716 N 168.503 -0.877838 -1.30888 0
M  V30 1717 C 169.751 -0.491723 -1.96027 0
M  V30 1718 C 170.072 0.960827 -1.69685 0
M  V30 1719 O 169.342 1.67462 -1.01654 0
M  V30 1720 H 167.922 -0.17885 -0.725273 0
M  V30 1721 H 170.584 -1.11935 -1.59551 0
M  V30 1722 H 169.68 -0.656016 -3.05128 0
M  V30 1723 N 169.982 1.44106 -0.638065 0
M  V30 1724 C 171.21 2.06336 -0.152615 0
M  V30 1725 C 171.625 1.47731 1.17563 0
M  V30 1726 O 170.982 0.602806 1.72257 0
M  V30 1727 C 171.033 3.61479 -0.0391491 0
M  V30 1728 O 170.754 4.17903 -1.31487 0
M  V30 1729 C 172.255 4.40757 0.474176 0
M  V30 1730 H 169.475 0.665862 -0.0828776 0
M  V30 1731 H 172.019 1.84862 -0.87443 0
M  V30 1732 H 170.174 3.82191 0.633142 0
M  V30 1733 H 170.588 5.11416 -1.16421 0
M  V30 1734 H 172.062 5.49707 0.502562 0
M  V30 1735 H 172.539 4.12697 1.50258 0
M  V30 1736 H 173.145 4.24979 -0.165102 0
M  V30 1737 N 171.46 0.379036 1.52974 0
M  V30 1738 C 172.423 -0.448865 2.24762 0
M  V30 1739 C 173.423 -0.998689 1.26027 0
M  V30 1740 O 174.613 -0.882313 1.50203 0
M  V30 1741 C 171.745 -1.62872 2.99476 0
M  V30 1742 H 172.938 0.179491 2.99362 0
M  V30 1743 H 170.491 0.13096 1.5575 0
M  V30 1744 H 171.226 -2.29479 2.29151 0
M  V30 1745 H 171.011 -1.24128 3.71934 0
M  V30 1746 H 172.501 -2.2151 3.5401 0
M  V30 1747 N 172.938 -1.57226 0.108567 0
M  V30 1748 C 174.215 -1.86333 -0.594939 0
M  V30 1749 C 174.595 -1.00788 -1.85486 0
M  V30 1750 O 173.943 -0.0839293 -2.28346 0
M  V30 1751 C 174.153 -3.37265 -0.897405 0
M  V30 1752 C 175.501 -4.05629 -1.25501 0
M  V30 1753 O 176.525 -3.42224 -0.987998 0
M  V30 1754 O 175.384 -5.17531 -1.75567 0
M  V30 1755 H 172.478 -0.771018 -0.2991 0
M  V30 1756 H 175.024 -1.69102 0.142283 0
M  V30 1757 H 173.796 -3.913 -0.00413806 0
M  V30 1758 H 173.419 -3.59889 -1.69014 0
M  V30 1759 N 174.416 0.165178 -1.56732 0
M  V30 1760 C 175.379 1.18822 -1.95995 0
M  V30 1761 C 176.379 1.3685 -0.84431 0
M  V30 1762 O 177.569 1.34152 -1.11126 0
M  V30 1763 C 174.701 2.5521 -2.26011 0
M  V30 1764 H 175.894 0.851825 -2.87548 0
M  V30 1765 H 173.447 0.407857 -1.50885 0
M  V30 1766 H 174.182 2.93852 -1.37191 0
M  V30 1767 H 173.967 2.43489 -3.07336 0
M  V30 1768 H 175.457 3.28927 -2.57288 0
M  V30 1769 N 175.894 1.51508 0.433938 0
M  V30 1770 C 177.124 1.67914 1.20369 0
M  V30 1771 C 177.532 0.377461 1.85397 0
M  V30 1772 O 176.875 -0.654255 1.71654 0
M  V30 1773 C 176.937 2.74045 2.32679 0
M  V30 1774 C 176.601 4.16543 1.87991 0
M  V30 1775 C 177.598 5.01211 1.38145 0
M  V30 1776 C 175.283 4.6266 1.95579 0
M  V30 1777 C 177.277 6.30056 0.964774 0
M  V30 1778 C 174.964 5.91501 1.53523 0
M  V30 1779 C 175.962 6.75027 1.04055 0
M  V30 1780 O 175.65 8.01459 0.625964 0
M  V30 1781 H 175.382 0.566578 0.368735 0
M  V30 1782 H 177.936 1.98709 0.51999 0
M  V30 1783 H 176.166 2.38572 3.04336 0
M  V30 1784 H 177.855 2.79295 2.94532 0
M  V30 1785 H 178.621 4.66783 1.31675 0
M  V30 1786 H 174.5 3.97767 2.33029 0
M  V30 1787 H 178.044 6.95202 0.57796 0
M  V30 1788 H 173.941 6.25442 1.59665 0
M  V30 1789 H 174.709 8.15043 0.751509 0
M  V30 1790 N 177.372 -0.689602 1.41712 0
M  V30 1791 C 178.319 -1.80345 1.44029 0
M  V30 1792 C 179.289 -1.63478 0.293948 0
M  V30 1793 O 180.474 -1.84244 0.495869 0
M  V30 1794 C 177.614 -3.18272 1.33405 0
M  V30 1795 C 176.727 -3.46529 2.57956 0
M  V30 1796 C 175.862 -4.74103 2.39582 0
M  V30 1797 C 174.901 -4.95347 3.5958 0
M  V30 1798 N 174.038 -6.14151 3.40239 0
M  V30 1799 H 178.878 -1.77698 2.39222 0
M  V30 1800 H 176.415 -0.867688 1.18784 0
M  V30 1801 H 178.373 -3.97956 1.25246 0
M  V30 1802 H 177.003 -3.2008 0.418164 0
M  V30 1803 H 176.055 -2.61207 2.76542 0
M  V30 1804 H 177.367 -3.58126 3.47199 0
M  V30 1805 H 176.521 -5.61853 2.28924 0
M  V30 1806 H 175.26 -4.64763 1.47805 0
M  V30 1807 H 174.265 -4.06044 3.70686 0
M  V30 1808 H 175.49 -5.06542 4.52318 0
M  V30 1809 H 173.436 -6.06013 2.51167 0
M  V30 1810 H 173.353 -6.26543 4.23061 0
M  V30 1811 H 174.621 -7.04619 3.33365 0
M  V30 1812 N 178.85 -1.27639 -0.924453 0
M  V30 1813 C 180.078 -1.16989 -1.70649 0
M  V30 1814 C 180.493 0.272869 -1.86818 0
M  V30 1815 O 179.85 1.18549 -1.38753 0
M  V30 1816 C 179.901 -1.85229 -3.10439 0
M  V30 1817 O 179.622 -3.23868 -2.95028 0
M  V30 1818 C 181.123 -1.80746 -4.04779 0
M  V30 1819 H 178.343 -0.406595 -0.53378 0
M  V30 1820 H 180.887 -1.68569 -1.15778 0
M  V30 1821 H 179.042 -1.37545 -3.6216 0
M  V30 1822 H 179.456 -3.57889 -3.83426 0
M  V30 1823 H 180.93 -2.33101 -5.00368 0
M  V30 1824 H 181.407 -0.777499 -4.32263 0
M  V30 1825 H 182.013 -2.28059 -3.58984 0
M  V30 1826 N 180.328 1.1314 -1.09713 0
M  V30 1827 C 181.576 1.84119 -0.833338 0
M  V30 1828 C 181.897 1.84097 0.642904 0
M  V30 1829 O 181.167 1.29881 1.46655 0
M  V30 1830 H 179.747 0.681766 -0.305293 0
M  V30 1831 H 182.409 1.37038 -1.38588 0
M  V30 1832 H 181.505 2.88543 -1.18951 0
M  V30 1833 N 181.806 0.884767 1.30421 0
M  V30 1834 C 183.222 0.57874 1.48737 0
M  V30 1835 C 183.422 -0.883567 1.81095 0
M  V30 1836 O 182.478 -1.6648 1.89844 0
M  V30 1837 C 183.791 1.49171 2.61091 0
M  V30 1838 C 185.339 1.49532 2.74971 0
M  V30 1839 C 185.814 2.39421 3.90438 0
M  V30 1840 N 187.305 2.37383 3.97748 0
M  V30 1841 C 188.04 3.03647 4.86401 0
M  V30 1842 N 187.536 3.79136 5.79852 0
M  V30 1843 N 189.329 2.9288 4.79768 0
M  V30 1844 H 181.48 1.83075 1.0769 0
M  V30 1845 H 183.743 0.783637 0.533495 0
M  V30 1846 H 183.449 2.53291 2.44001 0
M  V30 1847 H 183.323 1.20113 3.57565 0
M  V30 1848 H 185.71 0.46163 2.91467 0
M  V30 1849 H 185.791 1.8262 1.79119 0
M  V30 1850 H 185.435 3.42874 3.74699 0
M  V30 1851 H 185.365 2.03649 4.85628 0
M  V30 1852 H 187.856 1.82525 3.30897 0
M  V30 1853 H 188.169 4.26789 6.4426 0
M  V30 1854 H 186.514 3.83243 5.79784 0
M  V30 1855 H 189.705 2.33433 4.05742 0
M  V30 1856 H 189.878 3.448 5.4865 0
M  V30 1857 N 183.284 -1.43765 0.645699 0
M  V30 1858 C 184.532 -2.01499 0.155731 0
M  V30 1859 C 184.853 -1.51151 -1.232 0
M  V30 1860 O 184.123 -0.721044 -1.82148 0
M  V30 1861 H 182.703 -0.745003 0.0545817 0
M  V30 1862 H 185.365 -1.76075 0.835677 0
M  V30 1863 H 184.461 -3.1181 0.134577 0
M  V30 1864 N 184.763 -0.387143 -1.52771 0
M  V30 1865 C 185.988 0.198407 -2.06449 0
M  V30 1866 C 186.413 1.39918 -1.25716 0
M  V30 1867 O 185.771 1.79099 -0.281657 0
M  V30 1868 C 185.819 0.548893 -3.56398 0
M  V30 1869 O 184.923 1.64315 -3.78252 0
M  V30 1870 H 184.264 0.0237731 -0.663574 0
M  V30 1871 H 186.794 -0.553989 -1.96957 0
M  V30 1872 H 186.804 0.813812 -3.99801 0
M  V30 1873 H 185.479 -0.329005 -4.14597 0
M  V30 1874 H 184.056 1.37211 -3.46738 0
M  V30 1875 N 186.241 1.57166 -0.116904 0
M  V30 1876 C 187.49 1.94298 0.541407 0
M  V30 1877 C 187.803 1.00236 1.67964 0
M  V30 1878 O 189.009 1.26826 2.40057 0
M  V30 1879 C 187.465 3.45306 1.01449 0
M  V30 1880 C 187.073 4.47899 -0.0951738 0
M  V30 1881 C 188.817 3.91361 1.6443 0
M  V30 1882 C 186.724 5.90083 0.394491 0
M  V30 1883 H 185.654 0.725308 0.206019 0
M  V30 1884 H 188.305 1.82446 -0.196419 0
M  V30 1885 H 186.687 3.52385 1.80667 0
M  V30 1886 H 187.861 4.52486 -0.871374 0
M  V30 1887 H 186.176 4.11583 -0.631505 0
M  V30 1888 H 188.773 4.95004 2.02176 0
M  V30 1889 H 189.116 3.3122 2.52189 0
M  V30 1890 H 189.649 3.87073 0.917559 0
M  V30 1891 H 186.388 6.53974 -0.447004 0
M  V30 1892 H 185.908 5.88921 1.13722 0
M  V30 1893 H 187.587 6.41307 0.856399 0
M  V30 1894 N 187.719 -0.156864 1.56817 0
M  V30 1895 C 189.135 -0.50916 1.5126 0
M  V30 1896 C 189.335 -1.83897 0.823658 0
M  V30 1897 O 188.391 -2.49469 0.390055 0
M  V30 1898 C 189.704 -0.52857 2.96018 0
M  V30 1899 C 191.252 -0.614771 3.06903 0
M  V30 1900 C 191.727 -0.664938 4.53147 0
M  V30 1901 N 193.218 -0.727433 4.57452 0
M  V30 1902 C 193.953 -0.787067 5.67973 0
M  V30 1903 N 193.449 -0.806649 6.88088 0
M  V30 1904 N 195.242 -0.827195 5.5598 0
M  V30 1905 H 187.393 0.714935 2.00006 0
M  V30 1906 H 189.656 0.259526 0.911784 0
M  V30 1907 H 189.362 0.380154 3.49639 0
M  V30 1908 H 189.236 -1.36998 3.51442 0
M  V30 1909 H 191.623 -1.51392 2.53307 0
M  V30 1910 H 191.704 0.253597 2.5454 0
M  V30 1911 H 191.348 0.230011 5.07379 0
M  V30 1912 H 191.278 -1.54966 5.03282 0
M  V30 1913 H 193.769 -0.719998 3.70978 0
M  V30 1914 H 194.082 -0.853727 7.6807 0
M  V30 1915 H 192.427 -0.774687 6.90669 0
M  V30 1916 H 195.618 -0.808998 4.61056 0
M  V30 1917 H 195.791 -0.870206 6.4213 0
M  V30 1918 N 189.197 -1.51736 -0.425897 0
M  V30 1919 C 190.13 -1.68574 -1.53812 0
M  V30 1920 C 191.108 -0.53328 -1.53606 0
M  V30 1921 O 192.292 -0.758555 -1.72564 0
M  V30 1922 C 189.419 -1.70977 -2.92377 0
M  V30 1923 C 188.465 -2.92324 -3.10563 0
M  V30 1924 S 189.298 -4.52952 -2.85648 0
M  V30 1925 C 190.454 -4.58117 -4.26474 0
M  V30 1926 H 190.687 -2.62647 -1.39298 0
M  V30 1927 H 188.22 -1.41564 -0.616361 0
M  V30 1928 H 190.178 -1.73047 -3.72243 0
M  V30 1929 H 188.839 -0.78061 -3.04245 0
M  V30 1930 H 188.032 -2.90439 -4.11899 0
M  V30 1931 H 187.634 -2.88055 -2.38538 0
M  V30 1932 H 189.926 -4.34462 -5.19855 0
M  V30 1933 H 190.869 -5.59983 -4.33388 0
M  V30 1934 H 191.277 -3.8732 -4.10662 0
M  V30 1935 N 190.675 0.682077 -1.42076 0
M  V30 1936 C 192.091 0.994324 -1.24841 0
M  V30 1937 C 192.291 2.0096 -0.147389 0
M  V30 1938 O 191.347 2.47822 0.483782 0
M  V30 1939 C 192.66 1.50607 -2.60265 0
M  V30 1940 C 194.208 1.62421 -2.6756 0
M  V30 1941 C 194.683 2.16994 -4.03333 0
M  V30 1942 N 196.174 2.24337 -4.0525 0
M  V30 1943 C 196.909 2.67621 -5.07116 0
M  V30 1944 N 196.405 3.1041 -6.19368 0
M  V30 1945 N 198.198 2.67305 -4.94474 0
M  V30 1946 H 190.349 0.00973908 -2.12398 0
M  V30 1947 H 192.612 0.0668593 -0.945639 0
M  V30 1948 H 192.318 0.834583 -3.41654 0
M  V30 1949 H 192.192 2.48602 -2.83684 0
M  V30 1950 H 194.579 2.28678 -1.86521 0
M  V30 1951 H 194.66 0.629352 -2.47937 0
M  V30 1952 H 194.304 1.51349 -4.84826 0
M  V30 1953 H 194.234 3.17258 -4.20304 0
M  V30 1954 H 196.725 1.94158 -3.24209 0
M  V30 1955 H 197.038 3.42103 -6.92954 0
M  V30 1956 H 195.383 3.08286 -6.22884 0
M  V30 1957 H 198.574 2.33233 -4.05857 0
M  V30 1958 H 198.747 3.00718 -5.73997 0
M  V30 1959 N 192.153 1.28127 0.917671 0
M  V30 1960 C 193.401 1.14825 1.66312 0
M  V30 1961 C 193.722 -0.304379 1.9261 0
M  V30 1962 O 192.992 -1.21149 1.53947 0
M  V30 1963 H 191.572 0.421953 0.616413 0
M  V30 1964 H 194.234 1.608 1.10134 0
M  V30 1965 H 193.33 1.68489 2.62712 0
M  V30 1966 N 193.631 -1.12557 1.10312 0
M  V30 1967 C 194.877 -1.84311 0.846011 0
M  V30 1968 C 195.21 -1.83805 -0.626859 0
M  V30 1969 O 194.485 -1.28268 -1.46211 0
M  V30 1970 C 194.768 -3.32048 1.39341 0
M  V30 1971 C 194.621 -3.41016 2.93305 0
M  V30 1972 C 195.94 -4.27764 1.03468 0
M  V30 1973 H 193.059 -0.669192 0.30879 0
M  V30 1974 H 195.701 -1.32057 1.36605 0
M  V30 1975 H 193.851 -3.76678 0.951087 0
M  V30 1976 H 195.523 -3.05031 3.46055 0
M  V30 1977 H 193.766 -2.81603 3.29973 0
M  V30 1978 H 194.437 -4.44948 3.26689 0
M  V30 1979 H 196.913 -3.91253 1.41633 0
M  V30 1980 H 195.789 -5.29549 1.44463 0
M  V30 1981 H 196.05 -4.42064 -0.0560404 0
M  V30 1982 N 195.109 -0.891671 -1.2995 0
M  V30 1983 C 196.355 -0.514261 -1.96171 0
M  V30 1984 C 196.688 0.935506 -1.70182 0
M  V30 1985 O 195.963 1.66204 -1.01028 0
M  V30 1986 C 196.246 -0.797719 -3.51153 0
M  V30 1987 C 196.099 -2.2986 -3.86632 0
M  V30 1988 C 197.418 -0.278749 -4.39216 0
M  V30 1989 H 194.537 -0.188314 -0.712535 0
M  V30 1990 H 197.179 -1.11689 -1.53706 0
M  V30 1991 H 195.329 -0.284826 -3.87455 0
M  V30 1992 H 197.001 -2.88042 -3.60319 0
M  V30 1993 H 195.244 -2.76257 -3.34462 0
M  V30 1994 H 195.915 -2.44753 -4.94773 0
M  V30 1995 H 198.391 -0.717825 -4.09862 0
M  V30 1996 H 197.267 -0.506353 -5.46559 0
M  V30 1997 H 197.528 0.820266 -4.34424 0
M  V30 1998 N 196.587 1.43421 -0.653314 0
M  V30 1999 C 197.497 2.34568 0.0388565 0
M  V30 2000 C 198.513 1.53888 0.81207 0
M  V30 2001 O 199.689 1.86539 0.759294 0
M  V30 2002 C 196.754 3.32167 0.993269 0
M  V30 2003 C 195.815 4.28751 0.216977 0
M  V30 2004 C 195.048 5.21688 1.12593 0
M  V30 2005 O 195.271 5.19052 2.36519 0
M  V30 2006 O 194.205 5.98919 0.598284 0
M  V30 2007 H 198.031 2.95251 -0.711386 0
M  V30 2008 H 195.616 1.43564 -0.413502 0
M  V30 2009 H 197.498 3.92183 1.54176 0
M  V30 2010 H 196.173 2.73987 1.72374 0
M  V30 2011 H 195.08 3.72215 -0.375101 0
M  V30 2012 H 196.413 4.89913 -0.473924 0
M  V30 2013 N 198.065 0.39524 1.52563 0
M  V30 2014 C 199.311 -0.185318 2.01952 0
M  V30 2015 C 199.644 -1.45964 1.28095 0
M  V30 2016 O 198.919 -1.90689 0.38315 0
M  V30 2017 C 199.202 -0.447193 3.57312 0
M  V30 2018 C 199.055 0.842828 4.41833 0
M  V30 2019 C 200.374 -1.23529 4.22408 0
M  V30 2020 H 197.493 -0.0658788 0.73405 0
M  V30 2021 H 200.135 0.525975 1.82575 0
M  V30 2022 H 198.285 -1.05312 3.73954 0
M  V30 2023 H 199.957 1.4795 4.36931 0
M  V30 2024 H 198.2 1.45686 4.08605 0
M  V30 2025 H 198.871 0.614165 5.48573 0
M  V30 2026 H 201.347 -0.722445 4.0978 0
M  V30 2027 H 200.223 -1.38727 5.3108 0
M  V30 2028 H 200.484 -2.25213 3.80436 0
M  V30 2029 N 199.544 -1.57102 0.125237 0
M  V30 2030 C 200.454 -2.19191 -0.8362 0
M  V30 2031 C 201.47 -1.16985 -1.28805 0
M  V30 2032 O 202.646 -1.49479 -1.34974 0
M  V30 2033 C 199.711 -2.78407 -2.06617 0
M  V30 2034 C 198.772 -3.9567 -1.66565 0
M  V30 2035 C 198.005 -4.52052 -2.83698 0
M  V30 2036 O 198.228 -4.07326 -3.99302 0
M  V30 2037 O 197.162 -5.42645 -2.60423 0
M  V30 2038 H 200.988 -3.01816 -0.337776 0
M  V30 2039 H 198.573 -1.4906 -0.100695 0
M  V30 2040 H 200.455 -3.16129 -2.7864 0
M  V30 2041 H 199.13 -1.9881 -2.55453 0
M  V30 2042 H 198.037 -3.62705 -0.916296 0
M  V30 2043 H 199.37 -4.76722 -1.22464 0
M  V30 2044 N 201.022 0.148545 -1.56898 0
M  V30 2045 C 201.932 1.20293 -2.01412 0
M  V30 2046 C 202.948 1.47107 -0.929273 0
M  V30 2047 O 204.124 1.58807 -1.23863 0
M  V30 2048 C 201.189 2.51682 -2.38447 0
M  V30 2049 C 200.25 2.32529 -3.60872 0
M  V30 2050 C 199.483 3.57653 -3.96132 0
M  V30 2051 O 199.706 4.63771 -3.32073 0
M  V30 2052 O 198.64 3.50408 -4.89385 0
M  V30 2053 H 202.466 0.855025 -2.91416 0
M  V30 2054 H 200.051 0.357151 -1.45068 0
M  V30 2055 H 201.933 3.29147 -2.63135 0
M  V30 2056 H 200.608 2.86006 -1.51599 0
M  V30 2057 H 199.515 1.53019 -3.41373 0
M  V30 2058 H 200.848 2.03121 -4.48333 0
M  V30 2059 N 202.5 1.5196 0.417844 0
M  V30 2060 C 203.777 1.56146 1.17803 0
M  V30 2061 C 204.157 0.337275 2.08388 0
M  V30 2062 O 203.505 -0.676447 2.18258 0
M  V30 2063 C 203.715 2.88566 1.96293 0
M  V30 2064 C 205.063 3.41244 2.52662 0
M  V30 2065 O 206.087 2.90247 2.06483 0
M  V30 2066 O 204.946 4.30273 3.36938 0
M  V30 2067 H 202.04 0.628598 0.537395 0
M  V30 2068 H 204.586 1.64283 0.425331 0
M  V30 2069 H 203.358 3.69116 1.2988 0
M  V30 2070 H 202.981 2.83681 2.78587 0
M  V30 2071 N 203.978 -0.674533 1.42435 0
M  V30 2072 C 205.203 -1.46784 1.46524 0
M  V30 2073 C 205.628 -1.87938 0.078066 0
M  V30 2074 O 204.986 -1.56014 -0.92354 0
M  V30 2075 C 205.034 -2.69307 2.39805 0
M  V30 2076 O 204.138 -3.67587 1.86959 0
M  V30 2077 H 203.479 -0.440959 0.496439 0
M  V30 2078 H 206.009 -0.827326 1.87127 0
M  V30 2079 H 206.019 -3.17374 2.56393 0
M  V30 2080 H 204.694 -2.38692 3.40586 0
M  V30 2081 H 203.271 -3.2662 1.79927 0
M  V30 2082 N 205.456 -1.28612 -0.910864 0
M  V30 2083 C 206.872 -1.06381 -1.18976 0
M  V30 2084 C 207.072 0.191998 -2.00583 0
M  V30 2085 O 206.128 0.892869 -2.36187 0
M  V30 2086 C 207.441 -2.31295 -1.92154 0
M  V30 2087 C 208.989 -2.36503 -2.05025 0
M  V30 2088 C 209.464 -3.61191 -2.81612 0
M  V30 2089 N 210.955 -3.61847 -2.89172 0
M  V30 2090 C 211.69 -4.55004 -3.4894 0
M  V30 2091 N 211.186 -5.58482 -4.09963 0
M  V30 2092 N 212.979 -4.42594 -3.46506 0
M  V30 2093 H 205.13 -2.09221 -0.366094 0
M  V30 2094 H 207.393 -0.921003 -0.224629 0
M  V30 2095 H 207.099 -3.228 -1.39618 0
M  V30 2096 H 206.973 -2.37934 -2.9269 0
M  V30 2097 H 209.36 -1.45494 -2.5674 0
M  V30 2098 H 209.441 -2.33857 -1.03657 0
M  V30 2099 H 209.085 -4.52545 -2.30576 0
M  V30 2100 H 209.015 -3.61092 -3.83302 0
M  V30 2101 H 211.506 -2.87022 -2.45819 0
M  V30 2102 H 211.819 -6.25704 -4.53557 0
M  V30 2103 H 210.164 -5.62305 -4.08459 0
M  V30 2104 H 213.355 -3.60953 -2.98045 0
M  V30 2105 H 213.528 -5.15381 -3.92793 0
M  V30 2106 N 206.934 1.1197 -1.10907 0
M  V30 2107 C 208.182 1.83225 -0.852819 0
M  V30 2108 C 208.503 1.84769 0.623341 0
M  V30 2109 O 207.773 1.3143 1.45269 0
M  V30 2110 H 206.353 0.67849 -0.312507 0
M  V30 2111 H 209.015 1.3556 -1.40033 0
M  V30 2112 H 208.111 2.87265 -1.22005 0
M  V30 2113 N 208.412 0.89855 1.29475 0
M  V30 2114 C 209.828 0.594483 1.48115 0
M  V30 2115 C 210.028 -0.86431 1.82022 0
M  V30 2116 O 209.084 -1.64457 1.91599 0
M  V30 2117 C 210.397 1.51932 2.59494 0
M  V30 2118 C 211.945 1.5244 2.7337 0
M  V30 2119 C 212.42 2.43548 3.87877 0
M  V30 2120 N 213.911 2.41589 3.95208 0
M  V30 2121 C 214.646 3.08789 4.83153 0
M  V30 2122 N 214.142 3.85265 5.75798 0
M  V30 2123 N 215.935 2.97952 4.76635 0
M  V30 2124 H 208.086 1.84207 1.05742 0
M  V30 2125 H 210.349 0.789251 0.525154 0
M  V30 2126 H 210.055 2.55865 2.41301 0
M  V30 2127 H 209.929 1.23899 3.56271 0
M  V30 2128 H 212.316 0.492518 2.90961 0
M  V30 2129 H 212.397 1.8451 1.77172 0
M  V30 2130 H 212.041 3.46829 3.71041 0
M  V30 2131 H 211.971 2.08788 4.83441 0
M  V30 2132 H 214.462 1.86025 3.28943 0
M  V30 2133 H 214.775 4.33598 6.39697 0
M  V30 2134 H 213.12 3.89371 5.75687 0
M  V30 2135 H 216.311 2.37723 4.03244 0
M  V30 2136 H 216.484 3.50599 5.44962 0
M  V30 2137 N 209.89 -1.43072 0.660911 0
M  V30 2138 C 211.118 -2.06067 0.185422 0
M  V30 2139 C 211.533 -1.49582 -1.15198 0
M  V30 2140 O 210.89 -0.630134 -1.71276 0
M  V30 2141 C 210.941 -3.61371 0.0966523 0
M  V30 2142 O 210.662 -4.15758 1.38119 0
M  V30 2143 C 212.163 -4.41455 -0.403996 0
M  V30 2144 H 209.383 -0.664459 0.0934604 0
M  V30 2145 H 211.927 -1.83447 0.90373 0
M  V30 2146 H 210.082 -3.8315 -0.572259 0
M  V30 2147 H 210.496 -5.09499 1.24542 0
M  V30 2148 H 211.97 -5.50437 -0.415045 0
M  V30 2149 H 212.447 -4.15036 -1.43674 0
M  V30 2150 H 213.053 -4.24663 0.232691 0
M  V30 2151 N 211.368 -0.403325 -1.52352 0
M  V30 2152 C 212.593 0.176499 -2.06648 0
M  V30 2153 C 213.018 1.38577 -1.27193 0
M  V30 2154 O 212.376 1.7879 -0.300637 0
M  V30 2155 C 212.424 0.511061 -3.5696 0
M  V30 2156 O 211.528 1.60294 -3.79973 0
M  V30 2157 H 210.869 0.0167337 -0.663789 0
M  V30 2158 H 213.399 -0.574848 -1.96359 0
M  V30 2159 H 213.409 0.771362 -4.00642 0
M  V30 2160 H 212.084 -0.37296 -4.14224 0
M  V30 2161 H 210.661 1.33526 -3.48174 0
M  V30 2162 N 212.846 1.57033 -0.133567 0
M  V30 2163 C 213.776 2.1909 0.807567 0
M  V30 2164 C 214.757 1.13517 1.26681 0
M  V30 2165 O 215.942 1.41809 1.32679 0
M  V30 2166 C 213.072 2.80188 2.05212 0
M  V30 2167 C 212.026 3.91471 1.73015 0
M  V30 2168 C 211.352 4.39443 3.04622 0
M  V30 2169 C 212.652 5.12886 0.987168 0
M  V30 2170 H 214.346 2.97988 0.290403 0
M  V30 2171 H 211.892 1.43335 0.138239 0
M  V30 2172 H 213.845 3.22264 2.71521 0
M  V30 2173 H 212.569 1.98601 2.59278 0
M  V30 2174 H 211.228 3.49993 1.0909 0
M  V30 2175 H 210.876 3.54695 3.56651 0
M  V30 2176 H 210.576 5.14495 2.83847 0
M  V30 2177 H 212.1 4.8418 3.72024 0
M  V30 2178 H 213.514 5.51891 1.55208 0
M  V30 2179 H 211.911 5.93615 0.87985 0
M  V30 2180 H 212.981 4.84894 -0.0235286 0
M  V30 2181 N 214.325 -0.140222 1.56975 0
M  V30 2182 C 215.571 -0.852949 1.83991 0
M  V30 2183 C 215.904 -1.80512 0.716187 0
M  V30 2184 O 215.179 -1.92479 -0.279681 0
M  V30 2185 C 215.462 -1.6215 3.21527 0
M  V30 2186 C 215.315 -0.690363 4.4447 0
M  V30 2187 C 216.634 -2.58247 3.56366 0
M  V30 2188 H 213.753 -0.308634 0.669264 0
M  V30 2189 H 216.395 -0.117898 1.89634 0
M  V30 2190 H 214.545 -2.24812 3.16847 0
M  V30 2191 H 216.217 -0.0742264 4.6124 0
M  V30 2192 H 214.46 -0.000396433 4.338 0
M  V30 2193 H 215.131 -1.2643 5.37326 0
M  V30 2194 H 217.607 -2.05701 3.61699 0
M  V30 2195 H 216.483 -3.09067 4.53617 0
M  V30 2196 H 216.744 -3.39923 2.82674 0
M  V30 2197 N 215.803 -1.52179 -0.40978 0
M  V30 2198 C 217.052 -1.65434 -1.15388 0
M  V30 2199 C 217.365 -0.390056 -1.91671 0
M  V30 2200 O 218.571 -0.402399 -2.68501 0
M  V30 2201 C 217.027 -2.92279 -2.10003 0
M  V30 2202 C 216.635 -4.25813 -1.39239 0
M  V30 2203 C 218.379 -3.14897 -2.84675 0
M  V30 2204 C 216.286 -5.43782 -2.32498 0
M  V30 2205 H 215.216 -0.616267 -0.434432 0
M  V30 2206 H 217.867 -1.78666 -0.418401 0
M  V30 2207 H 216.249 -2.72744 -2.871 0
M  V30 2208 H 217.423 -4.55828 -0.675099 0
M  V30 2209 H 215.738 -4.09292 -0.766097 0
M  V30 2210 H 218.335 -4.0021 -3.54593 0
M  V30 2211 H 218.678 -2.29103 -3.47588 0
M  V30 2212 H 219.211 -3.34901 -2.14677 0
M  V30 2213 H 215.95 -6.3192 -1.74233 0
M  V30 2214 H 215.47 -5.18106 -3.02201 0
M  V30 2215 H 217.149 -5.76834 -2.93038 0
M  V30 2216 N 217.281 0.66697 -1.42791 0
M  V30 2217 C 218.509 1.45505 -1.47091 0
M  V30 2218 C 218.924 1.8861 -0.0845873 0
M  V30 2219 O 218.281 1.58632 0.90234 0
M  V30 2220 C 218.332 2.69906 -2.40485 0
M  V30 2221 O 218.053 2.28608 -3.73725 0
M  V30 2222 C 219.554 3.63396 -2.53886 0
M  V30 2223 H 216.774 0.447459 -0.500022 0
M  V30 2224 H 219.318 0.818866 -1.8739 0
M  V30 2225 H 217.473 3.29696 -2.03419 0
M  V30 2226 H 217.887 3.08997 -4.23817 0
M  V30 2227 H 219.361 4.47387 -3.2334 0
M  V30 2228 H 219.838 4.09824 -1.57927 0
M  V30 2229 H 220.444 3.09495 -2.91706 0
M  V30 2230 N 218.759 1.29093 0.90403 0
M  V30 2231 C 219.669 1.15727 2.0407 0
M  V30 2232 C 220.685 0.0815308 1.73809 0
M  V30 2233 O 221.861 0.292749 1.99261 0
M  V30 2234 C 218.926 0.830424 3.36608 0
M  V30 2235 C 217.987 1.98955 3.80415 0
M  V30 2236 C 217.22 1.6782 5.06628 0
M  V30 2237 O 217.443 0.597105 5.67266 0
M  V30 2238 O 216.377 2.52486 5.46383 0
M  V30 2239 H 220.203 2.11171 2.18267 0
M  V30 2240 H 217.788 1.08504 1.027 0
M  V30 2241 H 219.67 0.662521 4.16159 0
M  V30 2242 H 218.345 -0.0942678 3.23563 0
M  V30 2243 H 217.252 2.21267 3.01648 0
M  V30 2244 H 218.585 2.89529 3.98037 0
M  V30 2245 N 220.237 -1.11381 1.11499 0
M  V30 2246 C 221.167 -2.19509 0.796125 0
M  V30 2247 C 222.148 -1.68458 -0.235796 0
M  V30 2248 O 223.333 -1.93947 -0.0991344 0
M  V30 2249 C 220.463 -3.46475 0.239205 0
M  V30 2250 C 219.417 -4.10744 1.20307 0
M  V30 2251 C 218.743 -5.32293 0.50683 0
M  V30 2252 C 220.043 -4.55597 2.55399 0
M  V30 2253 H 221.737 -2.46439 1.70024 0
M  V30 2254 H 219.283 -1.18446 0.818935 0
M  V30 2255 H 221.236 -4.214 0.00392006 0
M  V30 2256 H 219.96 -3.19006 -0.700206 0
M  V30 2257 H 218.619 -3.37813 1.42399 0
M  V30 2258 H 218.267 -5.01095 -0.437408 0
M  V30 2259 H 217.967 -5.76243 1.1497 0
M  V30 2260 H 219.491 -6.09956 0.280351 0
M  V30 2261 H 220.905 -5.21841 2.37391 0
M  V30 2262 H 219.302 -5.10363 3.15673 0
M  V30 2263 H 220.372 -3.69013 3.14575 0
M  V30 2264 N 221.715 -0.905404 -1.28997 0
M  V30 2265 C 223.126 -0.581953 -1.77398 0
M  V30 2266 C 223.477 0.902552 -1.74208 0
M  V30 2267 O 222.602 1.70584 -1.33154 0
M  V30 2268 C 223.197 -1.04961 -3.22131 0
M  V30 2269 C 221.756 -0.777229 -3.68288 0
M  V30 2270 C 220.903 -1.22109 -2.48967 0
M  V30 2271 H 223.854 -1.08754 -1.15578 0
M  V30 2272 H 223.875 -0.387387 -3.78523 0
M  V30 2273 H 223.387 -2.13008 -3.24421 0
M  V30 2274 H 221.488 0.290383 -3.71467 0
M  V30 2275 H 221.601 -1.37911 -4.58822 0
M  V30 2276 H 219.965 -0.639971 -2.46529 0
M  V30 2277 H 220.748 -2.30972 -2.53982 0
M  V30 2278 N 223.193 1.4272 -0.668489 0
M  V30 2279 C 224.423 2.05668 -0.196063 0
M  V30 2280 C 224.831 1.5028 1.14946 0
M  V30 2281 O 224.174 0.6348 1.72383 0
M  V30 2282 C 224.236 3.59469 -0.0468879 0
M  V30 2283 C 223.9 4.37518 -1.32012 0
M  V30 2284 C 224.897 4.68584 -2.25222 0
M  V30 2285 C 222.582 4.77266 -1.56596 0
M  V30 2286 C 224.576 5.38326 -3.41297 0
M  V30 2287 C 222.263 5.4675 -2.72962 0
M  V30 2288 C 223.261 5.77204 -3.65137 0
M  V30 2289 O 222.949 6.45264 -4.79468 0
M  V30 2290 H 222.681 0.669382 -0.0943599 0
M  V30 2291 H 225.235 1.83954 -0.913788 0
M  V30 2292 H 223.465 3.79817 0.726357 0
M  V30 2293 H 225.154 4.04071 0.384852 0
M  V30 2294 H 225.92 4.38382 -2.07477 0
M  V30 2295 H 221.799 4.52959 -0.857249 0
M  V30 2296 H 225.343 5.62014 -4.13263 0
M  V30 2297 H 221.24 5.76369 -2.90635 0
M  V30 2298 H 222.008 6.63753 -4.78931 0
M  V30 2299 N 224.671 0.411399 1.52136 0
M  V30 2300 C 225.603 -0.448386 2.24771 0
M  V30 2301 C 226.616 -1.00828 1.27818 0
M  V30 2302 O 227.805 -0.906841 1.53749 0
M  V30 2303 C 224.905 -1.63636 2.96777 0
M  V30 2304 C 224.078 -1.19995 4.20618 0
M  V30 2305 C 223.137 -2.25509 4.75428 0
M  V30 2306 O 222.163 -1.86007 5.3795 0
M  V30 2307 N 223.365 -3.577 4.57199 0
M  V30 2308 H 226.13 0.174025 2.99194 0
M  V30 2309 H 223.691 0.238897 1.60128 0
M  V30 2310 H 225.683 -2.33793 3.30338 0
M  V30 2311 H 224.253 -2.16465 2.25526 0
M  V30 2312 H 223.473 -0.326421 3.92846 0
M  V30 2313 H 224.761 -0.885365 5.01038 0
M  V30 2314 H 224.159 -3.92543 4.07341 0
M  V30 2315 H 222.716 -4.23827 4.95191 0
M  V30 2316 N 226.149 -1.5696 0.141893 0
M  V30 2317 C 227.395 -1.9625 -0.511248 0
M  V30 2318 C 227.728 -1.02654 -1.64851 0
M  V30 2319 O 227.003 -0.0679676 -1.94381 0
M  V30 2320 C 227.286 -3.45285 -1.02227 0
M  V30 2321 C 227.139 -4.49658 0.113138 0
M  V30 2322 C 228.458 -3.96698 -1.90574 0
M  V30 2323 H 225.577 -0.713567 -0.184367 0
M  V30 2324 H 228.219 -1.88698 0.222087 0
M  V30 2325 H 226.369 -3.51852 -1.64719 0
M  V30 2326 H 228.041 -4.55174 0.749302 0
M  V30 2327 H 226.284 -4.26857 0.773026 0
M  V30 2328 H 226.955 -5.51258 -0.286053 0
M  V30 2329 H 229.431 -3.92578 -1.37918 0
M  V30 2330 H 228.307 -5.01453 -2.2324 0
M  V30 2331 H 228.568 -3.3875 -2.84079 0
M  V30 2332 N 227.627 0.131896 -1.57047 0
M  V30 2333 C 228.575 1.18146 -2.0036 0
M  V30 2334 C 229.569 1.43614 -0.898406 0
M  V30 2335 O 230.775 1.43729 -1.08361 0
M  V30 2336 H 227.15 0.398042 -0.638018 0
M  V30 2337 H 229.121 0.789564 -2.87765 0
M  V30 2338 C 227.87 2.50341 -2.41298 0
M  V30 2339 H 227.193 2.31578 -3.25902 0
M  V30 2340 H 228.633 3.22371 -2.75414 0
M  V30 2341 C 227.092 3.11984 -1.27153 0
M  V30 2342 O 227.622 3.97484 -0.580459 0
M  V30 2343 N 225.828 2.71662 -1.03189 0
M  V30 2344 H 225.375 2.02231 -1.59564 0
M  V30 2345 H 225.333 3.13238 -0.270077 0
M  V30 2346 N 229.106 1.52395 0.401703 0
M  V30 2347 C 230.056 1.72649 1.48917 0
M  V30 2348 C 231.04 0.580436 1.50066 0
M  V30 2349 O 232.232 0.83779 1.55917 0
M  V30 2350 C 229.361 1.88729 2.86769 0
M  V30 2351 C 228.447 3.09228 2.90239 0
M  V30 2352 N 228.838 4.31805 2.63396 0
M  V30 2353 C 227.136 3.09214 3.21408 0
M  V30 2354 C 227.837 5.13326 2.73625 0
M  V30 2355 N 226.813 4.48735 3.06819 0
M  V30 2356 H 230.615 2.65058 1.26971 0
M  V30 2357 H 228.129 1.50528 0.609504 0
M  V30 2358 H 230.126 2.01358 3.65049 0
M  V30 2359 H 228.786 0.975252 3.09708 0
M  V30 2360 H 229.797 4.60154 2.37653 0
M  V30 2361 H 226.474 2.27774 3.49893 0
M  V30 2362 H 227.864 6.21003 2.56524 0
M  V30 2363 O 230.623 -0.547609 1.51933 0
M  V30 2364 H 231.314 -1.20275 1.51834 0
M  V30 END ATOM
M  V30 BEGIN BOND
M  V30 END BOND
M  V30 END CTAB
M  END
$$$$
