drugbank_target|B7JBP8 Sulfide-quinone reductase (DB07640)
 OpenBabel12092120453D

  0  0  0     0  0            999 V3000
M  V30 BEGIN CTAB
M  V30 COUNTS 6656 6736 0 0 0
M  V30 BEGIN ATOM
M  V30 1 H -0.908 1.98254 -0.117106 0
M  V30 2 N 0 1.576 0 0
M  V30 3 C 0.933 2.03868 1.02534 0
M  V30 4 C 1.911 0.928543 1.3348 0
M  V30 5 O 3.095 1.19667 1.45644 0
M  V30 6 C 0.222 2.43627 2.35294 0
M  V30 7 C -0.732 3.65373 2.2001 0
M  V30 8 S 0.101 5.13292 1.52614 0
M  V30 9 C 1.257 5.56322 2.86805 0
M  V30 10 H 1.49 2.90518 0.631377 0
M  V30 11 H -0.977 1.52953 0.210867 0
M  V30 12 H 0.981 2.67203 3.11629 0
M  V30 13 H -0.358 1.57376 2.7183 0
M  V30 14 H -1.165 3.90944 3.18086 0
M  V30 15 H -1.563 3.418 1.51819 0
M  V30 16 H 0.729 5.58782 3.83104 0
M  V30 17 H 1.672 6.56266 2.65933 0
M  V30 18 H 2.08 4.83886 2.90714 0
M  V30 19 N 1.4781 -0.272755 1.55222 0
M  V30 20 C 2.4411 -1.32041 1.87344 0
M  V30 21 C 3.4411 -1.42342 0.74803 0
M  V30 22 O 4.6311 -1.41488 1.0162 0
M  V30 23 C 1.7631 -2.70173 2.07893 0
M  V30 24 H 2.9561 -1.04789 2.80997 0
M  V30 25 H 0.5091 -0.51083 1.47717 0
M  V30 26 H 1.2441 -3.02605 1.16622 0
M  V30 27 H 1.0291 -2.64082 2.89833 0
M  V30 28 H 2.5191 -3.45869 2.34017 0
M  V30 29 N 2.9562 -1.48159 -0.537278 0
M  V30 30 C 3.9062 -1.5854 -1.63857 0
M  V30 31 C 4.8902 -0.442969 -1.54682 0
M  V30 32 O 6.0822 -0.69401 -1.62827 0
M  V30 33 C 3.2112 -1.62144 -3.02596 0
M  V30 34 C 2.2972 -2.81841 -3.16901 0
M  V30 35 N 2.6882 -4.06337 -3.01204 0
M  V30 36 C 0.9862 -2.79021 -3.47942 0
M  V30 37 C 1.6872 -4.86606 -3.18731 0
M  V30 38 N 0.6632 -4.19288 -3.45974 0
M  V30 39 H 4.4652 -2.5255 -1.50319 0
M  V30 40 H 1.9792 -1.4443 -0.742555 0
M  V30 41 H 3.9762 -1.67674 -3.81695 0
M  V30 42 H 2.6362 -0.69245 -3.17231 0
M  V30 43 H 3.6472 -4.36888 -2.78117 0
M  V30 44 H 0.3242 -1.95347 -3.6898 0
M  V30 45 H 1.7142 -5.95385 -3.11394 0
M  V30 46 N 4.4343 0.785586 -1.36625 0
M  V30 47 C 5.6803 1.54591 -1.31261 0
M  V30 48 C 6.0133 1.93906 0.106823 0
M  V30 49 O 5.2883 1.63007 1.06108 0
M  V30 50 C 5.5713 2.82038 -2.23889 0
M  V30 51 C 5.4243 2.49066 -3.74548 0
M  V30 52 C 6.7433 3.83887 -2.15217 0
M  V30 53 H 3.8623 0.560846 -0.478143 0
M  V30 54 H 6.5043 0.902278 -1.67209 0
M  V30 55 H 4.6543 3.36961 -1.93363 0
M  V30 56 H 6.3263 2.00164 -4.15611 0
M  V30 57 H 4.5693 1.81954 -3.93796 0
M  V30 58 H 5.2403 3.40109 -4.34776 0
M  V30 59 H 7.7163 3.38421 -2.42096 0
M  V30 60 H 6.5923 4.70806 -2.82193 0
M  V30 61 H 6.8533 4.27131 -1.14068 0
M  V30 62 N 5.9124 1.20967 1.01018 0
M  V30 63 C 7.1584 1.02526 1.74975 0
M  V30 64 C 7.4914 -0.4408 1.89131 0
M  V30 65 O 6.7664 -1.32718 1.42184 0
M  V30 66 C 7.0494 1.71699 3.1653 0
M  V30 67 C 6.9024 3.25791 3.10129 0
M  V30 68 C 8.2214 1.45531 4.15342 0
M  V30 69 H 5.3404 0.373863 0.635134 0
M  V30 70 H 7.9824 1.49071 1.17805 0
M  V30 71 H 6.1324 1.32128 3.65341 0
M  V30 72 H 7.8044 3.74697 2.69072 0
M  V30 73 H 6.0474 3.56363 2.47362 0
M  V30 74 H 6.7184 3.69353 4.10222 0
M  V30 75 H 9.1944 1.79872 3.75213 0
M  V30 76 H 8.0704 1.96453 5.1254 0
M  V30 77 H 8.3314 0.384237 4.40427 0
M  V30 78 N 7.3905 -1.2043 1.01659 0
M  V30 79 C 8.6395 -1.89118 0.701237 0
M  V30 80 C 8.9525 -1.79705 -0.772358 0
M  V30 81 O 10.1585 -2.43528 -1.20026 0
M  V30 82 C 8.6145 -3.39168 1.20388 0
M  V30 83 C 8.2225 -3.57166 2.70438 0
M  V30 84 C 9.9665 -4.1341 0.963953 0
M  V30 85 C 7.8735 -5.01042 3.14183 0
M  V30 86 H 6.8035 -0.708267 0.2586 0
M  V30 87 H 9.4545 -1.36239 1.22927 0
M  V30 88 H 7.8365 -3.91369 0.603824 0
M  V30 89 H 9.0105 -3.15351 3.35992 0
M  V30 90 H 7.3255 -2.96294 2.92572 0
M  V30 91 H 9.9225 -5.19491 1.26621 0
M  V30 92 H 10.2655 -4.16181 -0.099578 0
M  V30 93 H 10.7985 -3.67309 1.52738 0
M  V30 94 H 7.5375 -5.03426 4.19812 0
M  V30 95 H 7.0575 -5.43668 2.53348 0
M  V30 96 H 8.7365 -5.69623 3.0682 0
M  V30 97 N 8.8686 -0.792821 -1.36206 0
M  V30 98 C 9.7986 -0.207853 -2.32573 0
M  V30 99 C 10.7796 0.659055 -1.56813 0
M  V30 100 O 11.9646 0.592176 -1.84951 0
M  V30 101 C 9.0946 0.655449 -3.41059 0
M  V30 102 C 8.0486 -0.111842 -4.27854 0
M  V30 103 C 7.3746 0.872274 -5.27537 0
M  V30 104 C 8.6746 -1.30299 -5.05786 0
M  V30 105 H 10.3686 -1.01294 -2.81744 0
M  V30 106 H 7.9146 -0.48854 -1.3546 0
M  V30 107 H 9.8676 1.07464 -4.07467 0
M  V30 108 H 8.5916 1.49328 -2.90463 0
M  V30 109 H 7.2506 -0.512053 -3.63006 0
M  V30 110 H 6.8986 1.70523 -4.73214 0
M  V30 111 H 6.5986 0.363291 -5.86476 0
M  V30 112 H 8.1226 1.28996 -5.96818 0
M  V30 113 H 9.5366 -0.959379 -5.65216 0
M  V30 114 H 7.9336 -1.7455 -5.74154 0
M  V30 115 H 9.0036 -2.09663 -4.37229 0
M  V30 116 N 10.3467 1.47872 -0.545128 0
M  V30 117 C 11.5947 2.02093 -0.016553 0
M  V30 118 C 11.9157 1.42305 1.3332 0
M  V30 119 O 11.1857 0.593853 1.86682 0
M  V30 120 H 9.7657 0.746993 -0.00313038 0
M  V30 121 H 12.4277 1.81414 -0.712397 0
M  V30 122 H 11.5237 3.11996 0.0805422 0
M  V30 123 N 11.8248 0.280983 1.55075 0
M  V30 124 C 12.7878 -0.590896 2.21452 0
M  V30 125 C 13.7878 -1.07682 1.19421 0
M  V30 126 O 14.9778 -0.97605 1.44288 0
M  V30 127 C 12.1098 -1.81587 2.88511 0
M  V30 128 H 13.3028 -0.0112554 2.99898 0
M  V30 129 H 10.8558 0.0316438 1.56268 0
M  V30 130 H 11.5908 -2.43587 2.14093 0
M  V30 131 H 11.3758 -1.4753 3.63287 0
M  V30 132 H 12.8658 -2.43575 3.39206 0
M  V30 133 N 13.3029 -1.57598 0.00835791 0
M  V30 134 C 14.5509 -1.90551 -0.6734 0
M  V30 135 C 14.8719 -0.883301 -1.73847 0
M  V30 136 O 14.1419 0.0781442 -1.95744 0
M  V30 137 H 12.7219 -0.703312 -0.251717 0
M  V30 138 H 15.3839 -1.94833 0.0512592 0
M  V30 139 H 14.4799 -2.9056 -1.13935 0
M  V30 140 N 14.781 0.264519 -1.55364 0
M  V30 141 C 16.009 1.013 -1.80405 0
M  V30 142 C 16.424 1.79618 -0.581622 0
M  V30 143 O 15.781 1.76879 0.449468 0
M  V30 144 C 15.832 1.96487 -3.03439 0
M  V30 145 O 15.553 1.21341 -4.20961 0
M  V30 146 C 17.054 2.83079 -3.41147 0
M  V30 147 H 14.274 0.298875 -0.600762 0
M  V30 148 H 16.818 0.292736 -2.02394 0
M  V30 149 H 14.973 2.63965 -2.83551 0
M  V30 150 H 15.387 1.85573 -4.90574 0
M  V30 151 H 16.861 3.4565 -4.30384 0
M  V30 152 H 17.338 3.53286 -2.60932 0
M  V30 153 H 17.944 2.2108 -3.63323 0
M  V30 154 N 16.2591 1.48442 0.529413 0
M  V30 155 C 17.5071 1.56179 1.28267 0
M  V30 156 C 17.8281 0.237721 1.93546 0
M  V30 157 O 17.0981 -0.740779 1.81354 0
M  V30 158 H 15.6781 0.575367 0.476405 0
M  V30 159 H 18.3401 1.84909 0.61602 0
M  V30 160 H 17.4361 2.34312 2.06165 0
M  V30 161 N 17.7372 -0.778329 1.37039 0
M  V30 162 C 18.9852 -1.53361 1.31623 0
M  V30 163 C 19.3062 -1.94739 -0.100831 0
M  V30 164 O 18.5762 -1.65797 -1.04347 0
M  V30 165 H 17.1562 -0.568794 0.484234 0
M  V30 166 H 19.8182 -0.926742 1.71457 0
M  V30 167 H 18.9142 -2.43606 1.95096 0
M  V30 168 N 19.2153 -1.21501 -1.00376 0
M  V30 169 C 20.1483 -0.918669 -2.08892 0
M  V30 170 C 21.1263 0.134277 -1.62045 0
M  V30 171 O 22.3103 0.00504255 -1.88499 0
M  V30 172 C 19.4373 -0.379645 -3.36566 0
M  V30 173 C 18.4833 -1.41559 -4.02323 0
M  V30 174 S 19.3163 -2.98521 -4.44574 0
M  V30 175 C 20.4723 -2.46228 -5.75433 0
M  V30 176 H 20.7053 -1.83761 -2.33707 0
M  V30 177 H 18.2383 -1.04489 -1.13673 0
M  V30 178 H 20.1963 -0.0752195 -4.10431 0
M  V30 179 H 18.8573 0.518008 -3.09799 0
M  V30 180 H 18.0503 -0.988076 -4.9422 0
M  V30 181 H 17.6523 -1.66815 -3.34737 0
M  V30 182 H 19.9443 -1.86791 -6.51241 0
M  V30 183 H 20.8873 -3.36572 -6.22997 0
M  V30 184 H 21.2953 -1.87894 -5.32312 0
M  V30 185 N 20.6934 1.19889 -1.02296 0
M  V30 186 C 22.1044 1.71124 -0.746568 0
M  V30 187 C 22.4554 1.81939 0.734335 0
M  V30 188 O 21.5804 1.48639 1.57275 0
M  V30 189 C 22.1754 3.10804 -1.34857 0
M  V30 190 C 20.7344 3.59323 -1.1209 0
M  V30 191 C 19.8814 2.3635 -1.45031 0
M  V30 192 H 22.8324 1.04813 -1.19163 0
M  V30 193 H 22.8534 3.73186 -0.742437 0
M  V30 194 H 22.3654 3.029 -2.42638 0
M  V30 195 H 20.4664 3.7255 -0.0610337 0
M  V30 196 H 20.5794 4.4378 -1.80544 0
M  V30 197 H 18.9434 2.39399 -0.869487 0
M  V30 198 H 19.7264 2.31081 -2.53883 0
M  V30 199 N 22.1715 0.800033 1.35784 0
M  V30 200 C 23.1345 0.211565 2.28221 0
M  V30 201 C 24.1345 -0.59728 1.49296 0
M  V30 202 O 25.3245 -0.416721 1.69142 0
M  V30 203 C 22.4565 -0.705846 3.33513 0
M  V30 204 H 23.6495 1.02677 2.81776 0
M  V30 205 H 21.2025 0.570211 1.45528 0
M  V30 206 H 21.9375 -1.54498 2.85133 0
M  V30 207 H 21.7225 -0.127655 3.91892 0
M  V30 208 H 23.2125 -1.11211 4.02519 0
M  V30 209 N 23.6496 -1.47581 0.552962 0
M  V30 210 C 24.6126 -2.28439 -0.186605 0
M  V30 211 C 25.6126 -1.36706 -0.84665 0
M  V30 212 O 26.8026 -1.59378 -0.703164 0
M  V30 213 C 23.9346 -3.16264 -1.2724 0
M  V30 214 H 25.1276 -2.95294 0.523609 0
M  V30 215 H 22.6806 -1.532 0.309745 0
M  V30 216 H 23.4156 -2.54091 -2.01514 0
M  V30 217 H 23.2006 -3.83769 -0.803968 0
M  V30 218 H 24.6906 -3.77198 -1.79196 0
M  V30 219 N 25.1277 -0.289203 -1.54924 0
M  V30 220 C 26.3577 0.325989 -2.04012 0
M  V30 221 C 26.7657 1.48961 -1.1665 0
M  V30 222 O 26.1087 1.82794 -0.1822 0
M  V30 223 C 26.1707 0.856112 -3.49158 0
M  V30 224 C 25.8347 -0.180697 -4.56643 0
M  V30 225 C 26.8317 -1.0051 -5.10092 0
M  V30 226 C 24.5167 -0.318998 -5.01286 0
M  V30 227 C 26.5107 -1.95385 -6.06715 0
M  V30 228 C 24.1977 -1.27121 -5.97732 0
M  V30 229 C 25.1957 -2.08713 -6.50329 0
M  V30 230 O 24.8837 -3.02322 -7.44887 0
M  V30 231 H 24.6157 0.0765276 -0.671654 0
M  V30 232 H 27.1697 -0.423254 -2.00992 0
M  V30 233 H 25.3997 1.65567 -3.49463 0
M  V30 234 H 27.0887 1.38591 -3.81507 0
M  V30 235 H 27.8547 -0.90906 -4.76404 0
M  V30 236 H 23.7337 0.306108 -4.59983 0
M  V30 237 H 27.2777 -2.59111 -6.47694 0
M  V30 238 H 23.1747 -1.36801 -6.30837 0
M  V30 239 H 23.9427 -2.97165 -7.6265 0
M  V30 240 N 26.6058 1.57591 -0.0167156 0
M  V30 241 C 27.5158 2.1291 0.98521 0
M  V30 242 C 28.5318 1.07834 1.36557 0
M  V30 243 O 29.7078 1.39826 1.44951 0
M  V30 244 C 26.7728 2.63512 2.25305 0
M  V30 245 C 25.8338 3.83256 1.93426 0
M  V30 246 C 25.0668 4.31435 3.14165 0
M  V30 247 O 25.2898 3.78851 4.26413 0
M  V30 248 O 24.2238 5.23416 2.97186 0
M  V30 249 H 28.0498 2.98772 0.544888 0
M  V30 250 H 25.6348 1.48012 0.203141 0
M  V30 251 H 27.5168 2.96183 2.99756 0
M  V30 252 H 26.1918 1.8074 2.68542 0
M  V30 253 H 25.0988 3.55531 1.16398 0
M  V30 254 H 26.4318 4.67153 1.55013 0
M  V30 255 N 28.0839 -0.256276 1.55502 0
M  V30 256 C 29.0169 -1.34321 1.84481 0
M  V30 257 C 29.9949 -1.46802 0.699131 0
M  V30 258 O 31.1789 -1.63165 0.943904 0
M  V30 259 C 28.3059 -2.71779 2.02123 0
M  V30 260 C 27.3519 -2.76496 3.24734 0
M  V30 261 S 28.1849 -2.3405 4.81644 0
M  V30 262 C 29.3409 -3.73452 5.02279 0
M  V30 263 H 29.5739 -1.09539 2.76385 0
M  V30 264 H 27.1069 -0.45678 1.47489 0
M  V30 265 H 29.0649 -3.50932 2.12972 0
M  V30 266 H 27.7259 -2.93803 1.11078 0
M  V30 267 H 26.9189 -3.77424 3.34016 0
M  V30 268 H 26.5209 -2.05379 3.12563 0
M  V30 269 H 28.8129 -4.6887 4.89047 0
M  V30 270 H 29.7559 -3.6911 6.04287 0
M  V30 271 H 30.1639 -3.6553 4.30172 0
M  V30 272 N 29.562 -1.4872 -0.521534 0
M  V30 273 C 30.509 -1.63871 -1.62527 0
M  V30 274 C 31.479 -0.480559 -1.58996 0
M  V30 275 O 32.664 -0.705085 -1.77294 0
M  V30 276 C 29.804 -1.69227 -3.00759 0
M  V30 277 C 28.917 -2.96207 -3.14461 0
M  V30 278 C 28.052 -2.92671 -4.43303 0
M  V30 279 C 27.091 -4.14318 -4.50563 0
M  V30 280 N 26.228 -4.0881 -5.70805 0
M  V30 281 H 31.068 -2.58123 -1.48918 0
M  V30 282 H 28.605 -1.28 -0.724878 0
M  V30 283 H 30.563 -1.70314 -3.80853 0
M  V30 284 H 29.193 -0.784586 -3.1312 0
M  V30 285 H 28.245 -3.04826 -2.27564 0
M  V30 286 H 29.557 -3.86192 -3.15686 0
M  V30 287 H 28.711 -2.92206 -5.31696 0
M  V30 288 H 27.45 -2.00429 -4.44612 0
M  V30 289 H 26.455 -4.15049 -3.60575 0
M  V30 290 H 27.68 -5.07729 -4.50986 0
M  V30 291 H 25.626 -3.19394 -5.72995 0
M  V30 292 H 25.543 -4.92509 -5.7356 0
M  V30 293 H 26.811 -4.12418 -6.61462 0
M  V30 294 N 31.0401 0.771051 -1.3745 0
M  V30 295 C 31.9501 1.91538 -1.35464 0
M  V30 296 C 32.9661 1.72134 -0.254123 0
M  V30 297 O 34.1421 1.95358 -0.489626 0
M  V30 298 C 31.2071 3.26671 -1.16134 0
M  V30 299 C 30.2681 3.58723 -2.35831 0
M  V30 300 C 29.5011 4.87409 -2.17413 0
M  V30 301 O 29.7241 5.58506 -1.15876 0
M  V30 302 O 28.6581 5.18539 -3.05615 0
M  V30 303 H 32.4841 1.96165 -2.31847 0
M  V30 304 H 30.0691 0.9139 -1.18187 0
M  V30 305 H 31.9511 4.07499 -1.07345 0
M  V30 306 H 30.6261 3.22894 -0.228251 0
M  V30 307 H 29.5331 2.78127 -2.50192 0
M  V30 308 H 30.8661 3.67243 -3.27709 0
M  V30 309 N 32.5182 1.22032 0.997298 0
M  V30 310 C 33.4812 0.987909 2.06816 0
M  V30 311 C 34.4812 -0.0440084 1.6074 0
M  V30 312 O 35.6712 0.194053 1.73116 0
M  V30 313 C 32.8032 0.49132 3.37341 0
M  V30 314 H 33.9962 1.93803 2.28868 0
M  V30 315 H 31.5492 1.03838 1.16822 0
M  V30 316 H 32.2842 -0.463364 3.20973 0
M  V30 317 H 32.0692 1.23575 3.72118 0
M  V30 318 H 33.5592 0.348824 4.16141 0
M  V30 319 N 33.9963 -1.19345 1.0293 0
M  V30 320 C 34.9263 -2.2481 0.631105 0
M  V30 321 C 35.9073 -1.66245 -0.360104 0
M  V30 322 O 37.0923 -1.92677 -0.242726 0
M  V30 323 C 34.2223 -3.47295 -0.0184607 0
M  V30 324 C 33.1763 -4.18536 0.895073 0
M  V30 325 C 32.5023 -5.34586 0.110592 0
M  V30 326 C 33.8023 -4.73287 2.209 0
M  V30 327 H 35.4963 -2.58372 1.51275 0
M  V30 328 H 33.0423 -1.24194 0.728818 0
M  V30 329 H 34.9953 -4.20268 -0.308675 0
M  V30 330 H 33.7193 -3.12933 -0.934907 0
M  V30 331 H 32.3783 -3.47446 1.16949 0
M  V30 332 H 32.0263 -4.96469 -0.807902 0
M  V30 333 H 31.7263 -5.83183 0.719087 0
M  V30 334 H 33.2503 -6.10355 -0.172871 0
M  V30 335 H 34.6643 -5.38013 1.98028 0
M  V30 336 H 33.0613 -5.32373 2.76946 0
M  V30 337 H 34.1313 -3.91331 2.86336 0
M  V30 338 N 35.4744 -0.807222 -1.35358 0
M  V30 339 C 36.7224 -0.387122 -1.98358 0
M  V30 340 C 37.0434 1.04942 -1.64354 0
M  V30 341 O 36.3134 1.72615 -0.926339 0
M  V30 342 H 34.8934 -0.140154 -0.733734 0
M  V30 343 H 37.5554 -1.0332 -1.6526 0
M  V30 344 H 36.6514 -0.493352 -3.08176 0
M  V30 345 N 36.9525 1.47285 -0.560781 0
M  V30 346 C 38.1775 2.07359 -0.0410566 0
M  V30 347 C 38.6025 1.41017 1.24483 0
M  V30 348 O 37.9605 0.486368 1.74654 0
M  V30 349 C 38.0085 3.6035 0.134123 0
M  V30 350 O 37.1125 3.94681 1.19587 0
M  V30 351 H 36.4535 0.661887 -0.0529291 0
M  V30 352 H 38.9835 1.89252 -0.777482 0
M  V30 353 H 38.9935 4.0652 0.347207 0
M  V30 354 H 37.6685 4.08034 -0.805047 0
M  V30 355 H 36.2455 3.60251 0.962987 0
M  V30 356 N 38.4306 0.297415 1.54768 0
M  V30 357 C 39.6786 -0.312295 1.99673 0
M  V30 358 C 39.9996 -1.54686 1.18732 0
M  V30 359 O 39.2696 -1.93854 0.282382 0
M  V30 360 H 37.8496 -0.118381 0.73756 0
M  V30 361 H 40.5116 0.407915 1.90583 0
M  V30 362 H 39.6076 -0.586813 3.06534 0
M  V30 363 N 39.9087 -1.5758 0.0250728 0
M  V30 364 C 40.8587 -2.06468 -0.967201 0
M  V30 365 C 41.8427 -0.964376 -1.28797 0
M  V30 366 O 43.0347 -1.22797 -1.27475 0
M  V30 367 C 40.1637 -2.59203 -2.25097 0
M  V30 368 C 39.2497 -3.76157 -1.95874 0
M  V30 369 N 39.6407 -4.86919 -1.36905 0
M  V30 370 C 37.9387 -3.84566 -2.25887 0
M  V30 371 C 38.6397 -5.68172 -1.24724 0
M  V30 372 N 37.6157 -5.14953 -1.74138 0
M  V30 373 H 41.4177 -2.89508 -0.506176 0
M  V30 374 H 38.9317 -1.61399 -0.18004 0
M  V30 375 H 40.9287 -2.92517 -2.97052 0
M  V30 376 H 39.5887 -1.77592 -2.71829 0
M  V30 377 H 40.5997 -5.07256 -1.04459 0
M  V30 378 H 37.2767 -3.13854 -2.75321 0
M  V30 379 H 38.6667 -6.67221 -0.791605 0
M  V30 380 N 41.3868 0.248026 -1.55636 0
M  V30 381 C 42.2968 1.32859 -1.93354 0
M  V30 382 C 43.3128 1.52719 -0.833838 0
M  V30 383 O 44.4888 1.66363 -1.13513 0
M  V30 384 C 41.5538 2.66337 -2.21958 0
M  V30 385 C 40.6148 2.55008 -3.45354 0
M  V30 386 C 39.8478 3.82121 -3.72584 0
M  V30 387 O 40.0708 4.83951 -3.01907 0
M  V30 388 O 39.0048 3.80822 -4.6611 0
M  V30 389 H 42.8308 1.03862 -2.85388 0
M  V30 390 H 40.4158 0.448686 -1.42503 0
M  V30 391 H 42.2978 3.45216 -2.4167 0
M  V30 392 H 40.9728 2.95068 -1.33103 0
M  V30 393 H 39.8798 1.7442 -3.30951 0
M  V30 394 H 41.2128 2.31222 -4.34508 0
M  V30 395 N 42.8649 1.48995 0.513639 0
M  V30 396 C 44.1109 1.58076 1.27042 0
M  V30 397 C 44.4439 0.261026 1.92438 0
M  V30 398 O 43.7189 -0.734393 1.80103 0
M  V30 399 C 44.0019 2.73091 2.34719 0
M  V30 400 C 43.8549 4.14821 1.73907 0
M  V30 401 C 45.1739 2.83796 3.36375 0
M  V30 402 H 42.2929 0.575391 0.460536 0
M  V30 403 H 44.9349 1.81232 0.570516 0
M  V30 404 H 43.0849 2.53479 2.94416 0
M  V30 405 H 44.7569 4.45917 1.18135 0
M  V30 406 H 42.9999 4.21058 1.0437 0
M  V30 407 H 43.6709 4.91147 2.51949 0
M  V30 408 H 46.1469 3.01611 2.86653 0
M  V30 409 H 45.0229 3.65971 4.09093 0
M  V30 410 H 45.2839 1.92624 3.9793 0
M  V30 411 N 44.343 -0.763751 1.37857 0
M  V30 412 C 45.571 -1.55293 1.36718 0
M  V30 413 C 45.986 -1.88745 -0.0455434 0
M  V30 414 O 45.343 -1.52039 -1.00947 0
M  V30 415 C 45.394 -2.85831 2.2132 0
M  V30 416 O 45.115 -2.5381 3.57089 0
M  V30 417 C 46.616 -3.80023 2.28249 0
M  V30 418 H 43.836 -0.480841 0.468009 0
M  V30 419 H 46.38 -0.946009 1.81303 0
M  V30 420 H 44.535 -3.42926 1.80223 0
M  V30 421 H 44.949 -3.37459 4.01524 0
M  V30 422 H 46.423 -4.68599 2.91752 0
M  V30 423 H 46.9 -4.1973 1.2932 0
M  V30 424 H 47.506 -3.28855 2.69693 0
M  V30 425 N 45.8211 -1.22559 -0.990812 0
M  V30 426 C 46.7511 -1.0218 -2.09956 0
M  V30 427 C 47.7321 0.0579394 -1.70001 0
M  V30 428 O 48.9171 -0.104684 -1.93918 0
M  V30 429 C 46.0471 -0.601023 -3.4206 0
M  V30 430 C 45.0011 -1.62694 -3.95872 0
M  V30 431 C 44.3271 -1.06193 -5.24049 0
M  V30 432 C 45.6271 -3.01743 -4.2632 0
M  V30 433 H 47.3211 -1.94916 -2.27262 0
M  V30 434 H 44.8671 -0.938566 -1.09211 0
M  V30 435 H 46.8201 -0.445561 -4.19038 0
M  V30 436 H 45.5441 0.362005 -3.24588 0
M  V30 437 H 44.2031 -1.77021 -3.21028 0
M  V30 438 H 43.8511 -0.0901903 -5.02919 0
M  V30 439 H 43.5511 -1.74732 -5.61019 0
M  V30 440 H 45.0751 -0.918092 -6.03658 0
M  V30 441 H 46.4891 -2.90777 -4.94087 0
M  V30 442 H 44.8861 -3.67425 -4.74467 0
M  V30 443 H 45.9561 -3.51518 -3.34011 0
M  V30 444 N 47.2992 1.18797 -1.03562 0
M  V30 445 C 48.5482 1.87978 -0.731235 0
M  V30 446 C 48.8612 1.80911 0.743671 0
M  V30 447 O 50.0672 2.45407 1.16137 0
M  V30 448 C 48.5232 3.3721 -1.25768 0
M  V30 449 C 48.1312 3.52818 -2.76085 0
M  V30 450 C 49.8752 4.11825 -1.0296 0
M  V30 451 C 47.7822 4.9598 -3.22114 0
M  V30 452 H 46.7122 0.704063 -0.269835 0
M  V30 453 H 49.3632 1.34266 -1.25079 0
M  V30 454 H 47.7452 3.90359 -0.666011 0
M  V30 455 H 48.9192 3.09965 -3.40966 0
M  V30 456 H 47.2342 2.91602 -2.97249 0
M  V30 457 H 49.8312 5.17411 -1.34869 0
M  V30 458 H 50.1742 4.16287 0.0333546 0
M  V30 459 H 50.7072 3.64833 -1.58562 0
M  V30 460 H 47.4462 4.96684 -4.27768 0
M  V30 461 H 46.9662 5.39569 -2.61965 0
M  V30 462 H 48.6452 5.6467 -3.15844 0
M  V30 463 N 48.7773 0.814389 1.34928 0
M  V30 464 C 50.0023 0.410097 2.03305 0
M  V30 465 C 50.4273 -0.973464 1.60951 0
M  V30 466 O 49.7853 -1.63185 0.789964 0
M  V30 467 C 49.8333 0.51049 3.56968 0
M  V30 468 O 48.9373 -0.473035 4.09678 0
M  V30 469 H 48.2783 0.170088 0.641846 0
M  V30 470 H 50.8083 1.10244 1.72358 0
M  V30 471 H 50.8183 0.383135 4.06197 0
M  V30 472 H 49.4933 1.51963 3.87144 0
M  V30 473 H 48.0703 -0.305272 3.71648 0
M  V30 474 N 50.2554 -1.46986 0.568584 0
M  V30 475 C 51.2184 -2.28624 -0.162366 0
M  V30 476 C 52.2184 -1.37596 -0.832103 0
M  V30 477 O 53.4084 -1.60115 -0.68622 0
M  V30 478 C 50.5404 -3.17596 -1.23878 0
M  V30 479 H 51.7334 -2.94722 0.554899 0
M  V30 480 H 49.2864 -1.52863 0.325976 0
M  V30 481 H 50.0214 -2.56214 -1.98808 0
M  V30 482 H 49.8064 -3.846 -0.763219 0
M  V30 483 H 51.2964 -3.79078 -1.75185 0
M  V30 484 N 51.7335 -0.305618 -1.54608 0
M  V30 485 C 52.6815 0.584119 -2.25146 0
M  V30 486 C 53.6755 1.13326 -1.25911 0
M  V30 487 O 54.8815 1.08337 -1.43747 0
M  V30 488 H 51.2565 0.206983 -0.722954 0
M  V30 489 H 53.2275 -0.033291 -2.98381 0
M  V30 490 C 51.9765 1.74225 -3.009 0
M  V30 491 H 51.2995 1.32892 -3.77067 0
M  V30 492 H 52.7395 2.34077 -3.53531 0
M  V30 493 C 51.1985 2.64914 -2.0814 0
M  V30 494 O 51.7285 3.66137 -1.65246 0
M  V30 495 N 49.9345 2.3275 -1.74 0
M  V30 496 H 49.4815 1.50479 -2.09078 0
M  V30 497 H 49.4395 2.93694 -1.12211 0
M  V30 498 N 53.2116 1.57565 -0.0334293 0
M  V30 499 C 54.4886 1.83282 0.683163 0
M  V30 500 C 54.8686 0.91823 1.90084 0
M  V30 501 O 54.2166 -0.025113 2.28486 0
M  V30 502 C 54.4266 3.32599 1.0573 0
M  V30 503 C 55.7746 3.99179 1.44711 0
M  V30 504 O 56.7986 3.3712 1.15015 0
M  V30 505 O 55.6576 5.08565 2.0006 0
M  V30 506 H 52.7516 0.755869 0.335546 0
M  V30 507 H 55.2976 1.69589 -0.0614402 0
M  V30 508 H 54.0696 3.90834 0.190828 0
M  V30 509 H 53.6926 3.51415 1.85993 0
M  V30 510 N 54.6897 -0.239769 1.55765 0
M  V30 511 C 55.9197 -0.982743 1.8173 0
M  V30 512 C 56.3277 -1.7917 0.607835 0
M  V30 513 O 55.6707 -1.78525 -0.432973 0
M  V30 514 C 55.7327 -1.96332 3.01155 0
M  V30 515 C 55.3967 -1.34062 4.36894 0
M  V30 516 C 56.3937 -0.739539 5.14613 0
M  V30 517 C 54.0787 -1.35784 4.83599 0
M  V30 518 C 56.0727 -0.163989 6.37189 0
M  V30 519 C 53.7597 -0.778441 6.06122 0
M  V30 520 C 54.7577 -0.182548 6.82756 0
M  V30 521 O 54.4457 0.387887 8.02964 0
M  V30 522 H 54.1777 -0.294481 0.608487 0
M  V30 523 H 56.7317 -0.26572 2.03674 0
M  V30 524 H 54.9617 -2.71884 2.74984 0
M  V30 525 H 56.6507 -2.57032 3.14149 0
M  V30 526 H 57.4167 -0.718687 4.79646 0
M  V30 527 H 53.2957 -1.81105 4.23936 0
M  V30 528 H 56.8397 0.301753 6.96947 0
M  V30 529 H 52.7367 -0.796645 6.40565 0
M  V30 530 H 53.5047 0.28044 8.18019 0
M  V30 531 N 56.1678 -1.49265 -0.50573 0
M  V30 532 C 57.4148 -1.58513 -1.26015 0
M  V30 533 C 57.7428 -0.26972 -1.92621 0
M  V30 534 O 56.9978 0.741997 -1.81088 0
M  V30 535 C 57.2968 -2.69008 -2.35308 0
M  V30 536 C 56.9628 -4.10662 -1.86192 0
M  V30 537 C 55.6248 -4.49212 -1.72516 0
M  V30 538 C 57.9768 -4.99336 -1.49375 0
M  V30 539 C 55.3048 -5.74214 -1.20394 0
M  V30 540 C 57.6568 -6.24852 -0.987072 0
M  V30 541 C 56.3208 -6.62236 -0.836669 0
M  V30 542 H 55.5908 -0.580041 -0.461122 0
M  V30 543 H 58.2378 -1.83078 -0.561665 0
M  V30 544 H 56.5428 -2.38396 -3.10926 0
M  V30 545 H 58.2398 -2.73373 -2.93374 0
M  V30 546 H 54.8298 -3.8023 -1.97795 0
M  V30 547 H 59.0138 -4.70212 -1.5879 0
M  V30 548 H 54.2698 -6.01883 -1.07458 0
M  V30 549 H 58.4438 -6.92944 -0.692983 0
M  V30 550 H 56.0708 -7.58979 -0.430607 0
M  V30 551 N 57.6459 0.756429 -1.3826 0
M  V30 552 C 58.5779 1.87971 -1.31147 0
M  V30 553 C 59.5909 1.61248 -0.224239 0
M  V30 554 O 60.7799 1.71881 -0.481581 0
M  V30 555 C 57.8799 3.23545 -1.00857 0
M  V30 556 C 57.0529 3.77794 -2.20432 0
M  V30 557 C 56.1119 4.91877 -1.86931 0
M  V30 558 O 55.1379 5.06659 -2.59395 0
M  V30 559 N 56.3399 5.74643 -0.822568 0
M  V30 560 H 59.1049 1.94585 -2.2794 0
M  V30 561 H 56.6659 0.936234 -1.32084 0
M  V30 562 H 58.6579 3.97403 -0.765021 0
M  V30 563 H 57.2279 3.12335 -0.128687 0
M  V30 564 H 56.4479 2.95534 -2.6087 0
M  V30 565 H 57.7359 4.10771 -3.00241 0
M  V30 566 H 57.1339 5.65266 -0.221575 0
M  V30 567 H 55.6909 6.48661 -0.638899 0
M  V30 568 N 59.124 1.23083 0.984299 0
M  V30 569 C 60.371 1.06057 1.72505 0
M  V30 570 C 60.699 -0.403105 1.90277 0
M  V30 571 O 59.954 -1.3149 1.44944 0
M  V30 572 C 60.253 1.72673 3.1292 0
M  V30 573 C 59.919 3.22586 3.15038 0
M  V30 574 C 58.581 3.63489 3.15324 0
M  V30 575 C 60.933 4.185 3.10657 0
M  V30 576 C 58.261 4.98772 3.08939 0
M  V30 577 C 60.613 5.53769 3.05814 0
M  V30 578 C 59.277 5.94041 3.04419 0
M  V30 579 H 58.547 0.388091 0.631242 0
M  V30 580 H 61.194 1.52963 1.15215 0
M  V30 581 H 59.499 1.18116 3.73572 0
M  V30 582 H 61.196 1.56982 3.68996 0
M  V30 583 H 57.786 2.90022 3.15571 0
M  V30 584 H 61.97 3.87911 3.09579 0
M  V30 585 H 57.226 5.29193 3.0621 0
M  V30 586 H 61.4 6.27808 3.0138 0
M  V30 587 H 59.027 6.98833 2.99227 0
M  V30 588 N 60.6021 -1.18246 1.0419 0
M  V30 589 C 61.8481 -1.88536 0.747122 0
M  V30 590 C 62.1811 -1.80223 -0.723409 0
M  V30 591 O 61.4561 -1.20337 -1.52804 0
M  V30 592 C 61.7391 -3.38968 1.21544 0
M  V30 593 C 61.5921 -3.56084 2.74816 0
M  V30 594 C 62.9111 -4.32648 0.806482 0
M  V30 595 H 60.0301 -0.684619 0.272883 0
M  V30 596 H 62.6721 -1.39113 1.29413 0
M  V30 597 H 60.8221 -3.8119 0.750081 0
M  V30 598 H 62.4941 -3.22946 3.29399 0
M  V30 599 H 60.7371 -2.98699 3.14582 0
M  V30 600 H 61.4081 -4.61639 3.02644 0
M  V30 601 H 63.8841 -3.98211 1.20695 0
M  V30 602 H 62.7601 -5.36462 1.1619 0
M  V30 603 H 63.0211 -4.41146 -0.29029 0
M  V30 604 N 62.0802 -0.821533 -1.34494 0
M  V30 605 C 63.4912 -0.467956 -1.8074 0
M  V30 606 C 63.8422 1.01151 -1.68116 0
M  V30 607 O 62.9672 1.78707 -1.22036 0
M  V30 608 C 63.5622 -0.842627 -3.28154 0
M  V30 609 C 62.1212 -0.541439 -3.72485 0
M  V30 610 C 61.2682 -1.06028 -2.56229 0
M  V30 611 H 64.2192 -1.01183 -1.22261 0
M  V30 612 H 64.2402 -0.145876 -3.8022 0
M  V30 613 H 63.7522 -1.91945 -3.37311 0
M  V30 614 H 61.8532 0.526034 -3.68868 0
M  V30 615 H 61.9662 -1.08453 -4.66663 0
M  V30 616 H 60.3302 -0.481892 -2.501 0
M  V30 617 H 61.1132 -2.14352 -2.68157 0
M  V30 618 N 63.5583 1.46682 -0.576371 0
M  V30 619 C 64.7833 2.07304 -0.0630475 0
M  V30 620 C 65.2083 1.42329 1.2298 0
M  V30 621 O 64.5663 0.504865 1.74129 0
M  V30 622 C 64.6143 3.60472 0.095895 0
M  V30 623 O 63.7183 3.95927 1.15394 0
M  V30 624 H 63.0593 0.661288 -0.0599463 0
M  V30 625 H 65.5893 1.88417 -0.797511 0
M  V30 626 H 65.5993 4.06865 0.304071 0
M  V30 627 H 64.2743 4.07157 -0.84828 0
M  V30 628 H 62.8513 3.61252 0.924724 0
M  V30 629 N 65.0364 0.313813 1.54444 0
M  V30 630 C 65.9844 -0.572171 2.25453 0
M  V30 631 C 66.9784 -1.12657 1.2651 0
M  V30 632 O 68.1844 -1.07573 1.44319 0
M  V30 633 H 64.5594 -0.203146 0.724041 0
M  V30 634 H 66.5304 0.0491145 2.9836 0
M  V30 635 C 65.2794 -1.72626 3.0182 0
M  V30 636 H 64.6024 -1.30891 3.77767 0
M  V30 637 H 66.0424 -2.32199 3.54767 0
M  V30 638 C 64.5014 -2.63806 2.09542 0
M  V30 639 O 65.0314 -3.65256 1.67185 0
M  V30 640 N 63.2374 -2.31824 1.75232 0
M  V30 641 H 62.7844 -1.49368 2.09873 0
M  V30 642 H 62.7424 -2.93095 1.13767 0
M  V30 643 N 66.5145 -1.57545 0.0417849 0
M  V30 644 C 67.9255 -1.80011 -0.495259 0
M  V30 645 C 68.2765 -0.953199 -1.71489 0
M  V30 646 O 67.4015 -0.167138 -2.15754 0
M  V30 647 C 67.9965 -3.26482 -0.905265 0
M  V30 648 C 66.5555 -3.499 -1.38734 0
M  V30 649 C 65.7025 -2.74979 -0.358056 0
M  V30 650 H 68.6535 -1.56425 0.267736 0
M  V30 651 H 68.6745 -3.36887 -1.76882 0
M  V30 652 H 68.1865 -3.88096 -0.017401 0
M  V30 653 H 66.2875 -2.93553 -2.29471 0
M  V30 654 H 66.4005 -4.58615 -1.38598 0
M  V30 655 H 64.7645 -2.40834 -0.828912 0
M  V30 656 H 65.5475 -3.39315 0.521561 0
M  V30 657 N 67.9926 0.231505 -1.5589 0
M  V30 658 C 69.2386 0.954429 -1.79617 0
M  V30 659 C 69.5936 1.82367 -0.613199 0
M  V30 660 O 68.8866 1.87524 0.393094 0
M  V30 661 C 69.0806 1.83577 -3.0665 0
M  V30 662 C 68.9096 1.05334 -4.3719 0
M  V30 663 C 67.6796 0.75225 -4.99669 0
M  V30 664 C 69.8776 0.423444 -5.12554 0
M  V30 665 N 67.8596 -0.052627 -6.13877 0
M  V30 666 C 69.2306 -0.245287 -6.19515 0
M  V30 667 C 71.2856 0.335466 -4.96769 0
M  V30 668 C 69.9886 -0.993566 -7.12405 0
M  V30 669 C 72.0146 -0.399321 -5.9005 0
M  V30 670 C 71.3766 -1.05663 -6.9643 0
M  V30 671 H 67.4756 0.329846 -0.709031 0
M  V30 672 H 70.0596 0.226172 -1.93382 0
M  V30 673 H 68.2306 2.53592 -2.94186 0
M  V30 674 H 69.9626 2.49541 -3.18608 0
M  V30 675 H 66.7176 1.06783 -4.61405 0
M  V30 676 H 67.1416 -0.443609 -6.75545 0
M  V30 677 H 71.7836 0.829311 -4.14587 0
M  V30 678 H 69.5016 -1.49896 -7.94076 0
M  V30 679 H 73.0876 -0.468265 -5.79913 0
M  V30 680 H 71.9676 -1.61612 -7.67366 0
M  V30 681 N 69.4707 1.49531 0.497807 0
M  V30 682 C 70.7167 1.59415 1.25358 0
M  V30 683 C 71.0497 0.281422 1.9215 0
M  V30 684 O 70.3247 -0.715249 1.80871 0
M  V30 685 C 70.6077 2.75566 2.3181 0
M  V30 686 C 70.4607 4.16642 1.69498 0
M  V30 687 C 71.7797 2.87347 3.33346 0
M  V30 688 H 68.8987 0.580244 0.454408 0
M  V30 689 H 71.5407 1.81827 0.551262 0
M  V30 690 H 69.6907 2.56587 2.91711 0
M  V30 691 H 71.3627 4.47145 1.13399 0
M  V30 692 H 69.6057 4.22141 0.998978 0
M  V30 693 H 70.2767 4.93792 2.46725 0
M  V30 694 H 72.7527 3.04634 2.83438 0
M  V30 695 H 71.6287 3.70289 4.05188 0
M  V30 696 H 71.8897 1.96834 3.95865 0
M  V30 697 N 70.9488 -0.749086 1.3866 0
M  V30 698 C 72.1968 -1.50535 1.34847 0
M  V30 699 C 72.5178 -1.94909 -0.0595016 0
M  V30 700 O 71.7878 -1.67973 -1.00806 0
M  V30 701 H 70.3678 -0.558395 0.49619 0
M  V30 702 H 73.0298 -0.890165 1.73384 0
M  V30 703 H 72.1258 -2.39413 2.00219 0
M  V30 704 N 72.4269 -1.23603 -0.977757 0
M  V30 705 C 73.6729 -1.07129 -1.72195 0
M  V30 706 C 74.0059 0.390501 -1.90233 0
M  V30 707 O 73.2809 1.28902 -1.45653 0
M  V30 708 C 73.5639 -1.80031 -3.11867 0
M  V30 709 C 73.4169 -3.33899 -3.01383 0
M  V30 710 C 74.7359 -1.56492 -4.11337 0
M  V30 711 H 71.8549 -0.390571 -0.624999 0
M  V30 712 H 74.4969 -1.52142 -1.13811 0
M  V30 713 H 72.6469 -1.41768 -3.6171 0
M  V30 714 H 74.3189 -3.81699 -2.59043 0
M  V30 715 H 72.5619 -3.62796 -2.37827 0
M  V30 716 H 73.2329 -3.801 -4.00285 0
M  V30 717 H 75.7089 -1.89757 -3.70313 0
M  V30 718 H 74.5849 -2.09973 -5.07151 0
M  V30 719 H 74.8459 -0.500874 -4.39254 0
M  V30 720 N 73.905 1.17692 -1.04816 0
M  V30 721 C 75.153 1.87488 -0.754497 0
M  V30 722 C 75.474 1.81205 0.720407 0
M  V30 723 O 74.744 1.23544 1.52032 0
M  V30 724 H 73.324 0.694101 -0.276102 0
M  V30 725 H 75.986 1.42793 -1.32651 0
M  V30 726 H 75.082 2.93328 -1.06606 0
M  V30 727 N 75.3831 0.828654 1.34056 0
M  V30 728 C 76.6291 0.429279 1.98818 0
M  V30 729 C 76.9841 -0.998011 1.64492 0
M  V30 730 O 76.2771 -1.68652 0.909228 0
M  V30 731 C 76.4711 0.575226 3.52741 0
M  V30 732 C 76.3001 2.01515 4.02022 0
M  V30 733 C 75.0701 2.64825 4.30344 0
M  V30 734 C 77.2681 2.98261 4.18981 0
M  V30 735 N 75.2501 3.99998 4.65698 0
M  V30 736 C 76.6211 4.18356 4.57578 0
M  V30 737 C 78.6761 2.94802 4.01243 0
M  V30 738 C 77.3791 5.35454 4.80293 0
M  V30 739 C 79.4051 4.11121 4.25128 0
M  V30 740 C 78.7671 5.29969 4.64018 0
M  V30 741 H 74.8661 0.205304 0.754569 0
M  V30 742 H 77.4501 1.07457 1.62361 0
M  V30 743 H 75.6211 -0.0401962 3.88379 0
M  V30 744 H 77.3531 0.148292 4.04428 0
M  V30 745 H 74.1081 2.16027 4.21461 0
M  V30 746 H 74.5321 4.69653 4.87601 0
M  V30 747 H 79.1741 2.04054 3.70299 0
M  V30 748 H 76.8921 6.26755 5.10102 0
M  V30 749 H 80.4781 4.0985 4.12934 0
M  V30 750 H 79.3581 6.18479 4.82134 0
M  V30 751 N 76.8612 -1.46375 0.584142 0
M  V30 752 C 77.8082 -2.30323 -0.148286 0
M  V30 753 C 78.7782 -1.40703 -0.882713 0
M  V30 754 O 79.9632 -1.69651 -0.873099 0
M  V30 755 C 77.1032 -3.25196 -1.15507 0
M  V30 756 C 76.2162 -4.29915 -0.423943 0
M  V30 757 C 75.3512 -5.11914 -1.41838 0
M  V30 758 C 74.3902 -6.08381 -0.673736 0
M  V30 759 N 73.5272 -6.83242 -1.6163 0
M  V30 760 H 78.3672 -2.92427 0.573644 0
M  V30 761 H 75.9042 -1.44118 0.294703 0
M  V30 762 H 77.8622 -3.78646 -1.75166 0
M  V30 763 H 76.4922 -2.64898 -1.8447 0
M  V30 764 H 75.5442 -3.7931 0.287714 0
M  V30 765 H 76.8562 -4.98549 0.158128 0
M  V30 766 H 76.0102 -5.69648 -2.08773 0
M  V30 767 H 74.7492 -4.43243 -2.03438 0
M  V30 768 H 73.7542 -5.49799 0.00938483 0
M  V30 769 H 74.9792 -6.79071 -0.0631082 0
M  V30 770 H 72.9252 -6.1728 -2.22038 0
M  V30 771 H 72.8422 -7.48144 -1.08707 0
M  V30 772 H 74.1102 -7.45534 -2.27596 0
M  V30 773 N 78.3393 -0.321999 -1.54275 0
M  V30 774 C 79.2493 0.553631 -2.27974 0
M  V30 775 C 80.2653 1.13054 -1.32268 0
M  V30 776 O 81.4413 1.15084 -1.6528 0
M  V30 777 C 78.5063 1.69927 -3.02201 0
M  V30 778 C 77.5673 1.15433 -4.1349 0
M  V30 779 C 76.8003 2.24537 -4.84168 0
M  V30 780 O 77.0233 3.44852 -4.5435 0
M  V30 781 O 75.9573 1.90044 -5.7111 0
M  V30 782 H 79.7833 -0.0448345 -3.03667 0
M  V30 783 H 77.3683 -0.0877418 -1.49142 0
M  V30 784 H 79.2503 2.3663 -3.48689 0
M  V30 785 H 77.9253 2.28395 -2.29385 0
M  V30 786 H 76.8323 0.452436 -3.71354 0
M  V30 787 H 78.1653 0.614805 -4.88345 0
M  V30 788 N 79.8174 1.5752 -0.0501392 0
M  V30 789 C 81.2334 1.56631 0.306402 0
M  V30 790 C 81.4334 1.0577 1.71508 0
M  V30 791 O 80.4894 0.713837 2.422 0
M  V30 792 C 81.8024 3.00393 0.135811 0
M  V30 793 C 83.3504 3.12315 0.206993 0
M  V30 794 C 83.8254 4.57954 0.064944 0
M  V30 795 N 85.3164 4.63041 0.121254 0
M  V30 796 C 86.0514 5.73389 0.0354381 0
M  V30 797 N 85.5474 6.92724 -0.102666 0
M  V30 798 N 87.3404 5.62026 0.090946 0
M  V30 799 H 79.4914 1.88903 -0.971046 0
M  V30 800 H 81.7544 0.869876 -0.376855 0
M  V30 801 H 81.4604 3.41635 -0.835384 0
M  V30 802 H 81.3344 3.66373 0.897275 0
M  V30 803 H 83.7214 2.70973 1.16866 0
M  V30 804 H 83.8024 2.49016 -0.585208 0
M  V30 805 H 83.4464 4.99981 -0.893394 0
M  V30 806 H 83.3764 5.19258 0.876277 0
M  V30 807 H 85.8674 3.77216 0.227284 0
M  V30 808 H 86.1804 7.72633 -0.160882 0
M  V30 809 H 84.5254 6.94864 -0.137737 0
M  V30 810 H 87.7164 4.67684 0.197388 0
M  V30 811 H 87.8894 6.47997 0.0206089 0
M  V30 812 N 81.2955 -0.223234 1.56011 0
M  V30 813 C 82.5725 -0.972108 1.69733 0
M  V30 814 C 82.9525 -2.02485 0.59691 0
M  V30 815 O 82.3005 -2.25037 -0.396324 0
M  V30 816 C 82.5105 -1.58407 3.10979 0
M  V30 817 C 83.8585 -2.07696 3.70334 0
M  V30 818 O 84.8825 -1.68304 3.1393 0
M  V30 819 O 83.7415 -2.80096 4.69264 0
M  V30 820 H 80.8355 -0.453993 0.691245 0
M  V30 821 H 83.3815 -0.215149 1.68331 0
M  V30 822 H 82.1535 -0.823831 3.82529 0
M  V30 823 H 81.7765 -2.40661 3.16493 0
M  V30 824 N 82.7736 -1.49793 -0.48987 0
M  V30 825 C 84.0506 -1.50348 -1.25119 0
M  V30 826 C 84.4306 -0.237466 -2.0976 0
M  V30 827 O 83.7786 0.77981 -2.14782 0
M  V30 828 C 83.9886 -2.78872 -2.09837 0
M  V30 829 C 85.3366 -3.288 -2.68655 0
M  V30 830 O 86.3606 -2.80065 -2.20096 0
M  V30 831 O 85.2196 -4.13707 -3.57083 0
M  V30 832 H 82.3136 -0.602242 -0.566775 0
M  V30 833 H 84.8596 -1.62067 -0.503229 0
M  V30 834 H 83.6316 -3.62499 -1.47343 0
M  V30 835 H 83.2546 -2.70066 -2.91805 0
M  V30 836 N 84.2517 0.741722 -1.39055 0
M  V30 837 C 85.5007 1.49656 -1.35225 0
M  V30 838 C 85.8137 1.95533 0.0512708 0
M  V30 839 O 87.0197 2.7067 0.212138 0
M  V30 840 C 85.4757 2.70389 -2.37525 0
M  V30 841 C 85.0837 2.31489 -3.83558 0
M  V30 842 C 86.8277 3.48236 -2.42759 0
M  V30 843 C 84.7347 3.48903 -4.77515 0
M  V30 844 H 83.6647 0.56197 -0.502699 0
M  V30 845 H 86.3157 0.809727 -1.64668 0
M  V30 846 H 84.6977 3.41113 -2.01142 0
M  V30 847 H 85.8717 1.68354 -4.28945 0
M  V30 848 H 84.1867 1.66749 -3.81554 0
M  V30 849 H 86.7837 4.35558 -3.1015 0
M  V30 850 H 87.1267 3.90229 -1.45008 0
M  V30 851 H 87.6597 2.84535 -2.78002 0
M  V30 852 H 84.3987 3.11966 -5.76504 0
M  V30 853 H 83.9187 4.11041 -4.36813 0
M  V30 854 H 85.5977 4.15328 -4.96096 0
M  V30 855 N 85.7298 1.2412 0.971189 0
M  V30 856 C 86.6928 1.03156 2.04674 0
M  V30 857 C 87.6928 -0.00990322 1.60797 0
M  V30 858 O 88.8828 0.230729 1.72665 0
M  V30 859 C 86.0148 0.562765 3.36223 0
M  V30 860 H 87.2078 1.98614 2.24705 0
M  V30 861 H 84.7608 1.06293 1.14593 0
M  V30 862 H 85.4958 -0.395176 3.21883 0
M  V30 863 H 85.2808 1.31441 3.69413 0
M  V30 864 H 86.7708 0.437015 4.15307 0
M  V30 865 N 87.2079 -1.17134 1.05439 0
M  V30 866 C 88.4549 -1.87456 0.765942 0
M  V30 867 C 88.7829 -1.81189 -0.707153 0
M  V30 868 O 88.0379 -1.21633 -1.5331 0
M  V30 869 C 88.3369 -3.36833 1.19491 0
M  V30 870 C 88.0029 -3.63301 2.67063 0
M  V30 871 C 86.6649 -3.70234 3.07376 0
M  V30 872 C 89.0169 -3.74575 3.62413 0
M  V30 873 C 86.3449 -3.85933 4.41896 0
M  V30 874 C 88.6969 -3.91793 4.9667 0
M  V30 875 C 87.3609 -3.96966 5.36633 0
M  V30 876 H 86.6309 -0.685948 0.280278 0
M  V30 877 H 89.2779 -1.38556 1.32192 0
M  V30 878 H 87.5829 -3.87807 0.557969 0
M  V30 879 H 89.2799 -3.89611 0.948893 0
M  V30 880 H 85.8699 -3.58532 2.34846 0
M  V30 881 H 90.0539 -3.68537 3.32406 0
M  V30 882 H 85.3099 -3.88187 4.72357 0
M  V30 883 H 89.4839 -3.99458 5.70444 0
M  V30 884 H 87.1109 -4.08883 6.40874 0
M  V30 885 N 88.686 -0.835752 -1.33615 0
M  V30 886 C 90.097 -0.487099 -1.80234 0
M  V30 887 C 90.448 0.993627 -1.69179 0
M  V30 888 O 89.573 1.77403 -1.23924 0
M  V30 889 C 90.168 -0.877385 -3.27242 0
M  V30 890 C 88.727 -0.580915 -3.7189 0
M  V30 891 C 87.874 -1.0874 -2.5509 0
M  V30 892 H 90.825 -1.02474 -1.2118 0
M  V30 893 H 90.846 -0.186195 -3.80044 0
M  V30 894 H 90.358 -1.95512 -3.35256 0
M  V30 895 H 88.459 0.486881 -3.69405 0
M  V30 896 H 88.572 -1.13396 -4.65487 0
M  V30 897 H 86.936 -0.508392 -2.49575 0
M  V30 898 H 87.719 -2.17184 -2.65868 0
M  V30 899 N 90.1641 1.46063 -0.591896 0
M  V30 900 C 91.4131 2.01547 -0.0786637 0
M  V30 901 C 91.7261 1.46796 1.29268 0
M  V30 902 O 92.9321 1.94157 1.89777 0
M  V30 903 C 91.3881 3.59787 -0.0900024 0
M  V30 904 C 90.9961 4.23534 -1.46023 0
M  V30 905 C 92.7401 4.22895 0.368806 0
M  V30 906 C 90.6471 5.73881 -1.4288 0
M  V30 907 H 89.5771 0.753564 -0.0256388 0
M  V30 908 H 92.2281 1.677 -0.744905 0
M  V30 909 H 90.6101 3.90752 0.642586 0
M  V30 910 H 91.7841 4.04167 -2.21328 0
M  V30 911 H 90.0991 3.72558 -1.85982 0
M  V30 912 H 92.6961 5.33116 0.411258 0
M  V30 913 H 93.0391 3.9247 1.38827 0
M  V30 914 H 93.5721 3.9659 -0.31001 0
M  V30 915 H 90.3111 6.0898 -2.42536 0
M  V30 916 H 89.8311 5.95486 -0.718095 0
M  V30 917 H 91.5101 6.36776 -1.14565 0
M  V30 918 N 91.6422 0.330177 1.54103 0
M  V30 919 C 93.0582 -0.0222371 1.59585 0
M  V30 920 C 93.2582 -1.49902 1.34654 0
M  V30 921 O 92.3142 -2.25592 1.13421 0
M  V30 922 C 93.6272 0.401932 2.98002 0
M  V30 923 C 95.1752 0.353145 3.11001 0
M  V30 924 C 95.6502 0.752576 4.51775 0
M  V30 925 N 97.1412 0.706239 4.57784 0
M  V30 926 C 97.8762 0.987417 5.64834 0
M  V30 927 N 97.3722 1.33607 6.79795 0
M  V30 928 N 99.1652 0.91254 5.54643 0
M  V30 929 H 91.3162 1.29228 1.68564 0
M  V30 930 H 93.5792 0.525906 0.78875 0
M  V30 931 H 93.2852 1.4311 3.21267 0
M  V30 932 H 93.1592 -0.229699 3.765 0
M  V30 933 H 95.5462 -0.666822 2.87467 0
M  V30 934 H 95.6272 1.0198 2.34593 0
M  V30 935 H 95.2712 1.77049 4.76042 0
M  V30 936 H 95.2012 0.0635409 5.26562 0
M  V30 937 H 97.6922 0.44889 3.75224 0
M  V30 938 H 98.0052 1.53582 7.57385 0
M  V30 939 H 96.3502 1.37439 6.81275 0
M  V30 940 H 99.5412 0.639601 4.6371 0
M  V30 941 H 99.7142 1.13503 6.37982 0
M  V30 942 N 93.1203 -1.57491 0.0584922 0
M  V30 943 C 94.0703 -2.08474 -0.923188 0
M  V30 944 C 95.0543 -0.991479 -1.26722 0
M  V30 945 O 96.2463 -1.25473 -1.24842 0
M  V30 946 C 93.3753 -2.6392 -2.19548 0
M  V30 947 C 92.4613 -3.80227 -1.87852 0
M  V30 948 N 92.8523 -4.89714 -1.26546 0
M  V30 949 C 91.1503 -3.89271 -2.17679 0
M  V30 950 C 91.8513 -5.70689 -1.12644 0
M  V30 951 N 90.8273 -5.18531 -1.63176 0
M  V30 952 H 94.6293 -2.90517 -0.444653 0
M  V30 953 H 92.1433 -1.61745 -0.145764 0
M  V30 954 H 94.1403 -2.98752 -2.9078 0
M  V30 955 H 92.8003 -1.83318 -2.68001 0
M  V30 956 H 93.8113 -5.09358 -0.936757 0
M  V30 957 H 90.4883 -3.19623 -2.68602 0
M  V30 958 H 91.8783 -6.6875 -0.6499 0
M  V30 959 N 94.5984 0.214957 -1.56127 0
M  V30 960 C 95.8284 0.953707 -1.8327 0
M  V30 961 C 96.2364 1.78181 -0.636262 0
M  V30 962 O 95.5794 1.79191 0.404516 0
M  V30 963 C 95.6414 1.91516 -3.0424 0
M  V30 964 C 95.3054 1.27094 -4.38972 0
M  V30 965 C 96.3024 0.657575 -5.15725 0
M  V30 966 C 93.9874 1.28073 -4.85698 0
M  V30 967 C 95.9814 0.0625968 -6.37369 0
M  V30 968 C 93.6684 0.681914 -6.07283 0
M  V30 969 C 94.6664 0.0739046 -6.8296 0
M  V30 970 O 94.3544 -0.515582 -8.02245 0
M  V30 971 H 94.0864 0.284764 -0.613095 0
M  V30 972 H 96.6404 0.233283 -2.04071 0
M  V30 973 H 94.8704 2.67475 -2.79274 0
M  V30 974 H 96.5594 2.52001 -3.18198 0
M  V30 975 H 97.3254 0.642288 -4.80728 0
M  V30 976 H 93.2044 1.74337 -4.26764 0
M  V30 977 H 96.7484 -0.412593 -6.96379 0
M  V30 978 H 92.6454 0.694636 -6.41752 0
M  V30 979 H 93.4134 -0.410544 -8.1747 0
M  V30 980 N 96.0765 1.50051 0.48192 0
M  V30 981 C 97.3225 1.60736 1.2366 0
M  V30 982 C 97.6555 0.301786 1.91841 0
M  V30 983 O 96.9305 -0.696025 1.8162 0
M  V30 984 C 97.2135 2.78009 2.28874 0
M  V30 985 C 97.0665 4.18416 1.65069 0
M  V30 986 C 98.3855 2.90867 3.30279 0
M  V30 987 H 95.5045 0.585031 0.448228 0
M  V30 988 H 98.1465 1.82402 0.531946 0
M  V30 989 H 96.2965 2.59667 2.88973 0
M  V30 990 H 97.9685 4.48322 1.0865 0
M  V30 991 H 96.2115 4.23177 0.954148 0
M  V30 992 H 96.8825 4.96381 2.41474 0
M  V30 993 H 99.3585 3.07623 2.80191 0
M  V30 994 H 98.2345 3.74566 4.01238 0
M  V30 995 H 98.4955 2.01021 3.93755 0
M  V30 996 N 97.5546 -0.734337 1.39446 0
M  V30 997 C 98.4646 -1.87879 1.40495 0
M  V30 998 C 99.4806 -1.714 0.299672 0
M  V30 999 O 100.657 -1.93991 0.541249 0
M  V30 1000 C 97.7216 -3.23477 1.24754 0
M  V30 1001 C 96.7826 -3.52344 2.45259 0
M  V30 1002 C 96.0156 -4.81473 2.30259 0
M  V30 1003 O 96.2386 -5.55237 1.30643 0
M  V30 1004 O 95.1726 -5.10254 3.19256 0
M  V30 1005 H 98.9986 -1.89949 2.36966 0
M  V30 1006 H 96.5836 -0.882243 1.20569 0
M  V30 1007 H 98.4656 -4.04509 1.18111 0
M  V30 1008 H 97.1406 -3.22176 0.313781 0
M  V30 1009 H 96.0476 -2.71396 2.57478 0
M  V30 1010 H 97.3806 -3.58426 3.37331 0
M  V30 1011 N 99.0327 -1.24633 -0.964593 0
M  V30 1012 C 100.449 -1.01239 -1.2338 0
M  V30 1013 C 100.649 0.2769 -1.99588 0
M  V30 1014 O 99.7047 0.992241 -2.32187 0
M  V30 1015 C 101.018 -2.22937 -2.01791 0
M  V30 1016 C 102.566 -2.27594 -2.14872 0
M  V30 1017 C 103.041 -3.48921 -2.96678 0
M  V30 1018 N 104.532 -3.49257 -3.04259 0
M  V30 1019 C 105.267 -4.39795 -3.67924 0
M  V30 1020 N 104.763 -5.40591 -4.33281 0
M  V30 1021 N 106.556 -4.275 -3.64966 0
M  V30 1022 H 98.7067 -2.0748 -0.454502 0
M  V30 1023 H 100.97 -0.910647 -0.26349 0
M  V30 1024 H 100.676 -3.16587 -1.53184 0
M  V30 1025 H 100.55 -2.25306 -3.02518 0
M  V30 1026 H 102.937 -1.34473 -2.6268 0
M  V30 1027 H 103.018 -2.2925 -1.13482 0
M  V30 1028 H 102.662 -4.42359 -2.49562 0
M  V30 1029 H 102.592 -3.4451 -3.98272 0
M  V30 1030 H 105.083 -2.76337 -2.57771 0
M  V30 1031 H 105.396 -6.05904 -4.79687 0
M  V30 1032 H 103.741 -5.44475 -4.3194 0
M  V30 1033 H 106.932 -3.47987 -3.13086 0
M  V30 1034 H 107.105 -4.98258 -4.14298 0
M  V30 1035 N 100.511 1.16574 -1.06058 0
M  V30 1036 C 101.458 2.20883 -0.669263 0
M  V30 1037 C 102.428 1.62729 0.332918 0
M  V30 1038 O 103.613 1.895 0.222346 0
M  V30 1039 C 100.753 3.45049 -0.0593572 0
M  V30 1040 C 99.8658 4.17458 -1.11143 0
M  V30 1041 C 99.0008 5.29135 -0.467916 0
M  V30 1042 C 98.0398 5.93343 -1.50369 0
M  V30 1043 N 97.1768 6.96516 -0.883706 0
M  V30 1044 H 102.017 2.53709 -1.5632 0
M  V30 1045 H 99.5538 1.24616 -0.781625 0
M  V30 1046 H 101.512 4.16033 0.311771 0
M  V30 1047 H 100.142 3.12781 0.797992 0
M  V30 1048 H 99.1938 3.45101 -1.60029 0
M  V30 1049 H 100.506 4.61307 -1.89731 0
M  V30 1050 H 99.6598 6.06684 -0.0436871 0
M  V30 1051 H 98.3988 4.86443 0.349864 0
M  V30 1052 H 97.4038 5.14517 -1.93784 0
M  V30 1053 H 98.6288 6.38114 -2.32352 0
M  V30 1054 H 96.5748 6.55943 -0.086595 0
M  V30 1055 H 96.4918 7.38723 -1.607 0
M  V30 1056 H 97.7598 7.77993 -0.484543 0
M  V30 1057 N 101.989 0.842826 1.3317 0
M  V30 1058 C 103.237 0.439577 1.97262 0
M  V30 1059 C 103.558 -1.00548 1.67078 0
M  V30 1060 O 102.828 -1.70098 0.971779 0
M  V30 1061 H 101.408 0.159558 0.72976 0
M  V30 1062 H 104.07 1.07665 1.62463 0
M  V30 1063 H 103.166 0.574886 3.0676 0
M  V30 1064 N 103.467 -1.45747 0.599634 0
M  V30 1065 C 104.716 -2.01502 0.0893511 0
M  V30 1066 C 105.029 -1.4748 -1.28488 0
M  V30 1067 O 106.235 -1.95161 -1.88745 0
M  V30 1068 C 104.691 -3.59735 0.109082 0
M  V30 1069 C 104.299 -4.22754 1.48267 0
M  V30 1070 C 106.043 -4.23085 -0.346374 0
M  V30 1071 C 103.95 -5.73115 1.45921 0
M  V30 1072 H 102.88 -0.753417 0.0296347 0
M  V30 1073 H 105.531 -1.67303 0.753788 0
M  V30 1074 H 103.913 -3.91087 -0.621854 0
M  V30 1075 H 105.087 -4.02987 2.23468 0
M  V30 1076 H 103.402 -3.71567 1.87955 0
M  V30 1077 H 105.999 -5.33327 -0.38298 0
M  V30 1078 H 106.342 -3.93201 -1.36743 0
M  V30 1079 H 106.875 -3.9642 0.331038 0
M  V30 1080 H 103.614 -6.07685 2.45762 0
M  V30 1081 H 103.134 -5.95097 0.749665 0
M  V30 1082 H 104.813 -6.3616 1.17941 0
M  V30 1083 N 104.945 -0.338344 -1.53925 0
M  V30 1084 C 105.895 0.536712 -2.21593 0
M  V30 1085 C 106.879 1.07015 -1.20153 0
M  V30 1086 O 108.071 1.00471 -1.45721 0
M  V30 1087 C 105.2 1.68977 -2.98834 0
M  V30 1088 C 104.286 1.17052 -4.07627 0
M  V30 1089 N 104.677 0.372085 -5.0443 0
M  V30 1090 C 102.975 1.44789 -4.21844 0
M  V30 1091 C 103.676 0.0909171 -5.81629 0
M  V30 1092 N 102.652 0.681131 -5.39316 0
M  V30 1093 H 106.454 -0.0804298 -2.9379 0
M  V30 1094 H 103.968 -0.144943 -1.61752 0
M  V30 1095 H 105.965 2.32857 -3.45808 0
M  V30 1096 H 104.625 2.31024 -2.28162 0
M  V30 1097 H 105.636 0.0136217 -5.17898 0
M  V30 1098 H 102.313 2.07313 -3.62391 0
M  V30 1099 H 103.703 -0.552817 -6.69622 0
M  V30 1100 N 106.423 1.57458 -0.0668435 0
M  V30 1101 C 107.67 1.93301 0.603406 0
M  V30 1102 C 107.998 0.946486 1.69917 0
M  V30 1103 O 107.253 -0.0387021 1.95662 0
M  V30 1104 C 107.552 3.35784 1.22409 0
M  V30 1105 C 107.218 4.50179 0.254955 0
M  V30 1106 C 105.88 4.81199 -0.0116746 0
M  V30 1107 C 108.232 5.19598 -0.408338 0
M  V30 1108 C 105.56 5.78978 -0.94877 0
M  V30 1109 C 107.912 6.18381 -1.33372 0
M  V30 1110 C 106.576 6.47821 -1.60887 0
M  V30 1111 H 105.846 0.707338 0.220802 0
M  V30 1112 H 108.493 1.91012 -0.136665 0
M  V30 1113 H 106.798 3.34515 2.03978 0
M  V30 1114 H 108.495 3.60804 1.74989 0
M  V30 1115 H 105.085 4.25983 0.472954 0
M  V30 1116 H 109.269 4.95832 -0.215456 0
M  V30 1117 H 104.525 6.00115 -1.16925 0
M  V30 1118 H 108.699 6.71277 -1.85367 0
M  V30 1119 H 106.326 7.23399 -2.33661 0
M  V30 1120 N 107.901 -0.206675 1.56239 0
M  V30 1121 C 109.15 -0.926964 1.79138 0
M  V30 1122 C 109.463 -1.84901 0.638043 0
M  V30 1123 O 110.669 -2.60906 0.751033 0
M  V30 1124 C 109.125 -1.6986 3.17294 0
M  V30 1125 C 108.733 -0.821956 4.40395 0
M  V30 1126 C 110.477 -2.40922 3.4951 0
M  V30 1127 C 108.384 -1.59179 5.69575 0
M  V30 1128 H 107.314 -0.349864 0.667915 0
M  V30 1129 H 109.965 -0.180487 1.8261 0
M  V30 1130 H 108.347 -2.48853 3.08039 0
M  V30 1131 H 109.521 -0.0715019 4.60745 0
M  V30 1132 H 107.836 -0.222741 4.15804 0
M  V30 1133 H 110.433 -2.99047 4.43255 0
M  V30 1134 H 110.776 -3.14542 2.72707 0
M  V30 1135 H 111.309 -1.68905 3.60161 0
M  V30 1136 H 108.048 -0.898589 6.49312 0
M  V30 1137 H 107.568 -2.31648 5.53262 0
M  V30 1138 H 109.247 -2.14862 6.10281 0
M  V30 1139 N 109.379 -1.50304 -0.473955 0
M  V30 1140 C 110.342 -1.6841 -1.55469 0
M  V30 1141 C 111.342 -0.554905 -1.50922 0
M  V30 1142 O 112.532 -0.821882 -1.53593 0
M  V30 1143 C 109.664 -1.70667 -2.95102 0
M  V30 1144 H 110.857 -2.64828 -1.40733 0
M  V30 1145 H 108.41 -1.39742 -0.700132 0
M  V30 1146 H 109.145 -0.75932 -3.15285 0
M  V30 1147 H 108.93 -2.52698 -2.9981 0
M  V30 1148 H 110.42 -1.8664 -3.73571 0
M  V30 1149 N 110.857 0.726932 -1.39834 0
M  V30 1150 C 111.789 1.85147 -1.35104 0
M  V30 1151 C 112.802 1.60736 -0.258392 0
M  V30 1152 O 113.991 1.70821 -0.517931 0
M  V30 1153 C 111.091 3.21332 -1.07697 0
M  V30 1154 C 110.264 3.73033 -2.28396 0
M  V30 1155 C 109.323 4.87802 -1.97322 0
M  V30 1156 O 108.349 5.01043 -2.70083 0
M  V30 1157 N 109.551 5.72768 -0.944273 0
M  V30 1158 H 112.316 1.89706 -2.32017 0
M  V30 1159 H 109.877 0.908006 -1.3404 0
M  V30 1160 H 111.869 3.95691 -0.849144 0
M  V30 1161 H 110.439 3.11992 -0.194909 0
M  V30 1162 H 109.659 2.89934 -2.6708 0
M  V30 1163 H 110.947 4.0431 -3.08887 0
M  V30 1164 H 110.345 5.64669 -0.341427 0
M  V30 1165 H 108.902 6.4716 -0.776346 0
M  V30 1166 N 112.336 1.25143 0.95797 0
M  V30 1167 C 113.561 1.12521 1.74223 0
M  V30 1168 C 113.986 -0.317402 1.85403 0
M  V30 1169 O 113.344 -1.2299 1.33204 0
M  V30 1170 C 113.392 1.78062 3.1357 0
M  V30 1171 O 112.496 1.058 3.98598 0
M  V30 1172 H 111.837 0.39304 0.535178 0
M  V30 1173 H 114.367 1.65641 1.201 0
M  V30 1174 H 114.377 1.84213 3.64046 0
M  V30 1175 H 113.052 2.83021 3.04749 0
M  V30 1176 H 111.629 1.07506 3.57067 0
M  V30 1177 N 113.814 -1.1601 1.06675 0
M  V30 1178 C 114.777 -2.18724 0.685001 0
M  V30 1179 C 115.777 -1.58496 -0.271246 0
M  V30 1180 O 116.967 -1.74119 -0.0531156 0
M  V30 1181 C 114.099 -3.40899 0.00853648 0
M  V30 1182 H 115.292 -2.54011 1.59431 0
M  V30 1183 H 112.845 -1.30352 0.862441 0
M  V30 1184 H 113.58 -3.11173 -0.913337 0
M  V30 1185 H 113.365 -3.8587 0.696204 0
M  V30 1186 H 114.855 -4.16886 -0.24414 0
M  V30 1187 N 115.292 -0.849877 -1.32721 0
M  V30 1188 C 116.202 -0.293791 -2.32753 0
M  V30 1189 C 117.218 0.585906 -1.63839 0
M  V30 1190 O 118.394 0.487413 -1.95413 0
M  V30 1191 C 115.459 0.512752 -3.42887 0
M  V30 1192 C 114.52 -0.39252 -4.27502 0
M  V30 1193 C 113.753 0.375625 -5.32377 0
M  V30 1194 O 113.976 1.60613 -5.4732 0
M  V30 1195 O 112.91 -0.256094 -6.01355 0
M  V30 1196 H 116.736 -1.12242 -2.82197 0
M  V30 1197 H 114.321 -0.612685 -1.36259 0
M  V30 1198 H 116.203 0.970704 -4.10067 0
M  V30 1199 H 114.878 1.31826 -2.95641 0
M  V30 1200 H 113.785 -0.898547 -3.63149 0
M  V30 1201 H 115.118 -1.16309 -4.7826 0
M  V30 1202 N 116.77 1.45427 -0.607355 0
M  V30 1203 C 117.702 2.2871 0.149752 0
M  V30 1204 C 118.715 1.39937 0.831958 0
M  V30 1205 O 119.904 1.64313 0.697385 0
M  V30 1206 C 117.004 3.15673 1.23304 0
M  V30 1207 C 116.177 4.32722 0.637996 0
M  V30 1208 C 115.236 5.00895 1.61215 0
M  V30 1209 O 114.262 5.57697 1.13854 0
M  V30 1210 N 115.464 5.00159 2.94655 0
M  V30 1211 H 118.229 2.94328 -0.564882 0
M  V30 1212 H 115.79 1.55612 -0.446823 0
M  V30 1213 H 117.782 3.58144 1.88454 0
M  V30 1214 H 116.352 2.51965 1.8502 0
M  V30 1215 H 115.572 3.93734 -0.191572 0
M  V30 1216 H 116.86 5.08321 0.220665 0
M  V30 1217 H 116.258 4.553 3.35735 0
M  V30 1218 H 114.815 5.46495 3.55228 0
M  V30 1219 N 118.248 0.346503 1.53744 0
M  V30 1220 C 119.497 -0.250122 2.00143 0
M  V30 1221 C 119.81 -1.51418 1.23822 0
M  V30 1222 O 121.016 -2.18823 1.60713 0
M  V30 1223 C 119.472 -0.496252 3.56462 0
M  V30 1224 C 119.08 0.752077 4.41642 0
M  V30 1225 C 120.824 -1.05157 4.11269 0
M  V30 1226 C 118.731 0.476583 5.89477 0
M  V30 1227 H 117.661 -0.0972409 0.747703 0
M  V30 1228 H 120.312 0.46229 1.77581 0
M  V30 1229 H 118.694 -1.26944 3.75102 0
M  V30 1230 H 119.868 1.5266 4.34778 0
M  V30 1231 H 118.183 1.22925 3.97842 0
M  V30 1232 H 120.78 -1.27269 5.19333 0
M  V30 1233 H 121.123 -2.00799 3.64672 0
M  V30 1234 H 121.656 -0.339019 3.96353 0
M  V30 1235 H 118.395 1.4028 6.40314 0
M  V30 1236 H 117.915 -0.259794 5.99237 0
M  V30 1237 H 119.594 0.0949315 6.4693 0
M  V30 1238 N 119.726 -1.57421 0.075193 0
M  V30 1239 C 121.003 -1.85029 -0.634329 0
M  V30 1240 C 121.383 -0.968305 -1.87582 0
M  V30 1241 O 120.731 -0.0354749 -2.28472 0
M  V30 1242 C 120.941 -3.35286 -0.968742 0
M  V30 1243 C 122.289 -4.02875 -1.34077 0
M  V30 1244 O 123.313 -3.40051 -1.06037 0
M  V30 1245 O 122.172 -5.13691 -1.86506 0
M  V30 1246 H 119.266 -0.7645 -0.315387 0
M  V30 1247 H 121.812 -1.69366 0.106382 0
M  V30 1248 H 120.584 -3.91203 -0.0871376 0
M  V30 1249 H 120.207 -3.56223 -1.7661 0
M  V30 1250 N 121.204 0.198386 -1.56346 0
M  V30 1251 C 122.167 1.22952 -1.93431 0
M  V30 1252 C 123.167 1.38611 -0.815092 0
M  V30 1253 O 124.357 1.36479 -1.08255 0
M  V30 1254 C 121.489 2.59946 -2.20546 0
M  V30 1255 H 122.682 0.912626 -2.85677 0
M  V30 1256 H 120.235 0.43977 -1.49986 0
M  V30 1257 H 120.97 2.96696 -1.30927 0
M  V30 1258 H 120.755 2.49953 -3.02102 0
M  V30 1259 H 122.245 3.3431 -2.50253 0
M  V30 1260 N 122.682 1.50554 0.465978 0
M  V30 1261 C 123.592 1.72585 1.58907 0
M  V30 1262 C 124.608 0.60911 1.6299 0
M  V30 1263 O 125.784 0.88804 1.80765 0
M  V30 1264 C 122.849 1.81995 2.95091 0
M  V30 1265 C 121.91 3.05751 3.01355 0
M  V30 1266 C 121.143 3.14702 4.31043 0
M  V30 1267 O 121.366 2.30313 5.21835 0
M  V30 1268 O 120.3 4.07468 4.43005 0
M  V30 1269 H 124.126 2.67799 1.43239 0
M  V30 1270 H 121.711 1.34711 0.646013 0
M  V30 1271 H 123.593 1.90335 3.75966 0
M  V30 1272 H 122.268 0.899659 3.10947 0
M  V30 1273 H 121.175 3.02908 2.19539 0
M  V30 1274 H 122.508 3.97375 2.90437 0
M  V30 1275 N 124.16 -0.719506 1.40217 0
M  V30 1276 C 125.123 -1.8153 1.39927 0
M  V30 1277 C 126.123 -1.58095 0.293723 0
M  V30 1278 O 127.313 -1.65209 0.552429 0
M  V30 1279 C 124.445 -3.19561 1.18716 0
M  V30 1280 H 125.638 -1.83186 2.37451 0
M  V30 1281 H 123.191 -0.924746 1.26008 0
M  V30 1282 H 123.926 -3.23557 0.219366 0
M  V30 1283 H 123.711 -3.3797 1.98793 0
M  V30 1284 H 125.201 -3.99598 1.21291 0
M  V30 1285 N 125.638 -1.25649 -0.95132 0
M  V30 1286 C 126.57 -1.02112 -2.05197 0
M  V30 1287 C 127.583 0.0150571 -1.62793 0
M  V30 1288 O 128.772 -0.223874 -1.77091 0
M  V30 1289 C 125.872 -0.522361 -3.3485 0
M  V30 1290 C 125.045 -1.62546 -4.06076 0
M  V30 1291 C 124.104 -1.12649 -5.14001 0
M  V30 1292 O 123.13 -1.82156 -5.39266 0
M  V30 1293 N 124.332 0.03047 -5.80492 0
M  V30 1294 H 127.097 -1.96885 -2.25957 0
M  V30 1295 H 124.658 -1.16899 -1.1201 0
M  V30 1296 H 126.65 -0.172961 -4.0433 0
M  V30 1297 H 125.22 0.33151 -3.10837 0
M  V30 1298 H 124.44 -2.14628 -3.30649 0
M  V30 1299 H 125.728 -2.36644 -4.50419 0
M  V30 1300 H 125.126 0.611169 -5.62389 0
M  V30 1301 H 123.683 0.320875 -6.5101 0
M  V30 1302 N 127.117 1.15442 -1.07289 0
M  V30 1303 C 128.065 2.22225 -0.686952 0
M  V30 1304 C 129.059 1.66688 0.30193 0
M  V30 1305 O 130.265 1.79236 0.165712 0
M  V30 1306 H 126.64 0.723783 -0.204064 0
M  V30 1307 H 128.611 2.52056 -1.5972 0
M  V30 1308 C 127.36 3.47556 -0.100149 0
M  V30 1309 H 126.683 3.90612 -0.852211 0
M  V30 1310 H 128.123 4.23794 0.132235 0
M  V30 1311 C 126.582 3.16337 1.159 0
M  V30 1312 O 127.112 3.33074 2.24555 0
M  V30 1313 N 125.318 2.70385 1.06491 0
M  V30 1314 H 124.865 2.56966 0.180668 0
M  V30 1315 H 124.823 2.49871 1.90819 0
M  V30 1316 N 128.595 0.856903 1.32268 0
M  V30 1317 C 129.844 0.457599 1.96441 0
M  V30 1318 C 130.157 -0.992426 1.68553 0
M  V30 1319 O 131.363 -1.49727 2.26482 0
M  V30 1320 C 129.819 0.767358 3.51624 0
M  V30 1321 C 129.427 2.23326 3.88367 0
M  V30 1322 C 131.171 0.435887 4.22256 0
M  V30 1323 C 129.078 2.48613 5.36606 0
M  V30 1324 H 128.008 0.167387 0.735185 0
M  V30 1325 H 130.659 1.048 1.5063 0
M  V30 1326 H 129.041 0.106367 3.95857 0
M  V30 1327 H 130.215 2.93623 3.55137 0
M  V30 1328 H 128.53 2.52948 3.30766 0
M  V30 1329 H 131.127 0.602202 5.31298 0
M  V30 1330 H 131.47 -0.622672 4.11617 0
M  V30 1331 H 132.003 1.05286 3.83614 0
M  V30 1332 H 128.742 3.53101 5.52268 0
M  V30 1333 H 128.262 1.82896 5.71235 0
M  V30 1334 H 129.941 2.32676 6.03714 0
M  V30 1335 N 130.073 -1.45103 0.615059 0
M  V30 1336 C 131.301 -2.06553 0.11977 0
M  V30 1337 C 131.716 -1.45842 -1.19898 0
M  V30 1338 O 131.073 -0.575325 -1.73194 0
M  V30 1339 C 131.124 -3.61495 -0.018364 0
M  V30 1340 O 130.845 -4.19942 1.24822 0
M  V30 1341 C 132.346 -4.39947 -0.544237 0
M  V30 1342 H 129.566 -0.667096 0.0722739 0
M  V30 1343 H 132.11 -1.8623 0.84491 0
M  V30 1344 H 130.265 -3.81135 -0.693865 0
M  V30 1345 H 130.679 -5.13204 1.0827 0
M  V30 1346 H 132.153 -5.48838 -0.589953 0
M  V30 1347 H 132.63 -4.10255 -1.56805 0
M  V30 1348 H 133.236 -4.25188 0.0974703 0
M  V30 1349 N 131.551 -0.354651 -1.53558 0
M  V30 1350 C 132.481 0.489091 -2.2832 0
M  V30 1351 C 133.462 1.09324 -1.30316 0
M  V30 1352 O 134.647 1.11255 -1.59173 0
M  V30 1353 C 131.777 1.63456 -3.0643 0
M  V30 1354 C 130.731 1.1582 -4.12031 0
M  V30 1355 C 130.057 2.39305 -4.7816 0
M  V30 1356 C 131.357 0.250731 -5.21698 0
M  V30 1357 H 133.051 -0.134614 -2.99097 0
M  V30 1358 H 130.597 -0.0661826 -1.43848 0
M  V30 1359 H 132.55 2.23136 -3.57475 0
M  V30 1360 H 131.274 2.28533 -2.33325 0
M  V30 1361 H 129.933 0.584146 -3.61916 0
M  V30 1362 H 129.581 3.02814 -4.01637 0
M  V30 1363 H 129.281 2.08109 -5.49513 0
M  V30 1364 H 130.805 2.99691 -5.31994 0
M  V30 1365 H 132.219 0.754695 -5.68311 0
M  V30 1366 H 130.616 0.0301468 -6.00092 0
M  V30 1367 H 131.686 -0.710125 -4.79672 0
M  V30 1368 N 133.029 1.57378 -0.0835403 0
M  V30 1369 C 133.992 2.12252 0.864959 0
M  V30 1370 C 134.992 1.04916 1.21858 0
M  V30 1371 O 136.182 1.30853 1.14991 0
M  V30 1372 C 133.314 2.63358 2.16461 0
M  V30 1373 H 134.507 2.97371 0.388676 0
M  V30 1374 H 132.06 1.55423 0.165317 0
M  V30 1375 H 132.795 1.81727 2.686 0
M  V30 1376 H 132.58 3.41826 1.92087 0
M  V30 1377 H 134.07 3.05847 2.84337 0
M  V30 1378 N 134.507 -0.190092 1.56449 0
M  V30 1379 C 135.784 -0.935886 1.71757 0
M  V30 1380 C 136.164 -2.01173 0.639726 0
M  V30 1381 O 135.512 -2.25827 -0.348502 0
M  V30 1382 C 135.722 -1.51775 3.1427 0
M  V30 1383 C 137.07 -1.99794 3.74656 0
M  V30 1384 O 138.094 -1.61607 3.1743 0
M  V30 1385 O 136.953 -2.70079 4.751 0
M  V30 1386 H 134.047 -0.439229 0.700719 0
M  V30 1387 H 136.593 -0.179395 1.68749 0
M  V30 1388 H 135.365 -0.742505 3.84191 0
M  V30 1389 H 134.988 -2.33894 3.21527 0
M  V30 1390 N 135.985 -1.50799 -0.457987 0
M  V30 1391 C 137.233 -1.62121 -1.2067 0
M  V30 1392 C 137.554 -0.329793 -1.92191 0
M  V30 1393 O 136.824 0.653409 -1.84682 0
M  V30 1394 H 135.404 -0.597441 -0.448411 0
M  V30 1395 H 138.066 -1.87637 -0.527096 0
M  V30 1396 H 137.162 -2.43882 -1.94751 0
M  V30 1397 N 137.463 0.71206 -1.40597 0
M  V30 1398 C 138.411 1.84746 -1.41321 0
M  V30 1399 C 139.405 1.66842 -0.293268 0
M  V30 1400 O 140.611 1.73904 -0.464481 0
M  V30 1401 H 136.986 0.608522 -0.441819 0
M  V30 1402 H 138.957 1.81252 -2.37045 0
M  V30 1403 C 137.706 3.22638 -1.29614 0
M  V30 1404 H 137.029 3.37023 -2.15071 0
M  V30 1405 H 138.469 4.02209 -1.3418 0
M  V30 1406 C 136.928 3.36899 -0.00673121 0
M  V30 1407 O 137.458 3.90186 0.954859 0
M  V30 1408 N 135.664 2.9053 0.0639327 0
M  V30 1409 H 135.211 2.47353 -0.719311 0
M  V30 1410 H 135.169 3.0045 0.926118 0
M  V30 1411 N 138.941 1.26152 0.944643 0
M  V30 1412 C 140.169 1.14259 1.72489 0
M  V30 1413 C 140.584 -0.302555 1.8636 0
M  V30 1414 O 139.941 -1.20741 1.36849 0
M  V30 1415 C 139.992 1.80266 3.13347 0
M  V30 1416 O 139.713 3.19133 3.00143 0
M  V30 1417 C 141.214 1.74283 4.07603 0
M  V30 1418 H 138.434 0.398051 0.540181 0
M  V30 1419 H 140.978 1.66706 1.18446 0
M  V30 1420 H 139.133 1.31766 3.64303 0
M  V30 1421 H 139.547 3.51744 3.89071 0
M  V30 1422 H 141.021 2.25111 5.04013 0
M  V30 1423 H 141.498 0.708631 4.33446 0
M  V30 1424 H 142.104 2.22319 3.62567 0
M  V30 1425 N 140.419 -1.14872 1.07899 0
M  V30 1426 C 141.665 -1.86064 0.806725 0
M  V30 1427 C 141.998 -1.82434 -0.665706 0
M  V30 1428 O 141.273 -1.25138 -1.48899 0
M  V30 1429 C 141.556 -3.34929 1.32267 0
M  V30 1430 C 141.409 -3.47161 2.86006 0
M  V30 1431 C 142.728 -4.29863 0.943717 0
M  V30 1432 H 139.847 -0.675591 0.294526 0
M  V30 1433 H 142.489 -1.34925 1.33773 0
M  V30 1434 H 140.639 -3.78611 0.870974 0
M  V30 1435 H 142.311 -3.12302 3.39507 0
M  V30 1436 H 140.554 -2.88539 3.23925 0
M  V30 1437 H 141.225 -4.51777 3.17177 0
M  V30 1438 H 143.701 -3.9417 1.33302 0
M  V30 1439 H 142.577 -5.32494 1.33198 0
M  V30 1440 H 142.838 -4.41846 -0.149796 0
M  V30 1441 N 141.898 -0.863906 -1.31812 0
M  V30 1442 C 142.848 -0.286898 -2.26188 0
M  V30 1443 C 143.832 0.572577 -1.50367 0
M  V30 1444 O 145.024 0.420447 -1.71934 0
M  V30 1445 C 142.153 0.515849 -3.39402 0
M  V30 1446 C 141.239 -0.356531 -4.22599 0
M  V30 1447 N 141.63 -1.44716 -4.84656 0
M  V30 1448 C 139.928 -0.147898 -4.45755 0
M  V30 1449 C 140.629 -1.98462 -5.46798 0
M  V30 1450 N 139.605 -1.28247 -5.28255 0
M  V30 1451 H 143.407 -1.12055 -2.717 0
M  V30 1452 H 140.921 -0.711012 -1.46008 0
M  V30 1453 H 142.918 0.945701 -4.06032 0
M  V30 1454 H 141.578 1.34718 -2.95434 0
M  V30 1455 H 142.589 -1.83008 -4.84488 0
M  V30 1456 H 139.266 0.647973 -4.12441 0
M  V30 1457 H 140.656 -2.89932 -6.06126 0
M  V30 1458 N 143.376 1.44774 -0.622745 0
M  V30 1459 C 144.606 2.06187 -0.130532 0
M  V30 1460 C 145.014 1.46547 1.19669 0
M  V30 1461 O 144.357 0.579636 1.74316 0
M  V30 1462 C 144.419 3.59437 0.0674983 0
M  V30 1463 C 144.083 4.41496 -1.18026 0
M  V30 1464 C 145.08 4.75512 -2.102 0
M  V30 1465 C 142.765 4.82007 -1.41333 0
M  V30 1466 C 144.759 5.48912 -3.23998 0
M  V30 1467 C 142.446 5.55157 -2.55429 0
M  V30 1468 C 143.444 5.88528 -3.46589 0
M  V30 1469 O 143.132 6.60191 -4.58697 0
M  V30 1470 H 142.864 0.672045 -0.0730162 0
M  V30 1471 H 145.418 1.86768 -0.854802 0
M  V30 1472 H 143.648 3.77314 0.846825 0
M  V30 1473 H 145.337 4.02642 0.513209 0
M  V30 1474 H 146.103 4.4476 -1.93425 0
M  V30 1475 H 141.982 4.55457 -0.712709 0
M  V30 1476 H 145.526 5.74877 -3.95174 0
M  V30 1477 H 141.423 5.85324 -2.72151 0
M  V30 1478 H 142.191 6.78654 -4.57571 0
M  V30 1479 N 144.854 0.36279 1.53368 0
M  V30 1480 C 146.131 -0.284021 1.93527 0
M  V30 1481 C 146.511 -1.66628 1.29608 0
M  V30 1482 O 145.859 -2.23942 0.45413 0
M  V30 1483 C 146.069 -0.337028 3.47369 0
M  V30 1484 C 147.417 -0.578708 4.20638 0
M  V30 1485 O 148.441 -0.418352 3.53735 0
M  V30 1486 O 147.3 -0.89074 5.39192 0
M  V30 1487 H 144.394 -0.169743 0.809393 0
M  V30 1488 H 146.94 0.41537 1.64538 0
M  V30 1489 H 145.712 0.632217 3.86159 0
M  V30 1490 H 145.335 -1.08243 3.82582 0
M  V30 1491 N 146.332 -1.57332 0.0918853 0
M  V30 1492 C 147.562 -1.98286 -0.580205 0
M  V30 1493 C 147.97 -0.969713 -1.6246 0
M  V30 1494 O 147.313 0.0493501 -1.83634 0
M  V30 1495 C 147.375 -3.35603 -1.28882 0
M  V30 1496 C 147.039 -4.55285 -0.395559 0
M  V30 1497 C 148.036 -5.18687 0.355002 0
M  V30 1498 C 145.721 -5.01314 -0.314556 0
M  V30 1499 C 147.715 -6.26484 1.17458 0
M  V30 1500 C 145.402 -6.08979 0.508677 0
M  V30 1501 C 146.4 -6.71429 1.2519 0
M  V30 1502 O 146.088 -7.77018 2.06151 0
M  V30 1503 H 145.82 -0.656678 -0.160466 0
M  V30 1504 H 148.374 -2.04721 0.16688 0
M  V30 1505 H 146.604 -3.25842 -2.08241 0
M  V30 1506 H 148.293 -3.61026 -1.85512 0
M  V30 1507 H 149.059 -4.84058 0.302134 0
M  V30 1508 H 144.938 -4.5247 -0.882697 0
M  V30 1509 H 148.482 -6.75159 1.75518 0
M  V30 1510 H 144.379 -6.4304 0.563037 0
M  V30 1511 H 145.147 -7.93991 1.98799 0
M  V30 1512 N 147.81 0.181792 -1.56548 0
M  V30 1513 C 148.74 1.22765 -1.98623 0
M  V30 1514 C 149.721 1.46747 -0.860189 0
M  V30 1515 O 150.906 1.58259 -1.12551 0
M  V30 1516 C 148.036 2.56894 -2.33715 0
M  V30 1517 C 146.99 2.475 -3.49182 0
M  V30 1518 C 146.316 3.86023 -3.69986 0
M  V30 1519 C 147.616 1.98866 -4.82959 0
M  V30 1520 H 149.31 0.877942 -2.86239 0
M  V30 1521 H 146.856 0.42088 -1.37712 0
M  V30 1522 H 148.809 3.30253 -2.61746 0
M  V30 1523 H 147.533 2.93632 -1.42997 0
M  V30 1524 H 146.192 1.76596 -3.21262 0
M  V30 1525 H 145.84 4.20136 -2.76576 0
M  V30 1526 H 145.54 3.80609 -4.47672 0
M  V30 1527 H 147.064 4.60984 -4.00407 0
M  V30 1528 H 148.478 2.61992 -5.09934 0
M  V30 1529 H 146.875 2.04424 -5.64208 0
M  V30 1530 H 147.945 0.942465 -4.75653 0
M  V30 1531 N 149.288 1.51039 0.449983 0
M  V30 1532 C 150.221 1.66105 1.56474 0
M  V30 1533 C 151.199 0.508776 1.54435 0
M  V30 1534 O 152.383 0.731005 1.73749 0
M  V30 1535 C 149.51 1.66304 2.9506 0
M  V30 1536 C 148.556 2.87346 3.15174 0
M  V30 1537 S 149.389 4.4835 2.92818 0
M  V30 1538 C 150.545 4.51274 4.33708 0
M  V30 1539 H 150.778 2.60397 1.43459 0
M  V30 1540 H 148.311 1.40565 0.638805 0
M  V30 1541 H 150.269 1.67103 3.74949 0
M  V30 1542 H 148.93 0.732108 3.05449 0
M  V30 1543 H 148.123 2.83849 4.16468 0
M  V30 1544 H 147.725 2.84223 2.43091 0
M  V30 1545 H 150.017 4.26136 5.26701 0
M  V30 1546 H 150.96 5.53017 4.42242 0
M  V30 1547 H 151.368 3.80738 4.16772 0
M  V30 1548 N 150.766 -0.704594 1.40972 0
M  V30 1549 C 152.015 -1.46018 1.39146 0
M  V30 1550 C 152.328 -1.956 0.000589254 0
M  V30 1551 O 153.534 -2.71137 -0.1403 0
M  V30 1552 C 151.99 -2.63996 2.4461 0
M  V30 1553 C 151.598 -2.21238 3.89561 0
M  V30 1554 C 153.342 -3.41677 2.51907 0
M  V30 1555 C 151.249 -3.3612 4.86598 0
M  V30 1556 H 150.179 -0.548444 0.517422 0
M  V30 1557 H 152.83 -0.765784 1.66757 0
M  V30 1558 H 151.212 -3.3566 2.10115 0
M  V30 1559 H 152.386 -1.56923 4.33257 0
M  V30 1560 H 150.701 -1.56574 3.85841 0
M  V30 1561 H 153.298 -4.27182 3.2159 0
M  V30 1562 H 153.641 -3.86247 1.55303 0
M  V30 1563 H 154.174 -2.77064 2.85448 0
M  V30 1564 H 150.913 -2.96572 5.84573 0
M  V30 1565 H 150.433 -3.99315 4.47557 0
M  V30 1566 H 152.112 -4.02029 5.06934 0
M  V30 1567 N 152.244 -1.26651 -0.937939 0
M  V30 1568 C 153.207 -1.08546 -2.01867 0
M  V30 1569 C 154.207 -0.0327327 -1.60767 0
M  V30 1570 O 155.397 -0.276427 -1.71993 0
M  V30 1571 C 152.529 -0.651711 -3.34613 0
M  V30 1572 H 153.722 -2.04502 -2.1936 0
M  V30 1573 H 151.275 -1.09294 -1.11734 0
M  V30 1574 H 152.01 0.309696 -3.22818 0
M  V30 1575 H 151.795 -1.41189 -3.65798 0
M  V30 1576 H 153.285 -0.546973 -4.14002 0
M  V30 1577 N 153.722 1.14298 -1.08507 0
M  V30 1578 C 154.95 1.89219 -0.836876 0
M  V30 1579 C 155.365 1.78638 0.611054 0
M  V30 1580 O 154.722 1.14643 1.41998 0
M  V30 1581 C 154.773 3.39158 -1.25116 0
M  V30 1582 O 154.494 3.49449 -2.64229 0
M  V30 1583 C 155.995 4.31073 -1.03398 0
M  V30 1584 H 153.215 0.599328 -0.301739 0
M  V30 1585 H 155.759 1.44746 -1.44461 0
M  V30 1586 H 153.914 3.81251 -0.687514 0
M  V30 1587 H 154.328 4.42589 -2.81452 0
M  V30 1588 H 155.802 5.34646 -1.37323 0
M  V30 1589 H 156.279 4.3919 0.0289259 0
M  V30 1590 H 156.885 3.94738 -1.58311 0
M  V30 1591 N 155.201 0.870884 1.31352 0
M  V30 1592 C 156.449 0.48132 1.96285 0
M  V30 1593 C 156.77 -0.969813 1.69173 0
M  V30 1594 O 156.04 -1.67998 1.00764 0
M  V30 1595 H 154.62 0.175002 0.726212 0
M  V30 1596 H 157.282 1.11087 1.60143 0
M  V30 1597 H 156.378 0.639825 3.05471 0
M  V30 1598 N 156.679 -1.44442 0.630414 0
M  V30 1599 C 158.09 -1.85434 0.217063 0
M  V30 1600 C 158.441 -1.52748 -1.23136 0
M  V30 1601 O 157.566 -0.965205 -1.93682 0
M  V30 1602 C 158.161 -3.36581 0.387168 0
M  V30 1603 C 156.72 -3.76389 0.0283297 0
M  V30 1604 C 155.867 -2.68296 0.700889 0
M  V30 1605 H 158.818 -1.34919 0.83562 0
M  V30 1606 H 158.839 -3.78657 -0.374086 0
M  V30 1607 H 158.351 -3.60339 1.44144 0
M  V30 1608 H 156.452 -3.58246 -1.02423 0
M  V30 1609 H 156.565 -4.77095 0.437892 0
M  V30 1610 H 154.929 -2.54335 0.136267 0
M  V30 1611 H 155.712 -2.94887 1.75774 0
M  V30 1612 N 158.157 -0.370918 -1.53173 0
M  V30 1613 C 159.104 0.473035 -2.259 0
M  V30 1614 C 160.074 1.07311 -1.26781 0
M  V30 1615 O 161.259 1.1046 -1.55574 0
M  V30 1616 C 158.399 1.60405 -3.05556 0
M  V30 1617 C 157.512 1.02863 -4.19575 0
M  V30 1618 C 156.647 2.12918 -4.86661 0
M  V30 1619 C 155.686 1.52869 -5.92704 0
M  V30 1620 N 154.823 2.56779 -6.53459 0
M  V30 1621 H 159.663 -0.153649 -2.97604 0
M  V30 1622 H 157.2 -0.0875946 -1.46839 0
M  V30 1623 H 159.158 2.27034 -3.50016 0
M  V30 1624 H 157.788 2.20131 -2.36097 0
M  V30 1625 H 156.84 0.252465 -3.79561 0
M  V30 1626 H 158.152 0.549642 -4.95762 0
M  V30 1627 H 157.306 2.87356 -5.34333 0
M  V30 1628 H 156.045 2.6417 -4.09958 0
M  V30 1629 H 155.05 0.769479 -5.44389 0
M  V30 1630 H 156.275 1.02435 -6.7133 0
M  V30 1631 H 154.221 3.07235 -5.79606 0
M  V30 1632 H 154.138 2.13583 -7.25202 0
M  V30 1633 H 155.406 3.30903 -7.05779 0
M  V30 1634 N 159.635 1.57281 -0.100228 0
M  V30 1635 C 160.565 2.17328 0.853857 0
M  V30 1636 C 161.546 1.10804 1.2906 0
M  V30 1637 O 162.731 1.38963 1.35657 0
M  V30 1638 C 159.861 2.75772 2.11109 0
M  V30 1639 C 158.815 3.87713 1.81279 0
M  V30 1640 C 158.141 4.32882 3.13874 0
M  V30 1641 C 159.441 5.10677 1.09574 0
M  V30 1642 H 161.135 2.97305 0.353545 0
M  V30 1643 H 158.681 1.43009 0.168612 0
M  V30 1644 H 160.634 3.16433 2.78296 0
M  V30 1645 H 159.358 1.93057 2.63432 0
M  V30 1646 H 158.017 3.476 1.16489 0
M  V30 1647 H 157.665 3.47051 3.64095 0
M  V30 1648 H 157.365 5.08358 2.94696 0
M  V30 1649 H 158.889 4.7618 3.82211 0
M  V30 1650 H 160.303 5.48474 1.66879 0
M  V30 1651 H 158.7 5.91615 1.00557 0
M  V30 1652 H 159.77 4.84835 0.0793299 0
M  V30 1653 N 161.113 -0.173488 1.56642 0
M  V30 1654 C 162.076 -1.19859 1.95362 0
M  V30 1655 C 163.076 -1.37296 0.83704 0
M  V30 1656 O 164.266 -1.34739 1.10413 0
M  V30 1657 C 161.398 -2.56405 2.24654 0
M  V30 1658 H 162.591 -0.867062 2.87092 0
M  V30 1659 H 160.144 -0.415853 1.50666 0
M  V30 1660 H 160.879 -2.94576 1.35631 0
M  V30 1661 H 160.664 -2.45115 3.06041 0
M  V30 1662 H 162.154 -3.30287 2.5554 0
M  V30 1663 N 162.591 -1.51276 -0.441967 0
M  V30 1664 C 163.838 -1.63715 -1.19179 0
M  V30 1665 C 164.166 -0.351175 -1.91303 0
M  V30 1666 O 163.421 0.664524 -1.84072 0
M  V30 1667 C 163.72 -2.78746 -2.23686 0
M  V30 1668 C 163.386 -4.18189 -1.68607 0
M  V30 1669 C 162.048 -4.56125 -1.53308 0
M  V30 1670 C 164.4 -5.05222 -1.28062 0
M  V30 1671 C 161.728 -5.78804 -0.959317 0
M  V30 1672 C 164.08 -6.28476 -0.721162 0
M  V30 1673 C 162.744 -6.65188 -0.55504 0
M  V30 1674 H 162.014 -0.599076 -0.436106 0
M  V30 1675 H 164.661 -1.85296 -0.48351 0
M  V30 1676 H 162.966 -2.51369 -3.00535 0
M  V30 1677 H 164.663 -2.8557 -2.81515 0
M  V30 1678 H 161.253 -3.88277 -1.8149 0
M  V30 1679 H 165.437 -4.76524 -1.38704 0
M  V30 1680 H 160.693 -6.05899 -0.81833 0
M  V30 1681 H 164.867 -6.95259 -0.398458 0
M  V30 1682 H 162.494 -7.60123 -0.108311 0
M  V30 1683 N 164.069 0.697108 -1.41344 0
M  V30 1684 C 164.979 1.84088 -1.45427 0
M  V30 1685 C 165.995 1.70545 -0.34501 0
M  V30 1686 O 167.171 1.92488 -0.592492 0
M  V30 1687 C 164.236 3.20056 -1.33286 0
M  V30 1688 C 163.297 3.45718 -2.54514 0
M  V30 1689 C 162.53 4.75199 -2.42944 0
M  V30 1690 O 162.753 5.51579 -1.45318 0
M  V30 1691 O 161.687 5.0161 -3.32672 0
M  V30 1692 H 165.513 1.836 -2.41919 0
M  V30 1693 H 163.098 0.849966 -1.22866 0
M  V30 1694 H 164.98 4.01236 -1.28794 0
M  V30 1695 H 163.655 3.2123 -0.39909 0
M  V30 1696 H 162.562 2.64474 -2.64583 0
M  V30 1697 H 163.895 3.49356 -3.46715 0
M  V30 1698 N 165.547 1.27147 0.931209 0
M  V30 1699 C 166.495 1.09398 2.05268 0
M  V30 1700 C 167.489 0.0180591 1.6939 0
M  V30 1701 O 168.695 0.17551 1.79142 0
M  V30 1702 H 165.07 0.336986 0.672268 0
M  V30 1703 H 167.041 2.04416 2.17386 0
M  V30 1704 C 165.79 0.75424 3.39421 0
M  V30 1705 H 165.113 1.57404 3.67511 0
M  V30 1706 H 166.553 0.669903 4.18674 0
M  V30 1707 C 165.012 -0.541197 3.32525 0
M  V30 1708 O 165.542 -1.57664 3.69466 0
M  V30 1709 N 163.748 -0.535517 2.85623 0
M  V30 1710 H 163.295 0.307511 2.55758 0
M  V30 1711 H 163.253 -1.40236 2.81392 0
M  V30 1712 N 167.025 -1.13721 1.09112 0
M  V30 1713 C 168.271 -1.85198 0.826414 0
M  V30 1714 C 168.604 -1.83129 -0.646319 0
M  V30 1715 O 167.879 -1.2671 -1.47563 0
M  V30 1716 C 168.162 -3.33507 1.35812 0
M  V30 1717 C 168.015 -3.44108 2.89672 0
M  V30 1718 C 169.334 -4.28838 0.989256 0
M  V30 1719 H 166.453 -0.67243 0.301675 0
M  V30 1720 H 169.095 -1.33499 1.35197 0
M  V30 1721 H 167.245 -3.77666 0.911082 0
M  V30 1722 H 168.917 -3.08684 3.428 0
M  V30 1723 H 167.16 -2.85087 3.26967 0
M  V30 1724 H 167.831 -4.48388 3.21951 0
M  V30 1725 H 170.307 -3.92734 1.37475 0
M  V30 1726 H 169.183 -5.31051 1.38838 0
M  V30 1727 H 169.444 -4.4198 -0.102924 0
M  V30 1728 N 168.503 -0.877838 -1.30888 0
M  V30 1729 C 169.914 -0.544193 -1.78593 0
M  V30 1730 C 170.265 0.939301 -1.72254 0
M  V30 1731 O 169.39 1.7337 -1.29505 0
M  V30 1732 C 169.985 -0.98105 -3.24285 0
M  V30 1733 C 168.544 -0.698935 -3.69854 0
M  V30 1734 C 167.691 -1.168 -2.51502 0
M  V30 1735 H 170.642 -1.06278 -1.17859 0
M  V30 1736 H 170.663 -0.307009 -3.79259 0
M  V30 1737 H 170.175 -2.06079 -3.28866 0
M  V30 1738 H 168.276 0.369112 -3.70767 0
M  V30 1739 H 168.389 -1.28148 -4.61644 0
M  V30 1740 H 166.753 -0.587535 -2.47831 0
M  V30 1741 H 167.536 -2.25533 -2.58824 0
M  V30 1742 N 169.982 1.44106 -0.638065 0
M  V30 1743 C 171.23 2.01579 -0.145043 0
M  V30 1744 C 171.551 1.50496 1.24 0
M  V30 1745 O 170.821 0.711374 1.82527 0
M  V30 1746 H 169.401 0.745282 -0.05063 0
M  V30 1747 H 172.063 1.76516 -0.826327 0
M  V30 1748 H 171.159 3.11877 -0.118039 0
M  V30 1749 N 171.46 0.379036 1.52974 0
M  V30 1750 C 172.685 -0.209353 2.06341 0
M  V30 1751 C 173.11 -1.40583 1.24972 0
M  V30 1752 O 172.468 -1.79246 0.272155 0
M  V30 1753 C 172.516 -0.567786 3.56102 0
M  V30 1754 O 171.62 -1.66318 3.77375 0
M  V30 1755 H 170.961 -0.0272919 0.663439 0
M  V30 1756 H 173.491 0.543536 1.97248 0
M  V30 1757 H 173.501 -0.835003 3.99364 0
M  V30 1758 H 172.176 0.307013 4.14765 0
M  V30 1759 H 170.753 -1.39048 3.46006 0
M  V30 1760 N 172.938 -1.57226 0.108567 0
M  V30 1761 C 174.215 -1.86333 -0.594939 0
M  V30 1762 C 174.595 -1.00788 -1.85486 0
M  V30 1763 O 173.943 -0.0839293 -2.28346 0
M  V30 1764 C 174.153 -3.37265 -0.897405 0
M  V30 1765 C 175.501 -4.05629 -1.25501 0
M  V30 1766 O 176.525 -3.42224 -0.987998 0
M  V30 1767 O 175.384 -5.17531 -1.75567 0
M  V30 1768 H 172.478 -0.771018 -0.2991 0
M  V30 1769 H 175.024 -1.69102 0.142283 0
M  V30 1770 H 173.796 -3.913 -0.00413806 0
M  V30 1771 H 173.419 -3.59889 -1.69014 0
M  V30 1772 N 174.416 0.165178 -1.56732 0
M  V30 1773 C 175.827 0.727046 -1.71962 0
M  V30 1774 C 176.178 1.82508 -0.720078 0
M  V30 1775 O 175.303 2.16082 0.117242 0
M  V30 1776 C 175.898 1.32559 -3.11791 0
M  V30 1777 C 174.457 1.83422 -3.28684 0
M  V30 1778 C 173.604 0.715567 -2.67908 0
M  V30 1779 H 176.555 -0.0602896 -1.58585 0
M  V30 1780 H 176.576 2.19533 -3.10782 0
M  V30 1781 H 176.088 0.526195 -3.84516 0
M  V30 1782 H 174.189 2.65986 -2.60926 0
M  V30 1783 H 174.302 1.97543 -4.36478 0
M  V30 1784 H 172.666 1.13758 -2.27884 0
M  V30 1785 H 173.449 -0.0720836 -3.43224 0
M  V30 1786 N 175.894 1.51508 0.433938 0
M  V30 1787 C 176.844 1.69451 1.52546 0
M  V30 1788 C 177.828 0.548474 1.51263 0
M  V30 1789 O 179.02 0.804529 1.57659 0
M  V30 1790 C 176.149 1.82604 2.90707 0
M  V30 1791 C 175.235 3.03002 2.96733 0
M  V30 1792 N 175.626 4.26121 2.72496 0
M  V30 1793 C 173.924 3.02327 3.27894 0
M  V30 1794 C 174.625 5.07407 2.84452 0
M  V30 1795 N 173.601 4.42126 3.16269 0
M  V30 1796 H 177.403 2.62305 1.32564 0
M  V30 1797 H 174.917 1.49202 0.641297 0
M  V30 1798 H 176.914 1.93569 3.69238 0
M  V30 1799 H 175.574 0.909339 3.11707 0
M  V30 1800 H 176.585 4.55009 2.4736 0
M  V30 1801 H 173.262 2.20301 3.54646 0
M  V30 1802 H 174.652 6.15422 2.69639 0
M  V30 1803 N 177.372 -0.689602 1.41712 0
M  V30 1804 C 178.282 -1.83314 1.46401 0
M  V30 1805 C 179.298 -1.7036 0.35405 0
M  V30 1806 O 180.474 -1.92171 0.602692 0
M  V30 1807 C 177.539 -3.19344 1.34982 0
M  V30 1808 C 176.6 -3.44363 2.56344 0
M  V30 1809 C 175.833 -4.73904 2.45461 0
M  V30 1810 O 176.056 -5.508 1.48241 0
M  V30 1811 O 174.99 -4.99839 3.35328 0
M  V30 1812 H 178.816 -1.82314 2.42889 0
M  V30 1813 H 176.401 -0.843438 1.23315 0
M  V30 1814 H 178.283 -4.00547 1.3092 0
M  V30 1815 H 176.958 -3.21014 0.41612 0
M  V30 1816 H 175.865 -2.63067 2.65982 0
M  V30 1817 H 177.198 -3.47512 3.48563 0
M  V30 1818 N 178.85 -1.27639 -0.924453 0
M  V30 1819 C 180.098 -1.13941 -1.66918 0
M  V30 1820 C 180.419 0.314589 -1.92446 0
M  V30 1821 O 179.689 1.21964 -1.53303 0
M  V30 1822 H 178.269 -0.418678 -0.618642 0
M  V30 1823 H 180.931 -1.60213 -1.10985 0
M  V30 1824 H 180.027 -1.67094 -2.63602 0
M  V30 1825 N 180.328 1.1314 -1.09713 0
M  V30 1826 C 181.739 1.66029 -0.853885 0
M  V30 1827 C 182.09 1.86241 0.617142 0
M  V30 1828 O 181.215 1.5834 1.47503 0
M  V30 1829 C 181.81 3.01599 -1.5435 0
M  V30 1830 C 180.369 3.51467 -1.34714 0
M  V30 1831 C 179.516 2.26648 -1.59769 0
M  V30 1832 H 182.467 0.970226 -1.25588 0
M  V30 1833 H 182.488 3.67709 -0.978267 0
M  V30 1834 H 182 2.86856 -2.6141 0
M  V30 1835 H 180.101 3.71408 -0.297838 0
M  V30 1836 H 180.214 4.314 -2.08401 0
M  V30 1837 H 178.578 2.33385 -1.01998 0
M  V30 1838 H 179.361 2.14467 -2.68065 0
M  V30 1839 N 181.806 0.884767 1.30421 0
M  V30 1840 C 183.052 0.503851 1.96441 0
M  V30 1841 C 183.385 -0.944518 1.69684 0
M  V30 1842 O 182.66 -1.66737 1.00145 0
M  V30 1843 C 182.943 0.779085 3.51571 0
M  V30 1844 C 182.796 2.27807 3.87846 0
M  V30 1845 C 184.115 0.255452 4.39358 0
M  V30 1846 H 181.234 0.184533 0.713524 0
M  V30 1847 H 183.876 1.10872 1.54297 0
M  V30 1848 H 182.026 0.264274 3.876 0
M  V30 1849 H 183.698 2.86127 3.61841 0
M  V30 1850 H 181.941 2.74479 3.35922 0
M  V30 1851 H 182.612 2.42125 4.96064 0
M  V30 1852 H 185.088 0.696079 4.10236 0
M  V30 1853 H 183.964 0.477361 5.4682 0
M  V30 1854 H 184.225 -0.843293 4.33983 0
M  V30 1855 N 183.284 -1.43765 0.645699 0
M  V30 1856 C 184.216 -2.29027 -0.0890605 0
M  V30 1857 C 185.229 -1.42093 -0.794563 0
M  V30 1858 O 186.418 -1.66104 -0.653575 0
M  V30 1859 C 183.518 -3.18831 -1.14891 0
M  V30 1860 C 182.691 -4.34261 -0.523043 0
M  V30 1861 C 181.75 -5.04994 -1.47878 0
M  V30 1862 O 180.776 -5.6052 -0.990277 0
M  V30 1863 N 181.978 -5.07795 -2.81291 0
M  V30 1864 H 184.743 -2.92727 0.64272 0
M  V30 1865 H 182.304 -1.54373 0.487924 0
M  V30 1866 H 184.296 -3.63015 -1.78892 0
M  V30 1867 H 182.866 -2.56782 -1.78275 0
M  V30 1868 H 182.086 -3.93088 0.295896 0
M  V30 1869 H 183.374 -5.08728 -0.0858147 0
M  V30 1870 H 182.772 -4.64042 -3.23546 0
M  V30 1871 H 181.329 -5.55721 -3.40614 0
M  V30 1872 N 184.763 -0.387143 -1.52771 0
M  V30 1873 C 185.988 0.198407 -2.06449 0
M  V30 1874 C 186.413 1.39918 -1.25716 0
M  V30 1875 O 185.771 1.79099 -0.281657 0
M  V30 1876 C 185.819 0.548893 -3.56398 0
M  V30 1877 O 184.923 1.64315 -3.78252 0
M  V30 1878 H 184.264 0.0237731 -0.663574 0
M  V30 1879 H 186.794 -0.553989 -1.96957 0
M  V30 1880 H 186.804 0.813812 -3.99801 0
M  V30 1881 H 185.479 -0.329005 -4.14597 0
M  V30 1882 H 184.056 1.37211 -3.46738 0
M  V30 1883 N 186.241 1.57166 -0.116904 0
M  V30 1884 C 187.49 1.94298 0.541407 0
M  V30 1885 C 187.803 1.00236 1.67964 0
M  V30 1886 O 189.009 1.26826 2.40057 0
M  V30 1887 C 187.465 3.45306 1.01449 0
M  V30 1888 C 187.073 4.47899 -0.0951738 0
M  V30 1889 C 188.817 3.91361 1.6443 0
M  V30 1890 C 186.724 5.90083 0.394491 0
M  V30 1891 H 185.654 0.725308 0.206019 0
M  V30 1892 H 188.305 1.82446 -0.196419 0
M  V30 1893 H 186.687 3.52385 1.80667 0
M  V30 1894 H 187.861 4.52486 -0.871374 0
M  V30 1895 H 186.176 4.11583 -0.631505 0
M  V30 1896 H 188.773 4.95004 2.02176 0
M  V30 1897 H 189.116 3.3122 2.52189 0
M  V30 1898 H 189.649 3.87073 0.917559 0
M  V30 1899 H 186.388 6.53974 -0.447004 0
M  V30 1900 H 185.908 5.88921 1.13722 0
M  V30 1901 H 187.587 6.41307 0.856399 0
M  V30 1902 N 187.719 -0.156864 1.56817 0
M  V30 1903 C 188.959 -0.877453 1.84608 0
M  V30 1904 C 189.323 -1.78791 0.699845 0
M  V30 1905 O 190.524 -2.5472 0.858553 0
M  V30 1906 C 188.795 -1.63992 3.17555 0
M  V30 1907 S 190.354 -2.40729 3.66872 0
M  V30 1908 H 187.172 -0.293612 0.647544 0
M  V30 1909 H 189.774 -0.138099 1.95012 0
M  V30 1910 H 188.478 -0.962363 3.98957 0
M  V30 1911 H 188.009 -2.42038 3.10131 0
M  V30 1912 H 190.024 -3.65725 3.3535 0
M  V30 1913 N 189.197 -1.51736 -0.425897 0
M  V30 1914 C 190.425 -1.68794 -1.1965 0
M  V30 1915 C 190.84 -0.390164 -1.84725 0
M  V30 1916 O 190.197 0.632376 -1.71194 0
M  V30 1917 C 190.248 -2.81174 -2.27208 0
M  V30 1918 O 189.969 -4.05925 -1.64793 0
M  V30 1919 C 191.47 -3.09599 -3.17275 0
M  V30 1920 H 188.69 -0.566128 -0.360194 0
M  V30 1921 H 191.234 -1.98211 -0.503249 0
M  V30 1922 H 189.389 -2.54324 -2.9223 0
M  V30 1923 H 189.803 -4.68423 -2.35967 0
M  V30 1924 H 191.277 -3.91786 -3.88854 0
M  V30 1925 H 191.754 -2.22468 -3.78688 0
M  V30 1926 H 192.36 -3.38151 -2.57941 0
M  V30 1927 N 190.675 0.682077 -1.42076 0
M  V30 1928 C 191.921 1.44428 -1.42367 0
M  V30 1929 C 192.254 1.94164 -0.0373056 0
M  V30 1930 O 191.529 1.70429 0.937239 0
M  V30 1931 C 191.812 2.64654 -2.44194 0
M  V30 1932 C 191.665 2.20596 -3.91991 0
M  V30 1933 C 192.984 3.66865 -2.431 0
M  V30 1934 H 190.103 0.523834 -0.518428 0
M  V30 1935 H 192.745 0.77576 -1.73442 0
M  V30 1936 H 190.895 3.2169 -2.17826 0
M  V30 1937 H 192.567 1.68783 -4.29313 0
M  V30 1938 H 190.81 1.52242 -4.06208 0
M  V30 1939 H 191.481 3.06921 -4.58807 0
M  V30 1940 H 193.957 3.19531 -2.66532 0
M  V30 1941 H 192.833 4.48577 -3.16339 0
M  V30 1942 H 193.094 4.17493 -1.45437 0
M  V30 1943 N 192.153 1.28127 0.917671 0
M  V30 1944 C 193.43 1.05761 1.64542 0
M  V30 1945 C 193.81 -0.404344 2.07191 0
M  V30 1946 O 193.158 -1.38963 1.81388 0
M  V30 1947 C 193.368 2.02857 2.83989 0
M  V30 1948 C 194.716 2.32786 3.551 0
M  V30 1949 O 195.74 2.0091 2.94132 0
M  V30 1950 O 194.599 2.87169 4.64969 0
M  V30 1951 H 191.693 0.403916 0.721652 0
M  V30 1952 H 194.239 1.39431 0.967322 0
M  V30 1953 H 193.011 3.01407 2.49538 0
M  V30 1954 H 192.634 1.69809 3.59514 0
M  V30 1955 N 193.631 -1.12557 1.10312 0
M  V30 1956 C 194.581 -2.16331 0.720076 0
M  V30 1957 C 195.565 -1.58616 -0.270115 0
M  V30 1958 O 196.757 -1.76823 -0.0790507 0
M  V30 1959 C 193.886 -3.42963 0.152113 0
M  V30 1960 C 192.972 -4.07663 1.16927 0
M  V30 1961 N 193.363 -4.47392 2.35953 0
M  V30 1962 C 191.661 -4.34425 1.0095 0
M  V30 1963 C 192.362 -4.97932 3.0073 0
M  V30 1964 N 191.338 -4.93358 2.28252 0
M  V30 1965 H 195.14 -2.44813 1.62616 0
M  V30 1966 H 192.654 -1.29449 0.980654 0
M  V30 1967 H 194.651 -4.16664 -0.14037 0
M  V30 1968 H 193.311 -3.1595 -0.748701 0
M  V30 1969 H 194.322 -4.39802 2.73486 0
M  V30 1970 H 190.999 -4.17177 0.164134 0
M  V30 1971 H 192.389 -5.38397 4.01969 0
M  V30 1972 N 195.109 -0.891671 -1.2995 0
M  V30 1973 C 196.072 -0.36828 -2.26222 0
M  V30 1974 C 197.072 0.493014 -1.53056 0
M  V30 1975 O 198.262 0.299213 -1.71611 0
M  V30 1976 C 195.394 0.47442 -3.37583 0
M  V30 1977 H 196.587 -1.21844 -2.74033 0
M  V30 1978 H 194.14 -0.669107 -1.41254 0
M  V30 1979 H 194.875 1.34489 -2.95099 0
M  V30 1980 H 194.66 -0.142615 -3.91841 0
M  V30 1981 H 196.15 0.83218 -4.09224 0
M  V30 1982 N 196.587 1.43421 -0.653314 0
M  V30 1983 C 197.497 2.34568 0.0388565 0
M  V30 1984 C 198.513 1.53888 0.81207 0
M  V30 1985 O 199.689 1.86539 0.759294 0
M  V30 1986 C 196.754 3.32167 0.993269 0
M  V30 1987 C 195.815 4.28751 0.216977 0
M  V30 1988 C 195.048 5.21688 1.12593 0
M  V30 1989 O 195.271 5.19052 2.36519 0
M  V30 1990 O 194.205 5.98919 0.598284 0
M  V30 1991 H 198.031 2.95251 -0.711386 0
M  V30 1992 H 195.616 1.43564 -0.413502 0
M  V30 1993 H 197.498 3.92183 1.54176 0
M  V30 1994 H 196.173 2.73987 1.72374 0
M  V30 1995 H 195.08 3.72215 -0.375101 0
M  V30 1996 H 196.413 4.89913 -0.473924 0
M  V30 1997 N 198.065 0.39524 1.52563 0
M  V30 1998 C 199.481 0.0454682 1.59535 0
M  V30 1999 C 199.681 -1.44056 1.4089 0
M  V30 2000 O 198.737 -2.20579 1.22888 0
M  V30 2001 C 200.05 0.527963 2.96029 0
M  V30 2002 C 201.598 0.484733 3.09224 0
M  V30 2003 C 202.073 0.943512 4.48176 0
M  V30 2004 N 203.564 0.899765 4.54377 0
M  V30 2005 C 204.299 1.22609 5.60138 0
M  V30 2006 N 203.795 1.62319 6.73516 0
M  V30 2007 N 205.588 1.14696 5.50274 0
M  V30 2008 H 197.739 1.36261 1.62931 0
M  V30 2009 H 200.002 0.558887 0.765735 0
M  V30 2010 H 199.708 1.56607 3.14908 0
M  V30 2011 H 199.582 -0.0698056 3.77135 0
M  V30 2012 H 201.969 -0.544298 2.90037 0
M  V30 2013 H 202.05 1.11838 2.30056 0
M  V30 2014 H 201.694 1.9708 4.68104 0
M  V30 2015 H 201.624 0.286817 5.25818 0
M  V30 2016 H 204.115 0.607632 3.72983 0
M  V30 2017 H 204.428 1.85567 7.5019 0
M  V30 2018 H 202.773 1.66211 6.74833 0
M  V30 2019 H 205.964 0.835701 4.6058 0
M  V30 2020 H 206.137 1.40459 6.32594 0
M  V30 2021 N 199.544 -1.57102 0.125237 0
M  V30 2022 C 200.507 -2.14471 -0.80838 0
M  V30 2023 C 201.507 -1.0811 -1.19033 0
M  V30 2024 O 202.697 -1.33856 -1.11482 0
M  V30 2025 C 199.829 -2.69005 -2.09402 0
M  V30 2026 H 201.022 -2.98297 -0.309696 0
M  V30 2027 H 198.575 -1.55807 -0.124051 0
M  V30 2028 H 199.31 -1.88785 -2.63687 0
M  V30 2029 H 199.095 -3.46799 -1.82957 0
M  V30 2030 H 200.585 -3.13278 -2.76128 0
M  V30 2031 N 201.022 0.148545 -1.56898 0
M  V30 2032 C 202.269 0.861418 -1.83264 0
M  V30 2033 C 202.597 1.81239 -0.705883 0
M  V30 2034 O 201.852 1.93305 0.305212 0
M  V30 2035 C 202.151 1.67064 -3.1595 0
M  V30 2036 C 201.817 0.866591 -4.42494 0
M  V30 2037 C 200.479 0.644762 -4.76861 0
M  V30 2038 C 202.831 0.30418 -5.20312 0
M  V30 2039 C 200.159 -0.15021 -5.86508 0
M  V30 2040 C 202.511 -0.477824 -6.30793 0
M  V30 2041 C 201.175 -0.710244 -6.63711 0
M  V30 2042 H 200.445 0.315215 -0.670612 0
M  V30 2043 H 203.092 0.125142 -1.91091 0
M  V30 2044 H 201.397 2.47698 -3.03567 0
M  V30 2045 H 203.094 2.22566 -3.33565 0
M  V30 2046 H 199.684 1.04955 -4.15551 0
M  V30 2047 H 203.868 0.462844 -4.94137 0
M  V30 2048 H 199.124 -0.339796 -6.10455 0
M  V30 2049 H 203.298 -0.92076 -6.90286 0
M  V30 2050 H 200.925 -1.3281 -7.48509 0
M  V30 2051 N 202.5 1.5196 0.417844 0
M  V30 2052 C 203.463 1.74065 1.49111 0
M  V30 2053 C 204.463 0.610537 1.48758 0
M  V30 2054 O 205.653 0.87832 1.50437 0
M  V30 2055 C 202.785 1.81502 2.88565 0
M  V30 2056 H 203.978 2.69869 1.30807 0
M  V30 2057 H 201.531 1.42244 0.647785 0
M  V30 2058 H 202.266 0.875813 3.1225 0
M  V30 2059 H 202.051 2.63651 2.90225 0
M  V30 2060 H 203.541 2.00376 3.66387 0
M  V30 2061 N 203.978 -0.674533 1.42435 0
M  V30 2062 C 204.888 -1.81751 1.48337 0
M  V30 2063 C 205.904 -1.69975 0.372099 0
M  V30 2064 O 207.08 -1.91521 0.62304 0
M  V30 2065 C 204.145 -3.17895 1.38361 0
M  V30 2066 C 203.206 -3.41625 2.59982 0
M  V30 2067 C 202.439 -4.71274 2.50473 0
M  V30 2068 O 202.662 -5.49197 1.54075 0
M  V30 2069 O 201.596 -4.96254 3.4061 0
M  V30 2070 H 205.422 -1.79728 2.44809 0
M  V30 2071 H 203.007 -0.830312 1.24202 0
M  V30 2072 H 204.889 -3.99136 1.35161 0
M  V30 2073 H 203.564 -3.20555 0.450144 0
M  V30 2074 H 202.471 -2.60231 2.68757 0
M  V30 2075 H 203.804 -3.43796 3.52229 0
M  V30 2076 N 205.456 -1.28612 -0.910864 0
M  V30 2077 C 206.686 -1.1862 -1.69153 0
M  V30 2078 C 207.094 0.257324 -1.87442 0
M  V30 2079 O 206.437 1.18543 -1.40332 0
M  V30 2080 C 206.499 -1.81606 -3.10257 0
M  V30 2081 C 206.163 -3.30864 -3.15243 0
M  V30 2082 C 207.16 -4.27256 -2.96223 0
M  V30 2083 C 204.845 -3.71871 -3.37664 0
M  V30 2084 C 206.839 -5.62631 -2.99541 0
M  V30 2085 C 204.526 -5.07371 -3.40614 0
M  V30 2086 C 205.524 -6.02561 -3.21573 0
M  V30 2087 O 205.212 -7.35589 -3.2429 0
M  V30 2088 H 204.944 -0.412633 -0.535453 0
M  V30 2089 H 207.498 -1.70306 -1.14827 0
M  V30 2090 H 205.728 -1.24418 -3.66138 0
M  V30 2091 H 207.417 -1.66092 -3.70362 0
M  V30 2092 H 208.183 -3.9691 -2.78725 0
M  V30 2093 H 204.062 -2.98241 -3.5153 0
M  V30 2094 H 207.606 -6.36907 -2.84597 0
M  V30 2095 H 203.503 -5.37366 -3.57642 0
M  V30 2096 H 204.271 -7.44252 -3.40633 0
M  V30 2097 N 206.934 1.1197 -1.10907 0
M  V30 2098 C 207.866 2.17592 -0.720175 0
M  V30 2099 C 208.879 1.60938 0.245495 0
M  V30 2100 O 210.068 1.78476 0.0292245 0
M  V30 2101 C 207.168 3.38873 -0.0427917 0
M  V30 2102 C 206.341 4.25006 -1.03388 0
M  V30 2103 C 205.4 5.24774 -0.387075 0
M  V30 2104 O 204.426 5.59631 -1.03934 0
M  V30 2105 N 205.628 5.74208 0.852407 0
M  V30 2106 H 208.393 2.51567 -1.62893 0
M  V30 2107 H 205.954 1.27439 -0.998543 0
M  V30 2108 H 207.946 4.02703 0.401501 0
M  V30 2109 H 206.516 3.03007 0.768456 0
M  V30 2110 H 205.736 3.57716 -1.65629 0
M  V30 2111 H 207.024 4.79397 -1.70458 0
M  V30 2112 H 206.422 5.48062 1.40161 0
M  V30 2113 H 204.979 6.39901 1.23977 0
M  V30 2114 N 208.412 0.89855 1.29475 0
M  V30 2115 C 209.375 0.380272 2.26023 0
M  V30 2116 C 210.375 -0.484891 1.53315 0
M  V30 2117 O 211.565 -0.290108 1.71767 0
M  V30 2118 C 208.697 -0.45651 3.3783 0
M  V30 2119 H 209.89 1.23295 2.73383 0
M  V30 2120 H 207.443 0.676589 1.40897 0
M  V30 2121 H 208.178 -1.32922 2.95808 0
M  V30 2122 H 207.963 0.163393 3.91759 0
M  V30 2123 H 209.453 -0.810466 4.0966 0
M  V30 2124 N 209.89 -1.43072 0.660911 0
M  V30 2125 C 210.82 -2.33497 -0.0122829 0
M  V30 2126 C 211.801 -1.49903 -0.803925 0
M  V30 2127 O 212.986 -1.78546 -0.763864 0
M  V30 2128 C 210.116 -3.33363 -0.973994 0
M  V30 2129 C 209.07 -4.27003 -0.291928 0
M  V30 2130 C 208.396 -5.16967 -1.36562 0
M  V30 2131 C 209.696 -5.15816 0.820462 0
M  V30 2132 H 211.39 -2.90038 0.742873 0
M  V30 2133 H 208.936 -1.39461 0.358688 0
M  V30 2134 H 210.889 -3.95524 -1.45392 0
M  V30 2135 H 209.613 -2.75095 -1.7604 0
M  V30 2136 H 208.272 -3.66217 0.167623 0
M  V30 2137 H 207.92 -4.55034 -2.14366 0
M  V30 2138 H 207.62 -5.80441 -0.914454 0
M  V30 2139 H 209.144 -5.82003 -1.84675 0
M  V30 2140 H 210.558 -5.71742 0.422366 0
M  V30 2141 H 208.955 -5.8805 1.19656 0
M  V30 2142 H 210.025 -4.55045 1.67518 0
M  V30 2143 N 211.368 -0.403325 -1.52352 0
M  V30 2144 C 212.298 0.416205 -2.29761 0
M  V30 2145 C 213.279 1.05123 -1.33728 0
M  V30 2146 O 214.464 1.06134 -1.62632 0
M  V30 2147 C 211.594 1.53624 -3.11475 0
M  V30 2148 C 210.548 1.02653 -4.15507 0
M  V30 2149 C 209.874 2.23971 -4.85532 0
M  V30 2150 C 211.174 0.08463 -5.22231 0
M  V30 2151 H 212.868 -0.229701 -2.98518 0
M  V30 2152 H 210.414 -0.111913 -1.43564 0
M  V30 2153 H 212.367 2.1165 -3.64393 0
M  V30 2154 H 211.091 2.20994 -2.40477 0
M  V30 2155 H 209.75 0.46871 -3.63591 0
M  V30 2156 H 209.398 2.89883 -4.11068 0
M  V30 2157 H 209.098 1.90521 -5.55856 0
M  V30 2158 H 210.622 2.82614 -5.41259 0
M  V30 2159 H 212.036 0.573509 -5.70424 0
M  V30 2160 H 210.433 -0.160783 -5.99885 0
M  V30 2161 H 211.503 -0.86237 -4.7717 0
M  V30 2162 N 212.846 1.57033 -0.133567 0
M  V30 2163 C 214.262 1.58035 0.222944 0
M  V30 2164 C 214.462 1.14713 1.6566 0
M  V30 2165 O 213.518 0.841218 2.38075 0
M  V30 2166 C 214.831 3.00691 -0.0236116 0
M  V30 2167 C 216.379 3.12973 0.0411512 0
M  V30 2168 C 216.854 4.57654 -0.177899 0
M  V30 2169 N 218.345 4.63033 -0.124365 0
M  V30 2170 C 219.08 5.72771 -0.268553 0
M  V30 2171 N 218.576 6.91206 -0.46972 0
M  V30 2172 N 220.369 5.61718 -0.2071 0
M  V30 2173 H 212.52 1.8349 -1.06981 0
M  V30 2174 H 214.783 0.848677 -0.422436 0
M  V30 2175 H 214.489 3.36726 -1.0153 0
M  V30 2176 H 214.363 3.70614 0.701808 0
M  V30 2177 H 216.75 2.76787 1.02338 0
M  V30 2178 H 216.831 2.45564 -0.716383 0
M  V30 2179 H 216.475 4.94542 -1.15717 0
M  V30 2180 H 216.405 5.23173 0.599797 0
M  V30 2181 H 218.896 3.7789 0.027011 0
M  V30 2182 H 219.209 7.70693 -0.570212 0
M  V30 2183 H 217.554 6.93156 -0.505876 0
M  V30 2184 H 220.745 4.68072 -0.0507986 0
M  V30 2185 H 220.918 6.47195 -0.322909 0
M  V30 2186 N 214.325 -0.140222 1.56975 0
M  V30 2187 C 215.235 -1.19223 2.02047 0
M  V30 2188 C 216.251 -1.46612 0.937062 0
M  V30 2189 O 217.427 -1.58148 1.24704 0
M  V30 2190 C 214.492 -2.50414 2.39778 0
M  V30 2191 C 213.553 -2.30612 3.621 0
M  V30 2192 C 212.786 -3.55547 3.98023 0
M  V30 2193 O 213.009 -4.62004 3.34528 0
M  V30 2194 O 211.943 -3.47808 4.91237 0
M  V30 2195 H 215.769 -0.839559 2.91865 0
M  V30 2196 H 213.354 -0.349453 1.45256 0
M  V30 2197 H 215.236 -3.27747 2.64877 0
M  V30 2198 H 213.911 -2.85198 1.53114 0
M  V30 2199 H 212.818 -1.51207 3.4218 0
M  V30 2200 H 214.151 -2.00741 4.49404 0
M  V30 2201 N 215.803 -1.52179 -0.40978 0
M  V30 2202 C 217.214 -1.58377 -0.988615 0
M  V30 2203 C 217.565 -0.423879 -1.91566 0
M  V30 2204 O 216.69 0.455844 -2.11544 0
M  V30 2205 C 217.285 -2.87044 -1.79976 0
M  V30 2206 C 215.844 -2.95722 -2.32863 0
M  V30 2207 C 214.991 -2.53309 -1.12828 0
M  V30 2208 H 217.942 -1.57558 -0.190039 0
M  V30 2209 H 217.963 -2.7236 -2.65707 0
M  V30 2210 H 217.475 -3.71444 -1.12478 0
M  V30 2211 H 215.576 -2.15814 -3.03735 0
M  V30 2212 H 215.689 -3.99951 -2.63773 0
M  V30 2213 H 214.053 -2.07142 -1.48204 0
M  V30 2214 H 214.836 -3.40082 -0.46897 0
M  V30 2215 N 217.281 0.66697 -1.42791 0
M  V30 2216 C 218.529 1.42417 -1.43394 0
M  V30 2217 C 218.85 1.94925 -0.0542373 0
M  V30 2218 O 218.12 1.73564 0.908415 0
M  V30 2219 H 216.7 0.528515 -0.527902 0
M  V30 2220 H 219.362 0.787562 -1.78279 0
M  V30 2221 H 218.458 2.27333 -2.13837 0
M  V30 2222 N 218.759 1.29093 0.90403 0
M  V30 2223 C 220.17 1.15186 1.46932 0
M  V30 2224 C 220.521 -0.254587 1.94541 0
M  V30 2225 O 219.646 -1.14972 1.83332 0
M  V30 2226 C 220.241 2.08492 2.67051 0
M  V30 2227 C 218.8 1.98621 3.19729 0
M  V30 2228 C 217.947 1.9967 1.92425 0
M  V30 2229 H 220.898 1.41641 0.715789 0
M  V30 2230 H 220.919 1.65461 3.42641 0
M  V30 2231 H 220.431 3.10847 2.3237 0
M  V30 2232 H 218.532 0.993389 3.59114 0
M  V30 2233 H 218.645 2.86068 3.8432 0
M  V30 2234 H 217.009 1.44208 2.09943 0
M  V30 2235 H 217.792 3.03721 1.60026 0
M  V30 2236 N 220.237 -1.11381 1.11499 0
M  V30 2237 C 221.486 -1.82494 0.858993 0
M  V30 2238 C 221.799 -1.85605 -0.617278 0
M  V30 2239 O 223.005 -2.52824 -0.989552 0
M  V30 2240 C 221.461 -3.27745 1.48699 0
M  V30 2241 C 221.069 -3.32961 2.99735 0
M  V30 2242 C 222.813 -4.03754 1.31085 0
M  V30 2243 C 220.72 -4.72612 3.55516 0
M  V30 2244 H 219.65 -0.683802 0.317696 0
M  V30 2245 H 222.301 -1.25331 1.34031 0
M  V30 2246 H 220.683 -3.84844 0.933339 0
M  V30 2247 H 221.857 -2.85741 3.61509 0
M  V30 2248 H 220.172 -2.70433 3.16631 0
M  V30 2249 H 222.769 -5.06891 1.70192 0
M  V30 2250 H 223.112 -4.15527 0.253496 0
M  V30 2251 H 223.645 -3.53043 1.83318 0
M  V30 2252 H 220.384 -4.66036 4.60967 0
M  V30 2253 H 219.904 -5.2024 2.98513 0
M  V30 2254 H 221.583 -5.4157 3.53992 0
M  V30 2255 N 221.715 -0.905404 -1.28997 0
M  V30 2256 C 222.961 -0.535039 -1.95615 0
M  V30 2257 C 223.294 0.917404 -1.71165 0
M  V30 2258 O 222.569 1.65123 -1.02785 0
M  V30 2259 C 222.852 -0.834918 -3.50287 0
M  V30 2260 C 222.705 -2.33948 -3.84172 0
M  V30 2261 C 224.024 -0.325318 -4.38896 0
M  V30 2262 H 221.143 -0.195861 -0.710498 0
M  V30 2263 H 223.785 -1.13313 -1.52513 0
M  V30 2264 H 221.935 -0.325904 -3.87131 0
M  V30 2265 H 223.607 -2.91847 -3.57243 0
M  V30 2266 H 221.85 -2.79789 -3.31513 0
M  V30 2267 H 222.521 -2.49987 -4.92149 0
M  V30 2268 H 224.997 -0.761256 -4.09077 0
M  V30 2269 H 223.873 -0.564295 -5.45992 0
M  V30 2270 H 224.134 0.774144 -4.35269 0
M  V30 2271 N 223.193 1.4272 -0.668489 0
M  V30 2272 C 224.442 2.00846 -0.185389 0
M  V30 2273 C 224.755 1.53442 1.21305 0
M  V30 2274 O 225.961 2.03944 1.79218 0
M  V30 2275 C 224.417 3.58805 -0.280591 0
M  V30 2276 C 224.025 4.15198 -1.68268 0
M  V30 2277 C 225.769 4.24255 0.14412 0
M  V30 2278 C 223.676 5.655 -1.73099 0
M  V30 2279 H 222.606 0.751145 -0.0655475 0
M  V30 2280 H 225.257 1.63516 -0.832752 0
M  V30 2281 H 223.639 3.93608 0.434553 0
M  V30 2282 H 224.813 3.91866 -2.42441 0
M  V30 2283 H 223.128 3.62176 -2.05469 0
M  V30 2284 H 225.725 5.34547 0.128086 0
M  V30 2285 H 226.068 3.99277 1.17827 0
M  V30 2286 H 226.601 3.94389 -0.519798 0
M  V30 2287 H 223.34 5.95268 -2.74475 0
M  V30 2288 H 222.86 5.90842 -1.03274 0
M  V30 2289 H 224.539 6.29808 -1.48158 0
M  V30 2290 N 224.671 0.411399 1.52136 0
M  V30 2291 C 225.919 -0.163322 2.01439 0
M  V30 2292 C 226.24 -1.45453 1.29879 0
M  V30 2293 O 225.51 -1.91225 0.4254 0
M  V30 2294 H 224.09 -0.0633447 0.744309 0
M  V30 2295 H 226.752 0.548161 1.87033 0
M  V30 2296 H 225.848 -0.357817 3.10042 0
M  V30 2297 N 226.149 -1.5696 0.141893 0
M  V30 2298 C 227.112 -2.15316 -0.785587 0
M  V30 2299 C 228.112 -1.09366 -1.1788 0
M  V30 2300 O 229.302 -1.35031 -1.10056 0
M  V30 2301 C 226.434 -2.71211 -2.06537 0
M  V30 2302 H 227.627 -2.98608 -0.278041 0
M  V30 2303 H 225.18 -1.5593 -0.107519 0
M  V30 2304 H 225.915 -1.91571 -2.6167 0
M  V30 2305 H 225.7 -3.4872 -1.79268 0
M  V30 2306 H 227.19 -3.16189 -2.72789 0
M  V30 2307 N 227.627 0.131896 -1.57047 0
M  V30 2308 C 228.56 1.19236 -1.94571 0
M  V30 2309 C 229.538 1.40782 -0.813576 0
M  V30 2310 O 230.722 1.55148 -1.07058 0
M  V30 2311 C 227.849 2.54858 -2.23081 0
M  V30 2312 C 226.895 2.49817 -3.45679 0
M  V30 2313 S 227.728 1.95036 -4.98719 0
M  V30 2314 C 228.884 3.32357 -5.30367 0
M  V30 2315 H 229.117 0.872297 -2.84215 0
M  V30 2316 H 226.65 0.338134 -1.50652 0
M  V30 2317 H 228.608 3.32898 -2.40185 0
M  V30 2318 H 227.269 2.84047 -1.34074 0
M  V30 2319 H 226.462 3.49688 -3.62952 0
M  V30 2320 H 226.064 1.79892 -3.27895 0
M  V30 2321 H 228.356 4.28525 -5.2476 0
M  V30 2322 H 229.299 3.19923 -6.31708 0
M  V30 2323 H 229.707 3.3019 -4.57859 0
M  V30 2324 N 229.106 1.52395 0.401703 0
M  V30 2325 C 230.069 1.75636 1.47257 0
M  V30 2326 C 231.069 0.62628 1.48103 0
M  V30 2327 O 232.259 0.894227 1.49497 0
M  V30 2328 C 229.391 1.84553 2.86624 0
M  V30 2329 H 230.584 2.71241 1.27938 0
M  V30 2330 H 228.137 1.42923 0.632662 0
M  V30 2331 H 228.872 0.908882 3.11303 0
M  V30 2332 H 228.657 2.66715 2.87412 0
M  V30 2333 H 230.147 2.04251 3.64241 0
M  V30 2334 N 230.584 -0.659388 1.43143 0
M  V30 2335 C 231.832 -1.41654 1.44147 0
M  V30 2336 C 232.153 -1.94893 0.0645739 0
M  V30 2337 O 231.423 -1.74044 -0.899198 0
M  V30 2338 H 230.003 -0.525708 0.530697 0
M  V30 2339 H 232.665 -0.778097 1.78694 0
M  V30 2340 H 231.761 -2.26195 2.1504 0
M  V30 2341 N 232.062 -1.29571 -0.897171 0
M  V30 2342 C 233.025 -1.14913 -1.98312 0
M  V30 2343 C 234.025 -0.0838629 -1.60581 0
M  V30 2344 O 235.215 -0.331006 -1.71026 0
M  V30 2345 C 232.347 -0.757835 -3.3237 0
M  V30 2346 H 233.54 -2.11377 -2.12743 0
M  V30 2347 H 231.093 -1.12793 -1.08201 0
M  V30 2348 H 231.828 0.206837 -3.2364 0
M  V30 2349 H 231.613 -1.52755 -3.61121 0
M  V30 2350 H 233.103 -0.678408 -4.12053 0
M  V30 2351 N 233.54 1.10788 -1.12088 0
M  V30 2352 C 234.765 1.87002 -0.896949 0
M  V30 2353 C 235.19 1.79933 0.548261 0
M  V30 2354 O 234.548 1.16662 1.38779 0
M  V30 2355 C 234.596 3.3349 -1.37174 0
M  V30 2356 O 233.7 4.08745 -0.547831 0
M  V30 2357 H 233.041 0.580397 -0.322545 0
M  V30 2358 H 235.571 1.39996 -1.49206 0
M  V30 2359 H 235.581 3.84339 -1.36922 0
M  V30 2360 H 234.256 3.37951 -2.42408 0
M  V30 2361 H 232.833 3.6776 -0.617034 0
M  V30 2362 N 235.018 0.912232 1.28515 0
M  V30 2363 C 236.258 0.551677 1.96814 0
M  V30 2364 C 236.622 -0.887825 1.7024 0
M  V30 2365 O 237.823 -1.35588 2.32098 0
M  V30 2366 C 236.094 0.850555 3.47132 0
M  V30 2367 S 237.653 0.59619 4.34731 0
M  V30 2368 H 234.471 0.204191 0.681049 0
M  V30 2369 H 237.073 1.17736 1.56072 0
M  V30 2370 H 235.777 1.8962 3.63968 0
M  V30 2371 H 235.308 0.213471 3.9282 0
M  V30 2372 H 237.323 -0.553154 4.93107 0
M  V30 2373 N 236.496 -1.42363 0.676048 0
M  V30 2374 C 237.743 -2.01522 0.19883 0
M  V30 2375 C 238.071 -1.53456 -1.19505 0
M  V30 2376 O 237.326 -0.727967 -1.81657 0
M  V30 2377 C 237.625 -3.56929 0.183431 0
M  V30 2378 C 237.291 -4.24431 1.52215 0
M  V30 2379 C 235.953 -4.42585 1.8887 0
M  V30 2380 C 238.305 -4.62459 2.40377 0
M  V30 2381 C 235.633 -4.96039 3.13309 0
M  V30 2382 C 237.985 -5.17294 3.64129 0
M  V30 2383 C 236.649 -5.33661 4.00951 0
M  V30 2384 H 235.919 -0.737419 0.0727571 0
M  V30 2385 H 238.566 -1.70531 0.871281 0
M  V30 2386 H 236.871 -3.87594 -0.572532 0
M  V30 2387 H 238.568 -4.00486 -0.203035 0
M  V30 2388 H 235.158 -4.10661 1.22701 0
M  V30 2389 H 239.342 -4.48105 2.13343 0
M  V30 2390 H 234.598 -5.06896 3.41857 0
M  V30 2391 H 238.772 -5.45704 4.32644 0
M  V30 2392 H 236.399 -5.74845 4.9745 0
M  V30 2393 N 237.974 -0.419461 -1.51915 0
M  V30 2394 C 239.222 0.152637 -2.01523 0
M  V30 2395 C 239.543 1.44762 -1.30649 0
M  V30 2396 O 238.813 1.90997 -0.435535 0
M  V30 2397 H 237.393 0.0593966 -0.744635 0
M  V30 2398 H 240.055 -0.558073 -1.86739 0
M  V30 2399 H 239.151 0.341369 -3.10227 0
M  V30 2400 N 239.452 1.56882 -0.150215 0
M  V30 2401 C 240.863 1.82995 0.370076 0
M  V30 2402 C 241.214 1.06907 1.64515 0
M  V30 2403 O 240.339 0.315369 2.1409 0
M  V30 2404 C 240.934 3.31942 0.678208 0
M  V30 2405 C 239.493 3.58625 1.14301 0
M  V30 2406 C 238.64 2.76792 0.167778 0
M  V30 2407 H 241.591 1.54209 -0.374858 0
M  V30 2408 H 241.612 3.48272 1.53254 0
M  V30 2409 H 241.124 3.87294 -0.249991 0
M  V30 2410 H 239.225 3.08664 2.08704 0
M  V30 2411 H 239.338 4.67073 1.06676 0
M  V30 2412 H 237.702 2.45972 0.661037 0
M  V30 2413 H 238.485 3.34916 -0.754069 0
M  V30 2414 N 240.93 -0.123565 1.57115 0
M  V30 2415 C 241.893 -1.13583 1.99076 0
M  V30 2416 C 242.893 -1.34564 0.880296 0
M  V30 2417 O 244.083 -1.31158 1.14644 0
M  V30 2418 C 241.215 -2.49128 2.32698 0
M  V30 2419 H 242.408 -0.775287 2.89706 0
M  V30 2420 H 239.961 -0.36771 1.51913 0
M  V30 2421 H 240.696 -2.90111 1.44934 0
M  V30 2422 H 240.481 -2.35255 3.13684 0
M  V30 2423 H 241.971 -3.2199 2.65918 0
M  V30 2424 N 242.408 -1.52605 -0.393616 0
M  V30 2425 C 243.638 -1.71046 -1.15874 0
M  V30 2426 C 244.046 -0.426483 -1.84331 0
M  V30 2427 O 243.389 0.608513 -1.73329 0
M  V30 2428 C 243.451 -2.80118 -2.25332 0
M  V30 2429 C 243.115 -4.21381 -1.76881 0
M  V30 2430 C 244.112 -5.04697 -1.24808 0
M  V30 2431 C 241.797 -4.67683 -1.83244 0
M  V30 2432 C 243.791 -6.32393 -0.797387 0
M  V30 2433 C 241.478 -5.95364 -1.37787 0
M  V30 2434 C 242.476 -6.77549 -0.861208 0
M  V30 2435 O 242.164 -8.02837 -0.413252 0
M  V30 2436 H 241.896 -0.576155 -0.353583 0
M  V30 2437 H 244.45 -2.00018 -0.467123 0
M  V30 2438 H 242.68 -2.46557 -2.97904 0
M  V30 2439 H 244.369 -2.87006 -2.87023 0
M  V30 2440 H 245.135 -4.70111 -1.19252 0
M  V30 2441 H 241.014 -4.03805 -2.22401 0
M  V30 2442 H 244.558 -6.9649 -0.393437 0
M  V30 2443 H 240.455 -6.29455 -1.43026 0
M  V30 2444 H 241.223 -8.16749 -0.53515 0
M  V30 2445 N 243.887 0.651787 -1.4349 0
M  V30 2446 C 244.797 1.79368 -1.5121 0
M  V30 2447 C 245.813 1.69361 -0.399093 0
M  V30 2448 O 246.989 1.90505 -0.653431 0
M  V30 2449 C 244.054 3.15653 -1.43401 0
M  V30 2450 C 243.115 3.37446 -2.65384 0
M  V30 2451 C 242.348 4.67229 -2.57939 0
M  V30 2452 O 242.571 5.46676 -1.62792 0
M  V30 2453 O 241.505 4.90773 -3.48462 0
M  V30 2454 H 245.331 1.7581 -2.47638 0
M  V30 2455 H 242.916 0.810447 -1.25507 0
M  V30 2456 H 244.798 3.96935 -1.41494 0
M  V30 2457 H 243.473 3.19798 -0.501085 0
M  V30 2458 H 242.38 2.55923 -2.72863 0
M  V30 2459 H 243.713 3.38148 -3.57654 0
M  V30 2460 N 245.365 1.30045 0.890287 0
M  V30 2461 C 246.595 1.21296 1.67245 0
M  V30 2462 C 247.003 -0.227471 1.87828 0
M  V30 2463 O 246.346 -1.16296 1.422 0
M  V30 2464 C 246.408 1.86519 3.07329 0
M  V30 2465 C 246.072 3.35837 3.09939 0
M  V30 2466 C 247.069 4.31915 2.89389 0
M  V30 2467 C 244.754 3.77196 3.31706 0
M  V30 2468 C 246.748 5.67325 2.90552 0
M  V30 2469 C 244.435 5.12725 3.32499 0
M  V30 2470 C 245.433 6.076 3.11947 0
M  V30 2471 O 245.121 7.40655 3.12547 0
M  V30 2472 H 244.853 0.4211 0.528821 0
M  V30 2473 H 247.407 1.72111 1.12103 0
M  V30 2474 H 245.637 1.30228 3.64112 0
M  V30 2475 H 247.326 1.71963 3.67673 0
M  V30 2476 H 248.092 4.01294 2.72375 0
M  V30 2477 H 243.971 3.03796 3.4674 0
M  V30 2478 H 247.515 6.41354 2.74429 0
M  V30 2479 H 243.412 5.42988 3.49047 0
M  V30 2480 H 244.18 7.49577 3.28749 0
M  V30 2481 N 246.843 -1.10192 1.12674 0
M  V30 2482 C 247.806 -2.14786 0.799979 0
M  V30 2483 C 248.806 -1.59711 -0.18685 0
M  V30 2484 O 249.996 -1.74156 0.0392558 0
M  V30 2485 C 247.128 -3.40374 0.189228 0
M  V30 2486 H 248.321 -2.45203 1.72671 0
M  V30 2487 H 245.874 -1.25597 0.930326 0
M  V30 2488 H 246.609 -3.15577 -0.747107 0
M  V30 2489 H 246.394 -3.81637 0.899766 0
M  V30 2490 H 247.884 -4.17594 -0.0228143 0
M  V30 2491 N 248.321 -0.919034 -1.28029 0
M  V30 2492 C 249.254 -0.355887 -2.25408 0
M  V30 2493 C 250.232 0.542874 -1.5327 0
M  V30 2494 O 251.416 0.485338 -1.82145 0
M  V30 2495 C 248.543 0.490759 -3.35126 0
M  V30 2496 C 247.589 -0.343358 -4.25116 0
M  V30 2497 S 248.422 -1.75344 -5.05979 0
M  V30 2498 C 249.578 -0.914244 -6.19187 0
M  V30 2499 H 249.811 -1.18123 -2.72826 0
M  V30 2500 H 247.344 -0.720636 -1.36551 0
M  V30 2501 H 249.302 0.973404 -3.98792 0
M  V30 2502 H 247.963 1.29054 -2.86363 0
M  V30 2503 H 247.156 0.304266 -5.03081 0
M  V30 2504 H 246.758 -0.759851 -3.662 0
M  V30 2505 H 249.05 -0.146282 -6.77342 0
M  V30 2506 H 249.993 -1.66661 -6.88208 0
M  V30 2507 H 250.401 -0.460082 -5.62622 0
M  V30 2508 N 249.799 1.42003 -0.683588 0
M  V30 2509 C 251.048 2.00638 -0.206681 0
M  V30 2510 C 251.361 1.5472 1.19671 0
M  V30 2511 O 252.567 2.05833 1.77045 0
M  V30 2512 C 251.023 3.58487 -0.318632 0
M  V30 2513 C 250.631 4.1339 -1.72663 0
M  V30 2514 C 252.375 4.24384 0.0991141 0
M  V30 2515 C 250.282 5.63633 -1.79087 0
M  V30 2516 H 249.212 0.750408 -0.0735107 0
M  V30 2517 H 251.863 1.62624 -0.850048 0
M  V30 2518 H 250.245 3.94047 0.392781 0
M  V30 2519 H 251.419 3.89273 -2.46583 0
M  V30 2520 H 249.734 3.59976 -2.09299 0
M  V30 2521 H 252.331 5.34652 0.0713833 0
M  V30 2522 H 252.674 4.00505 1.13586 0
M  V30 2523 H 253.207 3.93816 -0.561599 0
M  V30 2524 H 249.946 5.92323 -2.80774 0
M  V30 2525 H 249.466 5.89714 -1.09535 0
M  V30 2526 H 251.145 6.28201 -1.5483 0
M  V30 2527 N 251.277 0.427512 1.51691 0
M  V30 2528 C 252.523 -0.142439 2.02299 0
M  V30 2529 C 252.856 -1.43214 1.31162 0
M  V30 2530 O 252.131 -1.89833 0.423511 0
M  V30 2531 C 252.414 -0.371301 3.58181 0
M  V30 2532 C 252.267 0.936358 4.39946 0
M  V30 2533 C 253.586 -1.14542 4.24933 0
M  V30 2534 H 250.705 -0.0502937 0.735282 0
M  V30 2535 H 253.347 0.564584 1.81418 0
M  V30 2536 H 251.497 -0.973559 3.76104 0
M  V30 2537 H 253.169 1.57184 4.33694 0
M  V30 2538 H 251.412 1.5432 4.05423 0
M  V30 2539 H 252.083 0.730388 5.47147 0
M  V30 2540 H 254.559 -0.635362 4.11221 0
M  V30 2541 H 253.435 -1.27431 5.33903 0
M  V30 2542 H 253.696 -2.17093 3.85127 0
M  V30 2543 N 252.755 -1.56801 0.158532 0
M  V30 2544 C 253.718 -2.16138 -0.762705 0
M  V30 2545 C 254.718 -1.1061 -1.16713 0
M  V30 2546 O 255.908 -1.36191 -1.08617 0
M  V30 2547 C 253.04 -2.73386 -2.03649 0
M  V30 2548 H 254.233 -2.98886 -0.246354 0
M  V30 2549 H 251.786 -1.56035 -0.0909744 0
M  V30 2550 H 252.521 -1.94335 -2.59623 0
M  V30 2551 H 252.306 -3.50601 -1.75559 0
M  V30 2552 H 253.796 -3.19065 -2.6942 0
M  V30 2553 N 254.233 0.115231 -1.57178 0
M  V30 2554 C 255.458 0.840354 -1.89612 0
M  V30 2555 C 255.883 1.72464 -0.750845 0
M  V30 2556 O 255.241 1.78826 0.298478 0
M  V30 2557 C 255.289 1.64654 -3.20814 0
M  V30 2558 O 254.393 2.7538 -3.06985 0
M  V30 2559 H 253.734 0.232158 -0.622092 0
M  V30 2560 H 256.264 0.0964977 -2.04372 0
M  V30 2561 H 256.274 2.03499 -3.53627 0
M  V30 2562 H 254.949 0.997416 -4.03763 0
M  V30 2563 H 253.526 2.3971 -2.85646 0
M  V30 2564 N 255.711 1.52812 0.385517 0
M  V30 2565 C 256.988 1.5861 1.14465 0
M  V30 2566 C 257.368 0.381402 2.07626 0
M  V30 2567 O 256.716 -0.629999 2.19643 0
M  V30 2568 C 256.926 2.92664 1.90128 0
M  V30 2569 C 258.274 3.46526 2.45367 0
M  V30 2570 O 259.298 2.94562 2.0028 0
M  V30 2571 O 258.157 4.37323 3.27736 0
M  V30 2572 H 255.251 0.639855 0.523941 0
M  V30 2573 H 257.797 1.65149 0.390389 0
M  V30 2574 H 256.569 3.71788 1.22022 0
M  V30 2575 H 256.192 2.89527 2.72507 0
M  V30 2576 N 257.189 -0.644168 1.43834 0
M  V30 2577 C 258.119 -1.76814 1.52509 0
M  V30 2578 C 259.1 -1.65823 0.379052 0
M  V30 2579 O 260.285 -1.84781 0.597466 0
M  V30 2580 C 257.415 -3.15288 1.4564 0
M  V30 2581 C 256.369 -3.41053 2.58586 0
M  V30 2582 C 255.695 -4.79421 2.36769 0
M  V30 2583 C 256.995 -3.34902 4.00797 0
M  V30 2584 H 258.689 -1.69812 2.46586 0
M  V30 2585 H 256.235 -0.815542 1.1868 0
M  V30 2586 H 258.188 -3.93681 1.50311 0
M  V30 2587 H 256.912 -3.23043 0.480725 0
M  V30 2588 H 255.571 -2.65035 2.53282 0
M  V30 2589 H 255.219 -4.83863 1.37424 0
M  V30 2590 H 254.919 -4.9762 3.12487 0
M  V30 2591 H 256.443 -5.6006 2.43238 0
M  V30 2592 H 257.857 -4.03218 4.07539 0
M  V30 2593 H 256.254 -3.64637 4.76613 0
M  V30 2594 H 257.324 -2.32928 4.25291 0
M  V30 2595 N 258.668 -1.30515 -0.883378 0
M  V30 2596 C 259.615 -1.17032 -1.98927 0
M  V30 2597 C 260.585 -0.0594241 -1.65994 0
M  V30 2598 O 261.77 -0.229895 -1.8941 0
M  V30 2599 C 258.91 -0.869777 -3.33959 0
M  V30 2600 C 258.023 -2.06271 -3.79574 0
M  V30 2601 C 257.158 -1.70011 -5.03259 0
M  V30 2602 C 256.197 -2.8579 -5.41286 0
M  V30 2603 N 255.334 -2.49816 -6.56153 0
M  V30 2604 H 260.174 -2.1164 -2.09792 0
M  V30 2605 H 257.711 -1.05296 -1.02719 0
M  V30 2606 H 259.669 -0.676138 -4.11685 0
M  V30 2607 H 258.299 0.0394332 -3.22776 0
M  V30 2608 H 257.351 -2.36755 -2.97744 0
M  V30 2609 H 258.663 -2.92971 -4.03694 0
M  V30 2610 H 257.817 -1.47032 -5.88614 0
M  V30 2611 H 256.556 -0.804829 -4.81013 0
M  V30 2612 H 255.561 -3.09434 -4.54456 0
M  V30 2613 H 256.786 -3.76008 -5.65504 0
M  V30 2614 H 254.732 -1.62795 -6.35479 0
M  V30 2615 H 254.649 -3.30048 -6.8015 0
M  V30 2616 H 255.917 -2.30197 -7.44735 0
M  V30 2617 N 260.146 1.09593 -1.13257 0
M  V30 2618 C 261.093 2.1618 -0.808381 0
M  V30 2619 C 262.063 1.64517 0.228754 0
M  V30 2620 O 263.248 1.9053 0.101381 0
M  V30 2621 C 260.388 3.43973 -0.278675 0
M  V30 2622 C 259.501 4.09545 -1.37466 0
M  V30 2623 C 258.636 5.25088 -0.803479 0
M  V30 2624 C 257.675 5.82579 -1.87799 0
M  V30 2625 N 256.812 6.89486 -1.32488 0
M  V30 2626 H 261.652 2.43254 -1.72138 0
M  V30 2627 H 259.189 1.19392 -0.859294 0
M  V30 2628 H 261.147 4.17174 0.0465583 0
M  V30 2629 H 259.777 3.17223 0.597459 0
M  V30 2630 H 258.829 3.34226 -1.81652 0
M  V30 2631 H 260.141 4.48307 -2.18684 0
M  V30 2632 H 259.295 6.05178 -0.429427 0
M  V30 2633 H 258.034 4.87684 0.0397956 0
M  V30 2634 H 257.039 5.01152 -2.26113 0
M  V30 2635 H 258.264 6.22045 -2.72463 0
M  V30 2636 H 256.21 6.54064 -0.503575 0
M  V30 2637 H 256.127 7.27007 -2.07355 0
M  V30 2638 H 257.395 7.73336 -0.978336 0
M  V30 2639 N 261.624 0.925811 1.2754 0
M  V30 2640 C 263.04 0.625767 1.46821 0
M  V30 2641 C 263.24 -0.825506 1.83814 0
M  V30 2642 O 262.296 -1.60356 1.95044 0
M  V30 2643 C 263.609 1.57402 2.56213 0
M  V30 2644 C 265.157 1.58204 2.70075 0
M  V30 2645 C 265.632 2.51721 3.82623 0
M  V30 2646 N 267.123 2.49917 3.89994 0
M  V30 2647 C 267.858 3.18968 4.76494 0
M  V30 2648 N 267.354 3.97391 5.67496 0
M  V30 2649 N 269.147 3.07996 4.70208 0
M  V30 2650 H 261.298 1.86409 1.01811 0
M  V30 2651 H 263.561 0.800213 0.508295 0
M  V30 2652 H 263.267 2.60925 2.35819 0
M  V30 2653 H 263.141 1.31428 3.53563 0
M  V30 2654 H 265.528 0.554124 2.89851 0
M  V30 2655 H 265.609 1.88226 1.73218 0
M  V30 2656 H 265.253 3.54622 3.63601 0
M  V30 2657 H 265.183 2.18996 4.78903 0
M  V30 2658 H 267.674 1.9296 3.24923 0
M  V30 2659 H 267.987 4.4707 6.30356 0
M  V30 2660 H 266.332 4.01495 5.67298 0
M  V30 2661 H 269.523 2.46223 3.9811 0
M  V30 2662 H 269.696 3.6208 5.37403 0
M  V30 2663 N 263.102 -1.41638 0.69111 0
M  V30 2664 C 264.35 -2.00902 0.219758 0
M  V30 2665 C 264.671 -1.54994 -1.18329 0
M  V30 2666 O 263.941 -0.778628 -1.79762 0
M  V30 2667 H 262.521 -0.74289 0.0782558 0
M  V30 2668 H 265.183 -1.73327 0.891271 0
M  V30 2669 H 264.279 -3.11224 0.233708 0
M  V30 2670 N 264.58 -0.43555 -1.51462 0
M  V30 2671 C 265.513 0.421989 -2.24264 0
M  V30 2672 C 266.491 1.02619 -1.26127 0
M  V30 2673 O 267.675 1.069 -1.55257 0
M  V30 2674 C 264.802 1.588 -2.99166 0
M  V30 2675 C 263.848 1.10465 -4.11946 0
M  V30 2676 S 264.681 0.048146 -5.35478 0
M  V30 2677 C 265.837 1.21887 -6.13917 0
M  V30 2678 H 266.07 -0.196102 -2.96653 0
M  V30 2679 H 263.603 -0.220054 -1.52824 0
M  V30 2680 H 265.561 2.25647 -3.42919 0
M  V30 2681 H 264.222 2.1775 -2.26371 0
M  V30 2682 H 263.415 1.97654 -4.63626 0
M  V30 2683 H 263.017 0.51445 -3.70445 0
M  V30 2684 H 265.309 2.13756 -6.42895 0
M  V30 2685 H 266.252 0.742076 -7.04201 0
M  V30 2686 H 266.66 1.45663 -5.45383 0
M  V30 2687 N 266.058 1.56714 -0.166846 0
M  V30 2688 C 267.474 1.58473 0.189372 0
M  V30 2689 C 267.674 1.18201 1.63189 0
M  V30 2690 O 266.73 0.891528 2.36237 0
M  V30 2691 C 268.043 3.00573 -0.0873872 0
M  V30 2692 C 269.591 3.1299 -0.0252443 0
M  V30 2693 C 270.066 4.57174 -0.274934 0
M  V30 2694 N 271.557 4.62665 -0.222553 0
M  V30 2695 C 272.292 5.72072 -0.389985 0
M  V30 2696 N 271.788 6.90054 -0.616229 0
M  V30 2697 N 273.581 5.61153 -0.326202 0
M  V30 2698 H 265.732 1.8118 -1.10849 0
M  V30 2699 H 267.995 0.839525 -0.440342 0
M  V30 2700 H 267.701 3.34497 -1.0865 0
M  V30 2701 H 267.575 3.72019 0.623037 0
M  V30 2702 H 269.962 2.78895 0.96444 0
M  V30 2703 H 270.043 2.43989 -0.768309 0
M  V30 2704 H 269.687 4.91976 -1.26181 0
M  V30 2705 H 269.617 5.24328 0.48869 0
M  V30 2706 H 272.108 3.77863 -0.0531512 0
M  V30 2707 H 272.421 7.69311 -0.733559 0
M  V30 2708 H 270.766 6.91927 -0.652791 0
M  V30 2709 H 273.957 4.67859 -0.150072 0
M  V30 2710 H 274.13 6.46364 -0.460116 0
M  V30 2711 N 267.536 -0.106894 1.57237 0
M  V30 2712 C 268.813 -0.843526 1.76477 0
M  V30 2713 C 269.193 -1.97499 0.745464 0
M  V30 2714 O 268.541 -2.27357 -0.228306 0
M  V30 2715 C 268.751 -1.34903 3.21873 0
M  V30 2716 C 270.099 -1.79654 3.8472 0
M  V30 2717 O 271.123 -1.44554 3.2555 0
M  V30 2718 O 269.982 -2.44515 4.88748 0
M  V30 2719 H 267.076 -0.401468 0.723016 0
M  V30 2720 H 269.622 -0.0896927 1.69463 0
M  V30 2721 H 268.394 -0.53781 3.87586 0
M  V30 2722 H 268.017 -2.16522 3.33473 0
M  V30 2723 N 269.014 -1.53014 -0.377408 0
M  V30 2724 C 269.961 -1.78616 -1.46168 0
M  V30 2725 C 270.931 -0.629917 -1.53692 0
M  V30 2726 O 272.116 -0.870861 -1.69766 0
M  V30 2727 C 269.256 -1.97123 -2.8326 0
M  V30 2728 C 268.369 -3.24831 -2.84796 0
M  V30 2729 C 267.504 -3.33591 -4.13389 0
M  V30 2730 C 266.543 -4.55377 -4.09021 0
M  V30 2731 N 265.68 -4.61355 -5.29241 0
M  V30 2732 H 270.52 -2.71142 -1.23637 0
M  V30 2733 H 268.057 -1.34326 -0.599577 0
M  V30 2734 H 270.015 -2.05839 -3.62886 0
M  V30 2735 H 268.645 -1.07946 -3.04216 0
M  V30 2736 H 267.697 -3.25128 -1.97474 0
M  V30 2737 H 269.009 -4.14523 -2.77439 0
M  V30 2738 H 268.163 -3.41554 -5.01424 0
M  V30 2739 H 266.902 -2.41894 -4.23484 0
M  V30 2740 H 265.907 -4.47527 -3.19373 0
M  V30 2741 H 267.132 -5.48402 -4.00539 0
M  V30 2742 H 265.078 -3.72554 -5.39944 0
M  V30 2743 H 264.995 -5.44935 -5.24006 0
M  V30 2744 H 266.263 -4.73586 -6.19141 0
M  V30 2745 N 270.492 0.636531 -1.44174 0
M  V30 2746 C 271.741 1.39213 -1.45954 0
M  V30 2747 C 272.054 1.95374 -0.0939119 0
M  V30 2748 O 273.26 2.71498 0.0107767 0
M  V30 2749 C 271.716 2.52025 -2.56927 0
M  V30 2750 C 271.324 2.024 -3.99673 0
M  V30 2751 C 273.068 3.29269 -2.67922 0
M  V30 2752 C 270.975 3.12521 -5.0208 0
M  V30 2753 H 269.905 0.523132 -0.542999 0
M  V30 2754 H 272.556 0.685349 -1.70221 0
M  V30 2755 H 270.938 3.25253 -2.25891 0
M  V30 2756 H 272.112 1.36073 -4.40251 0
M  V30 2757 H 270.427 1.37987 -3.92872 0
M  V30 2758 H 273.024 4.11352 -3.41605 0
M  V30 2759 H 273.367 3.78397 -1.73555 0
M  V30 2760 H 273.9 2.63129 -2.98342 0
M  V30 2761 H 270.639 2.68343 -5.98057 0
M  V30 2762 H 270.159 3.77507 -4.66099 0
M  V30 2763 H 271.838 3.77385 -5.25538 0
M  V30 2764 N 271.97 1.30982 0.876444 0
M  V30 2765 C 273.381 1.18277 1.44456 0
M  V30 2766 C 273.732 -0.213265 1.95037 0
M  V30 2767 O 272.857 -1.11057 1.85729 0
M  V30 2768 C 273.452 2.1411 2.62569 0
M  V30 2769 C 272.011 2.05358 3.15444 0
M  V30 2770 C 271.158 2.03706 1.88146 0
M  V30 2771 H 274.109 1.43127 0.685584 0
M  V30 2772 H 274.13 1.72692 3.39054 0
M  V30 2773 H 273.642 3.15706 2.25724 0
M  V30 2774 H 271.743 1.06934 3.56926 0
M  V30 2775 H 271.856 2.94156 3.78166 0
M  V30 2776 H 270.22 1.48629 2.06837 0
M  V30 2777 H 271.003 3.07047 1.53547 0
M  V30 2778 N 273.449 -1.08991 1.13837 0
M  V30 2779 C 274.674 -1.85551 0.926585 0
M  V30 2780 C 275.099 -1.80782 -0.519566 0
M  V30 2781 O 274.457 -1.18855 -1.36906 0
M  V30 2782 C 274.505 -3.31266 1.42462 0
M  V30 2783 O 273.609 -4.07822 0.612789 0
M  V30 2784 H 272.95 -0.575192 0.331738 0
M  V30 2785 H 275.48 -1.37604 1.51414 0
M  V30 2786 H 275.49 -3.82112 1.43019 0
M  V30 2787 H 274.165 -3.34052 2.47754 0
M  V30 2788 H 272.742 -3.66731 0.675463 0
M  V30 2789 N 274.927 -0.932562 -1.27047 0
M  V30 2790 C 276.174 -0.575559 -1.94148 0
M  V30 2791 C 276.502 0.883984 -1.73251 0
M  V30 2792 O 275.757 1.64655 -1.0577 0
M  V30 2793 C 276.056 -0.853713 -3.47054 0
M  V30 2794 C 275.722 -2.29577 -3.88079 0
M  V30 2795 C 274.384 -2.68999 -3.9899 0
M  V30 2796 C 276.736 -3.23331 -4.08787 0
M  V30 2797 C 274.064 -4.01289 -4.28 0
M  V30 2798 C 276.416 -4.55207 -4.39282 0
M  V30 2799 C 275.08 -4.94457 -4.48407 0
M  V30 2800 H 274.35 -0.210612 -0.710439 0
M  V30 2801 H 276.997 -1.17744 -1.51025 0
M  V30 2802 H 275.302 -0.169204 -3.91434 0
M  V30 2803 H 276.999 -0.55639 -3.97121 0
M  V30 2804 H 273.589 -1.97994 -3.80127 0
M  V30 2805 H 277.773 -2.94074 -3.99793 0
M  V30 2806 H 273.029 -4.31374 -4.33275 0
M  V30 2807 H 277.203 -5.27852 -4.54252 0
M  V30 2808 H 274.83 -5.96994 -4.7064 0
M  V30 2809 N 276.405 1.4127 -0.698611 0
M  V30 2810 C 277.633 2.05503 -0.239992 0
M  V30 2811 C 278.048 1.52584 1.11191 0
M  V30 2812 O 277.405 0.675323 1.69545 0
M  V30 2813 C 277.456 3.60987 -0.192429 0
M  V30 2814 O 277.177 4.1195 -1.49094 0
M  V30 2815 C 278.678 4.42371 0.28681 0
M  V30 2816 H 275.898 0.661748 -0.111045 0
M  V30 2817 H 278.442 1.80987 -0.95205 0
M  V30 2818 H 276.597 3.84533 0.470472 0
M  V30 2819 H 277.011 5.06018 -1.38007 0
M  V30 2820 H 278.485 5.51344 0.26896 0
M  V30 2821 H 278.962 4.18699 1.32619 0
M  V30 2822 H 279.568 4.23897 -0.345201 0
M  V30 2823 N 277.883 0.443576 1.51229 0
M  V30 2824 C 279.13 -0.120796 2.02139 0
M  V30 2825 C 279.458 -1.42166 1.32736 0
M  V30 2826 O 278.713 -1.90849 0.43301 0
M  V30 2827 C 279.012 -0.380579 3.55368 0
M  V30 2828 C 278.678 0.83523 4.43097 0
M  V30 2829 C 277.34 1.16864 4.66794 0
M  V30 2830 C 279.692 1.64601 4.94526 0
M  V30 2831 C 277.02 2.31339 5.39165 0
M  V30 2832 C 279.372 2.78181 5.68153 0
M  V30 2833 C 278.036 3.11969 5.90112 0
M  V30 2834 H 277.306 -0.0442023 0.73968 0
M  V30 2835 H 279.953 0.592046 1.82118 0
M  V30 2836 H 278.258 -1.17538 3.73754 0
M  V30 2837 H 279.955 -0.830777 3.923 0
M  V30 2838 H 276.545 0.565437 4.24854 0
M  V30 2839 H 280.729 1.40163 4.76097 0
M  V30 2840 H 275.985 2.57823 5.5438 0
M  V30 2841 H 280.159 3.41371 6.06992 0
M  V30 2842 H 277.786 4.00784 6.45969 0
M  V30 2843 N 279.361 -1.56624 0.175154 0
M  V30 2844 C 280.61 -1.96173 -0.468921 0
M  V30 2845 C 280.923 -1.06401 -1.64128 0
M  V30 2846 O 282.129 -1.35648 -2.35185 0
M  V30 2847 C 280.585 -3.48833 -0.885633 0
M  V30 2848 C 280.193 -4.47237 0.261343 0
M  V30 2849 C 281.937 -3.97194 -1.49791 0
M  V30 2850 C 279.844 -5.9114 -0.175214 0
M  V30 2851 H 278.774 -0.732455 -0.178958 0
M  V30 2852 H 281.425 -1.81591 0.263997 0
M  V30 2853 H 279.807 -3.58848 -1.67464 0
M  V30 2854 H 280.981 -4.4894 1.03871 0
M  V30 2855 H 279.296 -4.08956 0.783827 0
M  V30 2856 H 281.893 -5.02167 -1.83665 0
M  V30 2857 H 282.236 -3.40351 -2.39722 0
M  V30 2858 H 282.769 -3.90212 -0.773267 0
M  V30 2859 H 279.508 -6.51865 0.689414 0
M  V30 2860 H 279.028 -5.92735 -0.91786 0
M  V30 2861 H 280.707 -6.44044 -0.617792 0
M  V30 2862 N 280.839 0.0985539 -1.57292 0
M  V30 2863 C 282.067 0.816318 -1.90115 0
M  V30 2864 C 282.482 1.72451 -0.768509 0
M  V30 2865 O 281.839 1.80643 0.259687 0
M  V30 2866 C 281.89 1.63259 -3.22535 0
M  V30 2867 O 281.611 0.760934 -4.31441 0
M  V30 2868 C 283.112 2.45372 -3.69199 0
M  V30 2869 H 280.332 0.233595 -0.629027 0
M  V30 2870 H 282.876 0.0768229 -2.04356 0
M  V30 2871 H 281.031 2.32463 -3.09903 0
M  V30 2872 H 281.445 1.32595 -5.07463 0
M  V30 2873 H 282.919 2.98144 -4.64558 0
M  V30 2874 H 283.396 3.23677 -2.96867 0
M  V30 2875 H 284.002 1.81373 -3.84687 0
M  V30 2876 N 282.317 1.53212 0.369288 0
M  V30 2877 C 283.542 1.73423 1.1375 0
M  V30 2878 C 283.967 0.460404 1.82378 0
M  V30 2879 O 283.325 -0.585298 1.71592 0
M  V30 2880 C 283.373 2.89769 2.1463 0
M  V30 2881 O 282.477 2.58119 3.21634 0
M  V30 2882 H 281.818 0.576061 0.330227 0
M  V30 2883 H 284.348 2.00083 0.427547 0
M  V30 2884 H 284.358 3.15829 2.58294 0
M  V30 2885 H 283.033 3.8217 1.64071 0
M  V30 2886 H 281.61 2.42864 2.82969 0
M  V30 2887 N 283.795 -0.628877 1.44509 0
M  V30 2888 C 284.705 -1.7694 1.54044 0
M  V30 2889 C 285.721 -1.68705 0.425987 0
M  V30 2890 O 286.897 -1.89442 0.683656 0
M  V30 2891 C 283.962 -3.13332 1.48405 0
M  V30 2892 C 283.023 -3.33181 2.70719 0
M  V30 2893 C 282.256 -4.63067 2.6534 0
M  V30 2894 O 282.479 -5.44017 1.71469 0
M  V30 2895 O 281.413 -4.85167 3.56226 0
M  V30 2896 H 285.239 -1.71848 2.50403 0
M  V30 2897 H 282.824 -0.790378 1.26781 0
M  V30 2898 H 284.706 -3.94634 1.47791 0
M  V30 2899 H 283.381 -3.1896 0.551898 0
M  V30 2900 H 282.288 -2.51549 2.769 0
M  V30 2901 H 283.621 -3.32416 3.62988 0
M  V30 2902 N 285.273 -1.31445 -0.869486 0
M  V30 2903 C 286.684 -1.19042 -1.43826 0
M  V30 2904 C 287.035 0.202919 -1.95148 0
M  V30 2905 O 286.16 1.10071 -1.86315 0
M  V30 2906 C 286.755 -2.15499 -2.6143 0
M  V30 2907 C 285.314 -2.07028 -3.14351 0
M  V30 2908 C 284.461 -2.04701 -1.87063 0
M  V30 2909 H 287.412 -1.43489 -0.677984 0
M  V30 2910 H 287.433 -1.74488 -3.38134 0
M  V30 2911 H 286.945 -3.16899 -2.24046 0
M  V30 2912 H 285.046 -1.08825 -3.56354 0
M  V30 2913 H 285.159 -2.96157 -3.766 0
M  V30 2914 H 283.523 -1.49724 -2.06046 0
M  V30 2915 H 284.306 -3.07857 -1.51917 0
M  V30 2916 N 286.751 1.08385 -1.14413 0
M  V30 2917 C 287.981 1.8425 -0.934644 0
M  V30 2918 C 288.389 1.81907 0.520234 0
M  V30 2919 O 287.732 1.22126 1.37226 0
M  V30 2920 C 287.794 3.32853 -1.35828 0
M  V30 2921 C 287.458 3.5893 -2.82875 0
M  V30 2922 C 288.455 3.53756 -3.80989 0
M  V30 2923 C 286.14 3.86934 -3.20293 0
M  V30 2924 C 288.134 3.76216 -5.14529 0
M  V30 2925 C 285.821 4.09047 -4.54008 0
M  V30 2926 C 286.819 4.03682 -5.50936 0
M  V30 2927 O 286.507 4.25214 -6.82238 0
M  V30 2928 H 286.239 0.588502 -0.332628 0
M  V30 2929 H 288.793 1.37792 -1.52324 0
M  V30 2930 H 287.023 3.8007 -0.713019 0
M  V30 2931 H 288.712 3.90154 -1.11957 0
M  V30 2932 H 289.478 3.32135 -3.53428 0
M  V30 2933 H 285.357 3.9023 -2.45442 0
M  V30 2934 H 288.901 3.71943 -5.90173 0
M  V30 2935 H 284.798 4.30151 -4.8129 0
M  V30 2936 H 285.566 4.42619 -6.88499 0
M  V30 2937 N 288.23 0.939286 1.26551 0
M  V30 2938 C 289.479 0.581601 1.93133 0
M  V30 2939 C 289.792 -0.883224 1.74524 0
M  V30 2940 O 290.998 -1.3502 2.35546 0
M  V30 2941 C 289.454 0.989425 3.46032 0
M  V30 2942 C 289.062 2.47573 3.73379 0
M  V30 2943 C 290.806 0.703544 4.18629 0
M  V30 2944 C 288.713 2.82235 5.19709 0
M  V30 2945 H 287.643 0.213803 0.723052 0
M  V30 2946 H 290.294 1.14167 1.4366 0
M  V30 2947 H 288.676 0.357902 3.94379 0
M  V30 2948 H 289.85 3.15614 3.35744 0
M  V30 2949 H 288.165 2.73471 3.1401 0
M  V30 2950 H 290.762 0.938869 5.26393 0
M  V30 2951 H 291.105 -0.359639 4.14744 0
M  V30 2952 H 291.638 1.2947 3.76141 0
M  V30 2953 H 288.377 3.87509 5.28694 0
M  V30 2954 H 287.897 2.18854 5.58447 0
M  V30 2955 H 289.576 2.70599 5.87695 0
M  V30 2956 N 289.708 -1.40897 0.706093 0
M  V30 2957 C 290.956 -2.00657 0.241054 0
M  V30 2958 C 291.277 -1.56241 -1.16678 0
M  V30 2959 O 290.547 -0.79765 -1.78926 0
M  V30 2960 H 289.127 -0.742018 0.0861308 0
M  V30 2961 H 291.789 -1.72372 0.909604 0
M  V30 2962 H 290.885 -3.10958 0.266705 0
M  V30 2963 N 291.186 -0.45159 -1.50991 0
M  V30 2964 C 292.136 0.370861 -2.24964 0
M  V30 2965 C 293.12 0.978074 -1.2776 0
M  V30 2966 O 294.312 0.893854 -1.52772 0
M  V30 2967 C 291.441 1.46344 -3.10545 0
M  V30 2968 C 290.527 0.864924 -4.15187 0
M  V30 2969 N 290.918 -0.00311354 -5.058 0
M  V30 2970 C 289.216 1.13099 -4.31422 0
M  V30 2971 C 289.917 -0.340772 -5.80701 0
M  V30 2972 N 288.893 0.279203 -5.42883 0
M  V30 2973 H 292.695 -0.298134 -2.92384 0
M  V30 2974 H 290.209 -0.264528 -1.60231 0
M  V30 2975 H 292.206 2.06565 -3.62128 0
M  V30 2976 H 290.866 2.13463 -2.4467 0
M  V30 2977 H 291.877 -0.37058 -5.16572 0
M  V30 2978 H 288.554 1.79861 -3.76771 0
M  V30 2979 H 289.944 -1.048 -6.63677 0
M  V30 2980 N 292.664 1.56529 -0.183458 0
M  V30 2981 C 293.594 2.21549 0.737456 0
M  V30 2982 C 294.575 1.17489 1.23005 0
M  V30 2983 O 295.76 1.45959 1.281 0
M  V30 2984 C 292.89 2.86575 1.96194 0
M  V30 2985 C 291.844 3.96778 1.60473 0
M  V30 2986 C 291.17 4.48911 2.90487 0
M  V30 2987 C 292.47 5.15767 0.823497 0
M  V30 2988 H 294.164 2.98761 0.195453 0
M  V30 2989 H 291.71 1.43702 0.0925686 0
M  V30 2990 H 293.663 3.30739 2.61131 0
M  V30 2991 H 292.387 2.06749 2.52828 0
M  V30 2992 H 291.046 3.53286 0.978997 0
M  V30 2993 H 290.694 3.65862 3.45186 0
M  V30 2994 H 290.394 5.23265 2.67335 0
M  V30 2995 H 291.918 4.95771 3.56432 0
M  V30 2996 H 293.332 5.56549 1.37571 0
M  V30 2997 H 291.729 5.96114 0.690551 0
M  V30 2998 H 292.799 4.84574 -0.177782 0
M  V30 2999 N 294.142 -0.090211 1.57342 0
M  V30 3000 C 295.39 -0.791241 1.85967 0
M  V30 3001 C 295.711 -1.7903 0.772859 0
M  V30 3002 O 294.981 -1.94872 -0.200398 0
M  V30 3003 H 293.561 -0.295205 0.686195 0
M  V30 3004 H 296.223 -0.0706782 1.94772 0
M  V30 3005 H 295.319 -1.31882 2.82867 0
M  V30 3006 N 295.62 -1.53406 -0.361157 0
M  V30 3007 C 296.869 -1.69022 -1.10066 0
M  V30 3008 C 297.182 -0.450838 -1.90333 0
M  V30 3009 O 298.388 -0.487617 -2.67085 0
M  V30 3010 C 296.844 -2.98812 -2.00598 0
M  V30 3011 C 296.452 -4.30027 -1.25621 0
M  V30 3012 C 298.196 -3.23795 -2.74513 0
M  V30 3013 C 296.103 -5.50903 -2.1508 0
M  V30 3014 H 295.033 -0.629776 -0.414606 0
M  V30 3015 H 297.684 -1.79907 -0.361348 0
M  V30 3016 H 296.066 -2.8174 -2.78278 0
M  V30 3017 H 297.24 -4.57745 -0.529739 0
M  V30 3018 H 295.555 -4.11522 -0.635496 0
M  V30 3019 H 298.152 -4.11289 -3.41681 0
M  V30 3020 H 298.495 -2.40045 -3.40123 0
M  V30 3021 H 299.028 -3.41561 -2.03914 0
M  V30 3022 H 295.767 -6.37143 -1.54041 0
M  V30 3023 H 295.287 -5.27459 -2.85565 0
M  V30 3024 H 296.966 -5.85865 -2.74538 0
M  V30 3025 N 297.098 0.621204 -1.44841 0
M  V30 3026 C 298.03 1.74615 -1.48466 0
M  V30 3027 C 299.043 1.58377 -0.37691 0
M  V30 3028 O 300.232 1.66508 -0.643215 0
M  V30 3029 C 297.332 3.12459 -1.31236 0
M  V30 3030 C 296.505 3.55064 -2.55438 0
M  V30 3031 C 295.564 4.71821 -2.32963 0
M  V30 3032 O 294.59 4.79628 -3.06505 0
M  V30 3033 N 295.792 5.64186 -1.36654 0
M  V30 3034 H 298.557 1.71973 -2.45449 0
M  V30 3035 H 296.118 0.806077 -1.40407 0
M  V30 3036 H 298.11 3.88302 -1.14032 0
M  V30 3037 H 296.68 3.09686 -0.4258 0
M  V30 3038 H 295.9 2.69324 -2.87851 0
M  V30 3039 H 297.188 3.80284 -3.38026 0
M  V30 3040 H 296.586 5.6058 -0.759344 0
M  V30 3041 H 295.143 6.39618 -1.25425 0
M  V30 3042 N 298.576 1.31904 0.862503 0
M  V30 3043 C 299.824 1.21776 1.61292 0
M  V30 3044 C 300.145 -0.222413 1.93727 0
M  V30 3045 O 299.415 -1.1451 1.58947 0
M  V30 3046 H 297.995 0.447717 0.597962 0
M  V30 3047 H 300.657 1.65326 1.03215 0
M  V30 3048 H 299.753 1.7948 2.5533 0
M  V30 3049 N 300.054 -1.07777 1.14986 0
M  V30 3050 C 301.3 -1.80557 0.923422 0
M  V30 3051 C 301.633 -1.86298 -0.548337 0
M  V30 3052 O 300.908 -1.34354 -1.40639 0
M  V30 3053 C 301.191 -3.25839 1.53299 0
M  V30 3054 C 301.044 -3.28269 3.07505 0
M  V30 3055 C 302.363 -4.22991 1.21518 0
M  V30 3056 H 299.482 -0.655493 0.336894 0
M  V30 3057 H 302.124 -1.26144 1.42083 0
M  V30 3058 H 300.274 -3.72306 1.10999 0
M  V30 3059 H 301.946 -2.90079 3.58681 0
M  V30 3060 H 300.189 -2.67355 3.4162 0
M  V30 3061 H 300.86 -4.30691 3.45266 0
M  V30 3062 H 303.336 -3.84894 1.581 0
M  V30 3063 H 302.212 -5.22945 1.66793 0
M  V30 3064 H 302.473 -4.41904 0.131505 0
M  V30 3065 N 301.532 -0.945985 -1.26051 0
M  V30 3066 C 302.78 -0.594941 -1.93145 0
M  V30 3067 C 303.101 0.86953 -1.7454 0
M  V30 3068 O 302.371 1.61838 -1.10387 0
M  V30 3069 H 300.951 -0.217044 -0.714773 0
M  V30 3070 H 303.613 -1.20235 -1.53393 0
M  V30 3071 H 302.709 -0.816835 -3.01221 0
M  V30 3072 N 303.011 1.40521 -0.713556 0
M  V30 3073 C 304.288 1.94775 -0.17943 0
M  V30 3074 C 304.668 1.65184 1.31444 0
M  V30 3075 O 304.016 0.968429 2.06963 0
M  V30 3076 C 304.226 3.45543 -0.489986 0
M  V30 3077 C 305.574 4.22442 -0.427536 0
M  V30 3078 O 306.598 3.53644 -0.425929 0
M  V30 3079 O 305.457 5.4501 -0.403292 0
M  V30 3080 H 302.551 0.826606 -0.0255192 0
M  V30 3081 H 305.097 1.5014 -0.790949 0
M  V30 3082 H 303.869 3.60432 -1.5233 0
M  V30 3083 H 303.492 3.97311 0.151598 0
M  V30 3084 N 304.489 0.459591 1.5075 0
M  V30 3085 C 305.714 -0.0996819 2.0716 0
M  V30 3086 C 306.139 -1.33761 1.32249 0
M  V30 3087 O 305.497 -1.77551 0.366786 0
M  V30 3088 C 305.545 -0.378226 3.58611 0
M  V30 3089 O 304.649 -1.46081 3.85661 0
M  V30 3090 H 303.99 0.00791392 0.663953 0
M  V30 3091 H 306.52 0.647329 1.9409 0
M  V30 3092 H 306.53 -0.622135 4.03229 0
M  V30 3093 H 305.205 0.526439 4.12555 0
M  V30 3094 H 303.782 -1.20511 3.5289 0
M  V30 3095 N 305.967 -1.56429 0.191757 0
M  V30 3096 C 306.914 -2.18936 -0.730454 0
M  V30 3097 C 307.884 -1.13557 -1.21219 0
M  V30 3098 O 309.069 -1.41794 -1.27668 0
M  V30 3099 C 306.209 -2.85013 -1.9458 0
M  V30 3100 C 305.322 -4.04909 -1.50574 0
M  V30 3101 C 304.457 -4.58853 -2.67634 0
M  V30 3102 C 303.496 -5.71114 -2.20217 0
M  V30 3103 N 302.633 -6.19478 -3.30442 0
M  V30 3104 H 307.473 -2.97389 -0.190664 0
M  V30 3105 H 305.01 -1.46869 -0.0823694 0
M  V30 3106 H 306.968 -3.21492 -2.65893 0
M  V30 3107 H 305.598 -2.09129 -2.45896 0
M  V30 3108 H 304.65 -3.74115 -0.688605 0
M  V30 3109 H 305.962 -4.86113 -1.11784 0
M  V30 3110 H 305.116 -4.97619 -3.47074 0
M  V30 3111 H 303.855 -3.76749 -3.09696 0
M  V30 3112 H 302.86 -5.31879 -1.3923 0
M  V30 3113 H 304.085 -6.55033 -1.79189 0
M  V30 3114 H 302.031 -5.40297 -3.72041 0
M  V30 3115 H 301.948 -6.95725 -2.9581 0
M  V30 3116 H 303.216 -6.62898 -4.10106 0
M  V30 3117 N 307.445 0.0818655 -1.57387 0
M  V30 3118 C 308.693 0.781368 -1.86384 0
M  V30 3119 C 309.014 1.78618 -0.782342 0
M  V30 3120 O 308.284 1.94976 0.190061 0
M  V30 3121 H 306.864 0.291562 -0.687751 0
M  V30 3122 H 309.526 0.060348 -1.94807 0
M  V30 3123 H 308.622 1.3038 -2.83562 0
M  V30 3124 N 308.923 1.53595 0.353017 0
M  V30 3125 C 310.172 1.69603 1.09168 0
M  V30 3126 C 310.485 0.460925 1.90092 0
M  V30 3127 O 311.691 0.501774 2.66823 0
M  V30 3128 C 310.147 2.99872 1.9901 0
M  V30 3129 C 309.755 4.30687 1.23339 0
M  V30 3130 C 311.499 3.25246 2.72792 0
M  V30 3131 C 309.406 5.52036 2.12156 0
M  V30 3132 H 308.336 0.631966 0.411261 0
M  V30 3133 H 310.987 1.80096 0.351802 0
M  V30 3134 H 309.369 2.83212 2.7678 0
M  V30 3135 H 310.543 4.58019 0.505456 0
M  V30 3136 H 308.858 4.11853 0.613663 0
M  V30 3137 H 311.455 4.13095 3.39495 0
M  V30 3138 H 311.798 2.41846 3.38846 0
M  V30 3139 H 312.331 3.42638 2.021 0
M  V30 3140 H 309.07 6.37951 1.50659 0
M  V30 3141 H 308.59 5.28966 2.82764 0
M  V30 3142 H 310.269 5.87313 2.71427 0
M  V30 3143 N 310.401 -0.613514 1.45168 0
M  V30 3144 C 311.331 -1.7354 1.56225 0
M  V30 3145 C 312.312 -1.64981 0.41414 0
M  V30 3146 O 313.497 -1.83472 0.636526 0
M  V30 3147 C 310.627 -3.12128 1.52295 0
M  V30 3148 C 309.581 -3.35491 2.65762 0
M  V30 3149 C 308.907 -4.74291 2.46885 0
M  V30 3150 C 310.207 -3.26325 4.0781 0
M  V30 3151 H 311.901 -1.64543 2.50132 0
M  V30 3152 H 309.447 -0.790185 1.20383 0
M  V30 3153 H 311.4 -3.90404 1.58628 0
M  V30 3154 H 310.124 -3.2195 0.549139 0
M  V30 3155 H 308.783 -2.59603 2.58847 0
M  V30 3156 H 308.431 -4.80839 1.47657 0
M  V30 3157 H 308.131 -4.9088 3.22972 0
M  V30 3158 H 309.655 -5.54775 2.55063 0
M  V30 3159 H 311.069 -3.94483 4.16 0
M  V30 3160 H 309.466 -3.54445 4.8424 0
M  V30 3161 H 310.536 -2.23855 4.30136 0
M  V30 3162 N 311.879 -1.3236 -0.855495 0
M  V30 3163 C 313.107 -1.2587 -1.64208 0
M  V30 3164 C 313.522 0.173457 -1.88002 0
M  V30 3165 O 312.879 1.11027 -1.44842 0
M  V30 3166 C 312.93 -2.01424 -3.00184 0
M  V30 3167 O 312.651 -3.39051 -2.77445 0
M  V30 3168 C 314.152 -2.01948 -3.94629 0
M  V30 3169 H 311.372 -0.434318 -0.511477 0
M  V30 3170 H 313.916 -1.74469 -1.0668 0
M  V30 3171 H 312.071 -1.56549 -3.5436 0
M  V30 3172 H 312.485 -3.77711 -3.63916 0
M  V30 3173 H 313.959 -2.59297 -4.87308 0
M  V30 3174 H 314.436 -1.00554 -4.27534 0
M  V30 3175 H 315.042 -2.46767 -3.4639 0
M  V30 3176 N 313.357 1.07166 -1.15556 0
M  V30 3177 C 314.304 2.14417 -0.854055 0
M  V30 3178 C 315.274 1.64965 0.193806 0
M  V30 3179 O 316.459 1.90703 0.0609443 0
M  V30 3180 C 313.599 3.43304 -0.351574 0
M  V30 3181 C 312.712 4.06537 -1.46123 0
M  V30 3182 C 311.847 5.23266 -0.914677 0
M  V30 3183 C 310.886 5.78464 -2.00114 0
M  V30 3184 N 310.023 6.86521 -1.47083 0
M  V30 3185 H 314.863 2.39548 -1.77259 0
M  V30 3186 H 312.4 1.17543 -0.884425 0
M  V30 3187 H 314.358 4.17179 -0.0419409 0
M  V30 3188 H 312.988 3.18419 0.530037 0
M  V30 3189 H 312.04 3.30297 -1.88701 0
M  V30 3190 H 313.352 4.43567 -2.28144 0
M  V30 3191 H 312.506 6.04131 -0.557698 0
M  V30 3192 H 311.245 4.87658 -0.0636583 0
M  V30 3193 H 310.25 4.96243 -2.36692 0
M  V30 3194 H 311.475 6.16126 -2.85597 0
M  V30 3195 H 309.421 6.52849 -0.642198 0
M  V30 3196 H 309.338 7.22446 -2.22729 0
M  V30 3197 H 310.606 7.71087 -1.14215 0
M  V30 3198 N 314.835 0.952656 1.25548 0
M  V30 3199 C 316.083 0.605176 1.92826 0
M  V30 3200 C 316.404 -0.860261 1.74999 0
M  V30 3201 O 315.674 -1.6125 1.11244 0
M  V30 3202 H 314.254 0.220832 0.713612 0
M  V30 3203 H 316.916 1.21047 1.52754 0
M  V30 3204 H 316.012 0.832798 3.00784 0
M  V30 3205 N 316.313 -1.40141 0.720998 0
M  V30 3206 C 317.243 -2.33339 0.0867621 0
M  V30 3207 C 318.224 -1.53178 -0.739622 0
M  V30 3208 O 319.409 -1.81625 -0.687449 0
M  V30 3209 C 316.539 -3.37194 -0.831728 0
M  V30 3210 C 315.493 -4.27857 -0.110558 0
M  V30 3211 C 314.819 -5.22294 -1.14513 0
M  V30 3212 C 316.119 -5.11872 1.0385 0
M  V30 3213 H 317.813 -2.86626 0.865219 0
M  V30 3214 H 315.359 -1.37814 0.417516 0
M  V30 3215 H 317.312 -4.01335 -1.28485 0
M  V30 3216 H 316.036 -2.82314 -1.64214 0
M  V30 3217 H 314.695 -3.65176 0.322797 0
M  V30 3218 H 314.343 -4.63717 -1.94874 0
M  V30 3219 H 314.043 -5.83797 -0.667446 0
M  V30 3220 H 315.567 -5.89312 -1.59824 0
M  V30 3221 H 316.981 -5.69436 0.664482 0
M  V30 3222 H 315.378 -5.82445 1.4449 0
M  V30 3223 H 316.448 -4.4753 1.86668 0
M  V30 3224 N 317.792 -0.46758 -1.50504 0
M  V30 3225 C 318.739 0.328413 -2.28452 0
M  V30 3226 C 319.709 0.990313 -1.33349 0
M  V30 3227 O 320.894 1.00343 -1.62284 0
M  V30 3228 C 318.034 1.40648 -3.15138 0
M  V30 3229 C 317.147 0.759709 -4.25267 0
M  V30 3230 C 316.282 1.81537 -4.99217 0
M  V30 3231 C 315.321 1.14866 -6.01226 0
M  V30 3232 N 314.458 2.14702 -6.68467 0
M  V30 3233 H 319.298 -0.342603 -2.96024 0
M  V30 3234 H 316.835 -0.180801 -1.45985 0
M  V30 3235 H 318.793 2.04315 -3.63746 0
M  V30 3236 H 317.423 2.04671 -2.49619 0
M  V30 3237 H 316.475 0.0105671 -3.80399 0
M  V30 3238 H 317.787 0.233243 -4.98254 0
M  V30 3239 H 316.941 2.52793 -5.51526 0
M  V30 3240 H 315.68 2.37564 -4.25928 0
M  V30 3241 H 314.685 0.42171 -5.4818 0
M  V30 3242 H 315.91 0.595334 -6.76485 0
M  V30 3243 H 313.856 2.69752 -5.97972 0
M  V30 3244 H 313.773 1.6703 -7.37317 0
M  V30 3245 H 315.041 2.85348 -7.25394 0
M  V30 3246 N 319.27 1.56325 -0.20005 0
M  V30 3247 C 320.18 2.22931 0.730668 0
M  V30 3248 C 321.196 1.22997 1.23076 0
M  V30 3249 O 322.372 1.55748 1.27689 0
M  V30 3250 C 319.437 2.87948 1.93098 0
M  V30 3251 C 318.498 4.03166 1.47497 0
M  V30 3252 C 317.731 4.65073 2.61807 0
M  V30 3253 O 317.954 4.25913 3.79413 0
M  V30 3254 O 316.888 5.54452 2.34237 0
M  V30 3255 H 320.714 3.03084 0.193391 0
M  V30 3256 H 318.299 1.49371 0.0294621 0
M  V30 3257 H 320.181 3.29063 2.6324 0
M  V30 3258 H 318.856 2.10771 2.45677 0
M  V30 3259 H 317.763 3.66664 0.742201 0
M  V30 3260 H 319.096 4.82022 0.995796 0
M  V30 3261 N 320.748 -0.0735177 1.57428 0
M  V30 3262 C 321.658 -1.10547 2.06922 0
M  V30 3263 C 322.674 -1.42506 0.998402 0
M  V30 3264 O 323.85 -1.52717 1.31299 0
M  V30 3265 C 320.915 -2.40019 2.50184 0
M  V30 3266 C 319.976 -2.15046 3.71556 0
M  V30 3267 C 319.209 -3.38345 4.12745 0
M  V30 3268 O 319.432 -4.47399 3.53822 0
M  V30 3269 O 318.366 -3.2666 5.05546 0
M  V30 3270 H 322.192 -0.715013 2.95163 0
M  V30 3271 H 319.777 -0.287531 1.46607 0
M  V30 3272 H 321.659 -3.16218 2.78539 0
M  V30 3273 H 320.334 -2.78447 1.65072 0
M  V30 3274 H 319.241 -1.36558 3.48285 0
M  V30 3275 H 320.574 -1.81499 4.57514 0
M  V30 3276 N 322.226 -1.5378 -0.344866 0
M  V30 3277 C 323.474 -1.70625 -1.08311 0
M  V30 3278 C 323.795 -0.471447 -1.89215 0
M  V30 3279 O 323.065 0.514616 -1.8902 0
M  V30 3280 H 321.645 -0.629058 -0.402859 0
M  V30 3281 H 324.307 -1.9103 -0.386459 0
M  V30 3282 H 323.403 -2.57656 -1.76124 0
M  V30 3283 N 323.704 0.605807 -1.45491 0
M  V30 3284 C 324.953 1.36086 -1.48874 0
M  V30 3285 C 325.266 1.95131 -0.135333 0
M  V30 3286 O 326.472 2.7146 -0.0468144 0
M  V30 3287 C 324.928 2.46518 -2.62215 0
M  V30 3288 C 324.536 1.93877 -4.03876 0
M  V30 3289 C 326.28 3.23512 -2.74846 0
M  V30 3290 C 324.187 3.01801 -5.08596 0
M  V30 3291 H 323.117 0.511497 -0.553974 0
M  V30 3292 H 325.768 0.649089 -1.71636 0
M  V30 3293 H 324.15 3.20388 -2.32739 0
M  V30 3294 H 325.324 1.26704 -4.43038 0
M  V30 3295 H 323.639 1.29622 -3.95711 0
M  V30 3296 H 326.236 4.04013 -3.50253 0
M  V30 3297 H 326.579 3.74631 -1.81542 0
M  V30 3298 H 327.112 2.56742 -3.03856 0
M  V30 3299 H 323.851 2.55597 -6.03614 0
M  V30 3300 H 323.371 3.67535 -4.74002 0
M  V30 3301 H 325.05 3.66152 -5.33424 0
M  V30 3302 N 325.182 1.32811 0.848464 0
M  V30 3303 C 326.092 1.24278 1.98978 0
M  V30 3304 C 327.108 0.155176 1.73307 0
M  V30 3305 O 328.284 0.376999 1.9784 0
M  V30 3306 C 325.349 0.972444 3.32783 0
M  V30 3307 C 324.41 2.14911 3.71634 0
M  V30 3308 C 323.643 1.89157 4.99054 0
M  V30 3309 O 323.866 0.837165 5.64223 0
M  V30 3310 O 322.8 2.75433 5.35183 0
M  V30 3311 H 326.626 2.20238 2.09115 0
M  V30 3312 H 324.211 1.12762 0.980052 0
M  V30 3313 H 326.093 0.838432 4.12975 0
M  V30 3314 H 324.768 0.043051 3.23671 0
M  V30 3315 H 323.675 2.33862 2.91992 0
M  V30 3316 H 325.008 3.06151 3.85399 0
M  V30 3317 N 326.66 -1.06551 1.16123 0
M  V30 3318 C 327.623 -2.12132 0.867906 0
M  V30 3319 C 328.623 -1.60224 -0.135944 0
M  V30 3320 O 329.813 -1.73943 0.0946422 0
M  V30 3321 C 326.945 -3.396 0.297419 0
M  V30 3322 H 328.138 -2.39586 1.80385 0
M  V30 3323 H 325.691 -1.22574 0.969812 0
M  V30 3324 H 326.426 -3.17794 -0.64633 0
M  V30 3325 H 326.211 -3.78581 1.02073 0
M  V30 3326 H 327.701 -4.17455 0.110052 0
M  V30 3327 N 328.138 -0.959301 -1.25041 0
M  V30 3328 C 329.368 -0.63303 -1.96663 0
M  V30 3329 C 329.776 0.800031 -1.71453 0
M  V30 3330 O 329.119 1.54736 -0.99008 0
M  V30 3331 C 329.181 -0.817523 -3.50081 0
M  V30 3332 C 328.845 -2.22863 -3.98975 0
M  V30 3333 C 329.842 -3.20569 -4.09306 0
M  V30 3334 C 327.527 -2.55407 -4.32519 0
M  V30 3335 C 329.521 -4.4891 -4.52503 0
M  V30 3336 C 327.208 -3.83976 -4.754 0
M  V30 3337 C 328.206 -4.8054 -4.85356 0
M  V30 3338 O 327.894 -6.06817 -5.27284 0
M  V30 3339 H 327.626 -0.235866 -0.633516 0
M  V30 3340 H 330.18 -1.2874 -1.60047 0
M  V30 3341 H 328.41 -0.105992 -3.86555 0
M  V30 3342 H 330.099 -0.491604 -4.02912 0
M  V30 3343 H 330.865 -2.96753 -3.83618 0
M  V30 3344 H 326.744 -1.8097 -4.23994 0
M  V30 3345 H 330.288 -5.24283 -4.60188 0
M  V30 3346 H 326.185 -4.07596 -5.00535 0
M  V30 3347 H 326.953 -6.10262 -5.45457 0
M  V30 3348 N 329.616 1.39756 -0.72842 0
M  V30 3349 C 330.844 2.04948 -0.283528 0
M  V30 3350 C 331.259 1.54908 1.0793 0
M  V30 3351 O 330.616 0.711135 1.68075 0
M  V30 3352 C 330.667 3.60498 -0.268957 0
M  V30 3353 O 330.388 4.08695 -1.57798 0
M  V30 3354 C 331.889 4.4288 0.192912 0
M  V30 3355 H 329.109 0.659243 -0.125056 0
M  V30 3356 H 331.653 1.78927 -0.990226 0
M  V30 3357 H 329.808 3.85444 0.388801 0
M  V30 3358 H 330.222 5.02977 -1.48709 0
M  V30 3359 H 331.696 5.51791 0.151952 0
M  V30 3360 H 332.173 4.21418 1.23708 0
M  V30 3361 H 332.779 4.23069 -0.435039 0
M  V30 3362 N 331.094 0.475555 1.50254 0
M  V30 3363 C 332.042 -0.330276 2.30243 0
M  V30 3364 C 333.036 -0.986306 1.37726 0
M  V30 3365 O 334.242 -0.9169 1.54897 0
M  V30 3366 H 330.617 -0.125353 0.741479 0
M  V30 3367 H 332.588 0.364702 2.96163 0
M  V30 3368 C 331.337 -1.39704 3.18399 0
M  V30 3369 H 330.66 -0.901621 3.89501 0
M  V30 3370 H 332.1 -1.93336 3.77355 0
M  V30 3371 C 330.559 -2.4014 2.36293 0
M  V30 3372 O 331.089 -3.45504 2.04914 0
M  V30 3373 N 329.295 -2.1197 1.98789 0
M  V30 3374 H 328.842 -1.2631 2.24507 0
M  V30 3375 H 328.8 -2.79403 1.44157 0
M  V30 3376 N 332.573 -1.56217 0.208337 0
M  V30 3377 C 333.813 -1.99849 -0.428927 0
M  V30 3378 C 334.177 -1.09262 -1.57879 0
M  V30 3379 O 335.378 -1.42185 -2.28116 0
M  V30 3380 C 333.649 -3.46777 -0.864879 0
M  V30 3381 S 335.208 -4.12434 -1.49811 0
M  V30 3382 H 332.026 -0.697742 -0.136665 0
M  V30 3383 H 334.628 -1.92953 0.314519 0
M  V30 3384 H 333.332 -4.10396 -0.0181326 0
M  V30 3385 H 332.863 -3.57518 -1.64147 0
M  V30 3386 H 334.878 -4.10532 -2.78707 0
M  V30 3387 N 334.051 0.0651679 -1.57465 0
M  V30 3388 C 334.998 1.07675 -2.04144 0
M  V30 3389 C 335.968 1.38071 -0.923335 0
M  V30 3390 O 337.153 1.49026 -1.19146 0
M  V30 3391 C 334.293 2.38337 -2.49579 0
M  V30 3392 C 333.406 2.14413 -3.75035 0
M  V30 3393 C 332.541 3.38686 -4.09225 0
M  V30 3394 C 331.58 3.10156 -5.27702 0
M  V30 3395 N 330.717 4.26778 -5.57499 0
M  V30 3396 H 335.557 0.671716 -2.90331 0
M  V30 3397 H 333.094 0.3201 -1.43575 0
M  V30 3398 H 335.052 3.14632 -2.73975 0
M  V30 3399 H 333.682 2.7663 -1.6636 0
M  V30 3400 H 332.734 1.2878 -3.57939 0
M  V30 3401 H 334.046 1.89344 -4.61466 0
M  V30 3402 H 333.2 4.23373 -4.34558 0
M  V30 3403 H 331.939 3.66837 -3.21374 0
M  V30 3404 H 330.944 2.23866 -5.02159 0
M  V30 3405 H 332.169 2.8332 -6.17176 0
M  V30 3406 H 330.115 4.54948 -4.72608 0
M  V30 3407 H 330.032 4.05005 -6.38362 0
M  V30 3408 H 331.3 5.12443 -5.87386 0
M  V30 3409 N 335.529 1.53961 0.336706 0
M  V30 3410 C 336.775 1.7179 1.07777 0
M  V30 3411 C 337.108 0.483263 1.88091 0
M  V30 3412 O 336.383 -0.519747 1.87427 0
M  V30 3413 C 336.666 2.98558 2.01334 0
M  V30 3414 C 336.519 4.32245 1.24437 0
M  V30 3415 C 337.838 3.21023 3.01052 0
M  V30 3416 H 334.957 0.625089 0.390426 0
M  V30 3417 H 337.599 1.86641 0.35567 0
M  V30 3418 H 335.749 2.86028 2.62908 0
M  V30 3419 H 337.421 4.56637 0.654243 0
M  V30 3420 H 335.664 4.30344 0.546458 0
M  V30 3421 H 336.335 5.17137 1.93063 0
M  V30 3422 H 338.811 3.32929 2.49595 0
M  V30 3423 H 337.687 4.11104 3.6371 0
M  V30 3424 H 337.948 2.37637 3.72802 0
M  V30 3425 N 337.007 -0.598083 1.45811 0
M  V30 3426 C 338.235 -1.38322 1.53866 0
M  V30 3427 C 338.65 -1.87992 0.174479 0
M  V30 3428 O 338.007 -1.62756 -0.825627 0
M  V30 3429 C 338.058 -2.58125 2.53089 0
M  V30 3430 O 337.779 -2.10516 3.84206 0
M  V30 3431 C 339.28 -3.50869 2.70935 0
M  V30 3432 H 336.5 -0.423093 0.520801 0
M  V30 3433 H 339.044 -0.728527 1.91083 0
M  V30 3434 H 337.199 -3.19615 2.18917 0
M  V30 3435 H 337.613 -2.88425 4.38077 0
M  V30 3436 H 339.087 -4.31451 3.44317 0
M  V30 3437 H 339.564 -4.01822 1.77301 0
M  V30 3438 H 340.17 -2.95225 3.06141 0
M  V30 3439 N 338.485 -1.33259 -0.841409 0
M  V30 3440 C 339.432 -1.23302 -1.95103 0
M  V30 3441 C 340.402 -0.112204 -1.65721 0
M  V30 3442 O 341.587 -0.290038 -1.88583 0
M  V30 3443 C 338.727 -0.975583 -3.31023 0
M  V30 3444 C 337.84 -2.18243 -3.72819 0
M  V30 3445 C 336.975 -1.85936 -4.97595 0
M  V30 3446 C 336.014 -3.02866 -5.3192 0
M  V30 3447 N 335.151 -2.70565 -6.47873 0
M  V30 3448 H 339.991 -2.18207 -2.02952 0
M  V30 3449 H 337.528 -1.0851 -0.993173 0
M  V30 3450 H 339.486 -0.80677 -4.09325 0
M  V30 3451 H 338.116 -0.0632755 -3.22738 0
M  V30 3452 H 337.168 -2.46107 -2.90061 0
M  V30 3453 H 338.48 -3.05666 -3.94169 0
M  V30 3454 H 337.634 -1.65684 -5.83638 0
M  V30 3455 H 336.373 -0.957452 -4.78209 0
M  V30 3456 H 335.378 -3.23736 -4.44382 0
M  V30 3457 H 336.603 -3.93809 -5.53255 0
M  V30 3458 H 334.549 -1.8293 -6.29978 0
M  V30 3459 H 334.466 -3.51519 -6.69306 0
M  V30 3460 H 335.734 -2.53774 -7.37034 0
M  V30 3461 N 339.963 1.05934 -1.16686 0
M  V30 3462 C 341.209 1.79065 -0.95203 0
M  V30 3463 C 341.542 1.87147 0.518629 0
M  V30 3464 O 340.817 1.36574 1.38484 0
M  V30 3465 C 341.1 3.23359 -1.58464 0
M  V30 3466 C 340.953 3.23336 -3.12689 0
M  V30 3467 C 342.272 4.21004 -1.28232 0
M  V30 3468 H 339.391 0.65005 -0.34728 0
M  V30 3469 H 342.033 1.23868 -1.44072 0
M  V30 3470 H 340.183 3.70493 -1.16908 0
M  V30 3471 H 341.855 2.84336 -3.6325 0
M  V30 3472 H 340.098 2.61886 -3.4583 0
M  V30 3473 H 340.769 4.25144 -3.52075 0
M  V30 3474 H 343.245 3.8233 -1.64203 0
M  V30 3475 H 342.121 5.20225 -1.75092 0
M  V30 3476 H 342.382 4.41639 -0.201791 0
M  V30 3477 N 341.441 0.965919 1.2453 0
M  V30 3478 C 342.351 0.502154 2.29163 0
M  V30 3479 C 343.367 -0.436017 1.68448 0
M  V30 3480 O 344.543 -0.309497 1.99008 0
M  V30 3481 C 341.608 -0.201956 3.46111 0
M  V30 3482 C 340.669 0.775821 4.22232 0
M  V30 3483 C 339.902 0.105217 5.33596 0
M  V30 3484 O 340.125 -1.10683 5.59558 0
M  V30 3485 O 339.059 0.796475 5.96607 0
M  V30 3486 H 342.885 1.37194 2.70946 0
M  V30 3487 H 340.47 0.732875 1.30189 0
M  V30 3488 H 342.352 -0.597564 4.17142 0
M  V30 3489 H 341.027 -1.04673 3.06309 0
M  V30 3490 H 339.934 1.22185 3.53584 0
M  V30 3491 H 341.267 1.58896 4.65846 0
M  V30 3492 N 342.919 -1.39368 0.735821 0
M  V30 3493 C 344.196 -1.94465 0.210395 0
M  V30 3494 C 344.576 -1.67254 -1.28799 0
M  V30 3495 O 343.924 -1.00123 -2.05396 0
M  V30 3496 C 344.134 -3.4472 0.544897 0
M  V30 3497 C 345.482 -4.21708 0.494689 0
M  V30 3498 O 346.506 -3.52922 0.482136 0
M  V30 3499 O 345.365 -5.44299 0.489947 0
M  V30 3500 H 342.459 -0.826096 0.0386666 0
M  V30 3501 H 345.005 -1.48863 0.814735 0
M  V30 3502 H 343.777 -3.57963 1.58045 0
M  V30 3503 H 343.4 -3.97502 -0.08837 0
M  V30 3504 N 344.397 -0.483516 -1.5 0
M  V30 3505 C 345.345 0.318061 -2.30415 0
M  V30 3506 C 346.339 0.978988 -1.38247 0
M  V30 3507 O 347.545 0.908673 -1.55381 0
M  V30 3508 H 343.92 0.121419 -0.742133 0
M  V30 3509 H 345.891 -0.380403 -2.95965 0
M  V30 3510 C 344.64 1.38013 -3.19136 0
M  V30 3511 H 343.963 0.880952 -3.89973 0
M  V30 3512 H 345.403 1.91332 -3.78375 0
M  V30 3513 C 343.862 2.38884 -2.37563 0
M  V30 3514 O 344.392 3.44412 -2.06744 0
M  V30 3515 N 342.598 2.10912 -1.99911 0
M  V30 3516 H 342.145 1.25118 -2.25174 0
M  V30 3517 H 342.103 2.78635 -1.45636 0
M  V30 3518 N 345.875 1.56104 -0.216619 0
M  V30 3519 C 346.822 2.2007 0.695531 0
M  V30 3520 C 347.792 1.15471 1.19397 0
M  V30 3521 O 348.977 1.43807 1.25396 0
M  V30 3522 C 346.117 2.88073 1.90021 0
M  V30 3523 C 345.23 4.07253 1.44113 0
M  V30 3524 C 344.365 4.63052 2.603 0
M  V30 3525 C 343.404 5.74545 2.11103 0
M  V30 3526 N 342.541 6.24656 3.20545 0
M  V30 3527 H 347.381 2.97655 0.143327 0
M  V30 3528 H 344.918 1.46982 0.0589934 0
M  V30 3529 H 346.876 3.25681 2.60745 0
M  V30 3530 H 345.506 2.13015 2.42538 0
M  V30 3531 H 344.558 3.75164 0.628999 0
M  V30 3532 H 345.87 4.8783 1.04036 0
M  V30 3533 H 345.024 5.03078 3.39113 0
M  V30 3534 H 343.763 3.81628 3.03663 0
M  V30 3535 H 342.768 5.34027 1.3075 0
M  V30 3536 H 343.993 6.57801 1.68746 0
M  V30 3537 H 341.939 5.46148 3.63399 0
M  V30 3538 H 341.856 7.00343 2.84704 0
M  V30 3539 H 343.124 6.69338 3.99508 0
M  V30 3540 N 347.353 -0.0568162 1.57498 0
M  V30 3541 C 348.286 -1.09817 2.00039 0
M  V30 3542 C 349.264 -1.3674 0.879819 0
M  V30 3543 O 350.448 -1.49863 1.14338 0
M  V30 3544 C 347.575 -2.43924 2.34986 0
M  V30 3545 C 346.621 -2.33039 3.57204 0
M  V30 3546 S 347.454 -1.7102 5.07457 0
M  V30 3547 C 348.61 -3.06674 5.45621 0
M  V30 3548 H 348.843 -0.735701 2.88053 0
M  V30 3549 H 346.376 -0.265871 1.52094 0
M  V30 3550 H 348.334 -3.2106 2.55795 0
M  V30 3551 H 346.995 -2.77327 1.47474 0
M  V30 3552 H 346.188 -3.31973 3.79223 0
M  V30 3553 H 345.79 -1.64043 3.36104 0
M  V30 3554 H 348.082 -4.03 5.44608 0
M  V30 3555 H 349.025 -2.8942 6.46252 0
M  V30 3556 H 349.433 -3.07969 4.73091 0
M  V30 3557 N 348.832 -1.54138 -0.328536 0
M  V30 3558 C 350.062 -1.75807 -1.08516 0
M  V30 3559 C 350.47 -0.50428 -1.82356 0
M  V30 3560 O 349.813 0.534451 -1.75754 0
M  V30 3561 C 349.875 -2.89423 -2.13248 0
M  V30 3562 C 349.539 -4.28504 -1.5885 0
M  V30 3563 C 350.536 -5.09536 -1.03289 0
M  V30 3564 C 348.221 -4.75034 -1.63243 0
M  V30 3565 C 350.215 -6.35206 -0.52845 0
M  V30 3566 C 347.902 -6.00672 -1.12411 0
M  V30 3567 C 348.9 -6.80592 -0.573062 0
M  V30 3568 O 348.588 -8.03867 -0.0723692 0
M  V30 3569 H 348.32 -0.590633 -0.328829 0
M  V30 3570 H 350.874 -2.01819 -0.381868 0
M  V30 3571 H 349.104 -2.5897 -2.87178 0
M  V30 3572 H 350.793 -2.98921 -2.74592 0
M  V30 3573 H 351.559 -4.74745 -0.99206 0
M  V30 3574 H 347.438 -4.12875 -2.05074 0
M  V30 3575 H 350.982 -6.97532 -0.0976774 0
M  V30 3576 H 346.879 -6.34955 -1.162 0
M  V30 3577 H 347.647 -8.18283 -0.188258 0
M  V30 3578 N 350.31 0.590341 -1.46126 0
M  V30 3579 C 351.556 1.35082 -1.51264 0
M  V30 3580 C 351.889 1.93534 -0.160711 0
M  V30 3581 O 351.164 1.76045 0.826956 0
M  V30 3582 C 351.447 2.48588 -2.6053 0
M  V30 3583 C 351.3 1.95221 -4.05227 0
M  V30 3584 C 352.619 3.50662 -2.6594 0
M  V30 3585 H 349.738 0.489803 -0.550692 0
M  V30 3586 H 352.38 0.663887 -1.78024 0
M  V30 3587 H 350.53 3.07186 -2.37843 0
M  V30 3588 H 352.202 1.41139 -4.39178 0
M  V30 3589 H 350.445 1.26101 -4.15068 0
M  V30 3590 H 351.116 2.77121 -4.77397 0
M  V30 3591 H 353.592 3.01934 -2.86313 0
M  V30 3592 H 352.468 4.27551 -3.44226 0
M  V30 3593 H 352.729 4.07399 -1.71694 0
M  V30 3594 N 351.788 1.33704 0.83433 0
M  V30 3595 C 353.016 1.28467 1.62185 0
M  V30 3596 C 353.431 -0.143526 1.88254 0
M  V30 3597 O 352.788 -1.08709 1.4659 0
M  V30 3598 C 352.839 2.06174 2.96942 0
M  V30 3599 O 352.56 3.43422 2.72016 0
M  V30 3600 C 354.061 2.08201 3.91366 0
M  V30 3601 H 351.281 0.4424 0.504503 0
M  V30 3602 H 353.825 1.76145 1.03891 0
M  V30 3603 H 351.98 1.62167 3.51825 0
M  V30 3604 H 352.394 3.83453 3.57861 0
M  V30 3605 H 353.868 2.67017 4.83121 0
M  V30 3606 H 354.345 1.07343 4.2588 0
M  V30 3607 H 354.951 2.52246 3.42421 0
M  V30 3608 N 353.266 -1.05314 1.17247 0
M  V30 3609 C 354.198 -2.13023 0.845812 0
M  V30 3610 C 355.211 -1.62096 -0.151246 0
M  V30 3611 O 356.4 -1.78343 0.0748818 0
M  V30 3612 C 353.5 -3.38047 0.240292 0
M  V30 3613 C 352.673 -4.18255 1.27991 0
M  V30 3614 C 351.732 -5.21625 0.692375 0
M  V30 3615 O 350.758 -5.52619 1.36385 0
M  V30 3616 N 351.96 -5.78201 -0.516178 0
M  V30 3617 H 354.725 -2.41642 1.77283 0
M  V30 3618 H 352.286 -1.21401 1.07115 0
M  V30 3619 H 354.278 -4.04359 -0.16603 0
M  V30 3620 H 352.848 -3.06972 -0.590487 0
M  V30 3621 H 352.068 -3.47451 1.86203 0
M  V30 3622 H 353.356 -4.68643 1.98119 0
M  V30 3623 H 352.754 -5.55301 -1.07969 0
M  V30 3624 H 351.311 -6.4604 -0.86458 0
M  V30 3625 N 354.744 -0.972509 -1.24016 0
M  V30 3626 C 355.99 -0.637978 -1.92504 0
M  V30 3627 C 356.323 0.825383 -1.75787 0
M  V30 3628 O 355.598 1.59442 -1.11393 0
M  V30 3629 C 355.881 -1.01942 -3.45369 0
M  V30 3630 C 355.734 -2.53983 -3.71231 0
M  V30 3631 C 357.053 -0.55751 -4.36555 0
M  V30 3632 H 354.172 -0.233248 -0.699117 0
M  V30 3633 H 356.814 -1.21238 -1.46292 0
M  V30 3634 H 354.964 -0.530656 -3.84859 0
M  V30 3635 H 356.636 -3.10374 -3.41271 0
M  V30 3636 H 354.879 -2.96968 -3.16216 0
M  V30 3637 H 355.55 -2.75723 -4.78206 0
M  V30 3638 H 358.026 -0.977029 -4.04467 0
M  V30 3639 H 356.902 -0.85292 -5.42233 0
M  V30 3640 H 357.163 0.542328 -4.38761 0
M  V30 3641 N 356.222 1.38976 -0.743202 0
M  V30 3642 C 357.499 1.94351 -0.220705 0
M  V30 3643 C 357.879 1.67935 1.2791 0
M  V30 3644 O 357.227 1.01211 2.04862 0
M  V30 3645 C 357.437 3.44426 -0.563171 0
M  V30 3646 C 358.785 4.2144 -0.517046 0
M  V30 3647 O 359.809 3.52661 -0.500846 0
M  V30 3648 O 358.668 5.44032 -0.518806 0
M  V30 3649 H 355.762 0.825879 -0.043047 0
M  V30 3650 H 358.308 1.48429 -0.822618 0
M  V30 3651 H 357.08 3.5712 -1.59941 0
M  V30 3652 H 356.703 3.97543 0.0672883 0
M  V30 3653 N 357.7 0.491464 1.49741 0
M  V30 3654 C 358.61 -0.296835 2.32715 0
M  V30 3655 C 359.626 -0.976536 1.44013 0
M  V30 3656 O 360.802 -0.960023 1.77047 0
M  V30 3657 C 357.867 -1.35288 3.19215 0
M  V30 3658 C 356.928 -0.687632 4.23757 0
M  V30 3659 C 356.161 -1.69336 5.06123 0
M  V30 3660 O 356.384 -2.92219 4.89861 0
M  V30 3661 O 355.318 -1.25394 5.88693 0
M  V30 3662 H 359.144 0.382048 3.01287 0
M  V30 3663 H 356.729 0.252953 1.47243 0
M  V30 3664 H 358.611 -1.96411 3.72828 0
M  V30 3665 H 357.286 -2.01487 2.53347 0
M  V30 3666 H 356.193 -0.0369159 3.74082 0
M  V30 3667 H 357.526 -0.0682566 4.92153 0
M  V30 3668 N 359.178 -1.55987 0.224894 0
M  V30 3669 C 360.125 -2.20436 -0.68385 0
M  V30 3670 C 361.095 -1.16102 -1.18783 0
M  V30 3671 O 362.28 -1.4447 -1.24632 0
M  V30 3672 C 359.42 -2.89076 -1.88491 0
M  V30 3673 C 358.533 -4.08012 -1.41951 0
M  V30 3674 C 357.668 -4.64426 -2.5784 0
M  V30 3675 C 356.707 -5.75656 -2.08053 0
M  V30 3676 N 355.844 -6.26347 -3.17227 0
M  V30 3677 H 360.684 -2.97727 -0.12754 0
M  V30 3678 H 358.221 -1.47011 -0.0511978 0
M  V30 3679 H 360.179 -3.27059 -2.59014 0
M  V30 3680 H 358.809 -2.14298 -2.41405 0
M  V30 3681 H 357.861 -3.75492 -0.609095 0
M  V30 3682 H 359.173 -4.88375 -1.01447 0
M  V30 3683 H 358.327 -5.04869 -3.3644 0
M  V30 3684 H 357.066 -3.83233 -3.01635 0
M  V30 3685 H 356.071 -5.34712 -1.27916 0
M  V30 3686 H 357.296 -6.58686 -1.65255 0
M  V30 3687 H 355.242 -5.48067 -3.60497 0
M  V30 3688 H 355.159 -7.01843 -2.80986 0
M  V30 3689 H 356.427 -6.71447 -3.95953 0
M  V30 3690 N 360.656 0.0484629 -1.57525 0
M  V30 3691 C 361.904 0.741657 -1.88 0
M  V30 3692 C 362.225 1.76918 -0.820054 0
M  V30 3693 O 361.495 1.95335 0.148661 0
M  V30 3694 H 360.075 0.276908 -0.69378 0
M  V30 3695 H 362.737 0.019013 -1.94891 0
M  V30 3696 H 361.833 1.24336 -2.86264 0
M  V30 3697 N 362.134 1.5431 0.320358 0
M  V30 3698 C 363.044 1.86946 1.41734 0
M  V30 3699 C 364.06 0.761689 1.56443 0
M  V30 3700 O 365.236 1.05629 1.71477 0
M  V30 3701 C 362.301 2.09293 2.76401 0
M  V30 3702 C 361.362 3.33082 2.70841 0
M  V30 3703 C 360.595 3.54353 3.99086 0
M  V30 3704 O 360.818 2.79002 4.97508 0
M  V30 3705 O 359.752 4.47838 4.0215 0
M  V30 3706 H 363.578 2.80232 1.17062 0
M  V30 3707 H 361.163 1.40255 0.514673 0
M  V30 3708 H 363.045 2.25303 3.56113 0
M  V30 3709 H 361.72 1.19194 3.00956 0
M  V30 3710 H 360.627 3.22454 1.89668 0
M  V30 3711 H 361.96 4.23249 2.5124 0
M  V30 3712 N 363.613 -0.582584 1.46437 0
M  V30 3713 C 364.841 -1.36682 1.55324 0
M  V30 3714 C 365.256 -1.87796 0.194409 0
M  V30 3715 O 364.613 -1.63623 -0.808318 0
M  V30 3716 C 364.664 -2.55426 2.55812 0
M  V30 3717 O 364.385 -2.0643 3.86417 0
M  V30 3718 C 365.886 -3.47976 2.74641 0
M  V30 3719 H 363.106 -0.417545 0.525259 0
M  V30 3720 H 365.65 -0.708219 1.91845 0
M  V30 3721 H 363.805 -3.17275 2.22295 0
M  V30 3722 H 364.219 -2.83762 4.41111 0
M  V30 3723 H 365.693 -4.27775 3.48874 0
M  V30 3724 H 366.17 -3.99919 1.81553 0
M  V30 3725 H 366.776 -2.91962 3.09255 0
M  V30 3726 N 365.091 -1.34144 -0.827227 0
M  V30 3727 C 366.34 -1.25602 -1.5782 0
M  V30 3728 C 366.653 0.173445 -1.94829 0
M  V30 3729 O 367.859 0.380984 -2.68814 0
M  V30 3730 C 366.315 -2.20151 -2.84713 0
M  V30 3731 C 365.923 -3.68331 -2.55021 0
M  V30 3732 C 367.667 -2.20508 -3.62735 0
M  V30 3733 C 365.574 -4.54762 -3.78082 0
M  V30 3734 H 364.504 -0.466573 -0.592306 0
M  V30 3735 H 367.155 -1.59283 -0.911116 0
M  V30 3736 H 365.537 -1.79417 -3.53023 0
M  V30 3737 H 366.711 -4.17577 -1.94849 0
M  V30 3738 H 365.026 -3.7038 -1.90283 0
M  V30 3739 H 367.623 -2.82306 -4.54101 0
M  V30 3740 H 367.966 -1.20322 -3.98533 0
M  V30 3741 H 368.499 -2.59664 -3.01362 0
M  V30 3742 H 365.238 -5.55867 -3.47407 0
M  V30 3743 H 364.758 -4.10254 -4.37552 0
M  V30 3744 H 366.437 -4.69153 -4.45538 0
M  V30 3745 N 366.569 1.04691 -1.17803 0
M  V30 3746 C 367.516 2.12557 -0.899343 0
M  V30 3747 C 368.486 1.65339 0.158771 0
M  V30 3748 O 369.671 1.90789 0.0204797 0
M  V30 3749 C 366.811 3.42481 -0.424315 0
M  V30 3750 C 365.924 4.03346 -1.54713 0
M  V30 3751 C 365.059 5.21208 -1.02546 0
M  V30 3752 C 364.098 5.74089 -2.12339 0
M  V30 3753 N 363.235 6.83247 -1.61612 0
M  V30 3754 H 368.075 2.35734 -1.823 0
M  V30 3755 H 365.612 1.1564 -0.909159 0
M  V30 3756 H 367.57 4.16996 -0.130421 0
M  V30 3757 H 366.2 3.19471 0.462377 0
M  V30 3758 H 365.252 3.2622 -1.95664 0
M  V30 3759 H 366.564 4.38628 -2.37501 0
M  V30 3760 H 365.718 6.02812 -0.685718 0
M  V30 3761 H 364.457 4.87414 -0.167084 0
M  V30 3762 H 363.462 4.91111 -2.47165 0
M  V30 3763 H 364.687 6.0993 -2.98601 0
M  V30 3764 H 362.633 6.5134 -0.780533 0
M  V30 3765 H 362.55 7.17559 -2.38003 0
M  V30 3766 H 363.818 7.68491 -1.30545 0
M  V30 3767 N 368.047 0.979072 1.23499 0
M  V30 3768 C 368.957 0.526431 2.28617 0
M  V30 3769 C 369.973 -0.418126 1.68901 0
M  V30 3770 O 371.149 -0.288372 1.99325 0
M  V30 3771 C 368.214 -0.165235 3.46306 0
M  V30 3772 C 367.275 0.82056 4.21385 0
M  V30 3773 C 366.508 0.161807 5.33455 0
M  V30 3774 O 366.731 -1.04742 5.60701 0
M  V30 3775 O 365.665 0.859708 5.95729 0
M  V30 3776 H 369.491 1.4006 2.69475 0
M  V30 3777 H 367.076 0.746643 1.29405 0
M  V30 3778 H 368.958 -0.553287 4.17752 0
M  V30 3779 H 367.633 -1.01419 3.07402 0
M  V30 3780 H 366.54 1.25929 3.52268 0
M  V30 3781 H 367.873 1.63828 4.64135 0
M  V30 3782 N 369.525 -1.3858 0.750561 0
M  V30 3783 C 370.458 -2.28095 0.0693139 0
M  V30 3784 C 371.436 -1.45217 -0.731491 0
M  V30 3785 O 372.62 -1.74587 -0.71076 0
M  V30 3786 C 369.747 -3.26282 -0.90871 0
M  V30 3787 C 368.793 -4.26056 -0.194507 0
M  V30 3788 S 369.626 -5.24026 1.10257 0
M  V30 3789 C 370.782 -6.2577 0.127542 0
M  V30 3790 H 371.015 -2.85526 0.8284 0
M  V30 3791 H 368.548 -1.44536 0.543014 0
M  V30 3792 H 370.506 -3.83367 -1.46766 0
M  V30 3793 H 369.167 -2.6784 -1.64075 0
M  V30 3794 H 368.36 -4.95249 -0.93512 0
M  V30 3795 H 367.962 -3.72852 0.292837 0
M  V30 3796 H 370.254 -6.73796 -0.707516 0
M  V30 3797 H 371.197 -7.03712 0.787044 0
M  V30 3798 H 371.605 -5.63938 -0.251803 0
M  V30 3799 N 371.003 -0.499398 -1.49478 0
M  V30 3800 C 372.249 0.0457576 -2.02748 0
M  V30 3801 C 372.582 1.36793 -1.37846 0
M  V30 3802 O 371.857 1.87596 -0.513601 0
M  V30 3803 C 372.14 0.199986 -3.59544 0
M  V30 3804 C 371.993 -1.1452 -4.34977 0
M  V30 3805 C 373.312 0.94137 -4.29914 0
M  V30 3806 H 370.431 0.0151552 -0.736844 0
M  V30 3807 H 373.073 -0.650498 -1.78518 0
M  V30 3808 H 371.223 0.793007 -3.8032 0
M  V30 3809 H 372.895 -1.77697 -4.25701 0
M  V30 3810 H 371.138 -1.73488 -3.97598 0
M  V30 3811 H 371.809 -0.990607 -5.43039 0
M  V30 3812 H 374.285 0.43844 -4.13784 0
M  V30 3813 H 373.161 1.01812 -5.39375 0
M  V30 3814 H 373.422 1.98471 -3.95046 0
M  V30 3815 N 372.481 1.55866 -0.233164 0
M  V30 3816 C 373.411 2.23783 0.666599 0
M  V30 3817 C 374.392 1.21343 1.19205 0
M  V30 3818 O 375.577 1.4996 1.23392 0
M  V30 3819 C 372.707 2.92671 1.86978 0
M  V30 3820 C 371.661 4.01682 1.47768 0
M  V30 3821 C 370.987 4.57926 2.76058 0
M  V30 3822 C 372.287 5.18126 0.658993 0
M  V30 3823 H 373.981 2.99232 0.100306 0
M  V30 3824 H 371.527 1.43924 0.046804 0
M  V30 3825 H 373.48 3.3888 2.50476 0
M  V30 3826 H 372.204 2.14688 2.46123 0
M  V30 3827 H 370.863 3.56222 0.866106 0
M  V30 3828 H 370.511 3.76659 3.33372 0
M  V30 3829 H 370.211 5.31505 2.50552 0
M  V30 3830 H 371.735 5.06859 3.40479 0
M  V30 3831 H 373.149 5.60644 1.19795 0
M  V30 3832 H 371.546 5.98009 0.500552 0
M  V30 3833 H 372.616 4.83763 -0.331856 0
M  V30 3834 N 373.959 -0.0401083 1.57549 0
M  V30 3835 C 375.37 -0.588097 1.77196 0
M  V30 3836 C 375.721 -1.76209 0.862832 0
M  V30 3837 O 374.846 -2.16331 0.0548389 0
M  V30 3838 C 375.441 -1.07363 3.21339 0
M  V30 3839 C 374 -1.56723 3.42221 0
M  V30 3840 C 373.147 -0.50041 2.72747 0
M  V30 3841 H 376.098 0.186119 1.57605 0
M  V30 3842 H 376.119 -1.94143 3.27244 0
M  V30 3843 H 375.631 -0.218975 3.87482 0
M  V30 3844 H 373.732 -2.4441 2.81237 0
M  V30 3845 H 373.845 -1.62234 4.50796 0
M  V30 3846 H 372.209 -0.952894 2.36203 0
M  V30 3847 H 372.992 0.344599 3.41566 0
M  V30 3848 N 375.437 -1.54477 -0.31217 0
M  V30 3849 C 376.683 -1.73483 -1.0503 0
M  V30 3850 C 377.016 -0.513125 -1.87298 0
M  V30 3851 O 376.291 0.489864 -1.8823 0
M  V30 3852 C 376.574 -3.01723 -1.96558 0
M  V30 3853 C 376.427 -4.3417 -1.17545 0
M  V30 3854 C 377.746 -3.25772 -2.95907 0
M  V30 3855 H 374.865 -0.631222 -0.380432 0
M  V30 3856 H 377.507 -1.87184 -0.325932 0
M  V30 3857 H 375.657 -2.90174 -2.58324 0
M  V30 3858 H 377.329 -4.5762 -0.581513 0
M  V30 3859 H 375.572 -4.31159 -0.477925 0
M  V30 3860 H 376.243 -5.20143 -1.84811 0
M  V30 3861 H 378.719 -3.36857 -2.44267 0
M  V30 3862 H 377.595 -4.16838 -3.57123 0
M  V30 3863 H 377.856 -2.43537 -3.68974 0
M  V30 3864 N 376.915 0.57481 -1.46744 0
M  V30 3865 C 377.862 1.68329 -1.57905 0
M  V30 3866 C 378.832 1.60625 -0.422927 0
M  V30 3867 O 380.017 1.79721 -0.640711 0
M  V30 3868 C 377.157 3.06665 -1.58274 0
M  V30 3869 C 376.27 3.24935 -2.84678 0
M  V30 3870 C 375.405 4.53566 -2.76499 0
M  V30 3871 C 374.444 4.65207 -3.97806 0
M  V30 3872 N 373.581 5.85172 -3.87967 0
M  V30 3873 H 378.421 1.58127 -2.52587 0
M  V30 3874 H 375.958 0.770552 -1.25303 0
M  V30 3875 H 377.916 3.86745 -1.56473 0
M  V30 3876 H 376.546 3.15745 -0.671194 0
M  V30 3877 H 375.598 2.38405 -2.96424 0
M  V30 3878 H 376.91 3.29403 -3.7456 0
M  V30 3879 H 376.064 5.41885 -2.72848 0
M  V30 3880 H 374.803 4.51548 -1.8427 0
M  V30 3881 H 373.808 3.75304 -4.0178 0
M  V30 3882 H 375.033 4.68997 -4.9114 0
M  V30 3883 H 372.979 5.84137 -2.98529 0
M  V30 3884 H 372.896 5.90943 -4.71511 0
M  V30 3885 H 374.164 6.759 -3.88303 0
M  V30 3886 N 378.394 1.34581 0.820102 0
M  V30 3887 C 379.641 1.27096 1.57648 0
M  V30 3888 C 379.969 -0.158317 1.93855 0
M  V30 3889 O 379.224 -1.12028 1.60463 0
M  V30 3890 C 379.523 2.10997 2.8847 0
M  V30 3891 C 379.189 3.59966 2.71543 0
M  V30 3892 C 377.851 4.00575 2.66634 0
M  V30 3893 C 380.203 4.54548 2.55021 0
M  V30 3894 C 377.531 5.33953 2.43128 0
M  V30 3895 C 379.883 5.88109 2.33047 0
M  V30 3896 C 378.547 6.27878 2.26552 0
M  V30 3897 H 377.817 0.465078 0.576874 0
M  V30 3898 H 380.464 1.6635 0.948671 0
M  V30 3899 H 378.769 1.6458 3.55557 0
M  V30 3900 H 380.466 2.0255 3.46084 0
M  V30 3901 H 377.056 3.27733 2.76205 0
M  V30 3902 H 381.24 4.24069 2.57835 0
M  V30 3903 H 376.496 5.63781 2.3656 0
M  V30 3904 H 380.67 6.60985 2.19251 0
M  V30 3905 H 378.297 7.31162 2.081 0
M  V30 3906 N 379.872 -1.04064 1.18357 0
M  V30 3907 C 381.12 -1.76915 0.977013 0
M  V30 3908 C 381.441 -1.88624 -0.494577 0
M  V30 3909 O 380.711 -1.41125 -1.3587 0
M  V30 3910 H 379.291 -0.65535 0.358504 0
M  V30 3911 H 381.953 -1.25592 1.49039 0
M  V30 3912 H 381.049 -2.78178 1.41504 0
M  V30 3913 N 381.35 -0.985608 -1.22978 0
M  V30 3914 C 382.283 -0.47487 -2.23204 0
M  V30 3915 C 383.261 0.460865 -1.55932 0
M  V30 3916 O 384.445 0.388105 -1.84461 0
M  V30 3917 C 381.572 0.312427 -3.37256 0
M  V30 3918 C 380.618 -0.568219 -4.22698 0
M  V30 3919 S 381.451 -2.01919 -4.95973 0
M  V30 3920 C 382.607 -1.24118 -6.1347 0
M  V30 3921 H 382.84 -1.32419 -2.66181 0
M  V30 3922 H 380.373 -0.792005 -1.32539 0
M  V30 3923 H 382.331 0.760645 -4.03391 0
M  V30 3924 H 380.992 1.13693 -2.92801 0
M  V30 3925 H 380.185 0.0371657 -5.03986 0
M  V30 3926 H 379.787 -0.952897 -3.61657 0
M  V30 3927 H 382.079 -0.505121 -6.75614 0
M  V30 3928 H 383.022 -2.02907 -6.78406 0
M  V30 3929 H 383.43 -0.757669 -5.59392 0
M  V30 3930 N 382.828 1.3818 -0.7579 0
M  V30 3931 C 383.761 2.28055 -0.0814093 0
M  V30 3932 C 384.739 1.45603 0.723779 0
M  V30 3933 O 385.923 1.74961 0.701491 0
M  V30 3934 C 383.05 3.2676 0.891394 0
M  V30 3935 C 382.096 4.26153 0.171909 0
M  V30 3936 S 382.929 5.23434 -1.13035 0
M  V30 3937 C 384.085 6.25694 -0.160727 0
M  V30 3938 H 384.318 2.85082 -0.84353 0
M  V30 3939 H 381.851 1.44246 -0.550671 0
M  V30 3940 H 383.809 3.8414 1.44731 0
M  V30 3941 H 382.47 2.68706 1.62652 0
M  V30 3942 H 381.663 4.95738 0.908843 0
M  V30 3943 H 381.265 3.72691 -0.312606 0
M  V30 3944 H 383.557 6.74161 0.671773 0
M  V30 3945 H 384.5 7.03285 -0.824353 0
M  V30 3946 H 384.908 5.64064 0.221892 0
M  V30 3947 N 384.306 0.507319 1.49211 0
M  V30 3948 C 385.555 -0.0368315 2.01666 0
M  V30 3949 C 385.868 -1.37459 1.39156 0
M  V30 3950 O 387.074 -2.00579 1.82976 0
M  V30 3951 C 385.53 -0.116089 3.59713 0
M  V30 3952 C 385.138 1.2154 4.31198 0
M  V30 3953 C 386.882 -0.610268 4.2009 0
M  V30 3954 C 384.789 1.09796 5.81119 0
M  V30 3955 H 383.719 -0.0175376 0.753796 0
M  V30 3956 H 386.37 0.647691 1.71689 0
M  V30 3957 H 384.752 -0.8652 3.86433 0
M  V30 3958 H 385.926 1.9783 4.16173 0
M  V30 3959 H 384.241 1.64352 3.82593 0
M  V30 3960 H 386.838 -0.715742 5.29888 0
M  V30 3961 H 387.181 -1.61064 3.8388 0
M  V30 3962 H 387.714 0.0824916 3.97714 0
M  V30 3963 H 384.453 2.0728 6.21864 0
M  V30 3964 H 383.973 0.376058 5.9862 0
M  V30 3965 H 385.652 0.779281 6.4229 0
M  V30 3966 N 385.784 -1.5574 0.241426 0
M  V30 3967 C 387.195 -1.84842 -0.262755 0
M  V30 3968 C 387.546 -1.16317 -1.58003 0
M  V30 3969 O 386.671 -0.439653 -2.11887 0
M  V30 3970 C 387.266 -3.35332 -0.483523 0
M  V30 3971 C 385.825 -3.6468 -0.931977 0
M  V30 3972 C 384.972 -2.77299 -0.0061151 0
M  V30 3973 H 387.923 -1.51761 0.464129 0
M  V30 3974 H 387.944 -3.56615 -1.32688 0
M  V30 3975 H 387.456 -3.85178 0.47537 0
M  V30 3976 H 385.557 -3.20307 -1.90353 0
M  V30 3977 H 385.67 -4.72498 -0.792628 0
M  V30 3978 H 384.034 -2.49408 -0.516503 0
M  V30 3979 H 384.817 -3.2995 0.948052 0
M  V30 3980 N 387.262 0.0317525 -1.57568 0
M  V30 3981 C 388.225 1.01783 -2.0536 0
M  V30 3982 C 389.225 1.29203 -0.957253 0
M  V30 3983 O 390.415 1.24251 -1.22095 0
M  V30 3984 C 387.547 2.35137 -2.46827 0
M  V30 3985 H 388.74 0.605062 -2.93733 0
M  V30 3986 H 386.293 0.278514 -1.53799 0
M  V30 3987 H 387.028 2.81168 -1.61602 0
M  V30 3988 H 386.813 2.16566 -3.26866 0
M  V30 3989 H 388.303 3.05938 -2.84239 0
M  V30 3990 N 388.74 1.54641 0.303973 0
M  V30 3991 C 389.987 1.7378 1.03955 0
M  V30 3992 C 390.315 0.521986 1.87365 0
M  V30 3993 O 389.57 -0.496099 1.89308 0
M  V30 3994 C 389.869 2.97753 1.97681 0
M  V30 3995 C 389.535 4.31671 1.30271 0
M  V30 3996 C 388.197 4.68075 1.11619 0
M  V30 3997 C 390.549 5.147 0.82055 0
M  V30 3998 C 387.877 5.8509 0.434304 0
M  V30 3999 C 390.229 6.32416 0.152395 0
M  V30 4000 C 388.893 6.67484 -0.0461067 0
M  V30 4001 H 388.163 0.635908 0.380398 0
M  V30 4002 H 390.81 1.88896 0.314718 0
M  V30 4003 H 389.115 2.77406 2.76682 0
M  V30 4004 H 390.812 3.09756 2.54661 0
M  V30 4005 H 387.402 4.03041 1.45795 0
M  V30 4006 H 391.586 4.87077 0.952374 0
M  V30 4007 H 386.842 6.10806 0.269495 0
M  V30 4008 H 391.016 6.96023 -0.229126 0
M  V30 4009 H 388.643 7.58011 -0.576494 0
M  V30 4010 N 390.218 -0.567019 1.47046 0
M  V30 4011 C 391.165 -1.67489 1.58796 0
M  V30 4012 C 392.135 -1.60399 0.43144 0
M  V30 4013 O 393.32 -1.79378 0.650233 0
M  V30 4014 C 390.46 -3.05821 1.59899 0
M  V30 4015 C 389.573 -3.2342 2.86397 0
M  V30 4016 C 388.708 -4.52093 2.789 0
M  V30 4017 C 387.747 -4.6309 4.00267 0
M  V30 4018 N 386.884 -5.83106 3.91064 0
M  V30 4019 H 391.724 -1.56785 2.53422 0
M  V30 4020 H 389.261 -0.763896 1.2571 0
M  V30 4021 H 391.219 -3.8591 1.58522 0
M  V30 4022 H 389.849 -3.15384 0.687929 0
M  V30 4023 H 388.901 -2.3683 2.97684 0
M  V30 4024 H 390.213 -3.27412 3.76301 0
M  V30 4025 H 389.367 -5.4043 2.75718 0
M  V30 4026 H 388.106 -4.50565 1.86662 0
M  V30 4027 H 387.111 -3.73168 4.03765 0
M  V30 4028 H 388.336 -4.66386 4.93621 0
M  V30 4029 H 386.282 -5.82546 3.01623 0
M  V30 4030 H 386.199 -5.88434 4.74638 0
M  V30 4031 H 387.467 -6.73831 3.91882 0
M  V30 4032 N 391.696 -1.35014 -0.812953 0
M  V30 4033 C 392.944 -1.27678 -1.56661 0
M  V30 4034 C 393.265 0.150359 -1.94419 0
M  V30 4035 O 392.535 1.08532 -1.63088 0
M  V30 4036 H 391.115 -0.469602 -0.580933 0
M  V30 4037 H 393.777 -1.69043 -0.970076 0
M  V30 4038 H 392.873 -1.88833 -2.48492 0
M  V30 4039 N 393.175 1.03435 -1.18907 0
M  V30 4040 C 394.421 1.77005 -0.989798 0
M  V30 4041 C 394.754 1.88205 0.478816 0
M  V30 4042 O 394.029 1.39481 1.35556 0
M  V30 4043 C 394.312 3.19925 -1.65287 0
M  V30 4044 C 394.165 3.1663 -3.19477 0
M  V30 4045 C 395.484 4.18189 -1.37134 0
M  V30 4046 H 392.603 0.642538 -0.360991 0
M  V30 4047 H 395.245 1.20784 -1.46667 0
M  V30 4048 H 393.395 3.67929 -1.24741 0
M  V30 4049 H 395.067 2.76567 -3.692 0
M  V30 4050 H 393.31 2.54491 -3.51307 0
M  V30 4051 H 393.981 4.1758 -3.61013 0
M  V30 4052 H 396.457 3.78761 -1.72276 0
M  V30 4053 H 395.333 5.16394 -1.86087 0
M  V30 4054 H 395.594 4.41112 -0.295424 0
M  V30 4055 N 394.653 0.992116 1.22453 0
M  V30 4056 C 396.064 0.702776 1.72968 0
M  V30 4057 C 396.415 -0.780399 1.80012 0
M  V30 4058 O 395.54 -1.61007 1.44589 0
M  V30 4059 C 396.135 1.26903 3.14135 0
M  V30 4060 C 394.694 1.02909 3.62059 0
M  V30 4061 C 393.841 1.38969 2.39964 0
M  V30 4062 H 396.792 1.16457 1.07812 0
M  V30 4063 H 396.813 0.647223 3.74955 0
M  V30 4064 H 396.325 2.34851 3.08977 0
M  V30 4065 H 394.426 -0.0337979 3.72585 0
M  V30 4066 H 394.539 1.69191 4.48231 0
M  V30 4067 H 392.903 0.808279 2.41535 0
M  V30 4068 H 393.686 2.4792 2.37467 0
M  V30 4069 N 396.131 -1.37776 0.765217 0
M  V30 4070 C 397.094 -2.28686 0.153416 0
M  V30 4071 C 398.094 -1.47727 -0.635081 0
M  V30 4072 O 399.284 -1.68027 -0.459632 0
M  V30 4073 C 396.416 -3.31608 -0.790495 0
M  V30 4074 H 397.609 -2.84297 0.954723 0
M  V30 4075 H 395.162 -1.46932 0.53299 0
M  V30 4076 H 395.897 -2.81109 -1.61705 0
M  V30 4077 H 395.682 -3.9144 -0.227348 0
M  V30 4078 H 397.172 -3.99559 -1.21419 0
M  V30 4079 N 397.609 -0.515225 -1.4894 0
M  V30 4080 C 398.855 0.0242508 -2.02785 0
M  V30 4081 C 399.188 1.35323 -1.39289 0
M  V30 4082 O 398.463 1.87041 -0.533469 0
M  V30 4083 C 398.746 0.16184 -3.59736 0
M  V30 4084 C 398.599 -1.19127 -4.33738 0
M  V30 4085 C 399.918 0.895719 -4.30888 0
M  V30 4086 H 397.037 0.00733914 -0.736963 0
M  V30 4087 H 399.679 -0.669395 -1.77818 0
M  V30 4088 H 397.829 0.752624 -3.8114 0
M  V30 4089 H 399.501 -1.82202 -4.23792 0
M  V30 4090 H 397.744 -1.77695 -3.95736 0
M  V30 4091 H 398.415 -1.04815 -5.41957 0
M  V30 4092 H 400.891 0.394528 -4.14225 0
M  V30 4093 H 399.767 0.960859 -5.40425 0
M  V30 4094 H 400.028 1.9427 -3.97129 0
M  V30 4095 N 399.087 1.5561 -0.249682 0
M  V30 4096 C 400.05 2.20217 0.635394 0
M  V30 4097 C 401.05 1.17227 1.10066 0
M  V30 4098 O 402.24 1.42292 1.00492 0
M  V30 4099 C 399.372 2.84794 1.87363 0
M  V30 4100 H 400.565 2.99814 0.0716752 0
M  V30 4101 H 398.118 1.563 -0.000153234 0
M  V30 4102 H 398.853 2.09142 2.47851 0
M  V30 4103 H 398.638 3.60241 1.5482 0
M  V30 4104 H 400.128 3.3423 2.5036 0
M  V30 4105 N 400.565 -0.0233959 1.57583 0
M  V30 4106 C 401.813 -0.711654 1.89156 0
M  V30 4107 C 402.134 -1.75591 0.848096 0
M  V30 4108 O 401.404 -1.95547 -0.117566 0
M  V30 4109 H 399.984 -0.265835 0.698098 0
M  V30 4110 H 402.646 0.0119948 1.94896 0
M  V30 4111 H 401.742 -1.19766 2.88206 0
M  V30 4112 N 402.043 -1.548 -0.295768 0
M  V30 4113 C 403.289 -1.74588 -1.03184 0
M  V30 4114 C 403.622 -0.532962 -1.86744 0
M  V30 4115 O 402.897 0.469872 -1.88739 0
M  V30 4116 C 403.18 -3.03791 -1.93347 0
M  V30 4117 C 403.033 -4.35392 -1.12933 0
M  V30 4118 C 404.352 -3.28892 -2.92435 0
M  V30 4119 H 401.471 -0.635221 -0.373715 0
M  V30 4120 H 404.113 -1.87519 -0.30606 0
M  V30 4121 H 402.263 -2.92898 -2.55232 0
M  V30 4122 H 403.935 -4.58211 -0.532943 0
M  V30 4123 H 402.178 -4.31642 -0.432168 0
M  V30 4124 H 402.849 -5.22074 -1.79284 0
M  V30 4125 H 405.325 -3.39429 -2.4068 0
M  V30 4126 H 404.201 -4.20603 -3.52682 0
M  V30 4127 H 404.462 -2.47437 -3.6637 0
M  V30 4128 N 403.521 0.559213 -1.47345 0
M  V30 4129 C 404.431 1.69388 -1.62311 0
M  V30 4130 C 405.447 1.6648 -0.505993 0
M  V30 4131 O 406.623 1.85964 -0.773262 0
M  V30 4132 C 403.688 3.05894 -1.63185 0
M  V30 4133 C 402.749 3.19885 -2.86307 0
M  V30 4134 C 401.982 4.49879 -2.87131 0
M  V30 4135 O 402.205 5.35217 -1.97229 0
M  V30 4136 O 401.139 4.67618 -3.78968 0
M  V30 4137 H 404.965 1.59706 -2.58317 0
M  V30 4138 H 402.55 0.728989 -1.30407 0
M  V30 4139 H 404.432 3.87133 -1.66451 0
M  V30 4140 H 403.107 3.15964 -0.70345 0
M  V30 4141 H 402.014 2.38052 -2.88587 0
M  V30 4142 H 403.347 3.14718 -3.78435 0
M  V30 4143 N 404.999 1.35443 0.805782 0
M  V30 4144 C 406.247 1.28507 1.55982 0
M  V30 4145 C 406.568 -0.140046 1.94496 0
M  V30 4146 O 405.838 -1.07666 1.63661 0
M  V30 4147 H 404.418 0.472676 0.578434 0
M  V30 4148 H 407.08 1.69555 0.961098 0
M  V30 4149 H 406.176 1.90148 2.47488 0
M  V30 4150 N 406.477 -1.02803 1.19454 0
M  V30 4151 C 407.407 -2.12999 0.956758 0
M  V30 4152 C 408.388 -1.69743 -0.110188 0
M  V30 4153 O 409.573 -1.94148 0.0450038 0
M  V30 4154 C 406.703 -3.43746 0.495553 0
M  V30 4155 C 405.657 -4.00688 1.50443 0
M  V30 4156 C 404.983 -5.27067 0.900275 0
M  V30 4157 C 406.283 -4.35397 2.8849 0
M  V30 4158 H 407.977 -2.33148 1.87836 0
M  V30 4159 H 405.523 -1.12045 0.904539 0
M  V30 4160 H 407.476 -4.2021 0.316493 0
M  V30 4161 H 406.2 -3.23321 -0.461646 0
M  V30 4162 H 404.859 -3.2632 1.67065 0
M  V30 4163 H 404.507 -5.02959 -0.064503 0
M  V30 4164 H 404.207 -5.66127 1.57397 0
M  V30 4165 H 405.731 -6.06196 0.73203 0
M  V30 4166 H 407.145 -5.02795 2.75446 0
M  V30 4167 H 405.542 -4.85541 3.52661 0
M  V30 4168 H 406.612 -3.44662 3.41081 0
M  V30 4169 N 407.956 -0.998596 -1.21925 0
M  V30 4170 C 409.196 -0.685948 -1.92546 0
M  V30 4171 C 409.56 0.768441 -1.75952 0
M  V30 4172 O 410.761 1.19277 -2.40887 0
M  V30 4173 C 409.032 -1.08767 -3.40448 0
M  V30 4174 S 410.591 -0.894251 -4.29591 0
M  V30 4175 H 407.409 -0.250622 -0.665364 0
M  V30 4176 H 410.011 -1.28207 -1.47591 0
M  V30 4177 H 408.715 -2.14242 -3.50041 0
M  V30 4178 H 408.246 -0.48357 -3.90417 0
M  V30 4179 H 410.261 0.212149 -4.95746 0
M  V30 4180 N 409.434 1.37368 -0.772513 0
M  V30 4181 C 410.382 2.32134 -0.147111 0
M  V30 4182 C 411.376 1.54972 0.684106 0
M  V30 4183 O 412.582 1.70363 0.581083 0
M  V30 4184 H 408.957 0.751449 -0.028786 0
M  V30 4185 H 410.928 2.82464 -0.962112 0
M  V30 4186 C 409.677 3.40226 0.71703 0
M  V30 4187 H 409 3.99706 0.0867951 0
M  V30 4188 H 410.44 4.08897 1.12159 0
M  V30 4189 C 408.899 2.80372 1.86797 0
M  V30 4190 O 409.429 2.71183 2.96349 0
M  V30 4191 N 407.635 2.37904 1.66883 0
M  V30 4192 H 407.182 2.45578 0.777759 0
M  V30 4193 H 407.14 1.98202 2.44056 0
M  V30 4194 N 410.912 0.523116 1.48665 0
M  V30 4195 C 412.323 0.0808997 1.86525 0
M  V30 4196 C 412.674 -1.33975 1.43336 0
M  V30 4197 O 411.799 -2.00221 0.821009 0
M  V30 4198 C 412.394 0.140037 3.3851 0
M  V30 4199 C 410.953 -0.246948 3.75589 0
M  V30 4200 C 410.1 0.502845 2.72703 0
M  V30 4201 H 413.051 0.734736 1.40667 0
M  V30 4202 H 413.072 -0.649945 3.74908 0
M  V30 4203 H 412.584 1.17412 3.69914 0
M  V30 4204 H 410.685 -1.28343 3.49798 0
M  V30 4205 H 410.798 0.0878859 4.79019 0
M  V30 4206 H 409.162 -0.0500581 2.54651 0
M  V30 4207 H 409.945 1.53743 3.0695 0
M  V30 4208 N 412.39 -1.55475 0.257931 0
M  V30 4209 C 413.638 -1.98813 -0.363009 0
M  V30 4210 C 413.959 -1.14757 -1.57657 0
M  V30 4211 O 413.229 -0.232956 -1.9451 0
M  V30 4212 H 411.809 -0.734308 -0.137113 0
M  V30 4213 H 414.471 -1.9156 0.359281 0
M  V30 4214 H 413.567 -3.04941 -0.664634 0
M  V30 4215 N 413.868 0.0150385 -1.57593 0
M  V30 4216 C 415.116 0.701613 -1.8953 0
M  V30 4217 C 415.437 1.75139 -0.857396 0
M  V30 4218 O 414.707 1.95607 0.107194 0
M  V30 4219 H 413.287 0.26213 -0.699498 0
M  V30 4220 H 415.949 -0.0223304 -1.94887 0
M  V30 4221 H 415.045 1.18236 -2.88837 0
M  V30 4222 N 415.346 1.54954 0.287554 0
M  V30 4223 C 416.593 1.74873 1.02106 0
M  V30 4224 C 416.921 0.541829 1.86801 0
M  V30 4225 O 416.176 -0.475992 1.89823 0
M  V30 4226 C 416.475 2.99833 1.94512 0
M  V30 4227 C 416.141 4.33029 1.25686 0
M  V30 4228 C 414.803 4.69233 1.06649 0
M  V30 4229 C 417.155 5.15542 0.765913 0
M  V30 4230 C 414.483 5.85518 0.372222 0
M  V30 4231 C 416.835 6.32542 0.0853101 0
M  V30 4232 C 415.499 6.67398 -0.1169 0
M  V30 4233 H 414.769 0.639906 0.373632 0
M  V30 4234 H 417.416 1.89219 0.294665 0
M  V30 4235 H 415.721 2.80325 2.73725 0
M  V30 4236 H 417.418 3.1244 2.51361 0
M  V30 4237 H 414.008 4.04564 1.41512 0
M  V30 4238 H 418.192 4.88059 0.90066 0
M  V30 4239 H 413.448 6.11057 0.204695 0
M  V30 4240 H 417.622 6.95741 -0.302936 0
M  V30 4241 H 415.249 7.57357 -0.656859 0
M  V30 4242 N 416.824 -0.551391 1.4764 0
M  V30 4243 C 418.07 -1.31024 1.54792 0
M  V30 4244 C 418.403 -1.9304 0.211967 0
M  V30 4245 O 417.678 -1.78175 -0.77999 0
M  V30 4246 C 417.961 -2.41593 2.67029 0
M  V30 4247 C 417.814 -1.84408 4.10261 0
M  V30 4248 C 419.133 -3.43488 2.75143 0
M  V30 4249 H 416.252 -0.475031 0.563485 0
M  V30 4250 H 418.894 -0.616454 1.79722 0
M  V30 4251 H 417.044 -3.00772 2.45904 0
M  V30 4252 H 418.716 -1.29445 4.42766 0
M  V30 4253 H 416.959 -1.15051 4.18265 0
M  V30 4254 H 417.63 -2.64367 4.84576 0
M  V30 4255 H 420.106 -2.94236 2.94218 0
M  V30 4256 H 418.982 -4.18274 3.55441 0
M  V30 4257 H 419.243 -4.02703 1.82435 0
M  V30 4258 N 418.302 -1.35869 -0.798587 0
M  V30 4259 C 419.232 -1.32118 -1.92528 0
M  V30 4260 C 420.213 -0.194209 -1.68988 0
M  V30 4261 O 421.398 -0.390426 -1.90235 0
M  V30 4262 C 418.528 -1.10047 -3.29404 0
M  V30 4263 C 417.482 -2.19471 -3.67446 0
M  V30 4264 C 416.808 -1.82555 -5.02571 0
M  V30 4265 C 418.108 -3.61495 -3.76987 0
M  V30 4266 H 419.802 -2.26394 -1.95924 0
M  V30 4267 H 417.348 -1.08981 -0.94123 0
M  V30 4268 H 419.301 -1.06061 -4.07835 0
M  V30 4269 H 418.025 -0.122195 -3.26371 0
M  V30 4270 H 416.684 -2.22568 -2.91306 0
M  V30 4271 H 416.332 -0.833249 -4.9605 0
M  V30 4272 H 416.032 -2.5581 -5.28995 0
M  V30 4273 H 417.556 -1.80108 -5.83432 0
M  V30 4274 H 418.97 -3.60676 -4.4563 0
M  V30 4275 H 417.367 -4.33577 -4.14887 0
M  V30 4276 H 418.437 -3.97065 -2.78329 0
M  V30 4277 N 419.78 1.02168 -1.19998 0
M  V30 4278 C 421.026 1.75945 -1.00852 0
M  V30 4279 C 421.359 1.88702 0.458828 0
M  V30 4280 O 420.634 1.40911 1.34069 0
M  V30 4281 C 420.917 3.18154 -1.68671 0
M  V30 4282 C 420.77 3.13224 -3.22817 0
M  V30 4283 C 422.089 4.16711 -1.41561 0
M  V30 4284 H 419.208 0.638673 -0.367785 0
M  V30 4285 H 421.85 1.19222 -1.4794 0
M  V30 4286 H 420 3.66586 -1.28636 0
M  V30 4287 H 421.672 2.72635 -3.72112 0
M  V30 4288 H 419.915 2.50751 -3.53986 0
M  V30 4289 H 420.586 4.13728 -3.65422 0
M  V30 4290 H 423.062 3.76913 -1.76284 0
M  V30 4291 H 421.938 5.14391 -1.91553 0
M  V30 4292 H 422.199 4.40774 -0.342193 0
M  V30 4293 N 421.258 1.00505 1.21394 0
M  V30 4294 C 422.535 0.603277 1.86064 0
M  V30 4295 C 422.915 -0.919095 1.90042 0
M  V30 4296 O 422.263 -1.80607 1.39977 0
M  V30 4297 C 422.473 1.23772 3.26315 0
M  V30 4298 C 423.821 1.34586 4.02705 0
M  V30 4299 O 424.845 1.19304 3.35626 0
M  V30 4300 O 423.704 1.59169 5.22807 0
M  V30 4301 H 420.798 0.206634 0.800769 0
M  V30 4302 H 423.344 1.1017 1.29076 0
M  V30 4303 H 422.116 2.27848 3.18121 0
M  V30 4304 H 421.739 0.725648 3.90922 0
M  V30 4305 N 422.737 -1.36956 0.779787 0
M  V30 4306 C 423.647 -2.33965 0.172491 0
M  V30 4307 C 424.663 -1.60574 -0.670222 0
M  V30 4308 O 425.839 -1.92617 -0.588263 0
M  V30 4309 C 422.904 -3.39761 -0.690173 0
M  V30 4310 C 421.965 -4.28964 0.169924 0
M  V30 4311 C 421.198 -5.29707 -0.651662 0
M  V30 4312 O 421.421 -5.38238 -1.88827 0
M  V30 4313 O 420.355 -6.01873 -0.0566264 0
M  V30 4314 H 424.181 -2.87647 0.974321 0
M  V30 4315 H 421.766 -1.39258 0.541078 0
M  V30 4316 H 423.648 -4.04471 -1.1824 0
M  V30 4317 H 422.323 -2.88394 -1.47006 0
M  V30 4318 H 421.23 -3.67326 0.708696 0
M  V30 4319 H 422.563 -4.83656 0.913085 0
M  V30 4320 N 424.215 -0.530993 -1.48385 0
M  V30 4321 C 425.165 0.251092 -2.26613 0
M  V30 4322 C 426.149 0.908977 -1.32765 0
M  V30 4323 O 427.341 0.811616 -1.57295 0
M  V30 4324 C 424.47 1.29677 -3.17866 0
M  V30 4325 C 423.556 0.643627 -4.19188 0
M  V30 4326 N 423.947 -0.271223 -5.05072 0
M  V30 4327 C 422.245 0.900711 -4.3681 0
M  V30 4328 C 422.946 -0.648109 -5.78078 0
M  V30 4329 N 421.922 -0.00895987 -5.43599 0
M  V30 4330 H 425.724 -0.452702 -2.90393 0
M  V30 4331 H 423.238 -0.349091 -1.58604 0
M  V30 4332 H 425.235 1.87079 -3.72568 0
M  V30 4333 H 423.895 2.00193 -2.55642 0
M  V30 4334 H 424.906 -0.643883 -5.13882 0
M  V30 4335 H 421.583 1.59636 -3.85775 0
M  V30 4336 H 422.973 -1.39833 -6.57188 0
M  V30 4337 N 425.693 1.55336 -0.266172 0
M  V30 4338 C 426.625 2.19544 0.658247 0
M  V30 4339 C 427.638 1.17746 1.12427 0
M  V30 4340 O 428.827 1.44517 1.04772 0
M  V30 4341 C 425.927 2.80032 1.9088 0
M  V30 4342 C 425.1 4.07436 1.59106 0
M  V30 4343 C 424.159 4.52056 2.69317 0
M  V30 4344 O 423.185 5.18023 2.35883 0
M  V30 4345 N 424.387 4.21448 3.99201 0
M  V30 4346 H 427.152 2.99503 0.108754 0
M  V30 4347 H 424.713 1.61667 -0.0869059 0
M  V30 4348 H 426.705 3.06831 2.63888 0
M  V30 4349 H 425.275 2.04119 2.36758 0
M  V30 4350 H 424.495 3.88021 0.695243 0
M  V30 4351 H 425.783 4.90462 1.35367 0
M  V30 4352 H 425.181 3.68528 4.29189 0
M  V30 4353 H 423.738 4.53039 4.68614 0
M  V30 4354 N 427.171 -0.0066808 1.57599 0
M  V30 4355 C 428.587 -0.36267 1.55425 0
M  V30 4356 C 428.787 -1.75209 0.995187 0
M  V30 4357 O 427.843 -2.44616 0.626058 0
M  V30 4358 C 429.156 -0.244017 2.99708 0
M  V30 4359 C 430.704 -0.319451 3.11366 0
M  V30 4360 C 431.179 -0.229998 4.57422 0
M  V30 4361 N 432.67 -0.288105 4.62303 0
M  V30 4362 C 433.405 -0.242127 5.72889 0
M  V30 4363 N 432.901 -0.147133 6.92644 0
M  V30 4364 N 434.694 -0.293502 5.61333 0
M  V30 4365 H 426.845 0.902314 1.92281 0
M  V30 4366 H 429.108 0.34525 0.882896 0
M  V30 4367 H 428.814 0.711678 3.44424 0
M  V30 4368 H 428.688 -1.02877 3.629 0
M  V30 4369 H 431.075 -1.26559 2.66584 0
M  V30 4370 H 431.156 0.495055 2.50964 0
M  V30 4371 H 430.8 0.712566 5.02877 0
M  V30 4372 H 430.73 -1.0629 5.15761 0
M  V30 4373 H 433.221 -0.363126 3.76151 0
M  V30 4374 H 433.534 -0.117763 7.7271 0
M  V30 4375 H 431.879 -0.112857 6.94908 0
M  V30 4376 H 435.07 -0.365864 4.66668 0
M  V30 4377 H 435.243 -0.254204 6.47501 0
M  V30 4378 N 428.649 -1.55105 -0.279332 0
M  V30 4379 C 429.874 -1.7976 -1.03446 0
M  V30 4380 C 430.299 -0.565952 -1.79384 0
M  V30 4381 O 429.657 0.484259 -1.74713 0
M  V30 4382 C 429.705 -3.0179 -1.97371 0
M  V30 4383 O 428.809 -2.76432 -3.06038 0
M  V30 4384 H 428.15 -0.594334 -0.29608 0
M  V30 4385 H 430.68 -2.02235 -0.310165 0
M  V30 4386 H 430.69 -3.30351 -2.39441 0
M  V30 4387 H 429.365 -3.91085 -1.4151 0
M  V30 4388 H 427.942 -2.58949 -2.68328 0
M  V30 4389 N 430.127 0.543554 -1.4793 0
M  V30 4390 C 431.074 1.64942 -1.6144 0
M  V30 4391 C 432.044 1.59692 -0.456903 0
M  V30 4392 O 433.229 1.78321 -0.678688 0
M  V30 4393 C 430.369 3.03238 -1.64744 0
M  V30 4394 C 429.482 3.18823 -2.91506 0
M  V30 4395 C 428.617 4.47599 -2.86057 0
M  V30 4396 C 427.656 4.56664 -4.07584 0
M  V30 4397 N 426.793 5.76811 -4.00292 0
M  V30 4398 H 431.633 1.52733 -2.55884 0
M  V30 4399 H 429.17 0.7438 -1.2691 0
M  V30 4400 H 431.128 3.83339 -1.64641 0
M  V30 4401 H 429.758 3.1425 -0.738017 0
M  V30 4402 H 428.81 2.32064 -3.01414 0
M  V30 4403 H 430.122 3.21384 -3.81463 0
M  V30 4404 H 429.276 5.35975 -2.84281 0
M  V30 4405 H 428.015 4.47538 -1.93807 0
M  V30 4406 H 427.02 3.66697 -4.09651 0
M  V30 4407 H 428.245 4.58474 -5.00978 0
M  V30 4408 H 426.191 5.77673 -3.10853 0
M  V30 4409 H 426.108 5.80808 -4.8394 0
M  V30 4410 H 427.376 6.67512 -4.02553 0
M  V30 4411 N 431.605 1.3629 0.791371 0
M  V30 4412 C 432.552 1.30458 1.90393 0
M  V30 4413 C 433.522 0.173632 1.6519 0
M  V30 4414 O 434.707 0.35983 1.87376 0
M  V30 4415 C 431.847 1.09777 3.27174 0
M  V30 4416 C 430.96 2.31929 3.64462 0
M  V30 4417 C 430.095 2.04276 4.90352 0
M  V30 4418 C 429.134 3.224 5.20312 0
M  V30 4419 N 428.271 2.94424 6.37385 0
M  V30 4420 H 433.111 2.25589 1.94714 0
M  V30 4421 H 430.648 1.12122 0.952216 0
M  V30 4422 H 432.606 0.958133 4.06049 0
M  V30 4423 H 431.236 0.183014 3.22281 0
M  V30 4424 H 430.288 2.56703 2.80727 0
M  V30 4425 H 431.6 3.20085 3.82553 0
M  V30 4426 H 430.754 1.87231 5.77087 0
M  V30 4427 H 429.493 1.13428 4.74326 0
M  V30 4428 H 428.498 3.40005 4.32061 0
M  V30 4429 H 429.723 4.14071 5.38258 0
M  V30 4430 H 427.669 2.06185 6.22755 0
M  V30 4431 H 427.586 3.76118 6.55798 0
M  V30 4432 H 428.854 2.80953 7.27108 0
M  V30 4433 N 433.083 -1.0153 1.20538 0
M  V30 4434 C 434.313 -1.78487 1.04048 0
M  V30 4435 C 434.721 -1.84631 -0.413292 0
M  V30 4436 O 434.064 -1.29919 -1.29872 0
M  V30 4437 C 434.126 -3.24367 1.55003 0
M  V30 4438 C 433.79 -3.41827 3.0332 0
M  V30 4439 C 434.787 -3.30941 4.00966 0
M  V30 4440 C 432.472 -3.67602 3.42307 0
M  V30 4441 C 434.466 -3.45577 5.35589 0
M  V30 4442 C 432.153 -3.81881 4.77085 0
M  V30 4443 C 433.151 -3.70874 5.73534 0
M  V30 4444 O 432.839 -3.84714 7.05868 0
M  V30 4445 H 432.571 -0.568108 0.366373 0
M  V30 4446 H 435.125 -1.28677 1.60098 0
M  V30 4447 H 433.355 -3.75266 0.933397 0
M  V30 4448 H 435.044 -3.82963 1.34514 0
M  V30 4449 H 435.81 -3.10964 3.72191 0
M  V30 4450 H 431.689 -3.75256 2.67776 0
M  V30 4451 H 435.233 -3.36902 6.10854 0
M  V30 4452 H 431.13 -4.01359 5.0555 0
M  V30 4453 H 431.898 -4.01724 7.13134 0
M  V30 4454 N 434.561 -1.01147 -1.20859 0
M  V30 4455 C 435.524 -0.582224 -2.21682 0
M  V30 4456 C 436.524 0.344887 -1.57058 0
M  V30 4457 O 437.714 0.134281 -1.73682 0
M  V30 4458 C 434.846 0.150496 -3.40568 0
M  V30 4459 H 436.039 -1.47408 -2.61172 0
M  V30 4460 H 433.592 -0.800695 -1.34233 0
M  V30 4461 H 434.327 1.0575 -3.06574 0
M  V30 4462 H 434.112 -0.515444 -3.88697 0
M  V30 4463 H 435.602 0.438344 -4.15293 0
M  V30 4464 N 436.039 1.36541 -0.78704 0
M  V30 4465 C 436.987 2.31965 -0.171724 0
M  V30 4466 C 437.981 1.55689 0.667631 0
M  V30 4467 O 439.187 1.70969 0.562981 0
M  V30 4468 H 435.562 0.751101 -0.0367545 0
M  V30 4469 H 437.533 2.81428 -0.992017 0
M  V30 4470 C 436.282 3.40968 0.680904 0
M  V30 4471 H 435.605 3.99775 0.0443961 0
M  V30 4472 H 437.045 4.10063 1.07815 0
M  V30 4473 C 435.504 2.82338 1.83813 0
M  V30 4474 O 436.034 2.74311 2.93456 0
M  V30 4475 N 434.24 2.39661 1.6435 0
M  V30 4476 H 433.787 2.46389 0.751668 0
M  V30 4477 H 433.745 2.00779 2.4194 0
M  V30 4478 N 437.518 0.538854 1.48102 0
M  V30 4479 C 438.767 0.0059532 2.01699 0
M  V30 4480 C 439.08 -1.34476 1.42041 0
M  V30 4481 O 440.286 -1.96653 1.87189 0
M  V30 4482 C 438.742 -0.0397627 3.59878 0
M  V30 4483 C 438.35 1.30659 4.28523 0
M  V30 4484 C 440.094 -0.521024 4.2129 0
M  V30 4485 C 438.001 1.22098 5.78659 0
M  V30 4486 H 436.931 -0.00154456 0.753998 0
M  V30 4487 H 439.582 0.683963 1.70277 0
M  V30 4488 H 437.964 -0.783037 3.88181 0
M  V30 4489 H 439.138 2.06613 4.11883 0
M  V30 4490 H 437.453 1.7243 3.79021 0
M  V30 4491 H 440.05 -0.603184 5.31287 0
M  V30 4492 H 440.393 -1.52885 3.8721 0
M  V30 4493 H 440.926 0.166834 3.9745 0
M  V30 4494 H 437.665 2.20424 6.17328 0
M  V30 4495 H 437.185 0.50295 5.97688 0
M  V30 4496 H 438.864 0.915345 6.40492 0
M  V30 4497 N 438.996 -1.55193 0.274407 0
M  V30 4498 C 440.243 -1.99581 -0.342579 0
M  V30 4499 C 440.571 -1.1628 -1.55914 0
M  V30 4500 O 439.826 -0.22029 -1.94456 0
M  V30 4501 C 440.125 -3.49019 -0.769458 0
M  V30 4502 C 439.791 -4.49598 0.342389 0
M  V30 4503 C 438.453 -4.76821 0.647686 0
M  V30 4504 C 440.805 -5.0964 1.09163 0
M  V30 4505 C 438.133 -5.61354 1.70581 0
M  V30 4506 C 440.485 -5.95323 2.13948 0
M  V30 4507 C 439.149 -6.20867 2.45113 0
M  V30 4508 H 438.419 -0.730319 -0.125358 0
M  V30 4509 H 441.066 -1.87529 0.387971 0
M  V30 4510 H 439.371 -3.58544 -1.57967 0
M  V30 4511 H 441.068 -3.8077 -1.25757 0
M  V30 4512 H 437.658 -4.28496 0.094318 0
M  V30 4513 H 441.842 -4.88632 0.869024 0
M  V30 4514 H 437.098 -5.79392 1.9523 0
M  V30 4515 H 441.272 -6.40881 2.72478 0
M  V30 4516 H 438.899 -6.86162 3.27239 0
M  V30 4517 N 440.474 -0.00167713 -1.576 0
M  V30 4518 C 441.437 0.974046 -2.07473 0
M  V30 4519 C 442.437 1.27143 -0.984444 0
M  V30 4520 O 443.627 1.21633 -1.24703 0
M  V30 4521 C 440.759 2.29849 -2.51759 0
M  V30 4522 H 441.952 0.54262 -2.9495 0
M  V30 4523 H 439.505 0.245829 -1.54355 0
M  V30 4524 H 440.24 2.77677 -1.67529 0
M  V30 4525 H 440.025 2.09584 -3.31386 0
M  V30 4526 H 441.515 2.9984 -2.90664 0
M  V30 4527 N 441.952 1.55251 0.271103 0
M  V30 4528 C 442.915 1.87484 1.31842 0
M  V30 4529 C 443.915 0.749545 1.42262 0
M  V30 4530 O 445.105 1.01771 1.4138 0
M  V30 4531 C 442.237 2.0818 2.69951 0
M  V30 4532 H 443.43 2.81108 1.0449 0
M  V30 4533 H 440.983 1.47771 0.509258 0
M  V30 4534 H 441.718 1.16944 3.02481 0
M  V30 4535 H 441.503 2.90114 2.63774 0
M  V30 4536 H 442.993 2.34385 3.4562 0
M  V30 4537 N 443.43 -0.535701 1.48216 0
M  V30 4538 C 444.678 -1.28928 1.55634 0
M  V30 4539 C 444.999 -1.93645 0.229514 0
M  V30 4540 O 444.269 -1.81038 -0.74846 0
M  V30 4541 H 442.849 -0.47884 0.573342 0
M  V30 4542 H 445.511 -0.623853 1.84646 0
M  V30 4543 H 444.607 -2.07157 2.33436 0
M  V30 4544 N 444.908 -1.36708 -0.784132 0
M  V30 4545 C 446.157 -1.30559 -1.53744 0
M  V30 4546 C 446.47 0.111374 -1.95283 0
M  V30 4547 O 447.676 0.29527 -2.6989 0
M  V30 4548 C 446.132 -2.29098 -2.77565 0
M  V30 4549 C 445.74 -3.76258 -2.43174 0
M  V30 4550 C 447.484 -2.31936 -3.55536 0
M  V30 4551 C 445.391 -4.6656 -3.63422 0
M  V30 4552 H 444.321 -0.48518 -0.577162 0
M  V30 4553 H 446.972 -1.62101 -0.859981 0
M  V30 4554 H 445.354 -1.90557 -3.47137 0
M  V30 4555 H 446.528 -4.23565 -1.81465 0
M  V30 4556 H 444.843 -3.76246 -1.78403 0
M  V30 4557 H 447.44 -2.9661 -4.44889 0
M  V30 4558 H 447.783 -1.3294 -3.94503 0
M  V30 4559 H 448.316 -2.6912 -2.92949 0
M  V30 4560 H 445.055 -5.66638 -3.29547 0
M  V30 4561 H 444.575 -4.23966 -4.24279 0
M  V30 4562 H 446.254 -4.8309 -4.30387 0
M  V30 4563 N 446.386 1.0089 -1.21074 0
M  V30 4564 C 447.349 2.0775 -0.968129 0
M  V30 4565 C 448.349 1.6069 0.0593445 0
M  V30 4566 O 449.539 1.73293 -0.177525 0
M  V30 4567 C 446.671 3.37794 -0.459108 0
M  V30 4568 H 447.864 2.30707 -1.9161 0
M  V30 4569 H 445.417 1.17807 -1.02719 0
M  V30 4570 H 446.152 3.20516 0.49397 0
M  V30 4571 H 445.937 3.7328 -1.20019 0
M  V30 4572 H 447.427 4.16454 -0.309099 0
M  V30 4573 N 447.864 1.01787 1.20321 0
M  V30 4574 C 449.113 0.703249 1.89043 0
M  V30 4575 C 449.426 -0.770445 1.79787 0
M  V30 4576 O 450.632 -1.19767 2.43656 0
M  V30 4577 C 449.088 1.20749 3.3904 0
M  V30 4578 C 448.696 2.70817 3.56878 0
M  V30 4579 C 450.44 0.968352 4.13308 0
M  V30 4580 C 448.347 3.14716 5.00708 0
M  V30 4581 H 447.277 0.259354 0.707991 0
M  V30 4582 H 449.928 1.23072 1.36108 0
M  V30 4583 H 448.31 0.607989 3.91305 0
M  V30 4584 H 449.484 3.36327 3.14993 0
M  V30 4585 H 447.799 2.92888 2.95983 0
M  V30 4586 H 450.396 1.27173 5.19356 0
M  V30 4587 H 450.739 -0.095149 4.16191 0
M  V30 4588 H 451.272 1.53129 3.67146 0
M  V30 4589 H 448.011 4.20347 5.02979 0
M  V30 4590 H 447.531 2.53927 5.43398 0
M  V30 4591 H 449.21 3.07426 5.69296 0
M  V30 4592 N 449.342 -1.36122 0.79427 0
M  V30 4593 C 450.305 -2.28309 0.201889 0
M  V30 4594 C 451.305 -1.49041 -0.603603 0
M  V30 4595 O 452.495 -1.68964 -0.423888 0
M  V30 4596 C 449.627 -3.3321 -0.719978 0
M  V30 4597 H 450.82 -2.82208 1.01481 0
M  V30 4598 H 448.373 -1.45768 0.564037 0
M  V30 4599 H 449.108 -2.84475 -1.55706 0
M  V30 4600 H 448.893 -3.91835 -0.144266 0
M  V30 4601 H 450.383 -4.02044 -1.12916 0
M  V30 4602 N 450.82 -0.546701 -1.47814 0
M  V30 4603 C 452.069 -0.0166497 -2.01693 0
M  V30 4604 C 452.382 1.33721 -1.42752 0
M  V30 4605 O 453.588 1.95658 -1.8823 0
M  V30 4606 C 452.044 0.0206769 -3.59894 0
M  V30 4607 C 451.652 -1.3293 -4.27824 0
M  V30 4608 C 453.396 0.498674 -4.21561 0
M  V30 4609 C 451.303 -1.25165 -5.78003 0
M  V30 4610 H 450.233 -0.0024541 -0.753996 0
M  V30 4611 H 452.884 -0.692984 -1.69912 0
M  V30 4612 H 451.266 0.76244 -3.88591 0
M  V30 4613 H 452.44 -2.08795 -4.10781 0
M  V30 4614 H 450.755 -1.74438 -3.78101 0
M  V30 4615 H 453.352 0.575 -5.31599 0
M  V30 4616 H 453.695 1.5083 -3.88016 0
M  V30 4617 H 454.228 -0.18791 -3.97356 0
M  V30 4618 H 450.967 -2.23695 -6.1615 0
M  V30 4619 H 450.487 -0.53464 -5.97412 0
M  V30 4620 H 452.166 -0.949299 -6.39998 0
M  V30 4621 N 452.299 1.55045 -0.282633 0
M  V30 4622 C 453.71 1.85473 0.213655 0
M  V30 4623 C 454.061 1.20465 1.54863 0
M  V30 4624 O 453.186 0.495676 2.10647 0
M  V30 4625 C 453.781 3.36496 0.394445 0
M  V30 4626 C 452.34 3.67022 0.834961 0
M  V30 4627 C 451.487 2.77218 -0.0674081 0
M  V30 4628 H 454.438 1.50478 -0.504202 0
M  V30 4629 H 454.459 3.60007 1.23186 0
M  V30 4630 H 453.971 3.83782 -0.577326 0
M  V30 4631 H 452.072 3.25241 1.81794 0
M  V30 4632 H 452.185 4.74433 0.667075 0
M  V30 4633 H 450.549 2.5069 0.450196 0
M  V30 4634 H 451.332 3.2732 -1.0352 0
M  V30 4635 N 453.777 0.010035 1.57597 0
M  V30 4636 C 455.188 -0.531426 1.78977 0
M  V30 4637 C 455.539 -1.73375 0.918454 0
M  V30 4638 O 454.664 -2.16047 0.123635 0
M  V30 4639 C 455.259 -0.97086 3.24592 0
M  V30 4640 C 453.818 -1.45756 3.47033 0
M  V30 4641 C 452.965 -0.413384 2.74201 0
M  V30 4642 H 455.916 0.236166 1.56933 0
M  V30 4643 H 455.937 -1.83633 3.33255 0
M  V30 4644 H 455.449 -0.0955893 3.87982 0
M  V30 4645 H 453.55 -2.35339 2.88871 0
M  V30 4646 H 453.663 -1.4781 4.55729 0
M  V30 4647 H 452.027 -0.877266 2.39115 0
M  V30 4648 H 452.81 0.453092 3.40297 0
M  V30 4649 N 455.255 -1.55392 -0.262866 0
M  V30 4650 C 456.501 -1.76737 -0.99458 0
M  V30 4651 C 456.834 -0.572453 -1.85571 0
M  V30 4652 O 456.109 0.429732 -1.89693 0
M  V30 4653 C 456.392 -3.07824 -1.8686 0
M  V30 4654 C 456.245 -4.3769 -1.03672 0
M  V30 4655 C 457.564 -3.35021 -2.85393 0
M  V30 4656 H 454.683 -0.643005 -0.360157 0
M  V30 4657 H 457.325 -1.88126 -0.266216 0
M  V30 4658 H 455.475 -2.98245 -2.48962 0
M  V30 4659 H 457.147 -4.59238 -0.43563 0
M  V30 4660 H 455.39 -4.32461 -0.340513 0
M  V30 4661 H 456.061 -5.25759 -1.6817 0
M  V30 4662 H 458.537 -3.44458 -2.33426 0
M  V30 4663 H 457.413 -4.27989 -3.43681 0
M  V30 4664 H 457.674 -2.55153 -3.61039 0
M  V30 4665 N 456.733 0.527833 -1.48498 0
M  V30 4666 C 457.643 1.65907 -1.65867 0
M  V30 4667 C 458.659 1.6537 -0.541192 0
M  V30 4668 O 459.835 1.84282 -0.812534 0
M  V30 4669 C 456.9 3.02364 -1.69637 0
M  V30 4670 C 455.961 3.1374 -2.93028 0
M  V30 4671 C 455.194 4.43688 -2.96609 0
M  V30 4672 O 455.417 5.30913 -2.08538 0
M  V30 4673 O 454.351 4.59475 -3.88802 0
M  V30 4674 H 458.177 1.5419 -2.61647 0
M  V30 4675 H 455.762 0.701163 -1.31924 0
M  V30 4676 H 457.644 3.83515 -1.74625 0
M  V30 4677 H 456.319 3.14401 -0.770312 0
M  V30 4678 H 455.226 2.31877 -2.93571 0
M  V30 4679 H 456.559 3.06621 -3.85026 0
M  V30 4680 N 458.211 1.37122 0.776871 0
M  V30 4681 C 459.439 1.3523 1.5659 0
M  V30 4682 C 459.854 -0.0635518 1.88693 0
M  V30 4683 O 459.211 -1.02394 1.51069 0
M  V30 4684 C 459.262 2.18583 2.8793 0
M  V30 4685 O 458.983 3.5465 2.57206 0
M  V30 4686 C 460.484 2.24612 3.82183 0
M  V30 4687 H 457.704 0.4634 0.485285 0
M  V30 4688 H 460.248 1.80392 0.963266 0
M  V30 4689 H 458.403 1.76943 3.4463 0
M  V30 4690 H 458.817 3.98286 3.41275 0
M  V30 4691 H 460.291 2.87267 4.71361 0
M  V30 4692 H 460.768 1.25309 4.20944 0
M  V30 4693 H 461.374 2.66543 3.31414 0
M  V30 4694 N 459.689 -1.00246 1.21608 0
M  V30 4695 C 460.917 -1.77631 1.06089 0
M  V30 4696 C 461.332 -1.84746 -0.38916 0
M  V30 4697 O 460.689 -1.31068 -1.26994 0
M  V30 4698 C 460.74 -3.21415 1.65453 0
M  V30 4699 O 460.461 -3.14703 3.04785 0
M  V30 4700 C 461.962 -4.15289 1.55079 0
M  V30 4701 H 459.182 -0.558162 0.37242 0
M  V30 4702 H 461.726 -1.26093 1.60999 0
M  V30 4703 H 459.881 -3.70053 1.14629 0
M  V30 4704 H 460.295 -4.05056 3.33212 0
M  V30 4705 H 461.769 -5.13965 2.01355 0
M  V30 4706 H 462.246 -4.36279 0.505665 0
M  V30 4707 H 462.852 -3.72543 2.05163 0
M  V30 4708 N 461.167 -1.02423 -1.1978 0
M  V30 4709 C 462.578 -0.748389 -1.71044 0
M  V30 4710 C 462.929 0.732398 -1.82017 0
M  V30 4711 O 462.054 1.57116 -1.48807 0
M  V30 4712 C 462.649 -1.35187 -3.1066 0
M  V30 4713 C 461.208 -1.12472 -3.59203 0
M  V30 4714 C 460.355 -1.45283 -2.36195 0
M  V30 4715 H 463.306 -1.19275 -1.04686 0
M  V30 4716 H 463.327 -0.746408 -3.73107 0
M  V30 4717 H 462.839 -2.4296 -3.02642 0
M  V30 4718 H 460.94 -0.0649983 -3.72543 0
M  V30 4719 H 461.053 -1.81016 -4.43588 0
M  V30 4720 H 459.417 -0.872034 -2.39307 0
M  V30 4721 H 460.2 -2.54129 -2.30811 0
M  V30 4722 N 462.645 1.35699 -0.801477 0
M  V30 4723 C 463.891 1.99208 -0.380022 0
M  V30 4724 C 464.224 1.63445 1.04878 0
M  V30 4725 O 463.499 0.895223 1.72673 0
M  V30 4726 C 463.782 3.55755 -0.557708 0
M  V30 4727 C 463.635 4.01332 -2.03107 0
M  V30 4728 C 464.954 4.40096 0.0197968 0
M  V30 4729 H 462.073 0.723667 -0.139552 0
M  V30 4730 H 464.715 1.60928 -1.01006 0
M  V30 4731 H 462.865 3.88494 -0.0213741 0
M  V30 4732 H 464.537 3.79026 -2.62939 0
M  V30 4733 H 462.78 3.52429 -2.52936 0
M  V30 4734 H 463.451 5.10234 -2.1063 0
M  V30 4735 H 465.927 4.13786 -0.438179 0
M  V30 4736 H 464.803 5.48735 -0.134477 0
M  V30 4737 H 465.064 4.2786 1.11303 0
M  V30 4738 N 464.123 0.554532 1.47522 0
M  V30 4739 C 465.534 0.120446 1.86311 0
M  V30 4740 C 465.885 -1.30904 1.46145 0
M  V30 4741 O 465.01 -1.98434 0.863294 0
M  V30 4742 C 465.605 0.211808 3.38137 0
M  V30 4743 C 464.164 -0.167224 3.76028 0
M  V30 4744 C 463.311 0.560576 2.71575 0
M  V30 4745 H 466.262 0.764408 1.39077 0
M  V30 4746 H 466.283 -0.570275 3.76202 0
M  V30 4747 H 465.795 1.25232 3.6734 0
M  V30 4748 H 463.896 -1.20894 3.52442 0
M  V30 4749 H 464.009 0.189473 4.78725 0
M  V30 4750 H 462.373 0.00396836 2.547 0
M  V30 4751 H 463.156 1.60219 3.0362 0
M  V30 4752 N 465.601 -1.54893 0.290851 0
M  V30 4753 C 466.829 -2.04343 -0.324288 0
M  V30 4754 C 467.244 -1.16859 -1.48289 0
M  V30 4755 O 466.601 -0.192018 -1.81487 0
M  V30 4756 C 466.652 -3.52756 -0.79026 0
M  V30 4757 O 466.373 -4.36913 0.322213 0
M  V30 4758 C 467.874 -4.18161 -1.4716 0
M  V30 4759 H 465.094 -0.667135 -0.0719173 0
M  V30 4760 H 467.638 -1.99981 0.427529 0
M  V30 4761 H 465.793 -3.57511 -1.49213 0
M  V30 4762 H 466.207 -5.24486 -0.0387372 0
M  V30 4763 H 467.681 -5.23562 -1.7489 0
M  V30 4764 H 468.158 -3.67282 -2.40834 0
M  V30 4765 H 468.764 -4.17454 -0.813178 0
M  V30 4766 N 467.08 -0.0183926 -1.57589 0
M  V30 4767 C 468.328 0.661253 -1.90976 0
M  V30 4768 C 468.649 1.73281 -0.894353 0
M  V30 4769 O 467.919 1.9579 0.0656788 0
M  V30 4770 H 466.499 0.247233 -0.704901 0
M  V30 4771 H 469.161 -0.0636639 -1.94796 0
M  V30 4772 H 468.257 1.12083 -2.9128 0
M  V30 4773 N 468.558 1.5553 0.254621 0
M  V30 4774 C 469.521 1.88872 1.29846 0
M  V30 4775 C 470.521 0.764591 1.41459 0
M  V30 4776 O 471.711 1.03265 1.40293 0
M  V30 4777 C 468.843 2.11032 2.67728 0
M  V30 4778 H 470.036 2.82201 1.01502 0
M  V30 4779 H 467.589 1.48303 0.493556 0
M  V30 4780 H 468.324 1.20146 3.01223 0
M  V30 4781 H 468.109 2.92895 2.60682 0
M  V30 4782 H 469.599 2.38038 3.43115 0
M  V30 4783 N 470.036 -0.519951 1.48776 0
M  V30 4784 C 471.447 -1.10177 1.50725 0
M  V30 4785 C 471.798 -1.94153 0.282678 0
M  V30 4786 O 470.923 -2.07645 -0.609298 0
M  V30 4787 C 471.518 -2.00482 2.73116 0
M  V30 4788 C 470.077 -2.53862 2.77905 0
M  V30 4789 C 469.224 -1.31047 2.44381 0
M  V30 4790 H 472.175 -0.30473 1.55747 0
M  V30 4791 H 472.196 -2.8491 2.52203 0
M  V30 4792 H 471.708 -1.39335 3.62225 0
M  V30 4793 H 469.809 -3.18702 1.93029 0
M  V30 4794 H 469.922 -2.9231 3.79594 0
M  V30 4795 H 468.286 -1.62953 1.95751 0
M  V30 4796 H 469.069 -0.71637 3.35743 0
M  V30 4797 N 471.514 -1.37532 -0.769588 0
M  V30 4798 C 472.461 -1.3347 -1.88293 0
M  V30 4799 C 473.431 -0.199891 -1.64893 0
M  V30 4800 O 474.616 -0.389594 -1.8678 0
M  V30 4801 C 471.756 -1.14968 -3.25387 0
M  V30 4802 C 470.869 -2.37698 -3.60727 0
M  V30 4803 C 470.004 -2.12051 -4.8704 0
M  V30 4804 C 469.043 -3.30636 -5.15117 0
M  V30 4805 N 468.18 -3.04527 -6.3262 0
M  V30 4806 H 473.02 -2.28658 -1.911 0
M  V30 4807 H 470.557 -1.13622 -0.934257 0
M  V30 4808 H 472.515 -1.02261 -4.04473 0
M  V30 4809 H 471.145 -0.234263 -3.21949 0
M  V30 4810 H 470.197 -2.61137 -2.76608 0
M  V30 4811 H 471.509 -3.26131 -3.77413 0
M  V30 4812 H 470.663 -1.96388 -5.74035 0
M  V30 4813 H 469.402 -1.20959 -4.72462 0
M  V30 4814 H 468.407 -3.46836 -4.26597 0
M  V30 4815 H 469.632 -4.22582 -5.31603 0
M  V30 4816 H 467.578 -2.16067 -6.19396 0
M  V30 4817 H 467.495 -3.86503 -6.49732 0
M  V30 4818 H 468.763 -2.92485 -7.22546 0
M  V30 4819 N 472.992 0.995999 -1.22138 0
M  V30 4820 C 474.22 1.77066 -1.07029 0
M  V30 4821 C 474.635 1.8495 0.379357 0
M  V30 4822 O 473.992 1.3174 1.26297 0
M  V30 4823 C 474.043 3.20533 -1.67155 0
M  V30 4824 O 473.764 3.13082 -3.06449 0
M  V30 4825 C 475.265 4.14461 -1.5728 0
M  V30 4826 H 472.485 0.556179 -0.375374 0
M  V30 4827 H 475.029 1.25238 -1.61666 0
M  V30 4828 H 473.184 3.6944 -1.16589 0
M  V30 4829 H 473.598 4.03283 -3.35355 0
M  V30 4830 H 475.072 5.1289 -2.04078 0
M  V30 4831 H 475.549 4.36005 -0.528795 0
M  V30 4832 H 476.155 3.71449 -2.07136 0
M  V30 4833 N 474.47 1.03057 1.19235 0
M  V30 4834 C 475.718 0.726581 1.88587 0
M  V30 4835 C 476.039 -0.747227 1.80115 0
M  V30 4836 O 475.309 -1.53849 1.21274 0
M  V30 4837 H 473.889 0.265768 0.698124 0
M  V30 4838 H 476.551 1.30516 1.44746 0
M  V30 4839 H 475.647 1.0224 2.94879 0
M  V30 4840 N 475.948 -1.35272 0.808662 0
M  V30 4841 C 477.178 -2.02652 0.401953 0
M  V30 4842 C 477.586 -1.6108 -0.992462 0
M  V30 4843 O 476.929 -0.804984 -1.65123 0
M  V30 4844 C 476.991 -3.57174 0.408246 0
M  V30 4845 C 476.655 -4.22019 1.75353 0
M  V30 4846 C 477.652 -4.43552 2.71215 0
M  V30 4847 C 475.337 -4.59093 2.03811 0
M  V30 4848 C 477.331 -5.01264 3.93717 0
M  V30 4849 C 475.018 -5.16519 3.26576 0
M  V30 4850 C 476.016 -5.37546 4.21347 0
M  V30 4851 O 475.704 -5.93761 5.41944 0
M  V30 4852 H 475.436 -0.656495 0.161216 0
M  V30 4853 H 477.99 -1.73829 1.0942 0
M  V30 4854 H 476.22 -3.85197 -0.340608 0
M  V30 4855 H 477.909 -4.05893 0.0235623 0
M  V30 4856 H 478.675 -4.15288 2.50522 0
M  V30 4857 H 474.554 -4.42039 1.30854 0
M  V30 4858 H 478.098 -5.17592 4.67701 0
M  V30 4859 H 473.995 -5.4421 3.47139 0
M  V30 4860 H 474.763 -6.1221 5.43269 0
M  V30 4861 N 477.426 -0.562348 -1.47226 0
M  V30 4862 C 478.359 0.230405 -2.27034 0
M  V30 4863 C 479.337 0.915609 -1.3437 0
M  V30 4864 O 480.521 0.933573 -1.63758 0
M  V30 4865 C 477.648 1.32874 -3.11548 0
M  V30 4866 C 476.694 0.751552 -4.19826 0
M  V30 4867 S 477.527 -0.405848 -5.3396 0
M  V30 4868 C 478.683 0.694186 -6.22038 0
M  V30 4869 H 478.916 -0.446811 -2.93923 0
M  V30 4870 H 476.449 -0.348781 -1.50409 0
M  V30 4871 H 478.407 1.95773 -3.60809 0
M  V30 4872 H 477.068 1.97782 -2.44011 0
M  V30 4873 H 476.261 1.57651 -4.78709 0
M  V30 4874 H 475.863 0.198645 -3.73472 0
M  V30 4875 H 478.155 1.58501 -6.58698 0
M  V30 4876 H 479.098 0.142592 -7.07956 0
M  V30 4877 H 479.506 0.989169 -5.55766 0
M  V30 4878 N 478.904 1.54736 -0.299062 0
M  V30 4879 C 480.153 1.99279 0.311549 0
M  V30 4880 C 480.466 1.19107 1.55154 0
M  V30 4881 O 481.672 1.53908 2.23662 0
M  V30 4882 C 480.128 3.54768 0.605632 0
M  V30 4883 C 479.736 4.43746 -0.615914 0
M  V30 4884 C 481.48 4.07841 1.17754 0
M  V30 4885 C 479.387 5.90663 -0.29509 0
M  V30 4886 H 478.317 0.744359 0.120187 0
M  V30 4887 H 480.968 1.78919 -0.407464 0
M  V30 4888 H 479.35 3.71021 1.38419 0
M  V30 4889 H 480.524 4.39267 -1.39218 0
M  V30 4890 H 478.839 4.01434 -1.10633 0
M  V30 4891 H 481.436 5.15174 1.43179 0
M  V30 4892 H 481.779 3.58324 2.11918 0
M  V30 4893 H 482.312 3.95123 0.460739 0
M  V30 4894 H 479.051 6.44325 -1.20524 0
M  V30 4895 H 478.571 5.98155 0.44394 0
M  V30 4896 H 480.25 6.46916 0.104048 0
M  V30 4897 N 480.382 0.0267497 1.57577 0
M  V30 4898 C 481.292 -0.971633 2.13533 0
M  V30 4899 C 482.308 -1.35868 1.08701 0
M  V30 4900 O 483.484 -1.44058 1.40746 0
M  V30 4901 C 480.549 -2.23622 2.64941 0
M  V30 4902 C 479.61 -1.90982 3.8448 0
M  V30 4903 C 478.843 -3.11411 4.33427 0
M  V30 4904 O 479.066 -4.23992 3.81558 0
M  V30 4905 O 478 -2.93848 5.25297 0
M  V30 4906 H 481.826 -0.525853 2.99113 0
M  V30 4907 H 479.411 -0.193712 1.48139 0
M  V30 4908 H 481.293 -2.97864 2.98086 0
M  V30 4909 H 479.968 -2.67386 1.82446 0
M  V30 4910 H 478.875 -1.14132 3.56265 0
M  V30 4911 H 480.208 -1.52036 4.6813 0
M  V30 4912 N 481.861 -1.55662 -0.24637 0
M  V30 4913 C 483.086 -1.81914 -0.996093 0
M  V30 4914 C 483.511 -0.603875 -1.78143 0
M  V30 4915 O 482.869 0.447091 -1.75701 0
M  V30 4916 C 482.917 -3.05908 -1.90925 0
M  V30 4917 O 482.021 -2.82861 -3.00105 0
M  V30 4918 H 481.362 -0.600481 -0.283406 0
M  V30 4919 H 483.892 -2.02848 -0.267199 0
M  V30 4920 H 483.902 -3.35356 -2.3238 0
M  V30 4921 H 482.577 -3.93999 -1.33183 0
M  V30 4922 H 481.154 -2.64583 -2.62775 0
M  V30 4923 N 483.339 0.512053 -1.4905 0
M  V30 4924 C 484.272 1.63209 -1.59493 0
M  V30 4925 C 485.25 1.56407 -0.444481 0
M  V30 4926 O 486.434 1.76623 -0.658535 0
M  V30 4927 C 483.561 3.01685 -1.53961 0
M  V30 4928 C 482.607 3.26786 -2.74068 0
M  V30 4929 S 483.44 3.11107 -4.35859 0
M  V30 4930 C 484.596 4.51997 -4.32954 0
M  V30 4931 H 484.829 1.54104 -2.54243 0
M  V30 4932 H 482.362 0.696382 -1.37804 0
M  V30 4933 H 484.32 3.81538 -1.51455 0
M  V30 4934 H 482.981 3.08215 -0.605178 0
M  V30 4935 H 482.174 4.27849 -2.66386 0
M  V30 4936 H 481.776 2.54635 -2.73928 0
M  V30 4937 H 484.068 5.43871 -4.03993 0
M  V30 4938 H 485.011 4.64731 -5.34257 0
M  V30 4939 H 485.419 4.32159 -3.63178 0
M  V30 4940 N 484.817 1.37938 0.762283 0
M  V30 4941 C 486.063 1.33866 1.52341 0
M  V30 4942 C 486.396 -0.0738961 1.94059 0
M  V30 4943 O 485.671 -1.03326 1.64785 0
M  V30 4944 C 485.954 2.28644 2.78197 0
M  V30 4945 C 485.807 3.78722 2.42672 0
M  V30 4946 C 487.126 2.21702 3.80179 0
M  V30 4947 H 484.245 0.487593 0.55265 0
M  V30 4948 H 486.887 1.68717 0.873767 0
M  V30 4949 H 485.037 1.99055 3.33631 0
M  V30 4950 H 486.709 4.18948 1.93081 0
M  V30 4951 H 484.952 3.96827 1.75244 0
M  V30 4952 H 485.623 4.40486 3.3268 0
M  V30 4953 H 488.099 2.47805 3.34263 0
M  V30 4954 H 486.975 2.90143 4.65949 0
M  V30 4955 H 487.236 1.21301 4.25133 0
M  V30 4956 N 486.295 -0.989507 1.22664 0
M  V30 4957 C 487.52 -1.77031 1.08051 0
M  V30 4958 C 487.945 -1.84535 -0.364483 0
M  V30 4959 O 487.303 -1.3003 -1.2634 0
M  V30 4960 C 487.351 -3.18 1.70024 0
M  V30 4961 O 486.455 -4.01161 0.956216 0
M  V30 4962 H 485.796 -0.545008 0.379292 0
M  V30 4963 H 488.326 -1.24277 1.62531 0
M  V30 4964 H 488.336 -3.68616 1.74888 0
M  V30 4965 H 487.011 -3.11853 2.75174 0
M  V30 4966 H 485.588 -3.59687 0.98384 0
M  V30 4967 N 487.773 -1.03688 -1.18687 0
M  V30 4968 C 488.736 -0.629115 -2.20397 0
M  V30 4969 C 489.736 0.311495 -1.57754 0
M  V30 4970 O 490.926 0.0974107 -1.73927 0
M  V30 4971 C 488.058 0.0782231 -3.4081 0
M  V30 4972 H 489.251 -1.52915 -2.57987 0
M  V30 4973 H 486.804 -0.828988 -1.32505 0
M  V30 4974 H 487.539 0.992233 -3.08748 0
M  V30 4975 H 487.324 -0.597776 -3.87517 0
M  V30 4976 H 488.814 0.350156 -4.16129 0
M  V30 4977 N 489.251 1.34841 -0.815825 0
M  V30 4978 C 490.214 2.27959 -0.238185 0
M  V30 4979 C 491.214 1.49983 0.579816 0
M  V30 4980 O 492.404 1.69617 0.396953 0
M  V30 4981 C 489.536 3.34314 0.666876 0
M  V30 4982 H 490.729 2.80558 -1.05958 0
M  V30 4983 H 488.282 1.44852 -0.587156 0
M  V30 4984 H 489.017 2.86916 1.5116 0
M  V30 4985 H 488.802 3.92014 0.0819106 0
M  V30 4986 H 490.292 4.0379 1.06506 0
M  V30 4987 N 490.729 0.570148 1.46925 0
M  V30 4988 C 491.975 0.0510284 2.02736 0
M  V30 4989 C 492.308 -1.3006 1.44215 0
M  V30 4990 O 491.583 -1.84932 0.602521 0
M  V30 4991 C 491.866 -0.028215 3.60089 0
M  V30 4992 C 491.719 1.35142 4.29018 0
M  V30 4993 C 493.038 -0.735181 4.33916 0
M  V30 4994 H 490.157 0.0200178 0.736728 0
M  V30 4995 H 492.799 0.73493 1.75211 0
M  V30 4996 H 490.949 -0.610648 3.83671 0
M  V30 4997 H 492.621 1.97806 4.16738 0
M  V30 4998 H 490.864 1.9226 3.88868 0
M  V30 4999 H 491.535 1.24857 5.37694 0
M  V30 5000 H 494.011 -0.240519 4.15404 0
M  V30 5001 H 492.887 -0.759622 5.43618 0
M  V30 5002 H 493.148 -1.79397 4.04066 0
M  V30 5003 N 492.207 -1.54576 0.307264 0
M  V30 5004 C 493.157 -2.20467 -0.581249 0
M  V30 5005 C 494.141 -1.17972 -1.09414 0
M  V30 5006 O 495.333 -1.43667 -1.03387 0
M  V30 5007 C 492.462 -2.95369 -1.74963 0
M  V30 5008 C 491.548 -4.05186 -1.25241 0
M  V30 5009 N 491.939 -5.03577 -0.47364 0
M  V30 5010 C 490.237 -4.18841 -1.53259 0
M  V30 5011 C 490.938 -5.81328 -0.208083 0
M  V30 5012 N 489.914 -5.37834 -0.789651 0
M  V30 5013 H 493.716 -2.93892 0.0212221 0
M  V30 5014 H 491.23 -1.62011 0.112325 0
M  V30 5015 H 493.227 -3.41046 -2.39777 0
M  V30 5016 H 491.887 -2.23461 -2.35574 0
M  V30 5017 H 492.898 -5.17766 -0.117963 0
M  V30 5018 H 489.575 -3.58141 -2.14573 0
M  V30 5019 H 490.965 -6.706 0.417793 0
M  V30 5020 N 493.685 -0.035106 -1.57561 0
M  V30 5021 C 494.633 0.962707 -2.11742 0
M  V30 5022 C 495.627 1.33296 -1.0454 0
M  V30 5023 O 496.833 1.31449 -1.22968 0
M  V30 5024 H 493.208 0.32826 -0.676572 0
M  V30 5025 H 495.179 0.48048 -2.94506 0
M  V30 5026 C 493.928 2.23388 -2.66445 0
M  V30 5027 H 493.251 1.95774 -3.48587 0
M  V30 5028 H 494.691 2.91402 -3.07995 0
M  V30 5029 C 493.15 2.96769 -1.59467 0
M  V30 5030 O 493.68 3.89105 -0.998 0
M  V30 5031 N 491.886 2.59212 -1.31369 0
M  V30 5032 H 491.433 1.84202 -1.80076 0
M  V30 5033 H 491.391 3.08618 -0.600173 0
M  V30 5034 N 495.163 1.55791 0.238111 0
M  V30 5035 C 496.412 1.77234 0.962868 0
M  V30 5036 C 496.725 0.600661 1.86149 0
M  V30 5037 O 497.931 0.698315 2.62366 0
M  V30 5038 C 496.387 3.13808 1.76218 0
M  V30 5039 C 495.995 4.3865 0.910518 0
M  V30 5040 C 497.739 3.44585 2.47914 0
M  V30 5041 C 495.646 5.66252 1.70623 0
M  V30 5042 H 494.576 0.660731 0.36325 0
M  V30 5043 H 497.227 1.8221 0.217242 0
M  V30 5044 H 495.609 3.02963 2.55009 0
M  V30 5045 H 496.783 4.60507 0.164316 0
M  V30 5046 H 495.098 4.15271 0.30647 0
M  V30 5047 H 497.695 4.3714 3.07917 0
M  V30 5048 H 498.038 2.66314 3.19973 0
M  V30 5049 H 498.571 3.56685 1.76127 0
M  V30 5050 H 495.31 6.47369 1.02923 0
M  V30 5051 H 494.83 5.48483 2.42748 0
M  V30 5052 H 496.509 6.05829 2.27114 0
M  V30 5053 N 496.642 -0.504142 1.49319 0
M  V30 5054 C 497.589 -1.60603 1.65756 0
M  V30 5055 C 498.559 -1.58425 0.499082 0
M  V30 5056 O 499.744 -1.76459 0.725728 0
M  V30 5057 C 496.884 -2.98764 1.72726 0
M  V30 5058 C 495.997 -3.10982 2.99857 0
M  V30 5059 C 495.132 -4.39857 2.97824 0
M  V30 5060 C 494.171 -4.45697 4.19548 0
M  V30 5061 N 493.308 -5.65995 4.15444 0
M  V30 5062 H 498.148 -1.45895 2.59843 0
M  V30 5063 H 495.685 -0.709891 1.28837 0
M  V30 5064 H 497.643 -3.78839 1.74747 0
M  V30 5065 H 496.273 -3.12183 0.821075 0
M  V30 5066 H 495.325 -2.23991 3.07461 0
M  V30 5067 H 496.637 -3.11157 3.89849 0
M  V30 5068 H 495.791 -5.2825 2.98391 0
M  V30 5069 H 494.53 -4.42242 2.05604 0
M  V30 5070 H 493.535 -3.55707 4.19229 0
M  V30 5071 H 494.76 -4.4503 5.12957 0
M  V30 5072 H 492.706 -5.69229 3.26059 0
M  V30 5073 H 492.623 -5.67773 4.99169 0
M  V30 5074 H 493.891 -6.56604 4.20109 0
M  V30 5075 N 498.12 -1.38341 -0.754957 0
M  V30 5076 C 499.083 -1.35262 -1.85032 0
M  V30 5077 C 500.083 -0.253393 -1.58791 0
M  V30 5078 O 501.273 -0.510205 -1.66561 0
M  V30 5079 C 498.405 -1.10544 -3.22479 0
M  V30 5080 H 499.598 -2.32712 -1.8917 0
M  V30 5081 H 497.151 -1.23614 -0.956515 0
M  V30 5082 H 497.886 -0.136952 -3.24011 0
M  V30 5083 H 497.671 -1.90127 -3.4292 0
M  V30 5084 H 499.161 -1.11082 -4.02555 0
M  V30 5085 N 499.598 0.982988 -1.23187 0
M  V30 5086 C 500.875 1.69814 -0.970707 0
M  V30 5087 C 501.255 2.04811 0.511424 0
M  V30 5088 O 500.603 1.73924 1.48198 0
M  V30 5089 C 500.813 2.94143 -1.87831 0
M  V30 5090 C 502.161 3.66712 -2.14026 0
M  V30 5091 O 503.185 3.04171 -1.8536 0
M  V30 5092 O 502.044 4.79258 -2.62629 0
M  V30 5093 H 499.138 0.741659 -0.365884 0
M  V30 5094 H 501.684 1.03844 -1.34218 0
M  V30 5095 H 500.456 2.64858 -2.88038 0
M  V30 5096 H 500.079 3.6785 -1.50905 0
M  V30 5097 N 501.076 1.04316 1.18135 0
M  V30 5098 C 502.006 0.657299 2.24058 0
M  V30 5099 C 502.987 -0.340678 1.66654 0
M  V30 5100 O 504.172 -0.220223 1.92947 0
M  V30 5101 C 501.302 0.0220715 3.47293 0
M  V30 5102 C 500.256 0.943857 4.17463 0
M  V30 5103 C 499.582 0.172973 5.3442 0
M  V30 5104 C 500.882 2.26409 4.70677 0
M  V30 5105 H 502.576 1.5428 2.56589 0
M  V30 5106 H 500.122 0.743263 1.23335 0
M  V30 5107 H 502.075 -0.259607 4.206 0
M  V30 5108 H 500.799 -0.898323 3.14003 0
M  V30 5109 H 499.458 1.20996 3.46057 0
M  V30 5110 H 499.106 -0.749907 4.97379 0
M  V30 5111 H 498.806 0.787098 5.82304 0
M  V30 5112 H 500.33 -0.101628 6.10515 0
M  V30 5113 H 501.744 2.04294 5.35665 0
M  V30 5114 H 500.141 2.8314 5.29105 0
M  V30 5115 H 501.211 2.90883 3.87962 0
M  V30 5116 N 502.554 -1.34406 0.822964 0
M  V30 5117 C 503.464 -2.33298 0.246838 0
M  V30 5118 C 504.48 -1.62625 -0.618797 0
M  V30 5119 O 505.656 -1.94391 -0.526685 0
M  V30 5120 C 502.721 -3.41785 -0.581731 0
M  V30 5121 C 501.782 -4.28206 0.306309 0
M  V30 5122 C 501.015 -5.31512 -0.48281 0
M  V30 5123 O 501.238 -5.43973 -1.71607 0
M  V30 5124 O 500.172 -6.01749 0.134884 0
M  V30 5125 H 503.998 -2.84401 1.06534 0
M  V30 5126 H 501.583 -1.37466 0.585108 0
M  V30 5127 H 503.465 -4.08028 -1.05313 0
M  V30 5128 H 502.14 -2.92925 -1.37756 0
M  V30 5129 H 501.047 -3.64885 0.825199 0
M  V30 5130 H 502.38 -4.80507 1.06649 0
M  V30 5131 N 504.032 -0.577932 -1.46621 0
M  V30 5132 C 505.28 -0.061566 -2.02006 0
M  V30 5133 C 505.601 1.30117 -1.4524 0
M  V30 5134 O 504.871 1.85313 -0.63529 0
M  V30 5135 H 503.451 -0.0197692 -0.746738 0
M  V30 5136 H 506.113 -0.752631 -1.79782 0
M  V30 5137 H 505.209 0.0110238 -3.12098 0
M  V30 5138 N 505.51 1.54411 -0.315457 0
M  V30 5139 C 506.926 1.59556 0.037464 0
M  V30 5140 C 507.126 1.33217 1.5118 0
M  V30 5141 O 506.182 1.11264 2.26664 0
M  V30 5142 C 507.495 2.98372 -0.373477 0
M  V30 5143 C 509.043 3.11324 -0.323452 0
M  V30 5144 C 509.518 4.52472 -0.709433 0
M  V30 5145 N 511.009 4.58437 -0.662524 0
M  V30 5146 C 511.744 5.65751 -0.933474 0
M  V30 5147 N 511.24 6.81039 -1.27114 0
M  V30 5148 N 513.033 5.55489 -0.859573 0
M  V30 5149 H 505.184 1.6979 -1.27614 0
M  V30 5150 H 507.447 0.793732 -0.518356 0
M  V30 5151 H 507.153 3.22618 -1.40037 0
M  V30 5152 H 507.027 3.76264 0.265615 0
M  V30 5153 H 509.414 2.86818 0.694223 0
M  V30 5154 H 509.495 2.35555 -0.997367 0
M  V30 5155 H 509.139 4.7771 -1.72498 0
M  V30 5156 H 509.069 5.26598 -0.0132923 0
M  V30 5157 H 511.56 3.75636 -0.413065 0
M  V30 5158 H 511.873 7.58816 -1.46348 0
M  V30 5159 H 510.218 6.82555 -1.30932 0
M  V30 5160 H 513.409 4.64299 -0.595324 0
M  V30 5161 H 513.582 6.39036 -1.0741 0
M  V30 5162 N 506.988 0.0434614 1.5754 0
M  V30 5163 C 507.935 -0.93356 2.11077 0
M  V30 5164 C 508.905 -1.31383 1.01626 0
M  V30 5165 O 510.09 -1.40465 1.29129 0
M  V30 5166 C 507.23 -2.20578 2.65404 0
M  V30 5167 C 506.343 -1.88068 3.88914 0
M  V30 5168 C 505.478 -3.09691 4.31584 0
M  V30 5169 C 504.517 -2.73067 5.47815 0
M  V30 5170 N 503.654 -3.87359 5.85574 0
M  V30 5171 H 508.494 -0.470118 2.94268 0
M  V30 5172 H 506.031 -0.220434 1.45439 0
M  V30 5173 H 507.989 -2.95011 2.94999 0
M  V30 5174 H 506.619 -2.64513 1.85021 0
M  V30 5175 H 505.671 -1.03816 3.6596 0
M  V30 5176 H 506.983 -1.57104 4.73413 0
M  V30 5177 H 506.137 -3.92431 4.62691 0
M  V30 5178 H 504.876 -3.43827 3.45882 0
M  V30 5179 H 503.881 -1.88742 5.16388 0
M  V30 5180 H 505.106 -2.40131 6.35227 0
M  V30 5181 H 503.052 -4.21311 5.02825 0
M  V30 5182 H 502.969 -3.60068 6.64746 0
M  V30 5183 H 504.237 -4.70761 6.21292 0
M  V30 5184 N 508.466 -1.55915 -0.229846 0
M  V30 5185 C 509.714 -1.7819 -0.953565 0
M  V30 5186 C 510.035 -0.610504 -1.85197 0
M  V30 5187 O 509.305 0.372988 -1.92316 0
M  V30 5188 H 507.885 -0.657208 -0.355087 0
M  V30 5189 H 510.547 -1.9337 -0.243693 0
M  V30 5190 H 509.643 -2.70011 -1.56527 0
M  V30 5191 N 509.944 0.496216 -1.49584 0
M  V30 5192 C 510.854 1.62352 -1.69349 0
M  V30 5193 C 511.87 1.64184 -0.576147 0
M  V30 5194 O 513.046 1.82517 -0.85144 0
M  V30 5195 C 510.111 2.98698 -1.76013 0
M  V30 5196 C 509.172 3.07454 -2.99617 0
M  V30 5197 C 508.405 4.37296 -3.05953 0
M  V30 5198 O 508.628 5.2637 -2.19752 0
M  V30 5199 O 507.562 4.51124 -3.9846 0
M  V30 5200 H 511.388 1.48606 -2.64859 0
M  V30 5201 H 508.973 0.673022 -1.33382 0
M  V30 5202 H 510.855 3.79725 -1.82721 0
M  V30 5203 H 509.53 3.12696 -0.836828 0
M  V30 5204 H 508.437 2.25597 -2.98424 0
M  V30 5205 H 509.77 2.98385 -3.91443 0
M  V30 5206 N 511.423 1.38739 0.74761 0
M  V30 5207 C 512.355 1.32341 1.87132 0
M  V30 5208 C 513.368 0.234502 1.61102 0
M  V30 5209 O 514.557 0.492516 1.71571 0
M  V30 5210 C 511.657 1.02915 3.22896 0
M  V30 5211 C 510.83 2.22834 3.76383 0
M  V30 5212 C 509.889 1.90059 4.90677 0
M  V30 5213 O 508.915 2.62615 5.04997 0
M  V30 5214 N 510.117 0.859141 5.74107 0
M  V30 5215 H 512.882 2.29175 1.93129 0
M  V30 5216 H 510.443 1.32678 0.927805 0
M  V30 5217 H 512.435 0.79031 3.96908 0
M  V30 5218 H 511.005 0.148572 3.12247 0
M  V30 5219 H 510.225 2.62747 2.93867 0
M  V30 5220 H 511.513 3.02851 4.08851 0
M  V30 5221 H 510.911 0.257564 5.65113 0
M  V30 5222 H 509.468 0.680189 6.48241 0
M  V30 5223 N 512.901 -0.976442 1.23707 0
M  V30 5224 C 514.129 -1.75341 1.09833 0
M  V30 5225 C 514.544 -1.8553 -0.349885 0
M  V30 5226 O 513.901 -1.33732 -1.24185 0
M  V30 5227 C 513.952 -3.17833 1.72233 0
M  V30 5228 O 513.673 -3.08167 3.11391 0
M  V30 5229 C 515.174 -4.11906 1.63853 0
M  V30 5230 H 512.394 -0.550137 0.384175 0
M  V30 5231 H 514.938 -1.2265 1.63638 0
M  V30 5232 H 513.093 -3.67538 1.22452 0
M  V30 5233 H 513.507 -3.97897 3.41729 0
M  V30 5234 H 514.981 -5.09579 2.12211 0
M  V30 5235 H 515.458 -4.35109 0.598092 0
M  V30 5236 H 516.064 -3.68107 2.13019 0
M  V30 5237 N 514.379 -1.04941 -1.1758 0
M  V30 5238 C 515.312 -0.592518 -2.20373 0
M  V30 5239 C 516.29 0.377561 -1.58156 0
M  V30 5240 O 517.474 0.28978 -1.86259 0
M  V30 5241 C 514.601 0.133215 -3.38438 0
M  V30 5242 C 513.647 -0.791484 -4.19092 0
M  V30 5243 S 514.48 -2.27925 -4.84572 0
M  V30 5244 C 515.636 -1.56462 -6.06028 0
M  V30 5245 H 515.869 -1.46342 -2.58788 0
M  V30 5246 H 513.402 -0.861148 -1.28155 0
M  V30 5247 H 515.36 0.545746 -4.06856 0
M  V30 5248 H 514.021 0.980124 -2.98416 0
M  V30 5249 H 513.214 -0.230039 -5.03475 0
M  V30 5250 H 512.816 -1.14326 -3.56098 0
M  V30 5251 H 515.108 -0.862539 -6.71987 0
M  V30 5252 H 516.051 -2.38583 -6.66696 0
M  V30 5253 H 516.459 -1.05313 -5.5459 0
M  V30 5254 N 515.857 1.33968 -0.830081 0
M  V30 5255 C 517.105 1.97672 -0.420734 0
M  V30 5256 C 517.426 1.66111 1.02138 0
M  V30 5257 O 516.696 0.955503 1.71017 0
M  V30 5258 H 515.276 0.73125 -0.152587 0
M  V30 5259 H 517.938 1.63483 -1.0611 0
M  V30 5260 H 517.034 3.07294 -0.545588 0
M  V30 5261 N 517.335 0.585699 1.46312 0
M  V30 5262 C 518.563 0.0781299 2.06752 0
M  V30 5263 C 518.978 -1.22812 1.43396 0
M  V30 5264 O 518.335 -1.74318 0.540314 0
M  V30 5265 C 518.386 -0.0911927 3.61385 0
M  V30 5266 O 518.107 1.16336 4.22371 0
M  V30 5267 C 519.608 -0.632765 4.38761 0
M  V30 5268 H 516.828 0.0588188 0.668417 0
M  V30 5269 H 519.372 0.807218 1.87894 0
M  V30 5270 H 517.527 -0.770514 3.7966 0
M  V30 5271 H 517.941 0.979082 5.15281 0
M  V30 5272 H 519.415 -0.70041 5.47538 0
M  V30 5273 H 519.892 -1.65039 4.07012 0
M  V30 5274 H 520.498 0.0117856 4.25298 0
M  V30 5275 N 518.813 -1.54241 0.323641 0
M  V30 5276 C 520.059 -2.01572 -0.272089 0
M  V30 5277 C 520.414 -1.20774 -1.49771 0
M  V30 5278 O 519.707 -0.281821 -1.89516 0
M  V30 5279 C 519.901 -3.5129 -0.658031 0
M  V30 5280 C 519.73 -4.46582 0.528645 0
M  V30 5281 C 518.5 -4.94737 1.02777 0
M  V30 5282 C 520.698 -4.95416 1.38086 0
M  V30 5283 N 518.68 -5.73933 2.17885 0
M  V30 5284 C 520.051 -5.72537 2.3791 0
M  V30 5285 C 522.106 -4.77559 1.40861 0
M  V30 5286 C 520.809 -6.33702 3.40314 0
M  V30 5287 C 522.835 -5.39559 2.42136 0
M  V30 5288 C 522.197 -6.16532 3.40688 0
M  V30 5289 H 518.296 -0.779425 -0.0634072 0
M  V30 5290 H 520.88 -1.8922 0.458697 0
M  V30 5291 H 519.051 -3.63888 -1.35795 0
M  V30 5292 H 520.783 -3.85388 -1.23524 0
M  V30 5293 H 517.538 -4.69796 0.599046 0
M  V30 5294 H 517.962 -6.18209 2.75947 0
M  V30 5295 H 522.604 -4.17611 0.660352 0
M  V30 5296 H 520.322 -6.9277 4.16047 0
M  V30 5297 H 523.908 -5.27659 2.45086 0
M  V30 5298 H 522.788 -6.63655 4.1777 0
M  V30 5299 N 520.291 -0.0518155 -1.57515 0
M  V30 5300 C 521.239 0.940195 -2.12751 0
M  V30 5301 C 522.233 1.3218 -1.05948 0
M  V30 5302 O 523.439 1.30138 -1.24355 0
M  V30 5303 H 519.814 0.321066 -0.680015 0
M  V30 5304 H 521.785 0.449217 -2.94999 0
M  V30 5305 C 520.534 2.2055 -2.68799 0
M  V30 5306 H 519.857 1.92066 -3.50643 0
M  V30 5307 H 521.297 2.88119 -3.11068 0
M  V30 5308 C 519.756 2.95061 -1.62605 0
M  V30 5309 O 520.286 3.88025 -1.03921 0
M  V30 5310 N 518.492 2.57804 -1.34111 0
M  V30 5311 H 518.039 1.82281 -1.8202 0
M  V30 5312 H 517.997 3.07964 -0.632872 0
M  V30 5313 N 521.769 1.56035 0.221574 0
M  V30 5314 C 522.732 1.91584 1.2581 0
M  V30 5315 C 523.732 0.794425 1.39805 0
M  V30 5316 O 524.922 1.06217 1.38071 0
M  V30 5317 C 522.054 2.16663 2.63192 0
M  V30 5318 H 523.247 2.8429 0.954935 0
M  V30 5319 H 520.8 1.49316 0.461988 0
M  V30 5320 H 521.535 1.26508 2.98607 0
M  V30 5321 H 521.32 2.98358 2.5441 0
M  V30 5322 H 522.81 2.45262 3.37988 0
M  V30 5323 N 523.247 -0.488276 1.49845 0
M  V30 5324 C 524.493 -1.24341 1.6021 0
M  V30 5325 C 524.826 -1.91967 0.293651 0
M  V30 5326 O 524.101 -1.81323 -0.703718 0
M  V30 5327 C 524.384 -2.3005 2.77036 0
M  V30 5328 C 524.237 -1.66842 4.17713 0
M  V30 5329 C 525.556 -3.31509 2.89464 0
M  V30 5330 H 522.675 -0.450704 0.583125 0
M  V30 5331 H 525.317 -0.539673 1.82174 0
M  V30 5332 H 523.467 -2.90071 2.58439 0
M  V30 5333 H 525.139 -1.1055 4.47858 0
M  V30 5334 H 523.382 -0.972079 4.22768 0
M  V30 5335 H 524.053 -2.43576 4.95353 0
M  V30 5336 H 526.529 -2.81493 3.06433 0
M  V30 5337 H 525.405 -4.02822 3.72861 0
M  V30 5338 H 525.666 -3.94603 1.99351 0
M  V30 5339 N 524.725 -1.39134 -0.740242 0
M  V30 5340 C 525.965 -1.37499 -1.51239 0
M  V30 5341 C 526.329 0.0310084 -1.91975 0
M  V30 5342 O 527.53 0.172319 -2.68247 0
M  V30 5343 C 525.801 -2.31566 -2.72235 0
M  V30 5344 S 527.36 -2.48073 -3.61947 0
M  V30 5345 H 524.178 -0.48768 -0.517387 0
M  V30 5346 H 526.78 -1.75183 -0.867826 0
M  V30 5347 H 525.484 -3.32592 -2.40439 0
M  V30 5348 H 525.015 -1.9508 -3.41625 0
M  V30 5349 H 527.03 -1.71473 -4.6563 0
M  V30 5350 N 526.204 0.969867 -1.24223 0
M  V30 5351 C 527.451 1.71256 -1.08063 0
M  V30 5352 C 527.779 1.90734 0.380872 0
M  V30 5353 O 527.034 1.46469 1.29789 0
M  V30 5354 C 527.333 3.10883 -1.76314 0
M  V30 5355 C 526.999 3.11252 -3.26241 0
M  V30 5356 C 525.661 3.1106 -3.67144 0
M  V30 5357 C 528.013 3.05751 -4.22097 0
M  V30 5358 C 525.341 3.03097 -5.02344 0
M  V30 5359 C 527.693 2.9933 -5.57301 0
M  V30 5360 C 526.357 2.97466 -5.97554 0
M  V30 5361 H 525.627 0.62667 -0.395431 0
M  V30 5362 H 528.274 1.13422 -1.54297 0
M  V30 5363 H 526.579 3.72168 -1.22468 0
M  V30 5364 H 528.276 3.67138 -1.61277 0
M  V30 5365 H 524.866 3.12165 -2.93685 0
M  V30 5366 H 529.05 3.05031 -3.91497 0
M  V30 5367 H 524.306 3.00013 -5.32731 0
M  V30 5368 H 528.48 2.94033 -6.31283 0
M  V30 5369 H 526.107 2.91051 -7.02277 0
M  V30 5370 N 527.682 1.05563 1.17022 0
M  V30 5371 C 528.645 0.664098 2.19368 0
M  V30 5372 C 529.645 -0.286358 1.5823 0
M  V30 5373 O 530.835 -0.069728 1.7406 0
M  V30 5374 C 527.967 -0.0239932 3.40892 0
M  V30 5375 H 529.16 1.57 2.55521 0
M  V30 5376 H 526.713 0.849964 1.31169 0
M  V30 5377 H 527.448 -0.942988 3.10287 0
M  V30 5378 H 527.233 0.659351 3.86516 0
M  V30 5379 H 528.723 -0.283909 4.16634 0
M  V30 5380 N 529.16 -1.33526 0.837174 0
M  V30 5381 C 530.437 -1.92369 0.354065 0
M  V30 5382 C 530.817 -1.76348 -1.16038 0
M  V30 5383 O 530.165 -1.15083 -1.97403 0
M  V30 5384 C 530.375 -3.39728 0.799101 0
M  V30 5385 C 531.723 -4.16877 0.806139 0
M  V30 5386 O 532.747 -3.48373 0.742597 0
M  V30 5387 O 531.606 -5.39166 0.892345 0
M  V30 5388 H 528.7 -0.820952 0.0998378 0
M  V30 5389 H 531.246 -1.42409 0.922913 0
M  V30 5390 H 530.018 -3.45254 1.84162 0
M  V30 5391 H 529.641 -3.97062 0.206731 0
M  V30 5392 N 530.638 -0.59345 -1.46 0
M  V30 5393 C 531.571 0.182196 -2.27472 0
M  V30 5394 C 532.549 0.886901 -1.36282 0
M  V30 5395 O 533.733 0.898627 -1.65701 0
M  V30 5396 C 530.86 1.26236 -3.14296 0
M  V30 5397 C 529.906 0.662331 -4.21326 0
M  V30 5398 S 530.739 -0.519017 -5.32979 0
M  V30 5399 C 531.895 0.562086 -6.23371 0
M  V30 5400 H 532.128 -0.509056 -2.92909 0
M  V30 5401 H 529.661 -0.380607 -1.49635 0
M  V30 5402 H 531.619 1.88075 -3.64881 0
M  V30 5403 H 530.28 1.92562 -2.48151 0
M  V30 5404 H 529.473 1.47461 -4.81945 0
M  V30 5405 H 529.075 0.119381 -3.73809 0
M  V30 5406 H 531.367 1.44494 -6.61912 0
M  V30 5407 H 532.31 -0.00760776 -7.081 0
M  V30 5408 H 532.718 0.871061 -5.57739 0
M  V30 5409 N 532.116 1.54067 -0.331816 0
M  V30 5410 C 533.364 2.00319 0.267739 0
M  V30 5411 C 533.685 1.22148 1.52003 0
M  V30 5412 O 532.955 0.325494 1.93177 0
M  V30 5413 H 531.535 0.740014 0.101922 0
M  V30 5414 H 534.197 1.89628 -0.450267 0
M  V30 5415 H 533.293 3.07765 0.518385 0
M  V30 5416 N 533.594 0.0601682 1.57485 0
M  V30 5417 C 534.871 -0.651956 1.84415 0
M  V30 5418 C 535.251 -1.88498 0.950361 0
M  V30 5419 O 534.599 -2.28496 0.0136719 0
M  V30 5420 C 534.809 -1.00069 3.34346 0
M  V30 5421 C 536.157 -1.37915 4.01578 0
M  V30 5422 O 537.181 -1.09277 3.39024 0
M  V30 5423 O 536.04 -1.91399 5.11887 0
M  V30 5424 H 533.134 -0.322668 0.761455 0
M  V30 5425 H 535.68 0.0902159 1.6946 0
M  V30 5426 H 534.452 -0.124463 3.91102 0
M  V30 5427 H 534.075 -1.80001 3.54521 0
M  V30 5428 N 535.072 -1.5615 -0.213296 0
M  V30 5429 C 536.488 -1.49327 -0.56336 0
M  V30 5430 C 536.688 -0.756826 -1.86747 0
M  V30 5431 O 535.744 -0.299866 -2.50713 0
M  V30 5432 C 537.057 -2.9392 -0.634944 0
M  V30 5433 C 538.605 -3.04487 -0.725013 0
M  V30 5434 C 539.08 -4.50456 -0.82787 0
M  V30 5435 N 540.571 -4.54533 -0.891876 0
M  V30 5436 C 541.306 -5.64766 -0.991315 0
M  V30 5437 N 540.802 -6.84733 -1.05419 0
M  V30 5438 N 542.595 -5.52637 -1.02709 0
M  V30 5439 H 534.746 -2.02453 0.642366 0
M  V30 5440 H 537.009 -0.920548 0.226487 0
M  V30 5441 H 536.715 -3.50783 0.253859 0
M  V30 5442 H 536.589 -3.46274 -1.49579 0
M  V30 5443 H 538.976 -2.47685 -1.60425 0
M  V30 5444 H 539.057 -2.55289 0.161669 0
M  V30 5445 H 538.701 -5.07878 0.0469464 0
M  V30 5446 H 538.631 -4.97369 -1.73009 0
M  V30 5447 H 541.122 -3.68141 -0.85327 0
M  V30 5448 H 541.435 -7.64493 -1.13007 0
M  V30 5449 H 539.78 -6.87427 -1.02318 0
M  V30 5450 H 542.971 -4.5784 -0.974687 0
M  V30 5451 H 543.144 -6.38576 -1.10113 0
M  V30 5452 N 536.55 0.480323 -1.50102 0
M  V30 5453 C 537.798 1.23063 -1.60312 0
M  V30 5454 C 538.119 1.92659 -0.301226 0
M  V30 5455 O 537.389 1.83691 0.680753 0
M  V30 5456 H 535.969 0.457231 -0.590719 0
M  V30 5457 H 538.631 0.554893 -1.86834 0
M  V30 5458 H 537.727 1.9835 -2.40964 0
M  V30 5459 N 538.028 1.39524 0.732853 0
M  V30 5460 C 538.991 1.38189 1.82857 0
M  V30 5461 C 539.991 0.278624 1.58368 0
M  V30 5462 O 541.181 0.536639 1.65728 0
M  V30 5463 C 538.313 1.15661 3.2068 0
M  V30 5464 H 539.506 2.35692 1.85444 0
M  V30 5465 H 537.059 1.2512 0.936728 0
M  V30 5466 H 537.794 0.188482 3.23752 0
M  V30 5467 H 537.579 1.95559 3.39852 0
M  V30 5468 H 539.069 1.17472 4.00737 0
M  V30 5469 N 539.506 -0.963266 1.24736 0
M  V30 5470 C 540.469 -2.04013 1.04457 0
M  V30 5471 C 541.469 -1.608 0.000335555 0
M  V30 5472 O 542.659 -1.72515 0.241719 0
M  V30 5473 C 539.791 -3.35858 0.584162 0
M  V30 5474 H 540.984 -2.23436 2.00041 0
M  V30 5475 H 538.537 -1.13914 1.07021 0
M  V30 5476 H 539.272 -3.22128 -0.374673 0
M  V30 5477 H 539.057 -3.68568 1.3379 0
M  V30 5478 H 540.547 -4.1502 0.463451 0
M  V30 5479 N 540.985 -1.06182 -1.16461 0
M  V30 5480 C 542.232 -0.777863 -1.86964 0
M  V30 5481 C 542.56 0.695602 -1.81636 0
M  V30 5482 O 541.815 1.52532 -1.22607 0
M  V30 5483 C 542.114 -1.21633 -3.36066 0
M  V30 5484 C 541.78 -2.69371 -3.61594 0
M  V30 5485 C 540.442 -3.09727 -3.6827 0
M  V30 5486 C 542.794 -3.64791 -3.7226 0
M  V30 5487 C 540.122 -4.44345 -3.83112 0
M  V30 5488 C 542.474 -4.99155 -3.88623 0
M  V30 5489 C 541.138 -5.39149 -3.93541 0
M  V30 5490 H 540.408 -0.28464 -0.68415 0
M  V30 5491 H 543.055 -1.33071 -1.37711 0
M  V30 5492 H 541.36 -0.582651 -3.87443 0
M  V30 5493 H 543.057 -0.973682 -3.88999 0
M  V30 5494 H 539.647 -2.37124 -3.57029 0
M  V30 5495 H 543.831 -3.34746 -3.66413 0
M  V30 5496 H 539.087 -4.74819 -3.85172 0
M  V30 5497 H 543.261 -5.72976 -3.95817 0
M  V30 5498 H 540.888 -6.43464 -4.04794 0
M  V30 5499 N 542.463 1.3308 -0.844243 0
M  V30 5500 C 543.712 1.96868 -0.438833 0
M  V30 5501 C 544.025 1.67599 1.00846 0
M  V30 5502 O 545.231 2.25043 1.51881 0
M  V30 5503 C 543.687 3.5234 -0.73377 0
M  V30 5504 C 543.295 3.90481 -2.1961 0
M  V30 5505 C 545.039 4.22653 -0.395574 0
M  V30 5506 C 542.946 5.38954 -2.43481 0
M  V30 5507 H 541.876 0.736749 -0.160364 0
M  V30 5508 H 544.527 1.51623 -1.03358 0
M  V30 5509 H 542.909 3.95941 -0.068589 0
M  V30 5510 H 544.083 3.57922 -2.90221 0
M  V30 5511 H 542.398 3.33165 -2.4978 0
M  V30 5512 H 544.995 5.31848 -0.551477 0
M  V30 5513 H 545.338 4.11004 0.661921 0
M  V30 5514 H 545.871 3.84601 -1.01621 0
M  V30 5515 H 542.61 5.55612 -3.47816 0
M  V30 5516 H 542.13 5.72954 -1.77437 0
M  V30 5517 H 543.809 6.05907 -2.26905 0
M  V30 5518 N 543.941 0.601185 1.45683 0
M  V30 5519 C 544.904 -0.111398 2.28929 0
M  V30 5520 C 545.904 -0.801246 1.39416 0
M  V30 5521 O 547.094 -0.650383 1.61603 0
M  V30 5522 C 544.226 -1.16773 3.20276 0
M  V30 5523 H 545.419 0.620412 2.93413 0
M  V30 5524 H 542.972 0.359946 1.52099 0
M  V30 5525 H 543.707 -1.93051 2.60579 0
M  V30 5526 H 543.492 -0.677358 3.86205 0
M  V30 5527 H 544.982 -1.66698 3.82886 0
M  V30 5528 N 545.419 -1.53889 0.339982 0
M  V30 5529 C 546.349 -2.27843 -0.510856 0
M  V30 5530 C 547.33 -1.29267 -1.10563 0
M  V30 5531 O 548.515 -1.58104 -1.12768 0
M  V30 5532 C 545.645 -3.04857 -1.66372 0
M  V30 5533 C 544.599 -4.10907 -1.19746 0
M  V30 5534 C 543.925 -4.75855 -2.43857 0
M  V30 5535 C 545.225 -5.21435 -0.300501 0
M  V30 5536 H 546.919 -2.99212 0.106067 0
M  V30 5537 H 544.465 -1.43904 0.0524533 0
M  V30 5538 H 546.418 -3.5533 -2.26537 0
M  V30 5539 H 545.142 -2.31133 -2.30749 0
M  V30 5540 H 543.801 -3.61342 -0.618654 0
M  V30 5541 H 543.449 -3.9873 -3.06633 0
M  V30 5542 H 543.149 -5.47502 -2.13343 0
M  V30 5543 H 544.673 -5.2911 -3.04754 0
M  V30 5544 H 546.087 -5.67565 -0.80889 0
M  V30 5545 H 544.484 -6.00036 -0.0874076 0
M  V30 5546 H 545.554 -4.80328 0.664321 0
M  V30 5547 N 546.897 -0.0685191 -1.57451 0
M  V30 5548 C 548.308 0.464634 -1.80826 0
M  V30 5549 C 548.659 1.69847 -0.982169 0
M  V30 5550 O 547.784 2.15439 -0.203734 0
M  V30 5551 C 548.379 0.849721 -3.27971 0
M  V30 5552 C 546.938 1.32776 -3.52204 0
M  V30 5553 C 546.085 0.311332 -2.75547 0
M  V30 5554 H 549.036 -0.294248 -1.55948 0
M  V30 5555 H 549.057 1.71138 -3.39841 0
M  V30 5556 H 548.569 -0.0484736 -3.8807 0
M  V30 5557 H 546.67 2.24456 -2.97406 0
M  V30 5558 H 546.783 1.30794 -4.60901 0
M  V30 5559 H 545.147 0.787915 -2.42206 0
M  V30 5560 H 545.93 -0.579078 -3.38381 0
M  V30 5561 N 548.375 1.56261 0.205012 0
M  V30 5562 C 549.307 1.90266 1.27795 0
M  V30 5563 C 550.32 0.792397 1.42214 0
M  V30 5564 O 551.509 1.07077 1.42817 0
M  V30 5565 C 548.609 2.11074 2.65143 0
M  V30 5566 C 547.782 3.42176 2.7246 0
M  V30 5567 C 546.841 3.52216 3.90936 0
M  V30 5568 O 545.867 4.25119 3.78501 0
M  V30 5569 N 547.069 2.84573 5.05963 0
M  V30 5570 H 549.834 2.82896 0.989434 0
M  V30 5571 H 547.395 1.57008 0.394981 0
M  V30 5572 H 549.387 2.15089 3.4281 0
M  V30 5573 H 547.957 1.2499 2.86524 0
M  V30 5574 H 547.177 3.50116 1.81142 0
M  V30 5575 H 548.465 4.28509 2.74331 0
M  V30 5576 H 547.863 2.25152 5.18963 0
M  V30 5577 H 546.42 2.94228 5.81613 0
M  V30 5578 N 549.853 -0.472356 1.50355 0
M  V30 5579 C 550.783 -1.57859 1.72055 0
M  V30 5580 C 551.764 -1.60283 0.569505 0
M  V30 5581 O 552.949 -1.7657 0.808503 0
M  V30 5582 C 550.079 -2.96191 1.81351 0
M  V30 5583 C 549.033 -3.08633 2.96529 0
M  V30 5584 C 548.359 -4.486 2.90968 0
M  V30 5585 C 549.659 -2.85969 4.37057 0
M  V30 5586 H 551.353 -1.39953 2.64676 0
M  V30 5587 H 548.899 -0.671846 1.27367 0
M  V30 5588 H 550.852 -3.73507 1.95117 0
M  V30 5589 H 549.576 -3.15251 0.853502 0
M  V30 5590 H 548.235 -2.33749 2.82413 0
M  V30 5591 H 547.883 -4.64577 1.92815 0
M  V30 5592 H 547.583 -4.57861 3.68289 0
M  V30 5593 H 549.107 -5.27938 3.0678 0
M  V30 5594 H 550.521 -3.53036 4.51706 0
M  V30 5595 H 548.918 -3.06677 5.15819 0
M  V30 5596 H 549.988 -1.81838 4.49514 0
M  V30 5597 N 551.331 -1.39911 -0.725443 0
M  V30 5598 C 552.278 -1.39393 -1.83952 0
M  V30 5599 C 553.248 -0.252249 -1.64173 0
M  V30 5600 O 554.433 -0.44882 -1.85446 0
M  V30 5601 C 551.573 -1.25262 -3.21564 0
M  V30 5602 C 550.686 -2.49054 -3.52982 0
M  V30 5603 C 549.821 -2.27439 -4.80047 0
M  V30 5604 C 548.86 -3.46857 -5.04338 0
M  V30 5605 N 547.997 -3.24499 -6.22611 0
M  V30 5606 H 552.837 -2.34622 -1.83729 0
M  V30 5607 H 550.374 -1.16537 -0.897636 0
M  V30 5608 H 552.332 -1.15077 -4.01015 0
M  V30 5609 H 550.962 -0.33657 -3.21041 0
M  V30 5610 H 550.014 -2.69805 -2.6816 0
M  V30 5611 H 551.326 -3.37973 -3.66846 0
M  V30 5612 H 550.48 -2.14551 -5.67497 0
M  V30 5613 H 549.219 -1.35929 -4.68374 0
M  V30 5614 H 548.224 -3.60232 -4.15346 0
M  V30 5615 H 549.449 -4.3928 -5.17889 0
M  V30 5616 H 547.395 -2.35663 -6.12208 0
M  V30 5617 H 547.312 -4.06978 -6.37106 0
M  V30 5618 H 548.58 -3.15325 -7.12875 0
M  V30 5619 N 552.809 0.956637 -1.25245 0
M  V30 5620 C 554.22 1.51569 -1.09012 0
M  V30 5621 C 554.571 1.93322 0.334813 0
M  V30 5622 O 553.696 1.78421 1.22454 0
M  V30 5623 C 554.291 2.75444 -1.97271 0
M  V30 5624 C 552.85 3.27669 -1.8523 0
M  V30 5625 C 551.997 2.00517 -1.91542 0
M  V30 5626 H 554.948 0.773746 -1.3856 0
M  V30 5627 H 554.969 3.4919 -1.51151 0
M  V30 5628 H 554.481 2.45024 -3.00973 0
M  V30 5629 H 552.582 3.62914 -0.844045 0
M  V30 5630 H 552.695 3.9582 -2.69932 0
M  V30 5631 H 551.059 2.15727 -1.35404 0
M  V30 5632 H 551.842 1.72448 -2.96844 0
M  V30 5633 N 554.287 1.06798 1.15896 0
M  V30 5634 C 555.703 0.792423 1.38538 0
M  V30 5635 C 555.903 -0.60592 1.92174 0
M  V30 5636 O 554.959 -1.36561 2.12385 0
M  V30 5637 C 556.272 1.86157 2.36149 0
M  V30 5638 C 557.82 1.88567 2.49823 0
M  V30 5639 C 558.295 2.9455 3.5072 0
M  V30 5640 N 559.786 2.93616 3.58251 0
M  V30 5641 C 560.521 3.72267 4.36125 0
M  V30 5642 N 560.017 4.60751 5.17379 0
M  V30 5643 N 561.81 3.60637 4.31158 0
M  V30 5644 H 553.961 1.96993 0.794198 0
M  V30 5645 H 556.224 0.853942 0.411688 0
M  V30 5646 H 555.93 2.86603 2.03843 0
M  V30 5647 H 555.804 1.71692 3.3586 0
M  V30 5648 H 558.191 0.887765 2.8143 0
M  V30 5649 H 558.272 2.0711 1.5013 0
M  V30 5650 H 557.916 3.94537 3.19849 0
M  V30 5651 H 557.846 2.73255 4.50155 0
M  V30 5652 H 560.337 2.29472 3.00252 0
M  V30 5653 H 560.65 5.17408 5.74028 0
M  V30 5654 H 558.995 4.64803 5.16704 0
M  V30 5655 H 562.186 2.90892 3.66742 0
M  V30 5656 H 562.359 4.22176 4.91601 0
M  V30 5657 N 555.766 -1.3263 0.851289 0
M  V30 5658 C 556.713 -2.28952 0.291469 0
M  V30 5659 C 557.683 -1.54897 -0.599676 0
M  V30 5660 O 558.868 -1.83137 -0.535305 0
M  V30 5661 C 556.008 -3.41206 -0.516992 0
M  V30 5662 C 555.121 -4.30148 0.399566 0
M  V30 5663 C 554.256 -5.29527 -0.4212 0
M  V30 5664 C 553.295 -6.10112 0.492969 0
M  V30 5665 N 552.432 -7.01499 -0.290414 0
M  V30 5666 H 557.272 -2.76228 1.11813 0
M  V30 5667 H 554.809 -1.35907 0.562826 0
M  V30 5668 H 556.767 -4.05005 -1.00132 0
M  V30 5669 H 555.397 -2.9509 -1.30851 0
M  V30 5670 H 554.449 -3.66959 1.00227 0
M  V30 5671 H 555.761 -4.8649 1.1013 0
M  V30 5672 H 554.915 -5.98914 -0.968832 0
M  V30 5673 H 553.654 -4.73794 -1.15632 0
M  V30 5674 H 552.659 -5.39632 1.05251 0
M  V30 5675 H 553.884 -6.6793 1.22664 0
M  V30 5676 H 551.83 -6.48199 -1.00868 0
M  V30 5677 H 551.747 -7.55178 0.352354 0
M  V30 5678 H 553.015 -7.75176 -0.819882 0
M  V30 5679 N 557.244 -0.608902 -1.45362 0
M  V30 5680 C 558.49 -0.104762 -2.02529 0
M  V30 5681 C 558.823 1.26191 -1.47613 0
M  V30 5682 O 558.098 1.8327 -0.65134 0
M  V30 5683 C 558.381 -0.0672661 -3.60037 0
M  V30 5684 C 558.234 -1.4647 -4.25284 0
M  V30 5685 C 559.553 0.619877 -4.35713 0
M  V30 5686 H 556.672 -0.0395438 -0.735938 0
M  V30 5687 H 559.314 -0.781126 -1.73201 0
M  V30 5688 H 557.464 0.50871 -3.85155 0
M  V30 5689 H 559.136 -2.08785 -4.11347 0
M  V30 5690 H 557.379 -2.02502 -3.83634 0
M  V30 5691 H 558.05 -1.39069 -5.34195 0
M  V30 5692 H 560.526 0.130297 -4.15896 0
M  V30 5693 H 559.402 0.615224 -5.45441 0
M  V30 5694 H 559.663 1.68621 -4.0868 0
M  V30 5695 N 558.722 1.53707 -0.348139 0
M  V30 5696 C 559.999 1.93247 0.302475 0
M  V30 5697 C 560.379 1.28012 1.67857 0
M  V30 5698 O 559.727 0.43274 2.24365 0
M  V30 5699 C 559.937 3.47031 0.370159 0
M  V30 5700 C 561.285 4.20066 0.61882 0
M  V30 5701 O 562.309 3.53319 0.452087 0
M  V30 5702 O 561.168 5.38318 0.94215 0
M  V30 5703 H 558.262 0.807736 0.177458 0
M  V30 5704 H 560.808 1.64927 -0.399651 0
M  V30 5705 H 559.58 3.86745 -0.59534 0
M  V30 5706 H 559.203 3.81532 1.11888 0
M  V30 5707 N 560.2 0.0768682 1.57412 0
M  V30 5708 C 561.446 -0.591961 1.93968 0
M  V30 5709 C 561.779 -1.68954 0.9575 0
M  V30 5710 O 561.054 -1.94496 -0.0124675 0
M  V30 5711 C 561.337 -1.16418 3.40762 0
M  V30 5712 C 561.19 -0.0728933 4.49741 0
M  V30 5713 C 562.509 -2.06814 3.88479 0
M  V30 5714 H 559.628 -0.213716 0.705333 0
M  V30 5715 H 562.27 0.14387 1.89455 0
M  V30 5716 H 560.42 -1.79128 3.4474 0
M  V30 5717 H 562.092 0.560446 4.57883 0
M  V30 5718 H 560.335 0.595859 4.29688 0
M  V30 5719 H 561.006 -0.513755 5.49604 0
M  V30 5720 H 563.482 -1.54033 3.8654 0
M  V30 5721 H 562.358 -2.43785 4.91793 0
M  V30 5722 H 562.619 -2.97844 3.26713 0
M  V30 5723 N 561.678 -1.56367 -0.196722 0
M  V30 5724 C 562.925 -1.80529 -0.917366 0
M  V30 5725 C 563.253 -0.649817 -1.83324 0
M  V30 5726 O 562.508 0.36451 -1.92275 0
M  V30 5727 C 562.807 -3.10663 -1.767 0
M  V30 5728 C 562.473 -4.3962 -1.00225 0
M  V30 5729 C 561.135 -4.74653 -0.791095 0
M  V30 5730 C 563.487 -5.1913 -0.464035 0
M  V30 5731 C 560.815 -5.86692 -0.0302155 0
M  V30 5732 C 563.167 -6.31964 0.283625 0
M  V30 5733 C 561.831 -6.65581 0.505813 0
M  V30 5734 H 561.101 -0.660602 -0.335688 0
M  V30 5735 H 563.748 -1.90615 -0.183844 0
M  V30 5736 H 562.053 -2.95807 -2.56915 0
M  V30 5737 H 563.75 -3.26563 -2.32718 0
M  V30 5738 H 560.34 -4.12127 -1.17684 0
M  V30 5739 H 564.524 -4.9248 -0.614575 0
M  V30 5740 H 559.78 -6.11211 0.151917 0
M  V30 5741 H 563.954 -6.92791 0.708057 0
M  V30 5742 H 561.581 -7.52239 1.0973 0
M  V30 5743 N 563.156 0.464375 -1.50603 0
M  V30 5744 C 564.119 1.54393 -1.69397 0
M  V30 5745 C 565.119 1.50566 -0.564504 0
M  V30 5746 O 566.309 1.53066 -0.831645 0
M  V30 5747 C 563.441 2.9401 -1.72543 0
M  V30 5748 H 564.634 1.39044 -2.65719 0
M  V30 5749 H 562.187 0.69122 -1.40185 0
M  V30 5750 H 562.922 3.14795 -0.77938 0
M  V30 5751 H 562.707 2.98195 -2.54602 0
M  V30 5752 H 564.197 3.72375 -1.89015 0
M  V30 5753 N 564.634 1.40294 0.718013 0
M  V30 5754 C 565.864 1.41544 1.50495 0
M  V30 5755 C 566.272 0.0127877 1.89196 0
M  V30 5756 O 565.615 -0.97305 1.55812 0
M  V30 5757 C 565.677 2.24021 2.81167 0
M  V30 5758 C 565.341 3.72463 2.64803 0
M  V30 5759 C 566.338 4.65154 2.32223 0
M  V30 5760 C 564.023 4.1625 2.81143 0
M  V30 5761 C 566.017 5.99618 2.16189 0
M  V30 5762 C 563.704 5.50784 2.64727 0
M  V30 5763 C 564.702 6.42283 2.32297 0
M  V30 5764 O 564.39 7.74337 2.16004 0
M  V30 5765 H 564.122 0.484819 0.471091 0
M  V30 5766 H 566.676 1.84948 0.893488 0
M  V30 5767 H 564.906 1.75393 3.44636 0
M  V30 5768 H 566.595 2.17243 3.42871 0
M  V30 5769 H 567.361 4.32622 2.19234 0
M  V30 5770 H 563.24 3.45352 3.05373 0
M  V30 5771 H 566.784 6.71 1.90799 0
M  V30 5772 H 562.681 5.82902 2.773 0
M  V30 5773 H 563.449 7.85244 2.30942 0
M  V30 5774 N 566.112 -0.949982 1.2575 0
M  V30 5775 C 567.36 -1.6918 1.10555 0
M  V30 5776 C 567.681 -1.91773 -0.353298 0
M  V30 5777 O 566.951 -1.50814 -1.25027 0
M  V30 5778 H 565.531 -0.626952 0.406129 0
M  V30 5779 H 568.193 -1.1419 1.57945 0
M  V30 5780 H 567.289 -2.66915 1.61749 0
M  V30 5781 N 567.59 -1.07411 -1.15328 0
M  V30 5782 C 569.006 -0.799759 -1.38116 0
M  V30 5783 C 569.206 0.59572 -1.92493 0
M  V30 5784 O 568.262 1.35433 -2.13106 0
M  V30 5785 C 569.575 -1.87407 -2.35158 0
M  V30 5786 C 571.123 -1.89889 -2.48819 0
M  V30 5787 C 571.598 -2.96406 -3.49153 0
M  V30 5788 N 573.089 -2.95512 -3.56689 0
M  V30 5789 C 573.824 -3.74575 -4.34144 0
M  V30 5790 N 573.32 -4.63488 -5.14928 0
M  V30 5791 N 575.113 -3.62919 -4.29239 0
M  V30 5792 H 567.264 -1.97411 -0.78374 0
M  V30 5793 H 569.527 -0.856113 -0.407154 0
M  V30 5794 H 569.233 -2.8768 -2.0232 0
M  V30 5795 H 569.107 -1.73471 -3.34944 0
M  V30 5796 H 571.494 -0.902677 -2.80955 0
M  V30 5797 H 571.575 -2.07904 -1.49029 0
M  V30 5798 H 571.219 -3.96227 -3.17752 0
M  V30 5799 H 571.149 -2.75638 -4.48699 0
M  V30 5800 H 573.64 -2.31061 -2.99031 0
M  V30 5801 H 573.953 -5.20445 -5.71276 0
M  V30 5802 H 572.298 -4.67537 -5.14232 0
M  V30 5803 H 575.489 -2.92833 -3.65194 0
M  V30 5804 H 575.662 -4.24777 -4.89355 0
M  V30 5805 N 569.068 1.32177 -0.85831 0
M  V30 5806 C 570.314 1.97813 -0.47346 0
M  V30 5807 C 570.669 1.66674 0.961122 0
M  V30 5808 O 569.962 0.94657 1.66585 0
M  V30 5809 C 570.156 3.51372 -0.653658 0
M  V30 5810 C 569.985 3.97433 -2.1042 0
M  V30 5811 C 568.755 4.24338 -2.74345 0
M  V30 5812 C 570.953 4.12233 -3.0752 0
M  V30 5813 N 568.935 4.56672 -4.10272 0
M  V30 5814 C 570.306 4.48146 -4.28445 0
M  V30 5815 C 572.361 3.94577 -3.03667 0
M  V30 5816 C 571.064 4.68246 -5.4602 0
M  V30 5817 C 573.09 4.15864 -4.20489 0
M  V30 5818 C 572.452 4.52098 -5.40173 0
M  V30 5819 H 568.551 0.749808 -0.222061 0
M  V30 5820 H 571.135 1.59927 -1.11047 0
M  V30 5821 H 569.306 3.88372 -0.0463267 0
M  V30 5822 H 571.038 4.03998 -0.238343 0
M  V30 5823 H 567.793 4.16544 -2.25362 0
M  V30 5824 H 568.217 4.77019 -4.80398 0
M  V30 5825 H 572.859 3.65662 -2.12252 0
M  V30 5826 H 570.577 4.96014 -6.37962 0
M  V30 5827 H 574.163 4.03702 -4.18947 0
M  V30 5828 H 573.043 4.68238 -6.29065 0
M  V30 5829 N 570.547 0.616602 1.45037 0
M  V30 5830 C 571.793 0.115501 2.02471 0
M  V30 5831 C 572.126 -1.25406 1.4828 0
M  V30 5832 O 571.401 -1.82922 0.661051 0
M  V30 5833 C 571.684 0.0863588 3.59996 0
M  V30 5834 C 571.537 1.48723 4.24501 0
M  V30 5835 C 572.856 -0.596762 4.36035 0
M  V30 5836 H 569.975 0.0434461 0.735718 0
M  V30 5837 H 572.617 0.7903 1.72784 0
M  V30 5838 H 570.767 -0.488277 3.85419 0
M  V30 5839 H 572.439 2.10964 4.10234 0
M  V30 5840 H 570.682 2.04534 3.82555 0
M  V30 5841 H 571.353 1.419 5.3345 0
M  V30 5842 H 573.829 -0.10824 4.15959 0
M  V30 5843 H 572.705 -0.586289 5.4576 0
M  V30 5844 H 572.966 -1.66451 4.09569 0
M  V30 5845 N 572.025 -1.5352 0.356285 0
M  V30 5846 C 572.975 -2.22204 -0.510815 0
M  V30 5847 C 573.959 -1.21393 -1.05605 0
M  V30 5848 O 575.151 -1.46883 -0.987639 0
M  V30 5849 C 572.28 -3.00786 -1.65478 0
M  V30 5850 C 571.366 -4.08965 -1.12287 0
M  V30 5851 N 571.757 -5.04829 -0.313191 0
M  V30 5852 C 570.055 -4.23505 -1.39856 0
M  V30 5853 C 570.756 -5.81695 -0.0230322 0
M  V30 5854 N 569.732 -5.40074 -0.618144 0
M  V30 5855 H 573.534 -2.93676 0.114711 0
M  V30 5856 H 571.048 -1.61572 0.163811 0
M  V30 5857 H 573.045 -3.48502 -2.28806 0
M  V30 5858 H 571.705 -2.30843 -2.28345 0
M  V30 5859 H 572.716 -5.17879 0.0468202 0
M  V30 5860 H 569.393 -3.64786 -2.0307 0
M  V30 5861 H 570.783 -6.68931 0.630927 0
M  V30 5862 N 573.503 -0.0852151 -1.57369 0
M  V30 5863 C 574.433 0.874556 -2.16503 0
M  V30 5864 C 575.414 1.30111 -1.09568 0
M  V30 5865 O 576.599 1.36977 -1.37662 0
M  V30 5866 C 573.729 2.13731 -2.73745 0
M  V30 5867 C 572.683 1.84971 -3.85966 0
M  V30 5868 C 572.009 3.17991 -4.29867 0
M  V30 5869 C 573.309 1.14442 -5.09608 0
M  V30 5870 H 575.003 0.381899 -2.96954 0
M  V30 5871 H 572.549 0.18225 -1.42842 0
M  V30 5872 H 574.502 2.81302 -3.13763 0
M  V30 5873 H 573.226 2.65263 -1.90534 0
M  V30 5874 H 571.885 1.19801 -3.46473 0
M  V30 5875 H 571.533 3.6739 -3.4356 0
M  V30 5876 H 571.233 2.99534 -5.05523 0
M  V30 5877 H 572.757 3.86737 -4.72511 0
M  V30 5878 H 574.171 1.72105 -5.46857 0
M  V30 5879 H 572.568 1.06197 -5.90629 0
M  V30 5880 H 573.638 0.12559 -4.84737 0
M  V30 5881 N 574.981 1.5647 0.188427 0
M  V30 5882 C 575.944 1.9421 1.21718 0
M  V30 5883 C 576.944 0.823901 1.38089 0
M  V30 5884 O 578.134 1.09122 1.35787 0
M  V30 5885 C 575.266 2.22197 2.58537 0
M  V30 5886 H 576.459 2.86252 0.894418 0
M  V30 5887 H 574.012 1.50263 0.430211 0
M  V30 5888 H 574.747 1.32814 2.95856 0
M  V30 5889 H 574.532 3.03688 2.48025 0
M  V30 5890 H 576.022 2.52376 3.3271 0
M  V30 5891 N 576.459 -0.456382 1.50847 0
M  V30 5892 C 577.406 -1.55249 1.70782 0
M  V30 5893 C 578.376 -1.56757 0.549231 0
M  V30 5894 O 579.561 -1.74061 0.7815 0
M  V30 5895 C 576.701 -2.93118 1.82143 0
M  V30 5896 C 575.814 -3.01285 3.09598 0
M  V30 5897 C 574.949 -4.30159 3.11667 0
M  V30 5898 C 573.988 -4.32124 4.33515 0
M  V30 5899 N 573.125 -5.52492 4.3324 0
M  V30 5900 H 577.965 -1.37555 2.64353 0
M  V30 5901 H 575.502 -0.668543 1.3103 0
M  V30 5902 H 577.46 -3.73088 1.86711 0
M  V30 5903 H 576.09 -3.09413 0.919978 0
M  V30 5904 H 575.142 -2.14096 3.14431 0
M  V30 5905 H 576.454 -2.98597 3.99551 0
M  V30 5906 H 575.608 -5.18489 3.15046 0
M  V30 5907 H 574.347 -4.35477 2.1957 0
M  V30 5908 H 573.352 -3.42189 4.30333 0
M  V30 5909 H 574.577 -4.28485 5.26856 0
M  V30 5910 H 572.523 -5.58567 3.44004 0
M  V30 5911 H 572.44 -5.51605 5.16979 0
M  V30 5912 H 573.708 -6.42906 4.40786 0
M  V30 5913 N 577.937 -1.40673 -0.710563 0
M  V30 5914 C 579.183 -1.39428 -1.47267 0
M  V30 5915 C 579.516 0.00182129 -1.942 0
M  V30 5916 O 578.791 0.971387 -1.68506 0
M  V30 5917 C 579.074 -2.38812 -2.6952 0
M  V30 5918 C 578.927 -3.87467 -2.28449 0
M  V30 5919 C 580.246 -2.3566 -3.71689 0
M  V30 5920 H 577.365 -0.507768 -0.534173 0
M  V30 5921 H 580.007 -1.71843 -0.810547 0
M  V30 5922 H 578.157 -2.113 -3.26013 0
M  V30 5923 H 579.829 -4.25825 -1.77399 0
M  V30 5924 H 578.072 -4.03058 -1.60395 0
M  V30 5925 H 578.743 -4.5253 -3.16103 0
M  V30 5926 H 581.219 -2.6004 -3.24836 0
M  V30 5927 H 580.095 -3.07237 -4.54859 0
M  V30 5928 H 580.356 -1.36996 -4.20339 0
M  V30 5929 N 579.415 0.9433 -1.26252 0
M  V30 5930 C 580.378 2.02326 -1.07689 0
M  V30 5931 C 581.378 1.60779 -0.0259174 0
M  V30 5932 O 582.568 1.72108 -0.269134 0
M  V30 5933 C 579.7 3.34886 -0.63752 0
M  V30 5934 H 580.893 2.20225 -2.0357 0
M  V30 5935 H 578.446 1.12197 -1.08819 0
M  V30 5936 H 579.181 3.22684 0.323377 0
M  V30 5937 H 578.966 3.66393 -1.39637 0
M  V30 5938 H 580.456 4.14231 -0.529418 0
M  V30 5939 N 580.893 1.08022 1.14757 0
M  V30 5940 C 582.14 0.807509 1.85703 0
M  V30 5941 C 582.468 -0.666617 1.8272 0
M  V30 5942 O 581.723 -1.50562 1.25018 0
M  V30 5943 C 582.022 1.26964 3.34088 0
M  V30 5944 C 581.688 2.7509 3.57262 0
M  V30 5945 C 580.35 3.15547 3.63296 0
M  V30 5946 C 582.702 3.70667 3.66409 0
M  V30 5947 C 580.03 4.50384 3.75994 0
M  V30 5948 C 582.382 5.05274 3.80632 0
M  V30 5949 C 581.046 5.45342 3.84913 0
M  V30 5950 H 580.316 0.295488 0.679535 0
M  V30 5951 H 582.963 1.35245 1.35577 0
M  V30 5952 H 581.268 0.644216 3.86467 0
M  V30 5953 H 582.965 1.03544 3.87401 0
M  V30 5954 H 579.555 2.42775 3.53212 0
M  V30 5955 H 583.739 3.40533 3.61041 0
M  V30 5956 H 578.995 4.80886 3.77569 0
M  V30 5957 H 583.169 5.79201 3.86652 0
M  V30 5958 H 580.796 6.49823 3.94505 0
M  V30 5959 N 582.371 -1.3172 0.865308 0
M  V30 5960 C 583.281 -2.32394 0.320935 0
M  V30 5961 C 584.297 -1.64511 -0.566746 0
M  V30 5962 O 585.473 -1.95969 -0.464575 0
M  V30 5963 C 582.538 -3.43462 -0.472701 0
M  V30 5964 C 581.599 -4.27015 0.442385 0
M  V30 5965 C 580.832 -5.32779 -0.313469 0
M  V30 5966 O 581.055 -5.49158 -1.54214 0
M  V30 5967 O 579.989 -6.01015 0.326257 0
M  V30 5968 H 583.815 -2.80868 1.15528 0
M  V30 5969 H 581.4 -1.35535 0.628545 0
M  V30 5970 H 583.282 -4.11172 -0.922781 0
M  V30 5971 H 581.957 -2.97159 -1.28367 0
M  V30 5972 H 580.864 -3.62075 0.940866 0
M  V30 5973 H 582.197 -4.76871 1.21882 0
M  V30 5974 N 583.85 -0.624285 -1.44708 0
M  V30 5975 C 584.797 0.0847135 -2.30644 0
M  V30 5976 C 585.767 0.843575 -1.43084 0
M  V30 5977 O 586.952 0.825982 -1.71995 0
M  V30 5978 C 584.091 1.06495 -3.28257 0
M  V30 5979 C 583.205 0.305224 -4.3092 0
M  V30 5980 C 582.34 1.27667 -5.1563 0
M  V30 5981 C 581.379 0.505706 -6.10007 0
M  V30 5982 N 580.516 1.42727 -6.8744 0
M  V30 5983 H 585.356 -0.654068 -2.90733 0
M  V30 5984 H 582.893 -0.334334 -1.4325 0
M  V30 5985 H 584.851 1.64658 -3.83332 0
M  V30 5986 H 583.481 1.77094 -2.69884 0
M  V30 5987 H 582.533 -0.392207 -3.78373 0
M  V30 5988 H 583.845 -0.295553 -4.97924 0
M  V30 5989 H 582.999 1.92984 -5.75189 0
M  V30 5990 H 581.738 1.91137 -4.48685 0
M  V30 5991 H 580.743 -0.160999 -5.49564 0
M  V30 5992 H 581.968 -0.124183 -6.78986 0
M  V30 5993 H 579.913 2.04931 -6.23169 0
M  V30 5994 H 579.831 0.880345 -7.50857 0
M  V30 5995 H 581.099 2.0695 -7.51526 0
M  V30 5996 N 585.328 1.53329 -0.364422 0
M  V30 5997 C 586.558 2.05359 0.226096 0
M  V30 5998 C 586.966 1.23777 1.43094 0
M  V30 5999 O 586.309 0.271139 1.81688 0
M  V30 6000 C 586.371 3.52918 0.684794 0
M  V30 6001 C 586.035 4.55218 -0.403206 0
M  V30 6002 C 587.032 5.04583 -1.2527 0
M  V30 6003 C 584.717 4.99134 -0.563117 0
M  V30 6004 C 586.711 5.96463 -2.24745 0
M  V30 6005 C 584.398 5.9082 -1.56124 0
M  V30 6006 C 585.396 6.39375 -2.40184 0
M  V30 6007 O 585.084 7.29255 -3.38293 0
M  V30 6008 H 584.816 0.674588 0.0436772 0
M  V30 6009 H 587.37 1.98688 -0.520782 0
M  V30 6010 H 585.6 3.57122 1.48326 0
M  V30 6011 H 587.289 3.87812 1.19818 0
M  V30 6012 H 588.055 4.71403 -1.14034 0
M  V30 6013 H 583.934 4.60928 0.0813909 0
M  V30 6014 H 587.478 6.34285 -2.90393 0
M  V30 6015 H 583.375 6.23414 -1.67407 0
M  V30 6016 H 584.143 7.47249 -3.34009 0
M  V30 6017 N 586.806 0.0935595 1.57322 0
M  V30 6018 C 588.053 -0.570509 1.94297 0
M  V30 6019 C 588.381 -1.68286 0.97519 0
M  V30 6020 O 587.636 -1.95699 -0.00548655 0
M  V30 6021 C 587.935 -1.16692 3.37813 0
M  V30 6022 C 587.601 -0.178509 4.50547 0
M  V30 6023 C 586.263 0.0933475 4.81109 0
M  V30 6024 C 588.615 0.496472 5.1883 0
M  V30 6025 C 585.943 1.0469 5.77284 0
M  V30 6026 C 588.295 1.43849 6.16028 0
M  V30 6027 C 586.959 1.71859 6.44997 0
M  V30 6028 H 586.229 -0.208764 0.710984 0
M  V30 6029 H 588.876 0.169066 1.90752 0
M  V30 6030 H 587.181 -1.98271 3.37929 0
M  V30 6031 H 588.878 -1.6884 3.63722 0
M  V30 6032 H 585.468 -0.400584 4.26724 0
M  V30 6033 H 589.652 0.299584 4.95395 0
M  V30 6034 H 584.908 1.27094 5.98044 0
M  V30 6035 H 589.082 1.96734 6.68034 0
M  V30 6036 H 586.709 2.45906 7.19329 0
M  V30 6037 N 588.284 -1.56567 -0.180126 0
M  V30 6038 C 589.533 -1.80685 -0.896426 0
M  V30 6039 C 589.846 -0.669335 -1.83791 0
M  V30 6040 O 591.052 -0.795209 -2.59593 0
M  V30 6041 C 589.508 -3.20132 -1.6445 0
M  V30 6042 C 589.116 -4.41727 -0.747088 0
M  V30 6043 C 590.86 -3.53549 -2.34955 0
M  V30 6044 C 588.767 -5.72195 -1.49489 0
M  V30 6045 H 587.697 -0.673758 -0.338477 0
M  V30 6046 H 590.348 -1.8289 -0.149467 0
M  V30 6047 H 588.73 -3.12218 -2.43589 0
M  V30 6048 H 589.904 -4.608 0.00671129 0
M  V30 6049 H 588.219 -4.16122 -0.152134 0
M  V30 6050 H 590.816 -4.48267 -2.91481 0
M  V30 6051 H 591.159 -2.78006 -3.09868 0
M  V30 6052 H 591.692 -3.62976 -1.62768 0
M  V30 6053 H 588.431 -6.50743 -0.788251 0
M  V30 6054 H 587.951 -5.57115 -2.22224 0
M  V30 6055 H 589.63 -6.1384 -2.04472 0
M  V30 6056 N 589.762 0.448376 -1.51087 0
M  V30 6057 C 591.178 0.783984 -1.39017 0
M  V30 6058 C 591.378 1.96087 -0.463904 0
M  V30 6059 O 590.434 2.52357 0.0850534 0
M  V30 6060 C 591.747 1.07471 -2.80839 0
M  V30 6061 C 593.295 1.17981 -2.89913 0
M  V30 6062 C 593.77 1.50354 -4.32617 0
M  V30 6063 N 595.261 1.57301 -4.35673 0
M  V30 6064 C 595.996 1.839 -5.4311 0
M  V30 6065 N 595.492 2.08365 -6.60724 0
M  V30 6066 N 597.285 1.8559 -5.30578 0
M  V30 6067 H 589.436 -0.326881 -2.0987 0
M  V30 6068 H 591.699 -0.0838006 -0.944289 0
M  V30 6069 H 591.405 0.282768 -3.50561 0
M  V30 6070 H 591.279 2.00519 -3.19487 0
M  V30 6071 H 593.666 1.9624 -2.20395 0
M  V30 6072 H 593.747 0.228603 -2.54776 0
M  V30 6073 H 593.391 0.726273 -5.0268 0
M  V30 6074 H 593.321 2.46663 -4.65258 0
M  V30 6075 H 595.812 1.40342 -3.50874 0
M  V30 6076 H 596.125 2.27999 -7.38401 0
M  V30 6077 H 594.47 2.0571 -6.63859 0
M  V30 6078 H 597.661 1.65989 -4.37682 0
M  V30 6079 H 597.834 2.05983 -6.1439 0
M  V30 6080 N 591.24 1.41047 0.703093 0
M  V30 6081 C 592.187 1.42302 1.81711 0
M  V30 6082 C 593.157 0.278336 1.63751 0
M  V30 6083 O 594.342 0.478266 1.84709 0
M  V30 6084 C 591.482 1.30362 3.19531 0
M  V30 6085 C 590.595 2.54638 3.48975 0
M  V30 6086 C 589.73 2.35047 4.76368 0
M  V30 6087 C 588.769 3.54837 4.98756 0
M  V30 6088 N 587.906 3.34363 6.1737 0
M  V30 6089 H 592.746 2.37516 1.79973 0
M  V30 6090 H 590.283 1.1795 0.878983 0
M  V30 6091 H 592.241 1.21443 3.99134 0
M  V30 6092 H 590.871 0.387602 3.20464 0
M  V30 6093 H 589.923 2.74037 2.63833 0
M  V30 6094 H 591.235 3.43766 3.61423 0
M  V30 6095 H 590.389 2.23552 5.64012 0
M  V30 6096 H 589.128 1.43363 4.66153 0
M  V30 6097 H 588.133 3.66795 4.09563 0
M  V30 6098 H 589.358 4.47464 5.10835 0
M  V30 6099 H 587.304 2.45373 6.08382 0
M  V30 6100 H 587.221 4.17063 6.30551 0
M  V30 6101 H 588.489 3.26626 7.07768 0
M  V30 6102 N 592.718 -0.936591 1.26751 0
M  V30 6103 C 593.651 -2.03619 1.03027 0
M  V30 6104 C 594.629 -1.62534 -0.0464619 0
M  V30 6105 O 595.813 -1.88251 0.0968873 0
M  V30 6106 C 592.94 -3.3402 0.561072 0
M  V30 6107 C 591.986 -3.9408 1.63105 0
M  V30 6108 S 592.819 -4.27782 3.22122 0
M  V30 6109 C 593.975 -5.61277 2.76982 0
M  V30 6110 H 594.208 -2.23429 1.96129 0
M  V30 6111 H 591.741 -1.07857 1.10482 0
M  V30 6112 H 593.699 -4.09424 0.297031 0
M  V30 6113 H 592.36 -3.12147 -0.349741 0
M  V30 6114 H 591.553 -4.88154 1.25386 0
M  V30 6115 H 591.155 -3.25227 1.84671 0
M  V30 6116 H 593.447 -6.40189 2.21731 0
M  V30 6117 H 594.39 -6.03887 3.69766 0
M  V30 6118 H 594.798 -5.21374 2.16402 0
M  V30 6119 N 594.196 -1.08629 -1.14182 0
M  V30 6120 C 595.143 -0.718299 -2.19338 0
M  V30 6121 C 596.113 0.296587 -1.63431 0
M  V30 6122 O 597.298 0.180079 -1.89948 0
M  V30 6123 C 594.438 -0.136203 -3.44831 0
M  V30 6124 C 593.551 -1.20414 -4.14879 0
M  V30 6125 C 592.686 -0.585666 -5.27962 0
M  V30 6126 C 591.725 -1.63548 -5.89846 0
M  V30 6127 N 590.862 -1.03864 -6.94375 0
M  V30 6128 H 595.702 -1.61932 -2.50164 0
M  V30 6129 H 593.239 -0.80919 -1.22844 0
M  V30 6130 H 595.197 0.219021 -4.16625 0
M  V30 6131 H 593.827 0.728121 -3.14481 0
M  V30 6132 H 592.879 -1.67676 -3.41451 0
M  V30 6133 H 594.191 -1.99959 -4.56966 0
M  V30 6134 H 593.345 -0.178818 -6.06436 0
M  V30 6135 H 592.084 0.24142 -4.87102 0
M  V30 6136 H 591.089 -2.05197 -5.10073 0
M  V30 6137 H 592.314 -2.46509 -6.3278 0
M  V30 6138 H 590.26 -0.232687 -6.55587 0
M  V30 6139 H 590.177 -1.77116 -7.3496 0
M  V30 6140 H 591.445 -0.657724 -7.7672 0
M  V30 6141 N 595.674 1.31259 -0.872281 0
M  V30 6142 C 596.607 2.26544 -0.274394 0
M  V30 6143 C 597.585 1.51213 0.597776 0
M  V30 6144 O 598.769 1.80277 0.550687 0
M  V30 6145 C 595.896 3.33139 0.611256 0
M  V30 6146 C 594.942 4.26077 -0.189876 0
M  V30 6147 S 595.775 5.11971 -1.56989 0
M  V30 6148 C 596.931 6.2208 -0.690427 0
M  V30 6149 H 597.164 2.76908 -1.0821 0
M  V30 6150 H 594.697 1.3906 -0.670939 0
M  V30 6151 H 596.655 3.95024 1.11654 0
M  V30 6152 H 595.316 2.81525 1.39294 0
M  V30 6153 H 594.509 5.01657 0.485433 0
M  V30 6154 H 594.111 3.68701 -0.627339 0
M  V30 6155 H 596.403 6.77429 0.098001 0
M  V30 6156 H 597.346 6.93768 -1.41742 0
M  V30 6157 H 597.754 5.63915 -0.256953 0
M  V30 6158 N 597.152 0.631951 1.44375 0
M  V30 6159 C 598.4 0.136497 2.01639 0
M  V30 6160 C 598.721 -1.24637 1.49969 0
M  V30 6161 O 597.991 -1.82827 0.70363 0
M  V30 6162 H 596.571 0.0474703 0.74549 0
M  V30 6163 H 599.233 0.818837 1.76865 0
M  V30 6164 H 598.329 0.104817 3.11924 0
M  V30 6165 N 598.631 -1.53133 0.372548 0
M  V30 6166 C 599.877 -2.01654 -0.215277 0
M  V30 6167 C 600.21 -1.25914 -1.47849 0
M  V30 6168 O 599.485 -0.3548 -1.91237 0
M  V30 6169 C 599.768 -3.56609 -0.500187 0
M  V30 6170 C 599.621 -4.43036 0.777145 0
M  V30 6171 C 600.94 -4.20528 -1.29786 0
M  V30 6172 H 598.059 -0.732991 -0.0767686 0
M  V30 6173 H 600.701 -1.83335 0.498814 0
M  V30 6174 H 598.851 -3.7235 -1.10852 0
M  V30 6175 H 600.523 -4.39079 1.41447 0
M  V30 6176 H 598.766 -4.10723 1.39604 0
M  V30 6177 H 599.437 -5.49424 0.532662 0
M  V30 6178 H 601.913 -4.08663 -0.783198 0
M  V30 6179 H 600.789 -5.28962 -1.46596 0
M  V30 6180 H 601.05 -3.77051 -2.30836 0
M  V30 6181 N 600.109 -0.101901 -1.5727 0
M  V30 6182 C 601.334 0.571759 -1.99363 0
M  V30 6183 C 601.759 1.60507 -0.980768 0
M  V30 6184 O 601.117 1.81231 0.0498517 0
M  V30 6185 C 601.165 1.18996 -3.404 0
M  V30 6186 O 600.269 2.30572 -3.41922 0
M  V30 6187 H 599.61 0.144449 -0.648098 0
M  V30 6188 H 602.14 -0.185325 -2.03759 0
M  V30 6189 H 602.15 1.52962 -3.78241 0
M  V30 6190 H 600.825 0.432984 -4.1364 0
M  V30 6191 H 599.402 1.98173 -3.15883 0
M  V30 6192 N 601.587 1.56661 0.17182 0
M  V30 6193 C 602.497 1.99604 1.2327 0
M  V30 6194 C 603.513 0.907333 1.4847 0
M  V30 6195 O 604.689 1.21492 1.60629 0
M  V30 6196 C 601.754 2.34685 2.55194 0
M  V30 6197 C 600.815 3.57381 2.3786 0
M  V30 6198 C 600.048 3.90779 3.63494 0
M  V30 6199 O 600.271 3.25152 4.6865 0
M  V30 6200 O 599.205 4.84129 3.57634 0
M  V30 6201 H 603.031 2.90114 0.898192 0
M  V30 6202 H 600.616 1.44522 0.378647 0
M  V30 6203 H 602.498 2.5822 3.33017 0
M  V30 6204 H 601.173 1.47336 2.88225 0
M  V30 6205 H 600.08 3.39064 1.5807 0
M  V30 6206 H 601.413 4.45268 2.09754 0
M  V30 6207 N 603.065 -0.440357 1.51323 0
M  V30 6208 C 604.476 -1.02032 1.56353 0
M  V30 6209 C 604.827 -1.92382 0.385197 0
M  V30 6210 O 603.952 -2.10583 -0.498373 0
M  V30 6211 C 604.547 -1.85723 2.83359 0
M  V30 6212 C 603.106 -2.38774 2.90971 0
M  V30 6213 C 602.253 -1.17908 2.50984 0
M  V30 6214 H 605.204 -0.221744 1.57143 0
M  V30 6215 H 605.225 -2.71141 2.66951 0
M  V30 6216 H 604.737 -1.19939 3.69102 0
M  V30 6217 H 602.838 -3.08021 2.09651 0
M  V30 6218 H 602.951 -2.71778 3.94555 0
M  V30 6219 H 601.315 -1.52347 2.04114 0
M  V30 6220 H 602.098 -0.537393 3.39068 0
M  V30 6221 N 604.543 -1.41418 -0.695603 0
M  V30 6222 C 605.79 -1.40774 -1.45564 0
M  V30 6223 C 606.118 -0.0168604 -1.94493 0
M  V30 6224 O 605.373 0.971259 -1.69897 0
M  V30 6225 C 605.672 -2.36112 -2.68302 0
M  V30 6226 C 605.338 -3.82952 -2.38031 0
M  V30 6227 C 604 -4.22954 -2.29486 0
M  V30 6228 C 606.352 -4.75662 -2.13061 0
M  V30 6229 C 603.68 -5.53674 -1.94067 0
M  V30 6230 C 606.032 -6.06702 -1.79151 0
M  V30 6231 C 604.696 -6.45725 -1.69102 0
M  V30 6232 H 603.966 -0.515128 -0.532658 0
M  V30 6233 H 606.613 -1.74216 -0.795047 0
M  V30 6234 H 604.918 -1.95924 -3.39295 0
M  V30 6235 H 606.615 -2.32887 -3.26442 0
M  V30 6236 H 603.205 -3.5127 -2.45576 0
M  V30 6237 H 607.389 -4.45561 -2.18608 0
M  V30 6238 H 602.645 -5.8279 -1.8484 0
M  V30 6239 H 606.819 -6.78041 -1.5885 0
M  V30 6240 H 604.446 -7.46929 -1.41426 0
M  V30 6241 N 606.021 0.929856 -1.27246 0
M  V30 6242 C 607.251 1.70895 -1.16096 0
M  V30 6243 C 607.659 1.87039 0.285122 0
M  V30 6244 O 607.002 1.38557 1.20614 0
M  V30 6245 C 607.064 3.12919 -1.7698 0
M  V30 6246 C 606.728 3.2012 -3.26148 0
M  V30 6247 C 607.725 3.02533 -4.22812 0
M  V30 6248 C 605.41 3.43148 -3.66817 0
M  V30 6249 C 607.404 3.07861 -5.58122 0
M  V30 6250 C 605.091 3.48109 -5.02258 0
M  V30 6251 C 606.089 3.30483 -5.97721 0
M  V30 6252 O 605.777 3.35175 -7.30694 0
M  V30 6253 H 605.509 0.54152 -0.404639 0
M  V30 6254 H 608.063 1.17342 -1.68582 0
M  V30 6255 H 606.293 3.67945 -1.18969 0
M  V30 6256 H 607.982 3.72787 -1.60576 0
M  V30 6257 H 608.748 2.84586 -3.92728 0
M  V30 6258 H 604.627 3.55918 -2.9299 0
M  V30 6259 H 608.171 2.94021 -6.32612 0
M  V30 6260 H 604.068 3.65579 -5.31998 0
M  V30 6261 H 604.836 3.51644 -7.39114 0
M  V30 6262 N 607.499 1.09233 1.13605 0
M  V30 6263 C 608.409 0.741939 2.22559 0
M  V30 6264 C 609.425 -0.255236 1.72118 0
M  V30 6265 O 610.601 -0.0970747 2.01166 0
M  V30 6266 C 607.666 0.165595 3.46304 0
M  V30 6267 C 606.727 1.21846 4.11645 0
M  V30 6268 C 605.96 0.669526 5.29484 0
M  V30 6269 O 606.183 -0.508228 5.68131 0
M  V30 6270 O 605.117 1.42361 5.84822 0
M  V30 6271 H 608.943 1.65107 2.54899 0
M  V30 6272 H 606.528 0.866584 1.21699 0
M  V30 6273 H 608.41 -0.152592 4.21124 0
M  V30 6274 H 607.085 -0.716573 3.15669 0
M  V30 6275 H 605.992 1.58931 3.38662 0
M  V30 6276 H 607.325 2.07321 4.46407 0
M  V30 6277 N 608.977 -1.30795 0.87923 0
M  V30 6278 C 609.924 -2.28282 0.339968 0
M  V30 6279 C 610.894 -1.56134 -0.566685 0
M  V30 6280 O 612.079 -1.84231 -0.496338 0
M  V30 6281 C 609.219 -3.42225 -0.444501 0
M  V30 6282 C 608.332 -4.29204 0.490717 0
M  V30 6283 C 607.467 -5.30302 -0.308784 0
M  V30 6284 C 606.506 -6.08929 0.622272 0
M  V30 6285 N 605.643 -7.01957 -0.14155 0
M  V30 6286 H 610.483 -2.73794 1.17647 0
M  V30 6287 H 608.02 -1.34682 0.591527 0
M  V30 6288 H 609.978 -4.07038 -0.915186 0
M  V30 6289 H 608.608 -2.97799 -1.24562 0
M  V30 6290 H 607.66 -3.6475 1.07988 0
M  V30 6291 H 608.972 -4.84045 1.20425 0
M  V30 6292 H 608.126 -6.00835 -0.841575 0
M  V30 6293 H 606.865 -4.7614 -1.05556 0
M  V30 6294 H 605.87 -5.37278 1.16674 0
M  V30 6295 H 607.095 -6.65178 1.36804 0
M  V30 6296 H 605.041 -6.50192 -0.870966 0
M  V30 6297 H 604.958 -7.54261 0.51246 0
M  V30 6298 H 606.226 -7.76741 -0.655271 0
M  V30 6299 N 610.455 -0.639598 -1.44038 0
M  V30 6300 C 611.701 -0.147698 -2.02261 0
M  V30 6301 C 612.034 1.23031 -1.50256 0
M  V30 6302 O 611.309 1.81847 -0.690068 0
M  V30 6303 C 611.592 -0.14362 -3.59813 0
M  V30 6304 C 611.445 -1.55458 -4.22082 0
M  V30 6305 C 612.764 0.527317 -4.36929 0
M  V30 6306 H 609.883 -0.0551453 -0.734934 0
M  V30 6307 H 612.525 -0.817688 -1.71505 0
M  V30 6308 H 610.675 0.426898 -3.86147 0
M  V30 6309 H 612.347 -2.17464 -4.06826 0
M  V30 6310 H 610.59 -2.10594 -3.79253 0
M  V30 6311 H 611.261 -1.50369 -5.31124 0
M  V30 6312 H 613.737 0.0420504 -4.16079 0
M  V30 6313 H 612.613 0.499389 -5.46624 0
M  V30 6314 H 612.874 1.59914 -4.12165 0
M  V30 6315 N 611.933 1.52934 -0.380664 0
M  V30 6316 C 612.863 2.29118 0.450268 0
M  V30 6317 C 613.844 1.32153 1.07096 0
M  V30 6318 O 615.029 1.61038 1.08537 0
M  V30 6319 C 612.159 3.09161 1.58231 0
M  V30 6320 C 611.113 4.13938 1.0881 0
M  V30 6321 C 610.439 4.82153 2.31155 0
M  V30 6322 C 611.739 5.22048 0.162146 0
M  V30 6323 H 613.433 2.98826 -0.185361 0
M  V30 6324 H 610.979 1.43715 -0.0905886 0
M  V30 6325 H 612.932 3.61211 2.17036 0
M  V30 6326 H 611.656 2.3717 2.2454 0
M  V30 6327 H 610.315 3.62855 0.522633 0
M  V30 6328 H 609.963 4.06719 2.95953 0
M  V30 6329 H 609.663 5.52966 1.98752 0
M  V30 6330 H 611.187 5.37004 2.90618 0
M  V30 6331 H 612.601 5.6951 0.658126 0
M  V30 6332 H 610.998 6.00057 -0.0717122 0
M  V30 6333 H 612.068 4.78398 -0.791438 0
M  V30 6334 N 613.412 0.11024 1.57214 0
M  V30 6335 C 614.659 -0.54987 1.94891 0
M  V30 6336 C 614.987 -1.67243 0.992984 0
M  V30 6337 O 614.242 -1.95694 0.0152703 0
M  V30 6338 C 614.541 -1.13102 3.39032 0
M  V30 6339 C 614.207 -0.130713 4.5071 0
M  V30 6340 C 612.869 0.14437 4.80983 0
M  V30 6341 C 615.221 0.551472 5.18274 0
M  V30 6342 C 612.549 1.10807 5.76141 0
M  V30 6343 C 614.901 1.50375 6.14467 0
M  V30 6344 C 613.565 1.78691 6.43138 0
M  V30 6345 H 612.835 -0.201212 0.713158 0
M  V30 6346 H 615.482 0.189288 1.90562 0
M  V30 6347 H 613.787 -1.94675 3.40013 0
M  V30 6348 H 615.484 -1.64973 3.65493 0
M  V30 6349 H 612.074 -0.355301 4.27125 0
M  V30 6350 H 616.258 0.35211 4.95049 0
M  V30 6351 H 611.514 1.3343 5.96663 0
M  V30 6352 H 615.688 2.03808 6.65909 0
M  V30 6353 H 613.315 2.53522 7.1668 0
M  V30 6354 N 614.89 -1.56749 -0.16351 0
M  V30 6355 C 615.837 -1.97011 -1.2023 0
M  V30 6356 C 616.807 -0.835186 -1.43575 0
M  V30 6357 O 617.992 -1.09594 -1.56185 0
M  V30 6358 C 615.132 -2.34186 -2.53478 0
M  V30 6359 C 614.245 -3.60893 -2.37446 0
M  V30 6360 C 613.38 -3.87245 -3.63614 0
M  V30 6361 C 612.419 -5.07274 -3.42548 0
M  V30 6362 N 611.556 -5.29719 -4.60806 0
M  V30 6363 H 616.396 -2.85562 -0.851958 0
M  V30 6364 H 613.933 -1.41292 -0.409257 0
M  V30 6365 H 615.891 -2.53764 -3.31149 0
M  V30 6366 H 614.521 -1.48736 -2.86492 0
M  V30 6367 H 613.573 -3.49185 -1.50911 0
M  V30 6368 H 614.885 -4.48722 -2.1783 0
M  V30 6369 H 614.039 -4.07232 -4.49719 0
M  V30 6370 H 612.778 -2.97806 -3.86216 0
M  V30 6371 H 611.783 -4.87177 -2.5483 0
M  V30 6372 H 613.008 -5.98251 -3.2136 0
M  V30 6373 H 610.954 -4.43233 -4.83612 0
M  V30 6374 H 610.871 -6.11786 -4.44132 0
M  V30 6375 H 612.139 -5.54192 -5.48171 0
M  V30 6376 N 616.368 0.432326 -1.51554 0
M  V30 6377 C 617.301 1.54525 -1.6792 0
M  V30 6378 C 618.279 1.53831 -0.526764 0
M  V30 6379 O 619.463 1.72884 -0.751233 0
M  V30 6380 C 616.59 2.931 -1.69736 0
M  V30 6381 C 615.636 3.11799 -2.91005 0
M  V30 6382 S 616.469 2.87565 -4.51737 0
M  V30 6383 C 617.625 4.28412 -4.56305 0
M  V30 6384 H 617.858 1.4041 -2.62054 0
M  V30 6385 H 615.391 0.622357 -1.41301 0
M  V30 6386 H 617.349 3.72974 -1.71467 0
M  V30 6387 H 616.01 3.04574 -0.767705 0
M  V30 6388 H 615.203 4.13127 -2.8869 0
M  V30 6389 H 614.805 2.39757 -2.87041 0
M  V30 6390 H 617.097 5.21692 -4.32254 0
M  V30 6391 H 618.04 4.35758 -5.58141 0
M  V30 6392 H 618.448 4.12301 -3.85576 0
M  V30 6393 N 617.846 1.41785 0.688094 0
M  V30 6394 C 618.779 1.38643 1.81255 0
M  V30 6395 C 619.757 0.252583 1.60626 0
M  V30 6396 O 620.941 0.440691 1.83276 0
M  V30 6397 C 618.068 1.16449 3.18053 0
M  V30 6398 C 617.114 2.32651 3.57457 0
M  V30 6399 S 617.947 3.95152 3.61407 0
M  V30 6400 C 619.103 3.75275 5.00919 0
M  V30 6401 H 619.336 2.33799 1.83644 0
M  V30 6402 H 616.869 1.28398 0.857513 0
M  V30 6403 H 618.827 1.0433 3.97021 0
M  V30 6404 H 617.488 0.229002 3.13264 0
M  V30 6405 H 616.681 2.12835 4.56856 0
M  V30 6406 H 616.283 2.41215 2.85817 0
M  V30 6407 H 618.575 3.35443 5.88629 0
M  V30 6408 H 619.518 4.74302 5.25778 0
M  V30 6409 H 619.926 3.08401 4.7281 0
M  V30 6410 N 619.324 -0.923095 1.27737 0
M  V30 6411 C 620.572 -1.66797 1.14119 0
M  V30 6412 C 620.893 -1.92479 -0.312541 0
M  V30 6413 O 620.163 -1.53432 -1.218 0
M  V30 6414 H 618.743 -0.618196 0.419336 0
M  V30 6415 H 621.405 -1.10815 1.60331 0
M  V30 6416 H 620.501 -2.63424 1.67374 0
M  V30 6417 N 620.802 -1.09834 -1.13024 0
M  V30 6418 C 622.051 -0.831806 -1.83749 0
M  V30 6419 C 622.364 0.644763 -1.84668 0
M  V30 6420 O 623.57 1.02697 -2.51327 0
M  V30 6421 C 622.026 -1.43817 -3.29916 0
M  V30 6422 C 621.634 -2.94759 -3.37374 0
M  V30 6423 C 623.378 -1.25077 -4.05655 0
M  V30 6424 C 621.285 -3.48461 -4.77838 0
M  V30 6425 H 620.215 -0.30751 -0.688443 0
M  V30 6426 H 622.866 -1.32156 -1.27307 0
M  V30 6427 H 621.248 -0.876106 -3.86187 0
M  V30 6428 H 622.422 -3.57228 -2.91076 0
M  V30 6429 H 620.737 -3.12581 -2.75103 0
M  V30 6430 H 623.334 -1.62649 -5.09362 0
M  V30 6431 H 623.677 -0.191782 -4.15858 0
M  V30 6432 H 624.21 -1.78057 -3.55725 0
M  V30 6433 H 620.949 -4.53998 -4.72828 0
M  V30 6434 H 620.469 -2.90757 -5.24615 0
M  V30 6435 H 622.148 -3.45914 -5.46766 0
M  V30 6436 N 622.28 1.30327 -0.886154 0
M  V30 6437 C 623.508 2.00254 -0.520176 0
M  V30 6438 C 623.923 1.66419 0.891637 0
M  V30 6439 O 623.28 0.901951 1.58654 0
M  V30 6440 C 623.331 3.54916 -0.686775 0
M  V30 6441 O 623.052 3.87547 -2.04301 0
M  V30 6442 C 624.553 4.42115 -0.323945 0
M  V30 6443 H 621.773 0.640204 -0.200947 0
M  V30 6444 H 624.317 1.66183 -1.19178 0
M  V30 6445 H 622.472 3.8735 -0.0625273 0
M  V30 6446 H 622.886 4.82247 -2.06249 0
M  V30 6447 H 624.36 5.49808 -0.491407 0
M  V30 6448 H 624.837 4.32953 0.73811 0
M  V30 6449 H 625.443 4.15129 -0.924565 0
M  V30 6450 N 623.758 0.647228 1.43697 0
M  V30 6451 C 625.174 0.314256 1.56476 0
M  V30 6452 C 625.374 -1.18191 1.63196 0
M  V30 6453 O 624.43 -1.96655 1.58376 0
M  V30 6454 C 625.743 1.02034 2.82859 0
M  V30 6455 C 627.291 1.00002 2.96595 0
M  V30 6456 C 627.766 1.68689 4.25803 0
M  V30 6457 N 629.257 1.65424 4.32654 0
M  V30 6458 C 629.992 2.1545 5.31384 0
M  V30 6459 N 629.488 2.73738 6.36427 0
M  V30 6460 N 631.281 2.05985 5.22998 0
M  V30 6461 H 623.432 1.61821 1.37578 0
M  V30 6462 H 625.695 0.680184 0.660344 0
M  V30 6463 H 625.401 2.07542 2.83935 0
M  V30 6464 H 625.275 0.568146 3.72897 0
M  V30 6465 H 627.662 -0.0466319 2.95063 0
M  V30 6466 H 627.743 1.49086 2.07863 0
M  V30 6467 H 627.387 2.73308 4.28095 0
M  V30 6468 H 627.317 1.17076 5.13421 0
M  V30 6469 H 629.808 1.22884 3.57363 0
M  V30 6470 H 630.121 3.09602 7.08072 0
M  V30 6471 H 628.466 2.77796 6.37067 0
M  V30 6472 H 631.657 1.60157 4.39849 0
M  V30 6473 H 631.83 2.45281 5.99784 0
M  V30 6474 N 625.236 -1.5273 0.388769 0
M  V30 6475 C 626.166 -2.29353 -0.438111 0
M  V30 6476 C 627.147 -1.32719 -1.06394 0
M  V30 6477 O 628.332 -1.61612 -1.07681 0
M  V30 6478 C 625.462 -3.09995 -1.56589 0
M  V30 6479 C 624.416 -4.14509 -1.06613 0
M  V30 6480 C 623.742 -4.83372 -2.28594 0
M  V30 6481 C 625.042 -5.22127 -0.134459 0
M  V30 6482 H 626.736 -2.98723 0.201206 0
M  V30 6483 H 624.282 -1.43665 0.0982089 0
M  V30 6484 H 626.235 -3.62357 -2.15118 0
M  V30 6485 H 624.959 -2.38357 -2.23279 0
M  V30 6486 H 623.618 -3.63128 -0.503383 0
M  V30 6487 H 623.266 -4.08283 -2.93792 0
M  V30 6488 H 622.966 -5.54012 -1.95817 0
M  V30 6489 H 624.49 -5.38538 -2.87766 0
M  V30 6490 H 625.904 -5.69851 -0.627914 0
M  V30 6491 H 624.301 -6.00011 0.103534 0
M  V30 6492 H 625.371 -4.77971 0.816798 0
M  V30 6493 N 626.714 -0.118576 -1.57153 0
M  V30 6494 C 627.661 0.831789 -2.1529 0
M  V30 6495 C 628.631 1.26385 -1.07778 0
M  V30 6496 O 629.816 1.34144 -1.35684 0
M  V30 6497 C 626.956 2.07664 -2.75626 0
M  V30 6498 C 626.069 1.69298 -3.97444 0
M  V30 6499 C 625.204 2.88747 -4.45868 0
M  V30 6500 C 624.243 2.46619 -5.60219 0
M  V30 6501 N 623.38 3.5898 -6.03389 0
M  V30 6502 H 628.22 0.329183 -2.96176 0
M  V30 6503 H 625.757 0.150792 -1.46325 0
M  V30 6504 H 627.715 2.80601 -3.08738 0
M  V30 6505 H 626.345 2.55384 -1.97431 0
M  V30 6506 H 625.397 0.862374 -3.70496 0
M  V30 6507 H 626.709 1.34338 -4.80369 0
M  V30 6508 H 625.863 3.69909 -4.80887 0
M  V30 6509 H 624.602 3.26933 -3.61892 0
M  V30 6510 H 623.607 1.63889 -5.24805 0
M  V30 6511 H 624.832 2.0955 -6.45961 0
M  V30 6512 H 622.778 3.9684 -5.22354 0
M  V30 6513 H 622.695 3.27942 -6.81168 0
M  V30 6514 H 623.963 4.40583 -6.43045 0
M  V30 6515 N 628.193 1.56834 0.155195 0
M  V30 6516 C 629.103 2.009 1.21146 0
M  V30 6517 C 630.119 0.923029 1.475 0
M  V30 6518 O 631.295 1.23189 1.59331 0
M  V30 6519 C 628.36 2.37378 2.52691 0
M  V30 6520 C 627.421 3.59883 2.34057 0
M  V30 6521 C 626.654 3.94612 3.59329 0
M  V30 6522 O 626.877 3.30104 4.65175 0
M  V30 6523 O 625.811 4.87895 3.52479 0
M  V30 6524 H 629.637 2.9105 0.867371 0
M  V30 6525 H 627.222 1.44916 0.363298 0
M  V30 6526 H 629.104 2.61737 3.3026 0
M  V30 6527 H 627.779 1.50385 2.86646 0
M  V30 6528 H 626.686 3.40722 1.54465 0
M  V30 6529 H 628.019 4.47468 2.0502 0
M  V30 6530 N 629.671 -0.424282 1.51781 0
M  V30 6531 C 630.581 -1.54087 1.76902 0
M  V30 6532 C 631.597 -1.61249 0.653826 0
M  V30 6533 O 632.773 -1.78247 0.937552 0
M  V30 6534 C 629.838 -2.8996 1.90063 0
M  V30 6535 C 628.899 -2.92809 3.13945 0
M  V30 6536 C 628.132 -4.22201 3.26469 0
M  V30 6537 O 628.355 -5.15286 2.44616 0
M  V30 6538 O 627.289 -4.31599 4.1953 0
M  V30 6539 H 631.115 -1.358 2.71647 0
M  V30 6540 H 628.7 -0.608618 1.36441 0
M  V30 6541 H 630.582 -3.70575 2.0063 0
M  V30 6542 H 629.257 -3.08347 0.985067 0
M  V30 6543 H 628.164 -2.11102 3.08847 0
M  V30 6544 H 629.497 -2.79369 4.05233 0
M  V30 6545 N 631.149 -1.42148 -0.680565 0
M  V30 6546 C 632.426 -1.32795 -1.43614 0
M  V30 6547 C 632.806 0.037415 -2.11067 0
M  V30 6548 O 632.154 1.05258 -2.02813 0
M  V30 6549 C 632.364 -2.49206 -2.44331 0
M  V30 6550 C 633.712 -2.91059 -3.09144 0
M  V30 6551 O 634.736 -2.49054 -2.54657 0
M  V30 6552 O 633.595 -3.63741 -4.07866 0
M  V30 6553 H 630.689 -0.523397 -0.640301 0
M  V30 6554 H 633.235 -1.54144 -0.709775 0
M  V30 6555 H 632.007 -3.40252 -1.93247 0
M  V30 6556 H 631.63 -2.29813 -3.24456 0
M  V30 6557 N 632.627 0.916307 -1.28225 0
M  V30 6558 C 633.855 1.69901 -1.18073 0
M  V30 6559 C 634.27 1.86988 0.260968 0
M  V30 6560 O 633.627 1.39505 1.17663 0
M  V30 6561 C 633.678 3.09254 -1.87201 0
M  V30 6562 O 633.399 2.92959 -3.2574 0
M  V30 6563 C 634.9 4.0362 -1.83319 0
M  V30 6564 H 632.12 0.531181 -0.409985 0
M  V30 6565 H 634.664 1.14703 -1.69303 0
M  V30 6566 H 632.819 3.61277 -1.39848 0
M  V30 6567 H 633.233 3.81139 -3.60324 0
M  V30 6568 H 634.707 4.98873 -2.36282 0
M  V30 6569 H 635.184 4.3176 -0.805007 0
M  V30 6570 H 635.79 3.57524 -2.3034 0
M  V30 6571 N 634.105 1.10431 1.1244 0
M  V30 6572 C 635.055 0.722378 2.16254 0
M  V30 6573 C 636.039 -0.268427 1.58645 0
M  V30 6574 O 637.231 -0.077169 1.76832 0
M  V30 6575 C 634.36 0.155763 3.42946 0
M  V30 6576 C 633.446 1.17361 4.07538 0
M  V30 6577 N 633.837 2.36429 4.47141 0
M  V30 6578 C 632.135 1.01412 4.34317 0
M  V30 6579 C 632.836 3.01259 4.97612 0
M  V30 6580 N 631.812 2.28777 4.93115 0
M  V30 6581 H 635.614 1.62876 2.4464 0
M  V30 6582 H 633.128 0.982031 1.29344 0
M  V30 6583 H 635.125 -0.135936 4.16678 0
M  V30 6584 H 633.785 -0.745339 3.1603 0
M  V30 6585 H 634.796 2.73954 4.39511 0
M  V30 6586 H 631.473 0.168574 4.1716 0
M  V30 6587 H 632.863 4.02541 5.37968 0
M  V30 6588 N 635.583 -1.29855 0.893053 0
M  V30 6589 C 636.999 -1.48366 0.588199 0
M  V30 6590 C 637.199 -1.81654 -0.872018 0
M  V30 6591 O 636.255 -1.909 -1.65268 0
M  V30 6592 C 637.568 -2.60136 1.5083 0
M  V30 6593 C 639.116 -2.74014 1.51279 0
M  V30 6594 C 639.591 -3.88905 2.41902 0
M  V30 6595 N 641.082 -3.96228 2.39911 0
M  V30 6596 C 641.817 -4.84458 3.06738 0
M  V30 6597 N 641.313 -5.77426 3.8282 0
M  V30 6598 N 643.106 -4.77894 2.95929 0
M  V30 6599 H 635.257 -1.06522 1.83757 0
M  V30 6600 H 637.52 -0.528495 0.787018 0
M  V30 6601 H 637.226 -2.42383 2.54839 0
M  V30 6602 H 637.1 -3.56793 1.22388 0
M  V30 6603 H 639.487 -2.91167 0.480179 0
M  V30 6604 H 639.568 -1.77952 1.83757 0
M  V30 6605 H 639.212 -3.72508 3.45253 0
M  V30 6606 H 639.142 -4.84322 2.06737 0
M  V30 6607 H 641.633 -3.29728 1.84629 0
M  V30 6608 H 641.946 -6.41529 4.30883 0
M  V30 6609 H 640.291 -5.77332 3.86927 0
M  V30 6610 H 643.482 -4.04248 2.36012 0
M  V30 6611 H 643.655 -5.46444 3.48286 0
M  V30 6612 N 637.061 -0.65484 -1.43351 0
M  V30 6613 C 638.008 0.0357713 -2.30772 0
M  V30 6614 C 638.978 0.813035 -1.44841 0
M  V30 6615 O 640.163 0.789314 -1.73708 0
M  V30 6616 C 637.303 0.995084 -3.30442 0
M  V30 6617 C 636.416 0.21375 -4.31471 0
M  V30 6618 C 635.551 1.16701 -5.18222 0
M  V30 6619 C 634.59 0.376201 -6.10943 0
M  V30 6620 N 633.727 1.28113 -6.90313 0
M  V30 6621 H 638.567 -0.71559 -2.89281 0
M  V30 6622 H 636.104 -0.364645 -1.42509 0
M  V30 6623 H 638.062 1.5649 -3.86739 0
M  V30 6624 H 636.692 1.7133 -2.7358 0
M  V30 6625 H 635.744 -0.472377 -3.77456 0
M  V30 6626 H 637.056 -0.401103 -4.97185 0
M  V30 6627 H 636.21 1.8074 -5.79153 0
M  V30 6628 H 634.949 1.81577 -4.52638 0
M  V30 6629 H 633.954 -0.277534 -5.49099 0
M  V30 6630 H 635.179 -0.268178 -6.7857 0
M  V30 6631 H 633.125 1.91666 -6.27376 0
M  V30 6632 H 633.042 0.720879 -7.52555 0
M  V30 6633 H 634.31 1.90962 -7.55747 0
M  V30 6634 N 638.539 1.52521 -0.396863 0
M  V30 6635 C 639.502 2.2527 0.422604 0
M  V30 6636 C 640.502 1.27184 0.983913 0
M  V30 6637 O 641.692 1.51222 0.864723 0
M  V30 6638 C 638.824 3.01356 1.59365 0
M  V30 6639 H 640.017 2.99133 -0.214416 0
M  V30 6640 H 637.57 1.55587 -0.149128 0
M  V30 6641 H 638.305 2.31813 2.26789 0
M  V30 6642 H 638.09 3.73357 1.19779 0
M  V30 6643 H 639.58 3.56571 2.17363 0
M  V30 6644 N 640.017 0.126909 1.57088 0
M  V30 6645 C 641.242 -0.53997 2.00248 0
M  V30 6646 C 641.667 -1.58927 1.00618 0
M  V30 6647 O 641.025 -1.81288 -0.0210131 0
M  V30 6648 C 641.073 -1.13565 3.4225 0
M  V30 6649 O 640.177 -2.25103 3.45547 0
M  V30 6650 H 639.518 -0.13412 0.650314 0
M  V30 6651 H 642.048 0.217718 2.03438 0
M  V30 6652 H 642.058 -1.46925 3.80627 0
M  V30 6653 H 640.733 -0.367122 4.14277 0
M  V30 6654 H 639.31 -1.93123 3.18995 0
M  V30 6655 O 641.534 -1.61495 -0.0122585 0
M  V30 6656 H 642.225 -1.83148 -0.630585 0
M  V30 END ATOM
M  V30 BEGIN BOND
M  V30 END BOND
M  V30 END CTAB
M  END
$$$$
