drugbank_target|C0H4Y6 Protein disulfide-isomerase (DB11638)
 OpenBabel12092121103D

  0  0  0     0  0            999 V3000
M  V30 BEGIN CTAB
M  V30 COUNTS 7802 7899 0 0 0
M  V30 BEGIN ATOM
M  V30 1 H -0.908 1.98254 -0.117106 0
M  V30 2 N 0 1.576 0 0
M  V30 3 C 0.933 2.03868 1.02534 0
M  V30 4 C 1.911 0.928543 1.3348 0
M  V30 5 O 3.095 1.19667 1.45644 0
M  V30 6 C 0.222 2.43627 2.35294 0
M  V30 7 C -0.732 3.65373 2.2001 0
M  V30 8 S 0.101 5.13292 1.52614 0
M  V30 9 C 1.257 5.56322 2.86805 0
M  V30 10 H 1.49 2.90518 0.631377 0
M  V30 11 H -0.977 1.52953 0.210867 0
M  V30 12 H 0.981 2.67203 3.11629 0
M  V30 13 H -0.358 1.57376 2.7183 0
M  V30 14 H -1.165 3.90944 3.18086 0
M  V30 15 H -1.563 3.418 1.51819 0
M  V30 16 H 0.729 5.58782 3.83104 0
M  V30 17 H 1.672 6.56266 2.65933 0
M  V30 18 H 2.08 4.83886 2.90714 0
M  V30 19 N 1.4781 -0.272755 1.55222 0
M  V30 20 C 2.4261 -1.35705 1.88909 0
M  V30 21 C 3.4201 -1.5112 0.765456 0
M  V30 22 O 4.6261 -1.52901 0.949802 0
M  V30 23 H 1.0011 -0.453868 0.59959 0
M  V30 24 H 2.9721 -1.04544 2.79487 0
M  V30 25 C 1.7211 -2.71049 2.17779 0
M  V30 26 H 1.0441 -2.59979 3.03728 0
M  V30 27 H 2.4841 -3.45858 2.45272 0
M  V30 28 C 0.9431 -3.22165 0.985473 0
M  V30 29 O 1.4731 -4.01096 0.220233 0
M  V30 30 N -0.3209 -2.7985 0.783108 0
M  V30 31 H -0.7739 -2.15775 1.40708 0
M  V30 32 H -0.8159 -3.14397 -0.0130392 0
M  V30 33 N 2.9562 -1.48159 -0.537278 0
M  V30 34 C 4.3722 -1.34118 -0.865129 0
M  V30 35 C 4.5722 -0.346678 -1.98495 0
M  V30 36 O 3.6282 0.234715 -2.51407 0
M  V30 37 C 4.9412 -2.73963 -1.23954 0
M  V30 38 C 6.4892 -2.82397 -1.34984 0
M  V30 39 C 6.9642 -4.22928 -1.75772 0
M  V30 40 N 8.4552 -4.25566 -1.82887 0
M  V30 41 C 9.1902 -5.31235 -2.15817 0
M  V30 42 N 8.6862 -6.47189 -2.47222 0
M  V30 43 N 10.4792 -5.18624 -2.16761 0
M  V30 44 H 2.6302 -2.1144 0.201715 0
M  V30 45 H 4.8932 -0.947598 0.0275949 0
M  V30 46 H 4.5992 -3.48264 -0.490381 0
M  V30 47 H 4.4732 -3.0702 -2.19132 0
M  V30 48 H 6.8602 -2.08356 -2.08978 0
M  V30 49 H 6.9412 -2.5297 -0.379448 0
M  V30 50 H 6.5852 -4.97482 -1.02341 0
M  V30 51 H 6.5152 -4.49794 -2.73848 0
M  V30 52 H 9.0062 -3.41924 -1.60924 0
M  V30 53 H 9.3192 -7.23564 -2.71433 0
M  V30 54 H 7.6642 -6.50476 -2.44757 0
M  V30 55 H 10.8552 -4.27056 -1.91679 0
M  V30 56 H 11.0282 -6.01078 -2.42093 0
M  V30 57 N 4.4343 0.785586 -1.36625 0
M  V30 58 C 5.3813 1.89838 -1.31264 0
M  V30 59 C 6.3513 1.65115 -0.180633 0
M  V30 60 O 7.5363 1.87222 -0.36777 0
M  V30 61 C 4.6763 3.26706 -1.11163 0
M  V30 62 C 3.7893 3.63476 -2.33472 0
M  V30 63 C 2.9243 4.89481 -2.06353 0
M  V30 64 C 1.9633 5.18941 -3.24602 0
M  V30 65 N 1.1003 6.36131 -2.97123 0
M  V30 66 H 5.9403 1.93756 -2.26413 0
M  V30 67 H 3.4773 0.947454 -1.12524 0
M  V30 68 H 5.4353 4.05639 -0.975337 0
M  V30 69 H 4.0653 3.222 -0.196674 0
M  V30 70 H 3.1173 2.79636 -2.57891 0
M  V30 71 H 4.4293 3.81193 -3.21704 0
M  V30 72 H 3.5833 5.76288 -1.89675 0
M  V30 73 H 2.3223 4.73841 -1.15437 0
M  V30 74 H 1.3273 4.30615 -3.41834 0
M  V30 75 H 2.5523 5.36498 -4.16349 0
M  V30 76 H 0.4983 6.21875 -2.08823 0
M  V30 77 H 0.4153 6.54198 -3.78894 0
M  V30 78 H 1.6833 7.2591 -2.84033 0
M  V30 79 N 5.9124 1.20967 1.01018 0
M  V30 80 C 7.1424 1.04803 1.78044 0
M  V30 81 C 7.5504 -0.405462 1.84804 0
M  V30 82 O 6.8934 -1.2932 1.30468 0
M  V30 83 C 6.9554 1.56377 3.23707 0
M  V30 84 C 6.6194 3.04767 3.40538 0
M  V30 85 C 7.6164 4.02366 3.29239 0
M  V30 86 C 5.3014 3.43862 3.66147 0
M  V30 87 C 7.2954 5.37049 3.43304 0
M  V30 88 C 4.9824 4.78699 3.79855 0
M  V30 89 C 5.9804 5.75101 3.68439 0
M  V30 90 O 5.6684 7.07493 3.81719 0
M  V30 91 H 5.4004 0.368778 0.56655 0
M  V30 92 H 7.9544 1.60642 1.27997 0
M  V30 93 H 6.1844 0.949297 3.74867 0
M  V30 94 H 7.8734 1.36136 3.8239 0
M  V30 95 H 8.6394 3.73506 3.09384 0
M  V30 96 H 4.5184 2.69364 3.74118 0
M  V30 97 H 8.0624 6.12277 3.34309 0
M  V30 98 H 3.9594 5.07247 3.99213 0
M  V30 99 H 4.7274 7.1483 3.98697 0
M  V30 100 N 7.3905 -1.2043 1.01659 0
M  V30 101 C 8.6375 -1.89797 0.705917 0
M  V30 102 C 8.9655 -1.78848 -0.764439 0
M  V30 103 O 8.2205 -1.16694 -1.57102 0
M  V30 104 C 8.5195 -3.40464 1.08714 0
M  V30 105 C 8.1855 -3.71614 2.5537 0
M  V30 106 C 6.8475 -3.79826 2.95441 0
M  V30 107 C 9.1995 -3.85915 3.50313 0
M  V30 108 C 6.5275 -3.99797 4.29394 0
M  V30 109 C 8.8795 -4.07396 4.83954 0
M  V30 110 C 7.5435 -4.13837 5.23732 0
M  V30 111 H 6.8135 -0.694518 0.258313 0
M  V30 112 H 9.4605 -1.42691 1.27717 0
M  V30 113 H 7.7655 -3.89385 0.434309 0
M  V30 114 H 9.4625 -3.92433 0.824461 0
M  V30 115 H 6.0525 -3.65822 2.23321 0
M  V30 116 H 10.2365 -3.78926 3.20513 0
M  V30 117 H 5.4925 -4.03018 4.59768 0
M  V30 118 H 9.6665 -4.17404 5.57447 0
M  V30 119 H 7.2935 -4.29064 6.27541 0
M  V30 120 N 8.8686 -0.792821 -1.36206 0
M  V30 121 C 10.0936 -0.377701 -2.03932 0
M  V30 122 C 10.5186 0.998947 -1.59382 0
M  V30 123 O 9.8766 1.64421 -0.763903 0
M  V30 124 C 9.9246 -0.453635 -3.57735 0
M  V30 125 O 9.0286 0.538151 -4.08874 0
M  V30 126 H 8.3696 -0.159855 -0.644471 0
M  V30 127 H 10.8996 -1.07488 -1.7409 0
M  V30 128 H 10.9096 -0.318464 -4.06755 0
M  V30 129 H 9.5846 -1.45784 -3.89512 0
M  V30 130 H 8.1616 0.364359 -3.71116 0
M  V30 131 N 10.3467 1.47872 -0.545128 0
M  V30 132 C 11.5717 2.07391 -0.0190611 0
M  V30 133 C 11.9967 1.39688 1.25971 0
M  V30 134 O 11.3547 0.467816 1.7516 0
M  V30 135 C 11.4027 3.60188 0.172335 0
M  V30 136 O 10.5067 3.9339 1.23766 0
M  V30 137 H 9.8477 0.662411 -0.0459059 0
M  V30 138 H 12.3777 1.90066 -0.757365 0
M  V30 139 H 12.3877 4.06129 0.390305 0
M  V30 140 H 11.0627 4.08865 -0.761725 0
M  V30 141 H 9.6397 3.5921 1.00114 0
M  V30 142 N 11.8248 0.280983 1.55075 0
M  V30 143 C 12.7548 -0.597469 2.25727 0
M  V30 144 C 13.7358 -1.15417 1.24952 0
M  V30 145 O 14.9208 -1.18722 1.53684 0
M  V30 146 C 12.0508 -1.7789 2.98283 0
M  V30 147 C 11.0048 -1.35347 4.06036 0
M  V30 148 C 10.3308 -2.61846 4.66198 0
M  V30 149 C 11.6308 -0.499354 5.19907 0
M  V30 150 H 13.3248 -0.00824265 2.99399 0
M  V30 151 H 10.8708 -0.0025244 1.44 0
M  V30 152 H 12.8238 -2.39937 3.46422 0
M  V30 153 H 11.5478 -2.39405 2.22155 0
M  V30 154 H 10.2068 -0.756156 3.58717 0
M  V30 155 H 9.8548 -3.21632 3.86732 0
M  V30 156 H 9.5548 -2.3409 5.38958 0
M  V30 157 H 11.0788 -3.24732 5.1709 0
M  V30 158 H 12.4928 -1.02498 5.64063 0
M  V30 159 H 10.8898 -0.316424 5.99265 0
M  V30 160 H 11.9598 0.480459 4.82514 0
M  V30 161 N 13.3029 -1.57598 0.00835791 0
M  V30 162 C 14.5499 -1.90928 -0.674732 0
M  V30 163 C 14.8779 -0.88277 -1.73313 0
M  V30 164 O 14.1329 0.111294 -1.95383 0
M  V30 165 C 14.4319 -3.3101 -1.34787 0
M  V30 166 C 14.0979 -4.48922 -0.421861 0
M  V30 167 C 12.7599 -4.8091 -0.166927 0
M  V30 168 C 15.1119 -5.20755 0.215211 0
M  V30 169 C 12.4399 -5.821 0.733232 0
M  V30 170 C 14.7919 -6.22905 1.1033 0
M  V30 171 C 13.4559 -6.53346 1.36733 0
M  V30 172 H 12.7259 -0.698656 -0.246902 0
M  V30 173 H 15.3729 -1.91387 0.0656779 0
M  V30 174 H 13.6779 -3.26714 -2.16253 0
M  V30 175 H 15.3749 -3.54061 -1.8826 0
M  V30 176 H 11.9649 -4.23934 -0.630729 0
M  V30 177 H 16.1489 -4.9629 0.0312829 0
M  V30 178 H 11.4049 -6.04042 0.945712 0
M  V30 179 H 15.5789 -6.77694 1.60325 0
M  V30 180 H 13.2059 -7.31573 2.06652 0
M  V30 181 N 14.781 0.264519 -1.55364 0
M  V30 182 C 15.711 1.33121 -1.91836 0
M  V30 183 C 16.692 1.51101 -0.781192 0
M  V30 184 O 17.877 1.64003 -1.04003 0
M  V30 185 C 15.007 2.68921 -2.19769 0
M  V30 186 C 13.961 2.65661 -3.35571 0
M  V30 187 C 13.287 4.05093 -3.49004 0
M  V30 188 C 14.587 2.24187 -4.71739 0
M  V30 189 H 16.281 1.02844 -2.81182 0
M  V30 190 H 13.827 0.493286 -1.35287 0
M  V30 191 H 15.78 3.43663 -2.43872 0
M  V30 192 H 14.504 3.00799 -1.27231 0
M  V30 193 H 13.163 1.93377 -3.1145 0
M  V30 194 H 12.811 4.34206 -2.53917 0
M  V30 195 H 12.511 4.03804 -4.26868 0
M  V30 196 H 14.035 4.81561 -3.75408 0
M  V30 197 H 15.449 2.88654 -4.9533 0
M  V30 198 H 13.846 2.34044 -5.52579 0
M  V30 199 H 14.916 1.19327 -4.69988 0
M  V30 200 N 16.2591 1.48442 0.529413 0
M  V30 201 C 17.5061 1.56488 1.28521 0
M  V30 202 C 17.8341 0.239042 1.93025 0
M  V30 203 O 17.0891 -0.770713 1.79885 0
M  V30 204 C 17.3881 2.6523 2.39558 0
M  V30 205 C 17.0541 4.07648 1.92702 0
M  V30 206 C 15.7161 4.46411 1.79641 0
M  V30 207 C 18.0681 4.96896 1.573 0
M  V30 208 C 15.3961 5.72226 1.29514 0
M  V30 209 C 17.7481 6.23202 1.08636 0
M  V30 210 C 16.4121 6.60821 0.941919 0
M  V30 211 H 15.6821 0.572631 0.470292 0
M  V30 212 H 18.3291 1.82161 0.59072 0
M  V30 213 H 16.6341 2.33419 3.14679 0
M  V30 214 H 18.3311 2.68671 2.97686 0
M  V30 215 H 14.9211 3.77036 2.03819 0
M  V30 216 H 19.1051 4.67626 1.66251 0
M  V30 217 H 14.3611 6.00097 1.17019 0
M  V30 218 H 18.5351 6.91753 0.803136 0
M  V30 219 H 16.1621 7.58198 0.5513 0
M  V30 220 N 17.7372 -0.778329 1.37039 0
M  V30 221 C 18.6672 -1.90546 1.34962 0
M  V30 222 C 19.6482 -1.68681 0.219274 0
M  V30 223 O 20.8332 -1.89634 0.418624 0
M  V30 224 C 17.9632 -3.27734 1.14925 0
M  V30 225 C 16.9172 -3.64147 2.24902 0
M  V30 226 C 16.2432 -4.99806 1.89996 0
M  V30 227 C 17.5432 -3.71579 3.67051 0
M  V30 228 H 19.2372 -1.92541 2.29277 0
M  V30 229 H 16.7832 -0.924948 1.10366 0
M  V30 230 H 18.7362 -4.06215 1.12104 0
M  V30 231 H 17.4602 -3.26154 0.170631 0
M  V30 232 H 16.1192 -2.8797 2.26868 0
M  V30 233 H 15.7672 -4.94759 0.906796 0
M  V30 234 H 15.4672 -5.25139 2.63634 0
M  V30 235 H 16.9912 -5.80694 1.88749 0
M  V30 236 H 18.4052 -4.40227 3.67251 0
M  V30 237 H 16.8022 -4.08405 4.39688 0
M  V30 238 H 17.8722 -2.72404 4.01154 0
M  V30 239 N 19.2153 -1.21501 -1.00376 0
M  V30 240 C 20.4643 -1.02718 -1.73586 0
M  V30 241 C 20.7773 0.439589 -1.90596 0
M  V30 242 O 21.9833 0.746848 -2.61026 0
M  V30 243 C 20.4393 -1.78929 -3.1227 0
M  V30 244 C 20.0473 -3.29783 -3.03228 0
M  V30 245 C 21.7913 -1.68557 -3.89601 0
M  V30 246 C 19.6983 -3.98479 -4.36999 0
M  V30 247 H 18.6283 -0.380733 -0.650814 0
M  V30 248 H 21.2793 -1.45248 -1.1214 0
M  V30 249 H 19.6613 -1.29192 -3.74333 0
M  V30 250 H 20.8353 -3.86832 -2.50395 0
M  V30 251 H 19.1503 -3.40711 -2.39385 0
M  V30 252 H 21.7473 -2.17211 -4.88593 0
M  V30 253 H 22.0903 -0.644021 -4.11288 0
M  V30 254 H 22.6233 -2.15778 -3.34193 0
M  V30 255 H 19.3623 -5.02841 -4.20513 0
M  V30 256 H 18.8823 -3.46219 -4.89788 0
M  V30 257 H 20.5613 -4.03462 -5.05794 0
M  V30 258 N 20.6934 1.19889 -1.02296 0
M  V30 259 C 21.9184 1.9393 -0.735237 0
M  V30 260 C 22.3434 1.74639 0.698782 0
M  V30 261 O 21.7014 1.04481 1.48167 0
M  V30 262 C 21.7494 3.43916 -1.08417 0
M  V30 263 O 20.8534 4.11917 -0.199446 0
M  V30 264 H 20.1944 0.605645 -0.272196 0
M  V30 265 H 22.7244 1.52137 -1.36804 0
M  V30 266 H 22.7344 3.9456 -1.03856 0
M  V30 267 H 21.4094 3.5728 -2.12894 0
M  V30 268 H 19.9864 3.71666 -0.303136 0
M  V30 269 N 22.1715 0.800033 1.35784 0
M  V30 270 C 23.4185 0.377342 1.98953 0
M  V30 271 C 23.7465 -1.05378 1.6348 0
M  V30 272 O 23.0015 -1.74459 0.886707 0
M  V30 273 C 23.3005 0.500276 3.53881 0
M  V30 274 C 22.9665 1.89375 4.09204 0
M  V30 275 C 21.6285 2.27499 4.24025 0
M  V30 276 C 23.9805 2.8057 4.39238 0
M  V30 277 C 21.3085 3.562 4.66195 0
M  V30 278 C 23.6605 4.0871 4.82844 0
M  V30 279 C 22.3245 4.46843 4.95871 0
M  V30 280 H 21.5945 0.138079 0.728021 0
M  V30 281 H 24.2415 1.01955 1.62103 0
M  V30 282 H 22.5465 -0.225405 3.91151 0
M  V30 283 H 24.2435 0.154097 4.00704 0
M  V30 284 H 20.8335 1.58753 3.98115 0
M  V30 285 H 25.0175 2.52367 4.27346 0
M  V30 286 H 20.2735 3.85602 4.74469 0
M  V30 287 H 24.4475 4.79481 5.05046 0
M  V30 288 H 22.0745 5.46623 5.28306 0
M  V30 289 N 23.6496 -1.47581 0.552962 0
M  V30 290 C 24.8956 -2.02782 0.0273648 0
M  V30 291 C 25.2286 -1.42687 -1.31734 0
M  V30 292 O 24.5036 -0.580897 -1.85623 0
M  V30 293 C 24.7866 -3.60031 -0.0702371 0
M  V30 294 C 24.6396 -4.30566 1.30126 0
M  V30 295 C 25.9586 -4.33028 -0.785771 0
M  V30 296 H 23.0776 -0.736912 0.0114185 0
M  V30 297 H 25.7196 -1.76056 0.714432 0
M  V30 298 H 23.8696 -3.82932 -0.655382 0
M  V30 299 H 25.5416 -4.19018 1.92929 0
M  V30 300 H 23.7846 -3.91086 1.87709 0
M  V30 301 H 24.4556 -5.39114 1.18573 0
M  V30 302 H 26.9316 -4.15095 -0.288982 0
M  V30 303 H 25.8076 -5.42695 -0.823013 0
M  V30 304 H 26.0686 -4.01945 -1.841 0
M  V30 305 N 25.1277 -0.289203 -1.54924 0
M  V30 306 C 26.3747 0.323519 -1.99899 0
M  V30 307 C 26.7027 1.54797 -1.17762 0
M  V30 308 O 25.9577 1.94237 -0.238835 0
M  V30 309 C 26.2567 0.736119 -3.49737 0
M  V30 310 C 25.9227 -0.385276 -4.49251 0
M  V30 311 C 24.5847 -0.693156 -4.76181 0
M  V30 312 C 26.9367 -1.14021 -5.08575 0
M  V30 313 C 24.2647 -1.7593 -5.59701 0
M  V30 314 C 26.6167 -2.19619 -5.93254 0
M  V30 315 C 25.2807 -2.51026 -6.185 0
M  V30 316 H 24.5507 0.118384 -0.731482 0
M  V30 317 H 27.1977 -0.405847 -1.8715 0
M  V30 318 H 25.5027 1.54539 -3.60035 0
M  V30 319 H 27.1997 1.22118 -3.81953 0
M  V30 320 H 23.7897 -0.135202 -4.28387 0
M  V30 321 H 27.9737 -0.915611 -4.87781 0
M  V30 322 H 23.2297 -2.0075 -5.77503 0
M  V30 323 H 27.4037 -2.78581 -6.38252 0
M  V30 324 H 25.0307 -3.33772 -6.83008 0
M  V30 325 N 26.6058 1.57591 -0.0167156 0
M  V30 326 C 27.5158 2.1291 0.98521 0
M  V30 327 C 28.5318 1.07834 1.36557 0
M  V30 328 O 29.7078 1.39826 1.44951 0
M  V30 329 C 26.7728 2.63512 2.25305 0
M  V30 330 C 25.8338 3.83256 1.93426 0
M  V30 331 C 25.0668 4.31435 3.14165 0
M  V30 332 O 25.2898 3.78851 4.26413 0
M  V30 333 O 24.2238 5.23416 2.97186 0
M  V30 334 H 28.0498 2.98772 0.544888 0
M  V30 335 H 25.6348 1.48012 0.203141 0
M  V30 336 H 27.5168 2.96183 2.99756 0
M  V30 337 H 26.1918 1.8074 2.68542 0
M  V30 338 H 25.0988 3.55531 1.16398 0
M  V30 339 H 26.4318 4.67153 1.55013 0
M  V30 340 N 28.0839 -0.256276 1.55502 0
M  V30 341 C 29.3089 -1.00766 1.81276 0
M  V30 342 C 29.7339 -1.78524 0.59252 0
M  V30 343 O 29.0919 -1.75413 -0.45827 0
M  V30 344 C 29.1399 -1.92869 3.04687 0
M  V30 345 O 28.2439 -3.019 2.80945 0
M  V30 346 H 27.5849 -0.287224 0.598664 0
M  V30 347 H 30.1149 -0.280109 2.02674 0
M  V30 348 H 30.1249 -2.34511 3.33869 0
M  V30 349 H 28.7999 -1.35689 3.93143 0
M  V30 350 H 27.3769 -2.64454 2.62904 0
M  V30 351 N 29.562 -1.4872 -0.521534 0
M  V30 352 C 30.809 -1.57168 -1.27689 0
M  V30 353 C 31.137 -0.249275 -1.92896 0
M  V30 354 O 30.392 0.761162 -1.80291 0
M  V30 355 C 30.691 -2.66497 -2.38148 0
M  V30 356 C 30.357 -4.08664 -1.90538 0
M  V30 357 C 29.019 -4.47357 -1.77271 0
M  V30 358 C 31.371 -4.97724 -1.54663 0
M  V30 359 C 28.699 -5.72905 -1.26478 0
M  V30 360 C 31.051 -6.2377 -1.05329 0
M  V30 361 C 29.715 -6.61311 -0.906861 0
M  V30 362 H 28.985 -0.575117 -0.467249 0
M  V30 363 H 31.632 -1.82472 -0.581051 0
M  V30 364 H 29.937 -2.35085 -3.13437 0
M  V30 365 H 31.634 -2.70246 -2.96257 0
M  V30 366 H 28.224 -3.78111 -2.01816 0
M  V30 367 H 32.408 -4.68501 -1.63768 0
M  V30 368 H 27.664 -6.00709 -1.13835 0
M  V30 369 H 31.838 -6.9217 -0.76644 0
M  V30 370 H 29.465 -7.5848 -0.511083 0
M  V30 371 N 31.0401 0.771051 -1.3745 0
M  V30 372 C 32.2861 1.5319 -1.32894 0
M  V30 373 C 32.6191 1.94008 0.0862511 0
M  V30 374 O 31.8941 1.64124 1.04373 0
M  V30 375 C 32.1771 2.79648 -2.26868 0
M  V30 376 C 32.0301 2.45079 -3.77169 0
M  V30 377 C 33.3491 3.81583 -2.19277 0
M  V30 378 H 30.4681 0.555744 -0.484064 0
M  V30 379 H 33.1101 0.884492 -1.68157 0
M  V30 380 H 31.2601 3.34891 -1.96926 0
M  V30 381 H 32.9321 1.95745 -4.1771 0
M  V30 382 H 31.1751 1.77767 -3.95704 0
M  V30 383 H 31.8461 3.35478 -4.38359 0
M  V30 384 H 34.3221 3.35835 -2.45671 0
M  V30 385 H 33.1981 4.67787 -2.87171 0
M  V30 386 H 33.4591 4.25897 -1.18592 0
M  V30 387 N 32.5182 1.22032 0.997298 0
M  V30 388 C 33.9342 0.979326 1.26021 0
M  V30 389 C 34.1342 -0.32972 1.98784 0
M  V30 390 O 33.1902 -1.05345 2.29475 0
M  V30 391 C 34.5032 2.17509 2.07631 0
M  V30 392 C 36.0512 2.21817 2.2083 0
M  V30 393 C 36.5262 3.40933 3.05825 0
M  V30 394 N 38.0172 3.41067 3.13412 0
M  V30 395 C 38.7522 4.29885 3.79455 0
M  V30 396 N 38.2482 5.28914 4.47462 0
M  V30 397 N 40.0412 4.17673 3.76173 0
M  V30 398 H 32.1922 2.06202 0.509352 0
M  V30 399 H 34.4552 0.90334 0.287541 0
M  V30 400 H 34.1612 3.12415 1.61524 0
M  V30 401 H 34.0352 2.17206 3.08385 0
M  V30 402 H 36.4222 1.27462 2.66153 0
M  V30 403 H 36.5032 2.2616 1.1952 0
M  V30 404 H 36.1472 4.35586 2.61203 0
M  V30 405 H 36.0772 3.33829 4.07266 0
M  V30 406 H 38.5682 2.69406 2.65007 0
M  V30 407 H 38.8812 5.92973 4.95583 0
M  V30 408 H 37.2262 5.32831 4.46224 0
M  V30 409 H 40.4172 3.39564 3.22202 0
M  V30 410 H 40.5902 4.87098 4.27363 0
M  V30 411 N 33.9963 -1.19345 1.0293 0
M  V30 412 C 35.2213 -1.93538 0.745511 0
M  V30 413 C 35.6463 -1.75007 -0.689511 0
M  V30 414 O 35.0043 -1.05265 -1.47611 0
M  V30 415 C 35.0523 -3.43336 1.10239 0
M  V30 416 O 34.1563 -4.11806 0.221289 0
M  V30 417 H 33.4973 -0.604193 0.275404 0
M  V30 418 H 36.0273 -1.5141 1.37609 0
M  V30 419 H 36.0373 -3.94004 1.05947 0
M  V30 420 H 34.7123 -3.56146 2.14786 0
M  V30 421 H 33.2893 -3.715 0.322842 0
M  V30 422 N 35.4744 -0.807222 -1.35358 0
M  V30 423 C 36.4244 -0.190706 -2.27201 0
M  V30 424 C 37.4084 0.635838 -1.47804 0
M  V30 425 O 38.6004 0.492991 -1.69996 0
M  V30 426 C 35.7294 0.659337 -3.36909 0
M  V30 427 C 34.8154 -0.176971 -4.23731 0
M  V30 428 N 35.2064 -1.24029 -4.90357 0
M  V30 429 C 33.5044 0.0412953 -4.45981 0
M  V30 430 C 34.2054 -1.75092 -5.54723 0
M  V30 431 N 33.1814 -1.05727 -5.33219 0
M  V30 432 H 36.9834 -1.0043 -2.76208 0
M  V30 433 H 34.4974 -0.648445 -1.48892 0
M  V30 434 H 36.4944 1.11706 -4.01656 0
M  V30 435 H 35.1544 1.47127 -2.89454 0
M  V30 436 H 36.1654 -1.62295 -4.91814 0
M  V30 437 H 32.8424 0.82232 -4.09322 0
M  V30 438 H 34.2324 -2.63963 -6.17878 0
M  V30 439 N 36.9525 1.47285 -0.560781 0
M  V30 440 C 38.2005 2.02064 -0.0379868 0
M  V30 441 C 38.5215 1.43711 1.31803 0
M  V30 442 O 37.7915 0.61362 1.86042 0
M  V30 443 H 36.3715 0.746918 -0.0110531 0
M  V30 444 H 39.0335 1.80648 -0.731598 0
M  V30 445 H 38.1295 3.12064 0.0474463 0
M  V30 446 N 38.4306 0.297415 1.54768 0
M  V30 447 C 39.7076 -0.365847 1.92148 0
M  V30 448 C 40.0876 -1.71975 1.22424 0
M  V30 449 O 39.4356 -2.25666 0.358739 0
M  V30 450 C 39.6456 -0.484056 3.45627 0
M  V30 451 C 40.9936 -0.756594 4.17805 0
M  V30 452 O 42.0176 -0.568007 3.51642 0
M  V30 453 O 40.8766 -1.11863 5.34929 0
M  V30 454 H 37.9706 -0.203919 0.801465 0
M  V30 455 H 40.5166 0.34521 1.66152 0
M  V30 456 H 39.2886 0.467865 3.88493 0
M  V30 457 H 38.9116 -1.24372 3.77647 0
M  V30 458 N 39.9087 -1.5758 0.0250728 0
M  V30 459 C 40.8387 -2.13007 -0.956575 0
M  V30 460 C 41.8197 -1.0452 -1.342 0
M  V30 461 O 43.0047 -1.32332 -1.42133 0
M  V30 462 C 40.1347 -2.65386 -2.24026 0
M  V30 463 C 39.0887 -3.78623 -1.99571 0
M  V30 464 C 38.4147 -4.17414 -3.3417 0
M  V30 465 C 39.7147 -5.04867 -1.33814 0
M  V30 466 H 41.4087 -2.9528 -0.494991 0
M  V30 467 H 38.9547 -1.42042 -0.236651 0
M  V30 468 H 40.9077 -3.02794 -2.93076 0
M  V30 469 H 39.6317 -1.80268 -2.72343 0
M  V30 470 H 38.2907 -3.41646 -1.32941 0
M  V30 471 H 37.9387 -3.29284 -3.80238 0
M  V30 472 H 37.6387 -4.93719 -3.18615 0
M  V30 473 H 39.1627 -4.57402 -4.04495 0
M  V30 474 H 40.5767 -5.39888 -1.92857 0
M  V30 475 H 38.9737 -5.86144 -1.28669 0
M  V30 476 H 40.0437 -4.83904 -0.310561 0
M  V30 477 N 41.3868 0.248026 -1.55636 0
M  V30 478 C 42.6338 0.976224 -1.77415 0
M  V30 479 C 42.9618 1.85361 -0.589193 0
M  V30 480 O 42.2168 1.90973 0.427529 0
M  V30 481 C 42.5158 1.86819 -3.04686 0
M  V30 482 C 42.1818 1.14625 -4.36087 0
M  V30 483 C 40.8438 0.946723 -4.71795 0
M  V30 484 C 43.1958 0.634463 -5.17324 0
M  V30 485 C 40.5238 0.223091 -5.86276 0
M  V30 486 C 42.8758 -0.0756959 -6.32555 0
M  V30 487 C 41.5398 -0.286711 -6.66884 0
M  V30 488 H 40.8098 0.357226 -0.649208 0
M  V30 489 H 43.4568 0.246415 -1.89908 0
M  V30 490 H 41.7618 2.66502 -2.872 0
M  V30 491 H 43.4588 2.43329 -3.18735 0
M  V30 492 H 40.0488 1.3117 -4.08035 0
M  V30 493 H 44.2328 0.77616 -4.90193 0
M  V30 494 H 39.4888 0.0491185 -6.1138 0
M  V30 495 H 43.6628 -0.479899 -6.94745 0
M  V30 496 H 41.2898 -0.849389 -7.5544 0
M  V30 497 N 42.8649 1.48995 0.513639 0
M  V30 498 C 43.8129 1.65199 1.63744 0
M  V30 499 C 44.8069 0.51809 1.61283 0
M  V30 500 O 46.0129 0.697335 1.65943 0
M  V30 501 H 42.3879 0.52069 0.542574 0
M  V30 502 H 44.3589 2.59552 1.47226 0
M  V30 503 C 43.1079 1.72409 3.01945 0
M  V30 504 H 42.4309 2.59029 3.04539 0
M  V30 505 H 43.8709 1.87785 3.80148 0
M  V30 506 C 42.3299 0.46618 3.33659 0
M  V30 507 O 42.8599 -0.413744 3.99564 0
M  V30 508 N 41.0659 0.332931 2.88687 0
M  V30 509 H 40.6129 1.04996 2.35231 0
M  V30 510 H 40.5709 -0.507665 3.10274 0
M  V30 511 N 44.343 -0.763751 1.37857 0
M  V30 512 C 45.293 -1.86765 1.30777 0
M  V30 513 C 46.277 -1.59726 0.194015 0
M  V30 514 O 47.469 -1.7172 0.42911 0
M  V30 515 C 44.598 -3.24343 1.12502 0
M  V30 516 C 43.684 -3.57307 2.28456 0
M  V30 517 N 44.075 -3.61398 3.53871 0
M  V30 518 C 42.373 -3.87517 2.20786 0
M  V30 519 C 43.074 -3.91339 4.30382 0
M  V30 520 N 42.05 -4.07649 3.59615 0
M  V30 521 H 45.852 -1.88191 2.25746 0
M  V30 522 H 43.366 -0.9606 1.30944 0
M  V30 523 H 45.363 -4.03327 1.05514 0
M  V30 524 H 44.023 -3.24175 0.184574 0
M  V30 525 H 45.034 -3.43407 3.87675 0
M  V30 526 H 41.711 -3.95125 1.34844 0
M  V30 527 H 43.101 -4.01213 5.3896 0
M  V30 528 N 45.8211 -1.22559 -0.990812 0
M  V30 529 C 47.0681 -1.05141 -1.73065 0
M  V30 530 C 47.3961 0.413191 -1.9006 0
M  V30 531 O 46.6511 1.32257 -1.44245 0
M  V30 532 C 46.9501 -1.71011 -3.13831 0
M  V30 533 C 46.6161 -3.20911 -3.16745 0
M  V30 534 C 45.2781 -3.61812 -3.17247 0
M  V30 535 C 47.6301 -4.16846 -3.12872 0
M  V30 536 C 44.9581 -4.97127 -3.1158 0
M  V30 537 C 47.3101 -5.5214 -3.08746 0
M  V30 538 C 45.9741 -5.92419 -3.07565 0
M  V30 539 H 45.2441 -0.384738 -0.633291 0
M  V30 540 H 47.8911 -1.5235 -1.16025 0
M  V30 541 H 46.1961 -1.16133 -3.74193 0
M  V30 542 H 47.8931 -1.55023 -3.69823 0
M  V30 543 H 44.4831 -2.88344 -3.17105 0
M  V30 544 H 48.6671 -3.86263 -3.11632 0
M  V30 545 H 43.9231 -5.27562 -3.09012 0
M  V30 546 H 48.0971 -6.26201 -3.04705 0
M  V30 547 H 45.7241 -6.97236 -3.02929 0
M  V30 548 N 47.2992 1.18797 -1.03562 0
M  V30 549 C 48.5452 1.8893 -0.737113 0
M  V30 550 C 48.8782 1.79837 0.732956 0
M  V30 551 O 48.1532 1.19525 1.5344 0
M  V30 552 C 48.4362 3.39607 -1.19745 0
M  V30 553 C 48.2892 3.57537 -2.72924 0
M  V30 554 C 49.6082 4.33069 -0.783526 0
M  V30 555 H 46.7272 0.686057 -0.269249 0
M  V30 556 H 49.3692 1.39797 -1.28673 0
M  V30 557 H 47.5192 3.81583 -0.729855 0
M  V30 558 H 49.1912 3.24688 -3.27682 0
M  V30 559 H 47.4342 3.00363 -3.12993 0
M  V30 560 H 48.1052 4.63238 -3.00191 0
M  V30 561 H 50.5812 3.98846 -1.18581 0
M  V30 562 H 49.4572 5.3707 -1.13343 0
M  V30 563 H 49.7182 4.40986 0.313681 0
M  V30 564 N 48.7773 0.814389 1.34928 0
M  V30 565 C 50.0053 0.411136 2.02774 0
M  V30 566 C 50.4203 -0.980316 1.61354 0
M  V30 567 O 49.7773 -1.63299 0.814847 0
M  V30 568 C 49.8283 0.493865 3.58111 0
M  V30 569 O 49.5493 1.83047 3.98027 0
M  V30 570 C 51.0503 0.0844174 4.4322 0
M  V30 571 H 48.2703 0.166037 0.650133 0
M  V30 572 H 50.8143 1.10018 1.72384 0
M  V30 573 H 48.9693 -0.147006 3.87121 0
M  V30 574 H 49.3833 1.79872 4.92693 0
M  V30 575 H 50.8573 0.193404 5.51661 0
M  V30 576 H 51.3343 -0.97113 4.28329 0
M  V30 577 H 51.9403 0.69875 4.19521 0
M  V30 578 N 50.2554 -1.46986 0.568584 0
M  V30 579 C 51.5324 -1.95592 -0.0174074 0
M  V30 580 C 51.9124 -1.51124 -1.47393 0
M  V30 581 O 51.2604 -0.755329 -2.15655 0
M  V30 582 C 51.4704 -3.48719 0.139913 0
M  V30 583 C 52.8184 -4.246 0.000426376 0
M  V30 584 O 53.8424 -3.56135 0.0680316 0
M  V30 585 O 52.7014 -5.46302 -0.146988 0
M  V30 586 H 49.7954 -0.82498 -0.0577599 0
M  V30 587 H 52.3414 -1.57335 0.635909 0
M  V30 588 H 51.1134 -3.73927 1.15301 0
M  V30 589 H 50.7364 -3.93771 -0.550491 0
M  V30 590 N 51.7335 -0.305618 -1.54608 0
M  V30 591 C 52.9825 0.303098 -1.9941 0
M  V30 592 C 53.2955 1.54648 -1.19764 0
M  V30 593 O 54.5015 2.23007 -1.54855 0
M  V30 594 C 52.9575 0.590588 -3.55021 0
M  V30 595 C 52.5655 -0.634719 -4.43481 0
M  V30 596 C 54.3095 1.16025 -4.08336 0
M  V30 597 C 52.2165 -0.320126 -5.90533 0
M  V30 598 H 51.1465 0.117031 -0.744862 0
M  V30 599 H 53.7975 -0.415045 -1.78745 0
M  V30 600 H 52.1795 1.36845 -3.71604 0
M  V30 601 H 53.3535 -1.41079 -4.38672 0
M  V30 602 H 51.6685 -1.12333 -4.00962 0
M  V30 603 H 54.2655 1.40994 -5.15776 0
M  V30 604 H 54.6085 2.10397 -3.5922 0
M  V30 605 H 55.1415 0.443985 -3.95315 0
M  V30 606 H 51.8805 -1.23254 -6.43808 0
M  V30 607 H 51.4005 0.418579 -5.98338 0
M  V30 608 H 53.0795 0.0766241 -6.46955 0
M  V30 609 N 53.2116 1.57565 -0.0334293 0
M  V30 610 C 54.1616 2.06978 0.956237 0
M  V30 611 C 55.1456 0.971193 1.28283 0
M  V30 612 O 56.3376 1.23471 1.26822 0
M  V30 613 C 53.4666 2.60393 2.23719 0
M  V30 614 C 52.5526 3.7719 1.93877 0
M  V30 615 N 52.9436 4.87639 1.34321 0
M  V30 616 C 51.2416 3.85758 2.23845 0
M  V30 617 C 51.9426 5.68825 1.21709 0
M  V30 618 N 50.9186 5.1587 1.71404 0
M  V30 619 H 54.7206 2.89773 0.490815 0
M  V30 620 H 52.2346 1.61492 0.171478 0
M  V30 621 H 54.2316 2.94088 2.95496 0
M  V30 622 H 52.8916 1.79031 2.70884 0
M  V30 623 H 53.9026 5.07803 1.01767 0
M  V30 624 H 50.5796 3.1531 2.73653 0
M  V30 625 H 51.9696 6.67631 0.75621 0
M  V30 626 N 54.6897 -0.239769 1.55765 0
M  V30 627 C 55.9667 -0.990056 1.68693 0
M  V30 628 C 56.3467 -2.03107 0.5754 0
M  V30 629 O 55.6947 -2.24604 -0.42017 0
M  V30 630 C 55.9047 -1.61696 3.09282 0
M  V30 631 C 57.2527 -2.11613 3.6811 0
M  V30 632 O 58.2767 -1.71624 3.12127 0
M  V30 633 O 57.1357 -2.85057 4.66267 0
M  V30 634 H 54.2297 -0.461299 0.686391 0
M  V30 635 H 56.7757 -0.232991 1.68093 0
M  V30 636 H 55.5477 -0.864357 3.81634 0
M  V30 637 H 55.1707 -2.44005 3.13923 0
M  V30 638 N 56.1678 -1.49265 -0.50573 0
M  V30 639 C 57.4158 -1.582 -1.25766 0
M  V30 640 C 57.7368 -0.268482 -1.93143 0
M  V30 641 O 57.0068 0.711833 -1.8251 0
M  V30 642 H 55.5868 -0.582873 -0.467191 0
M  V30 643 H 58.2488 -1.85865 -0.586525 0
M  V30 644 H 57.3448 -2.37563 -2.02412 0
M  V30 645 N 57.6459 0.756429 -1.3826 0
M  V30 646 C 58.5559 1.9009 -1.37488 0
M  V30 647 C 59.5719 1.71855 -0.272366 0
M  V30 648 O 60.7479 1.94827 -0.510318 0
M  V30 649 C 57.8129 3.25421 -1.19592 0
M  V30 650 C 56.8739 3.56202 -2.39622 0
M  V30 651 C 56.1069 4.85075 -2.2257 0
M  V30 652 O 56.3299 5.57246 -1.21793 0
M  V30 653 O 55.2639 5.15269 -3.11098 0
M  V30 654 H 59.0899 1.93695 -2.33914 0
M  V30 655 H 56.6749 0.901313 -1.1915 0
M  V30 656 H 58.5569 4.06337 -1.11661 0
M  V30 657 H 57.2319 3.22634 -0.262486 0
M  V30 658 H 56.1389 2.75458 -2.53128 0
M  V30 659 H 57.4719 3.63747 -3.31586 0
M  V30 660 N 59.124 1.23083 0.984299 0
M  V30 661 C 60.054 1.03292 2.09411 0
M  V30 662 C 61.035 -0.048923 1.7003 0
M  V30 663 O 62.22 0.114967 1.93859 0
M  V30 664 C 59.35 0.619155 3.41736 0
M  V30 665 C 58.304 1.64791 3.95004 0
M  V30 666 C 57.63 1.0897 5.23478 0
M  V30 667 C 58.93 3.03999 4.24714 0
M  V30 668 H 60.624 1.96119 2.26225 0
M  V30 669 H 58.17 0.944344 1.08711 0
M  V30 670 H 60.123 0.467777 4.18796 0
M  V30 671 H 58.847 -0.344786 3.24775 0
M  V30 672 H 57.506 1.78721 3.20085 0
M  V30 673 H 57.154 0.11686 5.02864 0
M  V30 674 H 56.854 1.77704 5.60085 0
M  V30 675 H 58.378 0.950093 6.03163 0
M  V30 676 H 59.792 2.93393 4.92538 0
M  V30 677 H 58.189 3.69936 4.72512 0
M  V30 678 H 59.259 3.53285 3.32142 0
M  V30 679 N 60.6021 -1.18246 1.0419 0
M  V30 680 C 61.8791 -1.84121 0.660208 0
M  V30 681 C 62.2591 -1.92778 -0.860221 0
M  V30 682 O 61.6071 -1.45464 -1.76217 0
M  V30 683 C 61.8171 -3.22355 1.33747 0
M  V30 684 C 63.1651 -3.98376 1.46906 0
M  V30 685 O 64.1891 -3.31799 1.29568 0
M  V30 686 O 63.0481 -5.17665 1.75171 0
M  V30 687 H 60.1421 -0.794036 0.231161 0
M  V30 688 H 62.6881 -1.25628 1.14087 0
M  V30 689 H 61.4601 -3.10964 2.37522 0
M  V30 690 H 61.0831 -3.88506 0.845515 0
M  V30 691 N 62.0802 -0.821533 -1.34494 0
M  V30 692 C 63.0272 -0.240397 -2.29545 0
M  V30 693 C 63.9972 0.634031 -1.53523 0
M  V30 694 O 65.1822 0.575966 -1.81899 0
M  V30 695 C 62.3222 0.592869 -3.39969 0
M  V30 696 C 61.4352 -0.30365 -4.30932 0
M  V30 697 C 60.5702 0.539049 -5.28458 0
M  V30 698 C 59.6092 -0.356942 -6.11058 0
M  V30 699 N 58.7462 0.446603 -7.00678 0
M  V30 700 H 63.5862 -1.05632 -2.7865 0
M  V30 701 H 61.1232 -0.532413 -1.37127 0
M  V30 702 H 63.0812 1.09129 -4.02675 0
M  V30 703 H 61.7112 1.37392 -2.92102 0
M  V30 704 H 60.7632 -0.920276 -3.691 0
M  V30 705 H 62.0752 -0.992661 -4.88823 0
M  V30 706 H 61.2292 1.102 -5.96608 0
M  V30 707 H 59.9682 1.26157 -4.71101 0
M  V30 708 H 58.9732 -0.932047 -5.41842 0
M  V30 709 H 60.1982 -1.07755 -6.70497 0
M  V30 710 H 58.1442 1.15282 -6.45791 0
M  V30 711 H 58.0612 -0.184048 -7.55776 0
M  V30 712 H 59.3292 0.992352 -7.73158 0
M  V30 713 N 63.5583 1.46682 -0.576371 0
M  V30 714 C 64.8053 2.02412 -0.0595339 0
M  V30 715 C 65.1333 1.44859 1.29793 0
M  V30 716 O 64.3883 0.601099 1.8624 0
M  V30 717 C 64.6873 3.57345 0.062886 0
M  V30 718 C 64.3533 4.33908 -1.22616 0
M  V30 719 C 63.0153 4.54544 -1.57933 0
M  V30 720 C 65.3673 4.77919 -2.07948 0
M  V30 721 C 62.6953 5.16444 -2.78393 0
M  V30 722 C 65.0473 5.41149 -3.27629 0
M  V30 723 C 63.7113 5.60014 -3.63236 0
M  V30 724 H 62.9813 0.74068 -0.021785 0
M  V30 725 H 65.6283 1.76128 -0.751735 0
M  V30 726 H 63.9333 3.82729 0.838178 0
M  V30 727 H 65.6303 3.98136 0.478439 0
M  V30 728 H 62.2203 4.18138 -0.941202 0
M  V30 729 H 66.4043 4.61738 -1.81967 0
M  V30 730 H 61.6603 5.29242 -3.06126 0
M  V30 731 H 65.8343 5.74211 -3.94023 0
M  V30 732 H 63.4613 6.07748 -4.56669 0
M  V30 733 N 65.0364 0.313813 1.54444 0
M  V30 734 C 66.2854 -0.292519 1.99568 0
M  V30 735 C 66.5984 -1.54011 1.20582 0
M  V30 736 O 67.8044 -2.22183 1.56035 0
M  V30 737 C 66.2604 -0.571752 3.55329 0
M  V30 738 C 65.8684 0.658229 4.43138 0
M  V30 739 C 67.6124 -1.13857 4.08946 0
M  V30 740 C 65.5194 0.351439 5.90355 0
M  V30 741 H 64.4494 -0.113079 0.745472 0
M  V30 742 H 67.1004 0.424518 1.78522 0
M  V30 743 H 65.4824 -1.34872 3.72325 0
M  V30 744 H 66.6564 1.43403 4.37918 0
M  V30 745 H 64.9714 1.14458 4.0036 0
M  V30 746 H 67.5684 -1.38257 5.16516 0
M  V30 747 H 67.9114 -2.08489 3.6033 0
M  V30 748 H 68.4444 -0.423015 3.95544 0
M  V30 749 H 65.1834 1.26667 6.43145 0
M  V30 750 H 64.7034 -0.386842 5.98551 0
M  V30 751 H 66.3824 -0.0423134 6.46986 0
M  V30 752 N 66.5145 -1.57545 0.0417849 0
M  V30 753 C 67.7425 -1.96624 -0.643928 0
M  V30 754 C 68.1575 -0.918897 -1.64929 0
M  V30 755 O 67.5145 0.0979323 -1.82237 0
M  V30 756 C 67.5655 -3.35781 -1.33914 0
M  V30 757 O 67.2865 -4.365 -0.374048 0
M  V30 758 C 68.7875 -3.89566 -2.1155 0
M  V30 759 H 66.0075 -0.647316 -0.176702 0
M  V30 760 H 68.5515 -2.04229 0.105304 0
M  V30 761 H 66.7065 -3.29357 -2.03968 0
M  V30 762 H 67.1205 -5.17248 -0.869179 0
M  V30 763 H 68.5945 -4.89242 -2.55628 0
M  V30 764 H 69.0715 -3.24488 -2.9598 0
M  V30 765 H 69.6775 -3.99298 -1.46427 0
M  V30 766 N 67.9926 0.231505 -1.5589 0
M  V30 767 C 68.9396 1.28682 -1.91598 0
M  V30 768 C 69.9096 1.47071 -0.771974 0
M  V30 769 O 71.0946 1.60802 -1.027 0
M  V30 770 C 68.2346 2.6342 -2.22944 0
M  V30 771 C 67.3476 2.52912 -3.50228 0
M  V30 772 C 66.4826 3.80106 -3.7107 0
M  V30 773 C 65.5216 3.64279 -4.91902 0
M  V30 774 N 64.6586 4.834 -5.09184 0
M  V30 775 H 69.4986 0.975305 -2.81588 0
M  V30 776 H 67.0356 0.470299 -1.39379 0
M  V30 777 H 68.9936 3.41869 -2.39126 0
M  V30 778 H 67.6236 2.92687 -1.36139 0
M  V30 779 H 66.6756 1.6595 -3.42294 0
M  V30 780 H 67.9876 2.37133 -4.38827 0
M  V30 781 H 67.1416 4.66999 -3.87295 0
M  V30 782 H 65.8806 3.98799 -2.80733 0
M  V30 783 H 64.8856 2.7577 -4.75637 0
M  V30 784 H 66.1106 3.47067 -5.83714 0
M  V30 785 H 64.0566 5.02425 -4.21788 0
M  V30 786 H 63.9736 4.70311 -5.91898 0
M  V30 787 H 65.2416 5.71747 -5.29835 0
M  V30 788 N 69.4707 1.49531 0.497807 0
M  V30 789 C 70.4187 1.66926 1.61983 0
M  V30 790 C 71.4127 0.535167 1.60724 0
M  V30 791 O 72.6187 0.714896 1.65195 0
M  V30 792 H 68.9937 0.526415 0.537021 0
M  V30 793 H 70.9647 2.61098 1.44465 0
M  V30 794 C 69.7137 1.75602 3.00099 0
M  V30 795 H 69.0367 2.62244 3.01775 0
M  V30 796 H 70.4767 1.91807 3.78135 0
M  V30 797 C 68.9357 0.501543 3.33146 0
M  V30 798 O 69.4657 -0.371342 3.9998 0
M  V30 799 N 67.6717 0.363531 2.88317 0
M  V30 800 H 67.2187 1.07485 2.34104 0
M  V30 801 H 67.1767 -0.474728 3.10795 0
M  V30 802 N 70.9488 -0.749086 1.3866 0
M  V30 803 C 72.2258 -1.4992 1.25632 0
M  V30 804 C 72.6058 -2.10633 -0.140317 0
M  V30 805 O 71.9538 -1.97437 -1.15025 0
M  V30 806 C 72.1638 -2.56195 2.36992 0
M  V30 807 C 73.5118 -3.22972 2.75634 0
M  V30 808 O 74.5358 -2.66502 2.36337 0
M  V30 809 O 73.3948 -4.25122 3.43415 0
M  V30 810 H 70.4888 -0.665067 0.491544 0
M  V30 811 H 73.0348 -0.784113 1.50498 0
M  V30 812 H 71.8068 -2.09612 3.30422 0
M  V30 813 H 71.4298 -3.35279 2.13714 0
M  V30 814 N 72.4269 -1.23603 -0.977757 0
M  V30 815 C 73.6759 -1.06377 -1.71368 0
M  V30 816 C 73.9889 0.399062 -1.91486 0
M  V30 817 O 75.1949 0.691312 -2.62551 0
M  V30 818 C 73.6509 -1.85512 -3.08404 0
M  V30 819 C 73.2589 -3.36141 -2.96164 0
M  V30 820 C 75.0029 -1.76783 -3.85938 0
M  V30 821 C 72.9099 -4.07659 -4.28449 0
M  V30 822 H 71.8399 -0.394452 -0.642591 0
M  V30 823 H 74.4909 -1.47594 -1.09034 0
M  V30 824 H 72.8729 -1.37103 -3.71509 0
M  V30 825 H 74.0469 -3.92056 -2.42133 0
M  V30 826 H 72.3619 -3.45712 -2.32104 0
M  V30 827 H 74.9589 -2.27526 -4.83876 0
M  V30 828 H 75.3019 -0.731116 -4.0983 0
M  V30 829 H 75.8349 -2.22818 -3.2954 0
M  V30 830 H 72.5739 -5.11648 -4.09752 0
M  V30 831 H 72.0939 -3.5653 -4.82334 0
M  V30 832 H 73.7729 -4.141 -4.97122 0
M  V30 833 N 73.905 1.17692 -1.04816 0
M  V30 834 C 75.151 1.88137 -0.75711 0
M  V30 835 C 75.484 1.80604 0.713841 0
M  V30 836 O 74.759 1.21146 1.52164 0
M  V30 837 C 75.042 3.38318 -1.2334 0
M  V30 838 C 74.895 3.54622 -2.76701 0
M  V30 839 C 76.214 4.32214 -0.829415 0
M  V30 840 H 73.333 0.683163 -0.27651 0
M  V30 841 H 75.975 1.38424 -1.30149 0
M  V30 842 H 74.125 3.80787 -0.770286 0
M  V30 843 H 75.797 3.21194 -3.31107 0
M  V30 844 H 74.04 2.97026 -3.16161 0
M  V30 845 H 74.711 4.60028 -3.05088 0
M  V30 846 H 77.187 3.97565 -1.22805 0
M  V30 847 H 76.063 5.35838 -1.19033 0
M  V30 848 H 76.324 4.41294 0.266891 0
M  V30 849 N 75.3831 0.828654 1.34056 0
M  V30 850 C 76.3131 0.269443 2.3194 0
M  V30 851 C 77.2941 -0.617247 1.58506 0
M  V30 852 O 78.4791 -0.542931 1.86456 0
M  V30 853 C 75.6091 -0.564793 3.42677 0
M  V30 854 C 74.5631 0.225241 4.27407 0
M  V30 855 C 73.8891 -0.7321 5.29664 0
M  V30 856 C 75.1891 1.43663 5.02154 0
M  V30 857 H 76.8831 1.08728 2.7896 0
M  V30 858 H 74.4291 0.524283 1.34117 0
M  V30 859 H 76.3821 -0.966233 4.10173 0
M  V30 860 H 75.1061 -1.41574 2.9432 0
M  V30 861 H 73.7651 0.608117 3.61521 0
M  V30 862 H 73.4131 -1.57916 4.77568 0
M  V30 863 H 73.1131 -0.20767 5.87233 0
M  V30 864 H 74.6371 -1.13128 6.00029 0
M  V30 865 H 76.0511 1.1089 5.62473 0
M  V30 866 H 74.4481 1.89711 5.69324 0
M  V30 867 H 75.5181 2.21181 4.31517 0
M  V30 868 N 76.8612 -1.46375 0.584142 0
M  V30 869 C 78.1072 -2.02678 0.0703716 0
M  V30 870 C 78.4402 -1.4545 -1.28678 0
M  V30 871 O 77.7152 -0.62014 -1.84349 0
M  V30 872 C 77.9982 -3.60099 0.00614674 0
M  V30 873 C 77.8512 -4.27709 1.3923 0
M  V30 874 C 79.1702 -4.34598 -0.693742 0
M  V30 875 H 76.2892 -0.736504 0.027047 0
M  V30 876 H 78.9312 -1.74501 0.751615 0
M  V30 877 H 77.0812 -3.84236 -0.574009 0
M  V30 878 H 78.7532 -4.14832 2.01773 0
M  V30 879 H 76.9962 -3.87016 1.95962 0
M  V30 880 H 77.6672 -5.36478 1.29982 0
M  V30 881 H 80.1432 -4.15615 -0.200869 0
M  V30 882 H 79.0192 -5.44318 -0.707714 0
M  V30 883 H 79.2802 -4.05759 -1.75533 0
M  V30 884 N 78.3393 -0.321999 -1.54275 0
M  V30 885 C 79.2723 0.58718 -2.20516 0
M  V30 886 C 80.2503 1.11693 -1.18167 0
M  V30 887 O 81.4343 1.18122 -1.46899 0
M  V30 888 C 78.5613 1.80554 -2.86562 0
M  V30 889 C 77.6073 1.40718 -4.02617 0
M  V30 890 S 78.4403 0.445218 -5.33646 0
M  V30 891 C 79.5963 1.6709 -6.03185 0
M  V30 892 H 79.8293 0.0244875 -2.9729 0
M  V30 893 H 77.3623 -0.106087 -1.54035 0
M  V30 894 H 79.3203 2.50462 -3.25237 0
M  V30 895 H 77.9813 2.33942 -2.09595 0
M  V30 896 H 77.1743 2.31501 -4.47687 0
M  V30 897 H 76.7763 0.78782 -3.65608 0
M  V30 898 H 79.0683 2.60856 -6.25268 0
M  V30 899 H 80.0113 1.26239 -6.96756 0
M  V30 900 H 80.4193 1.85716 -5.33076 0
M  V30 901 N 79.8174 1.5752 -0.0501392 0
M  V30 902 C 81.0644 1.9265 0.623874 0
M  V30 903 C 81.3924 0.928411 1.70912 0
M  V30 904 O 80.6474 -0.0594525 1.9561 0
M  V30 905 C 80.9464 3.34467 1.25963 0
M  V30 906 C 80.6124 4.49883 0.302689 0
M  V30 907 C 79.2744 4.81184 0.0393636 0
M  V30 908 C 81.6264 5.20002 -0.353205 0
M  V30 909 C 78.9544 5.79951 -0.887308 0
M  V30 910 C 81.3064 6.1976 -1.26806 0
M  V30 911 C 79.9704 6.49491 -1.54007 0
M  V30 912 H 79.2404 0.704957 0.228292 0
M  V30 913 H 81.8874 1.91146 -0.116398 0
M  V30 914 H 80.1924 3.32333 2.07514 0
M  V30 915 H 81.8894 3.58928 1.78806 0
M  V30 916 H 78.4794 4.25457 0.518109 0
M  V30 917 H 82.6634 4.96033 -0.162854 0
M  V30 918 H 77.9194 6.01322 -1.10553 0
M  V30 919 H 82.0934 6.73205 -1.78236 0
M  V30 920 H 79.7204 7.25837 -2.25976 0
M  V30 921 N 81.2955 -0.223234 1.56011 0
M  V30 922 C 82.5255 -0.963413 1.82762 0
M  V30 923 C 82.9335 -1.78516 0.626804 0
M  V30 924 O 82.2765 -1.78974 -0.414014 0
M  V30 925 C 82.3385 -1.93126 3.0322 0
M  V30 926 C 82.0025 -1.2942 4.38291 0
M  V30 927 C 82.9995 -0.684916 5.15369 0
M  V30 928 C 80.6845 -1.30647 4.85012 0
M  V30 929 C 82.6785 -0.0963971 6.37327 0
M  V30 930 C 80.3655 -0.71411 6.06913 0
M  V30 931 C 81.3635 -0.110123 6.82911 0
M  V30 932 O 81.0515 0.47303 8.02507 0
M  V30 933 H 80.7835 -0.288011 0.611576 0
M  V30 934 H 83.3375 -0.244103 2.03944 0
M  V30 935 H 81.5675 -2.68952 2.77852 0
M  V30 936 H 83.2565 -2.53685 3.16857 0
M  V30 937 H 84.0225 -0.667774 4.80381 0
M  V30 938 H 79.9015 -1.76598 4.25833 0
M  V30 939 H 83.4455 0.375657 6.96588 0
M  V30 940 H 79.3425 -0.728659 6.41374 0
M  V30 941 H 80.1105 0.367186 8.17676 0
M  V30 942 N 82.7736 -1.49793 -0.48987 0
M  V30 943 C 83.7366 -1.66752 -1.57246 0
M  V30 944 C 84.7366 -0.538867 -1.51502 0
M  V30 945 O 85.9266 -0.805545 -1.54456 0
M  V30 946 C 83.0586 -1.67528 -2.96896 0
M  V30 947 H 84.2516 -2.63321 -1.43534 0
M  V30 948 H 81.8046 -1.38992 -0.714914 0
M  V30 949 H 82.5396 -0.725837 -3.16073 0
M  V30 950 H 82.3246 -2.49504 -3.02473 0
M  V30 951 H 83.8146 -1.82667 -3.7553 0
M  V30 952 N 84.2517 0.741722 -1.39055 0
M  V30 953 C 85.6627 1.31966 -1.32068 0
M  V30 954 C 86.0137 1.96192 0.0180797 0
M  V30 955 O 85.1387 1.95861 0.920196 0
M  V30 956 C 85.7337 2.39954 -2.39181 0
M  V30 957 C 84.2927 2.93438 -2.35735 0
M  V30 958 C 83.4397 1.66936 -2.21422 0
M  V30 959 H 86.3907 0.539721 -1.4924 0
M  V30 960 H 86.4117 3.20182 -2.05581 0
M  V30 961 H 85.9237 1.9318 -3.36605 0
M  V30 962 H 84.0247 3.4451 -1.41929 0
M  V30 963 H 84.1377 3.4701 -3.30335 0
M  V30 964 H 82.5017 1.91016 -1.68478 0
M  V30 965 H 83.2847 1.22224 -3.20806 0
M  V30 966 N 85.7298 1.2412 0.971189 0
M  V30 967 C 86.9758 1.09048 1.71698 0
M  V30 968 C 87.3308 -0.367442 1.88859 0
M  V30 969 O 86.6238 -1.26792 1.43646 0
M  V30 970 C 86.8178 1.75983 3.11071 0
M  V30 971 C 86.6468 3.28133 3.07504 0
M  V30 972 C 85.4168 3.97331 3.1218 0
M  V30 973 C 87.6148 4.24773 2.89952 0
M  V30 974 N 85.5968 5.3639 2.98596 0
M  V30 975 C 86.9678 5.50806 2.84627 0
M  V30 976 C 89.0228 4.15392 2.74506 0
M  V30 977 C 87.7258 6.68533 2.65437 0
M  V30 978 C 89.7518 5.32793 2.56682 0
M  V30 979 C 89.1138 6.57756 2.52063 0
M  V30 980 H 85.2128 0.453632 0.636979 0
M  V30 981 H 87.7968 1.56983 1.15171 0
M  V30 982 H 85.9678 1.30566 3.65796 0
M  V30 983 H 87.6998 1.53803 3.74335 0
M  V30 984 H 84.4548 3.48473 3.20724 0
M  V30 985 H 84.8788 6.09321 2.95054 0
M  V30 986 H 89.5208 3.19543 2.76861 0
M  V30 987 H 87.2388 7.64509 2.61825 0
M  V30 988 H 90.8248 5.27383 2.4568 0
M  V30 989 H 89.7048 7.4707 2.38446 0
M  V30 990 N 87.2079 -1.17134 1.05439 0
M  V30 991 C 88.4479 -1.89137 0.77502 0
M  V30 992 C 88.8119 -1.79345 -0.685526 0
M  V30 993 O 90.0129 -2.46188 -1.0791 0
M  V30 994 C 88.2839 -3.35003 1.2453 0
M  V30 995 S 89.8429 -4.24952 1.09367 0
M  V30 996 H 86.6609 -0.652949 0.281387 0
M  V30 997 H 89.2629 -1.4145 1.34953 0
M  V30 998 H 87.9669 -3.39666 2.30338 0
M  V30 999 H 87.4979 -3.87736 0.665166 0
M  V30 1000 H 89.5129 -4.96196 0.0193397 0
M  V30 1001 N 88.686 -0.835752 -1.33615 0
M  V30 1002 C 89.934 -0.429109 -1.97492 0
M  V30 1003 C 90.255 1.01433 -1.66543 0
M  V30 1004 O 89.525 1.70611 -0.962744 0
M  V30 1005 H 88.105 -0.155686 -0.730596 0
M  V30 1006 H 90.767 -1.06802 -1.63031 0
M  V30 1007 H 89.863 -0.55861 -3.0706 0
M  V30 1008 N 90.1641 1.46063 -0.591896 0
M  V30 1009 C 91.1141 2.27458 0.157172 0
M  V30 1010 C 92.0981 1.3641 0.853301 0
M  V30 1011 O 93.2901 1.60517 0.74588 0
M  V30 1012 C 90.4191 3.22956 1.16423 0
M  V30 1013 C 89.5051 4.2149 0.469742 0
M  V30 1014 N 89.8961 5.03519 -0.479839 0
M  V30 1015 C 88.1941 4.40161 0.719319 0
M  V30 1016 C 88.8951 5.74904 -0.886591 0
M  V30 1017 N 87.8711 5.43097 -0.233731 0
M  V30 1018 H 91.6731 2.88272 -0.572392 0
M  V30 1019 H 89.1871 1.57024 -0.414375 0
M  V30 1020 H 91.1841 3.79986 1.71513 0
M  V30 1021 H 89.8441 2.63701 1.89451 0
M  V30 1022 H 90.8551 5.1078 -0.855823 0
M  V30 1023 H 87.5321 3.92046 1.43548 0
M  V30 1024 H 88.9221 6.50844 -1.66888 0
M  V30 1025 N 91.6422 0.330177 1.54103 0
M  V30 1026 C 92.8822 -0.270916 2.02597 0
M  V30 1027 C 93.2462 -1.48826 1.21304 0
M  V30 1028 O 94.4472 -2.16266 1.59633 0
M  V30 1029 C 92.7182 -0.590328 3.52491 0
M  V30 1030 S 94.2772 -1.17014 4.2291 0
M  V30 1031 H 91.0952 -0.0815379 0.706309 0
M  V30 1032 H 93.6972 0.464835 1.89893 0
M  V30 1033 H 92.4012 0.303691 4.09275 0
M  V30 1034 H 91.9322 -1.3561 3.69288 0
M  V30 1035 H 93.9472 -2.45662 4.3112 0
M  V30 1036 N 93.1203 -1.57491 0.0584922 0
M  V30 1037 C 94.0673 -2.11958 -0.913376 0
M  V30 1038 C 95.0373 -1.02875 -1.30407 0
M  V30 1039 O 96.2223 -1.30464 -1.39226 0
M  V30 1040 C 93.3623 -2.67497 -2.18035 0
M  V30 1041 C 92.4753 -3.90691 -1.84349 0
M  V30 1042 C 91.6103 -4.3452 -3.05559 0
M  V30 1043 C 90.6493 -5.50395 -2.67827 0
M  V30 1044 N 89.7863 -5.89244 -3.81754 0
M  V30 1045 H 94.6263 -2.94704 -0.442017 0
M  V30 1046 H 92.1633 -1.45643 -0.206545 0
M  V30 1047 H 94.1213 -2.978 -2.92183 0
M  V30 1048 H 92.7513 -1.87537 -2.62735 0
M  V30 1049 H 91.8033 -3.66934 -1.00319 0
M  V30 1050 H 93.1153 -4.7489 -1.5258 0
M  V30 1051 H 92.2693 -4.66414 -3.87998 0
M  V30 1052 H 91.0083 -3.49147 -3.40511 0
M  V30 1053 H 90.0133 -5.18165 -1.83806 0
M  V30 1054 H 91.2383 -6.3749 -2.34059 0
M  V30 1055 H 89.1843 -5.06823 -4.16493 0
M  V30 1056 H 89.1013 -6.68151 -3.53708 0
M  V30 1057 H 90.3693 -6.25756 -4.64811 0
M  V30 1058 N 94.5984 0.214957 -1.56127 0
M  V30 1059 C 96.0144 0.564948 -1.49267 0
M  V30 1060 C 96.2144 1.86827 -0.754838 0
M  V30 1061 O 95.2704 2.50745 -0.297198 0
M  V30 1062 C 96.5834 0.638071 -2.93852 0
M  V30 1063 C 98.1314 0.728253 -3.0441 0
M  V30 1064 C 98.6064 0.832663 -4.50367 0
M  V30 1065 N 100.097 0.896712 -4.54437 0
M  V30 1066 C 100.832 0.997324 -5.6466 0
M  V30 1067 N 100.328 1.06147 -6.8462 0
M  V30 1068 N 102.121 1.03297 -5.52527 0
M  V30 1069 H 94.2724 -0.640211 -2.02522 0
M  V30 1070 H 96.5354 -0.225507 -0.920788 0
M  V30 1071 H 96.2414 -0.250126 -3.50809 0
M  V30 1072 H 96.1154 1.49947 -3.46115 0
M  V30 1073 H 98.5024 1.60689 -2.47514 0
M  V30 1074 H 98.5834 -0.158952 -2.55306 0
M  V30 1075 H 98.2274 -0.0415417 -5.07883 0
M  V30 1076 H 98.1574 1.73538 -4.97184 0
M  V30 1077 H 100.648 0.857188 -3.6805 0
M  V30 1078 H 100.961 1.1382 -7.64372 0
M  V30 1079 H 99.3064 1.03049 -6.87318 0
M  V30 1080 H 102.497 0.979558 -4.57736 0
M  V30 1081 H 102.67 1.10793 -6.38458 0
M  V30 1082 N 96.0765 1.50051 0.48192 0
M  V30 1083 C 97.0065 1.71046 1.58951 0
M  V30 1084 C 97.9875 0.559288 1.60642 0
M  V30 1085 O 99.1725 0.797243 1.77081 0
M  V30 1086 C 96.3025 1.79462 2.97339 0
M  V30 1087 C 95.2565 2.94558 3.10515 0
M  V30 1088 C 94.5825 2.88105 4.50444 0
M  V30 1089 C 95.8825 4.35227 2.88747 0
M  V30 1090 H 97.5765 2.6378 1.41635 0
M  V30 1091 H 95.1225 1.26936 0.679942 0
M  V30 1092 H 97.0755 1.92734 3.74742 0
M  V30 1093 H 95.7995 0.833412 3.15788 0
M  V30 1094 H 94.4585 2.80918 2.35543 0
M  V30 1095 H 94.1065 1.89853 4.65795 0
M  V30 1096 H 93.8065 3.65366 4.60197 0
M  V30 1097 H 95.3305 3.03412 5.29881 0
M  V30 1098 H 96.7445 4.49449 3.55905 0
M  V30 1099 H 95.1415 5.13856 3.09955 0
M  V30 1100 H 96.2115 4.48347 1.84696 0
M  V30 1101 N 97.5546 -0.734337 1.39446 0
M  V30 1102 C 98.8036 -1.48937 1.36017 0
M  V30 1103 C 99.1166 -1.95557 -0.0409005 0
M  V30 1104 O 100.323 -2.70779 -0.19778 0
M  V30 1105 C 98.7786 -2.69125 2.38955 0
M  V30 1106 C 98.3866 -2.29452 3.8478 0
M  V30 1107 C 100.131 -3.46944 2.44603 0
M  V30 1108 C 98.0376 -3.46366 4.79358 0
M  V30 1109 H 96.9676 -0.559296 0.505672 0
M  V30 1110 H 99.6186 -0.800983 1.65095 0
M  V30 1111 H 98.0006 -3.40041 2.02948 0
M  V30 1112 H 99.1746 -1.66077 4.29831 0
M  V30 1113 H 97.4896 -1.64723 3.82433 0
M  V30 1114 H 100.087 -4.33907 3.12456 0
M  V30 1115 H 100.43 -3.89454 1.47076 0
M  V30 1116 H 100.963 -2.83056 2.79507 0
M  V30 1117 H 97.7016 -3.08905 5.78151 0
M  V30 1118 H 97.2216 -4.08719 4.38986 0
M  V30 1119 H 98.9006 -4.12691 4.98292 0
M  V30 1120 N 99.0327 -1.24633 -0.964593 0
M  V30 1121 C 100.444 -1.08045 -1.5226 0
M  V30 1122 C 100.795 0.347116 -1.93105 0
M  V30 1123 O 99.9197 1.23588 -1.77637 0
M  V30 1124 C 100.515 -1.95514 -2.76695 0
M  V30 1125 C 99.0737 -1.8314 -3.28841 0
M  V30 1126 C 98.2207 -1.90262 -2.01732 0
M  V30 1127 H 101.172 -1.38064 -0.782553 0
M  V30 1128 H 101.193 -1.48925 -3.50145 0
M  V30 1129 H 100.705 -2.99407 -2.46936 0
M  V30 1130 H 98.8057 -0.82092 -3.63444 0
M  V30 1131 H 98.9187 -2.67406 -3.97531 0
M  V30 1132 H 97.2827 -1.34027 -2.16584 0
M  V30 1133 H 98.0657 -2.9574 -1.74334 0
M  V30 1134 N 100.511 1.16574 -1.06058 0
M  V30 1135 C 101.421 2.2452 -0.680282 0
M  V30 1136 C 102.437 1.71348 0.302604 0
M  V30 1137 O 103.613 2.00822 0.152513 0
M  V30 1138 C 100.678 3.46629 -0.0700315 0
M  V30 1139 C 99.7388 4.14849 -1.10448 0
M  V30 1140 C 98.9718 5.31129 -0.523256 0
M  V30 1141 O 99.1948 5.66514 0.664709 0
M  V30 1142 O 98.1288 5.88526 -1.26179 0
M  V30 1143 H 101.955 2.59355 -1.58015 0
M  V30 1144 H 99.5398 1.24043 -0.832694 0
M  V30 1145 H 101.422 4.20543 0.268667 0
M  V30 1146 H 100.097 3.13573 0.803353 0
M  V30 1147 H 99.0038 3.42916 -1.49532 0
M  V30 1148 H 100.337 4.51954 -1.94931 0
M  V30 1149 N 101.989 0.842826 1.3317 0
M  V30 1150 C 103.219 0.453397 2.01564 0
M  V30 1151 C 103.627 -0.951147 1.63554 0
M  V30 1152 O 102.97 -1.63021 0.846746 0
M  V30 1153 C 103.032 0.499013 3.5602 0
M  V30 1154 C 102.696 1.86037 4.1742 0
M  V30 1155 C 103.693 2.82416 4.36506 0
M  V30 1156 C 101.378 2.15428 4.53757 0
M  V30 1157 C 103.372 4.06346 4.91082 0
M  V30 1158 C 101.059 3.39615 5.0804 0
M  V30 1159 C 102.057 4.3489 5.26649 0
M  V30 1160 O 101.745 5.5688 5.79776 0
M  V30 1161 H 101.477 0.177871 0.652179 0
M  V30 1162 H 104.031 1.13808 1.70988 0
M  V30 1163 H 102.261 -0.242467 3.85939 0
M  V30 1164 H 103.95 0.126852 4.05702 0
M  V30 1165 H 104.716 2.6101 4.08777 0
M  V30 1166 H 100.595 1.42061 4.38565 0
M  V30 1167 H 104.139 4.80722 5.05522 0
M  V30 1168 H 100.036 3.60876 5.352 0
M  V30 1169 H 100.804 5.58674 5.98185 0
M  V30 1170 N 103.467 -1.45747 0.599634 0
M  V30 1171 C 104.415 -2.322 -0.136426 0
M  V30 1172 C 105.409 -1.45497 -0.867583 0
M  V30 1173 O 106.615 -1.62027 -0.78405 0
M  V30 1174 H 102.99 -0.749368 -0.0628588 0
M  V30 1175 H 104.961 -2.92072 0.611281 0
M  V30 1176 C 103.71 -3.28974 -1.12567 0
M  V30 1177 H 103.033 -3.9568 -0.572484 0
M  V30 1178 H 104.473 -3.92212 -1.61077 0
M  V30 1179 C 102.932 -2.55561 -2.19523 0
M  V30 1180 O 103.462 -2.33111 -3.27143 0
M  V30 1181 N 101.668 -2.15832 -1.94589 0
M  V30 1182 H 101.215 -2.3429 -1.07078 0
M  V30 1183 H 101.173 -1.67034 -2.66359 0
M  V30 1184 N 104.945 -0.338344 -1.53925 0
M  V30 1185 C 105.855 0.529421 -2.28548 0
M  V30 1186 C 106.871 1.11645 -1.3346 0
M  V30 1187 O 108.047 1.13325 -1.66492 0
M  V30 1188 C 105.112 1.66713 -3.03987 0
M  V30 1189 C 104.173 1.11041 -4.14691 0
M  V30 1190 C 103.406 2.19389 -4.86522 0
M  V30 1191 O 103.629 3.40013 -4.57982 0
M  V30 1192 O 102.563 1.83976 -5.73094 0
M  V30 1193 H 106.389 -0.0770399 -3.03602 0
M  V30 1194 H 103.974 -0.103555 -1.49041 0
M  V30 1195 H 105.856 2.32918 -3.5118 0
M  V30 1196 H 104.531 2.25949 -2.31794 0
M  V30 1197 H 103.438 0.413024 -3.71813 0
M  V30 1198 H 104.771 0.562975 -4.8897 0
M  V30 1199 N 106.423 1.57458 -0.0668435 0
M  V30 1200 C 107.386 2.11323 0.887422 0
M  V30 1201 C 108.386 1.03618 1.22964 0
M  V30 1202 O 109.576 1.29626 1.16373 0
M  V30 1203 C 106.708 2.61048 2.19242 0
M  V30 1204 H 107.901 2.96942 0.420194 0
M  V30 1205 H 105.454 1.55239 0.181793 0
M  V30 1206 H 106.189 1.78868 2.70512 0
M  V30 1207 H 105.974 3.39769 1.95702 0
M  V30 1208 H 107.464 3.02814 2.87565 0
M  V30 1209 N 107.901 -0.206675 1.56239 0
M  V30 1210 C 108.864 -1.23976 1.92776 0
M  V30 1211 C 109.864 -1.39041 0.807729 0
M  V30 1212 O 111.054 -1.37051 1.0753 0
M  V30 1213 C 108.186 -2.61112 2.19165 0
M  V30 1214 H 109.379 -0.927764 2.85189 0
M  V30 1215 H 106.932 -0.447718 1.4975 0
M  V30 1216 H 107.667 -2.97386 1.29352 0
M  V30 1217 H 107.452 -2.51552 3.00772 0
M  V30 1218 H 108.942 -3.35633 2.48476 0
M  V30 1219 N 109.379 -1.50304 -0.473955 0
M  V30 1220 C 110.327 -1.69482 -1.59307 0
M  V30 1221 C 111.321 -0.560669 -1.59853 0
M  V30 1222 O 112.527 -0.741087 -1.64036 0
M  V30 1223 H 108.902 -0.534892 -0.528578 0
M  V30 1224 H 110.873 -2.63364 -1.40293 0
M  V30 1225 C 109.622 -1.80354 -2.97267 0
M  V30 1226 H 108.945 -2.67012 -2.97564 0
M  V30 1227 H 110.385 -1.97798 -3.75036 0
M  V30 1228 C 108.844 -0.55448 -3.32306 0
M  V30 1229 O 109.374 0.307661 -4.0052 0
M  V30 1230 N 107.58 -0.409354 -2.87702 0
M  V30 1231 H 107.127 -1.11196 -2.32364 0
M  V30 1232 H 107.085 0.425223 -3.11511 0
M  V30 1233 N 110.857 0.726932 -1.39834 0
M  V30 1234 C 111.79 1.8501 -1.33592 0
M  V30 1235 C 112.768 1.61262 -0.208191 0
M  V30 1236 O 113.952 1.84422 -0.389981 0
M  V30 1237 C 111.079 3.21143 -1.07633 0
M  V30 1238 C 110.125 3.63737 -2.22705 0
M  V30 1239 S 110.958 3.72167 -3.85035 0
M  V30 1240 C 112.114 5.11077 -3.61318 0
M  V30 1241 H 112.347 1.90022 -2.28646 0
M  V30 1242 H 109.88 0.892595 -1.25985 0
M  V30 1243 H 111.838 3.99747 -0.933415 0
M  V30 1244 H 110.499 3.13776 -0.142526 0
M  V30 1245 H 109.692 4.62551 -2.00155 0
M  V30 1246 H 109.294 2.9236 -2.33242 0
M  V30 1247 H 111.586 5.97656 -3.19083 0
M  V30 1248 H 112.529 5.38658 -4.59623 0
M  V30 1249 H 112.937 4.81135 -2.95245 0
M  V30 1250 N 112.336 1.25143 0.95797 0
M  V30 1251 C 113.266 1.07711 2.07173 0
M  V30 1252 C 114.247 -0.0128462 1.70095 0
M  V30 1253 O 115.432 0.156061 1.93572 0
M  V30 1254 C 112.562 0.691503 3.40346 0
M  V30 1255 C 111.516 1.73132 3.9142 0
M  V30 1256 C 110.842 1.20049 5.21049 0
M  V30 1257 C 112.142 3.1294 4.1817 0
M  V30 1258 H 113.836 2.00873 2.22014 0
M  V30 1259 H 111.382 0.967191 1.06684 0
M  V30 1260 H 113.335 0.556505 4.17709 0
M  V30 1261 H 112.059 -0.275819 3.25433 0
M  V30 1262 H 110.718 1.8547 3.16222 0
M  V30 1263 H 110.366 0.223499 5.02503 0
M  V30 1264 H 110.066 1.89545 5.56189 0
M  V30 1265 H 111.59 1.07782 6.01012 0
M  V30 1266 H 113.004 3.03775 4.86203 0
M  V30 1267 H 111.401 3.79875 4.64559 0
M  V30 1268 H 112.471 3.6025 3.24573 0
M  V30 1269 N 113.814 -1.1601 1.06675 0
M  V30 1270 C 114.762 -2.22586 0.675157 0
M  V30 1271 C 115.756 -1.66525 -0.310766 0
M  V30 1272 O 116.962 -1.79145 -0.175215 0
M  V30 1273 H 113.337 -0.724855 0.200223 0
M  V30 1274 H 115.308 -2.52899 1.58381 0
M  V30 1275 C 114.057 -3.47604 0.0817162 0
M  V30 1276 H 113.38 -3.91058 0.831484 0
M  V30 1277 H 114.82 -4.23718 -0.154708 0
M  V30 1278 C 113.279 -3.15718 -1.17576 0
M  V30 1279 O 113.809 -3.31878 -2.26318 0
M  V30 1280 N 112.015 -2.69816 -1.07923 0
M  V30 1281 H 111.562 -2.56866 -0.194293 0
M  V30 1282 H 111.52 -2.48855 -1.92141 0
M  V30 1283 N 115.292 -0.849877 -1.32721 0
M  V30 1284 C 116.202 -0.293791 -2.32753 0
M  V30 1285 C 117.218 0.585906 -1.63839 0
M  V30 1286 O 118.394 0.487413 -1.95413 0
M  V30 1287 C 115.459 0.512752 -3.42887 0
M  V30 1288 C 114.52 -0.39252 -4.27502 0
M  V30 1289 C 113.753 0.375625 -5.32377 0
M  V30 1290 O 113.976 1.60613 -5.4732 0
M  V30 1291 O 112.91 -0.256094 -6.01355 0
M  V30 1292 H 116.736 -1.12242 -2.82197 0
M  V30 1293 H 114.321 -0.612685 -1.36259 0
M  V30 1294 H 116.203 0.970704 -4.10067 0
M  V30 1295 H 114.878 1.31826 -2.95641 0
M  V30 1296 H 113.785 -0.898547 -3.63149 0
M  V30 1297 H 115.118 -1.16309 -4.7826 0
M  V30 1298 N 116.77 1.45427 -0.607355 0
M  V30 1299 C 117.717 2.3053 0.111625 0
M  V30 1300 C 118.687 1.4209 0.860216 0
M  V30 1301 O 119.872 1.71019 0.845998 0
M  V30 1302 C 117.012 3.26992 1.10319 0
M  V30 1303 C 116.125 4.30535 0.355493 0
M  V30 1304 C 115.26 5.14105 1.33676 0
M  V30 1305 C 114.299 6.09376 0.576862 0
M  V30 1306 N 113.436 6.85727 1.5074 0
M  V30 1307 H 118.276 2.91477 -0.620093 0
M  V30 1308 H 115.813 1.43631 -0.317594 0
M  V30 1309 H 117.771 3.81385 1.6912 0
M  V30 1310 H 116.401 2.67799 1.80232 0
M  V30 1311 H 115.453 3.78805 -0.348023 0
M  V30 1312 H 116.765 4.98235 -0.237423 0
M  V30 1313 H 115.919 5.72897 1.99684 0
M  V30 1314 H 114.658 4.46423 1.9636 0
M  V30 1315 H 113.663 5.49715 -0.0968519 0
M  V30 1316 H 114.888 6.79085 -0.0449341 0
M  V30 1317 H 112.834 6.20735 2.12189 0
M  V30 1318 H 112.751 7.49778 0.967913 0
M  V30 1319 H 114.019 7.4906 2.15706 0
M  V30 1320 N 118.248 0.346503 1.53744 0
M  V30 1321 C 119.195 -0.508914 2.25119 0
M  V30 1322 C 120.165 -1.09315 1.25058 0
M  V30 1323 O 121.35 -1.12921 1.53797 0
M  V30 1324 C 118.49 -1.65246 3.02965 0
M  V30 1325 C 117.603 -1.09525 4.17886 0
M  V30 1326 C 116.738 -2.20634 4.83212 0
M  V30 1327 C 115.777 -1.62279 5.90196 0
M  V30 1328 N 114.914 -2.67143 6.49291 0
M  V30 1329 H 119.754 0.106283 2.9781 0
M  V30 1330 H 117.291 0.0642227 1.4696 0
M  V30 1331 H 119.249 -2.32574 3.4636 0
M  V30 1332 H 117.879 -2.2386 2.32565 0
M  V30 1333 H 116.931 -0.312818 3.79112 0
M  V30 1334 H 118.243 -0.628444 4.94825 0
M  V30 1335 H 117.397 -2.95821 5.29693 0
M  V30 1336 H 116.136 -2.70659 4.05703 0
M  V30 1337 H 115.141 -0.855989 5.43096 0
M  V30 1338 H 116.366 -1.13102 6.69615 0
M  V30 1339 H 114.312 -3.16417 5.74645 0
M  V30 1340 H 114.229 -2.25093 7.21713 0
M  V30 1341 H 115.497 -3.4209 7.00425 0
M  V30 1342 N 119.726 -1.57421 0.075193 0
M  V30 1343 C 120.951 -1.98364 -0.605515 0
M  V30 1344 C 121.376 -0.953383 -1.62149 0
M  V30 1345 O 120.734 0.0806053 -1.81121 0
M  V30 1346 C 120.782 -3.38332 -1.24756 0
M  V30 1347 O 119.886 -3.37959 -2.36342 0
M  V30 1348 H 119.227 -0.645553 -0.155428 0
M  V30 1349 H 121.757 -2.04044 0.150714 0
M  V30 1350 H 121.767 -3.75591 -1.5936 0
M  V30 1351 H 120.442 -4.12846 -0.503129 0
M  V30 1352 H 119.019 -3.12474 -2.03506 0
M  V30 1353 N 121.204 0.198386 -1.56346 0
M  V30 1354 C 122.114 1.2664 -1.97483 0
M  V30 1355 C 123.13 1.49989 -0.882002 0
M  V30 1356 O 124.306 1.62668 -1.18748 0
M  V30 1357 C 121.371 2.59141 -2.30319 0
M  V30 1358 C 120.432 2.43892 -3.53292 0
M  V30 1359 C 119.665 3.70074 -3.84553 0
M  V30 1360 O 119.888 4.74101 -3.1715 0
M  V30 1361 O 118.822 3.658 -4.7799 0
M  V30 1362 H 122.648 0.947304 -2.88548 0
M  V30 1363 H 120.233 0.403123 -1.43859 0
M  V30 1364 H 122.115 3.37352 -2.5253 0
M  V30 1365 H 120.79 2.90684 -1.42423 0
M  V30 1366 H 119.697 1.63803 -3.36332 0
M  V30 1367 H 121.03 2.17282 -4.41644 0
M  V30 1368 N 122.682 1.50554 0.465978 0
M  V30 1369 C 123.931 1.61038 1.21448 0
M  V30 1370 C 124.244 0.31865 1.92987 0
M  V30 1371 O 125.45 0.302469 2.6981 0
M  V30 1372 C 123.906 2.84283 2.20706 0
M  V30 1373 C 123.514 4.20352 1.54946 0
M  V30 1374 C 125.258 3.04115 2.96166 0
M  V30 1375 C 123.165 5.34778 2.5252 0
M  V30 1376 H 122.095 0.599718 0.457005 0
M  V30 1377 H 124.746 1.7699 0.484424 0
M  V30 1378 H 123.128 2.61901 2.97025 0
M  V30 1379 H 124.302 4.53008 0.843811 0
M  V30 1380 H 122.617 4.06167 0.917475 0
M  V30 1381 H 125.214 3.86774 3.69202 0
M  V30 1382 H 125.557 2.16045 3.55852 0
M  V30 1383 H 126.09 3.26702 2.26959 0
M  V30 1384 H 122.829 6.25018 1.97566 0
M  V30 1385 H 122.349 5.06534 3.21222 0
M  V30 1386 H 124.028 5.65561 3.14245 0
M  V30 1387 N 124.16 -0.719506 1.40217 0
M  V30 1388 C 125.107 -1.83359 1.40172 0
M  V30 1389 C 126.077 -1.64065 0.259206 0
M  V30 1390 O 127.262 -1.85254 0.456677 0
M  V30 1391 C 124.402 -3.2103 1.26624 0
M  V30 1392 C 123.515 -3.51923 2.50548 0
M  V30 1393 C 122.65 -4.79079 2.29471 0
M  V30 1394 C 121.689 -5.02863 3.48992 0
M  V30 1395 N 120.826 -6.2123 3.27135 0
M  V30 1396 H 125.666 -1.82733 2.35399 0
M  V30 1397 H 123.203 -0.892688 1.16917 0
M  V30 1398 H 125.161 -4.00524 1.16776 0
M  V30 1399 H 123.791 -3.20895 0.350176 0
M  V30 1400 H 122.843 -2.67014 2.70939 0
M  V30 1401 H 124.155 -3.6541 3.39525 0
M  V30 1402 H 123.309 -5.66582 2.16955 0
M  V30 1403 H 122.048 -4.67794 1.37913 0
M  V30 1404 H 121.053 -4.13816 3.6199 0
M  V30 1405 H 122.278 -5.16023 4.41472 0
M  V30 1406 H 120.224 -6.11204 2.38256 0
M  V30 1407 H 120.141 -6.35375 4.09675 0
M  V30 1408 H 121.409 -7.11532 3.18344 0
M  V30 1409 N 125.638 -1.25649 -0.95132 0
M  V30 1410 C 126.568 -1.08808 -2.06599 0
M  V30 1411 C 127.549 0.00382547 -1.701 0
M  V30 1412 O 128.734 -0.166325 -1.93486 0
M  V30 1413 C 125.864 -0.709542 -3.39975 0
M  V30 1414 C 124.818 -1.75206 -3.90496 0
M  V30 1415 C 124.144 -1.22811 -5.20405 0
M  V30 1416 C 125.444 -3.15153 -4.16504 0
M  V30 1417 H 127.138 -2.02048 -2.20946 0
M  V30 1418 H 124.684 -0.972835 -1.06169 0
M  V30 1419 H 126.637 -0.578649 -4.17408 0
M  V30 1420 H 125.361 0.258556 -3.25575 0
M  V30 1421 H 124.02 -1.87145 -3.15234 0
M  V30 1422 H 123.668 -0.250145 -5.02378 0
M  V30 1423 H 123.368 -1.92492 -5.55176 0
M  V30 1424 H 124.892 -1.10968 -6.00432 0
M  V30 1425 H 126.306 -3.06349 -4.84586 0
M  V30 1426 H 124.703 -3.82333 -4.62538 0
M  V30 1427 H 125.773 -3.61966 -3.22658 0
M  V30 1428 N 127.117 1.15442 -1.07289 0
M  V30 1429 C 128.363 1.86489 -0.796846 0
M  V30 1430 C 128.696 1.82078 0.675371 0
M  V30 1431 O 127.971 1.24346 1.4956 0
M  V30 1432 C 128.254 3.35626 -1.30489 0
M  V30 1433 C 128.107 3.48673 -2.84161 0
M  V30 1434 C 129.426 4.30357 -0.920907 0
M  V30 1435 H 126.545 0.677144 -0.290939 0
M  V30 1436 H 129.187 1.35633 -1.33056 0
M  V30 1437 H 127.337 3.79068 -0.850883 0
M  V30 1438 H 129.009 3.14099 -3.37846 0
M  V30 1439 H 127.252 2.90253 -3.22391 0
M  V30 1440 H 127.923 4.53453 -3.14777 0
M  V30 1441 H 130.399 3.94871 -1.3121 0
M  V30 1442 H 129.275 5.33193 -1.30372 0
M  V30 1443 H 129.536 4.4176 0.173226 0
M  V30 1444 N 128.595 0.856903 1.32268 0
M  V30 1445 C 129.82 0.474569 2.01897 0
M  V30 1446 C 130.245 -0.921766 1.63967 0
M  V30 1447 O 129.603 -1.60589 0.84148 0
M  V30 1448 C 129.651 0.623799 3.55164 0
M  V30 1449 O 128.755 -0.342459 4.10976 0
M  V30 1450 H 128.096 0.190422 0.63611 0
M  V30 1451 H 130.626 1.15672 1.68764 0
M  V30 1452 H 130.636 0.512169 4.04773 0
M  V30 1453 H 129.311 1.64202 3.82113 0
M  V30 1454 H 127.888 -0.18688 3.72431 0
M  V30 1455 N 130.073 -1.45103 0.615059 0
M  V30 1456 C 131.322 -2.01396 0.110718 0
M  V30 1457 C 131.635 -1.48834 -1.26916 0
M  V30 1458 O 132.841 -1.97152 -1.86664 0
M  V30 1459 C 131.297 -3.59599 0.14723 0
M  V30 1460 C 130.905 -4.21158 1.52743 0
M  V30 1461 C 132.649 -4.23428 -0.30148 0
M  V30 1462 C 130.556 -5.71535 1.51992 0
M  V30 1463 H 129.486 -0.753061 0.0376241 0
M  V30 1464 H 132.137 -1.66494 0.77149 0
M  V30 1465 H 130.519 -3.91724 -0.580339 0
M  V30 1466 H 131.693 -4.00594 2.2773 0
M  V30 1467 H 130.008 -3.69552 1.91886 0
M  V30 1468 H 132.605 -5.33703 -0.326392 0
M  V30 1469 H 132.948 -3.94629 -1.32565 0
M  V30 1470 H 133.481 -3.96047 0.373065 0
M  V30 1471 H 130.22 -6.05044 2.52193 0
M  V30 1472 H 129.74 -5.94268 0.81274 0
M  V30 1473 H 131.419 -6.34873 1.24681 0
M  V30 1474 N 131.551 -0.354651 -1.53558 0
M  V30 1475 C 132.828 0.294281 -1.93374 0
M  V30 1476 C 133.208 1.67313 -1.28723 0
M  V30 1477 O 132.556 2.24179 -0.442247 0
M  V30 1478 C 132.766 0.355445 -3.47185 0
M  V30 1479 C 134.114 0.601007 -4.20325 0
M  V30 1480 O 135.138 0.437106 -3.53508 0
M  V30 1481 O 133.997 0.919322 -5.38712 0
M  V30 1482 H 131.091 0.174033 -0.808481 0
M  V30 1483 H 133.637 -0.406638 -1.64756 0
M  V30 1484 H 132.409 -0.611729 -3.86489 0
M  V30 1485 H 132.032 1.1027 -3.82003 0
M  V30 1486 N 133.029 1.57378 -0.0835403 0
M  V30 1487 C 133.992 2.12252 0.864959 0
M  V30 1488 C 134.992 1.04916 1.21858 0
M  V30 1489 O 136.182 1.30853 1.14991 0
M  V30 1490 C 133.314 2.63358 2.16461 0
M  V30 1491 H 134.507 2.97371 0.388676 0
M  V30 1492 H 132.06 1.55423 0.165317 0
M  V30 1493 H 132.795 1.81727 2.686 0
M  V30 1494 H 132.58 3.41826 1.92087 0
M  V30 1495 H 134.07 3.05847 2.84337 0
M  V30 1496 N 134.507 -0.190092 1.56449 0
M  V30 1497 C 135.735 -0.925772 1.85033 0
M  V30 1498 C 136.15 -1.76638 0.666658 0
M  V30 1499 O 135.507 -1.78822 -0.364565 0
M  V30 1500 C 135.558 -1.81786 3.12468 0
M  V30 1501 O 135.279 -1.01118 4.26271 0
M  V30 1502 C 136.78 -2.6648 3.54265 0
M  V30 1503 H 134 -0.269872 0.614337 0
M  V30 1504 H 136.544 -0.195837 2.0356 0
M  V30 1505 H 134.699 -2.50136 2.95822 0
M  V30 1506 H 135.113 -1.61956 4.98869 0
M  V30 1507 H 136.587 -3.24722 4.46385 0
M  V30 1508 H 137.064 -3.40434 2.77491 0
M  V30 1509 H 137.67 -2.03493 3.73458 0
M  V30 1510 N 135.985 -1.50799 -0.457987 0
M  V30 1511 C 137.21 -1.66496 -1.23668 0
M  V30 1512 C 137.635 -0.353288 -1.84752 0
M  V30 1513 O 136.993 0.684346 -1.67888 0
M  V30 1514 C 137.041 -2.76763 -2.3116 0
M  V30 1515 O 136.145 -2.38928 -3.36136 0
M  V30 1516 H 135.486 -0.555828 -0.363252 0
M  V30 1517 H 138.016 -1.9725 -0.543474 0
M  V30 1518 H 138.026 -3.00232 -2.76269 0
M  V30 1519 H 136.701 -3.71954 -1.86073 0
M  V30 1520 H 135.278 -2.25953 -2.96647 0
M  V30 1521 N 137.463 0.71206 -1.40597 0
M  V30 1522 C 138.373 1.8562 -1.43466 0
M  V30 1523 C 139.389 1.70902 -0.326902 0
M  V30 1524 O 140.565 1.93105 -0.572043 0
M  V30 1525 C 137.63 3.21451 -1.29884 0
M  V30 1526 C 136.691 3.48398 -2.50833 0
M  V30 1527 C 135.924 4.77749 -2.3789 0
M  V30 1528 O 136.147 5.53089 -1.39459 0
M  V30 1529 O 135.081 5.05111 -3.27333 0
M  V30 1530 H 138.907 1.86155 -2.39958 0
M  V30 1531 H 136.492 0.86295 -1.21957 0
M  V30 1532 H 138.374 4.02579 -1.24531 0
M  V30 1533 H 137.049 3.21636 -0.364997 0
M  V30 1534 H 135.956 2.67265 -2.61763 0
M  V30 1535 H 137.289 3.53014 -3.4299 0
M  V30 1536 N 138.941 1.26152 0.944643 0
M  V30 1537 C 139.889 1.07215 2.06417 0
M  V30 1538 C 140.883 9.2007e-05 1.694 0
M  V30 1539 O 142.089 0.1565 1.79318 0
M  V30 1540 H 138.464 0.329837 0.675805 0
M  V30 1541 H 140.435 2.02099 2.19541 0
M  V30 1542 C 139.184 0.718197 3.40202 0
M  V30 1543 H 138.507 1.53497 3.69159 0
M  V30 1544 H 139.947 0.625459 4.19361 0
M  V30 1545 C 138.406 -0.576435 3.31932 0
M  V30 1546 O 138.936 -1.61574 3.67773 0
M  V30 1547 N 137.142 -0.565781 2.85039 0
M  V30 1548 H 136.689 0.280367 2.5607 0
M  V30 1549 H 136.647 -1.43213 2.79888 0
M  V30 1550 N 140.419 -1.14872 1.07899 0
M  V30 1551 C 141.382 -2.17986 0.708161 0
M  V30 1552 C 142.382 -1.58775 -0.25442 0
M  V30 1553 O 143.572 -1.74166 -0.034645 0
M  V30 1554 C 140.704 -3.40871 0.0446929 0
M  V30 1555 H 141.897 -2.52306 1.62116 0
M  V30 1556 H 139.45 -1.2943 0.876218 0
M  V30 1557 H 140.185 -3.12124 -0.880281 0
M  V30 1558 H 139.97 -3.8511 0.737091 0
M  V30 1559 H 141.46 -4.17121 -0.19991 0
M  V30 1560 N 141.898 -0.863906 -1.31812 0
M  V30 1561 C 142.828 -0.330843 -2.31144 0
M  V30 1562 C 143.809 0.575005 -1.60087 0
M  V30 1563 O 144.994 0.493304 -1.8783 0
M  V30 1564 C 142.124 0.47374 -3.44054 0
M  V30 1565 C 141.078 -0.338481 -4.26659 0
M  V30 1566 C 140.404 0.591412 -5.31419 0
M  V30 1567 C 141.704 -1.56926 -4.98168 0
M  V30 1568 H 143.398 -1.16086 -2.75979 0
M  V30 1569 H 140.944 -0.559657 -1.32679 0
M  V30 1570 H 142.897 0.857143 -4.12591 0
M  V30 1571 H 141.621 1.33721 -2.9797 0
M  V30 1572 H 140.28 -0.703754 -3.59782 0
M  V30 1573 H 139.928 1.45199 -4.81587 0
M  V30 1574 H 139.628 0.0519022 -5.87577 0
M  V30 1575 H 141.152 0.97179 -6.02817 0
M  V30 1576 H 142.566 -1.25764 -5.59336 0
M  V30 1577 H 140.963 -2.04739 -5.64094 0
M  V30 1578 H 142.033 -2.32544 -4.25501 0
M  V30 1579 N 143.376 1.44774 -0.622745 0
M  V30 1580 C 144.339 2.29069 0.0774015 0
M  V30 1581 C 145.339 1.4059 0.780461 0
M  V30 1582 O 146.529 1.62551 0.626322 0
M  V30 1583 C 143.661 3.21974 1.12006 0
M  V30 1584 H 144.854 2.92459 -0.663901 0
M  V30 1585 H 142.407 1.51548 -0.382486 0
M  V30 1586 H 143.142 2.63417 1.89162 0
M  V30 1587 H 142.927 3.87168 0.619951 0
M  V30 1588 H 144.417 3.85318 1.60995 0
M  V30 1589 N 144.854 0.36279 1.53368 0
M  V30 1590 C 145.786 -0.519668 2.23231 0
M  V30 1591 C 146.799 -1.04844 1.24546 0
M  V30 1592 O 147.988 -0.955296 1.50786 0
M  V30 1593 C 145.088 -1.72995 2.9142 0
M  V30 1594 C 144.261 -1.33316 4.16588 0
M  V30 1595 C 143.32 -2.40521 4.68013 0
M  V30 1596 O 142.346 -2.03027 5.3176 0
M  V30 1597 N 143.548 -3.72065 4.45587 0
M  V30 1598 H 146.313 0.078751 2.99597 0
M  V30 1599 H 143.874 0.187833 1.60807 0
M  V30 1600 H 145.866 -2.44184 3.22733 0
M  V30 1601 H 144.436 -2.2353 2.18525 0
M  V30 1602 H 143.656 -0.451236 3.91609 0
M  V30 1603 H 144.944 -1.04432 4.97967 0
M  V30 1604 H 144.342 -4.05304 3.94646 0
M  V30 1605 H 142.899 -4.39366 4.81457 0
M  V30 1606 N 146.332 -1.57332 0.0918853 0
M  V30 1607 C 147.242 -2.17368 -0.882505 0
M  V30 1608 C 148.258 -1.14226 -1.31257 0
M  V30 1609 O 149.434 -1.46582 -1.38115 0
M  V30 1610 C 146.499 -2.73962 -2.12476 0
M  V30 1611 C 145.56 -3.92048 -1.7492 0
M  V30 1612 C 144.793 -4.45933 -2.93223 0
M  V30 1613 O 145.016 -3.98764 -4.07852 0
M  V30 1614 O 143.95 -5.36999 -2.71875 0
M  V30 1615 H 147.776 -3.01031 -0.40172 0
M  V30 1616 H 145.361 -1.48813 -0.132291 0
M  V30 1617 H 147.243 -3.10147 -2.85283 0
M  V30 1618 H 145.918 -1.93347 -2.59613 0
M  V30 1619 H 144.825 -3.6068 -0.993025 0
M  V30 1620 H 146.158 -4.74017 -1.32548 0
M  V30 1621 N 147.81 0.181792 -1.56548 0
M  V30 1622 C 149.04 0.914618 -1.85252 0
M  V30 1623 C 149.448 1.76791 -0.673914 0
M  V30 1624 O 148.791 1.80009 0.366416 0
M  V30 1625 C 148.853 1.85019 -3.08234 0
M  V30 1626 C 148.517 1.17754 -4.41569 0
M  V30 1627 C 149.514 0.548035 -5.17003 0
M  V30 1628 C 147.199 1.17742 -4.88305 0
M  V30 1629 C 149.193 -0.0726128 -6.37359 0
M  V30 1630 C 146.88 0.552946 -6.08593 0
M  V30 1631 C 147.878 -0.070978 -6.82963 0
M  V30 1632 O 147.566 -0.685635 -8.00971 0
M  V30 1633 H 147.298 0.271695 -0.618998 0
M  V30 1634 H 149.852 0.189944 -2.0452 0
M  V30 1635 H 148.082 2.61491 -2.84885 0
M  V30 1636 H 149.771 2.45195 -3.23472 0
M  V30 1637 H 150.537 0.540174 -4.81982 0
M  V30 1638 H 146.416 1.65246 -4.30366 0
M  V30 1639 H 149.96 -0.560213 -6.95347 0
M  V30 1640 H 145.857 0.558354 -6.43081 0
M  V30 1641 H 146.625 -0.58385 -8.16415 0
M  V30 1642 N 149.288 1.51039 0.449983 0
M  V30 1643 C 150.536 1.62759 1.19808 0
M  V30 1644 C 150.857 0.339981 1.92013 0
M  V30 1645 O 150.127 -0.643606 1.85026 0
M  V30 1646 H 148.707 0.599811 0.445237 0
M  V30 1647 H 151.369 1.87914 0.517138 0
M  V30 1648 H 150.465 2.44911 1.93455 0
M  V30 1649 N 150.766 -0.704594 1.40972 0
M  V30 1650 C 152.015 -1.46018 1.39146 0
M  V30 1651 C 152.328 -1.956 0.000589254 0
M  V30 1652 O 153.534 -2.71137 -0.1403 0
M  V30 1653 C 151.99 -2.63996 2.4461 0
M  V30 1654 C 151.598 -2.21238 3.89561 0
M  V30 1655 C 153.342 -3.41677 2.51907 0
M  V30 1656 C 151.249 -3.3612 4.86598 0
M  V30 1657 H 150.179 -0.548444 0.517422 0
M  V30 1658 H 152.83 -0.765784 1.66757 0
M  V30 1659 H 151.212 -3.3566 2.10115 0
M  V30 1660 H 152.386 -1.56923 4.33257 0
M  V30 1661 H 150.701 -1.56574 3.85841 0
M  V30 1662 H 153.298 -4.27182 3.2159 0
M  V30 1663 H 153.641 -3.86247 1.55303 0
M  V30 1664 H 154.174 -2.77064 2.85448 0
M  V30 1665 H 150.913 -2.96572 5.84573 0
M  V30 1666 H 150.433 -3.99315 4.47557 0
M  V30 1667 H 152.112 -4.02029 5.06934 0
M  V30 1668 N 152.244 -1.26651 -0.937939 0
M  V30 1669 C 153.472 -1.15173 -1.7188 0
M  V30 1670 C 153.887 0.292668 -1.86518 0
M  V30 1671 O 153.244 1.20014 -1.37488 0
M  V30 1672 C 153.295 -1.81925 -3.12387 0
M  V30 1673 O 153.016 -3.2072 -2.98446 0
M  V30 1674 C 154.517 -1.76442 -4.06673 0
M  V30 1675 H 151.737 -0.400911 -0.538063 0
M  V30 1676 H 154.281 -1.67332 -1.1756 0
M  V30 1677 H 152.436 -1.33696 -3.63599 0
M  V30 1678 H 152.85 -3.53802 -3.872 0
M  V30 1679 H 154.324 -2.27781 -5.02812 0
M  V30 1680 H 154.801 -0.731608 -4.33064 0
M  V30 1681 H 155.407 -2.24238 -3.61382 0
M  V30 1682 N 153.722 1.14298 -1.08507 0
M  V30 1683 C 154.97 1.84993 -0.813763 0
M  V30 1684 C 155.291 1.83405 0.662393 0
M  V30 1685 O 154.561 1.28319 1.48024 0
M  V30 1686 H 153.141 0.684966 -0.298045 0
M  V30 1687 H 155.803 1.385 -1.37126 0
M  V30 1688 H 154.899 2.89788 -1.15884 0
M  V30 1689 N 155.201 0.870884 1.31352 0
M  V30 1690 C 156.431 0.496049 2.00557 0
M  V30 1691 C 156.839 -0.916241 1.65534 0
M  V30 1692 O 156.182 -1.61188 0.881134 0
M  V30 1693 C 156.244 0.574418 3.54881 0
M  V30 1694 C 155.908 1.94849 4.1338 0
M  V30 1695 C 156.905 2.91611 4.30417 0
M  V30 1696 C 154.59 2.25005 4.49086 0
M  V30 1697 C 156.584 4.16672 4.82352 0
M  V30 1698 C 154.271 3.50315 5.00722 0
M  V30 1699 C 155.269 4.45964 5.17306 0
M  V30 1700 O 154.957 5.69052 5.67833 0
M  V30 1701 H 154.689 0.191664 0.64826 0
M  V30 1702 H 157.243 1.17409 1.68536 0
M  V30 1703 H 155.473 -0.160549 3.86367 0
M  V30 1704 H 157.162 0.212879 4.05341 0
M  V30 1705 H 157.928 2.69622 4.03149 0
M  V30 1706 H 153.807 1.51332 4.35453 0
M  V30 1707 H 157.351 4.91336 4.95211 0
M  V30 1708 H 153.248 3.72147 5.27424 0
M  V30 1709 H 154.016 5.71236 5.86201 0
M  V30 1710 N 156.679 -1.44442 0.630414 0
M  V30 1711 C 158.09 -1.85434 0.217063 0
M  V30 1712 C 158.441 -1.52748 -1.23136 0
M  V30 1713 O 157.566 -0.965205 -1.93682 0
M  V30 1714 C 158.161 -3.36581 0.387168 0
M  V30 1715 C 156.72 -3.76389 0.0283297 0
M  V30 1716 C 155.867 -2.68296 0.700889 0
M  V30 1717 H 158.818 -1.34919 0.83562 0
M  V30 1718 H 158.839 -3.78657 -0.374086 0
M  V30 1719 H 158.351 -3.60339 1.44144 0
M  V30 1720 H 156.452 -3.58246 -1.02423 0
M  V30 1721 H 156.565 -4.77095 0.437892 0
M  V30 1722 H 154.929 -2.54335 0.136267 0
M  V30 1723 H 155.712 -2.94887 1.75774 0
M  V30 1724 N 158.157 -0.370918 -1.53173 0
M  V30 1725 C 159.385 0.217704 -2.05751 0
M  V30 1726 C 159.8 1.42018 -1.24404 0
M  V30 1727 O 159.157 1.80245 -0.286033 0
M  V30 1728 C 159.208 0.605954 -3.56385 0
M  V30 1729 O 158.929 -0.548734 -4.3465 0
M  V30 1730 C 160.43 1.2524 -4.25241 0
M  V30 1731 H 157.65 0.0371659 -0.66997 0
M  V30 1732 H 160.194 -0.530832 -1.9749 0
M  V30 1733 H 158.349 1.3044 -3.6478 0
M  V30 1734 H 158.763 -0.23376 -5.23979 0
M  V30 1735 H 160.237 1.47458 -5.3194 0
M  V30 1736 H 160.714 2.2143 -3.79296 0
M  V30 1737 H 161.32 0.595233 -4.21114 0
M  V30 1738 N 159.635 1.57281 -0.100228 0
M  V30 1739 C 160.565 2.17328 0.853857 0
M  V30 1740 C 161.546 1.10804 1.2906 0
M  V30 1741 O 162.731 1.38963 1.35657 0
M  V30 1742 C 159.861 2.75772 2.11109 0
M  V30 1743 C 158.815 3.87713 1.81279 0
M  V30 1744 C 158.141 4.32882 3.13874 0
M  V30 1745 C 159.441 5.10677 1.09574 0
M  V30 1746 H 161.135 2.97305 0.353545 0
M  V30 1747 H 158.681 1.43009 0.168612 0
M  V30 1748 H 160.634 3.16433 2.78296 0
M  V30 1749 H 159.358 1.93057 2.63432 0
M  V30 1750 H 158.017 3.476 1.16489 0
M  V30 1751 H 157.665 3.47051 3.64095 0
M  V30 1752 H 157.365 5.08358 2.94696 0
M  V30 1753 H 158.889 4.7618 3.82211 0
M  V30 1754 H 160.303 5.48474 1.66879 0
M  V30 1755 H 158.7 5.91615 1.00557 0
M  V30 1756 H 159.77 4.84835 0.0793299 0
M  V30 1757 N 161.113 -0.173488 1.56642 0
M  V30 1758 C 162.362 -0.888758 1.81063 0
M  V30 1759 C 162.675 -1.83506 0.67712 0
M  V30 1760 O 163.881 -2.59254 0.806206 0
M  V30 1761 C 162.337 -1.63091 3.20826 0
M  V30 1762 C 161.945 -0.728357 4.4204 0
M  V30 1763 C 163.689 -2.33454 3.54541 0
M  V30 1764 C 161.596 -1.47062 5.72823 0
M  V30 1765 H 160.526 -0.335618 0.675186 0
M  V30 1766 H 163.177 -0.141712 1.82952 0
M  V30 1767 H 161.559 -2.42263 3.13248 0
M  V30 1768 H 162.733 0.0262449 4.60793 0
M  V30 1769 H 161.048 -0.134492 4.16183 0
M  V30 1770 H 163.645 -2.89578 4.49498 0
M  V30 1771 H 163.988 -3.08687 2.79317 0
M  V30 1772 H 164.521 -1.61227 3.63663 0
M  V30 1773 H 161.26 -0.760658 6.51072 0
M  V30 1774 H 160.78 -2.1986 5.58052 0
M  V30 1775 H 162.459 -2.01868 6.14702 0
M  V30 1776 N 162.591 -1.51276 -0.441967 0
M  V30 1777 C 163.521 -1.752 -1.54361 0
M  V30 1778 C 164.502 -0.601682 -1.59103 0
M  V30 1779 O 165.687 -0.843913 -1.74905 0
M  V30 1780 C 162.817 -1.87282 -2.92477 0
M  V30 1781 C 161.771 -3.02687 -3.02596 0
M  V30 1782 C 161.097 -2.99947 -4.42647 0
M  V30 1783 C 162.397 -4.4273 -2.77106 0
M  V30 1784 H 164.091 -2.67442 -1.34592 0
M  V30 1785 H 161.637 -1.28694 -0.646048 0
M  V30 1786 H 163.59 -2.02602 -3.695 0
M  V30 1787 H 162.314 -0.916844 -3.13467 0
M  V30 1788 H 160.973 -2.87065 -2.28012 0
M  V30 1789 H 160.621 -2.02136 -4.60597 0
M  V30 1790 H 160.321 -3.77439 -4.50348 0
M  V30 1791 H 161.845 -3.17354 -5.2165 0
M  V30 1792 H 163.259 -4.58727 -3.43864 0
M  V30 1793 H 161.656 -5.21893 -2.96222 0
M  V30 1794 H 162.726 -4.53087 -1.72744 0
M  V30 1795 N 164.069 0.697108 -1.41344 0
M  V30 1796 C 165.316 1.45714 -1.40619 0
M  V30 1797 C 165.644 1.94494 -0.0147907 0
M  V30 1798 O 164.899 1.69794 0.973066 0
M  V30 1799 C 165.198 2.68553 -2.35826 0
M  V30 1800 C 164.864 2.38438 -3.82698 0
M  V30 1801 C 163.526 2.29936 -4.22709 0
M  V30 1802 C 165.878 2.13567 -4.75435 0
M  V30 1803 C 163.206 1.94656 -5.53467 0
M  V30 1804 C 165.558 1.79797 -6.06511 0
M  V30 1805 C 164.222 1.69789 -6.45545 0
M  V30 1806 H 163.492 0.533206 -0.51456 0
M  V30 1807 H 166.139 0.796901 -1.74131 0
M  V30 1808 H 164.444 3.39503 -1.95563 0
M  V30 1809 H 166.141 3.2669 -2.32539 0
M  V30 1810 H 162.731 2.4595 -3.51008 0
M  V30 1811 H 166.915 2.19082 -4.45328 0
M  V30 1812 H 162.171 1.8546 -5.82593 0
M  V30 1813 H 166.345 1.59572 -6.77872 0
M  V30 1814 H 163.972 1.4222 -7.46778 0
M  V30 1815 N 165.547 1.27147 0.931209 0
M  V30 1816 C 166.495 1.09398 2.05268 0
M  V30 1817 C 167.489 0.0180591 1.6939 0
M  V30 1818 O 168.695 0.17551 1.79142 0
M  V30 1819 H 165.07 0.336986 0.672268 0
M  V30 1820 H 167.041 2.04416 2.17386 0
M  V30 1821 C 165.79 0.75424 3.39421 0
M  V30 1822 H 165.113 1.57404 3.67511 0
M  V30 1823 H 166.553 0.669903 4.18674 0
M  V30 1824 C 165.012 -0.541197 3.32525 0
M  V30 1825 O 165.542 -1.57664 3.69466 0
M  V30 1826 N 163.748 -0.535517 2.85623 0
M  V30 1827 H 163.295 0.307511 2.55758 0
M  V30 1828 H 163.253 -1.40236 2.81392 0
M  V30 1829 N 167.025 -1.13721 1.09112 0
M  V30 1830 C 167.972 -2.19031 0.727591 0
M  V30 1831 C 168.942 -1.63555 -0.289656 0
M  V30 1832 O 170.127 -1.90023 -0.172026 0
M  V30 1833 C 167.267 -3.4477 0.15082 0
M  V30 1834 C 166.38 -4.14365 1.22172 0
M  V30 1835 C 165.515 -5.27709 0.608042 0
M  V30 1836 C 164.554 -5.89147 1.66047 0
M  V30 1837 N 163.691 -6.93929 1.06806 0
M  V30 1838 H 168.531 -2.49475 1.62991 0
M  V30 1839 H 166.068 -1.22499 0.81439 0
M  V30 1840 H 168.026 -4.16714 -0.201358 0
M  V30 1841 H 166.656 -3.14787 -0.714783 0
M  V30 1842 H 165.708 -3.40737 1.69122 0
M  V30 1843 H 167.02 -4.56114 2.01895 0
M  V30 1844 H 166.174 -6.06355 0.204523 0
M  V30 1845 H 164.913 -4.872 -0.220769 0
M  V30 1846 H 163.918 -5.09198 2.07357 0
M  V30 1847 H 165.143 -6.31729 2.49189 0
M  V30 1848 H 163.089 -6.55483 0.260476 0
M  V30 1849 H 163.006 -7.34202 1.8023 0
M  V30 1850 H 164.274 -7.76434 0.690644 0
M  V30 1851 N 168.503 -0.877838 -1.30888 0
M  V30 1852 C 169.45 -0.337538 -2.28318 0
M  V30 1853 C 170.42 0.568346 -1.56074 0
M  V30 1854 O 171.605 0.498298 -1.84178 0
M  V30 1855 C 168.745 0.448142 -3.42178 0
M  V30 1856 C 167.858 -0.48615 -4.29256 0
M  V30 1857 C 166.993 0.314427 -5.30269 0
M  V30 1858 C 166.032 -0.615791 -6.08995 0
M  V30 1859 N 165.169 0.14902 -7.01942 0
M  V30 1860 H 170.009 -1.17356 -2.73919 0
M  V30 1861 H 167.546 -0.590094 -1.34745 0
M  V30 1862 H 169.504 0.919517 -4.06941 0
M  V30 1863 H 168.134 1.24879 -2.97666 0
M  V30 1864 H 167.186 -1.076 -3.64865 0
M  V30 1865 H 168.498 -1.19909 -4.84173 0
M  V30 1866 H 167.652 0.847969 -6.00745 0
M  V30 1867 H 166.391 1.06062 -4.76027 0
M  V30 1868 H 165.396 -1.16102 -5.37401 0
M  V30 1869 H 166.621 -1.36097 -6.65323 0
M  V30 1870 H 164.567 0.877884 -6.50099 0
M  V30 1871 H 164.484 -0.504433 -7.54315 0
M  V30 1872 H 165.752 0.663537 -7.76671 0
M  V30 1873 N 169.982 1.44106 -0.638065 0
M  V30 1874 C 170.93 2.3248 0.0748149 0
M  V30 1875 C 171.924 1.47746 0.828702 0
M  V30 1876 O 173.13 1.64049 0.740816 0
M  V30 1877 H 169.505 0.750771 0.0429686 0
M  V30 1878 H 171.476 2.90348 -0.688504 0
M  V30 1879 C 170.225 3.31843 1.03805 0
M  V30 1880 H 169.548 3.97059 0.467375 0
M  V30 1881 H 170.988 3.96345 1.50622 0
M  V30 1882 C 169.447 2.61291 2.1267 0
M  V30 1883 O 169.977 2.41702 3.20847 0
M  V30 1884 N 168.183 2.20915 1.88798 0
M  V30 1885 H 167.73 2.37047 1.00829 0
M  V30 1886 H 167.688 1.74038 2.61836 0
M  V30 1887 N 171.46 0.379036 1.52974 0
M  V30 1888 C 172.407 -0.461048 2.26148 0
M  V30 1889 C 173.377 -1.06637 1.27349 0
M  V30 1890 O 174.562 -1.09633 1.56157 0
M  V30 1891 C 171.702 -1.58782 3.06402 0
M  V30 1892 C 170.815 -1.00636 4.20115 0
M  V30 1893 C 169.95 -2.10334 4.87784 0
M  V30 1894 C 168.989 -1.49724 5.93506 0
M  V30 1895 N 168.126 -2.5331 6.54812 0
M  V30 1896 H 172.966 0.169429 2.97518 0
M  V30 1897 H 170.503 0.0953806 1.4679 0
M  V30 1898 H 172.461 -2.25174 3.51215 0
M  V30 1899 H 171.091 -2.18876 2.37261 0
M  V30 1900 H 170.143 -0.232332 3.7969 0
M  V30 1901 H 171.455 -0.523343 4.96047 0
M  V30 1902 H 170.609 -2.84519 5.35849 0
M  V30 1903 H 169.348 -2.61992 4.11353 0
M  V30 1904 H 168.353 -0.740598 5.44789 0
M  V30 1905 H 169.578 -0.988732 6.71864 0
M  V30 1906 H 167.524 -3.04156 5.81227 0
M  V30 1907 H 167.441 -2.09734 7.26325 0
M  V30 1908 H 168.709 -3.27155 7.07524 0
M  V30 1909 N 172.938 -1.57226 0.108567 0
M  V30 1910 C 174.187 -1.94008 -0.551703 0
M  V30 1911 C 174.5 -0.993442 -1.68494 0
M  V30 1912 O 175.706 -1.25551 -2.40726 0
M  V30 1913 C 174.162 -3.44763 -1.03279 0
M  V30 1914 C 173.77 -4.47943 0.0714193 0
M  V30 1915 C 175.514 -3.90483 -1.66503 0
M  V30 1916 C 173.421 -5.89865 -0.425779 0
M  V30 1917 H 172.351 -0.724206 -0.209863 0
M  V30 1918 H 175.002 -1.82547 0.186741 0
M  V30 1919 H 173.384 -3.51422 -1.82533 0
M  V30 1920 H 174.558 -4.52942 0.847365 0
M  V30 1921 H 172.873 -4.11913 0.609669 0
M  V30 1922 H 175.47 -4.93925 -2.04798 0
M  V30 1923 H 175.813 -3.29877 -2.53942 0
M  V30 1924 H 176.346 -3.86581 -0.938074 0
M  V30 1925 H 173.085 -6.54202 0.412316 0
M  V30 1926 H 172.605 -5.88309 -1.16843 0
M  V30 1927 H 174.284 -6.40844 -0.890397 0
M  V30 1928 N 174.416 0.165178 -1.56732 0
M  V30 1929 C 175.364 1.22369 -1.97809 0
M  V30 1930 C 176.358 1.45488 -0.867741 0
M  V30 1931 O 177.564 1.45995 -1.05288 0
M  V30 1932 H 173.939 0.411486 -0.629431 0
M  V30 1933 H 175.91 0.850425 -2.86025 0
M  V30 1934 C 174.659 2.55403 -2.35934 0
M  V30 1935 H 173.982 2.38438 -3.20916 0
M  V30 1936 H 175.422 3.2814 -2.68514 0
M  V30 1937 C 173.881 3.14611 -1.20506 0
M  V30 1938 O 174.411 3.98626 -0.496016 0
M  V30 1939 N 172.617 2.7379 -0.97403 0
M  V30 1940 H 172.164 2.0557 -1.55238 0
M  V30 1941 H 172.122 3.1374 -0.203573 0
M  V30 1942 N 175.894 1.51508 0.433938 0
M  V30 1943 C 177.124 1.67914 1.20369 0
M  V30 1944 C 177.532 0.377461 1.85397 0
M  V30 1945 O 176.875 -0.654255 1.71654 0
M  V30 1946 C 176.937 2.74045 2.32679 0
M  V30 1947 C 176.601 4.16543 1.87991 0
M  V30 1948 C 177.598 5.01211 1.38145 0
M  V30 1949 C 175.283 4.6266 1.95579 0
M  V30 1950 C 177.277 6.30056 0.964774 0
M  V30 1951 C 174.964 5.91501 1.53523 0
M  V30 1952 C 175.962 6.75027 1.04055 0
M  V30 1953 O 175.65 8.01459 0.625964 0
M  V30 1954 H 175.382 0.566578 0.368735 0
M  V30 1955 H 177.936 1.98709 0.51999 0
M  V30 1956 H 176.166 2.38572 3.04336 0
M  V30 1957 H 177.855 2.79295 2.94532 0
M  V30 1958 H 178.621 4.66783 1.31675 0
M  V30 1959 H 174.5 3.97767 2.33029 0
M  V30 1960 H 178.044 6.95202 0.57796 0
M  V30 1961 H 173.941 6.25442 1.59665 0
M  V30 1962 H 174.709 8.15043 0.751509 0
M  V30 1963 N 177.372 -0.689602 1.41712 0
M  V30 1964 C 178.62 -1.4468 1.4111 0
M  V30 1965 C 178.941 -1.94986 0.0232196 0
M  V30 1966 O 178.211 -1.72097 -0.935913 0
M  V30 1967 H 176.791 -0.536847 0.519427 0
M  V30 1968 H 179.453 -0.815825 1.77004 0
M  V30 1969 H 178.549 -2.30706 2.10193 0
M  V30 1970 N 178.85 -1.27639 -0.924453 0
M  V30 1971 C 180.098 -1.13941 -1.66918 0
M  V30 1972 C 180.419 0.314589 -1.92446 0
M  V30 1973 O 179.689 1.21964 -1.53303 0
M  V30 1974 H 178.269 -0.418678 -0.618642 0
M  V30 1975 H 180.931 -1.60213 -1.10985 0
M  V30 1976 H 180.027 -1.67094 -2.63602 0
M  V30 1977 N 180.328 1.1314 -1.09713 0
M  V30 1978 C 181.576 1.84119 -0.833338 0
M  V30 1979 C 181.897 1.84097 0.642904 0
M  V30 1980 O 181.167 1.29881 1.46655 0
M  V30 1981 H 179.747 0.681766 -0.305293 0
M  V30 1982 H 182.409 1.37038 -1.38588 0
M  V30 1983 H 181.505 2.88543 -1.18951 0
M  V30 1984 N 181.806 0.884767 1.30421 0
M  V30 1985 C 183.222 0.57874 1.48737 0
M  V30 1986 C 183.422 -0.883567 1.81095 0
M  V30 1987 O 182.478 -1.6648 1.89844 0
M  V30 1988 C 183.791 1.49171 2.61091 0
M  V30 1989 C 185.339 1.49532 2.74971 0
M  V30 1990 C 185.814 2.39421 3.90438 0
M  V30 1991 N 187.305 2.37383 3.97748 0
M  V30 1992 C 188.04 3.03647 4.86401 0
M  V30 1993 N 187.536 3.79136 5.79852 0
M  V30 1994 N 189.329 2.9288 4.79768 0
M  V30 1995 H 181.48 1.83075 1.0769 0
M  V30 1996 H 183.743 0.783637 0.533495 0
M  V30 1997 H 183.449 2.53291 2.44001 0
M  V30 1998 H 183.323 1.20113 3.57565 0
M  V30 1999 H 185.71 0.46163 2.91467 0
M  V30 2000 H 185.791 1.8262 1.79119 0
M  V30 2001 H 185.435 3.42874 3.74699 0
M  V30 2002 H 185.365 2.03649 4.85628 0
M  V30 2003 H 187.856 1.82525 3.30897 0
M  V30 2004 H 188.169 4.26789 6.4426 0
M  V30 2005 H 186.514 3.83243 5.79784 0
M  V30 2006 H 189.705 2.33433 4.05742 0
M  V30 2007 H 189.878 3.448 5.4865 0
M  V30 2008 N 183.284 -1.43765 0.645699 0
M  V30 2009 C 184.512 -2.06253 0.163556 0
M  V30 2010 C 184.927 -1.48352 -1.16778 0
M  V30 2011 O 184.284 -0.611932 -1.71935 0
M  V30 2012 C 184.335 -3.61453 0.0583186 0
M  V30 2013 O 184.056 -4.172 1.33702 0
M  V30 2014 C 185.557 -4.41002 -0.450795 0
M  V30 2015 H 182.777 -0.665413 0.0864077 0
M  V30 2016 H 185.321 -1.84396 0.884222 0
M  V30 2017 H 183.476 -3.82522 -0.612865 0
M  V30 2018 H 183.89 -5.10791 1.19131 0
M  V30 2019 H 185.364 -5.49966 -0.473403 0
M  V30 2020 H 185.841 -4.13488 -1.48068 0
M  V30 2021 H 186.447 -4.24886 0.187637 0
M  V30 2022 N 184.763 -0.387143 -1.52771 0
M  V30 2023 C 185.726 0.436939 -2.24997 0
M  V30 2024 C 186.726 0.991991 -1.26555 0
M  V30 2025 O 187.916 0.874335 -1.50669 0
M  V30 2026 C 185.048 1.61281 -3.00335 0
M  V30 2027 H 186.241 -0.195365 -2.99263 0
M  V30 2028 H 183.794 -0.139218 -1.55679 0
M  V30 2029 H 184.529 2.2826 -2.30364 0
M  V30 2030 H 184.314 1.22154 -3.72587 0
M  V30 2031 H 185.804 2.19629 -3.5518 0
M  V30 2032 N 186.241 1.57166 -0.116904 0
M  V30 2033 C 187.173 2.12271 0.864507 0
M  V30 2034 C 188.186 1.06494 1.23138 0
M  V30 2035 O 189.375 1.33873 1.18069 0
M  V30 2036 C 186.475 2.60564 2.16702 0
M  V30 2037 C 185.648 3.90416 1.97216 0
M  V30 2038 C 184.707 4.24329 3.11178 0
M  V30 2039 O 183.733 4.93182 2.84184 0
M  V30 2040 N 184.935 3.8148 4.37554 0
M  V30 2041 H 187.7 2.97102 0.393726 0
M  V30 2042 H 185.261 1.61759 0.0675805 0
M  V30 2043 H 187.253 2.80282 2.91932 0
M  V30 2044 H 185.823 1.80623 2.55135 0
M  V30 2045 H 185.043 3.79627 1.06192 0
M  V30 2046 H 186.331 4.75327 1.81499 0
M  V30 2047 H 185.729 3.25943 4.62361 0
M  V30 2048 H 184.286 4.06311 5.09661 0
M  V30 2049 N 187.719 -0.156864 1.56817 0
M  V30 2050 C 188.944 -0.890331 1.87318 0
M  V30 2051 C 189.369 -1.74394 0.704855 0
M  V30 2052 O 188.727 -1.77972 -0.345786 0
M  V30 2053 C 188.775 -1.73102 3.16336 0
M  V30 2054 O 187.879 -2.83422 2.99576 0
M  V30 2055 H 187.22 -0.24857 0.615718 0
M  V30 2056 H 189.75 -0.150649 2.04045 0
M  V30 2057 H 189.76 -2.12803 3.48107 0
M  V30 2058 H 188.435 -1.10412 4.00976 0
M  V30 2059 H 187.012 -2.47199 2.7919 0
M  V30 2060 N 189.197 -1.51736 -0.425897 0
M  V30 2061 C 190.446 -1.64201 -1.17136 0
M  V30 2062 C 190.759 -0.369705 -1.92074 0
M  V30 2063 O 191.965 -0.373898 -2.68913 0
M  V30 2064 C 190.421 -2.90035 -2.13091 0
M  V30 2065 C 190.029 -4.24312 -1.43747 0
M  V30 2066 C 191.773 -3.1186 -2.87999 0
M  V30 2067 C 189.68 -5.41285 -2.38253 0
M  V30 2068 H 188.61 -0.611624 -0.440944 0
M  V30 2069 H 191.261 -1.78212 -0.437328 0
M  V30 2070 H 189.643 -2.69684 -2.89977 0
M  V30 2071 H 190.817 -4.55086 -0.723408 0
M  V30 2072 H 189.132 -4.08456 -0.809465 0
M  V30 2073 H 191.729 -3.96427 -3.58817 0
M  V30 2074 H 192.072 -2.25403 -3.49999 0
M  V30 2075 H 192.605 -3.32605 -2.18217 0
M  V30 2076 H 189.344 -6.30037 -1.80925 0
M  V30 2077 H 188.864 -5.14872 -3.0768 0
M  V30 2078 H 190.543 -5.73694 -2.99139 0
M  V30 2079 N 190.675 0.682077 -1.42076 0
M  V30 2080 C 191.921 1.44428 -1.42367 0
M  V30 2081 C 192.254 1.94164 -0.0373056 0
M  V30 2082 O 191.529 1.70429 0.937239 0
M  V30 2083 C 191.812 2.64654 -2.44194 0
M  V30 2084 C 191.665 2.20596 -3.91991 0
M  V30 2085 C 192.984 3.66865 -2.431 0
M  V30 2086 H 190.103 0.523834 -0.518428 0
M  V30 2087 H 192.745 0.77576 -1.73442 0
M  V30 2088 H 190.895 3.2169 -2.17826 0
M  V30 2089 H 192.567 1.68783 -4.29313 0
M  V30 2090 H 190.81 1.52242 -4.06208 0
M  V30 2091 H 191.481 3.06921 -4.58807 0
M  V30 2092 H 193.957 3.19531 -2.66532 0
M  V30 2093 H 192.833 4.48577 -3.16339 0
M  V30 2094 H 193.094 4.17493 -1.45437 0
M  V30 2095 N 192.153 1.28127 0.917671 0
M  V30 2096 C 193.43 1.05761 1.64542 0
M  V30 2097 C 193.81 -0.404344 2.07191 0
M  V30 2098 O 193.158 -1.38963 1.81388 0
M  V30 2099 C 193.368 2.02857 2.83989 0
M  V30 2100 C 194.716 2.32786 3.551 0
M  V30 2101 O 195.74 2.0091 2.94132 0
M  V30 2102 O 194.599 2.87169 4.64969 0
M  V30 2103 H 191.693 0.403916 0.721652 0
M  V30 2104 H 194.239 1.39431 0.967322 0
M  V30 2105 H 193.011 3.01407 2.49538 0
M  V30 2106 H 192.634 1.69809 3.59514 0
M  V30 2107 N 193.631 -1.12557 1.10312 0
M  V30 2108 C 194.877 -1.84515 0.855901 0
M  V30 2109 C 195.232 -1.82409 -0.611936 0
M  V30 2110 O 194.525 -1.25778 -1.44535 0
M  V30 2111 C 194.719 -3.31462 1.33669 0
M  V30 2112 C 194.548 -3.47879 2.84974 0
M  V30 2113 C 193.318 -3.61589 3.52961 0
M  V30 2114 C 195.516 -3.43152 3.83081 0
M  V30 2115 N 193.498 -3.66359 4.926 0
M  V30 2116 C 194.869 -3.54401 5.08724 0
M  V30 2117 C 196.924 -3.2661 3.75807 0
M  V30 2118 C 195.627 -3.50815 6.2795 0
M  V30 2119 C 197.653 -3.24335 4.94531 0
M  V30 2120 C 197.015 -3.36144 6.19021 0
M  V30 2121 H 193.114 -0.690967 0.366182 0
M  V30 2122 H 195.698 -1.34763 1.40524 0
M  V30 2123 H 193.869 -3.7976 0.814686 0
M  V30 2124 H 195.601 -3.91272 1.03385 0
M  V30 2125 H 192.356 -3.63652 3.03404 0
M  V30 2126 H 192.78 -3.72411 5.65366 0
M  V30 2127 H 197.422 -3.16375 2.80476 0
M  V30 2128 H 195.14 -3.5982 7.23571 0
M  V30 2129 H 198.726 -3.12719 4.9061 0
M  V30 2130 H 197.606 -3.34357 7.09348 0
M  V30 2131 N 195.109 -0.891671 -1.2995 0
M  V30 2132 C 196.039 -0.379797 -2.30391 0
M  V30 2133 C 197.02 0.540919 -1.6127 0
M  V30 2134 O 198.205 0.453352 -1.88834 0
M  V30 2135 C 195.335 0.400654 -3.44981 0
M  V30 2136 C 194.289 -0.428905 -4.25846 0
M  V30 2137 C 193.615 0.478557 -5.32554 0
M  V30 2138 C 194.915 -1.67458 -4.94727 0
M  V30 2139 H 196.609 -1.21914 -2.73454 0
M  V30 2140 H 194.155 -0.587675 -1.31462 0
M  V30 2141 H 196.108 0.769434 -4.14316 0
M  V30 2142 H 194.832 1.27371 -3.0074 0
M  V30 2143 H 193.491 -0.779911 -3.58208 0
M  V30 2144 H 193.139 1.34951 -4.84559 0
M  V30 2145 H 192.839 -0.0727433 -5.87555 0
M  V30 2146 H 194.363 0.843705 -6.04743 0
M  V30 2147 H 195.777 -1.376 -5.56542 0
M  V30 2148 H 194.174 -2.16659 -5.59624 0
M  V30 2149 H 195.244 -2.41518 -4.20473 0
M  V30 2150 N 196.587 1.43421 -0.653314 0
M  V30 2151 C 197.517 2.33487 0.0246656 0
M  V30 2152 C 198.498 1.49475 0.811863 0
M  V30 2153 O 199.683 1.78139 0.773322 0
M  V30 2154 C 196.813 3.32841 0.99166 0
M  V30 2155 C 195.767 4.26842 0.314568 0
M  V30 2156 C 195.093 5.16236 1.39302 0
M  V30 2157 C 196.393 5.16243 -0.793095 0
M  V30 2158 H 198.087 2.90427 -0.727481 0
M  V30 2159 H 195.633 1.39649 -0.351287 0
M  V30 2160 H 197.586 3.94747 1.47487 0
M  V30 2161 H 196.31 2.74158 1.77497 0
M  V30 2162 H 194.969 3.663 -0.148199 0
M  V30 2163 H 194.617 4.53891 2.16776 0
M  V30 2164 H 194.317 5.79948 0.945223 0
M  V30 2165 H 195.841 5.81015 1.87759 0
M  V30 2166 H 197.255 5.71958 -0.392039 0
M  V30 2167 H 195.652 5.88676 -1.16536 0
M  V30 2168 H 196.722 4.55927 -1.65103 0
M  V30 2169 N 198.065 0.39524 1.52563 0
M  V30 2170 C 198.997 -0.472201 2.24283 0
M  V30 2171 C 200.01 -1.02178 1.26742 0
M  V30 2172 O 201.199 -0.923097 1.52778 0
M  V30 2173 C 198.299 -1.66775 2.95024 0
M  V30 2174 C 197.472 -1.2445 4.19322 0
M  V30 2175 C 196.531 -2.30539 4.7301 0
M  V30 2176 O 195.557 -1.91702 5.35947 0
M  V30 2177 N 196.759 -3.6253 4.53379 0
M  V30 2178 H 199.524 0.142282 2.99362 0
M  V30 2179 H 197.085 0.2219 1.60372 0
M  V30 2180 H 199.077 -2.37283 3.27839 0
M  V30 2181 H 197.647 -2.18845 2.23217 0
M  V30 2182 H 196.867 -0.368069 3.92478 0
M  V30 2183 H 198.155 -0.938457 5.0007 0
M  V30 2184 H 197.553 -3.96841 4.03154 0
M  V30 2185 H 196.11 -4.29055 4.90668 0
M  V30 2186 N 199.544 -1.57102 0.125237 0
M  V30 2187 C 200.477 -2.11371 -0.860094 0
M  V30 2188 C 201.455 -1.03168 -1.25679 0
M  V30 2189 O 202.639 -1.30862 -1.35674 0
M  V30 2190 C 199.766 -2.61555 -2.1519 0
M  V30 2191 C 198.812 -3.81701 -1.9028 0
M  V30 2192 S 199.645 -5.23797 -1.11343 0
M  V30 2193 C 200.801 -5.77353 -2.41689 0
M  V30 2194 H 201.034 -2.94617 -0.39852 0
M  V30 2195 H 198.567 -1.54145 -0.0886555 0
M  V30 2196 H 200.525 -2.91122 -2.89411 0
M  V30 2197 H 199.186 -1.78479 -2.58465 0
M  V30 2198 H 198.379 -4.14985 -2.86014 0
M  V30 2199 H 197.981 -3.52783 -1.24178 0
M  V30 2200 H 200.273 -5.87458 -3.37489 0
M  V30 2201 H 201.216 -6.75323 -2.12942 0
M  V30 2202 H 201.624 -5.05457 -2.51342 0
M  V30 2203 N 201.022 0.148545 -1.56898 0
M  V30 2204 C 202.25 0.876389 -1.87422 0
M  V30 2205 C 202.665 1.74809 -0.713256 0
M  V30 2206 O 202.022 1.79725 0.317025 0
M  V30 2207 C 202.073 1.73438 -3.17178 0
M  V30 2208 O 201.794 0.897809 -4.28802 0
M  V30 2209 C 203.295 2.56993 -3.61205 0
M  V30 2210 H 200.515 0.253489 -0.621277 0
M  V30 2211 H 203.059 0.141798 -2.04008 0
M  V30 2212 H 201.214 2.42205 -3.0235 0
M  V30 2213 H 201.628 1.48672 -5.02988 0
M  V30 2214 H 203.102 3.12773 -4.54838 0
M  V30 2215 H 203.579 3.32958 -2.86419 0
M  V30 2216 H 204.185 1.9352 -3.78722 0
M  V30 2217 N 202.5 1.5196 0.417844 0
M  V30 2218 C 203.748 1.65263 1.16329 0
M  V30 2219 C 204.069 0.380634 1.91249 0
M  V30 2220 O 203.339 -0.604214 1.86349 0
M  V30 2221 H 201.919 0.60912 0.432414 0
M  V30 2222 H 204.581 1.88969 0.477162 0
M  V30 2223 H 203.677 2.4896 1.88217 0
M  V30 2224 N 203.978 -0.674533 1.42435 0
M  V30 2225 C 205.389 -1.25514 1.38214 0
M  V30 2226 C 205.74 -1.96055 0.0755464 0
M  V30 2227 O 204.865 -2.00028 -0.8257 0
M  V30 2228 C 205.46 -2.28269 2.50357 0
M  V30 2229 C 204.019 -2.81856 2.49467 0
M  V30 2230 C 203.166 -1.56182 2.29134 0
M  V30 2231 H 206.117 -0.467902 1.51646 0
M  V30 2232 H 206.138 -3.10009 2.20624 0
M  V30 2233 H 205.65 -1.769 3.45439 0
M  V30 2234 H 203.751 -3.37346 1.58204 0
M  V30 2235 H 203.864 -3.30854 3.46515 0
M  V30 2236 H 202.228 -1.82761 1.774 0
M  V30 2237 H 203.011 -1.06778 3.26272 0
M  V30 2238 N 205.456 -1.28612 -0.910864 0
M  V30 2239 C 206.702 -1.16106 -1.66274 0
M  V30 2240 C 207.035 0.289113 -1.92036 0
M  V30 2241 O 206.31 1.21 -1.52281 0
M  V30 2242 C 206.593 -1.96309 -3.01885 0
M  V30 2243 C 206.446 -3.49405 -2.8326 0
M  V30 2244 C 207.765 -1.78076 -4.02463 0
M  V30 2245 H 204.884 -0.423152 -0.603417 0
M  V30 2246 H 207.526 -1.57961 -1.05586 0
M  V30 2247 H 205.676 -1.60742 -3.53687 0
M  V30 2248 H 207.348 -3.94894 -2.38446 0
M  V30 2249 H 205.591 -3.74893 -2.18261 0
M  V30 2250 H 206.262 -4.00784 -3.79574 0
M  V30 2251 H 208.738 -2.0912 -3.59733 0
M  V30 2252 H 207.614 -2.36561 -4.95308 0
M  V30 2253 H 207.875 -0.733008 -4.35981 0
M  V30 2254 N 206.934 1.1197 -1.10907 0
M  V30 2255 C 208.181 1.83588 -0.854507 0
M  V30 2256 C 208.509 1.84357 0.6199 0
M  V30 2257 O 207.764 1.28809 1.47332 0
M  V30 2258 C 208.063 3.30749 -1.35425 0
M  V30 2259 C 207.729 3.50146 -2.84093 0
M  V30 2260 C 206.391 3.55148 -3.2469 0
M  V30 2261 C 208.743 3.56857 -3.79872 0
M  V30 2262 C 206.071 3.6441 -4.59806 0
M  V30 2263 C 208.423 3.6765 -5.14797 0
M  V30 2264 C 207.087 3.7091 -5.54961 0
M  V30 2265 H 206.357 0.671795 -0.312686 0
M  V30 2266 H 209.004 1.32091 -1.38652 0
M  V30 2267 H 207.309 3.84703 -0.742361 0
M  V30 2268 H 209.006 3.8464 -1.1337 0
M  V30 2269 H 205.596 3.46919 -2.51685 0
M  V30 2270 H 209.78 3.52258 -3.49611 0
M  V30 2271 H 205.036 3.65208 -4.9034 0
M  V30 2272 H 209.21 3.71786 -5.88853 0
M  V30 2273 H 206.837 3.7784 -6.59652 0
M  V30 2274 N 208.412 0.89855 1.29475 0
M  V30 2275 C 209.637 0.538561 2.00285 0
M  V30 2276 C 210.062 -0.869135 1.66816 0
M  V30 2277 O 209.42 -1.57831 0.892145 0
M  V30 2278 C 209.468 0.736475 3.52999 0
M  V30 2279 O 208.572 -0.211537 4.11857 0
M  V30 2280 H 207.913 0.210563 0.62973 0
M  V30 2281 H 210.443 1.20982 1.64998 0
M  V30 2282 H 210.453 0.640685 4.02938 0
M  V30 2283 H 209.128 1.76276 3.76696 0
M  V30 2284 H 207.705 -0.0682991 3.72837 0
M  V30 2285 N 209.89 -1.43072 0.660911 0
M  V30 2286 C 210.84 -2.27948 -0.04847 0
M  V30 2287 C 211.824 -1.40325 -0.787246 0
M  V30 2288 O 213.016 -1.63893 -0.668446 0
M  V30 2289 C 210.145 -3.28143 -1.00881 0
M  V30 2290 C 209.231 -4.23252 -0.268108 0
M  V30 2291 N 209.622 -5.00656 0.719528 0
M  V30 2292 C 207.92 -4.43092 -0.508493 0
M  V30 2293 C 208.621 -5.70019 1.15988 0
M  V30 2294 N 207.597 -5.41364 0.492584 0
M  V30 2295 H 211.399 -2.85213 0.709279 0
M  V30 2296 H 208.913 -1.54869 0.488822 0
M  V30 2297 H 210.91 -3.87736 -1.53188 0
M  V30 2298 H 209.57 -2.7244 -1.76654 0
M  V30 2299 H 210.581 -5.06115 1.09855 0
M  V30 2300 H 207.258 -3.98449 -1.24679 0
M  V30 2301 H 208.648 -6.4214 1.97751 0
M  V30 2302 N 211.368 -0.403325 -1.52352 0
M  V30 2303 C 212.614 0.174605 -2.02047 0
M  V30 2304 C 212.947 1.45282 -1.28867 0
M  V30 2305 O 212.222 1.90483 -0.393257 0
M  V30 2306 C 212.505 0.428238 -3.57545 0
M  V30 2307 C 212.358 -0.866248 -4.4138 0
M  V30 2308 C 213.677 1.21287 -4.23057 0
M  V30 2309 H 210.796 0.0619851 -0.734389 0
M  V30 2310 H 213.438 -0.53565 -1.82293 0
M  V30 2311 H 211.588 1.03327 -3.74507 0
M  V30 2312 H 213.26 -1.50265 -4.3614 0
M  V30 2313 H 211.503 -1.47851 -4.07827 0
M  V30 2314 H 212.174 -0.643249 -5.48239 0
M  V30 2315 H 214.65 0.700703 -4.10158 0
M  V30 2316 H 213.526 1.35909 -5.31808 0
M  V30 2317 H 213.787 2.23193 -3.81625 0
M  V30 2318 N 212.846 1.57033 -0.133567 0
M  V30 2319 C 213.756 2.19632 0.824564 0
M  V30 2320 C 214.772 1.17666 1.28182 0
M  V30 2321 O 215.948 1.50193 1.3418 0
M  V30 2322 C 213.013 2.79499 2.05137 0
M  V30 2323 C 212.074 3.96548 1.64464 0
M  V30 2324 C 211.307 4.5355 2.81297 0
M  V30 2325 O 211.53 4.09438 3.97136 0
M  V30 2326 O 210.464 5.44018 2.57542 0
M  V30 2327 H 214.29 3.01991 0.321766 0
M  V30 2328 H 211.875 1.49112 0.0927889 0
M  V30 2329 H 213.757 3.17602 2.7696 0
M  V30 2330 H 212.432 2.00162 2.54395 0
M  V30 2331 H 211.339 3.63186 0.897048 0
M  V30 2332 H 212.672 4.77364 1.19934 0
M  V30 2333 N 214.325 -0.140222 1.56975 0
M  V30 2334 C 215.573 -0.850005 1.83356 0
M  V30 2335 C 215.894 -1.81399 0.71551 0
M  V30 2336 O 215.164 -1.94136 -0.262294 0
M  V30 2337 H 213.744 -0.316886 0.676456 0
M  V30 2338 H 216.406 -0.132608 1.94448 0
M  V30 2339 H 215.502 -1.40814 2.78528 0
M  V30 2340 N 215.803 -1.52179 -0.40978 0
M  V30 2341 C 216.751 -1.76086 -1.51975 0
M  V30 2342 C 217.745 -0.627964 -1.57331 0
M  V30 2343 O 218.951 -0.809993 -1.60745 0
M  V30 2344 H 215.326 -0.556829 -0.505416 0
M  V30 2345 H 217.297 -2.69077 -1.28996 0
M  V30 2346 C 216.046 -1.92799 -2.8935 0
M  V30 2347 H 215.369 -2.79392 -2.85972 0
M  V30 2348 H 216.809 -2.13527 -3.66309 0
M  V30 2349 C 215.268 -0.694923 -3.29655 0
M  V30 2350 O 215.798 0.13751 -4.01465 0
M  V30 2351 N 214.004 -0.53101 -2.85707 0
M  V30 2352 H 213.551 -1.20952 -2.27439 0
M  V30 2353 H 213.509 0.292718 -3.13034 0
M  V30 2354 N 217.281 0.66697 -1.42791 0
M  V30 2355 C 218.53 1.42278 -1.42968 0
M  V30 2356 C 218.843 1.9553 -0.0524489 0
M  V30 2357 O 220.049 2.71414 0.068363 0
M  V30 2358 C 218.505 2.57418 -2.51524 0
M  V30 2359 C 218.113 2.10832 -3.9529 0
M  V30 2360 C 219.857 3.34878 -2.60877 0
M  V30 2361 C 217.764 3.23101 -4.95338 0
M  V30 2362 H 216.694 0.534533 -0.531781 0
M  V30 2363 H 219.345 0.721302 -1.68729 0
M  V30 2364 H 217.727 3.29971 -2.18941 0
M  V30 2365 H 218.901 1.4538 -4.37266 0
M  V30 2366 H 217.216 1.46289 -3.89857 0
M  V30 2367 H 219.813 4.18505 -3.32802 0
M  V30 2368 H 220.156 3.81993 -1.6549 0
M  V30 2369 H 220.689 2.69398 -2.92693 0
M  V30 2370 H 217.428 2.80969 -5.9223 0
M  V30 2371 H 216.948 3.87309 -4.57987 0
M  V30 2372 H 218.627 3.88447 -5.17415 0
M  V30 2373 N 218.759 1.29093 0.90403 0
M  V30 2374 C 219.669 1.15727 2.0407 0
M  V30 2375 C 220.685 0.0815308 1.73809 0
M  V30 2376 O 221.861 0.292749 1.99261 0
M  V30 2377 C 218.926 0.830424 3.36608 0
M  V30 2378 C 217.987 1.98955 3.80415 0
M  V30 2379 C 217.22 1.6782 5.06628 0
M  V30 2380 O 217.443 0.597105 5.67266 0
M  V30 2381 O 216.377 2.52486 5.46383 0
M  V30 2382 H 220.203 2.11171 2.18267 0
M  V30 2383 H 217.788 1.08504 1.027 0
M  V30 2384 H 219.67 0.662521 4.16159 0
M  V30 2385 H 218.345 -0.0942678 3.23563 0
M  V30 2386 H 217.252 2.21267 3.01648 0
M  V30 2387 H 218.585 2.89529 3.98037 0
M  V30 2388 N 220.237 -1.11381 1.11499 0
M  V30 2389 C 221.514 -1.7955 0.775965 0
M  V30 2390 C 221.894 -1.97859 -0.73588 0
M  V30 2391 O 221.242 -1.56376 -1.66609 0
M  V30 2392 C 221.452 -3.13196 1.53977 0
M  V30 2393 C 222.8 -3.88227 1.71944 0
M  V30 2394 O 223.824 -3.22887 1.50407 0
M  V30 2395 O 222.683 -5.05477 2.07738 0
M  V30 2396 H 219.777 -0.777728 0.28119 0
M  V30 2397 H 222.323 -1.18118 1.21845 0
M  V30 2398 H 221.095 -2.95229 2.56818 0
M  V30 2399 H 220.718 -3.82342 1.09088 0
M  V30 2400 N 221.715 -0.905404 -1.28997 0
M  V30 2401 C 222.961 -0.535039 -1.95615 0
M  V30 2402 C 223.294 0.917404 -1.71165 0
M  V30 2403 O 222.569 1.65123 -1.02785 0
M  V30 2404 C 222.852 -0.834918 -3.50287 0
M  V30 2405 C 222.705 -2.33948 -3.84172 0
M  V30 2406 C 224.024 -0.325318 -4.38896 0
M  V30 2407 H 221.143 -0.195861 -0.710498 0
M  V30 2408 H 223.785 -1.13313 -1.52513 0
M  V30 2409 H 221.935 -0.325904 -3.87131 0
M  V30 2410 H 223.607 -2.91847 -3.57243 0
M  V30 2411 H 221.85 -2.79789 -3.31513 0
M  V30 2412 H 222.521 -2.49987 -4.92149 0
M  V30 2413 H 224.997 -0.761256 -4.09077 0
M  V30 2414 H 223.873 -0.564295 -5.45992 0
M  V30 2415 H 224.134 0.774144 -4.35269 0
M  V30 2416 N 223.193 1.4272 -0.668489 0
M  V30 2417 C 224.123 2.335 -0.000100175 0
M  V30 2418 C 225.104 1.50328 0.795964 0
M  V30 2419 O 226.289 1.78949 0.754385 0
M  V30 2420 C 223.419 3.33874 0.956302 0
M  V30 2421 C 222.373 4.27152 0.269278 0
M  V30 2422 C 221.699 5.17684 1.33818 0
M  V30 2423 C 222.999 5.15373 -0.847805 0
M  V30 2424 H 224.693 2.89639 -0.758244 0
M  V30 2425 H 222.239 1.39269 -0.366079 0
M  V30 2426 H 224.192 3.9629 1.43292 0
M  V30 2427 H 222.916 2.76025 1.74579 0
M  V30 2428 H 221.575 3.66123 -0.187042 0
M  V30 2429 H 221.223 4.56165 2.1195 0
M  V30 2430 H 220.923 5.80918 0.883659 0
M  V30 2431 H 222.447 5.82974 1.81586 0
M  V30 2432 H 223.861 5.7151 -0.452681 0
M  V30 2433 H 222.258 5.87407 -1.22773 0
M  V30 2434 H 223.328 4.5415 -1.69929 0
M  V30 2435 N 224.671 0.411399 1.52136 0
M  V30 2436 C 225.618 -0.412975 2.27075 0
M  V30 2437 C 226.588 -1.03912 1.29582 0
M  V30 2438 O 227.773 -1.06296 1.58448 0
M  V30 2439 C 224.913 -1.52247 3.09701 0
M  V30 2440 C 224.026 -0.917021 4.22155 0
M  V30 2441 C 223.161 -1.9994 4.92135 0
M  V30 2442 C 222.2 -1.37101 5.96548 0
M  V30 2443 N 221.337 -2.39364 6.60038 0
M  V30 2444 H 226.177 0.232499 2.97092 0
M  V30 2445 H 223.714 0.126496 1.46555 0
M  V30 2446 H 225.672 -2.17674 3.55913 0
M  V30 2447 H 224.302 -2.13794 2.41851 0
M  V30 2448 H 223.354 -0.151742 3.80097 0
M  V30 2449 H 224.666 -0.418006 4.97045 0
M  V30 2450 H 223.82 -2.73088 5.41763 0
M  V30 2451 H 222.559 -2.53208 4.16818 0
M  V30 2452 H 221.564 -0.624873 5.46237 0
M  V30 2453 H 222.789 -0.845998 6.7381 0
M  V30 2454 H 220.735 -2.91759 5.87548 0
M  V30 2455 H 220.652 -1.9428 7.3061 0
M  V30 2456 H 221.92 -3.12074 7.14304 0
M  V30 2457 N 226.149 -1.5696 0.141893 0
M  V30 2458 C 227.059 -2.20066 -0.812905 0
M  V30 2459 C 228.075 -1.18344 -1.27557 0
M  V30 2460 O 229.251 -1.50902 -1.33381 0
M  V30 2461 C 226.316 -2.80583 -2.03652 0
M  V30 2462 C 225.377 -3.97414 -1.62359 0
M  V30 2463 C 224.61 -4.55036 -2.78887 0
M  V30 2464 O 224.833 -4.11538 -3.94959 0
M  V30 2465 O 223.767 -5.45376 -2.54653 0
M  V30 2466 H 227.593 -3.02157 -0.305746 0
M  V30 2467 H 225.178 -1.49159 -0.0848799 0
M  V30 2468 H 227.06 -3.19067 -2.75272 0
M  V30 2469 H 225.735 -2.01508 -2.5333 0
M  V30 2470 H 224.642 -3.63656 -0.877775 0
M  V30 2471 H 225.975 -4.77994 -1.17401 0
M  V30 2472 N 227.627 0.131896 -1.57047 0
M  V30 2473 C 228.574 1.16236 -1.99393 0
M  V30 2474 C 229.544 1.41863 -0.863943 0
M  V30 2475 O 230.729 1.53946 -1.12718 0
M  V30 2476 C 227.869 2.48708 -2.39245 0
M  V30 2477 C 226.982 2.30127 -3.65603 0
M  V30 2478 C 226.117 3.55738 -3.94492 0
M  V30 2479 C 225.156 3.32259 -5.14073 0
M  V30 2480 N 224.293 4.50039 -5.38896 0
M  V30 2481 H 229.133 0.794251 -2.87221 0
M  V30 2482 H 226.67 0.380707 -1.42088 0
M  V30 2483 H 228.628 3.25969 -2.60384 0
M  V30 2484 H 227.258 2.83437 -1.54478 0
M  V30 2485 H 226.31 1.43845 -3.52154 0
M  V30 2486 H 227.622 2.08746 -4.5302 0
M  V30 2487 H 226.776 4.41423 -4.1621 0
M  V30 2488 H 225.515 3.80138 -3.05526 0
M  V30 2489 H 224.52 2.44963 -4.92212 0
M  V30 2490 H 225.745 3.09242 -6.04604 0
M  V30 2491 H 223.691 4.74584 -4.52886 0
M  V30 2492 H 223.608 4.31716 -6.2061 0
M  V30 2493 H 224.876 5.36895 -5.65123 0
M  V30 2494 N 229.106 1.52395 0.401703 0
M  V30 2495 C 230.053 1.76268 1.48991 0
M  V30 2496 C 231.023 0.605386 1.54675 0
M  V30 2497 O 232.208 0.843742 1.7113 0
M  V30 2498 C 229.348 1.92592 2.86361 0
M  V30 2499 C 228.461 3.20259 2.89928 0
M  V30 2500 C 227.596 3.26972 4.18644 0
M  V30 2501 C 226.635 4.48812 4.16214 0
M  V30 2502 N 225.772 4.52877 5.36514 0
M  V30 2503 H 230.612 2.6914 1.27935 0
M  V30 2504 H 228.149 1.33355 0.620871 0
M  V30 2505 H 230.107 2.0004 3.66115 0
M  V30 2506 H 228.737 1.03093 3.05895 0
M  V30 2507 H 227.789 3.21945 2.02621 0
M  V30 2508 H 229.101 4.10056 2.83999 0
M  V30 2509 H 228.255 3.33533 5.06794 0
M  V30 2510 H 226.994 2.35126 4.27278 0
M  V30 2511 H 225.999 4.4239 3.26453 0
M  V30 2512 H 227.224 5.41961 4.09213 0
M  V30 2513 H 225.17 3.63917 5.45802 0
M  V30 2514 H 225.087 5.36529 5.32609 0
M  V30 2515 H 226.355 4.63676 6.26597 0
M  V30 2516 N 230.584 -0.659388 1.43143 0
M  V30 2517 C 231.833 -1.41518 1.43721 0
M  V30 2518 C 232.146 -1.95499 0.0628176 0
M  V30 2519 O 233.352 -2.71446 -0.0539683 0
M  V30 2520 C 231.808 -2.5608 2.52885 0
M  V30 2521 C 231.416 -2.08733 3.96402 0
M  V30 2522 C 233.16 -3.3349 2.62649 0
M  V30 2523 C 231.067 -3.20469 4.97045 0
M  V30 2524 H 229.997 -0.531705 0.534608 0
M  V30 2525 H 232.648 -0.712343 1.69109 0
M  V30 2526 H 231.03 -3.28805 2.20688 0
M  V30 2527 H 232.204 -1.43059 4.3803 0
M  V30 2528 H 230.519 -1.44219 3.90627 0
M  V30 2529 H 233.116 -4.16734 3.35017 0
M  V30 2530 H 233.459 -3.8111 1.67513 0
M  V30 2531 H 233.992 -2.67842 2.94118 0
M  V30 2532 H 230.731 -2.77824 5.93712 0
M  V30 2533 H 230.251 -3.84874 4.60034 0
M  V30 2534 H 231.93 -3.85698 5.19467 0
M  V30 2535 N 232.062 -1.29571 -0.897171 0
M  V30 2536 C 233.01 -1.14802 -2.02295 0
M  V30 2537 C 234.004 -0.0629637 -1.69283 0
M  V30 2538 O 235.21 -0.222945 -1.78614 0
M  V30 2539 H 231.585 -0.354692 -0.663097 0
M  V30 2540 H 233.556 -2.10108 -2.11889 0
M  V30 2541 C 232.305 -0.843966 -3.37302 0
M  V30 2542 H 231.628 -1.67093 -3.63208 0
M  V30 2543 H 233.068 -0.780672 -4.16751 0
M  V30 2544 C 231.527 0.452843 -3.33843 0
M  V30 2545 O 232.057 1.47813 -3.73516 0
M  V30 2546 N 230.263 0.459601 -2.86943 0
M  V30 2547 H 229.81 -0.375213 -2.54853 0
M  V30 2548 H 229.768 1.32726 -2.85011 0
M  V30 2549 N 233.54 1.10788 -1.12088 0
M  V30 2550 C 234.786 1.82942 -0.875226 0
M  V30 2551 C 235.119 1.84779 0.597538 0
M  V30 2552 O 234.394 1.30578 1.44152 0
M  V30 2553 C 234.677 3.29789 -1.44606 0
M  V30 2554 C 234.53 3.36307 -2.98693 0
M  V30 2555 C 235.849 4.26064 -1.10261 0
M  V30 2556 H 232.968 0.664195 -0.319397 0
M  V30 2557 H 235.61 1.29867 -1.38689 0
M  V30 2558 H 233.76 3.75118 -1.01089 0
M  V30 2559 H 235.432 2.99487 -3.50864 0
M  V30 2560 H 233.675 2.76318 -3.34411 0
M  V30 2561 H 234.346 4.39694 -3.33726 0
M  V30 2562 H 236.822 3.88951 -1.4784 0
M  V30 2563 H 235.698 5.27183 -1.52869 0
M  V30 2564 H 235.959 4.42098 -0.0142953 0
M  V30 2565 N 235.018 0.912232 1.28515 0
M  V30 2566 C 235.981 0.404223 2.25607 0
M  V30 2567 C 236.981 -0.468602 1.53821 0
M  V30 2568 O 238.171 -0.271873 1.72065 0
M  V30 2569 C 235.303 -0.420653 3.38295 0
M  V30 2570 H 236.496 1.26188 2.7206 0
M  V30 2571 H 234.049 0.691495 1.40171 0
M  V30 2572 H 234.784 -1.29777 2.97201 0
M  V30 2573 H 234.569 0.204935 3.91564 0
M  V30 2574 H 236.059 -0.766971 4.10496 0
M  V30 2575 N 236.496 -1.42363 0.676048 0
M  V30 2576 C 237.743 -2.01522 0.19883 0
M  V30 2577 C 238.071 -1.53456 -1.19505 0
M  V30 2578 O 237.326 -0.727967 -1.81657 0
M  V30 2579 C 237.625 -3.56929 0.183431 0
M  V30 2580 C 237.291 -4.24431 1.52215 0
M  V30 2581 C 235.953 -4.42585 1.8887 0
M  V30 2582 C 238.305 -4.62459 2.40377 0
M  V30 2583 C 235.633 -4.96039 3.13309 0
M  V30 2584 C 237.985 -5.17294 3.64129 0
M  V30 2585 C 236.649 -5.33661 4.00951 0
M  V30 2586 H 235.919 -0.737419 0.0727571 0
M  V30 2587 H 238.566 -1.70531 0.871281 0
M  V30 2588 H 236.871 -3.87594 -0.572532 0
M  V30 2589 H 238.568 -4.00486 -0.203035 0
M  V30 2590 H 235.158 -4.10661 1.22701 0
M  V30 2591 H 239.342 -4.48105 2.13343 0
M  V30 2592 H 234.598 -5.06896 3.41857 0
M  V30 2593 H 238.772 -5.45704 4.32644 0
M  V30 2594 H 236.399 -5.74845 4.9745 0
M  V30 2595 N 237.974 -0.419461 -1.51915 0
M  V30 2596 C 239.204 0.151915 -2.06041 0
M  V30 2597 C 239.612 1.38539 -1.28855 0
M  V30 2598 O 238.955 1.80592 -0.336463 0
M  V30 2599 C 239.017 0.557119 -3.55157 0
M  V30 2600 C 238.681 -0.567054 -4.53468 0
M  V30 2601 C 239.678 -1.43379 -4.99738 0
M  V30 2602 C 237.363 -0.742693 -4.96779 0
M  V30 2603 C 239.357 -2.46102 -5.87973 0
M  V30 2604 C 237.044 -1.77322 -5.84808 0
M  V30 2605 C 238.042 -2.63078 -6.30301 0
M  V30 2606 O 237.73 -3.64364 -7.16585 0
M  V30 2607 H 237.462 0.0193293 -0.675724 0
M  V30 2608 H 240.016 -0.592073 -1.96682 0
M  V30 2609 H 238.246 1.35355 -3.62238 0
M  V30 2610 H 239.935 1.05759 -3.9188 0
M  V30 2611 H 240.701 -1.30954 -4.66986 0
M  V30 2612 H 236.58 -0.0848307 -4.60922 0
M  V30 2613 H 240.124 -3.13071 -6.23404 0
M  V30 2614 H 236.021 -1.89773 -6.16974 0
M  V30 2615 H 236.789 -3.60731 -7.34721 0
M  V30 2616 N 239.452 1.56882 -0.150215 0
M  V30 2617 C 240.382 2.19935 0.784284 0
M  V30 2618 C 241.363 1.14854 1.25469 0
M  V30 2619 O 242.548 1.43209 1.31168 0
M  V30 2620 C 239.678 2.82349 2.02229 0
M  V30 2621 C 238.632 3.93285 1.68853 0
M  V30 2622 C 237.958 4.42649 2.99944 0
M  V30 2623 C 239.258 5.13904 0.932714 0
M  V30 2624 H 240.952 2.9828 0.258781 0
M  V30 2625 H 238.498 1.43473 0.123029 0
M  V30 2626 H 240.451 3.25126 2.68088 0
M  V30 2627 H 239.175 2.0134 2.57157 0
M  V30 2628 H 237.834 3.5113 1.05371 0
M  V30 2629 H 237.482 3.58458 3.52869 0
M  V30 2630 H 237.182 5.17476 2.78374 0
M  V30 2631 H 238.706 4.88099 3.66868 0
M  V30 2632 H 240.12 5.53506 1.49345 0
M  V30 2633 H 238.517 5.94515 0.81684 0
M  V30 2634 H 239.587 4.84842 -0.0749568 0
M  V30 2635 N 240.93 -0.123565 1.57115 0
M  V30 2636 C 241.84 -1.17074 2.033 0
M  V30 2637 C 242.856 -1.4561 0.952559 0
M  V30 2638 O 244.032 -1.56817 1.26374 0
M  V30 2639 C 241.097 -2.47857 2.42421 0
M  V30 2640 C 240.158 -2.26758 3.64526 0
M  V30 2641 C 239.391 -3.51305 4.01771 0
M  V30 2642 O 239.614 -4.5843 3.39409 0
M  V30 2643 O 238.548 -3.42578 4.94898 0
M  V30 2644 H 242.374 -0.808555 2.92739 0
M  V30 2645 H 239.959 -0.334027 1.45618 0
M  V30 2646 H 241.841 -3.2492 2.68338 0
M  V30 2647 H 240.516 -2.83558 1.5613 0
M  V30 2648 H 239.423 -1.47569 3.43765 0
M  V30 2649 H 240.756 -1.95963 4.51508 0
M  V30 2650 N 242.408 -1.52605 -0.393616 0
M  V30 2651 C 243.638 -1.71046 -1.15874 0
M  V30 2652 C 244.046 -0.426483 -1.84331 0
M  V30 2653 O 243.389 0.608513 -1.73329 0
M  V30 2654 C 243.451 -2.80118 -2.25332 0
M  V30 2655 C 243.115 -4.21381 -1.76881 0
M  V30 2656 C 244.112 -5.04697 -1.24808 0
M  V30 2657 C 241.797 -4.67683 -1.83244 0
M  V30 2658 C 243.791 -6.32393 -0.797387 0
M  V30 2659 C 241.478 -5.95364 -1.37787 0
M  V30 2660 C 242.476 -6.77549 -0.861208 0
M  V30 2661 O 242.164 -8.02837 -0.413252 0
M  V30 2662 H 241.896 -0.576155 -0.353583 0
M  V30 2663 H 244.45 -2.00018 -0.467123 0
M  V30 2664 H 242.68 -2.46557 -2.97904 0
M  V30 2665 H 244.369 -2.87006 -2.87023 0
M  V30 2666 H 245.135 -4.70111 -1.19252 0
M  V30 2667 H 241.014 -4.03805 -2.22401 0
M  V30 2668 H 244.558 -6.9649 -0.393437 0
M  V30 2669 H 240.455 -6.29455 -1.43026 0
M  V30 2670 H 241.223 -8.16749 -0.53515 0
M  V30 2671 N 243.887 0.651787 -1.4349 0
M  V30 2672 C 245.115 1.43937 -1.48626 0
M  V30 2673 C 245.53 1.8851 -0.104587 0
M  V30 2674 O 244.887 1.5958 0.885464 0
M  V30 2675 C 244.938 2.6734 -2.43334 0
M  V30 2676 O 244.659 2.24631 -3.76128 0
M  V30 2677 C 246.16 3.60683 -2.57726 0
M  V30 2678 H 243.38 0.44213 -0.504739 0
M  V30 2679 H 245.924 0.798944 -1.88248 0
M  V30 2680 H 244.079 3.2752 -2.06904 0
M  V30 2681 H 244.493 3.04485 -4.2707 0
M  V30 2682 H 245.967 4.43933 -3.28067 0
M  V30 2683 H 246.444 4.08126 -1.62265 0
M  V30 2684 H 247.05 3.06384 -2.94973 0
M  V30 2685 N 245.365 1.30045 0.890287 0
M  V30 2686 C 246.59 1.21598 1.68014 0
M  V30 2687 C 247.015 -0.218678 1.86825 0
M  V30 2688 O 246.373 -1.15756 1.39536 0
M  V30 2689 C 246.421 1.94434 3.03691 0
M  V30 2690 O 245.525 1.2678 3.92429 0
M  V30 2691 H 244.866 0.420856 0.513592 0
M  V30 2692 H 247.396 1.71775 1.11151 0
M  V30 2693 H 247.406 2.03251 3.5377 0
M  V30 2694 H 246.081 2.98777 2.89318 0
M  V30 2695 H 244.658 1.26282 3.50866 0
M  V30 2696 N 246.843 -1.10192 1.12674 0
M  V30 2697 C 247.753 -2.20172 0.810026 0
M  V30 2698 C 248.769 -1.72821 -0.202188 0
M  V30 2699 O 249.945 -2.01369 -0.0351691 0
M  V30 2700 C 247.01 -3.45631 0.272007 0
M  V30 2701 C 246.071 -4.07704 1.34447 0
M  V30 2702 C 245.304 -5.27175 0.832029 0
M  V30 2703 O 245.527 -5.69425 -0.333284 0
M  V30 2704 O 244.461 -5.80168 1.60277 0
M  V30 2705 H 248.287 -2.49701 1.72867 0
M  V30 2706 H 245.872 -1.18977 0.903597 0
M  V30 2707 H 247.754 -4.21394 -0.0230219 0
M  V30 2708 H 246.429 -3.17723 -0.619164 0
M  V30 2709 H 245.336 -3.33614 1.6927 0
M  V30 2710 H 246.669 -4.3982 2.2095 0
M  V30 2711 N 248.321 -0.919034 -1.28029 0
M  V30 2712 C 249.598 -0.473668 -1.89778 0
M  V30 2713 C 249.978 1.04783 -1.83259 0
M  V30 2714 O 249.326 1.8982 -1.27202 0
M  V30 2715 C 249.536 -1.00998 -3.34066 0
M  V30 2716 C 250.884 -1.06525 -4.1102 0
M  V30 2717 O 251.908 -0.958996 -3.43048 0
M  V30 2718 O 250.767 -1.22776 -5.3253 0
M  V30 2719 H 247.861 -0.15098 -0.813101 0
M  V30 2720 H 250.407 -1.01016 -1.36359 0
M  V30 2721 H 249.179 -2.05392 -3.33061 0
M  V30 2722 H 248.802 -0.454626 -3.94992 0
M  V30 2723 N 249.799 1.42003 -0.683588 0
M  V30 2724 C 250.747 2.326 0.000815408 0
M  V30 2725 C 251.741 1.50308 0.781278 0
M  V30 2726 O 252.947 1.66322 0.688251 0
M  V30 2727 H 249.322 0.751758 0.0190616 0
M  V30 2728 H 251.293 2.88011 -0.780528 0
M  V30 2729 C 250.042 3.34978 0.93195 0
M  V30 2730 H 249.365 3.98345 0.340817 0
M  V30 2731 H 250.805 4.00936 1.37936 0
M  V30 2732 C 249.264 2.67925 2.04249 0
M  V30 2733 O 249.794 2.51788 3.12995 0
M  V30 2734 N 248 2.2681 1.81675 0
M  V30 2735 H 247.547 2.40135 0.932363 0
M  V30 2736 H 247.505 1.8228 2.56167 0
M  V30 2737 N 251.277 0.427512 1.51691 0
M  V30 2738 C 252.554 -0.201684 1.94557 0
M  V30 2739 C 252.934 -1.60981 1.36559 0
M  V30 2740 O 252.282 -2.21814 0.548702 0
M  V30 2741 C 252.492 -0.189394 3.48486 0
M  V30 2742 C 253.84 -0.39978 4.22714 0
M  V30 2743 O 254.864 -0.267945 3.55191 0
M  V30 2744 O 253.723 -0.661249 5.42485 0
M  V30 2745 H 250.817 -0.135261 0.815864 0
M  V30 2746 H 253.363 0.484782 1.62628 0
M  V30 2747 H 252.135 0.795431 3.8313 0
M  V30 2748 H 251.758 -0.919187 3.86829 0
M  V30 2749 N 252.755 -1.56801 0.158532 0
M  V30 2750 C 253.685 -2.20347 -0.772609 0
M  V30 2751 C 254.666 -1.15518 -1.24859 0
M  V30 2752 O 255.851 -1.43902 -1.30406 0
M  V30 2753 C 252.981 -2.83417 -2.00729 0
M  V30 2754 C 251.935 -3.94174 -1.66765 0
M  V30 2755 C 251.261 -4.44233 -2.97592 0
M  V30 2756 C 252.561 -5.14392 -0.905447 0
M  V30 2757 H 254.255 -2.98413 -0.242959 0
M  V30 2758 H 251.801 -1.43537 -0.115419 0
M  V30 2759 H 253.754 -3.26543 -2.6636 0
M  V30 2760 H 252.478 -2.02701 -2.56086 0
M  V30 2761 H 251.137 -3.51684 -1.03508 0
M  V30 2762 H 250.785 -3.60325 -3.50963 0
M  V30 2763 H 250.485 -5.18945 -2.75626 0
M  V30 2764 H 252.009 -4.90037 -3.64274 0
M  V30 2765 H 253.423 -5.5429 -1.46408 0
M  V30 2766 H 251.82 -5.9494 -0.7853 0
M  V30 2767 H 252.89 -4.84795 0.100668 0
M  V30 2768 N 254.233 0.115231 -1.57178 0
M  V30 2769 C 255.463 0.835224 -1.88964 0
M  V30 2770 C 255.871 1.73774 -0.74829 0
M  V30 2771 O 255.214 1.81401 0.289739 0
M  V30 2772 C 255.276 1.7178 -3.15804 0
M  V30 2773 C 254.94 0.989198 -4.46166 0
M  V30 2774 C 255.937 0.328263 -5.18863 0
M  V30 2775 C 253.622 0.969256 -4.9286 0
M  V30 2776 C 255.616 -0.342873 -6.36477 0
M  V30 2777 C 253.303 0.294324 -6.10391 0
M  V30 2778 C 254.301 -0.360582 -6.82048 0
M  V30 2779 O 253.989 -1.02474 -7.97342 0
M  V30 2780 H 253.721 0.245197 -0.629964 0
M  V30 2781 H 256.275 0.10303 -2.05141 0
M  V30 2782 H 254.505 2.49173 -2.95719 0
M  V30 2783 H 256.194 2.31255 -3.33581 0
M  V30 2784 H 256.96 0.335263 -4.8384 0
M  V30 2785 H 252.839 1.46844 -4.36987 0
M  V30 2786 H 256.383 -0.854629 -6.92345 0
M  V30 2787 H 252.28 0.285099 -6.4487 0
M  V30 2788 H 253.048 -0.929594 -8.13204 0
M  V30 2789 N 255.711 1.52812 0.385517 0
M  V30 2790 C 256.658 1.77838 1.47113 0
M  V30 2791 C 257.628 0.621757 1.54024 0
M  V30 2792 O 258.813 0.861846 1.70226 0
M  V30 2793 C 255.953 1.95618 2.84302 0
M  V30 2794 C 255.066 3.23316 2.86515 0
M  V30 2795 C 254.201 3.31394 4.15152 0
M  V30 2796 C 253.24 4.53201 4.1143 0
M  V30 2797 N 252.377 4.58542 5.3168 0
M  V30 2798 H 257.217 2.70482 1.25073 0
M  V30 2799 H 254.754 1.34006 0.606692 0
M  V30 2800 H 256.712 2.03912 3.63972 0
M  V30 2801 H 255.342 1.06331 3.04784 0
M  V30 2802 H 254.394 3.24076 1.99195 0
M  V30 2803 H 255.706 4.13045 2.79634 0
M  V30 2804 H 254.86 3.3889 5.03228 0
M  V30 2805 H 253.599 2.39645 4.24761 0
M  V30 2806 H 252.604 4.45827 3.21742 0
M  V30 2807 H 253.829 5.46271 4.03442 0
M  V30 2808 H 251.775 3.69686 5.41912 0
M  V30 2809 H 251.692 5.42148 5.26889 0
M  V30 2810 H 252.96 4.70296 6.21644 0
M  V30 2811 N 257.189 -0.644168 1.43834 0
M  V30 2812 C 258.136 -1.75671 1.49694 0
M  V30 2813 C 259.106 -1.6246 0.345809 0
M  V30 2814 O 260.291 -1.82573 0.554234 0
M  V30 2815 C 257.431 -3.13867 1.43463 0
M  V30 2816 C 256.544 -3.38147 2.6885 0
M  V30 2817 C 255.679 -4.66241 2.54544 0
M  V30 2818 C 254.718 -4.83657 3.75157 0
M  V30 2819 N 253.855 -6.03016 3.59605 0
M  V30 2820 H 258.695 -1.69998 2.44754 0
M  V30 2821 H 256.232 -0.829458 1.21484 0
M  V30 2822 H 258.19 -3.9377 1.37843 0
M  V30 2823 H 256.82 -3.18588 0.519783 0
M  V30 2824 H 255.872 -2.52276 2.84712 0
M  V30 2825 H 257.184 -3.46899 3.58417 0
M  V30 2826 H 256.338 -5.54285 2.46683 0
M  V30 2827 H 255.077 -4.59826 1.62516 0
M  V30 2828 H 254.082 -3.94046 3.83416 0
M  V30 2829 H 255.307 -4.91896 4.68204 0
M  V30 2830 H 253.253 -5.97715 2.7032 0
M  V30 2831 H 253.17 -6.12766 4.42779 0
M  V30 2832 H 254.438 -6.93657 3.55613 0
M  V30 2833 N 258.668 -1.30515 -0.883378 0
M  V30 2834 C 259.915 -1.1943 -1.63532 0
M  V30 2835 C 260.243 0.250627 -1.92878 0
M  V30 2836 O 259.498 1.19556 -1.54935 0
M  V30 2837 C 259.797 -1.96994 -2.98209 0
M  V30 2838 C 259.463 -3.466 -2.88408 0
M  V30 2839 C 258.125 -3.87397 -2.85442 0
M  V30 2840 C 260.477 -4.41863 -2.76418 0
M  V30 2841 C 257.805 -5.21745 -2.68327 0
M  V30 2842 C 260.157 -5.7632 -2.60841 0
M  V30 2843 C 258.821 -6.16354 -2.56251 0
M  V30 2844 H 258.091 -0.437025 -0.598406 0
M  V30 2845 H 260.738 -1.61635 -1.02696 0
M  V30 2846 H 259.043 -1.47429 -3.63004 0
M  V30 2847 H 260.74 -1.85808 -3.55354 0
M  V30 2848 H 257.33 -3.14182 -2.91527 0
M  V30 2849 H 261.514 -4.11285 -2.77775 0
M  V30 2850 H 256.77 -5.51853 -2.63189 0
M  V30 2851 H 260.944 -6.49772 -2.50538 0
M  V30 2852 H 258.571 -7.20401 -2.42748 0
M  V30 2853 N 260.146 1.09593 -1.13257 0
M  V30 2854 C 261.094 2.18271 -0.803783 0
M  V30 2855 C 262.088 1.68054 0.213148 0
M  V30 2856 O 263.294 1.79862 0.0704699 0
M  V30 2857 H 259.669 0.711949 -0.242143 0
M  V30 2858 H 261.64 2.43235 -1.72856 0
M  V30 2859 C 260.389 3.46536 -0.28424 0
M  V30 2860 H 259.712 3.85545 -1.05807 0
M  V30 2861 H 261.152 4.23899 -0.0925945 0
M  V30 2862 C 259.611 3.22036 0.989684 0
M  V30 2863 O 260.141 3.44509 2.06584 0
M  V30 2864 N 258.347 2.7565 0.920086 0
M  V30 2865 H 257.894 2.57562 0.0442019 0
M  V30 2866 H 257.852 2.59635 1.77306 0
M  V30 2867 N 261.624 0.925811 1.2754 0
M  V30 2868 C 262.534 0.428993 2.30644 0
M  V30 2869 C 263.55 -0.489387 1.66976 0
M  V30 2870 O 264.726 -0.372653 1.97922 0
M  V30 2871 C 261.791 -0.311967 3.45294 0
M  V30 2872 C 260.852 0.641098 4.24486 0
M  V30 2873 C 260.085 -0.0645955 5.33661 0
M  V30 2874 O 260.308 -1.28429 5.55754 0
M  V30 2875 O 259.242 0.606265 5.98839 0
M  V30 2876 H 263.068 1.28504 2.75173 0
M  V30 2877 H 260.653 0.691086 1.32455 0
M  V30 2878 H 262.535 -0.729972 4.15029 0
M  V30 2879 H 261.21 -1.14365 3.02824 0
M  V30 2880 H 260.117 1.10874 3.57292 0
M  V30 2881 H 261.45 1.43995 4.70666 0
M  V30 2882 N 263.102 -1.41638 0.69111 0
M  V30 2883 C 264.348 -2.01598 0.220519 0
M  V30 2884 C 264.681 -1.54594 -1.17535 0
M  V30 2885 O 263.956 -0.755177 -1.79241 0
M  V30 2886 C 264.239 -3.59062 0.273243 0
M  V30 2887 C 264.092 -4.16203 1.70573 0
M  V30 2888 C 265.411 -4.38546 -0.369457 0
M  V30 2889 H 262.53 -0.732468 0.0816045 0
M  V30 2890 H 265.172 -1.68445 0.878986 0
M  V30 2891 H 263.322 -3.87435 -0.287411 0
M  V30 2892 H 264.994 -3.98722 2.31989 0
M  V30 2893 H 263.237 -3.71414 2.2413 0
M  V30 2894 H 263.908 -5.25358 1.69419 0
M  V30 2895 H 266.384 -4.1596 0.107977 0
M  V30 2896 H 265.26 -5.48069 -0.302002 0
M  V30 2897 H 265.521 -4.17662 -1.44951 0
M  V30 2898 N 264.58 -0.43555 -1.51462 0
M  V30 2899 C 265.828 0.131254 -2.01673 0
M  V30 2900 C 266.149 1.43368 -1.32177 0
M  V30 2901 O 265.419 1.90524 -0.455769 0
M  V30 2902 H 263.999 0.0514954 -0.745223 0
M  V30 2903 H 266.661 -0.577847 -1.86137 0
M  V30 2904 H 265.757 0.308446 -3.10572 0
M  V30 2905 N 266.058 1.56714 -0.166846 0
M  V30 2906 C 267.335 1.88412 0.525373 0
M  V30 2907 C 267.715 1.07602 1.81618 0
M  V30 2908 O 267.063 0.168621 2.27877 0
M  V30 2909 C 267.273 3.40363 0.771613 0
M  V30 2910 C 268.621 4.10007 1.1036 0
M  V30 2911 O 269.645 3.45655 0.860304 0
M  V30 2912 O 268.504 5.2369 1.56239 0
M  V30 2913 H 265.598 0.781587 0.270278 0
M  V30 2914 H 268.144 1.68458 -0.204946 0
M  V30 2915 H 266.916 3.91046 -0.141093 0
M  V30 2916 H 266.539 3.65914 1.55541 0
M  V30 2917 N 267.536 -0.106894 1.57237 0
M  V30 2918 C 268.483 -1.13049 2.01217 0
M  V30 2919 C 269.453 -1.40471 0.886403 0
M  V30 2920 O 270.638 -1.52133 1.15153 0
M  V30 2921 C 267.778 -2.4487 2.43172 0
M  V30 2922 C 266.891 -2.24281 3.69218 0
M  V30 2923 C 266.026 -3.49417 4.00101 0
M  V30 2924 C 265.065 -3.24038 5.19294 0
M  V30 2925 N 264.202 -4.41409 5.45988 0
M  V30 2926 H 269.042 -0.748456 2.88448 0
M  V30 2927 H 266.579 -0.358054 1.42676 0
M  V30 2928 H 268.537 -3.21786 2.65537 0
M  V30 2929 H 267.167 -2.80944 1.58967 0
M  V30 2930 H 266.219 -1.38224 3.54398 0
M  V30 2931 H 267.531 -2.01512 4.56283 0
M  V30 2932 H 266.685 -4.34746 4.2318 0
M  V30 2933 H 265.424 -3.75229 3.11535 0
M  V30 2934 H 264.429 -2.37102 4.96047 0
M  V30 2935 H 265.654 -2.99584 6.09447 0
M  V30 2936 H 263.6 -4.67319 4.60379 0
M  V30 2937 H 263.517 -4.21788 6.274 0
M  V30 2938 H 264.785 -5.27836 5.73593 0
M  V30 2939 N 269.014 -1.53014 -0.377408 0
M  V30 2940 C 269.962 -1.7927 -1.48206 0
M  V30 2941 C 270.956 -0.661195 -1.55963 0
M  V30 2942 O 272.162 -0.843908 -1.58991 0
M  V30 2943 H 268.537 -0.567425 -0.493491 0
M  V30 2944 H 270.508 -2.71753 -1.2326 0
M  V30 2945 C 269.257 -1.98894 -2.85196 0
M  V30 2946 H 268.58 -2.85395 -2.79981 0
M  V30 2947 H 270.02 -2.21249 -3.61698 0
M  V30 2948 C 268.479 -0.764691 -3.28107 0
M  V30 2949 O 269.009 0.0523226 -4.01666 0
M  V30 2950 N 267.215 -0.591493 -2.84517 0
M  V30 2951 H 266.762 -1.25749 -2.24822 0
M  V30 2952 H 266.72 0.226253 -3.13585 0
M  V30 2953 N 270.492 0.636531 -1.44174 0
M  V30 2954 C 271.908 0.954104 -1.27941 0
M  V30 2955 C 272.108 2.0039 -0.211248 0
M  V30 2956 O 271.164 2.49236 0.404695 0
M  V30 2957 C 272.477 1.4225 -2.64925 0
M  V30 2958 C 274.025 1.53827 -2.72592 0
M  V30 2959 C 274.5 2.04053 -4.10032 0
M  V30 2960 N 275.991 2.11331 -4.12182 0
M  V30 2961 C 276.726 2.51352 -5.15374 0
M  V30 2962 N 276.222 2.90549 -6.2893 0
M  V30 2963 N 278.015 2.51438 -5.02728 0
M  V30 2964 H 270.166 -0.0578386 -2.12321 0
M  V30 2965 H 272.429 0.0367406 -0.947288 0
M  V30 2966 H 272.135 0.725466 -3.44136 0
M  V30 2967 H 272.009 2.39451 -2.9145 0
M  V30 2968 H 274.396 2.22628 -1.93702 0
M  V30 2969 H 274.477 0.550154 -2.49814 0
M  V30 2970 H 274.121 1.35848 -4.89395 0
M  V30 2971 H 274.051 3.03726 -4.30184 0
M  V30 2972 H 276.542 1.83745 -3.30222 0
M  V30 2973 H 276.855 3.19884 -7.03487 0
M  V30 2974 H 275.2 2.88313 -6.32377 0
M  V30 2975 H 278.391 2.20203 -4.13072 0
M  V30 2976 H 278.564 2.82304 -5.83274 0
M  V30 2977 N 271.97 1.30982 0.876444 0
M  V30 2978 C 272.88 1.2003 2.01569 0
M  V30 2979 C 273.896 0.11838 1.73597 0
M  V30 2980 O 275.072 0.33495 1.98595 0
M  V30 2981 C 272.137 0.901637 3.34771 0
M  V30 2982 C 271.198 2.06979 3.76109 0
M  V30 2983 C 270.431 1.78529 5.02954 0
M  V30 2984 O 270.654 0.717296 5.65872 0
M  V30 2985 O 269.588 2.64019 5.40905 0
M  V30 2986 H 273.414 2.15753 2.13739 0
M  V30 2987 H 270.999 1.10658 1.00375 0
M  V30 2988 H 272.881 0.750645 4.1466 0
M  V30 2989 H 271.556 -0.0256141 3.2369 0
M  V30 2990 H 270.463 2.27616 2.96887 0
M  V30 2991 H 271.796 2.97907 3.91807 0
M  V30 2992 N 273.449 -1.08991 1.13837 0
M  V30 2993 C 274.698 -1.80631 0.897509 0
M  V30 2994 C 275.011 -1.86872 -0.57777 0
M  V30 2995 O 276.217 -2.54866 -0.935701 0
M  V30 2996 C 274.673 -3.24517 1.55618 0
M  V30 2997 C 274.281 -3.26529 3.0673 0
M  V30 2998 C 276.025 -4.00882 1.3962 0
M  V30 2999 C 273.932 -4.64965 3.65461 0
M  V30 3000 H 272.862 -0.67691 0.332129 0
M  V30 3001 H 275.513 -1.2246 1.3666 0
M  V30 3002 H 273.895 -3.82778 1.01476 0
M  V30 3003 H 275.069 -2.78008 3.67489 0
M  V30 3004 H 273.384 -2.63656 3.22296 0
M  V30 3005 H 275.981 -5.03167 1.80906 0
M  V30 3006 H 276.324 -4.14896 0.341578 0
M  V30 3007 H 276.857 -3.49075 1.90766 0
M  V30 3008 H 273.596 -4.56153 4.70749 0
M  V30 3009 H 273.116 -5.13792 3.09481 0
M  V30 3010 H 274.795 -5.3394 3.654 0
M  V30 3011 N 274.927 -0.932562 -1.27047 0
M  V30 3012 C 275.89 -0.440064 -2.24936 0
M  V30 3013 C 276.89 0.444071 -1.54547 0
M  V30 3014 O 278.08 0.244465 -1.72476 0
M  V30 3015 C 275.212 0.36678 -3.38921 0
M  V30 3016 H 276.405 -1.305 -2.70018 0
M  V30 3017 H 273.958 -0.713707 -1.39054 0
M  V30 3018 H 274.693 1.25033 -2.99228 0
M  V30 3019 H 274.478 -0.267204 -3.91188 0
M  V30 3020 H 275.968 0.701567 -4.11665 0
M  V30 3021 N 276.405 1.4127 -0.698611 0
M  V30 3022 C 277.352 2.30773 -0.0352094 0
M  V30 3023 C 278.322 1.47273 0.768111 0
M  V30 3024 O 279.507 1.76053 0.735524 0
M  V30 3025 C 276.647 3.33346 0.893 0
M  V30 3026 C 275.76 4.31924 0.0809695 0
M  V30 3027 C 274.895 5.21566 1.0071 0
M  V30 3028 C 273.934 6.11811 0.188155 0
M  V30 3029 N 273.071 6.93926 1.06825 0
M  V30 3030 H 277.911 2.86943 -0.804207 0
M  V30 3031 H 275.448 1.4132 -0.408294 0
M  V30 3032 H 277.406 3.91368 1.44523 0
M  V30 3033 H 276.036 2.78719 1.62836 0
M  V30 3034 H 275.088 3.75825 -0.588224 0
M  V30 3035 H 276.4 4.95716 -0.553801 0
M  V30 3036 H 275.554 5.84437 1.62845 0
M  V30 3037 H 274.293 4.58008 1.67572 0
M  V30 3038 H 273.298 5.47986 -0.446254 0
M  V30 3039 H 274.523 6.77425 -0.476716 0
M  V30 3040 H 272.469 6.32973 1.72283 0
M  V30 3041 H 272.386 7.54416 0.489123 0
M  V30 3042 H 273.654 7.61262 1.67632 0
M  V30 3043 N 277.883 0.443576 1.51229 0
M  V30 3044 C 279.113 -0.119117 2.06256 0
M  V30 3045 C 279.521 -1.36471 1.31043 0
M  V30 3046 O 278.864 -1.80034 0.365151 0
M  V30 3047 C 278.926 -0.500546 3.55998 0
M  V30 3048 C 278.59 0.639125 4.52509 0
M  V30 3049 C 279.587 1.51311 4.97394 0
M  V30 3050 C 277.272 0.821632 4.95535 0
M  V30 3051 C 279.266 2.55425 5.83984 0
M  V30 3052 C 276.953 1.86603 5.81913 0
M  V30 3053 C 277.951 2.73072 6.26036 0
M  V30 3054 O 277.639 3.75718 7.10698 0
M  V30 3055 H 277.371 -0.00857665 0.675946 0
M  V30 3056 H 279.925 0.623288 1.95715 0
M  V30 3057 H 278.155 -1.29575 3.64345 0
M  V30 3058 H 279.844 -0.995116 3.93513 0
M  V30 3059 H 280.61 1.38367 4.64844 0
M  V30 3060 H 276.489 0.158149 4.60729 0
M  V30 3061 H 280.033 3.22949 6.18344 0
M  V30 3062 H 275.93 1.99564 6.13876 0
M  V30 3063 H 276.698 3.72374 7.2889 0
M  V30 3064 N 279.361 -1.56624 0.175154 0
M  V30 3065 C 280.608 -1.96999 -0.468811 0
M  V30 3066 C 280.936 -1.06129 -1.62994 0
M  V30 3067 O 280.191 -0.0961771 -1.95464 0
M  V30 3068 C 280.49 -3.43419 -0.989864 0
M  V30 3069 C 280.156 -4.50866 0.0557687 0
M  V30 3070 C 278.818 -4.79975 0.343134 0
M  V30 3071 C 281.17 -5.15551 0.765308 0
M  V30 3072 C 278.498 -5.71066 1.34536 0
M  V30 3073 C 280.85 -6.07724 1.75654 0
M  V30 3074 C 279.514 -6.35199 2.05132 0
M  V30 3075 H 278.784 -0.720869 -0.17155 0
M  V30 3076 H 281.431 -1.89616 0.267924 0
M  V30 3077 H 279.736 -3.47772 -1.80449 0
M  V30 3078 H 281.433 -3.72002 -1.49719 0
M  V30 3079 H 278.023 -4.28229 -0.178381 0
M  V30 3080 H 282.207 -4.9317 0.556513 0
M  V30 3081 H 277.463 -5.90635 1.57988 0
M  V30 3082 H 281.637 -6.56912 2.31169 0
M  V30 3083 H 279.264 -7.05584 2.8294 0
M  V30 3084 N 280.839 0.0985539 -1.57292 0
M  V30 3085 C 282.085 0.803867 -1.86188 0
M  V30 3086 C 282.418 1.78549 -0.763794 0
M  V30 3087 O 281.693 1.93153 0.22855 0
M  V30 3088 C 281.976 1.53568 -3.25713 0
M  V30 3089 C 281.829 0.572277 -4.46145 0
M  V30 3090 C 283.148 2.48708 -3.63087 0
M  V30 3091 H 280.267 0.290781 -0.677211 0
M  V30 3092 H 282.909 0.0675783 -1.8988 0
M  V30 3093 H 281.059 2.16332 -3.22696 0
M  V30 3094 H 282.731 -0.0480894 -4.61275 0
M  V30 3095 H 280.974 -0.114618 -4.33649 0
M  V30 3096 H 281.645 1.12139 -5.40489 0
M  V30 3097 H 284.121 1.96039 -3.67026 0
M  V30 3098 H 282.997 2.96932 -4.61652 0
M  V30 3099 H 283.258 3.32309 -2.91588 0
M  V30 3100 N 282.317 1.53212 0.369288 0
M  V30 3101 C 283.264 1.79388 1.45219 0
M  V30 3102 C 284.234 0.638059 1.53356 0
M  V30 3103 O 285.419 0.879852 1.69302 0
M  V30 3104 C 282.559 1.98623 2.82211 0
M  V30 3105 C 281.672 3.26337 2.8307 0
M  V30 3106 C 280.807 3.35779 4.11614 0
M  V30 3107 C 279.846 4.5754 4.06601 0
M  V30 3108 N 278.983 4.64155 5.26787 0
M  V30 3109 H 283.823 2.71794 1.22198 0
M  V30 3110 H 281.36 1.34642 0.592444 0
M  V30 3111 H 283.318 2.07761 3.61789 0
M  V30 3112 H 281.948 1.09558 3.03639 0
M  V30 3113 H 281 3.26171 1.95747 0
M  V30 3114 H 282.312 4.15988 2.75237 0
M  V30 3115 H 281.466 3.44208 4.99606 0
M  V30 3116 H 280.205 2.44137 4.22195 0
M  V30 3117 H 279.21 4.49215 3.16996 0
M  V30 3118 H 280.435 5.50519 3.97625 0
M  V30 3119 H 278.381 3.75413 5.3796 0
M  V30 3120 H 278.298 5.47706 5.21109 0
M  V30 3121 H 279.566 4.76863 6.16621 0
M  V30 3122 N 283.795 -0.628877 1.44509 0
M  V30 3123 C 284.742 -1.74074 1.51549 0
M  V30 3124 C 285.712 -1.62084 0.363021 0
M  V30 3125 O 286.897 -1.81975 0.573567 0
M  V30 3126 C 284.037 -3.12328 1.46784 0
M  V30 3127 C 283.15 -3.35277 2.72422 0
M  V30 3128 C 282.285 -4.63515 2.59475 0
M  V30 3129 C 281.324 -4.7965 3.80266 0
M  V30 3130 N 280.461 -5.99168 3.65981 0
M  V30 3131 H 285.301 -1.67392 2.46544 0
M  V30 3132 H 282.838 -0.816527 1.22357 0
M  V30 3133 H 284.796 -3.92286 1.42012 0
M  V30 3134 H 283.426 -3.18018 0.553544 0
M  V30 3135 H 282.478 -2.49242 2.87372 0
M  V30 3136 H 283.79 -3.43078 3.62076 0
M  V30 3137 H 282.944 -5.51638 2.52548 0
M  V30 3138 H 281.683 -4.58076 1.67384 0
M  V30 3139 H 280.688 -3.89957 3.87574 0
M  V30 3140 H 281.913 -4.86902 4.73395 0
M  V30 3141 H 279.859 -5.94814 2.76644 0
M  V30 3142 H 279.776 -6.08035 4.49254 0
M  V30 3143 H 281.044 -6.89846 3.6295 0
M  V30 3144 N 285.273 -1.31445 -0.869486 0
M  V30 3145 C 286.221 -1.19067 -1.99814 0
M  V30 3146 C 287.215 -0.0988569 -1.69111 0
M  V30 3147 O 288.421 -0.260781 -1.78101 0
M  V30 3148 H 284.796 -0.368677 -0.655425 0
M  V30 3149 H 286.767 -2.14555 -2.07385 0
M  V30 3150 C 285.516 -0.915323 -3.35436 0
M  V30 3151 H 284.839 -1.74759 -3.59582 0
M  V30 3152 H 286.279 -0.868895 -4.15001 0
M  V30 3153 C 284.738 0.381928 -3.34728 0
M  V30 3154 O 285.268 1.39857 -3.76567 0
M  V30 3155 N 283.474 0.398633 -2.87853 0
M  V30 3156 H 283.021 -0.429186 -2.54 0
M  V30 3157 H 282.979 1.26651 -2.87762 0
M  V30 3158 N 286.751 1.08385 -1.14413 0
M  V30 3159 C 288.028 1.77429 -0.823297 0
M  V30 3160 C 288.408 1.9974 0.683163 0
M  V30 3161 O 287.756 1.60739 1.62405 0
M  V30 3162 C 287.966 3.09004 -1.62227 0
M  V30 3163 C 289.314 3.83532 -1.82177 0
M  V30 3164 O 290.338 3.18786 -1.58915 0
M  V30 3165 O 289.197 4.99792 -2.21067 0
M  V30 3166 H 286.291 0.769999 -0.301712 0
M  V30 3167 H 288.837 1.14846 -1.24934 0
M  V30 3168 H 287.609 2.88316 -2.64555 0
M  V30 3169 H 287.232 3.79316 -1.19187 0
M  V30 3170 N 288.23 0.939286 1.26551 0
M  V30 3171 C 289.177 0.446088 2.26448 0
M  V30 3172 C 290.147 -0.493234 1.58608 0
M  V30 3173 O 291.332 -0.409857 1.86346 0
M  V30 3174 C 288.472 -0.284375 3.43926 0
M  V30 3175 C 287.585 0.690399 4.26448 0
M  V30 3176 C 286.72 -0.0610712 5.31165 0
M  V30 3177 C 285.759 0.905649 6.05363 0
M  V30 3178 N 284.896 0.186055 7.01853 0
M  V30 3179 H 289.736 1.30291 2.68008 0
M  V30 3180 H 287.273 0.65371 1.31776 0
M  V30 3181 H 289.231 -0.724313 4.10864 0
M  V30 3182 H 287.861 -1.10535 3.03285 0
M  V30 3183 H 286.913 1.24885 3.59316 0
M  V30 3184 H 288.225 1.42873 4.779 0
M  V30 3185 H 287.379 -0.56038 6.04106 0
M  V30 3186 H 286.118 -0.832297 4.80546 0
M  V30 3187 H 285.123 1.4161 5.3125 0
M  V30 3188 H 286.348 1.67685 6.58072 0
M  V30 3189 H 284.294 -0.566714 6.53548 0
M  V30 3190 H 284.211 0.863752 7.51049 0
M  V30 3191 H 285.479 -0.292221 7.78952 0
M  V30 3192 N 289.708 -1.40897 0.706093 0
M  V30 3193 C 290.658 -2.27987 0.0240746 0
M  V30 3194 C 291.642 -1.42759 -0.742204 0
M  V30 3195 O 292.834 -1.65936 -0.615966 0
M  V30 3196 C 289.963 -3.31186 -0.903907 0
M  V30 3197 C 289.049 -4.2389 -0.133318 0
M  V30 3198 N 289.44 -4.98113 0.878444 0
M  V30 3199 C 287.738 -4.44485 -0.367269 0
M  V30 3200 C 288.439 -5.6604 1.34064 0
M  V30 3201 N 287.415 -5.39522 0.664565 0
M  V30 3202 H 291.217 -2.82812 0.799658 0
M  V30 3203 H 288.731 -1.53235 0.537845 0
M  V30 3204 H 290.728 -3.92413 -1.40775 0
M  V30 3205 H 289.388 -2.77922 -1.67897 0
M  V30 3206 H 290.399 -5.02364 1.25901 0
M  V30 3207 H 287.076 -4.02213 -1.1194 0
M  V30 3208 H 288.466 -6.35524 2.1808 0
M  V30 3209 N 291.186 -0.45159 -1.50991 0
M  V30 3210 C 292.134 0.366864 -2.29689 0
M  V30 3211 C 293.128 1.00809 -1.36139 0
M  V30 3212 O 294.334 0.941427 -1.53418 0
M  V30 3213 H 290.709 0.137133 -0.739391 0
M  V30 3214 H 292.68 -0.317538 -2.96706 0
M  V30 3215 C 291.429 1.44751 -3.16137 0
M  V30 3216 H 290.752 0.963473 -3.88017 0
M  V30 3217 H 292.192 1.99315 -3.74232 0
M  V30 3218 C 290.651 2.43869 -2.32442 0
M  V30 3219 O 291.181 3.4872 -1.99392 0
M  V30 3220 N 289.387 2.15105 -1.95392 0
M  V30 3221 H 288.934 1.29866 -2.22469 0
M  V30 3222 H 288.892 2.81661 -1.39693 0
M  V30 3223 N 292.664 1.56529 -0.183458 0
M  V30 3224 C 293.611 2.18546 0.742055 0
M  V30 3225 C 294.581 1.12912 1.2182 0
M  V30 3226 O 295.766 1.41115 1.28418 0
M  V30 3227 C 292.906 2.83977 1.96089 0
M  V30 3228 C 292.019 4.04105 1.52719 0
M  V30 3229 C 291.154 4.57427 2.70063 0
M  V30 3230 C 290.193 5.69938 2.23243 0
M  V30 3231 N 289.33 6.17717 3.33722 0
M  V30 3232 H 294.17 2.97284 0.206432 0
M  V30 3233 H 291.707 1.46823 0.0901571 0
M  V30 3234 H 293.665 3.20077 2.67594 0
M  V30 3235 H 292.295 2.07822 2.47002 0
M  V30 3236 H 291.347 3.73745 0.708436 0
M  V30 3237 H 292.659 4.85513 1.1436 0
M  V30 3238 H 291.813 4.95772 3.49708 0
M  V30 3239 H 290.552 3.75101 3.11689 0
M  V30 3240 H 289.557 5.31133 1.42048 0
M  V30 3241 H 290.782 6.54073 1.82661 0
M  V30 3242 H 288.728 5.38317 3.74902 0
M  V30 3243 H 288.645 6.94146 2.99495 0
M  V30 3244 H 289.913 6.60713 4.13616 0
M  V30 3245 N 294.142 -0.090211 1.57342 0
M  V30 3246 C 295.072 -1.10976 2.05443 0
M  V30 3247 C 296.053 -1.41482 0.944284 0
M  V30 3248 O 297.238 -1.51428 1.21586 0
M  V30 3249 C 294.368 -2.42831 2.48295 0
M  V30 3250 C 293.322 -2.26721 3.63018 0
M  V30 3251 C 292.648 -3.63796 3.91863 0
M  V30 3252 C 293.948 -1.7037 4.93732 0
M  V30 3253 H 295.642 -0.709564 2.9087 0
M  V30 3254 H 293.188 -0.339874 1.39932 0
M  V30 3255 H 295.141 -3.14431 2.80555 0
M  V30 3256 H 293.865 -2.84795 1.59873 0
M  V30 3257 H 292.524 -1.57565 3.31012 0
M  V30 3258 H 292.172 -4.03297 3.00601 0
M  V30 3259 H 291.872 -3.53861 4.69101 0
M  V30 3260 H 293.396 -4.36855 4.26603 0
M  V30 3261 H 294.81 -2.31816 5.24342 0
M  V30 3262 H 293.207 -1.71181 5.75167 0
M  V30 3263 H 294.277 -0.663542 4.80339 0
M  V30 3264 N 295.62 -1.53406 -0.361157 0
M  V30 3265 C 296.867 -1.69802 -1.10333 0
M  V30 3266 C 297.195 -0.452087 -1.89173 0
M  V30 3267 O 296.45 0.566017 -1.87336 0
M  V30 3268 C 296.749 -2.90211 -2.08596 0
M  V30 3269 C 296.415 -4.26539 -1.46203 0
M  V30 3270 C 295.077 -4.6361 -1.28915 0
M  V30 3271 C 297.429 -5.113 -1.01101 0
M  V30 3272 C 294.757 -5.83075 -0.651157 0
M  V30 3273 C 297.109 -6.31415 -0.387007 0
M  V30 3274 C 295.773 -6.67195 -0.201657 0
M  V30 3275 H 295.043 -0.621351 -0.403737 0
M  V30 3276 H 297.69 -1.87598 -0.384609 0
M  V30 3277 H 295.995 -2.66946 -2.86788 0
M  V30 3278 H 297.692 -3.00091 -2.65982 0
M  V30 3279 H 294.282 -3.97352 -1.60653 0
M  V30 3280 H 298.466 -4.83206 -1.13249 0
M  V30 3281 H 293.722 -6.09385 -0.496006 0
M  V30 3282 H 297.896 -6.96394 -0.0293563 0
M  V30 3283 H 295.523 -7.59628 0.294766 0
M  V30 3284 N 297.098 0.621204 -1.44841 0
M  V30 3285 C 298.338 1.39201 -1.49674 0
M  V30 3286 C 298.702 1.91561 -0.129764 0
M  V30 3287 O 299.903 2.68748 -0.0527814 0
M  V30 3288 C 298.174 2.519 -2.53537 0
M  V30 3289 S 299.733 3.39916 -2.77494 0
M  V30 3290 H 296.551 0.474758 -0.529269 0
M  V30 3291 H 299.153 0.718171 -1.81831 0
M  V30 3292 H 297.857 2.11761 -3.51547 0
M  V30 3293 H 297.388 3.241 -2.22986 0
M  V30 3294 H 299.403 4.49646 -2.0984 0
M  V30 3295 N 298.576 1.31904 0.862503 0
M  V30 3296 C 299.823 1.22017 1.61611 0
M  V30 3297 C 300.151 -0.21991 1.93253 0
M  V30 3298 O 299.406 -1.17076 1.56817 0
M  V30 3299 C 299.705 2.01713 2.95037 0
M  V30 3300 C 299.371 3.51145 2.82857 0
M  V30 3301 C 298.033 3.91889 2.79243 0
M  V30 3302 C 300.385 4.46204 2.69353 0
M  V30 3303 C 297.713 5.25947 2.59993 0
M  V30 3304 C 300.065 5.80397 2.5164 0
M  V30 3305 C 298.729 6.20352 2.46413 0
M  V30 3306 H 297.999 0.44649 0.591378 0
M  V30 3307 H 300.646 1.63248 1.00111 0
M  V30 3308 H 298.951 1.53185 3.60613 0
M  V30 3309 H 300.648 1.91437 3.52353 0
M  V30 3310 H 297.238 3.1878 2.86491 0
M  V30 3311 H 301.422 4.15652 2.71196 0
M  V30 3312 H 296.678 5.5597 2.54376 0
M  V30 3313 H 300.852 6.53676 2.40169 0
M  V30 3314 H 298.479 7.24172 2.31256 0
M  V30 3315 N 300.054 -1.07777 1.14986 0
M  V30 3316 C 301.47 -1.32373 0.891596 0
M  V30 3317 C 301.67 -1.9609 -0.463788 0
M  V30 3318 O 300.726 -2.21801 -1.20667 0
M  V30 3319 C 302.039 -2.21905 2.02925 0
M  V30 3320 C 303.587 -2.35367 2.06329 0
M  V30 3321 C 304.062 -3.28245 3.19405 0
M  V30 3322 N 305.553 -3.35824 3.19024 0
M  V30 3323 C 306.288 -4.07739 4.03158 0
M  V30 3324 N 305.784 -4.82306 4.97346 0
M  V30 3325 N 307.577 -4.03635 3.91197 0
M  V30 3326 H 299.728 -0.648039 2.02273 0
M  V30 3327 H 301.991 -0.348149 0.881757 0
M  V30 3328 H 301.697 -1.82342 3.0074 0
M  V30 3329 H 301.571 -3.22407 1.95789 0
M  V30 3330 H 303.958 -2.74186 1.09116 0
M  V30 3331 H 304.039 -1.34585 2.17533 0
M  V30 3332 H 303.683 -2.90146 4.16867 0
M  V30 3333 H 303.613 -4.28971 3.05437 0
M  V30 3334 H 306.104 -2.8267 2.50811 0
M  V30 3335 H 306.417 -5.34661 5.57994 0
M  V30 3336 H 304.762 -4.81337 5.01338 0
M  V30 3337 H 307.953 -3.44491 3.16928 0
M  V30 3338 H 308.126 -4.59417 4.5699 0
M  V30 3339 N 301.532 -0.945985 -1.26051 0
M  V30 3340 C 302.76 -0.613025 -1.9761 0
M  V30 3341 C 303.175 0.813035 -1.70397 0
M  V30 3342 O 302.532 1.54274 -0.974979 0
M  V30 3343 C 302.583 -0.85159 -3.51326 0
M  V30 3344 O 302.304 -2.22157 -3.77595 0
M  V30 3345 C 303.805 -0.529831 -4.40122 0
M  V30 3346 H 301.025 -0.230593 -0.630133 0
M  V30 3347 H 303.569 -1.268 -1.60443 0
M  V30 3348 H 301.724 -0.243151 -3.86636 0
M  V30 3349 H 302.138 -2.2852 -4.721 0
M  V30 3350 H 303.612 -0.747348 -5.46917 0
M  V30 3351 H 304.089 0.535341 -4.35925 0
M  V30 3352 H 304.695 -1.11721 -4.10364 0
M  V30 3353 N 303.011 1.40521 -0.713556 0
M  V30 3354 C 304.288 1.94775 -0.17943 0
M  V30 3355 C 304.668 1.65184 1.31444 0
M  V30 3356 O 304.016 0.968429 2.06963 0
M  V30 3357 C 304.226 3.45543 -0.489986 0
M  V30 3358 C 305.574 4.22442 -0.427536 0
M  V30 3359 O 306.598 3.53644 -0.425929 0
M  V30 3360 O 305.457 5.4501 -0.403292 0
M  V30 3361 H 302.551 0.826606 -0.0255192 0
M  V30 3362 H 305.097 1.5014 -0.790949 0
M  V30 3363 H 303.869 3.60432 -1.5233 0
M  V30 3364 H 303.492 3.97311 0.151598 0
M  V30 3365 N 304.489 0.459591 1.5075 0
M  V30 3366 C 305.399 -0.34613 2.32033 0
M  V30 3367 C 306.415 -1.00686 1.41909 0
M  V30 3368 O 307.591 -0.997361 1.7497 0
M  V30 3369 C 304.656 -1.42029 3.16273 0
M  V30 3370 C 303.717 -0.777362 4.22203 0
M  V30 3371 C 302.95 -1.80034 5.02418 0
M  V30 3372 O 303.173 -3.02544 4.83553 0
M  V30 3373 O 302.107 -1.37853 5.85901 0
M  V30 3374 H 305.933 0.318054 3.0203 0
M  V30 3375 H 303.518 0.221663 1.47746 0
M  V30 3376 H 305.4 -2.04275 3.68578 0
M  V30 3377 H 304.075 -2.06815 2.49016 0
M  V30 3378 H 302.982 -0.116256 3.73919 0
M  V30 3379 H 304.315 -0.172634 4.91897 0
M  V30 3380 N 305.967 -1.56429 0.191757 0
M  V30 3381 C 306.914 -2.18936 -0.730454 0
M  V30 3382 C 307.884 -1.13557 -1.21219 0
M  V30 3383 O 309.069 -1.41794 -1.27668 0
M  V30 3384 C 306.209 -2.85013 -1.9458 0
M  V30 3385 C 305.322 -4.04909 -1.50574 0
M  V30 3386 C 304.457 -4.58853 -2.67634 0
M  V30 3387 C 303.496 -5.71114 -2.20217 0
M  V30 3388 N 302.633 -6.19478 -3.30442 0
M  V30 3389 H 307.473 -2.97389 -0.190664 0
M  V30 3390 H 305.01 -1.46869 -0.0823694 0
M  V30 3391 H 306.968 -3.21492 -2.65893 0
M  V30 3392 H 305.598 -2.09129 -2.45896 0
M  V30 3393 H 304.65 -3.74115 -0.688605 0
M  V30 3394 H 305.962 -4.86113 -1.11784 0
M  V30 3395 H 305.116 -4.97619 -3.47074 0
M  V30 3396 H 303.855 -3.76749 -3.09696 0
M  V30 3397 H 302.86 -5.31879 -1.3923 0
M  V30 3398 H 304.085 -6.55033 -1.79189 0
M  V30 3399 H 302.031 -5.40297 -3.72041 0
M  V30 3400 H 301.948 -6.95725 -2.9581 0
M  V30 3401 H 303.216 -6.62898 -4.10106 0
M  V30 3402 N 307.445 0.0818655 -1.57387 0
M  V30 3403 C 308.392 1.09834 -2.0299 0
M  V30 3404 C 309.362 1.39043 -0.908639 0
M  V30 3405 O 310.547 1.50282 -1.17559 0
M  V30 3406 C 307.687 2.40971 -2.47037 0
M  V30 3407 C 306.8 2.18379 -3.7274 0
M  V30 3408 C 305.935 3.43008 -4.0561 0
M  V30 3409 C 304.974 3.15736 -5.24383 0
M  V30 3410 N 304.111 4.32667 -5.52941 0
M  V30 3411 H 308.951 0.702472 -2.89602 0
M  V30 3412 H 306.488 0.33531 -1.43227 0
M  V30 3413 H 308.446 3.1752 -2.70623 0
M  V30 3414 H 307.076 2.78379 -1.63417 0
M  V30 3415 H 306.128 1.32569 -3.56552 0
M  V30 3416 H 307.44 1.94227 -4.59431 0
M  V30 3417 H 306.594 4.27958 -4.30043 0
M  V30 3418 H 305.333 3.70225 -3.17466 0
M  V30 3419 H 304.338 2.2918 -4.99757 0
M  V30 3420 H 305.563 2.8985 -6.14136 0
M  V30 3421 H 303.509 4.59935 -4.67756 0
M  V30 3422 H 303.426 4.11753 -6.34031 0
M  V30 3423 H 304.694 5.18644 -5.81918 0
M  V30 3424 N 308.923 1.53595 0.353017 0
M  V30 3425 C 310.169 1.70638 1.09593 0
M  V30 3426 C 310.502 0.463286 1.88593 0
M  V30 3427 O 309.777 -0.539597 1.86865 0
M  V30 3428 C 310.06 2.96406 2.04489 0
M  V30 3429 C 309.913 4.30901 1.29014 0
M  V30 3430 C 311.232 3.17812 3.0444 0
M  V30 3431 H 308.351 0.620913 0.397034 0
M  V30 3432 H 310.993 1.86254 0.375446 0
M  V30 3433 H 309.143 2.83223 2.65927 0
M  V30 3434 H 310.815 4.55917 0.702638 0
M  V30 3435 H 309.058 4.29741 0.592071 0
M  V30 3436 H 309.729 5.1506 1.98537 0
M  V30 3437 H 312.205 3.30263 2.53112 0
M  V30 3438 H 311.081 4.07223 3.6805 0
M  V30 3439 H 311.342 2.33669 3.75301 0
M  V30 3440 N 310.401 -0.613514 1.45168 0
M  V30 3441 C 311.311 -1.75296 1.55912 0
M  V30 3442 C 312.327 -1.68244 0.443856 0
M  V30 3443 O 313.503 -1.88706 0.70371 0
M  V30 3444 C 310.568 -3.1174 1.5172 0
M  V30 3445 C 309.629 -3.30291 2.74238 0
M  V30 3446 C 308.862 -4.60226 2.70236 0
M  V30 3447 O 309.085 -5.42168 1.77229 0
M  V30 3448 O 308.019 -4.81361 3.61352 0
M  V30 3449 H 311.845 -1.69183 2.52212 0
M  V30 3450 H 309.43 -0.776886 1.27612 0
M  V30 3451 H 311.312 -3.93044 1.51968 0
M  V30 3452 H 309.987 -3.18357 0.585697 0
M  V30 3453 H 308.894 -2.48598 2.79553 0
M  V30 3454 H 310.227 -3.28547 3.66494 0
M  V30 3455 N 311.879 -1.3236 -0.855495 0
M  V30 3456 C 313.109 -1.25688 -1.6397 0
M  V30 3457 C 313.517 0.177592 -1.88365 0
M  V30 3458 O 312.86 1.12485 -1.45234 0
M  V30 3459 C 312.922 -1.94602 -3.02275 0
M  V30 3460 C 312.586 -3.43937 -3.00926 0
M  V30 3461 C 313.583 -4.39435 -2.77835 0
M  V30 3462 C 311.268 -3.85858 -3.21588 0
M  V30 3463 C 313.262 -5.74829 -2.75409 0
M  V30 3464 C 310.949 -5.21361 -3.18789 0
M  V30 3465 C 311.947 -6.15658 -2.95727 0
M  V30 3466 O 311.635 -7.48681 -2.928 0
M  V30 3467 H 311.367 -0.434972 -0.51747 0
M  V30 3468 H 313.921 -1.75023 -1.075 0
M  V30 3469 H 312.151 -1.39836 -3.60531 0
M  V30 3470 H 313.84 -1.81651 -3.62985 0
M  V30 3471 H 314.606 -4.08374 -2.6164 0
M  V30 3472 H 310.485 -3.12883 -3.38564 0
M  V30 3473 H 314.029 -6.48404 -2.57328 0
M  V30 3474 H 309.926 -5.52052 -3.34528 0
M  V30 3475 H 310.694 -7.5803 -3.0876 0
M  V30 3476 N 313.357 1.07166 -1.15556 0
M  V30 3477 C 314.634 1.76546 -0.842069 0
M  V30 3478 C 315.014 2.00453 0.661939 0
M  V30 3479 O 314.362 1.62452 1.60691 0
M  V30 3480 C 314.572 3.07266 -1.65495 0
M  V30 3481 C 315.92 3.81578 -1.86234 0
M  V30 3482 O 316.944 3.17083 -1.62287 0
M  V30 3483 O 315.803 4.97419 -2.26355 0
M  V30 3484 H 312.897 0.766756 -0.309862 0
M  V30 3485 H 315.443 1.13514 -1.26145 0
M  V30 3486 H 314.215 2.85494 -2.67598 0
M  V30 3487 H 313.838 3.7803 -1.23203 0
M  V30 3488 N 314.835 0.952656 1.25548 0
M  V30 3489 C 315.745 0.47782 2.29682 0
M  V30 3490 C 316.761 -0.453859 1.67977 0
M  V30 3491 O 317.937 -0.330587 1.98668 0
M  V30 3492 C 315.002 -0.238655 3.45878 0
M  V30 3493 C 314.063 0.730994 4.23031 0
M  V30 3494 C 313.296 0.0486165 5.33678 0
M  V30 3495 O 313.519 -1.16612 5.58353 0
M  V30 3496 O 312.453 0.733152 5.97418 0
M  V30 3497 H 316.279 1.34312 2.72386 0
M  V30 3498 H 313.864 0.719026 1.30959 0
M  V30 3499 H 315.746 -0.641774 4.16484 0
M  V30 3500 H 314.421 -1.07916 3.05181 0
M  V30 3501 H 313.328 1.18428 3.5486 0
M  V30 3502 H 314.661 1.53946 4.67506 0
M  V30 3503 N 316.313 -1.40141 0.720998 0
M  V30 3504 C 317.26 -2.30688 0.071919 0
M  V30 3505 C 318.23 -1.48476 -0.744584 0
M  V30 3506 O 319.415 -1.77201 -0.707423 0
M  V30 3507 C 316.555 -3.34724 -0.839855 0
M  V30 3508 C 315.668 -4.31998 -0.0122438 0
M  V30 3509 C 314.803 -5.23102 -0.923995 0
M  V30 3510 C 313.842 -6.12033 -0.0907969 0
M  V30 3511 N 312.979 -6.95537 -0.957718 0
M  V30 3512 H 317.819 -2.85628 0.849755 0
M  V30 3513 H 315.356 -1.40653 0.430726 0
M  V30 3514 H 317.314 -3.93618 -1.38279 0
M  V30 3515 H 315.944 -2.81274 -1.58381 0
M  V30 3516 H 314.996 -3.74841 0.64794 0
M  V30 3517 H 316.308 -4.94772 0.632595 0
M  V30 3518 H 315.462 -5.86953 -1.53527 0
M  V30 3519 H 314.201 -4.60615 -1.60264 0
M  V30 3520 H 313.206 -5.47207 0.533377 0
M  V30 3521 H 314.431 -6.76581 0.584428 0
M  V30 3522 H 312.377 -6.35633 -1.62192 0
M  V30 3523 H 312.294 -7.55099 -0.36904 0
M  V30 3524 H 313.562 -7.63832 -1.555 0
M  V30 3525 N 317.792 -0.46758 -1.50504 0
M  V30 3526 C 319.02 0.0864133 -2.06719 0
M  V30 3527 C 319.435 1.33819 -1.33184 0
M  V30 3528 O 318.792 1.78061 -0.400083 0
M  V30 3529 C 318.843 0.378079 -3.59517 0
M  V30 3530 O 318.564 -0.824044 -4.3028 0
M  V30 3531 C 320.065 0.979426 -4.32345 0
M  V30 3532 H 317.285 -0.00551697 -0.670977 0
M  V30 3533 H 319.829 -0.655354 -1.93715 0
M  V30 3534 H 317.984 1.06977 -3.72337 0
M  V30 3535 H 318.398 -0.566518 -5.21432 0
M  V30 3536 H 319.872 1.1333 -5.40241 0
M  V30 3537 H 320.349 1.9686 -3.9261 0
M  V30 3538 H 320.955 0.326216 -4.24047 0
M  V30 3539 N 319.27 1.56325 -0.20005 0
M  V30 3540 C 320.681 1.8408 0.31167 0
M  V30 3541 C 321.032 1.12087 1.61031 0
M  V30 3542 O 320.157 0.38332 2.12978 0
M  V30 3543 C 320.752 3.33932 0.57226 0
M  V30 3544 C 319.311 3.6208 1.02834 0
M  V30 3545 C 318.458 2.77186 0.079634 0
M  V30 3546 H 321.409 1.52939 -0.423729 0
M  V30 3547 H 321.43 3.52971 1.42096 0
M  V30 3548 H 320.942 3.86303 -0.37308 0
M  V30 3549 H 319.043 3.15147 1.98778 0
M  V30 3550 H 319.156 4.7023 0.917624 0
M  V30 3551 H 317.52 2.47951 0.582448 0
M  V30 3552 H 318.303 3.32347 -0.860238 0
M  V30 3553 N 320.748 -0.0735177 1.57428 0
M  V30 3554 C 321.678 -1.0879 2.06608 0
M  V30 3555 C 322.659 -1.40473 0.959237 0
M  V30 3556 O 323.844 -1.5013 1.23185 0
M  V30 3557 C 320.974 -2.40183 2.50857 0
M  V30 3558 C 319.928 -2.22858 3.65402 0
M  V30 3559 C 319.254 -3.59619 3.957 0
M  V30 3560 C 320.554 -1.65123 4.95511 0
M  V30 3561 H 322.248 -0.678673 2.91607 0
M  V30 3562 H 319.794 -0.325013 1.40284 0
M  V30 3563 H 321.747 -3.11437 2.83874 0
M  V30 3564 H 320.471 -2.83083 1.62885 0
M  V30 3565 H 319.13 -1.54045 3.32664 0
M  V30 3566 H 318.778 -4.00086 3.04861 0
M  V30 3567 H 318.478 -3.48866 4.72828 0
M  V30 3568 H 320.002 -4.32306 4.31212 0
M  V30 3569 H 321.416 -2.26241 5.26771 0
M  V30 3570 H 319.813 -1.65071 5.7695 0
M  V30 3571 H 320.883 -0.612559 4.81015 0
M  V30 3572 N 322.226 -1.5378 -0.344866 0
M  V30 3573 C 323.136 -1.84667 -1.4469 0
M  V30 3574 C 324.152 -0.736704 -1.57635 0
M  V30 3575 O 325.328 -1.02888 -1.73136 0
M  V30 3576 C 322.393 -2.04869 -2.79696 0
M  V30 3577 C 321.454 -3.28731 -2.76106 0
M  V30 3578 C 320.687 -3.4796 -4.04673 0
M  V30 3579 O 320.91 -2.71052 -5.01883 0
M  V30 3580 O 319.844 -4.41383 -4.09224 0
M  V30 3581 H 323.67 -2.78334 -1.21506 0
M  V30 3582 H 321.255 -1.39418 -0.536921 0
M  V30 3583 H 323.137 -2.19609 -3.59652 0
M  V30 3584 H 321.812 -1.14391 -3.02814 0
M  V30 3585 H 320.719 -3.19396 -1.94774 0
M  V30 3586 H 322.052 -4.19198 -2.57941 0
M  V30 3587 N 323.704 0.605807 -1.45491 0
M  V30 3588 C 324.614 1.74466 -1.56839 0
M  V30 3589 C 325.63 1.68006 -0.452772 0
M  V30 3590 O 326.806 1.8833 -0.713708 0
M  V30 3591 C 323.871 3.10931 -1.53371 0
M  V30 3592 C 322.932 3.28832 -2.75986 0
M  V30 3593 C 322.165 4.58787 -2.72673 0
M  V30 3594 O 322.388 5.4122 -1.80102 0
M  V30 3595 O 321.322 4.79438 -3.63899 0
M  V30 3596 H 325.148 1.67843 -2.53106 0
M  V30 3597 H 322.733 0.770108 -1.28022 0
M  V30 3598 H 324.615 3.92233 -1.54051 0
M  V30 3599 H 323.29 3.18042 -0.602572 0
M  V30 3600 H 322.197 2.47112 -2.80867 0
M  V30 3601 H 323.53 3.26599 -3.68231 0
M  V30 3602 N 325.182 1.32811 0.848464 0
M  V30 3603 C 326.429 1.23724 1.60308 0
M  V30 3604 C 326.757 -0.1994 1.93475 0
M  V30 3605 O 326.012 -1.15406 1.5805 0
M  V30 3606 C 326.311 2.04831 2.92881 0
M  V30 3607 C 325.977 3.54125 2.79117 0
M  V30 3608 C 324.639 3.94829 2.7507 0
M  V30 3609 C 326.991 4.49036 2.64606 0
M  V30 3610 C 324.319 5.28675 2.544 0
M  V30 3611 C 326.671 5.83033 2.4547 0
M  V30 3612 C 325.335 6.22931 2.39819 0
M  V30 3613 H 324.605 0.452737 0.586609 0
M  V30 3614 H 327.252 1.64301 0.983743 0
M  V30 3615 H 325.557 1.57001 3.58968 0
M  V30 3616 H 327.254 1.95164 3.50303 0
M  V30 3617 H 323.844 3.21801 2.83094 0
M  V30 3618 H 328.028 4.18505 2.66772 0
M  V30 3619 H 323.284 5.58637 2.48465 0
M  V30 3620 H 327.458 6.56186 2.33222 0
M  V30 3621 H 325.085 7.26584 2.23562 0
M  V30 3622 N 326.66 -1.06551 1.16123 0
M  V30 3623 C 327.906 -1.79567 0.94252 0
M  V30 3624 C 328.239 -1.86869 -0.528547 0
M  V30 3625 O 327.514 -1.35838 -1.39206 0
M  V30 3626 C 327.797 -3.24195 1.56747 0
M  V30 3627 C 327.65 -3.24989 3.10969 0
M  V30 3628 C 328.969 -4.21678 1.25998 0
M  V30 3629 H 326.088 -0.651883 0.343828 0
M  V30 3630 H 328.73 -1.2463 1.43413 0
M  V30 3631 H 326.88 -3.71107 1.14942 0
M  V30 3632 H 328.552 -2.86258 3.61737 0
M  V30 3633 H 326.795 -2.63716 3.44436 0
M  V30 3634 H 327.466 -4.27005 3.49815 0
M  V30 3635 H 329.942 -3.83196 1.62174 0
M  V30 3636 H 328.818 -5.21146 1.7233 0
M  V30 3637 H 329.079 -4.4174 0.178367 0
M  V30 3638 N 328.138 -0.959301 -1.25041 0
M  V30 3639 C 329.366 -0.633949 -1.96948 0
M  V30 3640 C 329.781 0.794916 -1.7125 0
M  V30 3641 O 329.138 1.53231 -0.991287 0
M  V30 3642 C 329.189 -0.888805 -3.50403 0
M  V30 3643 O 328.91 -2.26149 -3.75218 0
M  V30 3644 C 330.411 -0.576482 -4.39536 0
M  V30 3645 H 327.631 -0.237263 -0.627652 0
M  V30 3646 H 330.175 -1.28495 -1.59089 0
M  V30 3647 H 328.33 -0.284145 -3.86357 0
M  V30 3648 H 328.744 -2.33514 -4.6965 0
M  V30 3649 H 330.218 -0.805314 -5.46094 0
M  V30 3650 H 330.695 0.489075 -4.36468 0
M  V30 3651 H 331.301 -1.16067 -4.09156 0
M  V30 3652 N 329.616 1.39756 -0.72842 0
M  V30 3653 C 330.841 2.05472 -0.282159 0
M  V30 3654 C 331.266 1.54549 1.07221 0
M  V30 3655 O 330.624 0.686372 1.67805 0
M  V30 3656 C 330.672 3.59462 -0.286264 0
M  V30 3657 O 329.776 4.05918 0.728298 0
M  V30 3658 H 329.117 0.651226 -0.129618 0
M  V30 3659 H 331.647 1.78915 -0.992499 0
M  V30 3660 H 331.657 4.07798 -0.128373 0
M  V30 3661 H 330.332 3.95889 -1.27456 0
M  V30 3662 H 328.909 3.69012 0.537081 0
M  V30 3663 N 331.094 0.475555 1.50254 0
M  V30 3664 C 332.004 -0.321501 2.32387 0
M  V30 3665 C 333.02 -0.991755 1.42969 0
M  V30 3666 O 334.196 -0.978747 1.76018 0
M  V30 3667 C 331.261 -1.38667 3.17762 0
M  V30 3668 C 330.322 -0.732538 4.23004 0
M  V30 3669 C 329.555 -1.74695 5.04299 0
M  V30 3670 O 329.778 -2.97399 4.86734 0
M  V30 3671 O 328.712 -1.31631 5.8733 0
M  V30 3672 H 332.538 0.350071 3.01676 0
M  V30 3673 H 330.123 0.237321 1.47503 0
M  V30 3674 H 332.005 -2.00354 3.70724 0
M  V30 3675 H 330.68 -2.04163 2.51196 0
M  V30 3676 H 329.587 -0.0765902 3.74022 0
M  V30 3677 H 330.92 -0.120452 4.92053 0
M  V30 3678 N 332.573 -1.56217 0.208337 0
M  V30 3679 C 333.798 -2.02782 -0.435222 0
M  V30 3680 C 334.223 -1.08738 -1.53485 0
M  V30 3681 O 333.581 -0.0731855 -1.81152 0
M  V30 3682 C 333.629 -3.47687 -0.956335 0
M  V30 3683 O 332.733 -3.56773 -2.06849 0
M  V30 3684 H 332.074 -0.656403 -0.100158 0
M  V30 3685 H 334.604 -2.02033 0.3231 0
M  V30 3686 H 334.614 -3.87745 -1.26955 0
M  V30 3687 H 333.289 -4.15624 -0.15143 0
M  V30 3688 H 331.866 -3.28597 -1.76292 0
M  V30 3689 N 334.051 0.0651679 -1.57465 0
M  V30 3690 C 335.298 0.763063 -1.87573 0
M  V30 3691 C 335.626 1.77242 -0.800961 0
M  V30 3692 O 334.881 1.94651 0.202316 0
M  V30 3693 C 335.18 1.50081 -3.24362 0
M  V30 3694 C 334.846 0.630816 -4.46466 0
M  V30 3695 C 333.508 0.391082 -4.79608 0
M  V30 3696 C 335.86 0.0279465 -5.21193 0
M  V30 3697 C 333.188 -0.460894 -5.84887 0
M  V30 3698 C 335.54 -0.811522 -6.27373 0
M  V30 3699 C 334.204 -1.06106 -6.59013 0
M  V30 3700 H 333.474 0.279224 -0.686378 0
M  V30 3701 H 336.121 0.0236726 -1.91485 0
M  V30 3702 H 334.426 2.31258 -3.16271 0
M  V30 3703 H 336.123 2.04571 -3.44894 0
M  V30 3704 H 332.713 0.8278 -4.2053 0
M  V30 3705 H 336.897 0.200262 -4.95896 0
M  V30 3706 H 332.153 -0.662907 -6.07796 0
M  V30 3707 H 336.327 -1.28537 -6.84435 0
M  V30 3708 H 333.954 -1.723 -7.40417 0
M  V30 3709 N 335.529 1.53961 0.336706 0
M  V30 3710 C 336.94 1.62914 0.911925 0
M  V30 3711 C 337.291 0.514795 1.89326 0
M  V30 3712 O 336.416 -0.354395 2.13478 0
M  V30 3713 C 337.011 2.95304 1.66076 0
M  V30 3714 C 335.57 3.06496 2.18489 0
M  V30 3715 C 334.717 2.58403 1.00613 0
M  V30 3716 H 337.668 1.58285 0.114649 0
M  V30 3717 H 337.689 2.84727 2.5241 0
M  V30 3718 H 337.201 3.76387 0.946276 0
M  V30 3719 H 335.302 2.3006 2.93092 0
M  V30 3720 H 335.415 4.1208 2.44391 0
M  V30 3721 H 333.779 2.13977 1.38152 0
M  V30 3722 H 334.562 3.41932 0.306179 0
M  V30 3723 N 337.007 -0.598083 1.45811 0
M  V30 3724 C 337.937 -1.71873 1.58057 0
M  V30 3725 C 338.918 -1.64533 0.431615 0
M  V30 3726 O 340.103 -1.82787 0.65595 0
M  V30 3727 C 337.233 -3.10495 1.55597 0
M  V30 3728 C 336.187 -3.32654 2.69305 0
M  V30 3729 C 335.513 -4.71646 2.51902 0
M  V30 3730 C 336.813 -3.21981 4.11248 0
M  V30 3731 H 338.507 -1.61881 2.51863 0
M  V30 3732 H 336.053 -0.777372 1.21214 0
M  V30 3733 H 338.006 -3.88699 1.6276 0
M  V30 3734 H 336.73 -3.2135 0.583255 0
M  V30 3735 H 335.389 -2.56843 2.61586 0
M  V30 3736 H 335.037 -4.79246 1.52748 0
M  V30 3737 H 334.737 -4.87426 3.2816 0
M  V30 3738 H 336.261 -5.52038 2.60933 0
M  V30 3739 H 337.675 -3.90049 4.20161 0
M  V30 3740 H 336.072 -3.49289 4.87972 0
M  V30 3741 H 337.142 -2.1928 4.32486 0
M  V30 3742 N 338.485 -1.33259 -0.841409 0
M  V30 3743 C 339.732 -1.24572 -1.5965 0
M  V30 3744 C 340.06 0.189137 -1.93578 0
M  V30 3745 O 339.315 1.14566 -1.5866 0
M  V30 3746 C 339.614 -2.06381 -2.9179 0
M  V30 3747 C 339.28 -3.556 -2.77235 0
M  V30 3748 C 337.942 -3.96282 -2.72973 0
M  V30 3749 C 340.294 -4.50433 -2.62221 0
M  V30 3750 C 337.622 -5.30017 -2.51592 0
M  V30 3751 C 339.974 -5.84327 -2.42374 0
M  V30 3752 C 338.638 -6.24194 -2.36512 0
M  V30 3753 H 337.908 -0.455842 -0.5842 0
M  V30 3754 H 340.555 -1.6482 -0.975016 0
M  V30 3755 H 338.86 -1.58903 -3.5813 0
M  V30 3756 H 340.557 -1.97019 -3.49263 0
M  V30 3757 H 337.147 -3.23298 -2.81384 0
M  V30 3758 H 341.331 -4.19914 -2.64549 0
M  V30 3759 H 336.587 -5.59947 -2.45499 0
M  V30 3760 H 340.761 -6.57414 -2.29739 0
M  V30 3761 H 338.388 -7.27759 -2.19706 0
M  V30 3762 N 339.963 1.05934 -1.16686 0
M  V30 3763 C 341.211 1.78447 -0.948744 0
M  V30 3764 C 341.532 1.87813 0.524523 0
M  V30 3765 O 340.802 1.38945 1.38098 0
M  V30 3766 H 339.382 0.660971 -0.348033 0
M  V30 3767 H 342.044 1.27947 -1.47022 0
M  V30 3768 H 341.14 2.80394 -1.37061 0
M  V30 3769 N 341.441 0.965919 1.2453 0
M  V30 3770 C 342.351 0.502154 2.29163 0
M  V30 3771 C 343.367 -0.436017 1.68448 0
M  V30 3772 O 344.543 -0.309497 1.99008 0
M  V30 3773 C 341.608 -0.201956 3.46111 0
M  V30 3774 C 340.669 0.775821 4.22232 0
M  V30 3775 C 339.902 0.105217 5.33596 0
M  V30 3776 O 340.125 -1.10683 5.59558 0
M  V30 3777 O 339.059 0.796475 5.96607 0
M  V30 3778 H 342.885 1.37194 2.70946 0
M  V30 3779 H 340.47 0.732875 1.30189 0
M  V30 3780 H 342.352 -0.597564 4.17142 0
M  V30 3781 H 341.027 -1.04673 3.06309 0
M  V30 3782 H 339.934 1.22185 3.53584 0
M  V30 3783 H 341.267 1.58896 4.65846 0
M  V30 3784 N 342.919 -1.39368 0.735821 0
M  V30 3785 C 344.168 -1.99733 0.281004 0
M  V30 3786 C 344.481 -1.59055 -1.13846 0
M  V30 3787 O 345.687 -2.12262 -1.69284 0
M  V30 3788 C 344.143 -3.57057 0.451462 0
M  V30 3789 C 343.751 -4.06697 1.87886 0
M  V30 3790 C 345.495 -4.2446 0.0584616 0
M  V30 3791 C 343.402 -5.56598 1.99883 0
M  V30 3792 H 342.332 -0.747163 0.101311 0
M  V30 3793 H 344.983 -1.59357 0.909819 0
M  V30 3794 H 343.365 -3.95234 -0.246263 0
M  V30 3795 H 344.539 -3.79853 2.60861 0
M  V30 3796 H 342.854 -3.5196 2.22515 0
M  V30 3797 H 345.451 -5.34549 0.127099 0
M  V30 3798 H 345.794 -4.04444 -0.986433 0
M  V30 3799 H 346.327 -3.9146 0.707374 0
M  V30 3800 H 343.066 -5.81494 3.02564 0
M  V30 3801 H 342.586 -5.85242 1.31346 0
M  V30 3802 H 344.265 -6.22022 1.78039 0
M  V30 3803 N 344.397 -0.483516 -1.5 0
M  V30 3804 C 345.345 0.318061 -2.30415 0
M  V30 3805 C 346.339 0.978988 -1.38247 0
M  V30 3806 O 347.545 0.908673 -1.55381 0
M  V30 3807 H 343.92 0.121419 -0.742133 0
M  V30 3808 H 345.891 -0.380403 -2.95965 0
M  V30 3809 C 344.64 1.38013 -3.19136 0
M  V30 3810 H 343.963 0.880952 -3.89973 0
M  V30 3811 H 345.403 1.91332 -3.78375 0
M  V30 3812 C 343.862 2.38884 -2.37563 0
M  V30 3813 O 344.392 3.44412 -2.06744 0
M  V30 3814 N 342.598 2.10912 -1.99911 0
M  V30 3815 H 342.145 1.25118 -2.25174 0
M  V30 3816 H 342.103 2.78635 -1.45636 0
M  V30 3817 N 345.875 1.56104 -0.216619 0
M  V30 3818 C 347.103 2.02563 0.421413 0
M  V30 3819 C 347.518 1.0965 1.53695 0
M  V30 3820 O 346.875 0.10521 1.82196 0
M  V30 3821 C 346.926 3.48584 0.957665 0
M  V30 3822 O 346.647 4.37953 -0.113389 0
M  V30 3823 C 348.148 4.10664 1.66943 0
M  V30 3824 H 345.368 0.662944 0.103665 0
M  V30 3825 H 347.912 2.01793 -0.331629 0
M  V30 3826 H 346.067 3.49985 1.661 0
M  V30 3827 H 346.481 5.23704 0.288932 0
M  V30 3828 H 347.955 5.14622 1.99671 0
M  V30 3829 H 348.432 3.55373 2.58083 0
M  V30 3830 H 349.038 4.13098 1.01142 0
M  V30 3831 N 347.353 -0.0568162 1.57498 0
M  V30 3832 C 348.263 -1.08346 2.08083 0
M  V30 3833 C 349.279 -1.41439 1.01346 0
M  V30 3834 O 350.455 -1.51316 1.32912 0
M  V30 3835 C 347.52 -2.37352 2.52715 0
M  V30 3836 C 346.581 -2.11093 3.73816 0
M  V30 3837 C 345.814 -3.33949 4.1631 0
M  V30 3838 O 346.037 -4.43622 3.58547 0
M  V30 3839 O 344.971 -3.21279 5.08983 0
M  V30 3840 H 348.797 -0.683667 2.95905 0
M  V30 3841 H 346.382 -0.271965 1.46904 0
M  V30 3842 H 348.264 -3.13246 2.81877 0
M  V30 3843 H 346.939 -2.76681 1.68016 0
M  V30 3844 H 345.846 -1.32856 3.49714 0
M  V30 3845 H 347.179 -1.76637 4.59413 0
M  V30 3846 N 348.832 -1.54138 -0.328536 0
M  V30 3847 C 349.78 -1.83894 -1.42428 0
M  V30 3848 C 350.774 -0.710478 -1.53781 0
M  V30 3849 O 351.98 -0.894062 -1.56226 0
M  V30 3850 H 348.355 -0.582837 -0.475189 0
M  V30 3851 H 350.326 -2.75537 -1.14552 0
M  V30 3852 C 349.075 -2.07866 -2.78724 0
M  V30 3853 H 348.398 -2.94158 -2.7076 0
M  V30 3854 H 349.838 -2.32644 -3.54476 0
M  V30 3855 C 348.297 -0.868689 -3.25508 0
M  V30 3856 O 348.827 -0.0754908 -4.01629 0
M  V30 3857 N 347.033 -0.681711 -2.82491 0
M  V30 3858 H 346.58 -1.32838 -2.20708 0
M  V30 3859 H 346.538 0.126374 -3.14146 0
M  V30 3860 N 350.31 0.590341 -1.46126 0
M  V30 3861 C 351.54 1.37304 -1.54373 0
M  V30 3862 C 351.948 1.88332 -0.181071 0
M  V30 3863 O 351.291 1.63852 0.830559 0
M  V30 3864 C 351.353 2.6012 -2.48149 0
M  V30 3865 C 351.017 2.30613 -3.94546 0
M  V30 3866 C 352.014 1.89915 -4.83971 0
M  V30 3867 C 349.699 2.42993 -4.39613 0
M  V30 3868 C 351.693 1.61981 -6.16475 0
M  V30 3869 C 349.38 2.14672 -5.72153 0
M  V30 3870 C 350.378 1.7423 -6.60404 0
M  V30 3871 O 350.066 1.46251 -7.90485 0
M  V30 3872 H 349.798 0.426086 -0.524811 0
M  V30 3873 H 352.352 0.72539 -1.92165 0
M  V30 3874 H 350.582 3.27664 -2.05361 0
M  V30 3875 H 352.271 3.22182 -2.46887 0
M  V30 3876 H 353.037 1.79872 -4.50412 0
M  V30 3877 H 348.916 2.73435 -3.71153 0
M  V30 3878 H 352.46 1.30341 -6.85315 0
M  V30 3879 H 348.357 2.24337 -6.05263 0
M  V30 3880 H 349.125 1.6016 -8.02677 0
M  V30 3881 N 351.788 1.33704 0.83433 0
M  V30 3882 C 353.204 1.13137 1.12571 0
M  V30 3883 C 353.404 -0.0747261 2.01361 0
M  V30 3884 O 352.46 -0.753647 2.4099 0
M  V30 3885 C 353.773 2.42105 1.78342 0
M  V30 3886 C 355.321 2.48054 1.90888 0
M  V30 3887 C 355.796 3.76995 2.60075 0
M  V30 3888 N 357.287 3.78092 2.67584 0
M  V30 3889 C 358.022 4.74574 3.21818 0
M  V30 3890 N 357.518 5.81434 3.76705 0
M  V30 3891 N 359.311 4.62044 3.20112 0
M  V30 3892 H 351.462 2.11 0.243489 0
M  V30 3893 H 353.725 0.932532 0.17055 0
M  V30 3894 H 353.431 3.30391 1.20561 0
M  V30 3895 H 353.305 2.54594 2.7832 0
M  V30 3896 H 355.692 1.60215 2.47821 0
M  V30 3897 H 355.773 2.39502 0.898459 0
M  V30 3898 H 355.417 4.65219 2.03799 0
M  V30 3899 H 355.347 3.82825 3.61597 0
M  V30 3900 H 357.838 3.00865 2.28667 0
M  V30 3901 H 358.151 6.51084 4.16305 0
M  V30 3902 H 356.496 5.85163 3.7498 0
M  V30 3903 H 359.687 3.77716 2.76493 0
M  V30 3904 H 359.86 5.37406 3.62076 0
M  V30 3905 N 353.266 -1.05314 1.17247 0
M  V30 3906 C 354.513 -1.78293 0.960091 0
M  V30 3907 C 354.841 -1.87658 -0.51136 0
M  V30 3908 O 354.096 -1.3718 -1.39571 0
M  V30 3909 C 354.395 -3.2229 1.54479 0
M  V30 3910 C 354.061 -3.32987 3.04024 0
M  V30 3911 C 352.723 -3.35613 3.44844 0
M  V30 3912 C 355.075 -3.34102 4.00031 0
M  V30 3913 C 352.403 -3.36982 4.8027 0
M  V30 3914 C 354.755 -3.3701 5.35357 0
M  V30 3915 C 353.419 -3.37923 5.75642 0
M  V30 3916 H 352.689 -0.652422 0.351322 0
M  V30 3917 H 355.336 -1.23782 1.46117 0
M  V30 3918 H 353.641 -3.7972 0.965391 0
M  V30 3919 H 355.338 -3.77376 1.35603 0
M  V30 3920 H 351.928 -3.31655 2.71483 0
M  V30 3921 H 356.112 -3.31276 3.69554 0
M  V30 3922 H 351.368 -3.35999 5.10798 0
M  V30 3923 H 355.542 -3.36822 6.09528 0
M  V30 3924 H 353.169 -3.38738 6.80559 0
M  V30 3925 N 354.744 -0.972509 -1.24016 0
M  V30 3926 C 355.974 -0.653853 -1.9598 0
M  V30 3927 C 356.382 0.781801 -1.72292 0
M  V30 3928 O 355.725 1.53677 -1.00644 0
M  V30 3929 C 355.787 -0.854608 -3.49194 0
M  V30 3930 C 355.451 -2.27082 -3.96589 0
M  V30 3931 C 356.448 -3.24892 -4.05883 0
M  V30 3932 C 354.133 -2.5998 -4.29786 0
M  V30 3933 C 356.127 -4.53684 -4.47716 0
M  V30 3934 C 353.814 -3.88997 -4.71301 0
M  V30 3935 C 354.812 -4.85661 -4.80232 0
M  V30 3936 O 354.5 -6.12376 -5.20818 0
M  V30 3937 H 354.232 -0.242572 -0.630979 0
M  V30 3938 H 356.786 -1.30431 -1.58673 0
M  V30 3939 H 355.016 -0.146985 -3.86421 0
M  V30 3940 H 356.705 -0.534311 -4.02368 0
M  V30 3941 H 357.471 -3.00805 -3.80449 0
M  V30 3942 H 353.35 -1.85457 -4.22051 0
M  V30 3943 H 356.894 -5.29135 -4.54601 0
M  V30 3944 H 352.791 -4.12882 -4.96184 0
M  V30 3945 H 353.559 -6.16013 -5.38953 0
M  V30 3946 N 356.222 1.38976 -0.743202 0
M  V30 3947 C 357.185 2.28901 -0.117014 0
M  V30 3948 C 358.185 1.46698 0.658503 0
M  V30 3949 O 359.375 1.67274 0.486305 0
M  V30 3950 C 356.507 3.30309 0.84315 0
M  V30 3951 H 357.7 2.8578 -0.909373 0
M  V30 3952 H 355.253 1.47761 -0.509547 0
M  V30 3953 H 355.988 2.785 1.66157 0
M  V30 3954 H 355.773 3.91029 0.289594 0
M  V30 3955 H 357.263 3.97577 1.2776 0
M  V30 3956 N 357.7 0.491464 1.49741 0
M  V30 3957 C 358.61 -0.296835 2.32715 0
M  V30 3958 C 359.626 -0.976536 1.44013 0
M  V30 3959 O 360.802 -0.960023 1.77047 0
M  V30 3960 C 357.867 -1.35288 3.19215 0
M  V30 3961 C 356.928 -0.687632 4.23757 0
M  V30 3962 C 356.161 -1.69336 5.06123 0
M  V30 3963 O 356.384 -2.92219 4.89861 0
M  V30 3964 O 355.318 -1.25394 5.88693 0
M  V30 3965 H 359.144 0.382048 3.01287 0
M  V30 3966 H 356.729 0.252953 1.47243 0
M  V30 3967 H 358.611 -1.96411 3.72828 0
M  V30 3968 H 357.286 -2.01487 2.53347 0
M  V30 3969 H 356.193 -0.0369159 3.74082 0
M  V30 3970 H 357.526 -0.0682566 4.92153 0
M  V30 3971 N 359.178 -1.55987 0.224894 0
M  V30 3972 C 360.403 -2.03232 -0.41369 0
M  V30 3973 C 360.828 -1.10359 -1.52323 0
M  V30 3974 O 360.186 -0.092395 -1.81064 0
M  V30 3975 C 360.234 -3.48682 -0.919405 0
M  V30 3976 O 359.338 -3.58947 -2.03054 0
M  V30 3977 H 358.679 -0.657428 -0.0931903 0
M  V30 3978 H 361.209 -2.01679 0.34451 0
M  V30 3979 H 361.219 -3.8907 -1.22835 0
M  V30 3980 H 359.894 -4.15761 -0.107339 0
M  V30 3981 H 358.471 -3.30448 -1.72796 0
M  V30 3982 N 360.656 0.0484629 -1.57525 0
M  V30 3983 C 362.067 0.597486 -1.76881 0
M  V30 3984 C 362.418 1.76664 -0.853475 0
M  V30 3985 O 361.543 2.16357 -0.0433656 0
M  V30 3986 C 362.138 1.09066 -3.20765 0
M  V30 3987 C 360.697 1.58535 -3.41385 0
M  V30 3988 C 359.844 0.514868 -2.72478 0
M  V30 3989 H 362.795 -0.177758 -1.57701 0
M  V30 3990 H 362.816 1.95875 -3.2621 0
M  V30 3991 H 362.328 0.239521 -3.8736 0
M  V30 3992 H 360.429 2.45898 -2.79937 0
M  V30 3993 H 360.542 1.64622 -4.49929 0
M  V30 3994 H 358.906 0.965407 -2.35695 0
M  V30 3995 H 359.689 -0.32648 -3.41744 0
M  V30 3996 N 362.134 1.5431 0.320358 0
M  V30 3997 C 363.081 1.83918 1.39438 0
M  V30 3998 C 364.051 0.686525 1.51248 0
M  V30 3999 O 365.236 0.933269 1.66417 0
M  V30 4000 C 362.376 2.075 2.75749 0
M  V30 4001 C 361.489 3.35177 2.72544 0
M  V30 4002 C 360.624 3.48704 4.00723 0
M  V30 4003 C 359.663 4.70244 3.91838 0
M  V30 4004 N 358.8 4.80679 5.11754 0
M  V30 4005 H 363.64 2.75544 1.13489 0
M  V30 4006 H 361.177 1.36459 0.549309 0
M  V30 4007 H 363.135 2.19166 3.54996 0
M  V30 4008 H 361.765 1.19163 3 0
M  V30 4009 H 360.817 3.32233 1.85271 0
M  V30 4010 H 362.129 4.24534 2.61863 0
M  V30 4011 H 361.283 3.59928 4.88402 0
M  V30 4012 H 360.022 2.57445 4.14214 0
M  V30 4013 H 359.027 4.59072 3.02544 0
M  V30 4014 H 360.252 5.6289 3.7991 0
M  V30 4015 H 358.198 3.92337 5.25745 0
M  V30 4016 H 358.115 5.64007 5.0342 0
M  V30 4017 H 359.383 4.96239 6.01138 0
M  V30 4018 N 363.613 -0.582584 1.46437 0
M  V30 4019 C 364.523 -1.71949 1.59595 0
M  V30 4020 C 365.539 -1.67264 0.479443 0
M  V30 4021 O 366.715 -1.87171 0.743579 0
M  V30 4022 C 363.78 -3.08452 1.58298 0
M  V30 4023 C 362.841 -3.244 2.81182 0
M  V30 4024 C 362.074 -4.54391 2.79937 0
M  V30 4025 O 362.297 -5.38287 1.8869 0
M  V30 4026 O 361.231 -4.73588 3.71481 0
M  V30 4027 H 365.057 -1.63795 2.55744 0
M  V30 4028 H 362.642 -0.749643 1.29231 0
M  V30 4029 H 364.524 -3.89732 1.60271 0
M  V30 4030 H 363.199 -3.17043 0.653094 0
M  V30 4031 H 362.106 -2.42613 2.84763 0
M  V30 4032 H 363.439 -3.20699 3.7338 0
M  V30 4033 N 365.091 -1.34144 -0.827227 0
M  V30 4034 C 366.021 -1.28005 -1.95287 0
M  V30 4035 C 367.002 -0.158321 -1.69362 0
M  V30 4036 O 368.187 -0.349987 -1.9102 0
M  V30 4037 C 365.317 -1.03036 -3.31664 0
M  V30 4038 C 364.271 -2.11628 -3.72019 0
M  V30 4039 C 363.597 -1.71854 -5.0633 0
M  V30 4040 C 364.897 -3.53417 -3.8457 0
M  V30 4041 H 366.591 -2.22187 -2.00682 0
M  V30 4042 H 364.137 -1.0696 -0.964135 0
M  V30 4043 H 366.09 -0.973863 -4.09993 0
M  V30 4044 H 364.814 -0.0529391 -3.26557 0
M  V30 4045 H 363.473 -2.16339 -2.95961 0
M  V30 4046 H 363.121 -0.727841 -4.97706 0
M  V30 4047 H 362.821 -2.44531 -5.34302 0
M  V30 4048 H 364.345 -1.67692 -5.87122 0
M  V30 4049 H 365.759 -3.51142 -4.5318 0
M  V30 4050 H 364.156 -4.24679 -4.2399 0
M  V30 4051 H 365.226 -3.91072 -2.86689 0
M  V30 4052 N 366.569 1.04691 -1.17803 0
M  V30 4053 C 367.815 1.78045 -0.970969 0
M  V30 4054 C 368.148 1.87686 0.498751 0
M  V30 4055 O 367.423 1.38035 1.37027 0
M  V30 4056 C 367.706 3.2166 -1.61884 0
M  V30 4057 C 367.559 3.20001 -3.161 0
M  V30 4058 C 368.878 4.1962 -1.3269 0
M  V30 4059 H 365.997 0.64633 -0.354155 0
M  V30 4060 H 368.639 1.22333 -1.45378 0
M  V30 4061 H 366.789 3.69232 -1.20831 0
M  V30 4062 H 368.461 2.80467 -3.66246 0
M  V30 4063 H 366.704 2.58203 -3.48588 0
M  V30 4064 H 367.375 4.21386 -3.56564 0
M  V30 4065 H 369.851 3.80567 -1.68249 0
M  V30 4066 H 368.727 5.18339 -1.80599 0
M  V30 4067 H 368.988 4.414 -0.248622 0
M  V30 4068 N 368.047 0.979072 1.23499 0
M  V30 4069 C 369.293 0.6578 1.9247 0
M  V30 4070 C 369.648 -0.799746 1.74991 0
M  V30 4071 O 368.941 -1.56922 1.09937 0
M  V30 4072 C 369.135 0.981932 3.43646 0
M  V30 4073 C 368.964 2.46944 3.75831 0
M  V30 4074 C 367.734 3.13119 3.96591 0
M  V30 4075 C 369.932 3.45006 3.81412 0
M  V30 4076 N 367.914 4.51489 4.15969 0
M  V30 4077 C 369.285 4.68778 4.05768 0
M  V30 4078 C 371.34 3.39505 3.64198 0
M  V30 4079 C 370.043 5.87723 4.14697 0
M  V30 4080 C 372.069 4.57814 3.7438 0
M  V30 4081 C 371.431 5.80381 3.99171 0
M  V30 4082 H 367.53 0.291746 0.72554 0
M  V30 4083 H 370.114 1.25626 1.48749 0
M  V30 4084 H 368.285 0.412179 3.86207 0
M  V30 4085 H 370.017 0.618068 3.99953 0
M  V30 4086 H 366.772 2.63619 3.93449 0
M  V30 4087 H 367.196 5.23221 4.29615 0
M  V30 4088 H 371.838 2.45773 3.44029 0
M  V30 4089 H 369.556 6.81874 4.33675 0
M  V30 4090 H 373.142 4.55132 3.62417 0
M  V30 4091 H 372.022 6.70398 4.06861 0
M  V30 4092 N 369.525 -1.3858 0.750561 0
M  V30 4093 C 370.771 -2.00481 0.305825 0
M  V30 4094 C 371.104 -1.5944 -1.10872 0
M  V30 4095 O 370.379 -0.83052 -1.75877 0
M  V30 4096 C 370.662 -3.5758 0.425287 0
M  V30 4097 C 370.515 -4.08594 1.88072 0
M  V30 4098 C 371.834 -4.39719 -0.183122 0
M  V30 4099 H 368.953 -0.728348 0.112598 0
M  V30 4100 H 371.595 -1.64566 0.949638 0
M  V30 4101 H 369.745 -3.88306 -0.122828 0
M  V30 4102 H 371.417 -3.88523 2.48691 0
M  V30 4103 H 369.66 -3.61574 2.39681 0
M  V30 4104 H 370.331 -5.177 1.91548 0
M  V30 4105 H 372.807 -4.15128 0.284303 0
M  V30 4106 H 371.683 -5.48856 -0.0692757 0
M  V30 4107 H 371.944 -4.23434 -1.27106 0
M  V30 4108 N 371.003 -0.499398 -1.49478 0
M  V30 4109 C 372.243 0.0440751 -2.04352 0
M  V30 4110 C 372.607 1.34423 -1.37093 0
M  V30 4111 O 373.808 1.97184 -1.82679 0
M  V30 4112 C 372.079 0.194918 -3.56868 0
M  V30 4113 S 373.638 0.69287 -4.33295 0
M  V30 4114 H 370.456 0.00253458 -0.710995 0
M  V30 4115 H 373.058 -0.673 -1.83551 0
M  V30 4116 H 371.762 -0.756672 -4.03364 0
M  V30 4117 H 371.293 0.93728 -3.82071 0
M  V30 4118 H 373.308 1.96226 -4.55752 0
M  V30 4119 N 372.481 1.55866 -0.233164 0
M  V30 4120 C 373.444 2.1953 0.658715 0
M  V30 4121 C 374.444 1.16053 1.11303 0
M  V30 4122 O 375.634 1.41218 1.01996 0
M  V30 4123 C 372.766 2.82791 1.90373 0
M  V30 4124 H 373.959 2.99721 0.10347 0
M  V30 4125 H 371.512 1.56291 0.0164245 0
M  V30 4126 H 372.247 2.06501 2.50056 0
M  V30 4127 H 372.032 3.58578 1.58632 0
M  V30 4128 H 373.522 3.31556 2.53891 0
M  V30 4129 N 373.959 -0.0401083 1.57549 0
M  V30 4130 C 375.187 -0.745196 1.93014 0
M  V30 4131 C 375.602 -1.6948 0.831984 0
M  V30 4132 O 374.959 -1.81482 -0.192463 0
M  V30 4133 C 375.01 -1.51176 3.28372 0
M  V30 4134 O 374.731 -0.600284 4.33968 0
M  V30 4135 C 376.232 -2.315 3.78051 0
M  V30 4136 H 373.452 -0.210088 0.637263 0
M  V30 4137 H 375.996 -0.000924689 2.045 0
M  V30 4138 H 374.151 -2.20801 3.18317 0
M  V30 4139 H 374.565 -1.13669 5.12035 0
M  V30 4140 H 376.039 -2.80697 4.75303 0
M  V30 4141 H 376.516 -3.12436 3.08675 0
M  V30 4142 H 377.122 -1.66971 3.91153 0
M  V30 4143 N 375.437 -1.54477 -0.31217 0
M  V30 4144 C 376.667 -1.76948 -1.06645 0
M  V30 4145 C 377.075 -0.523593 -1.81811 0
M  V30 4146 O 376.418 0.51578 -1.76311 0
M  V30 4147 C 376.48 -2.91668 -2.10166 0
M  V30 4148 C 376.144 -4.30165 -1.54296 0
M  V30 4149 C 377.141 -5.10603 -0.978793 0
M  V30 4150 C 374.826 -4.76738 -1.58196 0
M  V30 4151 C 376.82 -6.3573 -0.461048 0
M  V30 4152 C 374.507 -6.01831 -1.06034 0
M  V30 4153 C 375.505 -6.81161 -0.500844 0
M  V30 4154 O 375.193 -8.03899 0.0128958 0
M  V30 4155 H 374.925 -0.594088 -0.322546 0
M  V30 4156 H 377.479 -2.02213 -0.360441 0
M  V30 4157 H 375.709 -2.62001 -2.84416 0
M  V30 4158 H 377.398 -3.01817 -2.71406 0
M  V30 4159 H 378.164 -4.75771 -0.941651 0
M  V30 4160 H 374.043 -4.15027 -2.00683 0
M  V30 4161 H 377.587 -6.97596 -0.0236894 0
M  V30 4162 H 373.484 -6.36152 -1.09459 0
M  V30 4163 H 374.252 -8.18437 -0.101457 0
M  V30 4164 N 376.915 0.57481 -1.46744 0
M  V30 4165 C 377.825 1.711 -1.60505 0
M  V30 4166 C 378.841 1.67008 -0.488307 0
M  V30 4167 O 380.017 1.86774 -0.753495 0
M  V30 4168 C 377.082 3.07608 -1.59932 0
M  V30 4169 C 376.143 3.22904 -2.82898 0
M  V30 4170 C 375.376 4.529 -2.82343 0
M  V30 4171 O 375.599 5.37278 -1.91542 0
M  V30 4172 O 374.533 4.71611 -3.73987 0
M  V30 4173 H 378.359 1.62436 -2.56609 0
M  V30 4174 H 375.944 0.742779 -1.29627 0
M  V30 4175 H 377.826 3.88877 -1.62336 0
M  V30 4176 H 376.501 3.16692 -0.669898 0
M  V30 4177 H 375.408 2.41099 -2.86046 0
M  V30 4178 H 376.741 3.18715 -3.75076 0
M  V30 4179 N 378.394 1.34581 0.820102 0
M  V30 4180 C 379.326 1.22236 1.93884 0
M  V30 4181 C 380.339 0.148776 1.62119 0
M  V30 4182 O 381.528 0.400877 1.7394 0
M  V30 4183 C 378.628 0.856542 3.27897 0
M  V30 4184 C 377.801 2.02569 3.87666 0
M  V30 4185 C 376.86 1.63782 5.00062 0
M  V30 4186 O 375.886 2.35477 5.18208 0
M  V30 4187 N 377.088 0.553611 5.77854 0
M  V30 4188 H 379.853 2.18615 2.05006 0
M  V30 4189 H 377.414 1.27573 0.99683 0
M  V30 4190 H 379.406 0.578806 4.0054 0
M  V30 4191 H 377.976 -0.0171518 3.12595 0
M  V30 4192 H 377.196 2.468 3.07382 0
M  V30 4193 H 378.484 2.80752 4.24329 0
M  V30 4194 H 377.882 -0.0423528 5.65684 0
M  V30 4195 H 376.439 0.335614 6.50935 0
M  V30 4196 N 379.872 -1.04064 1.18357 0
M  V30 4197 C 381.102 -1.80654 1.00238 0
M  V30 4198 C 381.51 -1.83713 -0.452362 0
M  V30 4199 O 380.853 -1.27135 -1.32599 0
M  V30 4200 C 380.915 -3.27582 1.48088 0
M  V30 4201 C 380.579 -3.48184 2.96002 0
M  V30 4202 C 381.576 -3.39372 3.93856 0
M  V30 4203 C 379.261 -3.7478 3.34433 0
M  V30 4204 C 381.255 -3.5686 5.28138 0
M  V30 4205 C 378.942 -3.91915 4.68877 0
M  V30 4206 C 379.94 -3.82956 5.65539 0
M  V30 4207 O 379.628 -3.996 6.97549 0
M  V30 4208 H 379.36 -0.575751 0.354241 0
M  V30 4209 H 381.914 -1.32044 1.57333 0
M  V30 4210 H 380.144 -3.77161 0.853588 0
M  V30 4211 H 381.833 -3.8573 1.2636 0
M  V30 4212 H 382.599 -3.18789 3.65511 0
M  V30 4213 H 378.478 -3.80852 2.59756 0
M  V30 4214 H 382.022 -3.49783 6.03571 0
M  V30 4215 H 377.919 -4.11992 4.96923 0
M  V30 4216 H 378.687 -4.1676 7.04452 0
M  V30 4217 N 381.35 -0.985608 -1.22978 0
M  V30 4218 C 382.298 -0.522631 -2.26652 0
M  V30 4219 C 383.292 0.422998 -1.64034 0
M  V30 4220 O 384.498 0.296319 -1.77544 0
M  V30 4221 H 380.873 -0.150597 -0.736766 0
M  V30 4222 H 382.844 -1.40863 -2.63059 0
M  V30 4223 C 381.593 0.154238 -3.47358 0
M  V30 4224 H 380.916 -0.564329 -3.95797 0
M  V30 4225 H 382.356 0.441744 -4.21693 0
M  V30 4226 C 380.815 1.38719 -3.07016 0
M  V30 4227 O 381.345 2.48307 -3.15764 0
M  V30 4228 N 379.551 1.25975 -2.61875 0
M  V30 4229 H 379.098 0.368068 -2.54957 0
M  V30 4230 H 379.056 2.08578 -2.3525 0
M  V30 4231 N 382.828 1.3818 -0.7579 0
M  V30 4232 C 383.738 2.3421 -0.135247 0
M  V30 4233 C 384.754 1.59487 0.695683 0
M  V30 4234 O 385.93 1.91657 0.618832 0
M  V30 4235 C 382.995 3.3862 0.744139 0
M  V30 4236 C 382.056 4.2918 -0.101658 0
M  V30 4237 C 381.289 5.28603 0.735851 0
M  V30 4238 O 381.512 5.35166 1.97366 0
M  V30 4239 O 380.446 6.01707 0.152372 0
M  V30 4240 H 384.272 2.8916 -0.928436 0
M  V30 4241 H 381.857 1.40101 -0.518855 0
M  V30 4242 H 383.739 4.02539 1.2466 0
M  V30 4243 H 382.414 2.86019 1.51575 0
M  V30 4244 H 381.321 3.68407 -0.650167 0
M  V30 4245 H 382.654 4.85048 -0.836024 0
M  V30 4246 N 384.306 0.507319 1.49211 0
M  V30 4247 C 385.555 -0.0368315 2.01666 0
M  V30 4248 C 385.868 -1.37459 1.39156 0
M  V30 4249 O 387.074 -2.00579 1.82976 0
M  V30 4250 C 385.53 -0.116089 3.59713 0
M  V30 4251 C 385.138 1.2154 4.31198 0
M  V30 4252 C 386.882 -0.610268 4.2009 0
M  V30 4253 C 384.789 1.09796 5.81119 0
M  V30 4254 H 383.719 -0.0175376 0.753796 0
M  V30 4255 H 386.37 0.647691 1.71689 0
M  V30 4256 H 384.752 -0.8652 3.86433 0
M  V30 4257 H 385.926 1.9783 4.16173 0
M  V30 4258 H 384.241 1.64352 3.82593 0
M  V30 4259 H 386.838 -0.715742 5.29888 0
M  V30 4260 H 387.181 -1.61064 3.8388 0
M  V30 4261 H 387.714 0.0824916 3.97714 0
M  V30 4262 H 384.453 2.0728 6.21864 0
M  V30 4263 H 383.973 0.376058 5.9862 0
M  V30 4264 H 385.652 0.779281 6.4229 0
M  V30 4265 N 385.784 -1.5574 0.241426 0
M  V30 4266 C 386.731 -2.21149 -0.660432 0
M  V30 4267 C 387.701 -1.17356 -1.17545 0
M  V30 4268 O 388.886 -1.45784 -1.23093 0
M  V30 4269 C 386.026 -2.91059 -1.85414 0
M  V30 4270 C 385.139 -4.09495 -1.37616 0
M  V30 4271 C 384.274 -4.67135 -2.529 0
M  V30 4272 C 383.313 -5.77831 -2.01936 0
M  V30 4273 N 382.45 -6.29677 -3.10566 0
M  V30 4274 H 387.29 -2.97845 -0.095955 0
M  V30 4275 H 384.827 -1.47057 -0.0356024 0
M  V30 4276 H 386.785 -3.29788 -2.5553 0
M  V30 4277 H 385.415 -2.16846 -2.39118 0
M  V30 4278 H 384.467 -3.76117 -0.569235 0
M  V30 4279 H 385.779 -4.89423 -0.962618 0
M  V30 4280 H 384.933 -5.08409 -3.31067 0
M  V30 4281 H 383.672 -3.86411 -2.97553 0
M  V30 4282 H 382.677 -5.36039 -1.22238 0
M  V30 4283 H 383.902 -6.60402 -1.58259 0
M  V30 4284 H 381.848 -5.5186 -3.54664 0
M  V30 4285 H 381.765 -7.04783 -2.73526 0
M  V30 4286 H 383.033 -6.75609 -3.88809 0
M  V30 4287 N 387.262 0.0317525 -1.57568 0
M  V30 4288 C 388.172 1.05021 -2.0978 0
M  V30 4289 C 389.188 1.39809 -1.03583 0
M  V30 4290 O 390.364 1.49182 -1.35302 0
M  V30 4291 C 387.429 2.33301 -2.56459 0
M  V30 4292 C 386.49 2.0512 -3.77127 0
M  V30 4293 C 385.723 3.27283 -4.2157 0
M  V30 4294 O 385.946 4.37861 -3.65559 0
M  V30 4295 O 384.88 3.13141 -5.14029 0
M  V30 4296 H 388.706 0.636505 -2.96955 0
M  V30 4297 H 386.291 0.248559 -1.47318 0
M  V30 4298 H 388.173 3.08722 -2.86825 0
M  V30 4299 H 386.848 2.73973 -1.72397 0
M  V30 4300 H 385.755 1.27276 -3.51784 0
M  V30 4301 H 387.088 1.69305 -4.62165 0
M  V30 4302 N 388.74 1.54641 0.303973 0
M  V30 4303 C 389.69 1.8177 1.37636 0
M  V30 4304 C 390.674 0.674697 1.46071 0
M  V30 4305 O 391.866 0.935251 1.50273 0
M  V30 4306 C 388.995 2.06584 2.74186 0
M  V30 4307 C 388.081 3.2706 2.69986 0
M  V30 4308 N 388.472 4.47682 2.35402 0
M  V30 4309 C 386.77 3.29028 3.01092 0
M  V30 4310 C 387.471 5.29689 2.40426 0
M  V30 4311 N 386.447 4.67339 2.7766 0
M  V30 4312 H 390.249 2.72596 1.09857 0
M  V30 4313 H 387.763 1.541 0.51254 0
M  V30 4314 H 389.76 2.24166 3.51504 0
M  V30 4315 H 388.42 1.17024 3.02879 0
M  V30 4316 H 389.431 4.74336 2.07908 0
M  V30 4317 H 386.108 2.49565 3.34699 0
M  V30 4318 H 387.498 6.3606 2.16512 0
M  V30 4319 N 390.218 -0.567019 1.47046 0
M  V30 4320 C 391.464 -1.32658 1.53394 0
M  V30 4321 C 391.797 -1.93254 0.19148 0
M  V30 4322 O 391.072 -1.77338 -0.798844 0
M  V30 4323 C 391.355 -2.44412 2.64452 0
M  V30 4324 C 391.208 -1.88749 4.08282 0
M  V30 4325 C 392.527 -3.46387 2.71485 0
M  V30 4326 H 389.646 -0.48098 0.558415 0
M  V30 4327 H 392.288 -0.635481 1.79058 0
M  V30 4328 H 390.438 -3.03363 2.427 0
M  V30 4329 H 392.11 -1.34134 4.41368 0
M  V30 4330 H 390.353 -1.19481 4.17021 0
M  V30 4331 H 391.024 -2.69491 4.81745 0
M  V30 4332 H 393.5 -2.9734 2.91081 0
M  V30 4333 H 392.376 -4.2202 3.50985 0
M  V30 4334 H 392.637 -4.04616 1.78153 0
M  V30 4335 N 391.696 -1.35014 -0.812953 0
M  V30 4336 C 393.112 -1.14914 -1.10757 0
M  V30 4337 C 393.312 0.0426818 -2.01455 0
M  V30 4338 O 392.368 0.715212 -2.42159 0
M  V30 4339 C 393.681 -2.44911 -1.74468 0
M  V30 4340 C 395.229 -2.5106 -1.86917 0
M  V30 4341 C 395.704 -3.81085 -2.54044 0
M  V30 4342 N 397.195 -3.82301 -2.61535 0
M  V30 4343 C 397.93 -4.79634 -3.14227 0
M  V30 4344 N 397.426 -5.87353 -3.67407 0
M  V30 4345 N 399.219 -4.67078 -3.12721 0
M  V30 4346 H 391.37 -2.1136 -0.20989 0
M  V30 4347 H 393.633 -0.935128 -0.155692 0
M  V30 4348 H 393.339 -3.32267 -1.15289 0
M  V30 4349 H 393.213 -2.58989 -2.74234 0
M  V30 4350 H 395.6 -1.64137 -2.45241 0
M  V30 4351 H 395.681 -2.40901 -0.860242 0
M  V30 4352 H 395.325 -4.68402 -1.96372 0
M  V30 4353 H 395.255 -3.88529 -3.55461 0
M  V30 4354 H 397.746 -3.04465 -2.23851 0
M  V30 4355 H 398.059 -6.57624 -4.05894 0
M  V30 4356 H 396.404 -5.91054 -3.65623 0
M  V30 4357 H 399.595 -3.82067 -2.70449 0
M  V30 4358 H 399.768 -5.43098 -3.53481 0
M  V30 4359 N 393.175 1.03435 -1.18907 0
M  V30 4360 C 394.105 2.13503 -0.945448 0
M  V30 4361 C 395.086 1.69682 0.119189 0
M  V30 4362 O 396.271 1.94169 -0.034707 0
M  V30 4363 C 393.401 3.44004 -0.477316 0
M  V30 4364 C 392.355 4.0148 -1.48316 0
M  V30 4365 C 391.681 5.27537 -0.872311 0
M  V30 4366 C 392.981 4.36921 -2.86177 0
M  V30 4367 H 394.675 2.34141 -1.86597 0
M  V30 4368 H 392.221 1.12523 -0.898584 0
M  V30 4369 H 394.174 4.20372 -0.294204 0
M  V30 4370 H 392.898 3.23072 0.478786 0
M  V30 4371 H 391.557 3.27201 -1.65332 0
M  V30 4372 H 391.205 5.02917 0.0911752 0
M  V30 4373 H 390.905 5.66954 -1.54393 0
M  V30 4374 H 392.429 6.06576 -0.699871 0
M  V30 4375 H 393.843 5.04248 -2.72776 0
M  V30 4376 H 392.24 4.87405 -3.50081 0
M  V30 4377 H 393.31 3.46466 -3.39248 0
M  V30 4378 N 394.653 0.992116 1.22453 0
M  V30 4379 C 395.616 0.546883 2.2258 0
M  V30 4380 C 396.616 -0.369829 1.56489 0
M  V30 4381 O 397.806 -0.161896 1.73446 0
M  V30 4382 C 394.938 -0.204659 3.40285 0
M  V30 4383 H 396.131 1.43234 2.63484 0
M  V30 4384 H 393.684 0.779239 1.3549 0
M  V30 4385 H 394.419 -1.10614 3.04853 0
M  V30 4386 H 394.204 0.45354 3.89468 0
M  V30 4387 H 395.694 -0.504358 4.14543 0
M  V30 4388 N 396.131 -1.37776 0.765217 0
M  V30 4389 C 397.094 -2.28686 0.153416 0
M  V30 4390 C 398.094 -1.47727 -0.635081 0
M  V30 4391 O 399.284 -1.68027 -0.459632 0
M  V30 4392 C 396.416 -3.31608 -0.790495 0
M  V30 4393 H 397.609 -2.84297 0.954723 0
M  V30 4394 H 395.162 -1.46932 0.53299 0
M  V30 4395 H 395.897 -2.81109 -1.61705 0
M  V30 4396 H 395.682 -3.9144 -0.227348 0
M  V30 4397 H 397.172 -3.99559 -1.21419 0
M  V30 4398 N 397.609 -0.515225 -1.4894 0
M  V30 4399 C 398.541 0.292481 -2.27326 0
M  V30 4400 C 399.554 0.917838 -1.3446 0
M  V30 4401 O 400.743 0.798772 -1.5963 0
M  V30 4402 C 397.843 1.42803 -3.07344 0
M  V30 4403 C 397.016 0.907347 -4.27885 0
M  V30 4404 C 396.075 1.92222 -4.89834 0
M  V30 4405 O 395.101 1.48506 -5.49486 0
M  V30 4406 N 396.303 3.25355 -4.80754 0
M  V30 4407 H 399.068 -0.379721 -2.97285 0
M  V30 4408 H 396.629 -0.348638 -1.58102 0
M  V30 4409 H 398.621 2.10481 -3.45658 0
M  V30 4410 H 397.191 2.00414 -2.39902 0
M  V30 4411 H 396.411 0.0550218 -3.94162 0
M  V30 4412 H 397.699 0.538108 -5.05946 0
M  V30 4413 H 397.097 3.6355 -4.33414 0
M  V30 4414 H 395.654 3.88707 -5.23211 0
M  V30 4415 N 399.087 1.5561 -0.249682 0
M  V30 4416 C 399.997 2.25143 0.659375 0
M  V30 4417 C 401.013 1.2685 1.19101 0
M  V30 4418 O 402.189 1.59732 1.22669 0
M  V30 4419 C 399.254 2.93945 1.8384 0
M  V30 4420 C 398.315 4.07655 1.34596 0
M  V30 4421 C 397.548 4.73167 2.46878 0
M  V30 4422 O 397.771 4.37768 3.65671 0
M  V30 4423 O 396.705 5.61623 2.16478 0
M  V30 4424 H 400.531 3.03545 0.0968698 0
M  V30 4425 H 398.116 1.49389 -0.018074 0
M  V30 4426 H 399.998 3.37271 2.52638 0
M  V30 4427 H 398.673 2.18481 2.38847 0
M  V30 4428 H 397.58 3.68839 0.625174 0
M  V30 4429 H 398.913 4.84946 0.841941 0
M  V30 4430 N 400.565 -0.0233959 1.57583 0
M  V30 4431 C 401.495 -1.02162 2.09965 0
M  V30 4432 C 402.476 -1.3735 1.00344 0
M  V30 4433 O 403.661 -1.46135 1.27899 0
M  V30 4434 C 400.791 -2.32081 2.58371 0
M  V30 4435 C 399.745 -2.1112 3.72307 0
M  V30 4436 C 399.071 -3.46848 4.06941 0
M  V30 4437 C 400.371 -1.49276 5.00514 0
M  V30 4438 H 402.065 -0.585557 2.93618 0
M  V30 4439 H 399.611 -0.280218 1.41247 0
M  V30 4440 H 401.564 -3.02249 2.93639 0
M  V30 4441 H 400.288 -2.77758 1.71808 0
M  V30 4442 H 398.947 -1.43384 3.37397 0
M  V30 4443 H 398.595 -3.90184 3.17436 0
M  V30 4444 H 398.295 -3.33646 4.83688 0
M  V30 4445 H 399.819 -4.18369 4.44747 0
M  V30 4446 H 401.233 -2.09368 5.33702 0
M  V30 4447 H 399.63 -1.46632 5.8191 0
M  V30 4448 H 400.7 -0.459217 4.82721 0
M  V30 4449 N 402.043 -1.548 -0.295768 0
M  V30 4450 C 403.459 -1.4613 -0.641722 0
M  V30 4451 C 403.659 -0.656771 -1.90496 0
M  V30 4452 O 402.715 -0.166547 -2.5195 0
M  V30 4453 C 404.028 -2.90141 -0.789852 0
M  V30 4454 C 405.576 -3.00216 -0.885396 0
M  V30 4455 C 406.051 -4.45434 -1.06548 0
M  V30 4456 N 407.542 -4.49166 -1.13156 0
M  V30 4457 C 408.277 -5.58717 -1.28929 0
M  V30 4458 N 407.773 -6.78182 -1.41567 0
M  V30 4459 N 409.566 -5.46415 -1.31859 0
M  V30 4460 H 401.717 -2.05574 0.534147 0
M  V30 4461 H 403.98 -0.931259 0.177372 0
M  V30 4462 H 403.686 -3.51635 0.0675598 0
M  V30 4463 H 403.56 -3.37859 -1.67724 0
M  V30 4464 H 405.947 -2.38833 -1.73329 0
M  V30 4465 H 406.028 -2.55787 0.0261185 0
M  V30 4466 H 405.672 -5.07413 -0.222335 0
M  V30 4467 H 405.602 -4.87499 -1.9913 0
M  V30 4468 H 408.093 -3.631 -1.04721 0
M  V30 4469 H 408.406 -7.57428 -1.53372 0
M  V30 4470 H 406.751 -6.81037 -1.38613 0
M  V30 4471 H 409.942 -4.5203 -1.21601 0
M  V30 4472 H 410.115 -6.31841 -1.43808 0
M  V30 4473 N 403.521 0.559213 -1.47345 0
M  V30 4474 C 404.468 1.66645 -1.59682 0
M  V30 4475 C 405.438 1.60168 -0.43994 0
M  V30 4476 O 406.623 1.79031 -0.659736 0
M  V30 4477 C 403.763 3.04969 -1.61518 0
M  V30 4478 C 402.876 3.21897 -2.88108 0
M  V30 4479 C 402.011 4.50608 -2.81294 0
M  V30 4480 C 401.05 4.60961 -4.02717 0
M  V30 4481 N 400.187 5.81024 -3.94151 0
M  V30 4482 H 405.027 1.55439 -2.54249 0
M  V30 4483 H 402.564 0.757219 -1.26113 0
M  V30 4484 H 404.522 3.85064 -1.60566 0
M  V30 4485 H 403.152 3.15015 -0.704645 0
M  V30 4486 H 402.204 2.35248 -2.98936 0
M  V30 4487 H 403.516 3.25412 -3.78032 0
M  V30 4488 H 402.67 5.3896 -2.7858 0
M  V30 4489 H 401.409 4.49568 -1.89049 0
M  V30 4490 H 400.414 3.71021 -4.05738 0
M  V30 4491 H 401.639 4.63761 -4.96087 0
M  V30 4492 H 399.585 5.80938 -3.04708 0
M  V30 4493 H 399.502 5.85909 -4.77752 0
M  V30 4494 H 400.77 6.71744 -3.9545 0
M  V30 4495 N 404.999 1.35443 0.805782 0
M  V30 4496 C 405.946 1.28431 1.91766 0
M  V30 4497 C 406.916 0.156102 1.65365 0
M  V30 4498 O 408.101 0.339936 1.87747 0
M  V30 4499 C 405.241 1.06301 3.2832 0
M  V30 4500 C 404.354 2.2805 3.66902 0
M  V30 4501 C 403.489 1.99064 4.92491 0
M  V30 4502 C 402.528 3.16863 5.23703 0
M  V30 4503 N 401.665 2.87647 6.40471 0
M  V30 4504 H 406.505 2.23511 1.97096 0
M  V30 4505 H 404.042 1.11105 0.964054 0
M  V30 4506 H 406 0.915012 4.07042 0
M  V30 4507 H 404.63 0.148822 3.22457 0
M  V30 4508 H 403.682 2.53711 2.83434 0
M  V30 4509 H 404.994 3.1601 3.85927 0
M  V30 4510 H 404.148 1.81099 5.7904 0
M  V30 4511 H 402.887 1.0839 4.75503 0
M  V30 4512 H 401.892 3.35404 4.35642 0
M  V30 4513 H 403.117 4.08339 5.4262 0
M  V30 4514 H 401.063 1.99568 6.24907 0
M  V30 4515 H 400.98 3.69141 6.59751 0
M  V30 4516 H 402.248 2.73226 7.30047 0
M  V30 4517 N 406.477 -1.02803 1.19454 0
M  V30 4518 C 407.705 -1.79841 1.02297 0
M  V30 4519 C 408.12 -1.83879 -0.428259 0
M  V30 4520 O 407.477 -1.28345 -1.29745 0
M  V30 4521 C 407.528 -3.24852 1.58598 0
M  V30 4522 O 407.249 -3.21097 2.98041 0
M  V30 4523 C 408.75 -4.18485 1.46236 0
M  V30 4524 H 405.97 -0.565936 0.360496 0
M  V30 4525 H 408.514 -1.2948 1.58288 0
M  V30 4526 H 406.669 -3.72401 1.06753 0
M  V30 4527 H 407.083 -4.12033 3.24545 0
M  V30 4528 H 408.557 -5.18121 1.90407 0
M  V30 4529 H 409.034 -4.37254 0.41301 0
M  V30 4530 H 409.64 -3.76811 1.97215 0
M  V30 4531 N 407.956 -0.998596 -1.21925 0
M  V30 4532 C 408.906 -0.524743 -2.21879 0
M  V30 4533 C 409.89 0.41017 -1.55584 0
M  V30 4534 O 411.082 0.236063 -1.75419 0
M  V30 4535 C 408.211 0.153636 -3.42956 0
M  V30 4536 C 407.297 -0.801918 -4.16449 0
M  V30 4537 N 407.688 -1.95211 -4.66611 0
M  V30 4538 C 405.986 -0.618972 -4.41684 0
M  V30 4539 C 406.687 -2.55234 -5.22715 0
M  V30 4540 N 405.663 -1.83451 -5.1171 0
M  V30 4541 H 409.465 -1.40189 -2.58311 0
M  V30 4542 H 406.979 -0.86159 -1.3766 0
M  V30 4543 H 408.976 0.510534 -4.13762 0
M  V30 4544 H 407.636 1.02684 -3.08036 0
M  V30 4545 H 408.647 -2.33271 -4.62391 0
M  V30 4546 H 405.324 0.207694 -4.16983 0
M  V30 4547 H 406.714 -3.52471 -5.72026 0
M  V30 4548 N 409.434 1.37368 -0.772513 0
M  V30 4549 C 410.681 1.99673 -0.337182 0
M  V30 4550 C 411.009 1.61324 1.0865 0
M  V30 4551 O 410.264 0.851377 1.7621 0
M  V30 4552 C 410.563 3.54817 -0.428876 0
M  V30 4553 C 410.229 4.12936 -1.81092 0
M  V30 4554 C 408.891 4.28523 -2.1891 0
M  V30 4555 C 411.243 4.44801 -2.71664 0
M  V30 4556 C 408.571 4.73277 -3.46735 0
M  V30 4557 C 410.923 4.90981 -3.98899 0
M  V30 4558 C 409.587 5.04773 -4.36761 0
M  V30 4559 H 408.857 0.730656 -0.123384 0
M  V30 4560 H 411.504 1.64124 -0.986686 0
M  V30 4561 H 409.809 3.90618 0.304167 0
M  V30 4562 H 411.506 4.00933 -0.0733334 0
M  V30 4563 H 408.096 4.01233 -1.50699 0
M  V30 4564 H 412.28 4.32344 -2.43706 0
M  V30 4565 H 407.536 4.82142 -3.75964 0
M  V30 4566 H 411.71 5.14603 -4.69208 0
M  V30 4567 H 409.337 5.39211 -5.35868 0
M  V30 4568 N 410.912 0.523116 1.48665 0
M  V30 4569 C 412.158 -0.0134963 2.02796 0
M  V30 4570 C 412.491 -1.34582 1.40004 0
M  V30 4571 O 411.766 -1.86756 0.543381 0
M  V30 4572 C 412.049 -0.14276 3.59817 0
M  V30 4573 C 411.902 1.21425 4.331 0
M  V30 4574 C 413.221 -0.872856 4.31357 0
M  V30 4575 H 410.34 -0.00343074 0.736992 0
M  V30 4576 H 412.982 0.678816 1.7746 0
M  V30 4577 H 411.132 -0.732401 3.81534 0
M  V30 4578 H 412.804 1.84447 4.2282 0
M  V30 4579 H 411.047 1.79791 3.94788 0
M  V30 4580 H 411.718 1.07687 5.41394 0
M  V30 4581 H 414.194 -0.372555 4.14429 0
M  V30 4582 H 413.07 -0.932185 5.40927 0
M  V30 4583 H 413.331 -1.92161 3.98154 0
M  V30 4584 N 412.39 -1.55475 0.257931 0
M  V30 4585 C 413.32 -2.24815 -0.630912 0
M  V30 4586 C 414.301 -1.23224 -1.17259 0
M  V30 4587 O 415.486 -1.51904 -1.20991 0
M  V30 4588 C 412.616 -2.95609 -1.82298 0
M  V30 4589 C 411.57 -4.03982 -1.41359 0
M  V30 4590 C 410.896 -4.6226 -2.68738 0
M  V30 4591 C 412.196 -5.19109 -0.57648 0
M  V30 4592 H 413.89 -2.99354 -0.0526878 0
M  V30 4593 H 411.436 -1.4398 -0.023901 0
M  V30 4594 H 413.389 -3.42822 -2.45054 0
M  V30 4595 H 412.113 -2.18577 -2.42676 0
M  V30 4596 H 410.772 -3.57555 -0.809324 0
M  V30 4597 H 410.42 -3.81915 -3.27338 0
M  V30 4598 H 410.12 -5.35424 -2.42065 0
M  V30 4599 H 411.644 -5.12212 -3.32372 0
M  V30 4600 H 413.058 -5.62479 -1.10861 0
M  V30 4601 H 411.455 -5.98729 -0.405351 0
M  V30 4602 H 412.525 -4.83174 0.408776 0
M  V30 4603 N 413.868 0.0150385 -1.57593 0
M  V30 4604 C 414.798 1.01047 -2.10503 0
M  V30 4605 C 415.779 1.36816 -1.01071 0
M  V30 4606 O 416.964 1.45455 -1.28672 0
M  V30 4607 C 414.094 2.30708 -2.59598 0
M  V30 4608 C 413.048 2.09142 -3.73421 0
M  V30 4609 C 412.374 3.44685 -4.08774 0
M  V30 4610 C 413.674 1.46619 -5.01298 0
M  V30 4611 H 415.368 0.569978 -2.93925 0
M  V30 4612 H 412.914 0.272724 -1.41394 0
M  V30 4613 H 414.867 3.00687 -2.95238 0
M  V30 4614 H 413.591 2.76843 -1.73279 0
M  V30 4615 H 412.25 1.41592 -3.38153 0
M  V30 4616 H 411.898 3.88495 -3.195 0
M  V30 4617 H 411.598 3.31077 -4.8545 0
M  V30 4618 H 413.122 4.16004 -4.4696 0
M  V30 4619 H 414.536 2.06535 -5.34805 0
M  V30 4620 H 412.933 1.43544 -5.82679 0
M  V30 4621 H 414.003 0.433611 -4.82957 0
M  V30 4622 N 415.346 1.54954 0.287554 0
M  V30 4623 C 416.294 1.87606 1.37502 0
M  V30 4624 C 417.288 0.751001 1.51843 0
M  V30 4625 O 418.494 0.935169 1.53801 0
M  V30 4626 H 414.869 0.595231 0.459569 0
M  V30 4627 H 416.84 2.78477 1.07206 0
M  V30 4628 C 415.589 2.15183 2.73115 0
M  V30 4629 H 414.912 3.01234 2.62866 0
M  V30 4630 H 416.352 2.4196 3.48183 0
M  V30 4631 C 414.811 0.954686 3.2309 0
M  V30 4632 O 415.341 0.181949 4.01288 0
M  V30 4633 N 413.547 0.756368 2.80584 0
M  V30 4634 H 413.094 1.38643 2.17108 0
M  V30 4635 H 413.052 -0.0430391 3.14371 0
M  V30 4636 N 416.824 -0.551391 1.4764 0
M  V30 4637 C 418.073 -1.30467 1.53822 0
M  V30 4638 C 418.386 -1.94495 0.207661 0
M  V30 4639 O 419.592 -2.71099 0.147533 0
M  V30 4640 C 418.048 -2.36616 2.71184 0
M  V30 4641 C 417.656 -1.78754 4.10793 0
M  V30 4642 C 419.4 -3.13088 2.86663 0
M  V30 4643 C 417.307 -2.82717 5.19447 0
M  V30 4644 H 416.237 -0.490584 0.572576 0
M  V30 4645 H 418.888 -0.58494 1.73927 0
M  V30 4646 H 417.27 -3.11529 2.4447 0
M  V30 4647 H 418.444 -1.10173 4.47435 0
M  V30 4648 H 416.759 -1.14846 4.00249 0
M  V30 4649 H 419.356 -3.90736 3.65007 0
M  V30 4650 H 419.699 -3.67635 1.95321 0
M  V30 4651 H 420.232 -2.45288 3.13175 0
M  V30 4652 H 416.971 -2.33018 6.12685 0
M  V30 4653 H 416.491 -3.4969 4.87316 0
M  V30 4654 H 418.17 -3.46102 5.46646 0
M  V30 4655 N 418.302 -1.35869 -0.798587 0
M  V30 4656 C 419.713 -1.26498 -1.37314 0
M  V30 4657 C 420.064 0.0991899 -1.95949 0
M  V30 4658 O 419.189 1.0004 -1.91888 0
M  V30 4659 C 419.784 -2.29054 -2.49639 0
M  V30 4660 C 418.343 -2.234 -3.02935 0
M  V30 4661 C 417.49 -2.14329 -1.75949 0
M  V30 4662 H 420.441 -1.46881 -0.600971 0
M  V30 4663 H 420.462 -1.92166 -3.28409 0
M  V30 4664 H 419.974 -3.2833 -2.06933 0
M  V30 4665 H 418.075 -1.27562 -3.50084 0
M  V30 4666 H 418.188 -3.15703 -3.60372 0
M  V30 4667 H 416.552 -1.60435 -1.9782 0
M  V30 4668 H 417.335 -3.15477 -1.35384 0
M  V30 4669 N 419.78 1.02168 -1.19998 0
M  V30 4670 C 420.69 2.14069 -0.959774 0
M  V30 4671 C 421.706 1.73804 0.082655 0
M  V30 4672 O 422.882 2.01133 -0.103633 0
M  V30 4673 C 419.947 3.42936 -0.509459 0
M  V30 4674 C 419.008 3.97474 -1.62213 0
M  V30 4675 C 418.241 5.2019 -1.19321 0
M  V30 4676 O 418.464 5.70369 -0.0597726 0
M  V30 4677 O 417.398 5.67749 -1.99863 0
M  V30 4678 H 421.224 2.37199 -1.89658 0
M  V30 4679 H 418.809 1.12469 -0.983411 0
M  V30 4680 H 420.691 4.20551 -0.267322 0
M  V30 4681 H 419.366 3.21234 0.398821 0
M  V30 4682 H 418.273 3.21161 -1.9185 0
M  V30 4683 H 419.606 4.23555 -2.50723 0
M  V30 4684 N 421.258 1.00505 1.21394 0
M  V30 4685 C 422.488 0.705584 1.94178 0
M  V30 4686 C 422.896 -0.735846 1.74304 0
M  V30 4687 O 422.239 -1.50954 1.04683 0
M  V30 4688 C 422.301 0.94689 3.46806 0
M  V30 4689 C 421.965 2.37517 3.90429 0
M  V30 4690 C 422.962 3.35539 3.97127 0
M  V30 4691 C 420.647 2.71284 4.22742 0
M  V30 4692 C 422.641 4.65395 4.3553 0
M  V30 4693 C 420.328 4.01356 4.60822 0
M  V30 4694 C 421.326 4.98223 4.67186 0
M  V30 4695 O 421.014 6.25969 5.04399 0
M  V30 4696 H 420.746 0.259216 0.624326 0
M  V30 4697 H 423.3 1.34592 1.55159 0
M  V30 4698 H 421.53 0.249386 3.85895 0
M  V30 4699 H 423.219 0.640804 4.0081 0
M  V30 4700 H 423.985 3.10786 3.7234 0
M  V30 4701 H 419.864 1.96581 4.16985 0
M  V30 4702 H 423.408 5.41002 4.40412 0
M  V30 4703 H 419.305 4.25893 4.85063 0
M  V30 4704 H 420.073 6.30085 5.22431 0
M  V30 4705 N 422.737 -1.36956 0.779787 0
M  V30 4706 C 423.7 -2.2851 0.177662 0
M  V30 4707 C 424.7 -1.48393 -0.619377 0
M  V30 4708 O 425.89 -1.68505 -0.441785 0
M  V30 4709 C 423.022 -3.32428 -0.755279 0
M  V30 4710 H 424.215 -2.83269 0.984823 0
M  V30 4711 H 421.768 -1.46358 0.548544 0
M  V30 4712 H 422.503 -2.82808 -1.58714 0
M  V30 4713 H 422.288 -3.91659 -0.185817 0
M  V30 4714 H 423.778 -4.00824 -1.17174 0
M  V30 4715 N 424.215 -0.530993 -1.48385 0
M  V30 4716 C 425.125 0.23503 -2.3342 0
M  V30 4717 C 426.141 0.93801 -1.46552 0
M  V30 4718 O 427.317 0.912745 -1.7953 0
M  V30 4719 C 424.382 1.26778 -3.22689 0
M  V30 4720 C 423.443 0.575038 -4.25431 0
M  V30 4721 C 422.676 1.55858 -5.10435 0
M  V30 4722 O 422.899 2.79129 -4.97437 0
M  V30 4723 O 421.833 1.09742 -5.91811 0
M  V30 4724 H 425.659 -0.461794 -3.00169 0
M  V30 4725 H 423.244 -0.291903 -1.46521 0
M  V30 4726 H 425.126 1.86457 -3.77904 0
M  V30 4727 H 423.801 1.94699 -2.586 0
M  V30 4728 H 422.708 -0.0622782 -3.74048 0
M  V30 4729 H 424.041 -0.062253 -4.92161 0
M  V30 4730 N 425.693 1.55336 -0.266172 0
M  V30 4731 C 426.643 2.18848 0.639497 0
M  V30 4732 C 427.627 1.1503 1.12503 0
M  V30 4733 O 428.819 1.40875 1.0716 0
M  V30 4734 C 425.948 2.90626 1.82733 0
M  V30 4735 C 425.034 4.01723 1.35939 0
M  V30 4736 N 425.425 5.02145 0.606988 0
M  V30 4737 C 423.723 4.1463 1.6431 0
M  V30 4738 C 424.424 5.80572 0.362138 0
M  V30 4739 N 423.4 5.35551 0.931971 0
M  V30 4740 H 427.202 2.93845 0.0567057 0
M  V30 4741 H 424.716 1.62252 -0.0693312 0
M  V30 4742 H 426.713 3.34569 2.48735 0
M  V30 4743 H 425.373 2.17137 2.41416 0
M  V30 4744 H 426.384 5.17271 0.255198 0
M  V30 4745 H 423.061 3.52326 2.23993 0
M  V30 4746 H 424.451 6.71472 -0.239848 0
M  V30 4747 N 427.171 -0.0066808 1.57599 0
M  V30 4748 C 428.134 -0.985035 2.06953 0
M  V30 4749 C 429.134 -1.27663 0.977687 0
M  V30 4750 O 430.324 -1.22293 1.24057 0
M  V30 4751 C 427.456 -2.3118 2.50536 0
M  V30 4752 H 428.649 -0.558255 2.94658 0
M  V30 4753 H 426.202 -0.254011 1.54222 0
M  V30 4754 H 426.937 -2.78561 1.66054 0
M  V30 4755 H 426.722 -2.11338 3.3027 0
M  V30 4756 H 428.212 -3.01377 2.8907 0
M  V30 4757 N 428.649 -1.55105 -0.279332 0
M  V30 4758 C 429.596 -1.8755 -1.34513 0
M  V30 4759 C 430.566 -0.726384 -1.49375 0
M  V30 4760 O 431.751 -0.977063 -1.63884 0
M  V30 4761 C 428.891 -2.14738 -2.70151 0
M  V30 4762 C 428.004 -3.42285 -2.63562 0
M  V30 4763 C 427.139 -3.59206 -3.91337 0
M  V30 4764 C 426.178 -4.80467 -3.79233 0
M  V30 4765 N 425.315 -4.94079 -4.98829 0
M  V30 4766 H 430.155 -2.78456 -1.06143 0
M  V30 4767 H 427.692 -1.37867 -0.512936 0
M  V30 4768 H 429.65 -2.28501 -3.49061 0
M  V30 4769 H 428.28 -1.27075 -2.96735 0
M  V30 4770 H 427.332 -3.37029 -1.76397 0
M  V30 4771 H 428.644 -4.31328 -2.50515 0
M  V30 4772 H 427.798 -3.72751 -4.78687 0
M  V30 4773 H 426.537 -2.68337 -4.07243 0
M  V30 4774 H 425.542 -4.66932 -2.90266 0
M  V30 4775 H 426.767 -5.72765 -3.64852 0
M  V30 4776 H 424.713 -4.06139 -5.15158 0
M  V30 4777 H 424.63 -5.77156 -4.8829 0
M  V30 4778 H 425.898 -5.12003 -5.8777 0
M  V30 4779 N 430.127 0.543554 -1.4793 0
M  V30 4780 C 431.09 1.63156 -1.60975 0
M  V30 4781 C 432.09 1.53346 -0.483899 0
M  V30 4782 O 433.28 1.5726 -0.749339 0
M  V30 4783 C 430.412 3.02743 -1.56716 0
M  V30 4784 H 431.605 1.52934 -2.57975 0
M  V30 4785 H 429.158 0.764557 -1.36324 0
M  V30 4786 H 429.893 3.18484 -0.611418 0
M  V30 4787 H 429.678 3.11272 -2.38438 0
M  V30 4788 H 431.168 3.81871 -1.6901 0
M  V30 4789 N 431.605 1.3629 0.791371 0
M  V30 4790 C 432.83 1.33726 1.58531 0
M  V30 4791 C 433.255 -0.0794933 1.87932 0
M  V30 4792 O 432.613 -1.05087 1.47738 0
M  V30 4793 C 432.661 2.16425 2.88431 0
M  V30 4794 O 431.765 1.5554 3.81944 0
M  V30 4795 H 431.106 0.457793 0.480959 0
M  V30 4796 H 433.636 1.79547 0.981031 0
M  V30 4797 H 433.646 2.28933 3.37718 0
M  V30 4798 H 432.321 3.19415 2.66359 0
M  V30 4799 H 430.898 1.51961 3.40532 0
M  V30 4800 N 433.083 -1.0153 1.20538 0
M  V30 4801 C 434.013 -2.11972 0.979295 0
M  V30 4802 C 434.994 -1.6985 -0.0921787 0
M  V30 4803 O 436.179 -1.94089 0.0655932 0
M  V30 4804 C 433.309 -3.43201 0.531984 0
M  V30 4805 C 432.263 -3.9907 1.54685 0
M  V30 4806 C 431.589 -5.26082 0.956127 0
M  V30 4807 C 432.889 -4.32313 2.93092 0
M  V30 4808 H 434.583 -2.31143 1.90298 0
M  V30 4809 H 432.129 -1.11079 0.916372 0
M  V30 4810 H 434.082 -4.1985 0.361044 0
M  V30 4811 H 432.806 -3.23792 -0.427327 0
M  V30 4812 H 431.465 -3.2453 1.70517 0
M  V30 4813 H 431.113 -5.02999 -0.0111538 0
M  V30 4814 H 430.813 -5.64426 1.63393 0
M  V30 4815 H 432.337 -6.05386 0.796284 0
M  V30 4816 H 433.751 -4.99845 2.80763 0
M  V30 4817 H 432.148 -4.81774 3.57791 0
M  V30 4818 H 433.218 -3.41025 3.44717 0
M  V30 4819 N 434.561 -1.01147 -1.20859 0
M  V30 4820 C 435.809 -0.696486 -1.89719 0
M  V30 4821 C 436.13 0.775788 -1.78904 0
M  V30 4822 O 435.4 1.55759 -1.18811 0
M  V30 4823 H 433.98 -0.254628 -0.702263 0
M  V30 4824 H 436.642 -1.28197 -1.46804 0
M  V30 4825 H 435.738 -0.975357 -2.96468 0
M  V30 4826 N 436.039 1.36541 -0.78704 0
M  V30 4827 C 436.969 2.32659 -0.197992 0
M  V30 4828 C 437.95 1.56533 0.665697 0
M  V30 4829 O 439.135 1.84698 0.60001 0
M  V30 4830 C 436.265 3.40778 0.669901 0
M  V30 4831 C 435.219 4.27897 -0.0937039 0
M  V30 4832 C 434.545 5.27163 0.894629 0
M  V30 4833 C 435.845 5.06334 -1.28154 0
M  V30 4834 H 437.539 2.82171 -1.00099 0
M  V30 4835 H 435.085 1.35665 -0.482793 0
M  V30 4836 H 437.038 4.07008 1.09191 0
M  V30 4837 H 435.762 2.89827 1.50558 0
M  V30 4838 H 434.421 3.6322 -0.49666 0
M  V30 4839 H 434.069 4.72486 1.72527 0
M  V30 4840 H 433.769 5.86317 0.388149 0
M  V30 4841 H 435.293 5.96266 1.31525 0
M  V30 4842 H 436.707 5.65617 -0.93541 0
M  V30 4843 H 435.104 5.74888 -1.72115 0
M  V30 4844 H 436.174 4.38114 -2.07807 0
M  V30 4845 N 437.518 0.538854 1.48102 0
M  V30 4846 C 438.746 0.0123136 2.06896 0
M  V30 4847 C 439.161 -1.27312 1.39417 0
M  V30 4848 O 438.518 -1.75949 0.484582 0
M  V30 4849 C 438.569 -0.206118 3.60912 0
M  V30 4850 O 438.29 1.0284 4.25859 0
M  V30 4851 C 439.791 -0.772033 4.36526 0
M  V30 4852 H 437.011 0.0375239 0.66995 0
M  V30 4853 H 439.555 0.747032 1.90367 0
M  V30 4854 H 437.71 -0.89091 3.77017 0
M  V30 4855 H 438.124 0.814654 5.18135 0
M  V30 4856 H 439.598 -0.874251 5.45033 0
M  V30 4857 H 440.075 -1.77904 4.01555 0
M  V30 4858 H 440.681 -0.123526 4.25121 0
M  V30 4859 N 438.996 -1.55193 0.274407 0
M  V30 4860 C 439.906 -2.26164 -0.623473 0
M  V30 4861 C 440.922 -1.28729 -1.17068 0
M  V30 4862 O 442.098 -1.61663 -1.20112 0
M  V30 4863 C 439.163 -2.96833 -1.7914 0
M  V30 4864 C 438.224 -4.09745 -1.28093 0
M  V30 4865 C 437.457 -4.77034 -2.3932 0
M  V30 4866 O 437.68 -4.4353 -3.5866 0
M  V30 4867 O 436.614 -5.64996 -2.07516 0
M  V30 4868 H 440.44 -3.03661 -0.0485661 0
M  V30 4869 H 438.025 -1.49341 0.0418382 0
M  V30 4870 H 439.907 -3.41248 -2.4724 0
M  V30 4871 H 438.582 -2.22253 -2.35341 0
M  V30 4872 H 437.489 -3.69787 -0.566416 0
M  V30 4873 H 438.822 -4.86224 -0.764683 0
M  V30 4874 N 440.474 -0.00167713 -1.576 0
M  V30 4875 C 441.721 0.68282 -1.90641 0
M  V30 4876 C 442.049 1.73686 -0.875415 0
M  V30 4877 O 441.304 1.95334 0.119575 0
M  V30 4878 C 441.603 1.36189 -3.30435 0
M  V30 4879 C 441.269 0.440887 -4.48739 0
M  V30 4880 C 439.931 0.187312 -4.80835 0
M  V30 4881 C 442.283 -0.193134 -5.20842 0
M  V30 4882 C 439.611 -0.70855 -5.82406 0
M  V30 4883 C 441.963 -1.07688 -6.23367 0
M  V30 4884 C 440.627 -1.33962 -6.53919 0
M  V30 4885 H 439.897 0.249862 -0.697603 0
M  V30 4886 H 442.544 -0.0575642 -1.91413 0
M  V30 4887 H 440.849 2.17636 -3.25794 0
M  V30 4888 H 442.546 1.89759 -3.5326 0
M  V30 4889 H 439.136 0.648694 -4.23663 0
M  V30 4890 H 443.32 -0.0102445 -4.96299 0
M  V30 4891 H 438.576 -0.920097 -6.04437 0
M  V30 4892 H 442.75 -1.57451 -6.78367 0
M  V30 4893 H 440.377 -2.03549 -7.32442 0
M  V30 4894 N 441.952 1.55251 0.271103 0
M  V30 4895 C 443.363 1.66635 0.842007 0
M  V30 4896 C 443.714 0.594631 1.86972 0
M  V30 4897 O 442.839 -0.263532 2.14789 0
M  V30 4898 C 443.434 3.02082 1.53401 0
M  V30 4899 C 441.993 3.15487 2.05293 0
M  V30 4900 C 441.14 2.62438 0.895631 0
M  V30 4901 H 444.091 1.58629 0.0474117 0
M  V30 4902 H 444.112 2.95176 2.40107 0
M  V30 4903 H 443.624 3.80062 0.785786 0
M  V30 4904 H 441.725 2.42284 2.83071 0
M  V30 4905 H 441.838 4.22075 2.26693 0
M  V30 4906 H 440.202 2.19644 1.28953 0
M  V30 4907 H 440.985 3.42923 0.160878 0
M  V30 4908 N 443.43 -0.535701 1.48216 0
M  V30 4909 C 444.678 -1.28928 1.55634 0
M  V30 4910 C 444.999 -1.93645 0.229514 0
M  V30 4911 O 444.269 -1.81038 -0.74846 0
M  V30 4912 H 442.849 -0.47884 0.573342 0
M  V30 4913 H 445.511 -0.623853 1.84646 0
M  V30 4914 H 444.607 -2.07157 2.33436 0
M  V30 4915 N 444.908 -1.36708 -0.784132 0
M  V30 4916 C 445.838 -1.34153 -1.91116 0
M  V30 4917 C 446.819 -0.212121 -1.68772 0
M  V30 4918 O 448.004 -0.410581 -1.8981 0
M  V30 4919 C 445.134 -1.13535 -3.28218 0
M  V30 4920 C 444.088 -2.23356 -3.65097 0
M  V30 4921 C 443.414 -1.87875 -5.00607 0
M  V30 4922 C 444.714 -3.65473 -3.73131 0
M  V30 4923 H 446.408 -2.28459 -1.93512 0
M  V30 4924 H 443.954 -1.09973 -0.929618 0
M  V30 4925 H 445.907 -1.10381 -4.06687 0
M  V30 4926 H 444.631 -0.156804 -3.26223 0
M  V30 4927 H 443.29 -2.25645 -2.88929 0
M  V30 4928 H 442.938 -0.885814 -4.95139 0
M  V30 4929 H 442.638 -2.61406 -5.26252 0
M  V30 4930 H 444.162 -1.86286 -5.81489 0
M  V30 4931 H 445.576 -3.65382 -4.41779 0
M  V30 4932 H 443.973 -4.37953 -4.10265 0
M  V30 4933 H 445.043 -3.99995 -2.74102 0
M  V30 4934 N 446.386 1.0089 -1.21074 0
M  V30 4935 C 447.349 2.0775 -0.968129 0
M  V30 4936 C 448.349 1.6069 0.0593445 0
M  V30 4937 O 449.539 1.73293 -0.177525 0
M  V30 4938 C 446.671 3.37794 -0.459108 0
M  V30 4939 H 447.864 2.30707 -1.9161 0
M  V30 4940 H 445.417 1.17807 -1.02719 0
M  V30 4941 H 446.152 3.20516 0.49397 0
M  V30 4942 H 445.937 3.7328 -1.20019 0
M  V30 4943 H 447.427 4.16454 -0.309099 0
M  V30 4944 N 447.864 1.01787 1.20321 0
M  V30 4945 C 449.111 0.707936 1.89722 0
M  V30 4946 C 449.439 -0.762535 1.78929 0
M  V30 4947 O 448.694 -1.56977 1.16861 0
M  V30 4948 C 448.993 1.09076 3.40349 0
M  V30 4949 C 448.659 2.55765 3.71342 0
M  V30 4950 C 447.321 2.95845 3.79511 0
M  V30 4951 C 449.673 3.50723 3.85542 0
M  V30 4952 C 447.001 4.2982 3.99339 0
M  V30 4953 C 449.353 4.84387 4.06881 0
M  V30 4954 C 448.017 5.24172 4.1328 0
M  V30 4955 H 447.287 0.259052 0.694243 0
M  V30 4956 H 449.934 1.27868 1.42555 0
M  V30 4957 H 448.239 0.438453 3.89339 0
M  V30 4958 H 449.936 0.828636 3.92345 0
M  V30 4959 H 446.526 2.2371 3.65584 0
M  V30 4960 H 450.71 3.20916 3.78585 0
M  V30 4961 H 445.966 4.60196 4.02529 0
M  V30 4962 H 450.14 5.57891 4.1681 0
M  V30 4963 H 447.767 6.27997 4.28396 0
M  V30 4964 N 449.342 -1.36122 0.79427 0
M  V30 4965 C 450.274 -2.28683 0.153903 0
M  V30 4966 C 451.287 -1.49707 -0.639669 0
M  V30 4967 O 452.476 -1.7209 -0.474054 0
M  V30 4968 C 449.576 -3.29202 -0.804921 0
M  V30 4969 C 448.749 -4.37358 -0.060366 0
M  V30 4970 C 447.808 -5.17811 -0.935849 0
M  V30 4971 O 446.834 -5.67853 -0.391309 0
M  V30 4972 N 448.036 -5.34721 -2.25951 0
M  V30 4973 H 450.801 -2.84278 0.949008 0
M  V30 4974 H 448.362 -1.4834 0.648611 0
M  V30 4975 H 450.354 -3.79914 -1.39455 0
M  V30 4976 H 448.924 -2.74212 -1.50088 0
M  V30 4977 H 448.144 -3.87746 0.710382 0
M  V30 4978 H 449.432 -5.06777 0.45324 0
M  V30 4979 H 448.83 -4.95687 -2.72601 0
M  V30 4980 H 447.387 -5.88657 -2.79867 0
M  V30 4981 N 450.82 -0.546701 -1.47814 0
M  V30 4982 C 452.045 -0.021268 -2.07389 0
M  V30 4983 C 452.47 1.25822 -1.39822 0
M  V30 4984 O 451.828 1.75111 -0.46968 0
M  V30 4985 C 451.876 0.168502 -3.60206 0
M  V30 4986 O 450.98 1.23347 -3.93522 0
M  V30 4987 H 450.321 -0.0466108 -0.662362 0
M  V30 4988 H 452.851 -0.759387 -1.89985 0
M  V30 4989 H 452.861 0.385982 -4.0617 0
M  V30 4990 H 451.536 -0.766075 -4.08784 0
M  V30 4991 H 450.113 0.997319 -3.59316 0
M  V30 4992 N 452.299 1.55045 -0.282633 0
M  V30 4993 C 453.247 2.24254 0.617478 0
M  V30 4994 C 454.241 1.24215 1.15183 0
M  V30 4995 O 455.447 1.42123 1.10459 0
M  V30 4996 H 451.822 0.719801 0.217693 0
M  V30 4997 H 453.793 2.98398 0.0110076 0
M  V30 4998 C 452.542 2.98281 1.78672 0
M  V30 4999 H 451.865 3.75053 1.38475 0
M  V30 5000 H 453.305 3.50017 2.393 0
M  V30 5001 C 451.764 2.04184 2.67975 0
M  V30 5002 O 452.294 1.59792 3.6855 0
M  V30 5003 N 450.5 1.70526 2.35307 0
M  V30 5004 H 450.047 2.06821 1.53567 0
M  V30 5005 H 450.005 1.07839 2.95327 0
M  V30 5006 N 453.777 0.010035 1.57597 0
M  V30 5007 C 454.687 -0.994226 2.12491 0
M  V30 5008 C 455.703 -1.37013 1.07254 0
M  V30 5009 O 456.879 -1.45542 1.3921 0
M  V30 5010 C 453.944 -2.2642 2.62555 0
M  V30 5011 C 453.005 -1.95049 3.82432 0
M  V30 5012 C 452.238 -3.15991 4.30099 0
M  V30 5013 O 452.461 -4.28015 3.7704 0
M  V30 5014 O 451.395 -2.99403 5.22151 0
M  V30 5015 H 455.221 -0.557549 2.98538 0
M  V30 5016 H 452.806 -0.209413 1.47925 0
M  V30 5017 H 454.688 -3.01009 2.9491 0
M  V30 5018 H 453.363 -2.69306 1.796 0
M  V30 5019 H 452.27 -1.17904 3.55034 0
M  V30 5020 H 453.603 -1.56992 4.66491 0
M  V30 5021 N 455.255 -1.55392 -0.262866 0
M  V30 5022 C 456.503 -1.76127 -0.991147 0
M  V30 5023 C 456.824 -0.571083 -1.8645 0
M  V30 5024 O 456.094 0.413698 -1.91482 0
M  V30 5025 H 454.674 -0.649528 -0.368948 0
M  V30 5026 H 457.336 -1.9281 -0.284655 0
M  V30 5027 H 456.432 -2.6663 -1.62219 0
M  V30 5028 N 456.733 0.527833 -1.48498 0
M  V30 5029 C 458.149 0.856571 -1.34666 0
M  V30 5030 C 458.349 1.98271 -0.35931 0
M  V30 5031 O 457.405 2.51551 0.218703 0
M  V30 5032 C 458.718 1.22207 -2.74747 0
M  V30 5033 C 460.266 1.33183 -2.83251 0
M  V30 5034 C 460.741 1.73075 -4.24039 0
M  V30 5035 N 462.232 1.80174 -4.26722 0
M  V30 5036 C 462.967 2.1243 -5.32598 0
M  V30 5037 N 462.463 2.43096 -6.4875 0
M  V30 5038 N 464.256 2.13454 -5.19994 0
M  V30 5039 H 456.407 -0.215174 -2.11307 0
M  V30 5040 H 458.67 -0.0336281 -0.947403 0
M  V30 5041 H 458.376 0.468195 -3.4857 0
M  V30 5042 H 458.25 2.17173 -3.08409 0
M  V30 5043 H 460.637 2.07647 -2.09683 0
M  V30 5044 H 460.718 0.363333 -2.53206 0
M  V30 5045 H 460.362 0.991712 -4.98124 0
M  V30 5046 H 460.292 2.70979 -4.51529 0
M  V30 5047 H 462.783 1.58744 -3.42942 0
M  V30 5048 H 463.096 2.6682 -7.25277 0
M  V30 5049 H 461.441 2.40611 -6.52021 0
M  V30 5050 H 464.632 1.88956 -4.28268 0
M  V30 5051 H 464.805 2.38261 -6.02608 0
M  V30 5052 N 458.211 1.37122 0.776871 0
M  V30 5053 C 459.441 1.35034 1.56363 0
M  V30 5054 C 459.849 -0.0674681 1.8908 0
M  V30 5055 O 459.192 -1.03826 1.51545 0
M  V30 5056 C 459.254 2.11894 2.90415 0
M  V30 5057 C 458.918 3.60897 2.80362 0
M  V30 5058 C 459.915 4.54887 2.51742 0
M  V30 5059 C 457.6 4.03951 2.98545 0
M  V30 5060 C 459.594 5.89909 2.41426 0
M  V30 5061 C 457.281 5.3906 2.87849 0
M  V30 5062 C 458.279 6.31852 2.5933 0
M  V30 5063 O 457.967 7.64479 2.48651 0
M  V30 5064 H 457.699 0.464402 0.49123 0
M  V30 5065 H 460.253 1.80992 0.971127 0
M  V30 5066 H 458.483 1.60618 3.51765 0
M  V30 5067 H 460.172 2.02505 3.51776 0
M  V30 5068 H 460.938 4.22934 2.37385 0
M  V30 5069 H 456.817 3.3209 3.19746 0
M  V30 5070 H 460.361 6.62304 2.19086 0
M  V30 5071 H 456.258 5.70617 3.01773 0
M  V30 5072 H 457.026 7.74742 2.64039 0
M  V30 5073 N 459.689 -1.00246 1.21608 0
M  V30 5074 C 460.619 -2.10921 1.00172 0
M  V30 5075 C 461.6 -1.69938 -0.0741587 0
M  V30 5076 O 462.785 -1.94009 0.0861753 0
M  V30 5077 C 459.915 -3.42618 0.568355 0
M  V30 5078 C 458.869 -3.97407 1.58909 0
M  V30 5079 C 458.195 -5.25038 1.01187 0
M  V30 5080 C 459.495 -4.2918 2.97661 0
M  V30 5081 H 461.189 -2.29112 1.92739 0
M  V30 5082 H 458.735 -1.10101 0.928102 0
M  V30 5083 H 460.688 -4.19444 0.405555 0
M  V30 5084 H 459.412 -3.24227 -0.392961 0
M  V30 5085 H 458.071 -3.22703 1.73949 0
M  V30 5086 H 457.719 -5.02982 0.0421965 0
M  V30 5087 H 457.419 -5.62661 1.6937 0
M  V30 5088 H 458.943 -6.04507 0.860448 0
M  V30 5089 H 460.357 -4.96839 2.86049 0
M  V30 5090 H 458.754 -4.77952 3.6288 0
M  V30 5091 H 459.824 -3.3735 3.48315 0
M  V30 5092 N 461.167 -1.02423 -1.1978 0
M  V30 5093 C 462.097 -0.62157 -2.25075 0
M  V30 5094 C 463.078 0.367148 -1.6609 0
M  V30 5095 O 464.263 0.250892 -1.92573 0
M  V30 5096 C 461.393 0.0331826 -3.47284 0
M  V30 5097 C 460.347 -0.877323 -4.18912 0
M  V30 5098 C 459.673 -0.0879296 -5.34628 0
M  V30 5099 C 460.973 -2.18892 -4.74219 0
M  V30 5100 H 462.667 -1.50179 -2.59011 0
M  V30 5101 H 460.213 -0.723547 -1.24502 0
M  V30 5102 H 462.166 0.326488 -4.20133 0
M  V30 5103 H 460.89 0.948164 -3.12534 0
M  V30 5104 H 459.549 -1.15475 -3.47938 0
M  V30 5105 H 459.197 0.828941 -4.96123 0
M  V30 5106 H 458.897 -0.694359 -5.83483 0
M  V30 5107 H 460.421 0.198743 -6.10276 0
M  V30 5108 H 461.835 -1.95746 -5.38847 0
M  V30 5109 H 460.232 -2.74686 -5.33542 0
M  V30 5110 H 461.302 -2.84674 -3.92541 0
M  V30 5111 N 462.645 1.35699 -0.801477 0
M  V30 5112 C 463.592 2.29876 -0.206294 0
M  V30 5113 C 464.562 1.52565 0.656752 0
M  V30 5114 O 465.747 1.81024 0.602906 0
M  V30 5115 C 462.887 3.39052 0.643272 0
M  V30 5116 C 462 4.31335 -0.239644 0
M  V30 5117 C 461.135 5.27599 0.61744 0
M  V30 5118 C 460.174 6.11521 -0.26619 0
M  V30 5119 N 459.311 6.99938 0.550571 0
M  V30 5120 H 464.151 2.80187 -1.01484 0
M  V30 5121 H 461.688 1.37902 -0.511997 0
M  V30 5122 H 463.646 4.0101 1.15094 0
M  V30 5123 H 462.276 2.9003 1.41713 0
M  V30 5124 H 461.328 3.70426 -0.865381 0
M  V30 5125 H 462.64 4.90243 -0.919985 0
M  V30 5126 H 461.794 5.94906 1.19045 0
M  V30 5127 H 460.533 4.69176 1.33137 0
M  V30 5128 H 459.538 5.43166 -0.851507 0
M  V30 5129 H 460.763 6.72022 -0.9779 0
M  V30 5130 H 458.709 6.44008 1.24856 0
M  V30 5131 H 458.626 7.55966 -0.071832 0
M  V30 5132 H 459.894 7.71599 1.10702 0
M  V30 5133 N 464.123 0.554532 1.47522 0
M  V30 5134 C 465.071 -0.207765 2.3167 0
M  V30 5135 C 466.065 -0.911914 1.4276 0
M  V30 5136 O 467.271 -0.833504 1.59539 0
M  V30 5137 H 463.646 -0.0858726 0.747081 0
M  V30 5138 H 465.617 0.521178 2.93813 0
M  V30 5139 C 464.366 -1.2263 3.25357 0
M  V30 5140 H 463.689 -0.693887 3.93732 0
M  V30 5141 H 465.129 -1.73062 3.87073 0
M  V30 5142 C 463.588 -2.27278 2.4869 0
M  V30 5143 O 464.118 -3.34156 2.22941 0
M  V30 5144 N 462.324 -2.01134 2.09746 0
M  V30 5145 H 461.871 -1.14232 2.30887 0
M  V30 5146 H 461.829 -2.71369 1.58765 0
M  V30 5147 N 465.601 -1.54893 0.290851 0
M  V30 5148 C 467.012 -1.85584 -0.203816 0
M  V30 5149 C 467.363 -1.21285 -1.54222 0
M  V30 5150 O 466.488 -0.506841 -2.10381 0
M  V30 5151 C 467.083 -3.367 -0.376595 0
M  V30 5152 C 465.642 -3.6746 -0.815485 0
M  V30 5153 C 464.789 -2.77178 0.0821087 0
M  V30 5154 H 467.74 -1.50208 0.512175 0
M  V30 5155 H 467.761 -3.60656 -1.21275 0
M  V30 5156 H 467.273 -3.8347 0.59767 0
M  V30 5157 H 465.374 -3.26201 -1.80066 0
M  V30 5158 H 465.487 -4.7478 -0.641905 0
M  V30 5159 H 463.851 -2.50925 -0.436895 0
M  V30 5160 H 464.634 -3.26767 1.05254 0
M  V30 5161 N 467.08 -0.0183926 -1.57589 0
M  V30 5162 C 468.027 0.967022 -2.09565 0
M  V30 5163 C 468.997 1.32983 -0.995225 0
M  V30 5164 O 470.182 1.42501 -1.26878 0
M  V30 5165 C 467.322 2.24772 -2.61861 0
M  V30 5166 C 466.435 1.94232 -3.85873 0
M  V30 5167 C 465.57 3.16518 -4.26603 0
M  V30 5168 C 464.609 2.81748 -5.43401 0
M  V30 5169 N 463.746 3.96626 -5.79338 0
M  V30 5170 H 468.586 0.516874 -2.93483 0
M  V30 5171 H 466.123 0.243544 -1.4507 0
M  V30 5172 H 468.081 2.99667 -2.90268 0
M  V30 5173 H 466.711 2.67423 -1.8079 0
M  V30 5174 H 465.763 1.09625 -3.64262 0
M  V30 5175 H 467.075 1.64616 -4.70853 0
M  V30 5176 H 466.229 3.99743 -4.56389 0
M  V30 5177 H 464.968 3.49286 -3.40368 0
M  V30 5178 H 463.973 1.96933 -5.1332 0
M  V30 5179 H 465.198 2.50207 -6.31327 0
M  V30 5180 H 463.144 4.29257 -4.96059 0
M  V30 5181 H 463.061 3.70598 -6.58933 0
M  V30 5182 H 464.329 4.80586 -6.13724 0
M  V30 5183 N 468.558 1.5553 0.254621 0
M  V30 5184 C 469.468 1.92789 1.33677 0
M  V30 5185 C 470.484 0.827356 1.53071 0
M  V30 5186 O 471.66 1.12807 1.66843 0
M  V30 5187 C 468.725 2.20827 2.67275 0
M  V30 5188 C 467.786 3.4427 2.5647 0
M  V30 5189 C 467.019 3.70961 3.83697 0
M  V30 5190 O 467.242 2.99852 4.85227 0
M  V30 5191 O 466.176 4.64491 3.82794 0
M  V30 5192 H 470.002 2.84945 1.05071 0
M  V30 5193 H 467.587 1.42312 0.454723 0
M  V30 5194 H 469.469 2.40204 3.46237 0
M  V30 5195 H 468.144 1.31851 2.9563 0
M  V30 5196 H 467.051 3.30209 1.75821 0
M  V30 5197 H 468.384 4.33524 2.33062 0
M  V30 5198 N 470.036 -0.519951 1.48776 0
M  V30 5199 C 471.261 -1.30447 1.6124 0
M  V30 5200 C 471.686 -1.86055 0.276591 0
M  V30 5201 O 471.044 -1.64915 -0.753183 0
M  V30 5202 C 471.092 -2.42406 2.66967 0
M  V30 5203 O 470.196 -3.45728 2.24824 0
M  V30 5204 H 469.537 -0.385924 0.540332 0
M  V30 5205 H 472.067 -0.624572 1.94834 0
M  V30 5206 H 472.077 -2.88447 2.88552 0
M  V30 5207 H 470.752 -2.01294 3.63941 0
M  V30 5208 H 469.329 -3.05737 2.13494 0
M  V30 5209 N 471.514 -1.37532 -0.769588 0
M  V30 5210 C 472.444 -1.36172 -1.89682 0
M  V30 5211 C 473.425 -0.23001 -1.68538 0
M  V30 5212 O 474.61 -0.43069 -1.89364 0
M  V30 5213 C 471.74 -1.1701 -3.26995 0
M  V30 5214 C 470.694 -2.27216 -3.62708 0
M  V30 5215 C 470.02 -1.93174 -4.98586 0
M  V30 5216 C 471.32 -3.6941 -3.69234 0
M  V30 5217 H 473.014 -2.30499 -1.91078 0
M  V30 5218 H 470.56 -1.10953 -0.917902 0
M  V30 5219 H 472.513 -1.14688 -4.05493 0
M  V30 5220 H 471.237 -0.191395 -3.26039 0
M  V30 5221 H 469.896 -2.28697 -2.86519 0
M  V30 5222 H 469.544 -0.938281 -4.94171 0
M  V30 5223 H 469.244 -2.66973 -5.23449 0
M  V30 5224 H 470.768 -1.92443 -5.79481 0
M  V30 5225 H 472.182 -3.70047 -4.37879 0
M  V30 5226 H 470.579 -4.4228 -4.05597 0
M  V30 5227 H 471.649 -4.0288 -2.69844 0
M  V30 5228 N 472.992 0.995999 -1.22138 0
M  V30 5229 C 473.922 2.10387 -1.01289 0
M  V30 5230 C 474.903 1.69975 0.0651454 0
M  V30 5231 O 476.088 1.9396 -0.0964628 0
M  V30 5232 C 473.218 3.42312 -0.586517 0
M  V30 5233 C 472.172 3.96558 -1.61014 0
M  V30 5234 C 471.498 5.24494 -1.0397 0
M  V30 5235 C 472.798 4.27595 -2.99933 0
M  V30 5236 H 474.492 2.28086 -1.93951 0
M  V30 5237 H 472.038 1.09607 -0.933928 0
M  V30 5238 H 473.991 4.19223 -0.427793 0
M  V30 5239 H 472.715 3.24431 0.375761 0
M  V30 5240 H 471.374 3.21776 -1.75658 0
M  V30 5241 H 471.022 5.02953 -0.0688703 0
M  V30 5242 H 470.722 5.61755 -1.72352 0
M  V30 5243 H 472.246 6.04042 -0.892494 0
M  V30 5244 H 473.66 4.95315 -2.8868 0
M  V30 5245 H 472.057 4.76021 -3.6541 0
M  V30 5246 H 473.127 3.35498 -3.50099 0
M  V30 5247 N 474.47 1.03057 1.19235 0
M  V30 5248 C 475.418 0.606391 2.24557 0
M  V30 5249 C 476.412 -0.361826 1.65491 0
M  V30 5250 O 477.618 -0.23022 1.78522 0
M  V30 5251 H 473.993 0.177838 0.730669 0
M  V30 5252 H 475.964 1.50529 2.5765 0
M  V30 5253 C 474.713 -0.0252127 3.47691 0
M  V30 5254 H 474.036 0.710838 3.9343 0
M  V30 5255 H 475.476 -0.284931 4.23042 0
M  V30 5256 C 473.935 -1.27229 3.11953 0
M  V30 5257 O 474.465 -2.36416 3.24762 0
M  V30 5258 N 472.671 -1.16169 2.6637 0
M  V30 5259 H 472.218 -0.273189 2.56147 0
M  V30 5260 H 472.176 -1.99703 2.42829 0
M  V30 5261 N 475.948 -1.35272 0.808662 0
M  V30 5262 C 476.898 -2.27181 0.193124 0
M  V30 5263 C 477.882 -1.47871 -0.634265 0
M  V30 5264 O 479.074 -1.70048 -0.491182 0
M  V30 5265 C 476.203 -3.36979 -0.655751 0
M  V30 5266 C 475.289 -4.23712 0.181481 0
M  V30 5267 N 475.68 -4.90225 1.24551 0
M  V30 5268 C 473.978 -4.45985 -0.0365493 0
M  V30 5269 C 474.679 -5.54537 1.75682 0
M  V30 5270 N 473.655 -5.33107 1.06294 0
M  V30 5271 H 477.457 -2.76101 1.00724 0
M  V30 5272 H 474.971 -1.48823 0.650029 0
M  V30 5273 H 476.968 -4.01774 -1.11279 0
M  V30 5274 H 475.628 -2.89611 -1.46819 0
M  V30 5275 H 476.639 -4.91641 1.62818 0
M  V30 5276 H 473.316 -4.09409 -0.817964 0
M  V30 5277 H 474.706 -6.17597 2.64621 0
M  V30 5278 N 477.426 -0.562348 -1.47226 0
M  V30 5279 C 478.374 0.195476 -2.31777 0
M  V30 5280 C 479.368 0.90433 -1.43242 0
M  V30 5281 O 480.574 0.825031 -1.59979 0
M  V30 5282 H 476.949 0.0819095 -0.747526 0
M  V30 5283 H 478.92 -0.536753 -2.93533 0
M  V30 5284 C 477.669 1.20902 -3.26003 0
M  V30 5285 H 476.992 0.672997 -3.94095 0
M  V30 5286 H 478.432 1.71006 -3.87986 0
M  V30 5287 C 476.891 2.25955 -2.49891 0
M  V30 5288 O 477.421 3.32969 -2.2471 0
M  V30 5289 N 475.627 2.00019 -2.1081 0
M  V30 5290 H 475.174 1.13006 -2.31489 0
M  V30 5291 H 475.132 2.70523 -1.60201 0
M  V30 5292 N 478.904 1.54736 -0.299062 0
M  V30 5293 C 479.867 2.22127 0.565012 0
M  V30 5294 C 480.867 1.20669 1.06281 0
M  V30 5295 O 482.057 1.45417 0.959145 0
M  V30 5296 C 479.189 2.90611 1.78208 0
M  V30 5297 H 480.382 2.99891 -0.0237448 0
M  V30 5298 H 477.935 1.5622 -0.0498788 0
M  V30 5299 H 478.67 2.16921 2.41072 0
M  V30 5300 H 478.455 3.64984 1.43281 0
M  V30 5301 H 479.945 3.42026 2.396 0
M  V30 5302 N 480.382 0.0267497 1.57577 0
M  V30 5303 C 481.631 -0.651736 1.9088 0
M  V30 5304 C 481.944 -1.73427 0.904576 0
M  V30 5305 O 483.15 -2.46923 1.12877 0
M  V30 5306 C 481.606 -1.21048 3.38933 0
M  V30 5307 C 481.214 -0.161362 4.47709 0
M  V30 5308 C 482.958 -1.86562 3.81307 0
M  V30 5309 C 480.865 -0.731611 5.86857 0
M  V30 5310 H 479.795 -0.247198 0.712326 0
M  V30 5311 H 482.446 0.0916641 1.83271 0
M  V30 5312 H 480.828 -2.00542 3.41466 0
M  V30 5313 H 482.002 0.61094 4.56732 0
M  V30 5314 H 480.317 0.394877 4.14523 0
M  V30 5315 H 482.914 -2.30178 4.8262 0
M  V30 5316 H 483.257 -2.70735 3.16241 0
M  V30 5317 H 483.79 -1.13762 3.81186 0
M  V30 5318 H 480.529 0.0719329 6.55461 0
M  V30 5319 H 480.049 -1.47245 5.81445 0
M  V30 5320 H 481.728 -1.22208 6.35354 0
M  V30 5321 N 481.861 -1.55662 -0.24637 0
M  V30 5322 C 483.11 -1.7672 -0.972254 0
M  V30 5323 C 483.423 -0.59078 -1.86465 0
M  V30 5324 O 484.629 -0.684391 -2.62732 0
M  V30 5325 C 483.085 -3.12869 -1.7788 0
M  V30 5326 C 482.693 -4.38161 -0.933768 0
M  V30 5327 C 484.437 -3.43265 -2.49738 0
M  V30 5328 C 482.344 -5.6534 -1.73623 0
M  V30 5329 H 481.274 -0.658795 -0.366749 0
M  V30 5330 H 483.925 -1.82092 -0.226902 0
M  V30 5331 H 482.307 -3.01606 -2.56612 0
M  V30 5332 H 483.481 -4.60413 -0.188736 0
M  V30 5333 H 481.796 -4.15102 -0.328488 0
M  V30 5334 H 484.393 -4.35501 -3.10231 0
M  V30 5335 H 484.736 -2.64614 -3.2138 0
M  V30 5336 H 485.269 -3.55746 -1.78016 0
M  V30 5337 H 482.008 -6.46814 -1.06354 0
M  V30 5338 H 481.528 -5.47188 -2.45653 0
M  V30 5339 H 483.207 -6.04616 -2.30323 0
M  V30 5340 N 483.339 0.512053 -1.4905 0
M  V30 5341 C 484.287 1.63568 -1.65373 0
M  V30 5342 C 485.281 1.61228 -0.519806 0
M  V30 5343 O 486.487 1.65869 -0.699101 0
M  V30 5344 H 482.862 0.542019 -0.521267 0
M  V30 5345 H 484.833 1.4695 -2.59708 0
M  V30 5346 C 483.582 3.01761 -1.7273 0
M  V30 5347 H 482.905 3.04263 -2.59353 0
M  V30 5348 H 484.345 3.79948 -1.8819 0
M  V30 5349 C 482.804 3.33609 -0.46973 0
M  V30 5350 O 483.334 3.99607 0.409492 0
M  V30 5351 N 481.54 2.88651 -0.336003 0
M  V30 5352 H 481.087 2.35119 -1.05247 0
M  V30 5353 H 481.045 3.10328 0.504363 0
M  V30 5354 N 484.817 1.37938 0.762283 0
M  V30 5355 C 486.064 1.33668 1.52115 0
M  V30 5356 C 486.392 -0.0759538 1.94352 0
M  V30 5357 O 485.647 -1.05121 1.6507 0
M  V30 5358 C 485.946 2.23042 2.79261 0
M  V30 5359 C 485.612 3.71159 2.56031 0
M  V30 5360 C 484.274 4.11523 2.49404 0
M  V30 5361 C 486.626 4.64955 2.35513 0
M  V30 5362 C 483.954 5.43784 2.20263 0
M  V30 5363 C 486.306 5.97464 2.07894 0
M  V30 5364 C 484.97 6.36922 1.99718 0
M  V30 5365 H 484.24 0.489127 0.556629 0
M  V30 5366 H 486.887 1.70224 0.877262 0
M  V30 5367 H 485.192 1.79512 3.48256 0
M  V30 5368 H 486.889 2.17047 3.37182 0
M  V30 5369 H 483.479 3.39153 2.62056 0
M  V30 5370 H 487.663 4.34623 2.39617 0
M  V30 5371 H 482.919 5.73307 2.12435 0
M  V30 5372 H 487.093 6.6969 1.91019 0
M  V30 5373 H 484.72 7.39331 1.76902 0
M  V30 5374 N 486.295 -0.989507 1.22664 0
M  V30 5375 C 487.542 -1.72953 1.05325 0
M  V30 5376 C 487.87 -1.90104 -0.411168 0
M  V30 5377 O 487.125 -1.44386 -1.32103 0
M  V30 5378 C 487.424 -3.13649 1.71345 0
M  V30 5379 C 487.09 -3.16403 3.21248 0
M  V30 5380 C 485.752 -3.16862 3.62149 0
M  V30 5381 C 488.104 -3.12428 4.17179 0
M  V30 5382 C 485.432 -3.11051 4.97458 0
M  V30 5383 C 487.784 -3.08159 5.52468 0
M  V30 5384 C 486.448 -3.06935 5.92746 0
M  V30 5385 H 485.718 -0.632881 0.385412 0
M  V30 5386 H 488.365 -1.15863 1.52473 0
M  V30 5387 H 486.67 -3.74069 1.16532 0
M  V30 5388 H 488.367 -3.69658 1.55416 0
M  V30 5389 H 484.957 -3.16798 2.88682 0
M  V30 5390 H 489.141 -3.11221 3.86595 0
M  V30 5391 H 484.397 -3.0845 5.27891 0
M  V30 5392 H 488.571 -3.04039 6.26525 0
M  V30 5393 H 486.198 -3.02186 6.97558 0
M  V30 5394 N 487.773 -1.03688 -1.18687 0
M  V30 5395 C 488.72 -0.624624 -2.22187 0
M  V30 5396 C 489.69 0.365636 -1.62026 0
M  V30 5397 O 490.875 0.260481 -1.89014 0
M  V30 5398 C 488.015 0.0101738 -3.45099 0
M  V30 5399 C 487.128 -1.02709 -4.19613 0
M  V30 5400 C 486.263 -0.361213 -5.2997 0
M  V30 5401 C 485.302 -1.38384 -5.96252 0
M  V30 5402 N 484.439 -0.743196 -6.98155 0
M  V30 5403 H 489.279 -1.51176 -2.56807 0
M  V30 5404 H 486.816 -0.75636 -1.26165 0
M  V30 5405 H 488.774 0.395528 -4.15321 0
M  V30 5406 H 487.404 0.860848 -3.1111 0
M  V30 5407 H 486.456 -1.53043 -3.48256 0
M  V30 5408 H 487.768 -1.80398 -4.65036 0
M  V30 5409 H 486.922 0.0785537 -6.06649 0
M  V30 5410 H 485.661 0.447799 -4.8564 0
M  V30 5411 H 484.666 -1.83378 -5.18317 0
M  V30 5412 H 485.891 -2.19448 -6.42666 0
M  V30 5413 H 483.837 0.0455789 -6.55984 0
M  V30 5414 H 483.754 -1.45784 -7.41811 0
M  V30 5415 H 485.022 -0.327698 -7.78811 0
M  V30 5416 N 489.251 1.34841 -0.815825 0
M  V30 5417 C 490.528 1.92908 -0.323416 0
M  V30 5418 C 490.908 1.74479 1.18828 0
M  V30 5419 O 490.256 1.11928 1.99209 0
M  V30 5420 C 490.466 3.40957 -0.744952 0
M  V30 5421 C 491.814 4.18107 -0.739716 0
M  V30 5422 O 492.838 3.49511 -0.68708 0
M  V30 5423 O 491.697 5.40517 -0.806456 0
M  V30 5424 H 488.791 0.822436 -0.0867646 0
M  V30 5425 H 491.337 1.4386 -0.90014 0
M  V30 5426 H 490.109 3.4814 -1.78646 0
M  V30 5427 H 489.732 3.97341 -0.143535 0
M  V30 5428 N 490.729 0.570148 1.46925 0
M  V30 5429 C 491.975 0.0510284 2.02736 0
M  V30 5430 C 492.308 -1.3006 1.44215 0
M  V30 5431 O 491.583 -1.84932 0.602521 0
M  V30 5432 C 491.866 -0.028215 3.60089 0
M  V30 5433 C 491.719 1.35142 4.29018 0
M  V30 5434 C 493.038 -0.735181 4.33916 0
M  V30 5435 H 490.157 0.0200178 0.736728 0
M  V30 5436 H 492.799 0.73493 1.75211 0
M  V30 5437 H 490.949 -0.610648 3.83671 0
M  V30 5438 H 492.621 1.97806 4.16738 0
M  V30 5439 H 490.864 1.9226 3.88868 0
M  V30 5440 H 491.535 1.24857 5.37694 0
M  V30 5441 H 494.011 -0.240519 4.15404 0
M  V30 5442 H 492.887 -0.759622 5.43618 0
M  V30 5443 H 493.148 -1.79397 4.04066 0
M  V30 5444 N 492.207 -1.54576 0.307264 0
M  V30 5445 C 493.117 -2.27435 -0.57536 0
M  V30 5446 C 494.133 -1.31183 -1.14311 0
M  V30 5447 O 495.309 -1.64175 -1.16656 0
M  V30 5448 C 492.374 -3.00566 -1.72803 0
M  V30 5449 C 491.435 -4.12369 -1.19373 0
M  V30 5450 C 490.668 -4.82003 -2.29147 0
M  V30 5451 O 490.891 -4.51038 -3.49171 0
M  V30 5452 O 489.825 -5.69271 -1.95485 0
M  V30 5453 H 493.651 -3.03696 0.0158558 0
M  V30 5454 H 491.236 -1.49219 0.0735064 0
M  V30 5455 H 493.118 -3.46416 -2.39946 0
M  V30 5456 H 491.793 -2.27195 -2.30574 0
M  V30 5457 H 490.7 -3.70905 -0.487851 0
M  V30 5458 H 492.033 -4.87736 -0.661376 0
M  V30 5459 N 493.685 -0.035106 -1.57561 0
M  V30 5460 C 494.648 0.929819 -2.09492 0
M  V30 5461 C 495.648 1.25026 -1.01119 0
M  V30 5462 O 496.838 1.18961 -1.27255 0
M  V30 5463 C 493.97 2.24457 -2.56577 0
M  V30 5464 H 495.163 0.479935 -2.96035 0
M  V30 5465 H 492.716 0.213033 -1.54841 0
M  V30 5466 H 493.451 2.74061 -1.73382 0
M  V30 5467 H 493.236 2.02508 -3.35757 0
M  V30 5468 H 494.726 2.93607 -2.96959 0
M  V30 5469 N 495.163 1.55791 0.238111 0
M  V30 5470 C 496.411 1.77681 0.963001 0
M  V30 5471 C 496.732 0.600674 1.85518 0
M  V30 5472 O 496.002 -0.383182 1.92116 0
M  V30 5473 H 494.582 0.655315 0.358568 0
M  V30 5474 H 497.244 1.93239 0.253945 0
M  V30 5475 H 496.34 2.69177 1.57956 0
M  V30 5476 N 496.642 -0.504142 1.49319 0
M  V30 5477 C 497.589 -1.60603 1.65756 0
M  V30 5478 C 498.559 -1.58425 0.499082 0
M  V30 5479 O 499.744 -1.76459 0.725728 0
M  V30 5480 C 496.884 -2.98764 1.72726 0
M  V30 5481 C 495.997 -3.10982 2.99857 0
M  V30 5482 C 495.132 -4.39857 2.97824 0
M  V30 5483 C 494.171 -4.45697 4.19548 0
M  V30 5484 N 493.308 -5.65995 4.15444 0
M  V30 5485 H 498.148 -1.45895 2.59843 0
M  V30 5486 H 495.685 -0.709891 1.28837 0
M  V30 5487 H 497.643 -3.78839 1.74747 0
M  V30 5488 H 496.273 -3.12183 0.821075 0
M  V30 5489 H 495.325 -2.23991 3.07461 0
M  V30 5490 H 496.637 -3.11157 3.89849 0
M  V30 5491 H 495.791 -5.2825 2.98391 0
M  V30 5492 H 494.53 -4.42242 2.05604 0
M  V30 5493 H 493.535 -3.55707 4.19229 0
M  V30 5494 H 494.76 -4.4503 5.12957 0
M  V30 5495 H 492.706 -5.69229 3.26059 0
M  V30 5496 H 492.623 -5.67773 4.99169 0
M  V30 5497 H 493.891 -6.56604 4.20109 0
M  V30 5498 N 498.12 -1.38341 -0.754957 0
M  V30 5499 C 499.369 -1.33791 -1.5094 0
M  V30 5500 C 499.682 0.0699267 -1.95475 0
M  V30 5501 O 500.888 0.237956 -2.70455 0
M  V30 5502 C 499.344 -2.34934 -2.72643 0
M  V30 5503 C 498.952 -3.81332 -2.35138 0
M  V30 5504 C 500.696 -2.39425 -3.50536 0
M  V30 5505 C 498.603 -4.74164 -3.53444 0
M  V30 5506 H 497.533 -0.497314 -0.566741 0
M  V30 5507 H 500.184 -1.63888 -0.825403 0
M  V30 5508 H 498.566 -1.97878 -3.43017 0
M  V30 5509 H 499.74 -4.27319 -1.7244 0
M  V30 5510 H 498.055 -3.79946 -1.70382 0
M  V30 5511 H 500.652 -3.0598 -4.38498 0
M  V30 5512 H 500.995 -1.41278 -3.91594 0
M  V30 5513 H 501.528 -2.75274 -2.87174 0
M  V30 5514 H 498.267 -5.73501 -3.17453 0
M  V30 5515 H 497.787 -4.3287 -4.15191 0
M  V30 5516 H 499.466 -4.92111 -4.20043 0
M  V30 5517 N 499.598 0.982988 -1.23187 0
M  V30 5518 C 500.508 2.10907 -1.02739 0
M  V30 5519 C 501.524 1.73979 0.0273188 0
M  V30 5520 O 502.7 2.00702 -0.16757 0
M  V30 5521 C 499.765 3.41142 -0.618304 0
M  V30 5522 C 498.826 3.92112 -1.74777 0
M  V30 5523 C 498.059 5.16131 -1.3581 0
M  V30 5524 O 498.282 5.6989 -0.241201 0
M  V30 5525 O 497.216 5.61103 -2.17824 0
M  V30 5526 H 501.042 2.31046 -1.97108 0
M  V30 5527 H 498.627 1.09284 -1.01869 0
M  V30 5528 H 500.509 4.19488 -0.400982 0
M  V30 5529 H 499.184 3.2234 0.296421 0
M  V30 5530 H 498.091 3.14895 -2.0197 0
M  V30 5531 H 499.424 4.15364 -2.64071 0
M  V30 5532 N 501.076 1.04316 1.18135 0
M  V30 5533 C 502.023 0.636398 2.21853 0
M  V30 5534 C 502.993 -0.357039 1.62217 0
M  V30 5535 O 504.178 -0.250453 1.89149 0
M  V30 5536 C 501.318 0.00812779 3.45099 0
M  V30 5537 C 500.431 1.04933 4.19062 0
M  V30 5538 C 499.566 0.389313 5.29771 0
M  V30 5539 C 498.605 1.41544 5.9551 0
M  V30 5540 N 497.742 0.78021 6.97751 0
M  V30 5541 H 502.582 1.52536 2.56002 0
M  V30 5542 H 500.119 0.76304 1.25762 0
M  V30 5543 H 502.077 -0.373497 4.15525 0
M  V30 5544 H 500.707 -0.844336 3.11562 0
M  V30 5545 H 499.759 1.54888 3.47439 0
M  V30 5546 H 501.071 1.82862 4.64072 0
M  V30 5547 H 500.225 -0.0463805 6.06682 0
M  V30 5548 H 498.964 -0.422038 4.8587 0
M  V30 5549 H 497.969 1.86124 5.17337 0
M  V30 5550 H 499.194 2.22854 6.41493 0
M  V30 5551 H 497.14 -0.0107899 6.55999 0
M  V30 5552 H 497.057 1.49716 7.41027 0
M  V30 5553 H 498.325 0.368996 7.78626 0
M  V30 5554 N 502.554 -1.34406 0.822964 0
M  V30 5555 C 503.779 -2.0304 0.423034 0
M  V30 5556 C 504.204 -1.61568 -0.963196 0
M  V30 5557 O 503.562 -0.800339 -1.62678 0
M  V30 5558 C 503.61 -3.56636 0.53321 0
M  V30 5559 O 502.714 -4.09971 -0.446939 0
M  V30 5560 H 502.055 -0.64075 0.174171 0
M  V30 5561 H 504.585 -1.71653 1.11339 0
M  V30 5562 H 504.595 -4.05945 0.408991 0
M  V30 5563 H 503.27 -3.86168 1.54425 0
M  V30 5564 H 501.847 -3.71835 -0.281601 0
M  V30 5565 N 504.032 -0.577932 -1.46621 0
M  V30 5566 C 504.962 0.145917 -2.33044 0
M  V30 5567 C 505.943 0.888412 -1.45056 0
M  V30 5568 O 507.128 0.864812 -1.73881 0
M  V30 5569 C 504.258 1.16322 -3.27241 0
M  V30 5570 C 503.212 0.535868 -4.24632 0
M  V30 5571 C 502.538 1.65929 -5.08303 0
M  V30 5572 C 503.838 -0.523861 -5.19666 0
M  V30 5573 H 505.532 -0.575636 -2.93814 0
M  V30 5574 H 503.078 -0.278272 -1.41286 0
M  V30 5575 H 505.031 1.67793 -3.86553 0
M  V30 5576 H 503.755 1.91498 -2.64567 0
M  V30 5577 H 502.414 0.0422759 -3.66576 0
M  V30 5578 H 502.062 2.40061 -4.42018 0
M  V30 5579 H 501.762 1.2452 -5.74255 0
M  V30 5580 H 503.286 2.17686 -5.70478 0
M  V30 5581 H 504.7 -0.0944059 -5.73222 0
M  V30 5582 H 503.097 -0.858 -5.93935 0
M  V30 5583 H 504.167 -1.41197 -4.63887 0
M  V30 5584 N 505.51 1.54411 -0.315457 0
M  V30 5585 C 506.457 2.24048 0.554166 0
M  V30 5586 C 507.427 1.2283 1.11812 0
M  V30 5587 O 508.612 1.51491 1.15997 0
M  V30 5588 C 505.752 2.99574 1.71316 0
M  V30 5589 C 504.865 4.15594 1.17922 0
M  V30 5590 C 504 4.78669 2.30324 0
M  V30 5591 C 503.039 5.86807 1.74137 0
M  V30 5592 N 502.176 6.43777 2.8017 0
M  V30 5593 H 507.016 2.97964 -0.0462602 0
M  V30 5594 H 504.553 1.47059 -0.0346009 0
M  V30 5595 H 506.511 3.41604 2.39505 0
M  V30 5596 H 505.141 2.28008 2.285 0
M  V30 5597 H 504.193 3.78404 0.389136 0
M  V30 5598 H 505.505 4.93459 0.728012 0
M  V30 5599 H 504.659 5.23626 3.06433 0
M  V30 5600 H 503.398 4.00168 2.78778 0
M  V30 5601 H 502.403 5.41261 0.965236 0
M  V30 5602 H 503.628 6.67201 1.2657 0
M  V30 5603 H 501.574 5.68153 3.2793 0
M  V30 5604 H 501.491 7.17031 2.39588 0
M  V30 5605 H 502.759 6.9339 3.56132 0
M  V30 5606 N 506.988 0.0434614 1.5754 0
M  V30 5607 C 508.213 -0.645358 1.97104 0
M  V30 5608 C 508.638 -1.64037 0.920521 0
M  V30 5609 O 507.996 -1.80922 -0.11708 0
M  V30 5610 C 508.044 -1.31547 3.35749 0
M  V30 5611 O 507.148 -2.43103 3.33129 0
M  V30 5612 H 506.489 -0.168403 0.64229 0
M  V30 5613 H 509.019 0.109573 2.04306 0
M  V30 5614 H 509.029 -1.66895 3.72304 0
M  V30 5615 H 507.704 -0.586205 4.11748 0
M  V30 5616 H 506.281 -2.0976 3.0831 0
M  V30 5617 N 508.466 -1.55915 -0.229846 0
M  V30 5618 C 509.376 -1.94891 -1.30593 0
M  V30 5619 C 510.392 -0.851604 -1.51736 0
M  V30 5620 O 511.568 -1.15447 -1.65027 0
M  V30 5621 C 508.633 -2.25052 -2.63728 0
M  V30 5622 C 507.694 -3.48306 -2.5096 0
M  V30 5623 C 506.927 -3.77019 -3.77747 0
M  V30 5624 O 507.15 -3.07534 -4.80395 0
M  V30 5625 O 506.084 -4.70523 -3.75356 0
M  V30 5626 H 509.91 -2.86581 -1.00525 0
M  V30 5627 H 507.495 -1.43017 -0.432025 0
M  V30 5628 H 509.377 -2.45682 -3.42372 0
M  V30 5629 H 508.052 -1.36538 -2.93495 0
M  V30 5630 H 506.959 -3.32964 -1.70546 0
M  V30 5631 H 508.292 -4.37177 -2.26136 0
M  V30 5632 N 509.944 0.496216 -1.49584 0
M  V30 5633 C 511.355 1.07765 -1.52459 0
M  V30 5634 C 511.706 1.93679 -0.31353 0
M  V30 5635 O 510.831 2.08588 0.576186 0
M  V30 5636 C 511.426 1.96111 -2.76271 0
M  V30 5637 C 509.985 2.49409 -2.81908 0
M  V30 5638 C 509.132 1.27142 -2.46435 0
M  V30 5639 H 512.083 0.279914 -1.56212 0
M  V30 5640 H 512.104 2.80862 -2.56704 0
M  V30 5641 H 511.616 1.33555 -3.64396 0
M  V30 5642 H 509.717 3.1559 -1.98074 0
M  V30 5643 H 509.83 2.86234 -3.84196 0
M  V30 5644 H 508.194 1.59818 -1.98319 0
M  V30 5645 H 508.977 0.662866 -3.3684 0
M  V30 5646 N 511.423 1.38739 0.74761 0
M  V30 5647 C 512.672 1.3459 1.50228 0
M  V30 5648 C 512.985 -0.0595592 1.95509 0
M  V30 5649 O 514.191 -0.22361 2.70578 0
M  V30 5650 C 512.647 2.36377 2.71393 0
M  V30 5651 C 512.255 3.82573 2.33113 0
M  V30 5652 C 513.999 2.41281 3.49262 0
M  V30 5653 C 511.906 4.76032 3.50924 0
M  V30 5654 H 510.836 0.500312 0.564096 0
M  V30 5655 H 513.487 1.64324 0.8167 0
M  V30 5656 H 511.869 1.99694 3.41962 0
M  V30 5657 H 513.043 4.28227 1.70171 0
M  V30 5658 H 511.358 3.80844 1.68365 0
M  V30 5659 H 513.955 3.08301 4.36869 0
M  V30 5660 H 514.298 1.43353 3.9084 0
M  V30 5661 H 514.831 2.76793 2.85711 0
M  V30 5662 H 511.57 5.75177 3.14408 0
M  V30 5663 H 511.09 4.35066 4.12889 0
M  V30 5664 H 512.769 4.94331 4.17427 0
M  V30 5665 N 512.901 -0.976442 1.23707 0
M  V30 5666 C 514.312 -1.53284 1.06587 0
M  V30 5667 C 514.663 -1.92765 -0.365526 0
M  V30 5668 O 513.788 -1.7645 -1.25277 0
M  V30 5669 C 514.383 -2.78548 1.92864 0
M  V30 5670 C 512.942 -3.30574 1.79994 0
M  V30 5671 C 512.089 -2.03538 1.88328 0
M  V30 5672 H 515.04 -0.795692 1.37311 0
M  V30 5673 H 515.061 -3.5155 1.45577 0
M  V30 5674 H 514.573 -2.49782 2.97037 0
M  V30 5675 H 512.674 -3.64211 0.786202 0
M  V30 5676 H 512.787 -4.00065 2.636 0
M  V30 5677 H 511.151 -2.17853 1.31954 0
M  V30 5678 H 511.934 -1.77149 2.94063 0
M  V30 5679 N 514.379 -1.04941 -1.1758 0
M  V30 5680 C 515.289 -0.658826 -2.25159 0
M  V30 5681 C 516.305 0.318941 -1.71052 0
M  V30 5682 O 517.481 0.171669 -2.00667 0
M  V30 5683 C 514.546 -0.0369522 -3.4668 0
M  V30 5684 C 513.607 -1.06484 -4.15884 0
M  V30 5685 C 512.84 -0.472551 -5.31604 0
M  V30 5686 O 513.063 0.718736 -5.65854 0
M  V30 5687 O 511.997 -1.20557 -5.89703 0
M  V30 5688 H 515.823 -1.55533 -2.60851 0
M  V30 5689 H 513.408 -0.820819 -1.24832 0
M  V30 5690 H 515.29 0.308784 -4.20267 0
M  V30 5691 H 513.965 0.833238 -3.12792 0
M  V30 5692 H 512.872 -1.46253 -3.44327 0
M  V30 5693 H 514.205 -1.9061 -4.53794 0
M  V30 5694 N 515.857 1.33968 -0.830081 0
M  V30 5695 C 517.134 1.92554 -0.343858 0
M  V30 5696 C 517.514 1.7573 1.16971 0
M  V30 5697 O 516.862 1.14035 1.98011 0
M  V30 5698 C 517.072 3.40147 -0.781073 0
M  V30 5699 C 518.42 4.17299 -0.78402 0
M  V30 5700 O 519.444 3.48762 -0.724112 0
M  V30 5701 O 518.303 5.39631 -0.863739 0
M  V30 5702 H 515.397 0.821469 -0.0954827 0
M  V30 5703 H 517.943 1.42897 -0.915348 0
M  V30 5704 H 516.715 3.46225 -1.82329 0
M  V30 5705 H 516.338 3.97166 -0.18567 0
M  V30 5706 N 517.335 0.585699 1.46312 0
M  V30 5707 C 518.612 0.00542031 1.95599 0
M  V30 5708 C 518.992 -1.45619 1.52834 0
M  V30 5709 O 518.34 -2.14759 0.780446 0
M  V30 5710 C 518.55 0.180601 3.48532 0
M  V30 5711 C 519.898 0.049979 4.24571 0
M  V30 5712 O 520.922 0.109589 3.56031 0
M  V30 5713 O 519.781 -0.0832226 5.46437 0
M  V30 5714 H 516.875 -0.0481281 0.825598 0
M  V30 5715 H 519.421 0.654227 1.56582 0
M  V30 5716 H 518.193 1.19657 3.72556 0
M  V30 5717 H 517.816 -0.504498 3.94386 0
M  V30 5718 N 518.813 -1.54241 0.323641 0
M  V30 5719 C 519.76 -2.24339 -0.542277 0
M  V30 5720 C 520.73 -1.23421 -1.11159 0
M  V30 5721 O 521.915 -1.52104 -1.15192 0
M  V30 5722 C 519.055 -3.00479 -1.69725 0
M  V30 5723 C 518.168 -4.16214 -1.15716 0
M  V30 5724 C 517.303 -4.79884 -2.27783 0
M  V30 5725 C 516.342 -5.87722 -1.71023 0
M  V30 5726 N 515.479 -6.45254 -2.76752 0
M  V30 5727 H 520.319 -2.97935 0.0620613 0
M  V30 5728 H 517.856 -1.47039 0.0423993 0
M  V30 5729 H 519.814 -3.42869 -2.3769 0
M  V30 5730 H 518.444 -2.29217 -2.27288 0
M  V30 5731 H 517.496 -3.78605 -0.369063 0
M  V30 5732 H 518.808 -4.93838 -0.701832 0
M  V30 5733 H 517.962 -5.25243 -3.03651 0
M  V30 5734 H 516.701 -4.01641 -2.76652 0
M  V30 5735 H 515.706 -5.41765 -0.936518 0
M  V30 5736 H 516.931 -6.67863 -1.2303 0
M  V30 5737 H 514.877 -5.69884 -3.24912 0
M  V30 5738 H 514.794 -7.18292 -2.35782 0
M  V30 5739 H 516.062 -6.95269 -3.5245 0
M  V30 5740 N 520.291 -0.0518155 -1.57515 0
M  V30 5741 C 521.239 0.940195 -2.12751 0
M  V30 5742 C 522.233 1.3218 -1.05948 0
M  V30 5743 O 523.439 1.30138 -1.24355 0
M  V30 5744 H 519.814 0.321066 -0.680015 0
M  V30 5745 H 521.785 0.449217 -2.94999 0
M  V30 5746 C 520.534 2.2055 -2.68799 0
M  V30 5747 H 519.857 1.92066 -3.50643 0
M  V30 5748 H 521.297 2.88119 -3.11068 0
M  V30 5749 C 519.756 2.95061 -1.62605 0
M  V30 5750 O 520.286 3.88025 -1.03921 0
M  V30 5751 N 518.492 2.57804 -1.34111 0
M  V30 5752 H 518.039 1.82281 -1.8202 0
M  V30 5753 H 517.997 3.07964 -0.632872 0
M  V30 5754 N 521.769 1.56035 0.221574 0
M  V30 5755 C 522.732 1.91584 1.2581 0
M  V30 5756 C 523.732 0.794425 1.39805 0
M  V30 5757 O 524.922 1.06217 1.38071 0
M  V30 5758 C 522.054 2.16663 2.63192 0
M  V30 5759 H 523.247 2.8429 0.954935 0
M  V30 5760 H 520.8 1.49316 0.461988 0
M  V30 5761 H 521.535 1.26508 2.98607 0
M  V30 5762 H 521.32 2.98358 2.5441 0
M  V30 5763 H 522.81 2.45262 3.37988 0
M  V30 5764 N 523.247 -0.488276 1.49845 0
M  V30 5765 C 524.658 -1.06955 1.53028 0
M  V30 5766 C 525.009 -1.9351 0.323797 0
M  V30 5767 O 524.134 -2.08891 -0.565116 0
M  V30 5768 C 524.729 -1.94643 2.77307 0
M  V30 5769 C 523.288 -2.4791 2.83227 0
M  V30 5770 C 522.435 -1.25833 2.47106 0
M  V30 5771 H 525.386 -0.271626 1.56358 0
M  V30 5772 H 525.407 -2.79496 2.5819 0
M  V30 5773 H 524.919 -1.31621 3.65099 0
M  V30 5774 H 523.02 -3.14535 1.99745 0
M  V30 5775 H 523.133 -2.84193 3.85709 0
M  V30 5776 H 521.497 -1.58764 1.99163 0
M  V30 5777 H 522.28 -0.644993 3.37186 0
M  V30 5778 N 524.725 -1.39134 -0.740242 0
M  V30 5779 C 525.971 -1.36273 -1.50192 0
M  V30 5780 C 526.304 0.0430136 -1.94152 0
M  V30 5781 O 525.579 1.00691 -1.66408 0
M  V30 5782 C 525.862 -2.33041 -2.74525 0
M  V30 5783 C 525.715 -3.82535 -2.36617 0
M  V30 5784 C 527.034 -2.27723 -3.76604 0
M  V30 5785 H 524.153 -0.496323 -0.544823 0
M  V30 5786 H 526.795 -1.70085 -0.846815 0
M  V30 5787 H 524.945 -2.04337 -3.30422 0
M  V30 5788 H 526.617 -4.21967 -1.86391 0
M  V30 5789 H 524.86 -3.99565 -1.68909 0
M  V30 5790 H 525.531 -4.45723 -3.2563 0
M  V30 5791 H 528.007 -2.53091 -3.30279 0
M  V30 5792 H 526.883 -2.97519 -4.61274 0
M  V30 5793 H 527.144 -1.28049 -4.2315 0
M  V30 5794 N 526.204 0.969867 -1.24223 0
M  V30 5795 C 527.151 2.06407 -1.0327 0
M  V30 5796 C 528.121 1.66014 0.0533 0
M  V30 5797 O 529.306 1.90533 -0.100896 0
M  V30 5798 C 526.446 3.3909 -0.641262 0
M  V30 5799 C 525.559 3.9269 -1.80051 0
M  V30 5800 C 524.694 5.13631 -1.35486 0
M  V30 5801 C 523.733 5.59423 -2.48419 0
M  V30 5802 N 522.87 6.71586 -2.04737 0
M  V30 5803 H 527.71 2.23663 -1.96923 0
M  V30 5804 H 525.247 1.09624 -0.980862 0
M  V30 5805 H 527.205 4.15323 -0.395351 0
M  V30 5806 H 525.835 3.21765 0.258269 0
M  V30 5807 H 524.887 3.13116 -2.16014 0
M  V30 5808 H 526.199 4.22636 -2.64916 0
M  V30 5809 H 525.353 5.97231 -1.0677 0
M  V30 5810 H 524.092 4.85364 -0.476722 0
M  V30 5811 H 523.097 4.74398 -2.77897 0
M  V30 5812 H 524.322 5.89705 -3.36786 0
M  V30 5813 H 522.268 6.45058 -1.19318 0
M  V30 5814 H 522.185 7.0097 -2.83156 0
M  V30 5815 H 523.453 7.58633 -1.79154 0
M  V30 5816 N 527.682 1.05563 1.17022 0
M  V30 5817 C 528.931 0.763036 1.8671 0
M  V30 5818 C 529.244 -0.712857 1.82147 0
M  V30 5819 O 530.45 -1.11955 2.47343 0
M  V30 5820 C 528.906 1.31474 3.35026 0
M  V30 5821 C 528.514 2.82034 3.48081 0
M  V30 5822 C 530.258 1.09935 4.10018 0
M  V30 5823 C 528.165 3.30486 4.90442 0
M  V30 5824 H 527.095 0.281747 0.699382 0
M  V30 5825 H 529.746 1.2734 1.32124 0
M  V30 5826 H 528.128 0.732171 3.89173 0
M  V30 5827 H 529.302 3.46178 3.04133 0
M  V30 5828 H 527.617 3.02156 2.86515 0
M  V30 5829 H 530.214 1.43632 5.15048 0
M  V30 5830 H 530.557 0.0373072 4.16283 0
M  V30 5831 H 531.09 1.64732 3.62089 0
M  V30 5832 H 527.829 4.36137 4.89352 0
M  V30 5833 H 527.349 2.71086 5.35044 0
M  V30 5834 H 529.028 3.25382 5.59227 0
M  V30 5835 N 529.16 -1.33526 0.837174 0
M  V30 5836 C 530.406 -1.9813 0.432704 0
M  V30 5837 C 530.739 -1.66168 -1.00508 0
M  V30 5838 O 530.014 -0.94069 -1.70239 0
M  V30 5839 C 530.297 -3.54151 0.651834 0
M  V30 5840 C 530.15 -3.95806 2.13676 0
M  V30 5841 C 531.469 -4.39993 0.0968937 0
M  V30 5842 H 528.588 -0.719713 0.15869 0
M  V30 5843 H 531.23 -1.58193 1.05237 0
M  V30 5844 H 529.38 -3.88301 0.124369 0
M  V30 5845 H 531.052 -3.71921 2.72896 0
M  V30 5846 H 529.295 -3.45599 2.62191 0
M  V30 5847 H 529.966 -5.0447 2.24084 0
M  V30 5848 H 532.442 -4.12479 0.547733 0
M  V30 5849 H 531.318 -5.48186 0.279917 0
M  V30 5850 H 531.579 -4.3066 -0.9992 0
M  V30 5851 N 530.638 -0.59345 -1.46 0
M  V30 5852 C 531.884 -0.0832754 -2.02629 0
M  V30 5853 C 532.217 1.27749 -1.46266 0
M  V30 5854 O 531.492 1.8395 -0.631866 0
M  V30 5855 C 531.775 -0.0290756 -3.60088 0
M  V30 5856 C 531.628 -1.41951 -4.26814 0
M  V30 5857 C 532.947 0.666055 -4.35031 0
M  V30 5858 H 530.066 -0.031736 -0.736316 0
M  V30 5859 H 532.708 -0.762711 -1.74019 0
M  V30 5860 H 530.858 0.549532 -3.84594 0
M  V30 5861 H 532.53 -2.04411 -4.13538 0
M  V30 5862 H 530.773 -1.98422 -3.8576 0
M  V30 5863 H 531.444 -1.33395 -5.3564 0
M  V30 5864 H 533.92 0.174401 -4.15734 0
M  V30 5865 H 532.796 0.673041 -5.44758 0
M  V30 5866 H 533.057 1.72946 -4.06869 0
M  V30 5867 N 532.116 1.54067 -0.331816 0
M  V30 5868 C 533.364 2.00319 0.267739 0
M  V30 5869 C 533.685 1.22148 1.52003 0
M  V30 5870 O 532.955 0.325494 1.93177 0
M  V30 5871 H 531.535 0.740014 0.101922 0
M  V30 5872 H 534.197 1.89628 -0.450267 0
M  V30 5873 H 533.293 3.07765 0.518385 0
M  V30 5874 N 533.594 0.0601682 1.57485 0
M  V30 5875 C 534.542 -0.928899 2.13247 0
M  V30 5876 C 535.536 -1.31616 1.06647 0
M  V30 5877 O 536.742 -1.29476 1.25043 0
M  V30 5878 H 533.117 -0.317455 0.681708 0
M  V30 5879 H 535.088 -0.433566 2.95233 0
M  V30 5880 C 533.837 -2.19121 2.69965 0
M  V30 5881 H 533.16 -1.90204 3.51657 0
M  V30 5882 H 534.6 -2.86465 3.12592 0
M  V30 5883 C 533.059 -2.94195 1.64168 0
M  V30 5884 O 533.589 -3.87468 1.05978 0
M  V30 5885 N 531.795 -2.57089 1.35476 0
M  V30 5886 H 531.342 -1.81314 1.82984 0
M  V30 5887 H 531.3 -3.07624 0.649196 0
M  V30 5888 N 535.072 -1.5615 -0.213296 0
M  V30 5889 C 536.297 -1.83986 -0.957282 0
M  V30 5890 C 536.722 -0.641526 -1.76822 0
M  V30 5891 O 536.08 0.409722 -1.7661 0
M  V30 5892 C 536.128 -3.09889 -1.84393 0
M  V30 5893 O 535.232 -2.89163 -2.94038 0
M  V30 5894 H 534.573 -0.606357 -0.270605 0
M  V30 5895 H 537.103 -2.03369 -0.224111 0
M  V30 5896 H 537.113 -3.40209 -2.25215 0
M  V30 5897 H 535.788 -3.96735 -1.24795 0
M  V30 5898 H 534.365 -2.70097 -2.57103 0
M  V30 5899 N 536.55 0.480323 -1.50102 0
M  V30 5900 C 537.797 1.23307 -1.60629 0
M  V30 5901 C 538.125 1.92135 -0.302375 0
M  V30 5902 O 537.38 1.82321 0.711154 0
M  V30 5903 C 537.679 2.30708 -2.72963 0
M  V30 5904 C 537.345 1.79195 -4.13763 0
M  V30 5905 C 536.007 1.64867 -4.52076 0
M  V30 5906 C 538.359 1.40878 -5.018 0
M  V30 5907 C 535.687 1.10631 -5.76175 0
M  V30 5908 C 538.039 0.880872 -6.26437 0
M  V30 5909 C 536.703 0.724146 -6.6356 0
M  V30 5910 H 535.973 0.451211 -0.587784 0
M  V30 5911 H 538.62 0.53051 -1.84005 0
M  V30 5912 H 536.925 3.06834 -2.43639 0
M  V30 5913 H 538.622 2.88692 -2.78313 0
M  V30 5914 H 535.212 1.91313 -3.83533 0
M  V30 5915 H 539.396 1.50786 -4.7284 0
M  V30 5916 H 534.652 0.972263 -6.0362 0
M  V30 5917 H 538.826 0.575269 -6.9402 0
M  V30 5918 H 536.453 0.301722 -7.59601 0
M  V30 5919 N 538.028 1.39524 0.732853 0
M  V30 5920 C 539.274 1.37068 1.49467 0
M  V30 5921 C 539.607 -0.0327166 1.94172 0
M  V30 5922 O 538.882 -0.998071 1.66939 0
M  V30 5923 C 539.165 2.34494 2.73285 0
M  V30 5924 C 539.018 3.83784 2.34585 0
M  V30 5925 C 540.337 2.29717 3.75391 0
M  V30 5926 H 537.456 0.499206 0.542183 0
M  V30 5927 H 540.098 1.70532 0.837783 0
M  V30 5928 H 538.248 2.06087 3.29333 0
M  V30 5929 H 539.92 4.22949 1.84151 0
M  V30 5930 H 538.163 4.00455 1.66787 0
M  V30 5931 H 538.834 4.47444 3.23262 0
M  V30 5932 H 541.31 2.54839 3.28932 0
M  V30 5933 H 540.186 2.99962 4.59689 0
M  V30 5934 H 540.447 1.30291 4.22465 0
M  V30 5935 N 539.506 -0.963266 1.24736 0
M  V30 5936 C 540.783 -1.68248 0.9976 0
M  V30 5937 C 541.163 -2.05599 -0.478776 0
M  V30 5938 O 540.511 -1.7626 -1.45412 0
M  V30 5939 C 540.721 -2.91118 1.92487 0
M  V30 5940 C 542.069 -3.63261 2.19833 0
M  V30 5941 O 543.093 -3.01184 1.90176 0
M  V30 5942 O 541.952 -4.75019 2.7022 0
M  V30 5943 H 539.046 -0.735744 0.377637 0
M  V30 5944 H 541.592 -1.01696 1.35853 0
M  V30 5945 H 540.364 -2.60242 2.92215 0
M  V30 5946 H 539.987 -3.65402 1.56738 0
M  V30 5947 N 540.985 -1.06182 -1.16461 0
M  V30 5948 C 542.231 -0.779015 -1.87241 0
M  V30 5949 C 542.564 0.692715 -1.81425 0
M  V30 5950 O 541.839 1.5074 -1.22913 0
M  V30 5951 C 542.122 -1.2728 -3.36856 0
M  V30 5952 C 541.975 -2.80821 -3.51368 0
M  V30 5953 C 543.294 -0.879799 -4.31216 0
M  V30 5954 H 540.413 -0.284464 -0.679889 0
M  V30 5955 H 543.055 -1.31755 -1.36896 0
M  V30 5956 H 541.205 -0.814673 -3.79862 0
M  V30 5957 H 542.877 -3.34833 -3.17308 0
M  V30 5958 H 541.12 -3.19606 -2.93316 0
M  V30 5959 H 541.791 -3.10435 -4.56436 0
M  V30 5960 H 544.267 -1.27436 -3.96105 0
M  V30 5961 H 543.143 -1.25278 -5.34412 0
M  V30 5962 H 543.404 0.215372 -4.41575 0
M  V30 5963 N 542.463 1.3308 -0.844243 0
M  V30 5964 C 543.709 1.97898 -0.443206 0
M  V30 5965 C 544.042 1.66699 0.99625 0
M  V30 5966 O 543.317 0.949704 1.69738 0
M  V30 5967 C 543.6 3.53801 -0.670606 0
M  V30 5968 C 543.453 3.94667 -2.15772 0
M  V30 5969 C 544.772 4.39936 -0.120226 0
M  V30 5970 H 541.891 0.718861 -0.162504 0
M  V30 5971 H 544.533 1.57633 -1.06075 0
M  V30 5972 H 542.683 3.88229 -0.14496 0
M  V30 5973 H 544.355 3.70469 -2.74865 0
M  V30 5974 H 542.598 3.44203 -2.6402 0
M  V30 5975 H 543.269 5.03275 -2.26757 0
M  V30 5976 H 545.745 4.12183 -0.5696 0
M  V30 5977 H 544.621 5.4803 -0.308984 0
M  V30 5978 H 544.882 4.31184 0.976347 0
M  V30 5979 N 543.941 0.601185 1.45683 0
M  V30 5980 C 544.871 -0.108824 2.33246 0
M  V30 5981 C 545.852 -0.865223 1.46451 0
M  V30 5982 O 547.037 -0.83704 1.75235 0
M  V30 5983 C 544.167 -1.11101 3.2905 0
M  V30 5984 C 543.121 -0.468244 4.25431 0
M  V30 5985 C 542.447 -1.57822 5.10878 0
M  V30 5986 C 543.747 0.606469 5.18767 0
M  V30 5987 H 545.441 0.622306 2.92861 0
M  V30 5988 H 542.987 0.300714 1.40825 0
M  V30 5989 H 544.94 -1.61622 3.89174 0
M  V30 5990 H 543.664 -1.87265 2.67581 0
M  V30 5991 H 542.323 0.0160484 3.66596 0
M  V30 5992 H 541.971 -2.32998 4.45781 0
M  V30 5993 H 541.671 -1.15369 5.76163 0
M  V30 5994 H 543.195 -2.08583 5.73869 0
M  V30 5995 H 544.609 0.185589 5.73 0
M  V30 5996 H 543.006 0.952381 5.92494 0
M  V30 5997 H 544.076 1.48559 4.61582 0
M  V30 5998 N 545.419 -1.53889 0.339982 0
M  V30 5999 C 546.366 -2.24902 -0.518452 0
M  V30 6000 C 547.336 -1.24593 -1.09844 0
M  V30 6001 O 548.521 -1.53317 -1.13572 0
M  V30 6002 C 545.661 -3.02262 -1.66529 0
M  V30 6003 C 544.774 -4.17418 -1.11295 0
M  V30 6004 C 543.909 -4.82273 -2.2268 0
M  V30 6005 C 542.948 -5.89503 -1.6478 0
M  V30 6006 N 542.085 -6.48153 -2.69893 0
M  V30 6007 H 546.925 -2.97853 0.0936579 0
M  V30 6008 H 544.462 -1.46986 0.0579924 0
M  V30 6009 H 546.42 -3.45371 -2.3404 0
M  V30 6010 H 545.05 -2.31614 -2.24844 0
M  V30 6011 H 544.102 -3.78976 -0.328886 0
M  V30 6012 H 545.414 -4.94554 -0.649414 0
M  V30 6013 H 544.568 -5.28435 -2.98063 0
M  V30 6014 H 543.307 -4.04552 -2.72376 0
M  V30 6015 H 542.312 -5.42728 -0.879004 0
M  V30 6016 H 543.537 -6.6913 -1.1594 0
M  V30 6017 H 541.483 -5.73298 -3.1885 0
M  V30 6018 H 541.4 -7.20752 -2.28151 0
M  V30 6019 H 542.668 -6.98968 -3.45056 0
M  V30 6020 N 546.897 -0.0685191 -1.57451 0
M  V30 6021 C 548.122 0.613919 -1.98106 0
M  V30 6022 C 548.547 1.62551 -0.946501 0
M  V30 6023 O 547.905 1.81085 0.0882824 0
M  V30 6024 C 547.953 1.26189 -3.378 0
M  V30 6025 O 547.057 2.37773 -3.36954 0
M  V30 6026 H 546.398 0.158163 -0.644888 0
M  V30 6027 H 548.928 -0.142063 -2.04106 0
M  V30 6028 H 548.938 1.60951 -3.74912 0
M  V30 6029 H 547.613 0.520625 -4.12629 0
M  V30 6030 H 546.19 2.04829 -3.11608 0
M  V30 6031 N 548.375 1.56261 0.205012 0
M  V30 6032 C 549.623 1.79684 0.925096 0
M  V30 6033 C 549.944 0.63989 1.84202 0
M  V30 6034 O 549.214 -0.342345 1.92885 0
M  V30 6035 H 547.794 0.662774 0.344587 0
M  V30 6036 H 550.456 1.93734 0.212899 0
M  V30 6037 H 549.552 2.72467 1.52211 0
M  V30 6038 N 549.853 -0.472356 1.50355 0
M  V30 6039 C 550.8 -1.57051 1.69126 0
M  V30 6040 C 551.77 -1.5733 0.532574 0
M  V30 6041 O 552.955 -1.7488 0.762994 0
M  V30 6042 C 550.095 -2.95033 1.79024 0
M  V30 6043 C 549.208 -3.04552 3.06386 0
M  V30 6044 C 548.343 -4.33441 3.07087 0
M  V30 6045 C 547.382 -4.36697 4.28908 0
M  V30 6046 N 546.519 -5.57056 4.27356 0
M  V30 6047 H 551.359 -1.40351 2.62879 0
M  V30 6048 H 548.896 -0.682403 1.30314 0
M  V30 6049 H 550.854 -3.75048 1.82744 0
M  V30 6050 H 549.484 -3.10371 0.887109 0
M  V30 6051 H 548.536 -2.17419 3.12143 0
M  V30 6052 H 549.848 -3.02818 3.96362 0
M  V30 6053 H 549.002 -5.21801 3.09529 0
M  V30 6054 H 547.741 -4.37782 2.14939 0
M  V30 6055 H 546.746 -3.46734 4.2668 0
M  V30 6056 H 547.971 -4.34049 5.22282 0
M  V30 6057 H 545.917 -5.62184 3.3806 0
M  V30 6058 H 545.834 -5.57058 5.111 0
M  V30 6059 H 547.102 -6.47545 4.33942 0
M  V30 6060 N 551.331 -1.39911 -0.725443 0
M  V30 6061 C 552.608 -1.28158 -1.47766 0
M  V30 6062 C 552.988 0.104545 -2.10841 0
M  V30 6063 O 552.336 1.11657 -1.99361 0
M  V30 6064 C 552.546 -2.41306 -2.52135 0
M  V30 6065 C 553.894 -2.81076 -3.18247 0
M  V30 6066 O 554.918 -2.40827 -2.62452 0
M  V30 6067 O 553.777 -3.50581 -4.19231 0
M  V30 6068 H 550.871 -0.502761 -0.656628 0
M  V30 6069 H 553.417 -1.51808 -0.758456 0
M  V30 6070 H 552.189 -3.33932 -2.03974 0
M  V30 6071 H 551.812 -2.19374 -3.31603 0
M  V30 6072 N 552.809 0.956637 -1.25245 0
M  V30 6073 C 554.055 1.70352 -1.10036 0
M  V30 6074 C 554.388 1.90869 0.358156 0
M  V30 6075 O 553.663 1.47819 1.26411 0
M  V30 6076 C 553.946 3.08766 -1.85298 0
M  V30 6077 C 553.799 2.95672 -3.38966 0
M  V30 6078 C 555.118 4.08622 -1.63451 0
M  V30 6079 H 552.237 0.618279 -0.401123 0
M  V30 6080 H 554.879 1.11212 -1.54051 0
M  V30 6081 H 553.029 3.59252 -1.47887 0
M  V30 6082 H 554.701 2.52527 -3.86041 0
M  V30 6083 H 552.944 2.31634 -3.6678 0
M  V30 6084 H 553.615 3.93776 -3.86839 0
M  V30 6085 H 556.091 3.67038 -1.96015 0
M  V30 6086 H 554.967 5.03514 -2.18551 0
M  V30 6087 H 555.228 4.3834 -0.575357 0
M  V30 6088 N 554.287 1.06798 1.15896 0
M  V30 6089 C 555.217 0.704677 2.22613 0
M  V30 6090 C 556.198 -0.305252 1.67339 0
M  V30 6091 O 557.383 -0.179247 1.93371 0
M  V30 6092 C 554.513 0.0957325 3.47168 0
M  V30 6093 C 553.467 1.0322 4.15367 0
M  V30 6094 C 552.793 0.286293 5.33933 0
M  V30 6095 C 554.093 2.36341 4.65768 0
M  V30 6096 H 555.787 1.59688 2.53259 0
M  V30 6097 H 553.333 0.769257 1.21731 0
M  V30 6098 H 555.286 -0.170333 4.21056 0
M  V30 6099 H 554.01 -0.831516 3.15838 0
M  V30 6100 H 552.669 1.28309 3.43413 0
M  V30 6101 H 552.317 -0.644237 4.98857 0
M  V30 6102 H 552.017 0.910436 5.80504 0
M  V30 6103 H 553.541 0.0278938 6.10594 0
M  V30 6104 H 554.955 2.1561 5.31211 0
M  V30 6105 H 553.352 2.94299 5.2298 0
M  V30 6106 H 554.422 2.99047 3.81705 0
M  V30 6107 N 555.766 -1.3263 0.851289 0
M  V30 6108 C 557.015 -1.96633 0.449267 0
M  V30 6109 C 557.328 -1.68131 -0.999562 0
M  V30 6110 O 558.534 -2.25845 -1.50685 0
M  V30 6111 C 556.99 -3.51946 0.752446 0
M  V30 6112 C 556.598 -3.89311 2.21678 0
M  V30 6113 C 558.342 -4.22437 0.417983 0
M  V30 6114 C 556.249 -5.37655 2.46336 0
M  V30 6115 H 555.179 -0.735888 0.164269 0
M  V30 6116 H 557.83 -1.51073 1.0416 0
M  V30 6117 H 556.212 -3.95899 0.0895858 0
M  V30 6118 H 557.386 -3.56378 2.92115 0
M  V30 6119 H 555.701 -3.31836 2.51543 0
M  V30 6120 H 558.298 -5.31549 0.579674 0
M  V30 6121 H 558.641 -4.11349 -0.640115 0
M  V30 6122 H 559.174 -3.84057 1.03659 0
M  V30 6123 H 555.913 -5.5376 3.50757 0
M  V30 6124 H 555.433 -5.72005 1.80473 0
M  V30 6125 H 557.112 -6.04695 2.30115 0
M  V30 6126 N 557.244 -0.608902 -1.45362 0
M  V30 6127 C 558.154 0.110969 -2.34337 0
M  V30 6128 C 559.17 0.859007 -1.51318 0
M  V30 6129 O 560.346 0.816296 -1.84116 0
M  V30 6130 C 557.411 1.09494 -3.28956 0
M  V30 6131 C 556.472 0.348718 -4.27881 0
M  V30 6132 C 555.705 1.28582 -5.17979 0
M  V30 6133 O 555.928 2.52369 -5.11533 0
M  V30 6134 O 554.862 0.782172 -5.96796 0
M  V30 6135 H 558.688 -0.620258 -2.97299 0
M  V30 6136 H 556.273 -0.36916 -1.44767 0
M  V30 6137 H 558.155 1.66163 -3.87257 0
M  V30 6138 H 556.83 1.80717 -2.68557 0
M  V30 6139 H 555.737 -0.260465 -3.73192 0
M  V30 6140 H 557.07 -0.323049 -4.91139 0
M  V30 6141 N 558.722 1.53707 -0.348139 0
M  V30 6142 C 559.971 2.0017 0.247992 0
M  V30 6143 C 560.284 1.23983 1.51286 0
M  V30 6144 O 561.49 1.60946 2.18652 0
M  V30 6145 C 559.946 3.56515 0.492459 0
M  V30 6146 C 559.554 4.41562 -0.756777 0
M  V30 6147 C 561.298 4.11381 1.0472 0
M  V30 6148 C 559.205 5.89426 -0.482856 0
M  V30 6149 H 558.135 0.747806 0.0964452 0
M  V30 6150 H 560.786 1.77532 -0.464179 0
M  V30 6151 H 559.168 3.75236 1.26545 0
M  V30 6152 H 560.342 4.34615 -1.53122 0
M  V30 6153 H 558.657 3.97711 -1.23348 0
M  V30 6154 H 561.254 5.19468 1.26717 0
M  V30 6155 H 561.597 3.64885 2.00411 0
M  V30 6156 H 562.13 3.96389 0.334801 0
M  V30 6157 H 558.869 6.40164 -1.40962 0
M  V30 6158 H 558.389 5.99264 0.253416 0
M  V30 6159 H 560.068 6.4692 -0.101816 0
M  V30 6160 N 560.2 0.0768682 1.57412 0
M  V30 6161 C 561.43 -0.5991 1.97723 0
M  V30 6162 C 561.838 -1.63378 0.954166 0
M  V30 6163 O 561.181 -1.83578 -0.0668706 0
M  V30 6164 C 561.243 -1.32078 3.34358 0
M  V30 6165 C 560.907 -0.438985 4.54887 0
M  V30 6166 C 561.904 0.305492 5.19002 0
M  V30 6167 C 559.589 -0.362378 5.00991 0
M  V30 6168 C 561.583 1.11475 6.27576 0
M  V30 6169 C 559.27 0.450543 6.09437 0
M  V30 6170 C 560.268 1.18777 6.72593 0
M  V30 6171 O 559.956 1.98727 7.7895 0
M  V30 6172 H 559.688 -0.166725 0.655117 0
M  V30 6173 H 562.242 0.147337 2.04871 0
M  V30 6174 H 560.472 -2.1134 3.2384 0
M  V30 6175 H 562.161 -1.88949 3.5924 0
M  V30 6176 H 562.927 0.25593 4.84324 0
M  V30 6177 H 558.806 -0.925832 4.51608 0
M  V30 6178 H 562.35 1.69068 6.76803 0
M  V30 6179 H 558.247 0.501651 6.43548 0
M  V30 6180 H 559.015 1.91214 7.95851 0
M  V30 6181 N 561.678 -1.56367 -0.196722 0
M  V30 6182 C 562.641 -1.93561 -1.22746 0
M  V30 6183 C 563.641 -0.816566 -1.38524 0
M  V30 6184 O 564.831 -1.084 -1.36363 0
M  V30 6185 C 561.963 -2.20823 -2.59712 0
M  V30 6186 H 563.156 -2.85774 -0.909586 0
M  V30 6187 H 560.709 -1.50032 -0.438174 0
M  V30 6188 H 561.444 -1.31243 -2.96557 0
M  V30 6189 H 561.229 -3.02368 -2.49632 0
M  V30 6190 H 562.719 -2.50608 -3.34044 0
M  V30 6191 N 563.156 0.464375 -1.50603 0
M  V30 6192 C 564.567 1.04507 -1.5471 0
M  V30 6193 C 564.918 1.9297 -0.354542 0
M  V30 6194 O 564.043 2.09763 0.531812 0
M  V30 6195 C 564.638 1.90207 -2.80369 0
M  V30 6196 C 563.197 2.43373 -2.87135 0
M  V30 6197 C 562.344 1.21886 -2.49076 0
M  V30 6198 H 565.295 0.246716 -1.56771 0
M  V30 6199 H 565.316 2.75353 -2.62604 0
M  V30 6200 H 564.828 1.25796 -3.67147 0
M  V30 6201 H 562.929 3.11318 -2.04724 0
M  V30 6202 H 563.042 2.7802 -3.90181 0
M  V30 6203 H 561.406 1.55575 -2.01664 0
M  V30 6204 H 562.189 0.591268 -3.3817 0
M  V30 6205 N 564.634 1.40294 0.718013 0
M  V30 6206 C 565.88 1.39648 1.47885 0
M  V30 6207 C 566.235 -0.0023879 1.924 0
M  V30 6208 O 565.528 -0.972304 1.65096 0
M  V30 6209 C 565.722 2.31814 2.72024 0
M  V30 6210 C 565.551 3.80523 2.3965 0
M  V30 6211 C 564.321 4.49351 2.3111 0
M  V30 6212 C 566.519 4.72077 2.04079 0
M  V30 6213 N 564.501 5.83305 1.91385 0
M  V30 6214 C 565.872 5.94809 1.74935 0
M  V30 6215 C 567.927 4.59935 1.90694 0
M  V30 6216 C 566.63 7.06755 1.33753 0
M  V30 6217 C 568.656 5.7182 1.50915 0
M  V30 6218 C 568.018 6.93637 1.22668 0
M  V30 6219 H 564.117 0.566263 0.539324 0
M  V30 6220 H 566.701 1.75986 0.832891 0
M  V30 6221 H 564.872 1.97607 3.34374 0
M  V30 6222 H 566.604 2.22042 3.38348 0
M  V30 6223 H 563.359 4.03002 2.4877 0
M  V30 6224 H 563.783 6.54239 1.74068 0
M  V30 6225 H 568.425 3.66274 2.11194 0
M  V30 6226 H 566.143 8.00302 1.11995 0
M  V30 6227 H 569.729 5.64421 1.4114 0
M  V30 6228 H 568.609 7.78743 0.923502 0
M  V30 6229 N 566.112 -0.949982 1.2575 0
M  V30 6230 C 567.352 -1.70994 1.11984 0
M  V30 6231 C 567.716 -1.89095 -0.332746 0
M  V30 6232 O 568.917 -2.62192 -0.592331 0
M  V30 6233 C 567.188 -3.05286 1.85837 0
M  V30 6234 S 568.747 -3.96477 1.88019 0
M  V30 6235 H 565.565 -0.587689 0.400178 0
M  V30 6236 H 568.167 -1.13271 1.59342 0
M  V30 6237 H 566.871 -2.89785 2.90608 0
M  V30 6238 H 566.402 -3.68069 1.38885 0
M  V30 6239 H 568.417 -4.86814 0.96057 0
M  V30 6240 N 567.59 -1.07411 -1.15328 0
M  V30 6241 C 568.838 -0.796073 -1.85761 0
M  V30 6242 C 569.159 0.679864 -1.82764 0
M  V30 6243 O 568.429 1.49242 -1.269 0
M  V30 6244 H 567.009 -0.291495 -0.687779 0
M  V30 6245 H 569.671 -1.35799 -1.39802 0
M  V30 6246 H 568.767 -1.13114 -2.90881 0
M  V30 6247 N 569.068 1.32177 -0.85831 0
M  V30 6248 C 570.018 2.26307 -0.277307 0
M  V30 6249 C 571.002 1.50123 0.578946 0
M  V30 6250 O 572.194 1.71754 0.427731 0
M  V30 6251 C 569.323 3.39181 0.530232 0
M  V30 6252 C 568.409 4.22746 -0.338613 0
M  V30 6253 N 568.8 4.85265 -1.4266 0
M  V30 6254 C 567.098 4.45813 -0.129 0
M  V30 6255 C 567.799 5.47634 -1.96142 0
M  V30 6256 N 566.775 5.28794 -1.26007 0
M  V30 6257 H 570.577 2.72173 -1.10902 0
M  V30 6258 H 568.091 1.46308 -0.704816 0
M  V30 6259 H 570.088 4.05628 0.962904 0
M  V30 6260 H 568.748 2.9486 1.35969 0
M  V30 6261 H 569.759 4.85259 -1.80953 0
M  V30 6262 H 566.436 4.12163 0.665451 0
M  V30 6263 H 567.826 6.0735 -2.8736 0
M  V30 6264 N 570.547 0.616602 1.45037 0
M  V30 6265 C 571.787 0.118453 2.04056 0
M  V30 6266 C 572.151 -1.23104 1.47341 0
M  V30 6267 O 573.352 -1.82044 1.97771 0
M  V30 6268 C 571.623 0.0892842 3.57288 0
M  V30 6269 S 573.182 -0.346361 4.37431 0
M  V30 6270 H 570 0.0539728 0.708948 0
M  V30 6271 H 572.602 0.816731 1.77623 0
M  V30 6272 H 571.306 1.07481 3.96076 0
M  V30 6273 H 570.837 -0.630703 3.88311 0
M  V30 6274 H 572.852 -1.59389 4.69904 0
M  V30 6275 N 572.025 -1.5352 0.356285 0
M  V30 6276 C 572.972 -2.25439 -0.494569 0
M  V30 6277 C 573.942 -1.25752 -1.08516 0
M  V30 6278 O 575.127 -1.54513 -1.1194 0
M  V30 6279 C 572.267 -3.04011 -1.63313 0
M  V30 6280 C 571.38 -4.18574 -1.06862 0
M  V30 6281 C 570.515 -4.84607 -2.17552 0
M  V30 6282 C 569.554 -5.91218 -1.58518 0
M  V30 6283 N 568.691 -6.50979 -2.63003 0
M  V30 6284 H 573.531 -2.97737 0.125244 0
M  V30 6285 H 571.068 -1.46916 0.0735789 0
M  V30 6286 H 573.026 -3.47834 -2.30363 0
M  V30 6287 H 571.656 -2.33986 -2.22374 0
M  V30 6288 H 570.708 -3.79303 -0.288672 0
M  V30 6289 H 572.02 -4.95215 -0.596924 0
M  V30 6290 H 571.174 -5.31566 -2.92442 0
M  V30 6291 H 569.913 -4.07418 -2.6807 0
M  V30 6292 H 568.918 -5.4363 -0.821391 0
M  V30 6293 H 570.143 -6.70322 -1.08836 0
M  V30 6294 H 568.089 -5.76648 -3.12751 0
M  V30 6295 H 568.006 -7.23131 -2.20493 0
M  V30 6296 H 569.274 -7.02589 -3.37623 0
M  V30 6297 N 573.503 -0.0852151 -1.57369 0
M  V30 6298 C 574.45 0.877268 -2.13478 0
M  V30 6299 C 575.42 1.28642 -1.05073 0
M  V30 6300 O 576.605 1.36992 -1.32808 0
M  V30 6301 C 573.745 2.13464 -2.71159 0
M  V30 6302 C 572.858 1.77691 -3.93764 0
M  V30 6303 C 571.993 2.98139 -4.39643 0
M  V30 6304 C 571.032 2.58447 -5.54862 0
M  V30 6305 N 570.169 3.71698 -5.95639 0
M  V30 6306 H 575.009 0.391933 -2.95411 0
M  V30 6307 H 572.546 0.181796 -1.45972 0
M  V30 6308 H 574.504 2.87086 -3.02717 0
M  V30 6309 H 573.134 2.59514 -1.91969 0
M  V30 6310 H 572.186 0.940768 -3.68583 0
M  V30 6311 H 573.498 1.44497 -4.77412 0
M  V30 6312 H 572.652 3.80026 -4.72933 0
M  V30 6313 H 571.391 3.34536 -3.54876 0
M  V30 6314 H 570.396 1.74984 -5.21211 0
M  V30 6315 H 571.621 2.23205 -6.41371 0
M  V30 6316 H 569.567 4.07831 -5.13819 0
M  V30 6317 H 569.484 3.42317 -6.74059 0
M  V30 6318 H 570.752 4.54123 -6.33555 0
M  V30 6319 N 574.981 1.5647 0.188427 0
M  V30 6320 C 575.911 1.98101 1.23606 0
M  V30 6321 C 576.892 0.853961 1.47111 0
M  V30 6322 O 578.077 1.11879 1.58735 0
M  V30 6323 C 575.207 2.32624 2.57882 0
M  V30 6324 C 574.161 3.48129 2.48978 0
M  V30 6325 C 573.487 3.68347 3.87588 0
M  V30 6326 C 574.787 4.82112 2.00911 0
M  V30 6327 H 576.481 2.85864 0.890068 0
M  V30 6328 H 574.027 1.37532 0.426714 0
M  V30 6329 H 575.98 2.60343 3.3136 0
M  V30 6330 H 574.704 1.41751 2.94235 0
M  V30 6331 H 573.363 3.20511 1.77956 0
M  V30 6332 H 573.011 2.74793 4.21305 0
M  V30 6333 H 572.711 4.46055 3.82503 0
M  V30 6334 H 574.235 3.98449 4.62678 0
M  V30 6335 H 575.649 5.08819 2.64151 0
M  V30 6336 H 574.046 5.63337 2.06814 0
M  V30 6337 H 575.116 4.75249 0.96262 0
M  V30 6338 N 576.459 -0.456382 1.50847 0
M  V30 6339 C 577.369 -1.57805 1.73594 0
M  V30 6340 C 578.385 -1.62599 0.619476 0
M  V30 6341 O 579.561 -1.80195 0.899532 0
M  V30 6342 C 576.626 -2.93926 1.8387 0
M  V30 6343 C 575.687 -2.99402 3.07663 0
M  V30 6344 C 574.92 -4.29031 3.1744 0
M  V30 6345 O 575.143 -5.20358 2.33631 0
M  V30 6346 O 574.077 -4.40401 4.10281 0
M  V30 6347 H 577.903 -1.41531 2.68705 0
M  V30 6348 H 575.488 -0.637422 1.3512 0
M  V30 6349 H 577.37 -3.74747 1.92725 0
M  V30 6350 H 576.045 -3.10368 0.91944 0
M  V30 6351 H 574.952 -2.17606 3.043 0
M  V30 6352 H 576.285 -2.87901 3.99216 0
M  V30 6353 N 577.937 -1.40673 -0.710563 0
M  V30 6354 C 579.348 -1.34975 -1.28991 0
M  V30 6355 C 579.699 -0.0256272 -1.96183 0
M  V30 6356 O 578.824 0.876339 -1.97862 0
M  V30 6357 C 579.419 -2.44467 -2.34567 0
M  V30 6358 C 577.978 -2.42213 -2.88114 0
M  V30 6359 C 577.125 -2.25085 -1.61963 0
M  V30 6360 H 580.076 -1.50406 -0.506343 0
M  V30 6361 H 580.097 -2.12663 -3.15523 0
M  V30 6362 H 579.609 -3.40825 -1.85634 0
M  V30 6363 H 577.71 -1.49568 -3.41263 0
M  V30 6364 H 577.823 -3.37983 -3.39565 0
M  V30 6365 H 576.187 -1.72691 -1.87216 0
M  V30 6366 H 576.97 -3.23449 -1.15047 0
M  V30 6367 N 579.415 0.9433 -1.26252 0
M  V30 6368 C 580.661 1.69175 -1.11837 0
M  V30 6369 C 580.994 1.91238 0.337891 0
M  V30 6370 O 580.269 1.49152 1.24836 0
M  V30 6371 C 580.552 3.06783 -1.88563 0
M  V30 6372 C 580.405 2.9206 -3.42083 0
M  V30 6373 C 581.724 4.06865 -1.67776 0
M  V30 6374 H 578.843 0.61399 -0.407658 0
M  V30 6375 H 581.485 1.09572 -1.55222 0
M  V30 6376 H 579.635 3.57663 -1.51689 0
M  V30 6377 H 581.307 2.48419 -3.88698 0
M  V30 6378 H 579.55 2.27731 -3.69217 0
M  V30 6379 H 580.221 3.89651 -3.90994 0
M  V30 6380 H 582.697 3.64939 -1.99897 0
M  V30 6381 H 581.573 5.01168 -2.23879 0
M  V30 6382 H 581.834 4.37705 -0.621816 0
M  V30 6383 N 580.893 1.08022 1.14757 0
M  V30 6384 C 582.123 0.827646 1.89298 0
M  V30 6385 C 582.531 -0.623506 1.78631 0
M  V30 6386 O 581.874 -1.43991 1.14071 0
M  V30 6387 C 581.936 1.16553 3.40082 0
M  V30 6388 C 581.6 2.61866 3.74533 0
M  V30 6389 C 582.597 3.60116 3.74984 0
M  V30 6390 C 580.282 2.97619 4.04633 0
M  V30 6391 C 582.276 4.92151 4.05051 0
M  V30 6392 C 579.963 4.2985 4.34364 0
M  V30 6393 C 580.961 5.26926 4.34555 0
M  V30 6394 O 580.649 6.5678 4.63568 0
M  V30 6395 H 580.381 0.298396 0.606577 0
M  V30 6396 H 582.935 1.44187 1.46285 0
M  V30 6397 H 581.165 0.494296 3.83528 0
M  V30 6398 H 582.854 0.894407 3.95923 0
M  V30 6399 H 583.62 3.33837 3.51821 0
M  V30 6400 H 579.499 2.22702 4.03639 0
M  V30 6401 H 583.043 5.67915 4.05115 0
M  V30 6402 H 578.94 4.55879 4.56995 0
M  V30 6403 H 579.708 6.62035 4.81303 0
M  V30 6404 N 582.371 -1.3172 0.865308 0
M  V30 6405 C 583.281 -2.32394 0.320935 0
M  V30 6406 C 584.297 -1.64511 -0.566746 0
M  V30 6407 O 585.473 -1.95969 -0.464575 0
M  V30 6408 C 582.538 -3.43462 -0.472701 0
M  V30 6409 C 581.599 -4.27015 0.442385 0
M  V30 6410 C 580.832 -5.32779 -0.313469 0
M  V30 6411 O 581.055 -5.49158 -1.54214 0
M  V30 6412 O 579.989 -6.01015 0.326257 0
M  V30 6413 H 583.815 -2.80868 1.15528 0
M  V30 6414 H 581.4 -1.35535 0.628545 0
M  V30 6415 H 583.282 -4.11172 -0.922781 0
M  V30 6416 H 581.957 -2.97159 -1.28367 0
M  V30 6417 H 580.864 -3.62075 0.940866 0
M  V30 6418 H 582.197 -4.76871 1.21882 0
M  V30 6419 N 583.85 -0.624285 -1.44708 0
M  V30 6420 C 585.127 -0.0572781 -1.95516 0
M  V30 6421 C 585.507 1.41516 -1.56641 0
M  V30 6422 O 584.855 2.12614 -0.837111 0
M  V30 6423 C 585.065 -0.272944 -3.47931 0
M  V30 6424 C 586.413 -0.162529 -4.24289 0
M  V30 6425 O 587.437 -0.203946 -3.55616 0
M  V30 6426 O 586.296 -0.0616847 -5.46465 0
M  V30 6427 H 583.389 0.0262219 -0.826584 0
M  V30 6428 H 585.936 -0.695512 -1.54793 0
M  V30 6429 H 584.707 -1.29492 -3.69253 0
M  V30 6430 H 584.331 0.399756 -3.95585 0
M  V30 6431 N 585.328 1.53329 -0.364422 0
M  V30 6432 C 586.258 2.28627 0.474543 0
M  V30 6433 C 587.239 1.31009 1.08492 0
M  V30 6434 O 588.424 1.59878 1.10239 0
M  V30 6435 C 585.554 3.07465 1.61501 0
M  V30 6436 C 584.508 4.1276 1.13194 0
M  V30 6437 C 583.834 4.79674 2.36255 0
M  V30 6438 C 585.134 5.21847 0.217507 0
M  V30 6439 H 586.828 2.99005 -0.153656 0
M  V30 6440 H 584.374 1.43803 -0.0753406 0
M  V30 6441 H 586.327 3.58889 2.20855 0
M  V30 6442 H 585.051 2.34775 2.27042 0
M  V30 6443 H 583.71 3.62281 0.56109 0
M  V30 6444 H 583.358 4.03557 3.00251 0
M  V30 6445 H 583.058 5.50827 2.04606 0
M  V30 6446 H 584.582 5.33892 2.96297 0
M  V30 6447 H 585.996 5.6878 0.718493 0
M  V30 6448 H 584.393 6.00099 -0.00806408 0
M  V30 6449 H 585.463 4.7921 -0.740653 0
M  V30 6450 N 586.806 0.0935595 1.57322 0
M  V30 6451 C 588.054 -0.569383 1.93913 0
M  V30 6452 C 588.375 -1.68817 0.976009 0
M  V30 6453 O 587.645 -1.9588 0.0278099 0
M  V30 6454 H 586.225 -0.21332 0.715894 0
M  V30 6455 H 588.887 0.156531 1.9427 0
M  V30 6456 H 587.983 -0.980577 2.96296 0
M  V30 6457 N 588.284 -1.56567 -0.180126 0
M  V30 6458 C 589.7 -1.50488 -0.531559 0
M  V30 6459 C 589.9 -0.796267 -1.851 0
M  V30 6460 O 588.956 -0.352978 -2.50021 0
M  V30 6461 C 590.269 -2.95201 -0.572456 0
M  V30 6462 C 591.817 -3.05957 -0.660264 0
M  V30 6463 C 592.292 -4.5211 -0.732135 0
M  V30 6464 N 593.783 -4.56322 -0.795262 0
M  V30 6465 C 594.518 -5.66742 -0.871296 0
M  V30 6466 N 594.014 -6.86815 -0.908708 0
M  V30 6467 N 595.807 -5.54691 -0.909639 0
M  V30 6468 H 587.958 -2.01045 0.685165 0
M  V30 6469 H 590.221 -0.915536 0.245962 0
M  V30 6470 H 589.927 -3.50165 0.328208 0
M  V30 6471 H 589.801 -3.49369 -1.422 0
M  V30 6472 H 592.188 -2.51032 -1.55136 0
M  V30 6473 H 592.269 -2.54888 0.215783 0
M  V30 6474 H 591.913 -5.07664 0.154664 0
M  V30 6475 H 591.843 -5.00926 -1.6242 0
M  V30 6476 H 594.334 -3.69868 -0.77499 0
M  V30 6477 H 594.647 -7.66718 -0.967654 0
M  V30 6478 H 592.992 -6.89443 -0.877132 0
M  V30 6479 H 596.183 -4.59804 -0.877353 0
M  V30 6480 H 596.356 -6.40768 -0.965434 0
M  V30 6481 N 589.762 0.448376 -1.51087 0
M  V30 6482 C 590.709 1.54341 -1.71603 0
M  V30 6483 C 591.679 1.56463 -0.557536 0
M  V30 6484 O 592.864 1.73644 -0.79072 0
M  V30 6485 C 590.004 2.92148 -1.83695 0
M  V30 6486 C 589.117 2.99639 -3.11192 0
M  V30 6487 C 588.252 4.285 -3.13944 0
M  V30 6488 C 587.291 4.29819 -4.35801 0
M  V30 6489 N 586.428 5.50186 -4.36164 0
M  V30 6490 H 591.268 1.36151 -2.65079 0
M  V30 6491 H 588.805 0.661585 -1.31383 0
M  V30 6492 H 590.763 3.72093 -1.88687 0
M  V30 6493 H 589.393 3.0892 -0.936374 0
M  V30 6494 H 588.445 2.12425 -3.15562 0
M  V30 6495 H 589.757 2.96474 -4.01129 0
M  V30 6496 H 588.911 5.16811 -3.17791 0
M  V30 6497 H 587.65 4.34307 -2.21876 0
M  V30 6498 H 586.655 3.39902 -4.32142 0
M  V30 6499 H 587.88 4.25685 -5.29121 0
M  V30 6500 H 585.826 5.56735 -3.46961 0
M  V30 6501 H 585.743 5.48856 -5.19897 0
M  V30 6502 H 587.011 6.40559 -4.44189 0
M  V30 6503 N 591.24 1.41047 0.703093 0
M  V30 6504 C 592.17 1.45067 1.82969 0
M  V30 6505 C 593.151 0.31016 1.67248 0
M  V30 6506 O 594.336 0.520548 1.87093 0
M  V30 6507 C 591.466 1.32478 3.2104 0
M  V30 6508 C 590.42 2.44262 3.51454 0
M  V30 6509 C 589.746 2.16742 4.88801 0
M  V30 6510 C 591.046 3.86606 3.51189 0
M  V30 6511 H 592.74 2.39353 1.79863 0
M  V30 6512 H 590.286 1.15206 0.863919 0
M  V30 6513 H 592.239 1.33904 3.99559 0
M  V30 6514 H 590.963 0.346735 3.24754 0
M  V30 6515 H 589.622 2.42107 2.75282 0
M  V30 6516 H 589.27 1.17299 4.89132 0
M  V30 6517 H 588.97 2.91643 5.10116 0
M  V30 6518 H 590.494 2.19872 5.69639 0
M  V30 6519 H 591.908 3.90517 4.19725 0
M  V30 6520 H 590.305 4.61128 3.84033 0
M  V30 6521 H 591.375 4.15296 2.50315 0
M  V30 6522 N 592.718 -0.936591 1.26751 0
M  V30 6523 C 593.665 -2.03597 1.08706 0
M  V30 6524 C 594.635 -1.66097 -0.00926542 0
M  V30 6525 O 595.82 -1.90199 0.151377 0
M  V30 6526 C 592.96 -3.3727 0.73094 0
M  V30 6527 C 592.073 -3.87778 1.90399 0
M  V30 6528 C 591.208 -5.09859 1.49056 0
M  V30 6529 C 590.247 -5.5264 2.63164 0
M  V30 6530 N 589.384 -6.65921 2.22471 0
M  V30 6531 H 594.224 -2.18364 2.02784 0
M  V30 6532 H 591.761 -1.06985 1.00958 0
M  V30 6533 H 593.719 -4.14128 0.505328 0
M  V30 6534 H 592.349 -3.22337 -0.172868 0
M  V30 6535 H 591.401 -3.07279 2.2424 0
M  V30 6536 H 592.713 -4.15464 2.76028 0
M  V30 6537 H 591.867 -5.9419 1.22567 0
M  V30 6538 H 590.606 -4.8393 0.60524 0
M  V30 6539 H 589.611 -4.66863 2.90377 0
M  V30 6540 H 590.836 -5.80568 3.52303 0
M  V30 6541 H 588.782 -6.41667 1.36379 0
M  V30 6542 H 588.699 -6.93216 3.01641 0
M  V30 6543 H 589.967 -7.53616 1.99205 0
M  V30 6544 N 594.196 -1.08629 -1.14182 0
M  V30 6545 C 595.143 -0.718299 -2.19338 0
M  V30 6546 C 596.113 0.296587 -1.63431 0
M  V30 6547 O 597.298 0.180079 -1.89948 0
M  V30 6548 C 594.438 -0.136203 -3.44831 0
M  V30 6549 C 593.551 -1.20414 -4.14879 0
M  V30 6550 C 592.686 -0.585666 -5.27962 0
M  V30 6551 C 591.725 -1.63548 -5.89846 0
M  V30 6552 N 590.862 -1.03864 -6.94375 0
M  V30 6553 H 595.702 -1.61932 -2.50164 0
M  V30 6554 H 593.239 -0.80919 -1.22844 0
M  V30 6555 H 595.197 0.219021 -4.16625 0
M  V30 6556 H 593.827 0.728121 -3.14481 0
M  V30 6557 H 592.879 -1.67676 -3.41451 0
M  V30 6558 H 594.191 -1.99959 -4.56966 0
M  V30 6559 H 593.345 -0.178818 -6.06436 0
M  V30 6560 H 592.084 0.24142 -4.87102 0
M  V30 6561 H 591.089 -2.05197 -5.10073 0
M  V30 6562 H 592.314 -2.46509 -6.3278 0
M  V30 6563 H 590.26 -0.232687 -6.55587 0
M  V30 6564 H 590.177 -1.77116 -7.3496 0
M  V30 6565 H 591.445 -0.657724 -7.7672 0
M  V30 6566 N 595.674 1.31259 -0.872281 0
M  V30 6567 C 596.904 2.00504 -0.498183 0
M  V30 6568 C 597.312 1.65632 0.914479 0
M  V30 6569 O 596.655 0.882849 1.61095 0
M  V30 6570 C 596.717 3.5482 -0.578194 0
M  V30 6571 C 596.381 4.13172 -1.95289 0
M  V30 6572 C 597.378 4.30107 -2.92069 0
M  V30 6573 C 595.063 4.48846 -2.25483 0
M  V30 6574 C 597.057 4.81908 -4.17185 0
M  V30 6575 C 594.744 5.00349 -3.50847 0
M  V30 6576 C 595.742 5.16831 -4.46514 0
M  V30 6577 O 595.43 5.67228 -5.69656 0
M  V30 6578 H 595.162 0.648055 -0.192354 0
M  V30 6579 H 597.716 1.6841 -1.17589 0
M  V30 6580 H 595.946 3.86383 0.156438 0
M  V30 6581 H 597.635 4.05318 -0.217192 0
M  V30 6582 H 598.401 4.02862 -2.7005 0
M  V30 6583 H 594.28 4.35292 -1.51795 0
M  V30 6584 H 597.824 4.94688 -4.91863 0
M  V30 6585 H 593.721 5.27028 -3.72708 0
M  V30 6586 H 594.489 5.85592 -5.7186 0
M  V30 6587 N 597.152 0.631951 1.44375 0
M  V30 6588 C 598.429 0.067646 1.95483 0
M  V30 6589 C 598.809 -1.40683 1.57389 0
M  V30 6590 O 598.157 -2.12167 0.848375 0
M  V30 6591 C 598.367 0.291392 3.47781 0
M  V30 6592 C 599.715 0.185028 4.24197 0
M  V30 6593 O 600.739 0.222803 3.55503 0
M  V30 6594 O 599.598 0.0906642 5.46425 0
M  V30 6595 H 596.692 -0.0218379 0.826712 0
M  V30 6596 H 599.238 0.703711 1.54421 0
M  V30 6597 H 598.01 1.31449 3.68561 0
M  V30 6598 H 597.633 -0.378772 3.95792 0
M  V30 6599 N 598.631 -1.53133 0.372548 0
M  V30 6600 C 599.856 -2.0625 -0.218098 0
M  V30 6601 C 600.281 -1.24375 -1.41111 0
M  V30 6602 O 599.639 -0.264554 -1.79359 0
M  V30 6603 C 599.687 -3.55858 -0.582876 0
M  V30 6604 O 598.791 -3.76667 -1.67917 0
M  V30 6605 H 598.132 -0.663317 -0.030104 0
M  V30 6606 H 600.662 -1.97477 0.535169 0
M  V30 6607 H 600.672 -3.99007 -0.851925 0
M  V30 6608 H 599.347 -4.14892 0.289428 0
M  V30 6609 H 597.924 -3.45413 -1.40513 0
M  V30 6610 N 600.109 -0.101901 -1.5727 0
M  V30 6611 C 601.358 0.559922 -1.93772 0
M  V30 6612 C 601.671 1.68913 -0.98629 0
M  V30 6613 O 602.877 2.41256 -1.24529 0
M  V30 6614 C 601.333 1.04739 -3.44322 0
M  V30 6615 C 600.941 -0.05243 -4.47969 0
M  V30 6616 C 602.685 1.68157 -3.89774 0
M  V30 6617 C 600.592 0.450781 -5.8968 0
M  V30 6618 H 599.522 0.212931 -0.723309 0
M  V30 6619 H 602.173 -0.179001 -1.82625 0
M  V30 6620 H 600.555 1.84021 -3.50645 0
M  V30 6621 H 601.729 -0.828157 -4.53297 0
M  V30 6622 H 600.044 -0.592202 -4.12167 0
M  V30 6623 H 602.641 2.0689 -4.93052 0
M  V30 6624 H 602.984 2.55338 -3.28798 0
M  V30 6625 H 603.517 0.954453 -3.8618 0
M  V30 6626 H 600.256 -0.38458 -6.54371 0
M  V30 6627 H 599.776 1.19336 -5.87809 0
M  V30 6628 H 601.455 0.917555 -6.40461 0
M  V30 6629 N 601.587 1.56661 0.17182 0
M  V30 6630 C 602.836 1.81158 0.886831 0
M  V30 6631 C 603.149 0.679072 1.83434 0
M  V30 6632 O 604.355 0.808964 2.59168 0
M  V30 6633 C 602.811 3.20999 1.6275 0
M  V30 6634 C 602.419 4.42117 0.723652 0
M  V30 6635 C 604.163 3.5479 2.33076 0
M  V30 6636 C 602.07 5.7298 1.46452 0
M  V30 6637 H 601 0.675543 0.334899 0
M  V30 6638 H 603.651 1.82967 0.139765 0
M  V30 6639 H 602.033 3.13506 2.4193 0
M  V30 6640 H 603.207 4.60789 -0.0311485 0
M  V30 6641 H 601.522 4.16197 0.130063 0
M  V30 6642 H 604.119 4.49806 2.89099 0
M  V30 6643 H 604.462 2.79646 3.08389 0
M  V30 6644 H 604.995 3.63834 1.6084 0
M  V30 6645 H 601.734 6.51152 0.753729 0
M  V30 6646 H 601.254 5.58285 2.19266 0
M  V30 6647 H 602.933 6.14916 2.01214 0
M  V30 6648 N 603.065 -0.440357 1.51323 0
M  V30 6649 C 604.311 -1.19181 1.64085 0
M  V30 6650 C 604.644 -1.90936 0.354575 0
M  V30 6651 O 603.919 -1.8347 -0.645675 0
M  V30 6652 C 604.202 -2.2112 2.84215 0
M  V30 6653 C 604.055 -1.53468 4.22809 0
M  V30 6654 C 605.374 -3.22133 2.99864 0
M  V30 6655 H 602.493 -0.431924 0.597169 0
M  V30 6656 H 605.135 -0.481443 1.83799 0
M  V30 6657 H 603.285 -2.81703 2.67537 0
M  V30 6658 H 604.957 -0.962455 4.51148 0
M  V30 6659 H 603.2 -0.837086 4.25647 0
M  V30 6660 H 603.871 -2.27694 5.02852 0
M  V30 6661 H 606.347 -2.71601 3.15233 0
M  V30 6662 H 605.223 -3.90756 3.85488 0
M  V30 6663 H 605.484 -3.88061 2.11804 0
M  V30 6664 N 604.543 -1.41418 -0.695603 0
M  V30 6665 C 605.506 -1.42988 -1.79129 0
M  V30 6666 C 606.506 -0.320514 -1.57573 0
M  V30 6667 O 607.696 -0.58039 -1.64247 0
M  V30 6668 C 604.828 -1.24122 -3.175 0
M  V30 6669 H 606.021 -2.40526 -1.7913 0
M  V30 6670 H 603.574 -1.2756 -0.903225 0
M  V30 6671 H 604.309 -0.274253 -3.23138 0
M  V30 6672 H 604.094 -2.045 -3.34547 0
M  V30 6673 H 605.584 -1.28056 -3.97481 0
M  V30 6674 N 606.021 0.929856 -1.27246 0
M  V30 6675 C 606.968 2.03017 -1.09785 0
M  V30 6676 C 607.938 1.661 0.000456744 0
M  V30 6677 O 609.123 1.90116 -0.161462 0
M  V30 6678 C 606.263 3.36878 -0.748816 0
M  V30 6679 C 605.376 3.86763 -1.92453 0
M  V30 6680 C 604.511 5.09061 -1.51758 0
M  V30 6681 C 603.55 5.51237 -2.66091 0
M  V30 6682 N 602.687 6.64732 -2.25999 0
M  V30 6683 H 607.527 2.17285 -2.03939 0
M  V30 6684 H 605.064 1.06448 -1.01524 0
M  V30 6685 H 607.022 4.13855 -0.527283 0
M  V30 6686 H 605.652 3.22424 0.155771 0
M  V30 6687 H 604.704 3.06086 -2.25867 0
M  V30 6688 H 606.016 4.13994 -2.78227 0
M  V30 6689 H 605.17 5.93532 -1.25716 0
M  V30 6690 H 603.909 4.83602 -0.630896 0
M  V30 6691 H 602.914 4.65316 -2.92849 0
M  V30 6692 H 604.139 5.78692 -3.55377 0
M  V30 6693 H 602.085 6.40935 -1.3978 0
M  V30 6694 H 602.002 6.91607 -3.05313 0
M  V30 6695 H 603.27 7.52549 -2.03199 0
M  V30 6696 N 607.499 1.09233 1.13605 0
M  V30 6697 C 608.432 0.6739 2.18023 0
M  V30 6698 C 609.41 -0.318603 1.59448 0
M  V30 6699 O 610.594 -0.220452 1.87206 0
M  V30 6700 C 607.721 -0.00751458 3.38699 0
M  V30 6701 C 606.767 0.946481 4.15865 0
M  V30 6702 S 607.6 2.45753 4.75779 0
M  V30 6703 C 608.756 1.78846 5.99804 0
M  V30 6704 H 608.989 1.55846 2.53178 0
M  V30 6705 H 606.522 0.908118 1.2487 0
M  V30 6706 H 608.48 -0.394368 4.08601 0
M  V30 6707 H 607.141 -0.868693 3.01849 0
M  V30 6708 H 606.334 0.416742 5.02274 0
M  V30 6709 H 605.936 1.27464 3.51609 0
M  V30 6710 H 608.228 1.11135 6.68323 0
M  V30 6711 H 609.171 2.63163 6.57382 0
M  V30 6712 H 609.579 1.25823 5.50299 0
M  V30 6713 N 608.977 -1.30795 0.87923 0
M  V30 6714 C 610.254 -1.91145 0.415086 0
M  V30 6715 C 610.634 -1.7995 -1.10368 0
M  V30 6716 O 609.982 -1.21305 -1.93642 0
M  V30 6717 C 610.192 -3.37014 0.906778 0
M  V30 6718 C 611.54 -4.14101 0.938358 0
M  V30 6719 O 612.564 -3.45834 0.853053 0
M  V30 6720 O 611.423 -5.36054 1.06342 0
M  V30 6721 H 608.517 -0.81736 0.125905 0
M  V30 6722 H 611.063 -1.39401 0.967753 0
M  V30 6723 H 609.835 -3.3922 1.95053 0
M  V30 6724 H 609.458 -3.96204 0.332948 0
M  V30 6725 N 610.455 -0.639598 -1.44038 0
M  V30 6726 C 611.703 -0.147188 -2.01563 0
M  V30 6727 C 612.024 1.2384 -1.50628 0
M  V30 6728 O 611.294 1.82452 -0.713316 0
M  V30 6729 H 609.874 -0.0514231 -0.745228 0
M  V30 6730 H 612.536 -0.828205 -1.76428 0
M  V30 6731 H 611.632 -0.121358 -3.11864 0
M  V30 6732 N 611.933 1.52934 -0.380664 0
M  V30 6733 C 613.161 2.05886 0.204599 0
M  V30 6734 C 613.576 1.25305 1.41223 0
M  V30 6735 O 612.933 0.297504 1.80059 0
M  V30 6736 C 612.984 3.56764 0.583249 0
M  V30 6737 O 612.705 4.34292 -0.576398 0
M  V30 6738 C 614.206 4.2603 1.2253 0
M  V30 6739 H 611.426 0.670193 0.0328991 0
M  V30 6740 H 613.97 1.97148 -0.543397 0
M  V30 6741 H 612.125 3.65603 1.28115 0
M  V30 6742 H 612.539 5.23819 -0.267119 0
M  V30 6743 H 614.013 5.32868 1.44068 0
M  V30 6744 H 614.49 3.80698 2.19011 0
M  V30 6745 H 615.096 4.21485 0.568407 0
M  V30 6746 N 613.412 0.11024 1.57214 0
M  V30 6747 C 614.342 -0.840002 2.17867 0
M  V30 6748 C 615.323 -1.28352 1.11624 0
M  V30 6749 O 616.508 -1.3477 1.39824 0
M  V30 6750 C 613.638 -2.09349 2.77111 0
M  V30 6751 C 612.592 -1.78807 3.8886 0
M  V30 6752 C 611.918 -3.11112 4.34872 0
M  V30 6753 C 613.218 -1.0632 5.11364 0
M  V30 6754 H 614.912 -0.334608 2.97524 0
M  V30 6755 H 612.458 -0.159502 1.43114 0
M  V30 6756 H 614.411 -2.76275 3.18198 0
M  V30 6757 H 613.135 -2.62198 1.9473 0
M  V30 6758 H 611.794 -1.14273 3.48335 0
M  V30 6759 H 611.442 -3.61877 3.49362 0
M  V30 6760 H 611.142 -2.91453 5.10224 0
M  V30 6761 H 612.666 -3.79171 4.78604 0
M  V30 6762 H 614.08 -1.63383 5.49526 0
M  V30 6763 H 612.477 -0.967876 5.92243 0
M  V30 6764 H 613.547 -0.0484569 4.84876 0
M  V30 6765 N 614.89 -1.56749 -0.16351 0
M  V30 6766 C 615.838 -1.97939 -1.22159 0
M  V30 6767 C 616.832 -0.869288 -1.45395 0
M  V30 6768 O 618.038 -1.05443 -1.45883 0
M  V30 6769 H 614.413 -0.629869 -0.410815 0
M  V30 6770 H 616.384 -2.86115 -0.847381 0
M  V30 6771 C 615.133 -2.36206 -2.55151 0
M  V30 6772 H 614.456 -3.2117 -2.38097 0
M  V30 6773 H 615.896 -2.68863 -3.27854 0
M  V30 6774 C 614.355 -1.20841 -3.14482 0
M  V30 6775 O 614.885 -0.500258 -3.98573 0
M  V30 6776 N 613.091 -0.976943 -2.73686 0
M  V30 6777 H 612.638 -1.55457 -2.05404 0
M  V30 6778 H 612.596 -0.206912 -3.13718 0
M  V30 6779 N 616.368 0.432326 -1.51554 0
M  V30 6780 C 617.278 1.55023 -1.76082 0
M  V30 6781 C 618.294 1.61593 -0.645265 0
M  V30 6782 O 619.47 1.78742 -0.928086 0
M  V30 6783 C 616.535 2.90964 -1.88523 0
M  V30 6784 C 615.596 2.9447 -3.12388 0
M  V30 6785 C 614.829 4.23926 -3.24225 0
M  V30 6786 O 615.052 5.16576 -2.4188 0
M  V30 6787 O 613.986 4.33818 -4.17235 0
M  V30 6788 H 617.812 1.37238 -2.70923 0
M  V30 6789 H 615.397 0.615845 -1.36117 0
M  V30 6790 H 617.279 3.71633 -1.98662 0
M  V30 6791 H 615.954 3.08865 -0.9687 0
M  V30 6792 H 614.861 2.12737 -3.07723 0
M  V30 6793 H 616.194 2.81514 -4.03746 0
M  V30 6794 N 617.846 1.41785 0.688094 0
M  V30 6795 C 619.074 1.44915 1.47673 0
M  V30 6796 C 619.489 0.0565786 1.88715 0
M  V30 6797 O 618.846 -0.92579 1.57275 0
M  V30 6798 C 618.897 2.36452 2.73446 0
M  V30 6799 O 618.618 3.7029 2.34131 0
M  V30 6800 C 620.119 2.48463 3.67125 0
M  V30 6801 H 617.339 0.493324 0.454832 0
M  V30 6802 H 619.883 1.86153 0.846594 0
M  V30 6803 H 618.038 1.98502 3.3268 0
M  V30 6804 H 618.452 4.19183 3.15255 0
M  V30 6805 H 619.926 3.16662 4.52138 0
M  V30 6806 H 620.403 1.51826 4.12123 0
M  V30 6807 H 621.009 2.8708 3.13792 0
M  V30 6808 N 619.324 -0.923095 1.27737 0
M  V30 6809 C 620.735 -1.48626 1.12993 0
M  V30 6810 C 621.086 -1.94142 -0.283439 0
M  V30 6811 O 620.211 -1.81605 -1.17681 0
M  V30 6812 C 620.806 -2.70117 2.04505 0
M  V30 6813 C 619.365 -3.22642 1.93853 0
M  V30 6814 C 618.512 -1.95368 1.96791 0
M  V30 6815 H 621.463 -0.736737 1.40563 0
M  V30 6816 H 621.484 -3.4506 1.60356 0
M  V30 6817 H 620.996 -2.36959 3.07363 0
M  V30 6818 H 619.097 -3.60549 0.939968 0
M  V30 6819 H 619.21 -3.88525 2.80331 0
M  V30 6820 H 617.574 -2.12061 1.41076 0
M  V30 6821 H 618.357 -1.64517 3.01312 0
M  V30 6822 N 620.802 -1.09834 -1.13024 0
M  V30 6823 C 622.051 -0.831806 -1.83749 0
M  V30 6824 C 622.364 0.644763 -1.84668 0
M  V30 6825 O 623.57 1.02697 -2.51327 0
M  V30 6826 C 622.026 -1.43817 -3.29916 0
M  V30 6827 C 621.634 -2.94759 -3.37374 0
M  V30 6828 C 623.378 -1.25077 -4.05655 0
M  V30 6829 C 621.285 -3.48461 -4.77838 0
M  V30 6830 H 620.215 -0.30751 -0.688443 0
M  V30 6831 H 622.866 -1.32156 -1.27307 0
M  V30 6832 H 621.248 -0.876106 -3.86187 0
M  V30 6833 H 622.422 -3.57228 -2.91076 0
M  V30 6834 H 620.737 -3.12581 -2.75103 0
M  V30 6835 H 623.334 -1.62649 -5.09362 0
M  V30 6836 H 623.677 -0.191782 -4.15858 0
M  V30 6837 H 624.21 -1.78057 -3.55725 0
M  V30 6838 H 620.949 -4.53998 -4.72828 0
M  V30 6839 H 620.469 -2.90757 -5.24615 0
M  V30 6840 H 622.148 -3.45914 -5.46766 0
M  V30 6841 N 622.28 1.30327 -0.886154 0
M  V30 6842 C 623.227 2.28099 -0.352069 0
M  V30 6843 C 624.197 1.56433 0.558397 0
M  V30 6844 O 625.382 1.84492 0.486561 0
M  V30 6845 C 622.522 3.42456 0.426346 0
M  V30 6846 C 621.635 4.28938 -0.513472 0
M  V30 6847 C 620.77 5.30458 0.280657 0
M  V30 6848 C 619.809 6.0859 -0.654556 0
M  V30 6849 N 618.946 7.02022 0.104322 0
M  V30 6850 H 623.786 2.73166 -1.19097 0
M  V30 6851 H 621.323 1.34367 -0.598662 0
M  V30 6852 H 623.281 4.07518 0.893587 0
M  V30 6853 H 621.911 2.98455 1.22981 0
M  V30 6854 H 620.963 3.64173 -1.09921 0
M  V30 6855 H 622.275 4.83399 -1.2299 0
M  V30 6856 H 621.429 6.01273 0.8097 0
M  V30 6857 H 620.168 4.76693 1.03029 0
M  V30 6858 H 619.173 5.36651 -1.19522 0
M  V30 6859 H 620.398 6.64443 -1.4033 0
M  V30 6860 H 618.344 6.50645 0.836472 0
M  V30 6861 H 618.261 7.53979 -0.552453 0
M  V30 6862 H 619.529 7.77077 0.614069 0
M  V30 6863 N 623.758 0.647228 1.43697 0
M  V30 6864 C 625.035 0.0883758 1.954 0
M  V30 6865 C 625.415 -1.39006 1.58873 0
M  V30 6866 O 624.763 -2.11255 0.87083 0
M  V30 6867 C 624.973 0.328263 3.47453 0
M  V30 6868 C 626.321 0.230009 4.23977 0
M  V30 6869 O 627.345 0.260496 3.55246 0
M  V30 6870 O 626.204 0.148615 5.46298 0
M  V30 6871 H 623.298 -0.0130683 0.826897 0
M  V30 6872 H 625.844 0.72005 1.53666 0
M  V30 6873 H 624.616 1.3535 3.67146 0
M  V30 6874 H 624.239 -0.336772 3.96171 0
M  V30 6875 N 625.236 -1.5273 0.388769 0
M  V30 6876 C 626.483 -2.01573 -0.19359 0
M  V30 6877 C 626.811 -1.27525 -1.46859 0
M  V30 6878 O 626.066 -0.363926 -1.92286 0
M  V30 6879 C 626.365 -3.53765 -0.508445 0
M  V30 6880 C 626.031 -4.4582 0.674947 0
M  V30 6881 C 624.693 -4.70703 0.999596 0
M  V30 6882 C 627.045 -5.00138 1.46666 0
M  V30 6883 C 624.373 -5.47155 2.11751 0
M  V30 6884 C 626.725 -5.77812 2.57518 0
M  V30 6885 C 625.389 -6.00975 2.90492 0
M  V30 6886 H 624.659 -0.737606 -0.0708397 0
M  V30 6887 H 627.306 -1.84134 0.526006 0
M  V30 6888 H 625.611 -3.69274 -1.30936 0
M  V30 6889 H 627.308 -3.8905 -0.971664 0
M  V30 6890 H 623.898 -4.26616 0.411906 0
M  V30 6891 H 628.082 -4.8084 1.22909 0
M  V30 6892 H 623.338 -5.63314 2.3767 0
M  V30 6893 H 627.512 -6.18904 3.19267 0
M  V30 6894 H 625.139 -6.59998 3.77236 0
M  V30 6895 N 626.714 -0.118576 -1.57153 0
M  V30 6896 C 627.624 0.845484 -2.18835 0
M  V30 6897 C 628.64 1.29299 -1.16438 0
M  V30 6898 O 629.816 1.35607 -1.48905 0
M  V30 6899 C 626.881 2.07795 -2.77529 0
M  V30 6900 C 625.942 1.6824 -3.9496 0
M  V30 6901 C 625.175 2.85612 -4.50845 0
M  V30 6902 O 625.398 4.01025 -4.05629 0
M  V30 6903 O 624.332 2.62721 -5.41536 0
M  V30 6904 H 628.158 0.350568 -3.0167 0
M  V30 6905 H 625.743 0.107013 -1.49016 0
M  V30 6906 H 627.625 2.79978 -3.14945 0
M  V30 6907 H 626.3 2.56294 -1.97725 0
M  V30 6908 H 625.207 0.931663 -3.62313 0
M  V30 6909 H 626.54 1.24484 -4.76198 0
M  V30 6910 N 628.193 1.56834 0.155195 0
M  V30 6911 C 629.439 1.84058 0.865687 0
M  V30 6912 C 629.794 0.701418 1.79159 0
M  V30 6913 O 629.087 -0.301162 1.89218 0
M  V30 6914 C 629.281 3.15239 1.68402 0
M  V30 6915 C 629.11 4.41807 0.838847 0
M  V30 6916 C 627.88 5.02744 0.507645 0
M  V30 6917 C 630.078 5.14009 0.172946 0
M  V30 6918 N 628.06 6.1289 -0.351978 0
M  V30 6919 C 629.431 6.17581 -0.547158 0
M  V30 6920 C 631.486 4.97814 0.0927721 0
M  V30 6921 C 630.189 7.06711 -1.33985 0
M  V30 6922 C 632.215 5.874 -0.686638 0
M  V30 6923 C 631.577 6.90447 -1.39505 0
M  V30 6924 H 627.676 0.724276 0.294871 0
M  V30 6925 H 630.26 1.94255 0.131583 0
M  V30 6926 H 628.431 3.06205 2.38942 0
M  V30 6927 H 630.163 3.304 2.33705 0
M  V30 6928 H 626.918 4.66064 0.841517 0
M  V30 6929 H 627.342 6.72577 -0.772573 0
M  V30 6930 H 631.984 4.18138 0.626112 0
M  V30 6931 H 629.702 7.8582 -1.88448 0
M  V30 6932 H 633.288 5.76938 -0.750555 0
M  V30 6933 H 632.168 7.58571 -1.98847 0
M  V30 6934 N 629.671 -0.424282 1.51781 0
M  V30 6935 C 630.896 -1.19928 1.6921 0
M  V30 6936 C 631.321 -1.8392 0.394355 0
M  V30 6937 O 630.679 -1.69371 -0.646778 0
M  V30 6938 C 630.727 -2.24937 2.81843 0
M  V30 6939 O 629.831 -3.3073 2.46356 0
M  V30 6940 H 629.172 -0.35078 0.563781 0
M  V30 6941 H 631.702 -0.499401 1.98412 0
M  V30 6942 H 631.712 -2.69512 3.06312 0
M  V30 6943 H 630.387 -1.77742 3.76006 0
M  V30 6944 H 628.964 -2.9154 2.32505 0
M  V30 6945 N 631.149 -1.42148 -0.680565 0
M  V30 6946 C 632.397 -1.42029 -1.43779 0
M  V30 6947 C 632.718 -0.0356347 -1.94967 0
M  V30 6948 O 631.988 0.924936 -1.7269 0
M  V30 6949 H 630.568 -0.522835 -0.533529 0
M  V30 6950 H 633.23 -1.7752 -0.804538 0
M  V30 6951 H 632.326 -2.11658 -2.29363 0
M  V30 6952 N 632.627 0.916307 -1.28225 0
M  V30 6953 C 633.874 1.66518 -1.1523 0
M  V30 6954 C 634.202 1.92178 0.299632 0
M  V30 6955 O 633.457 1.51842 1.2346 0
M  V30 6956 C 633.756 3.03125 -1.8934 0
M  V30 6957 C 633.422 2.97135 -3.39148 0
M  V30 6958 C 632.084 2.95208 -3.80007 0
M  V30 6959 C 634.436 2.87574 -4.34685 0
M  V30 6960 C 631.764 2.81518 -5.14747 0
M  V30 6961 C 634.116 2.75424 -5.69495 0
M  V30 6962 C 632.78 2.71854 -6.09632 0
M  V30 6963 H 632.05 0.609334 -0.421655 0
M  V30 6964 H 634.697 1.06776 -1.58969 0
M  V30 6965 H 633.002 3.66639 -1.38143 0
M  V30 6966 H 634.699 3.59968 -1.76704 0
M  V30 6967 H 631.289 2.99428 -3.06661 0
M  V30 6968 H 635.473 2.88152 -4.04082 0
M  V30 6969 H 630.729 2.77148 -5.44976 0
M  V30 6970 H 634.903 2.66993 -6.43185 0
M  V30 6971 H 632.53 2.61003 -7.1399 0
M  V30 6972 N 634.105 1.10431 1.1244 0
M  V30 6973 C 635.516 0.864439 1.65482 0
M  V30 6974 C 635.867 -0.60527 1.8663 0
M  V30 6975 O 634.992 -1.46492 1.59276 0
M  V30 6976 C 635.587 1.56267 3.0061 0
M  V30 6977 C 634.146 1.3695 3.50602 0
M  V30 6978 C 633.293 1.61209 2.25626 0
M  V30 6979 H 636.244 1.26203 0.962209 0
M  V30 6980 H 636.265 1.00166 3.67079 0
M  V30 6981 H 635.777 2.63231 2.85186 0
M  V30 6982 H 633.878 0.321481 3.71211 0
M  V30 6983 H 633.991 2.11143 4.30064 0
M  V30 6984 H 632.355 1.03482 2.32731 0
M  V30 6985 H 633.138 2.69425 2.12756 0
M  V30 6986 N 635.583 -1.29855 0.893053 0
M  V30 6987 C 636.811 -1.99976 0.530788 0
M  V30 6988 C 637.226 -1.66889 -0.882799 0
M  V30 6989 O 636.583 -0.910352 -1.58173 0
M  V30 6990 C 636.634 -3.54547 0.705587 0
M  V30 6991 O 636.355 -3.86458 2.06353 0
M  V30 6992 C 637.856 -4.41937 0.347387 0
M  V30 6993 H 635.076 -0.639129 0.204339 0
M  V30 6994 H 637.62 -1.65549 1.20057 0
M  V30 6995 H 635.775 -3.87311 0.0830685 0
M  V30 6996 H 636.189 -4.81146 2.08803 0
M  V30 6997 H 637.663 -5.4954 0.520557 0
M  V30 6998 H 638.14 -4.33339 -0.715139 0
M  V30 6999 H 638.746 -4.14633 0.946567 0
M  V30 7000 N 637.061 -0.65484 -1.43351 0
M  V30 7001 C 638.31 -0.166215 -2.01014 0
M  V30 7002 C 638.623 1.22764 -1.52278 0
M  V30 7003 O 639.829 1.81156 -2.02224 0
M  V30 7004 C 638.285 -0.246341 -3.59056 0
M  V30 7005 C 637.893 -1.64299 -4.16785 0
M  V30 7006 C 639.637 0.184597 -4.24098 0
M  V30 7007 C 637.544 -1.67695 -5.67126 0
M  V30 7008 H 636.474 -0.0583769 -0.751737 0
M  V30 7009 H 639.125 -0.817111 -1.64303 0
M  V30 7010 H 637.507 0.472092 -3.93176 0
M  V30 7011 H 638.681 -2.3869 -3.94162 0
M  V30 7012 H 636.996 -2.02004 -3.6412 0
M  V30 7013 H 639.593 0.179088 -5.344 0
M  V30 7014 H 639.936 1.21632 -3.98135 0
M  V30 7015 H 640.469 -0.482141 -3.94867 0
M  V30 7016 H 637.208 -2.68783 -5.9786 0
M  V30 7017 H 636.728 -0.976313 -5.91801 0
M  V30 7018 H 638.407 -1.42142 -6.31193 0
M  V30 7019 N 638.539 1.52521 -0.396863 0
M  V30 7020 C 639.786 2.01672 0.182898 0
M  V30 7021 C 640.114 1.28302 1.46181 0
M  V30 7022 O 639.369 0.374118 1.92091 0
M  V30 7023 C 639.668 3.5403 0.489677 0
M  V30 7024 C 639.334 4.45456 -0.698581 0
M  V30 7025 C 637.996 4.70166 -1.02454 0
M  V30 7026 C 640.348 4.99354 -1.49316 0
M  V30 7027 C 637.676 5.46024 -2.1465 0
M  V30 7028 C 640.028 5.76439 -2.60579 0
M  V30 7029 C 638.692 5.99426 -2.93675 0
M  V30 7030 H 637.962 0.737971 0.066927 0
M  V30 7031 H 640.609 1.83853 -0.535764 0
M  V30 7032 H 638.914 3.69963 1.28976 0
M  V30 7033 H 640.611 3.8956 0.951018 0
M  V30 7034 H 637.201 4.26392 -0.434525 0
M  V30 7035 H 641.385 4.80182 -1.25457 0
M  V30 7036 H 636.641 5.62046 -2.40654 0
M  V30 7037 H 640.815 6.17202 -3.22544 0
M  V30 7038 H 638.442 6.57988 -3.80731 0
M  V30 7039 N 640.017 0.126909 1.57088 0
M  V30 7040 C 641.264 -0.529168 1.95464 0
M  V30 7041 C 641.592 -1.6618 1.01067 0
M  V30 7042 O 640.847 -1.95667 0.0360254 0
M  V30 7043 C 641.146 -1.095 3.40212 0
M  V30 7044 C 640.812 -0.0829015 4.50824 0
M  V30 7045 C 639.474 0.195377 4.80803 0
M  V30 7046 C 641.826 0.606411 5.1766 0
M  V30 7047 C 639.154 1.16912 5.74933 0
M  V30 7048 C 641.506 1.56884 6.12838 0
M  V30 7049 C 640.17 1.85502 6.41206 0
M  V30 7050 H 639.44 -0.193636 0.715252 0
M  V30 7051 H 642.087 0.209489 1.90351 0
M  V30 7052 H 640.392 -1.91058 3.42059 0
M  V30 7053 H 642.089 -1.61087 3.67222 0
M  V30 7054 H 638.679 -0.309979 4.27478 0
M  V30 7055 H 642.863 0.404597 4.94648 0
M  V30 7056 H 638.119 1.3975 5.95214 0
M  V30 7057 H 642.293 2.10859 6.6371 0
M  V30 7058 H 639.92 2.61109 7.13951 0
M  V30 7059 N 641.495 -1.56914 -0.146875 0
M  V30 7060 C 642.741 -1.83628 -0.860741 0
M  V30 7061 C 643.074 -0.708528 -1.80813 0
M  V30 7062 O 642.349 0.287838 -1.92358 0
M  V30 7063 C 642.632 -3.20836 -1.63511 0
M  V30 7064 C 642.485 -4.44174 -0.709199 0
M  V30 7065 C 643.804 -3.55268 -2.59756 0
M  V30 7066 H 640.923 -0.667949 -0.311468 0
M  V30 7067 H 643.565 -1.89582 -0.125936 0
M  V30 7068 H 641.715 -3.15891 -2.26153 0
M  V30 7069 H 643.387 -4.61205 -0.0937781 0
M  V30 7070 H 641.63 -4.33796 -0.0187856 0
M  V30 7071 H 642.301 -5.36785 -1.28707 0
M  V30 7072 H 644.777 -3.60824 -2.07232 0
M  V30 7073 H 643.653 -4.52303 -3.10987 0
M  V30 7074 H 643.914 -2.81231 -3.41118 0
M  V30 7075 N 642.974 0.416227 -1.52004 0
M  V30 7076 C 643.921 1.50666 -1.74838 0
M  V30 7077 C 644.891 1.55245 -0.590599 0
M  V30 7078 O 646.076 1.71928 -0.827374 0
M  V30 7079 C 643.216 2.88185 -1.89851 0
M  V30 7080 C 642.329 2.92971 -3.17478 0
M  V30 7081 C 641.464 4.21745 -3.22962 0
M  V30 7082 C 640.503 4.20478 -4.4482 0
M  V30 7083 N 639.64 5.40811 -4.47736 0
M  V30 7084 H 644.48 1.30498 -2.67907 0
M  V30 7085 H 642.017 0.633568 -1.32757 0
M  V30 7086 H 643.975 3.68007 -1.96537 0
M  V30 7087 H 642.605 3.06865 -1.00169 0
M  V30 7088 H 641.657 2.05684 -3.19997 0
M  V30 7089 H 642.969 2.87899 -4.07328 0
M  V30 7090 H 642.123 5.09954 -3.28682 0
M  V30 7091 H 640.862 4.29503 -2.31038 0
M  V30 7092 H 639.867 3.30659 -4.39254 0
M  V30 7093 H 641.092 4.14366 -5.38031 0
M  V30 7094 H 639.038 5.4925 -3.58692 0
M  V30 7095 H 638.955 5.37705 -5.31422 0
M  V30 7096 H 640.223 6.30993 -4.57676 0
M  V30 7097 N 644.452 1.42507 0.673017 0
M  V30 7098 C 645.415 1.4582 1.76831 0
M  V30 7099 C 646.415 0.345542 1.57043 0
M  V30 7100 O 647.605 0.606447 1.63303 0
M  V30 7101 C 644.737 1.29158 3.15485 0
M  V30 7102 H 645.93 2.43345 1.7528 0
M  V30 7103 H 643.483 1.28981 0.882817 0
M  V30 7104 H 644.218 0.325626 3.22661 0
M  V30 7105 H 644.003 2.09797 3.31252 0
M  V30 7106 H 645.493 1.34363 3.95394 0
M  V30 7107 N 645.93 -0.909495 1.28709 0
M  V30 7108 C 647.178 -1.65577 1.15882 0
M  V30 7109 C 647.499 -1.928 -0.292108 0
M  V30 7110 O 646.769 -1.54716 -1.20166 0
M  V30 7111 H 645.349 -0.613714 0.425869 0
M  V30 7112 H 648.011 -1.09108 1.61498 0
M  V30 7113 H 647.107 -2.61634 1.70159 0
M  V30 7114 N 647.408 -1.11026 -1.11852 0
M  V30 7115 C 648.633 -0.879064 -1.87849 0
M  V30 7116 C 649.058 0.565406 -1.79401 0
M  V30 7117 O 648.416 1.39886 -1.15333 0
M  V30 7118 C 648.464 -1.33985 -3.34784 0
M  V30 7119 O 647.568 -0.508803 -4.09249 0
M  V30 7120 H 646.909 -0.316992 -0.583448 0
M  V30 7121 H 649.439 -1.47863 -1.41413 0
M  V30 7122 H 649.449 -1.33248 -3.85628 0
M  V30 7123 H 648.124 -2.39172 -3.40249 0
M  V30 7124 H 646.701 -0.581913 -3.68332 0
M  V30 7125 N 648.886 1.2938 -0.899927 0
M  V30 7126 C 649.833 2.27713 -0.376243 0
M  V30 7127 C 650.803 1.57016 0.541774 0
M  V30 7128 O 651.988 1.84997 0.466966 0
M  V30 7129 C 649.128 3.42889 0.39 0
M  V30 7130 C 648.241 4.28369 -0.558938 0
M  V30 7131 C 647.376 5.30726 0.224379 0
M  V30 7132 C 646.415 6.07862 -0.719068 0
M  V30 7133 N 645.552 7.02094 0.0298569 0
M  V30 7134 H 650.392 2.71888 -1.21988 0
M  V30 7135 H 647.929 1.33724 -0.612879 0
M  V30 7136 H 649.887 4.08443 0.850314 0
M  V30 7137 H 648.517 2.99743 1.19809 0
M  V30 7138 H 647.569 3.62986 -1.13777 0
M  V30 7139 H 648.881 4.82068 -1.2811 0
M  V30 7140 H 648.035 6.02098 0.745881 0
M  V30 7141 H 646.774 4.77759 0.979674 0
M  V30 7142 H 645.779 5.35353 -1.25207 0
M  V30 7143 H 647.004 6.62917 -1.4737 0
M  V30 7144 H 644.95 6.51496 0.767415 0
M  V30 7145 H 644.867 7.5335 -0.632391 0
M  V30 7146 H 646.135 7.77685 0.531615 0
M  V30 7147 N 650.364 0.662433 1.43002 0
M  V30 7148 C 651.613 0.176873 2.00923 0
M  V30 7149 C 651.926 -1.21954 1.52927 0
M  V30 7150 O 653.132 -1.80081 2.03182 0
M  V30 7151 C 651.588 0.265379 3.5892 0
M  V30 7152 C 651.196 1.66507 4.15908 0
M  V30 7153 C 652.94 -0.162103 4.2419 0
M  V30 7154 C 650.847 1.707 5.66229 0
M  V30 7155 H 649.777 0.0623627 0.751417 0
M  V30 7156 H 652.428 0.825813 1.63868 0
M  V30 7157 H 650.81 -0.451235 3.93421 0
M  V30 7158 H 651.984 2.40777 3.92891 0
M  V30 7159 H 650.299 2.03932 3.63044 0
M  V30 7160 H 652.896 -0.150745 5.34487 0
M  V30 7161 H 653.239 -1.19519 3.98774 0
M  V30 7162 H 653.772 0.503075 3.94606 0
M  V30 7163 H 650.511 2.7195 5.96426 0
M  V30 7164 H 650.031 1.00768 5.91275 0
M  V30 7165 H 651.71 1.45487 6.3043 0
M  V30 7166 N 651.842 -1.52309 0.404946 0
M  V30 7167 C 653.253 -1.86585 -0.0655926 0
M  V30 7168 C 653.604 -1.3239 -1.44801 0
M  V30 7169 O 652.729 -0.6615 -2.06042 0
M  V30 7170 C 653.324 -3.38566 -0.125801 0
M  V30 7171 C 651.883 -3.72497 -0.540666 0
M  V30 7172 C 651.03 -2.75806 0.287487 0
M  V30 7173 H 653.981 -1.45995 0.622185 0
M  V30 7174 H 654.002 -3.68658 -0.941888 0
M  V30 7175 H 653.514 -3.77981 0.880473 0
M  V30 7176 H 651.615 -3.38659 -1.55373 0
M  V30 7177 H 651.728 -4.78234 -0.287956 0
M  V30 7178 H 650.092 -2.53474 -0.249561 0
M  V30 7179 H 650.875 -3.18059 1.29203 0
M  V30 7180 N 653.32 -0.135238 -1.57019 0
M  V30 7181 C 654.25 0.805235 -2.19176 0
M  V30 7182 C 655.231 1.2656 -1.13651 0
M  V30 7183 O 656.416 1.32528 -1.4195 0
M  V30 7184 C 653.546 2.04914 -2.80406 0
M  V30 7185 C 652.5 1.72598 -3.91655 0
M  V30 7186 C 651.826 3.04154 -4.39766 0
M  V30 7187 C 653.126 0.981709 -5.12991 0
M  V30 7188 H 654.82 0.287232 -2.98019 0
M  V30 7189 H 652.366 0.136714 -1.4335 0
M  V30 7190 H 654.319 2.71178 -3.22553 0
M  V30 7191 H 653.043 2.59067 -1.98877 0
M  V30 7192 H 651.702 1.08717 -3.50109 0
M  V30 7193 H 651.35 3.56274 -3.55075 0
M  V30 7194 H 651.05 2.83299 -5.14796 0
M  V30 7195 H 652.574 3.71509 -4.84576 0
M  V30 7196 H 653.988 1.5462 -5.52056 0
M  V30 7197 H 652.385 0.873533 -5.93708 0
M  V30 7198 H 653.455 -0.0286887 -4.84892 0
M  V30 7199 N 654.798 1.5699 0.138552 0
M  V30 7200 C 656.209 1.73171 0.697754 0
M  V30 7201 C 656.56 0.750952 1.8126 0
M  V30 7202 O 655.685 -0.080549 2.1625 0
M  V30 7203 C 656.28 3.13996 1.27248 0
M  V30 7204 C 654.839 3.3175 1.77816 0
M  V30 7205 C 653.986 2.69084 0.669991 0
M  V30 7206 H 656.937 1.5846 -0.0871979 0
M  V30 7207 H 656.958 3.14463 2.14227 0
M  V30 7208 H 656.47 3.85354 0.460855 0
M  V30 7209 H 654.571 2.65403 2.61519 0
M  V30 7210 H 654.684 4.39768 1.90107 0
M  V30 7211 H 653.048 2.29782 1.09874 0
M  V30 7212 H 653.831 3.43053 -0.130329 0
M  V30 7213 N 656.276 -0.40816 1.52223 0
M  V30 7214 C 657.506 -1.17501 1.69932 0
M  V30 7215 C 657.914 -1.84729 0.408874 0
M  V30 7216 O 657.257 -1.7274 -0.625025 0
M  V30 7217 C 657.319 -2.27994 2.77955 0
M  V30 7218 C 656.983 -1.80894 4.19674 0
M  V30 7219 C 657.98 -1.29618 5.03483 0
M  V30 7220 C 655.665 -1.87698 4.65913 0
M  V30 7221 C 657.659 -0.857695 6.31603 0
M  V30 7222 C 655.346 -1.43461 5.94022 0
M  V30 7223 C 656.344 -0.925822 6.76696 0
M  V30 7224 O 656.032 -0.489841 8.02406 0
M  V30 7225 H 655.764 -0.359065 0.572755 0
M  V30 7226 H 658.318 -0.486188 1.99563 0
M  V30 7227 H 656.548 -3.00243 2.43703 0
M  V30 7228 H 658.237 -2.89749 2.84254 0
M  V30 7229 H 659.003 -1.23733 4.68951 0
M  V30 7230 H 654.882 -2.26244 4.01665 0
M  V30 7231 H 658.426 -0.459879 6.96083 0
M  V30 7232 H 654.323 -1.49026 6.28062 0
M  V30 7233 H 655.091 -0.613062 8.16201 0
M  V30 7234 N 657.755 -1.42862 -0.66545 0
M  V30 7235 C 658.665 -1.49491 -1.80803 0
M  V30 7236 C 659.681 -0.382914 -1.69734 0
M  V30 7237 O 660.857 -0.635223 -1.9112 0
M  V30 7238 C 657.922 -1.40383 -3.17007 0
M  V30 7239 C 656.983 -2.62152 -3.39963 0
M  V30 7240 C 656.216 -2.53469 -4.69669 0
M  V30 7241 O 656.439 -1.57568 -5.48205 0
M  V30 7242 O 655.373 -3.43763 -4.94075 0
M  V30 7243 H 659.199 -2.45949 -1.78165 0
M  V30 7244 H 656.784 -1.24728 -0.822387 0
M  V30 7245 H 658.666 -1.377 -3.98267 0
M  V30 7246 H 657.341 -0.470546 -3.20262 0
M  V30 7247 H 656.248 -2.70409 -2.58515 0
M  V30 7248 H 657.581 -3.54411 -3.41546 0
M  V30 7249 N 659.233 0.902656 -1.29189 0
M  V30 7250 C 660.481 1.6496 -1.16758 0
M  V30 7251 C 660.802 1.92952 0.28188 0
M  V30 7252 O 660.072 1.55351 1.19344 0
M  V30 7253 H 658.652 0.611447 -0.429118 0
M  V30 7254 H 661.314 1.0825 -1.62074 0
M  V30 7255 H 660.41 2.60728 -1.71544 0
M  V30 7256 N 660.711 1.11618 1.11262 0
M  V30 7257 C 661.621 0.78898 2.20935 0
M  V30 7258 C 662.637 -0.21867 1.7262 0
M  V30 7259 O 663.813 -0.0543826 2.01327 0
M  V30 7260 C 660.878 0.239014 3.45875 0
M  V30 7261 C 659.939 1.3055 4.08968 0
M  V30 7262 C 659.172 0.781687 5.27944 0
M  V30 7263 O 659.395 -0.387605 5.69082 0
M  V30 7264 O 658.329 1.54734 5.81671 0
M  V30 7265 H 662.155 1.70477 2.51339 0
M  V30 7266 H 659.74 0.892203 1.19834 0
M  V30 7267 H 661.622 -0.0632312 4.21353 0
M  V30 7268 H 660.297 -0.649454 3.17118 0
M  V30 7269 H 659.204 1.66079 3.35214 0
M  V30 7270 H 660.537 2.16743 4.41909 0
M  V30 7271 N 662.189 -1.289 0.906776 0
M  V30 7272 C 663.605 -1.47733 0.603902 0
M  V30 7273 C 663.805 -1.82568 -0.852702 0
M  V30 7274 O 662.861 -1.92642 -1.63234 0
M  V30 7275 C 664.174 -2.58522 1.53581 0
M  V30 7276 C 665.722 -2.72394 1.54177 0
M  V30 7277 C 666.197 -3.86318 2.46013 0
M  V30 7278 N 667.688 -3.93661 2.441 0
M  V30 7279 C 668.423 -4.81177 3.11859 0
M  V30 7280 N 667.919 -5.73333 3.88923 0
M  V30 7281 N 669.712 -4.74728 3.00981 0
M  V30 7282 H 661.863 -1.04567 1.84877 0
M  V30 7283 H 664.126 -0.520118 0.792579 0
M  V30 7284 H 663.832 -2.39667 2.57396 0
M  V30 7285 H 663.706 -3.55475 1.26165 0
M  V30 7286 H 666.093 -2.90641 0.511034 0
M  V30 7287 H 666.174 -1.75993 1.85634 0
M  V30 7288 H 665.818 -3.68826 3.49185 0
M  V30 7289 H 665.748 -4.82102 2.11862 0
M  V30 7290 H 668.239 -3.27751 1.88115 0
M  V30 7291 H 668.552 -6.36923 4.37663 0
M  V30 7292 H 666.897 -5.73196 3.93029 0
M  V30 7293 H 670.088 -4.01722 2.40286 0
M  V30 7294 H 670.261 -5.42719 3.54062 0
M  V30 7295 N 663.667 -0.670007 -1.42649 0
M  V30 7296 C 664.892 -0.196955 -2.06463 0
M  V30 7297 C 665.317 1.1352 -1.49983 0
M  V30 7298 O 664.675 1.705 -0.616397 0
M  V30 7299 C 664.723 -0.137381 -3.60338 0
M  V30 7300 O 663.827 0.895523 -4.02559 0
M  V30 7301 H 663.168 -0.102579 -0.656029 0
M  V30 7302 H 665.698 -0.917669 -1.82866 0
M  V30 7303 H 665.708 0.0403625 -4.0798 0
M  V30 7304 H 664.383 -1.10977 -4.0082 0
M  V30 7305 H 662.96 0.689209 -3.66476 0
M  V30 7306 N 665.145 1.52092 -0.413018 0
M  V30 7307 C 666.075 2.30021 0.401567 0
M  V30 7308 C 667.056 1.34395 1.04269 0
M  V30 7309 O 668.241 1.63304 1.05097 0
M  V30 7310 C 665.371 3.12447 1.51638 0
M  V30 7311 C 664.325 4.16153 1.00005 0
M  V30 7312 C 663.651 4.86948 2.20875 0
M  V30 7313 C 664.951 5.22275 0.0513757 0
M  V30 7314 H 666.645 2.98365 -0.248704 0
M  V30 7315 H 664.191 1.4349 -0.121052 0
M  V30 7316 H 666.144 3.65733 2.09326 0
M  V30 7317 H 664.868 2.41879 2.19458 0
M  V30 7318 H 663.527 3.63882 0.445549 0
M  V30 7319 H 663.175 4.12905 2.8726 0
M  V30 7320 H 662.875 5.57057 1.86978 0
M  V30 7321 H 664.399 5.43048 2.79162 0
M  V30 7322 H 665.813 5.70778 0.537176 0
M  V30 7323 H 664.21 5.9977 -0.198977 0
M  V30 7324 H 665.28 4.76611 -0.892736 0
M  V30 7325 N 666.623 0.143563 1.56945 0
M  V30 7326 C 667.57 -0.797433 2.16586 0
M  V30 7327 C 668.54 -1.24654 1.09775 0
M  V30 7328 O 669.725 -1.31968 1.37801 0
M  V30 7329 C 666.865 -2.03253 2.78895 0
M  V30 7330 C 665.978 -1.62954 4.00087 0
M  V30 7331 C 665.113 -2.81617 4.50406 0
M  V30 7332 C 664.152 -2.37675 5.64072 0
M  V30 7333 N 663.289 -3.49335 6.09023 0
M  V30 7334 H 668.129 -0.282023 2.96662 0
M  V30 7335 H 665.666 -0.127494 1.46546 0
M  V30 7336 H 667.624 -2.75653 3.13163 0
M  V30 7337 H 666.254 -2.52211 2.01469 0
M  V30 7338 H 665.306 -0.803322 3.71821 0
M  V30 7339 H 666.618 -1.26679 4.82446 0
M  V30 7340 H 665.772 -3.62212 4.86711 0
M  V30 7341 H 664.511 -3.21134 3.67048 0
M  V30 7342 H 663.516 -1.55519 5.27346 0
M  V30 7343 H 664.741 -1.99247 6.49213 0
M  V30 7344 H 662.687 -3.8848 5.28601 0
M  V30 7345 H 662.604 -3.17064 6.86299 0
M  V30 7346 H 663.872 -4.30297 6.49973 0
M  V30 7347 N 668.101 -1.57061 -0.130224 0
M  V30 7348 C 669.349 -1.83893 -0.838313 0
M  V30 7349 C 669.67 -0.727046 -1.80939 0
M  V30 7350 O 668.94 0.249927 -1.94299 0
M  V30 7351 H 667.52 -0.67846 -0.312573 0
M  V30 7352 H 670.182 -1.94529 -0.120224 0
M  V30 7353 H 669.278 -2.79419 -1.39038 0
M  V30 7354 N 669.579 0.400081 -1.52437 0
M  V30 7355 C 670.826 1.14619 -1.6694 0
M  V30 7356 C 671.154 1.90262 -0.403797 0
M  V30 7357 O 670.409 1.85835 0.61351 0
M  V30 7358 C 670.708 2.15914 -2.84808 0
M  V30 7359 C 670.374 1.57011 -4.2268 0
M  V30 7360 C 669.036 1.40672 -4.60179 0
M  V30 7361 C 671.388 1.14081 -5.08562 0
M  V30 7362 C 668.716 0.799335 -5.81229 0
M  V30 7363 C 671.068 0.547573 -6.30226 0
M  V30 7364 C 669.732 0.371389 -6.66466 0
M  V30 7365 H 669.002 0.419419 -0.610875 0
M  V30 7366 H 671.649 0.432227 -1.86558 0
M  V30 7367 H 669.954 2.93488 -2.59561 0
M  V30 7368 H 671.651 2.73533 -2.93225 0
M  V30 7369 H 668.241 1.70713 -3.93135 0
M  V30 7370 H 672.425 1.2551 -4.80168 0
M  V30 7371 H 667.681 0.65093 -6.07925 0
M  V30 7372 H 671.855 0.206575 -6.96094 0
M  V30 7373 H 669.482 -0.10135 -7.60132 0
M  V30 7374 N 671.057 1.43213 0.657864 0
M  V30 7375 C 672.303 1.44798 1.41991 0
M  V30 7376 C 672.636 0.070256 1.94073 0
M  V30 7377 O 671.911 -0.908177 1.71995 0
M  V30 7378 C 672.194 2.4865 2.60471 0
M  V30 7379 C 672.047 3.95679 2.13911 0
M  V30 7380 C 673.366 2.49292 3.62686 0
M  V30 7381 H 670.485 0.527244 0.514959 0
M  V30 7382 H 673.127 1.74733 0.74621 0
M  V30 7383 H 671.277 2.23254 3.17946 0
M  V30 7384 H 672.949 4.32116 1.61472 0
M  V30 7385 H 671.192 4.08733 1.45325 0
M  V30 7386 H 671.863 4.6395 2.99089 0
M  V30 7387 H 674.339 2.71917 3.14961 0
M  V30 7388 H 673.215 3.23907 4.43143 0
M  V30 7389 H 673.476 1.52502 4.14964 0
M  V30 7390 N 672.536 -0.895792 1.29666 0
M  V30 7391 C 673.813 -1.62723 1.08538 0
M  V30 7392 C 674.193 -2.07848 -0.369119 0
M  V30 7393 O 673.541 -1.8372 -1.35864 0
M  V30 7394 C 673.751 -2.80505 2.07648 0
M  V30 7395 C 675.099 -3.51098 2.3878 0
M  V30 7396 O 676.123 -2.90679 2.05874 0
M  V30 7397 O 674.982 -4.60028 2.9502 0
M  V30 7398 H 672.076 -0.714692 0.416106 0
M  V30 7399 H 674.622 -0.943517 1.41053 0
M  V30 7400 H 673.394 -2.44386 3.05599 0
M  V30 7401 H 673.017 -3.5658 1.75887 0
M  V30 7402 N 674.014 -1.12206 -1.10668 0
M  V30 7403 C 675.261 -0.875875 -1.82578 0
M  V30 7404 C 675.589 0.598342 -1.85068 0
M  V30 7405 O 674.844 1.45818 -1.3052 0
M  V30 7406 C 675.143 -1.39276 -3.29146 0
M  V30 7407 C 674.809 -2.8816 -3.46806 0
M  V30 7408 C 673.471 -3.28813 -3.51334 0
M  V30 7409 C 675.823 -3.8401 -3.52399 0
M  V30 7410 C 673.151 -4.64028 -3.59019 0
M  V30 7411 C 675.503 -5.19053 -3.61617 0
M  V30 7412 C 674.167 -5.59252 -3.64408 0
M  V30 7413 H 673.437 -0.320505 -0.6681 0
M  V30 7414 H 676.084 -1.40184 -1.30464 0
M  V30 7415 H 674.389 -0.787207 -3.8381 0
M  V30 7416 H 676.086 -1.17851 -3.83291 0
M  V30 7417 H 672.676 -2.55716 -3.43958 0
M  V30 7418 H 676.86 -3.53698 -3.48154 0
M  V30 7419 H 672.116 -4.94568 -3.59461 0
M  V30 7420 H 676.29 -5.93152 -3.64889 0
M  V30 7421 H 673.917 -6.64017 -3.70116 0
M  V30 7422 N 675.492 1.28418 -0.913599 0
M  V30 7423 C 676.422 2.29713 -0.418847 0
M  V30 7424 C 677.403 1.62165 0.513469 0
M  V30 7425 O 678.588 1.89576 0.421235 0
M  V30 7426 C 675.718 3.45612 0.342042 0
M  V30 7427 C 674.672 4.25056 -0.501123 0
M  V30 7428 C 673.998 5.3329 0.388097 0
M  V30 7429 C 675.298 4.91814 -1.75831 0
M  V30 7430 H 676.992 2.71346 -1.26538 0
M  V30 7431 H 674.538 1.30446 -0.609903 0
M  V30 7432 H 676.491 4.15562 0.699 0
M  V30 7433 H 675.215 3.02858 1.22248 0
M  V30 7434 H 673.874 3.56833 -0.840598 0
M  V30 7435 H 673.522 4.8678 1.26707 0
M  V30 7436 H 673.222 5.87347 -0.172459 0
M  V30 7437 H 674.746 6.06088 0.74094 0
M  V30 7438 H 676.16 5.54126 -1.47026 0
M  V30 7439 H 674.557 5.55866 -2.26126 0
M  V30 7440 H 675.627 4.16313 -2.4862 0
M  V30 7441 N 676.97 0.677563 1.42291 0
M  V30 7442 C 677.918 -0.0106755 2.32598 0
M  V30 7443 C 678.912 -0.787643 1.49975 0
M  V30 7444 O 680.118 -0.695295 1.66029 0
M  V30 7445 H 676.493 -0.0222482 0.751671 0
M  V30 7446 H 678.464 0.768312 2.88339 0
M  V30 7447 C 677.213 -0.946142 3.3458 0
M  V30 7448 H 676.536 -0.357701 3.98197 0
M  V30 7449 H 677.976 -1.39634 4.00348 0
M  V30 7450 C 676.435 -2.05383 2.67057 0
M  V30 7451 O 676.965 -3.1406 2.50458 0
M  V30 7452 N 675.171 -1.82635 2.26038 0
M  V30 7453 H 674.718 -0.942534 2.39737 0
M  V30 7454 H 674.676 -2.56937 1.81192 0
M  V30 7455 N 678.448 -1.51871 0.421078 0
M  V30 7456 C 679.395 -2.27334 -0.398508 0
M  V30 7457 C 680.365 -1.30241 -1.03085 0
M  V30 7458 O 681.55 -1.59121 -1.05285 0
M  V30 7459 C 678.69 -3.10664 -1.50272 0
M  V30 7460 C 677.803 -4.2273 -0.890122 0
M  V30 7461 C 676.938 -4.93399 -1.96803 0
M  V30 7462 C 675.977 -5.97409 -1.333 0
M  V30 7463 N 675.114 -6.61548 -2.35156 0
M  V30 7464 H 679.954 -2.96938 0.251411 0
M  V30 7465 H 677.491 -1.46472 0.135825 0
M  V30 7466 H 679.449 -3.57292 -2.15403 0
M  V30 7467 H 678.079 -2.43207 -2.1225 0
M  V30 7468 H 677.131 -3.80186 -0.127537 0
M  V30 7469 H 678.443 -4.97302 -0.386349 0
M  V30 7470 H 677.597 -5.43491 -2.69633 0
M  V30 7471 H 676.336 -4.18421 -2.50549 0
M  V30 7472 H 675.341 -5.46624 -0.59008 0
M  V30 7473 H 676.566 -6.74335 -0.803076 0
M  V30 7474 H 674.512 -5.89394 -2.88012 0
M  V30 7475 H 674.429 -7.31832 -1.89624 0
M  V30 7476 H 675.697 -7.16276 -3.0752 0
M  V30 7477 N 679.926 -0.151884 -1.56866 0
M  V30 7478 C 680.876 0.797799 -2.13586 0
M  V30 7479 C 681.86 1.20613 -1.06496 0
M  V30 7480 O 683.052 1.17173 -1.32663 0
M  V30 7481 C 680.181 2.03493 -2.76488 0
M  V30 7482 C 679.267 1.64948 -3.90708 0
M  V30 7483 N 679.658 0.972513 -4.96363 0
M  V30 7484 C 677.956 1.94186 -4.01507 0
M  V30 7485 C 678.657 0.785661 -5.7637 0
M  V30 7486 N 677.633 1.32105 -5.27304 0
M  V30 7487 H 681.435 0.271403 -2.92644 0
M  V30 7488 H 678.949 0.049487 -1.62325 0
M  V30 7489 H 680.946 2.72532 -3.15487 0
M  V30 7490 H 679.606 2.56646 -1.98904 0
M  V30 7491 H 680.617 0.632724 -5.1402 0
M  V30 7492 H 677.294 2.49154 -3.35005 0
M  V30 7493 H 678.684 0.251749 -6.71428 0
M  V30 7494 N 681.404 1.57128 0.121893 0
M  V30 7495 C 682.367 1.99197 1.13372 0
M  V30 7496 C 683.367 0.881728 1.3447 0
M  V30 7497 O 684.557 1.14783 1.31036 0
M  V30 7498 C 681.689 2.32963 2.4888 0
M  V30 7499 H 682.882 2.89788 0.772204 0
M  V30 7500 H 680.435 1.51952 0.366093 0
M  V30 7501 H 681.17 1.45243 2.89957 0
M  V30 7502 H 680.955 3.13934 2.34921 0
M  V30 7503 H 682.445 2.66261 3.21706 0
M  V30 7504 N 682.882 -0.391992 1.52647 0
M  V30 7505 C 684.11 -1.1586 1.71418 0
M  V30 7506 C 684.525 -1.8381 0.431216 0
M  V30 7507 O 683.882 -1.7256 -0.594085 0
M  V30 7508 C 683.933 -2.20888 2.86165 0
M  V30 7509 O 683.654 -1.5571 4.09495 0
M  V30 7510 C 685.155 -3.103 3.1659 0
M  V30 7511 H 682.375 -0.347494 0.574011 0
M  V30 7512 H 684.919 -0.458972 1.99283 0
M  V30 7513 H 683.074 -2.86492 2.6077 0
M  V30 7514 H 683.488 -2.25474 4.73563 0
M  V30 7515 H 684.962 -3.8003 4.00351 0
M  V30 7516 H 685.439 -3.73639 2.30848 0
M  V30 7517 H 686.045 -2.50345 3.43813 0
M  V30 7518 N 684.36 -1.4356 -0.65026 0
M  V30 7519 C 685.308 -1.49219 -1.78427 0
M  V30 7520 C 686.302 -0.365528 -1.65409 0
M  V30 7521 O 687.508 -0.539649 -1.7172 0
M  V30 7522 H 683.883 -0.467858 -0.588738 0
M  V30 7523 H 685.854 -2.44701 -1.70774 0
M  V30 7524 C 684.603 -1.43519 -3.16698 0
M  V30 7525 H 683.926 -2.2952 -3.27354 0
M  V30 7526 H 685.366 -1.5154 -3.95995 0
M  V30 7527 C 683.825 -0.153197 -3.36552 0
M  V30 7528 O 684.355 0.784317 -3.93969 0
M  V30 7529 N 682.561 -0.0624402 -2.90533 0
M  V30 7530 H 682.108 -0.826172 -2.43992 0
M  V30 7531 H 682.066 0.794616 -3.04193 0
M  V30 7532 N 685.838 0.888903 -1.30139 0
M  V30 7533 C 687.066 1.67358 -1.21651 0
M  V30 7534 C 687.481 1.87499 0.221246 0
M  V30 7535 O 686.838 1.41969 1.14677 0
M  V30 7536 C 686.889 3.05213 -1.93719 0
M  V30 7537 O 686.61 2.85984 -3.31881 0
M  V30 7538 C 688.111 3.9964 -1.9184 0
M  V30 7539 H 685.331 0.522365 -0.42116 0
M  V30 7540 H 687.875 1.11086 -1.71698 0
M  V30 7541 H 686.03 3.5823 -1.4748 0
M  V30 7542 H 686.444 3.73411 -3.68327 0
M  V30 7543 H 687.918 4.93749 -2.46811 0
M  V30 7544 H 688.395 4.29955 -0.896409 0
M  V30 7545 H 689.001 3.52558 -2.37872 0
M  V30 7546 N 687.317 1.12792 1.10072 0
M  V30 7547 C 688.728 0.899346 1.63611 0
M  V30 7548 C 689.079 -0.565547 1.87872 0
M  V30 7549 O 688.204 -1.43081 1.62348 0
M  V30 7550 C 688.799 1.62608 2.97227 0
M  V30 7551 C 687.358 1.44356 3.47618 0
M  V30 7552 C 686.505 1.65958 2.22156 0
M  V30 7553 H 689.456 1.28216 0.935223 0
M  V30 7554 H 689.477 1.0793 3.64872 0
M  V30 7555 H 688.989 2.69221 2.79538 0
M  V30 7556 H 687.09 0.400148 3.70445 0
M  V30 7557 H 687.203 2.20218 4.25489 0
M  V30 7558 H 685.567 1.08395 2.30484 0
M  V30 7559 H 686.35 2.73877 2.06993 0
M  V30 7560 N 688.795 -1.27931 0.920396 0
M  V30 7561 C 690.044 -1.93975 0.552867 0
M  V30 7562 C 690.357 -1.73193 -0.909035 0
M  V30 7563 O 691.563 -2.33515 -1.38502 0
M  V30 7564 C 690.019 -3.47463 0.937947 0
M  V30 7565 C 689.627 -3.77013 2.42003 0
M  V30 7566 C 691.371 -4.19628 0.64132 0
M  V30 7567 C 689.278 -5.23841 2.74489 0
M  V30 7568 H 688.208 -0.726146 0.203046 0
M  V30 7569 H 690.859 -1.45339 1.12022 0
M  V30 7570 H 689.241 -3.94867 0.299317 0
M  V30 7571 H 690.415 -3.40393 3.10595 0
M  V30 7572 H 688.73 -3.18035 2.6878 0
M  V30 7573 H 691.327 -5.27729 0.860622 0
M  V30 7574 H 691.67 -4.14164 -0.421168 0
M  V30 7575 H 692.203 -3.78022 1.23872 0
M  V30 7576 H 688.942 -5.34388 3.79618 0
M  V30 7577 H 688.462 -5.61634 2.1054 0
M  V30 7578 H 690.141 -5.91647 2.61845 0
M  V30 7579 N 690.273 -0.685099 -1.4193 0
M  V30 7580 C 691.498 -0.218842 -2.06242 0
M  V30 7581 C 691.923 1.11923 -1.51178 0
M  V30 7582 O 691.281 1.69837 -0.634446 0
M  V30 7583 C 691.329 -0.175592 -3.60172 0
M  V30 7584 O 690.433 0.852776 -4.03487 0
M  V30 7585 H 689.774 -0.109531 -0.654904 0
M  V30 7586 H 692.304 -0.937013 -1.81882 0
M  V30 7587 H 692.314 -0.00291151 -4.08 0
M  V30 7588 H 690.989 -1.15222 -3.99621 0
M  V30 7589 H 689.566 0.650301 -3.67186 0
M  V30 7590 N 691.751 1.51645 -0.429126 0
M  V30 7591 C 693 2.01203 0.141538 0
M  V30 7592 C 693.313 1.31828 1.44502 0
M  V30 7593 O 694.519 1.7231 2.09813 0
M  V30 7594 C 692.975 3.58624 0.302786 0
M  V30 7595 C 692.583 4.3693 -0.989775 0
M  V30 7596 C 694.327 4.16353 0.827661 0
M  V30 7597 C 692.234 5.86037 -0.794619 0
M  V30 7598 H 691.164 0.751867 0.05667 0
M  V30 7599 H 693.815 1.74822 -0.557633 0
M  V30 7600 H 692.197 3.81417 1.06476 0
M  V30 7601 H 693.371 4.25887 -1.75945 0
M  V30 7602 H 691.686 3.90614 -1.44256 0
M  V30 7603 H 694.283 5.25455 0.990026 0
M  V30 7604 H 694.626 3.74995 1.80787 0
M  V30 7605 H 695.159 3.97606 0.124213 0
M  V30 7606 H 691.898 6.31792 -1.74697 0
M  V30 7607 H 691.418 5.99765 -0.0645968 0
M  V30 7608 H 693.097 6.45471 -0.444591 0
M  V30 7609 N 693.229 0.160201 1.56784 0
M  V30 7610 C 694.506 -0.533355 1.88188 0
M  V30 7611 C 694.886 -1.82072 1.06831 0
M  V30 7612 O 694.234 -2.27946 0.158959 0
M  V30 7613 C 694.444 -0.786034 3.40033 0
M  V30 7614 C 695.792 -1.12097 4.09536 0
M  V30 7615 O 696.816 -0.874949 3.45287 0
M  V30 7616 O 695.675 -1.58457 5.23023 0
M  V30 7617 H 692.769 -0.273589 0.780434 0
M  V30 7618 H 695.315 0.197803 1.68543 0
M  V30 7619 H 694.087 0.124515 3.91102 0
M  V30 7620 H 693.71 -1.57091 3.65251 0
M  V30 7621 N 694.707 -1.5719 -0.113559 0
M  V30 7622 C 695.955 -1.84772 -0.818761 0
M  V30 7623 C 696.276 -0.746196 -1.80158 0
M  V30 7624 O 695.546 0.229305 -1.94553 0
M  V30 7625 H 694.126 -0.681737 -0.305359 0
M  V30 7626 H 696.788 -1.94645 -0.0995845 0
M  V30 7627 H 695.884 -2.80878 -1.36067 0
M  V30 7628 N 696.185 0.383891 -1.52853 0
M  V30 7629 C 697.431 1.13009 -1.68395 0
M  V30 7630 C 697.764 1.89488 -0.425195 0
M  V30 7631 O 697.039 1.8574 0.577136 0
M  V30 7632 C 697.322 2.10419 -2.92226 0
M  V30 7633 C 697.175 1.3767 -4.28214 0
M  V30 7634 C 698.494 3.10781 -3.11614 0
M  V30 7635 H 695.613 0.409463 -0.612788 0
M  V30 7636 H 698.255 0.412895 -1.85459 0
M  V30 7637 H 696.405 2.71579 -2.77808 0
M  V30 7638 H 698.077 0.794352 -4.54409 0
M  V30 7639 H 696.32 0.678533 -4.2846 0
M  V30 7640 H 696.991 2.08874 -5.10956 0
M  V30 7641 H 699.467 2.59715 -3.25096 0
M  V30 7642 H 698.343 3.76179 -3.99725 0
M  V30 7643 H 698.604 3.79933 -2.2606 0
M  V30 7644 N 697.663 1.43903 0.642637 0
M  V30 7645 C 699.074 1.40975 1.22404 0
M  V30 7646 C 699.425 0.1192 1.95838 0
M  V30 7647 O 698.55 -0.780939 2.01818 0
M  V30 7648 C 699.145 2.5538 2.22636 0
M  V30 7649 C 697.704 2.55684 2.76229 0
M  V30 7650 C 696.851 2.32556 1.51039 0
M  V30 7651 H 699.802 1.5265 0.434006 0
M  V30 7652 H 699.823 2.27474 3.05017 0
M  V30 7653 H 699.335 3.49294 1.69161 0
M  V30 7654 H 697.436 1.65679 3.33738 0
M  V30 7655 H 697.549 3.53799 3.23053 0
M  V30 7656 H 695.913 1.81427 1.78764 0
M  V30 7657 H 696.696 3.28569 0.99484 0
M  V30 7658 N 699.141 -0.881989 1.30609 0
M  V30 7659 C 700.051 -2.02076 1.19174 0
M  V30 7660 C 701.067 -1.73645 0.11102 0
M  V30 7661 O 702.243 -1.98735 0.326528 0
M  V30 7662 C 699.308 -3.3515 0.887438 0
M  V30 7663 C 698.369 -3.76983 2.05383 0
M  V30 7664 C 697.602 -5.03707 1.76395 0
M  V30 7665 O 697.825 -5.66171 0.693302 0
M  V30 7666 O 696.759 -5.42019 2.61723 0
M  V30 7667 H 700.585 -2.14652 2.14845 0
M  V30 7668 H 698.17 -1.00843 1.10232 0
M  V30 7669 H 700.052 -4.14975 0.73306 0
M  V30 7670 H 698.727 -3.23676 -0.0393354 0
M  V30 7671 H 697.634 -2.97849 2.26355 0
M  V30 7672 H 698.967 -3.93066 2.96243 0
M  V30 7673 N 700.619 -1.13374 -1.09472 0
M  V30 7674 C 701.866 -0.89519 -1.81639 0
M  V30 7675 C 702.194 0.57868 -1.85692 0
M  V30 7676 O 701.449 1.44426 -1.32059 0
M  V30 7677 C 701.748 -1.42759 -3.2765 0
M  V30 7678 C 701.414 -2.91822 -3.43731 0
M  V30 7679 C 700.076 -3.32521 -3.47827 0
M  V30 7680 C 702.428 -3.87727 -3.48307 0
M  V30 7681 C 699.756 -4.6781 -3.54078 0
M  V30 7682 C 702.108 -5.22859 -3.56091 0
M  V30 7683 C 700.772 -5.63086 -3.58456 0
M  V30 7684 H 700.042 -0.327573 -0.664663 0
M  V30 7685 H 702.689 -1.4156 -1.28969 0
M  V30 7686 H 700.994 -0.827871 -3.82954 0
M  V30 7687 H 702.691 -1.2191 -3.8202 0
M  V30 7688 H 699.281 -2.5935 -3.41226 0
M  V30 7689 H 703.465 -3.57371 -3.44383 0
M  V30 7690 H 698.721 -4.98353 -3.54195 0
M  V30 7691 H 702.895 -5.96989 -3.58577 0
M  V30 7692 H 700.522 -6.67905 -3.63052 0
M  V30 7693 N 702.098 1.27442 -0.927168 0
M  V30 7694 C 703.008 2.30599 -0.431448 0
M  V30 7695 C 704.024 1.67028 0.48761 0
M  V30 7696 O 705.2 1.97962 0.370546 0
M  V30 7697 C 702.265 3.45327 0.308292 0
M  V30 7698 C 701.326 4.24418 -0.645615 0
M  V30 7699 C 700.559 5.33667 0.0589164 0
M  V30 7700 O 700.782 5.5589 1.27838 0
M  V30 7701 O 699.716 5.98774 -0.612638 0
M  V30 7702 H 703.542 2.75036 -1.28797 0
M  V30 7703 H 701.127 1.32382 -0.692495 0
M  V30 7704 H 703.009 4.15107 0.725555 0
M  V30 7705 H 701.684 3.02945 1.14043 0
M  V30 7706 H 700.591 3.57174 -1.11255 0
M  V30 7707 H 701.924 4.70512 -1.44496 0
M  V30 7708 N 703.576 0.692616 1.41565 0
M  V30 7709 C 704.853 0.150496 1.9502 0
M  V30 7710 C 705.233 -1.33881 1.63215 0
M  V30 7711 O 704.581 -2.08378 0.937598 0
M  V30 7712 C 704.791 0.438636 3.46233 0
M  V30 7713 C 706.139 0.364777 4.2303 0
M  V30 7714 O 707.163 0.373383 3.54238 0
M  V30 7715 O 706.022 0.32234 5.45549 0
M  V30 7716 H 703.116 0.0132454 0.826894 0
M  V30 7717 H 705.662 0.768574 1.51298 0
M  V30 7718 H 704.434 1.46962 3.62654 0
M  V30 7719 H 704.057 -0.210562 3.97042 0
M  V30 7720 N 705.054 -1.51416 0.437162 0
M  V30 7721 C 706.302 -2.01687 -0.129108 0
M  V30 7722 C 706.623 -1.32329 -1.43227 0
M  V30 7723 O 705.893 -0.457796 -1.90476 0
M  V30 7724 H 704.473 -0.745277 -0.0507023 0
M  V30 7725 H 707.135 -1.86075 0.579828 0
M  V30 7726 H 706.231 -3.10605 -0.305141 0
M  V30 7727 N 706.532 -0.168513 -1.56696 0
M  V30 7728 C 707.76 0.483503 -2.01171 0
M  V30 7729 C 708.175 1.56994 -1.04872 0
M  V30 7730 O 707.532 1.82434 -0.0491337 0
M  V30 7731 C 707.583 1.0644 -3.45475 0
M  V30 7732 O 707.304 0.0213375 -4.38095 0
M  V30 7733 C 708.805 1.79493 -4.05336 0
M  V30 7734 H 706.025 0.124002 -0.659443 0
M  V30 7735 H 708.569 -0.269419 -2.02717 0
M  V30 7736 H 706.724 1.76784 -3.44712 0
M  V30 7737 H 707.138 0.449837 -5.22567 0
M  V30 7738 H 708.612 2.15401 -5.08238 0
M  V30 7739 H 709.089 2.68889 -3.47269 0
M  V30 7740 H 709.695 1.13798 -4.09793 0
M  V30 7741 N 708.01 1.57248 0.105221 0
M  V30 7742 C 709.235 1.90143 0.828264 0
M  V30 7743 C 709.66 0.761811 1.71983 0
M  V30 7744 O 709.018 -0.287086 1.79013 0
M  V30 7745 C 709.066 3.21856 1.62608 0
M  V30 7746 O 708.17 3.08732 2.7342 0
M  V30 7747 H 707.511 0.623558 0.228192 0
M  V30 7748 H 710.041 2.0443 0.0834826 0
M  V30 7749 H 710.051 3.54916 2.01243 0
M  V30 7750 H 708.726 4.0439 0.971687 0
M  V30 7751 H 707.303 2.87167 2.37886 0
M  V30 7752 N 709.488 -0.375779 1.53054 0
M  V30 7753 C 710.398 -1.48381 1.81715 0
M  V30 7754 C 711.414 -1.59087 0.704795 0
M  V30 7755 O 712.59 -1.75174 0.993785 0
M  V30 7756 C 709.655 -2.83767 1.99192 0
M  V30 7757 C 708.716 -2.82673 3.23102 0
M  V30 7758 C 707.949 -4.11601 3.39736 0
M  V30 7759 O 708.172 -5.07243 2.60885 0
M  V30 7760 O 707.106 -4.18034 4.33049 0
M  V30 7761 H 710.932 -1.27089 2.7583 0
M  V30 7762 H 708.517 -0.564902 1.38308 0
M  V30 7763 H 710.399 -3.64004 2.12318 0
M  V30 7764 H 709.074 -3.05057 1.08267 0
M  V30 7765 H 707.981 -2.0117 3.15407 0
M  V30 7766 H 709.314 -2.66335 4.13916 0
M  V30 7767 N 710.966 -1.44241 -0.634997 0
M  V30 7768 C 711.876 -1.53293 -1.77591 0
M  V30 7769 C 712.892 -0.418831 -1.68884 0
M  V30 7770 O 714.068 -0.675619 -1.8973 0
M  V30 7771 C 711.133 -1.47075 -3.13958 0
M  V30 7772 C 710.194 -2.69304 -3.34326 0
M  V30 7773 C 709.427 -2.63374 -4.64187 0
M  V30 7774 O 709.65 -1.69161 -5.44739 0
M  V30 7775 O 708.584 -3.54166 -4.86673 0
M  V30 7776 H 712.41 -2.49673 -1.72908 0
M  V30 7777 H 709.995 -1.26445 -0.795745 0
M  V30 7778 H 711.877 -1.46117 -3.95257 0
M  V30 7779 H 710.552 -0.538373 -3.19192 0
M  V30 7780 H 709.459 -2.75831 -2.52721 0
M  V30 7781 H 710.792 -3.61576 -3.33951 0
M  V30 7782 N 712.444 0.87505 -1.31075 0
M  V30 7783 C 713.374 1.99775 -1.20881 0
M  V30 7784 C 714.355 1.69822 -0.0971612 0
M  V30 7785 O 715.54 1.92158 -0.280895 0
M  V30 7786 C 712.67 3.35163 -0.910118 0
M  V30 7787 C 711.624 3.79406 -1.98078 0
M  V30 7788 C 710.95 5.12197 -1.53488 0
M  V30 7789 C 712.25 3.97061 -3.39323 0
M  V30 7790 H 713.944 2.08562 -2.14808 0
M  V30 7791 H 711.49 1.00207 -1.03415 0
M  V30 7792 H 713.443 4.13237 -0.825423 0
M  V30 7793 H 712.167 3.26536 0.064822 0
M  V30 7794 H 710.826 3.03568 -2.05528 0
M  V30 7795 H 710.474 5.00007 -0.547941 0
M  V30 7796 H 710.174 5.4277 -2.2511 0
M  V30 7797 H 711.698 5.92785 -1.46417 0
M  V30 7798 H 713.112 4.65545 -3.34576 0
M  V30 7799 H 711.509 4.39025 -4.09118 0
M  V30 7800 H 712.579 3.00601 -3.80483 0
M  V30 7801 O 713.961 1.25897 1.01154 0
M  V30 7802 H 714.652 1.04518 1.63082 0
M  V30 END ATOM
M  V30 BEGIN BOND
M  V30 END BOND
M  V30 END CTAB
M  END
$$$$
