drugbank_target|C0H4L1 Importin-7, putative (DB11638)
 OpenBabel12092121113D

  0  0  0     0  0            999 V3000
M  V30 BEGIN CTAB
M  V30 COUNTS 20362 20550 0 0 0
M  V30 BEGIN ATOM
M  V30 1 H -0.908 1.98254 -0.117106 0
M  V30 2 N 0 1.576 0 0
M  V30 3 C 0.933 2.03868 1.02534 0
M  V30 4 C 1.911 0.928543 1.3348 0
M  V30 5 O 3.095 1.19667 1.45644 0
M  V30 6 C 0.222 2.43627 2.35294 0
M  V30 7 C -0.732 3.65373 2.2001 0
M  V30 8 S 0.101 5.13292 1.52614 0
M  V30 9 C 1.257 5.56322 2.86805 0
M  V30 10 H 1.49 2.90518 0.631377 0
M  V30 11 H -0.977 1.52953 0.210867 0
M  V30 12 H 0.981 2.67203 3.11629 0
M  V30 13 H -0.358 1.57376 2.7183 0
M  V30 14 H -1.165 3.90944 3.18086 0
M  V30 15 H -1.563 3.418 1.51819 0
M  V30 16 H 0.729 5.58782 3.83104 0
M  V30 17 H 1.672 6.56266 2.65933 0
M  V30 18 H 2.08 4.83886 2.90714 0
M  V30 19 N 1.4781 -0.272755 1.55222 0
M  V30 20 C 2.4101 -1.35946 1.8453 0
M  V30 21 C 3.4231 -1.45525 0.729818 0
M  V30 22 O 4.6121 -1.47337 1.00767 0
M  V30 23 C 1.7121 -2.74069 1.99347 0
M  V30 24 C 0.8851 -2.87079 3.30007 0
M  V30 25 C -0.0559 -4.05879 3.34886 0
M  V30 26 O -1.0299 -3.96626 4.08261 0
M  V30 27 N 0.1721 -5.17857 2.62307 0
M  V30 28 H 2.9371 -1.11149 2.78327 0
M  V30 29 H 0.4981 -0.462869 1.55142 0
M  V30 30 H 2.4901 -3.51838 1.99981 0
M  V30 31 H 1.0601 -2.91688 1.12415 0
M  V30 32 H 0.2801 -1.96193 3.41909 0
M  V30 33 H 1.5681 -2.92701 4.16177 0
M  V30 34 H 0.9661 -5.28261 2.02377 0
M  V30 35 H -0.4769 -5.93855 2.68663 0
M  V30 36 N 2.9562 -1.48159 -0.537278 0
M  V30 37 C 3.9042 -1.62573 -1.66352 0
M  V30 38 C 4.8982 -0.492366 -1.62087 0
M  V30 39 O 6.1042 -0.670847 -1.67032 0
M  V30 40 H 2.4792 -0.511992 -0.550789 0
M  V30 41 H 4.4502 -2.57176 -1.51337 0
M  V30 42 C 3.1992 -1.67583 -3.04649 0
M  V30 43 H 2.5222 -2.54151 -3.08622 0
M  V30 44 H 3.9622 -1.81713 -3.83088 0
M  V30 45 C 2.4212 -0.413039 -3.34358 0
M  V30 46 O 2.9512 0.477259 -3.98855 0
M  V30 47 N 1.1572 -0.286961 -2.8918 0
M  V30 48 H 0.7042 -1.01241 -2.36871 0
M  V30 49 H 0.6622 0.556963 -3.09427 0
M  V30 50 N 4.4343 0.785586 -1.36625 0
M  V30 51 C 5.3643 1.91259 -1.33949 0
M  V30 52 C 6.3453 1.68795 -0.210325 0
M  V30 53 O 7.5303 1.89854 -0.408561 0
M  V30 54 C 4.6603 3.28339 -1.13186 0
M  V30 55 C 3.6143 3.65335 -2.22967 0
M  V30 56 C 2.9403 5.00806 -1.87342 0
M  V30 57 C 4.2403 3.7352 -3.65075 0
M  V30 58 H 5.9343 1.93755 -2.28253 0
M  V30 59 H 3.4803 0.930788 -1.09874 0
M  V30 60 H 5.4333 4.06804 -1.09948 0
M  V30 61 H 4.1573 3.2624 -0.153332 0
M  V30 62 H 2.8163 2.89169 -2.25337 0
M  V30 63 H 2.4643 4.95233 -0.880545 0
M  V30 64 H 2.1643 5.26529 -2.60846 0
M  V30 65 H 3.6883 5.81687 -1.85667 0
M  V30 66 H 5.1023 4.42168 -3.64911 0
M  V30 67 H 3.4993 4.10731 -4.37516 0
M  V30 68 H 4.5693 2.74527 -3.99703 0
M  V30 69 N 5.9124 1.20967 1.01018 0
M  V30 70 C 6.8424 0.988272 2.11555 0
M  V30 71 C 7.8234 -0.0849778 1.69888 0
M  V30 72 O 9.0084 0.0738202 1.9406 0
M  V30 73 C 6.1384 0.546528 3.42973 0
M  V30 74 C 5.0924 1.56375 3.9841 0
M  V30 75 C 4.4184 0.97842 5.25672 0
M  V30 76 C 5.7184 2.94922 4.31066 0
M  V30 77 H 7.4124 1.91276 2.30334 0
M  V30 78 H 4.9584 0.921073 1.1069 0
M  V30 79 H 6.9114 0.378839 4.19694 0
M  V30 80 H 5.6354 -0.413598 3.23971 0
M  V30 81 H 4.2944 1.71891 3.23804 0
M  V30 82 H 3.9424 0.0101688 5.02999 0
M  V30 83 H 3.6424 1.65784 5.63728 0
M  V30 84 H 5.1664 0.821939 6.05043 0
M  V30 85 H 6.5804 2.8288 4.9865 0
M  V30 86 H 4.9774 3.5983 4.80253 0
M  V30 87 H 6.0474 3.4616 3.39561 0
M  V30 88 N 7.3905 -1.2043 1.01659 0
M  V30 89 C 8.3385 -2.25249 0.580143 0
M  V30 90 C 9.3325 -1.65057 -0.381115 0
M  V30 91 O 10.5385 -1.78241 -0.251039 0
M  V30 92 H 6.9135 -0.732695 0.169299 0
M  V30 93 H 8.8845 -2.59389 1.47512 0
M  V30 94 C 7.6335 -3.47638 -0.065788 0
M  V30 95 H 6.9565 -3.94233 0.664874 0
M  V30 96 H 8.3965 -4.2268 -0.334282 0
M  V30 97 C 6.8555 -3.10447 -1.3086 0
M  V30 98 O 7.3855 -3.21981 -2.4019 0
M  V30 99 N 5.5915 -2.64996 -1.1927 0
M  V30 100 H 5.1385 -2.55811 -0.303064 0
M  V30 101 H 5.0965 -2.40482 -2.02523 0
M  V30 102 N 8.8686 -0.792821 -1.36206 0
M  V30 103 C 10.0966 -0.378825 -2.03402 0
M  V30 104 C 10.5116 1.00586 -1.59774 0
M  V30 105 O 9.8686 1.64574 -0.788764 0
M  V30 106 C 9.9196 -0.43683 -3.58851 0
M  V30 107 O 9.6406 -1.76691 -4.00889 0
M  V30 108 C 11.1416 -0.0138943 -4.43298 0
M  V30 109 H 8.3616 -0.155673 -0.652692 0
M  V30 110 H 10.9056 -1.07261 -1.74113 0
M  V30 111 H 9.0606 0.208575 -3.86838 0
M  V30 112 H 9.4746 -1.72011 -4.95492 0
M  V30 113 H 10.9486 -0.105615 -5.51899 0
M  V30 114 H 11.4256 1.03915 -4.2673 0
M  V30 115 H 12.0316 -0.63192 -4.20579 0
M  V30 116 N 10.3467 1.47872 -0.545128 0
M  V30 117 C 11.5717 2.07391 -0.0190611 0
M  V30 118 C 11.9967 1.39688 1.25971 0
M  V30 119 O 11.3547 0.467816 1.7516 0
M  V30 120 C 11.4027 3.60188 0.172335 0
M  V30 121 O 10.5067 3.9339 1.23766 0
M  V30 122 H 9.8477 0.662411 -0.0459059 0
M  V30 123 H 12.3777 1.90066 -0.757365 0
M  V30 124 H 12.3877 4.06129 0.390305 0
M  V30 125 H 11.0627 4.08865 -0.761725 0
M  V30 126 H 9.6397 3.5921 1.00114 0
M  V30 127 N 11.8248 0.280983 1.55075 0
M  V30 128 C 12.7718 -0.603937 2.22758 0
M  V30 129 C 13.7418 -1.1452 1.20309 0
M  V30 130 O 14.9268 -1.19343 1.48869 0
M  V30 131 C 12.0668 -1.77947 2.95684 0
M  V30 132 C 11.1798 -1.2715 4.12864 0
M  V30 133 C 10.3148 -2.4093 4.7342 0
M  V30 134 C 9.3538 -1.87165 5.82783 0
M  V30 135 N 8.4908 -2.94441 6.37377 0
M  V30 136 H 13.3308 -0.020124 2.97993 0
M  V30 137 H 10.8678 0.00183425 1.471 0
M  V30 138 H 12.8258 -2.47055 3.36184 0
M  V30 139 H 11.4558 -2.33522 2.22861 0
M  V30 140 H 10.5078 -0.473331 3.77444 0
M  V30 141 H 11.8198 -0.837751 4.91715 0
M  V30 142 H 10.9738 -3.18021 5.1667 0
M  V30 143 H 9.7128 -2.87623 3.93859 0
M  V30 144 H 8.7178 -1.08556 5.38976 0
M  V30 145 H 9.9428 -1.41401 6.64216 0
M  V30 146 H 7.8888 -3.40505 5.60707 0
M  V30 147 H 7.8058 -2.55501 7.11516 0
M  V30 148 H 9.0738 -3.71489 6.85285 0
M  V30 149 N 13.3029 -1.57598 0.00835791 0
M  V30 150 C 14.2329 -2.1198 -0.979113 0
M  V30 151 C 15.2139 -1.03091 -1.35301 0
M  V30 152 O 16.3989 -1.30818 -1.43528 0
M  V30 153 C 13.5289 -2.62995 -2.26828 0
M  V30 154 C 12.4829 -3.76485 -2.03576 0
M  V30 155 C 11.8089 -4.13846 -3.38579 0
M  V30 156 C 13.1089 -5.0342 -1.39161 0
M  V30 157 H 14.8029 -2.94738 -0.526281 0
M  V30 158 H 12.3489 -1.41783 -0.251704 0
M  V30 159 H 14.3019 -2.99669 -2.96271 0
M  V30 160 H 13.0259 -1.7737 -2.7424 0
M  V30 161 H 11.6849 -3.40217 -1.36557 0
M  V30 162 H 11.3329 -3.25232 -3.83709 0
M  V30 163 H 11.0329 -4.90312 -3.23834 0
M  V30 164 H 12.5569 -4.53086 -4.09323 0
M  V30 165 H 13.9709 -5.37812 -1.98573 0
M  V30 166 H 12.3679 -5.84746 -1.34878 0
M  V30 167 H 13.4379 -4.83548 -0.361868 0
M  V30 168 N 14.781 0.264519 -1.55364 0
M  V30 169 C 16.021 1.00254 -1.78125 0
M  V30 170 C 16.385 1.83187 -0.575017 0
M  V30 171 O 17.586 2.60029 -0.681042 0
M  V30 172 C 15.857 1.85478 -3.05504 0
M  V30 173 S 17.416 2.6543 -3.49417 0
M  V30 174 H 14.234 0.337522 -0.625779 0
M  V30 175 H 16.836 0.272111 -1.93597 0
M  V30 176 H 15.54 1.23491 -3.9138 0
M  V30 177 H 15.071 2.62827 -2.92721 0
M  V30 178 H 17.086 3.87958 -3.09359 0
M  V30 179 N 16.2591 1.48442 0.529413 0
M  V30 180 C 17.1691 1.6569 1.66084 0
M  V30 181 C 18.1851 0.539432 1.65427 0
M  V30 182 O 19.3611 0.810572 1.84368 0
M  V30 183 C 16.4261 1.69315 3.02545 0
M  V30 184 C 15.4871 2.92694 3.14052 0
M  V30 185 C 14.7201 2.96137 4.44003 0
M  V30 186 O 14.9431 2.07973 5.31134 0
M  V30 187 O 13.8771 3.88312 4.59888 0
M  V30 188 H 17.7031 2.61483 1.54469 0
M  V30 189 H 15.2881 1.3185 0.702567 0
M  V30 190 H 17.1701 1.74217 3.83701 0
M  V30 191 H 15.8451 0.766966 3.14483 0
M  V30 192 H 14.7521 2.93324 2.32189 0
M  V30 193 H 16.0851 3.84699 3.0703 0
M  V30 194 N 17.7372 -0.778329 1.37039 0
M  V30 195 C 18.9832 -1.53892 1.32079 0
M  V30 196 C 19.3162 -1.9396 -0.0965386 0
M  V30 197 O 18.5912 -1.63568 -1.05242 0
M  V30 198 C 18.8742 -2.80847 2.25382 0
M  V30 199 C 18.7272 -2.47076 3.75864 0
M  V30 200 C 20.0462 -3.82741 2.1725 0
M  V30 201 H 17.1652 -0.558303 0.48111 0
M  V30 202 H 19.8072 -0.893397 1.67685 0
M  V30 203 H 17.9572 -3.35931 1.95148 0
M  V30 204 H 19.6292 -1.97957 4.16666 0
M  V30 205 H 17.8722 -1.79863 3.94755 0
M  V30 206 H 18.5432 -3.37798 4.36574 0
M  V30 207 H 21.0192 -3.37133 2.43887 0
M  V30 208 H 19.8952 -4.69303 2.84686 0
M  V30 209 H 20.1562 -4.2652 1.16331 0
M  V30 210 N 19.2153 -1.21501 -1.00376 0
M  V30 211 C 20.1453 -0.999478 -2.11028 0
M  V30 212 C 21.1263 0.0759671 -1.6993 0
M  V30 213 O 22.3113 -0.0841106 -1.94018 0
M  V30 214 C 19.4413 -0.564709 -3.42678 0
M  V30 215 C 18.3953 -1.58486 -3.97576 0
M  V30 216 C 17.7213 -1.00628 -5.25146 0
M  V30 217 C 19.0213 -2.97204 -4.29496 0
M  V30 218 H 20.7153 -1.92495 -2.29317 0
M  V30 219 H 18.2613 -0.92693 -1.102 0
M  V30 220 H 20.2143 -0.401091 -4.19487 0
M  V30 221 H 18.9383 0.396411 -3.24185 0
M  V30 222 H 17.5973 -1.73606 -3.22888 0
M  V30 223 H 17.2453 -0.0368439 -5.02987 0
M  V30 224 H 16.9453 -1.68771 -5.62841 0
M  V30 225 H 18.4693 -0.854015 -6.04598 0
M  V30 226 H 19.8833 -2.8552 -4.97143 0
M  V30 227 H 18.2803 -3.62372 -4.78338 0
M  V30 228 H 19.3503 -3.47956 -3.3772 0
M  V30 229 N 20.6934 1.19889 -1.02296 0
M  V30 230 C 21.6034 2.26571 -0.608508 0
M  V30 231 C 22.6194 1.70299 0.356964 0
M  V30 232 O 23.7954 2.00235 0.216326 0
M  V30 233 C 20.8604 3.46677 0.0402814 0
M  V30 234 C 19.9214 4.18153 -0.97194 0
M  V30 235 C 19.1544 5.32525 -0.354016 0
M  V30 236 O 19.3774 5.64112 0.844604 0
M  V30 237 O 18.3114 5.92242 -1.07391 0
M  V30 238 H 22.1374 2.64251 -1.49684 0
M  V30 239 H 19.7224 1.26629 -0.792809 0
M  V30 240 H 21.6044 4.19475 0.402324 0
M  V30 241 H 20.2794 3.10858 0.902707 0
M  V30 242 H 19.1864 3.47499 -1.38546 0
M  V30 243 H 20.5194 4.57927 -1.80454 0
M  V30 244 N 22.1715 0.800033 1.35784 0
M  V30 245 C 23.4195 0.376597 1.9856 0
M  V30 246 C 23.7405 -1.05812 1.63795 0
M  V30 247 O 23.0105 -1.73103 0.917171 0
M  V30 248 H 21.5905 0.136261 0.734467 0
M  V30 249 H 24.2525 1.02442 1.65806 0
M  V30 250 H 23.3485 0.477002 3.08433 0
M  V30 251 N 23.6496 -1.47581 0.552962 0
M  V30 252 C 24.8746 -2.07378 0.0300593 0
M  V30 253 C 25.2996 -1.40355 -1.25229 0
M  V30 254 O 24.6576 -0.477099 -1.7491 0
M  V30 255 C 24.7056 -3.60274 -0.153231 0
M  V30 256 O 23.8096 -3.94041 -1.21678 0
M  V30 257 H 23.1506 -0.662158 0.0494182 0
M  V30 258 H 25.6806 -1.89662 0.767434 0
M  V30 259 H 25.6906 -4.0633 -0.368761 0
M  V30 260 H 24.3656 -4.08455 0.783397 0
M  V30 261 H 22.9426 -3.59735 -0.982079 0
M  V30 262 N 25.1277 -0.289203 -1.54924 0
M  V30 263 C 26.3767 0.324231 -1.99077 0
M  V30 264 C 26.6897 1.5591 -1.18117 0
M  V30 265 O 27.8957 2.24637 -1.52481 0
M  V30 266 C 26.3517 0.628209 -3.54375 0
M  V30 267 C 25.9597 -0.587647 -4.44129 0
M  V30 268 C 27.7037 1.20349 -4.07083 0
M  V30 269 C 25.6107 -0.257475 -5.90839 0
M  V30 270 H 24.5407 0.124924 -0.743579 0
M  V30 271 H 27.1917 -0.396063 -1.79175 0
M  V30 272 H 25.5737 1.40778 -3.70132 0
M  V30 273 H 26.7477 -1.36418 -4.40144 0
M  V30 274 H 25.0627 -1.08074 -4.0213 0
M  V30 275 H 27.6597 1.46456 -5.14252 0
M  V30 276 H 28.0027 2.14195 -3.56968 0
M  V30 277 H 28.5357 0.485889 -3.94821 0
M  V30 278 H 25.2747 -1.16419 -6.45079 0
M  V30 279 H 24.7947 0.482018 -5.9786 0
M  V30 280 H 26.4737 0.145238 -6.46837 0
M  V30 281 N 26.6058 1.57591 -0.0167156 0
M  V30 282 C 27.8308 1.9598 0.67872 0
M  V30 283 C 28.2558 0.892546 1.65575 0
M  V30 284 O 27.6138 -0.147772 1.80697 0
M  V30 285 C 27.6618 3.33468 1.37227 0
M  V30 286 O 26.7658 3.28954 2.48722 0
M  V30 287 H 26.1068 0.639339 0.17928 0
M  V30 288 H 28.6368 2.04463 -0.0748802 0
M  V30 289 H 28.6468 3.69417 1.7319 0
M  V30 290 H 27.3218 4.10694 0.656007 0
M  V30 291 H 25.8988 3.04705 2.14963 0
M  V30 292 N 28.0839 -0.256276 1.55502 0
M  V30 293 C 29.0469 -1.30047 1.88734 0
M  V30 294 C 30.0469 -1.4154 0.763086 0
M  V30 295 O 31.2369 -1.40403 1.03115 0
M  V30 296 C 28.3689 -2.67953 2.10747 0
M  V30 297 H 29.5619 -1.01802 2.82093 0
M  V30 298 H 27.1149 -0.495134 1.4825 0
M  V30 299 H 27.8499 -3.01351 1.19825 0
M  V30 300 H 27.6349 -2.60993 2.92617 0
M  V30 301 H 29.1249 -3.43368 2.37673 0
M  V30 302 N 29.562 -1.4872 -0.521534 0
M  V30 303 C 30.787 -1.61101 -1.30618 0
M  V30 304 C 31.212 -0.274611 -1.86085 0
M  V30 305 O 30.57 0.754937 -1.64834 0
M  V30 306 C 30.618 -2.66709 -2.4269 0
M  V30 307 O 29.722 -2.24456 -3.45967 0
M  V30 308 H 29.063 -0.539921 -0.386499 0
M  V30 309 H 31.593 -1.94767 -0.626645 0
M  V30 310 H 31.603 -2.88245 -2.88754 0
M  V30 311 H 30.278 -3.63727 -2.01682 0
M  V30 312 H 28.855 -2.13168 -3.05964 0
M  V30 313 N 31.0401 0.771051 -1.3745 0
M  V30 314 C 31.9871 1.88435 -1.3327 0
M  V30 315 C 32.9571 1.64914 -0.198136 0
M  V30 316 O 34.1421 1.86821 -0.387606 0
M  V30 317 C 31.2821 3.25509 -1.14622 0
M  V30 318 C 30.3951 3.60979 -2.37314 0
M  V30 319 C 29.5301 4.87265 -2.11533 0
M  V30 320 C 28.5691 5.15469 -3.30088 0
M  V30 321 N 27.7061 6.32944 -3.03853 0
M  V30 322 H 32.5461 1.91344 -2.28455 0
M  V30 323 H 30.0831 0.935466 -1.13523 0
M  V30 324 H 32.0411 4.04582 -1.01831 0
M  V30 325 H 30.6711 3.21974 -0.230837 0
M  V30 326 H 29.7231 2.76885 -2.60842 0
M  V30 327 H 31.0351 3.77759 -3.25729 0
M  V30 328 H 30.1891 5.74244 -1.95777 0
M  V30 329 H 28.9281 4.7259 -1.20457 0
M  V30 330 H 27.9331 4.26966 -3.46382 0
M  V30 331 H 29.1581 5.32052 -4.22016 0
M  V30 332 H 27.1041 6.19625 -2.15407 0
M  V30 333 H 27.0211 6.50143 -3.85812 0
M  V30 334 H 28.2891 7.22857 -2.91716 0
M  V30 335 N 32.5182 1.22032 0.997298 0
M  V30 336 C 33.4282 1.00271 2.12092 0
M  V30 337 C 34.4442 -0.047621 1.73935 0
M  V30 338 O 35.6202 0.144136 2.00884 0
M  V30 339 C 32.6852 0.578449 3.4184 0
M  V30 340 C 31.7462 1.70189 3.94125 0
M  V30 341 C 30.9792 1.29778 5.17681 0
M  V30 342 O 31.2022 0.174676 5.70132 0
M  V30 343 O 30.1362 2.11261 5.63607 0
M  V30 344 H 33.9622 1.94398 2.3333 0
M  V30 345 H 31.5472 1.00587 1.10465 0
M  V30 346 H 33.4292 0.351998 4.19927 0
M  V30 347 H 32.1042 -0.334019 3.21972 0
M  V30 348 H 31.0112 1.98282 3.1723 0
M  V30 349 H 32.3442 2.59206 4.18417 0
M  V30 350 N 33.9963 -1.19345 1.0293 0
M  V30 351 C 34.9433 -2.2258 0.610464 0
M  V30 352 C 35.9133 -1.6179 -0.375946 0
M  V30 353 O 37.0983 -1.88844 -0.272511 0
M  V30 354 C 34.2383 -3.45085 -0.0321473 0
M  V30 355 C 33.3513 -4.20258 1.00035 0
M  V30 356 C 32.4863 -5.3019 0.32746 0
M  V30 357 C 31.5253 -5.97121 1.34584 0
M  V30 358 N 30.6623 -6.98615 0.698726 0
M  V30 359 H 35.5023 -2.57764 1.49538 0
M  V30 360 H 33.0393 -1.26644 0.748311 0
M  V30 361 H 34.9973 -4.15061 -0.421966 0
M  V30 362 H 33.6273 -3.10555 -0.88064 0
M  V30 363 H 32.6793 -3.49223 1.50823 0
M  V30 364 H 33.9913 -4.66175 1.77433 0
M  V30 365 H 33.1453 -6.06587 -0.11718 0
M  V30 366 H 31.8843 -4.85345 -0.478713 0
M  V30 367 H 30.8893 -5.19474 1.80074 0
M  V30 368 H 32.1143 -6.4405 2.15352 0
M  V30 369 H 30.0603 -6.55942 -0.0873471 0
M  V30 370 H 29.9773 -7.42724 1.41058 0
M  V30 371 H 31.2453 -7.79004 0.278102 0
M  V30 372 N 35.4744 -0.807222 -1.35358 0
M  V30 373 C 36.8904 -0.491038 -1.51858 0
M  V30 374 C 37.0904 0.987648 -1.75635 0
M  V30 375 O 36.1464 1.77265 -1.79815 0
M  V30 376 C 37.4594 -1.33695 -2.69344 0
M  V30 377 C 39.0074 -1.33246 -2.83222 0
M  V30 378 C 39.4824 -2.1625 -4.03733 0
M  V30 379 N 40.9734 -2.1379 -4.10911 0
M  V30 380 C 41.7084 -2.74772 -5.03277 0
M  V30 381 N 41.2044 -3.44684 -6.0097 0
M  V30 382 N 42.9974 -2.6441 -4.96028 0
M  V30 383 H 35.1484 -1.76485 -1.18181 0
M  V30 384 H 37.4114 -0.751199 -0.578276 0
M  V30 385 H 37.1174 -2.38634 -2.58354 0
M  V30 386 H 36.9914 -0.990618 -3.6396 0
M  V30 387 H 39.3784 -0.290911 -2.93663 0
M  V30 388 H 39.4594 -1.71866 -1.89461 0
M  V30 389 H 39.1034 -3.20445 -3.94052 0
M  V30 390 H 39.0334 -1.74989 -4.96675 0
M  V30 391 H 41.5244 -1.62923 -3.40976 0
M  V30 392 H 41.8374 -3.88501 -6.68047 0
M  V30 393 H 40.1824 -3.48788 -6.01142 0
M  V30 394 H 43.3734 -2.0938 -4.18662 0
M  V30 395 H 43.5464 -3.12225 -5.6782 0
M  V30 396 N 36.9525 1.47285 -0.560781 0
M  V30 397 C 38.2015 2.01668 -0.035895 0
M  V30 398 C 38.5145 1.44021 1.32353 0
M  V30 399 O 39.7205 1.90088 1.93853 0
M  V30 400 C 38.1765 3.59897 -0.0136659 0
M  V30 401 C 37.7845 4.26536 -1.37006 0
M  V30 402 C 39.5285 4.22017 0.458425 0
M  V30 403 C 37.4355 5.76782 -1.30675 0
M  V30 404 H 36.3655 0.753938 -0.00964879 0
M  V30 405 H 39.0165 1.69243 -0.709166 0
M  V30 406 H 37.3985 3.89301 0.725325 0
M  V30 407 H 38.5725 4.0877 -2.12705 0
M  V30 408 H 36.8875 3.76419 -1.78038 0
M  V30 409 H 39.4845 5.32124 0.524247 0
M  V30 410 H 39.8275 3.89437 1.4712 0
M  V30 411 H 40.3605 3.97159 -0.225818 0
M  V30 412 H 37.0995 6.13988 -2.29564 0
M  V30 413 H 36.6195 5.96875 -0.591622 0
M  V30 414 H 38.2985 6.39063 -1.01033 0
M  V30 415 N 38.4306 0.297415 1.54768 0
M  V30 416 C 39.3406 -0.58983 2.27064 0
M  V30 417 C 40.3566 -1.15144 1.30453 0
M  V30 418 O 41.5326 -1.17699 1.63428 0
M  V30 419 C 38.5976 -1.74714 2.9946 0
M  V30 420 C 37.6586 -1.21997 4.11601 0
M  V30 421 C 36.8916 -2.32212 4.80535 0
M  V30 422 O 37.1146 -3.52036 4.48806 0
M  V30 423 O 36.0486 -1.99106 5.68014 0
M  V30 424 H 39.8746 -0.00348199 3.037 0
M  V30 425 H 37.4596 0.0640035 1.49263 0
M  V30 426 H 39.3416 -2.42147 3.44881 0
M  V30 427 H 38.0166 -2.32016 2.25722 0
M  V30 428 H 36.9236 -0.511458 3.70587 0
M  V30 429 H 38.2566 -0.692419 4.87305 0
M  V30 430 N 39.9087 -1.5758 0.0250728 0
M  V30 431 C 41.1487 -1.93497 -0.65865 0
M  V30 432 C 41.5127 -0.901409 -1.69525 0
M  V30 433 O 42.7137 -1.14664 -2.43116 0
M  V30 434 C 40.9847 -3.34352 -1.26267 0
M  V30 435 S 42.5437 -3.92191 -1.96803 0
M  V30 436 H 39.3617 -0.67709 -0.216958 0
M  V30 437 H 41.9637 -1.95303 0.0877692 0
M  V30 438 H 40.6677 -4.07395 -0.495741 0
M  V30 439 H 40.1987 -3.3598 -2.04648 0
M  V30 440 H 42.2137 -3.75298 -3.24601 0
M  V30 441 N 41.3868 0.248026 -1.55636 0
M  V30 442 C 42.2968 1.32859 -1.93354 0
M  V30 443 C 43.3128 1.52719 -0.833838 0
M  V30 444 O 44.4888 1.66363 -1.13513 0
M  V30 445 C 41.5538 2.66337 -2.21958 0
M  V30 446 C 40.6148 2.55008 -3.45354 0
M  V30 447 C 39.8478 3.82121 -3.72584 0
M  V30 448 O 40.0708 4.83951 -3.01907 0
M  V30 449 O 39.0048 3.80822 -4.6611 0
M  V30 450 H 42.8308 1.03862 -2.85388 0
M  V30 451 H 40.4158 0.448686 -1.42503 0
M  V30 452 H 42.2978 3.45216 -2.4167 0
M  V30 453 H 40.9728 2.95068 -1.33103 0
M  V30 454 H 39.8798 1.7442 -3.30951 0
M  V30 455 H 41.2128 2.31222 -4.34508 0
M  V30 456 N 42.8649 1.48995 0.513639 0
M  V30 457 C 43.7749 1.67443 1.64317 0
M  V30 458 C 44.7909 0.556947 1.64846 0
M  V30 459 O 45.9669 0.830082 1.83498 0
M  V30 460 C 43.0319 1.72515 3.00732 0
M  V30 461 C 42.0929 2.96009 3.1093 0
M  V30 462 C 41.3259 3.00829 4.40837 0
M  V30 463 O 41.5489 2.13594 5.28898 0
M  V30 464 O 40.4829 3.93168 4.55744 0
M  V30 465 H 44.3089 2.63106 1.51687 0
M  V30 466 H 41.8939 1.32588 0.688543 0
M  V30 467 H 43.7759 1.78277 3.81831 0
M  V30 468 H 42.4509 0.800278 3.13651 0
M  V30 469 H 41.3579 2.9577 2.29065 0
M  V30 470 H 42.6909 3.87934 3.02933 0
M  V30 471 N 44.343 -0.763751 1.37857 0
M  V30 472 C 45.573 -1.55067 1.3652 0
M  V30 473 C 45.981 -1.89135 -0.0494227 0
M  V30 474 O 45.324 -1.52529 -1.02375 0
M  V30 475 C 45.386 -2.8838 2.14656 0
M  V30 476 C 45.05 -2.76905 3.63555 0
M  V30 477 C 46.047 -2.4739 4.57268 0
M  V30 478 C 43.732 -2.94676 4.06781 0
M  V30 479 C 45.726 -2.35786 5.92186 0
M  V30 480 C 43.413 -2.82692 5.41782 0
M  V30 481 C 44.411 -2.53289 6.34298 0
M  V30 482 O 44.099 -2.41345 7.66817 0
M  V30 483 H 43.831 -0.486776 0.469069 0
M  V30 484 H 46.385 -0.953812 1.81911 0
M  V30 485 H 44.615 -3.50217 1.63967 0
M  V30 486 H 46.304 -3.49828 2.05852 0
M  V30 487 H 47.07 -2.33339 4.2518 0
M  V30 488 H 42.949 -3.16563 3.35126 0
M  V30 489 H 46.493 -2.12757 6.64365 0
M  V30 490 H 42.39 -2.96314 5.7347 0
M  V30 491 H 43.158 -2.56634 7.77226 0
M  V30 492 N 45.8211 -1.22559 -0.990812 0
M  V30 493 C 46.7511 -1.0218 -2.09956 0
M  V30 494 C 47.7321 0.0579394 -1.70001 0
M  V30 495 O 48.9171 -0.104684 -1.93918 0
M  V30 496 C 46.0471 -0.601023 -3.4206 0
M  V30 497 C 45.0011 -1.62694 -3.95872 0
M  V30 498 C 44.3271 -1.06193 -5.24049 0
M  V30 499 C 45.6271 -3.01743 -4.2632 0
M  V30 500 H 47.3211 -1.94916 -2.27262 0
M  V30 501 H 44.8671 -0.938566 -1.09211 0
M  V30 502 H 46.8201 -0.445561 -4.19038 0
M  V30 503 H 45.5441 0.362005 -3.24588 0
M  V30 504 H 44.2031 -1.77021 -3.21028 0
M  V30 505 H 43.8511 -0.0901903 -5.02919 0
M  V30 506 H 43.5511 -1.74732 -5.61019 0
M  V30 507 H 45.0751 -0.918092 -6.03658 0
M  V30 508 H 46.4891 -2.90777 -4.94087 0
M  V30 509 H 44.8861 -3.67425 -4.74467 0
M  V30 510 H 45.9561 -3.51518 -3.34011 0
M  V30 511 N 47.2992 1.18797 -1.03562 0
M  V30 512 C 48.2462 2.22253 -0.622259 0
M  V30 513 C 49.2162 1.61987 0.36736 0
M  V30 514 O 50.4012 1.88986 0.262492 0
M  V30 515 C 47.5412 3.45097 0.0138462 0
M  V30 516 C 46.6542 4.19722 -1.02263 0
M  V30 517 C 45.7892 5.30009 -0.355573 0
M  V30 518 C 44.8282 5.96399 -1.37749 0
M  V30 519 N 43.9652 6.98234 -0.735766 0
M  V30 520 H 48.8052 2.56968 -1.50903 0
M  V30 521 H 46.3422 1.26245 -0.755017 0
M  V30 522 H 48.3002 4.15279 0.399948 0
M  V30 523 H 46.9302 3.11018 0.864158 0
M  V30 524 H 45.9822 3.48418 -1.52673 0
M  V30 525 H 47.2942 4.65227 -1.79903 0
M  V30 526 H 46.4482 6.0664 0.0850095 0
M  V30 527 H 45.1872 4.85592 0.452967 0
M  V30 528 H 44.1922 5.18512 -1.82826 0
M  V30 529 H 45.4172 6.42899 -2.18764 0
M  V30 530 H 43.3632 6.55979 0.0525597 0
M  V30 531 H 43.2802 7.41965 -1.44995 0
M  V30 532 H 44.5482 7.78845 -0.31941 0
M  V30 533 N 48.7773 0.814389 1.34928 0
M  V30 534 C 49.7093 0.187834 2.28429 0
M  V30 535 C 50.7223 -0.617374 1.5064 0
M  V30 536 O 51.9113 -0.448454 1.72775 0
M  V30 537 C 49.0113 -0.755962 3.30361 0
M  V30 538 C 48.1843 0.00456686 4.374 0
M  V30 539 C 47.2433 -0.858876 5.19143 0
M  V30 540 O 46.2693 -0.306968 5.68372 0
M  V30 541 N 47.4713 -2.17988 5.38016 0
M  V30 542 H 50.2363 0.991105 2.82838 0
M  V30 543 H 47.7973 0.670561 1.4736 0
M  V30 544 H 49.7893 -1.338 3.81942 0
M  V30 545 H 48.3593 -1.46001 2.7641 0
M  V30 546 H 47.5793 0.767865 3.86649 0
M  V30 547 H 48.8673 0.528422 5.06049 0
M  V30 548 H 48.2653 -2.65212 4.99679 0
M  V30 549 H 46.8223 -2.71098 5.92747 0
M  V30 550 N 50.2554 -1.46986 0.568584 0
M  V30 551 C 51.5044 -2.01646 0.0465894 0
M  V30 552 C 51.8174 -1.44721 -1.31587 0
M  V30 553 O 53.0234 -1.91113 -1.92842 0
M  V30 554 C 51.4794 -3.59885 0.032752 0
M  V30 555 C 51.0874 -4.25804 1.39266 0
M  V30 556 C 52.8314 -4.22255 -0.436038 0
M  V30 557 C 50.7384 -5.76081 1.33732 0
M  V30 558 H 49.6684 -0.753876 0.013647 0
M  V30 559 H 52.3194 -1.68864 0.718131 0
M  V30 560 H 50.7014 -3.8968 -0.704669 0
M  V30 561 H 51.8754 -4.07637 2.1487 0
M  V30 562 H 50.1904 -3.7547 1.80032 0
M  V30 563 H 52.7874 -5.32394 -0.49602 0
M  V30 564 H 53.1304 -3.90212 -1.45053 0
M  V30 565 H 53.6634 -3.97033 0.246877 0
M  V30 566 H 50.4024 -6.12761 2.32817 0
M  V30 567 H 49.9224 -5.96553 0.623267 0
M  V30 568 H 51.6014 -6.38518 1.0442 0
M  V30 569 N 51.7335 -0.305618 -1.54608 0
M  V30 570 C 52.9615 0.304775 -2.04643 0
M  V30 571 C 53.3765 1.47167 -1.18268 0
M  V30 572 O 52.7335 1.81296 -0.209328 0
M  V30 573 C 52.7845 0.756564 -3.53495 0
M  V30 574 O 52.5055 -0.36389 -4.36586 0
M  V30 575 C 54.0065 1.43163 -4.19546 0
M  V30 576 H 51.2265 0.0655481 -0.667791 0
M  V30 577 H 53.7705 -0.446592 -1.99564 0
M  V30 578 H 51.9255 1.45794 -3.58919 0
M  V30 579 H 52.3395 -0.0113121 -5.24499 0
M  V30 580 H 53.8135 1.69886 -5.25207 0
M  V30 581 H 54.2905 2.37318 -3.69563 0
M  V30 582 H 54.8965 0.773307 -4.18211 0
M  V30 583 N 53.2116 1.57565 -0.0334293 0
M  V30 584 C 54.1586 2.10478 0.946981 0
M  V30 585 C 55.1286 1.00787 1.32027 0
M  V30 586 O 56.3136 1.28232 1.41284 0
M  V30 587 C 53.4536 2.63994 2.22263 0
M  V30 588 C 52.5666 3.87709 1.90541 0
M  V30 589 C 51.7016 4.29604 3.12433 0
M  V30 590 C 50.7406 5.46065 2.76549 0
M  V30 591 N 49.8776 5.83096 3.9108 0
M  V30 592 H 54.7176 2.93963 0.488846 0
M  V30 593 H 52.2546 1.45296 0.22969 0
M  V30 594 H 54.2126 2.93114 2.96884 0
M  V30 595 H 52.8426 1.83333 2.65685 0
M  V30 596 H 51.8946 3.65291 1.06144 0
M  V30 597 H 53.2066 4.72403 1.60116 0
M  V30 598 H 52.3606 4.60182 3.9537 0
M  V30 599 H 51.0996 3.43685 3.46023 0
M  V30 600 H 50.1046 5.15176 1.92026 0
M  V30 601 H 51.3296 6.33685 2.44171 0
M  V30 602 H 49.2756 5.00132 4.24504 0
M  V30 603 H 49.1926 6.6244 3.64293 0
M  V30 604 H 50.4606 6.18282 4.74708 0
M  V30 605 N 54.6897 -0.239769 1.55765 0
M  V30 606 C 55.9357 -0.968234 1.78194 0
M  V30 607 C 56.2687 -1.84701 0.599938 0
M  V30 608 O 55.5437 -1.9031 -0.401524 0
M  V30 609 C 55.8267 -1.8227 3.10564 0
M  V30 610 C 55.6797 -0.971633 4.3918 0
M  V30 611 C 56.9987 -2.80388 3.39221 0
M  V30 612 H 54.1177 -0.350572 0.648281 0
M  V30 613 H 56.7597 -0.238259 1.885 0
M  V30 614 H 54.9097 -2.44507 3.01908 0
M  V30 615 H 56.5817 -0.367408 4.59835 0
M  V30 616 H 54.8247 -0.276276 4.32919 0
M  V30 617 H 55.4957 -1.60346 5.28198 0
M  V30 618 H 57.9717 -2.28287 3.47885 0
M  V30 619 H 56.8477 -3.3729 4.33044 0
M  V30 620 H 57.1087 -3.57212 2.60484 0
M  V30 621 N 56.1678 -1.49265 -0.50573 0
M  V30 622 C 57.4448 -1.49012 -1.26707 0
M  V30 623 C 57.8248 -0.215205 -2.1 0
M  V30 624 O 57.1728 0.802547 -2.13943 0
M  V30 625 C 57.3828 -2.7663 -2.12783 0
M  V30 626 C 58.7308 -3.25932 -2.72127 0
M  V30 627 O 59.7548 -2.77715 -2.23054 0
M  V30 628 O 58.6138 -4.09897 -3.61451 0
M  V30 629 H 55.7078 -0.596197 -0.57313 0
M  V30 630 H 58.2538 -1.61524 -0.52039 0
M  V30 631 H 57.0258 -3.60916 -1.5118 0
M  V30 632 H 56.6488 -2.66956 -2.94653 0
M  V30 633 N 57.6459 0.756429 -1.3826 0
M  V30 634 C 58.8939 1.51248 -1.34047 0
M  V30 635 C 59.2149 1.94875 0.0698372 0
M  V30 636 O 58.4849 1.67436 1.01696 0
M  V30 637 H 57.0649 0.561018 -0.493222 0
M  V30 638 H 59.7269 0.899347 -1.7291 0
M  V30 639 H 58.8229 2.40472 -1.98947 0
M  V30 640 N 59.124 1.23083 0.984299 0
M  V30 641 C 60.354 1.08556 1.75781 0
M  V30 642 C 60.762 -0.366171 1.85623 0
M  V30 643 O 60.105 -1.26524 1.33182 0
M  V30 644 C 60.167 1.63208 3.20318 0
M  V30 645 C 59.831 3.11922 3.33997 0
M  V30 646 C 60.828 4.09259 3.2063 0
M  V30 647 C 58.513 3.51552 3.58771 0
M  V30 648 C 60.507 5.4421 3.31835 0
M  V30 649 C 58.194 4.86649 3.69616 0
M  V30 650 C 59.192 5.82787 3.56157 0
M  V30 651 O 58.88 7.15431 3.66626 0
M  V30 652 H 58.612 0.380713 0.5586 0
M  V30 653 H 61.166 1.63321 1.2456 0
M  V30 654 H 59.396 1.0286 3.72769 0
M  V30 655 H 61.085 1.44216 3.79416 0
M  V30 656 H 61.851 3.79984 3.01392 0
M  V30 657 H 57.73 2.77239 3.6832 0
M  V30 658 H 61.274 6.1923 3.21247 0
M  V30 659 H 57.171 5.15601 3.88363 0
M  V30 660 H 57.939 7.23127 3.83445 0
M  V30 661 N 60.6021 -1.18246 1.0419 0
M  V30 662 C 61.5351 -2.20746 0.578474 0
M  V30 663 C 62.5131 -1.57912 -0.387624 0
M  V30 664 O 63.6971 -1.86071 -0.301634 0
M  V30 665 C 60.8241 -3.38346 -0.154762 0
M  V30 666 C 59.8701 -4.19587 0.764782 0
M  V30 667 S 60.7031 -4.86014 2.24835 0
M  V30 668 C 61.8591 -6.07012 1.526 0
M  V30 669 H 62.0921 -2.59715 1.44691 0
M  V30 670 H 59.6251 -1.287 0.85297 0
M  V30 671 H 61.5831 -4.065 -0.571641 0
M  V30 672 H 60.2441 -2.97786 -0.999105 0
M  V30 673 H 59.4371 -5.03611 0.197976 0
M  V30 674 H 59.0391 -3.56818 1.12057 0
M  V30 675 H 61.3311 -6.72523 0.819733 0
M  V30 676 H 62.2741 -6.68202 2.34333 0
M  V30 677 H 62.6821 -5.55249 1.01779 0
M  V30 678 N 62.0802 -0.821533 -1.34494 0
M  V30 679 C 63.0282 -0.230702 -2.31453 0
M  V30 680 C 64.0222 0.627793 -1.57338 0
M  V30 681 O 65.2282 0.519288 -1.72347 0
M  V30 682 H 61.6032 -0.0558577 -0.749923 0
M  V30 683 H 63.5742 -1.06332 -2.78812 0
M  V30 684 C 62.3232 0.59391 -3.4259 0
M  V30 685 H 61.6462 -0.0573588 -3.99759 0
M  V30 686 H 63.0862 0.973446 -4.12674 0
M  V30 687 C 61.5452 1.76568 -2.86924 0
M  V30 688 O 62.0752 2.8638 -2.81691 0
M  V30 689 N 60.2812 1.58198 -2.43766 0
M  V30 690 H 59.8282 0.68872 -2.48222 0
M  V30 691 H 59.7862 2.36752 -2.06871 0
M  V30 692 N 63.5583 1.46682 -0.576371 0
M  V30 693 C 64.8043 2.02712 -0.0596221 0
M  V30 694 C 65.1373 1.44765 1.29448 0
M  V30 695 O 64.4123 0.610355 1.84675 0
M  V30 696 C 64.6953 3.60098 0.0129503 0
M  V30 697 C 64.5483 4.28441 -1.3696 0
M  V30 698 C 65.8673 4.34224 0.71678 0
M  V30 699 H 62.9863 0.736637 -0.0231407 0
M  V30 700 H 65.6283 1.74898 -0.742351 0
M  V30 701 H 63.7783 3.83926 0.594378 0
M  V30 702 H 65.4503 4.15896 -1.9957 0
M  V30 703 H 63.6933 3.8805 -1.93907 0
M  V30 704 H 64.3643 5.3716 -1.27135 0
M  V30 705 H 66.8403 4.15503 0.222908 0
M  V30 706 H 65.7163 5.43936 0.73657 0
M  V30 707 H 65.9773 4.04823 1.77682 0
M  V30 708 N 65.0364 0.313813 1.54444 0
M  V30 709 C 66.2854 -0.292519 1.99568 0
M  V30 710 C 66.5984 -1.54011 1.20582 0
M  V30 711 O 67.8044 -2.22183 1.56035 0
M  V30 712 C 66.2604 -0.571752 3.55329 0
M  V30 713 C 65.8684 0.658229 4.43138 0
M  V30 714 C 67.6124 -1.13857 4.08946 0
M  V30 715 C 65.5194 0.351439 5.90355 0
M  V30 716 H 64.4494 -0.113079 0.745472 0
M  V30 717 H 67.1004 0.424518 1.78522 0
M  V30 718 H 65.4824 -1.34872 3.72325 0
M  V30 719 H 66.6564 1.43403 4.37918 0
M  V30 720 H 64.9714 1.14458 4.0036 0
M  V30 721 H 67.5684 -1.38257 5.16516 0
M  V30 722 H 67.9114 -2.08489 3.6033 0
M  V30 723 H 68.4444 -0.423015 3.95544 0
M  V30 724 H 65.1834 1.26667 6.43145 0
M  V30 725 H 64.7034 -0.386842 5.98551 0
M  V30 726 H 66.3824 -0.0423134 6.46986 0
M  V30 727 N 66.5145 -1.57545 0.0417849 0
M  V30 728 C 67.4445 -2.14009 -0.933929 0
M  V30 729 C 68.4255 -1.05938 -1.33083 0
M  V30 730 O 69.6105 -1.33833 -1.40721 0
M  V30 731 C 66.7405 -2.67747 -2.21199 0
M  V30 732 C 65.6945 -3.80718 -1.95544 0
M  V30 733 C 65.0205 -4.20935 -3.29724 0
M  V30 734 C 66.3205 -5.06258 -1.28452 0
M  V30 735 H 68.0145 -2.95788 -0.463645 0
M  V30 736 H 65.5605 -1.42285 -0.221573 0
M  V30 737 H 67.5135 -3.05886 -2.89848 0
M  V30 738 H 66.2375 -1.83147 -2.70416 0
M  V30 739 H 64.8965 -3.43037 -1.2931 0
M  V30 740 H 64.5445 -3.33298 -3.76724 0
M  V30 741 H 64.2445 -4.9707 -3.13361 0
M  V30 742 H 65.7685 -4.61666 -3.9962 0
M  V30 743 H 67.1825 -5.41903 -1.8712 0
M  V30 744 H 65.5795 -5.87475 -1.22445 0
M  V30 745 H 66.6495 -4.84207 -0.259219 0
M  V30 746 N 67.9926 0.231505 -1.5589 0
M  V30 747 C 68.9406 1.30649 -1.92441 0
M  V30 748 C 69.9346 1.49037 -0.805254 0
M  V30 749 O 71.1406 1.50329 -0.990007 0
M  V30 750 H 67.5156 0.437812 -0.611412 0
M  V30 751 H 69.4866 0.970973 -2.82161 0
M  V30 752 C 68.2356 2.65179 -2.24889 0
M  V30 753 H 67.5586 2.51835 -3.10514 0
M  V30 754 H 68.9986 3.39234 -2.54355 0
M  V30 755 C 67.4576 3.19439 -1.07054 0
M  V30 756 O 67.9876 4.00371 -0.326499 0
M  V30 757 N 66.1936 2.77675 -0.85703 0
M  V30 758 H 65.7406 2.11969 -1.46379 0
M  V30 759 H 65.6986 3.14321 -0.0703223 0
M  V30 760 N 69.4707 1.49531 0.497807 0
M  V30 761 C 70.7197 1.58426 1.24837 0
M  V30 762 C 71.0327 0.277643 1.93619 0
M  V30 763 O 72.2387 0.24517 2.70391 0
M  V30 764 C 70.6947 2.79538 2.26686 0
M  V30 765 C 70.3027 4.16971 1.63828 0
M  V30 766 C 72.0467 2.97764 3.0255 0
M  V30 767 C 69.9537 5.29301 2.63807 0
M  V30 768 H 68.8837 0.58989 0.469623 0
M  V30 769 H 71.5347 1.75923 0.521857 0
M  V30 770 H 69.9167 2.55542 3.02514 0
M  V30 771 H 71.0907 4.51116 0.939711 0
M  V30 772 H 69.4057 4.04129 1.00342 0
M  V30 773 H 72.0027 3.78856 3.77323 0
M  V30 774 H 72.3457 2.08448 3.60354 0
M  V30 775 H 72.8787 3.21815 2.33838 0
M  V30 776 H 69.6177 6.20687 2.10779 0
M  V30 777 H 69.1377 4.99606 3.31894 0
M  V30 778 H 70.8167 5.58768 3.2617 0
M  V30 779 N 70.9488 -0.749086 1.3866 0
M  V30 780 C 72.1948 -1.51056 1.35314 0
M  V30 781 C 72.5278 -1.94121 -0.0553751 0
M  V30 782 O 71.8028 -1.65763 -1.01749 0
M  V30 783 C 72.0858 -2.76003 2.31288 0
M  V30 784 C 71.9388 -2.39047 3.8102 0
M  V30 785 C 73.2578 -3.78046 2.2532 0
M  V30 786 H 70.3768 -0.547972 0.492844 0
M  V30 787 H 73.0188 -0.857628 1.69543 0
M  V30 788 H 71.1688 -3.31716 2.02229 0
M  V30 789 H 72.8408 -1.89074 4.20771 0
M  V30 790 H 71.0838 -1.71449 3.98482 0
M  V30 791 H 71.7548 -3.28462 4.4364 0
M  V30 792 H 74.2308 -3.31884 2.50983 0
M  V30 793 H 73.1068 -4.63159 2.94576 0
M  V30 794 H 73.3678 -4.23957 1.25352 0
M  V30 795 N 72.4269 -1.23603 -0.977757 0
M  V30 796 C 73.3739 -1.01954 -2.07061 0
M  V30 797 C 74.3439 0.0638697 -1.65977 0
M  V30 798 O 75.5289 -0.0887624 -1.90593 0
M  V30 799 C 72.6689 -0.619658 -3.39491 0
M  V30 800 C 71.7819 -1.77547 -3.93829 0
M  V30 801 C 70.9169 -1.32212 -5.14484 0
M  V30 802 C 69.9559 -2.44852 -5.60994 0
M  V30 803 N 69.0929 -2.00456 -6.72876 0
M  V30 804 H 73.9329 -1.95495 -2.24913 0
M  V30 805 H 71.4699 -0.973861 -1.10247 0
M  V30 806 H 73.4279 -0.368898 -4.15566 0
M  V30 807 H 72.0579 0.278752 -3.21594 0
M  V30 808 H 71.1099 -2.14016 -3.14486 0
M  V30 809 H 72.4219 -2.62219 -4.24314 0
M  V30 810 H 71.5759 -1.02965 -5.97899 0
M  V30 811 H 70.3149 -0.445808 -4.85658 0
M  V30 812 H 69.3199 -2.74871 -4.76157 0
M  V30 813 H 70.5449 -3.33024 -5.91837 0
M  V30 814 H 68.4909 -1.15208 -6.45804 0
M  V30 815 H 68.4079 -2.78687 -7.02759 0
M  V30 816 H 69.6759 -1.7432 -7.59758 0
M  V30 817 N 73.905 1.17692 -1.04816 0
M  V30 818 C 75.13 1.92327 -0.776207 0
M  V30 819 C 75.555 1.76082 0.661581 0
M  V30 820 O 74.913 1.076 1.45917 0
M  V30 821 C 74.961 3.41539 -1.15687 0
M  V30 822 O 74.065 4.11402 -0.286775 0
M  V30 823 H 73.406 0.599735 -0.284981 0
M  V30 824 H 75.936 1.49201 -1.4 0
M  V30 825 H 75.946 3.92269 -1.12202 0
M  V30 826 H 74.621 3.52684 -2.20425 0
M  V30 827 H 73.198 3.70939 -0.381903 0
M  V30 828 N 75.3831 0.828654 1.34056 0
M  V30 829 C 76.6321 0.415828 1.97367 0
M  V30 830 C 76.9451 -1.02796 1.6641 0
M  V30 831 O 78.1511 -1.54497 2.23255 0
M  V30 832 C 76.6071 0.692601 3.53173 0
M  V30 833 C 76.2151 2.15038 3.93017 0
M  V30 834 C 77.9591 0.346222 4.23086 0
M  V30 835 C 75.8661 2.37174 5.41758 0
M  V30 836 H 74.7961 0.151755 0.738571 0
M  V30 837 H 77.4471 1.01581 1.52819 0
M  V30 838 H 75.8291 0.0223764 3.95994 0
M  V30 839 H 77.0031 2.86024 3.61285 0
M  V30 840 H 75.3181 2.45875 3.36057 0
M  V30 841 H 77.9151 0.48937 5.32456 0
M  V30 842 H 78.2581 -0.709842 4.10204 0
M  V30 843 H 78.7911 0.971258 3.85761 0
M  V30 844 H 75.5301 3.41308 5.59633 0
M  V30 845 H 75.0501 1.70738 5.74986 0
M  V30 846 H 76.7291 2.19818 6.08514 0
M  V30 847 N 76.8612 -1.46375 0.584142 0
M  V30 848 C 77.8092 -2.32042 -0.161047 0
M  V30 849 C 78.8032 -1.44569 -0.882966 0
M  V30 850 O 80.0092 -1.61186 -0.801191 0
M  V30 851 H 76.3842 -0.748659 -0.0708033 0
M  V30 852 H 78.3552 -2.92704 0.580269 0
M  V30 853 C 77.1042 -3.27762 -1.1605 0
M  V30 854 H 76.4272 -3.95051 -0.614419 0
M  V30 855 H 77.8672 -3.90481 -1.65228 0
M  V30 856 C 76.3262 -2.53218 -2.22221 0
M  V30 857 O 76.8562 -2.29628 -3.29597 0
M  V30 858 N 75.0622 -2.13756 -1.96868 0
M  V30 859 H 74.6092 -2.33142 -1.09557 0
M  V30 860 H 74.5672 -1.642 -2.68115 0
M  V30 861 N 78.3393 -0.321999 -1.54275 0
M  V30 862 C 79.5853 0.281461 -2.00837 0
M  V30 863 C 79.9183 1.51909 -1.20985 0
M  V30 864 O 79.1933 1.923 -0.291733 0
M  V30 865 C 79.4763 0.617162 -3.54772 0
M  V30 866 C 79.3293 -0.631064 -4.45351 0
M  V30 867 C 80.6483 1.43542 -4.16033 0
M  V30 868 H 77.7673 0.100826 -0.730071 0
M  V30 869 H 80.4093 -0.438268 -1.84876 0
M  V30 870 H 78.5593 1.23034 -3.68504 0
M  V30 871 H 80.2313 -1.26934 -4.43492 0
M  V30 872 H 78.4743 -1.26025 -4.15091 0
M  V30 873 H 79.1453 -0.351735 -5.50878 0
M  V30 874 H 81.6213 0.917134 -4.05867 0
M  V30 875 H 80.4973 1.63907 -5.23856 0
M  V30 876 H 80.7583 2.43108 -3.69257 0
M  V30 877 N 79.8174 1.5752 -0.0501392 0
M  V30 878 C 81.0634 1.92936 0.624798 0
M  V30 879 C 81.3964 0.928685 1.70555 0
M  V30 880 O 80.6714 -0.0454779 1.94447 0
M  V30 881 C 80.9544 3.38737 1.22185 0
M  V30 882 C 80.8074 4.49552 0.149218 0
M  V30 883 C 82.1264 3.84913 2.13378 0
M  V30 884 H 79.2454 0.701604 0.225657 0
M  V30 885 H 81.8874 1.89671 -0.111693 0
M  V30 886 H 80.0374 3.4165 1.84953 0
M  V30 887 H 81.7094 4.58768 -0.482648 0
M  V30 888 H 79.9524 4.30638 -0.522841 0
M  V30 889 H 80.6234 5.48653 0.606966 0
M  V30 890 H 83.0994 3.8387 1.60572 0
M  V30 891 H 81.9754 4.87584 2.52097 0
M  V30 892 H 82.2364 3.21611 3.03346 0
M  V30 893 N 81.2955 -0.223234 1.56011 0
M  V30 894 C 82.5725 -0.972108 1.69733 0
M  V30 895 C 82.9525 -2.02485 0.59691 0
M  V30 896 O 82.3005 -2.25037 -0.396324 0
M  V30 897 C 82.5105 -1.58407 3.10979 0
M  V30 898 C 83.8585 -2.07696 3.70334 0
M  V30 899 O 84.8825 -1.68304 3.1393 0
M  V30 900 O 83.7415 -2.80096 4.69264 0
M  V30 901 H 80.8355 -0.453993 0.691245 0
M  V30 902 H 83.3815 -0.215149 1.68331 0
M  V30 903 H 82.1535 -0.823831 3.82529 0
M  V30 904 H 81.7765 -2.40661 3.16493 0
M  V30 905 N 82.7736 -1.49793 -0.48987 0
M  V30 906 C 84.0506 -1.50348 -1.25119 0
M  V30 907 C 84.4306 -0.237466 -2.0976 0
M  V30 908 O 83.7786 0.77981 -2.14782 0
M  V30 909 C 83.9886 -2.78872 -2.09837 0
M  V30 910 C 85.3366 -3.288 -2.68655 0
M  V30 911 O 86.3606 -2.80065 -2.20096 0
M  V30 912 O 85.2196 -4.13707 -3.57083 0
M  V30 913 H 82.3136 -0.602242 -0.566775 0
M  V30 914 H 84.8596 -1.62067 -0.503229 0
M  V30 915 H 83.6316 -3.62499 -1.47343 0
M  V30 916 H 83.2546 -2.70066 -2.91805 0
M  V30 917 N 84.2517 0.741722 -1.39055 0
M  V30 918 C 85.1997 1.87702 -1.3737 0
M  V30 919 C 86.1937 1.67427 -0.257812 0
M  V30 920 O 87.3997 1.7485 -0.427489 0
M  V30 921 H 83.7747 0.617757 -0.428812 0
M  V30 922 H 85.7457 1.86239 -2.33147 0
M  V30 923 C 84.4947 3.25315 -1.22741 0
M  V30 924 H 83.8177 3.41509 -2.07873 0
M  V30 925 H 85.2577 4.04964 -1.25618 0
M  V30 926 C 83.7167 3.36838 0.0647316 0
M  V30 927 O 84.2467 3.88073 1.03741 0
M  V30 928 N 82.4527 2.90329 0.125544 0
M  V30 929 H 81.9997 2.48823 -0.666682 0
M  V30 930 H 81.9577 2.98418 0.989639 0
M  V30 931 N 85.7298 1.2412 0.971189 0
M  V30 932 C 86.9788 1.07284 1.70801 0
M  V30 933 C 87.2918 -0.388902 1.91695 0
M  V30 934 O 88.4978 -0.677379 2.62914 0
M  V30 935 C 86.9538 1.87145 3.07416 0
M  V30 936 C 86.5618 3.37707 2.94377 0
M  V30 937 C 88.3058 1.78828 3.84995 0
M  V30 938 C 86.2128 4.09925 4.26281 0
M  V30 939 H 85.1428 0.397854 0.64049 0
M  V30 940 H 87.7938 1.4817 1.0825 0
M  V30 941 H 86.1758 1.39071 3.70777 0
M  V30 942 H 87.3498 3.93335 2.4005 0
M  V30 943 H 85.6648 3.46938 2.30267 0
M  V30 944 H 88.2618 2.30089 4.82662 0
M  V30 945 H 88.6048 0.75284 4.09436 0
M  V30 946 H 89.1378 2.24563 3.28354 0
M  V30 947 H 85.8768 5.13813 4.07033 0
M  V30 948 H 85.3968 3.59083 4.80437 0
M  V30 949 H 87.0758 4.1673 4.94919 0
M  V30 950 N 87.2079 -1.17134 1.05439 0
M  V30 951 C 88.6239 -1.39454 0.776201 0
M  V30 952 C 88.8239 -1.91454 -0.628307 0
M  V30 953 O 87.8799 -2.10777 -1.39031 0
M  V30 954 C 89.1929 -2.38305 1.83388 0
M  V30 955 C 90.7409 -2.52006 1.85639 0
M  V30 956 C 91.2159 -3.54133 2.90437 0
M  V30 957 N 92.7069 -3.61653 2.89415 0
M  V30 958 C 93.4419 -4.4044 3.67152 0
M  V30 959 N 92.9379 -5.22721 4.54681 0
M  V30 960 N 94.7309 -4.35337 3.55581 0
M  V30 961 H 86.8819 -0.817134 1.96053 0
M  V30 962 H 89.1449 -0.421626 0.849079 0
M  V30 963 H 88.8509 -2.07173 2.84204 0
M  V30 964 H 88.7249 -3.37841 1.67761 0
M  V30 965 H 91.1119 -2.82447 0.85486 0
M  V30 966 H 91.1929 -1.52537 2.05344 0
M  V30 967 H 90.8369 -3.24431 3.90777 0
M  V30 968 H 90.7669 -4.53313 2.67983 0
M  V30 969 H 93.2579 -3.02909 2.25952 0
M  V30 970 H 93.5709 -5.80027 5.10674 0
M  V30 971 H 91.9159 -5.22093 4.58741 0
M  V30 972 H 95.1069 -3.70112 2.86592 0
M  V30 973 H 95.2799 -4.96494 4.1641 0
M  V30 974 N 88.686 -0.835752 -1.33615 0
M  V30 975 C 89.935 -0.426289 -1.97144 0
M  V30 976 C 90.248 1.01912 -1.66953 0
M  V30 977 O 91.454 1.53311 -2.24072 0
M  V30 978 C 89.91 -0.711321 -3.52801 0
M  V30 979 C 89.518 -2.1712 -3.91871 0
M  V30 980 C 91.262 -0.368654 -4.22896 0
M  V30 981 C 89.169 -2.40044 -5.40493 0
M  V30 982 H 88.099 -0.15567 -0.737755 0
M  V30 983 H 90.75 -1.0239 -1.52278 0
M  V30 984 H 89.132 -0.0433766 -3.95976 0
M  V30 985 H 90.306 -2.87936 -3.59763 0
M  V30 986 H 88.621 -2.47654 -3.34749 0
M  V30 987 H 91.218 -0.517601 -5.32189 0
M  V30 988 H 91.561 0.688078 -4.10574 0
M  V30 989 H 92.094 -0.991702 -3.8524 0
M  V30 990 H 88.833 -3.44271 -5.57815 0
M  V30 991 H 88.353 -1.73785 -5.74072 0
M  V30 992 H 90.032 -2.23042 -6.0734 0
M  V30 993 N 90.1641 1.46063 -0.591896 0
M  V30 994 C 91.3891 2.07226 -0.0850314 0
M  V30 995 C 91.8141 1.43625 1.21463 0
M  V30 996 O 91.1721 0.523305 1.73583 0
M  V30 997 C 91.2201 3.60554 0.0576567 0
M  V30 998 O 90.3241 3.97128 1.11188 0
M  V30 999 H 89.6651 0.660615 -0.0669568 0
M  V30 1000 H 92.1951 1.8756 -0.81745 0
M  V30 1001 H 92.2051 4.07165 0.2609 0
M  V30 1002 H 90.8801 4.06235 -0.891416 0
M  V30 1003 H 89.4571 3.62213 0.886356 0
M  V30 1004 N 91.6422 0.330177 1.54103 0
M  V30 1005 C 92.6052 -0.520144 2.2322 0
M  V30 1006 C 93.6052 -1.03828 1.22786 0
M  V30 1007 O 94.7952 -0.929652 1.4732 0
M  V30 1008 C 91.9272 -1.72317 2.94142 0
M  V30 1009 H 93.1202 0.0841605 2.99782 0
M  V30 1010 H 90.6732 0.0813433 1.56088 0
M  V30 1011 H 91.4082 -2.36653 2.21734 0
M  V30 1012 H 91.1932 -1.35898 3.67796 0
M  V30 1013 H 92.6832 -2.3266 3.46784 0
M  V30 1014 N 93.1203 -1.57491 0.0584922 0
M  V30 1015 C 94.3453 -1.97711 -0.62652 0
M  V30 1016 C 94.7703 -0.936132 -1.63151 0
M  V30 1017 O 94.1283 0.099811 -1.81025 0
M  V30 1018 C 94.1763 -3.36989 -1.28338 0
M  V30 1019 O 93.2803 -3.35433 -2.39913 0
M  V30 1020 H 92.6213 -0.643868 -0.162266 0
M  V30 1021 H 95.1513 -2.04193 0.129064 0
M  V30 1022 H 95.1613 -3.73879 -1.63335 0
M  V30 1023 H 93.8363 -4.12289 -0.546889 0
M  V30 1024 H 92.4133 -3.10298 -2.06809 0
M  V30 1025 N 94.5984 0.214957 -1.56127 0
M  V30 1026 C 95.8474 0.936451 -1.78643 0
M  V30 1027 C 96.1604 1.85237 -0.628229 0
M  V30 1028 O 97.3664 2.613 -0.737186 0
M  V30 1029 C 95.8224 1.7154 -3.16389 0
M  V30 1030 C 95.4304 0.845299 -4.39953 0
M  V30 1031 C 97.1744 2.42772 -3.48227 0
M  V30 1032 C 95.0814 1.62198 -5.68723 0
M  V30 1033 H 94.0114 0.353401 -0.666051 0
M  V30 1034 H 96.6624 0.190169 -1.82512 0
M  V30 1035 H 95.0444 2.50484 -3.06715 0
M  V30 1036 H 96.2184 0.0959353 -4.607 0
M  V30 1037 H 94.5334 0.244789 -4.1568 0
M  V30 1038 H 97.1304 3.01394 -4.41663 0
M  V30 1039 H 97.4734 3.15984 -2.71035 0
M  V30 1040 H 98.0064 1.70813 -3.5926 0
M  V30 1041 H 94.7454 0.933011 -6.48826 0
M  V30 1042 H 94.2654 2.34579 -5.52026 0
M  V30 1043 H 95.9444 2.18095 -6.09133 0
M  V30 1044 N 96.0765 1.50051 0.48192 0
M  V30 1045 C 97.3235 1.60498 1.23477 0
M  V30 1046 C 97.6515 0.300331 1.92167 0
M  V30 1047 O 96.9065 -0.713094 1.82246 0
M  V30 1048 C 97.2055 2.72717 2.30998 0
M  V30 1049 C 96.8715 4.13572 1.79636 0
M  V30 1050 C 95.5335 4.519 1.65348 0
M  V30 1051 C 97.8855 5.01649 1.41412 0
M  V30 1052 C 95.2135 5.76057 1.11244 0
M  V30 1053 C 97.5655 6.26343 0.887538 0
M  V30 1054 C 96.2295 6.63483 0.731207 0
M  V30 1055 H 95.4995 0.587303 0.451836 0
M  V30 1056 H 98.1465 1.83948 0.532468 0
M  V30 1057 H 96.4515 2.43312 3.07094 0
M  V30 1058 H 98.1485 2.78006 2.88988 0
M  V30 1059 H 94.7385 3.83329 1.91721 0
M  V30 1060 H 98.9225 4.72679 1.51289 0
M  V30 1061 H 94.1785 6.03516 0.978686 0
M  V30 1062 H 98.3525 6.93958 0.582654 0
M  V30 1063 H 95.9795 7.59568 0.309806 0
M  V30 1064 N 97.5546 -0.734337 1.39446 0
M  V30 1065 C 98.4846 -1.86155 1.40955 0
M  V30 1066 C 99.4656 -1.67898 0.272827 0
M  V30 1067 O 100.651 -1.88207 0.478743 0
M  V30 1068 C 97.7806 -3.23912 1.25294 0
M  V30 1069 C 96.7346 -3.56808 2.36373 0
M  V30 1070 C 96.0606 -4.93508 2.058 0
M  V30 1071 C 97.3606 -3.59713 3.78687 0
M  V30 1072 H 99.0546 -1.8515 2.35287 0
M  V30 1073 H 96.6006 -0.889367 1.13253 0
M  V30 1074 H 98.5536 -4.02443 1.2497 0
M  V30 1075 H 97.2776 -3.25446 0.274308 0
M  V30 1076 H 95.9366 -2.80606 2.35914 0
M  V30 1077 H 95.5846 -4.91623 1.06374 0
M  V30 1078 H 95.2846 -5.16486 2.80208 0
M  V30 1079 H 96.8086 -5.74396 2.07128 0
M  V30 1080 H 98.2226 -4.2832 3.81071 0
M  V30 1081 H 96.6196 -3.94209 4.52459 0
M  V30 1082 H 97.6896 -2.59504 4.09617 0
M  V30 1083 N 99.0327 -1.24633 -0.964593 0
M  V30 1084 C 99.9797 -1.04144 -2.05968 0
M  V30 1085 C 100.95 0.046262 -1.66036 0
M  V30 1086 O 102.135 -0.108972 -1.90489 0
M  V30 1087 C 99.2747 -0.65563 -3.38815 0
M  V30 1088 C 98.3877 -1.81714 -3.91923 0
M  V30 1089 C 97.5227 -1.37662 -5.13052 0
M  V30 1090 C 96.5617 -2.50788 -5.58365 0
M  V30 1091 N 95.6987 -2.07582 -6.70712 0
M  V30 1092 H 100.539 -1.9787 -2.22827 0
M  V30 1093 H 98.0757 -0.9855 -1.09208 0
M  V30 1094 H 100.034 -0.412954 -4.15151 0
M  V30 1095 H 98.6637 0.244627 -3.21872 0
M  V30 1096 H 97.7157 -2.1734 -3.12198 0
M  V30 1097 H 99.0277 -2.66705 -4.21509 0
M  V30 1098 H 98.1817 -1.093 -5.96773 0
M  V30 1099 H 96.9207 -0.497293 -4.85158 0
M  V30 1100 H 95.9257 -2.79906 -4.73215 0
M  V30 1101 H 97.1507 -3.39283 -5.88272 0
M  V30 1102 H 95.0967 -1.22051 -6.44546 0
M  V30 1103 H 95.0137 -2.86125 -6.99763 0
M  V30 1104 H 96.2817 -1.82369 -7.57867 0
M  V30 1105 N 100.511 1.16574 -1.06058 0
M  V30 1106 C 101.459 2.22941 -0.663343 0
M  V30 1107 C 102.453 1.66358 0.319593 0
M  V30 1108 O 103.659 1.7905 0.184713 0
M  V30 1109 H 100.034 0.725907 -0.196376 0
M  V30 1110 H 102.005 2.53736 -1.57037 0
M  V30 1111 C 100.754 3.47642 -0.0632808 0
M  V30 1112 H 100.077 3.91493 -0.810733 0
M  V30 1113 H 101.517 4.2363 0.177177 0
M  V30 1114 C 99.9758 3.1509 1.19248 0
M  V30 1115 O 100.506 3.30673 2.28075 0
M  V30 1116 N 98.7118 2.6924 1.09353 0
M  V30 1117 H 98.2588 2.5676 0.207912 0
M  V30 1118 H 98.2168 2.47833 1.93458 0
M  V30 1119 N 101.989 0.842826 1.3317 0
M  V30 1120 C 103.214 0.453129 2.02389 0
M  V30 1121 C 103.639 -0.939105 1.6298 0
M  V30 1122 O 102.997 -1.61472 0.8244 0
M  V30 1123 C 103.045 0.586094 3.55805 0
M  V30 1124 O 102.149 -0.386029 4.10589 0
M  V30 1125 H 101.49 0.183664 0.638094 0
M  V30 1126 H 104.02 1.13875 1.69981 0
M  V30 1127 H 104.03 0.469209 4.05293 0
M  V30 1128 H 102.705 1.6014 3.83833 0
M  V30 1129 H 101.282 -0.226371 3.72212 0
M  V30 1130 N 103.467 -1.45747 0.599634 0
M  V30 1131 C 104.716 -2.01502 0.0893511 0
M  V30 1132 C 105.029 -1.4748 -1.28488 0
M  V30 1133 O 106.235 -1.95161 -1.88745 0
M  V30 1134 C 104.691 -3.59735 0.109082 0
M  V30 1135 C 104.299 -4.22754 1.48267 0
M  V30 1136 C 106.043 -4.23085 -0.346374 0
M  V30 1137 C 103.95 -5.73115 1.45921 0
M  V30 1138 H 102.88 -0.753417 0.0296347 0
M  V30 1139 H 105.531 -1.67303 0.753788 0
M  V30 1140 H 103.913 -3.91087 -0.621854 0
M  V30 1141 H 105.087 -4.02987 2.23468 0
M  V30 1142 H 103.402 -3.71567 1.87955 0
M  V30 1143 H 105.999 -5.33327 -0.38298 0
M  V30 1144 H 106.342 -3.93201 -1.36743 0
M  V30 1145 H 106.875 -3.9642 0.331038 0
M  V30 1146 H 103.614 -6.07685 2.45762 0
M  V30 1147 H 103.134 -5.95097 0.749665 0
M  V30 1148 H 104.813 -6.3616 1.17941 0
M  V30 1149 N 104.945 -0.338344 -1.53925 0
M  V30 1150 C 106.361 0.0137736 -1.59594 0
M  V30 1151 C 106.561 1.49186 -1.35447 0
M  V30 1152 O 105.617 2.24987 -1.14616 0
M  V30 1153 C 106.93 -0.41773 -2.97784 0
M  V30 1154 C 108.478 -0.369633 -3.1081 0
M  V30 1155 C 108.953 -0.776524 -4.51369 0
M  V30 1156 N 110.444 -0.730506 -4.57403 0
M  V30 1157 C 111.179 -1.01736 -5.64303 0
M  V30 1158 N 110.675 -1.3721 -6.79077 0
M  V30 1159 N 112.468 -0.941942 -5.54151 0
M  V30 1160 H 104.619 -1.3012 -1.67876 0
M  V30 1161 H 106.882 -0.530082 -0.78595 0
M  V30 1162 H 106.588 -1.44811 -3.20504 0
M  V30 1163 H 106.462 0.209729 -3.76616 0
M  V30 1164 H 108.849 0.651568 -2.87817 0
M  V30 1165 H 108.93 -1.03223 -2.34049 0
M  V30 1166 H 108.574 -1.79571 -4.75096 0
M  V30 1167 H 108.504 -0.0914649 -5.26521 0
M  V30 1168 H 110.995 -0.468783 -3.74981 0
M  V30 1169 H 111.308 -1.57597 -7.5656 0
M  V30 1170 H 109.653 -1.4105 -6.80536 0
M  V30 1171 H 112.844 -0.664184 -4.63364 0
M  V30 1172 H 113.017 -1.16884 -6.37371 0
M  V30 1173 N 106.423 1.57458 -0.0668435 0
M  V30 1174 C 107.371 2.13639 0.919851 0
M  V30 1175 C 108.365 1.07204 1.31163 0
M  V30 1176 O 109.571 1.25591 1.28945 0
M  V30 1177 H 105.946 0.683048 0.314562 0
M  V30 1178 H 107.917 2.95415 0.421047 0
M  V30 1179 C 106.666 2.70892 2.17975 0
M  V30 1180 H 105.989 3.5246 1.88711 0
M  V30 1181 H 107.429 3.13803 2.85138 0
M  V30 1182 C 105.888 1.65414 2.93496 0
M  V30 1183 O 106.418 1.07619 3.87015 0
M  V30 1184 N 104.624 1.36564 2.56512 0
M  V30 1185 H 104.171 1.83751 1.80536 0
M  V30 1186 H 104.129 0.66223 3.07347 0
M  V30 1187 N 107.901 -0.206675 1.56239 0
M  V30 1188 C 108.849 -1.27571 1.94495 0
M  V30 1189 C 109.843 -1.47737 0.828862 0
M  V30 1190 O 111.049 -1.48735 1.0138 0
M  V30 1191 H 107.424 -0.428029 0.6183 0
M  V30 1192 H 109.395 -0.925961 2.8367 0
M  V30 1193 C 108.144 -2.61568 2.29079 0
M  V30 1194 H 107.467 -2.46863 3.14482 0
M  V30 1195 H 108.907 -3.35144 2.5972 0
M  V30 1196 C 107.366 -3.17695 1.12123 0
M  V30 1197 O 107.896 -3.99801 0.390153 0
M  V30 1198 N 106.102 -2.76276 0.901097 0
M  V30 1199 H 105.649 -2.09613 1.49733 0
M  V30 1200 H 105.607 -3.1417 0.120319 0
M  V30 1201 N 109.379 -1.50304 -0.473955 0
M  V30 1202 C 110.609 -1.64663 -1.24778 0
M  V30 1203 C 111.017 -0.328174 -1.86332 0
M  V30 1204 O 110.36 0.699536 -1.69859 0
M  V30 1205 C 110.422 -2.6778 -2.39863 0
M  V30 1206 C 110.086 -4.11413 -1.98969 0
M  V30 1207 C 111.083 -4.97372 -1.51385 0
M  V30 1208 C 108.768 -4.57312 -2.07777 0
M  V30 1209 C 110.762 -6.27277 -1.13148 0
M  V30 1210 C 108.449 -5.87223 -1.69152 0
M  V30 1211 C 109.447 -6.72031 -1.21915 0
M  V30 1212 O 109.135 -7.99518 -0.838237 0
M  V30 1213 H 108.867 -0.556602 -0.383627 0
M  V30 1214 H 111.421 -1.9726 -0.572491 0
M  V30 1215 H 109.651 -2.30419 -3.10554 0
M  V30 1216 H 111.34 -2.71388 -3.01833 0
M  V30 1217 H 112.106 -4.63128 -1.44004 0
M  V30 1218 H 107.985 -3.91449 -2.43493 0
M  V30 1219 H 111.529 -6.93425 -0.762077 0
M  V30 1220 H 107.426 -6.20989 -1.76191 0
M  V30 1221 H 108.194 -8.12764 -0.967339 0
M  V30 1222 N 110.857 0.726932 -1.39834 0
M  V30 1223 C 112.134 1.47902 -1.28001 0
M  V30 1224 C 112.514 2.1083 0.106789 0
M  V30 1225 O 111.862 1.99242 1.11869 0
M  V30 1226 C 112.072 2.52392 -2.41038 0
M  V30 1227 C 113.42 3.18546 -2.80737 0
M  V30 1228 O 114.444 2.62708 -2.40547 0
M  V30 1229 O 113.303 4.19604 -3.50135 0
M  V30 1230 H 110.397 0.657163 -0.502062 0
M  V30 1231 H 112.943 0.760071 -1.51727 0
M  V30 1232 H 111.715 2.04329 -3.33715 0
M  V30 1233 H 111.338 3.31837 -2.19021 0
M  V30 1234 N 112.336 1.25143 0.95797 0
M  V30 1235 C 113.582 1.09855 1.70469 0
M  V30 1236 C 113.915 -0.360187 1.90831 0
M  V30 1237 O 113.19 -1.26568 1.47685 0
M  V30 1238 C 113.473 1.8497 3.08963 0
M  V30 1239 C 113.326 3.38652 2.96032 0
M  V30 1240 C 114.645 1.63016 4.08795 0
M  V30 1241 H 111.764 0.400465 0.618706 0
M  V30 1242 H 114.406 1.53933 1.11376 0
M  V30 1243 H 112.556 1.47505 3.59409 0
M  V30 1244 H 114.228 3.85772 2.52938 0
M  V30 1245 H 112.471 3.66534 2.32025 0
M  V30 1246 H 113.142 3.8642 3.94187 0
M  V30 1247 H 115.618 1.95625 3.67247 0
M  V30 1248 H 114.494 2.18015 5.03747 0
M  V30 1249 H 114.755 0.570692 4.38401 0
M  V30 1250 N 113.814 -1.1601 1.06675 0
M  V30 1251 C 114.744 -2.22688 0.702307 0
M  V30 1252 C 115.725 -1.67306 -0.307032 0
M  V30 1253 O 116.91 -1.93352 -0.181305 0
M  V30 1254 C 114.04 -3.47178 0.092038 0
M  V30 1255 C 112.994 -4.15477 1.02777 0
M  V30 1256 C 112.32 -5.33963 0.28061 0
M  V30 1257 C 113.62 -4.66019 2.35846 0
M  V30 1258 H 115.314 -2.53429 1.59419 0
M  V30 1259 H 112.86 -1.21813 0.767961 0
M  V30 1260 H 114.813 -4.21037 -0.174814 0
M  V30 1261 H 113.537 -3.15749 -0.834877 0
M  V30 1262 H 112.196 -3.43549 1.27944 0
M  V30 1263 H 111.844 -4.98788 -0.649545 0
M  V30 1264 H 111.544 -5.806 0.904258 0
M  V30 1265 H 113.068 -6.10596 0.021396 0
M  V30 1266 H 114.482 -5.3144 2.15045 0
M  V30 1267 H 112.879 -5.23293 2.93743 0
M  V30 1268 H 113.949 -3.82023 2.98641 0
M  V30 1269 N 115.292 -0.849877 -1.32721 0
M  V30 1270 C 116.239 -0.289033 -2.28983 0
M  V30 1271 C 117.209 0.601324 -1.54833 0
M  V30 1272 O 118.394 0.537253 -1.8308 0
M  V30 1273 C 115.534 0.520623 -3.4115 0
M  V30 1274 C 114.647 -0.394989 -4.3019 0
M  V30 1275 C 113.782 0.426834 -5.29482 0
M  V30 1276 C 112.821 -0.486476 -6.10164 0
M  V30 1277 N 111.958 0.297879 -7.01468 0
M  V30 1278 H 116.798 -1.11519 -2.76347 0
M  V30 1279 H 114.335 -0.56138 -1.35967 0
M  V30 1280 H 116.293 1.00563 -4.04899 0
M  V30 1281 H 114.923 1.31165 -2.9495 0
M  V30 1282 H 113.975 -0.99836 -3.67065 0
M  V30 1283 H 115.287 -1.09612 -4.86607 0
M  V30 1284 H 114.441 0.975205 -5.98811 0
M  V30 1285 H 113.18 1.16136 -4.73671 0
M  V30 1286 H 112.185 -1.04677 -5.39743 0
M  V30 1287 H 113.41 -1.21953 -6.6806 0
M  V30 1288 H 111.356 1.01558 -6.48091 0
M  V30 1289 H 111.273 -0.344318 -7.55216 0
M  V30 1290 H 112.541 0.828131 -7.75089 0
M  V30 1291 N 116.77 1.45427 -0.607355 0
M  V30 1292 C 117.717 2.3053 0.111625 0
M  V30 1293 C 118.687 1.4209 0.860216 0
M  V30 1294 O 119.872 1.71019 0.845998 0
M  V30 1295 C 117.012 3.26992 1.10319 0
M  V30 1296 C 116.125 4.30535 0.355493 0
M  V30 1297 C 115.26 5.14105 1.33676 0
M  V30 1298 C 114.299 6.09376 0.576862 0
M  V30 1299 N 113.436 6.85727 1.5074 0
M  V30 1300 H 118.276 2.91477 -0.620093 0
M  V30 1301 H 115.813 1.43631 -0.317594 0
M  V30 1302 H 117.771 3.81385 1.6912 0
M  V30 1303 H 116.401 2.67799 1.80232 0
M  V30 1304 H 115.453 3.78805 -0.348023 0
M  V30 1305 H 116.765 4.98235 -0.237423 0
M  V30 1306 H 115.919 5.72897 1.99684 0
M  V30 1307 H 114.658 4.46423 1.9636 0
M  V30 1308 H 113.663 5.49715 -0.0968519 0
M  V30 1309 H 114.888 6.79085 -0.0449341 0
M  V30 1310 H 112.834 6.20735 2.12189 0
M  V30 1311 H 112.751 7.49778 0.967913 0
M  V30 1312 H 114.019 7.4906 2.15706 0
M  V30 1313 N 118.248 0.346503 1.53744 0
M  V30 1314 C 119.158 -0.517293 2.28826 0
M  V30 1315 C 120.174 -1.10935 1.3405 0
M  V30 1316 O 121.35 -1.1244 1.6709 0
M  V30 1317 C 118.415 -1.65098 3.04866 0
M  V30 1318 C 117.476 -1.0884 4.15274 0
M  V30 1319 C 116.709 -2.16806 4.87679 0
M  V30 1320 O 116.932 -3.3758 4.59778 0
M  V30 1321 O 115.866 -1.80934 5.74061 0
M  V30 1322 H 119.692 0.0931396 3.03557 0
M  V30 1323 H 117.277 0.111458 1.48984 0
M  V30 1324 H 119.159 -2.31053 3.5241 0
M  V30 1325 H 117.834 -2.24717 2.32989 0
M  V30 1326 H 116.741 -0.3933 3.72027 0
M  V30 1327 H 118.074 -0.537036 4.89261 0
M  V30 1328 N 119.726 -1.57421 0.075193 0
M  V30 1329 C 120.636 -2.1642 -0.905511 0
M  V30 1330 C 121.652 -1.12828 -1.32461 0
M  V30 1331 O 122.828 -1.45109 -1.39661 0
M  V30 1332 C 119.893 -2.71693 -2.15369 0
M  V30 1333 C 118.954 -3.90171 -1.79068 0
M  V30 1334 C 118.187 -4.42798 -2.97936 0
M  V30 1335 O 118.41 -3.94416 -4.12058 0
M  V30 1336 O 117.344 -5.34085 -2.77555 0
M  V30 1337 H 121.17 -3.00588 -0.433626 0
M  V30 1338 H 118.755 -1.48664 -0.148067 0
M  V30 1339 H 120.637 -3.07104 -2.88557 0
M  V30 1340 H 119.312 -1.90582 -2.61649 0
M  V30 1341 H 118.219 -3.59606 -1.03122 0
M  V30 1342 H 119.552 -4.72584 -1.37569 0
M  V30 1343 N 121.204 0.198386 -1.56346 0
M  V30 1344 C 122.45 0.920648 -1.80698 0
M  V30 1345 C 122.783 1.83045 -0.648697 0
M  V30 1346 O 122.058 1.91308 0.350925 0
M  V30 1347 C 122.341 1.73971 -3.15287 0
M  V30 1348 C 122.194 0.85485 -4.41602 0
M  V30 1349 C 123.513 2.71296 -3.46535 0
M  V30 1350 H 120.632 0.333261 -0.657348 0
M  V30 1351 H 123.274 0.188198 -1.89066 0
M  V30 1352 H 121.424 2.36416 -3.08285 0
M  V30 1353 H 123.096 0.245362 -4.60647 0
M  V30 1354 H 121.339 0.161398 -4.335 0
M  V30 1355 H 122.01 1.46286 -5.32264 0
M  V30 1356 H 124.486 2.18983 -3.53816 0
M  V30 1357 H 123.362 3.2569 -4.41834 0
M  V30 1358 H 123.623 3.5018 -2.69864 0
M  V30 1359 N 122.682 1.50554 0.465978 0
M  V30 1360 C 123.922 1.63439 1.22747 0
M  V30 1361 C 124.286 0.329822 1.89146 0
M  V30 1362 O 125.487 0.334161 2.66715 0
M  V30 1363 C 123.758 2.78542 2.2394 0
M  V30 1364 S 125.317 3.11591 3.0896 0
M  V30 1365 H 122.135 0.576113 0.416672 0
M  V30 1366 H 124.737 1.88357 0.523641 0
M  V30 1367 H 123.441 3.71805 1.7375 0
M  V30 1368 H 122.972 2.55726 2.98944 0
M  V30 1369 H 124.987 2.55811 4.25176 0
M  V30 1370 N 124.16 -0.719506 1.40217 0
M  V30 1371 C 125.388 -1.50864 1.41589 0
M  V30 1372 C 125.803 -1.88794 0.0145275 0
M  V30 1373 O 125.16 -1.55174 -0.960594 0
M  V30 1374 C 125.211 -2.78646 2.30302 0
M  V30 1375 O 124.932 -2.42321 3.64983 0
M  V30 1376 C 126.433 -3.72569 2.40224 0
M  V30 1377 H 123.653 -0.465709 0.48307 0
M  V30 1378 H 126.197 -0.88785 1.84221 0
M  V30 1379 H 124.352 -3.37019 1.91042 0
M  V30 1380 H 124.766 -3.24514 4.12057 0
M  V30 1381 H 126.24 -4.5908 3.06512 0
M  V30 1382 H 126.717 -4.15403 1.42608 0
M  V30 1383 H 127.323 -3.20109 2.80019 0
M  V30 1384 N 125.638 -1.25649 -0.95132 0
M  V30 1385 C 126.568 -1.08808 -2.06599 0
M  V30 1386 C 127.549 0.00382547 -1.701 0
M  V30 1387 O 128.734 -0.166325 -1.93486 0
M  V30 1388 C 125.864 -0.709542 -3.39975 0
M  V30 1389 C 124.818 -1.75206 -3.90496 0
M  V30 1390 C 124.144 -1.22811 -5.20405 0
M  V30 1391 C 125.444 -3.15153 -4.16504 0
M  V30 1392 H 127.138 -2.02048 -2.20946 0
M  V30 1393 H 124.684 -0.972835 -1.06169 0
M  V30 1394 H 126.637 -0.578649 -4.17408 0
M  V30 1395 H 125.361 0.258556 -3.25575 0
M  V30 1396 H 124.02 -1.87145 -3.15234 0
M  V30 1397 H 123.668 -0.250145 -5.02378 0
M  V30 1398 H 123.368 -1.92492 -5.55176 0
M  V30 1399 H 124.892 -1.10968 -6.00432 0
M  V30 1400 H 126.306 -3.06349 -4.84586 0
M  V30 1401 H 124.703 -3.82333 -4.62538 0
M  V30 1402 H 125.773 -3.61966 -3.22658 0
M  V30 1403 N 127.117 1.15442 -1.07289 0
M  V30 1404 C 128.345 1.90096 -0.81676 0
M  V30 1405 C 128.76 1.7798 0.629966 0
M  V30 1406 O 128.117 1.1313 1.43206 0
M  V30 1407 C 128.168 3.40466 -1.21512 0
M  V30 1408 O 127.889 3.52232 -2.60508 0
M  V30 1409 C 129.39 4.32145 -0.988198 0
M  V30 1410 H 126.61 0.602495 -0.295366 0
M  V30 1411 H 129.154 1.4627 -1.42918 0
M  V30 1412 H 127.309 3.81958 -0.647039 0
M  V30 1413 H 127.723 4.45549 -2.76742 0
M  V30 1414 H 129.197 5.36072 -1.31645 0
M  V30 1415 H 129.674 4.39135 0.0755063 0
M  V30 1416 H 130.28 3.96395 -1.54115 0
M  V30 1417 N 128.595 0.856903 1.32268 0
M  V30 1418 C 129.542 0.301172 2.28827 0
M  V30 1419 C 130.512 -0.593104 1.5515 0
M  V30 1420 O 131.697 -0.527537 1.83362 0
M  V30 1421 C 128.837 -0.502523 3.41422 0
M  V30 1422 C 127.95 0.417797 4.29975 0
M  V30 1423 C 127.085 -0.398749 5.29701 0
M  V30 1424 C 126.124 0.518827 6.09897 0
M  V30 1425 N 125.261 -0.260674 7.01616 0
M  V30 1426 H 130.101 1.12983 2.75751 0
M  V30 1427 H 127.638 0.568582 1.35667 0
M  V30 1428 H 129.596 -0.984141 4.05426 0
M  V30 1429 H 128.226 -1.29599 2.95642 0
M  V30 1430 H 127.278 1.01781 3.66531 0
M  V30 1431 H 128.59 1.12191 4.86019 0
M  V30 1432 H 127.744 -0.943435 5.9932 0
M  V30 1433 H 126.483 -1.13622 4.7428 0
M  V30 1434 H 125.488 1.07538 5.39181 0
M  V30 1435 H 126.713 1.25495 6.67404 0
M  V30 1436 H 124.659 -0.981198 6.4862 0
M  V30 1437 H 124.576 0.384364 7.55022 0
M  V30 1438 H 125.844 -0.787014 7.75517 0
M  V30 1439 N 130.073 -1.45103 0.615059 0
M  V30 1440 C 131.35 -1.95549 0.0448276 0
M  V30 1441 C 131.73 -1.55737 -1.4251 0
M  V30 1442 O 131.078 -0.823556 -2.13143 0
M  V30 1443 C 131.288 -3.48098 0.250785 0
M  V30 1444 C 132.636 -4.24384 0.135509 0
M  V30 1445 O 133.66 -3.55738 0.181299 0
M  V30 1446 O 132.519 -5.46493 0.0268878 0
M  V30 1447 H 129.613 -0.8264 -0.0314845 0
M  V30 1448 H 132.159 -1.55232 0.685642 0
M  V30 1449 H 130.931 -3.7007 1.27139 0
M  V30 1450 H 130.554 -3.95323 -0.424937 0
M  V30 1451 N 131.551 -0.354651 -1.53558 0
M  V30 1452 C 132.8 0.239504 -2.00273 0
M  V30 1453 C 133.113 1.50759 -1.24623 0
M  V30 1454 O 134.319 2.17968 -1.61871 0
M  V30 1455 C 132.775 0.477341 -3.5672 0
M  V30 1456 C 132.383 -0.775488 -4.41237 0
M  V30 1457 C 134.127 1.02975 -4.11821 0
M  V30 1458 C 132.034 -0.507838 -5.89216 0
M  V30 1459 H 130.964 0.0932743 -0.748208 0
M  V30 1460 H 133.615 -0.471701 -1.77334 0
M  V30 1461 H 131.997 1.24953 -3.7577 0
M  V30 1462 H 133.171 -1.54963 -4.33962 0
M  V30 1463 H 131.486 -1.25033 -3.97185 0
M  V30 1464 H 134.083 1.24513 -5.2 0
M  V30 1465 H 134.426 1.98862 -3.65731 0
M  V30 1466 H 134.959 0.317994 -3.96527 0
M  V30 1467 H 131.698 -1.43674 -6.39561 0
M  V30 1468 H 131.218 0.228011 -5.99366 0
M  V30 1469 H 132.897 -0.129238 -6.46871 0
M  V30 1470 N 133.029 1.57378 -0.0835403 0
M  V30 1471 C 134.259 1.97975 0.590713 0
M  V30 1472 C 134.667 0.961083 1.62972 0
M  V30 1473 O 134.01 -0.0590879 1.83605 0
M  V30 1474 C 134.072 3.34915 1.3066 0
M  V30 1475 C 133.736 4.55069 0.419698 0
M  V30 1476 C 134.733 5.18868 -0.32749 0
M  V30 1477 C 132.418 5.0114 0.341137 0
M  V30 1478 C 134.412 6.27098 -1.14134 0
M  V30 1479 C 132.099 6.0924 -0.476374 0
M  V30 1480 C 133.097 6.72083 -1.21627 0
M  V30 1481 O 132.785 7.781 -2.02028 0
M  V30 1482 H 132.517 0.655818 0.163947 0
M  V30 1483 H 135.071 2.04807 -0.156021 0
M  V30 1484 H 133.301 3.24733 2.09966 0
M  V30 1485 H 134.99 3.60037 1.87424 0
M  V30 1486 H 135.756 4.84211 -0.276459 0
M  V30 1487 H 131.635 4.51996 0.90668 0
M  V30 1488 H 135.179 6.7608 -1.71935 0
M  V30 1489 H 131.076 6.43329 -0.528927 0
M  V30 1490 H 131.844 7.95034 -1.94586 0
M  V30 1491 N 134.507 -0.190092 1.56449 0
M  V30 1492 C 135.417 -1.25591 1.98152 0
M  V30 1493 C 136.433 -1.49519 0.889944 0
M  V30 1494 O 137.609 -1.62036 1.19609 0
M  V30 1495 C 134.674 -2.57916 2.3169 0
M  V30 1496 C 133.735 -2.42015 3.5458 0
M  V30 1497 C 132.968 -3.6803 3.8651 0
M  V30 1498 O 133.191 -4.72413 3.1966 0
M  V30 1499 O 132.125 -3.6326 4.79923 0
M  V30 1500 H 135.951 -0.931988 2.89046 0
M  V30 1501 H 133.536 -0.395488 1.4407 0
M  V30 1502 H 135.418 -3.36008 2.54316 0
M  V30 1503 H 134.093 -2.89925 1.43963 0
M  V30 1504 H 133 -1.62017 3.37196 0
M  V30 1505 H 134.333 -2.14937 4.4279 0
M  V30 1506 N 135.985 -1.50799 -0.457987 0
M  V30 1507 C 137.21 -1.66496 -1.23668 0
M  V30 1508 C 137.635 -0.353288 -1.84752 0
M  V30 1509 O 136.993 0.684346 -1.67888 0
M  V30 1510 C 137.041 -2.76763 -2.3116 0
M  V30 1511 O 136.145 -2.38928 -3.36136 0
M  V30 1512 H 135.486 -0.555828 -0.363252 0
M  V30 1513 H 138.016 -1.9725 -0.543474 0
M  V30 1514 H 138.026 -3.00232 -2.76269 0
M  V30 1515 H 136.701 -3.71954 -1.86073 0
M  V30 1516 H 135.278 -2.25953 -2.96647 0
M  V30 1517 N 137.463 0.71206 -1.40597 0
M  V30 1518 C 138.393 1.83889 -1.43899 0
M  V30 1519 C 139.374 1.67442 -0.299504 0
M  V30 1520 O 140.559 1.87421 -0.508624 0
M  V30 1521 C 137.689 3.21877 -1.30431 0
M  V30 1522 C 136.643 3.53002 -2.42019 0
M  V30 1523 C 135.969 4.90172 -2.13626 0
M  V30 1524 C 137.269 3.53643 -3.84362 0
M  V30 1525 H 138.963 1.81383 -2.38203 0
M  V30 1526 H 136.509 0.871237 -1.14654 0
M  V30 1527 H 138.462 4.00404 -1.31357 0
M  V30 1528 H 137.186 3.24968 -0.326049 0
M  V30 1529 H 135.845 2.76818 -2.40349 0
M  V30 1530 H 135.493 4.89869 -1.14182 0
M  V30 1531 H 135.193 5.11962 -2.88389 0
M  V30 1532 H 136.717 5.71028 -2.1624 0
M  V30 1533 H 138.131 4.22203 -3.87837 0
M  V30 1534 H 136.528 3.86961 -4.58673 0
M  V30 1535 H 137.598 2.52954 -4.13693 0
M  V30 1536 N 138.941 1.26152 0.944643 0
M  V30 1537 C 139.871 1.09902 2.06019 0
M  V30 1538 C 140.852 0.00519538 1.70099 0
M  V30 1539 O 142.037 0.176583 1.93396 0
M  V30 1540 C 139.167 0.727562 3.39594 0
M  V30 1541 C 138.121 1.77274 3.89561 0
M  V30 1542 C 137.447 1.25569 5.19747 0
M  V30 1543 C 138.747 3.17357 4.14827 0
M  V30 1544 H 140.441 2.03217 2.19871 0
M  V30 1545 H 137.987 0.978452 1.05652 0
M  V30 1546 H 139.94 0.600777 4.17095 0
M  V30 1547 H 138.664 -0.241287 3.25707 0
M  V30 1548 H 137.323 1.88814 3.14237 0
M  V30 1549 H 136.971 0.276783 5.02238 0
M  V30 1550 H 136.671 1.95433 5.54148 0
M  V30 1551 H 138.195 1.1415 5.99835 0
M  V30 1552 H 139.609 3.08914 4.82954 0
M  V30 1553 H 138.006 3.84781 4.60504 0
M  V30 1554 H 139.076 3.63673 3.20734 0
M  V30 1555 N 140.419 -1.14872 1.07899 0
M  V30 1556 C 141.649 -1.89386 0.825631 0
M  V30 1557 C 142.057 -1.78565 -0.625406 0
M  V30 1558 O 141.4 -1.13918 -1.44113 0
M  V30 1559 C 141.462 -3.40206 1.16191 0
M  V30 1560 C 141.126 -3.74812 2.61467 0
M  V30 1561 C 142.123 -3.75367 3.59716 0
M  V30 1562 C 139.808 -4.0495 2.97189 0
M  V30 1563 C 141.802 -4.05574 4.9172 0
M  V30 1564 C 139.489 -4.34821 4.29388 0
M  V30 1565 C 140.487 -4.35116 5.26463 0
M  V30 1566 O 140.175 -4.64267 6.56286 0
M  V30 1567 H 139.907 -0.606894 0.297751 0
M  V30 1568 H 142.461 -1.46438 1.44031 0
M  V30 1569 H 140.691 -3.8358 0.490214 0
M  V30 1570 H 142.38 -3.96018 0.890193 0
M  V30 1571 H 143.146 -3.52176 3.33462 0
M  V30 1572 H 139.025 -4.03876 2.22273 0
M  V30 1573 H 142.569 -4.05719 5.67484 0
M  V30 1574 H 138.466 -4.5748 4.55392 0
M  V30 1575 H 139.234 -4.82007 6.61522 0
M  V30 1576 N 141.898 -0.863906 -1.31812 0
M  V30 1577 C 142.828 -0.330843 -2.31144 0
M  V30 1578 C 143.809 0.575005 -1.60087 0
M  V30 1579 O 144.994 0.493304 -1.8783 0
M  V30 1580 C 142.124 0.47374 -3.44054 0
M  V30 1581 C 141.078 -0.338481 -4.26659 0
M  V30 1582 C 140.404 0.591412 -5.31419 0
M  V30 1583 C 141.704 -1.56926 -4.98168 0
M  V30 1584 H 143.398 -1.16086 -2.75979 0
M  V30 1585 H 140.944 -0.559657 -1.32679 0
M  V30 1586 H 142.897 0.857143 -4.12591 0
M  V30 1587 H 141.621 1.33721 -2.9797 0
M  V30 1588 H 140.28 -0.703754 -3.59782 0
M  V30 1589 H 139.928 1.45199 -4.81587 0
M  V30 1590 H 139.628 0.0519022 -5.87577 0
M  V30 1591 H 141.152 0.97179 -6.02817 0
M  V30 1592 H 142.566 -1.25764 -5.59336 0
M  V30 1593 H 140.963 -2.04739 -5.64094 0
M  V30 1594 H 142.033 -2.32544 -4.25501 0
M  V30 1595 N 143.376 1.44774 -0.622745 0
M  V30 1596 C 144.286 2.34433 0.0886031 0
M  V30 1597 C 145.302 1.52131 0.844529 0
M  V30 1598 O 146.478 1.84886 0.798691 0
M  V30 1599 C 143.543 3.29986 1.0635 0
M  V30 1600 C 142.604 4.28195 0.307873 0
M  V30 1601 C 141.837 5.19183 1.23633 0
M  V30 1602 O 142.06 5.13918 2.47476 0
M  V30 1603 O 140.994 5.97515 0.725189 0
M  V30 1604 H 144.82 2.96693 -0.648599 0
M  V30 1605 H 142.405 1.44408 -0.382957 0
M  V30 1606 H 144.287 3.88825 1.6246 0
M  V30 1607 H 142.962 2.70269 1.78146 0
M  V30 1608 H 141.869 3.72927 -0.296064 0
M  V30 1609 H 143.202 4.90808 -0.3699 0
M  V30 1610 N 144.854 0.36279 1.53368 0
M  V30 1611 C 145.787 -0.528507 2.21996 0
M  V30 1612 C 146.765 -1.0852 1.21087 0
M  V30 1613 O 147.949 -1.14186 1.4998 0
M  V30 1614 C 145.076 -1.72893 2.91249 0
M  V30 1615 C 144.122 -1.29994 4.06207 0
M  V30 1616 S 144.955 -0.303575 5.34639 0
M  V30 1617 C 146.111 -1.51039 6.07403 0
M  V30 1618 H 146.344 0.0543423 2.9725 0
M  V30 1619 H 143.877 0.146889 1.537 0
M  V30 1620 H 145.835 -2.41751 3.31763 0
M  V30 1621 H 144.496 -2.28303 2.15724 0
M  V30 1622 H 143.689 -2.19549 4.53667 0
M  V30 1623 H 143.291 -0.690608 3.67569 0
M  V30 1624 H 145.583 -2.44186 6.31965 0
M  V30 1625 H 146.526 -1.07721 6.99858 0
M  V30 1626 H 146.934 -1.71518 5.37812 0
M  V30 1627 N 146.332 -1.57332 0.0918853 0
M  V30 1628 C 147.279 -2.13847 -0.868211 0
M  V30 1629 C 148.249 -1.05618 -1.28196 0
M  V30 1630 O 149.434 -1.33387 -1.36427 0
M  V30 1631 C 146.574 -2.72062 -2.12312 0
M  V30 1632 C 145.687 -3.94514 -1.7602 0
M  V30 1633 C 144.822 -4.40903 -2.96273 0
M  V30 1634 C 143.861 -5.55953 -2.56092 0
M  V30 1635 N 142.998 -5.97209 -3.69169 0
M  V30 1636 H 147.838 -2.95575 -0.379406 0
M  V30 1637 H 145.375 -1.46048 -0.175606 0
M  V30 1638 H 147.333 -3.03931 -2.858 0
M  V30 1639 H 145.963 -1.93068 -2.58698 0
M  V30 1640 H 145.015 -3.68979 -0.925135 0
M  V30 1641 H 146.327 -4.7802 -1.42472 0
M  V30 1642 H 145.481 -4.74539 -3.78018 0
M  V30 1643 H 144.22 -3.56291 -3.33029 0
M  V30 1644 H 143.225 -5.21948 -1.72773 0
M  V30 1645 H 144.45 -6.42311 -2.20484 0
M  V30 1646 H 142.396 -5.15543 -4.05649 0
M  V30 1647 H 142.313 -6.75504 -3.39456 0
M  V30 1648 H 143.581 -6.35475 -4.51434 0
M  V30 1649 N 147.81 0.181792 -1.56548 0
M  V30 1650 C 149.087 0.926765 -1.72251 0
M  V30 1651 C 149.467 2.00831 -0.650386 0
M  V30 1652 O 148.815 2.26008 0.336521 0
M  V30 1653 C 149.025 1.50106 -3.1507 0
M  V30 1654 C 150.373 1.97805 -3.75711 0
M  V30 1655 O 151.397 1.59922 -3.18282 0
M  V30 1656 O 150.256 2.67555 -4.76525 0
M  V30 1657 H 147.35 0.435506 -0.703039 0
M  V30 1658 H 149.896 0.170443 -1.68842 0
M  V30 1659 H 148.668 0.72212 -3.84579 0
M  V30 1660 H 148.291 2.32186 -3.22763 0
M  V30 1661 N 149.288 1.51039 0.449983 0
M  V30 1662 C 150.235 1.71439 1.54523 0
M  V30 1663 C 151.205 0.555871 1.56522 0
M  V30 1664 O 152.39 0.788871 1.73728 0
M  V30 1665 C 149.53 1.83384 2.92343 0
M  V30 1666 C 148.643 3.10873 2.9997 0
M  V30 1667 C 147.778 3.13488 4.28834 0
M  V30 1668 C 146.817 4.35343 4.30282 0
M  V30 1669 N 145.954 4.35579 5.5065 0
M  V30 1670 H 150.794 2.64934 1.36433 0
M  V30 1671 H 148.331 1.31312 0.662982 0
M  V30 1672 H 150.289 1.88291 3.72293 0
M  V30 1673 H 148.919 0.933086 3.0902 0
M  V30 1674 H 147.971 3.15336 2.12761 0
M  V30 1675 H 149.283 4.00814 2.96901 0
M  V30 1676 H 148.437 3.17241 5.17149 0
M  V30 1677 H 147.176 2.21414 4.34543 0
M  V30 1678 H 146.181 4.3178 3.40362 0
M  V30 1679 H 147.406 5.28668 4.26248 0
M  V30 1680 H 145.352 3.46369 5.57104 0
M  V30 1681 H 145.269 5.19313 5.49409 0
M  V30 1682 H 146.537 4.43507 6.41032 0
M  V30 1683 N 150.766 -0.704594 1.40972 0
M  V30 1684 C 151.698 -1.82974 1.38033 0
M  V30 1685 C 152.711 -1.60305 0.283931 0
M  V30 1686 O 153.9 -1.69975 0.545042 0
M  V30 1687 C 151 -3.19578 1.12795 0
M  V30 1688 C 150.173 -3.69352 2.34302 0
M  V30 1689 C 149.232 -4.84601 2.05058 0
M  V30 1690 O 148.258 -4.96682 2.7802 0
M  V30 1691 N 149.46 -5.71194 1.03528 0
M  V30 1692 H 152.225 -1.85991 2.35005 0
M  V30 1693 H 149.786 -0.886567 1.35468 0
M  V30 1694 H 151.778 -3.9429 0.911987 0
M  V30 1695 H 150.348 -3.11642 0.24452 0
M  V30 1696 H 149.568 -2.85649 2.71659 0
M  V30 1697 H 150.856 -3.99345 3.1528 0
M  V30 1698 H 150.254 -5.64054 0.431217 0
M  V30 1699 H 148.811 -6.45843 0.879205 0
M  V30 1700 N 152.244 -1.26651 -0.937939 0
M  V30 1701 C 153.174 -1.10993 -2.05433 0
M  V30 1702 C 154.155 -0.0142161 -1.70094 0
M  V30 1703 O 155.34 -0.186837 -1.93299 0
M  V30 1704 C 152.47 -0.745561 -3.39203 0
M  V30 1705 C 151.424 -1.79337 -3.88616 0
M  V30 1706 C 150.75 -1.28324 -5.19073 0
M  V30 1707 C 152.05 -3.19553 -4.13138 0
M  V30 1708 H 153.744 -2.0438 -2.1879 0
M  V30 1709 H 151.29 -0.984041 -1.05131 0
M  V30 1710 H 153.243 -0.622888 -4.16771 0
M  V30 1711 H 151.967 0.22401 -3.25831 0
M  V30 1712 H 150.626 -1.90477 -3.13231 0
M  V30 1713 H 150.274 -0.303414 -5.02084 0
M  V30 1714 H 149.974 -1.98369 -5.53103 0
M  V30 1715 H 151.498 -1.1733 -5.99221 0
M  V30 1716 H 152.912 -3.11471 -4.81309 0
M  V30 1717 H 151.309 -3.87218 -4.58457 0
M  V30 1718 H 152.379 -3.65368 -3.18801 0
M  V30 1719 N 153.722 1.14298 -1.08507 0
M  V30 1720 C 154.952 1.88945 -0.835663 0
M  V30 1721 C 155.36 1.78894 0.615928 0
M  V30 1722 O 154.703 1.1468 1.43506 0
M  V30 1723 C 154.765 3.39585 -1.17994 0
M  V30 1724 C 154.429 3.7342 -2.63451 0
M  V30 1725 C 155.426 3.73454 -3.61702 0
M  V30 1726 C 153.111 4.03368 -2.99332 0
M  V30 1727 C 155.105 4.02961 -4.93864 0
M  V30 1728 C 152.792 4.32538 -4.31687 0
M  V30 1729 C 153.79 4.32318 -5.28763 0
M  V30 1730 O 153.478 4.6078 -6.58739 0
M  V30 1731 H 153.21 0.605307 -0.300965 0
M  V30 1732 H 155.764 1.45673 -1.44806 0
M  V30 1733 H 153.994 3.83315 -0.51055 0
M  V30 1734 H 155.683 3.9554 -0.911182 0
M  V30 1735 H 156.449 3.50403 -3.35325 0
M  V30 1736 H 152.328 4.02692 -2.24411 0
M  V30 1737 H 155.872 4.02704 -5.69627 0
M  V30 1738 H 151.769 4.55059 -4.57812 0
M  V30 1739 H 152.537 4.78492 -6.64069 0
M  V30 1740 N 155.201 0.870884 1.31352 0
M  V30 1741 C 156.45 0.478408 1.95944 0
M  V30 1742 C 156.763 -0.974493 1.69597 0
M  V30 1743 O 157.969 -1.47316 2.28058 0
M  V30 1744 C 156.425 0.804609 3.50791 0
M  V30 1745 C 156.033 2.27433 3.85977 0
M  V30 1746 C 157.777 0.480648 4.2177 0
M  V30 1747 C 155.684 2.5429 5.33939 0
M  V30 1748 H 154.614 0.175175 0.733369 0
M  V30 1749 H 157.265 1.06391 1.4951 0
M  V30 1750 H 155.647 0.148347 3.95722 0
M  V30 1751 H 156.821 2.97373 3.52002 0
M  V30 1752 H 155.136 2.56442 3.28065 0
M  V30 1753 H 157.733 0.658519 5.30629 0
M  V30 1754 H 158.076 -0.578979 4.12254 0
M  V30 1755 H 158.609 1.09349 3.82476 0
M  V30 1756 H 155.348 3.58939 5.48491 0
M  V30 1757 H 154.868 1.88945 5.69263 0
M  V30 1758 H 156.547 2.39066 6.01212 0
M  V30 1759 N 156.679 -1.44442 0.630414 0
M  V30 1760 C 157.611 -2.2892 -0.113347 0
M  V30 1761 C 158.624 -1.41243 -0.80959 0
M  V30 1762 O 159.813 -1.65402 -0.671156 0
M  V30 1763 C 156.913 -3.17594 -1.18266 0
M  V30 1764 C 156.086 -4.33682 -0.569073 0
M  V30 1765 C 155.145 -5.03397 -1.53226 0
M  V30 1766 O 154.171 -5.59438 -1.04967 0
M  V30 1767 N 155.373 -5.04783 -2.86661 0
M  V30 1768 H 158.138 -2.93392 0.611636 0
M  V30 1769 H 155.699 -1.54881 0.471523 0
M  V30 1770 H 157.691 -3.61097 -1.82732 0
M  V30 1771 H 156.261 -2.54876 -1.80988 0
M  V30 1772 H 155.481 -3.9338 0.254187 0
M  V30 1773 H 156.769 -5.08608 -0.139767 0
M  V30 1774 H 156.167 -4.60584 -3.28449 0
M  V30 1775 H 154.724 -5.52077 -3.46489 0
M  V30 1776 N 158.157 -0.370918 -1.53173 0
M  V30 1777 C 159.087 0.464847 -2.28826 0
M  V30 1778 C 160.068 1.07936 -1.31468 0
M  V30 1779 O 161.253 1.0956 -1.60344 0
M  V30 1780 C 158.383 1.60196 -3.08147 0
M  V30 1781 C 157.337 1.11443 -4.13237 0
M  V30 1782 C 156.663 2.3422 -4.80672 0
M  V30 1783 C 157.963 0.195384 -5.21934 0
M  V30 1784 H 159.657 -0.166329 -2.98938 0
M  V30 1785 H 157.203 -0.0814359 -1.4377 0
M  V30 1786 H 159.156 2.19332 -3.59822 0
M  V30 1787 H 157.88 2.26045 -2.35735 0
M  V30 1788 H 156.539 0.545727 -3.62515 0
M  V30 1789 H 156.187 2.98537 -4.04827 0
M  V30 1790 H 155.887 2.02269 -5.51689 0
M  V30 1791 H 157.411 2.94032 -5.35143 0
M  V30 1792 H 158.825 0.694375 -5.69079 0
M  V30 1793 H 157.222 -0.0335027 -6.00091 0
M  V30 1794 H 158.292 -0.760961 -4.78892 0
M  V30 1795 N 159.635 1.57281 -0.100228 0
M  V30 1796 C 160.882 1.94537 0.562268 0
M  V30 1797 C 161.21 0.982315 1.67871 0
M  V30 1798 O 160.465 0.00280936 1.957 0
M  V30 1799 C 160.764 3.38305 1.15259 0
M  V30 1800 C 160.43 4.50618 0.159409 0
M  V30 1801 C 159.092 4.81066 -0.113741 0
M  V30 1802 C 161.444 5.18615 -0.518461 0
M  V30 1803 C 158.772 5.76835 -1.07137 0
M  V30 1804 C 161.124 6.15412 -1.46459 0
M  V30 1805 C 159.788 6.44262 -1.74592 0
M  V30 1806 H 159.058 0.711863 0.205748 0
M  V30 1807 H 161.705 1.90679 -0.17715 0
M  V30 1808 H 160.01 3.38766 1.96836 0
M  V30 1809 H 161.707 3.64435 1.67297 0
M  V30 1810 H 158.297 4.2689 0.382491 0
M  V30 1811 H 162.481 4.95264 -0.320581 0
M  V30 1812 H 157.737 5.975 -1.29628 0
M  V30 1813 H 161.911 6.67194 -1.99564 0
M  V30 1814 H 159.538 7.1828 -2.48953 0
M  V30 1815 N 161.113 -0.173488 1.56642 0
M  V30 1816 C 162.023 -1.23482 1.99473 0
M  V30 1817 C 163.039 -1.48567 0.905752 0
M  V30 1818 O 164.215 -1.60758 1.21321 0
M  V30 1819 C 161.28 -2.55444 2.34413 0
M  V30 1820 C 160.341 -2.38241 3.57127 0
M  V30 1821 C 159.574 -3.63909 3.90392 0
M  V30 1822 O 159.797 -4.68996 3.24653 0
M  V30 1823 O 158.731 -3.58149 4.83749 0
M  V30 1824 H 162.557 -0.901279 2.90018 0
M  V30 1825 H 160.142 -0.380185 1.44482 0
M  V30 1826 H 162.024 -3.33292 2.57865 0
M  V30 1827 H 160.699 -2.88382 1.4703 0
M  V30 1828 H 159.606 -1.58431 3.38896 0
M  V30 1829 H 160.939 -2.10228 4.45045 0
M  V30 1830 N 162.591 -1.51276 -0.441967 0
M  V30 1831 C 163.84 -1.6295 -1.18871 0
M  V30 1832 C 164.153 -0.349312 -1.92456 0
M  V30 1833 O 165.359 -0.345355 -2.69295 0
M  V30 1834 C 163.815 -2.87759 -2.16155 0
M  V30 1835 C 163.423 -4.22764 -1.48239 0
M  V30 1836 C 165.167 -3.08788 -2.91291 0
M  V30 1837 C 163.074 -5.38728 -2.4398 0
M  V30 1838 H 162.004 -0.606913 -0.447406 0
M  V30 1839 H 164.655 -1.77739 -0.456205 0
M  V30 1840 H 163.037 -2.66593 -2.92821 0
M  V30 1841 H 164.211 -4.54293 -0.771635 0
M  V30 1842 H 162.526 -4.07575 -0.852741 0
M  V30 1843 H 165.123 -3.92599 -3.63002 0
M  V30 1844 H 165.466 -2.21679 -3.5237 0
M  V30 1845 H 165.999 -3.30272 -2.21733 0
M  V30 1846 H 162.738 -6.28082 -1.87598 0
M  V30 1847 H 162.258 -5.1158 -3.13123 0
M  V30 1848 H 163.937 -5.70489 -3.05207 0
M  V30 1849 N 164.069 0.697108 -1.41344 0
M  V30 1850 C 165.002 1.82134 -1.37486 0
M  V30 1851 C 165.98 1.60784 -0.242351 0
M  V30 1852 O 167.164 1.83553 -0.429012 0
M  V30 1853 C 164.291 3.18788 -1.14421 0
M  V30 1854 C 163.337 3.58932 -2.3037 0
M  V30 1855 S 164.17 3.63916 -3.92843 0
M  V30 1856 C 165.326 5.03298 -3.72078 0
M  V30 1857 H 165.559 1.85129 -2.32625 0
M  V30 1858 H 163.092 0.865671 -1.2785 0
M  V30 1859 H 165.05 3.97677 -1.018 0
M  V30 1860 H 163.711 3.13404 -0.20905 0
M  V30 1861 H 162.904 4.58202 -2.09922 0
M  V30 1862 H 162.506 2.87347 -2.39391 0
M  V30 1863 H 164.798 5.90753 -3.31688 0
M  V30 1864 H 165.741 5.28788 -4.70945 0
M  V30 1865 H 166.149 4.74764 -3.05384 0
M  V30 1866 N 165.547 1.27147 0.931209 0
M  V30 1867 C 166.494 1.09568 2.03134 0
M  V30 1868 C 167.464 -0.00222433 1.661 0
M  V30 1869 O 168.649 0.159439 1.90133 0
M  V30 1870 C 165.789 0.745231 3.36957 0
M  V30 1871 C 164.902 1.92041 3.86968 0
M  V30 1872 C 164.037 1.51216 5.09222 0
M  V30 1873 C 163.076 2.65504 5.5152 0
M  V30 1874 N 162.213 2.25291 6.64972 0
M  V30 1875 H 167.053 2.03708 2.17502 0
M  V30 1876 H 164.59 1.01411 1.06556 0
M  V30 1877 H 166.548 0.522878 4.1391 0
M  V30 1878 H 165.178 -0.159202 3.22407 0
M  V30 1879 H 164.23 2.25541 3.06326 0
M  V30 1880 H 165.542 2.77787 4.1429 0
M  V30 1881 H 164.696 1.25084 5.93666 0
M  V30 1882 H 163.435 0.625749 4.83669 0
M  V30 1883 H 162.44 2.92354 4.65628 0
M  V30 1884 H 163.665 3.54761 5.7907 0
M  V30 1885 H 161.611 1.39098 6.41083 0
M  V30 1886 H 161.528 3.04577 6.91931 0
M  V30 1887 H 162.796 2.02398 7.52765 0
M  V30 1888 N 167.025 -1.13721 1.09112 0
M  V30 1889 C 168.274 -1.84275 0.82009 0
M  V30 1890 C 168.587 -1.84253 -0.656509 0
M  V30 1891 O 169.793 -2.50668 -1.04296 0
M  V30 1892 C 168.249 -3.30825 1.41714 0
M  V30 1893 C 167.857 -3.39244 2.92605 0
M  V30 1894 C 169.601 -4.06443 1.22492 0
M  V30 1895 C 167.508 -4.80047 3.45411 0
M  V30 1896 H 166.438 -0.690387 0.30312 0
M  V30 1897 H 169.089 -1.28146 1.31343 0
M  V30 1898 H 167.471 -3.86737 0.851498 0
M  V30 1899 H 168.645 -2.93344 3.55367 0
M  V30 1900 H 166.96 -2.77088 3.10823 0
M  V30 1901 H 169.557 -5.10387 1.59402 0
M  V30 1902 H 169.9 -4.15972 0.165299 0
M  V30 1903 H 170.433 -3.56852 1.75788 0
M  V30 1904 H 167.172 -4.75709 4.50978 0
M  V30 1905 H 166.692 -5.26455 2.87411 0
M  V30 1906 H 168.371 -5.48957 3.42425 0
M  V30 1907 N 168.503 -0.877838 -1.30888 0
M  V30 1908 C 169.433 -0.35534 -2.3078 0
M  V30 1909 C 170.414 0.557994 -1.60687 0
M  V30 1910 O 171.599 0.473355 -1.88343 0
M  V30 1911 C 168.729 0.437221 -3.44537 0
M  V30 1912 C 167.683 -0.383715 -4.26276 0
M  V30 1913 C 167.009 0.535014 -5.32017 0
M  V30 1914 C 168.309 -1.62201 -4.96476 0
M  V30 1915 H 170.003 -1.19007 -2.74732 0
M  V30 1916 H 167.549 -0.573698 -1.32078 0
M  V30 1917 H 169.502 0.813334 -4.13477 0
M  V30 1918 H 168.226 1.30553 -2.99372 0
M  V30 1919 H 166.885 -0.741874 -3.59015 0
M  V30 1920 H 166.533 1.40083 -4.831 0
M  V30 1921 H 166.233 -0.0104211 -5.87599 0
M  V30 1922 H 167.757 0.907799 -6.03814 0
M  V30 1923 H 169.171 -1.31689 -5.5797 0
M  V30 1924 H 167.568 -2.10711 -5.61891 0
M  V30 1925 H 168.638 -2.37044 -4.23011 0
M  V30 1926 N 169.982 1.44106 -0.638065 0
M  V30 1927 C 171.231 2.01194 -0.142744 0
M  V30 1928 C 171.544 1.50835 1.24532 0
M  V30 1929 O 172.75 2.00096 1.83504 0
M  V30 1930 C 171.206 3.59319 -0.20442 0
M  V30 1931 C 170.814 4.18674 -1.59423 0
M  V30 1932 C 172.558 4.23854 0.234079 0
M  V30 1933 C 170.465 5.69045 -1.61065 0
M  V30 1934 H 169.395 0.752367 -0.0495998 0
M  V30 1935 H 172.046 1.65246 -0.797881 0
M  V30 1936 H 170.428 3.92598 0.517946 0
M  V30 1937 H 171.602 3.96921 -2.34074 0
M  V30 1938 H 169.917 3.66453 -1.97741 0
M  V30 1939 H 172.514 5.34155 0.241443 0
M  V30 1940 H 172.857 3.96688 1.2627 0
M  V30 1941 H 173.39 3.95403 -0.436025 0
M  V30 1942 H 170.129 6.00956 -2.61787 0
M  V30 1943 H 169.649 5.929 -0.90718 0
M  V30 1944 H 171.328 6.32809 -1.34766 0
M  V30 1945 N 171.46 0.379036 1.52974 0
M  V30 1946 C 172.41 -0.477772 2.22938 0
M  V30 1947 C 173.394 -1.03792 1.22948 0
M  V30 1948 O 174.586 -0.965725 1.48333 0
M  V30 1949 C 171.715 -1.60994 3.03209 0
M  V30 1950 C 170.801 -1.06203 4.10587 0
M  V30 1951 N 171.192 -0.238214 5.05239 0
M  V30 1952 C 169.49 -1.33554 4.25534 0
M  V30 1953 C 170.191 0.0633235 5.81666 0
M  V30 1954 N 169.167 -0.537901 5.40932 0
M  V30 1955 H 172.969 0.158295 2.93473 0
M  V30 1956 H 170.483 0.187778 1.61311 0
M  V30 1957 H 172.48 -2.23607 3.5186 0
M  V30 1958 H 171.14 -2.24893 2.34207 0
M  V30 1959 H 172.151 0.123695 5.17752 0
M  V30 1960 H 168.828 -1.97632 3.6776 0
M  V30 1961 H 170.218 0.730161 6.67921 0
M  V30 1962 N 172.938 -1.57226 0.108567 0
M  V30 1963 C 173.886 -2.16002 -0.862885 0
M  V30 1964 C 174.88 -1.10644 -1.28274 0
M  V30 1965 O 176.086 -1.28966 -1.2557 0
M  V30 1966 H 172.461 -0.691148 -0.296342 0
M  V30 1967 H 174.432 -2.96427 -0.342575 0
M  V30 1968 C 173.181 -2.76576 -2.10716 0
M  V30 1969 H 172.504 -3.5734 -1.793 0
M  V30 1970 H 173.944 -3.21253 -2.76717 0
M  V30 1971 C 172.403 -1.73137 -2.89007 0
M  V30 1972 O 172.933 -1.17842 -3.84026 0
M  V30 1973 N 171.139 -1.43317 -2.52801 0
M  V30 1974 H 170.686 -1.88473 -1.75601 0
M  V30 1975 H 170.644 -0.743485 -3.05483 0
M  V30 1976 N 174.416 0.165178 -1.56732 0
M  V30 1977 C 175.364 1.22369 -1.97809 0
M  V30 1978 C 176.358 1.45488 -0.867741 0
M  V30 1979 O 177.564 1.45995 -1.05288 0
M  V30 1980 H 173.939 0.411486 -0.629431 0
M  V30 1981 H 175.91 0.850425 -2.86025 0
M  V30 1982 C 174.659 2.55403 -2.35934 0
M  V30 1983 H 173.982 2.38438 -3.20916 0
M  V30 1984 H 175.422 3.2814 -2.68514 0
M  V30 1985 C 173.881 3.14611 -1.20506 0
M  V30 1986 O 174.411 3.98626 -0.496016 0
M  V30 1987 N 172.617 2.7379 -0.97403 0
M  V30 1988 H 172.164 2.0557 -1.55238 0
M  V30 1989 H 172.122 3.1374 -0.203573 0
M  V30 1990 N 175.894 1.51508 0.433938 0
M  V30 1991 C 177.141 1.64345 1.18309 0
M  V30 1992 C 177.469 0.361315 1.91115 0
M  V30 1993 O 176.724 -0.654753 1.84422 0
M  V30 1994 C 177.023 2.79928 2.22205 0
M  V30 1995 C 176.689 4.19078 1.66387 0
M  V30 1996 C 175.351 4.56932 1.50887 0
M  V30 1997 C 177.703 5.05894 1.25381 0
M  V30 1998 C 175.031 5.79305 0.928608 0
M  V30 1999 C 177.383 6.2885 0.687823 0
M  V30 2000 C 176.047 6.65473 0.519755 0
M  V30 2001 H 175.317 0.601381 0.432923 0
M  V30 2002 H 177.964 1.85549 0.473676 0
M  V30 2003 H 176.269 2.52959 2.99197 0
M  V30 2004 H 177.966 2.87059 2.79997 0
M  V30 2005 H 174.556 3.89234 1.79428 0
M  V30 2006 H 178.74 4.77253 1.36175 0
M  V30 2007 H 173.996 6.06324 0.786186 0
M  V30 2008 H 178.17 6.95461 0.361581 0
M  V30 2009 H 175.797 7.6017 0.0679979 0
M  V30 2010 N 177.372 -0.689602 1.41712 0
M  V30 2011 C 178.783 -1.26973 1.36875 0
M  V30 2012 C 179.134 -1.96124 0.054748 0
M  V30 2013 O 178.259 -1.99141 -0.84687 0
M  V30 2014 C 178.854 -2.30912 2.47922 0
M  V30 2015 C 177.413 -2.84486 2.46464 0
M  V30 2016 C 176.56 -1.58603 2.27465 0
M  V30 2017 H 179.511 -0.48396 1.51141 0
M  V30 2018 H 179.532 -3.12331 2.17323 0
M  V30 2019 H 179.044 -1.80554 3.43543 0
M  V30 2020 H 177.145 -3.39005 1.54617 0
M  V30 2021 H 177.258 -3.34511 3.42986 0
M  V30 2022 H 175.622 -1.84632 1.75451 0
M  V30 2023 H 176.405 -1.10233 3.25121 0
M  V30 2024 N 178.85 -1.27639 -0.924453 0
M  V30 2025 C 180.127 -1.04887 -1.651 0
M  V30 2026 C 180.507 0.415327 -2.06974 0
M  V30 2027 O 179.855 1.39923 -1.80648 0
M  V30 2028 C 180.065 -2.01348 -2.85061 0
M  V30 2029 C 181.413 -2.30899 -3.56329 0
M  V30 2030 O 182.437 -1.99348 -2.95193 0
M  V30 2031 O 181.296 -2.84699 -4.66485 0
M  V30 2032 H 178.39 -0.400083 -0.723784 0
M  V30 2033 H 180.936 -1.38916 -0.974703 0
M  V30 2034 H 179.708 -3.0008 -2.51133 0
M  V30 2035 H 179.331 -1.679 -3.6041 0
M  V30 2036 N 180.328 1.1314 -1.09713 0
M  V30 2037 C 181.276 2.20717 -0.733934 0
M  V30 2038 C 182.27 1.6729 0.266506 0
M  V30 2039 O 183.476 1.79547 0.127656 0
M  V30 2040 H 179.851 0.719292 -0.21937 0
M  V30 2041 H 181.822 2.48611 -1.6503 0
M  V30 2042 C 180.571 3.47265 -0.173849 0
M  V30 2043 H 179.894 3.88716 -0.934873 0
M  V30 2044 H 181.334 4.23979 0.0423126 0
M  V30 2045 C 179.793 3.18724 1.09164 0
M  V30 2046 O 180.323 3.37762 2.17439 0
M  V30 2047 N 178.529 2.72583 1.00732 0
M  V30 2048 H 178.076 2.57291 0.126121 0
M  V30 2049 H 178.034 2.53862 1.85476 0
M  V30 2050 N 181.806 0.884767 1.30421 0
M  V30 2051 C 183.053 0.503105 1.96151 0
M  V30 2052 C 183.381 -0.947676 1.69851 0
M  V30 2053 O 182.636 -1.68467 0.995861 0
M  V30 2054 C 182.935 0.724318 3.49983 0
M  V30 2055 C 182.601 2.15015 3.96332 0
M  V30 2056 C 181.263 2.54005 4.08699 0
M  V30 2057 C 183.615 3.07936 4.20505 0
M  V30 2058 C 180.943 3.85128 4.42599 0
M  V30 2059 C 183.295 4.3859 4.55874 0
M  V30 2060 C 181.959 4.77474 4.66449 0
M  V30 2061 H 181.229 0.184099 0.717766 0
M  V30 2062 H 183.876 1.12058 1.55291 0
M  V30 2063 H 182.181 0.0238086 3.91793 0
M  V30 2064 H 183.878 0.408617 3.98913 0
M  V30 2065 H 180.468 1.8375 3.87213 0
M  V30 2066 H 184.652 2.79033 4.10431 0
M  V30 2067 H 179.908 4.14996 4.48986 0
M  V30 2068 H 184.082 5.10629 4.7353 0
M  V30 2069 H 181.709 5.79115 4.92473 0
M  V30 2070 N 183.284 -1.43765 0.645699 0
M  V30 2071 C 184.509 -2.06767 0.161883 0
M  V30 2072 C 184.934 -1.48034 -1.16049 0
M  V30 2073 O 184.292 -0.587369 -1.71522 0
M  V30 2074 C 184.34 -3.60519 0.0762003 0
M  V30 2075 O 183.444 -4.00982 -0.963721 0
M  V30 2076 H 182.785 -0.657675 0.091429 0
M  V30 2077 H 185.315 -1.84397 0.886499 0
M  V30 2078 H 185.325 -4.07853 -0.109604 0
M  V30 2079 H 184 -4.02646 1.04157 0
M  V30 2080 H 182.577 -3.65253 -0.751312 0
M  V30 2081 N 184.763 -0.387143 -1.52771 0
M  V30 2082 C 185.693 0.440551 -2.29306 0
M  V30 2083 C 186.674 1.06535 -1.32606 0
M  V30 2084 O 187.859 1.07853 -1.61497 0
M  V30 2085 C 184.989 1.56919 -3.09829 0
M  V30 2086 C 183.943 1.07054 -4.14395 0
M  V30 2087 C 183.269 2.29109 -4.83129 0
M  V30 2088 C 184.569 0.140015 -5.22112 0
M  V30 2089 H 186.263 -0.198026 -2.98744 0
M  V30 2090 H 183.809 -0.09668 -1.43675 0
M  V30 2091 H 185.762 2.15503 -3.62128 0
M  V30 2092 H 184.486 2.23532 -2.3812 0
M  V30 2093 H 183.145 0.507247 -3.63074 0
M  V30 2094 H 182.793 2.94227 -4.0797 0
M  V30 2095 H 182.493 1.96406 -5.53804 0
M  V30 2096 H 184.017 2.88339 -5.38231 0
M  V30 2097 H 185.431 0.633978 -5.69784 0
M  V30 2098 H 183.828 -0.0971485 -6.00021 0
M  V30 2099 H 184.898 -0.811711 -4.78058 0
M  V30 2100 N 186.241 1.57166 -0.116904 0
M  V30 2101 C 187.171 2.18222 0.830759 0
M  V30 2102 C 188.152 1.12167 1.27877 0
M  V30 2103 O 189.337 1.40394 1.34176 0
M  V30 2104 C 186.467 2.77996 2.08172 0
M  V30 2105 C 185.421 3.89614 1.77157 0
M  V30 2106 C 184.747 4.36187 3.09265 0
M  V30 2107 C 186.047 5.1181 1.04151 0
M  V30 2108 H 187.741 2.97664 0.321992 0
M  V30 2109 H 185.287 1.4318 0.153434 0
M  V30 2110 H 187.24 3.19366 2.74924 0
M  V30 2111 H 185.964 1.9584 2.6137 0
M  V30 2112 H 184.623 3.48816 1.12796 0
M  V30 2113 H 184.271 3.50893 3.60393 0
M  V30 2114 H 183.971 5.11455 2.89288 0
M  V30 2115 H 185.495 4.80207 3.77139 0
M  V30 2116 H 186.909 5.50214 1.61052 0
M  V30 2117 H 185.306 5.92648 0.942762 0
M  V30 2118 H 186.376 4.84892 0.0279022 0
M  V30 2119 N 187.719 -0.156864 1.56817 0
M  V30 2120 C 188.629 -1.2136 2.00771 0
M  V30 2121 C 189.645 -1.47598 0.921459 0
M  V30 2122 O 190.821 -1.59462 1.2302 0
M  V30 2123 C 187.886 -2.52943 2.37109 0
M  V30 2124 C 186.947 -2.34439 3.59634 0
M  V30 2125 C 186.18 -3.59748 3.94229 0
M  V30 2126 O 186.403 -4.65526 3.29609 0
M  V30 2127 O 185.337 -3.52998 4.8752 0
M  V30 2128 H 189.163 -0.870468 2.90958 0
M  V30 2129 H 186.748 -0.36484 1.44877 0
M  V30 2130 H 188.63 -3.30538 2.61386 0
M  V30 2131 H 187.305 -2.86806 1.5008 0
M  V30 2132 H 186.212 -1.54828 3.40557 0
M  V30 2133 H 187.545 -2.05496 4.4725 0
M  V30 2134 N 189.197 -1.51736 -0.425897 0
M  V30 2135 C 190.145 -1.74464 -1.53834 0
M  V30 2136 C 191.139 -0.611241 -1.57988 0
M  V30 2137 O 192.345 -0.792899 -1.61596 0
M  V30 2138 H 188.72 -0.551437 -0.511293 0
M  V30 2139 H 190.691 -2.67694 -1.31843 0
M  V30 2140 C 189.44 -1.8972 -2.91379 0
M  V30 2141 H 188.763 -2.76344 -2.88919 0
M  V30 2142 H 190.203 -2.09629 -3.68553 0
M  V30 2143 C 188.662 -0.65992 -3.30374 0
M  V30 2144 O 189.192 0.180083 -4.01296 0
M  V30 2145 N 187.398 -0.500677 -2.86254 0
M  V30 2146 H 186.945 -1.18532 -2.28709 0
M  V30 2147 H 186.903 0.325903 -3.12706 0
M  V30 2148 N 190.675 0.682077 -1.42076 0
M  V30 2149 C 191.924 1.43786 -1.41451 0
M  V30 2150 C 192.237 1.95574 -0.0317074 0
M  V30 2151 O 193.443 2.71326 0.0971462 0
M  V30 2152 C 191.899 2.60071 -2.48779 0
M  V30 2153 C 191.507 2.15013 -3.93031 0
M  V30 2154 C 193.251 3.37626 -2.57311 0
M  V30 2155 C 191.158 3.28336 -4.91883 0
M  V30 2156 H 190.088 0.540143 -0.526082 0
M  V30 2157 H 192.739 0.739157 -1.67955 0
M  V30 2158 H 191.121 3.32275 -2.15429 0
M  V30 2159 H 192.295 1.5001 -4.35699 0
M  V30 2160 H 190.61 1.50416 -3.88284 0
M  V30 2161 H 193.207 4.22012 -3.28345 0
M  V30 2162 H 193.55 3.83727 -1.61429 0
M  V30 2163 H 194.083 2.72488 -2.89819 0
M  V30 2164 H 190.822 2.87234 -5.89217 0
M  V30 2165 H 190.342 3.92145 -4.53853 0
M  V30 2166 H 192.021 3.93913 -5.13265 0
M  V30 2167 N 192.153 1.28127 0.917671 0
M  V30 2168 C 193.083 1.14248 2.03641 0
M  V30 2169 C 194.064 0.0412748 1.7005 0
M  V30 2170 O 195.249 0.217566 1.92977 0
M  V30 2171 C 192.379 0.799431 3.37974 0
M  V30 2172 C 191.333 1.85497 3.85713 0
M  V30 2173 C 190.659 1.36565 5.16966 0
M  V30 2174 C 191.959 3.26085 4.08002 0
M  V30 2175 H 193.653 2.07835 2.15511 0
M  V30 2176 H 191.199 1.00064 1.03553 0
M  V30 2177 H 193.152 0.689114 4.15727 0
M  V30 2178 H 191.876 -0.172145 3.26146 0
M  V30 2179 H 190.535 1.95437 3.10161 0
M  V30 2180 H 190.183 0.383253 5.01538 0
M  V30 2181 H 189.883 2.07143 5.49878 0
M  V30 2182 H 191.407 1.26848 5.97279 0
M  V30 2183 H 192.821 3.19089 4.76293 0
M  V30 2184 H 191.218 3.94462 4.52238 0
M  V30 2185 H 192.288 3.70394 3.12948 0
M  V30 2186 N 193.631 -1.12557 1.10312 0
M  V30 2187 C 194.541 -2.21841 0.763142 0
M  V30 2188 C 195.557 -1.72354 -0.238801 0
M  V30 2189 O 196.733 -2.01249 -0.0778746 0
M  V30 2190 C 193.798 -3.46131 0.198632 0
M  V30 2191 C 192.859 -4.10464 1.25769 0
M  V30 2192 C 192.092 -5.28821 0.72002 0
M  V30 2193 O 192.315 -5.6859 -0.453993 0
M  V30 2194 O 191.249 -5.83437 1.47935 0
M  V30 2195 H 195.075 -2.53312 1.67532 0
M  V30 2196 H 192.66 -1.20867 0.878157 0
M  V30 2197 H 194.542 -4.2125 -0.112401 0
M  V30 2198 H 193.217 -3.16338 -0.686419 0
M  V30 2199 H 192.124 -3.3713 1.62156 0
M  V30 2200 H 193.457 -4.44408 2.11571 0
M  V30 2201 N 195.109 -0.891671 -1.2995 0
M  V30 2202 C 196.386 -0.433307 -1.9074 0
M  V30 2203 C 196.766 1.08646 -1.80995 0
M  V30 2204 O 196.114 1.92476 -1.23147 0
M  V30 2205 C 196.324 -0.938895 -3.36134 0
M  V30 2206 C 197.672 -0.977829 -4.13187 0
M  V30 2207 O 198.696 -0.886015 -3.45005 0
M  V30 2208 O 197.555 -1.11453 -5.35015 0
M  V30 2209 H 194.649 -0.133699 -0.816121 0
M  V30 2210 H 197.195 -0.981011 -1.38471 0
M  V30 2211 H 195.967 -1.98281 -3.37343 0
M  V30 2212 H 195.59 -0.37074 -3.95868 0
M  V30 2213 N 196.587 1.43421 -0.653314 0
M  V30 2214 C 197.52 2.2803 0.0879804 0
M  V30 2215 C 198.498 1.39833 0.82979 0
M  V30 2216 O 199.682 1.69275 0.829341 0
M  V30 2217 C 196.809 3.19247 1.13132 0
M  V30 2218 C 195.855 4.23704 0.487546 0
M  V30 2219 S 196.688 5.30377 -0.738961 0
M  V30 2220 C 197.844 6.25162 0.30384 0
M  V30 2221 H 198.077 2.90554 -0.629739 0
M  V30 2222 H 195.61 1.47934 -0.442156 0
M  V30 2223 H 197.568 3.72346 1.72827 0
M  V30 2224 H 196.229 2.55901 1.82136 0
M  V30 2225 H 195.422 4.87631 1.27407 0
M  V30 2226 H 195.024 3.73983 -0.0352915 0
M  V30 2227 H 197.316 6.67321 1.17 0
M  V30 2228 H 198.259 7.07463 -0.300402 0
M  V30 2229 H 198.667 5.60864 0.63969 0
M  V30 2230 N 198.065 0.39524 1.52563 0
M  V30 2231 C 199.013 -0.451859 2.28169 0
M  V30 2232 C 200.007 -1.05792 1.32304 0
M  V30 2233 O 201.213 -0.997718 1.49818 0
M  V30 2234 H 197.588 -0.164481 0.733792 0
M  V30 2235 H 199.559 0.207199 2.9768 0
M  V30 2236 C 198.308 -1.56385 3.10546 0
M  V30 2237 H 197.631 -1.10682 3.84174 0
M  V30 2238 H 199.071 -2.13067 3.66577 0
M  V30 2239 C 197.53 -2.52328 2.23231 0
M  V30 2240 O 198.06 -3.5588 1.86312 0
M  V30 2241 N 196.266 -2.22209 1.87274 0
M  V30 2242 H 195.813 -1.38033 2.17496 0
M  V30 2243 H 195.771 -2.86652 1.29143 0
M  V30 2244 N 199.544 -1.57102 0.125237 0
M  V30 2245 C 200.476 -2.12726 -0.853237 0
M  V30 2246 C 201.489 -1.07145 -1.22571 0
M  V30 2247 O 202.678 -1.34497 -1.17358 0
M  V30 2248 C 199.778 -2.61709 -2.15317 0
M  V30 2249 C 198.951 -3.91456 -1.95143 0
M  V30 2250 C 198.01 -4.25973 -3.08923 0
M  V30 2251 O 197.036 -4.94682 -2.81564 0
M  V30 2252 N 198.238 -3.83795 -4.35524 0
M  V30 2253 H 201.003 -2.97307 -0.377964 0
M  V30 2254 H 198.564 -1.61792 -0.0590011 0
M  V30 2255 H 200.556 -2.81826 -2.90441 0
M  V30 2256 H 199.126 -1.81974 -2.54174 0
M  V30 2257 H 198.346 -3.80185 -1.04177 0
M  V30 2258 H 199.634 -4.76283 -1.78976 0
M  V30 2259 H 199.032 -3.2839 -4.60626 0
M  V30 2260 H 197.589 -4.09008 -5.07499 0
M  V30 2261 N 201.022 0.148545 -1.56898 0
M  V30 2262 C 202.438 0.501131 -1.51528 0
M  V30 2263 C 202.638 1.83458 -0.833399 0
M  V30 2264 O 201.694 2.49259 -0.40328 0
M  V30 2265 C 203.007 0.512864 -2.96294 0
M  V30 2266 C 204.555 0.598487 -3.07225 0
M  V30 2267 C 205.03 0.640897 -4.53494 0
M  V30 2268 N 206.521 0.703163 -4.57832 0
M  V30 2269 C 207.256 0.756935 -5.68382 0
M  V30 2270 N 206.752 0.770147 -6.88506 0
M  V30 2271 N 208.545 0.797698 -5.56411 0
M  V30 2272 H 200.696 -0.725532 -1.99624 0
M  V30 2273 H 202.959 -0.264358 -0.910395 0
M  V30 2274 H 202.665 -0.398691 -3.49433 0
M  V30 2275 H 202.539 1.35133 -3.52163 0
M  V30 2276 H 204.926 1.50046 -2.54106 0
M  V30 2277 H 205.007 -0.267093 -2.54402 0
M  V30 2278 H 204.651 -0.256915 -5.0725 0
M  V30 2279 H 204.581 1.52295 -5.04097 0
M  V30 2280 H 207.072 0.700314 -3.71354 0
M  V30 2281 H 207.385 0.812983 -7.68512 0
M  V30 2282 H 205.73 0.738049 -6.9107 0
M  V30 2283 H 208.921 0.784535 -4.61479 0
M  V30 2284 H 209.094 0.83614 -6.42583 0
M  V30 2285 N 202.5 1.5196 0.417844 0
M  V30 2286 C 203.447 1.74678 1.50852 0
M  V30 2287 C 204.417 0.588947 1.55308 0
M  V30 2288 O 205.602 0.825544 1.72016 0
M  V30 2289 C 202.742 1.89544 2.88387 0
M  V30 2290 C 201.855 3.17166 2.93309 0
M  V30 2291 C 200.99 3.22513 4.22088 0
M  V30 2292 C 200.029 4.44372 4.20951 0
M  V30 2293 N 199.166 4.47161 5.41287 0
M  V30 2294 H 204.006 2.67768 1.30783 0
M  V30 2295 H 201.543 1.32689 0.63498 0
M  V30 2296 H 203.501 1.96146 3.68216 0
M  V30 2297 H 202.131 0.998424 3.06971 0
M  V30 2298 H 201.183 3.19778 2.06024 0
M  V30 2299 H 202.495 4.07021 2.88332 0
M  V30 2300 H 201.649 3.28139 5.10303 0
M  V30 2301 H 200.388 2.30581 4.29748 0
M  V30 2302 H 199.393 4.38902 3.31127 0
M  V30 2303 H 200.618 5.3759 4.14938 0
M  V30 2304 H 198.564 3.58108 5.49632 0
M  V30 2305 H 198.481 5.3085 5.3827 0
M  V30 2306 H 199.749 4.57005 6.3148 0
M  V30 2307 N 203.978 -0.674533 1.42435 0
M  V30 2308 C 205.255 -1.4305 1.33402 0
M  V30 2309 C 205.635 -2.11081 -0.0284674 0
M  V30 2310 O 204.983 -2.03257 -1.04397 0
M  V30 2311 C 205.193 -2.43272 2.50239 0
M  V30 2312 C 206.541 -3.07907 2.92367 0
M  V30 2313 O 207.565 -2.53599 2.50132 0
M  V30 2314 O 206.424 -4.0632 3.65467 0
M  V30 2315 H 203.518 -0.638076 0.526106 0
M  V30 2316 H 206.064 -0.703235 1.54443 0
M  V30 2317 H 204.836 -1.91803 3.41068 0
M  V30 2318 H 204.459 -3.23479 2.31186 0
M  V30 2319 N 205.456 -1.28612 -0.910864 0
M  V30 2320 C 206.703 -1.15934 -1.66029 0
M  V30 2321 C 207.031 0.291483 -1.92303 0
M  V30 2322 O 206.286 1.22816 -1.52364 0
M  V30 2323 C 206.585 -1.90624 -3.0232 0
M  V30 2324 C 206.251 -3.40405 -2.95695 0
M  V30 2325 C 204.913 -3.81255 -2.93595 0
M  V30 2326 C 207.265 -4.359 -2.85728 0
M  V30 2327 C 204.593 -5.15936 -2.79334 0
M  V30 2328 C 206.945 -5.70657 -2.73007 0
M  V30 2329 C 205.609 -6.10779 -2.69267 0
M  V30 2330 H 204.879 -0.424234 -0.607541 0
M  V30 2331 H 207.526 -1.5942 -1.06101 0
M  V30 2332 H 205.831 -1.39696 -3.6605 0
M  V30 2333 H 207.528 -1.78228 -3.59215 0
M  V30 2334 H 204.118 -3.07927 -2.98125 0
M  V30 2335 H 208.302 -4.053 -2.86436 0
M  V30 2336 H 203.558 -5.46146 -2.74835 0
M  V30 2337 H 207.732 -6.44311 -2.64264 0
M  V30 2338 H 205.359 -7.1509 -2.57974 0
M  V30 2339 N 206.934 1.1197 -1.10907 0
M  V30 2340 C 208.35 1.35591 -0.841852 0
M  V30 2341 C 208.55 1.94233 0.536246 0
M  V30 2342 O 207.606 2.1717 1.28816 0
M  V30 2343 C 208.919 2.29284 -1.94549 0
M  V30 2344 C 210.467 2.42862 -1.97451 0
M  V30 2345 C 210.942 3.39873 -3.07002 0
M  V30 2346 N 212.433 3.47433 -3.06341 0
M  V30 2347 C 213.168 4.22421 -3.87748 0
M  V30 2348 N 212.664 5.00432 -4.79103 0
M  V30 2349 N 214.457 4.17876 -3.75946 0
M  V30 2350 H 206.608 0.722664 -1.99728 0
M  V30 2351 H 208.871 0.380635 -0.868229 0
M  V30 2352 H 208.577 1.93378 -2.93765 0
M  V30 2353 H 208.451 3.29452 -1.83688 0
M  V30 2354 H 210.838 2.78046 -0.988645 0
M  V30 2355 H 210.919 1.42566 -2.12388 0
M  V30 2356 H 210.563 3.05417 -4.05811 0
M  V30 2357 H 210.493 4.40011 -2.89306 0
M  V30 2358 H 212.984 2.91784 -2.40147 0
M  V30 2359 H 213.297 5.55002 -5.37766 0
M  V30 2360 H 211.642 4.99612 -4.83128 0
M  V30 2361 H 214.833 3.56016 -3.03924 0
M  V30 2362 H 215.006 4.76061 -4.39624 0
M  V30 2363 N 208.412 0.89855 1.29475 0
M  V30 2364 C 209.828 0.594483 1.48115 0
M  V30 2365 C 210.028 -0.86431 1.82022 0
M  V30 2366 O 209.084 -1.64457 1.91599 0
M  V30 2367 C 210.397 1.51932 2.59494 0
M  V30 2368 C 211.945 1.5244 2.7337 0
M  V30 2369 C 212.42 2.43548 3.87877 0
M  V30 2370 N 213.911 2.41589 3.95208 0
M  V30 2371 C 214.646 3.08789 4.83153 0
M  V30 2372 N 214.142 3.85265 5.75798 0
M  V30 2373 N 215.935 2.97952 4.76635 0
M  V30 2374 H 208.086 1.84207 1.05742 0
M  V30 2375 H 210.349 0.789251 0.525154 0
M  V30 2376 H 210.055 2.55865 2.41301 0
M  V30 2377 H 209.929 1.23899 3.56271 0
M  V30 2378 H 212.316 0.492518 2.90961 0
M  V30 2379 H 212.397 1.8451 1.77172 0
M  V30 2380 H 212.041 3.46829 3.71041 0
M  V30 2381 H 211.971 2.08788 4.83441 0
M  V30 2382 H 214.462 1.86025 3.28943 0
M  V30 2383 H 214.775 4.33598 6.39697 0
M  V30 2384 H 213.12 3.89371 5.75687 0
M  V30 2385 H 216.311 2.37723 4.03244 0
M  V30 2386 H 216.484 3.50599 5.44962 0
M  V30 2387 N 209.89 -1.43072 0.660911 0
M  V30 2388 C 210.82 -2.33497 -0.0122829 0
M  V30 2389 C 211.801 -1.49903 -0.803925 0
M  V30 2390 O 212.986 -1.78546 -0.763864 0
M  V30 2391 C 210.116 -3.33363 -0.973994 0
M  V30 2392 C 209.07 -4.27003 -0.291928 0
M  V30 2393 C 208.396 -5.16967 -1.36562 0
M  V30 2394 C 209.696 -5.15816 0.820462 0
M  V30 2395 H 211.39 -2.90038 0.742873 0
M  V30 2396 H 208.936 -1.39461 0.358688 0
M  V30 2397 H 210.889 -3.95524 -1.45392 0
M  V30 2398 H 209.613 -2.75095 -1.7604 0
M  V30 2399 H 208.272 -3.66217 0.167623 0
M  V30 2400 H 207.92 -4.55034 -2.14366 0
M  V30 2401 H 207.62 -5.80441 -0.914454 0
M  V30 2402 H 209.144 -5.82003 -1.84675 0
M  V30 2403 H 210.558 -5.71742 0.422366 0
M  V30 2404 H 208.955 -5.8805 1.19656 0
M  V30 2405 H 210.025 -4.55045 1.67518 0
M  V30 2406 N 211.368 -0.403325 -1.52352 0
M  V30 2407 C 212.598 0.17376 -2.05868 0
M  V30 2408 C 213.006 1.39898 -1.27378 0
M  V30 2409 O 212.349 1.80939 -0.31729 0
M  V30 2410 C 212.411 0.594756 -3.54546 0
M  V30 2411 C 212.075 -0.518926 -4.54044 0
M  V30 2412 C 213.072 -1.3807 -5.01231 0
M  V30 2413 C 210.757 -0.689961 -4.97539 0
M  V30 2414 C 212.751 -2.39852 -5.90551 0
M  V30 2415 C 210.438 -1.71109 -5.86656 0
M  V30 2416 C 211.436 -2.56378 -6.33056 0
M  V30 2417 O 211.124 -3.56743 -7.20409 0
M  V30 2418 H 210.856 0.0264951 -0.675481 0
M  V30 2419 H 213.41 -0.571179 -1.97299 0
M  V30 2420 H 211.64 1.39189 -3.60782 0
M  V30 2421 H 213.329 1.0991 -3.90736 0
M  V30 2422 H 214.095 -1.25994 -4.68349 0
M  V30 2423 H 209.974 -0.035939 -4.60986 0
M  V30 2424 H 213.518 -3.06441 -6.26689 0
M  V30 2425 H 209.415 -1.83218 -6.18952 0
M  V30 2426 H 210.183 -3.52918 -7.38506 0
M  V30 2427 N 212.846 1.57033 -0.133567 0
M  V30 2428 C 214.092 1.95976 0.521649 0
M  V30 2429 C 214.425 1.01779 1.65393 0
M  V30 2430 O 213.7 0.0576581 1.94415 0
M  V30 2431 C 213.983 3.44738 1.04057 0
M  V30 2432 C 213.836 4.49711 -0.0892897 0
M  V30 2433 C 215.155 3.95682 1.92675 0
M  V30 2434 H 212.274 0.712579 0.188149 0
M  V30 2435 H 214.916 1.88813 -0.212076 0
M  V30 2436 H 213.066 3.50973 1.66583 0
M  V30 2437 H 214.738 4.55565 -0.725152 0
M  V30 2438 H 212.981 4.27261 -0.750378 0
M  V30 2439 H 213.652 5.51099 0.315284 0
M  V30 2440 H 216.128 3.91841 1.39998 0
M  V30 2441 H 215.004 5.00262 2.25897 0
M  V30 2442 H 215.265 3.37239 2.85872 0
M  V30 2443 N 214.325 -0.140222 1.56975 0
M  V30 2444 C 215.55 -0.870414 1.88251 0
M  V30 2445 C 215.975 -1.73637 0.723312 0
M  V30 2446 O 215.333 -1.78329 -0.32689 0
M  V30 2447 C 215.381 -1.69737 3.18154 0
M  V30 2448 O 214.485 -2.80229 3.02565 0
M  V30 2449 H 213.826 -0.242025 0.61832 0
M  V30 2450 H 216.356 -0.128999 2.04193 0
M  V30 2451 H 216.366 -2.09099 3.50345 0
M  V30 2452 H 215.041 -1.06152 4.02125 0
M  V30 2453 H 213.618 -2.44224 2.81796 0
M  V30 2454 N 215.803 -1.52179 -0.40978 0
M  V30 2455 C 216.733 -1.78435 -1.5061 0
M  V30 2456 C 217.714 -0.635295 -1.57791 0
M  V30 2457 O 218.899 -0.880823 -1.73076 0
M  V30 2458 C 216.029 -1.93444 -2.88439 0
M  V30 2459 C 214.983 -3.09038 -2.96108 0
M  V30 2460 C 214.309 -3.09268 -4.36185 0
M  V30 2461 C 215.609 -4.48508 -2.67652 0
M  V30 2462 H 217.303 -2.70237 -1.28889 0
M  V30 2463 H 214.849 -1.30036 -0.618605 0
M  V30 2464 H 216.802 -2.10394 -3.65119 0
M  V30 2465 H 215.526 -0.983129 -3.11452 0
M  V30 2466 H 214.185 -2.91837 -2.21872 0
M  V30 2467 H 213.833 -2.11861 -4.56206 0
M  V30 2468 H 213.533 -3.86907 -4.42241 0
M  V30 2469 H 215.057 -3.28348 -5.14801 0
M  V30 2470 H 216.471 -4.65918 -3.34056 0
M  V30 2471 H 214.868 -5.28059 -2.85085 0
M  V30 2472 H 215.938 -4.56649 -1.63095 0
M  V30 2473 N 217.281 0.66697 -1.42791 0
M  V30 2474 C 218.511 1.45294 -1.46878 0
M  V30 2475 C 218.919 1.89027 -0.0809861 0
M  V30 2476 O 218.262 1.59219 0.916246 0
M  V30 2477 C 218.324 2.72908 -2.34012 0
M  V30 2478 C 217.988 2.51203 -3.81767 0
M  V30 2479 C 218.985 2.15302 -4.73224 0
M  V30 2480 C 216.67 2.65954 -4.26115 0
M  V30 2481 C 218.664 1.94431 -6.07022 0
M  V30 2482 C 216.351 2.44699 -5.59969 0
M  V30 2483 C 217.349 2.08992 -6.5024 0
M  V30 2484 O 217.037 1.87948 -7.81621 0
M  V30 2485 H 216.769 0.453306 -0.501487 0
M  V30 2486 H 219.323 0.826232 -1.88049 0
M  V30 2487 H 217.553 3.38089 -1.87703 0
M  V30 2488 H 219.242 3.34816 -2.29462 0
M  V30 2489 H 220.008 2.03495 -4.40244 0
M  V30 2490 H 215.887 2.92724 -3.56137 0
M  V30 2491 H 219.431 1.66484 -6.77443 0
M  V30 2492 H 215.328 2.56105 -5.9252 0
M  V30 2493 H 216.096 2.02483 -7.93059 0
M  V30 2494 N 218.759 1.29093 0.90403 0
M  V30 2495 C 219.999 1.18076 1.66845 0
M  V30 2496 C 220.363 -0.26436 1.90171 0
M  V30 2497 O 221.564 -0.497423 2.64157 0
M  V30 2498 C 219.835 1.96722 2.98388 0
M  V30 2499 S 221.394 2.0219 3.89441 0
M  V30 2500 H 218.212 0.421104 0.572881 0
M  V30 2501 H 220.814 1.63322 1.07453 0
M  V30 2502 H 219.518 3.00866 2.7912 0
M  V30 2503 H 219.049 1.52064 3.62823 0
M  V30 2504 H 221.064 1.13545 4.83034 0
M  V30 2505 N 220.237 -1.11381 1.11499 0
M  V30 2506 C 221.167 -2.19509 0.796125 0
M  V30 2507 C 222.148 -1.68458 -0.235796 0
M  V30 2508 O 223.333 -1.93947 -0.0991344 0
M  V30 2509 C 220.463 -3.46475 0.239205 0
M  V30 2510 C 219.417 -4.10744 1.20307 0
M  V30 2511 C 218.743 -5.32293 0.50683 0
M  V30 2512 C 220.043 -4.55597 2.55399 0
M  V30 2513 H 221.737 -2.46439 1.70024 0
M  V30 2514 H 219.283 -1.18446 0.818935 0
M  V30 2515 H 221.236 -4.214 0.00392006 0
M  V30 2516 H 219.96 -3.19006 -0.700206 0
M  V30 2517 H 218.619 -3.37813 1.42399 0
M  V30 2518 H 218.267 -5.01095 -0.437408 0
M  V30 2519 H 217.967 -5.76243 1.1497 0
M  V30 2520 H 219.491 -6.09956 0.280351 0
M  V30 2521 H 220.905 -5.21841 2.37391 0
M  V30 2522 H 219.302 -5.10363 3.15673 0
M  V30 2523 H 220.372 -3.69013 3.14575 0
M  V30 2524 N 221.715 -0.905404 -1.28997 0
M  V30 2525 C 222.662 -0.385892 -2.27551 0
M  V30 2526 C 223.632 0.535113 -1.57244 0
M  V30 2527 O 224.817 0.459119 -1.85194 0
M  V30 2528 C 221.957 0.375461 -3.43051 0
M  V30 2529 C 221.07 -0.577092 -4.28128 0
M  V30 2530 C 220.205 0.201879 -5.30816 0
M  V30 2531 C 219.244 -0.744829 -6.07551 0
M  V30 2532 N 218.381 9.42587e-05 -7.021 0
M  V30 2533 H 223.221 -1.23139 -2.71368 0
M  V30 2534 H 220.758 -0.618542 -1.33463 0
M  V30 2535 H 222.716 0.832992 -4.088 0
M  V30 2536 H 221.346 1.18537 -3.00248 0
M  V30 2537 H 220.398 -1.15315 -3.62501 0
M  V30 2538 H 221.71 -1.30152 -4.8152 0
M  V30 2539 H 220.864 0.720351 -6.02408 0
M  V30 2540 H 219.603 0.959413 -4.7817 0
M  V30 2541 H 218.608 -1.27475 -5.34818 0
M  V30 2542 H 219.833 -1.50178 -6.62286 0
M  V30 2543 H 217.779 0.739791 -6.51815 0
M  V30 2544 H 217.696 -0.664321 -7.53076 0
M  V30 2545 H 218.964 0.498644 -7.77903 0
M  V30 2546 N 223.193 1.4272 -0.668489 0
M  V30 2547 C 224.123 2.335 -0.000100175 0
M  V30 2548 C 225.104 1.50328 0.795964 0
M  V30 2549 O 226.289 1.78949 0.754385 0
M  V30 2550 C 223.419 3.33874 0.956302 0
M  V30 2551 C 222.373 4.27152 0.269278 0
M  V30 2552 C 221.699 5.17684 1.33818 0
M  V30 2553 C 222.999 5.15373 -0.847805 0
M  V30 2554 H 224.693 2.89639 -0.758244 0
M  V30 2555 H 222.239 1.39269 -0.366079 0
M  V30 2556 H 224.192 3.9629 1.43292 0
M  V30 2557 H 222.916 2.76025 1.74579 0
M  V30 2558 H 221.575 3.66123 -0.187042 0
M  V30 2559 H 221.223 4.56165 2.1195 0
M  V30 2560 H 220.923 5.80918 0.883659 0
M  V30 2561 H 222.447 5.82974 1.81586 0
M  V30 2562 H 223.861 5.7151 -0.452681 0
M  V30 2563 H 222.258 5.87407 -1.22773 0
M  V30 2564 H 223.328 4.5415 -1.69929 0
M  V30 2565 N 224.671 0.411399 1.52136 0
M  V30 2566 C 225.92 -0.165009 2.01024 0
M  V30 2567 C 226.233 -1.4603 1.30133 0
M  V30 2568 O 227.439 -2.1181 1.69849 0
M  V30 2569 C 225.895 -0.344618 3.58246 0
M  V30 2570 C 225.503 0.938716 4.38055 0
M  V30 2571 C 227.247 -0.876195 4.15359 0
M  V30 2572 C 225.154 0.726172 5.86925 0
M  V30 2573 H 224.084 -0.0654407 0.751155 0
M  V30 2574 H 226.735 0.537192 1.75461 0
M  V30 2575 H 225.117 -1.10921 3.80148 0
M  V30 2576 H 226.291 1.70963 4.27912 0
M  V30 2577 H 224.606 1.39688 3.92271 0
M  V30 2578 H 227.203 -1.05128 5.24263 0
M  V30 2579 H 227.546 -1.85152 3.7286 0
M  V30 2580 H 228.079 -0.170607 3.97434 0
M  V30 2581 H 224.818 1.67312 6.33788 0
M  V30 2582 H 224.338 -0.00540283 5.998 0
M  V30 2583 H 226.017 0.369231 6.45946 0
M  V30 2584 N 226.149 -1.5696 0.141893 0
M  V30 2585 C 227.396 -1.9596 -0.510492 0
M  V30 2586 C 227.724 -1.02648 -1.65208 0
M  V30 2587 O 226.979 -0.0546947 -1.95624 0
M  V30 2588 C 227.278 -3.41242 -1.06249 0
M  V30 2589 C 226.944 -4.50882 -0.0398791 0
M  V30 2590 C 225.606 -4.80595 0.241247 0
M  V30 2591 C 227.958 -5.17058 0.65578 0
M  V30 2592 C 225.286 -5.73792 1.22393 0
M  V30 2593 C 227.638 -6.11313 1.62724 0
M  V30 2594 C 226.302 -6.39407 1.91612 0
M  V30 2595 H 225.572 -0.717068 -0.186802 0
M  V30 2596 H 228.219 -1.90142 0.227643 0
M  V30 2597 H 226.524 -3.43866 -1.87785 0
M  V30 2598 H 228.221 -3.68742 -1.57576 0
M  V30 2599 H 224.811 -4.27754 -0.269174 0
M  V30 2600 H 228.995 -4.94239 0.451779 0
M  V30 2601 H 224.251 -5.93853 1.45424 0
M  V30 2602 H 228.425 -6.61668 2.17183 0
M  V30 2603 H 226.052 -7.11427 2.6791 0
M  V30 2604 N 227.627 0.131896 -1.57047 0
M  V30 2605 C 228.574 1.16236 -1.99393 0
M  V30 2606 C 229.544 1.41863 -0.863943 0
M  V30 2607 O 230.729 1.53946 -1.12718 0
M  V30 2608 C 227.869 2.48708 -2.39245 0
M  V30 2609 C 226.982 2.30127 -3.65603 0
M  V30 2610 C 226.117 3.55738 -3.94492 0
M  V30 2611 C 225.156 3.32259 -5.14073 0
M  V30 2612 N 224.293 4.50039 -5.38896 0
M  V30 2613 H 229.133 0.794251 -2.87221 0
M  V30 2614 H 226.67 0.380707 -1.42088 0
M  V30 2615 H 228.628 3.25969 -2.60384 0
M  V30 2616 H 227.258 2.83437 -1.54478 0
M  V30 2617 H 226.31 1.43845 -3.52154 0
M  V30 2618 H 227.622 2.08746 -4.5302 0
M  V30 2619 H 226.776 4.41423 -4.1621 0
M  V30 2620 H 225.515 3.80138 -3.05526 0
M  V30 2621 H 224.52 2.44963 -4.92212 0
M  V30 2622 H 225.745 3.09242 -6.04604 0
M  V30 2623 H 223.691 4.74584 -4.52886 0
M  V30 2624 H 223.608 4.31716 -6.2061 0
M  V30 2625 H 224.876 5.36895 -5.65123 0
M  V30 2626 N 229.106 1.52395 0.401703 0
M  V30 2627 C 230.053 1.76268 1.48991 0
M  V30 2628 C 231.023 0.605386 1.54675 0
M  V30 2629 O 232.208 0.843742 1.7113 0
M  V30 2630 C 229.348 1.92592 2.86361 0
M  V30 2631 C 228.461 3.20259 2.89928 0
M  V30 2632 C 227.596 3.26972 4.18644 0
M  V30 2633 C 226.635 4.48812 4.16214 0
M  V30 2634 N 225.772 4.52877 5.36514 0
M  V30 2635 H 230.612 2.6914 1.27935 0
M  V30 2636 H 228.149 1.33355 0.620871 0
M  V30 2637 H 230.107 2.0004 3.66115 0
M  V30 2638 H 228.737 1.03093 3.05895 0
M  V30 2639 H 227.789 3.21945 2.02621 0
M  V30 2640 H 229.101 4.10056 2.83999 0
M  V30 2641 H 228.255 3.33533 5.06794 0
M  V30 2642 H 226.994 2.35126 4.27278 0
M  V30 2643 H 225.999 4.4239 3.26453 0
M  V30 2644 H 227.224 5.41961 4.09213 0
M  V30 2645 H 225.17 3.63917 5.45802 0
M  V30 2646 H 225.087 5.36529 5.32609 0
M  V30 2647 H 226.355 4.63676 6.26597 0
M  V30 2648 N 230.584 -0.659388 1.43143 0
M  V30 2649 C 231.514 -1.78422 1.50625 0
M  V30 2650 C 232.495 -1.66216 0.361443 0
M  V30 2651 O 233.68 -1.85404 0.577834 0
M  V30 2652 C 230.81 -3.16815 1.42287 0
M  V30 2653 C 229.764 -3.43777 2.54954 0
M  V30 2654 C 229.09 -4.81905 2.31671 0
M  V30 2655 C 230.39 -3.39134 3.97222 0
M  V30 2656 H 232.084 -1.72417 2.44771 0
M  V30 2657 H 229.63 -0.828084 1.17808 0
M  V30 2658 H 231.583 -3.95253 1.46127 0
M  V30 2659 H 230.307 -3.23534 0.446435 0
M  V30 2660 H 228.966 -2.67707 2.50457 0
M  V30 2661 H 228.614 -4.85294 1.32284 0
M  V30 2662 H 228.314 -5.00906 3.07192 0
M  V30 2663 H 229.838 -5.62609 2.37284 0
M  V30 2664 H 231.252 -4.07518 4.03239 0
M  V30 2665 H 229.649 -3.69671 4.72719 0
M  V30 2666 H 230.719 -2.37426 4.22797 0
M  V30 2667 N 232.062 -1.29571 -0.897171 0
M  V30 2668 C 233.009 -1.14916 -2.00158 0
M  V30 2669 C 233.979 -0.0418149 -1.66047 0
M  V30 2670 O 235.164 -0.209793 -1.89643 0
M  V30 2671 C 232.304 -0.834307 -3.34863 0
M  V30 2672 C 231.417 -2.02234 -3.8174 0
M  V30 2673 C 230.552 -1.64664 -5.05034 0
M  V30 2674 C 229.591 -2.80033 -5.44286 0
M  V30 2675 N 228.728 -2.42843 -6.58765 0
M  V30 2676 H 233.568 -2.09403 -2.12025 0
M  V30 2677 H 231.105 -1.042 -1.0383 0
M  V30 2678 H 233.063 -0.632436 -4.12379 0
M  V30 2679 H 231.693 0.0736656 -3.22716 0
M  V30 2680 H 230.745 -2.33583 -3.00238 0
M  V30 2681 H 232.057 -2.88673 -4.06779 0
M  V30 2682 H 231.211 -1.4078 -5.9014 0
M  V30 2683 H 229.95 -0.753766 -4.8184 0
M  V30 2684 H 228.955 -3.04596 -4.57713 0
M  V30 2685 H 230.18 -3.69989 -5.6946 0
M  V30 2686 H 228.126 -1.56046 -6.3717 0
M  V30 2687 H 228.043 -3.22815 -6.83613 0
M  V30 2688 H 229.311 -2.22285 -7.47134 0
M  V30 2689 N 233.54 1.10788 -1.12088 0
M  V30 2690 C 234.789 1.82036 -0.868659 0
M  V30 2691 C 235.102 1.85929 0.607426 0
M  V30 2692 O 236.308 2.53346 0.97613 0
M  V30 2693 C 234.764 3.26951 -1.50435 0
M  V30 2694 C 234.372 3.31367 -3.01496 0
M  V30 2695 C 236.116 4.03053 -1.33225 0
M  V30 2696 C 234.023 4.7072 -3.58017 0
M  V30 2697 H 232.953 0.682108 -0.321318 0
M  V30 2698 H 235.604 1.24618 -1.34694 0
M  V30 2699 H 233.986 3.84343 -0.953735 0
M  V30 2700 H 235.16 2.83819 -3.6302 0
M  V30 2701 H 233.475 2.6875 -3.18061 0
M  V30 2702 H 236.072 5.05981 -1.72878 0
M  V30 2703 H 236.415 4.15387 -0.275529 0
M  V30 2704 H 236.948 3.52066 -1.85188 0
M  V30 2705 H 233.687 4.63585 -4.63432 0
M  V30 2706 H 233.207 5.1865 -3.01268 0
M  V30 2707 H 234.886 5.39685 -3.56859 0
M  V30 2708 N 235.018 0.912232 1.28515 0
M  V30 2709 C 235.965 0.397954 2.27343 0
M  V30 2710 C 236.935 -0.526766 1.57526 0
M  V30 2711 O 238.12 -0.449292 1.85435 0
M  V30 2712 C 235.26 -0.357263 3.43246 0
M  V30 2713 C 234.373 0.599788 4.27816 0
M  V30 2714 C 233.508 -0.173725 5.30916 0
M  V30 2715 C 232.547 0.777039 6.07148 0
M  V30 2716 N 231.684 0.0371398 7.0209 0
M  V30 2717 H 236.524 1.24577 2.70711 0
M  V30 2718 H 234.061 0.625612 1.33133 0
M  V30 2719 H 236.019 -0.8113 4.09236 0
M  V30 2720 H 234.649 -1.16943 3.00872 0
M  V30 2721 H 233.701 1.17235 3.61884 0
M  V30 2722 H 235.013 1.32704 4.80823 0
M  V30 2723 H 234.167 -0.688394 6.02782 0
M  V30 2724 H 232.906 -0.934041 4.78672 0
M  V30 2725 H 231.911 1.3031 5.34134 0
M  V30 2726 H 233.136 1.53689 6.61481 0
M  V30 2727 H 231.082 -0.705213 6.52198 0
M  V30 2728 H 230.999 0.704249 7.52713 0
M  V30 2729 H 232.267 -0.457383 7.78157 0
M  V30 2730 N 236.496 -1.42363 0.676048 0
M  V30 2731 C 237.443 -2.308 -0.00150904 0
M  V30 2732 C 238.413 -1.46032 -0.791444 0
M  V30 2733 O 239.598 -1.74861 -0.76344 0
M  V30 2734 C 236.738 -3.31883 -0.945919 0
M  V30 2735 C 235.851 -4.31741 -0.149675 0
M  V30 2736 C 234.986 -5.19898 -1.08995 0
M  V30 2737 C 234.025 -6.11434 -0.285465 0
M  V30 2738 N 233.162 -6.92138 -1.17851 0
M  V30 2739 H 238.002 -2.88187 0.758455 0
M  V30 2740 H 235.539 -1.41952 0.38576 0
M  V30 2741 H 237.497 -3.89019 -1.50731 0
M  V30 2742 H 236.127 -2.76093 -1.6725 0
M  V30 2743 H 235.179 -3.76713 0.528359 0
M  V30 2744 H 236.491 -4.96534 0.474866 0
M  V30 2745 H 235.645 -5.81772 -1.72123 0
M  V30 2746 H 234.384 -4.55284 -1.74837 0
M  V30 2747 H 233.389 -5.48627 0.359018 0
M  V30 2748 H 234.614 -6.78097 0.368883 0
M  V30 2749 H 232.56 -6.30152 -1.82332 0
M  V30 2750 H 232.477 -7.53542 -0.609082 0
M  V30 2751 H 233.745 -7.58499 -1.79722 0
M  V30 2752 N 237.974 -0.419461 -1.51915 0
M  V30 2753 C 238.921 0.400927 -2.27291 0
M  V30 2754 C 239.891 1.03224 -1.30131 0
M  V30 2755 O 241.076 1.05455 -1.59009 0
M  V30 2756 C 238.216 1.50603 -3.10504 0
M  V30 2757 C 237.329 0.89462 -4.22635 0
M  V30 2758 C 236.464 1.97328 -4.93189 0
M  V30 2759 C 235.503 1.33935 -5.97267 0
M  V30 2760 N 234.64 2.3586 -6.61298 0
M  V30 2761 H 239.48 -0.248251 -2.96964 0
M  V30 2762 H 237.017 -0.134266 -1.46486 0
M  V30 2763 H 238.975 2.15783 -3.57062 0
M  V30 2764 H 237.605 2.12509 -2.42981 0
M  V30 2765 H 236.657 0.131583 -3.80172 0
M  V30 2766 H 237.969 0.391641 -4.9726 0
M  V30 2767 H 237.123 2.70211 -5.43204 0
M  V30 2768 H 235.862 2.50994 -4.18155 0
M  V30 2769 H 234.867 0.595896 -5.46561 0
M  V30 2770 H 236.092 0.810252 -6.74249 0
M  V30 2771 H 234.038 2.88639 -5.89087 0
M  V30 2772 H 233.955 1.90403 -7.3163 0
M  V30 2773 H 235.223 3.08282 -7.15949 0
M  V30 2774 N 239.452 1.56882 -0.150215 0
M  V30 2775 C 240.362 2.20494 0.801222 0
M  V30 2776 C 241.378 1.19019 1.26927 0
M  V30 2777 O 242.554 1.51607 1.32579 0
M  V30 2778 C 239.619 2.81659 2.02161 0
M  V30 2779 C 238.68 3.9827 1.60249 0
M  V30 2780 C 237.913 4.56508 2.7647 0
M  V30 2781 O 238.136 4.13627 3.92771 0
M  V30 2782 O 237.07 5.46719 2.51757 0
M  V30 2783 H 240.896 3.02315 0.289717 0
M  V30 2784 H 238.481 1.49202 0.0769684 0
M  V30 2785 H 240.363 3.20522 2.73576 0
M  V30 2786 H 239.038 2.02849 2.52258 0
M  V30 2787 H 237.945 3.64117 0.858477 0
M  V30 2788 H 239.278 4.78609 1.14864 0
M  V30 2789 N 240.93 -0.123565 1.57115 0
M  V30 2790 C 241.878 -1.17082 2.00984 0
M  V30 2791 C 242.872 -1.43136 0.906009 0
M  V30 2792 O 244.078 -1.43152 1.09121 0
M  V30 2793 H 240.453 -0.394653 0.64012 0
M  V30 2794 H 242.424 -0.774292 2.88179 0
M  V30 2795 C 241.173 -2.49057 2.42623 0
M  V30 2796 H 240.496 -2.29846 3.27125 0
M  V30 2797 H 241.936 -3.20906 2.7712 0
M  V30 2798 C 240.395 -3.11305 1.28805 0
M  V30 2799 O 240.925 -3.97171 0.60153 0
M  V30 2800 N 239.131 -2.71111 1.04628 0
M  V30 2801 H 238.678 -2.01382 1.60634 0
M  V30 2802 H 238.636 -3.1309 0.286685 0
M  V30 2803 N 242.408 -1.52605 -0.393616 0
M  V30 2804 C 243.356 -1.77688 -1.50099 0
M  V30 2805 C 244.35 -0.644615 -1.56656 0
M  V30 2806 O 245.556 -0.826997 -1.59877 0
M  V30 2807 H 241.931 -0.562159 -0.499481 0
M  V30 2808 H 243.902 -2.7043 -1.26135 0
M  V30 2809 C 242.651 -1.95858 -2.87289 0
M  V30 2810 H 241.974 -2.8241 -2.82992 0
M  V30 2811 H 243.414 -2.174 -3.64024 0
M  V30 2812 C 241.873 -0.729848 -3.28899 0
M  V30 2813 O 242.403 0.0949217 -4.01588 0
M  V30 2814 N 240.609 -0.561283 -2.85128 0
M  V30 2815 H 240.156 -1.23357 -2.26143 0
M  V30 2816 H 240.114 0.2595 -3.13327 0
M  V30 2817 N 243.887 0.651787 -1.4349 0
M  V30 2818 C 244.797 1.79368 -1.5121 0
M  V30 2819 C 245.813 1.69361 -0.399093 0
M  V30 2820 O 246.989 1.90505 -0.653431 0
M  V30 2821 C 244.054 3.15653 -1.43401 0
M  V30 2822 C 243.115 3.37446 -2.65384 0
M  V30 2823 C 242.348 4.67229 -2.57939 0
M  V30 2824 O 242.571 5.46676 -1.62792 0
M  V30 2825 O 241.505 4.90773 -3.48462 0
M  V30 2826 H 245.331 1.7581 -2.47638 0
M  V30 2827 H 242.916 0.810447 -1.25507 0
M  V30 2828 H 244.798 3.96935 -1.41494 0
M  V30 2829 H 243.473 3.19798 -0.501085 0
M  V30 2830 H 242.38 2.55923 -2.72863 0
M  V30 2831 H 243.713 3.38148 -3.57654 0
M  V30 2832 N 245.365 1.30045 0.890287 0
M  V30 2833 C 246.295 1.18541 2.01172 0
M  V30 2834 C 247.276 0.0773356 1.69924 0
M  V30 2835 O 248.461 0.25845 1.92473 0
M  V30 2836 C 245.591 0.870941 3.36202 0
M  V30 2837 C 244.545 1.93637 3.81692 0
M  V30 2838 C 243.871 1.475 5.13953 0
M  V30 2839 C 245.171 3.34666 4.00994 0
M  V30 2840 H 246.865 2.12359 2.11054 0
M  V30 2841 H 244.411 1.02238 1.01407 0
M  V30 2842 H 246.364 0.777141 4.14172 0
M  V30 2843 H 245.088 -0.102926 3.26438 0
M  V30 2844 H 243.747 2.01972 3.05946 0
M  V30 2845 H 243.395 0.489551 5.00612 0
M  V30 2846 H 243.095 2.1876 5.4536 0
M  V30 2847 H 244.619 1.39489 5.94454 0
M  V30 2848 H 246.033 3.2912 4.69417 0
M  V30 2849 H 244.43 4.03966 4.43769 0
M  V30 2850 H 245.5 3.76949 3.05021 0
M  V30 2851 N 246.843 -1.10192 1.12674 0
M  V30 2852 C 248.073 -1.85713 0.905213 0
M  V30 2853 C 248.481 -1.81056 -0.549108 0
M  V30 2854 O 247.824 -1.19927 -1.39151 0
M  V30 2855 C 247.886 -3.34972 1.30516 0
M  V30 2856 C 247.55 -3.63385 2.77129 0
M  V30 2857 C 248.547 -3.59772 3.75313 0
M  V30 2858 C 246.232 -3.91981 3.14096 0
M  V30 2859 C 248.226 -3.84354 5.08479 0
M  V30 2860 C 245.913 -4.16218 4.47443 0
M  V30 2861 C 246.911 -4.12395 5.44444 0
M  V30 2862 O 246.599 -4.36014 6.75387 0
M  V30 2863 H 246.331 -0.593719 0.323223 0
M  V30 2864 H 248.885 -1.40198 1.50112 0
M  V30 2865 H 247.115 -3.81156 0.652463 0
M  V30 2866 H 248.804 -3.91886 1.05736 0
M  V30 2867 H 249.57 -3.37716 3.48099 0
M  V30 2868 H 245.449 -3.94085 2.39202 0
M  V30 2869 H 248.993 -3.81285 5.84181 0
M  V30 2870 H 244.89 -4.37754 4.74386 0
M  V30 2871 H 245.658 -4.53516 6.8137 0
M  V30 2872 N 248.321 -0.919034 -1.28029 0
M  V30 2873 C 249.57 -0.550802 -1.94034 0
M  V30 2874 C 249.883 0.910877 -1.73096 0
M  V30 2875 O 251.089 1.3875 -2.33368 0
M  V30 2876 C 249.545 -0.934249 -3.47563 0
M  V30 2877 C 249.153 -2.41602 -3.7727 0
M  V30 2878 C 250.897 -0.636854 -4.19696 0
M  V30 2879 C 248.804 -2.73932 -5.24133 0
M  V30 2880 H 247.734 -0.202273 -0.726362 0
M  V30 2881 H 250.385 -1.11867 -1.45458 0
M  V30 2882 H 248.767 -0.295115 -3.94899 0
M  V30 2883 H 249.941 -3.10233 -3.40723 0
M  V30 2884 H 248.256 -2.68441 -3.18321 0
M  V30 2885 H 250.853 -0.855005 -5.2782 0
M  V30 2886 H 251.196 0.425575 -4.14119 0
M  V30 2887 H 251.729 -1.23469 -3.78154 0
M  V30 2888 H 248.468 -3.79049 -5.34792 0
M  V30 2889 H 247.988 -2.09942 -5.61858 0
M  V30 2890 H 249.667 -2.61215 -5.91925 0
M  V30 2891 N 249.799 1.42003 -0.683588 0
M  V30 2892 C 251.076 1.95112 -0.138075 0
M  V30 2893 C 251.456 1.62359 1.34918 0
M  V30 2894 O 250.804 0.924311 2.08971 0
M  V30 2895 C 251.014 3.46505 -0.416581 0
M  V30 2896 C 252.362 4.23254 -0.337834 0
M  V30 2897 O 253.386 3.54468 -0.35082 0
M  V30 2898 O 252.245 5.45743 -0.287596 0
M  V30 2899 H 249.339 0.826961 -0.00797996 0
M  V30 2900 H 251.885 1.51784 -0.758924 0
M  V30 2901 H 250.657 3.63582 -1.4465 0
M  V30 2902 H 250.28 3.969 0.235839 0
M  V30 2903 N 251.277 0.427512 1.51691 0
M  V30 2904 C 252.526 -0.143679 2.01188 0
M  V30 2905 C 252.839 -1.44642 1.31674 0
M  V30 2906 O 254.045 -2.09997 1.72086 0
M  V30 2907 C 252.501 -0.306602 3.58592 0
M  V30 2908 C 252.109 0.985125 4.37035 0
M  V30 2909 C 253.853 -0.832091 4.16265 0
M  V30 2910 C 251.76 0.788382 5.86122 0
M  V30 2911 H 250.69 -0.0574701 0.751807 0
M  V30 2912 H 253.341 0.555772 1.74881 0
M  V30 2913 H 251.723 -1.06882 3.81303 0
M  V30 2914 H 252.897 1.75492 4.26074 0
M  V30 2915 H 251.212 1.4384 3.90767 0
M  V30 2916 H 253.809 -0.995617 5.25349 0
M  V30 2917 H 254.152 -1.81186 3.74803 0
M  V30 2918 H 254.685 -0.128444 3.97593 0
M  V30 2919 H 251.424 1.74025 6.31978 0
M  V30 2920 H 250.944 0.0582143 5.99772 0
M  V30 2921 H 252.623 0.437722 6.45518 0
M  V30 2922 N 252.755 -1.56801 0.158532 0
M  V30 2923 C 253.685 -2.20347 -0.772609 0
M  V30 2924 C 254.666 -1.15518 -1.24859 0
M  V30 2925 O 255.851 -1.43902 -1.30406 0
M  V30 2926 C 252.981 -2.83417 -2.00729 0
M  V30 2927 C 251.935 -3.94174 -1.66765 0
M  V30 2928 C 251.261 -4.44233 -2.97592 0
M  V30 2929 C 252.561 -5.14392 -0.905447 0
M  V30 2930 H 254.255 -2.98413 -0.242959 0
M  V30 2931 H 251.801 -1.43537 -0.115419 0
M  V30 2932 H 253.754 -3.26543 -2.6636 0
M  V30 2933 H 252.478 -2.02701 -2.56086 0
M  V30 2934 H 251.137 -3.51684 -1.03508 0
M  V30 2935 H 250.785 -3.60325 -3.50963 0
M  V30 2936 H 250.485 -5.18945 -2.75626 0
M  V30 2937 H 252.009 -4.90037 -3.64274 0
M  V30 2938 H 253.423 -5.5429 -1.46408 0
M  V30 2939 H 251.82 -5.9494 -0.7853 0
M  V30 2940 H 252.89 -4.84795 0.100668 0
M  V30 2941 N 254.233 0.115231 -1.57178 0
M  V30 2942 C 255.181 1.16014 -2.01602 0
M  V30 2943 C 256.175 1.42653 -0.913587 0
M  V30 2944 O 257.381 1.42571 -1.09879 0
M  V30 2945 H 253.756 0.391252 -0.642204 0
M  V30 2946 H 255.727 0.758998 -2.88586 0
M  V30 2947 C 254.476 2.47767 -2.4394 0
M  V30 2948 H 253.799 2.28108 -3.28339 0
M  V30 2949 H 255.239 3.19432 -2.78818 0
M  V30 2950 C 253.698 3.10617 -1.30455 0
M  V30 2951 O 254.228 3.96846 -0.622585 0
M  V30 2952 N 252.434 2.70553 -1.06064 0
M  V30 2953 H 251.981 2.00527 -1.61699 0
M  V30 2954 H 251.939 3.12934 -0.303284 0
M  V30 2955 N 255.711 1.52812 0.385517 0
M  V30 2956 C 256.658 1.77838 1.47113 0
M  V30 2957 C 257.628 0.621757 1.54024 0
M  V30 2958 O 258.813 0.861846 1.70226 0
M  V30 2959 C 255.953 1.95618 2.84302 0
M  V30 2960 C 255.066 3.23316 2.86515 0
M  V30 2961 C 254.201 3.31394 4.15152 0
M  V30 2962 C 253.24 4.53201 4.1143 0
M  V30 2963 N 252.377 4.58542 5.3168 0
M  V30 2964 H 257.217 2.70482 1.25073 0
M  V30 2965 H 254.754 1.34006 0.606692 0
M  V30 2966 H 256.712 2.03912 3.63972 0
M  V30 2967 H 255.342 1.06331 3.04784 0
M  V30 2968 H 254.394 3.24076 1.99195 0
M  V30 2969 H 255.706 4.13045 2.79634 0
M  V30 2970 H 254.86 3.3889 5.03228 0
M  V30 2971 H 253.599 2.39645 4.24761 0
M  V30 2972 H 252.604 4.45827 3.21742 0
M  V30 2973 H 253.829 5.46271 4.03442 0
M  V30 2974 H 251.775 3.69686 5.41912 0
M  V30 2975 H 251.692 5.42148 5.26889 0
M  V30 2976 H 252.96 4.70296 6.21644 0
M  V30 2977 N 257.189 -0.644168 1.43834 0
M  V30 2978 C 258.419 -1.42939 1.49171 0
M  V30 2979 C 258.827 -1.88874 0.111048 0
M  V30 2980 O 258.17 -1.60656 -0.8908 0
M  V30 2981 C 258.232 -2.69151 2.38324 0
M  V30 2982 C 257.896 -2.45097 3.85715 0
M  V30 2983 C 258.893 -2.07747 4.76589 0
M  V30 2984 C 256.578 -2.59141 4.30292 0
M  V30 2985 C 258.572 -1.8475 6.10038 0
M  V30 2986 C 256.259 -2.35759 5.63792 0
M  V30 2987 C 257.257 -1.9862 6.53482 0
M  V30 2988 O 256.945 -1.75489 7.84512 0
M  V30 2989 H 256.677 -0.445271 0.508635 0
M  V30 2990 H 259.231 -0.79621 1.8934 0
M  V30 2991 H 257.461 -3.3506 1.93058 0
M  V30 2992 H 259.15 -3.31123 2.3476 0
M  V30 2993 H 259.916 -1.96465 4.43426 0
M  V30 2994 H 255.795 -2.87022 3.60749 0
M  V30 2995 H 259.339 -1.55686 6.80006 0
M  V30 2996 H 255.236 -2.46646 5.9652 0
M  V30 2997 H 256.004 -1.89841 7.9618 0
M  V30 2998 N 258.668 -1.30515 -0.883378 0
M  V30 2999 C 259.915 -1.1943 -1.63532 0
M  V30 3000 C 260.243 0.250627 -1.92878 0
M  V30 3001 O 259.498 1.19556 -1.54935 0
M  V30 3002 C 259.797 -1.96994 -2.98209 0
M  V30 3003 C 259.463 -3.466 -2.88408 0
M  V30 3004 C 258.125 -3.87397 -2.85442 0
M  V30 3005 C 260.477 -4.41863 -2.76418 0
M  V30 3006 C 257.805 -5.21745 -2.68327 0
M  V30 3007 C 260.157 -5.7632 -2.60841 0
M  V30 3008 C 258.821 -6.16354 -2.56251 0
M  V30 3009 H 258.091 -0.437025 -0.598406 0
M  V30 3010 H 260.738 -1.61635 -1.02696 0
M  V30 3011 H 259.043 -1.47429 -3.63004 0
M  V30 3012 H 260.74 -1.85808 -3.55354 0
M  V30 3013 H 257.33 -3.14182 -2.91527 0
M  V30 3014 H 261.514 -4.11285 -2.77775 0
M  V30 3015 H 256.77 -5.51853 -2.63189 0
M  V30 3016 H 260.944 -6.49772 -2.50538 0
M  V30 3017 H 258.571 -7.20401 -2.42748 0
M  V30 3018 N 260.146 1.09593 -1.13257 0
M  V30 3019 C 261.376 1.85231 -0.915049 0
M  V30 3020 C 261.784 1.81345 0.539498 0
M  V30 3021 O 261.127 1.20664 1.38513 0
M  V30 3022 C 261.189 3.34275 -1.3229 0
M  V30 3023 C 260.853 3.6191 -2.79052 0
M  V30 3024 C 261.85 3.57777 -3.77216 0
M  V30 3025 C 259.535 3.90309 -3.16171 0
M  V30 3026 C 261.529 3.81652 -5.1051 0
M  V30 3027 C 259.216 4.13839 -4.49644 0
M  V30 3028 C 260.214 4.09502 -5.46623 0
M  V30 3029 O 259.902 4.32426 -6.77689 0
M  V30 3030 H 259.634 0.591997 -0.326367 0
M  V30 3031 H 262.188 1.394 -1.50854 0
M  V30 3032 H 260.418 3.80805 -0.672667 0
M  V30 3033 H 262.107 3.9132 -1.07812 0
M  V30 3034 H 262.873 3.35865 -3.49885 0
M  V30 3035 H 258.752 3.92811 -2.41289 0
M  V30 3036 H 262.296 3.78182 -5.86195 0
M  V30 3037 H 258.193 4.35232 -4.767 0
M  V30 3038 H 258.961 4.49896 -6.83766 0
M  V30 3039 N 261.624 0.925811 1.2754 0
M  V30 3040 C 263.035 0.610102 1.7645 0
M  V30 3041 C 263.386 -0.874723 1.75622 0
M  V30 3042 O 262.511 -1.68444 1.35851 0
M  V30 3043 C 263.106 1.10073 3.20421 0
M  V30 3044 C 261.665 0.835723 3.67005 0
M  V30 3045 C 260.812 1.26054 2.46993 0
M  V30 3046 H 263.763 1.10579 1.13833 0
M  V30 3047 H 263.784 0.447557 3.77859 0
M  V30 3048 H 263.296 2.18143 3.20991 0
M  V30 3049 H 261.397 -0.231249 3.71882 0
M  V30 3050 H 261.51 1.45193 4.56569 0
M  V30 3051 H 259.874 0.679111 2.45479 0
M  V30 3052 H 260.657 2.34984 2.50275 0
M  V30 3053 N 263.102 -1.41638 0.69111 0
M  V30 3054 C 264.032 -2.3347 0.037248 0
M  V30 3055 C 265.013 -1.51575 -0.771947 0
M  V30 3056 O 266.198 -1.80126 -0.72582 0
M  V30 3057 C 263.328 -3.35354 -0.903064 0
M  V30 3058 C 262.282 -4.27526 -0.201288 0
M  V30 3059 C 261.608 -5.19747 -1.25565 0
M  V30 3060 C 262.908 -5.13959 0.929689 0
M  V30 3061 H 264.602 -2.88397 0.804227 0
M  V30 3062 H 262.148 -1.38669 0.388189 0
M  V30 3063 H 264.101 -3.98519 -1.36969 0
M  V30 3064 H 262.825 -2.78767 -1.70166 0
M  V30 3065 H 261.484 -3.65779 0.245265 0
M  V30 3066 H 261.132 -4.59479 -2.04666 0
M  V30 3067 H 260.832 -5.8225 -0.791128 0
M  V30 3068 H 262.356 -5.85789 -1.72288 0
M  V30 3069 H 263.77 -5.70718 0.543546 0
M  V30 3070 H 262.167 -5.85379 1.32103 0
M  V30 3071 H 263.237 -4.51389 1.77133 0
M  V30 3072 N 264.58 -0.43555 -1.51462 0
M  V30 3073 C 265.829 0.133007 -2.01261 0
M  V30 3074 C 266.142 1.43942 -1.32439 0
M  V30 3075 O 267.348 2.09081 -1.73198 0
M  V30 3076 C 265.804 0.287581 -3.58749 0
M  V30 3077 C 265.412 -1.00829 -4.36506 0
M  V30 3078 C 267.156 0.810004 -4.167 0
M  V30 3079 C 265.063 -0.819454 -5.85695 0
M  V30 3080 H 263.993 0.0534822 -0.752101 0
M  V30 3081 H 266.644 -0.565038 -1.74584 0
M  V30 3082 H 265.026 1.04859 -3.81865 0
M  V30 3083 H 266.2 -1.77749 -4.25138 0
M  V30 3084 H 264.515 -1.45911 -3.89999 0
M  V30 3085 H 267.112 0.967743 -5.2587 0
M  V30 3086 H 267.455 1.79196 -3.75758 0
M  V30 3087 H 267.988 0.107357 -3.97655 0
M  V30 3088 H 264.727 -1.77374 -6.31046 0
M  V30 3089 H 264.247 -0.0900208 -5.99732 0
M  V30 3090 H 265.926 -0.471949 -6.45276 0
M  V30 3091 N 266.058 1.56714 -0.166846 0
M  V30 3092 C 267.006 2.19056 0.782123 0
M  V30 3093 C 268 1.15328 1.24079 0
M  V30 3094 O 269.206 1.33537 1.20697 0
M  V30 3095 H 265.581 0.70167 0.270486 0
M  V30 3096 H 267.552 2.97494 0.232322 0
M  V30 3097 C 266.301 2.84206 2.00306 0
M  V30 3098 H 265.624 3.63748 1.65914 0
M  V30 3099 H 267.064 3.31302 2.64604 0
M  V30 3100 C 265.523 1.83744 2.82382 0
M  V30 3101 O 266.053 1.32014 3.79388 0
M  V30 3102 N 264.259 1.52601 2.47308 0
M  V30 3103 H 263.806 1.9486 1.68485 0
M  V30 3104 H 263.764 0.856351 3.02513 0
M  V30 3105 N 267.536 -0.106894 1.57237 0
M  V30 3106 C 268.776 -0.818277 1.87306 0
M  V30 3107 C 269.14 -1.76474 0.756371 0
M  V30 3108 O 270.341 -2.5186 0.939155 0
M  V30 3109 C 268.612 -1.53806 3.22612 0
M  V30 3110 S 270.171 -2.28935 3.74345 0
M  V30 3111 H 266.989 -0.272862 0.656557 0
M  V30 3112 H 269.591 -0.075988 1.95352 0
M  V30 3113 H 268.295 -0.834951 4.01817 0
M  V30 3114 H 267.826 -2.32049 3.17674 0
M  V30 3115 H 269.841 -3.54871 3.46815 0
M  V30 3116 N 269.014 -1.53014 -0.377408 0
M  V30 3117 C 269.944 -1.81589 -1.46791 0
M  V30 3118 C 270.925 -0.668622 -1.56408 0
M  V30 3119 O 272.11 -0.917337 -1.71168 0
M  V30 3120 C 269.24 -1.99519 -2.8427 0
M  V30 3121 C 268.194 -3.15249 -2.89486 0
M  V30 3122 C 267.52 -3.18451 -4.29527 0
M  V30 3123 C 268.82 -4.54084 -2.58079 0
M  V30 3124 H 270.514 -2.7291 -1.23127 0
M  V30 3125 H 268.06 -1.31319 -0.590883 0
M  V30 3126 H 270.013 -2.18092 -3.60575 0
M  V30 3127 H 268.737 -1.04897 -3.09296 0
M  V30 3128 H 267.396 -2.96477 -2.15631 0
M  V30 3129 H 267.044 -2.2149 -4.5161 0
M  V30 3130 H 266.744 -3.962 -4.33934 0
M  V30 3131 H 268.268 -3.39193 -5.07721 0
M  V30 3132 H 269.682 -4.72899 -3.24098 0
M  V30 3133 H 268.079 -5.33987 -2.7382 0
M  V30 3134 H 269.149 -4.60006 -1.53372 0
M  V30 3135 N 270.492 0.636531 -1.44174 0
M  V30 3136 C 271.722 1.42146 -1.49927 0
M  V30 3137 C 272.13 1.88812 -0.121063 0
M  V30 3138 O 271.473 1.61126 0.882267 0
M  V30 3139 C 271.535 2.67883 -2.39748 0
M  V30 3140 C 271.199 2.43048 -3.8701 0
M  V30 3141 C 272.196 2.05216 -4.77684 0
M  V30 3142 C 269.881 2.56856 -4.3166 0
M  V30 3143 C 271.875 1.81512 -6.11009 0
M  V30 3144 C 269.562 2.32766 -5.65034 0
M  V30 3145 C 270.56 1.95152 -6.54526 0
M  V30 3146 O 270.248 1.71326 -7.85431 0
M  V30 3147 H 269.98 0.442567 -0.51099 0
M  V30 3148 H 272.534 0.786158 -1.8976 0
M  V30 3149 H 270.764 3.34032 -1.94832 0
M  V30 3150 H 272.453 3.29874 -2.36513 0
M  V30 3151 H 273.219 1.94111 -4.44462 0
M  V30 3152 H 269.098 2.85104 -3.62266 0
M  V30 3153 H 272.642 1.52077 -6.80822 0
M  V30 3154 H 268.539 2.43479 -5.97819 0
M  V30 3155 H 269.307 1.85616 -7.97176 0
M  V30 3156 N 271.97 1.30982 0.876444 0
M  V30 3157 C 273.247 1.10942 1.61094 0
M  V30 3158 C 273.627 -0.338223 2.08373 0
M  V30 3159 O 272.975 -1.33122 1.85717 0
M  V30 3160 C 273.185 2.11789 2.77392 0
M  V30 3161 C 274.533 2.43965 3.47514 0
M  V30 3162 O 275.557 2.10166 2.87591 0
M  V30 3163 O 274.416 3.01817 4.55597 0
M  V30 3164 H 271.51 0.42667 0.708436 0
M  V30 3165 H 274.056 1.42438 0.922474 0
M  V30 3166 H 272.828 3.09194 2.39823 0
M  V30 3167 H 272.451 1.81161 3.5393 0
M  V30 3168 N 273.449 -1.08991 1.13837 0
M  V30 3169 C 274.379 -2.17771 0.842507 0
M  V30 3170 C 275.36 -1.6892 -0.20001 0
M  V30 3171 O 276.545 -1.94113 -0.0579731 0
M  V30 3172 C 273.675 -3.4589 0.312644 0
M  V30 3173 C 272.629 -4.08099 1.28992 0
M  V30 3174 C 271.955 -5.31098 0.619623 0
M  V30 3175 C 273.255 -4.50077 2.65005 0
M  V30 3176 H 274.949 -2.42777 1.75213 0
M  V30 3177 H 272.495 -1.16682 0.843875 0
M  V30 3178 H 274.448 -4.21297 0.0933043 0
M  V30 3179 H 273.172 -3.20419 -0.632382 0
M  V30 3180 H 271.831 -3.34717 1.49533 0
M  V30 3181 H 271.479 -5.0191 -0.33102 0
M  V30 3182 H 271.179 -5.73674 1.27167 0
M  V30 3183 H 272.703 -6.09224 0.409669 0
M  V30 3184 H 274.117 -5.16688 2.48407 0
M  V30 3185 H 272.514 -5.03553 3.26427 0
M  V30 3186 H 273.584 -3.62257 3.22332 0
M  V30 3187 N 274.927 -0.932562 -1.27047 0
M  V30 3188 C 276.152 -0.591474 -1.98787 0
M  V30 3189 C 276.577 0.824601 -1.69062 0
M  V30 3190 O 275.935 1.5541 -0.933677 0
M  V30 3191 C 275.983 -0.829808 -3.50922 0
M  V30 3192 O 275.087 0.102266 -4.12273 0
M  V30 3193 H 274.428 -0.227185 -0.623926 0
M  V30 3194 H 276.958 -1.25314 -1.61733 0
M  V30 3195 H 276.968 -0.747292 -4.01098 0
M  V30 3196 H 275.643 -1.86201 -3.7189 0
M  V30 3197 H 274.22 -0.0305761 -3.72887 0
M  V30 3198 N 276.405 1.4127 -0.698611 0
M  V30 3199 C 277.338 2.28195 0.0153898 0
M  V30 3200 C 278.316 1.42402 0.784883 0
M  V30 3201 O 279.5 1.71828 0.775067 0
M  V30 3202 C 276.627 3.22685 1.02918 0
M  V30 3203 C 275.673 4.25041 0.352501 0
M  V30 3204 S 276.506 5.27757 -0.907322 0
M  V30 3205 C 277.662 6.25812 0.104796 0
M  V30 3206 H 277.895 2.88403 -0.721858 0
M  V30 3207 H 275.428 1.46452 -0.488996 0
M  V30 3208 H 277.386 3.77655 1.60893 0
M  V30 3209 H 276.047 2.61566 1.73902 0
M  V30 3210 H 275.24 4.91437 1.11828 0
M  V30 3211 H 274.842 3.73682 -0.154254 0
M  V30 3212 H 277.134 6.70705 0.957103 0
M  V30 3213 H 278.077 7.06149 -0.525323 0
M  V30 3214 H 278.485 5.62615 0.460931 0
M  V30 3215 N 277.883 0.443576 1.51229 0
M  V30 3216 C 278.813 -0.355142 2.30783 0
M  V30 3217 C 279.794 -1.0154 1.36468 0
M  V30 3218 O 280.979 -1.01785 1.65389 0
M  V30 3219 C 278.109 -1.45312 3.15439 0
M  V30 3220 C 277.063 -0.916002 4.18083 0
M  V30 3221 C 276.389 -2.1102 4.91299 0
M  V30 3222 C 277.689 0.0538602 5.22272 0
M  V30 3223 H 279.383 0.308767 2.97804 0
M  V30 3224 H 276.929 0.149937 1.43217 0
M  V30 3225 H 278.882 -2.01914 3.69876 0
M  V30 3226 H 277.606 -2.14541 2.46252 0
M  V30 3227 H 276.265 -0.372145 3.64706 0
M  V30 3228 H 275.913 -2.78882 4.18609 0
M  V30 3229 H 275.613 -1.75717 5.60712 0
M  V30 3230 H 277.137 -2.68164 5.48562 0
M  V30 3231 H 278.551 -0.422069 5.71744 0
M  V30 3232 H 276.948 0.319776 5.99247 0
M  V30 3233 H 278.018 0.98858 4.74716 0
M  V30 3234 N 279.361 -1.56624 0.175154 0
M  V30 3235 C 280.638 -1.88688 -0.515373 0
M  V30 3236 C 281.018 -1.08564 -1.81044 0
M  V30 3237 O 280.366 -0.180703 -2.27784 0
M  V30 3238 C 280.576 -3.40768 -0.753552 0
M  V30 3239 C 281.924 -4.10587 -1.08184 0
M  V30 3240 O 282.948 -3.46106 -0.841961 0
M  V30 3241 O 281.807 -5.24512 -1.53459 0
M  V30 3242 H 278.901 -0.78301 -0.26613 0
M  V30 3243 H 281.447 -1.68347 0.213877 0
M  V30 3244 H 280.219 -3.90965 0.161829 0
M  V30 3245 H 279.842 -3.66733 -1.53598 0
M  V30 3246 N 280.839 0.0985539 -1.57292 0
M  V30 3247 C 281.769 1.12064 -2.04851 0
M  V30 3248 C 282.75 1.41981 -0.936767 0
M  V30 3249 O 283.935 1.52071 -1.20781 0
M  V30 3250 C 281.065 2.44144 -2.47004 0
M  V30 3251 C 280.019 2.28643 -3.6181 0
M  V30 3252 C 279.345 3.65869 -3.89929 0
M  V30 3253 C 280.645 1.72986 -4.92822 0
M  V30 3254 H 282.339 0.724979 -2.9049 0
M  V30 3255 H 279.885 0.34729 -1.39749 0
M  V30 3256 H 281.838 3.15914 -2.78884 0
M  V30 3257 H 280.562 2.85639 -1.5836 0
M  V30 3258 H 279.221 1.59318 -3.30172 0
M  V30 3259 H 278.869 4.04885 -2.98458 0
M  V30 3260 H 278.569 3.56344 -4.67218 0
M  V30 3261 H 280.093 4.39112 -4.2428 0
M  V30 3262 H 281.507 2.34593 -5.23105 0
M  V30 3263 H 279.904 1.74229 -5.74251 0
M  V30 3264 H 280.974 0.689007 -4.7998 0
M  V30 3265 N 282.317 1.53212 0.369288 0
M  V30 3266 C 283.265 1.80054 1.47253 0
M  V30 3267 C 284.259 0.669456 1.55611 0
M  V30 3268 O 285.465 0.852328 1.58541 0
M  V30 3269 H 281.84 0.570034 0.490475 0
M  V30 3270 H 283.811 2.72403 1.21817 0
M  V30 3271 C 282.56 2.00403 2.84137 0
M  V30 3272 H 281.883 2.86876 2.78464 0
M  V30 3273 H 283.323 2.23164 3.60519 0
M  V30 3274 C 281.782 0.782081 3.27697 0
M  V30 3275 O 282.312 -0.0310205 4.01688 0
M  V30 3276 N 280.518 0.606573 2.84199 0
M  V30 3277 H 280.065 1.26939 2.24152 0
M  V30 3278 H 280.023 -0.20962 3.137 0
M  V30 3279 N 283.795 -0.628877 1.44509 0
M  V30 3280 C 284.743 -1.76193 1.51852 0
M  V30 3281 C 285.737 -1.64849 0.390042 0
M  V30 3282 O 286.943 -1.709 0.565082 0
M  V30 3283 H 283.318 -0.581728 0.476547 0
M  V30 3284 H 285.289 -1.67123 2.47209 0
M  V30 3285 C 284.038 -3.14533 1.48204 0
M  V30 3286 H 283.361 -3.23911 2.34354 0
M  V30 3287 H 284.801 -3.93701 1.57402 0
M  V30 3288 C 283.26 -3.36287 0.203142 0
M  V30 3289 O 283.79 -3.9509 -0.725745 0
M  V30 3290 N 281.996 -2.90408 0.105563 0
M  V30 3291 H 281.543 -2.42739 0.862301 0
M  V30 3292 H 281.501 -3.05339 -0.749371 0
M  V30 3293 N 285.273 -1.31445 -0.869486 0
M  V30 3294 C 286.221 -1.19067 -1.99814 0
M  V30 3295 C 287.215 -0.0988569 -1.69111 0
M  V30 3296 O 288.421 -0.260781 -1.78101 0
M  V30 3297 H 284.796 -0.368677 -0.655425 0
M  V30 3298 H 286.767 -2.14555 -2.07385 0
M  V30 3299 C 285.516 -0.915323 -3.35436 0
M  V30 3300 H 284.839 -1.74759 -3.59582 0
M  V30 3301 H 286.279 -0.868895 -4.15001 0
M  V30 3302 C 284.738 0.381928 -3.34728 0
M  V30 3303 O 285.268 1.39857 -3.76567 0
M  V30 3304 N 283.474 0.398633 -2.87853 0
M  V30 3305 H 283.021 -0.429186 -2.54 0
M  V30 3306 H 282.979 1.26651 -2.87762 0
M  V30 3307 N 286.751 1.08385 -1.14413 0
M  V30 3308 C 288.028 1.77429 -0.823297 0
M  V30 3309 C 288.408 1.9974 0.683163 0
M  V30 3310 O 287.756 1.60739 1.62405 0
M  V30 3311 C 287.966 3.09004 -1.62227 0
M  V30 3312 C 289.314 3.83532 -1.82177 0
M  V30 3313 O 290.338 3.18786 -1.58915 0
M  V30 3314 O 289.197 4.99792 -2.21067 0
M  V30 3315 H 286.291 0.769999 -0.301712 0
M  V30 3316 H 288.837 1.14846 -1.24934 0
M  V30 3317 H 287.609 2.88316 -2.64555 0
M  V30 3318 H 287.232 3.79316 -1.19187 0
M  V30 3319 N 288.23 0.939286 1.26551 0
M  V30 3320 C 289.476 0.586715 1.94128 0
M  V30 3321 C 289.809 -0.8717 1.73537 0
M  V30 3322 O 289.084 -1.62339 1.07127 0
M  V30 3323 C 289.367 0.927497 3.4795 0
M  V30 3324 C 289.22 2.44052 3.77834 0
M  V30 3325 C 290.539 0.441569 4.37879 0
M  V30 3326 H 287.658 0.21463 0.705055 0
M  V30 3327 H 290.3 1.17316 1.49455 0
M  V30 3328 H 288.45 0.428431 3.8613 0
M  V30 3329 H 290.122 3.01216 3.4938 0
M  V30 3330 H 288.365 2.8848 3.23978 0
M  V30 3331 H 289.036 2.62947 4.85348 0
M  V30 3332 H 291.512 0.869448 4.06915 0
M  V30 3333 H 290.388 0.708856 5.44304 0
M  V30 3334 H 290.649 -0.658467 4.37169 0
M  V30 3335 N 289.708 -1.40897 0.706093 0
M  V30 3336 C 290.933 -2.05895 0.249435 0
M  V30 3337 C 291.358 -1.52823 -1.09666 0
M  V30 3338 O 290.716 -0.659589 -1.68876 0
M  V30 3339 C 290.764 -3.59872 0.22904 0
M  V30 3340 O 289.868 -4.04708 -0.792784 0
M  V30 3341 H 289.209 -0.653206 0.119241 0
M  V30 3342 H 291.739 -1.80471 0.96391 0
M  V30 3343 H 291.749 -4.07951 0.0634791 0
M  V30 3344 H 290.424 -3.97866 1.21141 0
M  V30 3345 H 289.001 -3.68111 -0.59572 0
M  V30 3346 N 291.186 -0.45159 -1.50991 0
M  V30 3347 C 292.096 0.358431 -2.31846 0
M  V30 3348 C 293.112 1.01438 -1.41373 0
M  V30 3349 O 294.288 1.00663 -1.74439 0
M  V30 3350 C 291.353 1.43704 -3.15515 0
M  V30 3351 C 290.414 0.799742 -4.21785 0
M  V30 3352 C 289.647 1.82696 -5.01456 0
M  V30 3353 O 289.87 3.05105 -4.81941 0
M  V30 3354 O 288.804 1.40958 -5.85162 0
M  V30 3355 H 292.63 -0.302032 -3.02194 0
M  V30 3356 H 290.215 -0.213825 -1.47862 0
M  V30 3357 H 292.097 2.06227 -3.67489 0
M  V30 3358 H 290.772 2.08133 -2.47916 0
M  V30 3359 H 289.679 0.136084 -3.73852 0
M  V30 3360 H 291.012 0.198718 -4.91799 0
M  V30 3361 N 292.664 1.56529 -0.183458 0
M  V30 3362 C 293.913 1.96419 0.458511 0
M  V30 3363 C 294.226 1.0727 1.63562 0
M  V30 3364 O 295.432 1.36893 2.34462 0
M  V30 3365 C 293.888 3.49298 0.867122 0
M  V30 3366 C 293.496 4.47092 -0.285057 0
M  V30 3367 C 295.24 3.97983 1.47683 0
M  V30 3368 C 293.147 5.91225 0.143862 0
M  V30 3369 H 292.077 0.733394 0.175071 0
M  V30 3370 H 294.728 1.81448 -0.273624 0
M  V30 3371 H 293.11 3.59731 1.65559 0
M  V30 3372 H 294.284 4.48383 -1.0625 0
M  V30 3373 H 292.599 4.08535 -0.805503 0
M  V30 3374 H 295.196 5.03134 1.80999 0
M  V30 3375 H 295.539 3.41618 2.37914 0
M  V30 3376 H 296.072 3.90617 0.752562 0
M  V30 3377 H 292.811 6.5149 -0.723974 0
M  V30 3378 H 292.331 5.93214 0.886413 0
M  V30 3379 H 294.01 6.44362 0.583628 0
M  V30 3380 N 294.142 -0.090211 1.57342 0
M  V30 3381 C 295.072 -1.10976 2.05443 0
M  V30 3382 C 296.053 -1.41482 0.944284 0
M  V30 3383 O 297.238 -1.51428 1.21586 0
M  V30 3384 C 294.368 -2.42831 2.48295 0
M  V30 3385 C 293.322 -2.26721 3.63018 0
M  V30 3386 C 292.648 -3.63796 3.91863 0
M  V30 3387 C 293.948 -1.7037 4.93732 0
M  V30 3388 H 295.642 -0.709564 2.9087 0
M  V30 3389 H 293.188 -0.339874 1.39932 0
M  V30 3390 H 295.141 -3.14431 2.80555 0
M  V30 3391 H 293.865 -2.84795 1.59873 0
M  V30 3392 H 292.524 -1.57565 3.31012 0
M  V30 3393 H 292.172 -4.03297 3.00601 0
M  V30 3394 H 291.872 -3.53861 4.69101 0
M  V30 3395 H 293.396 -4.36855 4.26603 0
M  V30 3396 H 294.81 -2.31816 5.24342 0
M  V30 3397 H 293.207 -1.71181 5.75167 0
M  V30 3398 H 294.277 -0.663542 4.80339 0
M  V30 3399 N 295.62 -1.53406 -0.361157 0
M  V30 3400 C 296.845 -1.74024 -1.12829 0
M  V30 3401 C 297.27 -0.470069 -1.82132 0
M  V30 3402 O 296.628 0.57619 -1.719 0
M  V30 3403 C 296.676 -2.90903 -2.13091 0
M  V30 3404 O 295.78 -2.59821 -3.20261 0
M  V30 3405 H 295.121 -0.577804 -0.327168 0
M  V30 3406 H 297.651 -2.00307 -0.41693 0
M  V30 3407 H 297.661 -3.17194 -2.56616 0
M  V30 3408 H 296.336 -3.83034 -1.62042 0
M  V30 3409 H 294.913 -2.44362 -2.81677 0
M  V30 3410 N 297.098 0.621204 -1.44841 0
M  V30 3411 C 298.028 1.74366 -1.55303 0
M  V30 3412 C 299.009 1.65199 -0.405385 0
M  V30 3413 O 300.194 1.83807 -0.626787 0
M  V30 3414 C 297.324 3.12931 -1.50637 0
M  V30 3415 C 296.278 3.36896 -2.63979 0
M  V30 3416 C 295.604 4.75594 -2.44366 0
M  V30 3417 C 296.904 3.28483 -4.06074 0
M  V30 3418 H 298.598 1.65867 -2.49256 0
M  V30 3419 H 296.144 0.796558 -1.19962 0
M  V30 3420 H 298.097 3.9124 -1.56555 0
M  V30 3421 H 296.821 3.22237 -0.532057 0
M  V30 3422 H 295.48 2.60972 -2.57467 0
M  V30 3423 H 295.128 4.81616 -1.45105 0
M  V30 3424 H 294.828 4.92586 -3.20364 0
M  V30 3425 H 296.352 5.5612 -2.52117 0
M  V30 3426 H 297.766 3.96684 -4.13902 0
M  V30 3427 H 296.163 3.57008 -4.82354 0
M  V30 3428 H 297.233 2.26133 -4.28943 0
M  V30 3429 N 298.576 1.31904 0.862503 0
M  V30 3430 C 299.825 1.21373 1.61094 0
M  V30 3431 C 300.138 -0.22504 1.94301 0
M  V30 3432 O 301.344 -0.452121 2.67709 0
M  V30 3433 C 299.8 2.12525 2.9045 0
M  V30 3434 C 299.408 3.61441 2.64697 0
M  V30 3435 C 301.152 2.10813 3.68454 0
M  V30 3436 C 299.059 4.44578 3.90006 0
M  V30 3437 H 297.989 0.450705 0.604468 0
M  V30 3438 H 300.64 1.56811 0.953027 0
M  V30 3439 H 299.022 1.69994 3.57656 0
M  V30 3440 H 300.196 4.12264 2.05851 0
M  V30 3441 H 298.511 3.65205 2.00036 0
M  V30 3442 H 301.108 2.70167 4.61426 0
M  V30 3443 H 301.451 1.09713 4.01583 0
M  V30 3444 H 301.984 2.51583 3.08141 0
M  V30 3445 H 298.723 5.46461 3.62023 0
M  V30 3446 H 298.243 3.98508 4.48276 0
M  V30 3447 H 299.922 4.57176 4.5782 0
M  V30 3448 N 300.054 -1.07777 1.14986 0
M  V30 3449 C 301.294 -1.81888 0.932527 0
M  V30 3450 C 301.658 -1.84509 -0.531064 0
M  V30 3451 O 302.859 -2.54448 -0.866577 0
M  V30 3452 C 301.13 -3.23244 1.52473 0
M  V30 3453 S 302.689 -4.14154 1.44989 0
M  V30 3454 H 299.507 -0.626752 0.335712 0
M  V30 3455 H 302.109 -1.29503 1.46455 0
M  V30 3456 H 300.813 -3.18922 2.58296 0
M  V30 3457 H 300.344 -3.80704 0.991381 0
M  V30 3458 H 302.359 -4.94247 0.439799 0
M  V30 3459 N 301.532 -0.945985 -1.26051 0
M  V30 3460 C 302.479 -0.45809 -2.26208 0
M  V30 3461 C 303.449 0.484816 -1.58867 0
M  V30 3462 O 304.634 0.399969 -1.86561 0
M  V30 3463 C 301.774 0.266131 -3.44072 0
M  V30 3464 C 300.887 -0.713005 -4.26075 0
M  V30 3465 C 300.022 0.0329013 -5.3119 0
M  V30 3466 C 299.061 -0.93774 -6.04874 0
M  V30 3467 N 298.198 -0.223274 -7.01745 0
M  V30 3468 H 303.038 -1.3171 -2.67313 0
M  V30 3469 H 300.575 -0.66069 -1.31428 0
M  V30 3470 H 302.533 0.702514 -4.11243 0
M  V30 3471 H 301.163 1.08925 -3.03867 0
M  V30 3472 H 300.215 -1.26789 -3.58648 0
M  V30 3473 H 301.527 -1.45406 -4.77136 0
M  V30 3474 H 300.681 0.528335 -6.04395 0
M  V30 3475 H 299.42 0.806801 -4.8098 0
M  V30 3476 H 298.425 -1.44425 -5.30492 0
M  V30 3477 H 299.65 -1.71172 -6.57173 0
M  V30 3478 H 297.596 0.532046 -6.53839 0
M  V30 3479 H 297.513 -0.90357 -7.50581 0
M  V30 3480 H 298.781 0.250907 -7.79096 0
M  V30 3481 N 303.011 1.40521 -0.713556 0
M  V30 3482 C 304.26 2.00155 -0.249192 0
M  V30 3483 C 304.573 1.57224 1.16362 0
M  V30 3484 O 305.779 2.09542 1.72639 0
M  V30 3485 C 304.235 3.5773 -0.3946 0
M  V30 3486 C 303.843 4.09635 -1.81392 0
M  V30 3487 C 305.587 4.24499 0.00907364 0
M  V30 3488 C 303.494 5.59707 -1.91003 0
M  V30 3489 H 302.424 0.74868 -0.0894114 0
M  V30 3490 H 305.075 1.60784 -0.884352 0
M  V30 3491 H 303.457 3.94792 0.30911 0
M  V30 3492 H 304.631 3.83955 -2.54785 0
M  V30 3493 H 302.946 3.55456 -2.16888 0
M  V30 3494 H 305.543 5.34683 -0.0420404 0
M  V30 3495 H 305.886 4.02824 1.05065 0
M  V30 3496 H 306.419 3.92536 -0.645007 0
M  V30 3497 H 303.158 5.86234 -2.93275 0
M  V30 3498 H 302.678 5.87258 -1.22019 0
M  V30 3499 H 304.357 6.24776 -1.6812 0
M  V30 3500 N 304.489 0.459591 1.5075 0
M  V30 3501 C 305.719 -0.0972338 2.06371 0
M  V30 3502 C 306.127 -1.35074 1.32483 0
M  V30 3503 O 305.47 -1.79637 0.384226 0
M  V30 3504 C 305.532 -0.462759 3.56509 0
M  V30 3505 C 305.196 0.687084 4.51805 0
M  V30 3506 C 306.193 1.56578 4.95761 0
M  V30 3507 C 303.878 0.874144 4.94635 0
M  V30 3508 C 305.872 2.61604 5.81242 0
M  V30 3509 C 303.559 1.92765 5.79901 0
M  V30 3510 C 304.557 2.79697 6.23104 0
M  V30 3511 O 304.245 3.83235 7.06673 0
M  V30 3512 H 303.977 -0.00140687 0.675999 0
M  V30 3513 H 306.531 0.644011 1.95043 0
M  V30 3514 H 304.761 -1.25703 3.65699 0
M  V30 3515 H 306.45 -0.953323 3.94546 0
M  V30 3516 H 307.216 1.4329 4.6335 0
M  V30 3517 H 303.095 0.207006 4.60535 0
M  V30 3518 H 306.639 3.29489 6.14884 0
M  V30 3519 H 302.536 2.06064 6.11725 0
M  V30 3520 H 303.304 3.80084 7.24899 0
M  V30 3521 N 305.967 -1.56429 0.191757 0
M  V30 3522 C 307.197 -2.01574 -0.452928 0
M  V30 3523 C 307.605 -1.07107 -1.55964 0
M  V30 3524 O 306.948 -0.067534 -1.83576 0
M  V30 3525 C 307.01 -3.43121 -1.07278 0
M  V30 3526 C 306.674 -4.56879 -0.105214 0
M  V30 3527 C 307.671 -5.15379 0.684149 0
M  V30 3528 C 305.356 -5.023 0.00489824 0
M  V30 3529 C 307.35 -6.17746 1.57062 0
M  V30 3530 C 305.037 -6.04511 0.894935 0
M  V30 3531 C 306.035 -6.62108 1.67637 0
M  V30 3532 O 305.723 -7.62335 2.55149 0
M  V30 3533 H 305.455 -0.665554 -0.118379 0
M  V30 3534 H 308.009 -2.03245 0.296737 0
M  V30 3535 H 306.239 -3.38425 -1.87097 0
M  V30 3536 H 307.928 -3.72093 -1.62177 0
M  V30 3537 H 308.694 -4.81157 0.609365 0
M  V30 3538 H 304.573 -4.57168 -0.593156 0
M  V30 3539 H 308.117 -6.6263 2.181 0
M  V30 3540 H 304.014 -6.38157 0.970847 0
M  V30 3541 H 304.782 -7.79741 2.48892 0
M  V30 3542 N 307.445 0.0818655 -1.57387 0
M  V30 3543 C 308.675 0.794954 -1.90694 0
M  V30 3544 C 309.083 1.72147 -0.784982 0
M  V30 3545 O 308.426 1.81974 0.251196 0
M  V30 3546 C 308.488 1.65042 -3.19376 0
M  V30 3547 C 308.152 0.894337 -4.48164 0
M  V30 3548 C 309.149 0.21813 -5.19442 0
M  V30 3549 C 306.834 0.864495 -4.94805 0
M  V30 3550 C 308.828 -0.477802 -6.35607 0
M  V30 3551 C 306.515 0.164785 -6.10878 0
M  V30 3552 C 307.513 -0.505173 -6.81129 0
M  V30 3553 O 307.201 -1.19363 -7.94989 0
M  V30 3554 H 306.933 0.231779 -0.635023 0
M  V30 3555 H 309.487 0.059493 -2.05314 0
M  V30 3556 H 307.717 2.42844 -3.00938 0
M  V30 3557 H 309.406 2.24127 -3.38411 0
M  V30 3558 H 310.172 0.232558 -4.84442 0
M  V30 3559 H 306.051 1.37542 -4.40004 0
M  V30 3560 H 309.595 -1.00129 -6.90377 0
M  V30 3561 H 305.492 0.148249 -6.4533 0
M  V30 3562 H 306.26 -1.10188 -8.11049 0
M  V30 3563 N 308.923 1.53595 0.353017 0
M  V30 3564 C 310.169 1.70638 1.09593 0
M  V30 3565 C 310.502 0.463286 1.88593 0
M  V30 3566 O 309.777 -0.539597 1.86865 0
M  V30 3567 C 310.06 2.96406 2.04489 0
M  V30 3568 C 309.913 4.30901 1.29014 0
M  V30 3569 C 311.232 3.17812 3.0444 0
M  V30 3570 H 308.351 0.620913 0.397034 0
M  V30 3571 H 310.993 1.86254 0.375446 0
M  V30 3572 H 309.143 2.83223 2.65927 0
M  V30 3573 H 310.815 4.55917 0.702638 0
M  V30 3574 H 309.058 4.29741 0.592071 0
M  V30 3575 H 309.729 5.1506 1.98537 0
M  V30 3576 H 312.205 3.30263 2.53112 0
M  V30 3577 H 311.081 4.07223 3.6805 0
M  V30 3578 H 311.342 2.33669 3.75301 0
M  V30 3579 N 310.401 -0.613514 1.45168 0
M  V30 3580 C 311.349 -1.74572 1.53712 0
M  V30 3581 C 312.343 -1.64426 0.407505 0
M  V30 3582 O 313.549 -1.70291 0.583176 0
M  V30 3583 H 309.924 -0.576641 0.48269 0
M  V30 3584 H 311.895 -1.64492 2.48968 0
M  V30 3585 C 310.644 -3.12943 1.51532 0
M  V30 3586 H 309.967 -3.21407 2.37776 0
M  V30 3587 H 311.407 -3.9201 1.61569 0
M  V30 3588 C 309.866 -3.36053 0.238798 0
M  V30 3589 O 310.396 -3.95837 -0.6838 0
M  V30 3590 N 308.602 -2.9028 0.136359 0
M  V30 3591 H 308.149 -2.41811 0.887999 0
M  V30 3592 H 308.107 -3.06116 -0.716944 0
M  V30 3593 N 311.879 -1.3236 -0.855495 0
M  V30 3594 C 313.156 -1.13491 -1.59309 0
M  V30 3595 C 313.536 0.30503 -2.08885 0
M  V30 3596 O 312.884 1.30151 -1.87811 0
M  V30 3597 C 313.094 -2.16176 -2.73987 0
M  V30 3598 C 314.442 -2.49463 -3.43589 0
M  V30 3599 O 315.466 -2.14715 -2.84211 0
M  V30 3600 O 314.325 -3.09027 -4.50738 0
M  V30 3601 H 311.419 -0.437887 -0.701559 0
M  V30 3602 H 313.965 -1.43887 -0.899696 0
M  V30 3603 H 312.737 -3.1297 -2.34873 0
M  V30 3604 H 312.36 -1.86769 -3.51003 0
M  V30 3605 N 313.357 1.07166 -1.15556 0
M  V30 3606 C 314.582 1.84053 -0.955988 0
M  V30 3607 C 315.007 1.81586 0.490739 0
M  V30 3608 O 314.365 1.21018 1.34997 0
M  V30 3609 C 314.413 3.28957 -1.47714 0
M  V30 3610 O 313.517 4.06795 -0.677593 0
M  V30 3611 H 312.858 0.569842 -0.340847 0
M  V30 3612 H 315.388 1.35178 -1.53584 0
M  V30 3613 H 315.398 3.79788 -1.4908 0
M  V30 3614 H 314.073 3.30068 -2.53037 0
M  V30 3615 H 312.65 3.6561 -0.733721 0
M  V30 3616 N 314.835 0.952656 1.25548 0
M  V30 3617 C 316.065 0.622592 1.96996 0
M  V30 3618 C 316.473 -0.809112 1.71026 0
M  V30 3619 O 315.816 -1.55258 0.981861 0
M  V30 3620 C 315.878 0.798946 3.5051 0
M  V30 3621 C 315.542 2.20744 4.00151 0
M  V30 3622 C 316.539 3.18394 4.11001 0
M  V30 3623 C 314.224 2.5311 4.33867 0
M  V30 3624 C 316.218 4.46504 4.54877 0
M  V30 3625 C 313.905 3.8145 4.7743 0
M  V30 3626 C 314.903 4.77959 4.87897 0
M  V30 3627 O 314.591 6.04012 5.30494 0
M  V30 3628 H 314.323 0.232503 0.634758 0
M  V30 3629 H 316.877 1.2789 1.60728 0
M  V30 3630 H 315.107 0.0854903 3.86605 0
M  V30 3631 H 316.796 0.47023 4.03167 0
M  V30 3632 H 317.562 2.94715 3.85186 0
M  V30 3633 H 313.441 1.78719 4.24948 0
M  V30 3634 H 316.985 5.21835 4.62962 0
M  V30 3635 H 312.882 4.04936 5.0269 0
M  V30 3636 H 313.65 6.0736 5.48685 0
M  V30 3637 N 316.313 -1.40141 0.720998 0
M  V30 3638 C 317.243 -2.33339 0.0867621 0
M  V30 3639 C 318.224 -1.53178 -0.739622 0
M  V30 3640 O 319.409 -1.81625 -0.687449 0
M  V30 3641 C 316.539 -3.37194 -0.831728 0
M  V30 3642 C 315.493 -4.27857 -0.110558 0
M  V30 3643 C 314.819 -5.22294 -1.14513 0
M  V30 3644 C 316.119 -5.11872 1.0385 0
M  V30 3645 H 317.813 -2.86626 0.865219 0
M  V30 3646 H 315.359 -1.37814 0.417516 0
M  V30 3647 H 317.312 -4.01335 -1.28485 0
M  V30 3648 H 316.036 -2.82314 -1.64214 0
M  V30 3649 H 314.695 -3.65176 0.322797 0
M  V30 3650 H 314.343 -4.63717 -1.94874 0
M  V30 3651 H 314.043 -5.83797 -0.667446 0
M  V30 3652 H 315.567 -5.89312 -1.59824 0
M  V30 3653 H 316.981 -5.69436 0.664482 0
M  V30 3654 H 315.378 -5.82445 1.4449 0
M  V30 3655 H 316.448 -4.4753 1.86668 0
M  V30 3656 N 317.792 -0.46758 -1.50504 0
M  V30 3657 C 319.041 0.0902868 -2.01498 0
M  V30 3658 C 319.354 1.411 -1.35463 0
M  V30 3659 O 320.56 2.0536 -1.77594 0
M  V30 3660 C 319.016 0.21142 -3.59278 0
M  V30 3661 C 318.624 -1.10065 -4.34269 0
M  V30 3662 C 320.368 0.721433 -4.18325 0
M  V30 3663 C 318.275 -0.943505 -5.83825 0
M  V30 3664 H 317.205 0.037517 -0.753066 0
M  V30 3665 H 319.856 -0.601943 -1.73346 0
M  V30 3666 H 318.238 0.967352 -3.84003 0
M  V30 3667 H 319.412 -1.86726 -4.21272 0
M  V30 3668 H 317.727 -1.5415 -3.86816 0
M  V30 3669 H 320.324 0.85598 -5.27804 0
M  V30 3670 H 320.667 1.71186 -3.79475 0
M  V30 3671 H 321.2 0.0229843 -3.97793 0
M  V30 3672 H 317.939 -1.90719 -6.27141 0
M  V30 3673 H 317.459 -0.217213 -5.99407 0
M  V30 3674 H 319.138 -0.608715 -6.4413 0
M  V30 3675 N 319.27 1.56325 -0.20005 0
M  V30 3676 C 320.217 2.1932 0.718833 0
M  V30 3677 C 321.187 1.14198 1.20615 0
M  V30 3678 O 322.372 1.42469 1.26914 0
M  V30 3679 C 319.512 2.86041 1.93066 0
M  V30 3680 C 318.625 4.05702 1.48425 0
M  V30 3681 C 317.76 4.60266 2.65196 0
M  V30 3682 C 316.799 5.72273 2.17185 0
M  V30 3683 N 315.936 6.21221 3.27152 0
M  V30 3684 H 320.776 2.97486 0.17489 0
M  V30 3685 H 318.313 1.46911 0.0745794 0
M  V30 3686 H 320.271 3.22897 2.64184 0
M  V30 3687 H 318.901 2.1043 2.44783 0
M  V30 3688 H 317.953 3.74475 0.668755 0
M  V30 3689 H 319.265 4.86699 1.09204 0
M  V30 3690 H 318.419 4.99453 3.4443 0
M  V30 3691 H 317.158 3.78386 3.07693 0
M  V30 3692 H 316.163 5.3261 1.36407 0
M  V30 3693 H 317.388 6.55974 1.75713 0
M  V30 3694 H 315.334 5.42263 3.69171 0
M  V30 3695 H 315.251 6.97284 2.92116 0
M  V30 3696 H 316.519 6.65063 4.06585 0
M  V30 3697 N 320.748 -0.0735177 1.57428 0
M  V30 3698 C 321.658 -1.10547 2.06922 0
M  V30 3699 C 322.674 -1.42506 0.998402 0
M  V30 3700 O 323.85 -1.52717 1.31299 0
M  V30 3701 C 320.915 -2.40019 2.50184 0
M  V30 3702 C 319.976 -2.15046 3.71556 0
M  V30 3703 C 319.209 -3.38345 4.12745 0
M  V30 3704 O 319.432 -4.47399 3.53822 0
M  V30 3705 O 318.366 -3.2666 5.05546 0
M  V30 3706 H 322.192 -0.715013 2.95163 0
M  V30 3707 H 319.777 -0.287531 1.46607 0
M  V30 3708 H 321.659 -3.16218 2.78539 0
M  V30 3709 H 320.334 -2.78447 1.65072 0
M  V30 3710 H 319.241 -1.36558 3.48285 0
M  V30 3711 H 320.574 -1.81499 4.57514 0
M  V30 3712 N 322.226 -1.5378 -0.344866 0
M  V30 3713 C 323.472 -1.71216 -1.08687 0
M  V30 3714 C 323.805 -0.473281 -1.88345 0
M  V30 3715 O 323.08 0.52968 -1.87149 0
M  V30 3716 C 323.363 -2.97486 -2.02914 0
M  V30 3717 C 323.216 -4.31579 -1.26727 0
M  V30 3718 C 324.535 -3.19422 -3.0275 0
M  V30 3719 H 321.654 -0.62301 -0.393735 0
M  V30 3720 H 324.296 -1.8645 -0.365563 0
M  V30 3721 H 322.446 -2.84629 -2.64421 0
M  V30 3722 H 324.118 -4.56284 -0.67845 0
M  V30 3723 H 322.361 -4.30049 -0.569273 0
M  V30 3724 H 323.032 -5.16106 -1.95803 0
M  V30 3725 H 325.508 -3.316 -2.51357 0
M  V30 3726 H 324.384 -4.09169 -3.65885 0
M  V30 3727 H 324.645 -2.35656 -3.74057 0
M  V30 3728 N 323.704 0.605807 -1.45491 0
M  V30 3729 C 324.953 1.36086 -1.48874 0
M  V30 3730 C 325.266 1.95131 -0.135333 0
M  V30 3731 O 326.472 2.7146 -0.0468144 0
M  V30 3732 C 324.928 2.46518 -2.62215 0
M  V30 3733 C 324.536 1.93877 -4.03876 0
M  V30 3734 C 326.28 3.23512 -2.74846 0
M  V30 3735 C 324.187 3.01801 -5.08596 0
M  V30 3736 H 323.117 0.511497 -0.553974 0
M  V30 3737 H 325.768 0.649089 -1.71636 0
M  V30 3738 H 324.15 3.20388 -2.32739 0
M  V30 3739 H 325.324 1.26704 -4.43038 0
M  V30 3740 H 323.639 1.29622 -3.95711 0
M  V30 3741 H 326.236 4.04013 -3.50253 0
M  V30 3742 H 326.579 3.74631 -1.81542 0
M  V30 3743 H 327.112 2.56742 -3.03856 0
M  V30 3744 H 323.851 2.55597 -6.03614 0
M  V30 3745 H 323.371 3.67535 -4.74002 0
M  V30 3746 H 325.05 3.66152 -5.33424 0
M  V30 3747 N 325.182 1.32811 0.848464 0
M  V30 3748 C 326.431 1.23075 1.59798 0
M  V30 3749 C 326.744 -0.204419 1.94529 0
M  V30 3750 O 327.95 -0.423701 2.68173 0
M  V30 3751 C 326.406 2.15594 2.88179 0
M  V30 3752 C 326.014 3.64228 2.60849 0
M  V30 3753 C 327.758 2.14709 3.66197 0
M  V30 3754 C 325.665 4.48689 3.85269 0
M  V30 3755 H 324.595 0.457091 0.599653 0
M  V30 3756 H 327.246 1.57813 0.936342 0
M  V30 3757 H 325.628 1.73778 3.55833 0
M  V30 3758 H 326.802 4.14424 2.01467 0
M  V30 3759 H 325.117 3.67306 1.96151 0
M  V30 3760 H 327.714 2.75046 4.58534 0
M  V30 3761 H 328.057 1.13966 4.00397 0
M  V30 3762 H 328.59 2.54837 3.05455 0
M  V30 3763 H 325.329 5.5027 3.56207 0
M  V30 3764 H 324.849 4.03241 4.44024 0
M  V30 3765 H 326.528 4.62006 4.52946 0
M  V30 3766 N 326.66 -1.06551 1.16123 0
M  V30 3767 C 327.59 -2.15935 0.88851 0
M  V30 3768 C 328.571 -1.69306 -0.164135 0
M  V30 3769 O 329.756 -1.94193 -0.0167857 0
M  V30 3770 C 326.886 -3.45149 0.385942 0
M  V30 3771 C 325.84 -4.05271 1.3762 0
M  V30 3772 C 325.166 -5.29664 0.732137 0
M  V30 3773 C 326.466 -4.44355 2.74493 0
M  V30 3774 H 328.16 -2.39006 1.80323 0
M  V30 3775 H 325.706 -1.14866 0.868435 0
M  V30 3776 H 327.659 -4.21004 0.182647 0
M  V30 3777 H 326.383 -3.21689 -0.564274 0
M  V30 3778 H 325.042 -3.3147 1.56599 0
M  V30 3779 H 324.69 -5.02499 -0.224483 0
M  V30 3780 H 324.39 -5.70848 1.39307 0
M  V30 3781 H 325.914 -6.08218 0.538802 0
M  V30 3782 H 327.328 -5.11303 2.59311 0
M  V30 3783 H 325.725 -4.96515 3.37035 0
M  V30 3784 H 326.795 -3.55339 3.29943 0
M  V30 3785 N 328.138 -0.959301 -1.25041 0
M  V30 3786 C 329.048 -0.489994 -2.29426 0
M  V30 3787 C 330.064 0.444944 -1.68215 0
M  V30 3788 O 331.24 0.320046 -1.98841 0
M  V30 3789 C 328.305 0.220309 -3.45999 0
M  V30 3790 C 327.366 -0.753418 -4.22637 0
M  V30 3791 C 326.599 -0.076918 -5.33645 0
M  V30 3792 O 326.822 1.13649 -5.58963 0
M  V30 3793 O 325.756 -0.764824 -5.97021 0
M  V30 3794 H 329.582 -1.35755 -2.71669 0
M  V30 3795 H 327.167 -0.725961 -1.30576 0
M  V30 3796 H 329.049 0.619677 -4.16819 0
M  V30 3797 H 327.724 1.06296 -3.0575 0
M  V30 3798 H 326.631 -1.20308 -3.54227 0
M  V30 3799 H 327.964 -1.56423 -4.66683 0
M  V30 3800 N 329.616 1.39756 -0.72842 0
M  V30 3801 C 330.846 2.04651 -0.283117 0
M  V30 3802 C 331.254 1.5502 1.08469 0
M  V30 3803 O 330.597 0.707343 1.69536 0
M  V30 3804 C 330.659 3.58947 -0.199309 0
M  V30 3805 C 330.323 4.31525 -1.5045 0
M  V30 3806 C 331.32 4.5861 -2.44894 0
M  V30 3807 C 329.005 4.70195 -1.76698 0
M  V30 3808 C 330.999 5.23366 -3.63822 0
M  V30 3809 C 328.686 5.3468 -2.95906 0
M  V30 3810 C 329.684 5.61198 -3.89289 0
M  V30 3811 O 329.372 6.24347 -5.06404 0
M  V30 3812 H 329.104 0.664777 -0.122666 0
M  V30 3813 H 331.658 1.79913 -0.990987 0
M  V30 3814 H 329.888 3.82556 0.56461 0
M  V30 3815 H 331.577 4.0534 0.213125 0
M  V30 3816 H 332.343 4.29187 -2.25883 0
M  V30 3817 H 328.222 4.48916 -1.04859 0
M  V30 3818 H 331.766 5.4398 -4.36728 0
M  V30 3819 H 327.663 5.63524 -3.14819 0
M  V30 3820 H 328.431 6.42842 -5.06652 0
M  V30 3821 N 331.094 0.475555 1.50254 0
M  V30 3822 C 332.027 -0.362381 2.25304 0
M  V30 3823 C 333.005 -0.992393 1.28803 0
M  V30 3824 O 334.189 -1.02746 1.58036 0
M  V30 3825 C 331.316 -1.50813 3.03271 0
M  V30 3826 C 330.362 -0.995044 4.1473 0
M  V30 3827 S 331.195 0.0938436 5.35418 0
M  V30 3828 C 332.351 -1.05567 6.16933 0
M  V30 3829 H 332.584 0.274686 2.96028 0
M  V30 3830 H 330.117 0.260495 1.52187 0
M  V30 3831 H 332.075 -2.16476 3.48781 0
M  V30 3832 H 330.736 -2.11672 2.32064 0
M  V30 3833 H 329.929 -1.85293 4.68703 0
M  V30 3834 H 329.531 -0.416052 3.71679 0
M  V30 3835 H 331.823 -1.96636 6.48337 0
M  V30 3836 H 332.766 -0.555109 7.05921 0
M  V30 3837 H 333.174 -1.31151 5.49053 0
M  V30 3838 N 332.573 -1.56217 0.208337 0
M  V30 3839 C 333.85 -1.89739 -0.475234 0
M  V30 3840 C 334.23 -1.1238 -1.78701 0
M  V30 3841 O 333.578 -0.228979 -2.2735 0
M  V30 3842 C 333.788 -3.42289 -0.681101 0
M  V30 3843 C 335.136 -4.12789 -0.994507 0
M  V30 3844 O 336.16 -3.47814 -0.768357 0
M  V30 3845 O 335.019 -5.27649 -1.42299 0
M  V30 3846 H 332.113 -0.788478 -0.249461 0
M  V30 3847 H 334.659 -1.67855 0.249538 0
M  V30 3848 H 333.431 -3.90534 0.244722 0
M  V30 3849 H 333.054 -3.69909 -1.45785 0
M  V30 3850 N 334.051 0.0651679 -1.57465 0
M  V30 3851 C 334.999 1.09542 -2.05191 0
M  V30 3852 C 335.993 1.39675 -0.958509 0
M  V30 3853 O 337.199 1.39003 -1.14359 0
M  V30 3854 H 333.574 0.370623 -0.654326 0
M  V30 3855 H 335.545 0.666802 -2.90854 0
M  V30 3856 C 334.294 2.39881 -2.51699 0
M  V30 3857 H 333.617 2.17547 -3.3543 0
M  V30 3858 H 335.057 3.104 -2.88839 0
M  V30 3859 C 333.516 3.0631 -1.40271 0
M  V30 3860 O 334.046 3.94664 -0.748523 0
M  V30 3861 N 332.252 2.67041 -1.14618 0
M  V30 3862 H 331.799 1.95281 -1.67997 0
M  V30 3863 H 331.757 3.1181 -0.402688 0
M  V30 3864 N 335.529 1.53961 0.336706 0
M  V30 3865 C 336.759 1.75229 1.09446 0
M  V30 3866 C 337.167 0.494602 1.82621 0
M  V30 3867 O 336.51 -0.543764 1.75468 0
M  V30 3868 C 336.572 2.88288 2.1478 0
M  V30 3869 C 336.236 4.27656 1.6112 0
M  V30 3870 C 337.233 5.08981 1.0599 0
M  V30 3871 C 334.918 4.74161 1.6576 0
M  V30 3872 C 336.912 6.34916 0.562129 0
M  V30 3873 C 334.599 6.00067 1.15595 0
M  V30 3874 C 335.597 6.80278 0.609147 0
M  V30 3875 O 335.285 8.03818 0.114999 0
M  V30 3876 H 335.017 0.588881 0.331956 0
M  V30 3877 H 337.571 2.01614 0.392566 0
M  V30 3878 H 335.801 2.57443 2.88548 0
M  V30 3879 H 337.49 2.97461 2.76174 0
M  V30 3880 H 338.256 4.74213 1.01722 0
M  V30 3881 H 334.135 4.11781 2.07261 0
M  V30 3882 H 337.679 6.9747 0.134668 0
M  V30 3883 H 333.576 6.3433 1.19566 0
M  V30 3884 H 334.344 8.18172 0.231651 0
M  V30 3885 N 337.007 -0.598083 1.45811 0
M  V30 3886 C 338.254 -1.35681 1.50323 0
M  V30 3887 C 338.582 -1.9393 0.148739 0
M  V30 3888 O 337.837 -1.76094 -0.853787 0
M  V30 3889 C 338.136 -2.51669 2.53766 0
M  V30 3890 C 337.802 -2.11508 3.98215 0
M  V30 3891 C 336.464 -2.0027 4.37545 0
M  V30 3892 C 338.816 -1.80308 4.89018 0
M  V30 3893 C 336.144 -1.56067 5.65562 0
M  V30 3894 C 338.496 -1.37589 6.17456 0
M  V30 3895 C 337.16 -1.24916 6.55708 0
M  V30 3896 H 336.43 -0.496492 0.550069 0
M  V30 3897 H 339.077 -0.675052 1.79207 0
M  V30 3898 H 337.382 -3.25225 2.18486 0
M  V30 3899 H 339.079 -3.09895 2.54492 0
M  V30 3900 H 335.669 -2.21185 3.67117 0
M  V30 3901 H 339.853 -1.87884 4.59362 0
M  V30 3902 H 335.109 -1.44886 5.93985 0
M  V30 3903 H 339.283 -1.12495 6.87254 0
M  V30 3904 H 336.91 -0.904386 7.54801 0
M  V30 3905 N 338.485 -1.33259 -0.841409 0
M  V30 3906 C 339.71 -1.2775 -1.63385 0
M  V30 3907 C 340.135 0.149188 -1.87507 0
M  V30 3908 O 339.493 1.10498 -1.43736 0
M  V30 3909 C 339.541 -2.05571 -2.96265 0
M  V30 3910 O 338.645 -1.41257 -3.87453 0
M  V30 3911 H 337.986 -0.439627 -0.497618 0
M  V30 3912 H 340.516 -1.75782 -1.04699 0
M  V30 3913 H 340.526 -2.16241 -3.45982 0
M  V30 3914 H 339.201 -3.09309 -2.7803 0
M  V30 3915 H 337.778 -1.39217 -3.45938 0
M  V30 3916 N 339.963 1.05934 -1.16686 0
M  V30 3917 C 340.893 2.1546 -0.899949 0
M  V30 3918 C 341.874 1.69391 0.155154 0
M  V30 3919 O 343.059 1.94199 0.00648693 0
M  V30 3920 C 340.189 3.44939 -0.404241 0
M  V30 3921 C 339.143 4.04536 -1.39767 0
M  V30 3922 C 338.469 5.29268 -0.760216 0
M  V30 3923 C 339.769 4.42893 -2.76845 0
M  V30 3924 H 341.463 2.38046 -1.81588 0
M  V30 3925 H 339.009 1.14404 -0.874514 0
M  V30 3926 H 340.962 4.20901 -0.204971 0
M  V30 3927 H 339.686 3.21983 0.547206 0
M  V30 3928 H 338.345 3.30635 -1.58355 0
M  V30 3929 H 337.993 5.02611 0.197831 0
M  V30 3930 H 337.693 5.70101 -1.42332 0
M  V30 3931 H 339.217 6.07924 -0.57105 0
M  V30 3932 H 340.631 5.09921 -2.62019 0
M  V30 3933 H 339.028 4.94721 -3.39663 0
M  V30 3934 H 340.098 3.53584 -3.31823 0
M  V30 3935 N 341.441 0.965919 1.2453 0
M  V30 3936 C 342.688 0.626831 1.92554 0
M  V30 3937 C 343.016 -0.837739 1.75534 0
M  V30 3938 O 342.271 -1.61793 1.10098 0
M  V30 3939 C 342.57 0.945428 3.44669 0
M  V30 3940 C 342.236 2.39785 3.81856 0
M  V30 3941 C 340.898 2.79483 3.91718 0
M  V30 3942 C 343.25 3.34055 4.00071 0
M  V30 3943 C 340.578 4.12496 4.1721 0
M  V30 3944 C 342.93 4.66694 4.27059 0
M  V30 3945 C 341.594 5.06172 4.3514 0
M  V30 3946 H 340.864 0.229374 0.704605 0
M  V30 3947 H 343.511 1.21707 1.4785 0
M  V30 3948 H 341.816 0.272926 3.90848 0
M  V30 3949 H 343.513 0.661484 3.95507 0
M  V30 3950 H 340.103 2.08003 3.74743 0
M  V30 3951 H 344.287 3.04571 3.91855 0
M  V30 3952 H 339.543 4.42709 4.21685 0
M  V30 3953 H 343.717 5.3971 4.40097 0
M  V30 3954 H 341.344 6.09262 4.54646 0
M  V30 3955 N 342.919 -1.39368 0.735821 0
M  V30 3956 C 344.196 -1.94465 0.210395 0
M  V30 3957 C 344.576 -1.67254 -1.28799 0
M  V30 3958 O 343.924 -1.00123 -2.05396 0
M  V30 3959 C 344.134 -3.4472 0.544897 0
M  V30 3960 C 345.482 -4.21708 0.494689 0
M  V30 3961 O 346.506 -3.52922 0.482136 0
M  V30 3962 O 345.365 -5.44299 0.489947 0
M  V30 3963 H 342.459 -0.826096 0.0386666 0
M  V30 3964 H 345.005 -1.48863 0.814735 0
M  V30 3965 H 343.777 -3.57963 1.58045 0
M  V30 3966 H 343.4 -3.97502 -0.08837 0
M  V30 3967 N 344.397 -0.483516 -1.5 0
M  V30 3968 C 345.644 0.0671597 -2.02389 0
M  V30 3969 C 345.972 1.38597 -1.36459 0
M  V30 3970 O 345.227 1.89634 -0.483458 0
M  V30 3971 C 345.526 0.286226 -3.56252 0
M  V30 3972 C 345.192 -0.952416 -4.40726 0
M  V30 3973 C 343.854 -1.29199 -4.63531 0
M  V30 3974 C 346.206 -1.77655 -4.89988 0
M  V30 3975 C 343.534 -2.45553 -5.32842 0
M  V30 3976 C 345.886 -2.93147 -5.60578 0
M  V30 3977 C 344.55 -3.27505 -5.81633 0
M  V30 3978 H 343.82 0.0245755 -0.740592 0
M  V30 3979 H 346.467 -0.640124 -1.80485 0
M  V30 3980 H 344.772 1.07587 -3.76739 0
M  V30 3981 H 346.469 0.726473 -3.94365 0
M  V30 3982 H 343.059 -0.677881 -4.23205 0
M  V30 3983 H 347.243 -1.52737 -4.72213 0
M  V30 3984 H 342.499 -2.72431 -5.47349 0
M  V30 3985 H 346.673 -3.57344 -5.97727 0
M  V30 3986 H 344.3 -4.1777 -6.35116 0
M  V30 3987 N 345.875 1.56104 -0.216619 0
M  V30 3988 C 347.124 1.97348 0.416744 0
M  V30 3989 C 347.437 1.10715 1.6125 0
M  V30 3990 O 348.643 1.41836 2.31506 0
M  V30 3991 C 347.099 3.51059 0.792835 0
M  V30 3992 C 346.707 4.46387 -0.379828 0
M  V30 3993 C 348.451 4.01026 1.39208 0
M  V30 3994 C 346.358 5.91397 0.0184223 0
M  V30 3995 H 345.288 0.736942 0.159475 0
M  V30 3996 H 347.939 1.80827 -0.31205 0
M  V30 3997 H 346.321 3.63162 1.57891 0
M  V30 3998 H 347.495 4.46029 -1.15737 0
M  V30 3999 H 345.81 4.06734 -0.891979 0
M  V30 4000 H 348.407 5.0686 1.70286 0
M  V30 4001 H 348.75 3.46587 2.30614 0
M  V30 4002 H 349.283 3.92125 0.669537 0
M  V30 4003 H 346.022 6.49807 -0.862002 0
M  V30 4004 H 345.542 5.94961 0.760384 0
M  V30 4005 H 347.221 6.45455 0.446818 0
M  V30 4006 N 347.353 -0.0568162 1.57498 0
M  V30 4007 C 348.283 -1.06593 2.0775 0
M  V30 4008 C 349.264 -1.39448 0.974082 0
M  V30 4009 O 350.449 -1.48815 1.24771 0
M  V30 4010 C 347.579 -2.37509 2.5339 0
M  V30 4011 C 346.533 -2.1897 3.67745 0
M  V30 4012 C 345.859 -3.55402 3.99492 0
M  V30 4013 C 347.159 -1.59859 4.97235 0
M  V30 4014 H 348.853 -0.647706 2.9231 0
M  V30 4015 H 346.399 -0.310116 1.40621 0
M  V30 4016 H 348.352 -3.08409 2.87162 0
M  V30 4017 H 347.076 -2.8134 1.65878 0
M  V30 4018 H 345.735 -1.50508 3.3428 0
M  V30 4019 H 345.383 -3.9683 3.09088 0
M  V30 4020 H 345.083 -3.43831 4.76502 0
M  V30 4021 H 346.607 -4.27708 4.35773 0
M  V30 4022 H 348.021 -2.20642 5.29141 0
M  V30 4023 H 346.418 -1.58942 5.78669 0
M  V30 4024 H 347.488 -0.561506 4.81638 0
M  V30 4025 N 348.832 -1.54138 -0.328536 0
M  V30 4026 C 349.779 -1.83176 -1.40411 0
M  V30 4027 C 350.749 -0.678494 -1.5161 0
M  V30 4028 O 351.934 -0.92443 -1.6691 0
M  V30 4029 C 349.074 -2.06035 -2.76846 0
M  V30 4030 C 348.187 -3.33727 -2.74318 0
M  V30 4031 C 347.322 -3.46574 -4.02567 0
M  V30 4032 C 346.361 -4.68159 -3.94327 0
M  V30 4033 N 345.498 -4.77959 -5.14296 0
M  V30 4034 H 350.338 -2.74938 -1.14948 0
M  V30 4035 H 347.875 -1.36166 -0.556538 0
M  V30 4036 H 349.833 -2.1728 -3.56153 0
M  V30 4037 H 348.463 -1.1757 -3.00628 0
M  V30 4038 H 347.515 -3.31246 -1.8703 0
M  V30 4039 H 348.827 -4.23139 -2.64111 0
M  V30 4040 H 347.981 -3.57333 -4.90304 0
M  V30 4041 H 346.72 -2.55245 -4.15574 0
M  V30 4042 H 345.725 -4.57461 -3.04974 0
M  V30 4043 H 346.95 -5.60868 -3.82889 0
M  V30 4044 H 344.896 -3.89544 -5.27818 0
M  V30 4045 H 344.813 -5.6133 -5.06404 0
M  V30 4046 H 346.081 -4.93044 -6.03761 0
M  V30 4047 N 350.31 0.590341 -1.46126 0
M  V30 4048 C 351.258 1.72105 -1.5647 0
M  V30 4049 C 352.252 1.63756 -0.433612 0
M  V30 4050 O 353.458 1.69342 -0.610194 0
M  V30 4051 H 349.833 0.568889 -0.491802 0
M  V30 4052 H 351.804 1.6051 -2.51553 0
M  V30 4053 C 350.553 3.10493 -1.56491 0
M  V30 4054 H 349.876 3.17583 -2.4286 0
M  V30 4055 H 351.316 3.8939 -1.67785 0
M  V30 4056 C 349.775 3.3563 -0.292231 0
M  V30 4057 O 350.305 3.96875 0.620739 0
M  V30 4058 N 348.511 2.90026 -0.182523 0
M  V30 4059 H 348.058 2.40367 -0.926356 0
M  V30 4060 H 348.016 3.07218 0.668152 0
M  V30 4061 N 351.788 1.33704 0.83433 0
M  V30 4062 C 352.698 1.26382 1.97648 0
M  V30 4063 C 353.714 0.173548 1.73132 0
M  V30 4064 O 354.89 0.397962 1.97429 0
M  V30 4065 C 351.955 1.00769 3.31733 0
M  V30 4066 C 351.016 2.1884 3.69334 0
M  V30 4067 C 350.249 1.9444 4.9702 0
M  V30 4068 O 350.472 0.896961 5.63303 0
M  V30 4069 O 349.406 2.81093 5.32231 0
M  V30 4070 H 353.232 2.22444 2.06767 0
M  V30 4071 H 350.817 1.13795 0.968037 0
M  V30 4072 H 352.699 0.882186 4.12062 0
M  V30 4073 H 351.374 0.0773783 3.23608 0
M  V30 4074 H 350.281 2.36946 2.89495 0
M  V30 4075 H 351.614 3.10221 3.82131 0
M  V30 4076 N 353.266 -1.05314 1.17247 0
M  V30 4077 C 354.515 -1.77685 0.954521 0
M  V30 4078 C 354.828 -1.88616 -0.518025 0
M  V30 4079 O 356.034 -2.57714 -0.854144 0
M  V30 4080 C 354.49 -3.19402 1.65863 0
M  V30 4081 C 354.098 -3.16605 3.16963 0
M  V30 4082 C 355.842 -3.96237 1.52303 0
M  V30 4083 C 353.749 -4.53103 3.80068 0
M  V30 4084 H 352.679 -0.666 0.353496 0
M  V30 4085 H 355.33 -1.1805 1.40486 0
M  V30 4086 H 353.712 -3.79355 1.13602 0
M  V30 4087 H 354.886 -2.66176 3.76148 0
M  V30 4088 H 353.201 -2.53268 3.30521 0
M  V30 4089 H 355.798 -4.97157 1.96822 0
M  V30 4090 H 356.141 -4.136 0.473401 0
M  V30 4091 H 356.674 -3.42829 2.01775 0
M  V30 4092 H 353.413 -4.40946 4.85023 0
M  V30 4093 H 352.933 -5.03686 3.2567 0
M  V30 4094 H 354.612 -5.22045 3.82202 0
M  V30 4095 N 354.744 -0.972509 -1.24016 0
M  V30 4096 C 355.993 -0.632603 -1.91523 0
M  V30 4097 C 356.306 0.836641 -1.76804 0
M  V30 4098 O 357.512 1.28728 -2.39043 0
M  V30 4099 C 355.968 -1.08082 -3.43287 0
M  V30 4100 C 355.576 -2.57386 -3.66683 0
M  V30 4101 C 357.32 -0.814288 -4.16617 0
M  V30 4102 C 355.227 -2.95915 -5.12043 0
M  V30 4103 H 354.157 -0.232898 -0.717129 0
M  V30 4104 H 356.808 -1.17936 -1.40582 0
M  V30 4105 H 355.19 -0.462339 -3.93292 0
M  V30 4106 H 356.364 -3.24405 -3.27258 0
M  V30 4107 H 354.679 -2.81701 -3.06649 0
M  V30 4108 H 357.276 -1.0781 -5.23718 0
M  V30 4109 H 357.619 0.24955 -4.15551 0
M  V30 4110 H 358.152 -1.39397 -3.72577 0
M  V30 4111 H 354.891 -4.0139 -5.18234 0
M  V30 4112 H 354.411 -2.33584 -5.52448 0
M  V30 4113 H 356.09 -2.86086 -5.80314 0
M  V30 4114 N 356.222 1.38976 -0.743202 0
M  V30 4115 C 357.468 2.0064 -0.295189 0
M  V30 4116 C 357.801 1.5885 1.11716 0
M  V30 4117 O 357.076 0.821181 1.76315 0
M  V30 4118 C 357.359 3.578 -0.406318 0
M  V30 4119 C 357.212 4.09586 -1.85903 0
M  V30 4120 C 358.531 4.39616 0.206439 0
M  V30 4121 H 355.65 0.728935 -0.108733 0
M  V30 4122 H 358.292 1.65067 -0.940897 0
M  V30 4123 H 356.442 3.88235 0.143419 0
M  V30 4124 H 358.114 3.89837 -2.46627 0
M  V30 4125 H 356.357 3.6284 -2.3776 0
M  V30 4126 H 357.028 5.18708 -1.888 0
M  V30 4127 H 359.504 4.15273 -0.262283 0
M  V30 4128 H 358.38 5.48812 0.0983819 0
M  V30 4129 H 358.641 4.22754 1.2935 0
M  V30 4130 N 357.7 0.491464 1.49741 0
M  V30 4131 C 358.928 -0.0535151 2.06831 0
M  V30 4132 C 359.343 -1.31683 1.35296 0
M  V30 4133 O 358.7 -1.77402 0.42836 0
M  V30 4134 C 358.751 -0.320835 3.60073 0
M  V30 4135 O 358.472 0.892394 4.28915 0
M  V30 4136 C 359.973 -0.910519 4.33848 0
M  V30 4137 H 357.193 0.0161909 0.670805 0
M  V30 4138 H 359.737 0.68609 1.92647 0
M  V30 4139 H 357.892 -1.0104 3.73991 0
M  V30 4140 H 358.306 0.649401 5.20464 0
M  V30 4141 H 359.78 -1.04721 5.41976 0
M  V30 4142 H 360.257 -1.90589 3.95692 0
M  V30 4143 H 360.863 -0.258712 4.24512 0
M  V30 4144 N 359.178 -1.55987 0.224894 0
M  V30 4145 C 360.126 -2.21808 -0.700283 0
M  V30 4146 C 361.12 -1.19854 -1.19714 0
M  V30 4147 O 362.326 -1.37925 -1.15658 0
M  V30 4148 H 358.701 -0.711226 -0.244258 0
M  V30 4149 H 360.672 -2.98152 -0.121749 0
M  V30 4150 C 359.421 -2.91444 -1.8962 0
M  V30 4151 H 358.744 -3.69655 -1.52299 0
M  V30 4152 H 360.184 -3.40894 -2.52125 0
M  V30 4153 C 358.643 -1.94098 -2.75368 0
M  V30 4154 O 359.173 -1.46004 -3.74227 0
M  V30 4155 N 357.379 -1.61675 -2.41474 0
M  V30 4156 H 356.926 -2.00979 -1.61137 0
M  V30 4157 H 356.884 -0.968036 -2.99126 0
M  V30 4158 N 360.656 0.0484629 -1.57525 0
M  V30 4159 C 361.886 0.754326 -1.92337 0
M  V30 4160 C 362.294 1.70443 -0.82132 0
M  V30 4161 O 361.637 1.82466 0.21254 0
M  V30 4162 C 361.699 1.58231 -3.22805 0
M  V30 4163 C 361.363 0.799074 -4.4996 0
M  V30 4164 C 362.36 0.1079 -5.19788 0
M  V30 4165 C 360.045 0.759345 -4.96527 0
M  V30 4166 C 362.039 -0.612516 -6.3445 0
M  V30 4167 C 359.726 0.0351713 -6.1109 0
M  V30 4168 C 360.724 -0.649537 -6.79904 0
M  V30 4169 O 360.412 -1.36199 -7.92278 0
M  V30 4170 H 360.144 0.218257 -0.639797 0
M  V30 4171 H 362.698 0.0159295 -2.05394 0
M  V30 4172 H 360.928 2.36406 -3.06021 0
M  V30 4173 H 362.617 2.16898 -3.43089 0
M  V30 4174 H 363.383 0.129748 -4.84826 0
M  V30 4175 H 359.262 1.28177 -4.42822 0
M  V30 4176 H 362.806 -1.14751 -6.88097 0
M  V30 4177 H 358.703 0.0113314 -6.45499 0
M  V30 4178 H 359.471 -1.27366 -8.0853 0
M  V30 4179 N 362.134 1.5431 0.320358 0
M  V30 4180 C 363.383 1.7188 1.05546 0
M  V30 4181 C 363.696 0.501143 1.89071 0
M  V30 4182 O 364.902 0.558258 2.65699 0
M  V30 4183 C 363.358 3.04025 1.92605 0
M  V30 4184 C 362.966 4.33207 1.14176 0
M  V30 4185 C 364.71 3.30959 2.65832 0
M  V30 4186 C 362.617 5.56412 2.00399 0
M  V30 4187 H 361.547 0.640547 0.397763 0
M  V30 4188 H 364.198 1.80802 0.313522 0
M  V30 4189 H 362.58 2.89019 2.7071 0
M  V30 4190 H 363.754 4.58989 0.40819 0
M  V30 4191 H 362.069 4.13062 0.526165 0
M  V30 4192 H 364.666 4.20203 3.30656 0
M  V30 4193 H 365.009 2.48979 3.33639 0
M  V30 4194 H 365.542 3.46847 1.94787 0
M  V30 4195 H 362.281 6.41004 1.37094 0
M  V30 4196 H 361.801 5.34844 2.7148 0
M  V30 4197 H 363.48 5.92938 2.58908 0
M  V30 4198 N 363.613 -0.582584 1.46437 0
M  V30 4199 C 364.523 -1.71949 1.59595 0
M  V30 4200 C 365.539 -1.67264 0.479443 0
M  V30 4201 O 366.715 -1.87171 0.743579 0
M  V30 4202 C 363.78 -3.08452 1.58298 0
M  V30 4203 C 362.841 -3.244 2.81182 0
M  V30 4204 C 362.074 -4.54391 2.79937 0
M  V30 4205 O 362.297 -5.38287 1.8869 0
M  V30 4206 O 361.231 -4.73588 3.71481 0
M  V30 4207 H 365.057 -1.63795 2.55744 0
M  V30 4208 H 362.642 -0.749643 1.29231 0
M  V30 4209 H 364.524 -3.89732 1.60271 0
M  V30 4210 H 363.199 -3.17043 0.653094 0
M  V30 4211 H 362.106 -2.42613 2.84763 0
M  V30 4212 H 363.439 -3.20699 3.7338 0
M  V30 4213 N 365.091 -1.34144 -0.827227 0
M  V30 4214 C 366.368 -1.16844 -1.56865 0
M  V30 4215 C 366.748 0.260654 -2.09485 0
M  V30 4216 O 366.096 1.26138 -1.9053 0
M  V30 4217 C 366.306 -2.21939 -2.6934 0
M  V30 4218 C 367.654 -2.56695 -3.3822 0
M  V30 4219 O 368.678 -2.20695 -2.79593 0
M  V30 4220 O 367.537 -3.18518 -4.44082 0
M  V30 4221 H 364.631 -0.452669 -0.692112 0
M  V30 4222 H 367.177 -1.45763 -0.868973 0
M  V30 4223 H 365.949 -3.17882 -2.28182 0
M  V30 4224 H 365.572 -1.94172 -3.46962 0
M  V30 4225 N 366.569 1.04691 -1.17803 0
M  V30 4226 C 367.479 2.16057 -0.914151 0
M  V30 4227 C 368.495 1.73589 0.119503 0
M  V30 4228 O 369.671 2.01308 -0.0609468 0
M  V30 4229 C 366.736 3.4394 -0.436603 0
M  V30 4230 C 365.797 4.00825 -1.53746 0
M  V30 4231 C 365.03 5.22604 -1.0826 0
M  V30 4232 O 365.253 5.70367 0.0612244 0
M  V30 4233 O 364.187 5.7186 -1.87775 0
M  V30 4234 H 368.013 2.41169 -1.84584 0
M  V30 4235 H 365.598 1.1453 -0.959334 0
M  V30 4236 H 367.48 4.21024 -0.178057 0
M  V30 4237 H 366.155 3.20316 0.466869 0
M  V30 4238 H 365.062 3.25158 -1.84995 0
M  V30 4239 H 366.395 4.28778 -2.41683 0
M  V30 4240 N 368.047 0.979072 1.23499 0
M  V30 4241 C 368.995 0.510604 2.26926 0
M  V30 4242 C 369.989 -0.431691 1.63807 0
M  V30 4243 O 371.195 -0.30573 1.77385 0
M  V30 4244 H 367.57 0.146688 0.737554 0
M  V30 4245 H 369.541 1.39466 2.63803 0
M  V30 4246 C 368.29 -0.172658 3.47271 0
M  V30 4247 H 367.613 0.543331 3.96091 0
M  V30 4248 H 369.053 -0.464101 4.21452 0
M  V30 4249 C 367.512 -1.40345 3.06276 0
M  V30 4250 O 368.042 -2.49978 3.14442 0
M  V30 4251 N 366.248 -1.27362 2.61203 0
M  V30 4252 H 365.795 -0.381584 2.54758 0
M  V30 4253 H 365.753 -2.09822 2.34141 0
M  V30 4254 N 369.525 -1.3858 0.750561 0
M  V30 4255 C 370.755 -2.04175 0.31564 0
M  V30 4256 C 371.163 -1.56726 -1.05989 0
M  V30 4257 O 370.506 -0.734225 -1.68389 0
M  V30 4258 C 370.568 -3.58585 0.256389 0
M  V30 4259 C 370.232 -4.29077 1.57296 0
M  V30 4260 C 371.229 -4.54656 2.52159 0
M  V30 4261 C 368.914 -4.67324 1.84156 0
M  V30 4262 C 370.908 -5.17512 3.72103 0
M  V30 4263 C 368.595 -5.29905 3.04374 0
M  V30 4264 C 369.593 -5.54933 3.98168 0
M  V30 4265 O 369.281 -6.16212 5.16273 0
M  V30 4266 H 369.013 -0.662742 0.133226 0
M  V30 4267 H 371.567 -1.78313 1.01948 0
M  V30 4268 H 369.797 -3.83406 -0.503677 0
M  V30 4269 H 371.486 -4.05628 -0.148612 0
M  V30 4270 H 372.252 -4.25539 2.32683 0
M  V30 4271 H 368.131 -4.47191 1.11988 0
M  V30 4272 H 371.675 -5.36963 4.45327 0
M  V30 4273 H 367.572 -5.58444 3.23745 0
M  V30 4274 H 368.34 -6.34701 5.16815 0
M  V30 4275 N 371.003 -0.499398 -1.49478 0
M  V30 4276 C 371.933 0.269244 -2.31943 0
M  V30 4277 C 372.914 0.964054 -1.40143 0
M  V30 4278 O 374.099 0.955767 -1.69052 0
M  V30 4279 C 371.229 1.33504 -3.20615 0
M  V30 4280 C 370.183 0.760202 -4.21195 0
M  V30 4281 C 369.509 1.9264 -4.98792 0
M  V30 4282 C 370.809 -0.247661 -5.21712 0
M  V30 4283 H 372.503 -0.419082 -2.96452 0
M  V30 4284 H 370.049 -0.202988 -1.42562 0
M  V30 4285 H 372.002 1.88048 -3.77115 0
M  V30 4286 H 370.726 2.05253 -2.54045 0
M  V30 4287 H 369.385 0.23653 -3.65836 0
M  V30 4288 H 369.033 2.63154 -4.28671 0
M  V30 4289 H 368.733 1.54785 -5.66847 0
M  V30 4290 H 370.257 2.4762 -5.58137 0
M  V30 4291 H 371.671 0.209579 -5.72917 0
M  V30 4292 H 370.068 -0.541962 -5.97648 0
M  V30 4293 H 371.138 -1.16409 -4.7072 0
M  V30 4294 N 372.481 1.55866 -0.233164 0
M  V30 4295 C 373.428 2.20796 0.67215 0
M  V30 4296 C 374.398 1.16731 1.18166 0
M  V30 4297 O 375.583 1.45129 1.23864 0
M  V30 4298 C 372.723 2.90072 1.86955 0
M  V30 4299 C 371.836 4.08759 1.39786 0
M  V30 4300 C 370.971 4.65787 2.55374 0
M  V30 4301 C 370.01 5.76752 2.04998 0
M  V30 4302 N 369.147 6.28021 3.13901 0
M  V30 4303 H 373.987 2.9779 0.111749 0
M  V30 4304 H 371.524 1.47036 0.0434007 0
M  V30 4305 H 373.482 3.28428 2.57276 0
M  V30 4306 H 372.112 2.15575 2.40265 0
M  V30 4307 H 371.164 3.7581 0.589173 0
M  V30 4308 H 372.476 4.88906 0.98856 0
M  V30 4309 H 371.63 5.06646 3.33758 0
M  V30 4310 H 370.369 3.84828 2.99598 0
M  V30 4311 H 369.374 5.35383 1.25079 0
M  V30 4312 H 370.599 6.59553 1.61759 0
M  V30 4313 H 368.545 5.49971 3.57586 0
M  V30 4314 H 368.462 7.03323 2.7726 0
M  V30 4315 H 369.73 6.73538 3.92386 0
M  V30 4316 N 373.959 -0.0401083 1.57549 0
M  V30 4317 C 374.906 -1.04413 2.05831 0
M  V30 4318 C 375.876 -1.36585 0.945184 0
M  V30 4319 O 377.061 -1.47112 1.21502 0
M  V30 4320 C 374.201 -2.34336 2.53339 0
M  V30 4321 C 373.314 -2.08419 3.78398 0
M  V30 4322 C 372.449 -3.32133 4.14561 0
M  V30 4323 C 371.488 -3.01721 5.3257 0
M  V30 4324 N 370.625 -4.17855 5.64218 0
M  V30 4325 H 375.465 -0.625442 2.91363 0
M  V30 4326 H 373.002 -0.297218 1.44066 0
M  V30 4327 H 374.96 -3.10234 2.78946 0
M  V30 4328 H 373.59 -2.73948 1.7074 0
M  V30 4329 H 372.642 -1.23069 3.59942 0
M  V30 4330 H 373.954 -1.81978 4.64419 0
M  V30 4331 H 373.108 -4.16406 4.41238 0
M  V30 4332 H 371.847 -3.61678 3.2717 0
M  V30 4333 H 370.852 -2.15849 5.05657 0
M  V30 4334 H 372.077 -2.73466 6.21605 0
M  V30 4335 H 370.023 -4.47372 4.79786 0
M  V30 4336 H 369.94 -3.94798 6.44725 0
M  V30 4337 H 371.208 -5.03033 5.95465 0
M  V30 4338 N 375.437 -1.54477 -0.31217 0
M  V30 4339 C 376.367 -1.87652 -1.38957 0
M  V30 4340 C 377.348 -0.734358 -1.53431 0
M  V30 4341 O 378.533 -0.98911 -1.67123 0
M  V30 4342 C 375.663 -2.11396 -2.75552 0
M  V30 4343 C 374.617 -3.27243 -2.75855 0
M  V30 4344 C 373.943 -3.36382 -4.15633 0
M  V30 4345 C 375.243 -4.64622 -2.38587 0
M  V30 4346 H 376.937 -2.77887 -1.11442 0
M  V30 4347 H 374.483 -1.33707 -0.534655 0
M  V30 4348 H 376.436 -2.33189 -3.51 0
M  V30 4349 H 375.16 -1.17921 -3.04569 0
M  V30 4350 H 373.819 -3.05356 -2.02863 0
M  V30 4351 H 373.467 -2.40445 -4.41809 0
M  V30 4352 H 373.167 -4.14249 -4.1674 0
M  V30 4353 H 374.691 -3.60422 -4.92877 0
M  V30 4354 H 376.105 -4.86219 -3.03749 0
M  V30 4355 H 374.502 -5.45121 -2.50925 0
M  V30 4356 H 375.572 -4.66097 -1.33723 0
M  V30 4357 N 376.915 0.57481 -1.46744 0
M  V30 4358 C 378.326 1.15695 -1.46532 0
M  V30 4359 C 378.677 1.95068 -0.210425 0
M  V30 4360 O 377.802 2.05241 0.685944 0
M  V30 4361 C 378.397 2.1048 -2.65487 0
M  V30 4362 C 376.956 2.64002 -2.68291 0
M  V30 4363 C 376.103 1.40026 -2.39349 0
M  V30 4364 H 379.054 0.362325 -1.54509 0
M  V30 4365 H 379.075 2.94074 -2.41455 0
M  V30 4366 H 378.587 1.52683 -3.56805 0
M  V30 4367 H 376.688 3.25646 -1.81067 0
M  V30 4368 H 376.801 3.06197 -3.68483 0
M  V30 4369 H 375.165 1.70106 -1.89568 0
M  V30 4370 H 375.948 0.840485 -3.32852 0
M  V30 4371 N 378.394 1.34581 0.820102 0
M  V30 4372 C 379.326 1.22236 1.93884 0
M  V30 4373 C 380.339 0.148776 1.62119 0
M  V30 4374 O 381.528 0.400877 1.7394 0
M  V30 4375 C 378.628 0.856542 3.27897 0
M  V30 4376 C 377.801 2.02569 3.87666 0
M  V30 4377 C 376.86 1.63782 5.00062 0
M  V30 4378 O 375.886 2.35477 5.18208 0
M  V30 4379 N 377.088 0.553611 5.77854 0
M  V30 4380 H 379.853 2.18615 2.05006 0
M  V30 4381 H 377.414 1.27573 0.99683 0
M  V30 4382 H 379.406 0.578806 4.0054 0
M  V30 4383 H 377.976 -0.0171518 3.12595 0
M  V30 4384 H 377.196 2.468 3.07382 0
M  V30 4385 H 378.484 2.80752 4.24329 0
M  V30 4386 H 377.882 -0.0423528 5.65684 0
M  V30 4387 H 376.439 0.335614 6.50935 0
M  V30 4388 N 379.872 -1.04064 1.18357 0
M  V30 4389 C 381.119 -1.77265 0.978947 0
M  V30 4390 C 381.447 -1.88189 -0.491428 0
M  V30 4391 O 380.702 -1.38653 -1.38108 0
M  V30 4392 C 381.001 -3.20634 1.57888 0
M  V30 4393 C 380.667 -3.29743 3.07539 0
M  V30 4394 C 379.329 -3.31937 3.48384 0
M  V30 4395 C 381.681 -3.29841 4.03552 0
M  V30 4396 C 379.009 -3.3187 4.83818 0
M  V30 4397 C 381.361 -3.31313 5.38901 0
M  V30 4398 C 380.025 -3.31799 5.79194 0
M  V30 4399 H 379.295 -0.648659 0.358222 0
M  V30 4400 H 381.942 -1.22225 1.47422 0
M  V30 4401 H 380.247 -3.78675 1.00561 0
M  V30 4402 H 381.944 -3.75917 1.39598 0
M  V30 4403 H 378.534 -3.28757 2.74986 0
M  V30 4404 H 382.718 -3.27337 3.73047 0
M  V30 4405 H 377.974 -3.30562 5.14333 0
M  V30 4406 H 382.148 -3.30338 6.13066 0
M  V30 4407 H 379.775 -3.315 6.84114 0
M  V30 4408 N 381.35 -0.985608 -1.22978 0
M  V30 4409 C 382.297 -0.529825 -2.24636 0
M  V30 4410 C 383.267 0.434028 -1.60329 0
M  V30 4411 O 384.452 0.340414 -1.87739 0
M  V30 4412 C 381.592 0.156533 -3.44745 0
M  V30 4413 C 380.705 -0.848197 -4.23591 0
M  V30 4414 C 379.84 -0.136109 -5.31026 0
M  V30 4415 C 378.879 -1.1297 -6.01585 0
M  V30 4416 N 378.016 -0.446415 -7.00679 0
M  V30 4417 H 382.856 -1.40148 -2.62988 0
M  V30 4418 H 380.393 -0.702168 -1.29259 0
M  V30 4419 H 382.351 0.571324 -4.1327 0
M  V30 4420 H 380.981 0.992025 -3.07179 0
M  V30 4421 H 380.033 -1.38135 -3.54433 0
M  V30 4422 H 381.345 -1.60512 -4.72268 0
M  V30 4423 H 380.499 0.335784 -6.0577 0
M  V30 4424 H 379.238 0.653373 -4.83304 0
M  V30 4425 H 378.243 -1.6123 -5.25628 0
M  V30 4426 H 379.468 -1.91993 -6.51395 0
M  V30 4427 H 377.414 0.323763 -6.55201 0
M  V30 4428 H 377.331 -1.1419 -7.47326 0
M  V30 4429 H 378.599 0.00291697 -7.795 0
M  V30 4430 N 382.828 1.3818 -0.7579 0
M  V30 4431 C 384.068 2.01864 -0.320968 0
M  V30 4432 C 384.432 1.58863 1.07827 0
M  V30 4433 O 385.633 2.14908 1.61456 0
M  V30 4434 C 383.904 3.54626 -0.44446 0
M  V30 4435 S 385.463 4.38706 -0.0907467 0
M  V30 4436 H 382.281 0.700056 -0.124268 0
M  V30 4437 H 384.883 1.68611 -0.989468 0
M  V30 4438 H 383.587 3.83411 -1.4637 0
M  V30 4439 H 383.118 3.92661 0.241073 0
M  V30 4440 H 385.133 4.83435 1.11826 0
M  V30 4441 N 384.306 0.507319 1.49211 0
M  V30 4442 C 385.253 -0.267728 2.29242 0
M  V30 4443 C 386.223 -0.954609 1.35928 0
M  V30 4444 O 387.408 -0.960046 1.64887 0
M  V30 4445 C 384.548 -1.32243 3.18756 0
M  V30 4446 C 383.661 -0.64669 4.27132 0
M  V30 4447 C 382.796 -1.68238 5.03855 0
M  V30 4448 C 381.835 -0.98885 6.0406 0
M  V30 4449 N 380.972 -1.96903 6.73924 0
M  V30 4450 H 385.812 0.420968 2.95012 0
M  V30 4451 H 383.349 0.219443 1.45454 0
M  V30 4452 H 385.307 -1.94599 3.69036 0
M  V30 4453 H 383.937 -1.97981 2.54958 0
M  V30 4454 H 382.989 0.0902926 3.80293 0
M  V30 4455 H 384.301 -0.101058 4.98698 0
M  V30 4456 H 383.455 -2.38081 5.58034 0
M  V30 4457 H 382.194 -2.26187 4.32077 0
M  V30 4458 H 381.199 -0.276222 5.49106 0
M  V30 4459 H 382.424 -0.415767 6.77826 0
M  V30 4460 H 380.37 -2.53803 6.04913 0
M  V30 4461 H 380.287 -1.47423 7.41487 0
M  V30 4462 H 381.555 -2.66015 7.32705 0
M  V30 4463 N 385.784 -1.5574 0.241426 0
M  V30 4464 C 387.2 -1.59196 -0.113548 0
M  V30 4465 C 387.4 -1.25852 -1.57364 0
M  V30 4466 O 386.456 -1.00322 -2.31715 0
M  V30 4467 C 387.769 -2.99814 0.230695 0
M  V30 4468 C 389.317 -3.12513 0.174547 0
M  V30 4469 C 389.792 -4.55342 0.492744 0
M  V30 4470 N 391.283 -4.61076 0.443043 0
M  V30 4471 C 392.018 -5.6956 0.662484 0
M  V30 4472 N 391.514 -6.86328 0.944761 0
M  V30 4473 N 393.307 -5.58957 0.593564 0
M  V30 4474 H 385.458 -1.75685 1.19368 0
M  V30 4475 H 387.721 -0.81756 0.479896 0
M  V30 4476 H 387.427 -3.28932 1.24485 0
M  V30 4477 H 387.301 -3.74568 -0.444833 0
M  V30 4478 H 389.688 -2.83179 -0.830277 0
M  V30 4479 H 389.769 -2.40045 0.883845 0
M  V30 4480 H 389.413 -4.85396 1.4951 0
M  V30 4481 H 389.343 -5.26062 -0.23797 0
M  V30 4482 H 391.834 -3.77179 0.233374 0
M  V30 4483 H 392.147 -7.64935 1.09977 0
M  V30 4484 H 390.492 -6.88025 0.982175 0
M  V30 4485 H 393.683 -4.66611 0.373123 0
M  V30 4486 H 393.856 -6.43433 0.767981 0
M  V30 4487 N 387.262 0.0317525 -1.57568 0
M  V30 4488 C 388.511 0.722131 -1.8833 0
M  V30 4489 C 388.824 1.76664 -0.839587 0
M  V30 4490 O 390.03 2.50942 -1.03635 0
M  V30 4491 C 388.486 1.33544 -3.34207 0
M  V30 4492 C 388.094 0.327415 -4.46802 0
M  V30 4493 C 389.838 2.00585 -3.7412 0
M  V30 4494 C 387.745 0.948915 -5.83738 0
M  V30 4495 H 386.675 0.273466 -0.702661 0
M  V30 4496 H 389.326 -0.0235811 -1.83485 0
M  V30 4497 H 387.708 2.13077 -3.33788 0
M  V30 4498 H 388.882 -0.441006 -4.58685 0
M  V30 4499 H 387.197 -0.240758 -4.15703 0
M  V30 4500 H 389.794 2.47932 -4.73744 0
M  V30 4501 H 390.137 2.82285 -3.05975 0
M  V30 4502 H 390.67 1.27831 -3.76702 0
M  V30 4503 H 387.409 0.171387 -6.55276 0
M  V30 4504 H 386.929 1.68724 -5.7558 0
M  V30 4505 H 388.608 1.45705 -6.3038 0
M  V30 4506 N 388.74 1.54641 0.303973 0
M  V30 4507 C 389.986 1.74038 1.04109 0
M  V30 4508 C 390.319 0.523051 1.87024 0
M  V30 4509 O 389.594 -0.479874 1.88487 0
M  V30 4510 C 389.877 3.02761 1.94955 0
M  V30 4511 C 389.73 4.34787 1.1524 0
M  V30 4512 C 391.049 3.27336 2.94175 0
M  V30 4513 H 388.168 0.63323 0.377079 0
M  V30 4514 H 390.81 1.87354 0.316001 0
M  V30 4515 H 388.96 2.9154 2.56782 0
M  V30 4516 H 390.632 4.57922 0.557236 0
M  V30 4517 H 388.875 4.31407 0.455053 0
M  V30 4518 H 389.546 5.21116 1.8205 0
M  V30 4519 H 392.022 3.38148 2.42477 0
M  V30 4520 H 390.898 4.18726 3.54908 0
M  V30 4521 H 391.159 2.45491 3.67677 0
M  V30 4522 N 390.218 -0.567019 1.47046 0
M  V30 4523 C 391.148 -1.68482 1.61667 0
M  V30 4524 C 392.129 -1.6358 0.466418 0
M  V30 4525 O 393.314 -1.81354 0.694574 0
M  V30 4526 C 390.444 -3.07124 1.62148 0
M  V30 4527 C 389.398 -3.26867 2.76301 0
M  V30 4528 C 388.724 -4.66196 2.61849 0
M  V30 4529 C 390.024 -3.13186 4.17986 0
M  V30 4530 H 391.718 -1.56502 2.5524 0
M  V30 4531 H 389.264 -0.751486 1.22836 0
M  V30 4532 H 391.217 -3.8516 1.70968 0
M  V30 4533 H 389.941 -3.2004 0.651287 0
M  V30 4534 H 388.6 -2.51237 2.66975 0
M  V30 4535 H 388.248 -4.75898 1.62879 0
M  V30 4536 H 387.948 -4.80356 3.38425 0
M  V30 4537 H 389.472 -5.46379 2.72584 0
M  V30 4538 H 390.886 -3.81049 4.2834 0
M  V30 4539 H 389.283 -3.3886 4.95272 0
M  V30 4540 H 390.353 -2.10057 4.3704 0
M  V30 4541 N 391.696 -1.35014 -0.812953 0
M  V30 4542 C 392.973 -1.18502 -1.55617 0
M  V30 4543 C 393.353 0.238421 -2.09749 0
M  V30 4544 O 392.701 1.2411 -1.91857 0
M  V30 4545 C 392.911 -2.24783 -2.66971 0
M  V30 4546 C 394.259 -2.60268 -3.35478 0
M  V30 4547 O 395.283 -2.23648 -2.77236 0
M  V30 4548 O 394.142 -3.2321 -4.40678 0
M  V30 4549 H 391.236 -0.459984 -0.687272 0
M  V30 4550 H 393.782 -1.46677 -0.853464 0
M  V30 4551 H 392.554 -3.20284 -2.24798 0
M  V30 4552 H 392.177 -1.97841 -3.44884 0
M  V30 4553 N 393.175 1.03435 -1.18907 0
M  V30 4554 C 394.424 1.76143 -0.982669 0
M  V30 4555 C 394.737 1.89416 0.487953 0
M  V30 4556 O 395.943 2.59041 0.813036 0
M  V30 4557 C 394.399 3.16722 -1.70924 0
M  V30 4558 C 394.007 3.11522 -3.21959 0
M  V30 4559 C 395.751 3.93764 -1.58588 0
M  V30 4560 C 393.658 4.46999 -3.87228 0
M  V30 4561 H 392.588 0.660292 -0.364047 0
M  V30 4562 H 395.239 1.158 -1.42347 0
M  V30 4563 H 393.621 3.775 -1.19623 0
M  V30 4564 H 394.795 2.60158 -3.80335 0
M  V30 4565 H 393.11 2.47978 -3.34508 0
M  V30 4566 H 395.707 4.93963 -2.04707 0
M  V30 4567 H 396.05 4.12794 -0.539142 0
M  V30 4568 H 396.583 3.39576 -2.07203 0
M  V30 4569 H 393.322 4.33174 -4.91976 0
M  V30 4570 H 392.842 4.98441 -3.33642 0
M  V30 4571 H 394.521 5.15898 -3.90459 0
M  V30 4572 N 394.653 0.992116 1.22453 0
M  V30 4573 C 395.902 0.662992 1.90492 0
M  V30 4574 C 396.215 -0.808407 1.78113 0
M  V30 4575 O 397.421 -1.24908 2.41061 0
M  V30 4576 C 395.877 1.1353 3.41524 0
M  V30 4577 C 395.485 2.63187 3.62542 0
M  V30 4578 C 397.229 0.880465 4.15269 0
M  V30 4579 C 395.136 3.04024 5.0727 0
M  V30 4580 H 394.066 0.244278 0.713333 0
M  V30 4581 H 396.717 1.20157 1.38688 0
M  V30 4582 H 395.099 0.52485 3.92506 0
M  V30 4583 H 396.273 3.2957 3.22056 0
M  V30 4584 H 394.588 2.86543 3.02129 0
M  V30 4585 H 397.185 1.16128 5.21937 0
M  V30 4586 H 397.528 -0.183408 4.15896 0
M  V30 4587 H 398.061 1.45307 3.70312 0
M  V30 4588 H 394.8 4.09584 5.11782 0
M  V30 4589 H 394.32 2.42343 5.48662 0
M  V30 4590 H 395.999 2.95282 5.75689 0
M  V30 4591 N 396.131 -1.37776 0.765217 0
M  V30 4592 C 397.359 -2.04124 0.337767 0
M  V30 4593 C 397.774 -1.57715 -1.03785 0
M  V30 4594 O 397.131 -0.755447 -1.6613 0
M  V30 4595 C 397.182 -3.59658 0.364442 0
M  V30 4596 O 396.903 -4.04367 1.68579 0
M  V30 4597 C 398.404 -4.43236 -0.0754221 0
M  V30 4598 H 395.624 -0.655696 0.142491 0
M  V30 4599 H 398.168 -1.76238 1.03732 0
M  V30 4600 H 396.323 -3.86339 -0.286471 0
M  V30 4601 H 396.737 -4.98857 1.61993 0
M  V30 4602 H 398.211 -5.52 -0.00560067 0
M  V30 4603 H 398.688 -4.2455 -1.12491 0
M  V30 4604 H 399.294 -4.21767 0.547055 0
M  V30 4605 N 397.609 -0.515225 -1.4894 0
M  V30 4606 C 399.025 -0.172099 -1.58669 0
M  V30 4607 C 399.225 1.32405 -1.51892 0
M  V30 4608 O 398.281 2.10116 -1.40027 0
M  V30 4609 C 399.594 -0.761533 -2.90897 0
M  V30 4610 C 401.142 -0.728926 -3.04394 0
M  V30 4611 C 401.617 -1.29667 -4.39261 0
M  V30 4612 N 403.108 -1.25799 -4.4579 0
M  V30 4613 C 403.843 -1.66733 -5.48623 0
M  V30 4614 N 403.339 -2.15327 -6.58488 0
M  V30 4615 N 405.132 -1.58061 -5.39419 0
M  V30 4616 H 397.283 -1.48778 -1.51588 0
M  V30 4617 H 399.546 -0.617968 -0.718901 0
M  V30 4618 H 399.252 -1.81136 -3.01468 0
M  V30 4619 H 399.126 -0.230106 -3.76497 0
M  V30 4620 H 401.513 0.312098 -2.93445 0
M  V30 4621 H 401.594 -1.29766 -2.20442 0
M  V30 4622 H 401.238 -2.33655 -4.50963 0
M  V30 4623 H 401.168 -0.703752 -5.21876 0
M  V30 4624 H 403.659 -0.902102 -3.66975 0
M  V30 4625 H 403.972 -2.44594 -7.33071 0
M  V30 4626 H 402.317 -2.19311 -6.59491 0
M  V30 4627 H 405.508 -1.19906 -4.52482 0
M  V30 4628 H 405.681 -1.90284 -6.19432 0
M  V30 4629 N 399.087 1.5561 -0.249682 0
M  V30 4630 C 400.017 2.24477 0.642826 0
M  V30 4631 C 400.998 1.22601 1.17911 0
M  V30 4632 O 402.183 1.5126 1.21795 0
M  V30 4633 C 399.313 2.94638 1.83863 0
M  V30 4634 C 398.267 4.03227 1.435 0
M  V30 4635 C 397.593 4.60828 2.71186 0
M  V30 4636 C 398.893 5.18796 0.604002 0
M  V30 4637 H 400.587 2.99321 0.0685625 0
M  V30 4638 H 398.133 1.43965 0.0315363 0
M  V30 4639 H 400.086 3.41517 2.46868 0
M  V30 4640 H 398.81 2.17287 2.43832 0
M  V30 4641 H 397.469 3.57121 0.828275 0
M  V30 4642 H 397.117 3.80174 3.29358 0
M  V30 4643 H 396.817 5.34132 2.44901 0
M  V30 4644 H 398.341 5.10442 3.35084 0
M  V30 4645 H 399.755 5.61883 1.13842 0
M  V30 4646 H 398.152 5.98506 0.437097 0
M  V30 4647 H 399.222 4.83384 -0.383147 0
M  V30 4648 N 400.565 -0.0233959 1.57583 0
M  V30 4649 C 401.812 -0.713063 1.8953 0
M  V30 4650 C 402.14 -1.75056 0.847673 0
M  V30 4651 O 401.395 -1.95119 -0.150636 0
M  V30 4652 C 401.694 -1.41428 3.28227 0
M  V30 4653 C 401.36 -0.512222 4.47981 0
M  V30 4654 C 400.022 -0.263785 4.80476 0
M  V30 4655 C 402.374 0.110248 5.21083 0
M  V30 4656 C 399.702 0.615804 5.83459 0
M  V30 4657 C 402.054 0.977573 6.25001 0
M  V30 4658 C 400.718 1.23542 6.55968 0
M  V30 4659 H 399.988 -0.260928 0.69354 0
M  V30 4660 H 402.635 0.0271047 1.91481 0
M  V30 4661 H 400.94 -2.22791 3.22291 0
M  V30 4662 H 402.637 -1.95355 3.50196 0
M  V30 4663 H 399.227 -0.716013 4.22577 0
M  V30 4664 H 403.411 -0.0687137 4.96252 0
M  V30 4665 H 398.667 0.82382 6.05824 0
M  V30 4666 H 402.841 1.46638 6.80786 0
M  V30 4667 H 400.468 1.91871 7.35588 0
M  V30 4668 N 402.043 -1.548 -0.295768 0
M  V30 4669 C 403.268 -1.78653 -1.05346 0
M  V30 4670 C 403.693 -0.546894 -1.79974 0
M  V30 4671 O 403.051 0.502763 -1.7419 0
M  V30 4672 C 403.099 -2.99679 -2.00561 0
M  V30 4673 O 402.203 -2.7317 -3.08953 0
M  V30 4674 H 401.544 -0.59116 -0.302367 0
M  V30 4675 H 404.074 -2.01895 -0.331598 0
M  V30 4676 H 404.084 -3.27793 -2.42932 0
M  V30 4677 H 402.759 -3.89562 -1.4565 0
M  V30 4678 H 401.336 -2.56089 -2.71059 0
M  V30 4679 N 403.521 0.559213 -1.47345 0
M  V30 4680 C 404.937 0.884943 -1.32819 0
M  V30 4681 C 405.137 1.98988 -0.317173 0
M  V30 4682 O 404.193 2.51031 0.272011 0
M  V30 4683 C 405.506 1.28007 -2.72093 0
M  V30 4684 C 407.054 1.39161 -2.80363 0
M  V30 4685 C 407.529 1.82031 -4.20272 0
M  V30 4686 N 409.02 1.89185 -4.22804 0
M  V30 4687 C 409.755 2.2368 -5.27973 0
M  V30 4688 N 409.251 2.56802 -6.43447 0
M  V30 4689 N 411.044 2.24436 -5.15349 0
M  V30 4690 H 403.195 -0.170304 -2.11716 0
M  V30 4691 H 405.458 -0.0135247 -0.947904 0
M  V30 4692 H 405.164 0.542027 -3.47498 0
M  V30 4693 H 405.038 2.23665 -3.03733 0
M  V30 4694 H 407.425 2.12048 -2.05231 0
M  V30 4695 H 407.506 0.41696 -2.52379 0
M  V30 4696 H 407.15 1.09715 -4.95908 0
M  V30 4697 H 407.08 2.80495 -4.45679 0
M  V30 4698 H 409.571 1.65982 -3.39497 0
M  V30 4699 H 409.884 2.82144 -7.19454 0
M  V30 4700 H 408.229 2.54387 -6.46771 0
M  V30 4701 H 411.42 1.97998 -4.24163 0
M  V30 4702 H 411.593 2.50989 -5.97418 0
M  V30 4703 N 404.999 1.35443 0.805782 0
M  V30 4704 C 406.229 1.31687 1.59192 0
M  V30 4705 C 406.637 -0.10756 1.88894 0
M  V30 4706 O 405.98 -1.07017 1.49309 0
M  V30 4707 C 406.042 2.05686 2.94845 0
M  V30 4708 C 405.706 3.54868 2.87954 0
M  V30 4709 C 406.703 4.49444 2.61335 0
M  V30 4710 C 404.388 3.97528 3.07046 0
M  V30 4711 C 406.382 5.84655 2.53885 0
M  V30 4712 C 404.069 5.32833 2.99219 0
M  V30 4713 C 405.067 6.26209 2.72674 0
M  V30 4714 O 404.755 7.59032 2.64811 0
M  V30 4715 H 404.487 0.453878 0.50097 0
M  V30 4716 H 407.041 1.78892 1.0093 0
M  V30 4717 H 405.271 1.5312 3.55093 0
M  V30 4718 H 406.96 1.94998 3.55993 0
M  V30 4719 H 407.726 4.17804 2.46303 0
M  V30 4720 H 403.605 3.25233 3.26718 0
M  V30 4721 H 407.149 6.57508 2.33086 0
M  V30 4722 H 403.046 5.64087 3.13809 0
M  V30 4723 H 403.814 7.68967 2.80413 0
M  V30 4724 N 406.477 -1.02803 1.19454 0
M  V30 4725 C 407.723 -1.76478 0.999171 0
M  V30 4726 C 408.056 -1.88456 -0.468828 0
M  V30 4727 O 407.331 -1.40198 -1.34814 0
M  V30 4728 C 407.614 -3.19044 1.66981 0
M  V30 4729 C 407.467 -3.14932 3.21151 0
M  V30 4730 C 408.786 -4.17456 1.39349 0
M  V30 4731 H 405.905 -0.640614 0.364393 0
M  V30 4732 H 408.547 -1.20005 1.47305 0
M  V30 4733 H 406.697 -3.67263 1.2669 0
M  V30 4734 H 408.369 -2.74605 3.70661 0
M  V30 4735 H 406.612 -2.52625 3.52652 0
M  V30 4736 H 407.283 -4.1566 3.63223 0
M  V30 4737 H 409.759 -3.77842 1.74283 0
M  V30 4738 H 408.635 -5.154 1.88823 0
M  V30 4739 H 408.896 -4.40949 0.318813 0
M  V30 4740 N 407.956 -0.998596 -1.21925 0
M  V30 4741 C 408.904 -0.546641 -2.26085 0
M  V30 4742 C 409.898 0.405576 -1.64473 0
M  V30 4743 O 411.104 0.277471 -1.77849 0
M  V30 4744 H 407.479 -0.158403 -0.735127 0
M  V30 4745 H 409.45 -1.43645 -2.61551 0
M  V30 4746 C 408.199 0.117388 -3.47502 0
M  V30 4747 H 407.522 -0.606277 -3.95176 0
M  V30 4748 H 408.962 0.396993 -4.22137 0
M  V30 4749 C 407.421 1.35455 -3.0847 0
M  V30 4750 O 407.951 2.44944 -3.18379 0
M  V30 4751 N 406.157 1.23191 -2.63196 0
M  V30 4752 H 405.704 0.341006 -2.55333 0
M  V30 4753 H 405.662 2.06071 -2.37449 0
M  V30 4754 N 409.434 1.37368 -0.772513 0
M  V30 4755 C 410.662 2.03942 -0.348588 0
M  V30 4756 C 411.077 1.58264 1.02947 0
M  V30 4757 O 410.434 0.764246 1.65727 0
M  V30 4758 C 410.485 3.5946 -0.38351 0
M  V30 4759 O 410.206 4.03468 -1.70721 0
M  V30 4760 C 411.707 4.4327 0.0519152 0
M  V30 4761 H 408.927 0.654931 -0.145966 0
M  V30 4762 H 411.471 1.75686 -1.04665 0
M  V30 4763 H 409.626 3.86486 0.265978 0
M  V30 4764 H 410.04 4.97991 -1.64636 0
M  V30 4765 H 411.514 5.51995 -0.0236733 0
M  V30 4766 H 411.991 4.2514 1.10238 0
M  V30 4767 H 412.597 4.21471 -0.569415 0
M  V30 4768 N 410.912 0.523116 1.48665 0
M  V30 4769 C 411.86 -0.256859 2.31177 0
M  V30 4770 C 412.854 -0.94199 1.40794 0
M  V30 4771 O 414.06 -0.867157 1.57735 0
M  V30 4772 H 410.435 -0.1017 0.745091 0
M  V30 4773 H 412.406 0.458739 2.94853 0
M  V30 4774 C 411.155 -1.29503 3.22683 0
M  V30 4775 H 410.478 -0.777248 3.92172 0
M  V30 4776 H 411.918 -1.81233 3.83315 0
M  V30 4777 C 410.377 -2.32501 2.43813 0
M  V30 4778 O 410.907 -3.3881 2.15803 0
M  V30 4779 N 409.113 -2.05538 2.05432 0
M  V30 4780 H 408.66 -1.19104 2.28412 0
M  V30 4781 H 408.618 -2.74676 1.52973 0
M  V30 4782 N 412.39 -1.55475 0.257931 0
M  V30 4783 C 413.62 -2.03314 -0.367026 0
M  V30 4784 C 414.028 -1.13625 -1.51281 0
M  V30 4785 O 413.371 -0.145334 -1.83124 0
M  V30 4786 C 413.433 -3.47362 -0.926284 0
M  V30 4787 C 413.097 -4.56914 0.0886584 0
M  V30 4788 C 414.094 -5.12013 0.902123 0
M  V30 4789 C 411.779 -5.01827 0.217936 0
M  V30 4790 C 413.773 -6.10529 1.83122 0
M  V30 4791 C 411.46 -6.00172 1.15052 0
M  V30 4792 C 412.458 -6.54402 1.95568 0
M  V30 4793 O 412.146 -7.50827 2.87253 0
M  V30 4794 H 411.878 -0.669976 -0.0900443 0
M  V30 4795 H 414.432 -2.01804 0.382673 0
M  V30 4796 H 412.662 -3.46056 -1.72575 0
M  V30 4797 H 414.351 -3.78637 -1.46249 0
M  V30 4798 H 415.117 -4.78139 0.812891 0
M  V30 4799 H 410.996 -4.59272 -0.398721 0
M  V30 4800 H 414.54 -6.52783 2.46008 0
M  V30 4801 H 410.437 -6.33465 1.24064 0
M  V30 4802 H 411.205 -7.68483 2.81739 0
M  V30 4803 N 413.868 0.0150385 -1.57593 0
M  V30 4804 C 414.816 1.02958 -2.08572 0
M  V30 4805 C 415.81 1.36554 -1.00246 0
M  V30 4806 O 417.016 1.35295 -1.18724 0
M  V30 4807 H 413.391 0.349619 -0.665786 0
M  V30 4808 H 415.362 0.573932 -2.92829 0
M  V30 4809 C 414.111 2.31752 -2.59203 0
M  V30 4810 H 413.434 2.06765 -3.42182 0
M  V30 4811 H 414.874 3.01053 -2.98568 0
M  V30 4812 C 413.333 3.01692 -1.49945 0
M  V30 4813 O 413.863 3.92083 -0.873704 0
M  V30 4814 N 412.069 2.6326 -1.23056 0
M  V30 4815 H 411.616 1.89838 -1.74125 0
M  V30 4816 H 411.574 3.10372 -0.501685 0
M  V30 4817 N 415.346 1.54954 0.287554 0
M  V30 4818 C 416.293 1.86834 1.35505 0
M  V30 4819 C 417.263 0.718452 1.49758 0
M  V30 4820 O 418.448 0.968358 1.644 0
M  V30 4821 C 415.588 2.13303 2.71286 0
M  V30 4822 C 414.701 3.40883 2.65373 0
M  V30 4823 C 413.836 3.57125 3.93236 0
M  V30 4824 C 412.875 4.78449 3.81776 0
M  V30 4825 N 412.012 4.91426 5.01443 0
M  V30 4826 H 416.852 2.77889 1.07619 0
M  V30 4827 H 414.389 1.37593 0.520241 0
M  V30 4828 H 416.347 2.26646 3.50267 0
M  V30 4829 H 414.977 1.25499 2.97405 0
M  V30 4830 H 414.029 3.36088 1.78182 0
M  V30 4831 H 415.341 4.29993 2.52799 0
M  V30 4832 H 414.495 3.70207 4.80658 0
M  V30 4833 H 413.234 2.66173 4.0866 0
M  V30 4834 H 412.239 4.65386 2.92738 0
M  V30 4835 H 413.464 5.70822 3.67884 0
M  V30 4836 H 411.41 4.03401 5.17304 0
M  V30 4837 H 411.327 5.74559 4.91343 0
M  V30 4838 H 412.595 5.08879 5.90477 0
M  V30 4839 N 416.824 -0.551391 1.4764 0
M  V30 4840 C 418.071 -1.3083 1.54563 0
M  V30 4841 C 418.399 -1.93359 0.210361 0
M  V30 4842 O 417.654 -1.78721 -0.797332 0
M  V30 4843 C 417.953 -2.43469 2.61644 0
M  V30 4844 C 417.619 -1.98732 4.04742 0
M  V30 4845 C 416.281 -1.86248 4.43695 0
M  V30 4846 C 418.633 -1.64659 4.94507 0
M  V30 4847 C 415.961 -1.37995 5.70241 0
M  V30 4848 C 418.313 -1.17875 6.21521 0
M  V30 4849 C 416.977 -1.03992 6.5935 0
M  V30 4850 H 416.247 -0.478741 0.565587 0
M  V30 4851 H 418.894 -0.617697 1.81264 0
M  V30 4852 H 417.199 -3.18109 2.28722 0
M  V30 4853 H 418.896 -3.01642 2.64222 0
M  V30 4854 H 415.486 -2.09393 3.73968 0
M  V30 4855 H 419.67 -1.73174 4.65107 0
M  V30 4856 H 414.926 -1.25915 5.98294 0
M  V30 4857 H 419.1 -0.905739 6.90485 0
M  V30 4858 H 416.727 -0.663794 7.57296 0
M  V30 4859 N 418.302 -1.35869 -0.798587 0
M  V30 4860 C 419.25 -1.29491 -1.93222 0
M  V30 4861 C 420.244 -0.18836 -1.6835 0
M  V30 4862 O 421.45 -0.354822 -1.76468 0
M  V30 4863 H 417.825 -0.402901 -0.63496 0
M  V30 4864 H 419.796 -2.25247 -1.9572 0
M  V30 4865 C 418.545 -1.09184 -3.30112 0
M  V30 4866 H 417.868 -1.93574 -3.49813 0
M  V30 4867 H 419.308 -1.08766 -4.09812 0
M  V30 4868 C 417.767 0.203959 -3.36282 0
M  V30 4869 O 418.297 1.19699 -3.83451 0
M  V30 4870 N 416.503 0.245488 -2.89561 0
M  V30 4871 H 416.05 -0.563223 -2.51367 0
M  V30 4872 H 416.008 1.11219 -2.94071 0
M  V30 4873 N 419.78 1.02168 -1.19998 0
M  V30 4874 C 420.728 2.12717 -0.940967 0
M  V30 4875 C 421.722 1.69069 0.105841 0
M  V30 4876 O 422.928 1.79946 -0.0440583 0
M  V30 4877 H 419.303 0.695108 -0.28693 0
M  V30 4878 H 421.274 2.3175 -1.87975 0
M  V30 4879 C 420.023 3.44027 -0.504049 0
M  V30 4880 H 419.346 3.78036 -1.30112 0
M  V30 4881 H 420.786 4.22452 -0.361991 0
M  V30 4882 C 419.245 3.27678 0.782878 0
M  V30 4883 O 419.775 3.56949 1.84256 0
M  V30 4884 N 417.981 2.80943 0.742921 0
M  V30 4885 H 417.528 2.57322 -0.119687 0
M  V30 4886 H 417.486 2.70385 1.60435 0
M  V30 4887 N 421.258 1.00505 1.21394 0
M  V30 4888 C 422.535 0.603277 1.86064 0
M  V30 4889 C 422.915 -0.919095 1.90042 0
M  V30 4890 O 422.263 -1.80607 1.39977 0
M  V30 4891 C 422.473 1.23772 3.26315 0
M  V30 4892 C 423.821 1.34586 4.02705 0
M  V30 4893 O 424.845 1.19304 3.35626 0
M  V30 4894 O 423.704 1.59169 5.22807 0
M  V30 4895 H 420.798 0.206634 0.800769 0
M  V30 4896 H 423.344 1.1017 1.29076 0
M  V30 4897 H 422.116 2.27848 3.18121 0
M  V30 4898 H 421.739 0.725648 3.90922 0
M  V30 4899 N 422.737 -1.36956 0.779787 0
M  V30 4900 C 423.986 -1.98738 0.344405 0
M  V30 4901 C 424.299 -1.62596 -1.08728 0
M  V30 4902 O 425.505 -2.1754 -1.62445 0
M  V30 4903 C 423.961 -3.5544 0.564829 0
M  V30 4904 C 423.569 -4.00514 2.0073 0
M  V30 4905 C 425.313 -4.24059 0.193471 0
M  V30 4906 C 423.22 -5.49957 2.17489 0
M  V30 4907 H 422.15 -0.743561 0.12503 0
M  V30 4908 H 424.801 -1.56381 0.960057 0
M  V30 4909 H 423.183 -3.95817 -0.120397 0
M  V30 4910 H 424.357 -3.71362 2.72814 0
M  V30 4911 H 422.672 -3.44703 2.336 0
M  V30 4912 H 425.269 -5.33874 0.297097 0
M  V30 4913 H 425.612 -4.07378 -0.857263 0
M  V30 4914 H 426.145 -3.89012 0.831556 0
M  V30 4915 H 422.884 -5.71574 3.2091 0
M  V30 4916 H 422.404 -5.80767 1.49899 0
M  V30 4917 H 424.083 -6.16043 1.97738 0
M  V30 4918 N 424.215 -0.530993 -1.48385 0
M  V30 4919 C 425.443 -0.00134122 -2.069 0
M  V30 4920 C 425.858 1.2805 -1.3874 0
M  V30 4921 O 425.215 1.76204 -0.475244 0
M  V30 4922 C 425.266 0.225256 -3.60798 0
M  V30 4923 O 424.987 -1.0058 -4.26398 0
M  V30 4924 C 426.488 0.795172 -4.3611 0
M  V30 4925 H 423.708 -0.0339704 -0.67014 0
M  V30 4926 H 426.252 -0.736926 -1.90761 0
M  V30 4927 H 424.407 0.910891 -3.76539 0
M  V30 4928 H 424.821 -0.787165 -5.1856 0
M  V30 4929 H 426.295 0.903143 -5.44562 0
M  V30 4930 H 426.772 1.80031 -4.00606 0
M  V30 4931 H 427.378 0.146069 -4.25049 0
M  V30 4932 N 425.693 1.55336 -0.266172 0
M  V30 4933 C 426.64 2.22172 0.625165 0
M  V30 4934 C 427.61 1.19211 1.15663 0
M  V30 4935 O 428.795 1.47723 1.20758 0
M  V30 4936 C 425.935 2.93972 1.8076 0
M  V30 4937 C 425.048 4.11632 1.31084 0
M  V30 4938 C 424.183 4.71099 2.45436 0
M  V30 4939 C 423.222 5.8097 1.92718 0
M  V30 4940 N 422.359 6.34538 3.00509 0
M  V30 4941 H 427.199 2.9796 0.0485582 0
M  V30 4942 H 424.736 1.47095 0.0122024 0
M  V30 4943 H 426.694 3.33811 2.50251 0
M  V30 4944 H 425.324 2.20623 2.35638 0
M  V30 4945 H 424.376 3.76975 0.509326 0
M  V30 4946 H 425.688 4.90893 0.884633 0
M  V30 4947 H 424.842 5.13612 3.22936 0
M  V30 4948 H 423.581 3.91096 2.91368 0
M  V30 4949 H 422.586 5.37916 1.13695 0
M  V30 4950 H 423.811 6.62836 1.47733 0
M  V30 4951 H 421.757 5.57433 3.45839 0
M  V30 4952 H 421.674 7.09046 2.62279 0
M  V30 4953 H 422.942 6.81709 3.78011 0
M  V30 4954 N 427.171 -0.0066808 1.57599 0
M  V30 4955 C 428.118 -1.00024 2.08 0
M  V30 4956 C 429.088 -1.34549 0.973943 0
M  V30 4957 O 430.273 -1.44502 1.24595 0
M  V30 4958 C 427.413 -2.2891 2.58252 0
M  V30 4959 C 426.526 -2.00346 3.82734 0
M  V30 4960 C 425.661 -3.23265 4.21513 0
M  V30 4961 C 424.7 -2.90357 5.3885 0
M  V30 4962 N 423.837 -4.05793 5.72954 0
M  V30 4963 H 428.677 -0.563499 2.92624 0
M  V30 4964 H 426.214 -0.266592 1.44664 0
M  V30 4965 H 428.172 -3.04247 2.85464 0
M  V30 4966 H 426.802 -2.70265 1.76512 0
M  V30 4967 H 425.854 -1.15406 3.62471 0
M  V30 4968 H 427.166 -1.72086 4.68175 0
M  V30 4969 H 426.32 -4.06953 4.49971 0
M  V30 4970 H 425.059 -3.54657 3.34768 0
M  V30 4971 H 424.064 -2.05075 5.10122 0
M  V30 4972 H 425.289 -2.60219 6.27266 0
M  V30 4973 H 423.235 -4.37094 4.89167 0
M  V30 4974 H 423.152 -3.81034 6.52954 0
M  V30 4975 H 424.42 -4.90289 6.06001 0
M  V30 4976 N 428.649 -1.55105 -0.279332 0
M  V30 4977 C 429.896 -1.75412 -1.01177 0
M  V30 4978 C 430.224 -0.551728 -1.86511 0
M  V30 4979 O 429.479 0.465919 -1.90073 0
M  V30 4980 C 429.778 -3.0086 -1.92919 0
M  V30 4981 C 429.444 -4.33689 -1.23387 0
M  V30 4982 C 428.106 -4.69792 -1.04159 0
M  V30 4983 C 430.458 -5.15941 -0.738562 0
M  V30 4984 C 427.786 -5.85707 -0.341166 0
M  V30 4985 C 430.138 -6.32579 -0.0517636 0
M  V30 4986 C 428.802 -6.67326 0.152292 0
M  V30 4987 H 428.072 -0.641879 -0.370233 0
M  V30 4988 H 430.719 -1.89373 -0.284627 0
M  V30 4989 H 429.024 -2.81773 -2.72234 0
M  V30 4990 H 430.721 -3.13768 -2.49701 0
M  V30 4991 H 427.311 -4.05309 -1.39364 0
M  V30 4992 H 431.495 -4.8853 -0.874764 0
M  V30 4993 H 426.751 -6.11157 -0.172287 0
M  V30 4994 H 430.925 -6.9557 0.339828 0
M  V30 4995 H 428.552 -7.56998 0.697014 0
M  V30 4996 N 430.127 0.543554 -1.4793 0
M  V30 4997 C 431.367 1.31072 -1.56843 0
M  V30 4998 C 431.731 1.90604 -0.231124 0
M  V30 4999 O 432.932 2.68091 -0.195165 0
M  V30 5000 C 431.203 2.38106 -2.66533 0
M  V30 5001 S 432.762 3.24729 -2.95122 0
M  V30 5002 H 429.58 0.446035 -0.553691 0
M  V30 5003 H 432.182 0.620777 -1.85382 0
M  V30 5004 H 430.886 1.92828 -3.62278 0
M  V30 5005 H 430.417 3.11824 -2.39852 0
M  V30 5006 H 432.432 4.37891 -2.3338 0
M  V30 5007 N 431.605 1.3629 0.791371 0
M  V30 5008 C 432.882 1.20962 1.53712 0
M  V30 5009 C 433.262 -0.205021 2.10102 0
M  V30 5010 O 432.61 -1.21042 1.93807 0
M  V30 5011 C 432.82 2.29002 2.63361 0
M  V30 5012 C 434.168 2.65572 3.31295 0
M  V30 5013 O 435.192 2.2803 2.73643 0
M  V30 5014 O 434.051 3.3018 4.35481 0
M  V30 5015 H 431.145 0.47086 0.679867 0
M  V30 5016 H 433.691 1.48016 0.830021 0
M  V30 5017 H 432.463 3.2382 2.19674 0
M  V30 5018 H 432.086 2.03303 3.41692 0
M  V30 5019 N 433.083 -1.0153 1.20538 0
M  V30 5020 C 434.329 -1.75408 1.01783 0
M  V30 5021 C 434.662 -1.88943 -0.448814 0
M  V30 5022 O 433.937 -1.4162 -1.33319 0
M  V30 5023 C 434.22 -3.17255 1.70356 0
M  V30 5024 C 434.073 -3.11508 3.24473 0
M  V30 5025 C 435.392 -4.15955 1.43769 0
M  V30 5026 H 432.511 -0.636713 0.371167 0
M  V30 5027 H 435.153 -1.18436 1.4857 0
M  V30 5028 H 433.303 -3.65898 1.30578 0
M  V30 5029 H 434.975 -2.70658 3.73553 0
M  V30 5030 H 433.218 -2.4887 3.55311 0
M  V30 5031 H 433.889 -4.11784 3.67611 0
M  V30 5032 H 436.365 -3.75973 1.7828 0
M  V30 5033 H 435.241 -5.13368 1.94279 0
M  V30 5034 H 435.502 -4.40586 0.365564 0
M  V30 5035 N 434.561 -1.01147 -1.20859 0
M  V30 5036 C 435.808 -0.697865 -1.90095 0
M  V30 5037 C 436.136 0.772014 -1.78522 0
M  V30 5038 O 435.391 1.57595 -1.16027 0
M  V30 5039 C 435.69 -1.0727 -3.40922 0
M  V30 5040 C 435.356 -2.53792 -3.72693 0
M  V30 5041 C 434.018 -2.93829 -3.81075 0
M  V30 5042 C 436.37 -3.48674 -3.87397 0
M  V30 5043 C 433.698 -4.27696 -4.01613 0
M  V30 5044 C 436.05 -4.82223 -4.09444 0
M  V30 5045 C 434.714 -5.21973 -4.16054 0
M  V30 5046 H 433.984 -0.255367 -0.695607 0
M  V30 5047 H 436.631 -1.27111 -1.43231 0
M  V30 5048 H 434.936 -0.417799 -3.89566 0
M  V30 5049 H 436.633 -0.807818 -3.92779 0
M  V30 5050 H 433.223 -2.21768 -3.66765 0
M  V30 5051 H 437.407 -3.18904 -3.80281 0
M  V30 5052 H 432.663 -4.58055 -4.04964 0
M  V30 5053 H 436.837 -5.55672 -4.19763 0
M  V30 5054 H 434.464 -6.25717 -4.31721 0
M  V30 5055 N 436.039 1.36541 -0.78704 0
M  V30 5056 C 436.969 2.32659 -0.197992 0
M  V30 5057 C 437.95 1.56533 0.665697 0
M  V30 5058 O 439.135 1.84698 0.60001 0
M  V30 5059 C 436.265 3.40778 0.669901 0
M  V30 5060 C 435.219 4.27897 -0.0937039 0
M  V30 5061 C 434.545 5.27163 0.894629 0
M  V30 5062 C 435.845 5.06334 -1.28154 0
M  V30 5063 H 437.539 2.82171 -1.00099 0
M  V30 5064 H 435.085 1.35665 -0.482793 0
M  V30 5065 H 437.038 4.07008 1.09191 0
M  V30 5066 H 435.762 2.89827 1.50558 0
M  V30 5067 H 434.421 3.6322 -0.49666 0
M  V30 5068 H 434.069 4.72486 1.72527 0
M  V30 5069 H 433.769 5.86317 0.388149 0
M  V30 5070 H 435.293 5.96266 1.31525 0
M  V30 5071 H 436.707 5.65617 -0.93541 0
M  V30 5072 H 435.104 5.74888 -1.72115 0
M  V30 5073 H 436.174 4.38114 -2.07807 0
M  V30 5074 N 437.518 0.538854 1.48102 0
M  V30 5075 C 438.466 -0.232325 2.31437 0
M  V30 5076 C 439.46 -0.927004 1.41785 0
M  V30 5077 O 440.666 -0.850378 1.58646 0
M  V30 5078 H 437.041 -0.0937916 0.746128 0
M  V30 5079 H 439.012 0.489986 2.9435 0
M  V30 5080 C 437.761 -1.26074 3.24038 0
M  V30 5081 H 437.084 -0.735609 3.92974 0
M  V30 5082 H 438.524 -1.77157 3.85216 0
M  V30 5083 C 436.983 -2.29902 2.46265 0
M  V30 5084 O 437.513 -3.36502 2.19384 0
M  V30 5085 N 435.719 -2.03348 2.07601 0
M  V30 5086 H 435.266 -1.16675 2.29662 0
M  V30 5087 H 435.224 -2.73038 1.55877 0
M  V30 5088 N 438.996 -1.55193 0.274407 0
M  V30 5089 C 439.943 -2.225 -0.613374 0
M  V30 5090 C 440.913 -1.19823 -1.15029 0
M  V30 5091 O 442.098 -1.48362 -1.19973 0
M  V30 5092 C 439.238 -2.94927 -1.79199 0
M  V30 5093 C 438.351 -4.12322 -1.28899 0
M  V30 5094 C 437.486 -4.72394 -2.42934 0
M  V30 5095 C 436.525 -5.81984 -1.89634 0
M  V30 5096 N 435.662 -6.36123 -2.9714 0
M  V30 5097 H 440.502 -2.97982 -0.032756 0
M  V30 5098 H 438.039 -1.47099 -0.00440146 0
M  V30 5099 H 439.997 -3.35134 -2.48478 0
M  V30 5100 H 438.627 -2.2187 -2.34465 0
M  V30 5101 H 437.679 -3.7724 -0.489327 0
M  V30 5102 H 438.991 -4.91355 -0.858587 0
M  V30 5103 H 438.145 -5.15317 -3.20208 0
M  V30 5104 H 436.884 -3.92636 -2.8929 0
M  V30 5105 H 435.889 -5.38511 -1.1084 0
M  V30 5106 H 437.114 -6.6361 -1.44215 0
M  V30 5107 H 435.06 -5.59259 -3.42878 0
M  V30 5108 H 434.977 -7.10427 -2.58515 0
M  V30 5109 H 436.245 -6.83704 -3.74391 0
M  V30 5110 N 440.474 -0.00167713 -1.576 0
M  V30 5111 C 441.72 0.67819 -1.91761 0
M  V30 5112 C 442.075 1.71288 -0.876256 0
M  V30 5113 O 441.368 1.91276 0.111333 0
M  V30 5114 C 441.562 1.36189 -3.30435 0
M  V30 5115 C 441.391 0.394938 -4.47962 0
M  V30 5116 C 440.161 0.00472875 -5.053 0
M  V30 5117 C 442.359 -0.339521 -5.13178 0
M  V30 5118 N 440.341 -0.960257 -6.06343 0
M  V30 5119 C 441.712 -1.15914 -6.09068 0
M  V30 5120 C 443.767 -0.403177 -4.96265 0
M  V30 5121 C 442.47 -2.03661 -6.89866 0
M  V30 5122 C 444.496 -1.26788 -5.77649 0
M  V30 5123 C 443.858 -2.07535 -6.73134 0
M  V30 5124 H 439.957 0.221317 -0.750028 0
M  V30 5125 H 442.541 -0.0624182 -1.946 0
M  V30 5126 H 440.712 2.07278 -3.28467 0
M  V30 5127 H 442.444 1.99658 -3.52021 0
M  V30 5128 H 439.199 0.373452 -4.72125 0
M  V30 5129 H 439.623 -1.43817 -6.61548 0
M  V30 5130 H 444.265 0.206818 -4.22294 0
M  V30 5131 H 441.983 -2.65727 -7.63161 0
M  V30 5132 H 445.569 -1.32107 -5.66603 0
M  V30 5133 H 444.449 -2.73363 -7.35012 0
M  V30 5134 N 441.952 1.55251 0.271103 0
M  V30 5135 C 442.882 1.9127 1.33933 0
M  V30 5136 C 443.863 0.77478 1.5143 0
M  V30 5137 O 445.048 1.03307 1.64442 0
M  V30 5138 C 442.178 2.18627 2.69851 0
M  V30 5139 C 441.132 3.34442 2.67081 0
M  V30 5140 C 440.458 3.47284 4.06569 0
M  V30 5141 C 441.758 4.70784 2.26185 0
M  V30 5142 H 443.452 2.80744 1.04035 0
M  V30 5143 H 440.998 1.35077 0.499017 0
M  V30 5144 H 442.951 2.42413 3.44694 0
M  V30 5145 H 441.675 1.25955 3.01335 0
M  V30 5146 H 440.334 3.10627 1.94695 0
M  V30 5147 H 439.982 2.52074 4.35279 0
M  V30 5148 H 439.682 4.25152 4.0561 0
M  V30 5149 H 441.206 3.73363 4.83148 0
M  V30 5150 H 442.62 4.94102 2.90751 0
M  V30 5151 H 441.017 5.51582 2.36384 0
M  V30 5152 H 442.087 4.69478 1.21319 0
M  V30 5153 N 443.43 -0.535701 1.48216 0
M  V30 5154 C 444.67 -1.30238 1.57536 0
M  V30 5155 C 445.034 -1.90479 0.241229 0
M  V30 5156 O 446.235 -2.67983 0.20938 0
M  V30 5157 C 444.506 -2.3669 2.67792 0
M  V30 5158 S 446.065 -3.23159 2.9684 0
M  V30 5159 H 442.883 -0.443093 0.556048 0
M  V30 5160 H 445.485 -0.610937 1.85709 0
M  V30 5161 H 444.189 -1.90905 3.63296 0
M  V30 5162 H 443.72 -3.10548 2.41502 0
M  V30 5163 H 445.735 -4.36647 2.35699 0
M  V30 5164 N 444.908 -1.36708 -0.784132 0
M  V30 5165 C 446.319 -1.27947 -1.35965 0
M  V30 5166 C 446.67 0.0784013 -1.96043 0
M  V30 5167 O 445.795 0.979989 -1.92938 0
M  V30 5168 C 446.39 -2.31689 -2.47195 0
M  V30 5169 C 444.949 -2.26601 -3.00548 0
M  V30 5170 C 444.096 -2.16184 -1.73666 0
M  V30 5171 H 447.047 -1.4751 -0.585358 0
M  V30 5172 H 447.068 -1.95638 -3.26352 0
M  V30 5173 H 446.58 -3.30506 -2.03439 0
M  V30 5174 H 444.681 -1.31268 -3.48711 0
M  V30 5175 H 444.794 -3.19508 -3.57004 0
M  V30 5176 H 443.158 -1.62524 -1.96107 0
M  V30 5177 H 443.941 -3.16896 -1.32031 0
M  V30 5178 N 446.386 1.0089 -1.21074 0
M  V30 5179 C 447.633 1.74607 -1.0256 0
M  V30 5180 C 447.961 1.89426 0.44136 0
M  V30 5181 O 447.216 1.42266 1.34384 0
M  V30 5182 C 447.515 3.16335 -1.66334 0
M  V30 5183 C 447.181 3.21474 -3.16173 0
M  V30 5184 C 445.843 3.22583 -3.57062 0
M  V30 5185 C 448.195 3.19025 -4.12156 0
M  V30 5186 C 445.523 3.18925 -4.92446 0
M  V30 5187 C 447.875 3.16909 -5.47496 0
M  V30 5188 C 446.539 3.16326 -5.87787 0
M  V30 5189 H 445.809 0.638933 -0.375294 0
M  V30 5190 H 448.456 1.18274 -1.50611 0
M  V30 5191 H 446.761 3.75876 -1.10566 0
M  V30 5192 H 448.458 3.72083 -1.49516 0
M  V30 5193 H 445.048 3.2135 -2.83605 0
M  V30 5194 H 449.232 3.17332 -3.81595 0
M  V30 5195 H 444.488 3.16809 -5.22917 0
M  V30 5196 H 448.662 3.13968 -6.21609 0
M  V30 5197 H 446.289 3.13246 -6.92662 0
M  V30 5198 N 447.864 1.01787 1.20321 0
M  V30 5199 C 449.111 0.707936 1.89722 0
M  V30 5200 C 449.439 -0.762535 1.78929 0
M  V30 5201 O 448.694 -1.56977 1.16861 0
M  V30 5202 C 448.993 1.09076 3.40349 0
M  V30 5203 C 448.659 2.55765 3.71342 0
M  V30 5204 C 447.321 2.95845 3.79511 0
M  V30 5205 C 449.673 3.50723 3.85542 0
M  V30 5206 C 447.001 4.2982 3.99339 0
M  V30 5207 C 449.353 4.84387 4.06881 0
M  V30 5208 C 448.017 5.24172 4.1328 0
M  V30 5209 H 447.287 0.259052 0.694243 0
M  V30 5210 H 449.934 1.27868 1.42555 0
M  V30 5211 H 448.239 0.438453 3.89339 0
M  V30 5212 H 449.936 0.828636 3.92345 0
M  V30 5213 H 446.526 2.2371 3.65584 0
M  V30 5214 H 450.71 3.20916 3.78585 0
M  V30 5215 H 445.966 4.60196 4.02529 0
M  V30 5216 H 450.14 5.57891 4.1681 0
M  V30 5217 H 447.767 6.27997 4.28396 0
M  V30 5218 N 449.342 -1.36122 0.79427 0
M  V30 5219 C 450.252 -2.33769 0.197296 0
M  V30 5220 C 451.268 -1.61276 -0.653153 0
M  V30 5221 O 452.444 -1.9323 -0.5678 0
M  V30 5222 C 449.509 -3.40474 -0.654098 0
M  V30 5223 C 448.57 -4.28759 0.215411 0
M  V30 5224 C 447.803 -5.30368 -0.595443 0
M  V30 5225 O 448.026 -5.40211 -1.83107 0
M  V30 5226 O 446.96 -6.019 0.00721351 0
M  V30 5227 H 450.786 -2.86597 1.00478 0
M  V30 5228 H 448.371 -1.38676 0.555818 0
M  V30 5229 H 450.253 -4.05703 -1.13944 0
M  V30 5230 H 448.928 -2.89937 -1.43938 0
M  V30 5231 H 447.835 -3.66554 0.747615 0
M  V30 5232 H 449.168 -4.82661 0.964332 0
M  V30 5233 N 450.82 -0.546701 -1.47814 0
M  V30 5234 C 452.097 0.0464413 -1.95545 0
M  V30 5235 C 452.477 1.4962 -1.48919 0
M  V30 5236 O 451.825 2.16752 -0.723232 0
M  V30 5237 C 452.035 -0.0881298 -3.48889 0
M  V30 5238 C 453.383 0.0626059 -4.24554 0
M  V30 5239 O 454.407 -0.0151555 -3.56197 0
M  V30 5240 O 453.266 0.228071 -5.46024 0
M  V30 5241 H 450.36 0.0700004 -0.824032 0
M  V30 5242 H 452.906 -0.612482 -1.58262 0
M  V30 5243 H 451.678 -1.09737 -3.75597 0
M  V30 5244 H 451.301 0.608886 -3.9291 0
M  V30 5245 N 452.299 1.55045 -0.282633 0
M  V30 5246 C 453.546 1.9976 0.33199 0
M  V30 5247 C 453.874 1.17105 1.55295 0
M  V30 5248 O 453.129 0.230599 1.94337 0
M  V30 5249 C 453.428 3.49422 0.750938 0
M  V30 5250 C 453.094 4.4941 -0.366228 0
M  V30 5251 C 451.756 4.76471 -0.672964 0
M  V30 5252 C 454.108 5.09054 -1.11864 0
M  V30 5253 C 451.436 5.60442 -1.73556 0
M  V30 5254 C 453.788 5.9418 -2.17102 0
M  V30 5255 C 452.452 6.19558 -2.48402 0
M  V30 5256 H 451.722 0.730974 0.121484 0
M  V30 5257 H 454.369 1.8732 -0.39791 0
M  V30 5258 H 452.674 3.59377 1.56063 0
M  V30 5259 H 454.371 3.81432 1.23736 0
M  V30 5260 H 450.961 4.2844 -0.117041 0
M  V30 5261 H 455.145 4.88165 -0.894925 0
M  V30 5262 H 450.401 5.78349 -1.983 0
M  V30 5263 H 454.575 6.39427 -2.75873 0
M  V30 5264 H 452.202 6.84417 -3.30874 0
M  V30 5265 N 453.777 0.010035 1.57597 0
M  V30 5266 C 455.026 -0.671945 1.90178 0
M  V30 5267 C 455.339 -1.74376 0.886131 0
M  V30 5268 O 456.545 -2.48107 1.10252 0
M  V30 5269 C 455.001 -1.24636 3.3763 0
M  V30 5270 C 454.609 -0.208838 4.47513 0
M  V30 5271 C 456.353 -1.90595 3.79307 0
M  V30 5272 C 454.26 -0.793814 5.86048 0
M  V30 5273 H 453.19 -0.25474 0.709665 0
M  V30 5274 H 455.841 0.0722206 1.83358 0
M  V30 5275 H 454.223 -2.04152 3.3932 0
M  V30 5276 H 455.397 0.562463 4.57354 0
M  V30 5277 H 453.712 0.350889 4.14919 0
M  V30 5278 H 456.309 -2.35284 4.80151 0
M  V30 5279 H 456.652 -2.74074 3.13352 0
M  V30 5280 H 457.185 -1.17798 3.79958 0
M  V30 5281 H 453.924 0.00240855 6.555 0
M  V30 5282 H 453.444 -1.53404 5.79851 0
M  V30 5283 H 455.123 -1.2894 6.34022 0
M  V30 5284 N 455.255 -1.55392 -0.262866 0
M  V30 5285 C 456.504 -1.75679 -0.990943 0
M  V30 5286 C 456.817 -0.57097 -1.87081 0
M  V30 5287 O 458.023 -0.656486 -2.63444 0
M  V30 5288 C 456.479 -3.10964 -1.81188 0
M  V30 5289 C 456.087 -4.37146 -0.980188 0
M  V30 5290 C 457.831 -3.40597 -2.53365 0
M  V30 5291 C 455.738 -5.63466 -1.7961 0
M  V30 5292 H 454.668 -0.654868 -0.373716 0
M  V30 5293 H 457.319 -1.81841 -0.246203 0
M  V30 5294 H 455.701 -2.98867 -2.59797 0
M  V30 5295 H 456.875 -4.60187 -0.237558 0
M  V30 5296 H 455.19 -4.14731 -0.372497 0
M  V30 5297 H 457.787 -4.32186 -3.14833 0
M  V30 5298 H 458.13 -2.6119 -3.24169 0
M  V30 5299 H 458.663 -3.53838 -1.81779 0
M  V30 5300 H 455.402 -6.4565 -1.13209 0
M  V30 5301 H 454.922 -5.44552 -2.51443 0
M  V30 5302 H 456.601 -6.02139 -2.36723 0
M  V30 5303 N 456.733 0.527833 -1.48498 0
M  V30 5304 C 457.681 1.65313 -1.63628 0
M  V30 5305 C 458.675 1.6177 -0.502676 0
M  V30 5306 O 459.881 1.66601 -0.681469 0
M  V30 5307 H 456.256 0.547518 -0.515488 0
M  V30 5308 H 458.227 1.49696 -2.58135 0
M  V30 5309 C 456.976 3.03576 -1.6952 0
M  V30 5310 H 456.299 3.06997 -2.56111 0
M  V30 5311 H 457.739 3.81923 -1.84149 0
M  V30 5312 C 456.198 3.34089 -0.43432 0
M  V30 5313 O 456.728 3.99151 0.451852 0
M  V30 5314 N 454.934 2.88991 -0.305368 0
M  V30 5315 H 454.481 2.36222 -1.02747 0
M  V30 5316 H 454.439 3.09776 0.537249 0
M  V30 5317 N 458.211 1.37122 0.776871 0
M  V30 5318 C 459.141 1.35164 1.90402 0
M  V30 5319 C 460.122 0.221069 1.68657 0
M  V30 5320 O 461.307 0.420642 1.8959 0
M  V30 5321 C 458.437 1.15274 3.27611 0
M  V30 5322 C 457.391 2.25289 3.63908 0
M  V30 5323 C 456.717 1.90527 4.99603 0
M  V30 5324 C 458.017 3.67446 3.71188 0
M  V30 5325 H 459.711 2.29482 1.92297 0
M  V30 5326 H 457.257 1.10465 0.923773 0
M  V30 5327 H 459.21 1.12536 4.06096 0
M  V30 5328 H 457.934 0.174102 3.26136 0
M  V30 5329 H 456.593 2.27174 2.87728 0
M  V30 5330 H 456.241 0.91206 4.94662 0
M  V30 5331 H 455.941 2.64193 5.24858 0
M  V30 5332 H 457.465 1.89367 5.80493 0
M  V30 5333 H 458.879 3.67719 4.39836 0
M  V30 5334 H 457.276 4.40123 4.07936 0
M  V30 5335 H 458.346 4.01443 2.71977 0
M  V30 5336 N 459.689 -1.00246 1.21608 0
M  V30 5337 C 460.621 -2.09244 0.935401 0
M  V30 5338 C 461.634 -1.62592 -0.0823594 0
M  V30 5339 O 462.823 -1.77865 0.150456 0
M  V30 5340 C 459.923 -3.36724 0.383453 0
M  V30 5341 C 459.096 -4.1245 1.45615 0
M  V30 5342 C 458.155 -5.18219 0.912991 0
M  V30 5343 O 457.181 -5.46337 1.59701 0
M  V30 5344 N 458.383 -5.7987 -0.270478 0
M  V30 5345 H 461.148 -2.33905 1.87373 0
M  V30 5346 H 458.709 -1.16748 1.12167 0
M  V30 5347 H 460.701 -4.047 0.00562157 0
M  V30 5348 H 459.271 -3.09201 -0.459758 0
M  V30 5349 H 458.491 -3.39241 2.00772 0
M  V30 5350 H 459.779 -4.59819 2.17817 0
M  V30 5351 H 459.177 -5.59381 -0.843195 0
M  V30 5352 H 457.734 -6.49126 -0.589794 0
M  V30 5353 N 461.167 -1.02423 -1.1978 0
M  V30 5354 C 462.115 -0.594474 -2.24875 0
M  V30 5355 C 463.109 0.370598 -1.65296 0
M  V30 5356 O 464.315 0.239684 -1.78397 0
M  V30 5357 H 460.69 -0.173961 -0.731602 0
M  V30 5358 H 462.661 -1.4916 -2.58445 0
M  V30 5359 C 461.41 0.0436512 -3.47673 0
M  V30 5360 H 460.733 -0.689963 -3.93801 0
M  V30 5361 H 462.173 0.307362 -4.22884 0
M  V30 5362 C 460.632 1.28881 -3.11274 0
M  V30 5363 O 461.162 2.38135 -3.23503 0
M  V30 5364 N 459.368 1.1758 -2.6575 0
M  V30 5365 H 458.915 0.286769 -2.55999 0
M  V30 5366 H 458.873 2.00988 -2.41767 0
M  V30 5367 N 462.645 1.35699 -0.801477 0
M  V30 5368 C 463.875 2.02862 -0.3912 0
M  V30 5369 C 464.283 1.60552 1.00099 0
M  V30 5370 O 463.626 0.796215 1.65548 0
M  V30 5371 C 463.688 3.57386 -0.389299 0
M  V30 5372 C 463.352 4.22943 -1.73113 0
M  V30 5373 C 464.349 4.44984 -2.68859 0
M  V30 5374 C 462.034 4.60167 -2.01373 0
M  V30 5375 C 464.028 5.03345 -3.91053 0
M  V30 5376 C 461.715 5.18243 -3.23832 0
M  V30 5377 C 462.713 5.39773 -4.1849 0
M  V30 5378 O 462.401 5.96626 -5.38788 0
M  V30 5379 H 462.133 0.657341 -0.157732 0
M  V30 5380 H 464.687 1.74407 -1.08496 0
M  V30 5381 H 462.917 3.85011 0.361031 0
M  V30 5382 H 464.606 4.059 -0.0020365 0
M  V30 5383 H 465.372 4.1661 -2.48316 0
M  V30 5384 H 461.251 4.42726 -1.28508 0
M  V30 5385 H 464.795 5.20065 -4.64949 0
M  V30 5386 H 460.692 5.46044 -3.44248 0
M  V30 5387 H 461.46 6.15082 -5.40015 0
M  V30 5388 N 464.123 0.554532 1.47522 0
M  V30 5389 C 465.4 -0.0360704 1.95567 0
M  V30 5390 C 465.78 -1.48828 1.49711 0
M  V30 5391 O 465.128 -2.16366 0.734717 0
M  V30 5392 C 465.338 0.106631 3.48837 0
M  V30 5393 C 466.686 -0.0400899 4.24581 0
M  V30 5394 O 467.71 0.0340453 3.56184 0
M  V30 5395 O 466.569 -0.199111 5.46137 0
M  V30 5396 H 463.663 -0.0656294 0.824392 0
M  V30 5397 H 466.209 0.620867 1.57935 0
M  V30 5398 H 464.981 1.11727 3.7501 0
M  V30 5399 H 464.604 -0.58804 3.93227 0
M  V30 5400 N 465.601 -1.54893 0.290851 0
M  V30 5401 C 466.548 -2.23138 -0.58974 0
M  V30 5402 C 467.518 -1.21036 -1.13752 0
M  V30 5403 O 468.703 -1.49626 -1.18392 0
M  V30 5404 C 465.843 -2.96811 -1.76061 0
M  V30 5405 C 464.956 -4.13665 -1.24519 0
M  V30 5406 C 464.091 -4.74944 -2.3791 0
M  V30 5407 C 463.13 -5.83963 -1.83451 0
M  V30 5408 N 462.267 -6.39239 -2.90376 0
M  V30 5409 H 467.107 -2.98 -0.00114915 0
M  V30 5410 H 464.644 -1.47096 0.0112006 0
M  V30 5411 H 466.602 -3.37751 -2.44909 0
M  V30 5412 H 465.232 -2.24344 -2.32098 0
M  V30 5413 H 464.284 -3.77737 -0.449288 0
M  V30 5414 H 465.596 -4.92238 -0.806424 0
M  V30 5415 H 464.75 -5.18684 -3.14724 0
M  V30 5416 H 463.489 -3.95682 -2.85109 0
M  V30 5417 H 462.494 -5.39657 -1.05122 0
M  V30 5418 H 463.719 -6.65103 -1.37169 0
M  V30 5419 H 461.665 -5.62864 -3.36927 0
M  V30 5420 H 461.582 -7.13129 -2.50965 0
M  V30 5421 H 462.85 -6.87637 -3.67118 0
M  V30 5422 N 467.08 -0.0183926 -1.57589 0
M  V30 5423 C 468.028 0.985111 -2.10709 0
M  V30 5424 C 469.022 1.34397 -1.0312 0
M  V30 5425 O 470.228 1.32746 -1.21567 0
M  V30 5426 H 466.603 0.335418 -0.673052 0
M  V30 5427 H 468.574 0.511689 -2.9398 0
M  V30 5428 C 467.323 2.26202 -2.64061 0
M  V30 5429 H 466.646 1.9946 -3.4649 0
M  V30 5430 H 468.086 2.94652 -3.04887 0
M  V30 5431 C 466.545 2.98444 -1.5631 0
M  V30 5432 O 467.075 3.90142 -0.956674 0
M  V30 5433 N 465.281 2.6059 -1.28612 0
M  V30 5434 H 464.828 1.86101 -1.78112 0
M  V30 5435 H 464.786 3.09238 -0.567406 0
M  V30 5436 N 468.558 1.5553 0.254621 0
M  V30 5437 C 469.505 1.89666 1.31512 0
M  V30 5438 C 470.475 0.750057 1.482 0
M  V30 5439 O 471.66 1.00301 1.62309 0
M  V30 5440 C 468.8 2.19009 2.667 0
M  V30 5441 C 467.913 3.46435 2.58083 0
M  V30 5442 C 467.048 3.65386 3.85573 0
M  V30 5443 C 466.087 4.8644 3.71541 0
M  V30 5444 N 465.224 5.01952 4.90906 0
M  V30 5445 H 470.064 2.80109 1.017 0
M  V30 5446 H 467.601 1.38666 0.490938 0
M  V30 5447 H 469.559 2.34025 3.45381 0
M  V30 5448 H 468.189 1.31779 2.94676 0
M  V30 5449 H 467.241 3.39792 1.71013 0
M  V30 5450 H 468.553 4.35258 2.43622 0
M  V30 5451 H 467.707 3.80319 4.72697 0
M  V30 5452 H 466.446 2.74781 4.02922 0
M  V30 5453 H 465.451 4.71491 2.82801 0
M  V30 5454 H 466.676 5.78497 3.55694 0
M  V30 5455 H 464.622 4.14283 5.08631 0
M  V30 5456 H 464.539 5.84851 4.79046 0
M  V30 5457 H 465.807 5.21289 5.7955 0
M  V30 5458 N 470.036 -0.519951 1.48776 0
M  V30 5459 C 470.983 -1.62352 1.64044 0
M  V30 5460 C 471.953 -1.58945 0.482251 0
M  V30 5461 O 473.138 -1.77219 0.706971 0
M  V30 5462 C 470.278 -3.00579 1.69547 0
M  V30 5463 C 469.391 -3.14145 2.96541 0
M  V30 5464 C 468.526 -4.42991 2.93142 0
M  V30 5465 C 467.565 -4.50122 4.14797 0
M  V30 5466 N 466.702 -5.7037 4.09418 0
M  V30 5467 H 471.542 -1.48643 2.58281 0
M  V30 5468 H 469.079 -0.723516 1.28077 0
M  V30 5469 H 471.037 -3.80671 1.70719 0
M  V30 5470 H 469.667 -3.13036 0.787918 0
M  V30 5471 H 468.719 -2.27239 3.05068 0
M  V30 5472 H 470.031 -3.15275 3.86527 0
M  V30 5473 H 469.185 -5.31385 2.92772 0
M  V30 5474 H 467.924 -4.44398 2.00902 0
M  V30 5475 H 466.929 -3.60133 4.15433 0
M  V30 5476 H 468.154 -4.50445 5.08208 0
M  V30 5477 H 466.1 -5.72655 3.20004 0
M  V30 5478 H 466.017 -5.73036 4.93119 0
M  V30 5479 H 467.285 -6.61023 4.13121 0
M  V30 5480 N 471.514 -1.37532 -0.769588 0
M  V30 5481 C 472.742 -1.36059 -1.55871 0
M  V30 5482 C 473.157 0.053544 -1.88724 0
M  V30 5483 O 472.514 1.01591 -1.5161 0
M  V30 5484 C 472.565 -2.20107 -2.86767 0
M  V30 5485 O 472.286 -3.56009 -2.55321 0
M  V30 5486 C 473.787 -2.26636 -3.80987 0
M  V30 5487 H 471.007 -0.465967 -0.482821 0
M  V30 5488 H 473.551 -1.80901 -0.953686 0
M  V30 5489 H 471.706 -1.78768 -3.43687 0
M  V30 5490 H 472.12 -4.0009 -3.39158 0
M  V30 5491 H 473.594 -2.89763 -4.69831 0
M  V30 5492 H 474.071 -1.2754 -4.20274 0
M  V30 5493 H 474.677 -2.68296 -3.29996 0
M  V30 5494 N 472.992 0.995999 -1.22138 0
M  V30 5495 C 473.922 2.10387 -1.01289 0
M  V30 5496 C 474.903 1.69975 0.0651454 0
M  V30 5497 O 476.088 1.9396 -0.0964628 0
M  V30 5498 C 473.218 3.42312 -0.586517 0
M  V30 5499 C 472.172 3.96558 -1.61014 0
M  V30 5500 C 471.498 5.24494 -1.0397 0
M  V30 5501 C 472.798 4.27595 -2.99933 0
M  V30 5502 H 474.492 2.28086 -1.93951 0
M  V30 5503 H 472.038 1.09607 -0.933928 0
M  V30 5504 H 473.991 4.19223 -0.427793 0
M  V30 5505 H 472.715 3.24431 0.375761 0
M  V30 5506 H 471.374 3.21776 -1.75658 0
M  V30 5507 H 471.022 5.02953 -0.0688703 0
M  V30 5508 H 470.722 5.61755 -1.72352 0
M  V30 5509 H 472.246 6.04042 -0.892494 0
M  V30 5510 H 473.66 4.95315 -2.8868 0
M  V30 5511 H 472.057 4.76021 -3.6541 0
M  V30 5512 H 473.127 3.35498 -3.50099 0
M  V30 5513 N 474.47 1.03057 1.19235 0
M  V30 5514 C 475.698 0.747697 1.92917 0
M  V30 5515 C 476.113 -0.69372 1.75593 0
M  V30 5516 O 475.47 -1.47191 1.07894 0
M  V30 5517 C 475.521 1.09159 3.44625 0
M  V30 5518 O 475.242 2.47641 3.61394 0
M  V30 5519 C 476.743 0.831763 4.35427 0
M  V30 5520 H 473.963 0.273453 0.612751 0
M  V30 5521 H 476.507 1.37552 1.51327 0
M  V30 5522 H 474.662 0.508919 3.84043 0
M  V30 5523 H 475.076 2.60499 4.55237 0
M  V30 5524 H 476.55 1.12233 5.4047 0
M  V30 5525 H 477.027 -0.233769 4.38577 0
M  V30 5526 H 477.633 1.39725 4.01693 0
M  V30 5527 N 475.948 -1.35272 0.808662 0
M  V30 5528 C 477.225 -1.93077 0.313181 0
M  V30 5529 C 477.605 -1.73847 -1.19752 0
M  V30 5530 O 476.953 -1.1087 -1.998 0
M  V30 5531 C 477.163 -3.41347 0.726859 0
M  V30 5532 C 478.511 -4.18493 0.717532 0
M  V30 5533 O 479.535 -3.4987 0.668535 0
M  V30 5534 O 478.394 -5.40937 0.777779 0
M  V30 5535 H 475.488 -0.822885 0.0824018 0
M  V30 5536 H 478.034 -1.44335 0.892499 0
M  V30 5537 H 476.806 -3.49082 1.76797 0
M  V30 5538 H 476.429 -3.97411 0.122461 0
M  V30 5539 N 477.426 -0.562348 -1.47226 0
M  V30 5540 C 478.336 0.185466 -2.33866 0
M  V30 5541 C 479.352 0.906713 -1.48508 0
M  V30 5542 O 480.528 0.874458 -1.81425 0
M  V30 5543 C 477.593 1.19904 -3.25306 0
M  V30 5544 C 476.654 0.484669 -4.26555 0
M  V30 5545 C 475.887 1.44996 -5.13626 0
M  V30 5546 O 476.11 2.68515 -5.03245 0
M  V30 5547 O 475.044 0.971642 -5.94006 0
M  V30 5548 H 478.87 -0.525361 -2.99121 0
M  V30 5549 H 476.455 -0.322916 -1.45868 0
M  V30 5550 H 478.337 1.78399 -3.81774 0
M  V30 5551 H 477.012 1.8917 -2.62672 0
M  V30 5552 H 475.919 -0.141605 -3.73832 0
M  V30 5553 H 477.252 -0.166634 -4.91918 0
M  V30 5554 N 478.904 1.54736 -0.299062 0
M  V30 5555 C 480.144 2.0201 0.31168 0
M  V30 5556 C 480.508 1.18281 1.5124 0
M  V30 5557 O 481.709 1.55243 2.19438 0
M  V30 5558 C 479.98 3.5123 0.661227 0
M  V30 5559 S 481.539 4.20467 1.2551 0
M  V30 5560 H 478.357 0.704523 0.0957517 0
M  V30 5561 H 480.959 1.90791 -0.426482 0
M  V30 5562 H 479.663 4.09804 -0.221171 0
M  V30 5563 H 479.194 3.66481 1.43023 0
M  V30 5564 H 481.209 4.26083 2.54298 0
M  V30 5565 N 480.382 0.0267497 1.57577 0
M  V30 5566 C 481.312 -0.954308 2.13108 0
M  V30 5567 C 482.293 -1.34088 1.04663 0
M  V30 5568 O 483.478 -1.41992 1.32484 0
M  V30 5569 C 480.608 -2.23744 2.65624 0
M  V30 5570 C 479.562 -1.99168 3.78835 0
M  V30 5571 C 478.888 -3.33726 4.17769 0
M  V30 5572 C 480.188 -1.33277 5.0501 0
M  V30 5573 H 481.882 -0.491848 2.95332 0
M  V30 5574 H 479.428 -0.23514 1.42067 0
M  V30 5575 H 481.381 -2.92754 3.03106 0
M  V30 5576 H 480.105 -2.72151 1.80558 0
M  V30 5577 H 478.764 -1.32577 3.41788 0
M  V30 5578 H 478.412 -3.79888 3.29688 0
M  V30 5579 H 478.112 -3.18089 4.94058 0
M  V30 5580 H 479.636 -4.04008 4.57832 0
M  V30 5581 H 481.05 -1.92283 5.40093 0
M  V30 5582 H 479.447 -1.28045 5.8628 0
M  V30 5583 H 480.517 -0.305411 4.83937 0
M  V30 5584 N 481.861 -1.55662 -0.24637 0
M  V30 5585 C 483.11 -1.7672 -0.972254 0
M  V30 5586 C 483.423 -0.59078 -1.86465 0
M  V30 5587 O 484.629 -0.684391 -2.62732 0
M  V30 5588 C 483.085 -3.12869 -1.7788 0
M  V30 5589 C 482.693 -4.38161 -0.933768 0
M  V30 5590 C 484.437 -3.43265 -2.49738 0
M  V30 5591 C 482.344 -5.6534 -1.73623 0
M  V30 5592 H 481.274 -0.658795 -0.366749 0
M  V30 5593 H 483.925 -1.82092 -0.226902 0
M  V30 5594 H 482.307 -3.01606 -2.56612 0
M  V30 5595 H 483.481 -4.60413 -0.188736 0
M  V30 5596 H 481.796 -4.15102 -0.328488 0
M  V30 5597 H 484.393 -4.35501 -3.10231 0
M  V30 5598 H 484.736 -2.64614 -3.2138 0
M  V30 5599 H 485.269 -3.55746 -1.78016 0
M  V30 5600 H 482.008 -6.46814 -1.06354 0
M  V30 5601 H 481.528 -5.47188 -2.45653 0
M  V30 5602 H 483.207 -6.04616 -2.30323 0
M  V30 5603 N 483.339 0.512053 -1.4905 0
M  V30 5604 C 484.569 1.28928 -1.61434 0
M  V30 5605 C 484.977 1.87107 -0.280647 0
M  V30 5606 O 484.32 1.68024 0.742537 0
M  V30 5607 C 484.382 2.466 -2.61588 0
M  V30 5608 C 484.046 2.09375 -4.06216 0
M  V30 5609 C 485.043 1.63994 -4.93358 0
M  V30 5610 C 482.728 2.19348 -4.51876 0
M  V30 5611 C 484.722 1.29076 -6.24194 0
M  V30 5612 C 482.409 1.84041 -5.82728 0
M  V30 5613 C 483.407 1.38978 -6.68711 0
M  V30 5614 O 483.095 1.04144 -7.97126 0
M  V30 5615 H 482.827 0.397668 -0.546659 0
M  V30 5616 H 485.381 0.622507 -1.9574 0
M  V30 5617 H 483.611 3.16318 -2.22441 0
M  V30 5618 H 485.3 3.08642 -2.63619 0
M  V30 5619 H 486.066 1.55744 -4.59313 0
M  V30 5620 H 481.945 2.53376 -3.85125 0
M  V30 5621 H 485.489 0.938303 -6.91261 0
M  V30 5622 H 481.386 1.91938 -6.16304 0
M  V30 5623 H 482.154 1.17387 -8.10039 0
M  V30 5624 N 484.817 1.37938 0.762283 0
M  V30 5625 C 486.066 1.32989 1.51647 0
M  V30 5626 C 486.379 -0.0802922 1.95435 0
M  V30 5627 O 487.585 -0.252295 2.70325 0
M  V30 5628 C 486.041 2.33485 2.73885 0
M  V30 5629 C 485.649 3.80079 2.37157 0
M  V30 5630 C 487.393 2.37563 3.51801 0
M  V30 5631 C 485.3 4.72283 3.55954 0
M  V30 5632 H 484.23 0.494301 0.56937 0
M  V30 5633 H 486.881 1.63448 0.834083 0
M  V30 5634 H 485.263 1.96056 3.44061 0
M  V30 5635 H 486.437 4.26398 1.74704 0
M  V30 5636 H 484.752 3.79037 1.72395 0
M  V30 5637 H 487.349 3.0365 4.40114 0
M  V30 5638 H 487.692 1.39199 3.92338 0
M  V30 5639 H 488.225 2.73747 2.8863 0
M  V30 5640 H 484.964 5.7181 3.2049 0
M  V30 5641 H 484.484 4.30663 4.1748 0
M  V30 5642 H 486.163 4.89876 4.22647 0
M  V30 5643 N 486.295 -0.989507 1.22664 0
M  V30 5644 C 487.225 -2.09847 1.02404 0
M  V30 5645 C 488.206 -1.70007 -0.0561303 0
M  V30 5646 O 489.391 -1.93906 0.106748 0
M  V30 5647 C 486.521 -3.41996 0.604663 0
M  V30 5648 C 485.475 -3.95699 1.63115 0
M  V30 5649 C 484.801 -5.23936 1.0675 0
M  V30 5650 C 486.101 -4.25999 3.02196 0
M  V30 5651 H 487.795 -2.27054 1.95158 0
M  V30 5652 H 485.341 -1.09111 0.939727 0
M  V30 5653 H 487.294 -4.1899 0.45002 0
M  V30 5654 H 486.018 -3.24626 -0.35855 0
M  V30 5655 H 484.677 -3.2084 1.77362 0
M  V30 5656 H 484.325 -5.02909 0.0955422 0
M  V30 5657 H 484.025 -5.60833 1.75328 0
M  V30 5658 H 485.549 -6.0356 0.924516 0
M  V30 5659 H 486.963 -4.93777 2.91303 0
M  V30 5660 H 485.36 -4.74076 3.67929 0
M  V30 5661 H 486.43 -3.33636 3.51873 0
M  V30 5662 N 487.773 -1.03688 -1.18687 0
M  V30 5663 C 488.705 -0.582696 -2.21669 0
M  V30 5664 C 489.718 0.345656 -1.59088 0
M  V30 5665 O 490.907 0.140776 -1.77944 0
M  V30 5666 C 488.007 0.169204 -3.38477 0
M  V30 5667 C 487.18 -0.766079 -4.30639 0
M  V30 5668 C 486.239 -0.0581541 -5.26168 0
M  V30 5669 O 485.265 -0.687346 -5.65035 0
M  V30 5670 N 486.467 1.20981 -5.67753 0
M  V30 5671 H 489.232 -1.46843 -2.61261 0
M  V30 5672 H 486.793 -0.916896 -1.33434 0
M  V30 5673 H 488.785 0.652543 -3.99405 0
M  V30 5674 H 487.355 0.956435 -2.97609 0
M  V30 5675 H 486.575 -1.42935 -3.67373 0
M  V30 5676 H 487.863 -1.40146 -4.89118 0
M  V30 5677 H 487.261 1.74159 -5.38224 0
M  V30 5678 H 485.818 1.6375 -6.30896 0
M  V30 5679 N 489.251 1.34841 -0.815825 0
M  V30 5680 C 490.499 1.98107 -0.399744 0
M  V30 5681 C 490.82 1.65019 1.03894 0
M  V30 5682 O 490.09 0.937311 1.72021 0
M  V30 5683 H 488.67 0.732827 -0.144823 0
M  V30 5684 H 491.332 1.64599 -1.0437 0
M  V30 5685 H 490.428 3.07856 -0.512965 0
M  V30 5686 N 490.729 0.570148 1.46925 0
M  V30 5687 C 491.659 -0.158274 2.32963 0
M  V30 5688 C 492.64 -0.896093 1.44583 0
M  V30 5689 O 493.825 -0.874022 1.7342 0
M  V30 5690 C 490.955 -1.18055 3.26619 0
M  V30 5691 C 489.909 -0.558379 4.24342 0
M  V30 5692 C 489.235 -1.68623 5.07415 0
M  V30 5693 C 490.535 0.496295 5.19937 0
M  V30 5694 H 492.229 0.560046 2.94115 0
M  V30 5695 H 489.775 0.270775 1.41431 0
M  V30 5696 H 491.728 -1.69841 3.85658 0
M  V30 5697 H 490.452 -1.92899 2.63548 0
M  V30 5698 H 489.111 -0.0617157 3.66548 0
M  V30 5699 H 488.759 -2.42402 4.40738 0
M  V30 5700 H 488.459 -1.27564 5.73586 0
M  V30 5701 H 489.983 -2.20709 5.69315 0
M  V30 5702 H 491.397 0.0640052 5.73264 0
M  V30 5703 H 489.794 0.82649 5.94381 0
M  V30 5704 H 490.864 1.38735 4.6463 0
M  V30 5705 N 492.207 -1.54576 0.307264 0
M  V30 5706 C 493.432 -2.05139 -0.305379 0
M  V30 5707 C 493.857 -1.18278 -1.46259 0
M  V30 5708 O 493.215 -0.188243 -1.8032 0
M  V30 5709 C 493.263 -3.53066 -0.733283 0
M  V30 5710 O 492.367 -3.69206 -1.83741 0
M  V30 5711 H 491.708 -0.661444 -0.0582105 0
M  V30 5712 H 494.238 -1.99569 0.450931 0
M  V30 5713 H 494.248 -3.95034 -1.02039 0
M  V30 5714 H 492.923 -4.15746 0.113198 0
M  V30 5715 H 491.5 -3.39143 -1.55037 0
M  V30 5716 N 493.685 -0.035106 -1.57561 0
M  V30 5717 C 494.915 0.651312 -1.96065 0
M  V30 5718 C 495.323 1.6585 -0.910514 0
M  V30 5719 O 494.666 1.83336 0.11552 0
M  V30 5720 C 494.728 1.40897 -3.30739 0
M  V30 5721 C 494.392 0.559436 -4.53563 0
M  V30 5722 C 495.389 -0.16778 -5.19629 0
M  V30 5723 C 493.074 0.495079 -4.99854 0
M  V30 5724 C 495.068 -0.947963 -6.30311 0
M  V30 5725 C 492.755 -0.288804 -6.10417 0
M  V30 5726 C 493.753 -1.00903 -6.75505 0
M  V30 5727 O 493.441 -1.78005 -7.83945 0
M  V30 5728 H 493.173 0.184036 -0.650467 0
M  V30 5729 H 495.727 -0.0929677 -2.05189 0
M  V30 5730 H 493.957 2.19852 -3.18123 0
M  V30 5731 H 495.646 1.98407 -3.54104 0
M  V30 5732 H 496.412 -0.12743 -4.84833 0
M  V30 5733 H 492.291 1.04524 -4.48994 0
M  V30 5734 H 495.835 -1.51064 -6.81047 0
M  V30 5735 H 491.732 -0.33085 -6.44652 0
M  V30 5736 H 492.5 -1.70046 -8.00641 0
M  V30 5737 N 495.163 1.55791 0.238111 0
M  V30 5738 C 496.411 1.77681 0.963001 0
M  V30 5739 C 496.732 0.600674 1.85518 0
M  V30 5740 O 496.002 -0.383182 1.92116 0
M  V30 5741 H 494.582 0.655315 0.358568 0
M  V30 5742 H 497.244 1.93239 0.253945 0
M  V30 5743 H 496.34 2.69177 1.57956 0
M  V30 5744 N 496.642 -0.504142 1.49319 0
M  V30 5745 C 497.888 -1.26033 1.58882 0
M  V30 5746 C 498.221 -1.92268 0.273274 0
M  V30 5747 O 497.496 -1.80567 -0.72291 0
M  V30 5748 C 497.779 -2.32976 2.7458 0
M  V30 5749 C 497.632 -1.71263 4.1592 0
M  V30 5750 C 498.951 -3.34561 2.85932 0
M  V30 5751 H 496.07 -0.456863 0.578312 0
M  V30 5752 H 498.712 -0.558965 1.81592 0
M  V30 5753 H 496.862 -2.92796 2.55348 0
M  V30 5754 H 498.534 -1.15294 4.4666 0
M  V30 5755 H 496.777 -1.01686 4.21714 0
M  V30 5756 H 497.448 -2.48816 4.92742 0
M  V30 5757 H 499.924 -2.84727 3.0343 0
M  V30 5758 H 498.8 -4.06754 3.68568 0
M  V30 5759 H 499.061 -3.96695 1.95154 0
M  V30 5760 N 498.12 -1.38341 -0.754957 0
M  V30 5761 C 499.03 -1.3769 -1.89944 0
M  V30 5762 C 500.046 -0.274194 -1.71826 0
M  V30 5763 O 501.222 -0.512391 -1.94773 0
M  V30 5764 C 498.287 -1.19938 -3.25293 0
M  V30 5765 C 497.348 -2.40001 -3.55946 0
M  V30 5766 C 496.581 -2.23087 -4.84838 0
M  V30 5767 O 496.804 -1.22386 -5.57116 0
M  V30 5768 O 495.738 -3.11646 -5.14937 0
M  V30 5769 H 499.564 -2.3412 -1.93446 0
M  V30 5770 H 497.149 -1.19246 -0.900044 0
M  V30 5771 H 499.031 -1.12093 -4.06218 0
M  V30 5772 H 497.706 -0.265919 -3.22606 0
M  V30 5773 H 496.613 -2.53421 -2.75188 0
M  V30 5774 H 497.946 -3.31973 -3.63394 0
M  V30 5775 N 499.598 0.982988 -1.23187 0
M  V30 5776 C 500.546 2.09616 -1.00817 0
M  V30 5777 C 501.54 1.6932 0.0519995 0
M  V30 5778 O 502.746 1.79715 -0.101284 0
M  V30 5779 H 499.121 0.685628 -0.308899 0
M  V30 5780 H 501.092 2.25652 -1.95253 0
M  V30 5781 C 499.841 3.42249 -0.613243 0
M  V30 5782 H 499.164 3.73705 -1.42073 0
M  V30 5783 H 500.604 4.21086 -0.496208 0
M  V30 5784 C 499.063 3.30002 0.678233 0
M  V30 5785 O 499.593 3.6263 1.72807 0
M  V30 5786 N 497.799 2.83164 0.653165 0
M  V30 5787 H 497.346 2.56811 -0.201492 0
M  V30 5788 H 497.304 2.75352 1.51752 0
M  V30 5789 N 501.076 1.04316 1.18135 0
M  V30 5790 C 502.039 0.640794 2.2006 0
M  V30 5791 C 503.039 -0.303124 1.57917 0
M  V30 5792 O 504.229 -0.0881855 1.73977 0
M  V30 5793 C 501.361 -0.060148 3.40847 0
M  V30 5794 H 502.554 1.54281 2.57172 0
M  V30 5795 H 500.107 0.836004 1.32063 0
M  V30 5796 H 500.842 -0.975845 3.0927 0
M  V30 5797 H 500.627 0.618319 3.87194 0
M  V30 5798 H 502.117 -0.328082 4.16309 0
M  V30 5799 N 502.554 -1.34406 0.822964 0
M  V30 5800 C 503.484 -2.32052 0.259608 0
M  V30 5801 C 504.465 -1.58243 -0.623961 0
M  V30 5802 O 505.65 -1.86224 -0.55083 0
M  V30 5803 C 502.78 -3.42434 -0.579314 0
M  V30 5804 C 501.734 -4.27499 0.20712 0
M  V30 5805 C 501.06 -5.29349 -0.754547 0
M  V30 5806 C 502.36 -5.02758 1.41533 0
M  V30 5807 H 504.054 -2.79418 1.07545 0
M  V30 5808 H 501.6 -1.34338 0.518593 0
M  V30 5809 H 503.553 -4.0976 -0.983612 0
M  V30 5810 H 502.277 -2.93717 -1.4282 0
M  V30 5811 H 500.936 -3.61776 0.592787 0
M  V30 5812 H 500.584 -4.76895 -1.59939 0
M  V30 5813 H 500.284 -5.8714 -0.232561 0
M  V30 5814 H 501.808 -5.99544 -1.1567 0
M  V30 5815 H 503.222 -5.62938 1.08504 0
M  V30 5816 H 501.619 -5.70123 1.87296 0
M  V30 5817 H 502.689 -4.32451 2.1935 0
M  V30 5818 N 504.032 -0.577932 -1.46621 0
M  V30 5819 C 505.281 -0.0594281 -2.01612 0
M  V30 5820 C 505.594 1.30663 -1.45556 0
M  V30 5821 O 506.8 1.91621 -1.92337 0
M  V30 5822 C 505.256 -0.0556666 -3.59857 0
M  V30 5823 C 504.864 -1.41975 -4.24908 0
M  V30 5824 C 506.608 0.409143 -4.22524 0
M  V30 5825 C 504.515 -1.37397 -5.75218 0
M  V30 5826 H 503.445 -0.0184469 -0.753774 0
M  V30 5827 H 506.096 -0.728869 -1.68404 0
M  V30 5828 H 504.478 0.679843 -3.90121 0
M  V30 5829 H 505.652 -2.17461 -4.0626 0
M  V30 5830 H 503.967 -1.82419 -3.74316 0
M  V30 5831 H 506.564 0.46211 -5.32699 0
M  V30 5832 H 506.907 1.42565 -3.91128 0
M  V30 5833 H 507.44 -0.272152 -3.96868 0
M  V30 5834 H 504.179 -2.36714 -6.11267 0
M  V30 5835 H 503.699 -0.661239 -5.96144 0
M  V30 5836 H 505.378 -1.08484 -6.3784 0
M  V30 5837 N 505.51 1.54411 -0.315457 0
M  V30 5838 C 506.74 2.04536 0.291315 0
M  V30 5839 C 507.148 1.19162 1.4696 0
M  V30 5840 O 506.491 0.213199 1.82459 0
M  V30 5841 C 506.553 3.5056 0.796725 0
M  V30 5842 C 506.217 4.5627 -0.258178 0
M  V30 5843 C 507.214 5.08312 -1.09153 0
M  V30 5844 C 504.899 5.00672 -0.404036 0
M  V30 5845 C 506.893 6.03312 -2.05655 0
M  V30 5846 C 504.58 5.95488 -1.37248 0
M  V30 5847 C 505.578 6.46693 -2.19721 0
M  V30 5848 O 505.266 7.39648 -3.14921 0
M  V30 5849 H 504.998 0.672856 0.0651165 0
M  V30 5850 H 507.552 2.00244 -0.457308 0
M  V30 5851 H 505.782 3.52223 1.59612 0
M  V30 5852 H 507.471 3.83804 1.32096 0
M  V30 5853 H 508.237 4.74793 -0.98979 0
M  V30 5854 H 504.116 4.60436 0.22799 0
M  V30 5855 H 507.66 6.43203 -2.70067 0
M  V30 5856 H 503.557 6.28424 -1.47489 0
M  V30 5857 H 504.325 7.57496 -3.10067 0
M  V30 5858 N 506.988 0.0434614 1.5754 0
M  V30 5859 C 507.935 -0.93356 2.11077 0
M  V30 5860 C 508.905 -1.31383 1.01626 0
M  V30 5861 O 510.09 -1.40465 1.29129 0
M  V30 5862 C 507.23 -2.20578 2.65404 0
M  V30 5863 C 506.343 -1.88068 3.88914 0
M  V30 5864 C 505.478 -3.09691 4.31584 0
M  V30 5865 C 504.517 -2.73067 5.47815 0
M  V30 5866 N 503.654 -3.87359 5.85574 0
M  V30 5867 H 508.494 -0.470118 2.94268 0
M  V30 5868 H 506.031 -0.220434 1.45439 0
M  V30 5869 H 507.989 -2.95011 2.94999 0
M  V30 5870 H 506.619 -2.64513 1.85021 0
M  V30 5871 H 505.671 -1.03816 3.6596 0
M  V30 5872 H 506.983 -1.57104 4.73413 0
M  V30 5873 H 506.137 -3.92431 4.62691 0
M  V30 5874 H 504.876 -3.43827 3.45882 0
M  V30 5875 H 503.881 -1.88742 5.16388 0
M  V30 5876 H 505.106 -2.40131 6.35227 0
M  V30 5877 H 503.052 -4.21311 5.02825 0
M  V30 5878 H 502.969 -3.60068 6.64746 0
M  V30 5879 H 504.237 -4.70761 6.21292 0
M  V30 5880 N 508.466 -1.55915 -0.229846 0
M  V30 5881 C 509.414 -1.9258 -1.30444 0
M  V30 5882 C 510.408 -0.806839 -1.48951 0
M  V30 5883 O 511.614 -0.991606 -1.50224 0
M  V30 5884 H 507.989 -0.611878 -0.437161 0
M  V30 5885 H 509.96 -2.82264 -0.96797 0
M  V30 5886 C 508.709 -2.25171 -2.6494 0
M  V30 5887 H 508.032 -3.10782 -2.51504 0
M  V30 5888 H 509.472 -2.54716 -3.38963 0
M  V30 5889 C 507.931 -1.07394 -3.19324 0
M  V30 5890 O 508.461 -0.330759 -4.00336 0
M  V30 5891 N 506.667 -0.859984 -2.77584 0
M  V30 5892 H 506.214 -1.46605 -2.11813 0
M  V30 5893 H 506.172 -0.0736671 -3.14314 0
M  V30 5894 N 509.944 0.496216 -1.49584 0
M  V30 5895 C 511.174 1.27209 -1.62793 0
M  V30 5896 C 511.582 1.86799 -0.300476 0
M  V30 5897 O 510.925 1.68802 0.724674 0
M  V30 5898 C 510.987 2.43812 -2.64189 0
M  V30 5899 C 510.651 2.05055 -4.08414 0
M  V30 5900 C 511.648 1.58752 -4.9507 0
M  V30 5901 C 509.333 2.14543 -4.54177 0
M  V30 5902 C 511.327 1.22448 -6.25528 0
M  V30 5903 C 509.014 1.77851 -5.84647 0
M  V30 5904 C 510.012 1.31878 -6.70147 0
M  V30 5905 O 509.7 0.956834 -7.98185 0
M  V30 5906 H 509.432 0.391848 -0.550846 0
M  V30 5907 H 511.986 0.601712 -1.96389 0
M  V30 5908 H 510.216 3.13941 -2.25783 0
M  V30 5909 H 511.905 3.05829 -2.66877 0
M  V30 5910 H 512.671 1.50863 -4.60939 0
M  V30 5911 H 508.55 2.49277 -3.87791 0
M  V30 5912 H 512.094 0.864933 -6.92217 0
M  V30 5913 H 507.991 1.8539 -6.18305 0
M  V30 5914 H 508.759 1.08789 -8.11238 0
M  V30 5915 N 511.423 1.38739 0.74761 0
M  V30 5916 C 512.672 1.3459 1.50228 0
M  V30 5917 C 512.985 -0.0595592 1.95509 0
M  V30 5918 O 514.191 -0.22361 2.70578 0
M  V30 5919 C 512.647 2.36377 2.71393 0
M  V30 5920 C 512.255 3.82573 2.33113 0
M  V30 5921 C 513.999 2.41281 3.49262 0
M  V30 5922 C 511.906 4.76032 3.50924 0
M  V30 5923 H 510.836 0.500312 0.564096 0
M  V30 5924 H 513.487 1.64324 0.8167 0
M  V30 5925 H 511.869 1.99694 3.41962 0
M  V30 5926 H 513.043 4.28227 1.70171 0
M  V30 5927 H 511.358 3.80844 1.68365 0
M  V30 5928 H 513.955 3.08301 4.36869 0
M  V30 5929 H 514.298 1.43353 3.9084 0
M  V30 5930 H 514.831 2.76793 2.85711 0
M  V30 5931 H 511.57 5.75177 3.14408 0
M  V30 5932 H 511.09 4.35066 4.12889 0
M  V30 5933 H 512.769 4.94331 4.17427 0
M  V30 5934 N 512.901 -0.976442 1.23707 0
M  V30 5935 C 513.848 -2.06952 1.02174 0
M  V30 5936 C 514.818 -1.65984 -0.0621034 0
M  V30 5937 O 516.003 -1.90584 0.0907906 0
M  V30 5938 C 513.143 -3.39425 0.62327 0
M  V30 5939 C 512.256 -3.9364 1.77966 0
M  V30 5940 C 511.391 -5.14343 1.3276 0
M  V30 5941 C 510.43 -5.60733 2.45449 0
M  V30 5942 N 509.567 -6.72662 2.01172 0
M  V30 5943 H 514.407 -2.24704 1.95734 0
M  V30 5944 H 511.944 -1.10143 0.975034 0
M  V30 5945 H 513.902 -4.15526 0.37332 0
M  V30 5946 H 512.532 -3.21624 -0.275329 0
M  V30 5947 H 511.584 -3.14258 2.14351 0
M  V30 5948 H 512.896 -4.24035 2.62671 0
M  V30 5949 H 512.05 -5.97789 1.03601 0
M  V30 5950 H 510.789 -4.8561 0.450975 0
M  V30 5951 H 509.794 -4.75865 2.75378 0
M  V30 5952 H 511.019 -5.91483 3.33654 0
M  V30 5953 H 508.965 -6.45681 1.15895 0
M  V30 5954 H 508.882 -7.02462 2.79434 0
M  V30 5955 H 510.15 -7.59572 1.75129 0
M  V30 5956 N 514.379 -1.04941 -1.1758 0
M  V30 5957 C 515.327 -0.64204 -2.23563 0
M  V30 5958 C 516.321 0.335453 -1.66045 0
M  V30 5959 O 517.527 0.20179 -1.78865 0
M  V30 5960 H 513.902 -0.18944 -0.727748 0
M  V30 5961 H 515.873 -1.54609 -2.55223 0
M  V30 5962 C 514.622 -0.0301051 -3.47687 0
M  V30 5963 H 513.945 -0.773339 -3.92249 0
M  V30 5964 H 515.385 0.217592 -4.23441 0
M  V30 5965 C 513.844 1.2225 -3.13937 0
M  V30 5966 O 514.374 2.3122 -3.28482 0
M  V30 5967 N 512.58 1.11917 -2.68185 0
M  V30 5968 H 512.127 0.232403 -2.5655 0
M  V30 5969 H 512.085 1.95814 -2.45976 0
M  V30 5970 N 515.857 1.33968 -0.830081 0
M  V30 5971 C 516.805 2.31301 -0.245435 0
M  V30 5972 C 517.799 1.57734 0.617762 0
M  V30 5973 O 519.005 1.72674 0.508303 0
M  V30 5974 H 515.38 0.749552 -0.0606316 0
M  V30 5975 H 517.351 2.78129 -1.08105 0
M  V30 5976 C 516.1 3.42961 0.572084 0
M  V30 5977 H 515.423 3.99714 -0.0828118 0
M  V30 5978 H 516.863 4.13286 0.94715 0
M  V30 5979 C 515.322 2.88043 1.74737 0
M  V30 5980 O 515.852 2.83508 2.8458 0
M  V30 5981 N 514.058 2.44768 1.56642 0
M  V30 5982 H 513.605 2.48656 0.672901 0
M  V30 5983 H 513.563 2.08375 2.3543 0
M  V30 5984 N 517.335 0.585699 1.46312 0
M  V30 5985 C 518.582 0.0724211 2.0237 0
M  V30 5986 C 518.91 -1.28868 1.45683 0
M  V30 5987 O 518.165 -1.85853 0.612945 0
M  V30 5988 C 518.464 -0.0401312 3.57377 0
M  V30 5989 C 518.13 1.25376 4.33119 0
M  V30 5990 C 516.792 1.60824 4.5353 0
M  V30 5991 C 519.144 2.10987 4.76586 0
M  V30 5992 C 516.472 2.81676 5.14661 0
M  V30 5993 C 518.824 3.31068 5.39052 0
M  V30 5994 C 517.488 3.66794 5.5769 0
M  V30 5995 H 516.758 0.0265007 0.740526 0
M  V30 5996 H 519.405 0.762935 1.75646 0
M  V30 5997 H 517.71 -0.813791 3.83255 0
M  V30 5998 H 519.407 -0.453078 3.98432 0
M  V30 5999 H 515.997 0.967808 4.1753 0
M  V30 6000 H 520.181 1.84904 4.60569 0
M  V30 6001 H 515.437 3.0949 5.27282 0
M  V30 6002 H 519.611 3.97672 5.71691 0
M  V30 6003 H 517.238 4.60529 6.04828 0
M  V30 6004 N 518.813 -1.54241 0.323641 0
M  V30 6005 C 520.09 -1.92741 -0.333181 0
M  V30 6006 C 520.47 -1.25326 -1.69872 0
M  V30 6007 O 519.818 -0.396991 -2.25025 0
M  V30 6008 C 520.028 -3.46399 -0.425322 0
M  V30 6009 C 521.376 -4.19029 -0.68557 0
M  V30 6010 O 522.4 -3.52555 -0.50824 0
M  V30 6011 O 521.259 -5.36751 -1.02767 0
M  V30 6012 H 518.353 -0.804811 -0.190286 0
M  V30 6013 H 520.899 -1.65542 0.373361 0
M  V30 6014 H 519.671 -3.87643 0.533737 0
M  V30 6015 H 519.294 -3.79704 -1.17944 0
M  V30 6016 N 520.291 -0.0518155 -1.57515 0
M  V30 6017 C 521.538 0.621823 -1.92716 0
M  V30 6018 C 521.866 1.70813 -0.930229 0
M  V30 6019 O 521.121 1.95616 0.0573708 0
M  V30 6020 C 521.42 1.25607 -3.34601 0
M  V30 6021 C 521.086 0.297901 -4.49915 0
M  V30 6022 C 519.748 0.034243 -4.81188 0
M  V30 6023 C 522.1 -0.358738 -5.19964 0
M  V30 6024 C 519.428 -0.893479 -5.79857 0
M  V30 6025 C 521.78 -1.27466 -6.19625 0
M  V30 6026 C 520.444 -1.54698 -6.49326 0
M  V30 6027 H 519.714 0.227541 -0.705199 0
M  V30 6028 H 522.361 -0.118432 -1.91133 0
M  V30 6029 H 520.666 2.07161 -3.32553 0
M  V30 6030 H 522.363 1.78424 -3.59118 0
M  V30 6031 H 518.953 0.513581 -4.25512 0
M  V30 6032 H 523.137 -0.168133 -4.96015 0
M  V30 6033 H 518.393 -1.11193 -6.01204 0
M  V30 6034 H 522.567 -1.78953 -6.73015 0
M  V30 6035 H 520.194 -2.26748 -7.25596 0
M  V30 6036 N 521.769 1.56035 0.221574 0
M  V30 6037 C 522.699 1.95434 1.2778 0
M  V30 6038 C 523.68 0.822564 1.48889 0
M  V30 6039 O 524.865 1.08486 1.61072 0
M  V30 6040 C 521.995 2.27102 2.62759 0
M  V30 6041 C 520.949 3.4277 2.56306 0
M  V30 6042 C 520.275 3.60043 3.95314 0
M  V30 6043 C 521.575 4.77742 2.11093 0
M  V30 6044 H 523.269 2.83912 0.950504 0
M  V30 6045 H 520.815 1.36596 0.455791 0
M  V30 6046 H 522.768 2.53256 3.36807 0
M  V30 6047 H 521.492 1.35478 2.97176 0
M  V30 6048 H 520.151 3.16664 1.84715 0
M  V30 6049 H 519.799 2.65794 4.27039 0
M  V30 6050 H 519.499 4.37841 3.91879 0
M  V30 6051 H 521.023 3.88545 4.71025 0
M  V30 6052 H 522.437 5.03102 2.74885 0
M  V30 6053 H 520.834 5.58823 2.18716 0
M  V30 6054 H 521.904 4.731 1.06321 0
M  V30 6055 N 523.247 -0.488276 1.49845 0
M  V30 6056 C 524.493 -1.24341 1.6021 0
M  V30 6057 C 524.826 -1.91967 0.293651 0
M  V30 6058 O 524.101 -1.81323 -0.703718 0
M  V30 6059 C 524.384 -2.3005 2.77036 0
M  V30 6060 C 524.237 -1.66842 4.17713 0
M  V30 6061 C 525.556 -3.31509 2.89464 0
M  V30 6062 H 522.675 -0.450704 0.583125 0
M  V30 6063 H 525.317 -0.539673 1.82174 0
M  V30 6064 H 523.467 -2.90071 2.58439 0
M  V30 6065 H 525.139 -1.1055 4.47858 0
M  V30 6066 H 523.382 -0.972079 4.22768 0
M  V30 6067 H 524.053 -2.43576 4.95353 0
M  V30 6068 H 526.529 -2.81493 3.06433 0
M  V30 6069 H 525.405 -4.02822 3.72861 0
M  V30 6070 H 525.666 -3.94603 1.99351 0
M  V30 6071 N 524.725 -1.39134 -0.740242 0
M  V30 6072 C 526.141 -1.20623 -1.0451 0
M  V30 6073 C 526.341 -0.0641651 -2.01398 0
M  V30 6074 O 525.397 0.585843 -2.4561 0
M  V30 6075 C 526.71 -2.53815 -1.6124 0
M  V30 6076 C 528.258 -2.60615 -1.73346 0
M  V30 6077 C 528.733 -3.94015 -2.33486 0
M  V30 6078 N 530.224 -3.95627 -2.40902 0
M  V30 6079 C 530.959 -4.95616 -2.88361 0
M  V30 6080 N 530.455 -6.06003 -3.35756 0
M  V30 6081 N 532.248 -4.82998 -2.87523 0
M  V30 6082 H 524.399 -2.12176 -0.0975576 0
M  V30 6083 H 526.662 -0.942066 -0.105904 0
M  V30 6084 H 526.368 -3.37911 -0.975144 0
M  V30 6085 H 526.242 -2.73162 -2.6012 0
M  V30 6086 H 528.629 -1.76906 -2.36195 0
M  V30 6087 H 528.71 -2.45123 -0.731336 0
M  V30 6088 H 528.354 -4.78153 -1.71267 0
M  V30 6089 H 528.284 -4.06825 -3.34366 0
M  V30 6090 H 530.775 -3.15903 -2.07398 0
M  V30 6091 H 531.088 -6.78215 -3.70464 0
M  V30 6092 H 529.433 -6.09604 -3.33778 0
M  V30 6093 H 532.624 -3.95866 -2.49816 0
M  V30 6094 H 532.797 -5.61072 -3.24196 0
M  V30 6095 N 526.204 0.969867 -1.24223 0
M  V30 6096 C 527.429 1.75289 -1.10853 0
M  V30 6097 C 527.854 1.85091 0.335079 0
M  V30 6098 O 527.212 1.32024 1.24255 0
M  V30 6099 C 527.26 3.15255 -1.75062 0
M  V30 6100 O 526.364 3.99589 -1.01992 0
M  V30 6101 H 525.705 0.538904 -0.387915 0
M  V30 6102 H 528.235 1.21675 -1.64488 0
M  V30 6103 H 528.245 3.65787 -1.80731 0
M  V30 6104 H 526.92 3.07436 -2.801 0
M  V30 6105 H 525.497 3.58077 -1.04094 0
M  V30 6106 N 527.682 1.05563 1.17022 0
M  V30 6107 C 528.931 0.763036 1.8671 0
M  V30 6108 C 529.244 -0.712857 1.82147 0
M  V30 6109 O 530.45 -1.11955 2.47343 0
M  V30 6110 C 528.906 1.31474 3.35026 0
M  V30 6111 C 528.514 2.82034 3.48081 0
M  V30 6112 C 530.258 1.09935 4.10018 0
M  V30 6113 C 528.165 3.30486 4.90442 0
M  V30 6114 H 527.095 0.281747 0.699382 0
M  V30 6115 H 529.746 1.2734 1.32124 0
M  V30 6116 H 528.128 0.732171 3.89173 0
M  V30 6117 H 529.302 3.46178 3.04133 0
M  V30 6118 H 527.617 3.02156 2.86515 0
M  V30 6119 H 530.214 1.43632 5.15048 0
M  V30 6120 H 530.557 0.0373072 4.16283 0
M  V30 6121 H 531.09 1.64732 3.62089 0
M  V30 6122 H 527.829 4.36137 4.89352 0
M  V30 6123 H 527.349 2.71086 5.35044 0
M  V30 6124 H 529.028 3.25382 5.59227 0
M  V30 6125 N 529.16 -1.33526 0.837174 0
M  V30 6126 C 530.409 -1.97098 0.428387 0
M  V30 6127 C 530.722 -1.67062 -1.01734 0
M  V30 6128 O 531.928 -2.24235 -1.53072 0
M  V30 6129 C 530.384 -3.52725 0.715075 0
M  V30 6130 C 529.992 -3.9164 2.17537 0
M  V30 6131 C 531.736 -4.22857 0.373154 0
M  V30 6132 C 529.643 -5.40237 2.40619 0
M  V30 6133 H 528.573 -0.737589 0.156455 0
M  V30 6134 H 531.224 -1.52169 1.02552 0
M  V30 6135 H 529.606 -3.95971 0.0475904 0
M  V30 6136 H 530.78 -3.59456 2.88319 0
M  V30 6137 H 529.095 -3.34485 2.4801 0
M  V30 6138 H 531.692 -5.32133 0.523264 0
M  V30 6139 H 532.035 -4.10647 -0.683708 0
M  V30 6140 H 532.568 -3.85135 0.995801 0
M  V30 6141 H 529.307 -5.57449 3.44864 0
M  V30 6142 H 528.827 -5.73887 1.74396 0
M  V30 6143 H 530.506 -6.07102 2.23688 0
M  V30 6144 N 530.638 -0.59345 -1.46 0
M  V30 6145 C 531.885 -0.0831523 -2.02329 0
M  V30 6146 C 532.213 1.28093 -1.46364 0
M  V30 6147 O 531.468 1.85526 -0.622793 0
M  V30 6148 C 531.767 0.021178 -3.57394 0
M  V30 6149 C 531.433 -1.27671 -4.32448 0
M  V30 6150 C 530.095 -1.63227 -4.5267 0
M  V30 6151 C 532.447 -2.13511 -4.7546 0
M  V30 6152 C 529.775 -2.84401 -5.1316 0
M  V30 6153 C 532.127 -3.33922 -5.37289 0
M  V30 6154 C 530.791 -3.69747 -5.55737 0
M  V30 6155 H 530.061 -0.0304276 -0.740375 0
M  V30 6156 H 532.708 -0.772239 -1.75239 0
M  V30 6157 H 531.013 0.793454 -3.83682 0
M  V30 6158 H 532.71 0.431942 -3.98667 0
M  V30 6159 H 529.3 -0.989937 -4.17011 0
M  V30 6160 H 533.484 -1.87344 -4.59582 0
M  V30 6161 H 528.74 -3.12282 -5.25633 0
M  V30 6162 H 532.914 -4.00698 -5.69574 0
M  V30 6163 H 530.541 -4.6373 -6.02377 0
M  V30 6164 N 532.116 1.54067 -0.331816 0
M  V30 6165 C 533.527 1.86059 0.15454 0
M  V30 6166 C 533.878 1.25331 1.50952 0
M  V30 6167 O 533.003 0.562441 2.08963 0
M  V30 6168 C 533.598 3.37581 0.287192 0
M  V30 6169 C 532.157 3.69493 0.717773 0
M  V30 6170 C 531.304 2.76863 -0.155569 0
M  V30 6171 H 534.255 1.48797 -0.55182 0
M  V30 6172 H 534.276 3.63744 1.11671 0
M  V30 6173 H 533.788 3.81751 -0.699131 0
M  V30 6174 H 531.889 3.3086 1.71354 0
M  V30 6175 H 532.002 4.76315 0.5158 0
M  V30 6176 H 530.366 2.51995 0.370213 0
M  V30 6177 H 531.149 3.23861 -1.13881 0
M  V30 6178 N 533.594 0.0601682 1.57485 0
M  V30 6179 C 534.524 -0.90889 2.15085 0
M  V30 6180 C 535.505 -1.31838 1.07484 0
M  V30 6181 O 536.69 -1.3915 1.35466 0
M  V30 6182 C 533.82 -2.18059 2.7031 0
M  V30 6183 C 532.774 -1.91088 3.82974 0
M  V30 6184 C 532.1 -3.24789 4.24754 0
M  V30 6185 C 533.4 -1.22535 5.07723 0
M  V30 6186 H 535.094 -0.429093 2.96309 0
M  V30 6187 H 532.64 -0.204952 1.42534 0
M  V30 6188 H 534.593 -2.86258 3.09248 0
M  V30 6189 H 533.317 -2.6826 1.8629 0
M  V30 6190 H 531.976 -1.25297 3.44523 0
M  V30 6191 H 531.624 -3.72809 3.37672 0
M  V30 6192 H 531.324 -3.07538 5.00694 0
M  V30 6193 H 532.848 -3.94205 4.66299 0
M  V30 6194 H 534.262 -1.80783 5.4405 0
M  V30 6195 H 532.659 -1.1558 5.88864 0
M  V30 6196 H 533.729 -0.202692 4.84476 0
M  V30 6197 N 535.072 -1.5615 -0.213296 0
M  V30 6198 C 536.002 -1.96109 -1.26742 0
M  V30 6199 C 536.983 -0.830448 -1.48451 0
M  V30 6200 O 538.168 -1.09339 -1.60495 0
M  V30 6201 C 535.298 -2.28492 -2.61551 0
M  V30 6202 C 534.252 -3.44124 -2.54485 0
M  V30 6203 C 533.578 -3.62134 -3.93399 0
M  V30 6204 C 534.878 -4.78855 -2.08556 0
M  V30 6205 H 536.572 -2.84412 -0.935434 0
M  V30 6206 H 534.118 -1.36836 -0.44854 0
M  V30 6207 H 536.071 -2.55039 -3.3546 0
M  V30 6208 H 534.795 -1.37052 -2.96453 0
M  V30 6209 H 533.454 -3.17639 -1.83033 0
M  V30 6210 H 533.102 -2.68055 -4.25623 0
M  V30 6211 H 532.802 -4.39913 -3.89551 0
M  V30 6212 H 534.326 -3.91038 -4.68958 0
M  V30 6213 H 535.74 -5.04552 -2.72213 0
M  V30 6214 H 534.137 -5.59975 -2.1575 0
M  V30 6215 H 535.207 -4.73657 -1.03811 0
M  V30 6216 N 536.55 0.480323 -1.50102 0
M  V30 6217 C 537.79 1.24301 -1.62261 0
M  V30 6218 C 538.154 1.89452 -0.311758 0
M  V30 6219 O 539.355 2.67022 -0.308696 0
M  V30 6220 C 537.626 2.26588 -2.76392 0
M  V30 6221 S 539.185 3.11919 -3.08629 0
M  V30 6222 H 536.003 0.42215 -0.57211 0
M  V30 6223 H 538.605 0.541591 -1.87848 0
M  V30 6224 H 537.309 1.7729 -3.70131 0
M  V30 6225 H 536.84 3.01371 -2.52862 0
M  V30 6226 H 538.855 4.27598 -2.51742 0
M  V30 6227 N 538.028 1.39524 0.732853 0
M  V30 6228 C 539.258 1.3994 1.51988 0
M  V30 6229 C 539.666 -0.00727973 1.89199 0
M  V30 6230 O 539.009 -0.989521 1.54771 0
M  V30 6231 C 539.071 2.21026 2.83527 0
M  V30 6232 C 538.735 3.69633 2.68738 0
M  V30 6233 C 539.732 4.62665 2.37143 0
M  V30 6234 C 537.417 4.13244 2.85542 0
M  V30 6235 C 539.411 5.97291 2.22536 0
M  V30 6236 C 537.098 5.47945 2.70554 0
M  V30 6237 C 538.096 6.39783 2.39097 0
M  V30 6238 O 537.784 7.72002 2.24204 0
M  V30 6239 H 537.516 0.479795 0.476206 0
M  V30 6240 H 540.07 1.8399 0.913054 0
M  V30 6241 H 538.3 1.71728 3.46477 0
M  V30 6242 H 539.989 2.13594 3.45156 0
M  V30 6243 H 540.755 4.30272 2.2381 0
M  V30 6244 H 536.634 3.42094 3.09019 0
M  V30 6245 H 540.178 6.68939 1.97905 0
M  V30 6246 H 536.075 5.79928 2.83466 0
M  V30 6247 H 536.843 7.8275 2.39258 0
M  V30 6248 N 539.506 -0.963266 1.24736 0
M  V30 6249 C 540.454 -2.07985 1.04139 0
M  V30 6250 C 541.448 -1.69381 -0.0250556 0
M  V30 6251 O 542.654 -1.79531 0.129863 0
M  V30 6252 H 539.029 -0.680627 0.319768 0
M  V30 6253 H 541 -2.22517 1.98818 0
M  V30 6254 C 539.749 -3.4123 0.667615 0
M  V30 6255 H 539.072 -3.71397 1.48 0
M  V30 6256 H 540.512 -4.20244 0.563136 0
M  V30 6257 C 538.971 -3.3104 -0.625647 0
M  V30 6258 O 539.501 -3.65334 -1.67016 0
M  V30 6259 N 537.707 -2.84168 -0.608033 0
M  V30 6260 H 537.254 -2.56458 0.242323 0
M  V30 6261 H 537.212 -2.77732 -1.47352 0
M  V30 6262 N 540.985 -1.06182 -1.16461 0
M  V30 6263 C 541.933 -0.665716 -2.2287 0
M  V30 6264 C 542.927 0.317822 -1.66392 0
M  V30 6265 O 544.133 0.182807 -1.79069 0
M  V30 6266 H 540.508 -0.197148 -0.725697 0
M  V30 6267 H 542.479 -1.57307 -2.53569 0
M  V30 6268 C 541.228 -0.0669803 -3.47635 0
M  V30 6269 H 540.551 -0.814899 -3.91407 0
M  V30 6270 H 541.991 0.172669 -4.23648 0
M  V30 6271 C 540.45 1.18913 -3.15216 0
M  V30 6272 O 540.98 2.27723 -3.30916 0
M  V30 6273 N 539.186 1.09066 -2.69357 0
M  V30 6274 H 538.733 0.20518 -2.56782 0
M  V30 6275 H 538.691 1.93195 -2.48039 0
M  V30 6276 N 542.463 1.3308 -0.844243 0
M  V30 6277 C 543.373 2.32876 -0.283922 0
M  V30 6278 C 544.389 1.63589 0.592846 0
M  V30 6279 O 545.565 1.95205 0.495693 0
M  V30 6280 C 542.63 3.42667 0.527283 0
M  V30 6281 C 541.691 4.27664 -0.374394 0
M  V30 6282 C 540.924 5.32212 0.39819 0
M  V30 6283 O 541.147 5.46635 1.62932 0
M  V30 6284 O 540.081 6.01458 -0.2306 0
M  V30 6285 H 543.907 2.82671 -1.11045 0
M  V30 6286 H 541.492 1.36518 -0.606903 0
M  V30 6287 H 543.374 4.09652 0.988078 0
M  V30 6288 H 542.049 2.95079 1.33078 0
M  V30 6289 H 540.956 3.63526 -0.883144 0
M  V30 6290 H 542.289 4.78749 -1.1428 0
M  V30 6291 N 543.941 0.601185 1.45683 0
M  V30 6292 C 545.218 0.0261659 1.95582 0
M  V30 6293 C 545.598 -1.4399 1.5437 0
M  V30 6294 O 544.946 -2.13919 0.80318 0
M  V30 6295 C 545.156 0.217557 3.48321 0
M  V30 6296 C 546.504 0.0950076 4.24494 0
M  V30 6297 O 547.528 0.147345 3.55895 0
M  V30 6298 O 546.387 -0.025261 5.46494 0
M  V30 6299 H 543.481 -0.0393688 0.826062 0
M  V30 6300 H 546.027 0.670798 1.55879 0
M  V30 6301 H 544.799 1.23601 3.71266 0
M  V30 6302 H 544.422 -0.46264 3.94899 0
M  V30 6303 N 545.419 -1.53889 0.339982 0
M  V30 6304 C 546.668 -2.00035 -0.258604 0
M  V30 6305 C 546.981 -1.23179 -1.51942 0
M  V30 6306 O 548.187 -1.59784 -2.19503 0
M  V30 6307 C 546.643 -3.56249 -0.511359 0
M  V30 6308 C 546.251 -4.41957 0.733349 0
M  V30 6309 C 547.995 -4.1082 -1.069 0
M  V30 6310 C 545.902 -5.89673 0.451591 0
M  V30 6311 H 544.832 -0.747284 -0.10041 0
M  V30 6312 H 547.483 -1.77776 0.454758 0
M  V30 6313 H 545.865 -3.7456 -1.28533 0
M  V30 6314 H 547.039 -4.35421 1.50815 0
M  V30 6315 H 545.354 -3.9836 1.21237 0
M  V30 6316 H 547.951 -5.18789 -1.2947 0
M  V30 6317 H 548.294 -3.63817 -2.02343 0
M  V30 6318 H 548.827 -3.96205 -0.355817 0
M  V30 6319 H 545.566 -6.40903 1.37565 0
M  V30 6320 H 545.086 -5.99122 -0.285193 0
M  V30 6321 H 546.765 -6.46965 0.0675067 0
M  V30 6322 N 546.897 -0.0685191 -1.57451 0
M  V30 6323 C 547.807 0.914677 -2.16034 0
M  V30 6324 C 548.823 1.32938 -1.12265 0
M  V30 6325 O 549.999 1.40275 -1.44516 0
M  V30 6326 C 547.064 2.16519 -2.70777 0
M  V30 6327 C 546.125 1.80721 -3.89408 0
M  V30 6328 C 545.358 2.9981 -4.41531 0
M  V30 6329 O 545.581 4.13727 -3.92666 0
M  V30 6330 O 544.515 2.79817 -5.32903 0
M  V30 6331 H 548.341 0.446364 -3.00402 0
M  V30 6332 H 545.926 0.154367 -1.486 0
M  V30 6333 H 547.808 2.89856 -3.05878 0
M  V30 6334 H 546.483 2.62454 -1.89471 0
M  V30 6335 H 545.39 1.04646 -3.59166 0
M  V30 6336 H 546.723 1.39571 -4.71997 0
M  V30 6337 N 548.375 1.56261 0.205012 0
M  V30 6338 C 549.322 1.93754 1.25411 0
M  V30 6339 C 550.292 0.796826 1.45739 0
M  V30 6340 O 551.477 1.05414 1.59036 0
M  V30 6341 C 548.617 2.27383 2.59598 0
M  V30 6342 C 547.73 3.5447 2.46931 0
M  V30 6343 C 546.865 3.77468 3.73753 0
M  V30 6344 C 545.904 4.98014 3.55877 0
M  V30 6345 N 545.041 5.17316 4.74688 0
M  V30 6346 H 549.881 2.83203 0.92737 0
M  V30 6347 H 547.418 1.40158 0.446574 0
M  V30 6348 H 549.376 2.44895 3.37761 0
M  V30 6349 H 548.006 1.41088 2.90335 0
M  V30 6350 H 547.058 3.45061 1.60116 0
M  V30 6351 H 548.37 4.42789 2.29651 0
M  V30 6352 H 547.524 3.95165 4.60358 0
M  V30 6353 H 546.263 2.87461 3.93976 0
M  V30 6354 H 545.268 4.80249 2.67657 0
M  V30 6355 H 546.493 5.8952 3.37109 0
M  V30 6356 H 544.439 4.30255 4.95194 0
M  V30 6357 H 544.356 5.99796 4.60197 0
M  V30 6358 H 545.624 5.39463 5.62672 0
M  V30 6359 N 549.853 -0.472356 1.50355 0
M  V30 6360 C 550.783 -1.57859 1.72055 0
M  V30 6361 C 551.764 -1.60283 0.569505 0
M  V30 6362 O 552.949 -1.7657 0.808503 0
M  V30 6363 C 550.079 -2.96191 1.81351 0
M  V30 6364 C 549.033 -3.08633 2.96529 0
M  V30 6365 C 548.359 -4.486 2.90968 0
M  V30 6366 C 549.659 -2.85969 4.37057 0
M  V30 6367 H 551.353 -1.39953 2.64676 0
M  V30 6368 H 548.899 -0.671846 1.27367 0
M  V30 6369 H 550.852 -3.73507 1.95117 0
M  V30 6370 H 549.576 -3.15251 0.853502 0
M  V30 6371 H 548.235 -2.33749 2.82413 0
M  V30 6372 H 547.883 -4.64577 1.92815 0
M  V30 6373 H 547.583 -4.57861 3.68289 0
M  V30 6374 H 549.107 -5.27938 3.0678 0
M  V30 6375 H 550.521 -3.53036 4.51706 0
M  V30 6376 H 548.918 -3.06677 5.15819 0
M  V30 6377 H 549.988 -1.81838 4.49514 0
M  V30 6378 N 551.331 -1.39911 -0.725443 0
M  V30 6379 C 552.261 -1.42138 -1.85254 0
M  V30 6380 C 553.242 -0.283513 -1.67721 0
M  V30 6381 O 554.427 -0.490717 -1.87898 0
M  V30 6382 C 551.557 -1.27354 -3.23107 0
M  V30 6383 C 550.511 -2.3864 -3.55296 0
M  V30 6384 C 549.837 -2.08939 -4.92188 0
M  V30 6385 C 551.137 -3.8097 -3.57295 0
M  V30 6386 H 552.831 -2.36461 -1.83648 0
M  V30 6387 H 550.377 -1.13817 -0.882138 0
M  V30 6388 H 552.33 -1.2753 -4.01639 0
M  V30 6389 H 551.054 -0.295025 -3.25265 0
M  V30 6390 H 549.713 -2.37696 -2.79099 0
M  V30 6391 H 549.361 -1.09502 -4.90936 0
M  V30 6392 H 549.061 -2.83491 -5.14691 0
M  V30 6393 H 550.585 -2.10781 -5.73065 0
M  V30 6394 H 551.999 -3.8379 -4.25885 0
M  V30 6395 H 550.396 -4.5496 -3.9132 0
M  V30 6396 H 551.466 -4.11261 -2.5689 0
M  V30 6397 N 552.809 0.956637 -1.25245 0
M  V30 6398 C 554.039 1.7332 -1.12445 0
M  V30 6399 C 554.447 1.86392 0.324732 0
M  V30 6400 O 553.79 1.35967 1.23526 0
M  V30 6401 C 553.852 3.16603 -1.70303 0
M  V30 6402 C 553.516 3.26966 -3.19284 0
M  V30 6403 C 554.513 3.11434 -4.16299 0
M  V30 6404 C 552.198 3.50851 -3.59456 0
M  V30 6405 C 554.192 3.1963 -5.51467 0
M  V30 6406 C 551.879 3.58684 -4.94761 0
M  V30 6407 C 552.877 3.43087 -5.90576 0
M  V30 6408 O 552.565 3.50598 -7.2342 0
M  V30 6409 H 552.297 0.549981 -0.393061 0
M  V30 6410 H 554.851 1.20892 -1.66055 0
M  V30 6411 H 553.081 3.70385 -1.11138 0
M  V30 6412 H 554.77 3.76109 -1.52632 0
M  V30 6413 H 555.536 2.92853 -3.86604 0
M  V30 6414 H 551.415 3.62053 -2.85375 0
M  V30 6415 H 554.959 3.07373 -6.26233 0
M  V30 6416 H 550.856 3.76782 -5.24124 0
M  V30 6417 H 551.624 3.67242 -7.31489 0
M  V30 6418 N 554.287 1.06798 1.15896 0
M  V30 6419 C 555.564 0.701057 1.82605 0
M  V30 6420 C 555.944 -0.817066 1.94646 0
M  V30 6421 O 555.292 -1.72933 1.49353 0
M  V30 6422 C 555.502 1.40895 3.19296 0
M  V30 6423 C 556.85 1.55744 3.95005 0
M  V30 6424 O 557.874 1.36927 3.28831 0
M  V30 6425 O 556.733 1.86658 5.13635 0
M  V30 6426 H 553.827 0.248791 0.78869 0
M  V30 6427 H 556.373 1.16857 1.23055 0
M  V30 6428 H 555.145 2.4439 3.05596 0
M  V30 6429 H 554.768 0.931847 3.86526 0
M  V30 6430 N 555.766 -1.3263 0.851289 0
M  V30 6431 C 556.676 -2.32722 0.296268 0
M  V30 6432 C 557.692 -1.63901 -0.584162 0
M  V30 6433 O 558.868 -1.95465 -0.485334 0
M  V30 6434 C 555.933 -3.42942 -0.509103 0
M  V30 6435 C 554.994 -4.2746 0.397069 0
M  V30 6436 C 554.227 -5.32416 -0.36996 0
M  V30 6437 O 554.45 -5.47491 -1.6003 0
M  V30 6438 O 553.384 -6.01327 0.262493 0
M  V30 6439 H 557.21 -2.82078 1.12543 0
M  V30 6440 H 554.795 -1.36194 0.614135 0
M  V30 6441 H 556.677 -4.1017 -0.96634 0
M  V30 6442 H 555.352 -2.95781 -1.31512 0
M  V30 6443 H 554.259 -3.63053 0.902411 0
M  V30 6444 H 555.592 -4.78136 1.16818 0
M  V30 6445 N 557.244 -0.608902 -1.45362 0
M  V30 6446 C 558.474 -0.110852 -2.06302 0
M  V30 6447 C 558.882 1.21062 -1.45398 0
M  V30 6448 O 558.225 1.74861 -0.562976 0
M  V30 6449 C 558.287 0.101793 -3.59356 0
M  V30 6450 C 557.951 -1.13808 -4.42602 0
M  V30 6451 C 558.948 -2.05653 -4.77496 0
M  V30 6452 C 556.633 -1.36727 -4.83333 0
M  V30 6453 C 558.627 -3.18745 -5.51978 0
M  V30 6454 C 556.314 -2.5012 -5.57569 0
M  V30 6455 C 557.312 -3.40957 -5.91809 0
M  V30 6456 O 557 -4.52376 -6.64538 0
M  V30 6457 H 556.732 -0.0666001 -0.672711 0
M  V30 6458 H 559.286 -0.836942 -1.87575 0
M  V30 6459 H 557.516 0.88279 -3.76489 0
M  V30 6460 H 559.205 0.551607 -4.02134 0
M  V30 6461 H 559.971 -1.89172 -4.46586 0
M  V30 6462 H 555.85 -0.669216 -4.56117 0
M  V30 6463 H 559.394 -3.8967 -5.78622 0
M  V30 6464 H 555.291 -2.66553 -5.87894 0
M  V30 6465 H 556.059 -4.51075 -6.82989 0
M  V30 6466 N 558.722 1.53707 -0.348139 0
M  V30 6467 C 559.999 1.93247 0.302475 0
M  V30 6468 C 560.379 1.28012 1.67857 0
M  V30 6469 O 559.727 0.43274 2.24365 0
M  V30 6470 C 559.937 3.47031 0.370159 0
M  V30 6471 C 561.285 4.20066 0.61882 0
M  V30 6472 O 562.309 3.53319 0.452087 0
M  V30 6473 O 561.168 5.38318 0.94215 0
M  V30 6474 H 558.262 0.807736 0.177458 0
M  V30 6475 H 560.808 1.64927 -0.399651 0
M  V30 6476 H 559.58 3.86745 -0.59534 0
M  V30 6477 H 559.203 3.81532 1.11888 0
M  V30 6478 N 560.2 0.0768682 1.57412 0
M  V30 6479 C 561.43 -0.5991 1.97723 0
M  V30 6480 C 561.838 -1.63378 0.954166 0
M  V30 6481 O 561.181 -1.83578 -0.0668706 0
M  V30 6482 C 561.243 -1.32078 3.34358 0
M  V30 6483 C 560.907 -0.438985 4.54887 0
M  V30 6484 C 561.904 0.305492 5.19002 0
M  V30 6485 C 559.589 -0.362378 5.00991 0
M  V30 6486 C 561.583 1.11475 6.27576 0
M  V30 6487 C 559.27 0.450543 6.09437 0
M  V30 6488 C 560.268 1.18777 6.72593 0
M  V30 6489 O 559.956 1.98727 7.7895 0
M  V30 6490 H 559.688 -0.166725 0.655117 0
M  V30 6491 H 562.242 0.147337 2.04871 0
M  V30 6492 H 560.472 -2.1134 3.2384 0
M  V30 6493 H 562.161 -1.88949 3.5924 0
M  V30 6494 H 562.927 0.25593 4.84324 0
M  V30 6495 H 558.806 -0.925832 4.51608 0
M  V30 6496 H 562.35 1.69068 6.76803 0
M  V30 6497 H 558.247 0.501651 6.43548 0
M  V30 6498 H 559.015 1.91214 7.95851 0
M  V30 6499 N 561.678 -1.56367 -0.196722 0
M  V30 6500 C 562.906 -1.84639 -0.933608 0
M  V30 6501 C 563.321 -0.659164 -1.76919 0
M  V30 6502 O 562.678 0.372142 -1.78665 0
M  V30 6503 C 562.729 -3.11694 -1.83109 0
M  V30 6504 O 562.45 -4.25838 -1.02924 0
M  V30 6505 C 563.951 -3.53132 -2.67979 0
M  V30 6506 H 561.171 -0.613188 -0.272473 0
M  V30 6507 H 563.715 -2.03475 -0.204465 0
M  V30 6508 H 561.87 -2.94759 -2.51387 0
M  V30 6509 H 562.284 -4.98178 -1.64069 0
M  V30 6510 H 563.758 -4.45005 -3.26611 0
M  V30 6511 H 564.235 -2.76045 -3.41608 0
M  V30 6512 H 564.841 -3.72592 -2.05074 0
M  V30 6513 N 563.156 0.464375 -1.50603 0
M  V30 6514 C 564.089 1.58052 -1.64605 0
M  V30 6515 C 565.067 1.54914 -0.494016 0
M  V30 6516 O 566.251 1.74438 -0.714393 0
M  V30 6517 C 563.378 2.96634 -1.63481 0
M  V30 6518 C 562.424 3.17901 -2.84325 0
M  V30 6519 S 563.257 2.97083 -4.45536 0
M  V30 6520 C 564.413 4.37994 -4.47115 0
M  V30 6521 H 564.646 1.45937 -2.59017 0
M  V30 6522 H 562.179 0.652189 -1.39949 0
M  V30 6523 H 564.137 3.76527 -1.63517 0
M  V30 6524 H 562.798 3.06134 -0.702928 0
M  V30 6525 H 561.991 4.19158 -2.79862 0
M  V30 6526 H 561.593 2.45792 -2.81891 0
M  V30 6527 H 563.885 5.30743 -4.21091 0
M  V30 6528 H 564.828 4.47499 -5.48772 0
M  V30 6529 H 565.236 4.20386 -3.76743 0
M  V30 6530 N 564.634 1.40294 0.718013 0
M  V30 6531 C 565.582 1.40536 1.85344 0
M  V30 6532 C 566.576 0.286192 1.66965 0
M  V30 6533 O 567.782 0.457105 1.74099 0
M  V30 6534 H 564.157 0.439236 0.61039 0
M  V30 6535 H 566.128 2.36275 1.82255 0
M  V30 6536 C 564.877 1.28245 3.23185 0
M  V30 6537 H 564.2 2.1364 3.37932 0
M  V30 6538 H 565.64 1.32474 4.02774 0
M  V30 6539 C 564.099 -0.0075503 3.36899 0
M  V30 6540 O 564.629 -0.971391 3.89778 0
M  V30 6541 N 562.835 -0.0762479 2.905 0
M  V30 6542 H 562.382 0.708819 2.47656 0
M  V30 6543 H 562.34 -0.938846 3.00055 0
M  V30 6544 N 566.112 -0.949982 1.2575 0
M  V30 6545 C 567.361 -1.68956 1.10168 0
M  V30 6546 C 567.674 -1.92327 -0.356309 0
M  V30 6547 O 568.88 -2.64026 -0.632657 0
M  V30 6548 C 567.336 -3.04196 1.92336 0
M  V30 6549 C 566.944 -2.88603 3.42655 0
M  V30 6550 C 568.688 -3.81904 1.85336 0
M  V30 6551 C 566.595 -4.19262 4.17101 0
M  V30 6552 H 565.525 -0.633645 0.408668 0
M  V30 6553 H 568.176 -1.05719 1.49986 0
M  V30 6554 H 566.558 -3.68363 1.45344 0
M  V30 6555 H 567.732 -2.3334 3.97353 0
M  V30 6556 H 566.047 -2.24345 3.50796 0
M  V30 6557 H 568.644 -4.78688 2.38248 0
M  V30 6558 H 568.987 -4.08099 0.822226 0
M  V30 6559 H 569.52 -3.24495 2.30104 0
M  V30 6560 H 566.259 -3.98254 5.20648 0
M  V30 6561 H 565.779 -4.74273 3.67186 0
M  V30 6562 H 567.458 -4.87775 4.25071 0
M  V30 6563 N 567.59 -1.07411 -1.15328 0
M  V30 6564 C 568.837 -0.797649 -1.86128 0
M  V30 6565 C 569.165 0.676298 -1.82364 0
M  V30 6566 O 568.42 1.51223 -1.24218 0
M  V30 6567 C 568.719 -1.25191 -3.34757 0
M  V30 6568 C 568.385 -2.73191 -3.58716 0
M  V30 6569 C 567.047 -3.13616 -3.64964 0
M  V30 6570 C 569.399 -3.68718 -3.6837 0
M  V30 6571 C 566.727 -4.48383 -3.78377 0
M  V30 6572 C 569.079 -5.03248 -3.83306 0
M  V30 6573 C 567.743 -5.43293 -3.878 0
M  V30 6574 H 567.013 -0.29188 -0.681092 0
M  V30 6575 H 569.66 -1.34524 -1.36292 0
M  V30 6576 H 567.965 -0.623712 -3.86804 0
M  V30 6577 H 569.662 -1.01489 -3.87945 0
M  V30 6578 H 566.252 -2.40898 -3.54494 0
M  V30 6579 H 570.436 -3.38614 -3.62842 0
M  V30 6580 H 565.692 -4.78877 -3.80114 0
M  V30 6581 H 569.866 -5.77142 -3.89718 0
M  V30 6582 H 567.493 -6.47721 -3.97946 0
M  V30 6583 N 569.068 1.32177 -0.85831 0
M  V30 6584 C 570.016 2.30729 -0.294442 0
M  V30 6585 C 571.01 1.59009 0.584165 0
M  V30 6586 O 572.216 1.73713 0.471562 0
M  V30 6587 H 568.591 0.748097 -0.0765171 0
M  V30 6588 H 570.562 2.75774 -1.1398 0
M  V30 6589 C 569.311 3.44098 0.499208 0
M  V30 6590 H 568.634 3.99449 -0.167579 0
M  V30 6591 H 570.074 4.15202 0.859273 0
M  V30 6592 C 568.533 2.91684 1.68588 0
M  V30 6593 O 569.063 2.89481 2.78503 0
M  V30 6594 N 567.269 2.48036 1.51415 0
M  V30 6595 H 566.816 2.50027 0.620006 0
M  V30 6596 H 566.774 2.13322 2.30957 0
M  V30 6597 N 570.547 0.616602 1.45037 0
M  V30 6598 C 571.775 0.121968 2.0654 0
M  V30 6599 C 572.19 -1.19743 1.45969 0
M  V30 6600 O 571.547 -1.73133 0.577168 0
M  V30 6601 C 571.598 -0.0145171 3.61497 0
M  V30 6602 O 571.319 1.25269 4.19809 0
M  V30 6603 C 572.82 -0.539555 4.40004 0
M  V30 6604 H 570.04 0.0729837 0.667019 0
M  V30 6605 H 572.584 0.846891 1.8614 0
M  V30 6606 H 570.739 -0.689809 3.81209 0
M  V30 6607 H 571.153 1.08816 5.13088 0
M  V30 6608 H 572.627 -0.584112 5.48901 0
M  V30 6609 H 573.104 -1.56368 4.10421 0
M  V30 6610 H 573.71 0.101995 4.25178 0
M  V30 6611 N 572.025 -1.5352 0.356285 0
M  V30 6612 C 573.255 -2.05236 -0.236983 0
M  V30 6613 C 573.663 -1.23016 -1.43749 0
M  V30 6614 O 573.006 -0.2615 -1.81829 0
M  V30 6615 C 573.068 -3.52549 -0.7035 0
M  V30 6616 C 572.732 -4.55425 0.379059 0
M  V30 6617 C 573.729 -5.0524 1.22592 0
M  V30 6618 C 571.414 -4.99425 0.536638 0
M  V30 6619 C 573.408 -5.97647 2.21578 0
M  V30 6620 C 571.095 -5.9164 1.52988 0
M  V30 6621 C 572.093 -6.4064 2.3679 0
M  V30 6622 O 571.781 -7.31039 3.34421 0
M  V30 6623 H 571.513 -0.674346 -0.047254 0
M  V30 6624 H 574.067 -1.98962 0.510238 0
M  V30 6625 H 572.297 -3.56331 -1.50217 0
M  V30 6626 H 573.986 -3.87171 -1.21873 0
M  V30 6627 H 574.752 -4.72002 1.11532 0
M  V30 6628 H 570.631 -4.60879 -0.105834 0
M  V30 6629 H 574.175 -6.35816 2.87025 0
M  V30 6630 H 570.072 -6.24293 1.64099 0
M  V30 6631 H 570.84 -7.49009 3.30041 0
M  V30 6632 N 573.503 -0.0852151 -1.57369 0
M  V30 6633 C 574.749 0.581666 -1.94279 0
M  V30 6634 C 575.082 1.68444 -0.966446 0
M  V30 6635 O 574.357 1.945 0.00215277 0
M  V30 6636 C 574.64 1.14609 -3.41375 0
M  V30 6637 C 574.493 0.0490414 -4.49773 0
M  V30 6638 C 575.812 2.04751 -3.8957 0
M  V30 6639 H 572.931 0.209972 -0.706456 0
M  V30 6640 H 575.573 -0.153915 -1.89376 0
M  V30 6641 H 573.723 1.77297 -3.45685 0
M  V30 6642 H 575.395 -0.584721 -4.57579 0
M  V30 6643 H 573.638 -0.618638 -4.29366 0
M  V30 6644 H 574.309 0.484601 -5.49869 0
M  V30 6645 H 576.785 1.51981 -3.87351 0
M  V30 6646 H 575.661 2.41173 -4.93079 0
M  V30 6647 H 575.922 2.96107 -3.28288 0
M  V30 6648 N 574.981 1.5647 0.188427 0
M  V30 6649 C 576.227 1.81281 0.909124 0
M  V30 6650 C 576.56 0.66034 1.82628 0
M  V30 6651 O 575.835 -0.338737 1.91528 0
M  V30 6652 C 576.118 3.16388 1.7196 0
M  V30 6653 C 575.971 4.42137 0.826714 0
M  V30 6654 C 577.29 3.48256 2.69083 0
M  V30 6655 H 574.409 0.659457 0.329068 0
M  V30 6656 H 577.051 1.89182 0.176156 0
M  V30 6657 H 575.201 3.09784 2.34448 0
M  V30 6658 H 576.873 4.60794 0.216025 0
M  V30 6659 H 575.116 4.33594 0.133792 0
M  V30 6660 H 575.787 5.33184 1.42893 0
M  V30 6661 H 578.263 3.55203 2.16726 0
M  V30 6662 H 577.139 4.43899 3.2287 0
M  V30 6663 H 577.4 2.72088 3.48455 0
M  V30 6664 N 576.459 -0.456382 1.50847 0
M  V30 6665 C 577.369 -1.57805 1.73594 0
M  V30 6666 C 578.385 -1.62599 0.619476 0
M  V30 6667 O 579.561 -1.80195 0.899532 0
M  V30 6668 C 576.626 -2.93926 1.8387 0
M  V30 6669 C 575.687 -2.99402 3.07663 0
M  V30 6670 C 574.92 -4.29031 3.1744 0
M  V30 6671 O 575.143 -5.20358 2.33631 0
M  V30 6672 O 574.077 -4.40401 4.10281 0
M  V30 6673 H 577.903 -1.41531 2.68705 0
M  V30 6674 H 575.488 -0.637422 1.3512 0
M  V30 6675 H 577.37 -3.74747 1.92725 0
M  V30 6676 H 576.045 -3.10368 0.91944 0
M  V30 6677 H 574.952 -2.17606 3.043 0
M  V30 6678 H 576.285 -2.87901 3.99216 0
M  V30 6679 N 577.937 -1.40673 -0.710563 0
M  V30 6680 C 579.214 -1.29718 -1.46398 0
M  V30 6681 C 579.594 0.082177 -2.1094 0
M  V30 6682 O 578.942 1.09536 -2.00534 0
M  V30 6683 C 579.152 -2.43967 -2.49562 0
M  V30 6684 C 580.5 -2.84436 -3.15248 0
M  V30 6685 O 581.524 -2.43597 -2.59883 0
M  V30 6686 O 580.383 -3.55008 -4.1549 0
M  V30 6687 H 577.477 -0.509697 -0.651258 0
M  V30 6688 H 580.023 -1.52603 -0.742312 0
M  V30 6689 H 578.795 -3.36076 -2.0042 0
M  V30 6690 H 578.418 -2.22879 -3.29258 0
M  V30 6691 N 579.415 0.9433 -1.26252 0
M  V30 6692 C 580.362 2.0417 -1.07625 0
M  V30 6693 C 581.332 1.6609 0.0180738 0
M  V30 6694 O 582.517 1.90276 -0.141289 0
M  V30 6695 C 579.657 3.37653 -0.713043 0
M  V30 6696 C 578.77 3.88783 -1.8834 0
M  V30 6697 C 577.905 5.10642 -1.4635 0
M  V30 6698 C 576.944 5.54028 -2.60229 0
M  V30 6699 N 576.081 6.67092 -2.18936 0
M  V30 6700 H 580.921 2.19436 -2.01623 0
M  V30 6701 H 578.458 1.07519 -1.00389 0
M  V30 6702 H 580.416 4.14391 -0.483358 0
M  V30 6703 H 579.046 3.22241 0.18996 0
M  V30 6704 H 578.098 3.08464 -2.22608 0
M  V30 6705 H 579.41 4.16922 -2.73821 0
M  V30 6706 H 578.564 5.94832 -1.19414 0
M  V30 6707 H 577.303 4.84244 -0.579568 0
M  V30 6708 H 576.308 4.68396 -2.87898 0
M  V30 6709 H 577.533 5.82429 -3.49219 0
M  V30 6710 H 575.479 6.42381 -1.32974 0
M  V30 6711 H 575.396 6.94806 -2.97961 0
M  V30 6712 H 576.664 7.54662 -1.95206 0
M  V30 6713 N 580.893 1.08022 1.14757 0
M  V30 6714 C 581.84 0.706657 2.19716 0
M  V30 6715 C 582.81 -0.30525 1.63271 0
M  V30 6716 O 583.995 -0.19015 1.8985 0
M  V30 6717 C 581.135 0.117914 3.44898 0
M  V30 6718 C 580.248 1.18212 4.15512 0
M  V30 6719 C 579.383 0.557659 5.28265 0
M  V30 6720 C 578.422 1.60418 5.90705 0
M  V30 6721 N 577.559 1.0018 6.94916 0
M  V30 6722 H 582.399 1.60603 2.51019 0
M  V30 6723 H 579.936 0.802664 1.23271 0
M  V30 6724 H 581.894 -0.241112 4.16503 0
M  V30 6725 H 580.524 -0.744788 3.1409 0
M  V30 6726 H 579.576 1.65863 3.42335 0
M  V30 6727 H 580.888 1.97533 4.5802 0
M  V30 6728 H 580.042 0.146654 6.06523 0
M  V30 6729 H 578.781 -0.267249 4.86967 0
M  V30 6730 H 577.786 2.02489 5.11154 0
M  V30 6731 H 579.011 2.43149 6.34078 0
M  V30 6732 H 576.957 0.197917 6.55701 0
M  V30 6733 H 576.874 1.73216 7.35889 0
M  V30 6734 H 578.142 0.616523 7.77058 0
M  V30 6735 N 582.371 -1.3172 0.865308 0
M  V30 6736 C 583.617 -1.97168 0.474633 0
M  V30 6737 C 583.95 -1.68263 -0.969604 0
M  V30 6738 O 583.225 -0.976588 -1.68205 0
M  V30 6739 C 583.508 -3.52689 0.726808 0
M  V30 6740 C 583.361 -3.91185 2.22024 0
M  V30 6741 C 584.68 -4.39689 0.190201 0
M  V30 6742 H 581.799 -0.716185 0.17392 0
M  V30 6743 H 584.441 -1.55925 1.08569 0
M  V30 6744 H 582.591 -3.8795 0.206705 0
M  V30 6745 H 584.263 -3.66049 2.80724 0
M  V30 6746 H 582.506 -3.3996 2.69462 0
M  V30 6747 H 583.177 -4.99604 2.34735 0
M  V30 6748 H 585.653 -4.11225 0.635103 0
M  V30 6749 H 584.529 -5.47469 0.396132 0
M  V30 6750 H 584.79 -4.32683 -0.907625 0
M  V30 6751 N 583.85 -0.624285 -1.44708 0
M  V30 6752 C 585.075 -0.131171 -2.06985 0
M  V30 6753 C 585.5 1.18234 -1.46295 0
M  V30 6754 O 584.858 1.72375 -0.561842 0
M  V30 6755 C 584.906 -0.0226724 -3.60593 0
M  V30 6756 O 584.01 1.02314 -3.99507 0
M  V30 6757 H 583.351 -0.0816556 -0.65896 0
M  V30 6758 H 585.88 -0.859027 -1.85693 0
M  V30 6759 H 585.891 0.170138 -4.07645 0
M  V30 6760 H 584.566 -0.981685 -4.04148 0
M  V30 6761 H 583.143 0.805452 -3.64097 0
M  V30 6762 N 585.328 1.53329 -0.364422 0
M  V30 6763 C 586.291 2.24323 0.470292 0
M  V30 6764 C 587.291 1.25068 1.01067 0
M  V30 6765 O 588.481 1.49354 0.896605 0
M  V30 6766 C 585.613 2.97908 1.65722 0
M  V30 6767 H 586.806 2.9952 -0.150917 0
M  V30 6768 H 584.359 1.55868 -0.116092 0
M  V30 6769 H 585.094 2.2695 2.31655 0
M  V30 6770 H 584.879 3.70732 1.27671 0
M  V30 6771 H 586.369 3.5188 2.24878 0
M  V30 6772 N 586.806 0.0935595 1.57322 0
M  V30 6773 C 588.031 -0.582324 1.99057 0
M  V30 6774 C 588.456 -1.61025 0.972242 0
M  V30 6775 O 587.814 -1.81202 -0.0594622 0
M  V30 6776 C 587.862 -1.20799 3.39765 0
M  V30 6777 O 586.966 -2.32382 3.40694 0
M  V30 6778 H 586.307 -0.147884 0.647323 0
M  V30 6779 H 588.837 0.174516 2.03854 0
M  V30 6780 H 588.847 -1.54966 3.77425 0
M  V30 6781 H 587.522 -0.454914 4.13405 0
M  V30 6782 H 586.099 -1.99845 3.14827 0
M  V30 6783 N 588.284 -1.56567 -0.180126 0
M  V30 6784 C 589.509 -1.85975 -0.918041 0
M  V30 6785 C 589.934 -0.678888 -1.75422 0
M  V30 6786 O 589.292 0.372168 -1.77439 0
M  V30 6787 C 589.34 -3.13731 -1.77779 0
M  V30 6788 O 588.444 -2.95335 -2.87838 0
M  V30 6789 H 587.785 -0.61196 -0.257683 0
M  V30 6790 H 590.315 -2.03798 -0.180923 0
M  V30 6791 H 590.325 -3.4491 -2.17948 0
M  V30 6792 H 589 -3.99293 -1.16352 0
M  V30 6793 H 587.577 -2.7549 -2.51316 0
M  V30 6794 N 589.762 0.448376 -1.51087 0
M  V30 6795 C 591.009 1.19872 -1.63209 0
M  V30 6796 C 591.337 1.91451 -0.343062 0
M  V30 6797 O 590.592 1.83789 0.672321 0
M  V30 6798 C 590.891 2.24866 -2.77795 0
M  V30 6799 C 590.557 1.70378 -4.17471 0
M  V30 6800 C 589.219 1.55241 -4.55471 0
M  V30 6801 C 591.571 1.30203 -5.04675 0
M  V30 6802 C 588.899 0.983844 -5.78392 0
M  V30 6803 C 591.251 0.747798 -6.28165 0
M  V30 6804 C 589.915 0.583233 -6.64947 0
M  V30 6805 H 589.185 0.438642 -0.597222 0
M  V30 6806 H 591.832 0.49136 -1.85089 0
M  V30 6807 H 590.137 3.01598 -2.50092 0
M  V30 6808 H 591.834 2.82723 -2.84374 0
M  V30 6809 H 588.424 1.83134 -3.87505 0
M  V30 6810 H 592.608 1.40723 -4.75932 0
M  V30 6811 H 587.864 0.844007 -6.05546 0
M  V30 6812 H 592.038 0.427927 -6.95084 0
M  V30 6813 H 589.665 0.140532 -7.6007 0
M  V30 6814 N 591.24 1.41047 0.703093 0
M  V30 6815 C 592.489 1.39301 1.4587 0
M  V30 6816 C 592.802 0.00267077 1.956 0
M  V30 6817 O 594.008 -0.137414 2.71152 0
M  V30 6818 C 592.464 2.44891 2.63735 0
M  V30 6819 C 592.072 3.89796 2.20824 0
M  V30 6820 C 593.816 2.5227 3.41409 0
M  V30 6821 C 591.723 4.86955 3.35602 0
M  V30 6822 H 590.653 0.518005 0.547893 0
M  V30 6823 H 593.304 1.66839 0.764009 0
M  V30 6824 H 591.686 2.10472 3.35436 0
M  V30 6825 H 592.86 4.33424 1.56461 0
M  V30 6826 H 591.175 3.86008 1.56163 0
M  V30 6827 H 593.772 3.22044 4.26839 0
M  V30 6828 H 594.115 1.55714 3.86081 0
M  V30 6829 H 594.648 2.85742 2.7676 0
M  V30 6830 H 591.387 5.84888 2.9595 0
M  V30 6831 H 590.907 4.47982 3.98839 0
M  V30 6832 H 592.586 5.07361 4.01489 0
M  V30 6833 N 592.718 -0.936591 1.26751 0
M  V30 6834 C 593.665 -2.03597 1.08706 0
M  V30 6835 C 594.635 -1.66097 -0.00926542 0
M  V30 6836 O 595.82 -1.90199 0.151377 0
M  V30 6837 C 592.96 -3.3727 0.73094 0
M  V30 6838 C 592.073 -3.87778 1.90399 0
M  V30 6839 C 591.208 -5.09859 1.49056 0
M  V30 6840 C 590.247 -5.5264 2.63164 0
M  V30 6841 N 589.384 -6.65921 2.22471 0
M  V30 6842 H 594.224 -2.18364 2.02784 0
M  V30 6843 H 591.761 -1.06985 1.00958 0
M  V30 6844 H 593.719 -4.14128 0.505328 0
M  V30 6845 H 592.349 -3.22337 -0.172868 0
M  V30 6846 H 591.401 -3.07279 2.2424 0
M  V30 6847 H 592.713 -4.15464 2.76028 0
M  V30 6848 H 591.867 -5.9419 1.22567 0
M  V30 6849 H 590.606 -4.8393 0.60524 0
M  V30 6850 H 589.611 -4.66863 2.90377 0
M  V30 6851 H 590.836 -5.80568 3.52303 0
M  V30 6852 H 588.782 -6.41667 1.36379 0
M  V30 6853 H 588.699 -6.93216 3.01641 0
M  V30 6854 H 589.967 -7.53616 1.99205 0
M  V30 6855 N 594.196 -1.08629 -1.14182 0
M  V30 6856 C 595.473 -0.73002 -1.81466 0
M  V30 6857 C 595.853 0.785996 -1.95922 0
M  V30 6858 O 595.201 1.70535 -1.52086 0
M  V30 6859 C 595.411 -1.45957 -3.17014 0
M  V30 6860 C 596.759 -1.62008 -3.92477 0
M  V30 6861 O 597.783 -1.42141 -3.26611 0
M  V30 6862 O 596.642 -1.94806 -5.106 0
M  V30 6863 H 593.736 -0.261307 -0.784632 0
M  V30 6864 H 596.282 -1.188 -1.2118 0
M  V30 6865 H 595.054 -2.49221 -3.01669 0
M  V30 6866 H 594.677 -0.993222 -3.84995 0
M  V30 6867 N 595.674 1.31259 -0.872281 0
M  V30 6868 C 596.604 2.30929 -0.345554 0
M  V30 6869 C 597.585 1.60449 0.5648 0
M  V30 6870 O 598.77 1.8814 0.481335 0
M  V30 6871 C 595.9 3.44348 0.451823 0
M  V30 6872 C 594.854 4.26435 -0.365641 0
M  V30 6873 C 594.18 5.31785 0.557562 0
M  V30 6874 C 595.48 4.97159 -1.60095 0
M  V30 6875 H 597.174 2.75234 -1.17841 0
M  V30 6876 H 594.72 1.3232 -0.568094 0
M  V30 6877 H 596.673 4.13128 0.830854 0
M  V30 6878 H 595.397 2.98816 1.31821 0
M  V30 6879 H 594.056 3.59326 -0.726649 0
M  V30 6880 H 593.704 4.82502 1.4213 0
M  V30 6881 H 593.404 5.87598 0.0144878 0
M  V30 6882 H 594.928 6.03424 0.933387 0
M  V30 6883 H 596.342 5.58523 -1.29323 0
M  V30 6884 H 594.739 5.62779 -2.08327 0
M  V30 6885 H 595.809 4.24012 -2.35249 0
M  V30 6886 N 597.152 0.631951 1.44375 0
M  V30 6887 C 598.38 0.143867 2.06399 0
M  V30 6888 C 598.795 -1.18188 1.47231 0
M  V30 6889 O 598.152 -1.72511 0.595498 0
M  V30 6890 C 598.203 0.0238253 3.61492 0
M  V30 6891 O 597.924 1.29715 4.18456 0
M  V30 6892 C 599.425 -0.492856 4.40552 0
M  V30 6893 H 596.645 0.0800542 0.666207 0
M  V30 6894 H 599.189 0.866586 1.85231 0
M  V30 6895 H 597.344 -0.649338 3.81919 0
M  V30 6896 H 597.758 1.14252 5.11905 0
M  V30 6897 H 599.232 -0.525861 5.49489 0
M  V30 6898 H 599.709 -1.52006 4.12057 0
M  V30 6899 H 600.315 0.147085 4.25046 0
M  V30 6900 N 598.631 -1.53133 0.372548 0
M  V30 6901 C 600.047 -1.59585 0.02178 0
M  V30 6902 C 600.247 -1.38736 -1.46132 0
M  V30 6903 O 599.303 -1.19599 -2.22379 0
M  V30 6904 C 600.616 -2.9678 0.483959 0
M  V30 6905 C 602.164 -3.09909 0.438775 0
M  V30 6906 C 602.639 -4.49527 0.876876 0
M  V30 6907 N 604.13 -4.55663 0.832214 0
M  V30 6908 C 604.865 -5.61896 1.14281 0
M  V30 6909 N 604.361 -6.75852 1.52303 0
M  V30 6910 N 606.154 -5.51916 1.06515 0
M  V30 6911 H 598.305 -1.64936 1.33827 0
M  V30 6912 H 600.568 -0.773947 0.547458 0
M  V30 6913 H 600.274 -3.17198 1.51915 0
M  V30 6914 H 600.148 -3.7699 -0.125784 0
M  V30 6915 H 602.535 -2.89197 -0.587294 0
M  V30 6916 H 602.616 -2.31691 1.0841 0
M  V30 6917 H 602.26 -4.70979 1.90109 0
M  V30 6918 H 602.19 -5.26186 0.208727 0
M  V30 6919 H 604.681 -3.73844 0.552195 0
M  V30 6920 H 604.994 -7.52862 1.7441 0
M  V30 6921 H 603.339 -6.77226 1.56175 0
M  V30 6922 H 606.53 -4.6177 0.767235 0
M  V30 6923 H 606.703 -6.34609 1.31053 0
M  V30 6924 N 600.109 -0.101901 -1.5727 0
M  V30 6925 C 601.339 0.567568 -1.98651 0
M  V30 6926 C 601.747 1.61839 -0.980037 0
M  V30 6927 O 601.09 1.83661 0.0376564 0
M  V30 6928 C 601.152 1.26742 -3.36417 0
M  V30 6929 C 600.816 0.366561 -4.55528 0
M  V30 6930 C 601.813 -0.388022 -5.1845 0
M  V30 6931 C 599.498 0.282629 -5.01504 0
M  V30 6932 C 601.492 -1.21445 -6.25724 0
M  V30 6933 C 599.179 -0.547443 -6.08643 0
M  V30 6934 C 600.177 -1.29462 -6.70618 0
M  V30 6935 O 599.865 -2.11095 -7.7569 0
M  V30 6936 H 599.597 0.156282 -0.657687 0
M  V30 6937 H 602.151 -0.179912 -2.04611 0
M  V30 6938 H 600.381 2.06162 -3.27161 0
M  V30 6939 H 602.07 1.8321 -3.622 0
M  V30 6940 H 602.836 -0.332949 -4.83856 0
M  V30 6941 H 598.715 0.853868 -4.53023 0
M  V30 6942 H 602.259 -1.79814 -6.74027 0
M  V30 6943 H 598.156 -0.603971 -6.42668 0
M  V30 6944 H 598.924 -2.03851 -7.92709 0
M  V30 6945 N 601.587 1.56661 0.17182 0
M  V30 6946 C 603.003 1.50768 0.52357 0
M  V30 6947 C 603.203 0.806072 1.84675 0
M  V30 6948 O 602.259 0.366233 2.4983 0
M  V30 6949 C 603.572 2.955 0.556793 0
M  V30 6950 C 605.12 3.06303 0.644029 0
M  V30 6951 C 605.595 4.52492 0.708148 0
M  V30 6952 N 607.086 4.56737 0.771051 0
M  V30 6953 C 607.821 5.67196 0.841229 0
M  V30 6954 N 607.317 6.87287 0.872272 0
M  V30 6955 N 609.11 5.55165 0.88021 0
M  V30 6956 H 601.261 2.00679 -0.695817 0
M  V30 6957 H 603.524 0.914219 -0.250814 0
M  V30 6958 H 603.23 3.49986 -0.346774 0
M  V30 6959 H 603.104 3.50119 1.40346 0
M  V30 6960 H 605.491 2.51851 1.53802 0
M  V30 6961 H 605.572 2.5477 -0.229297 0
M  V30 6962 H 605.216 5.07575 -0.181585 0
M  V30 6963 H 605.146 5.01781 1.59761 0
M  V30 6964 H 607.637 3.70274 0.755364 0
M  V30 6965 H 607.95 7.6722 0.92698 0
M  V30 6966 H 606.295 6.89898 0.840557 0
M  V30 6967 H 609.486 4.60263 0.852956 0
M  V30 6968 H 609.659 6.41271 0.931439 0
M  V30 6969 N 603.065 -0.440357 1.51323 0
M  V30 6970 C 604.313 -1.18769 1.63518 0
M  V30 6971 C 604.634 -1.91793 0.352201 0
M  V30 6972 O 603.904 -1.85432 -0.631811 0
M  V30 6973 H 602.484 -0.441408 0.602634 0
M  V30 6974 H 605.146 -0.505162 1.8824 0
M  V30 6975 H 604.242 -1.91892 2.46138 0
M  V30 6976 N 604.543 -1.41418 -0.695603 0
M  V30 6977 C 605.789 -1.40982 -1.4578 0
M  V30 6978 C 606.122 -0.0187763 -1.94191 0
M  V30 6979 O 605.397 0.95346 -1.69527 0
M  V30 6980 C 605.68 -2.41657 -2.66972 0
M  V30 6981 C 605.533 -3.89869 -2.24327 0
M  V30 6982 C 606.852 -2.39589 -3.69168 0
M  V30 6983 H 603.971 -0.513405 -0.528757 0
M  V30 6984 H 606.613 -1.72693 -0.792275 0
M  V30 6985 H 604.763 -2.14746 -3.23754 0
M  V30 6986 H 606.435 -4.27683 -1.72872 0
M  V30 6987 H 604.678 -4.04737 -1.56111 0
M  V30 6988 H 605.349 -4.55857 -3.11285 0
M  V30 6989 H 607.825 -2.63471 -3.2206 0
M  V30 6990 H 606.701 -3.12044 -4.51575 0
M  V30 6991 H 606.962 -1.41447 -4.18862 0
M  V30 6992 N 606.021 0.929856 -1.27246 0
M  V30 6993 C 606.968 2.03017 -1.09785 0
M  V30 6994 C 607.938 1.661 0.000456744 0
M  V30 6995 O 609.123 1.90116 -0.161462 0
M  V30 6996 C 606.263 3.36878 -0.748816 0
M  V30 6997 C 605.376 3.86763 -1.92453 0
M  V30 6998 C 604.511 5.09061 -1.51758 0
M  V30 6999 C 603.55 5.51237 -2.66091 0
M  V30 7000 N 602.687 6.64732 -2.25999 0
M  V30 7001 H 607.527 2.17285 -2.03939 0
M  V30 7002 H 605.064 1.06448 -1.01524 0
M  V30 7003 H 607.022 4.13855 -0.527283 0
M  V30 7004 H 605.652 3.22424 0.155771 0
M  V30 7005 H 604.704 3.06086 -2.25867 0
M  V30 7006 H 606.016 4.13994 -2.78227 0
M  V30 7007 H 605.17 5.93532 -1.25716 0
M  V30 7008 H 603.909 4.83602 -0.630896 0
M  V30 7009 H 602.914 4.65316 -2.92849 0
M  V30 7010 H 604.139 5.78692 -3.55377 0
M  V30 7011 H 602.085 6.40935 -1.3978 0
M  V30 7012 H 602.002 6.91607 -3.05313 0
M  V30 7013 H 603.27 7.52549 -2.03199 0
M  V30 7014 N 607.499 1.09233 1.13605 0
M  V30 7015 C 608.449 0.6994 2.17008 0
M  V30 7016 C 609.433 -0.285238 1.58352 0
M  V30 7017 O 610.625 -0.09592 1.7674 0
M  V30 7018 C 607.754 0.11938 3.43092 0
M  V30 7019 C 606.84 1.13031 4.0876 0
M  V30 7020 N 607.231 2.31673 4.49623 0
M  V30 7021 C 605.529 0.967999 4.35369 0
M  V30 7022 C 606.23 2.95964 5.00779 0
M  V30 7023 N 605.206 2.23534 4.95513 0
M  V30 7024 H 609.008 1.60272 2.46354 0
M  V30 7025 H 606.522 0.968257 1.30378 0
M  V30 7026 H 608.519 -0.180122 4.16511 0
M  V30 7027 H 607.179 -0.778816 3.15221 0
M  V30 7028 H 608.19 2.69277 4.42391 0
M  V30 7029 H 604.867 0.124319 4.17315 0
M  V30 7030 H 606.257 3.96813 5.42208 0
M  V30 7031 N 608.977 -1.30795 0.87923 0
M  V30 7032 C 610.226 -1.95636 0.490875 0
M  V30 7033 C 610.539 -1.70214 -0.963674 0
M  V30 7034 O 611.745 -2.28991 -1.45861 0
M  V30 7035 C 610.201 -3.50271 0.826929 0
M  V30 7036 C 609.809 -3.84521 2.29886 0
M  V30 7037 C 611.553 -4.21456 0.507494 0
M  V30 7038 C 609.46 -5.32309 2.57685 0
M  V30 7039 H 608.39 -0.732238 0.179841 0
M  V30 7040 H 611.041 -1.48829 1.07341 0
M  V30 7041 H 609.423 -3.9562 0.173542 0
M  V30 7042 H 610.597 -3.50102 2.99609 0
M  V30 7043 H 608.912 -3.26425 2.58526 0
M  V30 7044 H 611.509 -5.30199 0.692293 0
M  V30 7045 H 611.852 -4.12614 -0.552718 0
M  V30 7046 H 612.385 -3.81772 1.11782 0
M  V30 7047 H 609.124 -5.46195 3.62424 0
M  V30 7048 H 608.644 -5.68048 1.92566 0
M  V30 7049 H 610.323 -5.99678 2.42889 0
M  V30 7050 N 610.455 -0.639598 -1.44038 0
M  V30 7051 C 611.68 -0.153117 -2.06834 0
M  V30 7052 C 612.105 1.16676 -1.47541 0
M  V30 7053 O 611.463 1.71769 -0.580093 0
M  V30 7054 C 611.511 -0.0609169 -3.60549 0
M  V30 7055 O 610.615 0.98071 -4.00569 0
M  V30 7056 H 609.956 -0.0886402 -0.658057 0
M  V30 7057 H 612.486 -0.878674 -1.84771 0
M  V30 7058 H 612.496 0.126892 -4.07803 0
M  V30 7059 H 611.171 -1.0245 -4.03084 0
M  V30 7060 H 609.748 0.766789 -3.64931 0
M  V30 7061 N 611.933 1.52934 -0.380664 0
M  V30 7062 C 612.843 2.29921 0.466192 0
M  V30 7063 C 613.859 1.36488 1.07922 0
M  V30 7064 O 615.035 1.69553 1.0869 0
M  V30 7065 C 612.1 3.08468 1.58266 0
M  V30 7066 C 611.161 4.17595 0.995627 0
M  V30 7067 C 610.394 4.92387 2.05889 0
M  V30 7068 O 610.617 4.67184 3.27254 0
M  V30 7069 O 609.551 5.77949 1.68102 0
M  V30 7070 H 613.377 3.03274 -0.160735 0
M  V30 7071 H 610.962 1.48698 -0.144617 0
M  V30 7072 H 612.844 3.57469 2.23145 0
M  V30 7073 H 611.519 2.37937 2.19471 0
M  V30 7074 H 610.426 3.72811 0.310332 0
M  V30 7075 H 611.759 4.90336 0.427918 0
M  V30 7076 N 613.412 0.11024 1.57214 0
M  V30 7077 C 614.342 -0.840002 2.17867 0
M  V30 7078 C 615.323 -1.28352 1.11624 0
M  V30 7079 O 616.508 -1.3477 1.39824 0
M  V30 7080 C 613.638 -2.09349 2.77111 0
M  V30 7081 C 612.592 -1.78807 3.8886 0
M  V30 7082 C 611.918 -3.11112 4.34872 0
M  V30 7083 C 613.218 -1.0632 5.11364 0
M  V30 7084 H 614.912 -0.334608 2.97524 0
M  V30 7085 H 612.458 -0.159502 1.43114 0
M  V30 7086 H 614.411 -2.76275 3.18198 0
M  V30 7087 H 613.135 -2.62198 1.9473 0
M  V30 7088 H 611.794 -1.14273 3.48335 0
M  V30 7089 H 611.442 -3.61877 3.49362 0
M  V30 7090 H 611.142 -2.91453 5.10224 0
M  V30 7091 H 612.666 -3.79171 4.78604 0
M  V30 7092 H 614.08 -1.63383 5.49526 0
M  V30 7093 H 612.477 -0.967876 5.92243 0
M  V30 7094 H 613.547 -0.0484569 4.84876 0
M  V30 7095 N 614.89 -1.56749 -0.16351 0
M  V30 7096 C 616.137 -1.82434 -0.878866 0
M  V30 7097 C 616.465 -0.688557 -1.81904 0
M  V30 7098 O 615.72 0.323644 -1.93005 0
M  V30 7099 C 616.019 -3.14342 -1.70071 0
M  V30 7100 C 615.685 -4.41647 -0.908775 0
M  V30 7101 C 614.347 -4.76224 -0.690236 0
M  V30 7102 C 616.699 -5.19998 -0.353815 0
M  V30 7103 C 614.027 -5.86624 0.0942374 0
M  V30 7104 C 616.379 -6.3122 0.41761 0
M  V30 7105 C 615.043 -6.64358 0.646879 0
M  V30 7106 H 614.313 -0.667574 -0.3216 0
M  V30 7107 H 616.96 -1.90963 -0.14337 0
M  V30 7108 H 615.265 -3.0119 -2.50583 0
M  V30 7109 H 616.962 -3.31426 -2.25738 0
M  V30 7110 H 613.552 -4.1453 -1.08916 0
M  V30 7111 H 617.736 -4.93673 -0.509975 0
M  V30 7112 H 612.992 -6.10751 0.281529 0
M  V30 7113 H 617.166 -6.91133 0.854849 0
M  V30 7114 H 614.793 -7.49742 1.25662 0
M  V30 7115 N 616.368 0.432326 -1.51554 0
M  V30 7116 C 617.331 1.50765 -1.72634 0
M  V30 7117 C 618.331 1.49334 -0.596314 0
M  V30 7118 O 619.521 1.51268 -0.863925 0
M  V30 7119 C 616.653 2.90284 -1.7874 0
M  V30 7120 H 617.846 1.33377 -2.68609 0
M  V30 7121 H 615.399 0.661329 -1.4162 0
M  V30 7122 H 616.134 3.13071 -0.845977 0
M  V30 7123 H 615.919 2.92727 -2.6087 0
M  V30 7124 H 617.409 3.68282 -1.96871 0
M  V30 7125 N 617.846 1.41785 0.688094 0
M  V30 7126 C 618.776 1.47 1.8142 0
M  V30 7127 C 619.757 0.327881 1.6691 0
M  V30 7128 O 620.942 0.540362 1.86531 0
M  V30 7129 C 618.072 1.35876 3.19617 0
M  V30 7130 C 617.026 2.47976 3.48844 0
M  V30 7131 C 616.352 2.21915 4.86475 0
M  V30 7132 C 617.652 3.90309 3.47068 0
M  V30 7133 H 619.346 2.41247 1.77314 0
M  V30 7134 H 616.892 1.16116 0.851651 0
M  V30 7135 H 618.845 1.38134 3.98117 0
M  V30 7136 H 617.569 0.38116 3.24368 0
M  V30 7137 H 616.228 2.45013 2.72698 0
M  V30 7138 H 615.876 1.2248 4.8786 0
M  V30 7139 H 615.576 2.97037 5.06994 0
M  V30 7140 H 617.1 2.25901 5.67275 0
M  V30 7141 H 618.514 3.94947 4.1556 0
M  V30 7142 H 616.911 4.65175 3.7912 0
M  V30 7143 H 617.981 4.17927 2.45896 0
M  V30 7144 N 619.324 -0.923095 1.27737 0
M  V30 7145 C 620.564 -1.6858 1.15586 0
M  V30 7146 C 620.928 -1.89758 -0.292562 0
M  V30 7147 O 622.129 -2.6339 -0.536583 0
M  V30 7148 C 620.4 -3.01275 1.92271 0
M  V30 7149 S 621.959 -3.924 1.96387 0
M  V30 7150 H 618.777 -0.579069 0.412554 0
M  V30 7151 H 621.379 -1.09866 1.61709 0
M  V30 7152 H 620.083 -2.83556 2.96689 0
M  V30 7153 H 619.614 -3.6504 1.46661 0
M  V30 7154 H 621.629 -4.84667 1.06361 0
M  V30 7155 N 620.802 -1.09834 -1.13024 0
M  V30 7156 C 621.712 -0.753731 -2.22162 0
M  V30 7157 C 622.728 0.246105 -1.72251 0
M  V30 7158 O 623.904 0.0864051 -2.01215 0
M  V30 7159 C 620.969 -0.183958 -3.46212 0
M  V30 7160 C 620.03 -1.24028 -4.10993 0
M  V30 7161 C 619.263 -0.697597 -5.29121 0
M  V30 7162 O 619.486 0.478092 -5.68393 0
M  V30 7163 O 618.42 -1.4546 -5.84059 0
M  V30 7164 H 622.246 -1.66456 -2.5402 0
M  V30 7165 H 619.831 -0.873026 -1.21238 0
M  V30 7166 H 621.713 0.130257 -4.21199 0
M  V30 7167 H 620.388 0.699823 -3.16045 0
M  V30 7168 H 619.295 -1.60725 -3.37814 0
M  V30 7169 H 620.628 -2.09685 -4.45301 0
M  V30 7170 N 622.28 1.30327 -0.886154 0
M  V30 7171 C 623.228 2.30052 -0.343317 0
M  V30 7172 C 624.222 1.60212 0.550305 0
M  V30 7173 O 625.428 1.74674 0.434609 0
M  V30 7174 H 621.803 0.746306 -0.0923681 0
M  V30 7175 H 623.774 2.73294 -1.19804 0
M  V30 7176 C 622.523 3.45079 0.426107 0
M  V30 7177 H 621.846 3.99003 -0.25227 0
M  V30 7178 H 623.286 4.16931 0.771009 0
M  V30 7179 C 621.745 2.95195 1.62363 0
M  V30 7180 O 622.275 2.95323 2.723 0
M  V30 7181 N 620.481 2.51192 1.4612 0
M  V30 7182 H 620.028 2.51286 0.566832 0
M  V30 7183 H 619.986 2.18173 2.2638 0
M  V30 7184 N 623.758 0.647228 1.43697 0
M  V30 7185 C 625.007 0.155552 2.01099 0
M  V30 7186 C 625.32 -1.23569 1.51624 0
M  V30 7187 O 626.526 -1.82226 2.01261 0
M  V30 7188 C 624.982 0.227296 3.59182 0
M  V30 7189 C 624.59 1.62086 4.17651 0
M  V30 7190 C 626.334 -0.207085 4.23995 0
M  V30 7191 C 624.241 1.64685 5.68008 0
M  V30 7192 H 623.171 0.0543895 0.752036 0
M  V30 7193 H 625.822 0.808386 1.64734 0
M  V30 7194 H 624.204 -0.492937 3.9292 0
M  V30 7195 H 625.378 2.36597 3.95422 0
M  V30 7196 H 623.693 2.0007 3.65186 0
M  V30 7197 H 626.29 -0.207426 5.34298 0
M  V30 7198 H 626.633 -1.23742 3.97484 0
M  V30 7199 H 627.166 0.461193 3.95118 0
M  V30 7200 H 623.905 2.65608 5.99277 0
M  V30 7201 H 623.425 0.944914 5.9231 0
M  V30 7202 H 625.104 1.38792 6.31938 0
M  V30 7203 N 625.236 -1.5273 0.388769 0
M  V30 7204 C 626.485 -2.00757 -0.194833 0
M  V30 7205 C 626.798 -1.27951 -1.47946 0
M  V30 7206 O 628.004 -1.66686 -2.14308 0
M  V30 7207 C 626.46 -3.57695 -0.397762 0
M  V30 7208 C 626.068 -4.394 0.873583 0
M  V30 7209 C 627.812 -4.14012 -0.937759 0
M  V30 7210 C 625.719 -5.87938 0.638962 0
M  V30 7211 H 624.649 -0.750101 -0.0765845 0
M  V30 7212 H 627.3 -1.76239 0.511086 0
M  V30 7213 H 625.682 -3.7846 -1.16552 0
M  V30 7214 H 626.856 -4.30403 1.64591 0
M  V30 7215 H 625.171 -3.94301 1.33849 0
M  V30 7216 H 627.768 -5.22645 -1.12899 0
M  V30 7217 H 628.111 -3.7007 -1.90666 0
M  V30 7218 H 628.644 -3.97137 -0.229588 0
M  V30 7219 H 625.383 -6.36202 1.57885 0
M  V30 7220 H 624.903 -5.99726 -0.094443 0
M  V30 7221 H 626.582 -6.46423 0.273299 0
M  V30 7222 N 626.714 -0.118576 -1.57153 0
M  V30 7223 C 627.939 0.550582 -1.99958 0
M  V30 7224 C 628.364 1.59458 -0.997736 0
M  V30 7225 O 627.722 1.81274 0.0306269 0
M  V30 7226 C 627.77 1.15379 -3.41643 0
M  V30 7227 O 626.874 2.26932 -3.44348 0
M  V30 7228 H 626.215 0.137567 -0.649593 0
M  V30 7229 H 628.745 -0.206926 -2.03551 0
M  V30 7230 H 628.755 1.48942 -3.79843 0
M  V30 7231 H 627.43 0.389087 -4.14076 0
M  V30 7232 H 626.007 1.94812 -3.17967 0
M  V30 7233 N 628.193 1.56834 0.155195 0
M  V30 7234 C 629.421 1.87049 0.884326 0
M  V30 7235 C 629.836 0.705839 1.7511 0
M  V30 7236 O 629.193 -0.324641 1.79589 0
M  V30 7237 C 629.244 3.1644 1.74781 0
M  V30 7238 O 628.965 4.28417 0.915978 0
M  V30 7239 C 630.466 3.60113 2.58522 0
M  V30 7240 H 627.686 0.620196 0.25612 0
M  V30 7241 H 630.23 2.03946 0.150445 0
M  V30 7242 H 628.385 3.01321 2.43484 0
M  V30 7243 H 628.799 5.02353 1.50803 0
M  V30 7244 H 630.273 4.53508 3.14698 0
M  V30 7245 H 630.75 2.85005 3.34169 0
M  V30 7246 H 631.356 3.77898 1.95124 0
M  V30 7247 N 629.671 -0.424282 1.51781 0
M  V30 7248 C 630.901 -1.19297 1.68677 0
M  V30 7249 C 631.309 -1.85152 0.389258 0
M  V30 7250 O 630.652 -1.72067 -0.643311 0
M  V30 7251 C 630.714 -2.30929 2.75521 0
M  V30 7252 C 630.378 -1.85335 4.17732 0
M  V30 7253 C 631.375 -1.34951 5.0208 0
M  V30 7254 C 629.06 -1.92629 4.63896 0
M  V30 7255 C 631.054 -0.924636 6.30658 0
M  V30 7256 C 628.741 -1.49754 5.92467 0
M  V30 7257 C 629.739 -0.997543 6.75676 0
M  V30 7258 O 629.427 -0.57492 8.01842 0
M  V30 7259 H 629.159 -0.36512 0.568914 0
M  V30 7260 H 631.713 -0.507327 1.99036 0
M  V30 7261 H 629.943 -3.02811 2.40505 0
M  V30 7262 H 631.632 -2.92748 2.81165 0
M  V30 7263 H 632.398 -1.287 4.67612 0
M  V30 7264 H 628.277 -2.30491 3.99243 0
M  V30 7265 H 631.821 -0.533682 6.95556 0
M  V30 7266 H 627.718 -1.55679 6.26446 0
M  V30 7267 H 628.486 -0.699597 8.15505 0
M  V30 7268 N 631.149 -1.42148 -0.680565 0
M  V30 7269 C 632.097 -1.45401 -1.81552 0
M  V30 7270 C 633.091 -0.33036 -1.66147 0
M  V30 7271 O 634.297 -0.503103 -1.72826 0
M  V30 7272 H 630.672 -0.455265 -0.59853 0
M  V30 7273 H 632.643 -2.41024 -1.75926 0
M  V30 7274 C 631.392 -1.36769 -3.19671 0
M  V30 7275 H 630.715 -2.22525 -3.32149 0
M  V30 7276 H 632.155 -1.43106 -3.9912 0
M  V30 7277 C 630.614 -0.0817752 -3.36801 0
M  V30 7278 O 631.144 0.867707 -3.92216 0
M  V30 7279 N 629.35 -0.000799811 -2.906 0
M  V30 7280 H 628.897 -0.774231 -2.4569 0
M  V30 7281 H 628.855 0.858961 -3.02439 0
M  V30 7282 N 632.627 0.916307 -1.28225 0
M  V30 7283 C 633.537 2.05165 -1.13775 0
M  V30 7284 C 634.553 1.73879 -0.0649418 0
M  V30 7285 O 635.729 1.99531 -0.273722 0
M  V30 7286 C 632.794 3.37385 -0.798267 0
M  V30 7287 C 631.855 3.82296 -1.95316 0
M  V30 7288 C 631.088 5.08206 -1.62978 0
M  V30 7289 O 631.311 5.6781 -0.542948 0
M  V30 7290 O 630.245 5.48768 -2.47261 0
M  V30 7291 H 634.071 2.20273 -2.09078 0
M  V30 7292 H 631.656 1.0373 -1.07519 0
M  V30 7293 H 633.538 4.16773 -0.62278 0
M  V30 7294 H 632.213 3.23458 0.125139 0
M  V30 7295 H 631.12 3.03746 -2.18378 0
M  V30 7296 H 632.453 4.00782 -2.85718 0
M  V30 7297 N 634.105 1.10431 1.1244 0
M  V30 7298 C 635.053 0.747974 2.20246 0
M  V30 7299 C 636.047 -0.255848 1.67457 0
M  V30 7300 O 637.253 -0.116221 1.79624 0
M  V30 7301 H 633.628 0.223946 0.71788 0
M  V30 7302 H 635.599 1.6661 2.47556 0
M  V30 7303 C 634.348 0.195957 3.47147 0
M  V30 7304 H 633.671 0.959606 3.88113 0
M  V30 7305 H 635.111 -0.0153154 4.23997 0
M  V30 7306 C 633.57 -1.07132 3.19413 0
M  V30 7307 O 634.1 -2.15284 3.3914 0
M  V30 7308 N 632.306 -0.98994 2.73219 0
M  V30 7309 H 631.853 -0.109736 2.57366 0
M  V30 7310 H 631.811 -1.83856 2.55038 0
M  V30 7311 N 635.583 -1.29855 0.893053 0
M  V30 7312 C 636.813 -1.99686 0.530019 0
M  V30 7313 C 637.221 -1.67066 -0.888012 0
M  V30 7314 O 636.564 -0.908366 -1.5967 0
M  V30 7315 C 636.626 -3.53855 0.63457 0
M  V30 7316 C 636.29 -4.10013 2.01837 0
M  V30 7317 C 637.287 -4.25406 2.98874 0
M  V30 7318 C 634.972 -4.45202 2.32595 0
M  V30 7319 C 636.966 -4.7521 4.24799 0
M  V30 7320 C 634.653 -4.94704 3.58763 0
M  V30 7321 C 635.651 -5.09662 4.5468 0
M  V30 7322 O 635.339 -5.58093 5.78608 0
M  V30 7323 H 635.071 -0.644913 0.20264 0
M  V30 7324 H 637.625 -1.66518 1.20253 0
M  V30 7325 H 635.855 -3.86583 -0.0949477 0
M  V30 7326 H 637.544 -4.04922 0.281648 0
M  V30 7327 H 638.31 -3.98515 2.76425 0
M  V30 7328 H 634.189 -4.32822 1.58701 0
M  V30 7329 H 637.733 -4.86801 4.99671 0
M  V30 7330 H 633.63 -5.21032 3.81046 0
M  V30 7331 H 634.398 -5.7642 5.81104 0
M  V30 7332 N 637.061 -0.65484 -1.43351 0
M  V30 7333 C 638.289 -0.176685 -2.06144 0
M  V30 7334 C 638.704 1.15831 -1.49093 0
M  V30 7335 O 638.061 1.71542 -0.622868 0
M  V30 7336 C 638.112 -0.0813326 -3.61408 0
M  V30 7337 O 637.833 -1.36355 -4.1634 0
M  V30 7338 C 639.334 0.422706 -4.4128 0
M  V30 7339 H 636.554 -0.0906429 -0.66485 0
M  V30 7340 H 639.098 -0.895945 -1.83829 0
M  V30 7341 H 637.253 0.588496 -3.82904 0
M  V30 7342 H 637.667 -1.22381 -5.10023 0
M  V30 7343 H 639.141 0.438375 -5.50257 0
M  V30 7344 H 639.618 1.45432 -4.14423 0
M  V30 7345 H 640.224 -0.214687 -4.24758 0
M  V30 7346 N 638.539 1.52521 -0.396863 0
M  V30 7347 C 639.486 2.26671 0.434624 0
M  V30 7348 C 640.456 1.28584 1.05144 0
M  V30 7349 O 641.641 1.57426 1.07804 0
M  V30 7350 C 638.781 3.08234 1.55196 0
M  V30 7351 C 637.894 4.21261 0.957262 0
M  V30 7352 C 637.029 4.90205 2.04627 0
M  V30 7353 C 636.068 5.95213 1.42787 0
M  V30 7354 N 635.205 6.57723 2.45651 0
M  V30 7355 H 640.045 2.973 -0.204139 0
M  V30 7356 H 637.582 1.46669 -0.112505 0
M  V30 7357 H 639.54 3.53819 2.2106 0
M  V30 7358 H 638.17 2.398 2.16092 0
M  V30 7359 H 637.222 3.79935 0.188005 0
M  V30 7360 H 638.534 4.96624 0.465416 0
M  V30 7361 H 637.688 5.39133 2.78246 0
M  V30 7362 H 636.427 4.14383 2.57174 0
M  V30 7363 H 635.432 5.45616 0.676968 0
M  V30 7364 H 636.657 6.72972 0.910255 0
M  V30 7365 H 634.603 5.84737 2.97353 0
M  V30 7366 H 634.52 7.28723 2.01243 0
M  V30 7367 H 635.788 7.11293 3.18876 0
M  V30 7368 N 640.017 0.126909 1.57088 0
M  V30 7369 C 641.266 -0.529024 1.94639 0
M  V30 7370 C 641.579 -1.67323 1.01304 0
M  V30 7371 O 642.785 -2.39245 1.28352 0
M  V30 7372 C 641.241 -0.992483 3.45945 0
M  V30 7373 C 640.849 0.123691 4.47829 0
M  V30 7374 C 642.593 -1.61934 3.924 0
M  V30 7375 C 640.5 -0.356911 5.90322 0
M  V30 7376 H 639.43 -0.201397 0.726605 0
M  V30 7377 H 642.081 0.208032 1.82317 0
M  V30 7378 H 640.463 -1.7842 3.53528 0
M  V30 7379 H 641.637 0.900168 4.51922 0
M  V30 7380 H 639.952 0.657699 4.11173 0
M  V30 7381 H 642.549 -1.9902 4.96281 0
M  V30 7382 H 642.892 -2.50075 3.32819 0
M  V30 7383 H 643.425 -0.892894 3.8765 0
M  V30 7384 H 640.164 0.488636 6.53676 0
M  V30 7385 H 639.684 -1.0997 5.89633 0
M  V30 7386 H 641.363 -0.815547 6.41839 0
M  V30 7387 N 641.495 -1.56914 -0.146875 0
M  V30 7388 C 642.725 -1.87243 -0.873126 0
M  V30 7389 C 643.133 -0.713127 -1.75246 0
M  V30 7390 O 642.476 0.326228 -1.8078 0
M  V30 7391 C 642.538 -3.12279 -1.78107 0
M  V30 7392 C 642.202 -4.44082 -1.07889 0
M  V30 7393 C 643.199 -5.18096 -0.432734 0
M  V30 7394 C 640.884 -4.90807 -1.06836 0
M  V30 7395 C 642.878 -6.37039 0.214569 0
M  V30 7396 C 640.565 -6.09674 -0.417243 0
M  V30 7397 C 641.563 -6.82636 0.223093 0
M  V30 7398 O 641.251 -7.99245 0.863884 0
M  V30 7399 H 640.983 -0.624896 -0.257839 0
M  V30 7400 H 643.537 -2.04892 -0.14434 0
M  V30 7401 H 641.767 -2.90639 -2.5508 0
M  V30 7402 H 643.456 -3.28854 -2.37929 0
M  V30 7403 H 644.222 -4.83066 -0.432677 0
M  V30 7404 H 640.101 -4.3394 -1.55618 0
M  V30 7405 H 643.645 -6.93927 0.714965 0
M  V30 7406 H 639.542 -6.44165 -0.414967 0
M  V30 7407 H 640.31 -8.14912 0.765564 0
M  V30 7408 N 642.974 0.416227 -1.52004 0
M  V30 7409 C 644.199 1.19029 -1.69843 0
M  V30 7410 C 644.624 1.83708 -0.404103 0
M  V30 7411 O 643.982 1.69711 0.637787 0
M  V30 7412 C 644.03 2.23439 -2.83032 0
M  V30 7413 O 643.134 3.29419 -2.48106 0
M  V30 7414 H 642.475 0.347785 -0.565634 0
M  V30 7415 H 645.005 0.488871 -1.98674 0
M  V30 7416 H 645.015 2.67884 -3.07737 0
M  V30 7417 H 643.69 1.75745 -3.76944 0
M  V30 7418 H 642.267 2.90303 -2.34048 0
M  V30 7419 N 644.452 1.42507 0.673017 0
M  V30 7420 C 645.68 1.46473 1.46128 0
M  V30 7421 C 646.095 0.0765912 1.88645 0
M  V30 7422 O 645.452 -0.909057 1.58248 0
M  V30 7423 C 645.503 2.39339 2.70923 0
M  V30 7424 O 645.224 3.72752 2.3019 0
M  V30 7425 C 646.725 2.52343 3.64469 0
M  V30 7426 H 643.945 0.49812 0.449575 0
M  V30 7427 H 646.489 1.87041 0.826802 0
M  V30 7428 H 644.644 2.02019 3.30556 0
M  V30 7429 H 645.058 4.22503 3.10791 0
M  V30 7430 H 646.532 3.2144 4.48754 0
M  V30 7431 H 647.009 1.56189 4.1049 0
M  V30 7432 H 647.615 2.90392 3.10729 0
M  V30 7433 N 645.93 -0.909495 1.28709 0
M  V30 7434 C 647.155 -1.69801 1.1909 0
M  V30 7435 C 647.58 -1.86479 -0.246388 0
M  V30 7436 O 646.938 -1.37802 -1.17815 0
M  V30 7437 C 646.986 -3.06543 1.89904 0
M  V30 7438 O 646.09 -3.94268 1.2094 0
M  V30 7439 H 645.431 -0.519783 0.413185 0
M  V30 7440 H 647.961 -1.13689 1.70106 0
M  V30 7441 H 647.971 -3.56748 1.97977 0
M  V30 7442 H 646.646 -2.93722 2.94449 0
M  V30 7443 H 645.223 -3.52702 1.2106 0
M  V30 7444 N 647.408 -1.11026 -1.11852 0
M  V30 7445 C 648.358 -0.733836 -2.15868 0
M  V30 7446 C 649.342 0.26001 -1.58785 0
M  V30 7447 O 650.534 0.0677901 -1.7687 0
M  V30 7448 C 647.663 -0.173948 -3.42859 0
M  V30 7449 C 646.749 -1.1952 -4.0691 0
M  V30 7450 N 647.14 -2.38797 -4.45881 0
M  V30 7451 C 645.438 -1.03714 -4.33773 0
M  V30 7452 C 646.139 -3.03894 -4.96007 0
M  V30 7453 N 645.115 -2.31389 -4.91894 0
M  V30 7454 H 648.917 -1.64171 -2.43773 0
M  V30 7455 H 646.431 -0.988877 -1.28822 0
M  V30 7456 H 648.428 0.113836 -4.16745 0
M  V30 7457 H 647.088 0.728568 -3.16421 0
M  V30 7458 H 648.099 -2.76281 -4.38051 0
M  V30 7459 H 644.776 -0.190694 -4.17064 0
M  V30 7460 H 646.166 -4.05389 -5.35826 0
M  V30 7461 N 648.886 1.2938 -0.899927 0
M  V30 7462 C 649.834 2.29675 -0.367698 0
M  V30 7463 C 650.828 1.60787 0.533282 0
M  V30 7464 O 652.034 1.75126 0.416058 0
M  V30 7465 H 648.409 0.745284 -0.100279 0
M  V30 7466 H 650.38 2.72008 -1.22696 0
M  V30 7467 C 649.129 3.45512 0.389483 0
M  V30 7468 H 648.452 3.98713 -0.294575 0
M  V30 7469 H 649.892 4.17725 0.726744 0
M  V30 7470 C 648.351 2.969 1.59223 0
M  V30 7471 O 648.881 2.98195 2.69152 0
M  V30 7472 N 647.087 2.52728 1.43447 0
M  V30 7473 H 646.634 2.51873 0.540148 0
M  V30 7474 H 646.592 2.20561 2.24054 0
M  V30 7475 N 650.364 0.662433 1.43002 0
M  V30 7476 C 651.61 0.179857 2.02001 0
M  V30 7477 C 651.943 -1.20625 1.52195 0
M  V30 7478 O 651.218 -1.80726 0.718911 0
M  V30 7479 C 651.501 0.200845 3.59539 0
M  V30 7480 C 651.354 1.62153 4.19555 0
M  V30 7481 C 652.673 -0.457738 4.37713 0
M  V30 7482 H 649.792 0.0668305 0.733964 0
M  V30 7483 H 652.434 0.84487 1.70182 0
M  V30 7484 H 650.584 -0.365411 3.86778 0
M  V30 7485 H 652.256 2.23908 4.03315 0
M  V30 7486 H 650.499 2.16601 3.75854 0
M  V30 7487 H 651.17 1.58799 5.28665 0
M  V30 7488 H 653.646 0.0241495 4.16093 0
M  V30 7489 H 652.522 -0.412363 5.47349 0
M  V30 7490 H 652.783 -1.53336 4.14657 0
M  V30 7491 N 651.842 -1.52309 0.404946 0
M  V30 7492 C 653.07 -2.06185 -0.171818 0
M  V30 7493 C 653.485 -1.27536 -1.39212 0
M  V30 7494 O 652.842 -0.326112 -1.79563 0
M  V30 7495 C 652.893 -3.57647 -0.526417 0
M  V30 7496 O 652.614 -4.3332 0.645417 0
M  V30 7497 C 654.115 -4.27925 -1.15736 0
M  V30 7498 H 651.335 -0.670632 -0.0222328 0
M  V30 7499 H 653.879 -1.96259 0.574692 0
M  V30 7500 H 652.034 -3.67595 -1.22282 0
M  V30 7501 H 652.448 -5.23328 0.35042 0
M  V30 7502 H 653.922 -5.35093 -1.35572 0
M  V30 7503 H 654.399 -3.84134 -2.12926 0
M  V30 7504 H 655.005 -4.22335 -0.501281 0
M  V30 7505 N 653.32 -0.135238 -1.57019 0
M  V30 7506 C 654.268 0.826099 -2.17436 0
M  V30 7507 C 655.262 1.26378 -1.12805 0
M  V30 7508 O 656.468 1.23363 -1.31079 0
M  V30 7509 H 652.843 0.284568 -0.696078 0
M  V30 7510 H 654.814 0.292212 -2.96966 0
M  V30 7511 C 653.563 2.05991 -2.80112 0
M  V30 7512 H 652.886 1.73209 -3.60331 0
M  V30 7513 H 654.326 2.71225 -3.25903 0
M  V30 7514 C 652.785 2.86027 -1.78017 0
M  V30 7515 O 653.315 3.81971 -1.24344 0
M  V30 7516 N 651.521 2.50332 -1.47588 0
M  V30 7517 H 651.068 1.72377 -1.91426 0
M  V30 7518 H 651.026 3.04177 -0.795228 0
M  V30 7519 N 654.798 1.5699 0.138552 0
M  V30 7520 C 655.708 2.02174 1.19008 0
M  V30 7521 C 656.724 0.938622 1.46512 0
M  V30 7522 O 657.9 1.24872 1.58016 0
M  V30 7523 C 654.965 2.40045 2.50159 0
M  V30 7524 C 654.026 3.62346 2.30226 0
M  V30 7525 C 653.259 3.98401 3.55123 0
M  V30 7526 O 653.482 3.35019 4.61647 0
M  V30 7527 O 652.416 4.91606 3.47285 0
M  V30 7528 H 656.242 2.91954 0.836452 0
M  V30 7529 H 653.827 1.45293 0.347907 0
M  V30 7530 H 655.709 2.65225 3.27465 0
M  V30 7531 H 654.384 1.53417 2.85035 0
M  V30 7532 H 653.291 3.42341 1.50843 0
M  V30 7533 H 654.624 4.49617 2.00262 0
M  V30 7534 N 656.276 -0.40816 1.52223 0
M  V30 7535 C 657.224 -1.51788 1.76248 0
M  V30 7536 C 658.218 -1.57264 0.629638 0
M  V30 7537 O 659.424 -1.60659 0.811704 0
M  V30 7538 H 655.799 -0.504823 0.557367 0
M  V30 7539 H 657.77 -1.2871 2.69214 0
M  V30 7540 C 656.519 -2.89145 1.93107 0
M  V30 7541 H 655.842 -2.85674 2.79697 0
M  V30 7542 H 657.282 -3.66082 2.13916 0
M  V30 7543 C 655.741 -3.29581 0.698431 0
M  V30 7544 O 656.271 -4.01479 -0.133238 0
M  V30 7545 N 654.477 -2.85651 0.53405 0
M  V30 7546 H 654.024 -2.2731 1.21194 0
M  V30 7547 H 653.982 -3.13065 -0.289387 0
M  V30 7548 N 657.755 -1.42862 -0.66545 0
M  V30 7549 C 659.032 -1.3431 -1.42197 0
M  V30 7550 C 659.412 0.0150265 -2.11095 0
M  V30 7551 O 658.76 1.03101 -2.03918 0
M  V30 7552 C 658.97 -2.51783 -2.41674 0
M  V30 7553 C 660.318 -2.94321 -3.0604 0
M  V30 7554 O 661.342 -2.51741 -2.52001 0
M  V30 7555 O 660.201 -3.68047 -4.03985 0
M  V30 7556 H 657.295 -0.530159 -0.634713 0
M  V30 7557 H 659.841 -1.54888 -0.693386 0
M  V30 7558 H 658.613 -3.42282 -1.89627 0
M  V30 7559 H 658.236 -2.33241 -3.22001 0
M  V30 7560 N 659.233 0.902656 -1.29189 0
M  V30 7561 C 660.165 2.01149 -1.09872 0
M  V30 7562 C 661.178 1.62732 -0.0471046 0
M  V30 7563 O 662.367 1.76107 -0.29132 0
M  V30 7564 C 659.467 3.32612 -0.649818 0
M  V30 7565 C 658.64 3.99574 -1.7793 0
M  V30 7566 C 657.699 5.09325 -1.32191 0
M  V30 7567 O 656.725 5.31919 -2.02611 0
M  V30 7568 N 657.927 5.80185 -0.191171 0
M  V30 7569 H 660.692 2.18276 -2.05368 0
M  V30 7570 H 658.253 1.07466 -1.2109 0
M  V30 7571 H 660.245 4.03375 -0.327199 0
M  V30 7572 H 658.815 3.11876 0.212597 0
M  V30 7573 H 658.035 3.22213 -2.27095 0
M  V30 7574 H 659.323 4.41056 -2.53668 0
M  V30 7575 H 658.721 5.64312 0.396016 0
M  V30 7576 H 657.278 6.5176 0.0721001 0
M  V30 7577 N 660.711 1.11618 1.11262 0
M  V30 7578 C 661.958 0.86618 1.8304 0
M  V30 7579 C 662.286 -0.608149 1.84748 0
M  V30 7580 O 661.541 -1.46508 1.29745 0
M  V30 7581 C 661.84 1.37529 3.2988 0
M  V30 7582 C 661.506 2.86317 3.4833 0
M  V30 7583 C 660.168 3.26945 3.53073 0
M  V30 7584 C 662.52 3.82136 3.54431 0
M  V30 7585 C 659.848 4.62117 3.61475 0
M  V30 7586 C 662.2 5.17128 3.64365 0
M  V30 7587 C 660.864 5.57312 3.67369 0
M  V30 7588 H 660.134 0.316958 0.66979 0
M  V30 7589 H 662.781 1.3949 1.31205 0
M  V30 7590 H 661.086 0.766842 3.84222 0
M  V30 7591 H 662.783 1.15817 3.83911 0
M  V30 7592 H 659.373 2.53889 3.45309 0
M  V30 7593 H 663.557 3.51847 3.50025 0
M  V30 7594 H 658.813 4.92655 3.62079 0
M  V30 7595 H 662.987 5.91208 3.68029 0
M  V30 7596 H 660.614 6.62045 3.73632 0
M  V30 7597 N 662.189 -1.289 0.906776 0
M  V30 7598 C 663.417 -1.99401 0.551969 0
M  V30 7599 C 663.832 -1.67816 -0.865048 0
M  V30 7600 O 663.189 -0.927078 -1.57199 0
M  V30 7601 C 663.24 -3.53779 0.743152 0
M  V30 7602 O 662.961 -3.84248 2.1044 0
M  V30 7603 C 664.462 -4.41543 0.39424 0
M  V30 7604 H 661.682 -0.636926 0.211106 0
M  V30 7605 H 664.226 -1.64266 1.21807 0
M  V30 7606 H 662.381 -3.87201 0.124143 0
M  V30 7607 H 662.795 -4.78904 2.13895 0
M  V30 7608 H 664.269 -5.48957 0.578814 0
M  V30 7609 H 664.746 -4.34073 -0.669137 0
M  V30 7610 H 665.352 -4.13605 0.990491 0
M  V30 7611 N 663.667 -0.670007 -1.42649 0
M  V30 7612 C 664.599 0.0501746 -2.29145 0
M  V30 7613 C 665.612 0.770331 -1.43422 0
M  V30 7614 O 666.801 0.625288 -1.6719 0
M  V30 7615 C 663.901 1.09463 -3.20735 0
M  V30 7616 C 663.074 0.44926 -4.35087 0
M  V30 7617 C 662.133 1.39285 -5.07431 0
M  V30 7618 O 661.159 0.894997 -5.6212 0
M  V30 7619 N 662.361 2.72631 -5.12496 0
M  V30 7620 H 665.126 -0.692312 -2.91594 0
M  V30 7621 H 662.687 -0.514056 -1.53522 0
M  V30 7622 H 664.679 1.72705 -3.65999 0
M  V30 7623 H 663.249 1.73891 -2.59771 0
M  V30 7624 H 662.469 -0.362573 -3.92529 0
M  V30 7625 H 663.757 -0.000544776 -5.088 0
M  V30 7626 H 663.155 3.15623 -4.69467 0
M  V30 7627 H 661.712 3.31132 -5.61422 0
M  V30 7628 N 665.145 1.52092 -0.413018 0
M  V30 7629 C 666.075 2.30021 0.401567 0
M  V30 7630 C 667.056 1.34395 1.04269 0
M  V30 7631 O 668.241 1.63304 1.05097 0
M  V30 7632 C 665.371 3.12447 1.51638 0
M  V30 7633 C 664.325 4.16153 1.00005 0
M  V30 7634 C 663.651 4.86948 2.20875 0
M  V30 7635 C 664.951 5.22275 0.0513757 0
M  V30 7636 H 666.645 2.98365 -0.248704 0
M  V30 7637 H 664.191 1.4349 -0.121052 0
M  V30 7638 H 666.144 3.65733 2.09326 0
M  V30 7639 H 664.868 2.41879 2.19458 0
M  V30 7640 H 663.527 3.63882 0.445549 0
M  V30 7641 H 663.175 4.12905 2.8726 0
M  V30 7642 H 662.875 5.57057 1.86978 0
M  V30 7643 H 664.399 5.43048 2.79162 0
M  V30 7644 H 665.813 5.70778 0.537176 0
M  V30 7645 H 664.21 5.9977 -0.198977 0
M  V30 7646 H 665.28 4.76611 -0.892736 0
M  V30 7647 N 666.623 0.143563 1.56945 0
M  V30 7648 C 667.533 -0.810562 2.20152 0
M  V30 7649 C 668.549 -1.27431 1.1848 0
M  V30 7650 O 669.725 -1.33221 1.51044 0
M  V30 7651 C 666.79 -2.03353 2.80799 0
M  V30 7652 C 665.851 -1.61936 3.97587 0
M  V30 7653 C 665.084 -2.78403 4.55332 0
M  V30 7654 O 665.307 -3.94521 4.11958 0
M  V30 7655 O 664.241 -2.54073 5.45647 0
M  V30 7656 H 668.067 -0.30253 3.02189 0
M  V30 7657 H 665.652 -0.0832925 1.49168 0
M  V30 7658 H 667.534 -2.74932 3.19359 0
M  V30 7659 H 666.209 -2.53116 2.01777 0
M  V30 7660 H 665.116 -0.873904 3.6375 0
M  V30 7661 H 666.449 -1.16892 4.78118 0
M  V30 7662 N 668.101 -1.57061 -0.130224 0
M  V30 7663 C 669.011 -2.02802 -1.17934 0
M  V30 7664 C 670.027 -0.946378 -1.46013 0
M  V30 7665 O 671.203 -1.25708 -1.57351 0
M  V30 7666 C 668.268 -2.41368 -2.48882 0
M  V30 7667 C 667.329 -3.63561 -2.28301 0
M  V30 7668 C 666.562 -4.00279 -3.53005 0
M  V30 7669 O 666.785 -3.37463 -4.59864 0
M  V30 7670 O 665.719 -4.93441 -3.44673 0
M  V30 7671 H 669.545 -2.92394 -0.820958 0
M  V30 7672 H 667.13 -1.45475 -0.340197 0
M  V30 7673 H 669.012 -2.66958 -3.26054 0
M  V30 7674 H 667.687 -1.54926 -2.84217 0
M  V30 7675 H 666.594 -3.43136 -1.49025 0
M  V30 7676 H 667.927 -4.50673 -1.97875 0
M  V30 7677 N 669.579 0.400081 -1.52437 0
M  V30 7678 C 670.509 1.4947 -1.7939 0
M  V30 7679 C 671.49 1.57383 -0.645329 0
M  V30 7680 O 672.675 1.72511 -0.891826 0
M  V30 7681 C 669.805 2.87201 -1.95276 0
M  V30 7682 C 668.759 2.94134 -3.10917 0
M  V30 7683 C 668.085 4.34207 -3.1204 0
M  V30 7684 C 669.385 2.64791 -4.50203 0
M  V30 7685 H 671.079 1.27165 -2.71052 0
M  V30 7686 H 668.625 0.610312 -1.30427 0
M  V30 7687 H 670.578 3.63772 -2.12715 0
M  V30 7688 H 669.302 3.10819 -1.00294 0
M  V30 7689 H 667.961 2.20009 -2.93243 0
M  V30 7690 H 667.609 4.54848 -2.14761 0
M  V30 7691 H 667.309 4.39768 -3.89715 0
M  V30 7692 H 668.833 5.127 -3.31619 0
M  V30 7693 H 670.247 3.31083 -4.68035 0
M  V30 7694 H 668.644 2.81717 -5.29864 0
M  V30 7695 H 669.714 1.60184 -4.57678 0
M  V30 7696 N 671.057 1.43213 0.657864 0
M  V30 7697 C 671.987 1.50815 1.78262 0
M  V30 7698 C 672.968 0.363211 1.66177 0
M  V30 7699 O 674.153 0.579806 1.85343 0
M  V30 7700 C 671.283 1.42625 3.16663 0
M  V30 7701 C 670.237 2.5532 3.43505 0
M  V30 7702 C 669.563 2.32184 4.81658 0
M  V30 7703 C 670.863 3.97583 3.38711 0
M  V30 7704 H 672.557 2.44954 1.72157 0
M  V30 7705 H 670.103 1.17896 0.82683 0
M  V30 7706 H 672.056 1.46548 3.95097 0
M  V30 7707 H 670.78 0.449877 3.23487 0
M  V30 7708 H 669.439 2.50742 2.6744 0
M  V30 7709 H 669.087 1.32801 4.85153 0
M  V30 7710 H 668.787 3.07724 5.00579 0
M  V30 7711 H 670.311 2.37883 5.62356 0
M  V30 7712 H 671.725 4.03673 4.07089 0
M  V30 7713 H 670.122 4.73112 3.69168 0
M  V30 7714 H 671.192 4.23049 2.36976 0
M  V30 7715 N 672.536 -0.895792 1.29666 0
M  V30 7716 C 673.484 -2.02173 1.15017 0
M  V30 7717 C 674.478 -1.69276 0.0647651 0
M  V30 7718 O 675.684 -1.7859 0.224846 0
M  V30 7719 H 672.059 -0.662719 0.355397 0
M  V30 7720 H 674.03 -2.11666 2.10334 0
M  V30 7721 C 672.779 -3.37212 0.847555 0
M  V30 7722 H 672.102 -3.6303 1.67479 0
M  V30 7723 H 673.542 -4.16668 0.785106 0
M  V30 7724 C 672.001 -3.33891 -0.44929 0
M  V30 7725 O 672.531 -3.73673 -1.47415 0
M  V30 7726 N 670.737 -2.86991 -0.456547 0
M  V30 7727 H 670.284 -2.54813 0.377925 0
M  V30 7728 H 670.242 -2.85152 -1.32423 0
M  V30 7729 N 674.014 -1.12206 -1.10668 0
M  V30 7730 C 674.962 -0.782918 -2.19028 0
M  V30 7731 C 675.956 0.229175 -1.67843 0
M  V30 7732 O 677.162 0.0876295 -1.79787 0
M  V30 7733 H 673.537 -0.235339 -0.714227 0
M  V30 7734 H 675.508 -1.70527 -2.44874 0
M  V30 7735 C 674.257 -0.25116 -3.46792 0
M  V30 7736 H 673.58 -1.02123 -3.86537 0
M  V30 7737 H 675.02 -0.0521409 -4.23968 0
M  V30 7738 C 673.479 1.02037 -3.21076 0
M  V30 7739 O 674.009 2.09862 -3.42522 0
M  V30 7740 N 672.215 0.946348 -2.74759 0
M  V30 7741 H 671.762 0.068777 -2.57508 0
M  V30 7742 H 671.72 1.79775 -2.57931 0
M  V30 7743 N 675.492 1.28418 -0.913599 0
M  V30 7744 C 676.402 2.31043 -0.406965 0
M  V30 7745 C 677.418 1.66501 0.505298 0
M  V30 7746 O 678.594 1.97558 0.391522 0
M  V30 7747 C 675.659 3.4498 0.344901 0
M  V30 7748 C 674.72 4.25078 -0.600563 0
M  V30 7749 C 673.953 5.33575 0.115516 0
M  V30 7750 O 674.176 5.54503 1.33727 0
M  V30 7751 O 673.11 5.9939 -0.549095 0
M  V30 7752 H 676.936 2.76387 -1.25873 0
M  V30 7753 H 674.521 1.33109 -0.678415 0
M  V30 7754 H 676.403 4.14314 0.769542 0
M  V30 7755 H 675.078 3.01719 1.1725 0
M  V30 7756 H 673.985 3.58334 -1.0746 0
M  V30 7757 H 675.318 4.72018 -1.39497 0
M  V30 7758 N 676.97 0.677563 1.42291 0
M  V30 7759 C 678.2 0.209155 2.05539 0
M  V30 7760 C 678.608 -1.13987 1.51009 0
M  V30 7761 O 677.951 -1.71976 0.645764 0
M  V30 7762 C 678.013 0.0697758 3.59432 0
M  V30 7763 C 677.677 1.34795 4.36668 0
M  V30 7764 C 678.674 2.28201 4.67141 0
M  V30 7765 C 676.359 1.59632 4.76259 0
M  V30 7766 C 678.353 3.44718 5.36142 0
M  V30 7767 C 676.04 2.76437 5.45 0
M  V30 7768 C 677.038 3.68805 5.74867 0
M  V30 7769 O 676.726 4.83567 6.42198 0
M  V30 7770 H 676.458 0.0986202 0.668768 0
M  V30 7771 H 679.012 0.925483 1.83368 0
M  V30 7772 H 677.242 -0.702157 3.80272 0
M  V30 7773 H 678.931 -0.359115 4.04308 0
M  V30 7774 H 679.697 2.10264 4.37052 0
M  V30 7775 H 675.576 0.886073 4.52404 0
M  V30 7776 H 679.12 4.16833 5.59371 0
M  V30 7777 H 675.017 2.94299 5.74507 0
M  V30 7778 H 675.785 4.83147 6.6069 0
M  V30 7779 N 678.448 -1.51871 0.421078 0
M  V30 7780 C 679.688 -2.03848 -0.150167 0
M  V30 7781 C 680.052 -1.29925 -1.41363 0
M  V30 7782 O 681.253 -1.7219 -2.06408 0
M  V30 7783 C 679.524 -3.55374 -0.38003 0
M  V30 7784 S 681.083 -4.29111 -0.917011 0
M  V30 7785 H 677.901 -0.709904 -0.0394639 0
M  V30 7786 H 680.503 -1.86799 0.576746 0
M  V30 7787 H 679.207 -4.0675 0.546122 0
M  V30 7788 H 678.738 -3.76687 -1.13448 0
M  V30 7789 H 680.753 -4.44944 -2.19635 0
M  V30 7790 N 679.926 -0.151884 -1.56866 0
M  V30 7791 C 680.873 0.785936 -2.17006 0
M  V30 7792 C 681.843 1.2407 -1.10435 0
M  V30 7793 O 683.028 1.31235 -1.38499 0
M  V30 7794 C 680.168 2.01771 -2.79969 0
M  V30 7795 C 679.281 1.6083 -4.00946 0
M  V30 7796 C 678.416 2.79224 -4.51893 0
M  V30 7797 C 677.455 2.3468 -5.65324 0
M  V30 7798 N 676.592 3.461 -6.10867 0
M  V30 7799 H 681.432 0.266286 -2.96808 0
M  V30 7800 H 678.969 0.11972 -1.46612 0
M  V30 7801 H 680.927 2.73989 -3.14621 0
M  V30 7802 H 679.557 2.51139 -2.02803 0
M  V30 7803 H 678.609 0.783592 -3.72242 0
M  V30 7804 H 679.921 1.24119 -4.83111 0
M  V30 7805 H 679.075 3.59625 -4.88625 0
M  V30 7806 H 677.814 3.19183 -3.68746 0
M  V30 7807 H 676.819 1.52721 -5.28163 0
M  V30 7808 H 678.044 1.95801 -6.5026 0
M  V30 7809 H 675.99 3.85671 -5.30654 0
M  V30 7810 H 675.907 3.1342 -6.87971 0
M  V30 7811 H 677.175 4.26844 -6.52246 0
M  V30 7812 N 681.404 1.57128 0.121893 0
M  V30 7813 C 682.634 1.88609 0.843227 0
M  V30 7814 C 683.042 0.740917 1.74089 0
M  V30 7815 O 682.385 -0.297426 1.81276 0
M  V30 7816 C 682.447 3.15073 1.73117 0
M  V30 7817 C 682.111 4.45742 1.0081 0
M  V30 7818 C 683.108 5.18719 0.350255 0
M  V30 7819 C 680.793 4.92444 0.99014 0
M  V30 7820 C 682.787 6.36617 -0.315889 0
M  V30 7821 C 680.474 6.10261 0.320196 0
M  V30 7822 C 681.472 6.82194 -0.331666 0
M  V30 7823 O 681.16 7.97769 -0.990927 0
M  V30 7824 H 680.892 0.628919 0.247865 0
M  V30 7825 H 683.446 2.05096 0.111725 0
M  V30 7826 H 681.676 2.9466 2.50424 0
M  V30 7827 H 683.365 3.32597 2.32667 0
M  V30 7828 H 684.131 4.83693 0.35577 0
M  V30 7829 H 680.01 4.36361 1.48695 0
M  V30 7830 H 683.554 6.92701 -0.825272 0
M  V30 7831 H 679.451 6.44743 0.312433 0
M  V30 7832 H 680.219 8.13591 -0.895113 0
M  V30 7833 N 682.882 -0.391992 1.52647 0
M  V30 7834 C 683.829 -1.47866 1.77213 0
M  V30 7835 C 684.799 -1.54286 0.615223 0
M  V30 7836 O 685.984 -1.7059 0.854622 0
M  V30 7837 C 683.124 -2.85129 1.94411 0
M  V30 7838 C 682.237 -2.87883 3.22098 0
M  V30 7839 C 681.372 -4.16553 3.29631 0
M  V30 7840 C 680.411 -4.13348 4.51453 0
M  V30 7841 N 679.548 -5.33619 4.56284 0
M  V30 7842 H 684.388 -1.26219 2.6995 0
M  V30 7843 H 681.925 -0.612367 1.33748 0
M  V30 7844 H 683.883 -3.64833 2.02367 0
M  V30 7845 H 682.513 -3.05232 1.05038 0
M  V30 7846 H 681.565 -2.00567 3.23229 0
M  V30 7847 H 682.877 -2.81382 4.11856 0
M  V30 7848 H 682.031 -5.0466 3.36753 0
M  V30 7849 H 680.77 -4.25773 2.37842 0
M  V30 7850 H 679.775 -3.23629 4.44459 0
M  V30 7851 H 681 -4.05754 5.44555 0
M  V30 7852 H 678.946 -5.43474 3.67385 0
M  V30 7853 H 678.863 -5.29182 5.3991 0
M  V30 7854 H 680.131 -6.23632 4.67657 0
M  V30 7855 N 684.36 -1.4356 -0.65026 0
M  V30 7856 C 685.59 -1.48563 -1.4357 0
M  V30 7857 C 685.998 -0.103041 -1.88919 0
M  V30 7858 O 685.341 0.897602 -1.60277 0
M  V30 7859 C 685.403 -2.37181 -2.70158 0
M  V30 7860 C 685.067 -3.84673 -2.4673 0
M  V30 7861 C 686.064 -4.75704 -2.09765 0
M  V30 7862 C 683.749 -4.29189 -2.60963 0
M  V30 7863 C 685.743 -6.09249 -1.87334 0
M  V30 7864 C 683.43 -5.62787 -2.38147 0
M  V30 7865 C 684.428 -6.52634 -2.01389 0
M  V30 7866 O 684.116 -7.83761 -1.78813 0
M  V30 7867 H 683.848 -0.506743 -0.447423 0
M  V30 7868 H 686.402 -1.89001 -0.80423 0
M  V30 7869 H 684.632 -1.91636 -3.35876 0
M  V30 7870 H 686.321 -2.33354 -3.32116 0
M  V30 7871 H 687.087 -4.42589 -1.98343 0
M  V30 7872 H 682.966 -3.59529 -2.88548 0
M  V30 7873 H 686.51 -6.7934 -1.58567 0
M  V30 7874 H 682.407 -5.95469 -2.49173 0
M  V30 7875 H 683.175 -7.95368 -1.93214 0
M  V30 7876 N 685.838 0.888903 -1.30139 0
M  V30 7877 C 687.086 1.63713 -1.18501 0
M  V30 7878 C 687.407 1.9324 0.261399 0
M  V30 7879 O 686.677 1.56608 1.17689 0
M  V30 7880 H 685.257 0.606861 -0.435579 0
M  V30 7881 H 687.919 1.06525 -1.63213 0
M  V30 7882 H 687.015 2.58894 -1.743 0
M  V30 7883 N 687.317 1.12792 1.10072 0
M  V30 7884 C 688.28 0.802264 2.14701 0
M  V30 7885 C 689.28 -0.18515 1.59731 0
M  V30 7886 O 690.47 0.041109 1.74151 0
M  V30 7887 C 687.602 0.19285 3.40354 0
M  V30 7888 H 688.795 1.72932 2.45019 0
M  V30 7889 H 686.348 0.931662 1.25498 0
M  V30 7890 H 687.083 -0.743748 3.15656 0
M  V30 7891 H 686.868 0.903827 3.81541 0
M  V30 7892 H 688.358 -0.0183704 4.17596 0
M  V30 7893 N 688.795 -1.27931 0.920396 0
M  V30 7894 C 689.725 -2.29487 0.431024 0
M  V30 7895 C 690.706 -1.62435 -0.504861 0
M  V30 7896 O 691.891 -1.89797 -0.411176 0
M  V30 7897 C 689.021 -3.45788 -0.323709 0
M  V30 7898 C 687.975 -4.24784 0.523658 0
M  V30 7899 C 687.301 -5.33488 -0.359809 0
M  V30 7900 C 688.601 -4.90874 1.78437 0
M  V30 7901 H 690.295 -2.70671 1.27975 0
M  V30 7902 H 687.841 -1.30121 0.616813 0
M  V30 7903 H 689.794 -4.15927 -0.676952 0
M  V30 7904 H 688.518 -3.03502 -1.2064 0
M  V30 7905 H 687.177 -3.56382 0.85951 0
M  V30 7906 H 686.825 -4.87445 -1.24124 0
M  V30 7907 H 686.525 -5.87247 0.203605 0
M  V30 7908 H 688.049 -6.06472 -0.708787 0
M  V30 7909 H 689.463 -5.53339 1.49963 0
M  V30 7910 H 687.86 -5.54659 2.29071 0
M  V30 7911 H 688.93 -4.14988 2.50824 0
M  V30 7912 N 690.273 -0.685099 -1.4193 0
M  V30 7913 C 691.22 -0.0131869 -2.30796 0
M  V30 7914 C 692.19 0.782129 -1.46533 0
M  V30 7915 O 693.375 0.75229 -1.75343 0
M  V30 7916 C 690.515 0.924768 -3.32479 0
M  V30 7917 C 689.628 0.122181 -4.31827 0
M  V30 7918 C 688.763 1.05682 -5.20581 0
M  V30 7919 C 687.802 0.246526 -6.11603 0
M  V30 7920 N 686.939 1.13442 -6.92875 0
M  V30 7921 H 691.779 -0.776789 -2.87698 0
M  V30 7922 H 689.316 -0.394791 -1.41703 0
M  V30 7923 H 691.274 1.48251 -3.89971 0
M  V30 7924 H 689.904 1.65488 -2.77152 0
M  V30 7925 H 688.956 -0.552335 -3.76369 0
M  V30 7926 H 690.268 -0.506473 -4.96222 0
M  V30 7927 H 689.422 1.68415 -5.82856 0
M  V30 7928 H 688.161 1.71935 -4.56388 0
M  V30 7929 H 687.166 -0.393944 -5.48387 0
M  V30 7930 H 688.391 -0.412053 -6.77849 0
M  V30 7931 H 686.337 1.78316 -6.313 0
M  V30 7932 H 686.254 0.561089 -7.53915 0
M  V30 7933 H 687.522 1.74889 -7.59628 0
M  V30 7934 N 691.751 1.51645 -0.429126 0
M  V30 7935 C 693 2.01203 0.141538 0
M  V30 7936 C 693.313 1.31828 1.44502 0
M  V30 7937 O 694.519 1.7231 2.09813 0
M  V30 7938 C 692.975 3.58624 0.302786 0
M  V30 7939 C 692.583 4.3693 -0.989775 0
M  V30 7940 C 694.327 4.16353 0.827661 0
M  V30 7941 C 692.234 5.86037 -0.794619 0
M  V30 7942 H 691.164 0.751867 0.05667 0
M  V30 7943 H 693.815 1.74822 -0.557633 0
M  V30 7944 H 692.197 3.81417 1.06476 0
M  V30 7945 H 693.371 4.25887 -1.75945 0
M  V30 7946 H 691.686 3.90614 -1.44256 0
M  V30 7947 H 694.283 5.25455 0.990026 0
M  V30 7948 H 694.626 3.74995 1.80787 0
M  V30 7949 H 695.159 3.97606 0.124213 0
M  V30 7950 H 691.898 6.31792 -1.74697 0
M  V30 7951 H 691.418 5.99765 -0.0645968 0
M  V30 7952 H 693.097 6.45471 -0.444591 0
M  V30 7953 N 693.229 0.160201 1.56784 0
M  V30 7954 C 694.159 -0.770264 2.2043 0
M  V30 7955 C 695.14 -1.24736 1.15651 0
M  V30 7956 O 696.325 -1.30253 1.44041 0
M  V30 7957 C 693.455 -2.00427 2.83631 0
M  V30 7958 C 692.409 -1.66345 3.94352 0
M  V30 7959 C 691.735 -2.97119 4.4455 0
M  V30 7960 C 693.035 -0.899972 5.14488 0
M  V30 7961 H 694.729 -0.239783 2.98438 0
M  V30 7962 H 692.275 -0.113891 1.43549 0
M  V30 7963 H 694.228 -2.66012 3.26827 0
M  V30 7964 H 692.952 -2.5587 2.02973 0
M  V30 7965 H 691.611 -1.03133 3.51794 0
M  V30 7966 H 691.259 -3.5058 3.60698 0
M  V30 7967 H 690.959 -2.75073 5.19238 0
M  V30 7968 H 692.483 -3.63753 4.90425 0
M  V30 7969 H 693.897 -1.45818 5.54446 0
M  V30 7970 H 692.294 -0.778968 5.95023 0
M  V30 7971 H 693.364 0.105827 4.84785 0
M  V30 7972 N 694.707 -1.5719 -0.113559 0
M  V30 7973 C 695.617 -2.04041 -1.15777 0
M  V30 7974 C 696.633 -0.961812 -1.45001 0
M  V30 7975 O 697.809 -1.2737 -1.56009 0
M  V30 7976 C 694.874 -2.43994 -2.46308 0
M  V30 7977 C 693.935 -3.65962 -2.24433 0
M  V30 7978 C 693.168 -4.04 -3.4874 0
M  V30 7979 O 693.391 -3.42321 -4.56259 0
M  V30 7980 O 692.325 -4.97069 -3.3942 0
M  V30 7981 H 696.151 -2.93248 -0.789899 0
M  V30 7982 H 693.736 -1.45828 -0.324748 0
M  V30 7983 H 695.618 -2.70401 -3.23204 0
M  V30 7984 H 694.293 -1.57932 -2.82558 0
M  V30 7985 H 693.2 -3.44697 -1.45377 0
M  V30 7986 H 694.533 -4.52746 -1.93084 0
M  V30 7987 N 696.185 0.383891 -1.52853 0
M  V30 7988 C 697.425 1.13731 -1.69837 0
M  V30 7989 C 697.789 1.87086 -0.431611 0
M  V30 7990 O 698.99 2.64518 -0.477886 0
M  V30 7991 C 697.261 2.08551 -2.90243 0
M  V30 7992 S 698.82 2.9166 -3.27841 0
M  V30 7993 H 695.638 0.384911 -0.5978 0
M  V30 7994 H 698.24 0.42103 -1.90913 0
M  V30 7995 H 696.944 1.53392 -3.80656 0
M  V30 7996 H 696.475 2.8468 -2.71516 0
M  V30 7997 H 698.49 4.10723 -2.78426 0
M  V30 7998 N 697.663 1.43903 0.642637 0
M  V30 7999 C 698.593 1.52697 1.76652 0
M  V30 8000 C 699.574 0.380816 1.65782 0
M  V30 8001 O 700.759 0.599432 1.84717 0
M  V30 8002 C 697.889 1.45975 3.15133 0
M  V30 8003 C 696.843 2.58949 3.40778 0
M  V30 8004 C 696.169 2.37279 4.79169 0
M  V30 8005 C 697.469 4.01153 3.34475 0
M  V30 8006 H 699.163 2.46766 1.69549 0
M  V30 8007 H 696.709 1.18767 0.814279 0
M  V30 8008 H 698.662 1.5073 3.93521 0
M  V30 8009 H 697.386 0.484162 3.22991 0
M  V30 8010 H 696.045 2.53564 2.64765 0
M  V30 8011 H 695.693 1.37939 4.83717 0
M  V30 8012 H 695.393 3.13016 4.97287 0
M  V30 8013 H 696.917 2.43834 5.59801 0
M  V30 8014 H 698.331 4.07968 4.02784 0
M  V30 8015 H 696.728 4.77001 3.64129 0
M  V30 8016 H 697.798 4.25539 2.32475 0
M  V30 8017 N 699.141 -0.881989 1.30609 0
M  V30 8018 C 700.371 -1.66469 1.22359 0
M  V30 8019 C 700.779 -1.87969 -0.215507 0
M  V30 8020 O 700.122 -1.42938 -1.15388 0
M  V30 8021 C 700.184 -3.06135 1.88472 0
M  V30 8022 C 699.848 -3.07795 3.37804 0
M  V30 8023 C 700.845 -2.86633 4.33749 0
M  V30 8024 C 698.53 -3.29297 3.793 0
M  V30 8025 C 700.524 -2.86934 5.69164 0
M  V30 8026 C 698.211 -3.29228 5.14832 0
M  V30 8027 C 699.209 -3.08071 6.09574 0
M  V30 8028 O 698.897 -3.07824 7.4263 0
M  V30 8029 H 698.629 -0.526129 0.424458 0
M  V30 8030 H 701.183 -1.11004 1.72821 0
M  V30 8031 H 699.413 -3.63276 1.32543 0
M  V30 8032 H 701.102 -3.66571 1.74301 0
M  V30 8033 H 701.868 -2.69814 4.0302 0
M  V30 8034 H 697.747 -3.44799 3.05998 0
M  V30 8035 H 701.291 -2.70339 6.43088 0
M  V30 8036 H 697.188 -3.45583 5.452 0
M  V30 8037 H 697.956 -3.2397 7.51656 0
M  V30 8038 N 700.619 -1.13374 -1.09472 0
M  V30 8039 C 701.567 -0.806105 -2.18185 0
M  V30 8040 C 702.561 0.21136 -1.68076 0
M  V30 8041 O 703.767 0.0685558 -1.79869 0
M  V30 8042 H 700.142 -0.242901 -0.71169 0
M  V30 8043 H 702.113 -1.73115 -2.43051 0
M  V30 8044 C 700.862 -0.287928 -3.46506 0
M  V30 8045 H 700.185 -1.06217 -3.85432 0
M  V30 8046 H 701.625 -0.0971054 -4.23889 0
M  V30 8047 C 700.084 0.986256 -3.22141 0
M  V30 8048 O 700.614 2.06217 -3.44728 0
M  V30 8049 N 698.82 0.917153 -2.75747 0
M  V30 8050 H 698.367 0.0414609 -2.57567 0
M  V30 8051 H 698.325 1.77029 -2.59823 0
M  V30 8052 N 702.098 1.27442 -0.927168 0
M  V30 8053 C 703.514 1.46754 -0.627329 0
M  V30 8054 C 703.714 1.83902 0.823549 0
M  V30 8055 O 702.77 1.95215 1.60148 0
M  V30 8056 C 704.083 2.56045 -1.57674 0
M  V30 8057 C 705.631 2.69906 -1.58491 0
M  V30 8058 C 706.106 3.82355 -2.52128 0
M  V30 8059 N 707.597 3.89728 -2.50332 0
M  V30 8060 C 708.332 4.76155 -3.19475 0
M  V30 8061 N 707.828 5.67073 -3.97995 0
M  V30 8062 N 709.621 4.6988 -3.08496 0
M  V30 8063 H 701.772 1.01613 -1.86517 0
M  V30 8064 H 704.035 0.507443 -0.800753 0
M  V30 8065 H 703.741 2.35542 -2.61176 0
M  V30 8066 H 703.615 3.53423 -1.31804 0
M  V30 8067 H 706.002 2.89792 -0.557208 0
M  V30 8068 H 706.083 1.73018 -1.8841 0
M  V30 8069 H 705.727 3.63224 -3.55008 0
M  V30 8070 H 705.657 4.7867 -2.19505 0
M  V30 8071 H 708.148 3.24717 -1.93306 0
M  V30 8072 H 708.461 6.2988 -4.4774 0
M  V30 8073 H 706.806 5.6687 -4.02098 0
M  V30 8074 H 709.997 3.97848 -2.46646 0
M  V30 8075 H 710.17 5.37017 -3.62652 0
M  V30 8076 N 703.576 0.692616 1.41565 0
M  V30 8077 C 704.506 0.0397325 2.33466 0
M  V30 8078 C 705.487 -0.770334 1.51657 0
M  V30 8079 O 706.672 -0.723903 1.80203 0
M  V30 8080 C 703.802 -0.899495 3.3545 0
M  V30 8081 C 702.756 -0.196738 4.27548 0
M  V30 8082 C 702.082 -1.25012 5.19881 0
M  V30 8083 C 703.382 0.935158 5.1386 0
M  V30 8084 H 705.076 0.807296 2.88311 0
M  V30 8085 H 702.622 0.389665 1.38628 0
M  V30 8086 H 704.575 -1.36545 3.98665 0
M  V30 8087 H 703.299 -1.69869 2.78948 0
M  V30 8088 H 701.958 0.249158 3.65752 0
M  V30 8089 H 701.606 -2.04177 4.59696 0
M  V30 8090 H 701.306 -0.784931 5.82334 0
M  V30 8091 H 702.83 -1.71665 5.85972 0
M  V30 8092 H 704.244 0.549619 5.70659 0
M  V30 8093 H 702.641 1.32726 5.85238 0
M  V30 8094 H 703.711 1.77613 4.512 0
M  V30 8095 N 705.054 -1.51416 0.437162 0
M  V30 8096 C 706.294 -2.03995 -0.128538 0
M  V30 8097 C 706.658 -1.31417 -1.39977 0
M  V30 8098 O 707.859 -1.74369 -2.0457 0
M  V30 8099 C 706.13 -3.55757 -0.342317 0
M  V30 8100 S 707.689 -4.3006 -0.871446 0
M  V30 8101 H 704.507 -0.710283 -0.0319322 0
M  V30 8102 H 707.109 -1.86177 0.596526 0
M  V30 8103 H 705.813 -4.06148 0.589233 0
M  V30 8104 H 705.344 -3.77869 -1.09447 0
M  V30 8105 H 707.359 -4.47248 -2.14903 0
M  V30 8106 N 706.532 -0.168513 -1.56696 0
M  V30 8107 C 707.809 0.523367 -1.88468 0
M  V30 8108 C 708.189 1.81503 -1.07796 0
M  V30 8109 O 707.537 2.27859 -0.171045 0
M  V30 8110 C 707.747 0.767991 -3.40445 0
M  V30 8111 C 709.095 1.09924 -4.10124 0
M  V30 8112 O 710.119 0.856625 -3.45746 0
M  V30 8113 O 708.978 1.55681 -5.23856 0
M  V30 8114 H 706.072 0.269447 -0.781874 0
M  V30 8115 H 708.618 -0.206739 -1.68436 0
M  V30 8116 H 707.39 -0.145254 -3.9103 0
M  V30 8117 H 707.013 1.55151 -3.66079 0
M  V30 8118 N 708.01 1.57248 0.105221 0
M  V30 8119 C 708.957 2.01338 1.12835 0
M  V30 8120 C 709.927 0.887897 1.40377 0
M  V30 8121 O 711.112 1.15315 1.5201 0
M  V30 8122 C 708.252 2.43432 2.44611 0
M  V30 8123 C 707.365 3.69457 2.23888 0
M  V30 8124 C 706.5 4.00473 3.48991 0
M  V30 8125 C 705.539 5.19638 3.23485 0
M  V30 8126 N 704.676 5.46457 4.40828 0
M  V30 8127 H 709.516 2.88527 0.745386 0
M  V30 8128 H 707.053 1.42714 0.356535 0
M  V30 8129 H 709.011 2.65879 3.21503 0
M  V30 8130 H 707.641 1.59266 2.80774 0
M  V30 8131 H 706.693 3.54545 1.37847 0
M  V30 8132 H 708.005 4.56497 2.01026 0
M  V30 8133 H 707.159 4.23642 4.34295 0
M  V30 8134 H 705.898 3.11935 3.74897 0
M  V30 8135 H 704.903 4.96299 2.36574 0
M  V30 8136 H 706.128 6.09766 2.98935 0
M  V30 8137 H 704.074 4.60876 4.66829 0
M  V30 8138 H 703.991 6.27849 4.2112 0
M  V30 8139 H 705.259 5.74155 5.27225 0
M  V30 8140 N 709.488 -0.375779 1.53054 0
M  V30 8141 C 710.435 -1.45978 1.78771 0
M  V30 8142 C 711.405 -1.53625 0.631552 0
M  V30 8143 O 712.59 -1.69674 0.872667 0
M  V30 8144 C 709.73 -2.8305 1.97425 0
M  V30 8145 C 708.843 -2.84451 3.25134 0
M  V30 8146 C 707.978 -4.13034 3.34031 0
M  V30 8147 C 707.017 -4.08536 4.55812 0
M  V30 8148 N 706.154 -5.2875 4.61918 0
M  V30 8149 H 710.994 -1.23349 2.71273 0
M  V30 8150 H 708.531 -0.598147 1.3439 0
M  V30 8151 H 710.489 -3.62666 2.06225 0
M  V30 8152 H 709.119 -3.04101 1.0827 0
M  V30 8153 H 708.171 -1.97127 3.25338 0
M  V30 8154 H 709.483 -2.76998 4.14818 0
M  V30 8155 H 708.637 -5.0106 3.42087 0
M  V30 8156 H 707.376 -4.23226 2.42345 0
M  V30 8157 H 706.381 -3.18897 4.47867 0
M  V30 8158 H 707.606 -3.99955 5.48828 0
M  V30 8159 H 705.552 -5.39547 3.73129 0
M  V30 8160 H 705.469 -5.23426 5.45492 0
M  V30 8161 H 706.737 -6.18637 4.74245 0
M  V30 8162 N 710.966 -1.44241 -0.634997 0
M  V30 8163 C 712.382 -1.28043 -0.952742 0
M  V30 8164 C 712.582 -0.21338 -2.00367 0
M  V30 8165 O 711.638 0.402042 -2.49279 0
M  V30 8166 C 712.951 -2.65076 -1.41968 0
M  V30 8167 C 714.499 -2.72755 -1.53537 0
M  V30 8168 C 714.974 -4.10249 -2.03616 0
M  V30 8169 N 716.465 -4.12406 -2.10892 0
M  V30 8170 C 717.2 -5.15641 -2.50803 0
M  V30 8171 N 716.696 -6.29239 -2.89879 0
M  V30 8172 N 718.489 -5.02995 -2.50903 0
M  V30 8173 H 710.64 -2.12315 0.060098 0
M  V30 8174 H 712.903 -0.947326 -0.0357325 0
M  V30 8175 H 712.609 -3.44213 -0.721804 0
M  V30 8176 H 712.483 -2.91704 -2.39141 0
M  V30 8177 H 714.87 -1.93939 -2.22422 0
M  V30 8178 H 714.951 -2.49872 -0.547496 0
M  V30 8179 H 714.595 -4.8954 -1.35327 0
M  V30 8180 H 714.525 -4.30507 -3.03268 0
M  V30 8181 H 717.016 -3.30417 -1.83393 0
M  V30 8182 H 717.329 -7.03827 -3.19135 0
M  V30 8183 H 715.674 -6.32683 -2.8764 0
M  V30 8184 H 718.865 -4.13306 -2.19763 0
M  V30 8185 H 719.038 -5.83574 -2.81683 0
M  V30 8186 N 712.444 0.87505 -1.31075 0
M  V30 8187 C 713.392 2.00317 -1.18219 0
M  V30 8188 C 714.386 1.69152 -0.0916872 0
M  V30 8189 O 715.592 1.7821 -0.253229 0
M  V30 8190 H 711.967 0.656981 -0.365895 0
M  V30 8191 H 713.938 2.08293 -2.13674 0
M  V30 8192 C 712.687 3.35821 -0.901095 0
M  V30 8193 H 712.01 3.6032 -1.73233 0
M  V30 8194 H 713.45 4.15366 -0.851295 0
M  V30 8195 C 711.909 3.34563 0.396114 0
M  V30 8196 O 712.439 3.75971 1.41452 0
M  V30 8197 N 710.645 2.87681 0.410832 0
M  V30 8198 H 710.192 2.54179 -0.418415 0
M  V30 8199 H 710.15 2.87223 1.27869 0
M  V30 8200 N 713.922 1.13953 1.08869 0
M  V30 8201 C 714.855 0.765765 2.14968 0
M  V30 8202 C 715.833 -0.250689 1.60656 0
M  V30 8203 O 717.017 -0.140852 1.87973 0
M  V30 8204 C 714.144 0.136146 3.38426 0
M  V30 8205 C 713.19 1.12201 4.11477 0
M  V30 8206 S 714.023 2.65711 4.64928 0
M  V30 8207 C 715.179 2.04125 5.91679 0
M  V30 8208 H 715.412 1.66444 2.46341 0
M  V30 8209 H 712.945 0.960263 1.20906 0
M  V30 8210 H 714.903 -0.220712 4.09906 0
M  V30 8211 H 713.564 -0.739887 3.05261 0
M  V30 8212 H 712.757 0.629398 5.00055 0
M  V30 8213 H 712.359 1.42262 3.45886 0
M  V30 8214 H 714.651 1.39381 6.63008 0
M  V30 8215 H 715.594 2.90808 6.45629 0
M  V30 8216 H 716.002 1.4905 5.44467 0
M  V30 8217 N 715.4 -1.26948 0.933913 0
M  V30 8218 C 716.348 -2.2862 0.428463 0
M  V30 8219 C 717.342 -1.62144 -0.490464 0
M  V30 8220 O 718.548 -1.76167 -0.36948 0
M  V30 8221 H 714.923 -0.742363 0.120003 0
M  V30 8222 H 716.894 -2.68659 1.29865 0
M  V30 8223 C 715.643 -3.46423 -0.29774 0
M  V30 8224 H 714.966 -3.97792 0.400183 0
M  V30 8225 H 716.406 -4.19505 -0.615736 0
M  V30 8226 C 714.865 -3.01017 -1.51295 0
M  V30 8227 O 715.395 -3.05226 -2.61151 0
M  V30 8228 N 713.601 -2.56442 -1.36696 0
M  V30 8229 H 713.148 -2.53217 -0.473178 0
M  V30 8230 H 713.106 -2.26424 -2.18127 0
M  V30 8231 N 716.879 -0.700114 -1.41195 0
M  V30 8232 C 718.128 -0.230082 -2.00383 0
M  V30 8233 C 718.441 1.17857 -1.56106 0
M  V30 8234 O 719.647 1.74631 -2.07885 0
M  V30 8235 C 718.103 -0.360447 -3.5809 0
M  V30 8236 C 717.711 -1.77475 -4.11347 0
M  V30 8237 C 719.455 0.0495799 -4.24471 0
M  V30 8238 C 717.362 -1.85653 -5.61504 0
M  V30 8239 H 716.292 -0.0822633 -0.749499 0
M  V30 8240 H 718.943 -0.868969 -1.6162 0
M  V30 8241 H 717.325 0.346768 -3.94479 0
M  V30 8242 H 718.499 -2.51109 -3.86369 0
M  V30 8243 H 716.814 -2.13486 -3.57509 0
M  V30 8244 H 719.411 0.00898219 -5.34699 0
M  V30 8245 H 719.754 1.08904 -4.01803 0
M  V30 8246 H 720.287 -0.607521 -3.93134 0
M  V30 8247 H 717.026 -2.87667 -5.89006 0
M  V30 8248 H 716.546 -1.1641 -5.88395 0
M  V30 8249 H 718.225 -1.62151 -6.26351 0
M  V30 8250 N 718.357 1.51182 -0.445186 0
M  V30 8251 C 719.267 2.31692 0.368255 0
M  V30 8252 C 720.283 1.40942 1.02036 0
M  V30 8253 O 721.459 1.74011 1.01401 0
M  V30 8254 C 718.524 3.14903 1.45041 0
M  V30 8255 C 717.585 4.21442 0.817615 0
M  V30 8256 C 716.818 5.00677 1.8482 0
M  V30 8257 O 717.041 4.80644 3.07145 0
M  V30 8258 O 715.975 5.84559 1.43438 0
M  V30 8259 H 719.801 3.0232 -0.289219 0
M  V30 8260 H 717.386 1.47951 -0.207555 0
M  V30 8261 H 719.268 3.66612 2.07783 0
M  V30 8262 H 717.943 2.47031 2.09182 0
M  V30 8263 H 716.85 3.73791 0.151931 0
M  V30 8264 H 718.183 4.9171 0.219564 0
M  V30 8265 N 719.835 0.176821 1.56605 0
M  V30 8266 C 720.767 -0.782836 2.15417 0
M  V30 8267 C 721.78 -1.18982 1.11117 0
M  V30 8268 O 722.969 -1.12872 1.38283 0
M  V30 8269 C 720.069 -2.06596 2.68647 0
M  V30 8270 C 719.242 -1.82167 3.9766 0
M  V30 8271 C 718.301 -2.94751 4.35899 0
M  V30 8272 O 717.327 -2.65148 5.03672 0
M  V30 8273 N 718.529 -4.2267 3.97907 0
M  V30 8274 H 721.294 -0.280012 2.98389 0
M  V30 8275 H 718.855 -0.00577529 1.61899 0
M  V30 8276 H 720.847 -2.81018 2.91223 0
M  V30 8277 H 719.417 -2.48054 1.90232 0
M  V30 8278 H 718.637 -0.916208 3.83405 0
M  V30 8279 H 719.925 -1.6322 4.81909 0
M  V30 8280 H 719.323 -4.4958 3.43357 0
M  V30 8281 H 717.88 -4.93778 4.25472 0
M  V30 8282 N 721.313 -1.57302 -0.09688 0
M  V30 8283 C 722.56 -1.85997 -0.800699 0
M  V30 8284 C 722.888 -0.765089 -1.7882 0
M  V30 8285 O 722.143 0.241492 -1.94204 0
M  V30 8286 C 722.442 -3.21272 -1.56586 0
M  V30 8287 C 722.108 -4.45104 -0.72064 0
M  V30 8288 C 720.77 -4.78723 -0.487632 0
M  V30 8289 C 723.122 -5.2103 -0.132948 0
M  V30 8290 C 720.45 -5.85697 0.34296 0
M  V30 8291 C 722.802 -6.28881 0.684957 0
M  V30 8292 C 721.466 -6.61017 0.928073 0
M  V30 8293 H 720.736 -0.680613 -0.292997 0
M  V30 8294 H 723.383 -1.91399 -0.0622474 0
M  V30 8295 H 721.688 -3.11547 -2.37583 0
M  V30 8296 H 723.385 -3.40702 -2.11478 0
M  V30 8297 H 719.975 -4.18777 -0.912359 0
M  V30 8298 H 724.159 -4.95392 -0.300132 0
M  V30 8299 H 719.415 -6.09008 0.540317 0
M  V30 8300 H 723.589 -6.86886 1.14721 0
M  V30 8301 H 721.216 -7.43738 1.57348 0
M  V30 8302 N 722.791 0.367657 -1.53252 0
M  V30 8303 C 723.721 1.45632 -1.8252 0
M  V30 8304 C 724.702 1.55979 -0.678568 0
M  V30 8305 O 725.887 1.70581 -0.928217 0
M  V30 8306 C 723.017 2.82994 -2.01325 0
M  V30 8307 C 721.971 2.87473 -3.17086 0
M  V30 8308 C 721.297 4.2749 -3.21179 0
M  V30 8309 C 722.597 2.55182 -4.55719 0
M  V30 8310 H 724.291 1.21387 -2.73689 0
M  V30 8311 H 721.837 0.58251 -1.31692 0
M  V30 8312 H 723.79 3.59179 -2.20383 0
M  V30 8313 H 722.514 3.08622 -1.06864 0
M  V30 8314 H 721.173 2.13739 -2.97844 0
M  V30 8315 H 720.821 4.5019 -2.24361 0
M  V30 8316 H 720.521 4.31403 -3.98955 0
M  V30 8317 H 722.045 5.0555 -3.42419 0
M  V30 8318 H 723.459 3.21081 -4.74953 0
M  V30 8319 H 721.856 2.70414 -5.3572 0
M  V30 8320 H 722.926 1.5044 -4.60973 0
M  V30 8321 N 724.269 1.44576 0.627338 0
M  V30 8322 C 725.216 1.51734 1.73912 0
M  V30 8323 C 726.186 0.364745 1.62046 0
M  V30 8324 O 727.371 0.575503 1.81914 0
M  V30 8325 C 724.511 1.47116 3.12171 0
M  V30 8326 C 723.624 2.72778 3.34986 0
M  V30 8327 C 722.759 2.59968 4.63239 0
M  V30 8328 C 721.798 3.80776 4.79245 0
M  V30 8329 N 720.935 3.66618 5.98778 0
M  V30 8330 H 725.775 2.46722 1.6713 0
M  V30 8331 H 723.312 1.22444 0.815224 0
M  V30 8332 H 725.27 1.42429 3.92135 0
M  V30 8333 H 723.9 0.556928 3.17959 0
M  V30 8334 H 722.952 2.87637 2.48936 0
M  V30 8335 H 724.264 3.62441 3.42692 0
M  V30 8336 H 723.418 2.53135 5.51369 0
M  V30 8337 H 722.157 1.67872 4.57898 0
M  V30 8338 H 721.162 3.87989 3.89544 0
M  V30 8339 H 722.387 4.73913 4.86398 0
M  V30 8340 H 720.333 2.77277 5.9452 0
M  V30 8341 H 720.25 4.499 6.07557 0
M  V30 8342 H 721.518 3.63684 6.89459 0
M  V30 8343 N 725.747 -0.868086 1.31537 0
M  V30 8344 C 726.975 -1.65402 1.24298 0
M  V30 8345 C 727.39 -1.87827 -0.191389 0
M  V30 8346 O 726.747 -1.43776 -1.12404 0
M  V30 8347 C 726.798 -3.02093 1.9855 0
M  V30 8348 O 726.519 -2.80668 3.36388 0
M  V30 8349 C 728.02 -3.96538 1.98173 0
M  V30 8350 H 725.24 -0.515598 0.429417 0
M  V30 8351 H 727.784 -1.0834 1.73444 0
M  V30 8352 H 725.939 -3.55838 1.53161 0
M  V30 8353 H 726.353 -3.67504 3.74221 0
M  V30 8354 H 727.827 -4.8976 2.54635 0
M  V30 8355 H 728.304 -4.28474 0.964697 0
M  V30 8356 H 728.91 -3.48729 2.4345 0
M  V30 8357 N 727.225 -1.14528 -1.08264 0
M  V30 8358 C 728.455 -0.936604 -1.8415 0
M  V30 8359 C 728.863 0.518298 -1.81962 0
M  V30 8360 O 728.206 1.37096 -1.22272 0
M  V30 8361 C 728.268 -1.36182 -3.32708 0
M  V30 8362 C 727.932 -2.83257 -3.58629 0
M  V30 8363 C 728.929 -3.81366 -3.5335 0
M  V30 8364 C 726.614 -3.20704 -3.86593 0
M  V30 8365 C 728.608 -5.14929 -3.75668 0
M  V30 8366 C 726.295 -4.54443 -4.08564 0
M  V30 8367 C 727.293 -5.51365 -4.03095 0
M  V30 8368 O 726.981 -6.8269 -4.24488 0
M  V30 8369 H 726.713 -0.333254 -0.588148 0
M  V30 8370 H 729.267 -1.5247 -1.3763 0
M  V30 8371 H 727.497 -0.717063 -3.79994 0
M  V30 8372 H 729.186 -1.12372 -3.90035 0
M  V30 8373 H 729.952 -3.53781 -3.31759 0
M  V30 8374 H 725.831 -2.45857 -3.89969 0
M  V30 8375 H 729.375 -5.90568 -3.71315 0
M  V30 8376 H 725.272 -4.81747 -4.29639 0
M  V30 8377 H 726.04 -6.8897 -4.41886 0
M  V30 8378 N 728.703 1.26451 -0.940633 0
M  V30 8379 C 729.949 1.94065 -0.58878 0
M  V30 8380 C 730.282 1.7363 0.869853 0
M  V30 8381 O 729.557 1.073 1.62225 0
M  V30 8382 C 729.84 3.47852 -0.931199 0
M  V30 8383 C 729.693 3.77575 -2.44453 0
M  V30 8384 C 731.012 4.37832 -0.446229 0
M  V30 8385 H 728.131 0.704827 -0.21538 0
M  V30 8386 H 730.773 1.4933 -1.17475 0
M  V30 8387 H 728.923 3.86085 -0.432539 0
M  V30 8388 H 730.595 3.49059 -3.01588 0
M  V30 8389 H 728.838 3.23671 -2.88825 0
M  V30 8390 H 729.509 4.85068 -2.63464 0
M  V30 8391 H 731.985 4.06822 -0.873778 0
M  V30 8392 H 730.861 5.44228 -0.714648 0
M  V30 8393 H 731.122 4.37239 0.653815 0
M  V30 8394 N 730.181 0.707592 1.40822 0
M  V30 8395 C 731.091 0.0507246 2.34545 0
M  V30 8396 C 732.107 -0.752727 1.56876 0
M  V30 8397 O 733.283 -0.687524 1.89302 0
M  V30 8398 C 730.348 -0.865731 3.35717 0
M  V30 8399 C 729.409 -0.0531313 4.29267 0
M  V30 8400 C 728.642 -0.925939 5.25606 0
M  V30 8401 O 728.865 -2.16531 5.27703 0
M  V30 8402 O 727.799 -0.369194 6.00767 0
M  V30 8403 H 731.625 0.823587 2.9232 0
M  V30 8404 H 729.21 0.46801 1.4188 0
M  V30 8405 H 731.092 -1.39091 3.97783 0
M  V30 8406 H 729.767 -1.61788 2.80368 0
M  V30 8407 H 728.674 0.516931 3.70511 0
M  V30 8408 H 730.007 0.660617 4.87747 0
M  V30 8409 N 731.66 -1.50943 0.453197 0
M  V30 8410 C 732.608 -2.29728 -0.364419 0
M  V30 8411 C 733.602 -1.36246 -1.00664 0
M  V30 8412 O 734.808 -1.53518 -0.939794 0
M  V30 8413 H 731.183 -0.739536 -0.136347 0
M  V30 8414 H 733.154 -2.96672 0.320696 0
M  V30 8415 C 731.903 -3.1629 -1.44415 0
M  V30 8416 H 731.226 -3.88119 -0.959343 0
M  V30 8417 H 732.666 -3.74444 -1.98917 0
M  V30 8418 C 731.125 -2.32702 -2.43622 0
M  V30 8419 O 731.655 -1.99763 -3.48508 0
M  V30 8420 N 729.861 -1.95621 -2.14897 0
M  V30 8421 H 729.408 -2.22607 -1.29629 0
M  V30 8422 H 729.366 -1.39993 -2.81513 0
M  V30 8423 N 733.138 -0.185124 -1.56509 0
M  V30 8424 C 734.415 0.503348 -1.89013 0
M  V30 8425 C 734.795 1.80349 -1.09715 0
M  V30 8426 O 734.143 2.27665 -0.195203 0
M  V30 8427 C 734.353 0.731839 -3.41241 0
M  V30 8428 C 735.701 1.05568 -4.11267 0
M  V30 8429 O 736.725 0.819906 -3.46635 0
M  V30 8430 O 735.584 1.50116 -5.25478 0
M  V30 8431 H 732.678 0.261139 -0.784688 0
M  V30 8432 H 735.224 -0.224592 -1.68207 0
M  V30 8433 H 733.996 -0.18672 -3.90854 0
M  V30 8434 H 733.619 1.5126 -3.67704 0
M  V30 8435 N 734.616 1.57351 0.0885366 0
M  V30 8436 C 735.546 2.05561 1.10757 0
M  V30 8437 C 736.527 0.945789 1.41382 0
M  V30 8438 O 737.712 1.21747 1.51299 0
M  V30 8439 C 734.842 2.48554 2.42566 0
M  V30 8440 C 733.796 3.63259 2.26334 0
M  V30 8441 C 733.122 3.9225 3.63378 0
M  V30 8442 C 734.422 4.93913 1.69844 0
M  V30 8443 H 736.116 2.90946 0.706468 0
M  V30 8444 H 733.662 1.39968 0.338385 0
M  V30 8445 H 735.615 2.8089 3.14132 0
M  V30 8446 H 734.339 1.60176 2.84625 0
M  V30 8447 H 732.998 3.31179 1.57213 0
M  V30 8448 H 732.646 3.0103 4.02976 0
M  V30 8449 H 732.346 4.69478 3.53362 0
M  V30 8450 H 733.87 4.27067 4.36401 0
M  V30 8451 H 735.284 5.24588 2.31258 0
M  V30 8452 H 733.681 5.75349 1.70569 0
M  V30 8453 H 734.751 4.80409 0.65843 0
M  V30 8454 N 736.094 -0.359525 1.53444 0
M  V30 8455 C 737.042 -1.46104 1.80987 0
M  V30 8456 C 738.036 -1.55181 0.679351 0
M  V30 8457 O 739.242 -1.57995 0.862405 0
M  V30 8458 H 735.617 -0.486835 0.573145 0
M  V30 8459 H 737.588 -1.2008 2.73173 0
M  V30 8460 C 736.337 -2.82855 2.02208 0
M  V30 8461 H 735.66 -2.76631 2.88644 0
M  V30 8462 H 737.1 -3.59091 2.25455 0
M  V30 8463 C 735.559 -3.27192 0.802931 0
M  V30 8464 O 736.089 -4.017 -0.00544286 0
M  V30 8465 N 734.295 -2.83807 0.624657 0
M  V30 8466 H 733.842 -2.23339 1.28364 0
M  V30 8467 H 733.8 -3.13828 -0.189641 0
M  V30 8468 N 737.572 -1.44907 -0.619662 0
M  V30 8469 C 738.797 -1.52021 -1.41083 0
M  V30 8470 C 739.222 -0.14976 -1.87503 0
M  V30 8471 O 738.58 0.863303 -1.59426 0
M  V30 8472 C 738.628 -2.49911 -2.59955 0
M  V30 8473 O 737.732 -2.00857 -3.60181 0
M  V30 8474 H 737.073 -0.512912 -0.421684 0
M  V30 8475 H 739.603 -1.90149 -0.755282 0
M  V30 8476 H 739.613 -2.68323 -3.07354 0
M  V30 8477 H 738.288 -3.4945 -2.25516 0
M  V30 8478 H 736.865 -1.92265 -3.19513 0
M  V30 8479 N 739.05 0.861098 -1.31996 0
M  V30 8480 C 740.461 1.43065 -1.19955 0
M  V30 8481 C 740.812 1.95273 0.190489 0
M  V30 8482 O 739.937 1.87012 1.08882 0
M  V30 8483 C 740.532 2.60052 -2.1716 0
M  V30 8484 C 739.091 3.13026 -2.09026 0
M  V30 8485 C 738.238 1.85756 -2.05888 0
M  V30 8486 H 741.189 0.668834 -1.43918 0
M  V30 8487 H 741.21 3.37016 -1.76637 0
M  V30 8488 H 740.722 2.22024 -3.18319 0
M  V30 8489 H 738.823 3.55653 -1.11092 0
M  V30 8490 H 738.936 3.74707 -2.98549 0
M  V30 8491 H 737.3 2.05088 -1.51033 0
M  V30 8492 H 738.083 1.49954 -3.08818 0
M  V30 8493 N 740.528 1.15101 1.07655 0
M  V30 8494 C 741.476 0.840714 2.16875 0
M  V30 8495 C 742.47 -0.184594 1.68391 0
M  V30 8496 O 743.676 -0.0399315 1.79956 0
M  V30 8497 H 740.051 0.254192 0.707736 0
M  V30 8498 H 742.022 1.76959 2.40266 0
M  V30 8499 C 740.771 0.343018 3.46004 0
M  V30 8500 H 740.094 1.12335 3.83694 0
M  V30 8501 H 741.534 0.16453 4.23681 0
M  V30 8502 C 739.993 -0.934881 3.23669 0
M  V30 8503 O 740.523 -2.00706 3.47965 0
M  V30 8504 N 738.729 -0.873167 2.77172 0
M  V30 8505 H 738.276 -0.000479072 2.576 0
M  V30 8506 H 738.234 -1.72873 2.62607 0
M  V30 8507 N 742.006 -1.2595 0.947325 0
M  V30 8508 C 743.236 -1.97258 0.614235 0
M  V30 8509 C 743.644 -1.70682 -0.816355 0
M  V30 8510 O 742.987 -0.97527 -1.55673 0
M  V30 8511 C 743.049 -3.50845 0.784081 0
M  V30 8512 C 742.713 -4.01084 2.19045 0
M  V30 8513 C 743.71 -4.12347 3.16648 0
M  V30 8514 C 741.395 -4.34936 2.51268 0
M  V30 8515 C 743.389 -4.56766 4.44572 0
M  V30 8516 C 741.076 -4.79043 3.79422 0
M  V30 8517 C 742.074 -4.89919 4.75887 0
M  V30 8518 O 741.762 -5.3305 6.01758 0
M  V30 8519 H 741.494 -0.635738 0.22981 0
M  V30 8520 H 744.048 -1.61268 1.27207 0
M  V30 8521 H 742.278 -3.86638 0.069101 0
M  V30 8522 H 743.967 -4.03363 0.453135 0
M  V30 8523 H 744.733 -3.86432 2.93079 0
M  V30 8524 H 740.612 -4.25702 1.76916 0
M  V30 8525 H 744.156 -4.6517 5.19868 0
M  V30 8526 H 740.053 -5.04402 4.02802 0
M  V30 8527 H 740.821 -5.51255 6.05029 0
M  V30 8528 N 743.484 -0.715051 -1.40445 0
M  V30 8529 C 744.414 -0.0768699 -2.33373 0
M  V30 8530 C 745.395 0.746109 -1.52863 0
M  V30 8531 O 746.58 0.695142 -1.81332 0
M  V30 8532 C 743.71 0.846014 -3.36838 0
M  V30 8533 C 742.664 0.128694 -4.27806 0
M  V30 8534 C 741.99 1.16726 -5.21804 0
M  V30 8535 C 743.29 -1.01679 -5.12307 0
M  V30 8536 H 744.984 -0.853061 -2.8699 0
M  V30 8537 H 742.53 -0.41167 -1.3799 0
M  V30 8538 H 744.483 1.30185 -4.00786 0
M  V30 8539 H 743.207 1.6541 -2.81615 0
M  V30 8540 H 741.866 -0.307314 -3.6531 0
M  V30 8541 H 741.514 1.96838 -4.62887 0
M  V30 8542 H 741.214 0.692188 -5.83509 0
M  V30 8543 H 742.738 1.62321 -5.88629 0
M  V30 8544 H 744.152 -0.640337 -5.69713 0
M  V30 8545 H 742.549 -1.4202 -5.83053 0
M  V30 8546 H 743.619 -1.84769 -4.48317 0
M  V30 8547 N 744.962 1.50701 -0.461195 0
M  V30 8548 C 745.892 2.31182 0.328184 0
M  V30 8549 C 746.873 1.37644 0.999408 0
M  V30 8550 O 748.058 1.66565 0.99848 0
M  V30 8551 C 745.188 3.17113 1.41621 0
M  V30 8552 C 744.142 4.19124 0.867148 0
M  V30 8553 C 743.468 4.93728 2.05272 0
M  V30 8554 C 744.768 5.22174 -0.114808 0
M  V30 8555 H 746.462 2.97423 -0.343501 0
M  V30 8556 H 744.008 1.43033 -0.166641 0
M  V30 8557 H 745.961 3.72208 1.97584 0
M  V30 8558 H 744.685 2.48739 2.11652 0
M  V30 8559 H 743.344 3.65116 0.329557 0
M  V30 8560 H 742.992 4.21835 2.73978 0
M  V30 8561 H 742.692 5.62724 1.69161 0
M  V30 8562 H 744.216 5.51654 2.61744 0
M  V30 8563 H 745.63 5.72198 0.355316 0
M  V30 8564 H 744.027 5.98833 -0.389689 0
M  V30 8565 H 745.097 4.7353 -1.04391 0
M  V30 8566 N 746.441 0.193421 1.56409 0
M  V30 8567 C 747.681 -0.447977 1.9943 0
M  V30 8568 C 748.045 -1.58915 1.07751 0
M  V30 8569 O 749.246 -2.29462 1.40002 0
M  V30 8570 C 747.517 -0.89793 3.45936 0
M  V30 8571 S 749.076 -1.5374 4.10986 0
M  V30 8572 H 745.894 -0.143316 0.696406 0
M  V30 8573 H 748.496 0.296093 1.93245 0
M  V30 8574 H 747.2 -0.0572927 4.1036 0
M  V30 8575 H 746.731 -1.67551 3.55936 0
M  V30 8576 H 748.746 -2.82612 4.07854 0
M  V30 8577 N 747.919 -1.57396 -0.0801906 0
M  V30 8578 C 749.149 -1.90778 -0.792924 0
M  V30 8579 C 749.557 -0.786814 -1.72064 0
M  V30 8580 O 748.9 0.249259 -1.82001 0
M  V30 8581 C 748.962 -3.19552 -1.64702 0
M  V30 8582 C 748.626 -4.48259 -0.889567 0
M  V30 8583 C 749.623 -5.19465 -0.212602 0
M  V30 8584 C 747.308 -4.94896 -0.859229 0
M  V30 8585 C 749.302 -6.35555 0.484566 0
M  V30 8586 C 746.989 -6.10895 -0.158284 0
M  V30 8587 C 747.987 -6.81075 0.512421 0
M  V30 8588 O 747.675 -7.94862 1.20209 0
M  V30 8589 H 747.407 -0.63527 -0.231103 0
M  V30 8590 H 749.961 -2.0532 -0.0573081 0
M  V30 8591 H 748.191 -3.01196 -2.42524 0
M  V30 8592 H 749.88 -3.38649 -2.23767 0
M  V30 8593 H 750.646 -4.84467 -0.227403 0
M  V30 8594 H 746.525 -4.4015 -1.37073 0
M  V30 8595 H 750.069 -6.9027 1.00864 0
M  V30 8596 H 745.966 -6.45345 -0.141381 0
M  V30 8597 H 746.734 -8.10932 1.11051 0
M  V30 8598 N 749.397 0.351382 -1.53633 0
M  V30 8599 C 750.329 1.45159 -1.77374 0
M  V30 8600 C 751.342 1.4905 -0.654826 0
M  V30 8601 O 752.531 1.52274 -0.931396 0
M  V30 8602 C 749.631 2.83858 -1.85143 0
M  V30 8603 C 748.804 3.03498 -3.14972 0
M  V30 8604 C 747.863 4.22393 -3.138 0
M  V30 8605 O 746.889 4.16885 -3.87551 0
M  V30 8606 N 748.091 5.30533 -2.35617 0
M  V30 8607 H 750.856 1.25167 -2.72311 0
M  V30 8608 H 748.417 0.54121 -1.52586 0
M  V30 8609 H 750.409 3.61557 -1.8182 0
M  V30 8610 H 748.979 2.9703 -0.974275 0
M  V30 8611 H 748.199 2.13336 -3.31484 0
M  V30 8612 H 749.487 3.13498 -4.00745 0
M  V30 8613 H 748.885 5.37875 -1.75235 0
M  V30 8614 H 747.442 6.06756 -2.38098 0
M  V30 8615 N 750.875 1.45233 0.611969 0
M  V30 8616 C 752.1 1.52767 1.40274 0
M  V30 8617 C 752.525 0.159701 1.87421 0
M  V30 8618 O 751.883 -0.854837 1.59882 0
M  V30 8619 C 751.931 2.51286 2.58626 0
M  V30 8620 O 751.035 2.02764 3.59111 0
M  V30 8621 H 750.376 0.515141 0.418958 0
M  V30 8622 H 752.906 1.90547 0.745188 0
M  V30 8623 H 752.916 2.69949 3.05927 0
M  V30 8624 H 751.591 3.50641 2.23659 0
M  V30 8625 H 750.168 1.93957 3.18489 0
M  V30 8626 N 752.353 -0.854086 1.3245 0
M  V30 8627 C 753.602 -1.60318 1.22397 0
M  V30 8628 C 753.915 -1.9444 -0.212664 0
M  V30 8629 O 755.121 -2.67991 -0.435066 0
M  V30 8630 C 753.577 -2.8909 2.1437 0
M  V30 8631 C 753.185 -2.62391 3.63119 0
M  V30 8632 C 754.929 -3.67104 2.13155 0
M  V30 8633 C 752.836 -3.87167 4.47052 0
M  V30 8634 H 751.766 -0.601586 0.454544 0
M  V30 8635 H 754.417 -0.943023 1.57415 0
M  V30 8636 H 752.799 -3.56567 1.72268 0
M  V30 8637 H 753.973 -2.03222 4.13567 0
M  V30 8638 H 752.288 -1.97706 3.66471 0
M  V30 8639 H 754.885 -4.59696 2.731 0
M  V30 8640 H 755.228 -4.00876 1.12268 0
M  V30 8641 H 755.761 -3.06533 2.5354 0
M  V30 8642 H 752.5 -3.58536 5.48755 0
M  V30 8643 H 752.02 -4.45729 4.01355 0
M  V30 8644 H 753.699 -4.549 4.60081 0
M  V30 8645 N 753.831 -1.1567 -1.07043 0
M  V30 8646 C 755.077 -0.9349 -1.79965 0
M  V30 8647 C 755.41 0.536464 -1.86643 0
M  V30 8648 O 754.685 1.39781 -1.35247 0
M  V30 8649 C 754.968 -1.55371 -3.24857 0
M  V30 8650 C 754.821 -3.09589 -3.26305 0
M  V30 8651 C 756.14 -1.24209 -4.22209 0
M  V30 8652 H 753.259 -0.341061 -0.653335 0
M  V30 8653 H 755.901 -1.42883 -1.25237 0
M  V30 8654 H 754.051 -1.13368 -3.71591 0
M  V30 8655 H 755.723 -3.60521 -2.87789 0
M  V30 8656 H 753.966 -3.43315 -2.65174 0
M  V30 8657 H 754.637 -3.48002 -4.28484 0
M  V30 8658 H 757.113 -1.60548 -3.8388 0
M  V30 8659 H 755.989 -1.70119 -5.21872 0
M  V30 8660 H 756.25 -0.15964 -4.41812 0
M  V30 8661 N 755.309 1.25446 -0.953992 0
M  V30 8662 C 756.537 1.97215 -0.625595 0
M  V30 8663 C 756.952 1.70911 0.802168 0
M  V30 8664 O 756.309 0.984782 1.5365 0
M  V30 8665 C 756.36 3.50777 -0.873943 0
M  V30 8666 O 756.081 3.76173 -2.24556 0
M  V30 8667 C 757.582 4.39776 -0.557845 0
M  V30 8668 H 754.802 0.628652 -0.2346 0
M  V30 8669 H 757.346 1.59632 -1.27819 0
M  V30 8670 H 755.501 3.86474 -0.267765 0
M  V30 8671 H 755.915 4.70636 -2.31522 0
M  V30 8672 H 757.389 5.46431 -0.782157 0
M  V30 8673 H 757.866 4.36257 0.507573 0
M  V30 8674 H 758.472 4.09644 -1.14332 0
M  V30 8675 N 756.787 0.722489 1.40064 0
M  V30 8676 C 758.017 0.274439 2.04769 0
M  V30 8677 C 758.425 -1.09125 1.54559 0
M  V30 8678 O 757.768 -1.69834 0.700149 0
M  V30 8679 C 757.83 0.184091 3.59028 0
M  V30 8680 C 757.494 1.48619 4.32159 0
M  V30 8681 C 758.491 2.42947 4.59644 0
M  V30 8682 C 756.176 1.74703 4.7094 0
M  V30 8683 C 758.17 3.616 5.24904 0
M  V30 8684 C 755.857 2.93636 5.3593 0
M  V30 8685 C 756.855 3.86907 5.62843 0
M  V30 8686 O 756.543 5.03753 6.26489 0
M  V30 8687 H 756.275 0.119847 0.665292 0
M  V30 8688 H 758.829 0.983352 1.80331 0
M  V30 8689 H 757.059 -0.580821 3.82313 0
M  V30 8690 H 758.748 -0.230306 4.05246 0
M  V30 8691 H 759.514 2.24062 4.30141 0
M  V30 8692 H 755.393 1.02955 4.49356 0
M  V30 8693 H 758.937 4.34418 5.45827 0
M  V30 8694 H 754.834 3.12428 5.64853 0
M  V30 8695 H 755.602 5.03922 6.44984 0
M  V30 8696 N 758.265 -1.50454 0.469181 0
M  V30 8697 C 759.49 -2.0722 -0.0864892 0
M  V30 8698 C 759.915 -1.33098 -1.32916 0
M  V30 8699 O 759.273 -0.378084 -1.77314 0
M  V30 8700 C 759.321 -3.58845 -0.355384 0
M  V30 8701 O 758.425 -3.86583 -1.43622 0
M  V30 8702 H 757.766 -0.663889 0.0121414 0
M  V30 8703 H 760.296 -1.93674 0.659674 0
M  V30 8704 H 760.306 -4.03617 -0.596447 0
M  V30 8705 H 758.981 -4.12211 0.552698 0
M  V30 8706 H 757.558 -3.5365 -1.18262 0
M  V30 8707 N 759.743 -0.201713 -1.56304 0
M  V30 8708 C 760.983 0.437395 -1.99665 0
M  V30 8709 C 761.347 1.58341 -1.08592 0
M  V30 8710 O 762.548 2.28716 -1.41217 0
M  V30 8711 C 760.819 0.879572 -3.46408 0
M  V30 8712 S 762.378 1.51558 -4.11795 0
M  V30 8713 H 759.196 0.139621 -0.697156 0
M  V30 8714 H 761.798 -0.306337 -1.93085 0
M  V30 8715 H 760.502 0.0355295 -4.10385 0
M  V30 8716 H 760.033 1.65661 -3.56819 0
M  V30 8717 H 762.048 2.80445 -4.09347 0
M  V30 8718 N 761.222 1.57436 0.0718424 0
M  V30 8719 C 762.469 1.87248 0.771007 0
M  V30 8720 C 762.797 0.793441 1.7758 0
M  V30 8721 O 762.052 -0.210565 1.94564 0
M  V30 8722 C 762.351 3.23723 1.51455 0
M  V30 8723 C 762.017 4.46194 0.649736 0
M  V30 8724 C 760.679 4.79438 0.411409 0
M  V30 8725 C 763.031 5.21176 0.05004 0
M  V30 8726 C 760.359 5.85077 -0.436096 0
M  V30 8727 C 762.711 6.27712 -0.784919 0
M  V30 8728 C 761.375 6.59457 -1.03312 0
M  V30 8729 H 760.645 0.685188 0.282132 0
M  V30 8730 H 763.292 1.91474 0.0317896 0
M  V30 8731 H 761.597 3.15287 2.32597 0
M  V30 8732 H 763.294 3.44023 2.06031 0
M  V30 8733 H 759.884 4.20175 0.84562 0
M  V30 8734 H 764.068 4.95806 0.221282 0
M  V30 8735 H 759.324 6.08071 -0.637136 0
M  V30 8736 H 763.498 6.84974 -1.25635 0
M  V30 8737 H 761.125 7.4114 -1.6916 0
M  V30 8738 N 762.7 -0.34323 1.53817 0
M  V30 8739 C 763.949 -1.08086 1.70295 0
M  V30 8740 C 764.262 -1.89794 0.47302 0
M  V30 8741 O 765.468 -2.66498 0.518754 0
M  V30 8742 C 763.924 -1.97097 3.01133 0
M  V30 8743 C 763.532 -1.20594 4.31464 0
M  V30 8744 C 765.276 -2.70715 3.26976 0
M  V30 8745 C 763.183 -2.08636 5.53376 0
M  V30 8746 H 762.113 -0.407228 0.634572 0
M  V30 8747 H 764.764 -0.340328 1.80316 0
M  V30 8748 H 763.146 -2.74971 2.84969 0
M  V30 8749 H 764.32 -0.476282 4.58332 0
M  V30 8750 H 762.635 -0.587426 4.12236 0
M  V30 8751 H 765.232 -3.36857 4.15248 0
M  V30 8752 H 765.575 -3.37299 2.43998 0
M  V30 8753 H 766.108 -1.99914 3.43917 0
M  V30 8754 H 762.847 -1.46594 6.38898 0
M  V30 8755 H 762.367 -2.7939 5.30755 0
M  V30 8756 H 764.046 -2.67682 5.89029 0
M  V30 8757 N 764.178 -1.45556 -0.604258 0
M  V30 8758 C 765.125 -1.54482 -1.71476 0
M  V30 8759 C 766.095 -0.390479 -1.61445 0
M  V30 8760 O 767.28 -0.604371 -1.80975 0
M  V30 8761 C 764.42 -1.52064 -3.09791 0
M  V30 8762 C 763.533 -2.78073 -3.30604 0
M  V30 8763 C 762.668 -2.67304 -4.59044 0
M  V30 8764 C 761.707 -3.88352 -4.73127 0
M  V30 8765 N 760.844 -3.76098 -5.9287 0
M  V30 8766 H 765.684 -2.49349 -1.63184 0
M  V30 8767 H 763.221 -1.23725 -0.795641 0
M  V30 8768 H 765.179 -1.48649 -3.89819 0
M  V30 8769 H 763.809 -0.607442 -3.17033 0
M  V30 8770 H 762.861 -2.91561 -2.44329 0
M  V30 8771 H 764.173 -3.67847 -3.36883 0
M  V30 8772 H 763.327 -2.61875 -5.47272 0
M  V30 8773 H 762.066 -1.75135 -4.55169 0
M  V30 8774 H 761.071 -3.94137 -3.83322 0
M  V30 8775 H 762.296 -4.81591 -4.78797 0
M  V30 8776 H 760.242 -2.867 -5.90033 0
M  V30 8777 H 760.159 -4.59509 -6.00323 0
M  V30 8778 H 761.427 -3.74607 -6.83586 0
M  V30 8779 N 765.656 0.84705 -1.32902 0
M  V30 8780 C 766.603 1.95624 -1.22473 0
M  V30 8781 C 767.573 1.65767 -0.105178 0
M  V30 8782 O 768.758 1.88704 -0.282042 0
M  V30 8783 C 765.898 3.31434 -0.961542 0
M  V30 8784 C 765.011 3.73741 -2.1666 0
M  V30 8785 C 764.146 4.98379 -1.83825 0
M  V30 8786 C 763.185 5.33199 -3.00609 0
M  V30 8787 N 762.322 6.49014 -2.67816 0
M  V30 8788 H 767.162 2.03875 -2.17345 0
M  V30 8789 H 764.699 0.997764 -1.08088 0
M  V30 8790 H 766.657 4.09663 -0.789411 0
M  V30 8791 H 765.287 3.22762 -0.0495938 0
M  V30 8792 H 764.339 2.91102 -2.44875 0
M  V30 8793 H 765.651 3.95462 -3.03993 0
M  V30 8794 H 764.805 5.84336 -1.63208 0
M  V30 8795 H 763.544 4.78611 -0.937172 0
M  V30 8796 H 762.549 4.4575 -3.21849 0
M  V30 8797 H 763.774 5.5492 -3.9146 0
M  V30 8798 H 761.72 6.30748 -1.80258 0
M  V30 8799 H 761.637 6.7079 -3.48679 0
M  V30 8800 H 762.905 7.38103 -2.50647 0
M  V30 8801 N 767.134 1.16236 1.06428 0
M  V30 8802 C 768.38 0.944431 1.79467 0
M  V30 8803 C 768.713 -0.526558 1.86925 0
M  V30 8804 O 767.988 -1.39061 1.35986 0
M  V30 8805 C 768.271 1.57092 3.24028 0
M  V30 8806 C 768.124 3.11315 3.24658 0
M  V30 8807 C 769.443 1.26447 4.21544 0
M  V30 8808 H 766.562 0.344521 0.651517 0
M  V30 8809 H 769.204 1.43545 1.24478 0
M  V30 8810 H 767.354 1.15337 3.70985 0
M  V30 8811 H 769.026 3.62042 2.85873 0
M  V30 8812 H 767.269 3.44716 2.6335 0
M  V30 8813 H 767.94 3.50269 4.26633 0
M  V30 8814 H 770.416 1.62581 3.83023 0
M  V30 8815 H 769.292 1.72885 5.20963 0
M  V30 8816 H 769.553 0.183068 4.41721 0
M  V30 8817 N 768.612 -1.24939 0.960631 0
M  V30 8818 C 769.544 -2.24879 0.442937 0
M  V30 8819 C 770.557 -1.56615 -0.444464 0
M  V30 8820 O 771.746 -1.76715 -0.251776 0
M  V30 8821 C 768.846 -3.36757 -0.380537 0
M  V30 8822 C 768.019 -4.34587 0.495283 0
M  V30 8823 C 767.078 -5.25502 -0.270995 0
M  V30 8824 O 766.104 -5.68227 0.332661 0
M  V30 8825 N 767.306 -5.59077 -1.56249 0
M  V30 8826 H 770.071 -2.69932 1.30218 0
M  V30 8827 H 767.632 -1.38907 0.83166 0
M  V30 8828 H 769.624 -3.94542 -0.90103 0
M  V30 8829 H 768.194 -2.91045 -1.14067 0
M  V30 8830 H 767.414 -3.75593 1.19682 0
M  V30 8831 H 768.702 -4.96925 1.09285 0
M  V30 8832 H 768.1 -5.2628 -2.07476 0
M  V30 8833 H 766.657 -6.19421 -2.02882 0
M  V30 8834 N 770.09 -0.729906 -1.39679 0
M  V30 8835 C 771.315 -0.284345 -2.05442 0
M  V30 8836 C 771.74 1.07056 -1.54663 0
M  V30 8837 O 771.098 1.67732 -0.688157 0
M  V30 8838 C 771.146 -0.290089 -3.59431 0
M  V30 8839 O 770.25 0.723978 -4.05995 0
M  V30 8840 H 769.591 -0.130311 -0.651088 0
M  V30 8841 H 772.121 -0.994403 -1.78809 0
M  V30 8842 H 772.131 -0.132712 -4.07784 0
M  V30 8843 H 770.806 -1.27877 -3.95753 0
M  V30 8844 H 769.383 0.533154 -3.69069 0
M  V30 8845 N 771.568 1.50203 -0.477153 0
M  V30 8846 C 772.815 2.02358 0.0757385 0
M  V30 8847 C 773.143 1.3587 1.39174 0
M  V30 8848 O 772.398 0.475415 1.89838 0
M  V30 8849 C 772.697 3.56127 0.301325 0
M  V30 8850 C 772.363 4.41126 -0.933725 0
M  V30 8851 C 771.025 4.64075 -1.27233 0
M  V30 8852 C 773.377 4.90737 -1.75576 0
M  V30 8853 C 770.705 5.33878 -2.43292 0
M  V30 8854 C 773.057 5.61816 -2.90768 0
M  V30 8855 C 771.721 5.83016 -3.25036 0
M  V30 8856 H 770.991 0.740482 0.0277147 0
M  V30 8857 H 773.638 1.80754 -0.632467 0
M  V30 8858 H 771.943 3.76279 1.09183 0
M  V30 8859 H 773.64 3.94053 0.743184 0
M  V30 8860 H 770.23 4.23489 -0.659935 0
M  V30 8861 H 774.414 4.72856 -1.50734 0
M  V30 8862 H 769.67 5.48499 -2.70109 0
M  V30 8863 H 773.844 5.99237 -3.54807 0
M  V30 8864 H 771.471 6.36881 -4.15074 0
M  V30 8865 N 773.046 0.209999 1.56195 0
M  V30 8866 C 774.271 -0.433064 2.02828 0
M  V30 8867 C 774.696 -1.5337 1.08901 0
M  V30 8868 O 774.054 -1.81144 0.0751132 0
M  V30 8869 C 774.102 -0.952635 3.47789 0
M  V30 8870 O 773.206 -2.0647 3.56993 0
M  V30 8871 H 772.547 -0.0994594 0.656509 0
M  V30 8872 H 775.077 0.32525 2.01998 0
M  V30 8873 H 775.087 -1.26542 3.8788 0
M  V30 8874 H 773.762 -0.147007 4.1564 0
M  V30 8875 H 772.339 -1.75942 3.28784 0
M  V30 8876 N 774.524 -1.57472 -0.0634922 0
M  V30 8877 C 775.801 -1.78736 -0.794538 0
M  V30 8878 C 776.181 -0.799645 -1.95369 0
M  V30 8879 O 775.529 0.165521 -2.279 0
M  V30 8880 C 775.739 -3.25471 -1.25975 0
M  V30 8881 C 777.087 -3.89528 -1.68976 0
M  V30 8882 O 778.111 -3.29412 -1.35521 0
M  V30 8883 O 776.97 -4.95305 -2.30944 0
M  V30 8884 H 774.064 -0.733813 -0.381376 0
M  V30 8885 H 776.61 -1.69646 -0.0429258 0
M  V30 8886 H 775.382 -3.88922 -0.430721 0
M  V30 8887 H 775.005 -3.39317 -2.07243 0
M  V30 8888 N 776.003 0.335068 -1.53997 0
M  V30 8889 C 777.252 1.07182 -1.70865 0
M  V30 8890 C 777.565 1.89541 -0.483078 0
M  V30 8891 O 778.771 2.66219 -0.532879 0
M  V30 8892 C 777.227 1.95497 -3.02174 0
M  V30 8893 C 776.835 1.18304 -4.32097 0
M  V30 8894 C 778.579 2.68978 -3.28407 0
M  V30 8895 C 776.486 2.05699 -5.54474 0
M  V30 8896 H 775.416 0.403857 -0.636722 0
M  V30 8897 H 778.067 0.33076 -1.80494 0
M  V30 8898 H 776.449 2.73456 -2.86423 0
M  V30 8899 H 777.623 0.451969 -4.58578 0
M  V30 8900 H 775.938 0.565556 -4.12541 0
M  V30 8901 H 778.535 3.34651 -4.17029 0
M  V30 8902 H 778.878 3.36 -2.45784 0
M  V30 8903 H 779.411 1.98087 -3.44973 0
M  V30 8904 H 776.15 1.43204 -6.39666 0
M  V30 8905 H 775.67 2.76572 -5.32229 0
M  V30 8906 H 777.349 2.64554 -5.90441 0
M  V30 8907 N 777.481 1.45874 0.596531 0
M  V30 8908 C 778.429 1.55739 1.72766 0
M  V30 8909 C 779.423 0.426666 1.63939 0
M  V30 8910 O 780.629 0.60301 1.69599 0
M  V30 8911 H 777.004 0.489386 0.570968 0
M  V30 8912 H 778.975 2.50871 1.61575 0
M  V30 8913 C 777.724 1.55174 3.11153 0
M  V30 8914 H 777.047 2.41511 3.1861 0
M  V30 8915 H 778.487 1.66133 3.90097 0
M  V30 8916 C 776.946 0.278001 3.35751 0
M  V30 8917 O 777.476 -0.637557 3.96608 0
M  V30 8918 N 775.682 0.170227 2.90101 0
M  V30 8919 H 775.229 0.916159 2.40758 0
M  V30 8920 H 775.187 -0.68117 3.06932 0
M  V30 8921 N 778.959 -0.83999 1.33349 0
M  V30 8922 C 780.207 -1.59202 1.24496 0
M  V30 8923 C 780.528 -1.94077 -0.189499 0
M  V30 8924 O 779.798 -1.60868 -1.11796 0
M  V30 8925 H 778.378 -0.590276 0.457802 0
M  V30 8926 H 781.04 -1.00394 1.67054 0
M  V30 8927 H 780.136 -2.52247 1.83788 0
M  V30 8928 N 780.437 -1.16799 -1.0581 0
M  V30 8929 C 781.367 -0.902241 -2.15364 0
M  V30 8930 C 782.348 0.153351 -1.69407 0
M  V30 8931 O 783.533 0.00442032 -1.94199 0
M  V30 8932 C 780.663 -0.407911 -3.44896 0
M  V30 8933 C 779.617 -1.40197 -4.04387 0
M  V30 8934 C 778.943 -0.765848 -5.29187 0
M  V30 8935 C 780.243 -2.77316 -4.42598 0
M  V30 8936 H 781.937 -1.81841 -2.37853 0
M  V30 8937 H 779.483 -0.875731 -1.14311 0
M  V30 8938 H 781.436 -0.20945 -4.20879 0
M  V30 8939 H 780.16 0.54378 -3.22041 0
M  V30 8940 H 778.819 -1.58707 -3.30466 0
M  V30 8941 H 778.467 0.192482 -5.02632 0
M  V30 8942 H 778.167 -1.42939 -5.69949 0
M  V30 8943 H 779.691 -0.577519 -6.07863 0
M  V30 8944 H 781.105 -2.62561 -5.09642 0
M  V30 8945 H 779.502 -3.4019 -4.94359 0
M  V30 8946 H 780.572 -3.32199 -3.53231 0
M  V30 8947 N 781.915 1.24427 -0.967243 0
M  V30 8948 C 782.845 2.2773 -0.515899 0
M  V30 8949 C 783.826 1.64197 0.444227 0
M  V30 8950 O 785.011 1.91193 0.340451 0
M  V30 8951 C 782.141 3.46751 0.195149 0
M  V30 8952 C 781.095 4.22548 -0.680953 0
M  V30 8953 C 780.421 5.34456 0.161561 0
M  V30 8954 C 781.721 4.83914 -1.96532 0
M  V30 8955 H 783.415 2.65735 -1.37933 0
M  V30 8956 H 780.961 1.27742 -0.664681 0
M  V30 8957 H 782.914 4.18153 0.522117 0
M  V30 8958 H 781.638 3.07771 1.09292 0
M  V30 8959 H 780.297 3.52946 -0.991186 0
M  V30 8960 H 779.945 4.91716 1.05947 0
M  V30 8961 H 779.645 5.86087 -0.421418 0
M  V30 8962 H 781.169 6.08685 0.483211 0
M  V30 8963 H 782.583 5.47392 -1.70396 0
M  V30 8964 H 780.98 5.45775 -2.49499 0
M  V30 8965 H 782.05 4.05393 -2.66053 0
M  V30 8966 N 783.393 0.737304 1.3929 0
M  V30 8967 C 784.809 0.413132 1.5416 0
M  V30 8968 C 785.009 -1.07574 1.70382 0
M  V30 8969 O 784.065 -1.86185 1.70562 0
M  V30 8970 C 785.378 1.19817 2.75798 0
M  V30 8971 C 786.926 1.18662 2.89635 0
M  V30 8972 C 787.401 1.95427 4.14213 0
M  V30 8973 N 788.892 1.92605 4.21257 0
M  V30 8974 C 789.627 2.48808 5.16606 0
M  V30 8975 N 789.123 3.13659 6.1773 0
M  V30 8976 N 790.916 2.38829 5.08839 0
M  V30 8977 H 783.067 1.70243 1.27008 0
M  V30 8978 H 785.33 0.720802 0.61575 0
M  V30 8979 H 785.036 2.25179 2.70161 0
M  V30 8980 H 784.91 0.804144 3.68529 0
M  V30 8981 H 787.297 0.141112 2.94762 0
M  V30 8982 H 787.378 1.62003 1.97961 0
M  V30 8983 H 787.022 2.9998 4.09847 0
M  V30 8984 H 786.952 1.4949 5.04936 0
M  V30 8985 H 789.443 1.45362 3.48824 0
M  V30 8986 H 789.756 3.54006 6.8695 0
M  V30 8987 H 788.101 3.17749 6.1811 0
M  V30 8988 H 791.292 1.87806 4.28773 0
M  V30 8989 H 791.465 2.82929 5.82971 0
M  V30 8990 N 784.871 -1.49948 0.485112 0
M  V30 8991 C 785.819 -2.30449 -0.315609 0
M  V30 8992 C 786.813 -1.38351 -0.977516 0
M  V30 8993 O 788.019 -1.55477 -0.907019 0
M  V30 8994 H 784.394 -0.742262 -0.120629 0
M  V30 8995 H 786.365 -2.95925 0.383552 0
M  V30 8996 C 785.114 -3.19283 -1.37673 0
M  V30 8997 H 784.437 -3.90067 -0.876801 0
M  V30 8998 H 785.877 -3.78579 -1.90929 0
M  V30 8999 C 784.336 -2.37817 -2.38631 0
M  V30 9000 O 784.866 -2.0711 -3.44192 0
M  V30 9001 N 783.072 -2.00135 -2.107 0
M  V30 9002 H 782.619 -2.25307 -1.24878 0
M  V30 9003 H 782.577 -1.45933 -2.7848 0
M  V30 9004 N 786.349 -0.21828 -1.56081 0
M  V30 9005 C 787.579 0.41865 -2.02314 0
M  V30 9006 C 787.987 1.54124 -1.09739 0
M  V30 9007 O 787.33 1.83435 -0.0986829 0
M  V30 9008 C 787.392 1.01439 -3.44892 0
M  V30 9009 C 787.056 0.0276523 -4.56992 0
M  V30 9010 C 788.053 -0.771526 -5.14143 0
M  V30 9011 C 785.738 -0.0901537 -5.02219 0
M  V30 9012 C 787.732 -1.67525 -6.14991 0
M  V30 9013 C 785.419 -0.997411 -6.02905 0
M  V30 9014 C 786.417 -1.78851 -6.59167 0
M  V30 9015 O 786.105 -2.68052 -7.57894 0
M  V30 9016 H 785.837 0.107066 -0.667468 0
M  V30 9017 H 788.391 -0.331191 -2.02712 0
M  V30 9018 H 786.621 1.81326 -3.41552 0
M  V30 9019 H 788.31 1.55838 -3.74792 0
M  V30 9020 H 789.076 -0.690945 -4.80053 0
M  V30 9021 H 784.955 0.515474 -4.58109 0
M  V30 9022 H 788.499 -2.29316 -6.58832 0
M  V30 9023 H 784.396 -1.07902 -6.36418 0
M  V30 9024 H 785.164 -2.6209 -7.75404 0
M  V30 9025 N 787.827 1.57504 0.0551401 0
M  V30 9026 C 788.737 2.08198 1.08124 0
M  V30 9027 C 789.753 1.01496 1.41331 0
M  V30 9028 O 790.929 1.33073 1.51174 0
M  V30 9029 C 787.994 2.52968 2.37083 0
M  V30 9030 C 787.055 3.7404 2.10696 0
M  V30 9031 C 786.288 4.16665 3.33505 0
M  V30 9032 O 786.511 3.59019 4.4324 0
M  V30 9033 O 785.445 5.09324 3.20737 0
M  V30 9034 H 789.271 2.95977 0.680518 0
M  V30 9035 H 786.856 1.46933 0.270401 0
M  V30 9036 H 788.738 2.82211 3.12946 0
M  V30 9037 H 787.413 1.6831 2.76502 0
M  V30 9038 H 786.32 3.49855 1.32484 0
M  V30 9039 H 787.653 4.59601 1.76148 0
M  V30 9040 N 789.305 -0.326896 1.54172 0
M  V30 9041 C 790.554 -1.06274 1.71431 0
M  V30 9042 C 790.867 -1.89282 0.493123 0
M  V30 9043 O 792.073 -2.65933 0.54699 0
M  V30 9044 C 790.529 -1.93892 3.03206 0
M  V30 9045 C 790.137 -1.16011 4.32719 0
M  V30 9046 C 791.881 -2.67232 3.29829 0
M  V30 9047 C 789.788 -2.02755 5.55558 0
M  V30 9048 H 788.718 -0.400475 0.638855 0
M  V30 9049 H 791.369 -0.321184 1.80667 0
M  V30 9050 H 789.751 -2.71933 2.87869 0
M  V30 9051 H 790.925 -0.427643 4.58811 0
M  V30 9052 H 789.24 -0.54367 4.12836 0
M  V30 9053 H 791.837 -3.32434 4.18798 0
M  V30 9054 H 792.18 -3.34692 2.47562 0
M  V30 9055 H 792.713 -1.96255 3.46018 0
M  V30 9056 H 789.452 -1.3981 6.40417 0
M  V30 9057 H 788.972 -2.73745 5.33689 0
M  V30 9058 H 790.651 -2.61419 5.91835 0
M  V30 9059 N 790.784 -1.46188 -0.588786 0
M  V30 9060 C 792.033 -1.50452 -1.34339 0
M  V30 9061 C 792.346 -0.158096 -1.9496 0
M  V30 9062 O 793.552 -0.0784918 -2.71387 0
M  V30 9063 C 792.008 -2.65074 -2.43441 0
M  V30 9064 C 791.616 -4.06111 -1.8915 0
M  V30 9065 C 793.36 -2.78603 -3.20282 0
M  V30 9066 C 791.267 -5.12084 -2.95845 0
M  V30 9067 H 790.197 -0.559905 -0.504997 0
M  V30 9068 H 792.848 -1.72382 -0.629014 0
M  V30 9069 H 791.23 -2.36462 -3.1765 0
M  V30 9070 H 792.404 -4.44487 -1.21524 0
M  V30 9071 H 790.719 -3.97197 -1.24995 0
M  V30 9072 H 793.316 -3.54944 -3.99898 0
M  V30 9073 H 793.659 -1.85902 -3.72486 0
M  V30 9074 H 794.192 -3.06832 -2.53178 0
M  V30 9075 H 790.931 -6.06556 -2.48535 0
M  V30 9076 H 790.451 -4.78259 -3.61979 0
M  V30 9077 H 792.13 -5.37661 -3.59902 0
M  V30 9078 N 792.262 0.832906 -1.33792 0
M  V30 9079 C 793.192 1.95828 -1.27176 0
M  V30 9080 C 794.173 1.69427 -0.15114 0
M  V30 9081 O 795.358 1.91167 -0.341886 0
M  V30 9082 C 792.488 3.32098 -1.01629 0
M  V30 9083 C 791.442 3.72912 -2.10049 0
M  V30 9084 C 790.768 5.07054 -1.69706 0
M  V30 9085 C 792.068 3.86064 -3.51783 0
M  V30 9086 H 793.762 2.01622 -2.21334 0
M  V30 9087 H 791.308 0.96866 -1.0655 0
M  V30 9088 H 793.261 4.10402 -0.956474 0
M  V30 9089 H 791.985 3.26577 -0.0390956 0
M  V30 9090 H 790.644 2.96876 -2.15082 0
M  V30 9091 H 790.292 4.9801 -0.706737 0
M  V30 9092 H 789.992 5.35333 -2.42264 0
M  V30 9093 H 791.516 5.87827 -1.65202 0
M  V30 9094 H 792.93 4.54665 -3.49218 0
M  V30 9095 H 791.327 4.25787 -4.22878 0
M  V30 9096 H 792.397 2.88344 -3.89854 0
M  V30 9097 N 793.74 1.17359 1.05189 0
M  V30 9098 C 794.688 0.886527 2.15043 0
M  V30 9099 C 795.682 -0.148834 1.68745 0
M  V30 9100 O 796.888 -0.00175123 1.8 0
M  V30 9101 H 793.263 0.269147 0.702185 0
M  V30 9102 H 795.234 1.82016 2.36459 0
M  V30 9103 C 793.983 0.416333 3.45198 0
M  V30 9104 H 793.306 1.20449 3.81225 0
M  V30 9105 H 794.746 0.254362 4.23236 0
M  V30 9106 C 793.205 -0.866016 3.25579 0
M  V30 9107 O 793.735 -1.9328 3.52144 0
M  V30 9108 N 791.941 -0.814179 2.78961 0
M  V30 9109 H 791.488 0.0541618 2.57543 0
M  V30 9110 H 791.446 -1.67264 2.66214 0
M  V30 9111 N 795.218 -1.23913 0.973828 0
M  V30 9112 C 796.168 -2.22892 0.479933 0
M  V30 9113 C 797.152 -1.54726 -0.441434 0
M  V30 9114 O 798.344 -1.74908 -0.271358 0
M  V30 9115 C 795.473 -3.42577 -0.222702 0
M  V30 9116 C 794.559 -4.17981 0.717851 0
M  V30 9117 N 794.95 -4.7045 1.8577 0
M  V30 9118 C 793.248 -4.42841 0.529858 0
M  V30 9119 C 793.949 -5.27751 2.44651 0
M  V30 9120 N 792.925 -5.15302 1.73104 0
M  V30 9121 H 796.727 -2.61083 1.34956 0
M  V30 9122 H 794.241 -1.39368 0.83368 0
M  V30 9123 H 796.238 -4.1265 -0.593793 0
M  V30 9124 H 794.898 -3.05904 -1.0887 0
M  V30 9125 H 795.909 -4.66997 2.23908 0
M  V30 9126 H 792.586 -4.1648 -0.291664 0
M  V30 9127 H 793.976 -5.79011 3.40875 0
M  V30 9128 N 796.696 -0.74468 -1.38897 0
M  V30 9129 C 797.629 -0.0596441 -2.28122 0
M  V30 9130 C 798.607 0.73764 -1.44906 0
M  V30 9131 O 799.791 0.718155 -1.74284 0
M  V30 9132 C 796.918 0.922533 -3.25894 0
M  V30 9133 C 795.964 0.212566 -4.2597 0
M  V30 9134 S 796.797 -1.08035 -5.24489 0
M  V30 9135 C 797.953 -0.101014 -6.25818 0
M  V30 9136 H 798.186 -0.816289 -2.85874 0
M  V30 9137 H 795.719 -0.536882 -1.44765 0
M  V30 9138 H 797.677 1.4839 -3.82741 0
M  V30 9139 H 796.338 1.65209 -2.67142 0
M  V30 9140 H 795.531 0.956106 -4.94848 0
M  V30 9141 H 795.133 -0.277029 -3.72973 0
M  V30 9142 H 797.425 0.736072 -6.7349 0
M  V30 9143 H 798.368 -0.757206 -7.0404 0
M  V30 9144 H 798.776 0.275706 -5.63826 0
M  V30 9145 N 798.174 1.49689 -0.493057 0
M  V30 9146 C 799.422 2.02027 0.0541642 0
M  V30 9147 C 799.743 1.37554 1.38217 0
M  V30 9148 O 799.013 0.528174 1.88646 0
M  V30 9149 H 797.593 0.746646 0.0230069 0
M  V30 9150 H 800.255 1.83795 -0.648489 0
M  V30 9151 H 799.351 3.11523 0.189652 0
M  V30 9152 N 799.652 0.226554 1.55963 0
M  V30 9153 C 800.877 -0.411527 2.03276 0
M  V30 9154 C 801.302 -1.52206 1.10521 0
M  V30 9155 O 800.66 -1.81054 0.0943217 0
M  V30 9156 C 800.708 -0.915694 3.4878 0
M  V30 9157 O 799.812 -2.02672 3.59163 0
M  V30 9158 H 799.153 -0.0924907 0.657527 0
M  V30 9159 H 801.683 0.346656 2.01642 0
M  V30 9160 H 801.693 -1.22421 3.892 0
M  V30 9161 H 800.368 -0.102915 4.15773 0
M  V30 9162 H 798.945 -1.72445 3.30632 0
M  V30 9163 N 801.13 -1.57531 -0.0467866 0
M  V30 9164 C 802.355 -1.93087 -0.757123 0
M  V30 9165 C 802.78 -0.825116 -1.69037 0
M  V30 9166 O 802.138 0.220449 -1.79955 0
M  V30 9167 C 802.186 -3.27669 -1.5055 0
M  V30 9168 O 801.29 -3.18667 -2.61773 0
M  V30 9169 H 800.631 -0.631597 -0.204892 0
M  V30 9170 H 803.161 -2.04599 -0.00755232 0
M  V30 9171 H 803.171 -3.6214 -1.87932 0
M  V30 9172 H 801.846 -4.07717 -0.820931 0
M  V30 9173 H 800.423 -2.95798 -2.27064 0
M  V30 9174 N 802.608 0.318715 -1.54344 0
M  V30 9175 C 803.833 1.07987 -1.77069 0
M  V30 9176 C 804.258 1.80766 -0.520117 0
M  V30 9177 O 803.616 1.73424 0.528566 0
M  V30 9178 C 803.664 2.04987 -2.96669 0
M  V30 9179 O 802.768 3.12974 -2.68554 0
M  V30 9180 H 802.109 0.311109 -0.586606 0
M  V30 9181 H 804.639 0.361533 -2.0138 0
M  V30 9182 H 804.649 2.47771 -3.2415 0
M  V30 9183 H 803.324 1.51417 -3.87357 0
M  V30 9184 H 801.901 2.74831 -2.52037 0
M  V30 9185 N 804.086 1.46499 0.581025 0
M  V30 9186 C 805.016 1.60052 1.70017 0
M  V30 9187 C 805.997 0.450788 1.64018 0
M  V30 9188 O 807.182 0.677237 1.82009 0
M  V30 9189 C 804.312 1.5921 3.08658 0
M  V30 9190 C 803.266 2.73169 3.29488 0
M  V30 9191 C 802.592 2.57389 4.68674 0
M  V30 9192 C 803.892 4.14978 3.1716 0
M  V30 9193 H 805.586 2.53735 1.5893 0
M  V30 9194 H 803.132 1.22113 0.763173 0
M  V30 9195 H 805.085 1.67285 3.86773 0
M  V30 9196 H 803.809 0.620718 3.20647 0
M  V30 9197 H 802.468 2.64566 2.53773 0
M  V30 9198 H 802.116 1.58331 4.77431 0
M  V30 9199 H 801.816 3.33826 4.83564 0
M  V30 9200 H 803.34 2.67358 5.48956 0
M  V30 9201 H 804.754 4.24684 3.85119 0
M  V30 9202 H 803.151 4.92016 3.4357 0
M  V30 9203 H 804.221 4.35016 2.14218 0
M  V30 9204 N 805.565 -0.825799 1.34232 0
M  V30 9205 C 806.495 -1.95151 1.28212 0
M  V30 9206 C 807.476 -1.69345 0.160123 0
M  V30 9207 O 808.661 -1.90983 0.352019 0
M  V30 9208 C 805.791 -3.31554 1.03388 0
M  V30 9209 C 804.745 -3.71793 2.12023 0
M  V30 9210 C 804.071 -5.06147 1.72392 0
M  V30 9211 C 805.371 -3.84193 3.53826 0
M  V30 9212 H 807.065 -2.00445 2.22401 0
M  V30 9213 H 804.611 -0.962996 1.07063 0
M  V30 9214 H 806.564 -4.09889 0.978225 0
M  V30 9215 H 805.288 -3.26551 0.0564142 0
M  V30 9216 H 803.947 -2.95731 2.16654 0
M  V30 9217 H 803.595 -4.97628 0.733137 0
M  V30 9218 H 803.295 -5.34041 2.451 0
M  V30 9219 H 804.819 -5.86943 1.68317 0
M  V30 9220 H 806.233 -4.52806 3.51624 0
M  V30 9221 H 804.63 -4.23538 4.2513 0
M  V30 9222 H 805.7 -2.86272 3.91377 0
M  V30 9223 N 807.043 -1.17915 -1.04565 0
M  V30 9224 C 808.292 -0.965816 -1.77073 0
M  V30 9225 C 808.605 0.506005 -1.88942 0
M  V30 9226 O 809.811 0.837717 -2.58253 0
M  V30 9227 C 808.267 -1.67894 -3.18339 0
M  V30 9228 C 807.875 -3.18972 -3.1458 0
M  V30 9229 C 809.619 -1.54823 -3.9526 0
M  V30 9230 C 807.526 -3.82946 -4.50674 0
M  V30 9231 H 806.456 -0.357729 -0.663736 0
M  V30 9232 H 809.107 -1.41235 -1.17153 0
M  V30 9233 H 807.489 -1.16016 -3.78624 0
M  V30 9234 H 808.663 -3.77835 -2.63776 0
M  V30 9235 H 806.978 -3.32127 -2.51159 0
M  V30 9236 H 809.575 -1.99984 -4.95894 0
M  V30 9237 H 809.918 -0.499727 -4.1329 0
M  V30 9238 H 810.451 -2.03953 -3.41538 0
M  V30 9239 H 807.19 -4.8782 -4.37849 0
M  V30 9240 H 806.71 -3.2887 -5.01602 0
M  V30 9241 H 808.389 -3.85518 -5.196 0
M  V30 9242 N 808.521 1.23394 -0.980386 0
M  V30 9243 C 809.937 1.43961 -0.689008 0
M  V30 9244 C 810.137 1.87229 0.744809 0
M  V30 9245 O 809.193 2.01831 1.51725 0
M  V30 9246 C 810.506 2.49128 -1.68392 0
M  V30 9247 C 812.054 2.62941 -1.69796 0
M  V30 9248 C 812.529 3.71317 -2.68118 0
M  V30 9249 N 814.02 3.7876 -2.66636 0
M  V30 9250 C 814.755 4.62176 -3.39383 0
M  V30 9251 N 814.251 5.49682 -4.21688 0
M  V30 9252 N 816.044 4.56372 -3.28147 0
M  V30 9253 H 808.195 0.936106 -1.90659 0
M  V30 9254 H 810.458 0.473023 -0.821555 0
M  V30 9255 H 810.164 2.24252 -2.70931 0
M  V30 9256 H 810.038 3.47514 -1.46675 0
M  V30 9257 H 812.425 2.87168 -0.679617 0
M  V30 9258 H 812.506 1.64871 -1.95579 0
M  V30 9259 H 812.15 3.4784 -3.70095 0
M  V30 9260 H 812.08 4.68929 -2.3961 0
M  V30 9261 H 814.571 3.16226 -2.06904 0
M  V30 9262 H 814.884 6.10323 -4.74053 0
M  V30 9263 H 813.229 5.49306 -4.25779 0
M  V30 9264 H 816.42 3.87029 -2.63299 0
M  V30 9265 H 816.593 5.21153 -3.85102 0
M  V30 9266 N 809.999 0.752036 1.385 0
M  V30 9267 C 811.245 0.307958 2.00448 0
M  V30 9268 C 811.578 -1.10702 1.59558 0
M  V30 9269 O 810.853 -1.75788 0.832391 0
M  V30 9270 C 811.136 0.429092 3.57534 0
M  V30 9271 C 810.989 1.88507 4.08393 0
M  V30 9272 C 812.308 -0.178442 4.39738 0
M  V30 9273 H 809.427 0.113373 0.728228 0
M  V30 9274 H 812.069 0.951389 1.64465 0
M  V30 9275 H 810.219 -0.118695 3.88319 0
M  V30 9276 H 811.891 2.49104 3.88259 0
M  V30 9277 H 810.134 2.40066 3.61318 0
M  V30 9278 H 810.805 1.92099 5.17496 0
M  V30 9279 H 813.281 0.28872 4.15097 0
M  V30 9280 H 812.157 -0.0634349 5.48863 0
M  V30 9281 H 812.418 -1.26655 4.23569 0
M  V30 9282 N 811.477 -1.49425 0.500989 0
M  V30 9283 C 812.44 -2.27646 -0.266416 0
M  V30 9284 C 813.44 -1.3366 -0.893961 0
M  V30 9285 O 814.63 -1.5682 -0.758495 0
M  V30 9286 C 811.762 -3.11618 -1.38227 0
M  V30 9287 H 812.955 -2.96945 0.419973 0
M  V30 9288 H 810.508 -1.5419 0.255954 0
M  V30 9289 H 811.243 -2.46885 -2.10281 0
M  V30 9290 H 811.028 -3.80721 -0.937746 0
M  V30 9291 H 812.518 -3.70698 -1.92283 0
M  V30 9292 N 812.955 -0.234822 -1.55841 0
M  V30 9293 C 814.18 0.400741 -2.03492 0
M  V30 9294 C 814.605 1.51618 -1.11327 0
M  V30 9295 O 813.963 1.81002 -0.103922 0
M  V30 9296 C 814.011 0.897184 -3.49261 0
M  V30 9297 O 813.115 2.00764 -3.60233 0
M  V30 9298 H 812.456 0.0890023 -0.658008 0
M  V30 9299 H 814.986 -0.357345 -2.01455 0
M  V30 9300 H 814.996 1.20356 -3.89844 0
M  V30 9301 H 813.671 0.0808639 -4.15821 0
M  V30 9302 H 812.248 1.70689 -3.31541 0
M  V30 9303 N 814.433 1.57553 0.0384317 0
M  V30 9304 C 815.396 2.04927 1.02653 0
M  V30 9305 C 816.396 0.951768 1.29607 0
M  V30 9306 O 817.586 1.21568 1.24768 0
M  V30 9307 C 814.718 2.45828 2.36181 0
M  V30 9308 H 815.911 2.93474 0.617508 0
M  V30 9309 H 813.464 1.53679 0.285031 0
M  V30 9310 H 814.199 1.60408 2.8185 0
M  V30 9311 H 813.984 3.25945 2.1795 0
M  V30 9312 H 815.474 2.82939 3.0714 0
M  V30 9313 N 815.911 -0.310526 1.54511 0
M  V30 9314 C 817.136 -1.07046 1.7764 0
M  V30 9315 C 817.561 -1.80488 0.529696 0
M  V30 9316 O 816.919 -1.73702 -0.519361 0
M  V30 9317 C 816.967 -2.03411 2.97752 0
M  V30 9318 O 816.071 -3.11545 2.7021 0
M  V30 9319 H 815.412 -0.307994 0.588248 0
M  V30 9320 H 817.942 -0.350848 2.01569 0
M  V30 9321 H 817.952 -2.46048 3.2546 0
M  V30 9322 H 816.627 -1.49361 3.88155 0
M  V30 9323 H 815.204 -2.7349 2.53491 0
M  V30 9324 N 817.389 -1.46805 -0.573248 0
M  V30 9325 C 818.619 -1.55965 -1.35494 0
M  V30 9326 C 819.027 -0.203038 -1.88107 0
M  V30 9327 O 818.37 0.81138 -1.6481 0
M  V30 9328 C 818.432 -2.51168 -2.57206 0
M  V30 9329 C 818.096 -3.97211 -2.25993 0
M  V30 9330 C 819.093 -4.86155 -1.84254 0
M  V30 9331 C 816.778 -4.42419 -2.37846 0
M  V30 9332 C 818.772 -6.18323 -1.54776 0
M  V30 9333 C 816.459 -5.74619 -2.0798 0
M  V30 9334 C 817.457 -6.62392 -1.66511 0
M  V30 9335 O 817.145 -7.92137 -1.37016 0
M  V30 9336 H 816.877 -0.529748 -0.419932 0
M  V30 9337 H 819.431 -1.92998 -0.702914 0
M  V30 9338 H 817.661 -2.09171 -3.25245 0
M  V30 9339 H 819.35 -2.50631 -3.19279 0
M  V30 9340 H 820.116 -4.52481 -1.74603 0
M  V30 9341 H 815.995 -3.74319 -2.69085 0
M  V30 9342 H 819.539 -6.8679 -1.22334 0
M  V30 9343 H 815.436 -6.0784 -2.17258 0
M  V30 9344 H 816.204 -8.04492 -1.50782 0
M  V30 9345 N 818.867 0.818669 -1.34668 0
M  V30 9346 C 820.116 1.57017 -1.26604 0
M  V30 9347 C 820.429 1.94936 0.161036 0
M  V30 9348 O 821.635 2.69051 0.36386 0
M  V30 9349 C 820.091 2.83305 -2.2196 0
M  V30 9350 C 819.699 2.52671 -3.69948 0
M  V30 9351 C 821.443 3.61324 -2.22813 0
M  V30 9352 C 819.35 3.75178 -4.5716 0
M  V30 9353 H 818.28 0.589323 -0.470335 0
M  V30 9354 H 820.931 0.900956 -1.59859 0
M  V30 9355 H 819.313 3.51874 -1.81661 0
M  V30 9356 H 820.487 1.92186 -4.18809 0
M  V30 9357 H 818.802 1.8792 -3.71584 0
M  V30 9358 H 821.399 4.52294 -2.85192 0
M  V30 9359 H 821.742 3.97759 -1.22857 0
M  V30 9360 H 822.275 2.99703 -2.61578 0
M  V30 9361 H 819.014 3.43861 -5.58068 0
M  V30 9362 H 818.534 4.34931 -4.13031 0
M  V30 9363 H 820.213 4.42542 -4.71981 0
M  V30 9364 N 820.346 1.18468 1.03938 0
M  V30 9365 C 821.293 0.912859 2.1198 0
M  V30 9366 C 822.263 -0.14824 1.65437 0
M  V30 9367 O 823.448 -0.008331 1.90798 0
M  V30 9368 C 820.588 0.446114 3.42204 0
M  V30 9369 C 819.701 1.57278 4.02353 0
M  V30 9370 C 818.836 1.05863 5.20544 0
M  V30 9371 C 817.875 2.1599 5.72726 0
M  V30 9372 N 817.012 1.65959 6.82204 0
M  V30 9373 H 821.852 1.83798 2.34569 0
M  V30 9374 H 819.389 0.916504 1.15059 0
M  V30 9375 H 821.347 0.15697 4.16905 0
M  V30 9376 H 819.977 -0.442025 3.19759 0
M  V30 9377 H 819.029 1.97737 3.24968 0
M  V30 9378 H 820.341 2.40289 4.37107 0
M  V30 9379 H 819.495 0.724087 6.02364 0
M  V30 9380 H 818.234 0.198116 4.87297 0
M  V30 9381 H 817.239 2.50287 4.89527 0
M  V30 9382 H 818.464 3.02479 6.08016 0
M  V30 9383 H 816.41 0.82199 6.5083 0
M  V30 9384 H 816.327 2.42567 7.16029 0
M  V30 9385 H 817.595 1.35436 7.67644 0
M  V30 9386 N 821.824 -1.22873 0.986916 0
M  V30 9387 C 822.771 -2.2458 0.532215 0
M  V30 9388 C 823.741 -1.60375 -0.432322 0
M  V30 9389 O 824.926 -1.87775 -0.338416 0
M  V30 9390 C 822.066 -3.44761 -0.152864 0
M  V30 9391 C 821.179 -4.23501 0.852704 0
M  V30 9392 C 820.314 -5.31011 0.14176 0
M  V30 9393 C 819.353 -6.01464 1.1361 0
M  V30 9394 N 818.49 -7.00631 0.453871 0
M  V30 9395 H 823.33 -2.62838 1.40428 0
M  V30 9396 H 820.867 -1.29185 0.703543 0
M  V30 9397 H 822.825 -4.1333 -0.566926 0
M  V30 9398 H 821.455 -3.07284 -0.988756 0
M  V30 9399 H 820.507 -3.54286 1.38512 0
M  V30 9400 H 821.819 -4.72097 1.61014 0
M  V30 9401 H 820.973 -6.05805 -0.329337 0
M  V30 9402 H 819.712 -4.83373 -0.648229 0
M  V30 9403 H 818.717 -5.25456 1.61789 0
M  V30 9404 H 819.942 -6.5119 1.92686 0
M  V30 9405 H 817.888 -6.55235 -0.316791 0
M  V30 9406 H 817.805 -7.47204 1.14986 0
M  V30 9407 H 819.073 -7.795 0.00537823 0
M  V30 9408 N 823.302 -0.75937 -1.38099 0
M  V30 9409 C 824.549 -0.318113 -1.99986 0
M  V30 9410 C 824.877 1.10184 -1.6028 0
M  V30 9411 O 824.132 1.77015 -0.834524 0
M  V30 9412 C 824.431 -0.394999 -3.55211 0
M  V30 9413 C 824.097 -1.77143 -4.14646 0
M  V30 9414 C 822.759 -2.14811 -4.30592 0
M  V30 9415 C 825.111 -2.67407 -4.47373 0
M  V30 9416 C 822.439 -3.42203 -4.76565 0
M  V30 9417 C 824.791 -3.94196 -4.94765 0
M  V30 9418 C 823.455 -4.31925 -5.08918 0
M  V30 9419 H 822.725 -0.116406 -0.7318 0
M  V30 9420 H 825.372 -0.97098 -1.65058 0
M  V30 9421 H 823.677 0.341426 -3.9031 0
M  V30 9422 H 825.374 -0.0350722 -4.00985 0
M  V30 9423 H 821.964 -1.46864 -4.02652 0
M  V30 9424 H 826.148 -2.39569 -4.3465 0
M  V30 9425 H 821.404 -3.71346 -4.85708 0
M  V30 9426 H 825.578 -4.64276 -5.19057 0
M  V30 9427 H 823.205 -5.30699 -5.443 0
M  V30 9428 N 824.78 1.49157 -0.508906 0
M  V30 9429 C 826.027 2.02473 0.0327983 0
M  V30 9430 C 826.355 1.38792 1.36261 0
M  V30 9431 O 825.61 0.515576 1.88786 0
M  V30 9432 C 825.909 3.56687 0.225717 0
M  V30 9433 C 825.575 4.39046 -1.02708 0
M  V30 9434 C 824.237 4.61271 -1.37048 0
M  V30 9435 C 826.589 4.86902 -1.85946 0
M  V30 9436 C 823.917 5.28598 -2.54562 0
M  V30 9437 C 826.269 5.55521 -3.0262 0
M  V30 9438 C 824.933 5.7599 -3.3733 0
M  V30 9439 H 824.203 0.740903 0.0120017 0
M  V30 9440 H 826.85 1.79372 -0.670665 0
M  V30 9441 H 825.155 3.78511 1.01177 0
M  V30 9442 H 826.852 3.95541 0.659433 0
M  V30 9443 H 823.442 4.21994 -0.749615 0
M  V30 9444 H 827.626 4.69553 -1.6073 0
M  V30 9445 H 822.882 5.42646 -2.81682 0
M  V30 9446 H 827.056 5.91576 -3.67438 0
M  V30 9447 H 824.683 6.27934 -4.2849 0
M  V30 9448 N 826.258 0.243083 1.55714 0
M  V30 9449 C 827.205 -0.658078 2.21219 0
M  V30 9450 C 828.175 -1.1742 1.17481 0
M  V30 9451 O 829.36 -1.22937 1.45915 0
M  V30 9452 C 826.5 -1.85104 2.91257 0
M  V30 9453 C 825.613 -1.3718 4.09641 0
M  V30 9454 C 824.748 -2.52403 4.67404 0
M  V30 9455 C 823.787 -2.01321 5.78045 0
M  V30 9456 N 822.924 -3.09896 6.30007 0
M  V30 9457 H 827.764 -0.0927854 2.97856 0
M  V30 9458 H 825.301 -0.0340375 1.47061 0
M  V30 9459 H 827.259 -2.55179 3.3006 0
M  V30 9460 H 825.889 -2.38887 2.17101 0
M  V30 9461 H 824.941 -0.565232 3.76177 0
M  V30 9462 H 826.253 -0.957409 4.89525 0
M  V30 9463 H 825.407 -3.30525 5.08761 0
M  V30 9464 H 824.146 -2.97142 3.86728 0
M  V30 9465 H 823.151 -1.21667 5.36169 0
M  V30 9466 H 824.376 -1.57556 6.6057 0
M  V30 9467 H 822.322 -3.54077 5.52237 0
M  V30 9468 H 822.239 -2.72776 7.05074 0
M  V30 9469 H 823.507 -3.8809 6.76023 0
M  V30 9470 N 827.736 -1.57571 -0.0300757 0
M  V30 9471 C 828.985 -1.88407 -0.720126 0
M  V30 9472 C 829.298 -0.841466 -1.76575 0
M  V30 9473 O 830.504 -1.03902 -2.50832 0
M  V30 9474 C 828.96 -3.34348 -1.33188 0
M  V30 9475 C 828.568 -4.46837 -0.32266 0
M  V30 9476 C 830.312 -3.74333 -2.00187 0
M  V30 9477 C 828.219 -5.83838 -0.942703 0
M  V30 9478 H 827.149 -0.702952 -0.272718 0
M  V30 9479 H 829.8 -1.83482 0.0255337 0
M  V30 9480 H 828.182 -3.34014 -2.12721 0
M  V30 9481 H 829.356 -4.58638 0.445887 0
M  V30 9482 H 827.671 -4.15678 0.245181 0
M  V30 9483 H 830.268 -4.74008 -2.47428 0
M  V30 9484 H 830.611 -3.06275 -2.81959 0
M  V30 9485 H 831.144 -3.76837 -1.2743 0
M  V30 9486 H 827.883 -6.55294 -0.164413 0
M  V30 9487 H 827.403 -5.75759 -1.68111 0
M  V30 9488 H 829.082 -6.30535 -1.45034 0
M  V30 9489 N 829.214 0.302327 -1.54673 0
M  V30 9490 C 830.161 1.37282 -1.85532 0
M  V30 9491 C 831.131 1.50437 -0.704129 0
M  V30 9492 O 832.316 1.65317 -0.952627 0
M  V30 9493 C 829.456 2.73309 -2.10704 0
M  V30 9494 C 828.569 2.68614 -3.38335 0
M  V30 9495 C 827.704 3.96626 -3.53357 0
M  V30 9496 C 826.743 3.86324 -4.74784 0
M  V30 9497 N 825.88 5.06109 -4.86619 0
M  V30 9498 H 830.72 1.10265 -2.76849 0
M  V30 9499 H 828.257 0.533346 -1.37091 0
M  V30 9500 H 830.215 3.52414 -2.23294 0
M  V30 9501 H 828.845 2.98589 -1.22656 0
M  V30 9502 H 827.897 1.81381 -3.34373 0
M  V30 9503 H 829.209 2.56891 -4.27561 0
M  V30 9504 H 828.363 4.84168 -3.65604 0
M  V30 9505 H 827.102 4.11182 -2.62261 0
M  V30 9506 H 826.107 2.97166 -4.62572 0
M  V30 9507 H 827.332 3.73315 -5.67286 0
M  V30 9508 H 825.278 5.2113 -3.98446 0
M  V30 9509 H 825.195 4.96804 -5.69844 0
M  V30 9510 H 826.463 5.95306 -5.03221 0
M  V30 9511 N 830.692 1.47107 0.565454 0
M  V30 9512 C 831.64 1.59368 1.69424 0
M  V30 9513 C 832.634 0.461344 1.62997 0
M  V30 9514 O 833.84 0.638849 1.68282 0
M  V30 9515 H 830.215 0.501387 0.560459 0
M  V30 9516 H 832.186 2.54242 1.56217 0
M  V30 9517 C 830.935 1.61739 3.07792 0
M  V30 9518 H 830.258 2.48215 3.13416 0
M  V30 9519 H 831.698 1.7437 3.86486 0
M  V30 9520 C 830.157 0.349156 3.35086 0
M  V30 9521 O 830.687 -0.553287 3.97871 0
M  V30 9522 N 828.893 0.231723 2.89675 0
M  V30 9523 H 828.44 0.967021 2.3876 0
M  V30 9524 H 828.398 -0.615911 3.08308 0
M  V30 9525 N 832.17 -0.811516 1.35101 0
M  V30 9526 C 833.08 -1.95475 1.29718 0
M  V30 9527 C 834.096 -1.72813 0.202909 0
M  V30 9528 O 835.272 -1.96725 0.431414 0
M  V30 9529 C 832.337 -3.29975 1.06385 0
M  V30 9530 C 831.398 -3.65566 2.25077 0
M  V30 9531 C 830.631 -4.93648 2.02848 0
M  V30 9532 O 830.854 -5.617 0.992442 0
M  V30 9533 O 829.788 -5.27384 2.90087 0
M  V30 9534 H 833.614 -2.02961 2.25921 0
M  V30 9535 H 831.199 -0.948583 1.15422 0
M  V30 9536 H 833.081 -4.10506 0.951999 0
M  V30 9537 H 831.756 -3.2343 0.132294 0
M  V30 9538 H 830.663 -2.85432 2.41825 0
M  V30 9539 H 831.996 -3.7681 3.16662 0
M  V30 9540 N 833.648 -1.19017 -1.03309 0
M  V30 9541 C 834.878 -1.01387 -1.80012 0
M  V30 9542 C 835.286 0.440655 -1.83997 0
M  V30 9543 O 834.629 1.31786 -1.27977 0
M  V30 9544 C 834.691 -1.50171 -3.26633 0
M  V30 9545 C 834.355 -2.98213 -3.46292 0
M  V30 9546 C 835.352 -3.96009 -3.36857 0
M  V30 9547 C 833.037 -3.36812 -3.72643 0
M  V30 9548 C 835.031 -5.30399 -3.5349 0
M  V30 9549 C 832.718 -4.71363 -3.88922 0
M  V30 9550 C 833.716 -5.67966 -3.79347 0
M  V30 9551 O 833.404 -7.00079 -3.95151 0
M  V30 9552 H 833.136 -0.357899 -0.573484 0
M  V30 9553 H 835.69 -1.58171 -1.31039 0
M  V30 9554 H 833.92 -0.877586 -3.7661 0
M  V30 9555 H 835.609 -1.28814 -3.84918 0
M  V30 9556 H 836.375 -3.67534 -3.16455 0
M  V30 9557 H 832.254 -2.62175 -3.7919 0
M  V30 9558 H 835.798 -6.05786 -3.45933 0
M  V30 9559 H 831.695 -4.99536 -4.0882 0
M  V30 9560 H 832.463 -7.07092 -4.12266 0
M  V30 9561 N 835.127 1.22348 -0.993418 0
M  V30 9562 C 836.057 2.26584 -0.564088 0
M  V30 9563 C 837.038 1.65102 0.409298 0
M  V30 9564 O 838.223 1.91872 0.299819 0
M  V30 9565 C 835.353 3.47087 0.121554 0
M  V30 9566 C 834.307 4.21009 -0.770429 0
M  V30 9567 C 833.633 5.34678 0.0481586 0
M  V30 9568 C 834.933 4.79636 -2.06752 0
M  V30 9569 H 836.627 2.62749 -1.43538 0
M  V30 9570 H 834.173 1.26303 -0.691628 0
M  V30 9571 H 836.126 4.19166 0.433303 0
M  V30 9572 H 834.85 3.1002 1.0274 0
M  V30 9573 H 833.509 3.50764 -1.06583 0
M  V30 9574 H 833.157 4.93852 0.954933 0
M  V30 9575 H 832.857 5.85061 -0.545641 0
M  V30 9576 H 834.381 6.09573 0.353991 0
M  V30 9577 H 835.795 5.43654 -1.81969 0
M  V30 9578 H 834.192 5.4036 -2.61019 0
M  V30 9579 H 835.262 3.99659 -2.74592 0
M  V30 9580 N 836.605 0.766683 1.37694 0
M  V30 9581 C 837.552 0.147725 2.30327 0
M  V30 9582 C 838.522 -0.695366 1.50844 0
M  V30 9583 O 839.707 -0.64878 1.79431 0
M  V30 9584 C 836.847 -0.72935 3.37305 0
M  V30 9585 C 835.96 0.129795 4.31805 0
M  V30 9586 C 835.095 -0.751511 5.25857 0
M  V30 9587 C 834.134 0.110475 6.12 0
M  V30 9588 N 833.271 -0.728522 6.9831 0
M  V30 9589 H 838.111 0.943204 2.82679 0
M  V30 9590 H 835.648 0.476736 1.3916 0
M  V30 9591 H 837.606 -1.25263 3.97951 0
M  V30 9592 H 836.236 -1.49048 2.86329 0
M  V30 9593 H 835.288 0.770829 3.72508 0
M  V30 9594 H 836.6 0.794923 4.92425 0
M  V30 9595 H 835.754 -1.34146 5.91684 0
M  V30 9596 H 834.493 -1.45034 4.65636 0
M  V30 9597 H 833.498 0.712999 5.45157 0
M  V30 9598 H 834.723 0.806557 6.74293 0
M  V30 9599 H 832.669 -1.41206 6.40622 0
M  V30 9600 H 832.586 -0.12058 7.55904 0
M  V30 9601 H 833.854 -1.30303 7.68532 0
M  V30 9602 N 838.083 -1.48885 0.516809 0
M  V30 9603 C 839.031 -2.31066 -0.266656 0
M  V30 9604 C 840.025 -1.40393 -0.94795 0
M  V30 9605 O 841.231 -1.57366 -0.873836 0
M  V30 9606 H 837.606 -0.744654 -0.104858 0
M  V30 9607 H 839.577 -2.95045 0.446236 0
M  V30 9608 C 838.326 -3.22131 -1.3087 0
M  V30 9609 H 837.649 -3.91839 -0.793865 0
M  V30 9610 H 839.089 -3.82544 -1.82856 0
M  V30 9611 C 837.548 -2.42825 -2.33533 0
M  V30 9612 O 838.078 -2.14364 -3.39722 0
M  V30 9613 N 836.284 -2.04559 -2.06407 0
M  V30 9614 H 835.831 -2.27905 -1.20071 0
M  V30 9615 H 835.789 -1.51807 -2.75322 0
M  V30 9616 N 839.561 -0.251338 -1.55583 0
M  V30 9617 C 840.524 0.63305 -2.20284 0
M  V30 9618 C 841.524 1.09941 -1.17344 0
M  V30 9619 O 842.714 1.00341 -1.42399 0
M  V30 9620 C 839.846 1.8706 -2.84993 0
M  V30 9621 H 841.039 0.0684846 -2.99822 0
M  V30 9622 H 838.592 -0.00181653 -1.563 0
M  V30 9623 H 839.327 2.47629 -2.09405 0
M  V30 9624 H 839.112 1.54436 -3.60405 0
M  V30 9625 H 840.602 2.50004 -3.34496 0
M  V30 9626 N 841.039 1.57585 0.0217189 0
M  V30 9627 C 842.288 1.88786 0.710125 0
M  V30 9628 C 842.601 0.850819 1.76126 0
M  V30 9629 O 843.807 1.0523 2.50277 0
M  V30 9630 C 842.263 3.3505 1.31413 0
M  V30 9631 C 841.871 4.47001 0.298959 0
M  V30 9632 C 843.615 3.7539 1.98199 0
M  V30 9633 C 841.522 5.8433 0.911727 0
M  V30 9634 H 840.452 0.704388 0.268986 0
M  V30 9635 H 843.103 1.83466 -0.0352638 0
M  V30 9636 H 841.485 3.35138 2.10947 0
M  V30 9637 H 842.659 4.58395 -0.470203 0
M  V30 9638 H 840.974 4.15542 -0.267222 0
M  V30 9639 H 843.571 4.75314 2.4491 0
M  V30 9640 H 843.914 3.07766 2.80331 0
M  V30 9641 H 844.447 3.77508 1.2543 0
M  V30 9642 H 841.186 6.55372 0.129659 0
M  V30 9643 H 840.706 5.76643 1.65056 0
M  V30 9644 H 842.385 6.31295 1.41688 0
M  V30 9645 N 842.517 -0.29412 1.54831 0
M  V30 9646 C 843.766 -1.02614 1.73647 0
M  V30 9647 C 844.079 -1.88193 0.533162 0
M  V30 9648 O 845.285 -2.64713 0.603275 0
M  V30 9649 C 843.741 -1.87417 3.07251 0
M  V30 9650 C 843.349 -1.06806 4.35082 0
M  V30 9651 C 845.093 -2.60176 3.35423 0
M  V30 9652 C 843 -1.90926 5.59733 0
M  V30 9653 H 841.93 -0.386834 0.647206 0
M  V30 9654 H 844.581 -0.282789 1.81308 0
M  V30 9655 H 842.963 -2.65765 2.93572 0
M  V30 9656 H 844.137 -0.330226 4.59615 0
M  V30 9657 H 842.452 -0.455979 4.13896 0
M  V30 9658 H 845.049 -3.23476 4.25755 0
M  V30 9659 H 845.392 -3.29365 2.54606 0
M  V30 9660 H 845.925 -1.88871 3.50103 0
M  V30 9661 H 842.664 -1.26194 6.43238 0
M  V30 9662 H 842.184 -2.62363 5.39375 0
M  V30 9663 H 843.863 -2.48807 5.97247 0
M  V30 9664 N 843.995 -1.47404 -0.557645 0
M  V30 9665 C 844.942 -1.59859 -1.66475 0
M  V30 9666 C 845.912 -0.441644 -1.60121 0
M  V30 9667 O 847.097 -0.661641 -1.78961 0
M  V30 9668 C 844.237 -1.61843 -3.04797 0
M  V30 9669 C 843.35 -2.8845 -3.2159 0
M  V30 9670 C 842.485 -2.81773 -4.50308 0
M  V30 9671 C 841.524 -4.03208 -4.60532 0
M  V30 9672 N 840.661 -3.94769 -5.80604 0
M  V30 9673 H 845.501 -2.54415 -1.55168 0
M  V30 9674 H 843.038 -1.26194 -0.755876 0
M  V30 9675 H 844.996 -1.60976 -3.84893 0
M  V30 9676 H 843.626 -0.707997 -3.1494 0
M  V30 9677 H 842.678 -2.99186 -2.34929 0
M  V30 9678 H 843.99 -3.78379 -3.25009 0
M  V30 9679 H 843.144 -2.79153 -5.38663 0
M  V30 9680 H 841.883 -1.89527 -4.49367 0
M  V30 9681 H 840.888 -4.06133 -3.70589 0
M  V30 9682 H 842.113 -4.9658 -4.63233 0
M  V30 9683 H 840.059 -3.05326 -5.80613 0
M  V30 9684 H 839.976 -4.78375 -5.854 0
M  V30 9685 H 841.244 -3.96165 -6.71322 0
M  V30 9686 N 845.473 0.80434 -1.35529 0
M  V30 9687 C 846.701 1.59283 -1.32048 0
M  V30 9688 C 847.116 1.88527 0.101556 0
M  V30 9689 O 846.473 1.48975 1.05417 0
M  V30 9690 C 846.524 2.92276 -2.12737 0
M  V30 9691 O 846.245 2.64299 -3.49396 0
M  V30 9692 C 847.746 3.86631 -2.16867 0
M  V30 9693 H 844.966 0.494523 -0.453528 0
M  V30 9694 H 847.51 0.999415 -1.78415 0
M  V30 9695 H 845.665 3.48125 -1.69964 0
M  V30 9696 H 846.079 3.4923 -3.91329 0
M  V30 9697 H 847.553 4.77053 -2.77712 0
M  V30 9698 H 848.03 4.23384 -1.16803 0
M  V30 9699 H 848.636 3.36717 -2.59811 0
M  V30 9700 N 846.951 1.19563 1.02676 0
M  V30 9701 C 848.2 0.993864 1.75514 0
M  V30 9702 C 848.513 -0.475882 1.89723 0
M  V30 9703 O 849.719 -0.796525 2.59553 0
M  V30 9704 C 848.175 1.72937 3.15628 0
M  V30 9705 C 847.783 3.23937 3.09466 0
M  V30 9706 C 849.527 1.61092 3.92746 0
M  V30 9707 C 847.434 3.90067 4.44524 0
M  V30 9708 H 846.364 0.368244 0.657961 0
M  V30 9709 H 849.015 1.43081 1.14891 0
M  V30 9710 H 847.397 1.22025 3.76731 0
M  V30 9711 H 848.571 3.81983 2.57731 0
M  V30 9712 H 846.886 3.3608 2.45843 0
M  V30 9713 H 849.483 2.07848 4.92649 0
M  V30 9714 H 849.826 0.565415 4.12442 0
M  V30 9715 H 850.359 2.09361 3.3825 0
M  V30 9716 H 847.098 4.94725 4.30032 0
M  V30 9717 H 846.618 3.36809 4.96306 0
M  V30 9718 H 848.297 3.93736 5.13401 0
M  V30 9719 N 848.429 -1.21819 0.999893 0
M  V30 9720 C 849.84 -1.72517 0.713775 0
M  V30 9721 C 850.191 -1.80505 -0.768922 0
M  V30 9722 O 849.316 -1.45611 -1.60083 0
M  V30 9723 C 849.911 -3.13321 1.28901 0
M  V30 9724 C 848.47 -3.61396 1.05212 0
M  V30 9725 C 847.617 -2.39074 1.40494 0
M  V30 9726 H 850.568 -1.07068 1.17141 0
M  V30 9727 H 850.589 -3.74535 0.671084 0
M  V30 9728 H 850.101 -3.07475 2.36814 0
M  V30 9729 H 848.202 -3.72599 -0.0100732 0
M  V30 9730 H 848.315 -4.47145 1.72042 0
M  V30 9731 H 846.679 -2.41015 0.823642 0
M  V30 9732 H 847.462 -2.35884 2.49427 0
M  V30 9733 N 849.908 -0.773975 -1.37286 0
M  V30 9734 C 850.838 -0.175782 -2.32837 0
M  V30 9735 C 851.819 0.680603 -1.5589 0
M  V30 9736 O 853.004 0.617607 -1.84117 0
M  V30 9737 C 850.134 0.702388 -3.40123 0
M  V30 9738 C 849.088 -0.0528687 -4.27967 0
M  V30 9739 C 848.414 0.944891 -5.26285 0
M  V30 9740 C 849.714 -1.23316 -5.07534 0
M  V30 9741 H 851.408 -0.974016 -2.83114 0
M  V30 9742 H 848.954 -0.469826 -1.3612 0
M  V30 9743 H 850.907 1.13069 -4.05947 0
M  V30 9744 H 849.631 1.53316 -2.88378 0
M  V30 9745 H 848.29 -0.461978 -3.63678 0
M  V30 9746 H 847.938 1.77028 -4.70819 0
M  V30 9747 H 847.638 0.444079 -5.8592 0
M  V30 9748 H 849.162 1.37209 -5.94984 0
M  V30 9749 H 850.576 -0.881395 -5.66484 0
M  V30 9750 H 848.973 -1.66621 -5.76504 0
M  V30 9751 H 850.043 -2.03617 -4.40077 0
M  V30 9752 N 851.386 1.48609 -0.524698 0
M  V30 9753 C 852.316 2.32366 0.229837 0
M  V30 9754 C 853.297 1.41759 0.940129 0
M  V30 9755 O 854.482 1.7065 0.926936 0
M  V30 9756 C 851.612 3.22835 1.28043 0
M  V30 9757 C 850.566 4.22424 0.688603 0
M  V30 9758 C 849.892 5.0199 1.84146 0
M  V30 9759 C 851.192 5.21217 -0.336176 0
M  V30 9760 H 852.886 2.95698 -0.469339 0
M  V30 9761 H 850.432 1.42197 -0.227156 0
M  V30 9762 H 852.385 3.80253 1.8162 0
M  V30 9763 H 851.109 2.57492 2.00912 0
M  V30 9764 H 849.768 3.66185 0.174402 0
M  V30 9765 H 849.416 4.33076 2.5584 0
M  V30 9766 H 849.116 5.69392 1.45142 0
M  V30 9767 H 850.64 5.62259 2.38111 0
M  V30 9768 H 852.054 5.7319 0.112307 0
M  V30 9769 H 850.451 5.96642 -0.643324 0
M  V30 9770 H 851.521 4.68676 -1.24381 0
M  V30 9771 N 852.864 0.259585 1.55447 0
M  V30 9772 C 854.113 -0.362163 1.98422 0
M  V30 9773 C 854.426 -1.58135 1.1512 0
M  V30 9774 O 855.632 -2.27506 1.48166 0
M  V30 9775 C 854.088 -0.695722 3.53111 0
M  V30 9776 C 853.696 0.502784 4.4517 0
M  V30 9777 C 855.44 -1.28096 4.04712 0
M  V30 9778 C 853.347 0.144674 5.91223 0
M  V30 9779 H 852.277 -0.139092 0.74106 0
M  V30 9780 H 854.928 0.361798 1.79898 0
M  V30 9781 H 853.31 -1.47816 3.67378 0
M  V30 9782 H 854.484 1.27994 4.42667 0
M  V30 9783 H 852.799 1.0038 4.0412 0
M  V30 9784 H 855.396 -1.56243 5.11363 0
M  V30 9785 H 855.739 -2.20969 3.52815 0
M  V30 9786 H 856.272 -0.561146 3.93822 0
M  V30 9787 H 853.011 1.04087 6.47183 0
M  V30 9788 H 852.531 -0.596023 5.96831 0
M  V30 9789 H 854.21 -0.268651 6.46442 0
M  V30 9790 N 854.342 -1.57594 -0.0133615 0
M  V30 9791 C 855.252 -2.10991 -1.02566 0
M  V30 9792 C 856.268 -1.05208 -1.3859 0
M  V30 9793 O 857.444 -1.37034 -1.47593 0
M  V30 9794 C 854.509 -2.59165 -2.30292 0
M  V30 9795 C 853.57 -3.79495 -2.00704 0
M  V30 9796 C 852.803 -4.25361 -3.22341 0
M  V30 9797 O 853.026 -3.70645 -4.33565 0
M  V30 9798 O 851.96 -5.17649 -3.07121 0
M  V30 9799 H 855.786 -2.97678 -0.601806 0
M  V30 9800 H 853.371 -1.47598 -0.23135 0
M  V30 9801 H 855.253 -2.90409 -3.05354 0
M  V30 9802 H 853.928 -1.75582 -2.71942 0
M  V30 9803 H 852.835 -3.53245 -1.23161 0
M  V30 9804 H 854.168 -4.64109 -1.639 0
M  V30 9805 N 855.82 0.285905 -1.54985 0
M  V30 9806 C 857.236 0.632405 -1.46536 0
M  V30 9807 C 857.436 1.90074 -0.668888 0
M  V30 9808 O 856.492 2.51839 -0.182586 0
M  V30 9809 C 857.805 0.771361 -2.90638 0
M  V30 9810 C 859.353 0.866262 -3.00774 0
M  V30 9811 C 859.828 1.0371 -4.46103 0
M  V30 9812 N 861.319 1.10294 -4.49877 0
M  V30 9813 C 862.054 1.25369 -5.59527 0
M  V30 9814 N 861.55 1.37246 -6.7907 0
M  V30 9815 N 863.343 1.28377 -5.47244 0
M  V30 9816 H 855.494 -0.547226 -2.0523 0
M  V30 9817 H 857.757 -0.183298 -0.930111 0
M  V30 9818 H 857.463 -0.0899485 -3.51585 0
M  V30 9819 H 857.337 1.65569 -3.3892 0
M  V30 9820 H 859.724 1.71805 -2.39931 0
M  V30 9821 H 859.805 -0.0424049 -2.55765 0
M  V30 9822 H 859.449 0.190021 -5.07544 0
M  V30 9823 H 859.379 1.96022 -4.88757 0
M  V30 9824 H 861.87 1.02407 -3.6376 0
M  V30 9825 H 862.183 1.48546 -7.58389 0
M  V30 9826 H 860.528 1.34274 -6.81906 0
M  V30 9827 H 863.719 1.1872 -4.52795 0
M  V30 9828 H 863.892 1.39782 -6.32744 0
M  V30 9829 N 857.298 1.47698 0.54982 0
M  V30 9830 C 858.228 1.63622 1.66583 0
M  V30 9831 C 859.209 0.485477 1.63025 0
M  V30 9832 O 860.394 0.715692 1.80531 0
M  V30 9833 C 857.524 1.65721 3.05211 0
M  V30 9834 C 856.478 2.80097 3.2362 0
M  V30 9835 C 855.804 2.67272 4.63109 0
M  V30 9836 C 857.104 4.21612 3.08286 0
M  V30 9837 H 858.798 2.57049 1.53512 0
M  V30 9838 H 856.344 1.23705 0.737099 0
M  V30 9839 H 858.297 1.75451 3.83138 0
M  V30 9840 H 857.021 0.688593 3.19258 0
M  V30 9841 H 855.68 2.69889 2.48104 0
M  V30 9842 H 855.328 1.68422 4.73965 0
M  V30 9843 H 855.028 3.44008 4.76374 0
M  V30 9844 H 856.552 2.78942 5.43161 0
M  V30 9845 H 857.966 4.32758 3.76024 0
M  V30 9846 H 856.363 4.99193 3.33057 0
M  V30 9847 H 857.433 4.39462 2.04942 0
M  V30 9848 N 858.776 -0.797141 1.35954 0
M  V30 9849 C 859.706 -1.92387 1.32323 0
M  V30 9850 C 860.687 -1.68967 0.196007 0
M  V30 9851 O 861.872 -1.90193 0.39245 0
M  V30 9852 C 859.002 -3.29286 1.10398 0
M  V30 9853 C 857.956 -3.67212 2.19862 0
M  V30 9854 C 857.282 -5.02377 1.8309 0
M  V30 9855 C 858.582 -3.76602 3.61896 0
M  V30 9856 H 860.276 -1.95683 2.26602 0
M  V30 9857 H 857.822 -0.94007 1.09081 0
M  V30 9858 H 859.775 -4.07721 1.06495 0
M  V30 9859 H 858.499 -3.26358 0.125668 0
M  V30 9860 H 857.158 -2.91069 2.22878 0
M  V30 9861 H 856.806 -4.95961 0.838527 0
M  V30 9862 H 856.506 -5.28722 2.56372 0
M  V30 9863 H 858.03 -5.8324 1.80729 0
M  V30 9864 H 859.444 -4.45246 3.6115 0
M  V30 9865 H 857.841 -4.14425 4.34018 0
M  V30 9866 H 858.911 -2.77906 3.97361 0
M  V30 9867 N 860.254 -1.20106 -1.0204 0
M  V30 9868 C 861.202 -0.943231 -2.12617 0
M  V30 9869 C 862.196 0.104042 -1.6908 0
M  V30 9870 O 863.402 -0.0459732 -1.79941 0
M  V30 9871 H 859.777 -0.28767 -0.694802 0
M  V30 9872 H 861.748 -1.88221 -2.3155 0
M  V30 9873 C 860.497 -0.50771 -3.43973 0
M  V30 9874 H 859.82 -1.30514 -3.77897 0
M  V30 9875 H 861.26 -0.366486 -4.22413 0
M  V30 9876 C 859.719 0.77939 -3.27761 0
M  V30 9877 O 860.249 1.83876 -3.57145 0
M  V30 9878 N 858.455 0.739931 -2.81022 0
M  V30 9879 H 858.002 -0.122426 -2.57309 0
M  V30 9880 H 857.96 1.60147 -2.70556 0
M  V30 9881 N 861.732 1.21287 -1.00634 0
M  V30 9882 C 862.978 1.90671 -0.690822 0
M  V30 9883 C 863.311 1.77996 0.776592 0
M  V30 9884 O 862.586 1.15748 1.5631 0
M  V30 9885 C 862.869 3.42426 -1.11428 0
M  V30 9886 C 862.722 3.64086 -2.64124 0
M  V30 9887 C 864.041 4.34851 -0.677686 0
M  V30 9888 H 861.16 0.692419 -0.252439 0
M  V30 9889 H 863.802 1.42893 -1.25226 0
M  V30 9890 H 861.952 3.83249 -0.636586 0
M  V30 9891 H 863.624 3.32582 -3.19667 0
M  V30 9892 H 861.867 3.07906 -3.05576 0
M  V30 9893 H 862.538 4.7042 -2.88806 0
M  V30 9894 H 865.014 4.01619 -1.0882 0
M  V30 9895 H 863.89 5.39675 -1.00213 0
M  V30 9896 H 864.151 4.4009 0.421125 0
M  V30 9897 N 863.21 0.781244 1.36873 0
M  V30 9898 C 864.459 0.34652 1.98701 0
M  V30 9899 C 864.772 -1.08555 1.62712 0
M  V30 9900 O 865.978 -1.62213 2.17713 0
M  V30 9901 C 864.434 0.568611 3.5538 0
M  V30 9902 C 864.042 2.01156 4.003 0
M  V30 9903 C 865.786 0.197983 4.24038 0
M  V30 9904 C 863.693 2.18074 5.49725 0
M  V30 9905 H 862.623 0.125821 0.743428 0
M  V30 9906 H 865.274 0.961721 1.56279 0
M  V30 9907 H 863.656 -0.116185 3.9583 0
M  V30 9908 H 864.83 2.73209 3.71071 0
M  V30 9909 H 863.145 2.33967 3.44454 0
M  V30 9910 H 865.742 0.302778 5.33842 0
M  V30 9911 H 866.085 -0.852927 4.07469 0
M  V30 9912 H 866.618 0.835696 3.88923 0
M  V30 9913 H 863.357 3.21519 5.71232 0
M  V30 9914 H 862.877 1.50517 5.80607 0
M  V30 9915 H 864.556 1.98393 6.15832 0
M  V30 9916 N 864.689 -1.48329 0.532571 0
M  V30 9917 C 865.636 -2.29663 -0.228779 0
M  V30 9918 C 866.606 -1.37529 -0.931401 0
M  V30 9919 O 867.791 -1.66493 -0.931921 0
M  V30 9920 C 864.931 -3.20955 -1.26814 0
M  V30 9921 C 864.044 -4.28168 -0.574099 0
M  V30 9922 C 863.179 -5.06638 -1.59661 0
M  V30 9923 C 862.218 -6.05651 -0.88618 0
M  V30 9924 N 861.355 -6.77169 -1.85436 0
M  V30 9925 H 866.195 -2.94255 0.47098 0
M  V30 9926 H 863.732 -1.45061 0.2441 0
M  V30 9927 H 865.69 -3.72285 -1.88307 0
M  V30 9928 H 864.32 -2.58281 -1.93625 0
M  V30 9929 H 863.372 -3.80085 0.154827 0
M  V30 9930 H 864.684 -4.98797 -0.0163984 0
M  V30 9931 H 863.838 -5.61995 -2.28576 0
M  V30 9932 H 862.577 -4.35854 -2.18821 0
M  V30 9933 H 861.582 -5.49495 -0.182981 0
M  V30 9934 H 862.807 -6.78434 -0.300659 0
M  V30 9935 H 860.753 -6.09134 -2.43499 0
M  V30 9936 H 860.67 -7.43882 -1.34816 0
M  V30 9937 H 861.938 -7.37114 -2.53541 0
M  V30 9938 N 866.167 -0.267825 -1.55308 0
M  V30 9939 C 867.077 0.633055 -2.25897 0
M  V30 9940 C 868.093 1.17613 -1.28231 0
M  V30 9941 O 869.269 1.20797 -1.61153 0
M  V30 9942 C 866.334 1.80397 -2.96071 0
M  V30 9943 C 865.395 1.29829 -4.09198 0
M  V30 9944 C 864.628 2.4134 -4.76016 0
M  V30 9945 O 864.851 3.60537 -4.42006 0
M  V30 9946 O 863.785 2.09909 -5.64111 0
M  V30 9947 H 867.611 0.0614381 -3.03638 0
M  V30 9948 H 865.196 -0.0355072 -1.49358 0
M  V30 9949 H 867.078 2.48685 -3.40197 0
M  V30 9950 H 865.753 2.36281 -2.21253 0
M  V30 9951 H 864.66 0.582086 -3.69544 0
M  V30 9952 H 865.993 0.785288 -4.85895 0
M  V30 9953 N 867.645 1.57599 0.00500368 0
M  V30 9954 C 868.894 1.89528 0.690061 0
M  V30 9955 C 869.207 0.869451 1.75214 0
M  V30 9956 O 870.413 1.07879 2.49147 0
M  V30 9957 C 868.869 3.36425 1.27852 0
M  V30 9958 C 868.477 4.47293 0.251531 0
M  V30 9959 C 870.221 3.77471 1.94206 0
M  V30 9960 C 868.128 5.85264 0.8497 0
M  V30 9961 H 867.058 0.707201 0.2615 0
M  V30 9962 H 869.709 1.83418 -0.0547209 0
M  V30 9963 H 868.091 3.37356 2.07381 0
M  V30 9964 H 869.265 4.5787 -0.518796 0
M  V30 9965 H 867.58 4.15235 -0.311281 0
M  V30 9966 H 870.177 4.77884 2.39855 0
M  V30 9967 H 870.52 3.10722 2.77051 0
M  V30 9968 H 871.053 3.78817 1.21419 0
M  V30 9969 H 867.792 6.55472 0.0601408 0
M  V30 9970 H 867.312 5.78361 1.5893 0
M  V30 9971 H 868.991 6.32762 1.34984 0
M  V30 9972 N 869.123 -0.277682 1.55134 0
M  V30 9973 C 870.07 -1.34313 1.87693 0
M  V30 9974 C 871.04 -1.49298 0.727973 0
M  V30 9975 O 872.225 -1.6378 0.978807 0
M  V30 9976 C 869.365 -2.69922 2.15026 0
M  V30 9977 C 868.478 -2.63197 3.42565 0
M  V30 9978 C 867.613 -3.90955 3.59622 0
M  V30 9979 C 866.652 -3.78722 4.8087 0
M  V30 9980 N 865.789 -4.98303 4.94609 0
M  V30 9981 H 870.629 -1.05847 2.78569 0
M  V30 9982 H 868.166 -0.511469 1.37922 0
M  V30 9983 H 870.124 -3.48817 2.28872 0
M  V30 9984 H 868.754 -2.966 1.2739 0
M  V30 9985 H 867.806 -1.76038 3.37216 0
M  V30 9986 H 869.118 -2.50056 4.31594 0
M  V30 9987 H 868.272 -4.78291 3.7326 0
M  V30 9988 H 867.011 -4.06957 2.6877 0
M  V30 9989 H 866.016 -2.89769 4.67241 0
M  V30 9990 H 867.241 -3.64242 5.73153 0
M  V30 9991 H 865.187 -5.14725 4.06687 0
M  V30 9992 H 865.104 -4.87675 5.77676 0
M  V30 9993 H 866.372 -5.87225 5.12628 0
M  V30 9994 N 870.601 -1.47988 -0.541979 0
M  V30 9995 C 871.841 -1.56982 -1.30905 0
M  V30 9996 C 872.205 -0.233153 -1.90579 0
M  V30 9997 O 873.406 -0.198018 -2.6807 0
M  V30 9998 C 871.677 -2.66787 -2.37823 0
M  V30 9999 S 873.236 -2.95467 -3.24414 0
M  V30 10000 H 870.054 -0.554165 -0.445446 0
M  V30 10001 H 872.656 -1.85448 -0.618803 0
M  V30 10002 H 871.36 -3.62483 -1.92443 0
M  V30 10003 H 870.891 -2.40184 -3.11569 0
M  V30 10004 H 872.906 -2.33846 -4.37642 0
M  V30 10005 N 872.079 0.78992 -1.36375 0
M  V30 10006 C 872.989 1.93386 -1.32812 0
M  V30 10007 C 874.005 1.72468 -0.230377 0
M  V30 10008 O 875.181 1.96014 -0.462657 0
M  V30 10009 C 872.246 3.2824 -1.11621 0
M  V30 10010 C 871.307 3.61939 -2.30865 0
M  V30 10011 C 870.54 4.90359 -2.10675 0
M  V30 10012 O 870.763 5.6005 -1.08168 0
M  V30 10013 O 869.697 5.22702 -2.9844 0
M  V30 10014 H 873.523 1.99342 -2.29121 0
M  V30 10015 H 871.108 0.9301 -1.16917 0
M  V30 10016 H 872.99 4.08939 -1.01719 0
M  V30 10017 H 871.665 3.23178 -0.183732 0
M  V30 10018 H 870.572 2.81549 -2.46335 0
M  V30 10019 H 871.905 3.71725 -3.22617 0
M  V30 10020 N 873.557 1.20646 1.01402 0
M  V30 10021 C 874.787 1.04238 1.78376 0
M  V30 10022 C 875.195 -0.411327 1.84675 0
M  V30 10023 O 874.538 -1.29734 1.30057 0
M  V30 10024 C 874.6 1.55349 3.24202 0
M  V30 10025 C 874.264 3.03684 3.41504 0
M  V30 10026 C 875.261 4.01318 3.30514 0
M  V30 10027 C 872.946 3.42698 3.67237 0
M  V30 10028 C 874.94 5.35956 3.45007 0
M  V30 10029 C 872.627 4.77491 3.81373 0
M  V30 10030 C 873.625 5.73929 3.70263 0
M  V30 10031 O 873.313 7.06277 3.83963 0
M  V30 10032 H 873.045 0.366978 0.567718 0
M  V30 10033 H 875.599 1.60235 1.28506 0
M  V30 10034 H 873.829 0.93739 3.75166 0
M  V30 10035 H 875.518 1.34921 3.8282 0
M  V30 10036 H 876.284 3.72522 3.10568 0
M  V30 10037 H 872.163 2.68175 3.74971 0
M  V30 10038 H 875.707 6.11212 3.36252 0
M  V30 10039 H 871.604 5.05977 4.00821 0
M  V30 10040 H 872.372 7.13561 4.00965 0
M  V30 10041 N 875.035 -1.20752 1.01276 0
M  V30 10042 C 876.284 -1.8934 0.695229 0
M  V30 10043 C 876.597 -1.79459 -0.77806 0
M  V30 10044 O 877.803 -2.43146 -1.20799 0
M  V30 10045 C 876.259 -3.39548 1.1931 0
M  V30 10046 C 875.867 -3.58023 2.69302 0
M  V30 10047 C 877.611 -4.13714 0.950823 0
M  V30 10048 C 875.518 -5.02037 3.1259 0
M  V30 10049 H 874.448 -0.709084 0.25635 0
M  V30 10050 H 877.099 -1.36629 1.22494 0
M  V30 10051 H 875.481 -3.91559 0.591395 0
M  V30 10052 H 876.655 -3.16416 3.34989 0
M  V30 10053 H 874.97 -2.97222 2.9163 0
M  V30 10054 H 877.567 -5.19891 1.24971 0
M  V30 10055 H 877.91 -4.16147 -0.112791 0
M  V30 10056 H 878.443 -3.67792 1.51571 0
M  V30 10057 H 875.182 -5.04757 4.18211 0
M  V30 10058 H 874.702 -5.44469 2.51621 0
M  V30 10059 H 876.381 -5.70594 3.0501 0
M  V30 10060 N 876.513 -0.788492 -1.36457 0
M  V30 10061 C 877.759 -0.360995 -1.99561 0
M  V30 10062 C 878.092 1.06433 -1.62437 0
M  V30 10063 O 877.367 1.7352 -0.878705 0
M  V30 10064 C 877.65 -0.523735 -3.56271 0
M  V30 10065 C 877.503 -1.99268 -4.03252 0
M  V30 10066 C 878.822 0.0617908 -4.40057 0
M  V30 10067 H 875.941 -0.13264 -0.724966 0
M  V30 10068 H 878.583 -0.994659 -1.61884 0
M  V30 10069 H 876.733 0.0156979 -3.88497 0
M  V30 10070 H 878.405 -2.59311 -3.81518 0
M  V30 10071 H 876.648 -2.49561 -3.54826 0
M  V30 10072 H 877.319 -2.05752 -5.12221 0
M  V30 10073 H 879.795 -0.398674 -4.14186 0
M  V30 10074 H 878.671 -0.0821089 -5.48839 0
M  V30 10075 H 878.932 1.15381 -4.26778 0
M  V30 10076 N 877.991 1.48044 -0.54043 0
M  V30 10077 C 878.924 2.26667 0.264083 0
M  V30 10078 C 879.902 1.32996 0.935456 0
M  V30 10079 O 881.086 1.62354 0.95778 0
M  V30 10080 C 878.213 3.09541 1.37485 0
M  V30 10081 C 877.259 4.18664 0.813792 0
M  V30 10082 S 878.092 5.34503 -0.326536 0
M  V30 10083 C 879.248 6.20939 0.786452 0
M  V30 10084 H 879.481 2.94554 -0.403129 0
M  V30 10085 H 877.014 1.5091 -0.326415 0
M  V30 10086 H 878.972 3.57863 2.01107 0
M  V30 10087 H 877.633 2.41048 2.01382 0
M  V30 10088 H 876.826 4.76316 1.6474 0
M  V30 10089 H 876.428 3.73136 0.254066 0
M  V30 10090 H 878.72 6.56273 1.68262 0
M  V30 10091 H 879.663 7.07667 0.247673 0
M  V30 10092 H 880.071 5.54236 1.07156 0
M  V30 10093 N 879.47 0.276058 1.55163 0
M  V30 10094 C 880.698 -0.343772 2.04024 0
M  V30 10095 C 881.113 -1.49397 1.15438 0
M  V30 10096 O 880.47 -1.81662 0.174692 0
M  V30 10097 C 880.521 -0.823885 3.51986 0
M  V30 10098 O 880.242 0.280507 4.37201 0
M  V30 10099 C 881.743 -1.51143 4.16738 0
M  V30 10100 H 878.963 -0.07828 0.666418 0
M  V30 10101 H 881.507 0.408427 2.0038 0
M  V30 10102 H 879.662 -1.52617 3.56071 0
M  V30 10103 H 880.076 -0.0887831 5.24425 0
M  V30 10104 H 881.55 -1.79878 5.2187 0
M  V30 10105 H 882.027 -2.44327 3.64967 0
M  V30 10106 H 882.633 -0.852975 4.16659 0
M  V30 10107 N 880.948 -1.576 0.00335426 0
M  V30 10108 C 881.878 -2.11668 -0.985839 0
M  V30 10109 C 882.859 -1.02661 -1.35627 0
M  V30 10110 O 884.044 -1.30361 -1.43943 0
M  V30 10111 C 881.174 -2.62273 -2.27662 0
M  V30 10112 C 880.128 -3.75837 -2.0477 0
M  V30 10113 C 879.454 -4.12769 -3.39891 0
M  V30 10114 C 880.754 -5.02975 -1.40759 0
M  V30 10115 H 882.448 -2.9457 -0.535637 0
M  V30 10116 H 879.994 -1.41702 -0.256204 0
M  V30 10117 H 881.947 -2.98727 -2.97221 0
M  V30 10118 H 880.671 -1.76498 -2.74802 0
M  V30 10119 H 879.33 -3.39782 -1.37636 0
M  V30 10120 H 878.978 -3.24013 -3.8474 0
M  V30 10121 H 878.678 -4.89281 -3.25389 0
M  V30 10122 H 880.202 -4.51784 -4.1076 0
M  V30 10123 H 881.616 -5.37179 -2.00279 0
M  V30 10124 H 880.013 -5.84315 -1.36734 0
M  V30 10125 H 881.083 -4.83431 -0.377218 0
M  V30 10126 N 882.426 0.269451 -1.5528 0
M  V30 10127 C 883.703 1.02207 -1.66773 0
M  V30 10128 C 884.083 2.04168 -0.536536 0
M  V30 10129 O 883.431 2.23761 0.462956 0
M  V30 10130 C 883.641 1.67569 -3.0614 0
M  V30 10131 C 884.989 2.18599 -3.64005 0
M  V30 10132 O 886.013 1.7755 -3.08795 0
M  V30 10133 O 884.872 2.93903 -4.60742 0
M  V30 10134 H 881.966 0.474314 -0.677462 0
M  V30 10135 H 884.512 0.265026 -1.67618 0
M  V30 10136 H 883.284 0.937029 -3.79915 0
M  V30 10137 H 882.907 2.49951 -3.09209 0
M  V30 10138 N 883.904 1.48273 0.534124 0
M  V30 10139 C 884.852 1.62926 1.66005 0
M  V30 10140 C 885.846 0.495814 1.61982 0
M  V30 10141 O 887.052 0.6744 1.66889 0
M  V30 10142 H 883.427 0.513163 0.549698 0
M  V30 10143 H 885.398 2.57498 1.50789 0
M  V30 10144 C 884.147 1.68231 3.04292 0
M  V30 10145 H 883.47 2.54807 3.0808 0
M  V30 10146 H 884.91 1.82528 3.827 0
M  V30 10147 C 883.369 0.420154 3.3427 0
M  V30 10148 O 883.899 -0.468769 3.98955 0
M  V30 10149 N 882.105 0.293115 2.89118 0
M  V30 10150 H 881.652 1.01745 2.36655 0
M  V30 10151 H 881.61 -0.550376 3.09545 0
M  V30 10152 N 885.382 -0.782676 1.36792 0
M  V30 10153 C 886.312 -1.90973 1.34356 0
M  V30 10154 C 887.293 -1.6875 0.213917 0
M  V30 10155 O 888.478 -1.89766 0.412601 0
M  V30 10156 C 885.608 -3.28097 1.13884 0
M  V30 10157 C 884.562 -3.6486 2.23744 0
M  V30 10158 C 883.888 -5.00406 1.88408 0
M  V30 10159 C 885.188 -3.72742 3.6587 0
M  V30 10160 H 886.882 -1.93268 2.28665 0
M  V30 10161 H 884.428 -0.928447 1.10072 0
M  V30 10162 H 886.381 -4.06569 1.10813 0
M  V30 10163 H 885.105 -3.26206 0.160275 0
M  V30 10164 H 883.764 -2.88689 2.25952 0
M  V30 10165 H 883.412 -4.95044 0.891083 0
M  V30 10166 H 883.112 -5.25973 2.61966 0
M  V30 10167 H 884.636 -5.81291 1.86905 0
M  V30 10168 H 886.05 -4.4139 3.65852 0
M  V30 10169 H 884.447 -4.09798 4.38389 0
M  V30 10170 H 885.517 -2.73676 4.00287 0
M  V30 10171 N 886.86 -1.21182 -1.00761 0
M  V30 10172 C 887.823 -0.970339 -2.07646 0
M  V30 10173 C 888.823 0.0576345 -1.60697 0
M  V30 10174 O 890.013 -0.179369 -1.73274 0
M  V30 10175 C 887.145 -0.462703 -3.37745 0
M  V30 10176 H 888.338 -1.91856 -2.30502 0
M  V30 10177 H 885.891 -1.02844 -1.17698 0
M  V30 10178 H 886.626 0.490559 -3.20568 0
M  V30 10179 H 886.411 -1.20416 -3.73152 0
M  V30 10180 H 887.901 -0.313531 -4.16421 0
M  V30 10181 N 888.338 1.20213 -1.01915 0
M  V30 10182 C 889.568 1.93341 -0.728197 0
M  V30 10183 C 889.976 1.75151 0.715454 0
M  V30 10184 O 889.319 1.06437 1.49722 0
M  V30 10185 C 889.381 3.45677 -0.9873 0
M  V30 10186 C 889.045 3.8763 -2.42057 0
M  V30 10187 C 890.042 3.93184 -3.40151 0
M  V30 10188 C 887.727 4.19547 -2.76199 0
M  V30 10189 C 889.721 4.30069 -4.70446 0
M  V30 10190 C 887.408 4.56106 -4.06707 0
M  V30 10191 C 888.406 4.6134 -5.03641 0
M  V30 10192 O 888.094 4.97059 -6.31813 0
M  V30 10193 H 887.826 0.621258 -0.266485 0
M  V30 10194 H 890.38 1.53577 -1.36393 0
M  V30 10195 H 888.61 3.85578 -0.294405 0
M  V30 10196 H 890.299 4.00035 -0.687536 0
M  V30 10197 H 891.065 3.68687 -3.15111 0
M  V30 10198 H 886.944 4.14663 -2.01434 0
M  V30 10199 H 890.488 4.34069 -5.46105 0
M  V30 10200 H 886.385 4.80059 -4.31525 0
M  V30 10201 H 887.153 5.15043 -6.36139 0
M  V30 10202 N 889.816 0.795718 1.36037 0
M  V30 10203 C 891.044 0.383153 2.03321 0
M  V30 10204 C 891.459 -1.00246 1.59988 0
M  V30 10205 O 890.816 -1.64406 0.792265 0
M  V30 10206 C 890.867 0.444467 3.58757 0
M  V30 10207 O 890.588 1.77544 4.00512 0
M  V30 10208 C 892.089 0.0233291 4.43294 0
M  V30 10209 H 889.309 0.157061 0.652359 0
M  V30 10210 H 891.853 1.07632 1.73884 0
M  V30 10211 H 890.008 -0.200341 3.86882 0
M  V30 10212 H 890.422 1.73065 4.95125 0
M  V30 10213 H 891.896 0.117361 5.51875 0
M  V30 10214 H 892.373 -1.03007 4.2695 0
M  V30 10215 H 892.979 0.64087 4.20444 0
M  V30 10216 N 891.294 -1.47756 0.548274 0
M  V30 10217 C 892.524 -2.06584 0.0254503 0
M  V30 10218 C 892.932 -1.40268 -1.26971 0
M  V30 10219 O 892.275 -0.49019 -1.77039 0
M  V30 10220 C 892.337 -3.58628 -0.250301 0
M  V30 10221 C 892.001 -4.4693 0.954087 0
M  V30 10222 C 892.998 -4.85592 1.85733 0
M  V30 10223 C 890.683 -4.88573 1.16624 0
M  V30 10224 C 892.677 -5.64686 2.95648 0
M  V30 10225 C 890.364 -5.67435 2.2685 0
M  V30 10226 C 891.362 -6.05401 3.16194 0
M  V30 10227 O 891.05 -6.82676 4.24511 0
M  V30 10228 H 890.782 -0.67489 0.0387264 0
M  V30 10229 H 893.336 -1.90876 0.758663 0
M  V30 10230 H 891.566 -3.72516 -1.03771 0
M  V30 10231 H 893.255 -3.9951 -0.717419 0
M  V30 10232 H 894.021 -4.54026 1.70544 0
M  V30 10233 H 889.9 -4.58494 0.480039 0
M  V30 10234 H 893.444 -5.9424 3.65411 0
M  V30 10235 H 889.341 -5.98413 2.42016 0
M  V30 10236 H 890.109 -7.01057 4.22447 0
M  V30 10237 N 892.772 -0.284283 -1.55015 0
M  V30 10238 C 893.719 0.599194 -2.22886 0
M  V30 10239 C 894.689 1.14264 -1.20553 0
M  V30 10240 O 895.874 1.19025 -1.49123 0
M  V30 10241 C 893.014 1.77317 -2.96062 0
M  V30 10242 C 892.127 1.26271 -4.13134 0
M  V30 10243 C 891.262 2.39922 -4.73931 0
M  V30 10244 C 890.301 1.85925 -5.8318 0
M  V30 10245 N 889.438 2.93084 -6.38002 0
M  V30 10246 H 894.278 0.0137816 -2.97997 0
M  V30 10247 H 891.815 -0.00496503 -1.47099 0
M  V30 10248 H 893.773 2.46339 -3.36709 0
M  V30 10249 H 892.403 2.33047 -2.23358 0
M  V30 10250 H 891.455 0.465296 -3.77544 0
M  V30 10251 H 892.767 0.827284 -4.91892 0
M  V30 10252 H 891.921 3.1692 -5.17346 0
M  V30 10253 H 890.66 2.86784 -3.9447 0
M  V30 10254 H 889.665 1.07409 -5.39206 0
M  V30 10255 H 890.89 1.39987 -6.64515 0
M  V30 10256 H 888.836 3.3931 -5.61431 0
M  V30 10257 H 888.753 2.53986 -7.12058 0
M  V30 10258 H 890.021 3.7003 -6.86075 0
M  V30 10259 N 894.251 1.57596 -0.0117121 0
M  V30 10260 C 895.528 1.82323 0.708356 0
M  V30 10261 C 895.908 0.891947 1.91331 0
M  V30 10262 O 895.256 -0.0565984 2.2843 0
M  V30 10263 C 895.466 3.31111 1.10303 0
M  V30 10264 C 896.814 3.97147 1.50199 0
M  V30 10265 O 897.838 3.35503 1.1965 0
M  V30 10266 O 896.697 5.0576 2.07049 0
M  V30 10267 H 893.791 0.751173 0.345931 0
M  V30 10268 H 896.337 1.69657 -0.0380632 0
M  V30 10269 H 895.109 3.90534 0.24467 0
M  V30 10270 H 894.732 3.48818 1.90818 0
M  V30 10271 N 895.729 -0.261212 1.5542 0
M  V30 10272 C 896.959 -1.00769 1.80358 0
M  V30 10273 C 897.367 -1.79991 0.583085 0
M  V30 10274 O 896.71 -1.77911 -0.457534 0
M  V30 10275 C 896.772 -2.00463 2.9842 0
M  V30 10276 C 896.436 -1.4007 4.35005 0
M  V30 10277 C 897.433 -0.810388 5.13545 0
M  V30 10278 C 895.118 -1.42436 4.81682 0
M  V30 10279 C 897.112 -0.251784 6.36903 0
M  V30 10280 C 894.799 -0.861897 6.04991 0
M  V30 10281 C 895.797 -0.276622 6.8244 0
M  V30 10282 O 895.485 0.277194 8.03422 0
M  V30 10283 H 895.217 -0.302839 0.604371 0
M  V30 10284 H 897.771 -0.293763 2.03288 0
M  V30 10285 H 896.001 -2.75648 2.71211 0
M  V30 10286 H 897.69 -2.61336 3.10577 0
M  V30 10287 H 898.456 -0.784719 4.7861 0
M  V30 10288 H 894.335 -1.8693 4.214 0
M  V30 10289 H 897.879 0.205678 6.97297 0
M  V30 10290 H 893.776 -0.884846 6.39407 0
M  V30 10291 H 894.544 0.167682 8.18328 0
M  V30 10292 N 897.207 -1.48554 -0.526253 0
M  V30 10293 C 898.456 -1.56014 -1.27837 0
M  V30 10294 C 898.769 -0.240643 -1.94114 0
M  V30 10295 O 899.975 -0.193525 -2.70809 0
M  V30 10296 C 898.431 -2.75161 -2.31979 0
M  V30 10297 C 898.039 -4.13768 -1.71755 0
M  V30 10298 C 899.783 -2.91936 -3.08178 0
M  V30 10299 C 897.69 -5.24171 -2.7386 0
M  V30 10300 H 896.62 -0.58082 -0.480795 0
M  V30 10301 H 899.271 -1.74895 -0.555335 0
M  V30 10302 H 897.653 -2.49722 -3.07335 0
M  V30 10303 H 898.827 -4.49241 -1.02563 0
M  V30 10304 H 897.142 -4.02141 -1.08036 0
M  V30 10305 H 899.739 -3.71586 -3.84484 0
M  V30 10306 H 900.082 -2.01533 -3.64267 0
M  V30 10307 H 900.615 -3.17294 -2.39937 0
M  V30 10308 H 897.354 -6.16552 -2.22586 0
M  V30 10309 H 896.874 -4.93181 -3.41368 0
M  V30 10310 H 898.553 -5.52442 -3.36774 0
M  V30 10311 N 898.685 0.775411 -1.37205 0
M  V30 10312 C 899.913 1.56446 -1.35397 0
M  V30 10313 C 900.328 1.887 0.0615437 0
M  V30 10314 O 899.685 1.51178 1.02233 0
M  V30 10315 C 899.736 2.87697 -2.18889 0
M  V30 10316 O 899.457 2.56828 -3.54924 0
M  V30 10317 C 900.958 3.81944 -2.25019 0
M  V30 10318 H 898.178 0.484792 -0.463916 0
M  V30 10319 H 900.722 0.961346 -1.80495 0
M  V30 10320 H 898.877 3.44442 -1.7731 0
M  V30 10321 H 899.291 3.40851 -3.98649 0
M  V30 10322 H 900.765 4.71055 -2.87769 0
M  V30 10323 H 901.242 4.20811 -1.25757 0
M  V30 10324 H 901.848 3.3113 -2.66895 0
M  V30 10325 N 900.163 1.21714 1.00117 0
M  V30 10326 C 901.574 1.03477 1.55401 0
M  V30 10327 C 901.925 -0.40429 1.91989 0
M  V30 10328 O 901.05 -1.28807 1.7389 0
M  V30 10329 C 901.645 1.87213 2.82377 0
M  V30 10330 C 900.204 1.73297 3.34133 0
M  V30 10331 C 899.351 1.84189 2.07291 0
M  V30 10332 H 902.302 1.3568 0.823195 0
M  V30 10333 H 902.323 1.38465 3.54412 0
M  V30 10334 H 901.835 2.91944 2.55715 0
M  V30 10335 H 899.936 0.712662 3.65721 0
M  V30 10336 H 900.049 2.55486 4.05294 0
M  V30 10337 H 898.413 1.27538 2.20468 0
M  V30 10338 H 899.196 2.90435 1.83037 0
M  V30 10339 N 901.641 -1.19671 1.02551 0
M  V30 10340 C 902.871 -1.92952 0.738441 0
M  V30 10341 C 903.279 -1.75528 -0.706155 0
M  V30 10342 O 902.622 -1.0723 -1.49156 0
M  V30 10343 C 902.684 -3.45149 1.00562 0
M  V30 10344 C 902.348 -3.86341 2.44109 0
M  V30 10345 C 903.345 -3.91374 3.42231 0
M  V30 10346 C 901.03 -4.18076 2.7842 0
M  V30 10347 C 903.024 -4.27568 4.7272 0
M  V30 10348 C 900.711 -4.53943 4.0912 0
M  V30 10349 C 901.709 -4.58663 5.06081 0
M  V30 10350 O 901.397 -4.93701 6.3444 0
M  V30 10351 H 901.129 -0.619836 0.269776 0
M  V30 10352 H 903.683 -1.52852 1.37206 0
M  V30 10353 H 901.913 -3.85416 0.314849 0
M  V30 10354 H 903.602 -3.99664 0.708742 0
M  V30 10355 H 904.368 -3.67011 3.17061 0
M  V30 10356 H 900.247 -4.13589 2.03631 0
M  V30 10357 H 903.791 -4.31166 5.48399 0
M  V30 10358 H 899.688 -4.77764 4.34064 0
M  V30 10359 H 900.456 -5.11662 6.38862 0
M  V30 10360 N 903.119 -0.802921 -1.35613 0
M  V30 10361 C 904.365 -0.382141 -1.99167 0
M  V30 10362 C 904.698 1.04704 -1.63556 0
M  V30 10363 O 903.973 1.72578 -0.89706 0
M  V30 10364 C 904.256 -0.561493 -3.55695 0
M  V30 10365 C 904.109 -2.03534 -4.01116 0
M  V30 10366 C 905.428 0.0151135 -4.40097 0
M  V30 10367 H 902.547 -0.140322 -0.723518 0
M  V30 10368 H 905.189 -1.01177 -1.6082 0
M  V30 10369 H 903.339 -0.0255083 -3.88492 0
M  V30 10370 H 905.011 -2.63343 -3.78746 0
M  V30 10371 H 903.254 -2.5331 -3.52159 0
M  V30 10372 H 903.925 -2.11173 -5.1001 0
M  V30 10373 H 906.401 -0.442582 -4.1374 0
M  V30 10374 H 905.277 -0.140316 -5.48721 0
M  V30 10375 H 905.538 1.10848 -4.27978 0
M  V30 10376 N 904.597 1.47463 -0.556102 0
M  V30 10377 C 905.545 2.31692 0.205299 0
M  V30 10378 C 906.539 1.42857 0.910394 0
M  V30 10379 O 907.745 1.59628 0.831806 0
M  V30 10380 H 904.12 0.747172 0.0850775 0
M  V30 10381 H 906.091 2.93758 -0.524305 0
M  V30 10382 C 904.84 3.25487 1.22283 0
M  V30 10383 H 904.163 3.93806 0.689697 0
M  V30 10384 H 905.603 3.87257 1.7265 0
M  V30 10385 C 904.062 2.48931 2.27013 0
M  V30 10386 O 904.592 2.23296 3.33919 0
M  V30 10387 N 902.798 2.0996 2.00911 0
M  V30 10388 H 902.345 2.31008 1.13986 0
M  V30 10389 H 902.303 1.59053 2.712 0
M  V30 10390 N 906.075 0.2925 1.54862 0
M  V30 10391 C 907.352 -0.371946 1.92031 0
M  V30 10392 C 907.732 -1.72363 1.21878 0
M  V30 10393 O 907.08 -2.25779 0.351573 0
M  V30 10394 C 907.29 -0.495027 3.45471 0
M  V30 10395 C 908.638 -0.769855 4.17562 0
M  V30 10396 O 909.662 -0.579168 3.5146 0
M  V30 10397 O 908.521 -1.13561 5.34571 0
M  V30 10398 H 905.615 -0.206463 0.800813 0
M  V30 10399 H 908.161 0.339933 1.6626 0
M  V30 10400 H 906.933 0.455528 3.88639 0
M  V30 10401 H 906.556 -1.2557 3.7725 0
M  V30 10402 N 907.553 -1.57587 0.0200696 0
M  V30 10403 C 908.799 -1.91708 -0.661503 0
M  V30 10404 C 909.132 -0.895968 -1.72296 0
M  V30 10405 O 908.407 0.082577 -1.94325 0
M  V30 10406 C 908.69 -3.36344 -1.28627 0
M  V30 10407 C 908.543 -4.49186 -0.234982 0
M  V30 10408 C 909.862 -3.80771 -2.20685 0
M  V30 10409 H 906.981 -0.69717 -0.239005 0
M  V30 10410 H 909.623 -1.8985 0.0754764 0
M  V30 10411 H 907.773 -3.38058 -1.91439 0
M  V30 10412 H 909.445 -4.59606 0.395011 0
M  V30 10413 H 907.688 -4.31557 0.440565 0
M  V30 10414 H 908.359 -5.47395 -0.711558 0
M  V30 10415 H 910.835 -3.80735 -1.67868 0
M  V30 10416 H 909.711 -4.82685 -2.61356 0
M  V30 10417 H 909.972 -3.15764 -3.09428 0
M  V30 10418 N 909.032 0.252966 -1.55557 0
M  V30 10419 C 910.278 0.983306 -1.77367 0
M  V30 10420 C 910.611 1.85203 -0.584258 0
M  V30 10421 O 909.886 1.89963 0.417644 0
M  V30 10422 C 910.169 1.84896 -3.09007 0
M  V30 10423 C 910.022 1.00883 -4.38341 0
M  V30 10424 C 911.341 2.83254 -3.36831 0
M  V30 10425 H 908.46 0.356056 -0.645286 0
M  V30 10426 H 911.102 0.254232 -1.88291 0
M  V30 10427 H 909.252 2.47058 -2.99825 0
M  V30 10428 H 910.924 0.40638 -4.59507 0
M  V30 10429 H 909.167 0.31297 -4.3267 0
M  V30 10430 H 909.838 1.64818 -5.2682 0
M  V30 10431 H 912.314 2.31228 -3.45937 0
M  V30 10432 H 911.19 3.40949 -4.30169 0
M  V30 10433 H 911.451 3.59407 -2.57447 0
M  V30 10434 N 910.51 1.48831 0.518367 0
M  V30 10435 C 911.756 1.57672 1.27543 0
M  V30 10436 C 912.089 0.254915 1.9252 0
M  V30 10437 O 911.364 -0.740107 1.79868 0
M  V30 10438 C 911.647 2.72345 2.35585 0
M  V30 10439 C 911.5 4.14267 1.75224 0
M  V30 10440 C 912.819 2.82726 3.37274 0
M  V30 10441 H 909.938 0.573926 0.462361 0
M  V30 10442 H 912.58 1.8105 0.576267 0
M  V30 10443 H 910.73 2.52543 2.95219 0
M  V30 10444 H 912.402 4.45539 1.19551 0
M  V30 10445 H 910.645 4.20724 1.05706 0
M  V30 10446 H 911.316 4.90345 2.53507 0
M  V30 10447 H 913.792 3.00699 2.8761 0
M  V30 10448 H 912.668 3.6467 4.10252 0
M  V30 10449 H 912.929 1.9136 3.9854 0
M  V30 10450 N 911.988 -0.768124 1.37614 0
M  V30 10451 C 912.951 -1.86314 1.3349 0
M  V30 10452 C 913.951 -1.59025 0.23823 0
M  V30 10453 O 915.141 -1.6704 0.494288 0
M  V30 10454 C 912.273 -3.23519 1.07462 0
M  V30 10455 H 913.466 -1.91382 2.30896 0
M  V30 10456 H 911.019 -0.968267 1.22696 0
M  V30 10457 H 911.754 -3.24127 0.106028 0
M  V30 10458 H 911.539 -3.44719 1.86846 0
M  V30 10459 H 913.029 -4.03597 1.07236 0
M  V30 10460 N 913.466 -1.22244 -0.994698 0
M  V30 10461 C 914.396 -1.01513 -2.10279 0
M  V30 10462 C 915.377 0.0633365 -1.69982 0
M  V30 10463 O 916.562 -0.0985268 -1.9395 0
M  V30 10464 C 913.692 -0.59016 -3.42249 0
M  V30 10465 C 912.646 -1.61436 -3.96387 0
M  V30 10466 C 911.972 -1.04528 -5.24383 0
M  V30 10467 C 913.272 -3.00388 -4.27276 0
M  V30 10468 H 914.966 -1.94194 -2.2788 0
M  V30 10469 H 912.512 -0.935094 -1.09508 0
M  V30 10470 H 914.465 -0.432254 -4.19177 0
M  V30 10471 H 913.189 0.372308 -3.24471 0
M  V30 10472 H 911.848 -1.76001 -3.21589 0
M  V30 10473 H 911.496 -0.0742225 -5.02945 0
M  V30 10474 H 911.196 -1.72949 -5.61571 0
M  V30 10475 H 912.72 -0.898922 -6.03947 0
M  V30 10476 H 914.134 -2.89207 -4.95007 0
M  V30 10477 H 912.531 -3.65916 -4.75631 0
M  V30 10478 H 913.601 -3.50456 -3.35125 0
M  V30 10479 N 914.944 1.19125 -1.03184 0
M  V30 10480 C 916.184 1.90582 -0.738785 0
M  V30 10481 C 916.548 1.78004 0.719627 0
M  V30 10482 O 917.749 2.44084 1.12589 0
M  V30 10483 C 916.02 3.37319 -1.18114 0
M  V30 10484 S 917.579 4.26962 -1.01238 0
M  V30 10485 H 914.397 0.6582 -0.268875 0
M  V30 10486 H 916.999 1.43999 -1.32229 0
M  V30 10487 H 915.703 3.43999 -2.23814 0
M  V30 10488 H 915.234 3.88935 -0.591051 0
M  V30 10489 H 917.249 4.96143 0.0753558 0
M  V30 10490 N 916.422 0.810101 1.35185 0
M  V30 10491 C 917.65 0.404696 2.02903 0
M  V30 10492 C 918.065 -0.985434 1.61042 0
M  V30 10493 O 917.422 -1.63557 0.809658 0
M  V30 10494 C 917.473 0.482493 3.58266 0
M  V30 10495 O 917.194 1.81782 3.98606 0
M  V30 10496 C 918.695 0.070345 4.43244 0
M  V30 10497 H 915.915 0.163972 0.650657 0
M  V30 10498 H 918.459 1.0947 1.72733 0
M  V30 10499 H 916.614 -0.159296 3.87072 0
M  V30 10500 H 917.028 1.78306 4.93262 0
M  V30 10501 H 918.502 0.175888 5.5172 0
M  V30 10502 H 918.979 -0.984724 4.28018 0
M  V30 10503 H 919.585 0.685427 4.1974 0
M  V30 10504 N 917.9 -1.47166 0.563914 0
M  V30 10505 C 919.125 -2.0735 0.0454698 0
M  V30 10506 C 919.55 -1.41281 -1.24182 0
M  V30 10507 O 918.908 -0.490084 -1.7455 0
M  V30 10508 C 918.956 -3.60378 -0.126453 0
M  V30 10509 O 918.06 -3.94934 -1.18746 0
M  V30 10510 H 917.401 -0.661773 0.0543377 0
M  V30 10511 H 919.931 -1.89086 0.781508 0
M  V30 10512 H 919.941 -4.06593 -0.338554 0
M  V30 10513 H 918.616 -4.07862 0.81373 0
M  V30 10514 H 917.193 -3.60455 -0.955318 0
M  V30 10515 N 919.378 -0.300708 -1.54705 0
M  V30 10516 C 920.625 0.308654 -2.00134 0
M  V30 10517 C 920.953 1.53918 -1.1891 0
M  V30 10518 O 920.208 1.94054 -0.253263 0
M  V30 10519 C 920.507 0.710108 -3.50275 0
M  V30 10520 C 920.173 -0.418651 -4.48952 0
M  V30 10521 C 918.835 -0.728524 -4.75653 0
M  V30 10522 C 921.187 -1.17797 -5.07714 0
M  V30 10523 C 918.515 -1.80085 -5.58378 0
M  V30 10524 C 920.867 -2.24022 -5.91606 0
M  V30 10525 C 919.531 -2.55616 -6.16617 0
M  V30 10526 H 918.801 0.112945 -0.732342 0
M  V30 10527 H 921.448 -0.419744 -1.86843 0
M  V30 10528 H 919.753 1.51859 -3.61173 0
M  V30 10529 H 921.45 1.19277 -3.8285 0
M  V30 10530 H 918.04 -0.167034 -4.28274 0
M  V30 10531 H 922.224 -0.951835 -4.87087 0
M  V30 10532 H 917.48 -2.05036 -5.75995 0
M  V30 10533 H 921.654 -2.83317 -6.36164 0
M  V30 10534 H 919.281 -3.38839 -6.80509 0
M  V30 10535 N 920.856 1.57574 -0.0284266 0
M  V30 10536 C 922.102 1.92056 0.651327 0
M  V30 10537 C 922.435 0.905092 1.71819 0
M  V30 10538 O 921.71 -0.0722703 1.94366 0
M  V30 10539 C 921.993 3.37021 1.26841 0
M  V30 10540 C 921.846 4.49304 0.211157 0
M  V30 10541 C 923.165 3.81936 2.18662 0
M  V30 10542 H 920.284 0.698428 0.235304 0
M  V30 10543 H 922.926 1.89807 -0.0855435 0
M  V30 10544 H 921.076 3.39068 1.89644 0
M  V30 10545 H 922.748 4.5939 -0.419379 0
M  V30 10546 H 920.991 4.31317 -0.463445 0
M  V30 10547 H 921.662 5.47764 0.682518 0
M  V30 10548 H 924.138 3.8162 1.65847 0
M  V30 10549 H 923.014 4.84064 2.58792 0
M  V30 10550 H 923.275 3.174 3.07749 0
M  V30 10551 N 922.334 -0.244713 1.55689 0
M  V30 10552 C 923.581 -0.972446 1.77622 0
M  V30 10553 C 923.909 -1.85235 0.593137 0
M  V30 10554 O 923.164 -1.91064 -0.423464 0
M  V30 10555 C 923.463 -1.8617 3.05083 0
M  V30 10556 C 923.129 -1.13696 4.3633 0
M  V30 10557 C 921.791 -0.936679 4.71996 0
M  V30 10558 C 924.143 -0.623451 5.17458 0
M  V30 10559 C 921.471 -0.210612 5.86322 0
M  V30 10560 C 923.823 0.0891587 6.32537 0
M  V30 10561 C 922.487 0.300904 6.66821 0
M  V30 10562 H 921.757 -0.355843 0.649967 0
M  V30 10563 H 924.404 -0.242372 1.8996 0
M  V30 10564 H 922.709 -2.6589 2.87767 0
M  V30 10565 H 924.406 -2.4265 3.19253 0
M  V30 10566 H 920.996 -1.30301 4.08313 0
M  V30 10567 H 925.18 -0.765725 4.90357 0
M  V30 10568 H 920.436 -0.0361062 6.11389 0
M  V30 10569 H 924.61 0.494685 6.94641 0
M  V30 10570 H 922.237 0.865466 7.55257 0
M  V30 10571 N 923.813 -1.49104 -0.510467 0
M  V30 10572 C 924.743 -1.67981 -1.62187 0
M  V30 10573 C 925.724 -0.528529 -1.6168 0
M  V30 10574 O 926.909 -0.763305 -1.7857 0
M  V30 10575 C 924.039 -1.73755 -3.0071 0
M  V30 10576 C 922.993 -2.88579 -3.1608 0
M  V30 10577 C 922.319 -2.79457 -4.5586 0
M  V30 10578 C 923.619 -4.29638 -2.97 0
M  V30 10579 H 925.313 -2.61029 -1.46643 0
M  V30 10580 H 922.859 -1.25615 -0.704042 0
M  V30 10581 H 924.812 -1.85548 -3.78352 0
M  V30 10582 H 923.536 -0.772996 -3.17321 0
M  V30 10583 H 922.195 -2.76372 -2.40861 0
M  V30 10584 H 921.843 -1.80929 -4.69333 0
M  V30 10585 H 921.543 -3.56518 -4.67086 0
M  V30 10586 H 923.067 -2.93245 -5.35574 0
M  V30 10587 H 924.481 -4.42575 -3.64418 0
M  V30 10588 H 922.878 -5.07847 -3.19704 0
M  V30 10589 H 923.948 -4.44741 -1.93219 0
M  V30 10590 N 925.291 0.760815 -1.38019 0
M  V30 10591 C 926.54 1.51506 -1.3315 0
M  V30 10592 C 926.853 1.95444 0.0782124 0
M  V30 10593 O 928.059 2.70352 0.249418 0
M  V30 10594 C 926.515 2.73636 -2.33776 0
M  V30 10595 C 926.123 2.36753 -3.80332 0
M  V30 10596 C 927.867 3.51548 -2.37937 0
M  V30 10597 C 925.774 3.55451 -4.72661 0
M  V30 10598 H 924.704 0.568844 -0.494907 0
M  V30 10599 H 927.355 0.832343 -1.63537 0
M  V30 10600 H 925.737 3.43852 -1.96422 0
M  V30 10601 H 926.911 1.7425 -4.26584 0
M  V30 10602 H 925.226 1.71991 -3.7922 0
M  V30 10603 H 927.823 4.39791 -3.04119 0
M  V30 10604 H 928.166 3.9219 -1.39617 0
M  V30 10605 H 928.699 2.88339 -2.74054 0
M  V30 10606 H 925.438 3.19882 -5.7215 0
M  V30 10607 H 924.958 4.17022 -4.31107 0
M  V30 10608 H 926.637 4.22125 -4.90326 0
M  V30 10609 N 926.769 1.22769 0.988202 0
M  V30 10610 C 927.717 0.999271 2.10041 0
M  V30 10611 C 928.711 -0.0591767 1.69297 0
M  V30 10612 O 929.917 0.0936653 1.79756 0
M  V30 10613 H 926.292 0.30599 0.686931 0
M  V30 10614 H 928.263 1.94294 2.26478 0
M  V30 10615 C 927.012 0.59873 3.42506 0
M  V30 10616 H 926.335 1.40487 3.74304 0
M  V30 10617 H 927.775 0.478353 4.21293 0
M  V30 10618 C 926.234 -0.692216 3.29712 0
M  V30 10619 O 926.764 -1.74342 3.61895 0
M  V30 10620 N 924.97 -0.665163 2.82885 0
M  V30 10621 H 924.517 0.190604 2.56894 0
M  V30 10622 H 924.475 -1.52917 2.74706 0
M  V30 10623 N 928.247 -1.18576 1.03814 0
M  V30 10624 C 929.194 -2.2212 0.626988 0
M  V30 10625 C 930.164 -1.62064 -0.363912 0
M  V30 10626 O 931.349 -1.89041 -0.258469 0
M  V30 10627 C 928.489 -3.45099 -0.00650133 0
M  V30 10628 C 927.602 -4.19503 1.03156 0
M  V30 10629 C 926.737 -5.29932 0.366852 0
M  V30 10630 C 925.776 -5.96104 1.39018 0
M  V30 10631 N 924.913 -6.98076 0.750625 0
M  V30 10632 H 929.753 -2.56646 1.51449 0
M  V30 10633 H 927.29 -1.26084 0.757702 0
M  V30 10634 H 929.248 -4.15363 -0.391108 0
M  V30 10635 H 927.878 -3.11201 -0.857536 0
M  V30 10636 H 926.93 -3.48092 1.53414 0
M  V30 10637 H 928.242 -4.64843 1.80893 0
M  V30 10638 H 927.396 -6.06657 -0.0720979 0
M  V30 10639 H 926.135 -4.85687 -0.442631 0
M  V30 10640 H 925.14 -5.18122 1.8393 0
M  V30 10641 H 926.365 -6.42432 2.20132 0
M  V30 10642 H 924.311 -6.55989 -0.0385981 0
M  V30 10643 H 924.228 -7.41655 1.46574 0
M  V30 10644 H 925.496 -7.78776 0.335986 0
M  V30 10645 N 929.725 -0.817259 -1.34754 0
M  V30 10646 C 930.672 -0.233108 -2.2962 0
M  V30 10647 C 931.642 0.638902 -1.53321 0
M  V30 10648 O 932.827 0.581739 -1.81715 0
M  V30 10649 C 929.967 0.603659 -3.39779 0
M  V30 10650 C 929.08 -0.289967 -4.31026 0
M  V30 10651 C 928.215 0.555825 -5.28284 0
M  V30 10652 C 927.254 -0.337539 -6.11169 0
M  V30 10653 N 926.391 0.468847 -7.00533 0
M  V30 10654 H 931.231 -1.04747 -2.78984 0
M  V30 10655 H 928.768 -0.528056 -1.37295 0
M  V30 10656 H 930.726 1.10407 -4.02326 0
M  V30 10657 H 929.356 1.38319 -2.91664 0
M  V30 10658 H 928.408 -0.908552 -3.69391 0
M  V30 10659 H 929.72 -0.977136 -4.89135 0
M  V30 10660 H 928.874 1.12094 -5.96255 0
M  V30 10661 H 927.613 1.27652 -4.70698 0
M  V30 10662 H 926.618 -0.914839 -5.42135 0
M  V30 10663 H 927.843 -1.05626 -6.70835 0
M  V30 10664 H 925.789 1.17332 -6.45422 0
M  V30 10665 H 925.706 -0.160052 -7.55831 0
M  V30 10666 H 926.974 1.01689 -7.72839 0
M  V30 10667 N 931.203 1.46865 -0.571711 0
M  V30 10668 C 932.48 1.95596 0.0132445 0
M  V30 10669 C 932.86 1.51438 1.47071 0
M  V30 10670 O 932.208 0.759917 2.15494 0
M  V30 10671 C 932.418 3.48689 -0.147335 0
M  V30 10672 C 933.766 4.24599 -0.00946329 0
M  V30 10673 O 934.79 3.5612 -0.0756112 0
M  V30 10674 O 933.649 5.46332 0.135361 0
M  V30 10675 H 930.743 0.825102 0.0560039 0
M  V30 10676 H 933.289 1.57199 -0.639256 0
M  V30 10677 H 932.061 3.73681 -1.16096 0
M  V30 10678 H 931.684 3.93887 0.542109 0
M  V30 10679 N 932.681 0.308908 1.54543 0
M  V30 10680 C 933.927 -0.298478 2.00592 0
M  V30 10681 C 934.26 -1.52929 1.19692 0
M  V30 10682 O 933.535 -1.9254 0.27542 0
M  V30 10683 C 933.818 -0.647218 3.54236 0
M  V30 10684 C 933.671 0.593284 4.4587 0
M  V30 10685 C 934.99 -1.47064 4.14801 0
M  V30 10686 H 932.109 -0.107012 0.72919 0
M  V30 10687 H 934.751 0.422578 1.85241 0
M  V30 10688 H 932.901 -1.26153 3.67447 0
M  V30 10689 H 934.573 1.2317 4.44552 0
M  V30 10690 H 932.816 1.22501 4.16144 0
M  V30 10691 H 933.487 0.305018 5.51157 0
M  V30 10692 H 935.963 -0.951511 4.05075 0
M  V30 10693 H 934.839 -1.68343 5.22448 0
M  V30 10694 H 935.1 -2.4623 3.67183 0
M  V30 10695 N 934.159 -1.57557 0.0367827 0
M  V30 10696 C 935.069 -2.14148 -0.958017 0
M  V30 10697 C 936.085 -1.09564 -1.35173 0
M  V30 10698 O 937.261 -1.4166 -1.43158 0
M  V30 10699 C 934.326 -2.6636 -2.21931 0
M  V30 10700 C 933.387 -3.85688 -1.8853 0
M  V30 10701 C 932.62 -4.35401 -3.08645 0
M  V30 10702 O 932.843 -3.8425 -4.21554 0
M  V30 10703 O 931.777 -5.27158 -2.90497 0
M  V30 10704 H 935.603 -2.99442 -0.506797 0
M  V30 10705 H 933.188 -1.48259 -0.184275 0
M  V30 10706 H 935.07 -2.99976 -2.9596 0
M  V30 10707 H 933.745 -1.84145 -2.66219 0
M  V30 10708 H 932.652 -3.56985 -1.11861 0
M  V30 10709 H 933.985 -4.69089 -1.49052 0
M  V30 10710 N 935.637 0.236453 -1.55816 0
M  V30 10711 C 936.6 1.27633 -1.90375 0
M  V30 10712 C 937.6 1.40557 -0.781048 0
M  V30 10713 O 938.79 1.39078 -1.04895 0
M  V30 10714 C 935.922 2.65247 -2.14142 0
M  V30 10715 H 937.115 0.982019 -2.83366 0
M  V30 10716 H 934.668 0.476215 -1.48869 0
M  V30 10717 H 935.403 2.99801 -1.23653 0
M  V30 10718 H 935.188 2.57246 -2.95917 0
M  V30 10719 H 936.678 3.40313 -2.42026 0
M  V30 10720 N 937.115 1.49373 0.502552 0
M  V30 10721 C 938.063 1.66411 1.62512 0
M  V30 10722 C 939.057 0.530062 1.60893 0
M  V30 10723 O 940.263 0.709648 1.65421 0
M  V30 10724 H 936.638 0.524707 0.538689 0
M  V30 10725 H 938.609 2.60639 1.45293 0
M  V30 10726 C 937.358 1.74648 3.00655 0
M  V30 10727 H 936.681 2.61285 3.02606 0
M  V30 10728 H 938.121 1.90605 3.78742 0
M  V30 10729 C 936.58 0.490963 3.33303 0
M  V30 10730 O 937.11 -0.384039 3.9986 0
M  V30 10731 N 935.316 0.354375 2.88431 0
M  V30 10732 H 934.863 1.06742 2.34444 0
M  V30 10733 H 934.821 -0.484593 3.10643 0
M  V30 10734 N 938.594 -0.753485 1.38421 0
M  V30 10735 C 939.843 -1.50797 1.33952 0
M  V30 10736 C 940.156 -1.95482 -0.0678464 0
M  V30 10737 O 941.362 -2.7048 -0.235078 0
M  V30 10738 C 939.818 -2.72393 2.35224 0
M  V30 10739 C 939.426 -2.34733 3.81582 0
M  V30 10740 C 941.17 -3.50281 2.39798 0
M  V30 10741 C 939.077 -3.52939 4.7454 0
M  V30 10742 H 938.007 -0.566211 0.497916 0
M  V30 10743 H 940.658 -0.823659 1.63976 0
M  V30 10744 H 939.04 -3.42806 1.98243 0
M  V30 10745 H 940.214 -1.71985 4.27502 0
M  V30 10746 H 938.529 -1.69978 3.80127 0
M  V30 10747 H 941.126 -4.38172 3.06447 0
M  V30 10748 H 941.469 -3.91444 1.41695 0
M  V30 10749 H 942.002 -2.86881 2.75579 0
M  V30 10750 H 938.741 -3.16843 5.73839 0
M  V30 10751 H 938.261 -4.1473 4.33312 0
M  V30 10752 H 939.94 -4.19519 4.92557 0
M  V30 10753 N 940.072 -1.23292 -0.981677 0
M  V30 10754 C 941.019 -1.01296 -2.07383 0
M  V30 10755 C 941.989 0.069139 -1.65956 0
M  V30 10756 O 943.174 -0.0827108 -1.90621 0
M  V30 10757 C 940.314 -0.608876 -3.39686 0
M  V30 10758 C 939.427 -1.76296 -3.9439 0
M  V30 10759 C 938.562 -1.30578 -5.14901 0
M  V30 10760 C 937.601 -2.4307 -5.61768 0
M  V30 10761 N 936.738 -1.98319 -6.73509 0
M  V30 10762 H 941.578 -1.9478 -2.25532 0
M  V30 10763 H 939.115 -0.970356 -1.10555 0
M  V30 10764 H 941.073 -0.355702 -4.15681 0
M  V30 10765 H 939.703 0.288961 -3.21504 0
M  V30 10766 H 938.755 -2.13017 -3.15163 0
M  V30 10767 H 940.067 -2.60871 -4.25145 0
M  V30 10768 H 939.221 -1.01066 -5.98223 0
M  V30 10769 H 937.96 -0.430386 -4.85797 0
M  V30 10770 H 936.965 -2.73358 -4.77028 0
M  V30 10771 H 938.19 -3.31144 -5.92892 0
M  V30 10772 H 936.136 -1.13157 -6.46167 0
M  V30 10773 H 936.053 -2.76454 -7.0364 0
M  V30 10774 H 937.321 -1.71907 -7.60308 0
M  V30 10775 N 941.55 1.18024 -1.04442 0
M  V30 10776 C 942.498 2.23834 -0.632557 0
M  V30 10777 C 943.492 1.65902 0.342488 0
M  V30 10778 O 944.698 1.78778 0.20937 0
M  V30 10779 H 941.073 0.728544 -0.186353 0
M  V30 10780 H 943.044 2.55876 -1.53526 0
M  V30 10781 C 941.793 3.47697 -0.0153661 0
M  V30 10782 H 941.116 3.92574 -0.756704 0
M  V30 10783 H 942.556 4.23345 0.235541 0
M  V30 10784 C 941.015 3.13416 1.23579 0
M  V30 10785 O 941.545 3.27499 2.3261 0
M  V30 10786 N 939.751 2.67708 1.13053 0
M  V30 10787 H 939.298 2.56449 0.243277 0
M  V30 10788 H 939.256 2.45143 1.96855 0
M  V30 10789 N 943.028 0.824394 1.34319 0
M  V30 10790 C 944.253 0.425194 2.02995 0
M  V30 10791 C 944.678 -0.961476 1.6167 0
M  V30 10792 O 944.036 -1.62593 0.80207 0
M  V30 10793 C 944.084 0.537004 3.56579 0
M  V30 10794 O 943.188 -0.442576 4.10018 0
M  V30 10795 H 942.529 0.174853 0.640564 0
M  V30 10796 H 945.059 1.11522 1.71534 0
M  V30 10797 H 945.069 0.413311 4.05901 0
M  V30 10798 H 943.744 1.54836 3.86004 0
M  V30 10799 H 942.321 -0.277644 3.71865 0
M  V30 10800 N 944.506 -1.46559 0.579492 0
M  V30 10801 C 945.436 -2.33059 -0.143437 0
M  V30 10802 C 946.417 -1.4515 -0.886868 0
M  V30 10803 O 947.602 -1.73973 -0.862961 0
M  V30 10804 C 944.732 -3.27364 -1.15973 0
M  V30 10805 C 943.686 -4.24689 -0.531348 0
M  V30 10806 C 943.012 -5.08479 -1.65388 0
M  V30 10807 C 944.312 -5.1961 0.529391 0
M  V30 10808 H 946.006 -2.93753 0.578762 0
M  V30 10809 H 943.552 -1.41256 0.279775 0
M  V30 10810 H 945.505 -3.86732 -1.67382 0
M  V30 10811 H 944.229 -2.64771 -1.91217 0
M  V30 10812 H 942.888 -3.6658 -0.0383749 0
M  V30 10813 H 942.536 -4.42273 -2.3959 0
M  V30 10814 H 942.236 -5.74387 -1.23909 0
M  V30 10815 H 943.76 -5.70709 -2.17079 0
M  V30 10816 H 945.174 -5.73212 0.100506 0
M  V30 10817 H 943.571 -5.93843 0.86432 0
M  V30 10818 H 944.641 -4.63737 1.4169 0
M  V30 10819 N 945.984 -0.3171 -1.54377 0
M  V30 10820 C 946.894 0.560867 -2.27797 0
M  V30 10821 C 947.91 1.13473 -1.31908 0
M  V30 10822 O 949.086 1.15608 -1.64914 0
M  V30 10823 C 946.151 1.70886 -3.0166 0
M  V30 10824 C 945.212 1.16745 -4.13121 0
M  V30 10825 C 944.445 2.26073 -4.83453 0
M  V30 10826 O 944.668 3.46292 -4.53252 0
M  V30 10827 O 943.602 1.91856 -5.70504 0
M  V30 10828 H 947.428 -0.035193 -3.0368 0
M  V30 10829 H 945.013 -0.0830062 -1.49169 0
M  V30 10830 H 946.895 2.37736 -3.47936 0
M  V30 10831 H 945.57 2.29122 -2.28658 0
M  V30 10832 H 944.477 0.464224 -3.71209 0
M  V30 10833 H 945.81 0.630307 -4.88147 0
M  V30 10834 N 947.462 1.57535 -0.0451378 0
M  V30 10835 C 948.692 1.96476 0.638814 0
M  V30 10836 C 949.1 0.921056 1.65267 0
M  V30 10837 O 948.443 -0.103843 1.83406 0
M  V30 10838 C 948.505 3.31629 1.38788 0
M  V30 10839 C 948.169 4.5391 0.530545 0
M  V30 10840 C 949.166 5.19512 -0.200864 0
M  V30 10841 C 946.851 5.00159 0.463242 0
M  V30 10842 C 948.845 6.29695 -0.988078 0
M  V30 10843 C 946.532 6.10221 -0.327665 0
M  V30 10844 C 947.53 6.74849 -1.05202 0
M  V30 10845 O 947.218 7.82795 -1.82993 0
M  V30 10846 H 946.95 0.651625 0.17989 0
M  V30 10847 H 949.504 2.05126 -0.106031 0
M  V30 10848 H 947.734 3.19516 2.17822 0
M  V30 10849 H 949.423 3.5536 1.96148 0
M  V30 10850 H 950.189 4.84742 -0.158299 0
M  V30 10851 H 946.068 4.49651 1.01663 0
M  V30 10852 H 949.612 6.80072 -1.55397 0
M  V30 10853 H 945.509 6.44428 -0.37189 0
M  V30 10854 H 946.277 7.99542 -1.7514 0
M  V30 10855 N 948.94 -0.228186 1.55939 0
M  V30 10856 C 949.888 -1.30239 1.92719 0
M  V30 10857 C 950.882 -1.48865 0.808424 0
M  V30 10858 O 952.088 -1.50118 0.993204 0
M  V30 10859 H 948.463 -0.436509 0.612343 0
M  V30 10860 H 950.434 -0.964965 2.82367 0
M  V30 10861 C 949.183 -2.647 2.25453 0
M  V30 10862 H 948.506 -2.51173 3.1105 0
M  V30 10863 H 949.946 -3.38691 2.55077 0
M  V30 10864 C 948.405 -3.1921 1.07734 0
M  V30 10865 O 948.935 -4.00301 0.335019 0
M  V30 10866 N 947.141 -2.77492 0.862938 0
M  V30 10867 H 946.688 -2.11657 1.4683 0
M  V30 10868 H 946.646 -3.14306 0.0770119 0
M  V30 10869 N 950.418 -1.49637 -0.494624 0
M  V30 10870 C 951.348 -1.69692 -1.60396 0
M  V30 10871 C 952.329 -0.545648 -1.61111 0
M  V30 10872 O 953.514 -0.782202 -1.77751 0
M  V30 10873 C 950.644 -1.76934 -2.9885 0
M  V30 10874 C 949.598 -2.91915 -3.13001 0
M  V30 10875 C 948.924 -2.84276 -4.5287 0
M  V30 10876 C 950.224 -4.32764 -2.92426 0
M  V30 10877 H 951.918 -2.6257 -1.43866 0
M  V30 10878 H 949.464 -1.26355 -0.690679 0
M  V30 10879 H 951.417 -1.8955 -3.76362 0
M  V30 10880 H 950.141 -0.806609 -3.16483 0
M  V30 10881 H 948.8 -2.78911 -2.37916 0
M  V30 10882 H 948.448 -1.85897 -4.67388 0
M  V30 10883 H 948.148 -3.61452 -4.63278 0
M  V30 10884 H 949.672 -2.98909 -5.32434 0
M  V30 10885 H 951.086 -4.46415 -3.59703 0
M  V30 10886 H 949.483 -5.1121 -3.143 0
M  V30 10887 H 950.553 -4.46765 -1.88491 0
M  V30 10888 N 951.896 0.746133 -1.38819 0
M  V30 10889 C 953.312 1.0502 -1.20179 0
M  V30 10890 C 953.512 2.01423 -0.0556271 0
M  V30 10891 O 952.568 2.45359 0.59625 0
M  V30 10892 C 953.881 1.62315 -2.53129 0
M  V30 10893 C 955.429 1.74449 -2.59878 0
M  V30 10894 C 955.904 2.35155 -3.93022 0
M  V30 10895 N 957.395 2.42577 -3.94602 0
M  V30 10896 C 958.13 2.9046 -4.94389 0
M  V30 10897 N 957.626 3.38322 -6.04574 0
M  V30 10898 N 959.419 2.89568 -4.81775 0
M  V30 10899 H 951.57 0.106551 -2.12133 0
M  V30 10900 H 953.833 0.109897 -0.941609 0
M  V30 10901 H 953.539 0.98946 -3.37495 0
M  V30 10902 H 953.413 2.61276 -2.72057 0
M  V30 10903 H 955.8 2.36943 -1.75903 0
M  V30 10904 H 955.881 0.741721 -2.4481 0
M  V30 10905 H 955.525 1.73292 -4.77422 0
M  V30 10906 H 955.455 3.36088 -4.05404 0
M  V30 10907 H 957.946 2.08735 -3.15021 0
M  V30 10908 H 958.259 3.73336 -6.76639 0
M  V30 10909 H 956.604 3.3636 -6.08184 0
M  V30 10910 H 959.795 2.51492 -3.94803 0
M  V30 10911 H 959.968 3.26571 -5.59692 0
M  V30 10912 N 953.375 1.23811 0.975125 0
M  V30 10913 C 954.323 1.02149 2.0897 0
M  V30 10914 C 955.317 -0.0412172 1.6935 0
M  V30 10915 O 956.523 0.112726 1.79647 0
M  V30 10916 H 952.898 0.313259 0.683647 0
M  V30 10917 H 954.869 1.96686 2.24404 0
M  V30 10918 C 953.618 0.635023 3.41852 0
M  V30 10919 H 952.941 1.44449 3.72793 0
M  V30 10920 H 954.381 0.52301 4.20762 0
M  V30 10921 C 952.84 -0.657207 3.30428 0
M  V30 10922 O 953.37 -1.70494 3.63723 0
M  V30 10923 N 951.576 -0.635122 2.83575 0
M  V30 10924 H 951.123 0.21784 2.56677 0
M  V30 10925 H 951.081 -1.49995 2.76313 0
M  V30 10926 N 954.853 -1.17469 1.05066 0
M  V30 10927 C 955.801 -2.23495 0.644418 0
M  V30 10928 C 956.795 -1.66081 -0.333685 0
M  V30 10929 O 958.001 -1.78887 -0.199886 0
M  V30 10930 H 954.376 -0.727546 0.190214 0
M  V30 10931 H 956.347 -2.55058 1.5488 0
M  V30 10932 C 955.096 -3.47684 0.0338051 0
M  V30 10933 H 954.419 -3.92167 0.777513 0
M  V30 10934 H 955.859 -4.23464 -0.213086 0
M  V30 10935 C 954.318 -3.14067 -1.21915 0
M  V30 10936 O 954.848 -3.28728 -2.3087 0
M  V30 10937 N 953.054 -2.68304 -1.11631 0
M  V30 10938 H 952.601 -2.56574 -0.229673 0
M  V30 10939 H 952.559 -2.46184 -1.95553 0
M  V30 10940 N 956.331 -0.831506 -1.3388 0
M  V30 10941 C 957.556 -0.435954 -2.02766 0
M  V30 10942 C 957.981 0.952889 -1.62178 0
M  V30 10943 O 957.339 1.62166 -0.810681 0
M  V30 10944 C 957.387 -0.555907 -3.56289 0
M  V30 10945 O 956.491 0.420826 -4.10247 0
M  V30 10946 H 955.832 -0.178248 -0.639628 0
M  V30 10947 H 958.362 -1.1243 -1.70941 0
M  V30 10948 H 958.372 -0.434831 -4.05676 0
M  V30 10949 H 957.047 -1.56881 -3.85177 0
M  V30 10950 H 955.624 0.257919 -3.72007 0
M  V30 10951 N 957.809 1.4625 -0.587256 0
M  V30 10952 C 958.759 2.27407 0.164393 0
M  V30 10953 C 959.743 1.36138 0.857628 0
M  V30 10954 O 960.935 1.60279 0.750973 0
M  V30 10955 C 958.064 3.22585 1.17447 0
M  V30 10956 C 957.15 4.21339 0.483121 0
M  V30 10957 N 957.541 5.03669 -0.46385 0
M  V30 10958 C 955.839 4.39931 0.73329 0
M  V30 10959 C 956.54 5.75182 -0.868334 0
M  V30 10960 N 955.516 5.43169 -0.216487 0
M  V30 10961 H 959.318 2.88453 -0.563237 0
M  V30 10962 H 956.832 1.57155 -0.409388 0
M  V30 10963 H 958.829 3.79439 1.72718 0
M  V30 10964 H 957.489 2.63098 1.90288 0
M  V30 10965 H 958.5 5.11049 -0.839602 0
M  V30 10966 H 955.177 3.91588 1.44792 0
M  V30 10967 H 956.567 6.51371 -1.64821 0
M  V30 10968 N 959.287 0.325282 1.54207 0
M  V30 10969 C 960.515 -0.27869 2.05014 0
M  V30 10970 C 960.93 -1.45649 1.20133 0
M  V30 10971 O 960.287 -1.81014 0.232398 0
M  V30 10972 C 960.338 -0.711486 3.54429 0
M  V30 10973 O 960.059 0.419458 4.36087 0
M  V30 10974 C 961.56 -1.37809 4.21336 0
M  V30 10975 H 958.78 -0.0570388 0.668571 0
M  V30 10976 H 961.324 0.47197 1.98979 0
M  V30 10977 H 959.479 -1.41212 3.60746 0
M  V30 10978 H 959.893 0.0781037 5.24442 0
M  V30 10979 H 961.367 -1.63184 5.27328 0
M  V30 10980 H 961.844 -2.32593 3.72555 0
M  V30 10981 H 962.45 -0.719987 4.19161 0
M  V30 10982 N 960.765 -1.57509 0.0534917 0
M  V30 10983 C 961.713 -2.12851 -0.937931 0
M  V30 10984 C 962.707 -1.06088 -1.32067 0
M  V30 10985 O 963.913 -1.24494 -1.30005 0
M  V30 10986 H 960.288 -0.680357 -0.320342 0
M  V30 10987 H 962.259 -2.95047 -0.446077 0
M  V30 10988 C 961.008 -2.69034 -2.20264 0
M  V30 10989 H 960.331 -3.50848 -1.91693 0
M  V30 10990 H 961.771 -3.11375 -2.87788 0
M  V30 10991 C 960.23 -1.62919 -2.94888 0
M  V30 10992 O 960.76 -1.04334 -3.87914 0
M  V30 10993 N 958.966 -1.34385 -2.57661 0
M  V30 10994 H 958.513 -1.82214 -1.82088 0
M  V30 10995 H 958.471 -0.636149 -3.07897 0
M  V30 10996 N 962.243 0.219913 -1.56058 0
M  V30 10997 C 963.191 1.29215 -1.93407 0
M  V30 10998 C 964.185 1.48434 -0.816307 0
M  V30 10999 O 965.391 1.49589 -1.00115 0
M  V30 11000 H 961.766 0.433256 -0.614649 0
M  V30 11001 H 963.737 0.949977 -2.82875 0
M  V30 11002 C 962.486 2.63501 -2.26854 0
M  V30 11003 H 961.809 2.4952 -3.12377 0
M  V30 11004 H 963.249 3.37334 -2.56869 0
M  V30 11005 C 961.708 3.18634 -1.09425 0
M  V30 11006 O 962.238 4.00117 -0.356243 0
M  V30 11007 N 960.444 2.7703 -0.877642 0
M  V30 11008 H 959.991 2.10875 -1.47951 0
M  V30 11009 H 959.949 3.1426 -0.0936792 0
M  V30 11010 N 963.721 1.49897 0.486681 0
M  V30 11011 C 964.669 1.68125 1.60738 0
M  V30 11012 C 965.663 0.547097 1.60322 0
M  V30 11013 O 966.869 0.727153 1.64659 0
M  V30 11014 H 963.244 0.530391 0.533094 0
M  V30 11015 H 965.215 2.62165 1.42521 0
M  V30 11016 C 963.964 1.77827 2.98786 0
M  V30 11017 H 963.287 2.6448 2.99818 0
M  V30 11018 H 964.727 1.94611 3.76699 0
M  V30 11019 C 963.186 0.526287 3.32764 0
M  V30 11020 O 963.716 -0.341607 4.00245 0
M  V30 11021 N 961.922 0.384947 2.88039 0
M  V30 11022 H 961.469 1.09222 2.33299 0
M  V30 11023 H 961.427 -0.451618 3.11139 0
M  V30 11024 N 965.199 -0.738761 1.39212 0
M  V30 11025 C 966.424 -1.5331 1.39681 0
M  V30 11026 C 966.849 -1.88098 -0.00768715 0
M  V30 11027 O 966.207 -1.51642 -0.993699 0
M  V30 11028 C 966.255 -2.79958 2.27279 0
M  V30 11029 O 965.359 -3.75727 1.70008 0
M  V30 11030 H 964.7 -0.463131 0.475821 0
M  V30 11031 H 967.23 -0.911768 1.83161 0
M  V30 11032 H 967.24 -3.28732 2.41659 0
M  V30 11033 H 965.915 -2.5397 3.29351 0
M  V30 11034 H 964.492 -3.34483 1.64851 0
M  V30 11035 N 966.677 -1.24326 -0.968545 0
M  V30 11036 C 967.625 -1.03256 -2.08425 0
M  V30 11037 C 968.619 0.0322356 -1.69369 0
M  V30 11038 O 969.825 -0.122251 -1.79584 0
M  V30 11039 H 966.2 -0.31688 -0.681976 0
M  V30 11040 H 968.171 -1.97873 -2.23358 0
M  V30 11041 C 966.92 -0.653144 -3.4151 0
M  V30 11042 H 966.243 -1.46424 -3.72021 0
M  V30 11043 H 967.683 -0.545316 -4.20479 0
M  V30 11044 C 966.142 0.639674 -3.30771 0
M  V30 11045 O 966.672 1.68563 -3.64622 0
M  V30 11046 N 964.878 0.620074 -2.83907 0
M  V30 11047 H 964.425 -0.231449 -2.56558 0
M  V30 11048 H 964.383 1.48528 -2.77104 0
M  V30 11049 N 968.156 1.1691 -1.05688 0
M  V30 11050 C 969.386 1.90927 -0.789339 0
M  V30 11051 C 969.794 1.77339 0.659369 0
M  V30 11052 O 969.137 1.11147 1.4626 0
M  V30 11053 C 969.199 3.42361 -1.09677 0
M  V30 11054 C 968.863 3.79733 -2.54267 0
M  V30 11055 C 969.86 3.82163 -3.52487 0
M  V30 11056 C 967.545 4.10547 -2.89406 0
M  V30 11057 C 969.539 4.14884 -4.8389 0
M  V30 11058 C 967.226 4.42936 -4.21011 0
M  V30 11059 C 968.224 4.45084 -5.18063 0
M  V30 11060 O 967.912 4.76707 -6.47307 0
M  V30 11061 H 967.644 0.612466 -0.286115 0
M  V30 11062 H 970.198 1.4916 -1.4121 0
M  V30 11063 H 968.428 3.84446 -0.416924 0
M  V30 11064 H 970.117 3.97645 -0.814456 0
M  V30 11065 H 970.883 3.58476 -3.26681 0
M  V30 11066 H 966.762 4.08044 -2.14525 0
M  V30 11067 H 970.306 4.16475 -5.59638 0
M  V30 11068 H 966.203 4.66088 -4.46579 0
M  V30 11069 H 966.971 4.94544 -6.52203 0
M  V30 11070 N 969.634 0.838594 1.33437 0
M  V30 11071 C 970.582 0.260158 2.31141 0
M  V30 11072 C 971.576 -0.607706 1.58124 0
M  V30 11073 O 972.782 -0.497298 1.72994 0
M  V30 11074 H 969.157 0.0654031 0.74915 0
M  V30 11075 H 971.128 1.09874 2.77435 0
M  V30 11076 C 969.877 -0.550234 3.43319 0
M  V30 11077 H 969.2 0.108262 3.99653 0
M  V30 11078 H 970.64 -0.920815 4.1388 0
M  V30 11079 C 969.099 -1.729 2.89149 0
M  V30 11080 O 969.629 -2.82769 2.85315 0
M  V30 11081 N 967.835 -1.5508 2.45761 0
M  V30 11082 H 967.382 -0.657055 2.49079 0
M  V30 11083 H 967.34 -2.34099 2.0987 0
M  V30 11084 N 971.112 -1.45937 0.595003 0
M  V30 11085 C 972.337 -2.07207 0.0894416 0
M  V30 11086 C 972.762 -1.43884 -1.21157 0
M  V30 11087 O 972.12 -0.526998 -1.73472 0
M  V30 11088 C 972.168 -3.60565 -0.0499828 0
M  V30 11089 O 971.272 -3.97364 -1.10342 0
M  V30 11090 H 970.613 -0.660471 0.0683627 0
M  V30 11091 H 973.143 -1.87386 0.82144 0
M  V30 11092 H 973.153 -4.0722 -0.252234 0
M  V30 11093 H 971.828 -4.06044 0.90006 0
M  V30 11094 H 970.405 -3.62401 -0.878645 0
M  V30 11095 N 972.59 -0.333456 -1.54032 0
M  V30 11096 C 973.538 0.543414 -2.26163 0
M  V30 11097 C 974.532 1.11037 -1.27934 0
M  V30 11098 O 975.738 1.05727 -1.45677 0
M  V30 11099 H 972.113 0.19391 -0.726569 0
M  V30 11100 H 974.084 -0.0871052 -2.98273 0
M  V30 11101 C 972.833 1.68769 -3.03994 0
M  V30 11102 H 972.156 1.26069 -3.79403 0
M  V30 11103 H 973.596 2.27662 -3.57695 0
M  V30 11104 C 972.055 2.61117 -2.12884 0
M  V30 11105 O 972.585 3.63097 -1.71823 0
M  V30 11106 N 970.791 2.29573 -1.7817 0
M  V30 11107 H 970.338 1.46684 -2.11759 0
M  V30 11108 H 970.296 2.91622 -1.1749 0
M  V30 11109 N 974.068 1.57479 -0.061844 0
M  V30 11110 C 975.293 1.97843 0.622311 0
M  V30 11111 C 975.718 0.939602 1.62951 0
M  V30 11112 O 975.076 -0.095958 1.81046 0
M  V30 11113 C 975.124 3.37262 1.2762 0
M  V30 11114 O 974.228 3.35943 2.39199 0
M  V30 11115 H 973.569 0.644212 0.160896 0
M  V30 11116 H 976.099 2.04165 -0.133409 0
M  V30 11117 H 976.109 3.74226 1.62539 0
M  V30 11118 H 974.784 4.12404 0.538112 0
M  V30 11119 H 973.361 3.10737 2.06148 0
M  V30 11120 N 975.546 -0.211634 1.56173 0
M  V30 11121 C 976.494 -1.28188 1.94089 0
M  V30 11122 C 977.488 -1.47999 0.824167 0
M  V30 11123 O 978.694 -1.49056 1.00907 0
M  V30 11124 H 975.069 -0.42999 0.616938 0
M  V30 11125 H 977.04 -0.934962 2.83374 0
M  V30 11126 C 975.789 -2.62294 2.28248 0
M  V30 11127 H 975.112 -2.4786 3.13696 0
M  V30 11128 H 976.552 -3.35967 2.58655 0
M  V30 11129 C 975.011 -3.18049 1.11113 0
M  V30 11130 O 975.541 -3.99923 0.377458 0
M  V30 11131 N 973.747 -2.76561 0.892321 0
M  V30 11132 H 973.294 -2.10088 1.49067 0
M  V30 11133 H 973.252 -3.14206 0.110344 0
M  V30 11134 N 977.024 -1.50153 -0.478725 0
M  V30 11135 C 977.972 -1.68975 -1.59844 0
M  V30 11136 C 978.966 -0.555591 -1.6003 0
M  V30 11137 O 980.172 -0.735875 -1.64271 0
M  V30 11138 H 976.547 -0.533211 -0.530274 0
M  V30 11139 H 978.518 -2.62917 -1.41128 0
M  V30 11140 C 977.267 -1.79409 -2.97838 0
M  V30 11141 H 976.59 -2.66066 -2.98411 0
M  V30 11142 H 978.03 -1.96606 -3.75662 0
M  V30 11143 C 976.489 -0.543927 -3.3248 0
M  V30 11144 O 977.019 0.320376 -4.0042 0
M  V30 11145 N 975.225 -0.400217 -2.87831 0
M  V30 11146 H 974.772 -1.10458 -2.32716 0
M  V30 11147 H 974.73 0.435111 -3.11375 0
M  V30 11148 N 978.502 0.731368 -1.39602 0
M  V30 11149 C 979.45 1.86676 -1.38761 0
M  V30 11150 C 980.444 1.6723 -0.270247 0
M  V30 11151 O 981.65 1.74528 -0.440471 0
M  V30 11152 H 978.025 0.614553 -0.433391 0
M  V30 11153 H 979.996 1.84501 -2.34525 0
M  V30 11154 C 978.745 3.24394 -1.25155 0
M  V30 11155 H 978.068 3.39955 -2.10406 0
M  V30 11156 H 979.508 4.04019 -1.28625 0
M  V30 11157 C 977.967 3.36877 0.0396976 0
M  V30 11158 O 978.497 3.88833 1.00854 0
M  V30 11159 N 976.703 2.90414 0.103965 0
M  V30 11160 H 976.25 2.48321 -0.685155 0
M  V30 11161 H 976.208 2.99146 0.967435 0
M  V30 11162 N 979.98 1.24838 0.961938 0
M  V30 11163 C 981.205 1.11967 1.7458 0
M  V30 11164 C 981.63 -0.323287 1.85301 0
M  V30 11165 O 980.988 -1.23412 1.32812 0
M  V30 11166 C 981.036 1.77066 3.14134 0
M  V30 11167 O 980.14 1.04534 3.98932 0
M  V30 11168 H 979.481 0.391338 0.536424 0
M  V30 11169 H 982.011 1.65259 1.20626 0
M  V30 11170 H 982.021 1.83056 3.64629 0
M  V30 11171 H 980.696 2.82052 3.05646 0
M  V30 11172 H 979.273 1.06372 3.57407 0
M  V30 11173 N 981.458 -1.16348 1.06306 0
M  V30 11174 C 982.408 -2.18717 0.643947 0
M  V30 11175 C 983.392 -1.57574 -0.325445 0
M  V30 11176 O 984.584 -1.76439 -0.140868 0
M  V30 11177 C 981.713 -3.43285 0.0320266 0
M  V30 11178 C 980.799 -4.11504 1.02592 0
M  V30 11179 N 981.19 -4.55374 2.20155 0
M  V30 11180 C 979.488 -4.37691 0.856887 0
M  V30 11181 C 980.189 -5.08149 2.83124 0
M  V30 11182 N 979.165 -5.01042 2.10851 0
M  V30 11183 H 982.967 -2.50353 1.53951 0
M  V30 11184 H 980.481 -1.328 0.934763 0
M  V30 11185 H 982.478 -4.15917 -0.286064 0
M  V30 11186 H 981.138 -3.13137 -0.858786 0
M  V30 11187 H 982.149 -4.49101 2.57931 0
M  V30 11188 H 978.826 -4.17496 0.0180742 0
M  V30 11189 H 980.216 -5.52131 3.82885 0
M  V30 11190 N 982.937 -0.845659 -1.3299 0
M  V30 11191 C 983.887 -0.2557 -2.26562 0
M  V30 11192 C 984.871 0.593245 -1.49564 0
M  V30 11193 O 986.063 0.444101 -1.71338 0
M  V30 11194 C 983.192 0.562573 -3.38659 0
M  V30 11195 C 982.278 -0.298259 -4.2305 0
M  V30 11196 N 982.669 -1.38023 -4.86604 0
M  V30 11197 C 980.967 -0.0864539 -4.45916 0
M  V30 11198 C 981.668 -1.90907 -5.49481 0
M  V30 11199 N 980.644 -1.20955 -5.29973 0
M  V30 11200 H 984.446 -1.083 -2.73219 0
M  V30 11201 H 981.96 -0.690823 -1.46974 0
M  V30 11202 H 983.957 1.00157 -4.0469 0
M  V30 11203 H 982.617 1.38777 -2.93549 0
M  V30 11204 H 983.628 -1.76314 -4.86964 0
M  V30 11205 H 980.305 0.70475 -4.11509 0
M  V30 11206 H 981.695 -2.81552 -6.10064 0
M  V30 11207 N 984.415 1.45619 -0.602734 0
M  V30 11208 C 985.348 2.27583 0.167708 0
M  V30 11209 C 986.326 1.36844 0.878206 0
M  V30 11210 O 987.51 1.6627 0.888058 0
M  V30 11211 C 984.637 3.15094 1.24232 0
M  V30 11212 C 983.683 4.21739 0.63549 0
M  V30 11213 S 984.516 5.32638 -0.552944 0
M  V30 11214 C 985.672 6.23716 0.522382 0
M  V30 11215 H 985.905 2.92579 -0.527697 0
M  V30 11216 H 983.438 1.4939 -0.390127 0
M  V30 11217 H 985.396 3.66071 1.85748 0
M  V30 11218 H 984.057 2.49372 1.90978 0
M  V30 11219 H 983.25 4.82874 1.44389 0
M  V30 11220 H 982.852 3.73878 0.0955772 0
M  V30 11221 H 985.144 6.62819 1.40276 0
M  V30 11222 H 986.087 7.0808 -0.0526951 0
M  V30 11223 H 986.495 5.58282 0.83553 0
M  V30 11224 N 985.893 0.34162 1.53853 0
M  V30 11225 C 986.843 -0.531995 2.21707 0
M  V30 11226 C 987.827 -1.06759 1.2038 0
M  V30 11227 O 989.019 -1.00161 1.45934 0
M  V30 11228 C 986.148 -1.6834 2.99193 0
M  V30 11229 C 985.234 -1.16184 4.07875 0
M  V30 11230 N 985.625 -0.361348 5.04508 0
M  V30 11231 C 983.923 -1.43891 4.22151 0
M  V30 11232 C 984.624 -0.0785378 5.81647 0
M  V30 11233 N 983.6 -0.669651 5.3946 0
M  V30 11234 H 987.402 0.0866825 2.93772 0
M  V30 11235 H 984.916 0.148386 1.61721 0
M  V30 11236 H 986.913 -2.32121 3.46303 0
M  V30 11237 H 985.573 -2.30538 2.28653 0
M  V30 11238 H 986.584 -0.00259906 5.179 0
M  V30 11239 H 983.261 -2.06542 3.62832 0
M  V30 11240 H 984.651 0.567068 6.69503 0
M  V30 11241 N 987.371 -1.57444 0.0701946 0
M  V30 11242 C 988.321 -2.09154 -0.90767 0
M  V30 11243 C 989.305 -1.00087 -1.25982 0
M  V30 11244 O 990.497 -1.26397 -1.23906 0
M  V30 11245 C 987.626 -2.65544 -2.17581 0
M  V30 11246 C 986.712 -3.81613 -1.85021 0
M  V30 11247 N 987.103 -4.90641 -1.22904 0
M  V30 11248 C 985.401 -3.90878 -2.1478 0
M  V30 11249 C 986.102 -5.71511 -1.084 0
M  V30 11250 N 985.078 -5.1973 -1.59318 0
M  V30 11251 H 988.88 -2.90839 -0.423051 0
M  V30 11252 H 986.394 -1.61848 -0.13374 0
M  V30 11253 H 988.391 -3.00904 -2.88552 0
M  V30 11254 H 987.051 -1.85304 -2.66632 0
M  V30 11255 H 988.062 -5.1004 -0.898878 0
M  V30 11256 H 984.739 -3.21611 -2.66219 0
M  V30 11257 H 986.129 -6.69214 -0.600183 0
M  V30 11258 N 988.849 0.203349 -1.56283 0
M  V30 11259 C 989.799 1.25595 -1.90289 0
M  V30 11260 C 990.783 1.41403 -0.767732 0
M  V30 11261 O 991.975 1.43912 -1.03046 0
M  V30 11262 C 989.104 2.60255 -2.23881 0
M  V30 11263 C 988.19 2.48274 -3.43833 0
M  V30 11264 N 988.581 2.05963 -4.61966 0
M  V30 11265 C 986.879 2.79188 -3.47808 0
M  V30 11266 C 987.58 2.05674 -5.44126 0
M  V30 11267 N 986.556 2.46862 -4.84314 0
M  V30 11268 H 990.358 0.920016 -2.79129 0
M  V30 11269 H 987.872 0.411829 -1.57091 0
M  V30 11270 H 989.869 3.36274 -2.46425 0
M  V30 11271 H 988.529 2.94678 -1.36363 0
M  V30 11272 H 989.54 1.76803 -4.86787 0
M  V30 11273 H 986.217 3.17863 -2.70684 0
M  V30 11274 H 987.607 1.74932 -6.48728 0
M  V30 11275 N 990.327 1.50405 0.470755 0
M  V30 11276 C 991.277 1.65681 1.56633 0
M  V30 11277 C 992.261 0.511424 1.52556 0
M  V30 11278 O 993.453 0.765844 1.59574 0
M  V30 11279 C 990.582 1.7546 2.95074 0
M  V30 11280 C 989.668 2.95676 3.04034 0
M  V30 11281 N 990.059 4.1935 2.82807 0
M  V30 11282 C 988.357 2.94241 3.35169 0
M  V30 11283 C 989.058 5.0032 2.96741 0
M  V30 11284 N 988.034 4.34282 3.26956 0
M  V30 11285 H 991.836 2.58994 1.38922 0
M  V30 11286 H 989.35 1.47593 0.67749 0
M  V30 11287 H 991.347 1.84508 3.73848 0
M  V30 11288 H 990.007 0.833057 3.13832 0
M  V30 11289 H 991.018 4.48842 2.58382 0
M  V30 11290 H 987.695 2.11587 3.59913 0
M  V30 11291 H 989.085 6.08664 2.84566 0
M  V30 11292 N 991.805 -0.723954 1.39988 0
M  V30 11293 C 992.755 -1.82943 1.36073 0
M  V30 11294 C 993.739 -1.59105 0.239682 0
M  V30 11295 O 994.931 -1.7042 0.478116 0
M  V30 11296 C 992.06 -3.20988 1.21745 0
M  V30 11297 C 991.146 -3.50618 2.38596 0
M  V30 11298 N 991.537 -3.51115 3.64077 0
M  V30 11299 C 989.835 -3.81035 2.31794 0
M  V30 11300 C 990.536 -3.78852 4.41413 0
M  V30 11301 N 989.512 -3.97182 3.71143 0
M  V30 11302 H 993.314 -1.81649 2.31043 0
M  V30 11303 H 990.828 -0.922703 1.33641 0
M  V30 11304 H 992.825 -4.00139 1.17022 0
M  V30 11305 H 991.485 -3.23513 0.277344 0
M  V30 11306 H 992.496 -3.32163 3.97351 0
M  V30 11307 H 989.173 -3.911 1.46105 0
M  V30 11308 H 990.563 -3.85612 5.5023 0
M  V30 11309 N 993.283 -1.25346 -0.955304 0
M  V30 11310 C 994.233 -1.02358 -2.03732 0
M  V30 11311 C 995.217 0.0392941 -1.60852 0
M  V30 11312 O 996.409 -0.175959 -1.76123 0
M  V30 11313 C 993.538 -0.643552 -3.37214 0
M  V30 11314 C 992.624 -1.74315 -3.8662 0
M  V30 11315 N 993.015 -2.97816 -4.08827 0
M  V30 11316 C 991.313 -1.62351 -4.15401 0
M  V30 11317 C 992.014 -3.69185 -4.4953 0
M  V30 11318 N 990.99 -2.96803 -4.55422 0
M  V30 11319 H 994.792 -1.96119 -2.18894 0
M  V30 11320 H 992.306 -1.15655 -1.14007 0
M  V30 11321 H 994.303 -0.460053 -4.14354 0
M  V30 11322 H 992.963 0.286738 -3.23431 0
M  V30 11323 H 993.974 -3.33868 -3.95919 0
M  V30 11324 H 990.651 -0.762133 -4.10485 0
M  V30 11325 H 992.041 -4.7519 -4.7502 0
M  V30 11326 N 994.761 1.15782 -1.06922 0
M  V30 11327 C 995.711 2.18373 -0.655537 0
M  V30 11328 C 996.695 1.57745 0.317084 0
M  V30 11329 O 997.887 1.76511 0.131509 0
M  V30 11330 C 995.016 3.43263 -0.0502314 0
M  V30 11331 C 994.102 4.10954 -1.04773 0
M  V30 11332 N 994.493 4.542 -2.22567 0
M  V30 11333 C 992.791 4.3723 -0.880087 0
M  V30 11334 C 993.492 5.06641 -2.85815 0
M  V30 11335 N 992.468 4.99917 -2.13505 0
M  V30 11336 H 996.27 2.49533 -1.55276 0
M  V30 11337 H 993.784 1.32303 -0.941793 0
M  V30 11338 H 995.781 4.16063 0.264003 0
M  V30 11339 H 994.441 3.13588 0.842167 0
M  V30 11340 H 995.452 4.47727 -2.60309 0
M  V30 11341 H 992.129 4.17481 -0.0402148 0
M  V30 11342 H 993.519 5.50092 -3.85808 0
M  V30 11343 N 996.239 0.8527 1.3254 0
M  V30 11344 C 997.486 0.455123 1.97319 0
M  V30 11345 C 997.814 -0.988814 1.67489 0
M  V30 11346 O 997.069 -1.70845 0.954483 0
M  V30 11347 C 997.368 0.638757 3.51646 0
M  V30 11348 C 997.034 2.05287 4.01458 0
M  V30 11349 C 995.696 2.43963 4.14771 0
M  V30 11350 C 998.048 2.9759 4.27889 0
M  V30 11351 C 995.376 3.7422 4.51859 0
M  V30 11352 C 997.728 4.27343 4.66434 0
M  V30 11353 C 996.392 4.65957 4.77954 0
M  V30 11354 H 995.662 0.166541 0.722042 0
M  V30 11355 H 998.309 1.08238 1.57977 0
M  V30 11356 H 996.614 -0.0717394 3.91734 0
M  V30 11357 H 998.311 0.311219 3.9979 0
M  V30 11358 H 994.901 1.74253 3.91579 0
M  V30 11359 H 999.085 2.68942 4.17114 0
M  V30 11360 H 994.341 4.03923 4.58973 0
M  V30 11361 H 998.515 4.9893 4.85841 0
M  V30 11362 H 996.142 5.66934 5.06449 0
M  V30 11363 N 997.718 -1.45297 0.610449 0
M  V30 11364 C 998.668 -2.27639 -0.128194 0
M  V30 11365 C 999.652 -1.37485 -0.835861 0
M  V30 11366 O 1000.84 -1.61454 -0.725378 0
M  V30 11367 C 997.973 -3.24413 -1.123 0
M  V30 11368 C 997.059 -4.22055 -0.416029 0
M  V30 11369 N 997.45 -5.02867 0.543921 0
M  V30 11370 C 995.748 -4.41041 -0.663208 0
M  V30 11371 C 996.449 -5.73728 0.959731 0
M  V30 11372 N 995.425 -5.42756 0.302873 0
M  V30 11373 H 999.227 -2.8752 0.609056 0
M  V30 11374 H 996.741 -1.56484 0.434338 0
M  V30 11375 H 998.738 -3.82139 -1.6666 0
M  V30 11376 H 997.398 -2.66092 -1.86078 0
M  V30 11377 H 998.409 -5.09649 0.920799 0
M  V30 11378 H 995.086 -3.93842 -1.38544 0
M  V30 11379 H 996.476 -6.48666 1.75163 0
M  V30 11380 N 999.196 -0.349774 -1.5367 0
M  V30 11381 C 1000.14 0.519396 -2.26727 0
M  V30 11382 C 1001.14 1.09673 -1.29105 0
M  V30 11383 O 1002.34 1.04176 -1.46791 0
M  V30 11384 H 998.719 0.186192 -0.728585 0
M  V30 11385 H 1000.69 -0.118736 -2.98164 0
M  V30 11386 C 999.439 1.65535 -3.05767 0
M  V30 11387 H 998.762 1.22038 -3.80719 0
M  V30 11388 H 1000.2 2.23856 -3.6009 0
M  V30 11389 C 998.661 2.58844 -2.15642 0
M  V30 11390 O 999.191 3.61254 -1.75665 0
M  V30 11391 N 997.397 2.27671 -1.80595 0
M  V30 11392 H 996.944 1.44429 -2.13302 0
M  V30 11393 H 996.902 2.90359 -1.20577 0
M  V30 11394 N 1000.67 1.57404 -0.0785433 0
M  V30 11395 C 1001.62 2.14316 0.903949 0
M  V30 11396 C 1002.62 1.08176 1.30362 0
M  V30 11397 O 1003.82 1.26546 1.28008 0
M  V30 11398 H 1000.2 0.685367 0.309477 0
M  V30 11399 H 1002.17 2.95719 0.399081 0
M  V30 11400 C 1000.92 2.72504 2.15956 0
M  V30 11401 H 1000.24 3.53853 1.86087 0
M  V30 11402 H 1001.68 3.15914 2.82798 0
M  V30 11403 C 1000.14 1.6759 2.92259 0
M  V30 11404 O 1000.67 1.10492 3.86205 0
M  V30 11405 N 998.875 1.38467 2.5549 0
M  V30 11406 H 998.422 1.85088 1.79166 0
M  V30 11407 H 998.38 0.685053 3.06846 0
M  V30 11408 N 1002.15 -0.195058 1.56388 0
M  V30 11409 C 1003.1 -1.26122 1.95438 0
M  V30 11410 C 1004.09 -1.47117 0.839818 0
M  V30 11411 O 1005.3 -1.47978 1.02482 0
M  V30 11412 H 1001.67 -0.423422 0.621464 0
M  V30 11413 H 1003.65 -0.904854 2.8435 0
M  V30 11414 C 1002.39 -2.59858 2.31017 0
M  V30 11415 H 1001.72 -2.44519 3.16308 0
M  V30 11416 H 1003.16 -3.33205 2.62203 0
M  V30 11417 C 1001.62 -3.16853 1.14481 0
M  V30 11418 O 1002.15 -3.995 0.419853 0
M  V30 11419 N 1000.35 -2.75599 0.921604 0
M  V30 11420 H 999.9 -2.08495 1.51287 0
M  V30 11421 H 999.858 -3.14072 0.143663 0
M  V30 11422 N 1003.63 -1.50653 -0.462772 0
M  V30 11423 C 1004.91 -1.5258 -1.22387 0
M  V30 11424 C 1005.29 -0.275263 -2.09298 0
M  V30 11425 O 1004.63 0.740943 -2.16153 0
M  V30 11426 C 1004.84 -2.82611 -2.04773 0
M  V30 11427 C 1006.19 -3.33592 -2.62681 0
M  V30 11428 O 1007.22 -2.83989 -2.15008 0
M  V30 11429 O 1006.08 -4.20081 -3.49563 0
M  V30 11430 H 1003.17 -0.612367 -0.55582 0
M  V30 11431 H 1005.72 -1.62948 -0.473914 0
M  V30 11432 H 1004.49 -3.65098 -1.40781 0
M  V30 11433 H 1004.11 -2.75286 -2.86886 0
M  V30 11434 N 1005.11 0.71652 -1.4037 0
M  V30 11435 C 1006.36 1.47193 -1.37903 0
M  V30 11436 C 1006.67 1.95593 0.0159939 0
M  V30 11437 O 1007.88 2.71009 0.163282 0
M  V30 11438 C 1006.33 2.6606 -2.42363 0
M  V30 11439 C 1005.94 2.24533 -3.87671 0
M  V30 11440 C 1007.68 3.438 -2.49001 0
M  V30 11441 C 1005.59 3.40234 -4.8373 0
M  V30 11442 H 1004.52 0.552811 -0.512753 0
M  V30 11443 H 1007.17 0.779894 -1.66102 0
M  V30 11444 H 1005.55 3.37429 -2.07262 0
M  V30 11445 H 1006.73 1.6059 -4.31911 0
M  V30 11446 H 1005.04 1.59839 -3.845 0
M  V30 11447 H 1007.64 4.29893 -3.17956 0
M  V30 11448 H 1007.98 3.8755 -1.52023 0
M  V30 11449 H 1008.52 2.79474 -2.83088 0
M  V30 11450 H 1005.26 3.01517 -5.82037 0
M  V30 11451 H 1004.78 4.03095 -4.44156 0
M  V30 11452 H 1006.45 4.06312 -5.03507 0
M  V30 11453 N 1006.59 1.25851 0.948643 0
M  V30 11454 C 1007.81 1.13711 1.72851 0
M  V30 11455 C 1008.23 -0.308471 1.86263 0
M  V30 11456 O 1007.59 -1.21175 1.36465 0
M  V30 11457 C 1007.64 1.79271 3.13918 0
M  V30 11458 O 1007.36 3.18179 3.01154 0
M  V30 11459 C 1008.86 1.72988 4.08154 0
M  V30 11460 H 1006.08 0.396334 0.541443 0
M  V30 11461 H 1008.62 1.66329 1.18974 0
M  V30 11462 H 1006.78 1.30609 3.64719 0
M  V30 11463 H 1007.19 3.50507 3.90186 0
M  V30 11464 H 1008.67 2.2351 5.04725 0
M  V30 11465 H 1009.14 0.694866 4.33668 0
M  V30 11466 H 1009.75 2.21166 3.63271 0
M  V30 11467 N 1008.06 -1.15214 1.07534 0
M  V30 11468 C 1009 -2.18999 0.641461 0
M  V30 11469 C 1009.98 -1.58958 -0.342238 0
M  V30 11470 O 1011.16 -1.86859 -0.248218 0
M  V30 11471 C 1008.29 -3.38651 -0.0577939 0
M  V30 11472 C 1007.33 -4.17225 0.884641 0
M  V30 11473 S 1008.17 -4.79375 2.38663 0
M  V30 11474 C 1009.32 -6.02393 1.69923 0
M  V30 11475 H 1009.55 -2.55464 1.52071 0
M  V30 11476 H 1007.09 -1.26205 0.889481 0
M  V30 11477 H 1009.05 -4.07971 -0.454982 0
M  V30 11478 H 1007.71 -3.00526 -0.913407 0
M  V30 11479 H 1006.9 -5.02837 0.342133 0
M  V30 11480 H 1006.5 -3.53463 1.2223 0
M  V30 11481 H 1008.79 -6.69899 1.01201 0
M  V30 11482 H 1009.74 -6.61216 2.53375 0
M  V30 11483 H 1010.14 -5.52106 1.1764 0
M  V30 11484 N 1009.54 -0.859717 -1.32086 0
M  V30 11485 C 1010.49 -0.296897 -2.30697 0
M  V30 11486 C 1011.48 0.582473 -1.59071 0
M  V30 11487 O 1012.69 0.469713 -1.73763 0
M  V30 11488 H 1009.07 -0.0773132 -0.748015 0
M  V30 11489 H 1011.04 -1.14273 -2.75652 0
M  V30 11490 C 1009.79 0.495546 -3.44151 0
M  V30 11491 H 1009.11 -0.171829 -3.99431 0
M  V30 11492 H 1010.55 0.854854 -4.15293 0
M  V30 11493 C 1009.01 1.68278 -2.91863 0
M  V30 11494 O 1009.54 2.78194 -2.89777 0
M  V30 11495 N 1007.74 1.51151 -2.48197 0
M  V30 11496 H 1007.29 0.617345 -2.50093 0
M  V30 11497 H 1007.25 2.3073 -2.13567 0
M  V30 11498 N 1011.02 1.44971 -0.618145 0
M  V30 11499 C 1012.25 2.07039 -0.122395 0
M  V30 11500 C 1012.67 1.45793 1.18853 0
M  V30 11501 O 1012.03 0.55453 1.72611 0
M  V30 11502 C 1012.08 3.60599 -0.0073864 0
M  V30 11503 O 1011.18 3.99069 1.04007 0
M  V30 11504 H 1010.52 0.6593 -0.0788615 0
M  V30 11505 H 1013.05 1.86055 -0.851147 0
M  V30 11506 H 1013.06 4.07569 0.187417 0
M  V30 11507 H 1011.74 4.04561 -0.964544 0
M  V30 11508 H 1010.31 3.63753 0.820879 0
M  V30 11509 N 1012.5 0.357919 1.53482 0
M  V30 11510 C 1013.43 -0.535553 2.21827 0
M  V30 11511 C 1014.41 -1.08904 1.20742 0
M  V30 11512 O 1015.59 -1.14661 1.49616 0
M  V30 11513 C 1012.72 -1.73817 2.90698 0
M  V30 11514 C 1011.77 -1.31283 4.05792 0
M  V30 11515 S 1012.6 -0.320548 5.3454 0
M  V30 11516 C 1013.76 -1.52967 6.0692 0
M  V30 11517 H 1013.99 0.0449045 2.97266 0
M  V30 11518 H 1011.52 0.142009 1.53746 0
M  V30 11519 H 1013.48 -2.42803 3.30994 0
M  V30 11520 H 1012.14 -2.28987 2.14998 0
M  V30 11521 H 1011.33 -2.20989 4.52968 0
M  V30 11522 H 1010.94 -0.702275 3.67347 0
M  V30 11523 H 1013.23 -2.46191 6.31186 0
M  V30 11524 H 1014.17 -1.09943 6.99513 0
M  V30 11525 H 1014.58 -1.73224 5.37265 0
M  V30 11526 N 1013.98 -1.5736 0.0868897 0
M  V30 11527 C 1015.2 -1.98809 -0.590757 0
M  V30 11528 C 1015.63 -0.965407 -1.61436 0
M  V30 11529 O 1014.98 0.067143 -1.81176 0
M  V30 11530 C 1015.03 -3.39249 -1.22238 0
M  V30 11531 O 1014.14 -3.39706 -2.33824 0
M  V30 11532 H 1013.48 -0.64669 -0.150626 0
M  V30 11533 H 1016.01 -2.03927 0.165873 0
M  V30 11534 H 1016.02 -3.76765 -1.56564 0
M  V30 11535 H 1014.69 -4.13208 -0.472434 0
M  V30 11536 H 1013.27 -3.13977 -2.01178 0
M  V30 11537 N 1015.45 0.186762 -1.56489 0
M  V30 11538 C 1016.73 0.932229 -1.71956 0
M  V30 11539 C 1017.11 2.01037 -0.644006 0
M  V30 11540 O 1016.46 2.259 0.343694 0
M  V30 11541 C 1016.67 1.51106 -3.14592 0
M  V30 11542 C 1018.02 1.98997 -3.75081 0
M  V30 11543 O 1019.04 1.60931 -3.17773 0
M  V30 11544 O 1017.9 2.69067 -4.75673 0
M  V30 11545 H 1014.99 0.437736 -0.701652 0
M  V30 11546 H 1017.54 0.175803 -1.68787 0
M  V30 11547 H 1016.31 0.734327 -3.84348 0
M  V30 11548 H 1015.94 2.33209 -3.22024 0
M  V30 11549 N 1016.93 1.50896 0.454776 0
M  V30 11550 C 1017.88 1.71497 1.57136 0
M  V30 11551 C 1018.87 0.58098 1.59126 0
M  V30 11552 O 1020.08 0.761916 1.63079 0
M  V30 11553 H 1016.46 0.54158 0.521724 0
M  V30 11554 H 1018.43 2.65129 1.36928 0
M  V30 11555 C 1017.18 1.84125 2.94947 0
M  V30 11556 H 1016.5 2.7078 2.9414 0
M  V30 11557 H 1017.94 2.02558 3.72487 0
M  V30 11558 C 1016.4 0.596752 3.31573 0
M  V30 11559 O 1016.93 -0.256632 4.00879 0
M  V30 11560 N 1015.13 0.445958 2.87158 0
M  V30 11561 H 1014.68 1.14146 2.30929 0
M  V30 11562 H 1014.64 -0.385519 3.12027 0
M  V30 11563 N 1018.41 -0.709066 1.40748 0
M  V30 11564 C 1019.64 -1.50313 1.42901 0
M  V30 11565 C 1020.06 -1.88072 0.032213 0
M  V30 11566 O 1019.42 -1.53716 -0.96131 0
M  V30 11567 C 1019.47 -2.75074 2.33166 0
M  V30 11568 O 1018.57 -3.72036 1.7794 0
M  V30 11569 H 1017.91 -0.452934 0.485538 0
M  V30 11570 H 1020.44 -0.872712 1.85054 0
M  V30 11571 H 1020.45 -3.23532 2.48578 0
M  V30 11572 H 1019.13 -2.46927 3.34664 0
M  V30 11573 H 1017.7 -3.30911 1.71908 0
M  V30 11574 N 1019.89 -1.26353 -0.941956 0
M  V30 11575 C 1021.14 -1.11851 -1.68806 0
M  V30 11576 C 1021.46 0.33829 -1.91535 0
M  V30 11577 O 1020.72 1.26495 -1.49324 0
M  V30 11578 C 1021.02 -1.83195 -3.06879 0
M  V30 11579 C 1020.68 -3.33093 -3.03908 0
M  V30 11580 C 1019.35 -3.73982 -3.02805 0
M  V30 11581 C 1021.7 -4.28803 -2.96273 0
M  V30 11582 C 1019.03 -5.08971 -2.91832 0
M  V30 11583 C 1021.38 -5.6383 -2.86842 0
M  V30 11584 C 1020.04 -6.04032 -2.84081 0
M  V30 11585 H 1019.31 -0.409293 -0.617706 0
M  V30 11586 H 1021.96 -1.56785 -1.09957 0
M  V30 11587 H 1020.26 -1.30728 -3.69347 0
M  V30 11588 H 1021.96 -1.69416 -3.63455 0
M  V30 11589 H 1018.55 -3.00566 -3.05546 0
M  V30 11590 H 1022.74 -3.98195 -2.96234 0
M  V30 11591 H 1017.99 -5.39282 -2.88072 0
M  V30 11592 H 1022.17 -6.37676 -2.79898 0
M  V30 11593 H 1019.79 -7.08586 -2.75335 0
M  V30 11594 N 1021.37 1.14642 -1.08144 0
M  V30 11595 C 1022.62 1.84964 -0.804437 0
M  V30 11596 C 1022.93 1.8369 0.672106 0
M  V30 11597 O 1024.14 2.49775 1.06417 0
M  V30 11598 C 1022.59 3.32015 -1.38904 0
M  V30 11599 C 1022.2 3.41713 -2.89718 0
M  V30 11600 C 1023.94 4.07467 -1.19041 0
M  V30 11601 C 1021.85 4.82958 -3.41329 0
M  V30 11602 H 1020.78 0.692932 -0.297256 0
M  V30 11603 H 1023.43 1.29255 -1.30251 0
M  V30 11604 H 1021.81 3.87445 -0.818679 0
M  V30 11605 H 1022.99 2.96347 -3.52867 0
M  V30 11606 H 1021.3 2.79713 -3.08463 0
M  V30 11607 H 1023.9 5.1172 -1.55069 0
M  V30 11608 H 1024.24 4.16097 -0.130027 0
M  V30 11609 H 1024.78 3.58329 -1.72757 0
M  V30 11610 H 1021.51 4.79515 -4.46929 0
M  V30 11611 H 1021.03 5.28873 -2.82937 0
M  V30 11612 H 1022.71 5.51841 -3.37759 0
M  V30 11613 N 1022.85 0.866709 1.31628 0
M  V30 11614 C 1023.79 0.318169 2.28596 0
M  V30 11615 C 1024.76 -0.581558 1.55586 0
M  V30 11616 O 1025.95 -0.513895 1.83749 0
M  V30 11617 C 1023.09 -0.477137 3.41786 0
M  V30 11618 C 1022.2 0.449739 4.29653 0
M  V30 11619 C 1021.34 -0.359373 5.29983 0
M  V30 11620 C 1020.37 0.564138 6.09495 0
M  V30 11621 N 1019.51 -0.208526 7.0179 0
M  V30 11622 H 1024.35 1.15029 2.74904 0
M  V30 11623 H 1021.89 0.578649 1.35241 0
M  V30 11624 H 1023.85 -0.953985 4.06146 0
M  V30 11625 H 1022.48 -1.27398 2.96597 0
M  V30 11626 H 1021.53 1.04502 3.65764 0
M  V30 11627 H 1022.84 1.158 4.85172 0
M  V30 11628 H 1021.99 -0.89887 6.00004 0
M  V30 11629 H 1020.73 -1.10094 4.75111 0
M  V30 11630 H 1019.74 1.11542 5.38366 0
M  V30 11631 H 1020.96 1.30451 6.66453 0
M  V30 11632 H 1018.91 -0.932969 6.49332 0
M  V30 11633 H 1018.83 0.440463 7.54716 0
M  V30 11634 H 1020.09 -0.72936 7.7608 0
M  V30 11635 N 1024.32 -1.44642 0.625825 0
M  V30 11636 C 1025.26 -2.28882 -0.120614 0
M  V30 11637 C 1026.27 -1.40985 -0.81407 0
M  V30 11638 O 1027.46 -1.65188 -0.676404 0
M  V30 11639 C 1024.56 -3.17217 -1.19274 0
M  V30 11640 C 1023.73 -4.33499 -0.582839 0
M  V30 11641 C 1022.79 -5.02908 -1.54823 0
M  V30 11642 O 1021.82 -5.59102 -1.06743 0
M  V30 11643 N 1023.02 -5.0387 -2.88262 0
M  V30 11644 H 1025.78 -2.93585 0.602318 0
M  V30 11645 H 1023.34 -1.5503 0.466604 0
M  V30 11646 H 1025.34 -3.60515 -1.83878 0
M  V30 11647 H 1023.91 -2.54301 -1.81797 0
M  V30 11648 H 1023.13 -3.93458 0.241696 0
M  V30 11649 H 1024.41 -5.08561 -0.155914 0
M  V30 11650 H 1023.81 -4.59539 -3.2991 0
M  V30 11651 H 1022.37 -5.50974 -3.4824 0
M  V30 11652 N 1025.8 -0.366053 -1.5329 0
M  V30 11653 C 1026.75 0.480205 -2.25749 0
M  V30 11654 C 1027.72 1.07713 -1.2644 0
M  V30 11655 O 1028.9 1.10953 -1.55222 0
M  V30 11656 C 1026.04 1.61374 -3.05045 0
M  V30 11657 C 1025.16 1.04194 -4.19246 0
M  V30 11658 C 1024.29 2.14462 -4.85983 0
M  V30 11659 C 1023.33 1.5475 -5.92215 0
M  V30 11660 N 1022.47 2.58852 -6.52641 0
M  V30 11661 H 1027.31 -0.144199 -2.97651 0
M  V30 11662 H 1024.84 -0.0829321 -1.46866 0
M  V30 11663 H 1026.8 2.28144 -3.49294 0
M  V30 11664 H 1025.43 2.2088 -2.35397 0
M  V30 11665 H 1024.48 0.264514 -3.79479 0
M  V30 11666 H 1025.8 0.565379 -4.95585 0
M  V30 11667 H 1024.95 2.89051 -5.33418 0
M  V30 11668 H 1023.69 2.6547 -4.09117 0
M  V30 11669 H 1022.69 0.786759 -5.44142 0
M  V30 11670 H 1023.92 1.04566 -6.71001 0
M  V30 11671 H 1021.87 3.09073 -5.78627 0
M  V30 11672 H 1021.78 2.15884 -7.24521 0
M  V30 11673 H 1023.05 3.33142 -7.04724 0
M  V30 11674 N 1027.28 1.57312 -0.0952337 0
M  V30 11675 C 1028.51 1.98409 0.575984 0
M  V30 11676 C 1028.92 0.973168 1.62253 0
M  V30 11677 O 1028.26 -0.0454416 1.83644 0
M  V30 11678 C 1028.32 3.35877 1.28167 0
M  V30 11679 C 1027.99 4.55368 0.385868 0
M  V30 11680 C 1028.98 5.1861 -0.366041 0
M  V30 11681 C 1026.67 5.0138 0.303885 0
M  V30 11682 C 1028.66 6.26233 -1.18791 0
M  V30 11683 C 1026.35 6.0887 -0.521637 0
M  V30 11684 C 1027.35 6.71161 -1.26618 0
M  V30 11685 O 1027.04 7.76577 -2.07804 0
M  V30 11686 H 1026.77 0.657018 0.159068 0
M  V30 11687 H 1029.32 2.04685 -0.171237 0
M  V30 11688 H 1027.55 3.26284 2.07547 0
M  V30 11689 H 1029.24 3.6142 1.84744 0
M  V30 11690 H 1030.01 4.83993 -0.312435 0
M  V30 11691 H 1025.89 4.52657 0.873065 0
M  V30 11692 H 1029.43 6.74784 -1.76955 0
M  V30 11693 H 1025.33 6.42918 -0.576722 0
M  V30 11694 H 1026.09 7.93566 -2.00489 0
M  V30 11695 N 1028.76 -0.17846 1.56586 0
M  V30 11696 C 1029.98 -0.916061 1.86073 0
M  V30 11697 C 1030.41 -1.75349 0.680754 0
M  V30 11698 O 1029.77 -1.77479 -0.37028 0
M  V30 11699 C 1029.81 -1.77445 3.1392 0
M  V30 11700 O 1028.92 -2.87524 2.95641 0
M  V30 11701 H 1028.26 -0.257031 0.612234 0
M  V30 11702 H 1030.79 -0.178755 2.03818 0
M  V30 11703 H 1030.8 -2.1758 3.45142 0
M  V30 11704 H 1029.47 -1.15927 3.99417 0
M  V30 11705 H 1028.05 -2.51023 2.75757 0
M  V30 11706 N 1030.24 -1.51135 -0.446768 0
M  V30 11707 C 1031.46 -1.67129 -1.21965 0
M  V30 11708 C 1031.88 -0.36467 -1.85245 0
M  V30 11709 O 1031.24 0.655908 -1.70306 0
M  V30 11710 C 1031.29 -2.78016 -2.31061 0
M  V30 11711 O 1031.01 -4.03615 -1.70371 0
M  V30 11712 C 1032.51 -3.05197 -3.21511 0
M  V30 11713 H 1029.73 -0.561111 -0.367961 0
M  V30 11714 H 1032.27 -1.97499 -0.530517 0
M  V30 11715 H 1030.43 -2.50272 -2.95707 0
M  V30 11716 H 1030.84 -4.65126 -2.424 0
M  V30 11717 H 1032.32 -3.8639 -3.94216 0
M  V30 11718 H 1032.79 -2.17228 -3.81718 0
M  V30 11719 H 1033.4 -3.34565 -2.62577 0
M  V30 11720 N 1031.71 0.701592 -1.41122 0
M  V30 11721 C 1032.64 1.82815 -1.45262 0
M  V30 11722 C 1033.62 1.67215 -0.311939 0
M  V30 11723 O 1034.81 1.87038 -0.522538 0
M  V30 11724 C 1031.94 3.20899 -1.32819 0
M  V30 11725 C 1030.89 3.51194 -2.44636 0
M  V30 11726 C 1030.22 4.8857 -2.17263 0
M  V30 11727 C 1031.52 3.50777 -3.86979 0
M  V30 11728 H 1033.21 1.79608 -2.39544 0
M  V30 11729 H 1030.76 0.862693 -1.15298 0
M  V30 11730 H 1032.71 3.99417 -1.34329 0
M  V30 11731 H 1031.44 3.24717 -0.350191 0
M  V30 11732 H 1030.1 2.75024 -2.42399 0
M  V30 11733 H 1029.74 4.89007 -1.17819 0
M  V30 11734 H 1029.44 5.09805 -2.92186 0
M  V30 11735 H 1030.97 5.69405 -2.20478 0
M  V30 11736 H 1032.38 4.19309 -3.90964 0
M  V30 11737 H 1030.78 3.83542 -4.61536 0
M  V30 11738 H 1031.85 2.49873 -4.15562 0
M  V30 11739 N 1033.19 1.2685 0.935242 0
M  V30 11740 C 1034.12 1.03244 2.03509 0
M  V30 11741 C 1035.1 -0.0447323 1.62538 0
M  V30 11742 O 1036.29 0.0988905 1.8824 0
M  V30 11743 C 1033.41 0.564626 3.33961 0
M  V30 11744 C 1032.46 1.63524 3.93906 0
M  V30 11745 S 1033.29 3.22577 4.27439 0
M  V30 11746 C 1034.45 2.77579 5.60982 0
M  V30 11747 H 1034.68 1.96367 2.2322 0
M  V30 11748 H 1032.21 1.10597 1.07739 0
M  V30 11749 H 1034.17 0.301388 4.09392 0
M  V30 11750 H 1032.83 -0.346419 3.12184 0
M  V30 11751 H 1032.03 1.25905 4.8802 0
M  V30 11752 H 1031.63 1.85017 3.25031 0
M  V30 11753 H 1033.92 2.22412 6.39952 0
M  V30 11754 H 1034.86 3.70408 6.03493 0
M  V30 11755 H 1035.27 2.16956 5.21143 0
M  V30 11756 N 1034.67 -1.14067 1.0875 0
M  V30 11757 C 1035.62 -2.21332 0.715195 0
M  V30 11758 C 1036.61 -1.67059 -0.280679 0
M  V30 11759 O 1037.82 -1.79432 -0.142874 0
M  V30 11760 H 1034.19 -0.721126 0.213264 0
M  V30 11761 H 1036.16 -2.50002 1.62916 0
M  V30 11762 C 1034.91 -3.474 0.144401 0
M  V30 11763 H 1034.24 -3.89495 0.901884 0
M  V30 11764 H 1035.68 -4.23928 -0.0782564 0
M  V30 11765 C 1034.14 -3.17787 -1.11862 0
M  V30 11766 O 1034.67 -3.35906 -2.20295 0
M  V30 11767 N 1032.87 -2.71719 -1.03039 0
M  V30 11768 H 1032.42 -2.57175 -0.14793 0
M  V30 11769 H 1032.38 -2.52281 -1.87621 0
M  V30 11770 N 1036.15 -0.873678 -1.31166 0
M  V30 11771 C 1037.06 -0.335726 -2.32185 0
M  V30 11772 C 1038.07 0.556259 -1.64869 0
M  V30 11773 O 1039.25 0.452087 -1.9626 0
M  V30 11774 C 1036.32 0.450822 -3.43756 0
M  V30 11775 C 1035.38 -0.469565 -4.26724 0
M  V30 11776 C 1034.61 0.279538 -5.32967 0
M  V30 11777 O 1034.83 1.50715 -5.50128 0
M  V30 11778 O 1033.77 -0.36452 -6.00795 0
M  V30 11779 H 1037.59 -1.17314 -2.80127 0
M  V30 11780 H 1035.18 -0.637163 -1.35132 0
M  V30 11781 H 1037.06 0.896582 -4.11752 0
M  V30 11782 H 1035.73 1.26472 -2.9797 0
M  V30 11783 H 1034.64 -0.963902 -3.61469 0
M  V30 11784 H 1035.97 -1.24916 -4.76085 0
M  V30 11785 N 1037.63 1.44308 -0.633487 0
M  V30 11786 C 1038.57 2.30694 0.0700257 0
M  V30 11787 C 1039.54 1.43618 0.834447 0
M  V30 11788 O 1040.73 1.72517 0.815014 0
M  V30 11789 C 1037.87 3.28929 1.04403 0
M  V30 11790 C 1036.98 4.31106 0.277779 0
M  V30 11791 C 1036.12 5.16433 1.24381 0
M  V30 11792 C 1035.16 6.10317 0.466855 0
M  V30 11793 N 1034.29 6.88335 1.38347 0
M  V30 11794 H 1039.13 2.90311 -0.672567 0
M  V30 11795 H 1036.67 1.43034 -0.343449 0
M  V30 11796 H 1038.63 3.84373 1.62214 0
M  V30 11797 H 1037.26 2.71006 1.75372 0
M  V30 11798 H 1036.31 3.78115 -0.416292 0
M  V30 11799 H 1037.62 4.97725 -0.327251 0
M  V30 11800 H 1036.78 5.76406 1.89318 0
M  V30 11801 H 1035.51 4.49893 1.88276 0
M  V30 11802 H 1034.52 5.49451 -0.195989 0
M  V30 11803 H 1035.74 6.78894 -0.167414 0
M  V30 11804 H 1033.69 6.24461 2.00959 0
M  V30 11805 H 1033.61 7.51402 0.832517 0
M  V30 11806 H 1034.88 7.52829 2.0216 0
M  V30 11807 N 1039.1 0.374177 1.53094 0
M  V30 11808 C 1040.05 -0.468226 2.26001 0
M  V30 11809 C 1041.02 -1.07041 1.27009 0
M  V30 11810 O 1042.21 -1.10129 1.55809 0
M  V30 11811 C 1039.35 -1.59754 3.05896 0
M  V30 11812 C 1038.46 -1.01969 4.19793 0
M  V30 11813 C 1037.59 -2.11882 4.87113 0
M  V30 11814 C 1036.63 -1.51607 5.93028 0
M  V30 11815 N 1035.77 -2.55388 6.54004 0
M  V30 11816 H 1040.61 0.159983 2.9757 0
M  V30 11817 H 1038.15 0.0907196 1.4682 0
M  V30 11818 H 1040.11 -2.26288 3.50499 0
M  V30 11819 H 1038.74 -2.19628 2.36565 0
M  V30 11820 H 1037.79 -0.244386 3.79614 0
M  V30 11821 H 1039.1 -0.539089 4.95878 0
M  V30 11822 H 1038.25 -2.86218 5.34943 0
M  V30 11823 H 1036.99 -2.63297 4.10519 0
M  V30 11824 H 1036 -0.757891 5.44551 0
M  V30 11825 H 1037.22 -1.01006 6.71546 0
M  V30 11826 H 1035.17 -3.06 5.80258 0
M  V30 11827 H 1035.09 -2.12039 7.25655 0
M  V30 11828 H 1036.35 -3.294 7.06481 0
M  V30 11829 N 1040.58 -1.57259 0.103575 0
M  V30 11830 C 1041.49 -2.18018 -0.866327 0
M  V30 11831 C 1042.51 -1.15198 -1.30404 0
M  V30 11832 O 1043.68 -1.47605 -1.37021 0
M  V30 11833 C 1040.75 -2.75533 -2.10434 0
M  V30 11834 C 1039.81 -3.93337 -1.72002 0
M  V30 11835 C 1039.04 -4.481 -2.89901 0
M  V30 11836 O 1039.27 -4.01784 -4.04877 0
M  V30 11837 O 1038.2 -5.39004 -2.67877 0
M  V30 11838 H 1042.03 -3.01322 -0.379338 0
M  V30 11839 H 1039.61 -1.48907 -0.121228 0
M  V30 11840 H 1041.49 -3.12259 -2.8297 0
M  V30 11841 H 1040.17 -1.9527 -2.58169 0
M  V30 11842 H 1039.08 -3.61408 -0.966193 0
M  V30 11843 H 1040.41 -4.74989 -1.29022 0
M  V30 11844 N 1042.06 0.170153 -1.56679 0
M  V30 11845 C 1043.01 1.21064 -1.965 0
M  V30 11846 C 1043.98 1.43928 -0.829092 0
M  V30 11847 O 1045.16 1.56649 -1.08931 0
M  V30 11848 C 1042.3 2.54468 -2.33109 0
M  V30 11849 C 1041.42 2.38974 -3.59883 0
M  V30 11850 C 1040.55 3.65252 -3.857 0
M  V30 11851 C 1039.59 3.44696 -5.05817 0
M  V30 11852 N 1038.73 4.63047 -5.27761 0
M  V30 11853 H 1043.57 0.864055 -2.85198 0
M  V30 11854 H 1041.1 0.415243 -1.41117 0
M  V30 11855 H 1043.06 3.32222 -2.52358 0
M  V30 11856 H 1041.69 2.8712 -1.4752 0
M  V30 11857 H 1040.74 1.5239 -3.48542 0
M  V30 11858 H 1042.06 2.19731 -4.47794 0
M  V30 11859 H 1041.21 4.51441 -4.05322 0
M  V30 11860 H 1039.95 3.87475 -2.96166 0
M  V30 11861 H 1038.95 2.56893 -4.86092 0
M  V30 11862 H 1040.18 3.23894 -5.96883 0
M  V30 11863 H 1038.12 4.85487 -4.41179 0
M  V30 11864 H 1038.04 4.46722 -6.09898 0
M  V30 11865 H 1039.31 5.50516 -5.51863 0
M  V30 11866 N 1043.54 1.5137 0.438746 0
M  V30 11867 C 1044.49 1.72582 1.53245 0
M  V30 11868 C 1045.46 0.567488 1.56105 0
M  V30 11869 O 1046.64 0.80176 1.73137 0
M  V30 11870 C 1043.78 1.85551 2.90972 0
M  V30 11871 C 1042.89 3.13094 2.97652 0
M  V30 11872 C 1042.03 3.16666 4.26493 0
M  V30 11873 C 1041.07 4.38529 4.27035 0
M  V30 11874 N 1040.2 4.39659 5.47398 0
M  V30 11875 H 1045.04 2.65941 1.3446 0
M  V30 11876 H 1042.58 1.31801 0.653206 0
M  V30 11877 H 1044.54 1.91053 3.70884 0
M  V30 11878 H 1043.17 0.956025 3.08318 0
M  V30 11879 H 1042.22 3.16909 2.10412 0
M  V30 11880 H 1043.53 4.03009 2.93914 0
M  V30 11881 H 1042.69 3.21075 5.14777 0
M  V30 11882 H 1041.43 2.24637 4.32885 0
M  V30 11883 H 1040.43 4.34297 3.37144 0
M  V30 11884 H 1041.66 5.31821 4.22307 0
M  V30 11885 H 1039.6 3.50499 5.54514 0
M  V30 11886 H 1039.52 5.23382 5.45534 0
M  V30 11887 H 1040.79 4.48259 6.37718 0
M  V30 11888 N 1045.02 -0.694098 1.41492 0
M  V30 11889 C 1045.96 -1.82932 1.43662 0
M  V30 11890 C 1046.96 -1.66455 0.31449 0
M  V30 11891 O 1048.16 -1.73298 0.486589 0
M  V30 11892 H 1044.54 -0.602847 0.449533 0
M  V30 11893 H 1046.51 -1.78218 2.39334 0
M  V30 11894 C 1045.26 -3.20962 1.33712 0
M  V30 11895 H 1044.58 -3.34257 2.19345 0
M  V30 11896 H 1046.02 -4.00467 1.39291 0
M  V30 11897 C 1044.48 -3.36863 0.0496332 0
M  V30 11898 O 1045.01 -3.91371 -0.905093 0
M  V30 11899 N 1043.22 -2.90588 -0.0269299 0
M  V30 11900 H 1042.76 -2.46417 0.750752 0
M  V30 11901 H 1042.72 -3.01605 -0.887781 0
M  V30 11902 N 1046.49 -1.27344 -0.928501 0
M  V30 11903 C 1047.4 -1.11812 -2.06241 0
M  V30 11904 C 1048.42 -0.048347 -1.73933 0
M  V30 11905 O 1049.6 -0.25467 -1.99783 0
M  V30 11906 C 1046.66 -0.766036 -3.38131 0
M  V30 11907 C 1045.72 -1.91659 -3.84142 0
M  V30 11908 C 1044.96 -1.58121 -5.09738 0
M  V30 11909 O 1045.18 -0.488742 -5.68302 0
M  V30 11910 O 1044.11 -2.42013 -5.51102 0
M  V30 11911 H 1047.94 -2.06967 -2.22258 0
M  V30 11912 H 1045.52 -1.06524 -1.04752 0
M  V30 11913 H 1047.41 -0.582982 -4.17348 0
M  V30 11914 H 1046.08 0.155998 -3.23324 0
M  V30 11915 H 1044.99 -2.1547 -3.05816 0
M  V30 11916 H 1046.32 -2.8188 -4.0349 0
M  V30 11917 N 1047.97 1.13488 -1.09353 0
M  V30 11918 C 1048.92 2.20949 -0.726923 0
M  V30 11919 C 1049.91 1.67205 0.271816 0
M  V30 11920 O 1051.12 1.79505 0.133356 0
M  V30 11921 H 1047.5 0.719985 -0.217086 0
M  V30 11922 H 1049.47 2.49134 -1.6424 0
M  V30 11923 C 1048.22 3.47319 -0.162822 0
M  V30 11924 H 1047.54 3.89011 -0.922527 0
M  V30 11925 H 1048.98 4.23963 0.0557734 0
M  V30 11926 C 1047.44 3.18376 1.10175 0
M  V30 11927 O 1047.97 3.3707 2.18511 0
M  V30 11928 N 1046.17 2.72262 1.01597 0
M  V30 11929 H 1045.72 2.5725 0.134289 0
M  V30 11930 H 1045.68 2.53272 1.86281 0
M  V30 11931 N 1049.45 0.880621 1.30701 0
M  V30 11932 C 1050.36 0.348034 2.32004 0
M  V30 11933 C 1051.38 -0.547508 1.65162 0
M  V30 11934 O 1052.55 -0.441673 1.96497 0
M  V30 11935 C 1049.62 -0.432585 3.43991 0
M  V30 11936 C 1048.68 0.492189 4.26469 0
M  V30 11937 C 1047.91 -0.25127 5.33108 0
M  V30 11938 O 1048.14 -1.47795 5.5092 0
M  V30 11939 O 1047.07 0.396376 6.00593 0
M  V30 11940 H 1050.9 1.18798 2.79501 0
M  V30 11941 H 1048.48 0.64432 1.34792 0
M  V30 11942 H 1050.36 -0.874733 4.12221 0
M  V30 11943 H 1049.04 -1.2489 2.98637 0
M  V30 11944 H 1047.94 0.983058 3.60953 0
M  V30 11945 H 1049.28 1.27439 4.75416 0
M  V30 11946 N 1050.93 -1.4397 0.641131 0
M  V30 11947 C 1051.84 -2.34526 -0.058742 0
M  V30 11948 C 1052.86 -1.53194 -0.825088 0
M  V30 11949 O 1054.03 -1.85888 -0.775081 0
M  V30 11950 C 1051.1 -3.31313 -1.02139 0
M  V30 11951 C 1050.16 -4.28552 -0.253319 0
M  V30 11952 C 1049.39 -5.20715 -1.17012 0
M  V30 11953 O 1049.61 -5.17028 -2.40911 0
M  V30 11954 O 1048.55 -5.9839 -0.649039 0
M  V30 11955 H 1052.37 -2.95843 0.686329 0
M  V30 11956 H 1049.96 -1.43909 0.401316 0
M  V30 11957 H 1051.84 -3.90862 -1.57496 0
M  V30 11958 H 1050.52 -2.72516 -1.7469 0
M  V30 11959 H 1049.42 -3.72519 0.343531 0
M  V30 11960 H 1050.76 -4.90297 0.432372 0
M  V30 11961 N 1052.41 -0.382291 -1.52893 0
M  V30 11962 C 1053.34 0.447829 -2.29165 0
M  V30 11963 C 1054.32 1.06956 -1.32267 0
M  V30 11964 O 1055.5 1.08365 -1.61154 0
M  V30 11965 C 1052.63 1.57902 -3.09329 0
M  V30 11966 C 1051.59 1.08369 -4.14053 0
M  V30 11967 C 1050.91 2.30641 -4.82399 0
M  V30 11968 C 1052.21 0.156591 -5.22065 0
M  V30 11969 H 1053.91 -0.188541 -2.98806 0
M  V30 11970 H 1051.45 -0.0921179 -1.43705 0
M  V30 11971 H 1053.41 2.16652 -3.61442 0
M  V30 11972 H 1052.13 2.24287 -2.37409 0
M  V30 11973 H 1050.79 0.518772 -3.62911 0
M  V30 11974 H 1050.44 2.9552 -4.07034 0
M  V30 11975 H 1050.14 1.98163 -5.53177 0
M  V30 11976 H 1051.66 2.90047 -5.37313 0
M  V30 11977 H 1053.08 0.652065 -5.6958 0
M  V30 11978 H 1051.47 -0.0780978 -6.00049 0
M  V30 11979 H 1052.54 -0.796529 -4.78313 0
M  V30 11980 N 1053.89 1.57202 -0.111913 0
M  V30 11981 C 1055.16 1.86459 0.590972 0
M  V30 11982 C 1055.54 1.01182 1.85271 0
M  V30 11983 O 1054.89 0.0887891 2.28327 0
M  V30 11984 C 1055.1 3.37455 0.890225 0
M  V30 11985 C 1056.45 4.05895 1.24638 0
M  V30 11986 O 1057.47 3.42433 0.980713 0
M  V30 11987 O 1056.33 5.17903 1.74466 0
M  V30 11988 H 1053.43 0.771652 0.297459 0
M  V30 11989 H 1055.97 1.69072 -0.145882 0
M  V30 11990 H 1054.74 3.913 -0.00419012 0
M  V30 11991 H 1054.37 3.60248 1.68248 0
M  V30 11992 N 1055.36 -0.161842 1.56767 0
M  V30 11993 C 1056.29 -1.20226 2.0017 0
M  V30 11994 C 1057.27 -1.4564 0.878807 0
M  V30 11995 O 1058.46 -1.56813 1.14557 0
M  V30 11996 C 1055.59 -2.53897 2.36968 0
M  V30 11997 C 1054.54 -2.43033 3.52305 0
M  V30 11998 C 1053.87 -3.81281 3.74872 0
M  V30 11999 C 1055.17 -1.927 4.85453 0
M  V30 12000 H 1056.86 -0.84142 2.87333 0
M  V30 12001 H 1054.41 -0.403309 1.38237 0
M  V30 12002 H 1056.36 -3.26893 2.6593 0
M  V30 12003 H 1055.09 -2.91787 1.46724 0
M  V30 12004 H 1053.75 -1.7249 3.23485 0
M  V30 12005 H 1053.39 -4.1658 2.81904 0
M  V30 12006 H 1053.09 -3.74877 4.52483 0
M  V30 12007 H 1054.62 -4.55848 4.06245 0
M  V30 12008 H 1056.03 -2.55477 5.13229 0
M  V30 12009 H 1054.43 -1.97222 5.66766 0
M  V30 12010 H 1055.5 -0.881816 4.76814 0
M  V30 12011 N 1056.84 -1.516 -0.430713 0
M  V30 12012 C 1057.79 -1.73975 -1.54387 0
M  V30 12013 C 1058.78 -0.606222 -1.58181 0
M  V30 12014 O 1059.99 -0.787764 -1.61846 0
M  V30 12015 H 1056.36 -0.549811 -0.513041 0
M  V30 12016 H 1058.34 -2.67274 -1.32692 0
M  V30 12017 C 1057.08 -1.88794 -2.9198 0
M  V30 12018 H 1056.41 -2.75425 -2.89795 0
M  V30 12019 H 1057.85 -2.08458 -3.69217 0
M  V30 12020 C 1056.31 -0.649427 -3.30581 0
M  V30 12021 O 1056.84 0.192823 -4.01237 0
M  V30 12022 N 1055.04 -0.491586 -2.86412 0
M  V30 12023 H 1054.59 -1.17806 -2.29084 0
M  V30 12024 H 1054.55 0.33583 -3.12601 0
M  V30 12025 N 1058.32 0.686584 -1.41858 0
M  V30 12026 C 1059.54 1.4802 -1.45275 0
M  V30 12027 C 1059.97 1.87997 -0.0621297 0
M  V30 12028 O 1059.33 1.55226 0.936733 0
M  V30 12029 C 1059.38 2.7133 -2.37513 0
M  V30 12030 O 1058.48 3.69159 -1.83836 0
M  V30 12031 H 1057.82 0.445152 -0.492682 0
M  V30 12032 H 1060.35 0.843161 -1.86419 0
M  V30 12033 H 1060.36 3.19537 -2.53693 0
M  V30 12034 H 1059.04 2.41571 -3.3855 0
M  V30 12035 H 1057.61 3.28134 -1.77151 0
M  V30 12036 N 1059.8 1.27835 0.921735 0
M  V30 12037 C 1061.04 1.14692 1.67253 0
M  V30 12038 C 1061.38 -0.305384 1.91784 0
M  V30 12039 O 1060.65 -1.22286 1.51249 0
M  V30 12040 C 1060.93 1.93743 3.03539 0
M  V30 12041 C 1060.79 3.46991 2.86212 0
M  V30 12042 C 1062.11 1.74658 4.03959 0
M  V30 12043 H 1059.23 0.418021 0.606983 0
M  V30 12044 H 1061.87 1.5706 1.06922 0
M  V30 12045 H 1060.02 1.57738 3.55037 0
M  V30 12046 H 1061.69 3.92858 2.41785 0
M  V30 12047 H 1059.93 3.73029 2.21432 0
M  V30 12048 H 1060.6 3.97551 3.82958 0
M  V30 12049 H 1063.08 2.06063 3.61493 0
M  V30 12050 H 1061.96 2.32353 4.97296 0
M  V30 12051 H 1062.22 0.696019 4.36587 0
M  V30 12052 N 1061.28 -1.12907 1.09954 0
M  V30 12053 C 1062.52 -1.83661 0.833761 0
M  V30 12054 C 1062.84 -1.84736 -0.642798 0
M  V30 12055 O 1064.04 -2.51437 -1.0243 0
M  V30 12056 C 1062.5 -3.29763 1.44168 0
M  V30 12057 C 1062.11 -3.3706 2.95118 0
M  V30 12058 C 1063.85 -4.05522 1.25509 0
M  V30 12059 C 1061.76 -4.77467 3.48969 0
M  V30 12060 H 1060.69 -0.688115 0.308242 0
M  V30 12061 H 1063.34 -1.27166 1.32291 0
M  V30 12062 H 1061.72 -3.86094 0.880215 0
M  V30 12063 H 1062.9 -2.90695 3.57537 0
M  V30 12064 H 1061.21 -2.7477 3.12874 0
M  V30 12065 H 1063.81 -5.09188 1.63191 0
M  V30 12066 H 1064.15 -4.15837 0.196208 0
M  V30 12067 H 1064.68 -3.55536 1.78435 0
M  V30 12068 H 1061.42 -4.72344 4.54501 0
M  V30 12069 H 1060.94 -5.24305 2.91315 0
M  V30 12070 H 1062.62 -5.46397 3.46495 0
M  V30 12071 N 1062.75 -0.88754 -1.30232 0
M  V30 12072 C 1063.68 -0.372481 -2.3051 0
M  V30 12073 C 1064.66 0.546037 -1.61098 0
M  V30 12074 O 1065.85 0.459345 -1.88689 0
M  V30 12075 C 1062.98 0.411605 -3.44852 0
M  V30 12076 C 1061.93 -0.415383 -4.2598 0
M  V30 12077 C 1061.26 0.495463 -5.324 0
M  V30 12078 C 1062.56 -1.65886 -4.95257 0
M  V30 12079 H 1064.25 -1.21045 -2.7384 0
M  V30 12080 H 1061.8 -0.583498 -1.31648 0
M  V30 12081 H 1063.75 0.782584 -4.1407 0
M  V30 12082 H 1062.48 1.28325 -3.00334 0
M  V30 12083 H 1061.14 -0.768534 -3.58454 0
M  V30 12084 H 1060.78 1.36489 -4.84128 0
M  V30 12085 H 1060.48 -0.0540885 -5.87575 0
M  V30 12086 H 1062.01 0.862901 -6.04472 0
M  V30 12087 H 1063.42 -1.35832 -5.56976 0
M  V30 12088 H 1061.82 -2.14881 -5.60309 0
M  V30 12089 H 1062.89 -2.40181 -4.21237 0
M  V30 12090 N 1064.23 1.43628 -0.648757 0
M  V30 12091 C 1065.46 2.06732 -0.166284 0
M  V30 12092 C 1065.88 1.48281 1.15734 0
M  V30 12093 O 1065.24 0.591018 1.71396 0
M  V30 12094 C 1065.29 3.60502 -0.0838732 0
M  V30 12095 O 1064.39 4.01186 0.955185 0
M  V30 12096 H 1063.73 0.657479 -0.0928285 0
M  V30 12097 H 1066.26 1.84208 -0.890421 0
M  V30 12098 H 1066.27 4.07875 0.100923 0
M  V30 12099 H 1064.95 4.02424 -1.05014 0
M  V30 12100 H 1063.53 3.65412 0.743537 0
M  V30 12101 N 1065.71 0.390394 1.52688 0
M  V30 12102 C 1066.96 -0.192697 2.00777 0
M  V30 12103 C 1067.27 -1.4781 1.28108 0
M  V30 12104 O 1068.48 -2.1413 1.66914 0
M  V30 12105 C 1066.93 -0.393955 3.57737 0
M  V30 12106 C 1066.54 0.878259 4.39307 0
M  V30 12107 C 1068.29 -0.933352 4.14112 0
M  V30 12108 C 1066.19 0.645218 5.8787 0
M  V30 12109 H 1065.12 -0.0757862 0.750182 0
M  V30 12110 H 1067.77 0.512961 1.76184 0
M  V30 12111 H 1066.16 -1.16149 3.78583 0
M  V30 12112 H 1067.33 1.65049 4.30227 0
M  V30 12113 H 1065.65 1.34269 3.94158 0
M  V30 12114 H 1068.24 -1.12343 5.22765 0
M  V30 12115 H 1068.59 -1.90272 3.70273 0
M  V30 12116 H 1069.12 -0.225361 3.97161 0
M  V30 12117 H 1065.86 1.58562 6.36033 0
M  V30 12118 H 1065.38 -0.0880609 5.99735 0
M  V30 12119 H 1067.06 0.280178 6.46393 0
M  V30 12120 N 1067.19 -1.57141 0.120249 0
M  V30 12121 C 1068.12 -2.18398 -0.826112 0
M  V30 12122 C 1069.1 -1.12439 -1.27638 0
M  V30 12123 O 1070.28 -1.40679 -1.33877 0
M  V30 12124 C 1067.41 -2.78438 -2.0758 0
M  V30 12125 C 1066.37 -3.89991 -1.76327 0
M  V30 12126 C 1065.69 -4.36844 -3.08336 0
M  V30 12127 C 1066.99 -5.12031 -1.03062 0
M  V30 12128 H 1068.69 -2.97731 -0.315656 0
M  V30 12129 H 1066.23 -1.43213 -0.150387 0
M  V30 12130 H 1068.19 -3.19951 -2.74243 0
M  V30 12131 H 1066.91 -1.96396 -2.60953 0
M  V30 12132 H 1065.57 -3.49055 -1.12053 0
M  V30 12133 H 1065.22 -3.51659 -3.59646 0
M  V30 12134 H 1064.92 -5.1207 -2.88199 0
M  V30 12135 H 1066.44 -4.81009 -3.76116 0
M  V30 12136 H 1067.86 -5.50555 -1.59881 0
M  V30 12137 H 1066.25 -5.92848 -0.930146 0
M  V30 12138 H 1067.32 -4.84897 -0.017582 0
M  V30 12139 N 1068.67 0.153526 -1.5685 0
M  V30 12140 C 1069.89 0.882335 -1.87143 0
M  V30 12141 C 1070.31 1.75034 -0.707702 0
M  V30 12142 O 1069.67 1.79624 0.32273 0
M  V30 12143 C 1069.72 1.74444 -3.16625 0
M  V30 12144 O 1069.44 0.911419 -4.28515 0
M  V30 12145 C 1070.94 2.58139 -3.60388 0
M  V30 12146 H 1068.16 0.25546 -0.620469 0
M  V30 12147 H 1070.7 0.148275 -2.03962 0
M  V30 12148 H 1068.86 2.43163 -3.0158 0
M  V30 12149 H 1069.27 1.50268 -5.02513 0
M  V30 12150 H 1070.75 3.14215 -4.53842 0
M  V30 12151 H 1071.22 3.33865 -2.85361 0
M  V30 12152 H 1071.83 1.94721 -3.78105 0
M  V30 12153 N 1070.14 1.51827 0.422667 0
M  V30 12154 C 1071.11 1.7359 1.49663 0
M  V30 12155 C 1072.11 0.605811 1.48952 0
M  V30 12156 O 1073.3 0.87354 1.50715 0
M  V30 12157 C 1070.43 1.80585 2.8914 0
M  V30 12158 H 1071.62 2.69453 1.31664 0
M  V30 12159 H 1069.18 1.42038 0.652298 0
M  V30 12160 H 1069.91 0.865895 3.12526 0
M  V30 12161 H 1069.7 2.62729 2.9106 0
M  V30 12162 H 1071.19 1.99212 3.67021 0
M  V30 12163 N 1071.62 -0.679052 1.4222 0
M  V30 12164 C 1072.87 -1.43485 1.41757 0
M  V30 12165 C 1073.18 -1.95567 0.0358698 0
M  V30 12166 O 1074.39 -2.71346 -0.0913713 0
M  V30 12167 C 1072.85 -2.59541 2.49332 0
M  V30 12168 C 1072.45 -2.14176 3.93488 0
M  V30 12169 C 1074.2 -3.37078 2.58029 0
M  V30 12170 C 1072.11 -3.27289 4.92581 0
M  V30 12171 H 1071.04 -0.539022 0.52723 0
M  V30 12172 H 1073.69 -0.735581 1.68111 0
M  V30 12173 H 1072.07 -3.31815 2.16135 0
M  V30 12174 H 1073.24 -1.49082 4.36017 0
M  V30 12175 H 1071.56 -1.49589 3.88603 0
M  V30 12176 H 1074.15 -4.21312 3.29242 0
M  V30 12177 H 1074.5 -3.83383 1.62245 0
M  V30 12178 H 1075.03 -2.7187 2.90399 0
M  V30 12179 H 1071.77 -2.8598 5.89827 0
M  V30 12180 H 1071.29 -3.91178 4.54687 0
M  V30 12181 H 1072.97 -3.9282 5.14103 0
M  V30 12182 N 1073.1 -1.28322 -0.914942 0
M  V30 12183 C 1074.03 -1.14681 -2.03398 0
M  V30 12184 C 1075.01 -0.0448939 -1.70041 0
M  V30 12185 O 1076.2 -0.221672 -1.92931 0
M  V30 12186 C 1073.33 -0.806623 -3.37803 0
M  V30 12187 C 1072.28 -1.86318 -3.85318 0
M  V30 12188 C 1071.61 -1.37665 -5.16674 0
M  V30 12189 C 1072.91 -3.26953 -4.07307 0
M  V30 12190 H 1074.6 -2.08293 -2.15068 0
M  V30 12191 H 1072.15 -1.00284 -1.03339 0
M  V30 12192 H 1074.1 -0.69796 -4.1558 0
M  V30 12193 H 1072.82 0.165203 -3.26182 0
M  V30 12194 H 1071.48 -1.96096 -3.09745 0
M  V30 12195 H 1071.13 -0.393927 -5.01455 0
M  V30 12196 H 1070.83 -2.08313 -5.49435 0
M  V30 12197 H 1072.35 -1.28119 -5.97007 0
M  V30 12198 H 1073.77 -3.20102 -4.75613 0
M  V30 12199 H 1072.17 -3.95424 -4.51398 0
M  V30 12200 H 1073.24 -3.71059 -3.12159 0
M  V30 12201 N 1074.58 1.12322 -1.10551 0
M  V30 12202 C 1075.8 1.8822 -0.871093 0
M  V30 12203 C 1076.23 1.7916 0.573005 0
M  V30 12204 O 1075.59 1.14738 1.40374 0
M  V30 12205 C 1075.63 3.35349 -1.32565 0
M  V30 12206 O 1074.74 4.09461 -0.49145 0
M  V30 12207 H 1074.08 0.584787 -0.314516 0
M  V30 12208 H 1076.61 1.42039 -1.47262 0
M  V30 12209 H 1076.62 3.86189 -1.31612 0
M  V30 12210 H 1075.29 3.4126 -2.37728 0
M  V30 12211 H 1073.87 3.68575 -0.566294 0
M  V30 12212 N 1076.06 0.894434 1.2976 0
M  V30 12213 C 1076.99 0.3847 2.30309 0
M  V30 12214 C 1077.97 -0.537486 1.61385 0
M  V30 12215 O 1079.15 -0.449332 1.8893 0
M  V30 12216 C 1076.28 -0.393311 3.45066 0
M  V30 12217 C 1075.24 0.437968 4.25753 0
M  V30 12218 C 1074.56 -0.467221 5.32655 0
M  V30 12219 C 1075.86 1.6851 4.9437 0
M  V30 12220 H 1077.56 1.22496 2.73194 0
M  V30 12221 H 1075.1 0.590471 1.31337 0
M  V30 12222 H 1077.06 -0.760614 4.14479 0
M  V30 12223 H 1075.78 -1.2673 3.0101 0
M  V30 12224 H 1074.44 0.787533 3.58041 0
M  V30 12225 H 1074.09 -1.33919 4.84845 0
M  V30 12226 H 1073.79 0.0852482 5.87538 0
M  V30 12227 H 1075.31 -0.830833 6.04921 0
M  V30 12228 H 1076.72 1.38784 5.56248 0
M  V30 12229 H 1075.12 2.17849 5.59162 0
M  V30 12230 H 1076.19 2.42412 4.19958 0
M  V30 12231 N 1077.53 -1.43282 0.656365 0
M  V30 12232 C 1078.46 -2.33492 -0.0196962 0
M  V30 12233 C 1079.45 -1.49647 -0.80868 0
M  V30 12234 O 1080.63 -1.78303 -0.769529 0
M  V30 12235 C 1077.76 -3.33052 -0.984574 0
M  V30 12236 C 1076.71 -4.26908 -0.305483 0
M  V30 12237 C 1076.04 -5.16531 -1.38202 0
M  V30 12238 C 1077.34 -5.16073 0.804081 0
M  V30 12239 H 1079.03 -2.90272 0.733661 0
M  V30 12240 H 1076.58 -1.39574 0.354259 0
M  V30 12241 H 1078.53 -3.9506 -1.46647 0
M  V30 12242 H 1077.26 -2.74535 -1.76913 0
M  V30 12243 H 1075.92 -3.66268 0.155995 0
M  V30 12244 H 1075.56 -4.54351 -2.1581 0
M  V30 12245 H 1075.26 -5.80148 -0.932878 0
M  V30 12246 H 1076.79 -5.81414 -1.86522 0
M  V30 12247 H 1078.2 -5.71873 0.404212 0
M  V30 12248 H 1076.6 -5.88427 1.17789 0
M  V30 12249 H 1077.67 -4.55574 1.66073 0
M  V30 12250 N 1079.01 -0.398486 -1.52479 0
M  V30 12251 C 1080.29 0.238776 -1.94137 0
M  V30 12252 C 1080.67 1.63558 -1.33462 0
M  V30 12253 O 1080.02 2.22821 -0.506272 0
M  V30 12254 C 1080.23 0.255863 -3.48061 0
M  V30 12255 C 1081.58 0.480376 -4.21874 0
M  V30 12256 O 1082.6 0.335679 -3.54615 0
M  V30 12257 O 1081.46 0.764654 -5.41124 0
M  V30 12258 H 1078.55 0.150806 -0.813134 0
M  V30 12259 H 1081.1 -0.453659 -1.63524 0
M  V30 12260 H 1079.87 -0.722171 -3.84578 0
M  V30 12261 H 1079.49 0.99284 -3.85004 0
M  V30 12262 N 1080.49 1.57075 -0.12858 0
M  V30 12263 C 1081.72 2.00305 0.537839 0
M  V30 12264 C 1082.14 1.00787 1.58819 0
M  V30 12265 O 1081.5 -0.0190839 1.8129 0
M  V30 12266 C 1081.55 3.42371 1.13201 0
M  V30 12267 O 1080.65 3.45786 2.24735 0
M  V30 12268 H 1079.99 0.650456 0.133428 0
M  V30 12269 H 1082.52 2.03415 -0.219882 0
M  V30 12270 H 1082.53 3.80783 1.4652 0
M  V30 12271 H 1081.21 4.14315 0.362713 0
M  V30 12272 H 1079.78 3.19201 1.92783 0
M  V30 12273 N 1081.97 -0.145205 1.5693 0
M  V30 12274 C 1083.22 -0.858786 1.83719 0
M  V30 12275 C 1083.55 -1.80738 0.710452 0
M  V30 12276 O 1082.82 -1.92389 -0.285791 0
M  V30 12277 C 1083.11 -1.6317 3.2101 0
M  V30 12278 C 1082.96 -0.704472 4.44249 0
M  V30 12279 C 1084.28 -2.59377 3.55544 0
M  V30 12280 H 1081.4 -0.310757 0.66828 0
M  V30 12281 H 1084.04 -0.123918 1.89595 0
M  V30 12282 H 1082.19 -2.25816 3.16132 0
M  V30 12283 H 1083.86 -0.08887 4.61214 0
M  V30 12284 H 1082.1 -0.0141693 4.33798 0
M  V30 12285 H 1082.78 -1.28135 5.36922 0
M  V30 12286 H 1085.25 -2.06848 3.61044 0
M  V30 12287 H 1084.13 -3.10506 4.52634 0
M  V30 12288 H 1084.39 -3.40819 2.81594 0
M  V30 12289 N 1083.45 -1.52049 -0.414609 0
M  V30 12290 C 1084.72 -1.56397 -1.17471 0
M  V30 12291 C 1085.1 -0.34171 -2.08316 0
M  V30 12292 O 1084.45 0.6718 -2.18401 0
M  V30 12293 C 1084.66 -2.88983 -1.95678 0
M  V30 12294 C 1086.01 -3.41781 -2.51935 0
M  V30 12295 O 1087.03 -2.90686 -2.05865 0
M  V30 12296 O 1085.89 -4.30989 -3.36022 0
M  V30 12297 H 1082.99 -0.62974 -0.536056 0
M  V30 12298 H 1085.53 -1.64374 -0.421834 0
M  V30 12299 H 1084.31 -3.69392 -1.29094 0
M  V30 12300 H 1083.93 -2.84274 -2.77983 0
M  V30 12301 N 1084.93 0.6715 -1.42579 0
M  V30 12302 C 1085.84 1.81435 -1.48723 0
M  V30 12303 C 1086.85 1.69895 -0.375716 0
M  V30 12304 O 1088.03 1.91388 -0.627115 0
M  V30 12305 C 1085.09 3.17599 -1.39038 0
M  V30 12306 C 1084.15 3.41071 -2.60709 0
M  V30 12307 C 1083.39 4.7074 -2.51476 0
M  V30 12308 O 1083.61 5.48868 -1.55243 0
M  V30 12309 O 1082.54 4.95528 -3.41666 0
M  V30 12310 H 1086.37 1.79206 -2.45191 0
M  V30 12311 H 1083.95 0.827666 -1.24379 0
M  V30 12312 H 1085.84 3.98847 -1.3601 0
M  V30 12313 H 1084.51 3.20458 -0.456966 0
M  V30 12314 H 1083.42 2.59659 -2.69311 0
M  V30 12315 H 1084.75 3.43045 -3.5296 0
M  V30 12316 N 1086.4 1.28806 0.908124 0
M  V30 12317 C 1087.31 1.15079 2.04436 0
M  V30 12318 C 1088.33 0.076012 1.73834 0
M  V30 12319 O 1089.51 0.286421 1.99353 0
M  V30 12320 C 1086.57 0.819733 3.3687 0
M  V30 12321 C 1085.63 1.97746 3.81045 0
M  V30 12322 C 1084.86 1.66211 5.07158 0
M  V30 12323 O 1085.09 0.579092 5.67453 0
M  V30 12324 O 1084.02 2.5075 5.47182 0
M  V30 12325 H 1087.85 2.10477 2.18937 0
M  V30 12326 H 1085.43 1.08177 1.03044 0
M  V30 12327 H 1087.31 0.649304 4.16368 0
M  V30 12328 H 1085.99 -0.10454 3.23531 0
M  V30 12329 H 1084.9 2.20308 3.02349 0
M  V30 12330 H 1086.23 2.88264 3.98955 0
M  V30 12331 N 1087.88 -1.11734 1.11145 0
M  V30 12332 C 1088.83 -2.19765 0.761982 0
M  V30 12333 C 1089.82 -1.67616 -0.24518 0
M  V30 12334 O 1091.03 -1.79695 -0.104781 0
M  V30 12335 H 1087.4 -0.71644 0.228513 0
M  V30 12336 H 1089.38 -2.4649 1.68183 0
M  V30 12337 C 1088.12 -3.47016 0.218057 0
M  V30 12338 H 1087.45 -3.87494 0.984299 0
M  V30 12339 H 1088.89 -4.23998 0.0116825 0
M  V30 12340 C 1087.35 -3.20088 -1.05096 0
M  V30 12341 O 1087.88 -3.40503 -2.1312 0
M  V30 12342 N 1086.08 -2.73844 -0.972523 0
M  V30 12343 H 1085.63 -2.57431 -0.0933459 0
M  V30 12344 H 1085.59 -2.56204 -1.82228 0
M  V30 12345 N 1089.36 -0.901303 -1.29284 0
M  V30 12346 C 1090.31 -0.378666 -2.27672 0
M  V30 12347 C 1091.28 0.540102 -1.57074 0
M  V30 12348 O 1092.46 0.464997 -1.85047 0
M  V30 12349 C 1089.6 0.38635 -3.42931 0
M  V30 12350 C 1088.71 -0.563496 -4.28309 0
M  V30 12351 C 1087.85 0.218731 -5.30749 0
M  V30 12352 C 1086.89 -0.725536 -6.07785 0
M  V30 12353 N 1086.03 0.0223854 -7.02096 0
M  V30 12354 H 1090.87 -1.22277 -2.71758 0
M  V30 12355 H 1088.4 -0.614302 -1.33659 0
M  V30 12356 H 1090.36 0.845967 -4.08533 0
M  V30 12357 H 1088.99 1.1949 -2.9987 0
M  V30 12358 H 1088.04 -1.14163 -3.62865 0
M  V30 12359 H 1089.35 -1.28623 -4.81931 0
M  V30 12360 H 1088.51 0.739473 -6.02177 0
M  V30 12361 H 1087.25 0.97459 -4.77863 0
M  V30 12362 H 1086.25 -1.25776 -5.3522 0
M  V30 12363 H 1087.48 -1.48075 -6.6276 0
M  V30 12364 H 1085.42 0.760482 -6.51577 0
M  V30 12365 H 1085.34 -0.640408 -7.53283 0
M  V30 12366 H 1086.61 0.523339 -7.77741 0
M  V30 12367 N 1090.84 1.42931 -0.663954 0
M  V30 12368 C 1092.08 2.01982 -0.182007 0
M  V30 12369 C 1092.42 1.52323 1.20463 0
M  V30 12370 O 1091.69 0.720834 1.80649 0
M  V30 12371 C 1091.97 3.59518 -0.204671 0
M  V30 12372 C 1091.83 4.19382 -1.62599 0
M  V30 12373 C 1093.15 4.37762 0.45308 0
M  V30 12374 H 1090.27 0.733892 -0.0676115 0
M  V30 12375 H 1092.91 1.70092 -0.84668 0
M  V30 12376 H 1091.06 3.86816 0.361295 0
M  V30 12377 H 1092.73 4.03076 -2.24337 0
M  V30 12378 H 1090.97 3.75623 -2.17001 0
M  V30 12379 H 1091.64 5.28496 -1.59362 0
M  V30 12380 H 1094.12 4.1609 -0.0285774 0
M  V30 12381 H 1093 5.47392 0.406538 0
M  V30 12382 H 1093.26 4.1482 1.52895 0
M  V30 12383 N 1092.32 0.406567 1.52266 0
M  V30 12384 C 1093.25 -0.45552 2.24628 0
M  V30 12385 C 1094.26 -1.01234 1.27497 0
M  V30 12386 O 1095.45 -0.911718 1.5346 0
M  V30 12387 C 1092.55 -1.64578 2.96256 0
M  V30 12388 C 1091.72 -1.2133 4.20235 0
M  V30 12389 C 1090.78 -2.27018 4.7471 0
M  V30 12390 O 1089.81 -1.87714 5.37357 0
M  V30 12391 N 1091.01 -3.5915 4.56061 0
M  V30 12392 H 1093.77 0.164525 2.99248 0
M  V30 12393 H 1091.34 0.233812 1.60203 0
M  V30 12394 H 1093.33 -2.3484 3.29594 0
M  V30 12395 H 1091.9 -2.1718 2.24837 0
M  V30 12396 H 1091.12 -0.338892 3.92741 0
M  V30 12397 H 1092.41 -0.901268 5.00754 0
M  V30 12398 H 1091.8 -3.93834 4.06092 0
M  V30 12399 H 1090.36 -4.25397 4.93843 0
M  V30 12400 N 1093.79 -1.57004 0.136909 0
M  V30 12401 C 1095.04 -1.94972 -0.51662 0
M  V30 12402 C 1095.36 -1.02367 -1.66674 0
M  V30 12403 O 1096.56 -1.29873 -2.38423 0
M  V30 12404 C 1095.02 -3.4657 -0.970435 0
M  V30 12405 C 1094.63 -4.47741 0.152204 0
M  V30 12406 C 1096.37 -3.93423 -1.59432 0
M  V30 12407 C 1094.28 -5.90537 -0.319315 0
M  V30 12408 H 1093.21 -0.727873 -0.196766 0
M  V30 12409 H 1095.86 -1.82181 0.219637 0
M  V30 12410 H 1094.24 -3.54657 -1.76165 0
M  V30 12411 H 1095.41 -4.5134 0.928925 0
M  V30 12412 H 1093.73 -4.10746 0.683867 0
M  V30 12413 H 1096.33 -4.97539 -1.95856 0
M  V30 12414 H 1096.67 -3.34404 -2.47951 0
M  V30 12415 H 1097.2 -3.8821 -0.868193 0
M  V30 12416 H 1093.94 -6.53352 0.530248 0
M  V30 12417 H 1093.46 -5.90321 -1.06213 0
M  V30 12418 H 1095.14 -6.42346 -0.774662 0
M  V30 12419 N 1095.27 0.136881 -1.57004 0
M  V30 12420 C 1096.5 0.861186 -1.87796 0
M  V30 12421 C 1096.91 1.74788 -0.724272 0
M  V30 12422 O 1096.25 1.80984 0.31471 0
M  V30 12423 C 1096.32 1.76115 -3.13407 0
M  V30 12424 C 1095.98 1.05059 -4.4476 0
M  V30 12425 C 1096.98 0.399736 -5.18361 0
M  V30 12426 C 1094.66 1.03709 -4.91477 0
M  V30 12427 C 1096.66 -0.255127 -6.36889 0
M  V30 12428 C 1094.34 0.378414 -6.09927 0
M  V30 12429 C 1095.34 -0.266555 -6.8248 0
M  V30 12430 O 1095.03 -0.914757 -7.98679 0
M  V30 12431 H 1094.76 0.253855 -0.626525 0
M  V30 12432 H 1097.31 0.131291 -2.0498 0
M  V30 12433 H 1095.54 2.53224 -2.92257 0
M  V30 12434 H 1097.23 2.3583 -3.30362 0
M  V30 12435 H 1098 0.401909 -4.83332 0
M  V30 12436 H 1093.88 1.52852 -4.34922 0
M  V30 12437 H 1097.42 -0.759135 -6.93457 0
M  V30 12438 H 1093.32 0.373942 -6.44416 0
M  V30 12439 H 1094.09 -0.817437 -8.14408 0
M  V30 12440 N 1096.75 1.52266 0.40654 0
M  V30 12441 C 1097.7 1.75794 1.4955 0
M  V30 12442 C 1098.67 0.600472 1.54866 0
M  V30 12443 O 1099.85 0.838305 1.71397 0
M  V30 12444 C 1096.99 1.91682 2.86971 0
M  V30 12445 C 1096.11 3.19337 2.90943 0
M  V30 12446 C 1095.24 3.25641 4.1968 0
M  V30 12447 C 1094.28 4.47488 4.17637 0
M  V30 12448 N 1093.42 4.51171 5.37949 0
M  V30 12449 H 1098.26 2.68733 1.28789 0
M  V30 12450 H 1095.79 1.33157 0.625102 0
M  V30 12451 H 1097.75 1.98877 3.66748 0
M  V30 12452 H 1096.38 1.02121 3.06221 0
M  V30 12453 H 1095.43 3.21301 2.03642 0
M  V30 12454 H 1096.75 4.09153 2.85299 0
M  V30 12455 H 1095.9 3.31922 5.07851 0
M  V30 12456 H 1094.64 2.33769 4.28023 0
M  V30 12457 H 1093.64 4.41351 3.27856 0
M  V30 12458 H 1094.87 5.40659 4.10932 0
M  V30 12459 H 1092.81 3.62182 5.46955 0
M  V30 12460 H 1092.73 5.34835 5.3431 0
M  V30 12461 H 1094 4.61685 6.28066 0
M  V30 12462 N 1098.23 -0.663929 1.42933 0
M  V30 12463 C 1099.18 -1.79843 1.4751 0
M  V30 12464 C 1100.17 -1.65751 0.349727 0
M  V30 12465 O 1101.38 -1.72227 0.523239 0
M  V30 12466 H 1097.75 -0.593176 0.462219 0
M  V30 12467 H 1099.72 -1.73102 2.4306 0
M  V30 12468 C 1098.47 -3.18053 1.4049 0
M  V30 12469 H 1097.79 -3.29529 2.26386 0
M  V30 12470 H 1099.23 -3.97423 1.47754 0
M  V30 12471 C 1097.69 -3.36682 0.121076 0
M  V30 12472 O 1098.22 -3.93202 -0.821874 0
M  V30 12473 N 1096.43 -2.90579 0.0347141 0
M  V30 12474 H 1095.98 -2.44769 0.802852 0
M  V30 12475 H 1095.93 -3.03421 -0.823607 0
M  V30 12476 N 1099.71 -1.29285 -0.901281 0
M  V30 12477 C 1100.93 -1.20048 -1.68511 0
M  V30 12478 C 1101.35 0.239128 -1.8728 0
M  V30 12479 O 1100.71 1.16027 -1.40869 0
M  V30 12480 C 1100.76 -1.90798 -3.07048 0
M  V30 12481 O 1100.48 -3.29137 -2.89138 0
M  V30 12482 C 1101.98 -1.88017 -4.01453 0
M  V30 12483 H 1099.2 -0.416157 -0.52636 0
M  V30 12484 H 1101.74 -1.7063 -1.12719 0
M  V30 12485 H 1099.9 -1.44055 -3.5962 0
M  V30 12486 H 1100.31 -3.64747 -3.76908 0
M  V30 12487 H 1101.79 -2.42088 -4.96082 0
M  V30 12488 H 1102.26 -0.855341 -4.30791 0
M  V30 12489 H 1102.87 -2.34497 -3.54812 0
M  V30 12490 N 1101.18 1.11143 -1.11736 0
M  V30 12491 C 1102.43 1.82311 -0.862875 0
M  V30 12492 C 1102.75 1.85735 0.613326 0
M  V30 12493 O 1103.95 2.53034 0.984168 0
M  V30 12494 C 1102.41 3.27427 -1.49396 0
M  V30 12495 C 1102.02 3.32323 -3.00443 0
M  V30 12496 C 1103.76 4.03474 -1.31944 0
M  V30 12497 C 1101.67 4.71855 -3.56521 0
M  V30 12498 H 1100.6 0.683124 -0.31915 0
M  V30 12499 H 1103.25 1.25045 -1.34298 0
M  V30 12500 H 1101.63 3.84644 -0.941528 0
M  V30 12501 H 1102.8 2.84971 -3.62117 0
M  V30 12502 H 1101.12 2.69758 -3.17206 0
M  V30 12503 H 1103.72 5.06528 -1.71271 0
M  V30 12504 H 1104.06 4.15473 -0.262339 0
M  V30 12505 H 1104.59 3.52652 -1.84069 0
M  V30 12506 H 1101.33 4.65054 -4.61958 0
M  V30 12507 H 1100.85 5.19604 -2.99619 0
M  V30 12508 H 1102.53 5.40816 -3.55144 0
M  V30 12509 N 1102.66 0.908147 1.28804 0
M  V30 12510 C 1103.89 0.553431 1.9988 0
M  V30 12511 C 1104.31 -0.856714 1.67458 0
M  V30 12512 O 1103.67 -1.57163 0.903849 0
M  V30 12513 C 1103.72 0.762688 3.52442 0
M  V30 12514 O 1102.82 -0.180924 4.12003 0
M  V30 12515 H 1102.16 0.215237 0.628147 0
M  V30 12516 H 1104.69 1.22205 1.64095 0
M  V30 12517 H 1104.7 0.670612 4.02451 0
M  V30 12518 H 1103.38 1.79071 3.75375 0
M  V30 12519 H 1101.96 -0.0405897 3.72878 0
M  V30 12520 N 1104.14 -1.42577 0.671525 0
M  V30 12521 C 1105.37 -2.05625 0.20044 0
M  V30 12522 C 1105.78 -1.50524 -1.14626 0
M  V30 12523 O 1105.12 -0.638468 -1.72248 0
M  V30 12524 C 1105.18 -3.59459 0.0545385 0
M  V30 12525 C 1104.85 -4.37236 1.32943 0
M  V30 12526 C 1105.84 -4.68104 2.26219 0
M  V30 12527 C 1103.53 -4.76932 1.57612 0
M  V30 12528 C 1105.52 -5.37599 3.42442 0
M  V30 12529 C 1103.21 -5.46167 2.74125 0
M  V30 12530 C 1104.21 -5.76425 3.66364 0
M  V30 12531 O 1103.9 -6.44242 4.8084 0
M  V30 12532 H 1103.63 -0.66918 0.0957843 0
M  V30 12533 H 1106.18 -1.83759 0.917701 0
M  V30 12534 H 1104.41 -3.79971 -0.718271 0
M  V30 12535 H 1106.1 -4.04152 -0.376251 0
M  V30 12536 H 1106.87 -4.37939 2.08409 0
M  V30 12537 H 1102.75 -4.52776 0.866887 0
M  V30 12538 H 1106.29 -5.61133 4.14458 0
M  V30 12539 H 1102.19 -5.75749 2.91861 0
M  V30 12540 H 1102.96 -6.62732 4.80342 0
M  V30 12541 N 1105.62 -0.414636 -1.52048 0
M  V30 12542 C 1106.55 0.399119 -2.30064 0
M  V30 12543 C 1107.53 1.04126 -1.34506 0
M  V30 12544 O 1108.71 1.04923 -1.63416 0
M  V30 12545 C 1105.84 1.51305 -3.12608 0
M  V30 12546 C 1104.8 0.995621 -4.16259 0
M  V30 12547 C 1104.12 2.20357 -4.87183 0
M  V30 12548 C 1105.42 0.0458178 -5.2228 0
M  V30 12549 H 1107.12 -0.251879 -2.98339 0
M  V30 12550 H 1104.66 -0.122579 -1.43477 0
M  V30 12551 H 1106.62 2.08936 -3.65956 0
M  V30 12552 H 1105.34 2.19201 -2.42113 0
M  V30 12553 H 1104 0.441676 -3.6393 0
M  V30 12554 H 1103.65 2.8682 -4.13211 0
M  V30 12555 H 1103.35 1.86385 -5.57256 0
M  V30 12556 H 1104.87 2.78584 -5.43345 0
M  V30 12557 H 1106.29 0.531102 -5.70835 0
M  V30 12558 H 1104.68 -0.20536 -5.99749 0
M  V30 12559 H 1105.75 -0.897807 -4.76516 0
M  V30 12560 N 1107.1 1.56929 -0.145233 0
M  V30 12561 C 1108.33 2.00141 0.51257 0
M  V30 12562 C 1108.73 1.0243 1.59075 0
M  V30 12563 O 1108.08 0.0130063 1.83695 0
M  V30 12564 C 1108.14 3.39785 1.17417 0
M  V30 12565 C 1107.8 4.56365 0.240801 0
M  V30 12566 C 1108.8 5.17183 -0.530847 0
M  V30 12567 C 1106.49 5.02093 0.144221 0
M  V30 12568 C 1108.48 6.22136 -1.38654 0
M  V30 12569 C 1106.17 6.06902 -0.71508 0
M  V30 12570 C 1107.16 6.66793 -1.47907 0
M  V30 12571 O 1106.85 7.69573 -2.32405 0
M  V30 12572 H 1106.58 0.661747 0.138085 0
M  V30 12573 H 1109.14 2.04037 -0.236269 0
M  V30 12574 H 1107.37 3.32722 1.97061 0
M  V30 12575 H 1109.06 3.67115 1.73152 0
M  V30 12576 H 1109.82 4.82754 -0.466256 0
M  V30 12577 H 1105.7 4.55206 0.728613 0
M  V30 12578 H 1109.25 6.68812 -1.98333 0
M  V30 12579 H 1105.14 6.40758 -0.78097 0
M  V30 12580 H 1105.91 7.86786 -2.25634 0
M  V30 12581 N 1108.58 -0.128553 1.57075 0
M  V30 12582 C 1109.82 -0.839252 1.8462 0
M  V30 12583 C 1110.15 -1.79974 0.729582 0
M  V30 12584 O 1109.43 -1.92681 -0.265369 0
M  V30 12585 C 1109.71 -1.59756 3.22723 0
M  V30 12586 C 1109.57 -0.657313 4.44971 0
M  V30 12587 C 1110.88 -2.55592 3.58275 0
M  V30 12588 H 1108 -0.303652 0.671539 0
M  V30 12589 H 1110.65 -0.103802 1.89716 0
M  V30 12590 H 1108.8 -2.22451 3.18509 0
M  V30 12591 H 1110.47 -0.0399471 4.61283 0
M  V30 12592 H 1108.71 0.0318416 4.33788 0
M  V30 12593 H 1109.38 -1.22433 5.38251 0
M  V30 12594 H 1111.86 -2.03007 3.63218 0
M  V30 12595 H 1110.73 -3.05687 4.55902 0
M  V30 12596 H 1110.99 -3.37813 2.85193 0
M  V30 12597 N 1110.05 -1.5248 -0.398459 0
M  V30 12598 C 1111.3 -1.67309 -1.1461 0
M  V30 12599 C 1111.63 -0.407095 -1.89885 0
M  V30 12600 O 1110.91 0.594834 -1.85181 0
M  V30 12601 C 1111.19 -2.90204 -2.13198 0
M  V30 12602 C 1111.04 -4.26881 -1.4175 0
M  V30 12603 C 1112.36 -3.08634 -3.13741 0
M  V30 12604 H 1109.48 -0.608853 -0.415292 0
M  V30 12605 H 1112.12 -1.85057 -0.430573 0
M  V30 12606 H 1110.27 -2.75204 -2.74218 0
M  V30 12607 H 1111.95 -4.53631 -0.837676 0
M  V30 12608 H 1110.19 -4.27793 -0.719387 0
M  V30 12609 H 1110.86 -5.08939 -2.1374 0
M  V30 12610 H 1113.34 -3.22603 -2.62805 0
M  V30 12611 H 1112.21 -3.96117 -3.79977 0
M  V30 12612 H 1112.47 -2.22425 -3.82073 0
M  V30 12613 N 1111.53 0.65634 -1.43283 0
M  V30 12614 C 1112.78 1.41837 -1.44949 0
M  V30 12615 C 1113.11 1.94065 -0.0723212 0
M  V30 12616 O 1112.39 1.72092 0.906346 0
M  V30 12617 C 1112.67 2.60206 -2.48927 0
M  V30 12618 C 1112.52 2.1349 -3.95907 0
M  V30 12619 C 1113.84 3.62421 -2.49678 0
M  V30 12620 H 1110.96 0.514398 -0.527792 0
M  V30 12621 H 1113.6 0.74435 -1.74813 0
M  V30 12622 H 1111.75 3.17708 -2.23592 0
M  V30 12623 H 1113.42 1.61012 -4.32288 0
M  V30 12624 H 1111.67 1.4489 -4.08888 0
M  V30 12625 H 1112.34 2.98596 -4.64268 0
M  V30 12626 H 1114.81 3.14671 -2.72252 0
M  V30 12627 H 1113.69 4.42798 -3.24378 0
M  V30 12628 H 1113.95 4.14802 -1.52944 0
M  V30 12629 N 1113.01 1.29761 0.894412 0
M  V30 12630 C 1114.29 1.08711 1.62608 0
M  V30 12631 C 1114.67 -0.366907 2.07887 0
M  V30 12632 O 1114.01 -1.35669 1.83865 0
M  V30 12633 C 1114.22 2.07947 2.80284 0
M  V30 12634 C 1115.57 2.39153 3.50843 0
M  V30 12635 O 1116.6 2.06183 2.9046 0
M  V30 12636 O 1115.46 2.95509 4.59713 0
M  V30 12637 H 1112.55 0.416866 0.714249 0
M  V30 12638 H 1115.1 1.41153 0.942015 0
M  V30 12639 H 1113.87 3.05859 2.44061 0
M  V30 12640 H 1113.49 1.76266 3.56393 0
M  V30 12641 N 1114.49 -1.10549 1.12324 0
M  V30 12642 C 1115.4 -2.20428 0.803032 0
M  V30 12643 C 1116.41 -1.72756 -0.207674 0
M  V30 12644 O 1117.59 -2.01357 -0.0415623 0
M  V30 12645 C 1114.65 -3.45716 0.261032 0
M  V30 12646 C 1113.72 -4.08129 1.33152 0
M  V30 12647 C 1112.95 -5.27436 0.815288 0
M  V30 12648 O 1113.17 -5.69317 -0.351361 0
M  V30 12649 O 1112.11 -5.80674 1.58434 0
M  V30 12650 H 1115.93 -2.50249 1.72073 0
M  V30 12651 H 1113.52 -1.19263 0.899815 0
M  V30 12652 H 1115.4 -4.21384 -0.0364007 0
M  V30 12653 H 1114.07 -3.17525 -0.629249 0
M  V30 12654 H 1112.98 -3.3415 1.6821 0
M  V30 12655 H 1114.31 -4.4052 2.19552 0
M  V30 12656 N 1115.97 -0.914965 -1.28321 0
M  V30 12657 C 1117.19 -0.564654 -1.99046 0
M  V30 12658 C 1117.61 0.854345 -1.68364 0
M  V30 12659 O 1116.97 1.56605 -0.937068 0
M  V30 12660 C 1117.02 -0.765663 -3.53299 0
M  V30 12661 O 1116.74 -2.12883 -3.829 0
M  V30 12662 C 1118.24 -0.422347 -4.41283 0
M  V30 12663 H 1115.46 -0.215158 -0.635569 0
M  V30 12664 H 1118 -1.2285 -1.63487 0
M  V30 12665 H 1116.16 -0.148795 -3.87114 0
M  V30 12666 H 1116.57 -2.1694 -4.77533 0
M  V30 12667 H 1118.05 -0.613757 -5.48577 0
M  V30 12668 H 1118.52 0.641484 -4.3449 0
M  V30 12669 H 1119.13 -1.01681 -4.12966 0
M  V30 12670 N 1117.44 1.42219 -0.679077 0
M  V30 12671 C 1118.69 2.01479 -0.203119 0
M  V30 12672 C 1119.02 1.5371 1.19178 0
M  V30 12673 O 1118.27 0.731832 1.81501 0
M  V30 12674 C 1118.57 3.56889 -0.191027 0
M  V30 12675 C 1118.24 4.24106 -1.53118 0
M  V30 12676 C 1116.9 4.42182 -1.89812 0
M  V30 12677 C 1119.25 4.61946 -2.41361 0
M  V30 12678 C 1116.58 4.95371 -3.14364 0
M  V30 12679 C 1118.93 5.16518 -3.65229 0
M  V30 12680 C 1117.6 5.32807 -4.02086 0
M  V30 12681 H 1116.87 0.737263 -0.0743264 0
M  V30 12682 H 1119.51 1.70346 -0.874908 0
M  V30 12683 H 1117.82 3.87715 0.564282 0
M  V30 12684 H 1119.52 4.00528 0.194511 0
M  V30 12685 H 1116.11 4.10399 -1.23575 0
M  V30 12686 H 1120.29 4.4765 -2.14297 0
M  V30 12687 H 1115.55 5.06167 -3.42935 0
M  V30 12688 H 1119.72 5.44782 -4.33804 0
M  V30 12689 H 1117.35 5.73785 -4.98673 0
M  V30 12690 N 1118.92 0.422693 1.51826 0
M  V30 12691 C 1119.87 -0.396088 2.27376 0
M  V30 12692 C 1120.84 -1.02946 1.30351 0
M  V30 12693 O 1122.02 -1.05116 1.59233 0
M  V30 12694 C 1119.16 -1.49942 3.10824 0
M  V30 12695 C 1118.28 -0.885623 4.22825 0
M  V30 12696 C 1117.41 -1.96278 4.93608 0
M  V30 12697 C 1116.45 -1.32664 5.97551 0
M  V30 12698 N 1115.59 -2.34452 6.61798 0
M  V30 12699 H 1120.43 0.254571 2.96911 0
M  V30 12700 H 1117.96 0.137383 1.46457 0
M  V30 12701 H 1119.92 -2.15023 3.57521 0
M  V30 12702 H 1118.55 -2.11991 2.43433 0
M  V30 12703 H 1117.6 -0.123491 3.80199 0
M  V30 12704 H 1118.92 -0.381057 4.97342 0
M  V30 12705 H 1118.07 -2.69055 5.43778 0
M  V30 12706 H 1116.81 -2.50103 4.18688 0
M  V30 12707 H 1115.81 -0.584262 5.46687 0
M  V30 12708 H 1117.04 -0.7959 6.7442 0
M  V30 12709 H 1114.99 -2.87385 5.897 0
M  V30 12710 H 1114.9 -1.88845 7.32034 0
M  V30 12711 H 1116.17 -3.06757 7.16603 0
M  V30 12712 N 1120.4 -1.5685 0.153553 0
M  V30 12713 C 1121.62 -2.01135 -0.505904 0
M  V30 12714 C 1122.05 -1.03301 -1.57196 0
M  V30 12715 O 1121.41 -0.00976022 -1.81297 0
M  V30 12716 C 1121.46 -3.44129 -1.0774 0
M  V30 12717 O 1120.56 -3.49318 -2.19205 0
M  V30 12718 H 1119.9 -0.652496 -0.123062 0
M  V30 12719 H 1122.43 -2.03039 0.252216 0
M  V30 12720 H 1122.44 -3.83066 -1.40444 0
M  V30 12721 H 1121.12 -4.1484 -0.296754 0
M  V30 12722 H 1119.69 -3.22227 -1.8768 0
M  V30 12723 N 1121.88 0.120221 -1.57141 0
M  V30 12724 C 1123.29 0.677497 -1.73974 0
M  V30 12725 C 1123.64 1.80371 -0.772055 0
M  V30 12726 O 1122.76 2.16329 0.0553062 0
M  V30 12727 C 1123.36 1.23575 -3.1546 0
M  V30 12728 C 1121.92 1.73933 -3.33803 0
M  V30 12729 C 1121.07 0.638542 -2.69848 0
M  V30 12730 H 1124.02 -0.105685 -1.58348 0
M  V30 12731 H 1124.04 2.10542 -3.16942 0
M  V30 12732 H 1123.55 0.415851 -3.85866 0
M  V30 12733 H 1121.65 2.58404 -2.68437 0
M  V30 12734 H 1121.76 1.84961 -4.41957 0
M  V30 12735 H 1120.13 1.07185 -2.31049 0
M  V30 12736 H 1120.91 -0.170356 -3.42877 0
M  V30 12737 N 1123.36 1.52689 0.390367 0
M  V30 12738 C 1124.58 1.71839 1.16129 0
M  V30 12739 C 1125.01 0.435226 1.82996 0
M  V30 12740 O 1124.36 -0.60889 1.70769 0
M  V30 12741 C 1124.41 2.86784 2.18603 0
M  V30 12742 O 1123.52 2.53662 3.25161 0
M  V30 12743 H 1122.86 0.571455 0.338135 0
M  V30 12744 H 1125.39 1.99475 0.45508 0
M  V30 12745 H 1125.4 3.12239 2.62622 0
M  V30 12746 H 1124.07 3.79872 1.69322 0
M  V30 12747 H 1122.65 2.38942 2.86289 0
M  V30 12748 N 1124.83 -0.648732 1.43629 0
M  V30 12749 C 1126.08 -1.40446 1.44768 0
M  V30 12750 C 1126.4 -1.95447 0.0773445 0
M  V30 12751 O 1127.6 -2.71479 -0.0337942 0
M  V30 12752 C 1126.06 -2.54194 2.54781 0
M  V30 12753 C 1125.67 -2.05781 3.97942 0
M  V30 12754 C 1127.41 -3.31529 2.65121 0
M  V30 12755 C 1125.32 -3.16767 4.99412 0
M  V30 12756 H 1124.25 -0.527717 0.538545 0
M  V30 12757 H 1126.9 -0.699756 1.69634 0
M  V30 12758 H 1125.28 -3.27156 2.23125 0
M  V30 12759 H 1126.45 -1.398 4.39081 0
M  V30 12760 H 1124.77 -1.41312 3.91688 0
M  V30 12761 H 1127.37 -4.14233 3.38105 0
M  V30 12762 H 1127.71 -3.79855 1.70341 0
M  V30 12763 H 1128.24 -2.65649 2.961 0
M  V30 12764 H 1124.98 -2.73404 5.9576 0
M  V30 12765 H 1124.5 -3.81445 4.62882 0
M  V30 12766 H 1126.18 -3.81827 5.22319 0
M  V30 12767 N 1126.31 -1.30234 -0.887518 0
M  V30 12768 C 1127.59 -1.09572 -1.62029 0
M  V30 12769 C 1127.97 0.355877 -2.08079 0
M  V30 12770 O 1127.32 1.34692 -1.84582 0
M  V30 12771 C 1127.53 -2.0943 -2.79177 0
M  V30 12772 C 1128.88 -2.4101 -3.4957 0
M  V30 12773 O 1129.9 -2.0772 -2.89363 0
M  V30 12774 O 1128.76 -2.97943 -4.5814 0
M  V30 12775 H 1125.85 -0.420648 -0.712028 0
M  V30 12776 H 1128.4 -1.41651 -0.934517 0
M  V30 12777 H 1127.17 -3.07149 -2.42436 0
M  V30 12778 H 1126.79 -1.78154 -3.55453 0
M  V30 12779 N 1127.79 1.09952 -1.12909 0
M  V30 12780 C 1129.02 1.8552 -0.909163 0
M  V30 12781 C 1129.43 1.81173 0.545253 0
M  V30 12782 O 1128.77 1.20223 1.38896 0
M  V30 12783 C 1128.83 3.34693 -1.31228 0
M  V30 12784 C 1128.5 3.62794 -2.77902 0
M  V30 12785 C 1129.49 3.58973 -3.76078 0
M  V30 12786 C 1127.18 3.91311 -3.1493 0
M  V30 12787 C 1129.17 3.83271 -5.09296 0
M  V30 12788 C 1126.86 4.15265 -4.48328 0
M  V30 12789 C 1127.86 4.11236 -5.4532 0
M  V30 12790 O 1127.55 4.34576 -6.76313 0
M  V30 12791 H 1127.28 0.59303 -0.324486 0
M  V30 12792 H 1129.83 1.39878 -1.5041 0
M  V30 12793 H 1128.06 3.81016 -0.660573 0
M  V30 12794 H 1129.75 3.9166 -1.06569 0
M  V30 12795 H 1130.52 3.36974 -3.48817 0
M  V30 12796 H 1126.4 3.93575 -2.40041 0
M  V30 12797 H 1129.94 3.80041 -5.84991 0
M  V30 12798 H 1125.84 4.36743 -4.75316 0
M  V30 12799 H 1126.61 4.52065 -6.82334 0
M  V30 12800 N 1129.27 0.921757 1.27833 0
M  V30 12801 C 1130.2 0.433466 2.29441 0
M  V30 12802 C 1131.18 -0.503133 1.62489 0
M  V30 12803 O 1132.36 -0.409156 1.89841 0
M  V30 12804 C 1129.49 -0.320029 3.45822 0
M  V30 12805 C 1128.45 0.528178 4.24728 0
M  V30 12806 C 1127.77 -0.354132 5.33526 0
M  V30 12807 C 1129.07 1.78959 4.90684 0
M  V30 12808 H 1130.77 1.28263 2.70535 0
M  V30 12809 H 1128.31 0.618197 1.30055 0
M  V30 12810 H 1130.27 -0.672526 4.15999 0
M  V30 12811 H 1128.99 -1.20317 3.0363 0
M  V30 12812 H 1127.65 0.863302 3.5629 0
M  V30 12813 H 1127.3 -1.23605 4.87576 0
M  V30 12814 H 1127 0.209855 5.87225 0
M  V30 12815 H 1128.52 -0.702333 6.06547 0
M  V30 12816 H 1129.94 1.50552 5.53179 0
M  V30 12817 H 1128.33 2.29661 5.54415 0
M  V30 12818 H 1129.4 2.51265 4.14721 0
M  V30 12819 N 1130.75 -1.41857 0.686609 0
M  V30 12820 C 1131.66 -2.34595 0.0159005 0
M  V30 12821 C 1132.67 -1.55741 -0.775933 0
M  V30 12822 O 1133.85 -1.8826 -0.71555 0
M  V30 12823 C 1130.91 -3.34395 -0.915473 0
M  V30 12824 C 1129.97 -4.29141 -0.116851 0
M  V30 12825 C 1129.21 -5.24174 -1.00386 0
M  V30 12826 O 1129.43 -5.24431 -2.2434 0
M  V30 12827 O 1128.36 -6.00152 -0.458337 0
M  V30 12828 H 1132.19 -2.9351 0.780101 0
M  V30 12829 H 1129.78 -1.42559 0.446896 0
M  V30 12830 H 1131.66 -3.95675 -1.44981 0
M  V30 12831 H 1130.33 -2.77936 -1.65932 0
M  V30 12832 H 1129.24 -3.71238 0.461871 0
M  V30 12833 H 1130.57 -4.88673 0.588138 0
M  V30 12834 N 1132.22 -0.430739 -1.51599 0
M  V30 12835 C 1133.13 0.390347 -2.3133 0
M  V30 12836 C 1134.15 1.03376 -1.39962 0
M  V30 12837 O 1135.33 1.03057 -1.73035 0
M  V30 12838 C 1132.39 1.48039 -3.13505 0
M  V30 12839 C 1131.45 0.857792 -4.20643 0
M  V30 12840 C 1130.69 1.89589 -4.9889 0
M  V30 12841 O 1130.91 3.11717 -4.77691 0
M  V30 12842 O 1129.84 1.49009 -5.83164 0
M  V30 12843 H 1133.67 -0.260358 -3.02582 0
M  V30 12844 H 1131.25 -0.193428 -1.48143 0
M  V30 12845 H 1133.14 2.11272 -3.64612 0
M  V30 12846 H 1131.81 2.1153 -2.45024 0
M  V30 12847 H 1130.72 0.187592 -3.73629 0
M  V30 12848 H 1132.05 0.266474 -4.91478 0
M  V30 12849 N 1133.7 1.56767 -0.161869 0
M  V30 12850 C 1134.67 2.16299 0.758104 0
M  V30 12851 C 1135.67 1.10859 1.16478 0
M  V30 12852 O 1136.86 1.36422 1.08327 0
M  V30 12853 C 1133.99 2.73819 2.03067 0
M  V30 12854 H 1135.18 2.98938 0.239992 0
M  V30 12855 H 1132.73 1.56054 0.0876532 0
M  V30 12856 H 1133.47 1.94887 2.59209 0
M  V30 12857 H 1133.25 3.50974 1.74813 0
M  V30 12858 H 1134.74 3.19638 2.68741 0
M  V30 12859 N 1135.18 -0.111886 1.57202 0
M  V30 12860 C 1136.11 -1.13796 2.03894 0
M  V30 12861 C 1137.09 -1.4277 0.924696 0
M  V30 12862 O 1138.28 -1.53089 1.19488 0
M  V30 12863 C 1135.41 -2.46229 2.44925 0
M  V30 12864 C 1134.36 -2.31702 3.59859 0
M  V30 12865 C 1133.69 -3.69161 3.86813 0
M  V30 12866 C 1134.99 -1.77158 4.91337 0
M  V30 12867 H 1136.68 -0.749581 2.89865 0
M  V30 12868 H 1134.23 -0.359126 1.3945 0
M  V30 12869 H 1136.18 -3.18267 2.76195 0
M  V30 12870 H 1134.9 -2.86971 1.55933 0
M  V30 12871 H 1133.56 -1.62112 3.28809 0
M  V30 12872 H 1133.21 -4.07401 2.95015 0
M  V30 12873 H 1132.91 -3.60292 4.6418 0
M  V30 12874 H 1134.43 -4.42693 4.20542 0
M  V30 12875 H 1135.85 -2.3902 5.21097 0
M  V30 12876 H 1134.25 -1.79091 5.72753 0
M  V30 12877 H 1135.32 -0.729675 4.79379 0
M  V30 12878 N 1136.66 -1.52894 -0.382264 0
M  V30 12879 C 1137.88 -1.72453 -1.15216 0
M  V30 12880 C 1138.31 -0.444925 -1.82762 0
M  V30 12881 O 1137.67 0.599825 -1.7109 0
M  V30 12882 C 1137.71 -2.87939 -2.17079 0
M  V30 12883 O 1136.82 -2.55383 -3.23811 0
M  V30 12884 H 1136.16 -0.57324 -0.335099 0
M  V30 12885 H 1138.69 -1.99713 -0.444495 0
M  V30 12886 H 1138.7 -3.13628 -2.60963 0
M  V30 12887 H 1137.37 -3.80765 -1.67305 0
M  V30 12888 H 1135.95 -2.40457 -2.85018 0
M  V30 12889 N 1138.14 0.641106 -1.43971 0
M  V30 12890 C 1139.07 1.76489 -1.52885 0
M  V30 12891 C 1140.05 1.65742 -0.38258 0
M  V30 12892 O 1141.23 1.84653 -0.601397 0
M  V30 12893 C 1138.36 3.14977 -1.4631 0
M  V30 12894 C 1137.32 3.40502 -2.59311 0
M  V30 12895 C 1136.64 4.78916 -2.37789 0
M  V30 12896 C 1137.94 3.34048 -4.01509 0
M  V30 12897 H 1139.64 1.69286 -2.46946 0
M  V30 12898 H 1137.18 0.813015 -1.18853 0
M  V30 12899 H 1139.14 3.9336 -1.51149 0
M  V30 12900 H 1137.86 3.2294 -0.487599 0
M  V30 12901 H 1136.52 2.64495 -2.53846 0
M  V30 12902 H 1136.17 4.8357 -1.38454 0
M  V30 12903 H 1135.87 4.96954 -3.13545 0
M  V30 12904 H 1137.39 5.59541 -2.4443 0
M  V30 12905 H 1138.81 4.0235 -4.08396 0
M  V30 12906 H 1137.2 3.63622 -4.77388 0
M  V30 12907 H 1138.27 2.32022 -4.25786 0
M  V30 12908 N 1139.62 1.30703 0.880598 0
M  V30 12909 C 1140.55 1.20033 2.00286 0
M  V30 12910 C 1141.53 0.0899614 1.69862 0
M  V30 12911 O 1142.71 0.272747 1.92275 0
M  V30 12912 C 1139.84 0.895902 3.35546 0
M  V30 12913 C 1138.8 1.96468 3.80242 0
M  V30 12914 C 1138.12 1.51316 5.12843 0
M  V30 12915 C 1139.42 3.37637 3.98496 0
M  V30 12916 H 1141.12 2.13922 2.0947 0
M  V30 12917 H 1138.66 1.02989 1.00644 0
M  V30 12918 H 1140.61 0.807899 4.13583 0
M  V30 12919 H 1139.34 -0.0786636 3.26505 0
M  V30 12920 H 1138 2.0424 3.04437 0
M  V30 12921 H 1137.65 0.52674 5.00234 0
M  V30 12922 H 1137.35 2.22807 5.43719 0
M  V30 12923 H 1138.87 1.43903 5.93401 0
M  V30 12924 H 1140.28 3.326 4.66959 0
M  V30 12925 H 1138.68 4.07253 4.40755 0
M  V30 12926 H 1139.75 3.79205 3.02211 0
M  V30 12927 N 1141.09 -1.09351 1.1349 0
M  V30 12928 C 1142.32 -1.85304 0.920324 0
M  V30 12929 C 1142.74 -1.81182 -0.530883 0
M  V30 12930 O 1142.09 -1.20853 -1.36751 0
M  V30 12931 C 1142.14 -3.33249 1.40098 0
M  V30 12932 O 1141.87 -3.37333 2.79531 0
M  V30 12933 C 1143.37 -4.2604 1.22495 0
M  V30 12934 H 1140.59 -0.585294 0.328134 0
M  V30 12935 H 1143.13 -1.38168 1.50765 0
M  V30 12936 H 1141.29 -3.7781 0.85664 0
M  V30 12937 H 1141.7 -4.29614 3.00885 0
M  V30 12938 H 1143.17 -5.27999 1.61 0
M  V30 12939 H 1143.65 -4.38883 0.166717 0
M  V30 12940 H 1144.26 -3.87295 1.75735 0
M  V30 12941 N 1142.57 -0.928524 -1.27343 0
M  V30 12942 C 1143.52 -0.418768 -2.28799 0
M  V30 12943 C 1144.51 0.497334 -1.61935 0
M  V30 12944 O 1145.72 0.376945 -1.76009 0
M  V30 12945 H 1142.09 -0.116855 -0.742865 0
M  V30 12946 H 1144.07 -1.28725 -2.69207 0
M  V30 12947 C 1142.81 0.312422 -3.46294 0
M  V30 12948 H 1142.14 -0.383317 -3.97958 0
M  V30 12949 H 1143.58 0.633514 -4.19241 0
M  V30 12950 C 1142.04 1.5257 -3.00373 0
M  V30 12951 O 1142.57 2.62443 -3.04116 0
M  V30 12952 N 1140.77 1.37782 -2.5586 0
M  V30 12953 H 1140.32 0.483908 -2.53014 0
M  V30 12954 H 1140.28 2.19085 -2.25498 0
M  V30 12955 N 1144.05 1.41491 -0.694123 0
M  V30 12956 C 1145.3 2.00479 -0.221585 0
M  V30 12957 C 1145.61 1.55605 1.18518 0
M  V30 12958 O 1146.82 2.07143 1.7551 0
M  V30 12959 C 1145.27 3.5824 -0.345264 0
M  V30 12960 C 1144.88 4.12096 -1.7573 0
M  V30 12961 C 1146.63 4.24446 0.0675731 0
M  V30 12962 C 1144.53 5.62286 -1.83271 0
M  V30 12963 H 1143.46 0.749841 -0.0790854 0
M  V30 12964 H 1146.11 1.61987 -0.86211 0
M  V30 12965 H 1144.5 3.94328 0.363487 0
M  V30 12966 H 1145.67 3.8743 -2.49469 0
M  V30 12967 H 1143.98 3.58411 -2.11969 0
M  V30 12968 H 1146.58 5.34691 0.0316485 0
M  V30 12969 H 1146.92 4.01338 1.10606 0
M  V30 12970 H 1147.46 3.93388 -0.59085 0
M  V30 12971 H 1144.2 5.9022 -2.85168 0
M  V30 12972 H 1143.72 5.88883 -1.13914 0
M  V30 12973 H 1145.4 6.27033 -1.59494 0
M  V30 12974 N 1145.53 0.438773 1.51369 0
M  V30 12975 C 1146.76 -0.125847 2.06517 0
M  V30 12976 C 1147.17 -1.36336 1.30606 0
M  V30 12977 O 1146.53 -1.78792 0.36603 0
M  V30 12978 C 1146.58 -0.446619 3.5873 0
M  V30 12979 O 1146.3 0.741781 4.31775 0
M  V30 12980 C 1147.8 -1.06175 4.30397 0
M  V30 12981 H 1145.02 -0.00728868 0.67096 0
M  V30 12982 H 1147.56 0.618267 1.9493 0
M  V30 12983 H 1145.72 -1.14064 3.70227 0
M  V30 12984 H 1146.13 0.466907 5.22418 0
M  V30 12985 H 1147.61 -1.23619 5.3798 0
M  V30 12986 H 1148.08 -2.04317 3.88782 0
M  V30 12987 H 1148.69 -0.40708 4.23347 0
M  V30 12988 N 1147.01 -1.56678 0.170181 0
M  V30 12989 C 1148.24 -2.00931 -0.480664 0
M  V30 12990 C 1148.64 -1.04947 -1.57425 0
M  V30 12991 O 1147.99 -0.042229 -1.83651 0
M  V30 12992 C 1148.05 -3.4161 -1.11996 0
M  V30 12993 C 1147.71 -4.5669 -0.168167 0
M  V30 12994 C 1148.71 -5.16273 0.613059 0
M  V30 12995 C 1146.39 -5.02259 -0.0643243 0
M  V30 12996 C 1148.39 -6.19852 1.48534 0
M  V30 12997 C 1146.08 -6.05687 0.811542 0
M  V30 12998 C 1147.07 -6.64355 1.58496 0
M  V30 12999 O 1146.76 -7.65778 2.44619 0
M  V30 13000 H 1146.49 -0.66386 -0.12754 0
M  V30 13001 H 1149.05 -2.03635 0.2687 0
M  V30 13002 H 1147.28 -3.35815 -1.91743 0
M  V30 13003 H 1148.97 -3.69823 -1.67289 0
M  V30 13004 H 1149.73 -4.81951 0.542999 0
M  V30 13005 H 1145.61 -4.56307 -0.656102 0
M  V30 13006 H 1149.16 -6.65572 2.08948 0
M  V30 13007 H 1145.05 -6.39435 0.88281 0
M  V30 13008 H 1145.82 -7.83096 2.38122 0
M  V30 13009 N 1148.48 0.103547 -1.57259 0
M  V30 13010 C 1149.71 0.821158 -1.8958 0
M  V30 13011 C 1150.12 1.73213 -0.761184 0
M  V30 13012 O 1149.46 1.81611 0.27625 0
M  V30 13013 C 1149.53 1.69428 -3.17072 0
M  V30 13014 C 1149.19 0.956014 -4.46889 0
M  V30 13015 C 1150.19 0.289694 -5.19092 0
M  V30 13016 C 1147.87 0.932602 -4.93566 0
M  V30 13017 C 1149.87 -0.390164 -6.36205 0
M  V30 13018 C 1147.55 0.248954 -6.10593 0
M  V30 13019 C 1148.55 -0.411259 -6.81761 0
M  V30 13020 O 1148.24 -1.08396 -7.96559 0
M  V30 13021 H 1147.97 0.240508 -0.631769 0
M  V30 13022 H 1150.53 0.0877817 -2.05212 0
M  V30 13023 H 1148.76 2.46968 -2.97563 0
M  V30 13024 H 1150.44 2.28769 -3.3529 0
M  V30 13025 H 1151.21 0.299297 -4.84076 0
M  V30 13026 H 1147.09 1.43592 -4.38067 0
M  V30 13027 H 1150.63 -0.906057 -6.91691 0
M  V30 13028 H 1146.53 0.237168 -6.45064 0
M  V30 13029 H 1147.3 -0.990002 -8.12491 0
M  V30 13030 N 1149.96 1.53094 0.37415 0
M  V30 13031 C 1150.89 1.81901 1.46404 0
M  V30 13032 C 1151.87 0.671949 1.56265 0
M  V30 13033 O 1153.06 0.920978 1.70973 0
M  V30 13034 C 1150.19 2.00123 2.83845 0
M  V30 13035 C 1149.14 3.15864 2.88814 0
M  V30 13036 C 1148.47 3.19364 4.28848 0
M  V30 13037 C 1149.77 4.54633 2.57112 0
M  V30 13038 H 1151.46 2.73172 1.22546 0
M  V30 13039 H 1149.01 1.31444 0.588087 0
M  V30 13040 H 1150.96 2.18859 3.6011 0
M  V30 13041 H 1149.68 1.05555 3.09072 0
M  V30 13042 H 1148.34 2.96935 2.15 0
M  V30 13043 H 1147.99 2.2245 4.51137 0
M  V30 13044 H 1147.69 3.97123 4.3309 0
M  V30 13045 H 1149.22 3.40273 5.06997 0
M  V30 13046 H 1150.63 4.73587 3.23091 0
M  V30 13047 H 1149.03 5.34569 2.72683 0
M  V30 13048 H 1150.1 4.60331 1.52392 0
M  V30 13049 N 1151.44 -0.633461 1.44309 0
M  V30 13050 C 1152.72 -1.3917 1.37444 0
M  V30 13051 C 1153.1 -2.11076 0.0319994 0
M  V30 13052 O 1152.44 -2.06164 -0.98533 0
M  V30 13053 C 1152.65 -2.36005 2.57104 0
M  V30 13054 C 1154 -2.99407 3.01065 0
M  V30 13055 O 1155.03 -2.46331 2.57292 0
M  V30 13056 O 1153.89 -3.95686 3.76954 0
M  V30 13057 H 1150.98 -0.622746 0.544166 0
M  V30 13058 H 1153.53 -0.658712 1.56394 0
M  V30 13059 H 1152.3 -1.81955 3.46422 0
M  V30 13060 H 1151.92 -3.16725 2.40356 0
M  V30 13061 N 1152.92 -1.31168 -0.873655 0
M  V30 13062 C 1154.17 -1.20003 -1.62118 0
M  V30 13063 C 1154.48 0.241505 -1.94103 0
M  V30 13064 O 1155.69 0.474801 -2.67316 0
M  V30 13065 C 1154.14 -2.10055 -2.92241 0
M  V30 13066 C 1153.75 -3.59183 -2.67752 0
M  V30 13067 C 1155.49 -2.07681 -3.70228 0
M  V30 13068 C 1153.4 -4.41255 -3.93761 0
M  V30 13069 H 1152.33 -0.445564 -0.608267 0
M  V30 13070 H 1154.98 -1.55997 -0.966287 0
M  V30 13071 H 1153.36 -1.66956 -3.59085 0
M  V30 13072 H 1154.54 -4.10504 -2.09339 0
M  V30 13073 H 1152.85 -3.63496 -2.03125 0
M  V30 13074 H 1155.45 -2.66246 -4.637 0
M  V30 13075 H 1155.79 -1.06304 -4.02499 0
M  V30 13076 H 1156.33 -2.48961 -3.10263 0
M  V30 13077 H 1153.07 -5.43372 -3.66643 0
M  V30 13078 H 1152.59 -3.94694 -4.51638 0
M  V30 13079 H 1154.26 -4.53278 -4.6168 0
M  V30 13080 N 1154.4 1.08748 -1.14068 0
M  V30 13081 C 1155.67 1.7769 -0.81766 0
M  V30 13082 C 1156.05 1.99522 0.689501 0
M  V30 13083 O 1155.4 1.60222 1.62914 0
M  V30 13084 C 1155.61 3.09517 -1.61245 0
M  V30 13085 C 1156.96 3.84108 -1.80958 0
M  V30 13086 O 1157.98 3.19289 -1.57902 0
M  V30 13087 O 1156.84 5.00491 -2.19479 0
M  V30 13088 H 1153.94 0.770953 -0.299265 0
M  V30 13089 H 1156.48 1.15242 -1.24569 0
M  V30 13090 H 1155.25 2.89155 -2.63638 0
M  V30 13091 H 1154.88 3.79692 -1.17982 0
M  V30 13092 N 1155.87 0.935264 1.26849 0
M  V30 13093 C 1156.78 0.446122 2.30319 0
M  V30 13094 C 1157.8 -0.476965 1.67335 0
M  V30 13095 O 1158.98 -0.357934 1.98194 0
M  V30 13096 C 1156.04 -0.286297 3.45516 0
M  V30 13097 C 1155.1 0.672626 4.23998 0
M  V30 13098 C 1154.34 -0.0249345 5.33694 0
M  V30 13099 O 1154.56 -1.24296 5.56693 0
M  V30 13100 O 1153.49 0.650752 5.98372 0
M  V30 13101 H 1157.32 1.30546 2.74211 0
M  V30 13102 H 1154.9 0.70091 1.31938 0
M  V30 13103 H 1156.79 -0.699109 4.1556 0
M  V30 13104 H 1155.46 -1.12112 3.03665 0
M  V30 13105 H 1154.37 1.13527 3.56458 0
M  V30 13106 H 1155.7 1.47489 4.69583 0
M  V30 13107 N 1157.35 -1.41121 0.701616 0
M  V30 13108 C 1158.28 -2.292 0.000880842 0
M  V30 13109 C 1159.3 -1.45102 -0.738192 0
M  V30 13110 O 1160.49 -1.68541 -0.587891 0
M  V30 13111 C 1157.59 -3.23094 -1.02292 0
M  V30 13112 C 1156.76 -4.35979 -0.352231 0
M  V30 13113 C 1155.82 -5.10408 -1.27947 0
M  V30 13114 O 1154.84 -5.63974 -0.769561 0
M  V30 13115 N 1156.05 -5.18442 -2.61147 0
M  V30 13116 H 1158.81 -2.8998 0.757094 0
M  V30 13117 H 1156.37 -1.52339 0.548126 0
M  V30 13118 H 1158.36 -3.69755 -1.64509 0
M  V30 13119 H 1156.93 -2.6358 -1.68061 0
M  V30 13120 H 1156.15 -3.91624 0.44992 0
M  V30 13121 H 1157.44 -5.08673 0.113882 0
M  V30 13122 H 1156.84 -4.76381 -3.05087 0
M  V30 13123 H 1155.4 -5.68659 -3.18544 0
M  V30 13124 N 1158.83 -0.446794 -1.51134 0
M  V30 13125 C 1160.08 0.116666 -2.02464 0
M  V30 13126 C 1160.41 1.41532 -1.32975 0
M  V30 13127 O 1159.68 1.89278 -0.447651 0
M  V30 13128 C 1159.97 0.325659 -3.58624 0
M  V30 13129 C 1159.82 -0.992307 -4.38718 0
M  V30 13130 C 1161.14 1.09121 -4.26357 0
M  V30 13131 H 1158.26 0.0409262 -0.735863 0
M  V30 13132 H 1160.9 -0.587641 -1.80684 0
M  V30 13133 H 1159.05 0.925585 -3.77313 0
M  V30 13134 H 1160.72 -1.62694 -4.31658 0
M  V30 13135 H 1158.97 -1.5947 -4.03425 0
M  V30 13136 H 1159.64 -0.800005 -5.46172 0
M  V30 13137 H 1162.11 0.582944 -4.11996 0
M  V30 13138 H 1160.99 1.20621 -5.35483 0
M  V30 13139 H 1161.25 2.12171 -3.87861 0
M  V30 13140 N 1160.31 1.56586 -0.178487 0
M  V30 13141 C 1161.54 2.01183 0.470002 0
M  V30 13142 C 1161.95 1.05781 1.56866 0
M  V30 13143 O 1161.29 0.0519678 1.83626 0
M  V30 13144 C 1161.35 3.42199 1.10183 0
M  V30 13145 C 1161.02 4.56773 0.143945 0
M  V30 13146 C 1162.01 5.1594 -0.64043 0
M  V30 13147 C 1159.7 5.02286 0.0376874 0
M  V30 13148 C 1161.69 6.19055 -1.51819 0
M  V30 13149 C 1159.38 6.05248 -0.843652 0
M  V30 13150 C 1160.38 6.63505 -1.62017 0
M  V30 13151 O 1160.06 7.6447 -2.48677 0
M  V30 13152 H 1159.8 0.664527 0.124018 0
M  V30 13153 H 1162.35 2.0349 -0.279495 0
M  V30 13154 H 1160.58 3.36827 1.89959 0
M  V30 13155 H 1162.27 3.70705 1.65326 0
M  V30 13156 H 1163.04 4.81656 -0.56855 0
M  V30 13157 H 1158.91 4.56649 0.631893 0
M  V30 13158 H 1162.46 6.64455 -2.12475 0
M  V30 13159 H 1158.36 6.38958 -0.916708 0
M  V30 13160 H 1159.12 7.81823 -2.42272 0
M  V30 13161 N 1161.79 -0.095206 1.57312 0
M  V30 13162 C 1162.73 -1.11551 2.02052 0
M  V30 13163 C 1163.7 -1.39808 0.896818 0
M  V30 13164 O 1164.89 -1.51273 1.1628 0
M  V30 13165 C 1162.03 -2.43056 2.44985 0
M  V30 13166 C 1161.14 -2.21531 3.70875 0
M  V30 13167 C 1160.28 -3.46434 4.02687 0
M  V30 13168 C 1159.32 -3.2017 5.21687 0
M  V30 13169 N 1158.45 -4.37339 5.49253 0
M  V30 13170 H 1163.29 -0.727 2.88996 0
M  V30 13171 H 1160.83 -0.347441 1.42938 0
M  V30 13172 H 1162.79 -3.19803 2.67921 0
M  V30 13173 H 1161.42 -2.79754 1.61051 0
M  V30 13174 H 1160.47 -1.35587 3.55416 0
M  V30 13175 H 1161.78 -1.98116 4.57768 0
M  V30 13176 H 1160.94 -4.31589 4.26399 0
M  V30 13177 H 1159.67 -3.72904 3.14315 0
M  V30 13178 H 1158.68 -2.33409 4.97796 0
M  V30 13179 H 1159.9 -2.95047 6.11657 0
M  V30 13180 H 1157.85 -4.63885 4.6384 0
M  V30 13181 H 1157.77 -4.17114 6.30517 0
M  V30 13182 H 1159.04 -5.23559 5.775 0
M  V30 13183 N 1163.26 -1.53291 -0.366026 0
M  V30 13184 C 1164.68 -1.43053 -0.707669 0
M  V30 13185 C 1164.88 -0.56925 -1.93292 0
M  V30 13186 O 1163.94 -0.0515214 -2.52447 0
M  V30 13187 C 1165.25 -2.86239 -0.921292 0
M  V30 13188 C 1166.8 -2.95868 -1.02133 0
M  V30 13189 C 1167.27 -4.40114 -1.26743 0
M  V30 13190 N 1168.76 -4.43541 -1.33514 0
M  V30 13191 C 1169.5 -5.52259 -1.54264 0
M  V30 13192 N 1168.99 -6.71024 -1.72335 0
M  V30 13193 N 1170.79 -5.39836 -1.5663 0
M  V30 13194 H 1162.94 -2.07795 0.43988 0
M  V30 13195 H 1165.2 -0.938376 0.134736 0
M  V30 13196 H 1164.91 -3.51578 -0.0928042 0
M  V30 13197 H 1164.78 -3.29862 -1.82951 0
M  V30 13198 H 1167.17 -2.30683 -1.84036 0
M  V30 13199 H 1167.25 -2.5564 -0.0905097 0
M  V30 13200 H 1166.89 -5.05872 -0.453409 0
M  V30 13201 H 1166.82 -4.77914 -2.21146 0
M  V30 13202 H 1169.31 -3.57949 -1.21165 0
M  V30 13203 H 1169.63 -7.49649 -1.8774 0
M  V30 13204 H 1167.97 -6.7401 -1.69514 0
M  V30 13205 H 1171.16 -4.46017 -1.4208 0
M  V30 13206 H 1171.34 -6.24629 -1.72461 0
M  V30 13207 N 1164.74 0.6258 -1.44643 0
M  V30 13208 C 1165.99 1.38525 -1.47706 0
M  V30 13209 C 1166.32 1.94179 -0.111703 0
M  V30 13210 O 1165.57 1.74432 0.887237 0
M  V30 13211 C 1165.87 2.56466 -2.48917 0
M  V30 13212 C 1165.54 2.19069 -3.94106 0
M  V30 13213 C 1164.2 2.08583 -4.33643 0
M  V30 13214 C 1166.55 1.89608 -4.85488 0
M  V30 13215 C 1163.88 1.66831 -5.6248 0
M  V30 13216 C 1166.23 1.49347 -6.14718 0
M  V30 13217 C 1164.9 1.37406 -6.53204 0
M  V30 13218 H 1164.17 0.506899 -0.540494 0
M  V30 13219 H 1166.81 0.709128 -1.77887 0
M  V30 13220 H 1165.12 3.29335 -2.12239 0
M  V30 13221 H 1166.81 3.14695 -2.48532 0
M  V30 13222 H 1163.4 2.28151 -3.62829 0
M  V30 13223 H 1167.59 1.96616 -4.55693 0
M  V30 13224 H 1162.84 1.56195 -5.91112 0
M  V30 13225 H 1167.02 1.2559 -6.84982 0
M  V30 13226 H 1164.65 1.04826 -7.52938 0
M  V30 13227 N 1166.22 1.31629 0.866686 0
M  V30 13228 C 1167.13 1.21524 2.00671 0
M  V30 13229 C 1168.15 0.131277 1.73504 0
M  V30 13230 O 1169.32 0.349699 1.98341 0
M  V30 13231 C 1166.39 0.926491 3.34091 0
M  V30 13232 C 1165.45 2.09769 3.7456 0
M  V30 13233 C 1164.68 1.82262 5.01614 0
M  V30 13234 O 1164.9 0.759329 5.65323 0
M  V30 13235 O 1163.84 2.68031 5.38928 0
M  V30 13236 H 1167.66 2.17335 2.1213 0
M  V30 13237 H 1165.25 1.11401 0.995499 0
M  V30 13238 H 1167.13 0.78144 4.14091 0
M  V30 13239 H 1165.81 -0.00155829 3.237 0
M  V30 13240 H 1164.71 2.29816 2.95187 0
M  V30 13241 H 1166.05 3.0081 3.89582 0
M  V30 13242 N 1167.7 -1.08142 1.14644 0
M  V30 13243 C 1168.65 -2.15133 0.835845 0
M  V30 13244 C 1169.62 -1.64795 -0.207785 0
M  V30 13245 O 1170.8 -1.90644 -0.07711 0
M  V30 13246 C 1167.94 -3.4359 0.322456 0
M  V30 13247 C 1167.05 -4.07761 1.42671 0
M  V30 13248 C 1166.19 -5.24022 0.870281 0
M  V30 13249 C 1165.23 -5.8014 1.95202 0
M  V30 13250 N 1164.37 -6.87743 1.41257 0
M  V30 13251 H 1169.21 -2.41042 1.75222 0
M  V30 13252 H 1166.74 -1.18288 0.874428 0
M  V30 13253 H 1168.7 -4.17199 0.00657059 0
M  V30 13254 H 1167.33 -3.17958 -0.557014 0
M  V30 13255 H 1166.38 -3.31885 1.85893 0
M  V30 13256 H 1167.69 -4.45485 2.24375 0
M  V30 13257 H 1166.85 -6.04582 0.506459 0
M  V30 13258 H 1165.59 -4.87695 0.0223118 0
M  V30 13259 H 1164.59 -4.98232 2.32476 0
M  V30 13260 H 1165.82 -6.18525 2.80363 0
M  V30 13261 H 1163.76 -6.5337 0.586826 0
M  V30 13262 H 1163.68 -7.24308 2.16596 0
M  V30 13263 H 1164.95 -7.72028 1.07674 0
M  V30 13264 N 1169.18 -0.941978 -1.26351 0
M  V30 13265 C 1170.11 -0.469913 -2.28723 0
M  V30 13266 C 1171.09 0.477218 -1.63269 0
M  V30 13267 O 1172.27 0.378902 -1.90468 0
M  V30 13268 C 1169.4 0.264971 -3.46288 0
M  V30 13269 C 1168.36 -0.595682 -4.23834 0
M  V30 13270 C 1167.68 0.269208 -5.34022 0
M  V30 13271 C 1168.98 -1.86743 -4.87775 0
M  V30 13272 H 1170.68 -1.32551 -2.6846 0
M  V30 13273 H 1168.22 -0.638809 -1.29055 0
M  V30 13274 H 1170.18 0.606259 -4.17016 0
M  V30 13275 H 1168.9 1.15471 -3.05506 0
M  V30 13276 H 1167.56 -0.919875 -3.54872 0
M  V30 13277 H 1167.21 1.15832 -4.89481 0
M  V30 13278 H 1166.91 -0.30325 -5.86817 0
M  V30 13279 H 1168.43 0.605748 -6.07588 0
M  V30 13280 H 1169.85 -1.59333 -5.50714 0
M  V30 13281 H 1168.24 -2.38452 -5.50691 0
M  V30 13282 H 1169.31 -2.57831 -4.10671 0
M  V30 13283 N 1170.66 1.40747 -0.709091 0
M  V30 13284 C 1171.89 2.05022 -0.254887 0
M  V30 13285 C 1172.29 1.5351 1.10595 0
M  V30 13286 O 1171.64 0.683912 1.70494 0
M  V30 13287 C 1171.7 3.59188 -0.149823 0
M  V30 13288 C 1171.36 4.33557 -1.44489 0
M  V30 13289 C 1172.36 4.61941 -2.3855 0
M  V30 13290 C 1170.04 4.72585 -1.70201 0
M  V30 13291 C 1172.04 5.2833 -3.56575 0
M  V30 13292 C 1169.73 5.38707 -2.88509 0
M  V30 13293 C 1170.72 5.66509 -3.81518 0
M  V30 13294 O 1170.41 6.31267 -4.97752 0
M  V30 13295 H 1170.14 0.666405 -0.113493 0
M  V30 13296 H 1172.7 1.81261 -0.966099 0
M  V30 13297 H 1170.93 3.81742 0.617276 0
M  V30 13298 H 1172.62 4.05008 0.268965 0
M  V30 13299 H 1173.38 4.32259 -2.19947 0
M  V30 13300 H 1169.26 4.50318 -0.986628 0
M  V30 13301 H 1172.81 5.49947 -4.2919 0
M  V30 13302 H 1168.7 5.67809 -3.07023 0
M  V30 13303 H 1169.47 6.49764 -4.97745 0
M  V30 13304 N 1172.13 0.454803 1.50895 0
M  V30 13305 C 1173.41 -0.166559 1.9489 0
M  V30 13306 C 1173.79 -1.58492 1.3944 0
M  V30 13307 O 1173.14 -2.20788 0.588622 0
M  V30 13308 C 1173.35 -0.126506 3.48771 0
M  V30 13309 C 1174.7 -0.32347 4.23366 0
M  V30 13310 O 1175.72 -0.203835 3.55616 0
M  V30 13311 O 1174.58 -0.563292 5.43589 0
M  V30 13312 H 1171.67 -0.120523 0.818171 0
M  V30 13313 H 1174.22 0.514037 1.61727 0
M  V30 13314 H 1172.99 0.864407 3.81633 0
M  V30 13315 H 1172.61 -0.849264 3.88424 0
M  V30 13316 N 1173.61 -1.56489 0.186789 0
M  V30 13317 C 1174.86 -1.96517 -0.45433 0
M  V30 13318 C 1175.17 -1.07618 -1.63333 0
M  V30 13319 O 1176.38 -1.37392 -2.3417 0
M  V30 13320 C 1174.84 -3.49482 -0.859685 0
M  V30 13321 C 1174.44 -4.47031 0.294572 0
M  V30 13322 C 1176.19 -3.98296 -1.46835 0
M  V30 13323 C 1174.09 -5.91254 -0.131279 0
M  V30 13324 H 1173.02 -0.733765 -0.17351 0
M  V30 13325 H 1175.68 -1.8139 0.277485 0
M  V30 13326 H 1174.06 -3.60082 -1.64793 0
M  V30 13327 H 1175.23 -4.48156 1.07205 0
M  V30 13328 H 1173.55 -4.08362 0.814197 0
M  V30 13329 H 1176.14 -5.03518 -1.79928 0
M  V30 13330 H 1176.49 -3.42123 -2.37186 0
M  V30 13331 H 1177.02 -3.90776 -0.744247 0
M  V30 13332 H 1173.76 -6.51334 0.737839 0
M  V30 13333 H 1173.28 -5.93401 -0.873786 0
M  V30 13334 H 1174.96 -6.44485 -0.569913 0
M  V30 13335 N 1175.09 0.086862 -1.5736 0
M  V30 13336 C 1176.34 0.78884 -1.86504 0
M  V30 13337 C 1176.66 1.78329 -0.77646 0
M  V30 13338 O 1175.92 1.94354 0.229122 0
M  V30 13339 C 1176.22 1.54537 -3.22263 0
M  V30 13340 C 1175.88 0.692284 -4.45554 0
M  V30 13341 C 1174.55 0.45714 -4.79024 0
M  V30 13342 C 1176.9 0.0997695 -5.21105 0
M  V30 13343 C 1174.23 -0.380247 -5.85466 0
M  V30 13344 C 1176.58 -0.724986 -6.28432 0
M  V30 13345 C 1175.24 -0.970144 -6.60412 0
M  V30 13346 H 1174.51 0.288657 -0.682465 0
M  V30 13347 H 1177.16 0.050059 -1.91435 0
M  V30 13348 H 1175.46 2.35594 -3.13053 0
M  V30 13349 H 1177.16 2.09305 -3.42042 0
M  V30 13350 H 1173.75 0.885675 -4.19349 0
M  V30 13351 H 1177.94 0.268583 -4.95573 0
M  V30 13352 H 1173.19 -0.579084 -6.08651 0
M  V30 13353 H 1177.37 -1.19093 -6.86141 0
M  V30 13354 H 1174.99 -1.6208 -7.42721 0
M  V30 13355 N 1176.57 1.53483 0.357892 0
M  V30 13356 C 1177.8 1.73704 1.11851 0
M  V30 13357 C 1178.21 0.469388 1.83285 0
M  V30 13358 O 1177.55 -0.567894 1.74702 0
M  V30 13359 C 1177.61 2.85301 2.18732 0
M  V30 13360 C 1177.27 4.25395 1.66998 0
M  V30 13361 C 1178.27 5.07472 1.12994 0
M  V30 13362 C 1175.96 4.71832 1.72279 0
M  V30 13363 C 1177.95 6.34081 0.649574 0
M  V30 13364 C 1175.64 5.98417 1.23854 0
M  V30 13365 C 1176.64 6.79374 0.702839 0
M  V30 13366 O 1176.32 8.03583 0.225763 0
M  V30 13367 H 1176.06 0.584251 0.34004 0
M  V30 13368 H 1178.61 2.01054 0.420313 0
M  V30 13369 H 1176.84 2.53442 2.92068 0
M  V30 13370 H 1178.53 2.93627 2.80247 0
M  V30 13371 H 1179.29 4.72766 1.08248 0
M  V30 13372 H 1175.17 4.08886 2.12916 0
M  V30 13373 H 1178.72 6.97218 0.230774 0
M  V30 13374 H 1174.61 6.32622 1.28296 0
M  V30 13375 H 1175.38 8.17775 0.344381 0
M  V30 13376 N 1178.05 -0.61812 1.44973 0
M  V30 13377 C 1179.29 -1.3774 1.48439 0
M  V30 13378 C 1179.62 -1.94117 0.121999 0
M  V30 13379 O 1178.88 -1.749 -0.877974 0
M  V30 13380 C 1179.17 -2.55143 2.50274 0
M  V30 13381 C 1178.84 -2.16976 3.95262 0
M  V30 13382 C 1177.5 -2.06281 4.34743 0
M  V30 13383 C 1179.85 -1.8703 4.86486 0
M  V30 13384 C 1177.18 -1.63846 5.63357 0
M  V30 13385 C 1179.53 -1.46085 6.15501 0
M  V30 13386 C 1178.2 -1.3394 6.53924 0
M  V30 13387 H 1177.47 -0.504026 0.543175 0
M  V30 13388 H 1180.12 -0.699685 1.7826 0
M  V30 13389 H 1178.42 -3.28205 2.13983 0
M  V30 13390 H 1180.12 -3.13373 2.50197 0
M  V30 13391 H 1176.71 -2.26223 3.64034 0
M  V30 13392 H 1180.89 -1.94196 4.56729 0
M  V30 13393 H 1176.15 -1.53058 5.91932 0
M  V30 13394 H 1180.32 -1.21956 6.85638 0
M  V30 13395 H 1177.95 -1.00832 7.53483 0
M  V30 13396 N 1179.52 -1.32087 -0.859693 0
M  V30 13397 C 1180.47 -1.20549 -1.98924 0
M  V30 13398 C 1181.47 -0.111422 -1.69033 0
M  V30 13399 O 1182.67 -0.27401 -1.77902 0
M  V30 13400 H 1179.05 -0.373538 -0.652667 0
M  V30 13401 H 1181.02 -2.16091 -2.05785 0
M  V30 13402 C 1179.77 -0.940226 -3.34746 0
M  V30 13403 H 1179.09 -1.77427 -3.58273 0
M  V30 13404 H 1180.53 -0.899712 -4.14344 0
M  V30 13405 C 1178.99 0.357042 -3.35003 0
M  V30 13406 O 1179.52 1.37054 -3.77596 0
M  V30 13407 N 1177.72 0.37723 -2.88141 0
M  V30 13408 H 1177.27 -0.448051 -2.53674 0
M  V30 13409 H 1177.23 1.24509 -2.88695 0
M  V30 13410 N 1181 1.07532 -1.15215 0
M  V30 13411 C 1182.23 1.83817 -0.949687 0
M  V30 13412 C 1182.64 1.82004 0.501991 0
M  V30 13413 O 1182 1.23014 1.34811 0
M  V30 13414 C 1182.05 3.30978 -1.45382 0
M  V30 13415 O 1181.77 3.32844 -2.84863 0
M  V30 13416 C 1183.27 4.24037 -1.29257 0
M  V30 13417 H 1180.49 0.58 -0.337404 0
M  V30 13418 H 1183.04 1.35752 -1.52944 0
M  V30 13419 H 1181.19 3.76399 -0.916638 0
M  V30 13420 H 1181.61 4.24773 -3.07682 0
M  V30 13421 H 1183.08 5.25371 -1.69379 0
M  V30 13422 H 1183.56 4.38563 -0.236519 0
M  V30 13423 H 1184.16 3.8445 -1.81874 0
M  V30 13424 N 1182.48 0.948665 1.2585 0
M  V30 13425 C 1183.76 0.517832 1.88621 0
M  V30 13426 C 1184.14 -1.00477 1.85654 0
M  V30 13427 O 1183.49 -1.868 1.31598 0
M  V30 13428 C 1183.7 1.08768 3.31618 0
M  V30 13429 C 1185.04 1.16089 4.08422 0
M  V30 13430 O 1186.07 1.0388 3.40716 0
M  V30 13431 O 1184.93 1.35172 5.29519 0
M  V30 13432 H 1182.02 0.169916 0.809356 0
M  V30 13433 H 1184.57 1.04171 1.33964 0
M  V30 13434 H 1183.34 2.13109 3.28177 0
M  V30 13435 H 1182.96 0.54669 3.93824 0
M  V30 13436 N 1183.96 -1.40369 0.716545 0
M  V30 13437 C 1185.24 -1.94737 0.183576 0
M  V30 13438 C 1185.62 -1.65464 -1.31092 0
M  V30 13439 O 1184.96 -0.972832 -2.06756 0
M  V30 13440 C 1185.17 -3.45438 0.497339 0
M  V30 13441 C 1186.52 -4.2235 0.436526 0
M  V30 13442 O 1187.55 -3.53553 0.433454 0
M  V30 13443 O 1186.4 -5.44923 0.41489 0
M  V30 13444 H 1183.5 -0.82655 0.0272785 0
M  V30 13445 H 1186.04 -1.49972 0.794143 0
M  V30 13446 H 1184.82 -3.60107 1.53097 0
M  V30 13447 H 1184.44 -3.97342 -0.143141 0
M  V30 13448 N 1185.44 -0.462799 -1.50652 0
M  V30 13449 C 1186.38 0.349784 -2.29955 0
M  V30 13450 C 1187.38 0.997947 -1.36885 0
M  V30 13451 O 1188.58 0.93 -1.54114 0
M  V30 13452 H 1184.96 0.131635 -0.740389 0
M  V30 13453 H 1186.93 -0.33958 -2.96461 0
M  V30 13454 C 1185.68 1.42398 -3.17204 0
M  V30 13455 H 1185 0.934611 -3.88722 0
M  V30 13456 H 1186.44 1.96528 -3.75703 0
M  V30 13457 C 1184.9 2.42135 -2.34248 0
M  V30 13458 O 1185.43 3.47229 -2.01978 0
M  V30 13459 N 1183.64 2.13647 -1.96985 0
M  V30 13460 H 1183.18 1.28209 -2.23428 0
M  V30 13461 H 1183.14 2.80615 -1.41783 0
M  V30 13462 N 1186.91 1.56388 -0.195085 0
M  V30 13463 C 1187.84 2.22091 0.720971 0
M  V30 13464 C 1188.83 1.184 1.22128 0
M  V30 13465 O 1190.01 1.46907 1.27012 0
M  V30 13466 C 1187.14 2.88025 1.94059 0
M  V30 13467 C 1186.09 3.97959 1.5752 0
M  V30 13468 C 1185.42 4.51058 2.87143 0
M  V30 13469 C 1186.72 5.16365 0.785145 0
M  V30 13470 H 1188.41 2.98898 0.173245 0
M  V30 13471 H 1185.96 1.43767 0.0818868 0
M  V30 13472 H 1187.91 3.32671 2.58666 0
M  V30 13473 H 1186.64 2.08623 2.51285 0
M  V30 13474 H 1185.3 3.54004 0.952715 0
M  V30 13475 H 1184.94 3.68418 3.42458 0
M  V30 13476 H 1184.64 5.25237 2.63439 0
M  V30 13477 H 1186.17 4.98406 3.52738 0
M  V30 13478 H 1187.58 5.57556 1.33431 0
M  V30 13479 H 1185.98 5.9661 0.646231 0
M  V30 13480 H 1187.05 4.84428 -0.213789 0
M  V30 13481 N 1188.39 -0.0785156 1.57404 0
M  V30 13482 C 1189.34 -1.09402 2.03224 0
M  V30 13483 C 1190.31 -1.38849 0.911596 0
M  V30 13484 O 1191.49 -1.50031 1.17878 0
M  V30 13485 C 1188.63 -2.40444 2.47549 0
M  V30 13486 C 1187.75 -2.17585 3.73203 0
M  V30 13487 C 1186.88 -3.42143 4.06339 0
M  V30 13488 C 1185.92 -3.14619 5.25054 0
M  V30 13489 N 1185.06 -4.31489 5.5386 0
M  V30 13490 H 1189.9 -0.696307 2.89751 0
M  V30 13491 H 1187.44 -0.332261 1.43298 0
M  V30 13492 H 1189.39 -3.16944 2.71298 0
M  V30 13493 H 1188.02 -2.78031 1.64009 0
M  V30 13494 H 1187.08 -1.3181 3.56834 0
M  V30 13495 H 1188.39 -1.93249 4.59844 0
M  V30 13496 H 1187.54 -4.27042 4.30953 0
M  V30 13497 H 1186.28 -3.69549 3.18253 0
M  V30 13498 H 1185.29 -2.28116 5.00243 0
M  V30 13499 H 1186.51 -2.88543 6.14752 0
M  V30 13500 H 1184.46 -4.58939 4.68734 0
M  V30 13501 H 1184.37 -4.10403 6.34906 0
M  V30 13502 H 1185.64 -5.17404 5.83021 0
M  V30 13503 N 1189.87 -1.5367 -0.349747 0
M  V30 13504 C 1190.8 -1.7603 -1.4522 0
M  V30 13505 C 1191.78 -0.609171 -1.50758 0
M  V30 13506 O 1192.97 -0.843613 -1.68569 0
M  V30 13507 C 1190.09 -1.85336 -2.83493 0
M  V30 13508 C 1189.14 -3.07438 -2.95608 0
M  V30 13509 S 1189.97 -4.66625 -2.62719 0
M  V30 13510 C 1191.13 -4.78802 -4.03112 0
M  V30 13511 H 1191.36 -2.69263 -1.26035 0
M  V30 13512 H 1188.89 -1.4446 -0.545044 0
M  V30 13513 H 1190.85 -1.91383 -3.63157 0
M  V30 13514 H 1189.51 -0.931267 -2.99977 0
M  V30 13515 H 1188.71 -3.10606 -3.96913 0
M  V30 13516 H 1188.31 -2.99585 -2.23886 0
M  V30 13517 H 1190.6 -4.5983 -4.97557 0
M  V30 13518 H 1191.54 -5.80886 -4.04941 0
M  V30 13519 H 1191.95 -4.07305 -3.90849 0
M  V30 13520 N 1191.35 0.610423 -1.45298 0
M  V30 13521 C 1192.28 1.73507 -1.4976 0
M  V30 13522 C 1193.29 1.58092 -0.38867 0
M  V30 13523 O 1194.48 1.66026 -0.655571 0
M  V30 13524 C 1191.58 3.11475 -1.33554 0
M  V30 13525 C 1190.76 3.53156 -2.5807 0
M  V30 13526 C 1189.81 4.70076 -2.36463 0
M  V30 13527 O 1188.84 4.77337 -3.10061 0
M  V30 13528 N 1190.04 5.63155 -1.40843 0
M  V30 13529 H 1192.81 1.70144 -2.46721 0
M  V30 13530 H 1190.37 0.79562 -1.41002 0
M  V30 13531 H 1192.36 3.87444 -1.16914 0
M  V30 13532 H 1190.93 3.09361 -0.448803 0
M  V30 13533 H 1190.15 2.67178 -2.89844 0
M  V30 13534 H 1191.44 3.77761 -3.40843 0
M  V30 13535 H 1190.84 5.60001 -0.800982 0
M  V30 13536 H 1189.39 6.38669 -1.30175 0
M  V30 13537 N 1192.83 1.32541 0.852676 0
M  V30 13538 C 1193.74 1.23646 1.99371 0
M  V30 13539 C 1194.75 0.149673 1.73355 0
M  V30 13540 O 1195.93 0.370716 1.97959 0
M  V30 13541 C 1192.99 0.961873 3.3309 0
M  V30 13542 C 1192.05 2.1373 3.72315 0
M  V30 13543 C 1191.29 1.87572 4.99652 0
M  V30 13544 O 1191.51 0.819247 5.64486 0
M  V30 13545 O 1190.44 2.73732 5.36054 0
M  V30 13546 H 1194.27 2.19573 2.09813 0
M  V30 13547 H 1191.86 1.12451 0.983627 0
M  V30 13548 H 1193.74 0.825316 4.13239 0
M  V30 13549 H 1192.41 0.0327745 3.23683 0
M  V30 13550 H 1191.32 2.32933 2.92733 0
M  V30 13551 H 1192.65 3.04925 3.86369 0
M  V30 13552 N 1194.3 -1.0692 1.15784 0
M  V30 13553 C 1195.23 -2.16216 0.881649 0
M  V30 13554 C 1196.22 -1.69253 -0.16951 0
M  V30 13555 O 1197.4 -1.94186 -0.0229511 0
M  V30 13556 C 1194.53 -3.4527 0.374982 0
M  V30 13557 C 1193.48 -4.05706 1.36332 0
M  V30 13558 C 1192.81 -5.29894 0.715317 0
M  V30 13559 C 1194.11 -4.45224 2.7308 0
M  V30 13560 H 1195.8 -2.39577 1.79563 0
M  V30 13561 H 1193.35 -1.15141 0.864784 0
M  V30 13562 H 1195.3 -4.2106 0.169279 0
M  V30 13563 H 1194.03 -3.21508 -0.574485 0
M  V30 13564 H 1192.69 -3.31965 1.55546 0
M  V30 13565 H 1192.33 -5.02425 -0.240436 0
M  V30 13566 H 1192.03 -5.71287 1.37494 0
M  V30 13567 H 1193.56 -6.08386 0.519489 0
M  V30 13568 H 1194.97 -5.12124 2.57686 0
M  V30 13569 H 1193.37 -4.97583 3.35457 0
M  V30 13570 H 1194.44 -3.56384 3.28813 0
M  V30 13571 N 1195.78 -0.955326 -1.25345 0
M  V30 13572 C 1196.73 -0.467205 -2.2786 0
M  V30 13573 C 1197.72 0.462873 -1.62954 0
M  V30 13574 O 1198.93 0.339526 -1.76769 0
M  V30 13575 H 1195.31 -0.132586 -0.74022 0
M  V30 13576 H 1197.28 -1.34406 -2.66416 0
M  V30 13577 C 1196.03 0.238898 -3.46878 0
M  V30 13578 H 1195.35 -0.467644 -3.97056 0
M  V30 13579 H 1196.79 0.544444 -4.2049 0
M  V30 13580 C 1195.25 1.46164 -3.03542 0
M  V30 13581 O 1195.78 2.55933 -3.09615 0
M  V30 13582 N 1193.98 1.32324 -2.58725 0
M  V30 13583 H 1193.53 0.430131 -2.53984 0
M  V30 13584 H 1193.49 2.14253 -2.30094 0
M  V30 13585 N 1197.26 1.39987 -0.723979 0
M  V30 13586 C 1198.19 2.28185 -0.0257726 0
M  V30 13587 C 1199.17 1.43795 0.75907 0
M  V30 13588 O 1200.36 1.73198 0.743948 0
M  V30 13589 C 1197.48 3.24489 0.970811 0
M  V30 13590 C 1196.53 4.25607 0.275778 0
M  V30 13591 S 1197.36 5.26035 -1.00237 0
M  V30 13592 C 1198.52 6.25899 -0.00809987 0
M  V30 13593 H 1198.75 2.87054 -0.773761 0
M  V30 13594 H 1196.28 1.45546 -0.515332 0
M  V30 13595 H 1198.24 3.80496 1.54055 0
M  V30 13596 H 1196.9 2.6466 1.69156 0
M  V30 13597 H 1196.1 4.93374 1.02946 0
M  V30 13598 H 1195.7 3.73343 -0.22163 0
M  V30 13599 H 1197.99 6.72323 0.835971 0
M  V30 13600 H 1198.93 7.05086 -0.652607 0
M  V30 13601 H 1199.34 5.63355 0.359377 0
M  V30 13602 N 1198.74 0.470782 1.50404 0
M  V30 13603 C 1199.99 -0.0859981 2.01517 0
M  V30 13604 C 1200.3 -1.40811 1.35763 0
M  V30 13605 O 1201.51 -2.04982 1.7803 0
M  V30 13606 C 1199.96 -0.203773 3.59323 0
M  V30 13607 C 1199.57 1.10989 4.34034 0
M  V30 13608 C 1201.32 -0.712528 4.18477 0
M  V30 13609 C 1199.22 0.955928 5.83623 0
M  V30 13610 H 1198.15 -0.0359142 0.753144 0
M  V30 13611 H 1200.8 0.605631 1.73218 0
M  V30 13612 H 1199.19 -0.959177 3.84208 0
M  V30 13613 H 1200.36 1.87623 4.20873 0
M  V30 13614 H 1198.67 1.54973 3.86487 0
M  V30 13615 H 1201.27 -0.844745 5.27985 0
M  V30 13616 H 1201.61 -1.70377 3.79838 0
M  V30 13617 H 1202.15 -0.0145179 3.97797 0
M  V30 13618 H 1198.89 1.92054 6.26734 0
M  V30 13619 H 1198.41 0.22997 5.99359 0
M  V30 13620 H 1200.09 0.622423 6.43999 0
M  V30 13621 N 1200.22 -1.56282 0.203376 0
M  V30 13622 C 1201.63 -1.58871 -0.152335 0
M  V30 13623 C 1201.83 -1.21978 -1.60386 0
M  V30 13624 O 1200.89 -0.946422 -2.34092 0
M  V30 13625 C 1202.2 -3.00287 0.157515 0
M  V30 13626 C 1203.75 -3.12846 0.098287 0
M  V30 13627 C 1204.23 -4.56408 0.38156 0
M  V30 13628 N 1205.72 -4.6202 0.330475 0
M  V30 13629 C 1206.45 -5.71006 0.523397 0
M  V30 13630 N 1205.95 -6.88428 0.777115 0
M  V30 13631 N 1207.74 -5.60238 0.457082 0
M  V30 13632 H 1199.89 -1.78543 1.15048 0
M  V30 13633 H 1202.15 -0.829019 0.459816 0
M  V30 13634 H 1201.86 -3.3187 1.16427 0
M  V30 13635 H 1201.73 -3.73372 -0.536041 0
M  V30 13636 H 1204.12 -2.8107 -0.899085 0
M  V30 13637 H 1204.2 -2.42129 0.825045 0
M  V30 13638 H 1203.85 -4.88897 1.37629 0
M  V30 13639 H 1203.78 -5.25325 -0.366182 0
M  V30 13640 H 1206.27 -3.77636 0.141327 0
M  V30 13641 H 1206.58 -7.67389 0.912911 0
M  V30 13642 H 1204.93 -6.90215 0.814104 0
M  V30 13643 H 1208.12 -4.67382 0.259226 0
M  V30 13644 H 1208.29 -6.45114 0.610848 0
M  V30 13645 N 1201.7 0.070167 -1.57444 0
M  V30 13646 C 1202.92 0.781894 -1.91557 0
M  V30 13647 C 1203.34 1.71037 -0.799489 0
M  V30 13648 O 1202.7 1.81082 0.227062 0
M  V30 13649 C 1202.75 1.57415 -3.25427 0
M  V30 13650 O 1202.47 0.682991 -4.32743 0
M  V30 13651 C 1203.97 2.38673 -3.73564 0
M  V30 13652 H 1201.19 0.222211 -0.633138 0
M  V30 13653 H 1203.73 0.0399504 -2.04461 0
M  V30 13654 H 1201.89 2.26835 -3.14045 0
M  V30 13655 H 1202.3 1.2342 -5.09772 0
M  V30 13656 H 1203.78 2.89716 -4.6986 0
M  V30 13657 H 1204.25 3.18269 -3.02657 0
M  V30 13658 H 1204.86 1.74405 -3.87896 0
M  V30 13659 N 1203.17 1.53854 0.341593 0
M  V30 13660 C 1204.12 1.8268 1.43982 0
M  V30 13661 C 1205.12 0.697415 1.54378 0
M  V30 13662 O 1206.32 0.880785 1.56978 0
M  V30 13663 H 1202.7 0.578788 0.480113 0
M  V30 13664 H 1204.67 2.74556 1.16884 0
M  V30 13665 C 1203.42 2.05496 2.80476 0
M  V30 13666 H 1202.74 2.91852 2.73244 0
M  V30 13667 H 1204.18 2.2963 3.56435 0
M  V30 13668 C 1202.64 0.841061 3.26233 0
M  V30 13669 O 1203.17 0.0414376 4.01679 0
M  V30 13670 N 1201.37 0.657736 2.83059 0
M  V30 13671 H 1200.92 1.30962 2.21826 0
M  V30 13672 H 1200.88 -0.153003 3.14027 0
M  V30 13673 N 1204.65 -0.602709 1.4562 0
M  V30 13674 C 1206.06 -1.1847 1.44297 0
M  V30 13675 C 1206.41 -1.95434 0.17316 0
M  V30 13676 O 1205.54 -2.03894 -0.724986 0
M  V30 13677 C 1206.13 -2.15508 2.61422 0
M  V30 13678 C 1204.69 -2.69073 2.63204 0
M  V30 13679 C 1203.84 -1.44568 2.36633 0
M  V30 13680 H 1206.79 -0.391745 1.53789 0
M  V30 13681 H 1206.81 -2.98628 2.35799 0
M  V30 13682 H 1206.32 -1.59464 3.53826 0
M  V30 13683 H 1204.42 -3.29042 1.7482 0
M  V30 13684 H 1204.54 -3.13173 3.62573 0
M  V30 13685 H 1202.9 -1.73692 1.86287 0
M  V30 13686 H 1203.68 -0.903852 3.31188 0
M  V30 13687 N 1206.13 -1.32992 -0.845635 0
M  V30 13688 C 1207.06 -1.18513 -1.96182 0
M  V30 13689 C 1208.07 -0.11781 -1.62373 0
M  V30 13690 O 1209.26 -0.36761 -1.74674 0
M  V30 13691 C 1206.36 -0.793812 -3.29472 0
M  V30 13692 C 1205.54 -1.95134 -3.91461 0
M  V30 13693 C 1204.6 -1.54209 -5.03096 0
M  V30 13694 O 1203.62 -2.25545 -5.22607 0
M  V30 13695 N 1204.82 -0.443235 -5.78805 0
M  V30 13696 H 1207.59 -2.14663 -2.09141 0
M  V30 13697 H 1205.15 -1.25648 -1.02099 0
M  V30 13698 H 1207.14 -0.502263 -4.01571 0
M  V30 13699 H 1205.71 0.0768031 -3.12506 0
M  V30 13700 H 1204.93 -2.40889 -3.12035 0
M  V30 13701 H 1206.22 -2.72604 -4.2961 0
M  V30 13702 H 1205.62 0.150298 -5.655 0
M  V30 13703 H 1204.17 -0.211331 -6.51457 0
M  V30 13704 N 1207.61 1.06304 -1.1635 0
M  V30 13705 C 1208.86 1.78487 -0.939423 0
M  V30 13706 C 1209.17 1.8817 0.533998 0
M  V30 13707 O 1210.38 2.56981 0.875962 0
M  V30 13708 C 1208.83 3.20796 -1.63149 0
M  V30 13709 C 1208.44 3.19281 -3.14267 0
M  V30 13710 C 1210.18 3.97514 -1.48938 0
M  V30 13711 C 1208.09 4.56309 -3.76213 0
M  V30 13712 H 1207.02 0.668973 -0.347837 0
M  V30 13713 H 1209.67 1.19237 -1.3948 0
M  V30 13714 H 1208.05 3.80305 -1.10382 0
M  V30 13715 H 1209.23 2.69356 -3.73877 0
M  V30 13716 H 1207.54 2.56062 -3.28362 0
M  V30 13717 H 1210.14 4.98808 -1.926 0
M  V30 13718 H 1210.48 4.13986 -0.438319 0
M  V30 13719 H 1211.02 3.44528 -1.98861 0
M  V30 13720 H 1207.75 4.45042 -4.81267 0
M  V30 13721 H 1207.27 5.06429 -3.21388 0
M  V30 13722 H 1208.95 5.25266 -3.77762 0
M  V30 13723 N 1209.09 0.96196 1.24836 0
M  V30 13724 C 1210.33 0.616342 1.92052 0
M  V30 13725 C 1210.65 -0.851601 1.76088 0
M  V30 13726 O 1211.85 -1.3075 2.37943 0
M  V30 13727 C 1210.31 1.05168 3.44191 0
M  V30 13728 C 1209.92 2.54268 3.68852 0
M  V30 13729 C 1211.66 0.778938 4.17292 0
M  V30 13730 C 1209.57 2.91564 5.14533 0
M  V30 13731 H 1208.5 0.22681 0.719078 0
M  V30 13732 H 1211.15 1.1674 1.41577 0
M  V30 13733 H 1209.53 0.428979 3.9367 0
M  V30 13734 H 1210.71 3.21619 3.29997 0
M  V30 13735 H 1209.02 2.79091 3.09026 0
M  V30 13736 H 1211.62 1.03366 5.24614 0
M  V30 13737 H 1211.96 -0.284772 4.15325 0
M  V30 13738 H 1212.49 1.36233 3.73745 0
M  V30 13739 H 1209.23 3.96982 5.21618 0
M  V30 13740 H 1208.75 2.28892 5.54408 0
M  V30 13741 H 1210.43 2.81155 5.82718 0
M  V30 13742 N 1210.56 -1.39601 0.731392 0
M  V30 13743 C 1211.49 -2.33268 0.1041 0
M  V30 13744 C 1212.47 -1.53724 -0.728219 0
M  V30 13745 O 1213.66 -1.82131 -0.673933 0
M  V30 13746 C 1210.79 -3.37802 -0.806646 0
M  V30 13747 C 1209.74 -4.27928 -0.0787588 0
M  V30 13748 C 1209.07 -5.23131 -1.10628 0
M  V30 13749 C 1210.37 -5.11086 1.07651 0
M  V30 13750 H 1212.06 -2.85975 0.886496 0
M  V30 13751 H 1209.61 -1.375 0.427746 0
M  V30 13752 H 1211.56 -4.02278 -1.25499 0
M  V30 13753 H 1210.29 -2.83527 -1.62112 0
M  V30 13754 H 1208.95 -3.64926 0.349926 0
M  V30 13755 H 1208.59 -4.65152 -1.91422 0
M  V30 13756 H 1208.29 -5.84277 -0.624043 0
M  V30 13757 H 1209.82 -5.90483 -1.5544 0
M  V30 13758 H 1211.23 -5.68927 0.706781 0
M  V30 13759 H 1209.63 -5.81356 1.48814 0
M  V30 13760 H 1210.7 -4.46131 1.89988 0
M  V30 13761 N 1212.04 -0.478751 -1.50152 0
M  V30 13762 C 1212.99 0.325375 -2.30313 0
M  V30 13763 C 1213.98 0.983372 -1.37935 0
M  V30 13764 O 1215.19 0.913601 -1.55091 0
M  V30 13765 H 1211.57 0.123775 -0.741744 0
M  V30 13766 H 1213.54 -0.371004 -2.96085 0
M  V30 13767 C 1212.29 1.39026 -3.18696 0
M  V30 13768 H 1211.61 0.893329 -3.89692 0
M  V30 13769 H 1213.05 1.92533 -3.77766 0
M  V30 13770 C 1211.51 2.39637 -2.36803 0
M  V30 13771 O 1212.04 3.45067 -2.05649 0
M  V30 13772 N 1210.24 2.11546 -1.9924 0
M  V30 13773 H 1209.79 1.25832 -2.24775 0
M  V30 13774 H 1209.75 2.79096 -1.44751 0
M  V30 13775 N 1213.52 1.56172 -0.211661 0
M  V30 13776 C 1214.47 2.21206 0.719063 0
M  V30 13777 C 1215.46 1.18835 1.20725 0
M  V30 13778 O 1216.67 1.36939 1.16823 0
M  V30 13779 H 1213.04 0.709129 0.250279 0
M  V30 13780 H 1215.01 2.98038 0.147022 0
M  V30 13781 C 1213.76 2.89826 1.92084 0
M  V30 13782 H 1213.09 3.68351 1.55428 0
M  V30 13783 H 1214.53 3.38744 2.55006 0
M  V30 13784 C 1212.99 1.91756 2.77004 0
M  V30 13785 O 1213.52 1.42826 3.75451 0
M  V30 13786 N 1211.72 1.59622 2.42836 0
M  V30 13787 H 1211.27 1.99606 1.62835 0
M  V30 13788 H 1211.23 0.942641 2.99936 0
M  V30 13789 N 1215 -0.0618163 1.57479 0
M  V30 13790 C 1215.91 -1.09006 2.07738 0
M  V30 13791 C 1216.92 -1.4176 1.00896 0
M  V30 13792 O 1218.1 -1.51737 1.32431 0
M  V30 13793 C 1215.17 -2.38153 2.5196 0
M  V30 13794 C 1214.23 -2.12279 3.73143 0
M  V30 13795 C 1213.46 -3.35269 4.15248 0
M  V30 13796 O 1213.68 -4.44758 3.57137 0
M  V30 13797 O 1212.62 -3.22894 5.0796 0
M  V30 13798 H 1216.44 -0.693059 2.95686 0
M  V30 13799 H 1214.03 -0.276628 1.46817 0
M  V30 13800 H 1215.91 -3.14139 2.80882 0
M  V30 13801 H 1214.58 -2.77213 1.67137 0
M  V30 13802 H 1213.49 -1.33966 3.49291 0
M  V30 13803 H 1214.82 -1.78094 4.5885 0
M  V30 13804 N 1216.48 -1.54033 -0.333429 0
M  V30 13805 C 1217.73 -1.70979 -1.07 0
M  V30 13806 C 1218.04 -0.485095 -1.89489 0
M  V30 13807 O 1219.24 -0.535712 -2.66162 0
M  V30 13808 C 1217.7 -3.02382 -1.95175 0
M  V30 13809 C 1217.31 -4.32223 -1.17844 0
M  V30 13810 C 1219.05 -3.28693 -2.68628 0
M  V30 13811 C 1216.96 -5.54693 -2.05109 0
M  V30 13812 H 1215.89 -0.637152 -0.403179 0
M  V30 13813 H 1218.54 -1.80529 -0.328839 0
M  V30 13814 H 1216.92 -2.86714 -2.73151 0
M  V30 13815 H 1218.1 -4.58626 -0.447089 0
M  V30 13816 H 1216.41 -4.12601 -0.561166 0
M  V30 13817 H 1219.01 -4.17385 -3.34207 0
M  V30 13818 H 1219.35 -2.46141 -3.35738 0
M  V30 13819 H 1219.88 -3.45183 -1.9772 0
M  V30 13820 H 1216.62 -6.39818 -1.42523 0
M  V30 13821 H 1216.14 -5.32524 -2.76005 0
M  V30 13822 H 1217.82 -5.90722 -2.63926 0
M  V30 13823 N 1217.95 0.594978 -1.45938 0
M  V30 13824 C 1218.88 1.71536 -1.58422 0
M  V30 13825 C 1219.87 1.64441 -0.435116 0
M  V30 13826 O 1221.05 1.82647 -0.659839 0
M  V30 13827 C 1218.18 3.10163 -1.56257 0
M  V30 13828 C 1217.13 3.3208 -2.70013 0
M  V30 13829 C 1216.46 4.71108 -2.52905 0
M  V30 13830 C 1217.76 3.21105 -4.11933 0
M  V30 13831 H 1219.45 1.61344 -2.52207 0
M  V30 13832 H 1217 0.774791 -1.2138 0
M  V30 13833 H 1218.95 3.88352 -1.63587 0
M  V30 13834 H 1217.68 3.21225 -0.590093 0
M  V30 13835 H 1216.34 2.56286 -2.62132 0
M  V30 13836 H 1215.98 4.7892 -1.53768 0
M  V30 13837 H 1215.68 4.86727 -3.29197 0
M  V30 13838 H 1217.21 5.51482 -2.62107 0
M  V30 13839 H 1218.62 3.89153 -4.2099 0
M  V30 13840 H 1217.02 3.4825 -4.88715 0
M  V30 13841 H 1218.09 2.18359 -4.32952 0
M  V30 13842 N 1219.43 1.33438 0.838571 0
M  V30 13843 C 1220.68 1.24259 1.58879 0
M  V30 13844 C 1220.99 -0.189957 1.94675 0
M  V30 13845 O 1222.2 -0.40376 2.68481 0
M  V30 13846 C 1220.66 2.1773 2.86569 0
M  V30 13847 C 1220.26 3.66156 2.58135 0
M  V30 13848 C 1222.01 2.17424 3.64591 0
M  V30 13849 C 1219.92 4.5154 3.81923 0
M  V30 13850 H 1218.85 0.461534 0.59624 0
M  V30 13851 H 1221.5 1.58504 0.924588 0
M  V30 13852 H 1219.88 1.76418 3.54532 0
M  V30 13853 H 1221.05 4.1591 1.98382 0
M  V30 13854 H 1219.37 3.68754 1.93416 0
M  V30 13855 H 1221.96 2.78446 4.56478 0
M  V30 13856 H 1222.31 1.16939 3.99539 0
M  V30 13857 H 1222.84 2.571 3.03553 0
M  V30 13858 H 1219.58 5.52902 3.52107 0
M  V30 13859 H 1219.1 4.06529 4.41015 0
M  V30 13860 H 1220.78 4.65359 4.495 0
M  V30 13861 N 1220.91 -1.05686 1.16912 0
M  V30 13862 C 1222.14 -1.82821 0.979348 0
M  V30 13863 C 1222.56 -1.82196 -0.467575 0
M  V30 13864 O 1221.92 -1.22727 -1.33445 0
M  V30 13865 C 1221.97 -3.2705 1.51891 0
M  V30 13866 O 1221.07 -4.05899 0.729341 0
M  V30 13867 H 1220.41 -0.565455 0.348076 0
M  V30 13868 H 1222.94 -1.33211 1.55293 0
M  V30 13869 H 1222.95 -3.77859 1.53904 0
M  V30 13870 H 1221.63 -3.26819 2.5722 0
M  V30 13871 H 1220.2 -3.64646 0.780221 0
M  V30 13872 N 1222.39 -0.968567 -1.24324 0
M  V30 13873 C 1223.67 -0.547774 -1.87773 0
M  V30 13874 C 1224.05 0.975107 -1.87229 0
M  V30 13875 O 1223.39 1.84683 -1.34553 0
M  V30 13876 C 1223.6 -1.1403 -3.29846 0
M  V30 13877 C 1224.95 -1.22572 -4.06523 0
M  V30 13878 O 1225.98 -1.09287 -3.3902 0
M  V30 13879 O 1224.83 -1.43579 -5.27302 0
M  V30 13880 H 1221.93 -0.182771 -0.806551 0
M  V30 13881 H 1224.47 -1.06289 -1.3229 0
M  V30 13882 H 1223.25 -2.18303 -3.24745 0
M  V30 13883 H 1222.87 -0.609275 -3.92904 0
M  V30 13884 N 1223.87 1.39211 -0.738786 0
M  V30 13885 C 1224.81 2.30578 -0.10129 0
M  V30 13886 C 1225.78 1.49412 0.725616 0
M  V30 13887 O 1226.97 1.78087 0.684799 0
M  V30 13888 C 1224.11 3.35767 0.797161 0
M  V30 13889 C 1223.22 4.31979 -0.0427701 0
M  V30 13890 C 1222.36 5.24236 0.857306 0
M  V30 13891 C 1221.4 6.12099 0.0128501 0
M  V30 13892 N 1220.53 6.96701 0.869067 0
M  V30 13893 H 1225.37 2.84522 -0.88606 0
M  V30 13894 H 1222.91 1.40093 -0.448602 0
M  V30 13895 H 1224.87 3.95347 1.33255 0
M  V30 13896 H 1223.5 2.83268 1.54787 0
M  V30 13897 H 1222.55 3.73986 -0.695622 0
M  V30 13898 H 1223.86 4.93927 -0.69555 0
M  V30 13899 H 1223.02 5.88861 1.4604 0
M  V30 13900 H 1221.75 4.62619 1.54386 0
M  V30 13901 H 1220.76 5.46483 -0.603018 0
M  V30 13902 H 1221.98 6.75781 -0.67054 0
M  V30 13903 H 1219.93 6.37647 1.54084 0
M  V30 13904 H 1219.85 7.55507 0.272852 0
M  V30 13905 H 1221.12 7.65751 1.4576 0
M  V30 13906 N 1225.34 0.486708 1.49896 0
M  V30 13907 C 1226.29 -0.313156 2.30482 0
M  V30 13908 C 1227.29 -0.976043 1.38455 0
M  V30 13909 O 1228.49 -0.905364 1.55574 0
M  V30 13910 H 1224.87 -0.119839 0.74239 0
M  V30 13911 H 1226.84 0.386701 2.95884 0
M  V30 13912 C 1225.59 -1.37334 3.19429 0
M  V30 13913 H 1224.91 -0.87265 3.9016 0
M  V30 13914 H 1226.35 -1.90526 3.78782 0
M  V30 13915 C 1224.81 -2.38378 2.38071 0
M  V30 13916 O 1225.34 -3.43972 2.07476 0
M  V30 13917 N 1223.55 -2.10486 2.00359 0
M  V30 13918 H 1223.09 -1.24638 2.2544 0
M  V30 13919 H 1223.05 -2.78324 1.46229 0
M  V30 13920 N 1226.82 -1.56058 0.219941 0
M  V30 13921 C 1228.05 -2.031 -0.42014 0
M  V30 13922 C 1228.47 -1.09875 -1.52673 0
M  V30 13923 O 1227.83 -0.0866458 -1.81093 0
M  V30 13924 C 1227.88 -3.48389 -0.93047 0
M  V30 13925 O 1226.98 -3.583 -2.04192 0
M  V30 13926 H 1226.32 -0.657129 -0.0952772 0
M  V30 13927 H 1228.85 -2.01787 0.338105 0
M  V30 13928 H 1228.86 -3.88678 -1.2407 0
M  V30 13929 H 1227.54 -4.15725 -0.120539 0
M  V30 13930 H 1226.12 -3.29898 -1.73845 0
M  V30 13931 N 1228.3 0.053464 -1.57509 0
M  V30 13932 C 1229.58 0.783141 -1.79238 0
M  V30 13933 C 1229.96 1.94855 -0.812069 0
M  V30 13934 O 1229.31 2.28 0.151006 0
M  V30 13935 C 1229.52 1.239 -3.26266 0
M  V30 13936 C 1230.86 1.66492 -3.90596 0
M  V30 13937 O 1231.89 1.33421 -3.30269 0
M  V30 13938 O 1230.75 2.27785 -4.96766 0
M  V30 13939 H 1227.84 0.376696 -0.736226 0
M  V30 13940 H 1230.39 0.0321229 -1.6967 0
M  V30 13941 H 1229.16 0.405948 -3.89189 0
M  V30 13942 H 1228.78 2.05078 -3.4063 0
M  V30 13943 N 1229.78 1.54207 0.325255 0
M  V30 13944 C 1230.74 1.82757 1.38321 0
M  V30 13945 C 1231.74 0.699312 1.44797 0
M  V30 13946 O 1232.93 0.96762 1.44854 0
M  V30 13947 C 1230.06 1.98608 2.7707 0
M  V30 13948 H 1231.26 2.7728 1.14261 0
M  V30 13949 H 1228.81 1.45899 0.560647 0
M  V30 13950 H 1229.55 1.0629 3.06387 0
M  V30 13951 H 1229.33 2.80707 2.73763 0
M  V30 13952 H 1230.82 2.2215 3.53609 0
M  V30 13953 N 1231.26 -0.58723 1.46251 0
M  V30 13954 C 1232.49 -1.36976 1.54665 0
M  V30 13955 C 1232.9 -1.88293 0.185079 0
M  V30 13956 O 1232.24 -1.64028 -0.82707 0
M  V30 13957 C 1232.3 -2.59591 2.48702 0
M  V30 13958 C 1231.96 -2.29773 3.95036 0
M  V30 13959 C 1232.96 -1.88885 4.84374 0
M  V30 13960 C 1230.65 -2.42057 4.40129 0
M  V30 13961 C 1232.64 -1.60669 6.16818 0
M  V30 13962 C 1230.33 -2.13454 5.72609 0
M  V30 13963 C 1231.33 -1.72824 6.60773 0
M  V30 13964 O 1231.01 -1.44569 7.90794 0
M  V30 13965 H 1230.75 -0.424968 0.525717 0
M  V30 13966 H 1233.3 -0.721298 1.92319 0
M  V30 13967 H 1231.53 -3.27226 2.06058 0
M  V30 13968 H 1233.22 -3.21656 2.47573 0
M  V30 13969 H 1233.98 -1.78913 4.50794 0
M  V30 13970 H 1229.86 -2.72644 3.71734 0
M  V30 13971 H 1233.41 -1.28882 6.85591 0
M  V30 13972 H 1229.3 -2.23048 6.05739 0
M  V30 13973 H 1230.07 -1.58452 8.03016 0
M  V30 13974 N 1232.74 -1.33881 -0.831482 0
M  V30 13975 C 1233.98 -1.25755 -1.58719 0
M  V30 13976 C 1234.31 0.174746 -1.93713 0
M  V30 13977 O 1233.57 1.13384 -1.59507 0
M  V30 13978 C 1233.86 -2.08544 -2.90249 0
M  V30 13979 C 1233.53 -3.57651 -2.74585 0
M  V30 13980 C 1232.19 -3.983 -2.7002 0
M  V30 13981 C 1234.54 -4.52369 -2.58866 0
M  V30 13982 C 1231.87 -5.31872 -2.47647 0
M  V30 13983 C 1234.22 -5.86112 -2.38025 0
M  V30 13984 C 1232.89 -6.25934 -2.31867 0
M  V30 13985 H 1232.16 -0.460171 -0.580796 0
M  V30 13986 H 1234.81 -1.6554 -0.96274 0
M  V30 13987 H 1233.11 -1.6156 -3.56939 0
M  V30 13988 H 1234.81 -1.99609 -3.47789 0
M  V30 13989 H 1231.4 -3.2538 -2.78973 0
M  V30 13990 H 1235.58 -4.21868 -2.61421 0
M  V30 13991 H 1230.84 -5.61756 -2.41331 0
M  V30 13992 H 1235.01 -6.59103 -2.24847 0
M  V30 13993 H 1232.64 -7.29372 -2.14291 0
M  V30 13994 N 1234.21 1.05064 -1.1747 0
M  V30 13995 C 1235.44 1.81497 -0.987031 0
M  V30 13996 C 1235.85 1.83323 0.467921 0
M  V30 13997 O 1235.19 1.26006 1.33672 0
M  V30 13998 C 1235.26 3.28826 -1.45306 0
M  V30 13999 C 1234.92 3.50681 -2.93039 0
M  V30 14000 C 1235.92 3.42699 -3.90965 0
M  V30 14001 C 1233.6 3.77602 -3.31243 0
M  V30 14002 C 1235.6 3.61325 -5.25093 0
M  V30 14003 C 1233.28 3.95876 -4.65538 0
M  V30 14004 C 1234.28 3.87737 -5.62271 0
M  V30 14005 O 1233.97 4.055 -6.94136 0
M  V30 14006 H 1233.7 0.578734 -0.349347 0
M  V30 14007 H 1236.26 1.33373 -1.56208 0
M  V30 14008 H 1234.49 3.77872 -0.821581 0
M  V30 14009 H 1236.17 3.86788 -1.23085 0
M  V30 14010 H 1236.94 3.21877 -3.62795 0
M  V30 14011 H 1232.82 3.8304 -2.56517 0
M  V30 14012 H 1236.36 3.54888 -6.00583 0
M  V30 14013 H 1232.26 4.16191 -4.93412 0
M  V30 14014 H 1233.03 4.22718 -7.00894 0
M  V30 14015 N 1235.69 0.975146 1.23809 0
M  V30 14016 C 1236.97 0.557725 1.8748 0
M  V30 14017 C 1237.35 -0.965164 1.87744 0
M  V30 14018 O 1236.7 -1.83966 1.35531 0
M  V30 14019 C 1236.91 1.15777 3.29236 0
M  V30 14020 C 1238.25 1.24726 4.05868 0
M  V30 14021 O 1239.28 1.11084 3.38436 0
M  V30 14022 O 1238.14 1.46373 5.26533 0
M  V30 14023 H 1235.23 0.187045 0.80557 0
M  V30 14024 H 1237.78 1.06989 1.31725 0
M  V30 14025 H 1236.55 2.20023 3.23583 0
M  V30 14026 H 1236.17 0.630103 3.92575 0
M  V30 14027 N 1237.17 -1.38817 0.746158 0
M  V30 14028 C 1238.42 -2.0028 0.299016 0
M  V30 14029 C 1238.74 -1.59221 -1.11709 0
M  V30 14030 O 1238 -0.817595 -1.77803 0
M  V30 14031 C 1238.3 -3.55571 0.361086 0
M  V30 14032 C 1237.96 -4.16317 1.73179 0
M  V30 14033 C 1236.63 -4.32622 2.10693 0
M  V30 14034 C 1238.98 -4.49905 2.63126 0
M  V30 14035 C 1236.31 -4.79808 3.3764 0
M  V30 14036 C 1238.66 -4.98504 3.89457 0
M  V30 14037 C 1237.32 -5.13016 4.27049 0
M  V30 14038 H 1236.59 -0.732877 0.109418 0
M  V30 14039 H 1239.24 -1.65977 0.955186 0
M  V30 14040 H 1237.54 -3.89966 -0.378655 0
M  V30 14041 H 1239.24 -4.01 -0.00319228 0
M  V30 14042 H 1235.83 -4.04035 1.43015 0
M  V30 14043 H 1240.02 -4.36916 2.3541 0
M  V30 14044 H 1235.27 -4.89229 3.66695 0
M  V30 14045 H 1239.45 -5.23464 4.59302 0
M  V30 14046 H 1237.07 -5.4934 5.25481 0
M  V30 14047 N 1238.65 -0.49465 -1.49636 0
M  V30 14048 C 1239.9 0.0539277 -2.01628 0
M  V30 14049 C 1240.21 1.38634 -1.37986 0
M  V30 14050 O 1241.42 2.02123 -1.81269 0
M  V30 14051 C 1239.87 0.146582 -3.59601 0
M  V30 14052 C 1239.48 -1.1788 -4.32213 0
M  V30 14053 C 1241.22 0.645862 -4.19558 0
M  V30 14054 C 1239.13 -1.04866 -5.82028 0
M  V30 14055 H 1238.06 0.0239278 -0.75362 0
M  V30 14056 H 1240.71 -0.633112 -1.72232 0
M  V30 14057 H 1239.09 0.897931 -3.85685 0
M  V30 14058 H 1240.27 -1.94295 -4.17835 0
M  V30 14059 H 1238.58 -1.61102 -3.83973 0
M  V30 14060 H 1241.18 0.76064 -5.29262 0
M  V30 14061 H 1241.52 1.64313 -3.82501 0
M  V30 14062 H 1242.06 -0.04877 -3.9777 0
M  V30 14063 H 1238.79 -2.02 -6.23599 0
M  V30 14064 H 1238.31 -0.325293 -5.98917 0
M  V30 14065 H 1239.99 -0.724799 -6.42927 0
M  V30 14066 N 1240.13 1.55939 -0.228214 0
M  V30 14067 C 1241.37 1.98476 0.401677 0
M  V30 14068 C 1241.7 1.116 1.59297 0
M  V30 14069 O 1240.96 0.162465 1.95024 0
M  V30 14070 C 1241.25 3.46581 0.872732 0
M  V30 14071 C 1240.92 4.50416 -0.208767 0
M  V30 14072 C 1239.58 4.78534 -0.505847 0
M  V30 14073 C 1241.93 5.12656 -0.939852 0
M  V30 14074 C 1239.26 5.66171 -1.53841 0
M  V30 14075 C 1241.61 6.01412 -1.9618 0
M  V30 14076 C 1240.28 6.2787 -2.26573 0
M  V30 14077 H 1239.55 0.726276 0.146984 0
M  V30 14078 H 1242.2 1.88598 -0.332128 0
M  V30 14079 H 1240.5 3.53696 1.68541 0
M  V30 14080 H 1242.2 3.76869 1.37006 0
M  V30 14081 H 1238.79 4.28587 0.0329308 0
M  V30 14082 H 1242.97 4.90997 -0.723581 0
M  V30 14083 H 1238.23 5.84933 -1.77944 0
M  V30 14084 H 1242.4 6.48688 -2.53332 0
M  V30 14085 H 1240.03 6.95574 -3.06725 0
M  V30 14086 N 1241.6 -0.0451101 1.57535 0
M  V30 14087 C 1242.88 -0.773625 1.79651 0
M  V30 14088 C 1243.26 -1.94422 0.822391 0
M  V30 14089 O 1242.61 -2.28077 -0.138913 0
M  V30 14090 C 1242.82 -1.22168 3.26919 0
M  V30 14091 C 1244.17 -1.64419 3.91474 0
M  V30 14092 O 1245.19 -1.31668 3.30971 0
M  V30 14093 O 1244.05 -2.25148 4.97967 0
M  V30 14094 H 1241.14 -0.372786 0.738214 0
M  V30 14095 H 1243.69 -0.0231245 1.69684 0
M  V30 14096 H 1242.46 -0.385302 3.89398 0
M  V30 14097 H 1242.09 -2.03269 3.41713 0
M  V30 14098 N 1243.08 -1.54377 -0.317073 0
M  V30 14099 C 1244.01 -1.8721 -1.39552 0
M  V30 14100 C 1244.99 -0.729483 -1.53664 0
M  V30 14101 O 1246.18 -0.983799 -1.67437 0
M  V30 14102 C 1243.31 -2.1052 -2.76222 0
M  V30 14103 C 1242.26 -3.26366 -2.76892 0
M  V30 14104 C 1241.59 -3.35061 -4.16699 0
M  V30 14105 C 1242.89 -4.63862 -2.40061 0
M  V30 14106 H 1244.58 -2.77532 -1.12323 0
M  V30 14107 H 1242.13 -1.33536 -0.538897 0
M  V30 14108 H 1244.08 -2.32073 -3.51739 0
M  V30 14109 H 1242.81 -1.16953 -3.04942 0
M  V30 14110 H 1241.46 -3.0471 -2.03831 0
M  V30 14111 H 1241.11 -2.39041 -4.4257 0
M  V30 14112 H 1240.81 -4.12923 -4.18053 0
M  V30 14113 H 1242.34 -3.58856 -4.94019 0
M  V30 14114 H 1243.75 -4.85252 -3.05292 0
M  V30 14115 H 1242.15 -5.44321 -2.52655 0
M  V30 14116 H 1243.22 -4.6567 -1.35202 0
M  V30 14117 N 1244.56 0.579466 -1.4656 0
M  V30 14118 C 1245.79 1.36837 -1.55854 0
M  V30 14119 C 1246.21 1.87019 -0.20141 0
M  V30 14120 O 1245.57 1.61746 0.81901 0
M  V30 14121 C 1245.62 2.52965 -2.56985 0
M  V30 14122 O 1244.72 3.54505 -2.10713 0
M  V30 14123 H 1244.06 0.407379 -0.524345 0
M  V30 14124 H 1246.59 0.702558 -1.9216 0
M  V30 14125 H 1246.6 2.99838 -2.76697 0
M  V30 14126 H 1245.28 2.15793 -3.55536 0
M  V30 14127 H 1243.85 3.14089 -2.01003 0
M  V30 14128 N 1246.04 1.3432 0.824371 0
M  V30 14129 C 1247.29 1.26595 1.5805 0
M  V30 14130 C 1247.61 -0.164471 1.93803 0
M  V30 14131 O 1246.87 -1.12537 1.60106 0
M  V30 14132 C 1247.17 2.1008 2.89139 0
M  V30 14133 C 1246.83 3.59102 2.72684 0
M  V30 14134 C 1245.5 3.99726 2.67904 0
M  V30 14135 C 1247.85 4.53736 2.56463 0
M  V30 14136 C 1245.18 5.33178 2.44822 0
M  V30 14137 C 1247.53 5.87366 2.34913 0
M  V30 14138 C 1246.19 6.27155 2.28544 0
M  V30 14139 H 1245.46 0.463245 0.578347 0
M  V30 14140 H 1248.11 1.66048 0.953948 0
M  V30 14141 H 1246.41 1.6345 3.56078 0
M  V30 14142 H 1248.11 2.01451 3.46726 0
M  V30 14143 H 1244.7 3.26855 2.77244 0
M  V30 14144 H 1248.88 4.23248 2.5918 0
M  V30 14145 H 1244.14 5.63028 2.38348 0
M  V30 14146 H 1248.31 6.60286 2.21349 0
M  V30 14147 H 1245.94 7.30498 2.1042 0
M  V30 14148 N 1247.52 -1.0444 1.18026 0
M  V30 14149 C 1248.74 -1.81772 0.998684 0
M  V30 14150 C 1249.17 -1.82682 -0.448225 0
M  V30 14151 O 1248.52 -1.24136 -1.32136 0
M  V30 14152 C 1248.57 -3.2542 1.55352 0
M  V30 14153 O 1247.68 -4.05103 0.772351 0
M  V30 14154 H 1247.02 -0.561731 0.354054 0
M  V30 14155 H 1249.55 -1.31557 1.56697 0
M  V30 14156 H 1249.56 -3.76206 1.57903 0
M  V30 14157 H 1248.23 -3.24073 2.60672 0
M  V30 14158 H 1246.81 -3.63798 0.818852 0
M  V30 14159 N 1248.99 -0.981699 -1.2329 0
M  V30 14160 C 1250.24 -0.646818 -1.91048 0
M  V30 14161 C 1250.56 0.823479 -1.77421 0
M  V30 14162 O 1251.76 1.26948 -2.39993 0
M  V30 14163 C 1250.22 -1.1063 -3.42475 0
M  V30 14164 C 1249.83 -2.60103 -3.6476 0
M  V30 14165 C 1251.57 -0.845227 -4.16 0
M  V30 14166 C 1249.48 -2.99712 -5.0983 0
M  V30 14167 H 1248.41 -0.238221 -0.715379 0
M  V30 14168 H 1251.06 -1.18977 -1.39702 0
M  V30 14169 H 1249.44 -0.491554 -3.92937 0
M  V30 14170 H 1250.61 -3.26828 -3.24839 0
M  V30 14171 H 1248.93 -2.83972 -3.04547 0
M  V30 14172 H 1251.53 -1.11699 -5.22903 0
M  V30 14173 H 1251.87 0.218661 -4.15725 0
M  V30 14174 H 1252.4 -1.42162 -3.7153 0
M  V30 14175 H 1249.14 -4.0523 -5.15237 0
M  V30 14176 H 1248.66 -2.37683 -5.50697 0
M  V30 14177 H 1250.34 -2.9039 -5.78172 0
M  V30 14178 N 1250.47 1.3842 -0.753509 0
M  V30 14179 C 1251.72 1.99723 -0.309021 0
M  V30 14180 C 1252.04 1.60111 1.11308 0
M  V30 14181 O 1251.31 0.85792 1.76115 0
M  V30 14182 H 1249.89 0.738667 -0.111266 0
M  V30 14183 H 1252.55 1.69186 -0.967586 0
M  V30 14184 H 1251.65 3.09874 -0.372095 0
M  V30 14185 N 1251.95 0.502579 1.49372 0
M  V30 14186 C 1253.2 -0.0414423 2.02758 0
M  V30 14187 C 1253.53 -1.36499 1.38136 0
M  V30 14188 O 1252.8 -1.87487 0.517593 0
M  V30 14189 C 1253.09 -0.192333 3.59586 0
M  V30 14190 C 1252.94 1.15445 4.34733 0
M  V30 14191 C 1254.26 -0.932218 4.30114 0
M  V30 14192 H 1251.38 -0.0135869 0.736875 0
M  V30 14193 H 1254.02 0.654296 1.78379 0
M  V30 14194 H 1252.17 -0.78491 3.80488 0
M  V30 14195 H 1253.84 1.78603 4.25322 0
M  V30 14196 H 1252.09 1.74333 3.97228 0
M  V30 14197 H 1252.76 1.00216 5.42827 0
M  V30 14198 H 1255.23 -0.429632 4.13876 0
M  V30 14199 H 1254.11 -1.00664 5.39591 0
M  V30 14200 H 1254.37 -1.9763 3.95468 0
M  V30 14201 N 1253.43 -1.55816 0.23648 0
M  V30 14202 C 1254.68 -1.98686 -0.391146 0
M  V30 14203 C 1255 -1.12443 -1.58703 0
M  V30 14204 O 1254.26 -0.172805 -1.94936 0
M  V30 14205 C 1254.56 -3.47039 -0.85434 0
M  V30 14206 C 1254.22 -4.50299 0.232651 0
M  V30 14207 C 1252.89 -4.78259 0.531218 0
M  V30 14208 C 1255.24 -5.1215 0.967027 0
M  V30 14209 C 1252.57 -5.65347 1.56842 0
M  V30 14210 C 1254.92 -6.00363 1.99367 0
M  V30 14211 C 1253.58 -6.2666 2.299 0
M  V30 14212 H 1252.85 -0.727045 -0.14313 0
M  V30 14213 H 1255.5 -1.88419 0.342125 0
M  V30 14214 H 1253.8 -3.54585 -1.66663 0
M  V30 14215 H 1255.5 -3.7759 -1.35005 0
M  V30 14216 H 1252.09 -4.28599 -0.0102014 0
M  V30 14217 H 1256.27 -4.90606 0.749609 0
M  V30 14218 H 1251.53 -5.83981 1.81043 0
M  V30 14219 H 1255.7 -6.47335 2.56769 0
M  V30 14220 H 1253.33 -6.93938 3.1041 0
M  V30 14221 N 1254.91 0.036755 -1.57557 0
M  V30 14222 C 1256.18 0.764087 -1.80059 0
M  V30 14223 C 1256.56 1.93983 -0.83269 0
M  V30 14224 O 1255.91 2.28148 0.126815 0
M  V30 14225 C 1256.12 1.20433 -3.27562 0
M  V30 14226 C 1257.47 1.6234 -3.9234 0
M  V30 14227 O 1258.49 1.29911 -3.31665 0
M  V30 14228 O 1257.35 2.22504 -4.99154 0
M  V30 14229 H 1254.45 0.368866 -0.74018 0
M  V30 14230 H 1256.99 0.0141254 -1.69694 0
M  V30 14231 H 1255.76 0.364646 -3.89597 0
M  V30 14232 H 1255.39 2.01454 -3.42786 0
M  V30 14233 N 1256.39 1.54543 0.308881 0
M  V30 14234 C 1257.33 1.85693 1.40074 0
M  V30 14235 C 1258.33 0.730004 1.52864 0
M  V30 14236 O 1259.53 0.913884 1.55075 0
M  V30 14237 H 1255.91 0.588842 0.467728 0
M  V30 14238 H 1257.88 2.76973 1.11034 0
M  V30 14239 C 1256.63 2.11399 2.76054 0
M  V30 14240 H 1255.95 2.97583 2.66992 0
M  V30 14241 H 1257.39 2.37139 3.51484 0
M  V30 14242 C 1255.85 0.91007 3.24375 0
M  V30 14243 O 1256.38 0.12663 4.015 0
M  V30 14244 N 1254.59 0.717629 2.816 0
M  V30 14245 H 1254.13 1.35637 2.18998 0
M  V30 14246 H 1254.09 -0.0863585 3.14281 0
M  V30 14247 N 1257.86 -0.571685 1.46866 0
M  V30 14248 C 1259.11 -1.32574 1.5201 0
M  V30 14249 C 1259.43 -1.94762 0.180838 0
M  V30 14250 O 1260.63 -2.71276 0.110158 0
M  V30 14251 C 1259.09 -2.40331 2.67897 0
M  V30 14252 C 1258.7 -1.84398 4.08291 0
M  V30 14253 C 1260.44 -3.17009 2.82321 0
M  V30 14254 C 1258.35 -2.89849 5.15501 0
M  V30 14255 H 1257.28 -0.498428 0.565761 0
M  V30 14256 H 1259.93 -0.608853 1.73105 0
M  V30 14257 H 1258.31 -3.14869 2.40153 0
M  V30 14258 H 1259.48 -1.16329 4.45875 0
M  V30 14259 H 1257.8 -1.20351 3.98628 0
M  V30 14260 H 1260.4 -3.95729 3.59587 0
M  V30 14261 H 1260.74 -3.70292 1.90236 0
M  V30 14262 H 1261.27 -2.4958 3.09765 0
M  V30 14263 H 1258.01 -2.4144 6.09415 0
M  V30 14264 H 1257.53 -3.56372 4.82451 0
M  V30 14265 H 1259.21 -3.53603 5.41825 0
M  V30 14266 N 1259.34 -1.34755 -0.817236 0
M  V30 14267 C 1260.59 -1.26771 -1.56882 0
M  V30 14268 C 1260.9 0.158962 -1.94953 0
M  V30 14269 O 1262.11 0.360996 -2.69089 0
M  V30 14270 C 1260.57 -2.22261 -2.83069 0
M  V30 14271 C 1260.17 -3.70216 -2.52277 0
M  V30 14272 C 1261.92 -2.23197 -3.61086 0
M  V30 14273 C 1259.82 -4.57559 -3.74691 0
M  V30 14274 H 1258.75 -0.470961 -0.588822 0
M  V30 14275 H 1261.41 -1.59955 -0.899254 0
M  V30 14276 H 1259.79 -1.82036 -3.5168 0
M  V30 14277 H 1260.96 -4.19014 -1.9174 0
M  V30 14278 H 1259.28 -3.71784 -1.87525 0
M  V30 14279 H 1261.87 -2.85673 -4.5199 0
M  V30 14280 H 1262.22 -1.2328 -3.97628 0
M  V30 14281 H 1262.75 -2.61897 -2.99424 0
M  V30 14282 H 1259.49 -5.58434 -3.43267 0
M  V30 14283 H 1259.01 -4.13494 -4.34491 0
M  V30 14284 H 1260.69 -4.72451 -4.42039 0
M  V30 14285 N 1260.82 1.03812 -1.18578 0
M  V30 14286 C 1262.04 1.8124 -1.00831 0
M  V30 14287 C 1262.47 1.82917 0.43853 0
M  V30 14288 O 1261.83 1.24835 1.31476 0
M  V30 14289 C 1261.88 3.24592 -1.57075 0
M  V30 14290 O 1260.98 4.04688 -0.793824 0
M  V30 14291 H 1260.32 0.559846 -0.357028 0
M  V30 14292 H 1262.85 1.30724 -1.57393 0
M  V30 14293 H 1262.86 3.75363 -1.59896 0
M  V30 14294 H 1261.54 3.22686 -2.62387 0
M  V30 14295 H 1260.11 3.63359 -0.838134 0
M  V30 14296 N 1262.3 0.988223 1.22768 0
M  V30 14297 C 1263.24 0.534605 2.24523 0
M  V30 14298 C 1264.21 -0.430615 1.60421 0
M  V30 14299 O 1265.4 -0.336417 1.87811 0
M  V30 14300 C 1262.54 -0.149195 3.44777 0
M  V30 14301 C 1261.65 0.85721 4.2341 0
M  V30 14302 C 1260.79 0.147411 5.30995 0
M  V30 14303 C 1259.83 1.1425 6.01343 0
M  V30 14304 N 1258.96 0.461327 7.00583 0
M  V30 14305 H 1263.8 1.40708 2.62689 0
M  V30 14306 H 1261.34 0.704918 1.2911 0
M  V30 14307 H 1263.3 -0.562527 4.1339 0
M  V30 14308 H 1261.93 -0.985485 3.07389 0
M  V30 14309 H 1260.98 1.38889 3.54138 0
M  V30 14310 H 1262.29 1.61517 4.71926 0
M  V30 14311 H 1261.45 -0.32289 6.0584 0
M  V30 14312 H 1260.19 -0.643085 4.83442 0
M  V30 14313 H 1259.19 1.62348 5.25284 0
M  V30 14314 H 1260.42 1.93379 6.50985 0
M  V30 14315 H 1258.36 -0.309818 6.55268 0
M  V30 14316 H 1258.28 1.15781 7.47082 0
M  V30 14317 H 1259.55 0.0136734 7.79499 0
M  V30 14318 N 1263.78 -1.38018 0.760839 0
M  V30 14319 C 1264.74 -2.28734 0.146154 0
M  V30 14320 C 1265.74 -1.47525 -0.639768 0
M  V30 14321 O 1266.93 -1.6788 -0.464964 0
M  V30 14322 C 1264.06 -3.31356 -0.801019 0
M  V30 14323 H 1265.25 -2.84599 0.945692 0
M  V30 14324 H 1262.81 -1.471 0.528323 0
M  V30 14325 H 1263.54 -2.80594 -1.62597 0
M  V30 14326 H 1263.33 -3.91366 -0.239775 0
M  V30 14327 H 1264.82 -3.99171 -1.22687 0
M  V30 14328 N 1265.25 -0.510493 -1.49103 0
M  V30 14329 C 1266.48 0.0271718 -2.06882 0
M  V30 14330 C 1266.9 1.2995 -1.36962 0
M  V30 14331 O 1266.25 1.76842 -0.450916 0
M  V30 14332 C 1266.3 0.274956 -3.60453 0
M  V30 14333 O 1266.03 -0.946941 -4.27744 0
M  V30 14334 C 1267.53 0.855197 -4.34973 0
M  V30 14335 H 1264.75 -0.024732 -0.670544 0
M  V30 14336 H 1267.29 -0.710567 -1.91758 0
M  V30 14337 H 1265.45 0.962696 -3.75248 0
M  V30 14338 H 1265.86 -0.715627 -5.19595 0
M  V30 14339 H 1267.33 0.978103 -5.43265 0
M  V30 14340 H 1267.81 1.85535 -3.98087 0
M  V30 14341 H 1268.42 0.204632 -4.24807 0
M  V30 14342 N 1266.73 1.55688 -0.24474 0
M  V30 14343 C 1267.64 2.24933 0.666519 0
M  V30 14344 C 1268.66 1.26471 1.19503 0
M  V30 14345 O 1269.83 1.59342 1.23176 0
M  V30 14346 C 1266.9 2.9336 1.84772 0
M  V30 14347 C 1265.96 4.07225 1.35889 0
M  V30 14348 C 1265.19 4.72381 2.48379 0
M  V30 14349 O 1265.42 4.36605 3.67059 0
M  V30 14350 O 1264.35 5.60933 2.18261 0
M  V30 14351 H 1268.18 3.03513 0.106507 0
M  V30 14352 H 1265.76 1.49394 -0.0133309 0
M  V30 14353 H 1267.64 3.36468 2.53708 0
M  V30 14354 H 1266.32 2.17721 2.39539 0
M  V30 14355 H 1265.22 3.68639 0.636881 0
M  V30 14356 H 1266.56 4.84676 0.857333 0
M  V30 14357 N 1268.21 -0.0283989 1.57574 0
M  V30 14358 C 1269.43 -0.734537 1.93957 0
M  V30 14359 C 1269.86 -1.68062 0.844787 0
M  V30 14360 O 1269.22 -1.802 -0.199432 0
M  V30 14361 C 1269.27 -1.46716 3.29404 0
M  V30 14362 O 1268.37 -2.58036 3.217 0
M  V30 14363 H 1267.71 -0.197507 0.633946 0
M  V30 14364 H 1270.24 0.0163258 2.04593 0
M  V30 14365 H 1270.25 -1.83693 3.64309 0
M  V30 14366 H 1268.93 -0.773292 4.08648 0
M  V30 14367 H 1267.5 -2.23597 2.98427 0
M  V30 14368 N 1269.69 -1.54705 -0.300681 0
M  V30 14369 C 1270.93 -1.74001 -1.03585 0
M  V30 14370 C 1271.26 -0.525972 -1.87253 0
M  V30 14371 O 1270.52 0.492068 -1.89413 0
M  V30 14372 C 1270.82 -2.98173 -1.97047 0
M  V30 14373 C 1270.48 -4.31948 -1.29352 0
M  V30 14374 C 1269.14 -4.68312 -1.10623 0
M  V30 14375 C 1271.5 -5.14874 -0.809594 0
M  V30 14376 C 1268.82 -5.85181 -0.42185 0
M  V30 14377 C 1271.18 -6.32447 -0.138935 0
M  V30 14378 C 1269.84 -6.67473 0.0603129 0
M  V30 14379 H 1269.11 -0.636716 -0.379044 0
M  V30 14380 H 1271.76 -1.88963 -0.310697 0
M  V30 14381 H 1270.06 -2.77994 -2.76091 0
M  V30 14382 H 1271.76 -3.10297 -2.54001 0
M  V30 14383 H 1268.35 -4.0335 -1.44937 0
M  V30 14384 H 1272.53 -4.87278 -0.942006 0
M  V30 14385 H 1267.79 -6.10862 -0.256494 0
M  V30 14386 H 1271.96 -6.95973 0.243939 0
M  V30 14387 H 1269.59 -7.57887 0.592626 0
M  V30 14388 N 1271.17 0.563888 -1.47167 0
M  V30 14389 C 1272.41 1.32331 -1.53676 0
M  V30 14390 C 1272.75 1.93213 -0.195593 0
M  V30 14391 O 1272.02 1.77508 0.795068 0
M  V30 14392 C 1272.3 2.43848 -2.64972 0
M  V30 14393 C 1272.16 1.8788 -4.08682 0
M  V30 14394 C 1273.48 3.45809 -2.72221 0
M  V30 14395 H 1270.59 0.479791 -0.559437 0
M  V30 14396 H 1273.24 0.631669 -1.79192 0
M  V30 14397 H 1271.39 3.02846 -2.43345 0
M  V30 14398 H 1273.06 1.33195 -4.41652 0
M  V30 14399 H 1271.3 1.18593 -4.17275 0
M  V30 14400 H 1271.97 2.68465 -4.82318 0
M  V30 14401 H 1274.45 2.9672 -2.91713 0
M  V30 14402 H 1273.32 4.21272 -3.51882 0
M  V30 14403 H 1273.59 4.04236 -1.79014 0
M  V30 14404 N 1272.64 1.35187 0.810078 0
M  V30 14405 C 1273.58 1.23673 1.92971 0
M  V30 14406 C 1274.59 0.160819 1.62004 0
M  V30 14407 O 1275.78 0.413793 1.73638 0
M  V30 14408 C 1272.88 0.880887 3.27252 0
M  V30 14409 C 1272.05 2.05444 3.86149 0
M  V30 14410 C 1271.11 1.67494 4.98831 0
M  V30 14411 O 1270.14 2.39322 5.16443 0
M  V30 14412 N 1271.34 0.596539 5.77427 0
M  V30 14413 H 1274.1 2.20133 2.03376 0
M  V30 14414 H 1271.66 1.2831 0.987322 0
M  V30 14415 H 1273.66 0.608556 4.00098 0
M  V30 14416 H 1272.23 0.00607926 3.12599 0
M  V30 14417 H 1271.45 2.49077 3.05539 0
M  V30 14418 H 1272.73 2.83898 4.22231 0
M  V30 14419 H 1272.13 -0.000312591 5.657 0
M  V30 14420 H 1270.69 0.383979 6.50668 0
M  V30 14421 N 1274.12 -1.03182 1.19127 0
M  V30 14422 C 1275.06 -2.10977 0.869702 0
M  V30 14423 C 1276.03 -1.61687 -0.172032 0
M  V30 14424 O 1277.22 -1.88436 -0.0490025 0
M  V30 14425 C 1274.34 -3.37359 0.301049 0
M  V30 14426 C 1273.39 -4.05515 1.32137 0
M  V30 14427 S 1274.22 -4.51415 2.88071 0
M  V30 14428 C 1275.38 -5.81018 2.32741 0
M  V30 14429 H 1275.61 -2.37929 1.78261 0
M  V30 14430 H 1273.15 -1.16079 1.01809 0
M  V30 14431 H 1275.1 -4.10495 -0.0205205 0
M  V30 14432 H 1273.76 -3.08507 -0.590118 0
M  V30 14433 H 1272.96 -4.9639 0.872547 0
M  V30 14434 H 1272.56 -3.38536 1.58963 0
M  V30 14435 H 1274.85 -6.5542 1.71552 0
M  V30 14436 H 1275.79 -6.30677 3.21951 0
M  V30 14437 H 1276.2 -5.36549 1.75429 0
M  V30 14438 N 1275.6 -0.99472 -1.22242 0
M  V30 14439 C 1276.83 -0.689096 -1.94769 0
M  V30 14440 C 1277.24 0.750597 -1.73674 0
M  V30 14441 O 1276.58 1.51836 -1.03399 0
M  V30 14442 C 1276.64 -0.917454 -3.47596 0
M  V30 14443 C 1276.31 -2.34198 -3.92429 0
M  V30 14444 C 1277.3 -3.3216 -3.99957 0
M  V30 14445 C 1274.99 -2.6769 -4.25026 0
M  V30 14446 C 1276.98 -4.61686 -4.3946 0
M  V30 14447 C 1274.67 -3.97435 -4.64208 0
M  V30 14448 C 1275.67 -4.94244 -4.71394 0
M  V30 14449 O 1275.36 -6.2167 -5.09688 0
M  V30 14450 H 1275.09 -0.253914 -0.626501 0
M  V30 14451 H 1277.64 -1.33271 -1.56294 0
M  V30 14452 H 1275.87 -0.21666 -3.86093 0
M  V30 14453 H 1277.56 -0.6068 -4.01339 0
M  V30 14454 H 1278.33 -3.07619 -3.74961 0
M  V30 14455 H 1274.21 -1.93039 -4.18637 0
M  V30 14456 H 1277.75 -5.37248 -4.44983 0
M  V30 14457 H 1273.65 -4.21765 -4.88656 0
M  V30 14458 H 1274.42 -6.25634 -5.27755 0
M  V30 14459 N 1277.08 1.37613 -0.768148 0
M  V30 14460 C 1278.3 2.04579 -0.340892 0
M  V30 14461 C 1278.73 1.57556 1.02751 0
M  V30 14462 O 1278.09 0.734151 1.65771 0
M  V30 14463 C 1278.13 3.58495 -0.389099 0
M  V30 14464 O 1277.24 4.07838 0.611741 0
M  V30 14465 H 1276.58 0.647246 -0.148216 0
M  V30 14466 H 1279.11 1.75999 -1.04333 0
M  V30 14467 H 1279.12 4.07263 -0.245116 0
M  V30 14468 H 1277.79 3.92076 -1.38742 0
M  V30 14469 H 1276.37 3.70399 0.431173 0
M  V30 14470 N 1278.56 0.518393 1.4883 0
M  V30 14471 C 1279.51 -0.270295 2.26392 0
M  V30 14472 C 1280.49 -0.9202 1.31989 0
M  V30 14473 O 1281.68 -0.824923 1.56601 0
M  V30 14474 C 1278.81 -1.32368 3.16755 0
M  V30 14475 C 1277.9 -0.679143 4.18627 0
M  V30 14476 N 1278.29 0.228392 5.05284 0
M  V30 14477 C 1276.59 -0.937712 4.36031 0
M  V30 14478 C 1277.29 0.599076 5.78607 0
M  V30 14479 N 1276.26 -0.0371273 5.43587 0
M  V30 14480 H 1280.07 0.428066 2.90766 0
M  V30 14481 H 1277.58 0.335632 1.58894 0
M  V30 14482 H 1279.58 -1.9023 3.70969 0
M  V30 14483 H 1278.24 -2.02354 2.53935 0
M  V30 14484 H 1279.25 0.600292 5.14409 0
M  V30 14485 H 1275.92 -1.62901 3.84408 0
M  V30 14486 H 1277.31 1.34256 6.5835 0
M  V30 14487 N 1280.03 -1.55556 0.252993 0
M  V30 14488 C 1280.94 -2.25283 -0.654581 0
M  V30 14489 C 1281.96 -1.27103 -1.18831 0
M  V30 14490 O 1283.14 -1.59993 -1.22329 0
M  V30 14491 C 1280.2 -2.94336 -1.83214 0
M  V30 14492 C 1279.26 -4.0794 -1.33728 0
M  V30 14493 C 1278.5 -4.73691 -2.45871 0
M  V30 14494 O 1278.72 -4.38545 -3.64738 0
M  V30 14495 O 1277.65 -5.62083 -2.15283 0
M  V30 14496 H 1281.48 -3.03565 -0.0904091 0
M  V30 14497 H 1279.06 -1.49385 0.0212535 0
M  V30 14498 H 1280.95 -3.37808 -2.5192 0
M  V30 14499 H 1279.62 -2.18989 -2.38381 0
M  V30 14500 H 1278.53 -3.68971 -0.617323 0
M  V30 14501 H 1279.86 -4.85124 -0.831617 0
M  V30 14502 N 1281.51 0.0200419 -1.57587 0
M  V30 14503 C 1282.74 0.719511 -1.93666 0
M  V30 14504 C 1283.15 1.68934 -0.85193 0
M  V30 14505 O 1282.49 1.8282 0.179593 0
M  V30 14506 C 1282.56 1.52382 -3.25607 0
M  V30 14507 C 1282.22 0.717784 -4.51328 0
M  V30 14508 C 1283.22 0.0141272 -5.19898 0
M  V30 14509 C 1280.9 0.669662 -4.97816 0
M  V30 14510 C 1282.9 -0.726853 -6.33242 0
M  V30 14511 C 1280.58 -0.0750577 -6.11054 0
M  V30 14512 C 1281.58 -0.772067 -6.78622 0
M  V30 14513 O 1281.27 -1.50468 -7.89693 0
M  V30 14514 H 1281 0.206681 -0.643629 0
M  V30 14515 H 1283.55 -0.0211203 -2.05389 0
M  V30 14516 H 1281.78 2.30848 -3.10236 0
M  V30 14517 H 1283.47 2.10675 -3.46945 0
M  V30 14518 H 1284.24 0.0422784 -4.84982 0
M  V30 14519 H 1280.12 1.20169 -4.45062 0
M  V30 14520 H 1283.66 -1.27143 -6.85916 0
M  V30 14521 H 1279.56 -0.1051 -6.45414 0
M  V30 14522 H 1280.33 -1.41929 -8.06101 0
M  V30 14523 N 1282.99 1.54862 0.292472 0
M  V30 14524 C 1284.24 1.74203 1.02458 0
M  V30 14525 C 1284.56 0.535398 1.87506 0
M  V30 14526 O 1283.83 -0.450164 1.90658 0
M  V30 14527 H 1282.41 0.642369 0.381276 0
M  V30 14528 H 1285.07 1.92232 0.321398 0
M  V30 14529 H 1284.17 2.63486 1.67277 0
M  V30 14530 N 1284.47 -0.556076 1.47464 0
M  V30 14531 C 1285.4 -1.67872 1.54578 0
M  V30 14532 C 1286.38 -1.57658 0.397853 0
M  V30 14533 O 1287.56 -1.785 0.605811 0
M  V30 14534 C 1284.69 -3.06122 1.44937 0
M  V30 14535 C 1283.74 -3.34778 2.64246 0
M  V30 14536 S 1284.57 -3.23909 4.26431 0
M  V30 14537 C 1285.73 -4.64651 4.19345 0
M  V30 14538 H 1285.96 -1.61583 2.49556 0
M  V30 14539 H 1283.49 -0.736985 1.35676 0
M  V30 14540 H 1285.45 -3.85866 1.40062 0
M  V30 14541 H 1284.11 -3.09876 0.513412 0
M  V30 14542 H 1283.3 -4.35569 2.53567 0
M  V30 14543 H 1282.91 -2.62655 2.66248 0
M  V30 14544 H 1285.2 -5.55625 3.87669 0
M  V30 14545 H 1286.14 -4.80386 5.20225 0
M  V30 14546 H 1286.55 -4.42751 3.50189 0
M  V30 14547 N 1285.95 -1.35615 -0.802897 0
M  V30 14548 C 1286.89 -1.28839 -1.91492 0
M  V30 14549 C 1287.86 -0.159621 -1.65331 0
M  V30 14550 O 1289.05 -0.343931 -1.87675 0
M  V30 14551 C 1286.19 -1.06999 -3.28093 0
M  V30 14552 C 1285.3 -2.28831 -3.66416 0
M  V30 14553 C 1284.44 -2.00111 -4.92066 0
M  V30 14554 C 1283.48 -3.17977 -5.23027 0
M  V30 14555 N 1282.61 -2.89009 -6.39858 0
M  V30 14556 H 1287.45 -2.2393 -1.96619 0
M  V30 14557 H 1284.99 -1.1131 -0.961687 0
M  V30 14558 H 1286.95 -0.923673 -4.06847 0
M  V30 14559 H 1285.58 -0.155684 -3.22424 0
M  V30 14560 H 1284.63 -2.54314 -2.82893 0
M  V30 14561 H 1285.94 -3.1683 -3.85253 0
M  V30 14562 H 1285.1 -1.82331 -5.78654 0
M  V30 14563 H 1283.84 -1.09402 -4.75271 0
M  V30 14564 H 1282.84 -3.3633 -4.34928 0
M  V30 14565 H 1284.07 -4.09493 -5.41749 0
M  V30 14566 H 1282.01 -2.00898 -6.24481 0
M  V30 14567 H 1281.93 -3.70544 -6.58964 0
M  V30 14568 H 1283.2 -2.74779 -7.29463 0
M  V30 14569 N 1287.43 1.02549 -1.19673 0
M  V30 14570 C 1288.66 1.79363 -1.02531 0
M  V30 14571 C 1289.06 1.84274 0.42893 0
M  V30 14572 O 1288.41 1.28813 1.30969 0
M  V30 14573 C 1288.47 3.2567 -1.52248 0
M  V30 14574 C 1288.13 3.44386 -3.00412 0
M  V30 14575 C 1289.13 3.34329 -3.98146 0
M  V30 14576 C 1286.81 3.70491 -3.39178 0
M  V30 14577 C 1288.81 3.50106 -5.3264 0
M  V30 14578 C 1286.5 3.85912 -4.7383 0
M  V30 14579 C 1287.49 3.75723 -5.70369 0
M  V30 14580 O 1287.18 3.90685 -7.02581 0
M  V30 14581 H 1286.91 0.571194 -0.361544 0
M  V30 14582 H 1289.47 1.30029 -1.59002 0
M  V30 14583 H 1287.7 3.76044 -0.901548 0
M  V30 14584 H 1289.39 3.8409 -1.31262 0
M  V30 14585 H 1290.15 3.14109 -3.69541 0
M  V30 14586 H 1286.03 3.77513 -2.64585 0
M  V30 14587 H 1289.58 3.42069 -6.07976 0
M  V30 14588 H 1285.47 4.05631 -5.02129 0
M  V30 14589 H 1286.24 4.07756 -7.09702 0
M  V30 14590 N 1288.9 1.00119 1.21713 0
M  V30 14591 C 1290.15 0.67713 1.89994 0
M  V30 14592 C 1290.47 -0.795149 1.78709 0
M  V30 14593 O 1291.67 -1.23113 2.41982 0
M  V30 14594 C 1290.13 1.16065 3.40671 0
M  V30 14595 C 1289.74 2.65874 3.60576 0
M  V30 14596 C 1291.48 0.911302 4.14603 0
M  V30 14597 C 1289.39 3.07785 5.04997 0
M  V30 14598 H 1288.32 0.249572 0.711498 0
M  V30 14599 H 1290.97 1.21185 1.37792 0
M  V30 14600 H 1289.35 0.554005 3.92106 0
M  V30 14601 H 1290.52 3.31954 3.19598 0
M  V30 14602 H 1288.84 2.88781 2.99991 0
M  V30 14603 H 1291.44 1.20004 5.2106 0
M  V30 14604 H 1291.78 -0.152495 4.16021 0
M  V30 14605 H 1292.31 1.48055 3.69222 0
M  V30 14606 H 1289.05 4.13376 5.08724 0
M  V30 14607 H 1288.57 2.46414 5.46846 0
M  V30 14608 H 1290.25 2.99552 5.73479 0
M  V30 14609 N 1290.38 -1.37203 0.775435 0
M  V30 14610 C 1291.33 -2.27584 0.137667 0
M  V30 14611 C 1292.32 -1.46281 -0.670135 0
M  V30 14612 O 1293.51 -1.688 -0.532503 0
M  V30 14613 C 1290.64 -3.3528 -0.73773 0
M  V30 14614 C 1289.72 -4.24028 0.078102 0
M  V30 14615 N 1290.11 -4.93117 1.1256 0
M  V30 14616 C 1288.41 -4.45763 -0.145295 0
M  V30 14617 C 1289.11 -5.58656 1.62107 0
M  V30 14618 N 1288.09 -5.3554 0.932622 0
M  V30 14619 H 1291.89 -2.78475 0.93961 0
M  V30 14620 H 1289.4 -1.50364 0.613544 0
M  V30 14621 H 1291.4 -3.98941 -1.21043 0
M  V30 14622 H 1290.06 -2.85944 -1.53838 0
M  V30 14623 H 1291.07 -4.95465 1.50781 0
M  V30 14624 H 1287.75 -4.07292 -0.917557 0
M  V30 14625 H 1289.14 -6.23866 2.49482 0
M  V30 14626 N 1291.86 -0.526279 -1.48553 0
M  V30 14627 C 1292.79 0.2857 -2.26404 0
M  V30 14628 C 1293.77 0.948104 -1.32098 0
M  V30 14629 O 1294.95 0.973228 -1.61433 0
M  V30 14630 C 1292.08 1.40432 -3.08215 0
M  V30 14631 C 1291.13 0.853705 -4.17869 0
M  V30 14632 S 1291.96 -0.275518 -5.34791 0
M  V30 14633 C 1293.12 0.845667 -6.20161 0
M  V30 14634 H 1293.35 -0.375004 -2.94925 0
M  V30 14635 H 1290.88 -0.311999 -1.51215 0
M  V30 14636 H 1292.84 2.04513 -3.55928 0
M  V30 14637 H 1291.5 2.03673 -2.39115 0
M  V30 14638 H 1290.69 1.69278 -4.74722 0
M  V30 14639 H 1290.3 0.289659 -3.72877 0
M  V30 14640 H 1292.59 1.74517 -6.54637 0
M  V30 14641 H 1293.53 0.315189 -7.07398 0
M  V30 14642 H 1293.94 1.1244 -5.53188 0
M  V30 14643 N 1293.34 1.5542 -0.261239 0
M  V30 14644 C 1294.58 1.99579 0.36002 0
M  V30 14645 C 1294.92 1.14933 1.56538 0
M  V30 14646 O 1294.19 0.216082 1.93296 0
M  V30 14647 C 1294.47 3.52078 0.755842 0
M  V30 14648 C 1294.33 4.47484 -0.455896 0
M  V30 14649 C 1295.65 4.10083 1.5975 0
M  V30 14650 H 1292.77 0.725554 0.129385 0
M  V30 14651 H 1295.41 1.86453 -0.365415 0
M  V30 14652 H 1293.56 3.63394 1.37393 0
M  V30 14653 H 1295.23 4.4813 -1.09441 0
M  V30 14654 H 1293.47 4.19714 -1.09646 0
M  V30 14655 H 1294.14 5.51834 -0.13539 0
M  V30 14656 H 1296.62 4.01957 1.07562 0
M  V30 14657 H 1295.5 5.17024 1.84329 0
M  V30 14658 H 1295.76 3.59438 2.57404 0
M  V30 14659 N 1294.82 -0.0116844 1.57596 0
M  V30 14660 C 1296.05 -0.70923 1.94045 0
M  V30 14661 C 1296.45 -1.6848 0.860877 0
M  V30 14662 O 1295.8 -1.82913 -0.169896 0
M  V30 14663 C 1295.86 -1.50653 3.2641 0
M  V30 14664 C 1295.52 -0.693838 4.51702 0
M  V30 14665 C 1296.52 0.0134445 5.19898 0
M  V30 14666 C 1294.2 -0.643252 4.98164 0
M  V30 14667 C 1296.2 0.760426 6.32848 0
M  V30 14668 C 1293.89 0.107462 6.11006 0
M  V30 14669 C 1294.88 0.808045 6.78203 0
M  V30 14670 O 1294.57 1.54654 7.88884 0
M  V30 14671 H 1294.3 -0.203265 0.644716 0
M  V30 14672 H 1296.86 0.0320123 2.05375 0
M  V30 14673 H 1295.09 -2.29199 3.11456 0
M  V30 14674 H 1296.78 -2.08832 3.48058 0
M  V30 14675 H 1297.54 -0.016558 4.84997 0
M  V30 14676 H 1293.42 -1.17807 4.45693 0
M  V30 14677 H 1296.97 1.30779 6.85232 0
M  V30 14678 H 1292.86 0.139327 6.4535 0
M  V30 14679 H 1293.63 1.46202 8.05337 0
M  V30 14680 N 1296.29 -1.55015 -0.284256 0
M  V30 14681 C 1297.71 -1.46603 -0.630845 0
M  V30 14682 C 1297.91 -0.67091 -1.90003 0
M  V30 14683 O 1296.97 -0.185266 -2.51819 0
M  V30 14684 C 1298.28 -2.9072 -0.768268 0
M  V30 14685 C 1299.83 -3.00866 -0.863061 0
M  V30 14686 C 1300.3 -4.46214 -1.03235 0
M  V30 14687 N 1301.79 -4.49994 -1.09815 0
M  V30 14688 C 1302.53 -5.5966 -1.24773 0
M  V30 14689 N 1302.02 -6.79215 -1.36523 0
M  V30 14690 N 1303.82 -5.4738 -1.27795 0
M  V30 14691 H 1295.97 -2.05171 0.549409 0
M  V30 14692 H 1298.23 -0.929915 0.184288 0
M  V30 14693 H 1297.94 -3.51575 0.0936899 0
M  V30 14694 H 1297.81 -3.39096 -1.65209 0
M  V30 14695 H 1300.2 -2.40114 -1.71549 0
M  V30 14696 H 1300.28 -2.5576 0.0451267 0
M  V30 14697 H 1299.92 -5.07564 -0.18462 0
M  V30 14698 H 1299.85 -4.88965 -1.95502 0
M  V30 14699 H 1302.34 -3.63869 -1.0202 0
M  V30 14700 H 1302.66 -7.58547 -1.47739 0
M  V30 14701 H 1301 -6.82048 -1.33548 0
M  V30 14702 H 1304.19 -4.52921 -1.18238 0
M  V30 14703 H 1304.37 -6.32892 -1.39109 0
M  V30 14704 N 1297.77 0.548248 -1.47757 0
M  V30 14705 C 1298.7 1.66409 -1.63799 0
M  V30 14706 C 1299.68 1.62973 -0.487211 0
M  V30 14707 O 1300.87 1.80455 -0.717612 0
M  V30 14708 C 1298 3.05035 -1.66046 0
M  V30 14709 C 1296.95 3.23322 -2.80441 0
M  V30 14710 C 1296.28 4.62824 -2.67765 0
M  V30 14711 C 1297.58 3.07837 -4.2194 0
M  V30 14712 H 1299.27 1.53239 -2.57212 0
M  V30 14713 H 1296.82 0.735783 -1.23783 0
M  V30 14714 H 1298.77 3.82951 -1.75859 0
M  V30 14715 H 1297.49 3.19185 -0.69199 0
M  V30 14716 H 1296.15 2.47816 -2.70153 0
M  V30 14717 H 1295.8 4.73786 -1.68927 0
M  V30 14718 H 1295.5 4.76007 -3.44515 0
M  V30 14719 H 1297.03 5.42864 -2.7952 0
M  V30 14720 H 1298.44 3.75563 -4.33157 0
M  V30 14721 H 1296.84 3.32525 -4.99547 0
M  V30 14722 H 1297.91 2.04474 -4.3968 0
M  V30 14723 N 1299.25 1.36039 0.795694 0
M  V30 14724 C 1300.5 1.29663 1.55023 0
M  V30 14725 C 1300.82 -0.125588 1.94595 0
M  V30 14726 O 1300.09 -1.06447 1.64456 0
M  V30 14727 H 1298.67 0.476962 0.574906 0
M  V30 14728 H 1301.33 1.70265 0.948471 0
M  V30 14729 H 1300.43 1.91982 2.46068 0
M  V30 14730 N 1300.73 -1.01913 1.20215 0
M  V30 14731 C 1301.66 -2.10043 0.89203 0
M  V30 14732 C 1302.64 -1.61861 -0.154873 0
M  V30 14733 O 1303.82 -1.88478 -0.0290135 0
M  V30 14734 C 1300.95 -3.37021 0.336813 0
M  V30 14735 C 1300 -4.0409 1.36431 0
M  V30 14736 S 1300.83 -4.48334 2.92843 0
M  V30 14737 C 1301.99 -5.78517 2.3889 0
M  V30 14738 H 1302.22 -2.36025 1.80775 0
M  V30 14739 H 1299.75 -1.14992 1.03035 0
M  V30 14740 H 1301.71 -4.10494 0.0230191 0
M  V30 14741 H 1300.37 -3.09115 -0.557363 0
M  V30 14742 H 1299.56 -4.95436 0.925147 0
M  V30 14743 H 1299.17 -3.36831 1.62545 0
M  V30 14744 H 1301.46 -6.53564 1.78494 0
M  V30 14745 H 1302.4 -6.27226 3.28623 0
M  V30 14746 H 1302.81 -5.34658 1.8111 0
M  V30 14747 N 1302.21 -1.00763 -1.2118 0
M  V30 14748 C 1303.45 -0.691826 -1.90316 0
M  V30 14749 C 1303.78 0.777678 -1.78276 0
M  V30 14750 O 1303.04 1.57962 -1.15526 0
M  V30 14751 C 1303.34 -1.06187 -3.41261 0
M  V30 14752 C 1303 -2.52608 -3.73497 0
M  V30 14753 C 1301.66 -2.92617 -3.82006 0
M  V30 14754 C 1304.02 -3.47442 -3.88502 0
M  V30 14755 C 1301.34 -4.26419 -4.02969 0
M  V30 14756 C 1303.7 -4.8092 -4.10973 0
M  V30 14757 C 1302.36 -5.20649 -4.17709 0
M  V30 14758 H 1301.63 -0.253157 -0.696414 0
M  V30 14759 H 1304.28 -1.26655 -1.43634 0
M  V30 14760 H 1302.58 -0.405428 -3.89697 0
M  V30 14761 H 1304.28 -0.795343 -3.93033 0
M  V30 14762 H 1300.87 -2.20603 -3.67468 0
M  V30 14763 H 1305.05 -3.17695 -3.81292 0
M  V30 14764 H 1300.31 -4.56767 -4.06416 0
M  V30 14765 H 1304.48 -5.54337 -4.21525 0
M  V30 14766 H 1302.11 -6.24343 -4.33705 0
M  V30 14767 N 1303.68 1.3679 -0.7827 0
M  V30 14768 C 1304.65 2.28472 -0.182525 0
M  V30 14769 C 1305.65 1.48524 0.616217 0
M  V30 14770 O 1306.84 1.68599 0.438197 0
M  V30 14771 C 1303.97 3.32588 0.748202 0
M  V30 14772 H 1305.16 2.83059 -0.99085 0
M  V30 14773 H 1302.72 1.46241 -0.551658 0
M  V30 14774 H 1303.45 2.83145 1.58112 0
M  V30 14775 H 1303.24 3.91698 0.177481 0
M  V30 14776 H 1304.73 4.01073 1.16321 0
M  V30 14777 N 1305.16 0.53415 1.48272 0
M  V30 14778 C 1306.09 -0.215037 2.32508 0
M  V30 14779 C 1307.07 -0.931083 1.42355 0
M  V30 14780 O 1308.26 -0.916051 1.71237 0
M  V30 14781 C 1305.39 -1.25985 3.23643 0
M  V30 14782 C 1304.34 -0.661692 4.22854 0
M  V30 14783 C 1303.67 -1.80946 5.03153 0
M  V30 14784 C 1304.97 0.369358 5.20992 0
M  V30 14785 H 1306.66 0.488158 2.95394 0
M  V30 14786 H 1304.21 0.236206 1.4205 0
M  V30 14787 H 1306.16 -1.79195 3.81402 0
M  V30 14788 H 1304.89 -1.99268 2.58766 0
M  V30 14789 H 1303.54 -0.151082 3.66289 0
M  V30 14790 H 1303.19 -2.53077 4.34696 0
M  V30 14791 H 1302.89 -1.41513 5.70305 0
M  V30 14792 H 1304.42 -2.34526 5.63764 0
M  V30 14793 H 1305.83 -0.0758076 5.7325 0
M  V30 14794 H 1304.23 0.681301 5.9622 0
M  V30 14795 H 1305.3 1.27363 4.67875 0
M  V30 14796 N 1306.64 -1.55279 0.269478 0
M  V30 14797 C 1307.59 -2.18984 -0.634838 0
M  V30 14798 C 1308.57 -1.15269 -1.12258 0
M  V30 14799 O 1309.77 -1.41103 -1.0686 0
M  V30 14800 C 1306.9 -2.91014 -1.82114 0
M  V30 14801 C 1305.98 -4.02011 -1.35084 0
M  V30 14802 N 1306.37 -5.02273 -0.596299 0
M  V30 14803 C 1304.67 -4.14979 -1.63427 0
M  V30 14804 C 1305.37 -5.80647 -0.349781 0
M  V30 14805 N 1304.35 -5.35749 -0.92057 0
M  V30 14806 H 1308.15 -2.93857 -0.0504516 0
M  V30 14807 H 1305.66 -1.62237 0.0727843 0
M  V30 14808 H 1307.66 -3.35098 -2.48022 0
M  V30 14809 H 1306.32 -2.1765 -2.40953 0
M  V30 14810 H 1307.33 -5.17324 -0.244188 0
M  V30 14811 H 1304.01 -3.52802 -2.23242 0
M  V30 14812 H 1305.4 -6.71419 0.254139 0
M  V30 14813 N 1308.12 0.00332656 -1.576 0
M  V30 14814 C 1309.34 0.703587 -1.95101 0
M  V30 14815 C 1309.77 1.66697 -0.871418 0
M  V30 14816 O 1309.13 1.80494 0.170739 0
M  V30 14817 C 1309.17 1.41457 -3.31696 0
M  V30 14818 O 1308.28 2.52885 -3.25765 0
M  V30 14819 H 1307.62 0.187396 -0.637008 0
M  V30 14820 H 1310.15 -0.0488727 -2.04542 0
M  V30 14821 H 1310.16 1.77874 -3.67185 0
M  V30 14822 H 1308.83 0.708182 -4.09826 0
M  V30 14823 H 1307.41 2.18821 -3.01947 0
M  V30 14824 N 1309.6 1.55164 0.276031 0
M  V30 14825 C 1310.54 1.87836 1.34113 0
M  V30 14826 C 1311.51 0.729562 1.4922 0
M  V30 14827 O 1312.7 0.980549 1.63676 0
M  V30 14828 C 1309.84 2.15313 2.69693 0
M  V30 14829 C 1308.95 3.42845 2.62833 0
M  V30 14830 C 1308.09 3.60038 3.90572 0
M  V30 14831 C 1307.13 4.81273 3.7821 0
M  V30 14832 N 1306.26 4.95139 4.97777 0
M  V30 14833 H 1311.1 2.78681 1.0555 0
M  V30 14834 H 1308.64 1.37976 0.510001 0
M  V30 14835 H 1310.6 2.29243 3.48573 0
M  V30 14836 H 1309.23 1.27706 2.96464 0
M  V30 14837 H 1308.28 3.37403 1.75679 0
M  V30 14838 H 1309.59 4.3186 2.49597 0
M  V30 14839 H 1308.75 3.73769 4.77893 0
M  V30 14840 H 1307.48 2.69203 4.06671 0
M  V30 14841 H 1306.49 4.67549 2.89271 0
M  V30 14842 H 1307.71 5.7354 3.63632 0
M  V30 14843 H 1305.66 4.07234 5.14292 0
M  V30 14844 H 1305.58 5.78194 4.8706 0
M  V30 14845 H 1306.85 5.13253 5.86679 0
M  V30 14846 N 1311.07 -0.540404 1.48045 0
M  V30 14847 C 1312.32 -1.2932 1.54787 0
M  V30 14848 C 1312.64 -1.94335 0.222109 0
M  V30 14849 O 1313.84 -2.70982 0.167675 0
M  V30 14850 C 1312.3 -2.34594 2.72935 0
M  V30 14851 C 1311.91 -1.75696 4.1211 0
M  V30 14852 C 1313.65 -3.10949 2.88982 0
M  V30 14853 C 1311.56 -2.78849 5.21534 0
M  V30 14854 H 1310.49 -0.486315 0.576206 0
M  V30 14855 H 1313.14 -0.571998 1.74357 0
M  V30 14856 H 1311.52 -3.09704 2.46778 0
M  V30 14857 H 1312.69 -1.06845 4.48242 0
M  V30 14858 H 1311.01 -1.11869 4.01091 0
M  V30 14859 H 1313.61 -3.88012 3.679 0
M  V30 14860 H 1313.95 -3.66173 1.98048 0
M  V30 14861 H 1314.48 -2.42953 3.1499 0
M  V30 14862 H 1311.22 -2.28459 6.144 0
M  V30 14863 H 1310.74 -3.46059 4.89901 0
M  V30 14864 H 1312.42 -3.4203 5.49203 0
M  V30 14865 N 1312.55 -1.36459 -0.788468 0
M  V30 14866 C 1313.8 -1.30935 -1.54867 0
M  V30 14867 C 1314.13 0.110916 -1.93883 0
M  V30 14868 O 1313.41 1.06452 -1.62783 0
M  V30 14869 C 1313.69 -2.23294 -2.8251 0
M  V30 14870 C 1313.54 -3.74022 -2.49856 0
M  V30 14871 C 1314.86 -2.14407 -3.84341 0
M  V30 14872 H 1311.98 -0.476958 -0.561854 0
M  V30 14873 H 1314.62 -1.67018 -0.905805 0
M  V30 14874 H 1312.77 -1.92652 -3.37369 0
M  V30 14875 H 1314.44 -4.15187 -2.01041 0
M  V30 14876 H 1312.69 -3.93411 -1.82785 0
M  V30 14877 H 1313.36 -4.34057 -3.41026 0
M  V30 14878 H 1315.83 -2.41381 -3.38932 0
M  V30 14879 H 1314.71 -2.81199 -4.71401 0
M  V30 14880 H 1314.97 -1.13166 -4.27371 0
M  V30 14881 N 1314.03 1.01274 -1.20754 0
M  V30 14882 C 1314.98 2.09894 -0.959852 0
M  V30 14883 C 1315.95 1.65726 0.111351 0
M  V30 14884 O 1317.13 1.90769 -0.0341721 0
M  V30 14885 C 1314.27 3.41126 -0.52223 0
M  V30 14886 C 1313.39 3.98749 -1.66202 0
M  V30 14887 C 1312.52 5.18057 -1.17432 0
M  V30 14888 C 1311.56 5.67772 -2.28694 0
M  V30 14889 N 1310.7 6.78338 -1.81114 0
M  V30 14890 H 1315.54 2.30416 -1.88977 0
M  V30 14891 H 1313.07 1.12989 -0.941906 0
M  V30 14892 H 1315.03 4.16451 -0.249799 0
M  V30 14893 H 1313.66 3.20665 0.370688 0
M  V30 14894 H 1312.71 3.20483 -2.04927 0
M  V30 14895 H 1314.03 4.31646 -2.49967 0
M  V30 14896 H 1313.18 6.00601 -0.858086 0
M  V30 14897 H 1311.92 4.86735 -0.306614 0
M  V30 14898 H 1310.92 4.8383 -2.61129 0
M  V30 14899 H 1312.15 6.01127 -3.15948 0
M  V30 14900 H 1310.09 6.48837 -0.966761 0
M  V30 14901 H 1310.01 7.10448 -2.58457 0
M  V30 14902 H 1311.28 7.64437 -1.52502 0
M  V30 14903 N 1315.51 1.01404 1.20644 0
M  V30 14904 C 1316.73 0.720839 1.9447 0
M  V30 14905 C 1317.16 -0.711711 1.74116 0
M  V30 14906 O 1316.52 -1.48938 1.03379 0
M  V30 14907 C 1316.57 1.05864 3.4471 0
M  V30 14908 O 1315.67 0.168901 4.12054 0
M  V30 14909 H 1315.01 0.267698 0.607646 0
M  V30 14910 H 1317.54 1.35672 1.53147 0
M  V30 14911 H 1317.55 1.00928 3.9532 0
M  V30 14912 H 1316.23 2.1024 3.58848 0
M  V30 14913 H 1314.8 0.275572 3.7188 0
M  V30 14914 N 1316.99 -1.36373 0.789944 0
M  V30 14915 C 1317.95 -2.28372 0.194639 0
M  V30 14916 C 1318.95 -1.48849 -0.608332 0
M  V30 14917 O 1320.14 -1.68829 -0.42925 0
M  V30 14918 C 1317.27 -3.3298 -0.730553 0
M  V30 14919 H 1318.47 -2.82529 1.00585 0
M  V30 14920 H 1316.02 -1.45946 0.559406 0
M  V30 14921 H 1316.75 -2.8398 -1.56608 0
M  V30 14922 H 1316.54 -3.91787 -0.156706 0
M  V30 14923 H 1318.03 -4.01684 -1.14192 0
M  V30 14924 N 1318.47 -0.542005 -1.47987 0
M  V30 14925 C 1319.71 -0.0144711 -2.04395 0
M  V30 14926 C 1320.07 1.30441 -1.40887 0
M  V30 14927 O 1321.27 1.91872 -1.88252 0
M  V30 14928 C 1319.54 0.0926282 -3.5728 0
M  V30 14929 S 1321.1 0.568487 -4.35102 0
M  V30 14930 H 1317.92 -0.0178299 -0.710776 0
M  V30 14931 H 1320.52 -0.725294 -1.81548 0
M  V30 14932 H 1319.22 -0.871888 -4.01032 0
M  V30 14933 H 1318.76 0.827468 -3.84599 0
M  V30 14934 H 1320.77 1.83092 -4.61185 0
M  V30 14935 N 1319.94 1.55134 -0.277709 0
M  V30 14936 C 1320.89 2.2263 0.608637 0
M  V30 14937 C 1321.86 1.20067 1.14774 0
M  V30 14938 O 1323.05 1.48617 1.19657 0
M  V30 14939 C 1320.19 2.95308 1.78571 0
M  V30 14940 C 1319.3 4.12595 1.28021 0
M  V30 14941 C 1318.43 4.7291 2.41929 0
M  V30 14942 C 1317.47 5.82386 1.88395 0
M  V30 14943 N 1316.61 6.36754 2.95786 0
M  V30 14944 H 1321.45 2.97988 0.0264138 0
M  V30 14945 H 1318.99 1.471 0.00127068 0
M  V30 14946 H 1320.94 3.35662 2.47764 0
M  V30 14947 H 1319.57 2.22368 2.33992 0
M  V30 14948 H 1318.63 3.77343 0.481297 0
M  V30 14949 H 1319.94 4.91537 0.848128 0
M  V30 14950 H 1319.09 5.15997 3.1911 0
M  V30 14951 H 1317.83 3.93251 2.88453 0
M  V30 14952 H 1316.84 5.38746 1.09694 0
M  V30 14953 H 1318.06 6.63916 1.42803 0
M  V30 14954 H 1316.01 5.59987 3.41687 0
M  V30 14955 H 1315.92 7.10975 2.57002 0
M  V30 14956 H 1317.19 6.845 3.72935 0
M  V30 14957 N 1321.42 0.00503138 1.57599 0
M  V30 14958 C 1322.35 -0.983586 2.11773 0
M  V30 14959 C 1323.33 -1.35518 1.02805 0
M  V30 14960 O 1324.52 -1.43804 1.30514 0
M  V30 14961 C 1321.65 -2.27383 2.62515 0
M  V30 14962 C 1320.6 -2.0437 3.76054 0
M  V30 14963 C 1319.93 -3.39451 4.1313 0
M  V30 14964 C 1321.23 -1.40223 5.03125 0
M  V30 14965 H 1322.92 -0.532501 2.94627 0
M  V30 14966 H 1320.47 -0.254696 1.4173 0
M  V30 14967 H 1322.42 -2.96903 2.99043 0
M  V30 14968 H 1321.14 -2.74614 1.7679 0
M  V30 14969 H 1319.8 -1.37275 3.39928 0
M  V30 14970 H 1319.45 -3.84395 3.24422 0
M  V30 14971 H 1319.15 -3.24868 4.89627 0
M  V30 14972 H 1320.68 -4.10279 4.52221 0
M  V30 14973 H 1322.09 -1.99708 5.37392 0
M  V30 14974 H 1320.49 -1.36112 5.8446 0
M  V30 14975 H 1321.56 -0.372073 4.8347 0
M  V30 14976 N 1322.9 -1.55308 -0.267798 0
M  V30 14977 C 1324.15 -1.76159 -0.998707 0
M  V30 14978 C 1324.47 -0.565573 -1.86095 0
M  V30 14979 O 1323.73 0.45178 -1.90414 0
M  V30 14980 C 1324.03 -3.02286 -1.90678 0
M  V30 14981 C 1323.69 -4.34594 -1.20161 0
M  V30 14982 C 1322.36 -4.70553 -1.00664 0
M  V30 14983 C 1324.71 -5.16475 -0.7002 0
M  V30 14984 C 1322.04 -5.85945 -0.297629 0
M  V30 14985 C 1324.39 -6.326 -0.00475187 0
M  V30 14986 C 1323.05 -6.67195 0.20188 0
M  V30 14987 H 1322.32 -0.644613 -0.365453 0
M  V30 14988 H 1324.97 -1.89579 -0.270545 0
M  V30 14989 H 1323.27 -2.83788 -2.70133 0
M  V30 14990 H 1324.97 -3.15615 -2.47362 0
M  V30 14991 H 1321.56 -4.06334 -1.36348 0
M  V30 14992 H 1325.75 -4.89167 -0.838435 0
M  V30 14993 H 1321 -6.11268 -0.126864 0
M  V30 14994 H 1325.18 -6.95299 0.39151 0
M  V30 14995 H 1322.8 -7.56459 0.753252 0
M  V30 14996 N 1324.38 0.532545 -1.4833 0
M  V30 14997 C 1325.62 1.28851 -1.56217 0
M  V30 14998 C 1325.95 1.93076 -0.234967 0
M  V30 14999 O 1325.21 1.79722 0.774508 0
M  V30 15000 C 1325.51 2.40117 -2.64724 0
M  V30 15001 C 1325.17 1.93562 -4.0724 0
M  V30 15002 C 1323.83 1.80583 -4.46031 0
M  V30 15003 C 1326.19 1.58349 -4.96563 0
M  V30 15004 C 1323.51 1.30722 -5.71952 0
M  V30 15005 C 1325.87 1.09951 -6.22972 0
M  V30 15006 C 1324.53 0.955866 -6.60621 0
M  V30 15007 H 1323.8 0.4715 -0.571637 0
M  V30 15008 H 1326.45 0.594564 -1.82036 0
M  V30 15009 H 1324.75 3.15171 -2.32754 0
M  V30 15010 H 1326.45 2.98252 -2.68042 0
M  V30 15011 H 1323.04 2.04614 -3.76605 0
M  V30 15012 H 1327.22 1.67237 -4.67274 0
M  V30 15013 H 1322.48 1.18286 -5.99849 0
M  V30 15014 H 1326.65 0.817736 -6.91582 0
M  V30 15015 H 1324.28 0.567302 -7.5808 0
M  V30 15016 N 1325.86 1.36875 0.78122 0
M  V30 15017 C 1327.1 1.30886 1.53466 0
M  V30 15018 C 1327.42 -0.107218 1.95306 0
M  V30 15019 O 1328.62 -0.289525 2.69952 0
M  V30 15020 C 1327.08 2.29688 2.77076 0
M  V30 15021 C 1326.69 3.76775 2.42373 0
M  V30 15022 C 1328.43 2.32692 3.55042 0
M  V30 15023 C 1326.34 4.67332 3.62428 0
M  V30 15024 H 1325.27 0.486408 0.576128 0
M  V30 15025 H 1327.92 1.62283 0.856529 0
M  V30 15026 H 1326.3 1.91296 3.4673 0
M  V30 15027 H 1327.48 4.2395 1.80563 0
M  V30 15028 H 1325.79 3.76625 1.77602 0
M  V30 15029 H 1328.39 2.97556 4.44257 0
M  V30 15030 H 1328.73 1.33779 3.94219 0
M  V30 15031 H 1329.26 2.69743 2.92375 0
M  V30 15032 H 1326 5.67339 3.2834 0
M  V30 15033 H 1325.52 4.24868 4.23376 0
M  V30 15034 H 1327.2 4.84005 4.29358 0
M  V30 15035 N 1327.33 -1.00632 1.21289 0
M  V30 15036 C 1328.26 -2.11238 0.995021 0
M  V30 15037 C 1329.24 -1.69914 -0.0795537 0
M  V30 15038 O 1330.43 -1.94035 0.0800152 0
M  V30 15039 C 1327.56 -3.42797 0.557475 0
M  V30 15040 C 1326.51 -3.97909 1.57646 0
M  V30 15041 C 1325.84 -5.25357 0.995197 0
M  V30 15042 C 1327.14 -4.30123 2.96297 0
M  V30 15043 H 1328.83 -2.29722 1.9201 0
M  V30 15044 H 1326.38 -1.10395 0.924602 0
M  V30 15045 H 1328.33 -4.19571 0.392236 0
M  V30 15046 H 1327.06 -3.24101 -0.403253 0
M  V30 15047 H 1325.72 -3.23254 1.72924 0
M  V30 15048 H 1325.36 -5.02993 0.026227 0
M  V30 15049 H 1325.06 -5.63196 1.67583 0
M  V30 15050 H 1326.59 -6.04777 0.841251 0
M  V30 15051 H 1328 -4.97744 2.8447 0
M  V30 15052 H 1326.4 -4.79101 3.61361 0
M  V30 15053 H 1327.47 -3.38454 3.47242 0
M  V30 15054 N 1328.81 -1.02043 -1.20104 0
M  V30 15055 C 1330.06 -0.711973 -1.89571 0
M  V30 15056 C 1330.39 0.758725 -1.79091 0
M  V30 15057 O 1329.64 1.56728 -1.17195 0
M  V30 15058 C 1329.94 -1.098 -3.40116 0
M  V30 15059 C 1329.61 -2.56555 -3.70797 0
M  V30 15060 C 1328.27 -2.96653 -3.78881 0
M  V30 15061 C 1330.62 -3.51543 -3.84795 0
M  V30 15062 C 1327.95 -4.30669 -3.98424 0
M  V30 15063 C 1330.3 -4.85252 -4.05849 0
M  V30 15064 C 1328.96 -5.2505 -4.12163 0
M  V30 15065 H 1328.23 -0.260529 -0.69369 0
M  V30 15066 H 1330.88 -1.28172 -1.42282 0
M  V30 15067 H 1329.19 -0.446738 -3.89245 0
M  V30 15068 H 1330.88 -0.836985 -3.92168 0
M  V30 15069 H 1327.47 -2.24488 -3.65107 0
M  V30 15070 H 1331.66 -3.21721 -3.77901 0
M  V30 15071 H 1326.91 -4.61052 -4.01548 0
M  V30 15072 H 1331.09 -5.58777 -4.15622 0
M  V30 15073 H 1328.71 -6.28908 -4.27059 0
M  V30 15074 N 1330.29 1.35952 -0.797165 0
M  V30 15075 C 1331.2 2.33726 -0.202271 0
M  V30 15076 C 1332.22 1.61415 0.649719 0
M  V30 15077 O 1333.39 1.93351 0.563686 0
M  V30 15078 C 1330.46 3.40612 0.64685 0
M  V30 15079 C 1329.52 4.28712 -0.224536 0
M  V30 15080 C 1328.75 5.30493 0.584153 0
M  V30 15081 O 1328.97 5.40599 1.81957 0
M  V30 15082 O 1327.91 6.01897 -0.0200239 0
M  V30 15083 H 1331.73 2.86383 -1.01087 0
M  V30 15084 H 1329.32 1.38557 -0.558768 0
M  V30 15085 H 1331.2 4.05944 1.1308 0
M  V30 15086 H 1329.88 2.90243 1.43321 0
M  V30 15087 H 1328.78 3.66394 -0.755415 0
M  V30 15088 H 1330.12 4.82454 -0.974603 0
M  V30 15089 N 1331.77 0.549846 1.47697 0
M  V30 15090 C 1332.73 -0.191427 2.28399 0
M  V30 15091 C 1333.73 -0.849533 1.36527 0
M  V30 15092 O 1334.92 -0.706526 1.59229 0
M  V30 15093 C 1332.05 -1.27907 3.15995 0
M  V30 15094 H 1333.25 0.517375 2.95404 0
M  V30 15095 H 1330.8 0.30651 1.53265 0
M  V30 15096 H 1331.53 -2.0205 2.53665 0
M  V30 15097 H 1331.32 -0.812066 3.83599 0
M  V30 15098 H 1332.81 -1.79992 3.76819 0
M  V30 15099 N 1333.25 -1.54984 0.285932 0
M  V30 15100 C 1334.47 -2.04239 -0.330774 0
M  V30 15101 C 1334.89 -1.16387 -1.48659 0
M  V30 15102 O 1334.25 -0.186255 -1.81547 0
M  V30 15103 C 1334.3 -3.52504 -0.801456 0
M  V30 15104 O 1334.02 -4.37014 0.30834 0
M  V30 15105 C 1335.52 -4.17692 -1.48487 0
M  V30 15106 H 1332.74 -0.666903 -0.0740351 0
M  V30 15107 H 1335.28 -2.00116 0.421178 0
M  V30 15108 H 1333.44 -3.57036 -1.50347 0
M  V30 15109 H 1333.85 -5.24471 -0.0553891 0
M  V30 15110 H 1335.33 -5.23004 -1.76552 0
M  V30 15111 H 1335.8 -3.66515 -2.41999 0
M  V30 15112 H 1336.41 -4.17193 -0.826428 0
M  V30 15113 N 1334.72 -0.0133892 -1.57594 0
M  V30 15114 C 1335.97 0.669624 -1.91426 0
M  V30 15115 C 1336.3 1.72675 -0.888656 0
M  V30 15116 O 1335.58 1.94288 0.0908138 0
M  V30 15117 C 1335.86 1.30051 -3.35796 0
M  V30 15118 C 1335.71 0.254021 -4.49082 0
M  V30 15119 C 1337.03 2.22297 -3.79832 0
M  V30 15120 H 1334.15 0.241958 -0.69615 0
M  V30 15121 H 1336.79 -0.0674278 -1.8988 0
M  V30 15122 H 1334.94 1.92871 -3.37243 0
M  V30 15123 H 1336.62 -0.375524 -4.59769 0
M  V30 15124 H 1334.86 -0.422267 -4.3174 0
M  V30 15125 H 1335.53 0.734756 -5.47088 0
M  V30 15126 H 1338.01 1.69481 -3.8002 0
M  V30 15127 H 1336.88 2.634 -4.81572 0
M  V30 15128 H 1337.14 3.10764 -3.14449 0
M  V30 15129 N 1336.2 1.55448 0.259558 0
M  V30 15130 C 1337.15 1.89248 1.32113 0
M  V30 15131 C 1338.12 0.745348 1.48438 0
M  V30 15132 O 1339.3 0.997854 1.62627 0
M  V30 15133 C 1336.44 2.18161 2.67394 0
M  V30 15134 C 1335.56 3.45614 2.59182 0
M  V30 15135 C 1334.69 3.6416 3.86731 0
M  V30 15136 C 1333.73 4.85258 3.73084 0
M  V30 15137 N 1332.87 5.00391 4.92497 0
M  V30 15138 H 1337.71 2.79785 1.02589 0
M  V30 15139 H 1335.25 1.38509 0.495338 0
M  V30 15140 H 1337.2 2.32927 3.46122 0
M  V30 15141 H 1335.83 1.30843 2.95093 0
M  V30 15142 H 1334.89 3.39248 1.72091 0
M  V30 15143 H 1336.2 4.34483 2.45002 0
M  V30 15144 H 1335.35 3.78817 4.73902 0
M  V30 15145 H 1334.09 2.73501 4.03793 0
M  V30 15146 H 1333.1 4.70591 2.84296 0
M  V30 15147 H 1334.32 5.77365 3.57528 0
M  V30 15148 H 1332.27 4.12666 5.09944 0
M  V30 15149 H 1332.18 5.83328 4.809 0
M  V30 15150 H 1333.45 5.19446 5.81202 0
M  V30 15151 N 1337.68 -0.524672 1.4861 0
M  V30 15152 C 1338.93 -1.27671 1.5615 0
M  V30 15153 C 1339.24 -1.94088 0.242709 0
M  V30 15154 O 1340.45 -2.70789 0.196407 0
M  V30 15155 C 1338.9 -2.31686 2.75408 0
M  V30 15156 C 1338.51 -1.71315 4.13951 0
M  V30 15157 C 1340.26 -3.07867 2.92264 0
M  V30 15158 C 1338.16 -2.73302 5.24462 0
M  V30 15159 H 1337.09 -0.480177 0.581332 0
M  V30 15160 H 1339.74 -0.553473 1.74954 0
M  V30 15161 H 1338.13 -3.07069 2.50049 0
M  V30 15162 H 1339.3 -1.02085 4.4935 0
M  V30 15163 H 1337.62 -1.07608 4.02255 0
M  V30 15164 H 1340.21 -3.84088 3.71995 0
M  V30 15165 H 1340.56 -3.64052 2.01921 0
M  V30 15166 H 1341.09 -2.39599 3.17549 0
M  V30 15167 H 1337.83 -2.21929 6.16788 0
M  V30 15168 H 1337.35 -3.40843 4.93544 0
M  V30 15169 H 1339.03 -3.36186 5.528 0
M  V30 15170 N 1339.16 -1.37287 -0.77395 0
M  V30 15171 C 1340.57 -1.18039 -1.0742 0
M  V30 15172 C 1340.77 -0.0150339 -2.01494 0
M  V30 15173 O 1339.83 0.645562 -2.44108 0
M  V30 15174 C 1341.14 -2.49808 -1.67382 0
M  V30 15175 C 1342.69 -2.5631 -1.7965 0
M  V30 15176 C 1343.17 -3.88204 -2.43025 0
M  V30 15177 N 1344.66 -3.89634 -2.50478 0
M  V30 15178 C 1345.39 -4.88437 -3.00361 0
M  V30 15179 N 1344.89 -5.97635 -3.50434 0
M  V30 15180 N 1346.68 -4.75843 -2.99215 0
M  V30 15181 H 1338.83 -2.11875 -0.149269 0
M  V30 15182 H 1341.1 -0.939203 -0.128846 0
M  V30 15183 H 1340.8 -3.35433 -1.05726 0
M  V30 15184 H 1340.68 -2.66737 -2.66704 0
M  V30 15185 H 1343.06 -1.71094 -2.40439 0
M  V30 15186 H 1343.14 -2.43266 -0.790894 0
M  V30 15187 H 1342.79 -4.73834 -1.82876 0
M  V30 15188 H 1342.72 -3.98551 -3.44187 0
M  V30 15189 H 1345.21 -3.10751 -2.15039 0
M  V30 15190 H 1345.52 -6.6898 -3.86893 0
M  V30 15191 H 1343.87 -6.01283 -3.48545 0
M  V30 15192 H 1347.06 -3.89656 -2.59395 0
M  V30 15193 H 1347.23 -5.52999 -3.37781 0
M  V30 15194 N 1340.64 0.999871 -1.21821 0
M  V30 15195 C 1341.88 1.73497 -1.0365 0
M  V30 15196 C 1342.21 1.90194 0.430271 0
M  V30 15197 O 1341.48 1.45655 1.31002 0
M  V30 15198 H 1340.06 0.642804 -0.380541 0
M  V30 15199 H 1342.72 1.20461 -1.53216 0
M  V30 15200 H 1341.81 2.73215 -1.50864 0
M  V30 15201 N 1342.11 1.02678 1.19562 0
M  V30 15202 C 1343.36 0.723086 1.89471 0
M  V30 15203 C 1343.69 -0.746269 1.79289 0
M  V30 15204 O 1342.97 -1.54322 1.18384 0
M  V30 15205 C 1343.25 1.17224 3.40486 0
M  V30 15206 C 1343.1 2.70266 3.5955 0
M  V30 15207 C 1344.42 0.751397 4.33638 0
M  V30 15208 H 1341.54 0.264155 0.688034 0
M  V30 15209 H 1344.18 1.27633 1.40747 0
M  V30 15210 H 1342.33 0.701544 3.82113 0
M  V30 15211 H 1344.01 3.25266 3.27108 0
M  V30 15212 H 1342.25 3.10758 3.02675 0
M  V30 15213 H 1342.92 2.96748 4.65451 0
M  V30 15214 H 1345.4 1.15621 3.99714 0
M  V30 15215 H 1344.27 1.09358 5.37896 0
M  V30 15216 H 1344.53 -0.346367 4.40741 0
M  V30 15217 N 1343.59 -1.35528 0.804364 0
M  V30 15218 C 1344.87 -1.93175 0.307049 0
M  V30 15219 C 1345.25 -1.73466 -1.20303 0
M  V30 15220 O 1344.6 -1.10235 -2.00151 0
M  V30 15221 C 1344.81 -3.41576 0.716018 0
M  V30 15222 C 1346.16 -4.18719 0.704242 0
M  V30 15223 O 1347.18 -3.50081 0.657423 0
M  V30 15224 O 1346.04 -5.41181 0.760601 0
M  V30 15225 H 1343.13 -0.823142 0.0797888 0
M  V30 15226 H 1345.68 -1.44617 0.887912 0
M  V30 15227 H 1344.45 -3.49642 1.75688 0
M  V30 15228 H 1344.07 -3.97448 0.109843 0
M  V30 15229 N 1345.07 -0.557671 -1.47404 0
M  V30 15230 C 1345.98 0.19289 -2.33806 0
M  V30 15231 C 1347 0.911424 -1.4822 0
M  V30 15232 O 1348.17 0.880214 -1.81147 0
M  V30 15233 C 1345.24 1.20937 -3.24923 0
M  V30 15234 C 1344.3 0.498209 -4.26399 0
M  V30 15235 C 1343.53 1.46626 -5.13163 0
M  V30 15236 O 1343.76 2.70111 -5.0239 0
M  V30 15237 O 1342.69 0.990497 -5.93694 0
M  V30 15238 H 1346.52 -0.515861 -2.99287 0
M  V30 15239 H 1344.1 -0.318283 -1.4597 0
M  V30 15240 H 1345.98 1.7961 -3.81206 0
M  V30 15241 H 1344.66 1.90003 -2.6207 0
M  V30 15242 H 1343.56 -0.129736 -3.73875 0
M  V30 15243 H 1344.9 -0.151015 -4.91968 0
M  V30 15244 N 1346.55 1.54831 -0.294147 0
M  V30 15245 C 1347.48 2.26226 0.57827 0
M  V30 15246 C 1348.46 1.25928 1.14351 0
M  V30 15247 O 1349.65 1.54687 1.17412 0
M  V30 15248 C 1346.78 2.99783 1.75349 0
M  V30 15249 C 1345.73 4.07171 1.31892 0
M  V30 15250 C 1345.06 4.68406 2.57876 0
M  V30 15251 C 1346.36 5.20313 0.455167 0
M  V30 15252 H 1348.05 2.99395 -0.0171936 0
M  V30 15253 H 1345.6 1.43997 -0.00970944 0
M  V30 15254 H 1347.55 3.48448 2.36986 0
M  V30 15255 H 1346.27 2.24181 2.37509 0
M  V30 15256 H 1344.93 3.59346 0.725653 0
M  V30 15257 H 1344.58 3.89451 3.18335 0
M  V30 15258 H 1344.28 5.40927 2.29502 0
M  V30 15259 H 1345.8 5.1983 3.20327 0
M  V30 15260 H 1347.22 5.64913 0.977026 0
M  V30 15261 H 1345.61 5.99512 0.265501 0
M  V30 15262 H 1346.68 4.82088 -0.521434 0
M  V30 15263 N 1348.03 0.0217466 1.57585 0
M  V30 15264 C 1349.28 -0.657793 1.90672 0
M  V30 15265 C 1349.59 -1.73713 0.899066 0
M  V30 15266 O 1350.8 -2.4728 1.12092 0
M  V30 15267 C 1349.25 -1.22124 3.38547 0
M  V30 15268 C 1348.86 -0.175575 4.47656 0
M  V30 15269 C 1350.6 -1.87771 3.80713 0
M  V30 15270 C 1348.51 -0.750239 5.86622 0
M  V30 15271 H 1347.44 -0.249459 0.711538 0
M  V30 15272 H 1350.09 0.0858449 1.83299 0
M  V30 15273 H 1348.47 -2.01625 3.40828 0
M  V30 15274 H 1349.65 0.596436 4.56924 0
M  V30 15275 H 1347.96 0.381715 4.14647 0
M  V30 15276 H 1350.56 -2.3171 4.81887 0
M  V30 15277 H 1350.9 -2.71737 3.1538 0
M  V30 15278 H 1351.44 -1.14971 3.80823 0
M  V30 15279 H 1348.17 0.0511222 6.5548 0
M  V30 15280 H 1347.69 -1.49091 5.80975 0
M  V30 15281 H 1349.37 -1.24225 6.34962 0
M  V30 15282 N 1349.51 -1.55583 -0.251311 0
M  V30 15283 C 1350.75 -1.76411 -0.977859 0
M  V30 15284 C 1351.07 -0.584857 -1.86651 0
M  V30 15285 O 1352.27 -0.676046 -2.62948 0
M  V30 15286 C 1350.73 -3.12302 -1.78872 0
M  V30 15287 C 1350.34 -4.37862 -0.947674 0
M  V30 15288 C 1352.08 -3.42471 -2.50827 0
M  V30 15289 C 1349.99 -5.64786 -1.75417 0
M  V30 15290 H 1348.92 -0.657628 -0.368839 0
M  V30 15291 H 1351.57 -1.82019 -0.232682 0
M  V30 15292 H 1349.95 -3.0079 -2.57569 0
M  V30 15293 H 1351.13 -4.60351 -0.203352 0
M  V30 15294 H 1349.44 -4.14996 -0.341666 0
M  V30 15295 H 1352.04 -4.34514 -3.11612 0
M  V30 15296 H 1352.38 -2.63592 -3.22219 0
M  V30 15297 H 1352.91 -3.55179 -1.79145 0
M  V30 15298 H 1349.65 -6.46474 -1.08407 0
M  V30 15299 H 1349.17 -5.46405 -2.47389 0
M  V30 15300 H 1350.85 -6.03881 -2.32242 0
M  V30 15301 N 1350.98 0.516783 -1.48886 0
M  V30 15302 C 1352.39 1.09856 -1.50959 0
M  V30 15303 C 1352.75 1.94092 -0.28681 0
M  V30 15304 O 1351.87 2.07774 0.604877 0
M  V30 15305 C 1352.47 1.999 -2.73542 0
M  V30 15306 C 1351.02 2.5327 -2.78444 0
M  V30 15307 C 1350.17 1.30526 -2.44659 0
M  V30 15308 H 1353.12 0.301415 -1.55811 0
M  V30 15309 H 1353.14 2.84373 -2.52809 0
M  V30 15310 H 1352.66 1.38564 -3.62521 0
M  V30 15311 H 1350.76 3.1829 -1.93707 0
M  V30 15312 H 1350.87 2.91502 -3.80215 0
M  V30 15313 H 1349.23 1.62536 -1.96097 0
M  V30 15314 H 1350.02 0.709223 -3.35894 0
M  V30 15315 N 1352.46 1.37696 0.766659 0
M  V30 15316 C 1353.71 1.33382 1.52765 0
M  V30 15317 C 1354.04 -0.0800569 1.94035 0
M  V30 15318 O 1353.32 -1.03848 1.64456 0
M  V30 15319 C 1353.6 2.2776 2.78922 0
M  V30 15320 C 1353.45 3.77949 2.43874 0
M  V30 15321 C 1354.77 2.20494 3.80881 0
M  V30 15322 H 1351.89 0.485836 0.554195 0
M  V30 15323 H 1354.53 1.68438 0.879119 0
M  V30 15324 H 1352.68 1.97994 3.34261 0
M  V30 15325 H 1354.35 4.18333 1.9441 0
M  V30 15326 H 1352.6 3.96269 1.76503 0
M  V30 15327 H 1353.27 4.39428 3.34077 0
M  V30 15328 H 1355.74 2.46742 3.35048 0
M  V30 15329 H 1354.62 2.88663 4.66867 0
M  V30 15330 H 1354.88 1.19951 4.25516 0
M  V30 15331 N 1353.94 -0.993397 1.22349 0
M  V30 15332 C 1354.87 -2.10171 1.01737 0
M  V30 15333 C 1355.85 -1.69989 -0.0615276 0
M  V30 15334 O 1357.04 -1.93939 0.100591 0
M  V30 15335 C 1354.17 -3.42186 0.593801 0
M  V30 15336 C 1353.12 -3.96215 1.61858 0
M  V30 15337 C 1352.45 -5.24272 1.05086 0
M  V30 15338 C 1353.75 -4.26956 3.00842 0
M  V30 15339 H 1355.44 -2.27673 1.94436 0
M  V30 15340 H 1352.99 -1.09408 0.936258 0
M  V30 15341 H 1354.94 -4.19131 0.436715 0
M  V30 15342 H 1353.66 -3.2451 -0.368855 0
M  V30 15343 H 1352.32 -3.21401 1.76343 0
M  V30 15344 H 1351.97 -5.02937 0.0795747 0
M  V30 15345 H 1351.67 -5.61387 1.73547 0
M  V30 15346 H 1353.19 -6.03851 0.905349 0
M  V30 15347 H 1354.61 -4.94699 2.89734 0
M  V30 15348 H 1353 -4.75242 3.66422 0
M  V30 15349 H 1354.07 -3.34752 3.50812 0
M  V30 15350 N 1355.42 -1.03311 -1.19015 0
M  V30 15351 C 1356.37 -0.611169 -2.24427 0
M  V30 15352 C 1357.36 0.358303 -1.65567 0
M  V30 15353 O 1358.57 0.22642 -1.7857 0
M  V30 15354 H 1354.94 -0.179393 -0.730289 0
M  V30 15355 H 1356.91 -1.51077 -2.57329 0
M  V30 15356 C 1355.66 0.0178126 -3.47695 0
M  V30 15357 H 1354.98 -0.71921 -3.93278 0
M  V30 15358 H 1356.42 0.275926 -4.23101 0
M  V30 15359 C 1354.88 1.26564 -3.12223 0
M  V30 15360 O 1355.41 2.35725 -3.25264 0
M  V30 15361 N 1353.62 1.15602 -2.66617 0
M  V30 15362 H 1353.17 0.267736 -2.56205 0
M  V30 15363 H 1353.12 1.99186 -2.43254 0
M  V30 15364 N 1356.9 1.35099 -0.81154 0
M  V30 15365 C 1357.86 2.28033 -0.230947 0
M  V30 15366 C 1358.86 1.49798 0.584575 0
M  V30 15367 O 1360.05 1.6949 0.402336 0
M  V30 15368 C 1357.18 3.341 0.677486 0
M  V30 15369 H 1358.37 2.80893 -1.05067 0
M  V30 15370 H 1355.93 1.45038 -0.582554 0
M  V30 15371 H 1356.66 2.86435 1.5207 0
M  V30 15372 H 1356.45 3.91986 0.0943563 0
M  V30 15373 H 1357.94 4.0345 1.07787 0
M  V30 15374 N 1358.37 0.56548 1.47106 0
M  V30 15375 C 1359.62 0.0445255 2.02451 0
M  V30 15376 C 1359.95 -1.30863 1.43893 0
M  V30 15377 O 1359.2 -1.8668 0.587274 0
M  V30 15378 C 1359.5 -0.0893776 3.57288 0
M  V30 15379 C 1359.17 1.19395 4.34805 0
M  V30 15380 C 1357.83 1.54558 4.55703 0
M  V30 15381 C 1360.18 2.04399 4.79448 0
M  V30 15382 C 1357.51 2.74557 5.18494 0
M  V30 15383 C 1359.86 3.23608 5.43563 0
M  V30 15384 C 1358.53 3.59074 5.62692 0
M  V30 15385 H 1357.8 0.016293 0.740821 0
M  V30 15386 H 1360.44 0.738657 1.76681 0
M  V30 15387 H 1358.75 -0.86653 3.82097 0
M  V30 15388 H 1360.45 -0.507943 3.9777 0
M  V30 15389 H 1357.04 0.910176 4.18824 0
M  V30 15390 H 1361.22 1.78539 4.63074 0
M  V30 15391 H 1356.48 3.02194 5.31497 0
M  V30 15392 H 1360.65 3.89755 5.77117 0
M  V30 15393 H 1358.28 4.5215 6.11117 0
M  V30 15394 N 1359.85 -1.54672 0.302354 0
M  V30 15395 C 1361.08 -2.05041 -0.311891 0
M  V30 15396 C 1361.5 -1.17814 -1.46634 0
M  V30 15397 O 1360.86 -0.182517 -1.80379 0
M  V30 15398 C 1360.91 -3.52831 -0.744489 0
M  V30 15399 O 1360.01 -3.68621 -1.84913 0
M  V30 15400 H 1359.35 -0.661255 -0.0603102 0
M  V30 15401 H 1361.88 -1.99711 0.444593 0
M  V30 15402 H 1361.89 -3.94708 -1.03293 0
M  V30 15403 H 1360.57 -4.1578 0.0999976 0
M  V30 15404 H 1359.15 -3.38649 -1.56113 0
M  V30 15405 N 1361.33 -0.0301034 -1.57571 0
M  V30 15406 C 1362.26 0.986212 -2.05789 0
M  V30 15407 C 1363.24 1.31682 -0.95387 0
M  V30 15408 O 1364.43 1.43332 -1.22427 0
M  V30 15409 C 1361.55 2.30598 -2.48077 0
M  V30 15410 C 1360.6 2.12991 -3.69509 0
M  V30 15411 S 1361.43 1.42782 -5.16114 0
M  V30 15412 C 1362.59 2.76126 -5.61699 0
M  V30 15413 H 1362.82 0.575769 -2.91671 0
M  V30 15414 H 1360.35 0.181613 -1.53328 0
M  V30 15415 H 1362.31 3.06469 -2.73107 0
M  V30 15416 H 1360.97 2.68775 -1.62539 0
M  V30 15417 H 1360.17 3.1056 -3.96949 0
M  V30 15418 H 1359.77 1.45263 -3.44637 0
M  V30 15419 H 1362.06 3.72361 -5.65998 0
M  V30 15420 H 1363 2.53349 -6.61226 0
M  V30 15421 H 1363.41 2.81418 -4.89351 0
M  V30 15422 N 1362.81 1.55714 0.243056 0
M  V30 15423 C 1363.76 1.90638 1.30099 0
M  V30 15424 C 1364.73 0.761049 1.47639 0
M  V30 15425 O 1365.91 1.01505 1.61559 0
M  V30 15426 C 1363.05 2.20985 2.65065 0
M  V30 15427 C 1362.16 3.48343 2.55501 0
M  V30 15428 C 1361.3 3.68241 3.82847 0
M  V30 15429 C 1360.34 4.89187 3.67916 0
M  V30 15430 N 1359.47 5.05586 4.87162 0
M  V30 15431 H 1364.31 2.80857 0.996155 0
M  V30 15432 H 1361.85 1.39027 0.480619 0
M  V30 15433 H 1363.81 2.36585 3.43632 0
M  V30 15434 H 1362.44 1.33966 2.93689 0
M  V30 15435 H 1361.49 3.41054 1.68483 0
M  V30 15436 H 1362.8 4.37057 2.4038 0
M  V30 15437 H 1361.96 3.83822 4.69857 0
M  V30 15438 H 1360.7 2.77768 4.00869 0
M  V30 15439 H 1359.7 4.7358 2.79289 0
M  V30 15440 H 1360.93 5.81124 3.51385 0
M  V30 15441 H 1358.87 4.18051 5.05538 0
M  V30 15442 H 1358.79 5.88395 4.74686 0
M  V30 15443 H 1360.06 5.25582 5.7566 0
M  V30 15444 N 1364.29 -0.50888 1.49158 0
M  V30 15445 C 1365.22 -1.62008 1.68154 0
M  V30 15446 C 1366.2 -1.61624 0.53025 0
M  V30 15447 O 1367.38 -1.78489 0.765205 0
M  V30 15448 C 1364.51 -3.00525 1.74075 0
M  V30 15449 C 1363.47 -3.15773 2.88915 0
M  V30 15450 C 1362.79 -4.55562 2.79942 0
M  V30 15451 C 1364.09 -2.96542 4.29953 0
M  V30 15452 H 1365.79 -1.46365 2.61185 0
M  V30 15453 H 1363.33 -0.702705 1.2569 0
M  V30 15454 H 1365.29 -3.78154 1.8595 0
M  V30 15455 H 1364.01 -3.17238 0.776373 0
M  V30 15456 H 1362.67 -2.40567 2.76628 0
M  V30 15457 H 1362.32 -4.6914 1.81429 0
M  V30 15458 H 1362.02 -4.66706 3.57015 0
M  V30 15459 H 1363.54 -5.35262 2.93814 0
M  V30 15460 H 1364.95 -3.63947 4.42963 0
M  V30 15461 H 1363.35 -3.19164 5.08187 0
M  V30 15462 H 1364.42 -1.92745 4.44946 0
M  V30 15463 N 1365.76 -1.381 -0.759346 0
M  V30 15464 C 1367.01 -1.33992 -1.5183 0
M  V30 15465 C 1367.34 0.0718172 -1.94367 0
M  V30 15466 O 1366.59 1.0477 -1.65293 0
M  V30 15467 C 1366.89 -2.23636 -2.78786 0
M  V30 15468 C 1366.56 -3.71703 -2.5524 0
M  V30 15469 C 1365.22 -4.12053 -2.48528 0
M  V30 15470 C 1367.57 -4.65455 -2.34523 0
M  V30 15471 C 1364.9 -5.44252 -2.19105 0
M  V30 15472 C 1367.25 -5.97905 -2.06622 0
M  V30 15473 C 1365.92 -6.37345 -1.98362 0
M  V30 15474 H 1365.19 -0.490311 -0.555587 0
M  V30 15475 H 1367.83 -1.70411 -0.873637 0
M  V30 15476 H 1366.14 -1.80253 -3.47874 0
M  V30 15477 H 1367.84 -2.17764 -3.36719 0
M  V30 15478 H 1364.43 -3.3971 -2.61333 0
M  V30 15479 H 1368.61 -4.35132 -2.38691 0
M  V30 15480 H 1363.87 -5.73758 -2.11214 0
M  V30 15481 H 1368.04 -6.70095 -1.89594 0
M  V30 15482 H 1365.67 -7.39706 -1.75328 0
M  V30 15483 N 1367.24 0.986894 -1.22875 0
M  V30 15484 C 1368.19 2.07811 -1.00416 0
M  V30 15485 C 1369.16 1.65925 0.0761734 0
M  V30 15486 O 1370.34 1.90654 -0.0746294 0
M  V30 15487 C 1367.48 3.39941 -0.594471 0
M  V30 15488 C 1366.6 3.95134 -1.74622 0
M  V30 15489 C 1365.73 5.1545 -1.28394 0
M  V30 15490 C 1364.77 5.62794 -2.40686 0
M  V30 15491 N 1363.91 6.74343 -1.95462 0
M  V30 15492 H 1368.75 2.26356 -1.93822 0
M  V30 15493 H 1366.29 1.10966 -0.965661 0
M  V30 15494 H 1368.24 4.15828 -0.338078 0
M  V30 15495 H 1366.87 3.21379 0.302587 0
M  V30 15496 H 1365.93 3.16064 -2.11679 0
M  V30 15497 H 1367.24 4.26247 -2.59066 0
M  V30 15498 H 1366.39 5.98646 -0.98529 0
M  V30 15499 H 1365.13 4.85975 -0.409789 0
M  V30 15500 H 1364.14 4.78182 -2.71333 0
M  V30 15501 H 1365.36 5.9429 -3.28627 0
M  V30 15502 H 1363.31 6.46641 -1.10417 0
M  V30 15503 H 1363.22 7.04806 -2.73469 0
M  V30 15504 H 1364.49 7.6103 -1.68683 0
M  V30 15505 N 1368.72 1.0394 1.18466 0
M  V30 15506 C 1369.67 0.59975 2.1997 0
M  V30 15507 C 1370.65 -0.357127 1.56887 0
M  V30 15508 O 1371.85 -0.176388 1.76119 0
M  V30 15509 C 1368.98 -0.0371434 3.4328 0
M  V30 15510 C 1368.06 0.942805 4.13488 0
M  V30 15511 N 1368.45 2.10936 4.59717 0
M  V30 15512 C 1366.75 0.768529 4.39329 0
M  V30 15513 C 1367.45 2.72829 5.1375 0
M  V30 15514 N 1366.43 2.00713 5.05188 0
M  V30 15515 H 1370.23 1.48875 2.53403 0
M  V30 15516 H 1367.74 0.907817 1.34657 0
M  V30 15517 H 1369.74 -0.369803 4.15257 0
M  V30 15518 H 1368.4 -0.921701 3.11343 0
M  V30 15519 H 1369.41 2.48831 4.54207 0
M  V30 15520 H 1366.09 -0.0660446 4.17448 0
M  V30 15521 H 1367.48 3.71684 5.59733 0
M  V30 15522 N 1370.2 -1.34667 0.818693 0
M  V30 15523 C 1371.48 -1.92838 0.327521 0
M  V30 15524 C 1371.86 -1.74732 -1.18457 0
M  V30 15525 O 1371.2 -1.12352 -1.98971 0
M  V30 15526 C 1371.41 -3.40797 0.752207 0
M  V30 15527 C 1372.76 -4.17948 0.748613 0
M  V30 15528 O 1373.79 -3.49364 0.694517 0
M  V30 15529 O 1372.64 -5.40344 0.817958 0
M  V30 15530 H 1369.74 -0.822249 0.0885148 0
M  V30 15531 H 1372.28 -1.43668 0.9032 0
M  V30 15532 H 1371.06 -3.47759 1.79387 0
M  V30 15533 H 1370.68 -3.97309 0.151992 0
M  V30 15534 N 1371.68 -0.573274 -1.46804 0
M  V30 15535 C 1372.59 0.168081 -2.33997 0
M  V30 15536 C 1373.6 0.895652 -1.49178 0
M  V30 15537 O 1374.78 0.860951 -1.8207 0
M  V30 15538 C 1371.84 1.17483 -3.26188 0
M  V30 15539 C 1370.9 0.452956 -4.26904 0
M  V30 15540 C 1370.14 1.41175 -5.1469 0
M  V30 15541 O 1370.36 2.64767 -5.05227 0
M  V30 15542 O 1369.29 0.927472 -5.94711 0
M  V30 15543 H 1373.12 -0.547576 -2.98723 0
M  V30 15544 H 1370.71 -0.333747 -1.45624 0
M  V30 15545 H 1372.59 1.75557 -3.8309 0
M  V30 15546 H 1371.26 1.87213 -2.6407 0
M  V30 15547 H 1370.17 -0.169383 -3.73716 0
M  V30 15548 H 1371.5 -0.203186 -4.9178 0
M  V30 15549 N 1373.15 1.5451 -0.310553 0
M  V30 15550 C 1374.12 2.2254 0.548489 0
M  V30 15551 C 1375.12 1.21456 1.05381 0
M  V30 15552 O 1376.31 1.46126 0.948311 0
M  V30 15553 C 1373.44 2.91927 1.76043 0
M  V30 15554 H 1374.63 2.99865 -0.0460306 0
M  V30 15555 H 1372.19 1.56179 -0.061487 0
M  V30 15556 H 1372.92 2.18706 2.39454 0
M  V30 15557 H 1372.71 3.66038 1.40564 0
M  V30 15558 H 1374.2 3.43797 2.37051 0
M  V30 15559 N 1374.63 0.0384594 1.57553 0
M  V30 15560 C 1375.57 -0.969185 2.077 0
M  V30 15561 C 1376.58 -1.2829 1.00227 0
M  V30 15562 O 1377.77 -1.24592 1.27824 0
M  V30 15563 C 1374.87 -2.29414 2.49444 0
M  V30 15564 C 1374.04 -2.16422 3.80106 0
M  V30 15565 C 1373.1 -3.31931 4.08299 0
M  V30 15566 O 1372.13 -3.08401 4.78412 0
M  V30 15567 N 1373.33 -4.56015 3.59208 0
M  V30 15568 H 1376.09 -0.541252 2.94772 0
M  V30 15569 H 1373.65 -0.148084 1.61221 0
M  V30 15570 H 1375.65 -3.05533 2.6539 0
M  V30 15571 H 1374.22 -2.63817 1.67688 0
M  V30 15572 H 1373.44 -1.24973 3.73866 0
M  V30 15573 H 1374.72 -2.04954 4.65694 0
M  V30 15574 H 1374.12 -4.78025 3.02503 0
M  V30 15575 H 1372.68 -5.29271 3.80415 0
M  V30 15576 N 1376.11 -1.55841 -0.234795 0
M  V30 15577 C 1377.07 -1.9051 -1.2743 0
M  V30 15578 C 1378.07 -0.782543 -1.40474 0
M  V30 15579 O 1379.26 -1.05043 -1.38966 0
M  V30 15580 C 1376.4 -2.14424 -2.65019 0
M  V30 15581 H 1377.59 -2.83471 -0.979003 0
M  V30 15582 H 1375.14 -1.48919 -0.47463 0
M  V30 15583 H 1375.88 -1.23972 -2.99669 0
M  V30 15584 H 1375.66 -2.96191 -2.56931 0
M  V30 15585 H 1377.15 -2.42388 -3.40056 0
M  V30 15586 N 1377.59 0.500963 -1.49426 0
M  V30 15587 C 1378.52 1.61114 -1.69011 0
M  V30 15588 C 1379.5 1.61341 -0.538813 0
M  V30 15589 O 1380.69 1.78081 -0.77466 0
M  V30 15590 C 1377.82 2.99598 -1.75666 0
M  V30 15591 C 1376.77 3.14236 -2.90585 0
M  V30 15592 C 1376.1 4.54071 -2.82354 0
M  V30 15593 C 1377.4 2.94258 -4.3152 0
M  V30 15594 H 1379.09 1.44978 -2.61957 0
M  V30 15595 H 1376.64 0.69603 -1.26061 0
M  V30 15596 H 1378.59 3.77163 -1.87953 0
M  V30 15597 H 1377.31 3.16822 -0.793186 0
M  V30 15598 H 1375.97 2.39096 -2.779 0
M  V30 15599 H 1375.62 4.68172 -1.83914 0
M  V30 15600 H 1375.32 4.64806 -3.59485 0
M  V30 15601 H 1376.84 5.33696 -2.96649 0
M  V30 15602 H 1378.26 3.61592 -4.44886 0
M  V30 15603 H 1376.65 3.16464 -5.09873 0
M  V30 15604 H 1377.72 1.90383 -4.45962 0
M  V30 15605 N 1379.07 1.38501 0.752011 0
M  V30 15606 C 1380 1.30236 1.87387 0
M  V30 15607 C 1380.98 0.179099 1.61611 0
M  V30 15608 O 1382.16 0.356686 1.85095 0
M  V30 15609 C 1379.29 1.01829 3.2303 0
M  V30 15610 C 1378.34 2.16114 3.67691 0
M  V30 15611 S 1379.17 3.78266 3.79044 0
M  V30 15612 C 1380.32 3.5205 5.17505 0
M  V30 15613 H 1380.56 2.25185 1.94111 0
M  V30 15614 H 1378.09 1.24356 0.915152 0
M  V30 15615 H 1380.05 0.861231 4.01364 0
M  V30 15616 H 1378.71 0.0859612 3.13982 0
M  V30 15617 H 1377.9 1.91788 4.66083 0
M  V30 15618 H 1377.5 2.27936 2.96515 0
M  V30 15619 H 1379.8 3.08262 6.03308 0
M  V30 15620 H 1380.74 4.49842 5.46853 0
M  V30 15621 H 1381.15 2.86528 4.86377 0
M  V30 15622 N 1380.55 -0.980364 1.23396 0
M  V30 15623 C 1381.49 -2.09401 1.01262 0
M  V30 15624 C 1382.49 -1.69331 -0.0483957 0
M  V30 15625 O 1383.69 -1.79693 0.105109 0
M  V30 15626 H 1380.07 -0.684969 0.310358 0
M  V30 15627 H 1382.04 -2.25236 1.95732 0
M  V30 15628 C 1380.79 -3.42118 0.620526 0
M  V30 15629 H 1380.11 -3.73402 1.42868 0
M  V30 15630 H 1381.55 -4.2098 0.505169 0
M  V30 15631 C 1380.01 -3.30146 -0.671208 0
M  V30 15632 O 1380.54 -3.62997 -1.72034 0
M  V30 15633 N 1378.75 -2.83303 -0.647137 0
M  V30 15634 H 1378.29 -2.56767 0.206957 0
M  V30 15635 H 1378.25 -2.75675 -1.51165 0
M  V30 15636 N 1382.02 -1.04567 -1.17913 0
M  V30 15637 C 1382.96 -0.599154 -2.2123 0
M  V30 15638 C 1383.97 0.333824 -1.59341 0
M  V30 15639 O 1385.16 0.127548 -1.78044 0
M  V30 15640 C 1382.26 0.144045 -3.38594 0
M  V30 15641 C 1381.43 -0.798061 -4.30058 0
M  V30 15642 C 1380.49 -0.0972548 -5.2611 0
M  V30 15643 O 1379.52 -0.729318 -5.64508 0
M  V30 15644 N 1380.72 1.16759 -5.68637 0
M  V30 15645 H 1383.48 -1.48781 -2.60162 0
M  V30 15646 H 1381.04 -0.926787 -1.32749 0
M  V30 15647 H 1383.04 0.622843 -3.99878 0
M  V30 15648 H 1381.61 0.934292 -2.98311 0
M  V30 15649 H 1380.83 -1.45662 -3.66301 0
M  V30 15650 H 1382.11 -1.43777 -4.88063 0
M  V30 15651 H 1381.51 1.70155 -5.39503 0
M  V30 15652 H 1380.07 1.59057 -6.32095 0
M  V30 15653 N 1383.5 1.34231 -0.825823 0
M  V30 15654 C 1384.45 2.29467 -0.247724 0
M  V30 15655 C 1385.42 1.53724 0.629127 0
M  V30 15656 O 1386.6 1.82082 0.570156 0
M  V30 15657 C 1383.74 3.40157 0.582012 0
M  V30 15658 C 1382.86 4.30832 -0.317406 0
M  V30 15659 C 1381.99 5.28627 0.522176 0
M  V30 15660 C 1381.03 6.10941 -0.376448 0
M  V30 15661 N 1380.17 7.00817 0.424232 0
M  V30 15662 H 1385.01 2.78311 -1.06521 0
M  V30 15663 H 1382.54 1.36956 -0.536788 0
M  V30 15664 H 1384.5 4.03021 1.07843 0
M  V30 15665 H 1383.13 2.92539 1.36459 0
M  V30 15666 H 1382.18 3.68805 -0.932054 0
M  V30 15667 H 1383.5 4.88503 -1.00826 0
M  V30 15668 H 1382.65 5.96957 1.08295 0
M  V30 15669 H 1381.39 4.71501 1.24652 0
M  V30 15670 H 1380.39 5.41542 -0.94934 0
M  V30 15671 H 1381.62 6.70149 -1.09895 0
M  V30 15672 H 1379.57 6.46156 1.1322 0
M  V30 15673 H 1379.48 7.55713 -0.208175 0
M  V30 15674 H 1380.75 7.7347 0.967664 0
M  V30 15675 N 1384.98 0.581051 1.46498 0
M  V30 15676 C 1385.93 -0.153147 2.30291 0
M  V30 15677 C 1386.9 -0.885681 1.40517 0
M  V30 15678 O 1388.08 -0.876678 1.69467 0
M  V30 15679 C 1385.22 -1.16193 3.24951 0
M  V30 15680 C 1384.33 -0.433016 4.29824 0
M  V30 15681 C 1383.47 -1.42918 5.11613 0
M  V30 15682 C 1382.51 -0.686576 6.08237 0
M  V30 15683 N 1381.65 -1.63072 6.829 0
M  V30 15684 H 1386.49 0.56747 2.92547 0
M  V30 15685 H 1384.02 0.29166 1.4418 0
M  V30 15686 H 1385.98 -1.75965 3.78275 0
M  V30 15687 H 1384.61 -1.85028 2.64508 0
M  V30 15688 H 1383.66 0.279707 3.7937 0
M  V30 15689 H 1384.97 0.147604 4.98582 0
M  V30 15690 H 1384.13 -2.09975 5.69206 0
M  V30 15691 H 1382.87 -2.04373 4.42813 0
M  V30 15692 H 1381.87 -0.00222013 5.498 0
M  V30 15693 H 1383.1 -0.0774416 6.79056 0
M  V30 15694 H 1381.04 -2.2334 6.1681 0
M  V30 15695 H 1380.96 -1.10286 7.47912 0
M  V30 15696 H 1382.23 -2.29169 7.45052 0
M  V30 15697 N 1386.46 -1.54343 0.318742 0
M  V30 15698 C 1387.4 -2.24166 -0.549397 0
M  V30 15699 C 1388.37 -1.23068 -1.1155 0
M  V30 15700 O 1389.56 -1.51737 -1.15674 0
M  V30 15701 C 1386.7 -2.99938 -1.70678 0
M  V30 15702 C 1385.81 -4.15844 -1.17037 0
M  V30 15703 C 1384.95 -4.79158 -2.29305 0
M  V30 15704 C 1383.99 -5.87176 -1.72888 0
M  V30 15705 N 1383.12 -6.44372 -2.78799 0
M  V30 15706 H 1387.96 -2.97954 0.0526018 0
M  V30 15707 H 1385.5 -1.47052 0.0377307 0
M  V30 15708 H 1387.46 -3.42113 -2.38777 0
M  V30 15709 H 1386.09 -2.28494 -2.28014 0
M  V30 15710 H 1385.14 -3.78486 -0.381082 0
M  V30 15711 H 1386.45 -4.93612 -0.717507 0
M  V30 15712 H 1385.61 -5.24277 -3.05317 0
M  V30 15713 H 1384.35 -4.0076 -2.77926 0
M  V30 15714 H 1383.35 -5.41465 -0.953714 0
M  V30 15715 H 1384.58 -6.67469 -1.2515 0
M  V30 15716 H 1382.52 -5.6885 -3.2672 0
M  V30 15717 H 1382.44 -7.17539 -2.38062 0
M  V30 15718 H 1383.71 -6.94147 -3.54655 0
M  V30 15719 N 1387.94 -0.0468143 -1.5753 0
M  V30 15720 C 1388.85 0.944362 -2.14753 0
M  V30 15721 C 1389.86 1.34473 -1.10422 0
M  V30 15722 O 1391.04 1.42254 -1.42569 0
M  V30 15723 C 1388.1 2.2023 -2.67768 0
M  V30 15724 C 1387.16 1.8607 -3.8688 0
M  V30 15725 C 1386.4 3.05867 -4.37357 0
M  V30 15726 O 1386.62 4.19099 -3.86927 0
M  V30 15727 O 1385.55 2.87134 -5.28997 0
M  V30 15728 H 1389.38 0.48772 -2.99758 0
M  V30 15729 H 1386.96 0.174831 -1.48374 0
M  V30 15730 H 1388.85 2.94044 -3.01855 0
M  V30 15731 H 1387.52 2.65041 -1.85836 0
M  V30 15732 H 1386.43 1.09586 -3.5769 0
M  V30 15733 H 1387.76 1.46062 -4.70028 0
M  V30 15734 N 1389.41 1.55964 0.226527 0
M  V30 15735 C 1390.64 1.83168 0.972846 0
M  V30 15736 C 1391.06 0.626512 1.7736 0
M  V30 15737 O 1390.42 -0.42468 1.76256 0
M  V30 15738 C 1390.47 3.08315 1.87014 0
M  V30 15739 O 1389.57 2.8666 2.96479 0
M  V30 15740 H 1388.92 0.604041 0.275736 0
M  V30 15741 H 1391.45 2.03172 0.241345 0
M  V30 15742 H 1391.46 3.38288 2.28091 0
M  V30 15743 H 1390.13 3.95663 1.28154 0
M  V30 15744 H 1388.71 2.67907 2.59384 0
M  V30 15745 N 1390.89 -0.493031 1.4969 0
M  V30 15746 C 1391.82 -1.60215 1.69863 0
M  V30 15747 C 1392.8 -1.61053 0.547362 0
M  V30 15748 O 1393.99 -1.77667 0.784093 0
M  V30 15749 C 1391.12 -2.98662 1.77252 0
M  V30 15750 C 1390.07 -3.1269 2.92248 0
M  V30 15751 C 1389.4 -4.52567 2.84758 0
M  V30 15752 C 1390.7 -2.91965 4.33074 0
M  V30 15753 H 1392.39 -1.43587 2.62723 0
M  V30 15754 H 1389.94 -0.689334 1.26429 0
M  V30 15755 H 1391.89 -3.7616 1.89951 0
M  V30 15756 H 1390.62 -3.16397 0.809976 0
M  V30 15757 H 1389.27 -2.37619 2.79164 0
M  V30 15758 H 1388.92 -4.6719 1.86394 0
M  V30 15759 H 1388.62 -4.62893 3.61944 0
M  V30 15760 H 1390.15 -5.32116 2.99475 0
M  V30 15761 H 1391.56 -3.59228 4.46798 0
M  V30 15762 H 1389.96 -3.13756 5.11544 0
M  V30 15763 H 1391.03 -1.88015 4.46966 0
M  V30 15764 N 1392.37 -1.38898 -0.744656 0
M  V30 15765 C 1393.28 -1.39098 -1.88915 0
M  V30 15766 C 1394.3 -0.286956 -1.71617 0
M  V30 15767 O 1395.47 -0.526852 -1.94387 0
M  V30 15768 C 1392.54 -1.22352 -3.24393 0
M  V30 15769 C 1391.6 -2.4264 -3.54153 0
M  V30 15770 C 1390.83 -2.26683 -4.83167 0
M  V30 15771 O 1391.05 -1.26523 -5.56191 0
M  V30 15772 O 1389.99 -3.15464 -5.12607 0
M  V30 15773 H 1393.81 -2.35551 -1.91701 0
M  V30 15774 H 1391.4 -1.19911 -0.891158 0
M  V30 15775 H 1393.28 -1.15109 -4.05374 0
M  V30 15776 H 1391.96 -0.289886 -3.22399 0
M  V30 15777 H 1390.86 -2.55459 -2.73298 0
M  V30 15778 H 1392.2 -3.34664 -3.60917 0
M  V30 15779 N 1393.85 0.973806 -1.23914 0
M  V30 15780 C 1394.8 2.08861 -1.02372 0
M  V30 15781 C 1395.79 1.69354 0.039415 0
M  V30 15782 O 1397 1.79635 -0.114637 0
M  V30 15783 H 1393.37 0.683313 -0.313986 0
M  V30 15784 H 1395.34 2.24195 -1.96924 0
M  V30 15785 C 1394.09 3.41784 -0.638661 0
M  V30 15786 H 1393.41 3.72639 -1.44846 0
M  V30 15787 H 1394.85 4.20706 -0.527487 0
M  V30 15788 C 1393.31 3.30497 0.65369 0
M  V30 15789 O 1393.84 3.63905 1.70107 0
M  V30 15790 N 1392.05 2.83642 0.632104 0
M  V30 15791 H 1391.6 2.56654 -0.220571 0
M  V30 15792 H 1391.55 2.76472 1.49701 0
M  V30 15793 N 1395.33 1.05191 1.17357 0
M  V30 15794 C 1396.27 0.646796 2.23426 0
M  V30 15795 C 1397.27 -0.331918 1.66116 0
M  V30 15796 O 1398.47 -0.197982 1.78908 0
M  V30 15797 H 1394.85 0.190988 0.727343 0
M  V30 15798 H 1396.82 1.55152 2.54893 0
M  V30 15799 C 1395.57 0.037505 3.4768 0
M  V30 15800 H 1394.89 0.781686 3.92084 0
M  V30 15801 H 1396.33 -0.20858 4.23487 0
M  V30 15802 C 1394.79 -1.21581 3.14197 0
M  V30 15803 O 1395.32 -2.3052 3.28973 0
M  V30 15804 N 1393.53 -1.11346 2.68422 0
M  V30 15805 H 1393.07 -0.226943 2.56598 0
M  V30 15806 H 1393.03 -1.95291 2.46392 0
M  V30 15807 N 1396.8 -1.33791 0.83293 0
M  V30 15808 C 1398.08 -1.9248 0.347955 0
M  V30 15809 C 1398.46 -1.75978 -1.16597 0
M  V30 15810 O 1397.81 -1.14456 -1.97768 0
M  V30 15811 C 1398.02 -3.3998 0.78831 0
M  V30 15812 C 1399.37 -4.17131 0.7929 0
M  V30 15813 O 1400.39 -3.48607 0.731533 0
M  V30 15814 O 1399.25 -5.39446 0.875223 0
M  V30 15815 H 1396.34 -0.821264 0.0972309 0
M  V30 15816 H 1398.89 -1.42702 0.918387 0
M  V30 15817 H 1397.66 -3.45836 1.83065 0
M  V30 15818 H 1397.29 -3.97126 0.194123 0
M  V30 15819 N 1398.28 -0.588812 -1.46187 0
M  V30 15820 C 1399.53 -0.0765765 -2.01955 0
M  V30 15821 C 1399.85 1.29034 -1.46203 0
M  V30 15822 O 1399.12 1.84836 -0.649044 0
M  V30 15823 H 1397.7 -0.025318 -0.746571 0
M  V30 15824 H 1400.36 -0.765971 -1.79217 0
M  V30 15825 H 1399.46 -0.0121702 -3.12098 0
M  V30 15826 N 1399.76 1.54172 -0.326923 0
M  V30 15827 C 1400.72 2.2311 0.524855 0
M  V30 15828 C 1401.72 1.22567 1.04087 0
M  V30 15829 O 1402.91 1.47123 0.932759 0
M  V30 15830 C 1400.05 2.93778 1.72937 0
M  V30 15831 H 1401.24 2.99799 -0.0778327 0
M  V30 15832 H 1398.79 1.56105 -0.0780484 0
M  V30 15833 H 1399.53 2.21234 2.3712 0
M  V30 15834 H 1399.31 3.67509 1.36674 0
M  V30 15835 H 1400.8 3.46292 2.33392 0
M  V30 15836 N 1401.24 0.0551678 1.57503 0
M  V30 15837 C 1402.52 -0.657808 1.84207 0
M  V30 15838 C 1402.9 -1.88798 0.944372 0
M  V30 15839 O 1402.24 -2.28499 0.00641728 0
M  V30 15840 C 1402.45 -1.0113 3.34026 0
M  V30 15841 C 1403.8 -1.39189 4.01138 0
M  V30 15842 O 1404.83 -1.10353 3.38675 0
M  V30 15843 O 1403.68 -1.93023 5.11277 0
M  V30 15844 H 1400.78 -0.325084 0.760427 0
M  V30 15845 H 1403.32 0.0848352 1.69488 0
M  V30 15846 H 1402.1 -0.13688 3.91061 0
M  V30 15847 H 1401.72 -1.81126 3.53948 0
M  V30 15848 N 1402.72 -1.56081 -0.218252 0
M  V30 15849 C 1403.94 -1.83681 -0.963119 0
M  V30 15850 C 1404.37 -0.635909 -1.77025 0
M  V30 15851 O 1403.72 0.415327 -1.76479 0
M  V30 15852 C 1403.77 -3.09302 -1.85376 0
M  V30 15853 O 1402.88 -2.88228 -2.94955 0
M  V30 15854 H 1402.22 -0.605495 -0.272529 0
M  V30 15855 H 1404.75 -2.03297 -0.230567 0
M  V30 15856 H 1404.76 -3.39493 -2.26294 0
M  V30 15857 H 1403.43 -3.96337 -1.26054 0
M  V30 15858 H 1402.01 -2.69279 -2.57959 0
M  V30 15859 N 1404.2 0.485086 -1.49949 0
M  V30 15860 C 1405.44 1.23486 -1.5948 0
M  V30 15861 C 1405.76 1.93377 -0.294082 0
M  V30 15862 O 1406.96 2.70173 -0.268133 0
M  V30 15863 C 1405.42 2.24303 -2.81454 0
M  V30 15864 C 1405.03 1.60279 -4.18347 0
M  V30 15865 C 1406.77 3.0001 -3.00324 0
M  V30 15866 C 1404.68 2.593 -5.31524 0
M  V30 15867 H 1403.61 0.464595 -0.593858 0
M  V30 15868 H 1406.26 0.506893 -1.7636 0
M  V30 15869 H 1404.64 3.00332 -2.58102 0
M  V30 15870 H 1405.82 0.901352 -4.51899 0
M  V30 15871 H 1404.13 0.969053 -4.04967 0
M  V30 15872 H 1406.73 3.74091 -3.82048 0
M  V30 15873 H 1407.07 3.5857 -2.11502 0
M  V30 15874 H 1407.6 2.31095 -3.2379 0
M  V30 15875 H 1404.34 2.05498 -6.22455 0
M  V30 15876 H 1403.86 3.27638 -5.02408 0
M  V30 15877 H 1405.54 3.21411 -5.61519 0
M  V30 15878 N 1405.67 1.39291 0.737279 0
M  V30 15879 C 1406.91 1.37821 1.50946 0
M  V30 15880 C 1407.28 -0.0269225 1.91981 0
M  V30 15881 O 1408.48 -0.16661 2.68283 0
M  V30 15882 C 1406.75 2.32145 2.71741 0
M  V30 15883 S 1408.31 2.48842 3.61418 0
M  V30 15884 H 1405.13 0.48878 0.516348 0
M  V30 15885 H 1407.73 1.75367 0.864096 0
M  V30 15886 H 1406.43 3.33103 2.39731 0
M  V30 15887 H 1405.96 1.95806 3.41209 0
M  V30 15888 H 1407.98 1.72464 4.65264 0
M  V30 15889 N 1407.15 -0.967221 1.24429 0
M  V30 15890 C 1408.38 -1.75053 1.11226 0
M  V30 15891 C 1408.8 -1.85162 -0.331139 0
M  V30 15892 O 1408.16 -1.32288 -1.23974 0
M  V30 15893 C 1408.21 -3.14882 1.75733 0
M  V30 15894 O 1407.31 -3.99371 1.02842 0
M  V30 15895 H 1406.65 -0.538078 0.389061 0
M  V30 15896 H 1409.18 -1.21325 1.64746 0
M  V30 15897 H 1409.19 -3.65402 1.81509 0
M  V30 15898 H 1407.87 -3.06839 2.80754 0
M  V30 15899 H 1406.44 -3.57854 1.04856 0
M  V30 15900 N 1408.63 -1.05812 -1.16797 0
M  V30 15901 C 1409.54 -0.675541 -2.24663 0
M  V30 15902 C 1410.56 0.30622 -1.71284 0
M  V30 15903 O 1411.73 0.156752 -2.00789 0
M  V30 15904 C 1408.8 -0.0627149 -3.46643 0
M  V30 15905 C 1407.86 -1.09572 -4.15081 0
M  V30 15906 C 1407.09 -0.512044 -5.31238 0
M  V30 15907 O 1407.31 0.676665 -5.66372 0
M  V30 15908 O 1406.25 -1.24936 -5.88791 0
M  V30 15909 H 1410.07 -1.57467 -2.59688 0
M  V30 15910 H 1407.66 -0.830073 -1.24218 0
M  V30 15911 H 1409.54 0.277543 -4.20485 0
M  V30 15912 H 1408.22 0.80997 -3.13403 0
M  V30 15913 H 1407.12 -1.48807 -3.4323 0
M  V30 15914 H 1408.46 -1.93977 -4.52365 0
M  V30 15915 N 1410.11 1.33347 -0.840014 0
M  V30 15916 C 1411.34 2.01659 -0.449141 0
M  V30 15917 C 1411.75 1.63353 0.954597 0
M  V30 15918 O 1411.09 0.843303 1.632 0
M  V30 15919 C 1411.15 3.56124 -0.491497 0
M  V30 15920 C 1410.81 4.17812 -1.85155 0
M  V30 15921 C 1411.81 4.37101 -2.81494 0
M  V30 15922 C 1409.5 4.54211 -2.1447 0
M  V30 15923 C 1411.49 4.91938 -4.05309 0
M  V30 15924 C 1409.18 5.08756 -3.38542 0
M  V30 15925 C 1410.18 5.27566 -4.33778 0
M  V30 15926 O 1409.86 5.8095 -5.55655 0
M  V30 15927 H 1409.6 0.652553 -0.176494 0
M  V30 15928 H 1412.15 1.71228 -1.13447 0
M  V30 15929 H 1410.38 3.85887 0.250613 0
M  V30 15930 H 1412.07 4.05728 -0.118288 0
M  V30 15931 H 1412.83 4.09328 -2.60146 0
M  V30 15932 H 1408.71 4.38864 -1.41135 0
M  V30 15933 H 1412.26 5.06536 -4.79654 0
M  V30 15934 H 1408.15 5.3596 -3.59746 0
M  V30 15935 H 1408.92 5.99363 -5.5741 0
M  V30 15936 N 1411.59 0.596556 1.45873 0
M  V30 15937 C 1412.86 0.0199562 1.9559 0
M  V30 15938 C 1413.24 -1.44479 1.53912 0
M  V30 15939 O 1412.59 -2.14173 0.796384 0
M  V30 15940 C 1412.8 0.206497 3.48389 0
M  V30 15941 C 1414.15 0.0815298 4.24522 0
M  V30 15942 O 1415.17 0.136045 3.5594 0
M  V30 15943 O 1414.03 -0.0426117 5.46483 0
M  V30 15944 H 1411.13 -0.0419913 0.825933 0
M  V30 15945 H 1413.67 0.665846 1.56092 0
M  V30 15946 H 1412.44 1.22422 3.71656 0
M  V30 15947 H 1412.07 -0.475175 3.9475 0
M  V30 15948 N 1413.06 -1.53996 0.335095 0
M  V30 15949 C 1413.97 -2.28436 -0.534244 0
M  V30 15950 C 1414.99 -1.33224 -1.11926 0
M  V30 15951 O 1416.17 -1.66252 -1.13676 0
M  V30 15952 C 1413.23 -3.03634 -1.67354 0
M  V30 15953 C 1412.29 -4.14455 -1.11916 0
M  V30 15954 C 1411.52 -4.86058 -2.20416 0
M  V30 15955 O 1411.75 -4.57263 -3.40979 0
M  V30 15956 O 1410.68 -5.72704 -1.85185 0
M  V30 15957 H 1414.51 -3.03618 0.0706314 0
M  V30 15958 H 1412.09 -1.49062 0.100409 0
M  V30 15959 H 1413.97 -3.50687 -2.33659 0
M  V30 15960 H 1412.65 -2.31317 -2.26438 0
M  V30 15961 H 1411.56 -3.71725 -0.420871 0
M  V30 15962 H 1412.89 -4.8885 -0.573295 0
M  V30 15963 N 1414.54 -0.0635198 -1.57472 0
M  V30 15964 C 1415.82 0.648029 -1.84553 0
M  V30 15965 C 1416.2 1.88295 -0.954371 0
M  V30 15966 O 1415.55 2.28492 -0.0185351 0
M  V30 15967 C 1415.76 0.993573 -3.34558 0
M  V30 15968 C 1417.1 1.3706 -4.0187 0
M  V30 15969 O 1418.13 1.08555 -3.39255 0
M  V30 15970 O 1416.99 1.90309 -5.12294 0
M  V30 15971 H 1414.08 0.321047 -0.76214 0
M  V30 15972 H 1416.63 -0.0938223 -1.6944 0
M  V30 15973 H 1415.4 0.116139 -3.91128 0
M  V30 15974 H 1415.02 1.79246 -3.54904 0
M  V30 15975 N 1416.02 1.56195 0.209972 0
M  V30 15976 C 1417.27 1.78941 0.930744 0
M  V30 15977 C 1417.58 0.634139 1.85035 0
M  V30 15978 O 1418.79 0.745524 2.61064 0
M  V30 15979 C 1417.24 3.16935 1.70529 0
M  V30 15980 C 1416.85 4.40221 0.83125 0
M  V30 15981 C 1418.6 3.49 2.41659 0
M  V30 15982 C 1416.5 5.69238 1.60381 0
M  V30 15983 H 1415.43 0.667176 0.351273 0
M  V30 15984 H 1418.08 1.82572 0.184341 0
M  V30 15985 H 1416.47 3.07513 2.49503 0
M  V30 15986 H 1417.64 4.60728 0.081227 0
M  V30 15987 H 1415.95 4.15756 0.231517 0
M  V30 15988 H 1418.55 4.42623 2.99982 0
M  V30 15989 H 1418.89 2.72042 3.15117 0
M  V30 15990 H 1419.43 3.59804 1.69665 0
M  V30 15991 H 1416.17 6.49121 0.912292 0
M  V30 15992 H 1415.69 5.52772 2.32815 0
M  V30 15993 H 1417.37 6.09827 2.16149 0
M  V30 15994 N 1417.5 -0.477127 1.50204 0
M  V30 15995 C 1418.43 -1.58405 1.71552 0
M  V30 15996 C 1419.41 -1.60463 0.564413 0
M  V30 15997 O 1420.59 -1.76826 0.802893 0
M  V30 15998 C 1417.72 -2.96765 1.8041 0
M  V30 15999 C 1416.68 -3.09573 2.95548 0
M  V30 16000 C 1416 -4.49522 2.89542 0
M  V30 16001 C 1417.3 -2.87356 4.36147 0
M  V30 16002 H 1419 -1.40792 2.64231 0
M  V30 16003 H 1416.54 -0.675886 1.27153 0
M  V30 16004 H 1418.5 -3.74125 1.9393 0
M  V30 16005 H 1417.22 -3.1552 0.843489 0
M  V30 16006 H 1415.88 -2.34645 2.81669 0
M  V30 16007 H 1415.53 -4.65186 1.91339 0
M  V30 16008 H 1415.23 -4.59028 3.66834 0
M  V30 16009 H 1416.75 -5.28909 3.05102 0
M  V30 16010 H 1418.17 -3.54469 4.50583 0
M  V30 16011 H 1416.56 -3.08313 5.14843 0
M  V30 16012 H 1417.63 -1.83264 4.48935 0
M  V30 16013 N 1418.98 -1.3968 -0.729882 0
M  V30 16014 C 1420.2 -1.40654 -1.52418 0
M  V30 16015 C 1420.63 -0.00428997 -1.881 0
M  V30 16016 O 1419.98 0.984023 -1.52272 0
M  V30 16017 C 1420.03 -2.29057 -2.78506 0
M  V30 16018 O 1419.14 -1.72397 -3.74637 0
M  V30 16019 H 1418.48 -0.478761 -0.460091 0
M  V30 16020 H 1421.01 -1.83738 -0.900087 0
M  V30 16021 H 1421.02 -2.43748 -3.27187 0
M  V30 16022 H 1419.69 -3.30961 -2.51868 0
M  V30 16023 H 1418.27 -1.66977 -3.33426 0
M  V30 16024 N 1420.45 0.960609 -1.2494 0
M  V30 16025 C 1421.4 2.05634 -1.04801 0
M  V30 16026 C 1422.37 1.66049 0.0409611 0
M  V30 16027 O 1423.56 1.90453 -0.115053 0
M  V30 16028 C 1420.7 3.38604 -0.666444 0
M  V30 16029 C 1419.81 3.91341 -1.82964 0
M  V30 16030 C 1418.94 5.1261 -1.39299 0
M  V30 16031 C 1417.98 5.57562 -2.52569 0
M  V30 16032 N 1417.12 6.70046 -2.09722 0
M  V30 16033 H 1421.96 2.22194 -1.9858 0
M  V30 16034 H 1419.5 1.08892 -0.988981 0
M  V30 16035 H 1421.46 4.15017 -0.426205 0
M  V30 16036 H 1420.09 3.21948 0.23435 0
M  V30 16037 H 1419.14 3.11502 -2.18335 0
M  V30 16038 H 1420.45 4.20656 -2.68049 0
M  V30 16039 H 1419.6 5.96421 -1.11205 0
M  V30 16040 H 1418.34 4.84997 -0.512779 0
M  V30 16041 H 1417.35 4.72319 -2.81415 0
M  V30 16042 H 1418.57 5.87186 -3.41159 0
M  V30 16043 H 1416.52 6.44153 -1.24109 0
M  V30 16044 H 1416.44 6.98846 -2.88357 0
M  V30 16045 H 1417.7 7.57281 -1.84787 0
M  V30 16046 N 1421.93 1.0643 1.16234 0
M  V30 16047 C 1423.16 0.802644 1.90697 0
M  V30 16048 C 1423.58 -0.643145 1.77508 0
M  V30 16049 O 1422.93 -1.4404 1.12065 0
M  V30 16050 C 1422.98 1.18984 3.41358 0
M  V30 16051 O 1422.7 2.5789 3.54153 0
M  V30 16052 C 1424.21 0.956132 4.32866 0
M  V30 16053 H 1421.43 0.290891 0.604668 0
M  V30 16054 H 1423.97 1.41829 1.47325 0
M  V30 16055 H 1422.12 0.618703 3.82428 0
M  V30 16056 H 1422.54 2.73431 4.47589 0
M  V30 16057 H 1424.01 1.27667 5.37034 0
M  V30 16058 H 1424.49 -0.108062 4.39067 0
M  V30 16059 H 1425.1 1.51172 3.97526 0
M  V30 16060 N 1423.41 -1.329 0.847073 0
M  V30 16061 C 1424.64 -2.02244 0.459588 0
M  V30 16062 C 1425.06 -1.63279 -0.933897 0
M  V30 16063 O 1424.42 -0.829551 -1.61208 0
M  V30 16064 C 1424.47 -3.55616 0.59745 0
M  V30 16065 O 1423.57 -4.1071 -0.372919 0
M  V30 16066 H 1422.91 -0.637504 0.1857 0
M  V30 16067 H 1425.44 -1.69617 1.14417 0
M  V30 16068 H 1425.45 -4.05141 0.482145 0
M  V30 16069 H 1424.13 -3.8332 1.61365 0
M  V30 16070 H 1422.7 -3.72283 -0.214487 0
M  V30 16071 N 1424.89 -0.604284 -1.45555 0
M  V30 16072 C 1425.82 0.103859 -2.33269 0
M  V30 16073 C 1426.8 0.862104 -1.46635 0
M  V30 16074 O 1427.98 0.833308 -1.75413 0
M  V30 16075 C 1425.11 1.104 -3.29286 0
M  V30 16076 C 1424.07 0.459189 -4.2553 0
M  V30 16077 C 1423.39 1.56734 -5.11213 0
M  V30 16078 C 1424.69 -0.617509 -5.18637 0
M  V30 16079 H 1426.39 -0.628538 -2.92728 0
M  V30 16080 H 1423.93 -0.303711 -1.40761 0
M  V30 16081 H 1425.89 1.60794 -3.89517 0
M  V30 16082 H 1424.61 1.86695 -2.67979 0
M  V30 16083 H 1423.27 -0.0238508 -3.66592 0
M  V30 16084 H 1422.92 2.32049 -4.46276 0
M  V30 16085 H 1422.62 1.14142 -5.76407 0
M  V30 16086 H 1424.14 2.07361 -5.74312 0
M  V30 16087 H 1425.56 -0.197784 -5.72959 0
M  V30 16088 H 1423.95 -0.96499 -5.9229 0
M  V30 16089 H 1425.02 -1.49541 -4.61265 0
M  V30 16090 N 1426.37 1.53816 -0.343257 0
M  V30 16091 C 1427.28 2.28716 0.522121 0
M  V30 16092 C 1428.29 1.33815 1.11218 0
M  V30 16093 O 1429.47 1.66853 1.12793 0
M  V30 16094 C 1426.53 3.04517 1.65741 0
M  V30 16095 C 1425.59 4.15043 1.09716 0
M  V30 16096 C 1424.83 4.8722 2.17835 0
M  V30 16097 O 1425.05 4.59065 3.38549 0
M  V30 16098 O 1423.98 5.73678 1.82145 0
M  V30 16099 H 1427.81 3.03576 -0.086732 0
M  V30 16100 H 1425.4 1.49007 -0.108313 0
M  V30 16101 H 1427.28 3.51921 2.31796 0
M  V30 16102 H 1425.95 2.32514 2.25208 0
M  V30 16103 H 1424.86 3.71943 0.401152 0
M  V30 16104 H 1426.19 4.89147 0.547362 0
M  V30 16105 N 1427.84 0.0718701 1.57436 0
M  V30 16106 C 1429.07 -0.605374 1.97532 0
M  V30 16107 C 1429.48 -1.6368 0.948974 0
M  V30 16108 O 1428.83 -1.83556 -0.0726987 0
M  V30 16109 C 1428.89 -1.33139 3.33937 0
M  V30 16110 C 1428.55 -0.453426 4.54745 0
M  V30 16111 C 1429.55 0.289012 5.19096 0
M  V30 16112 C 1427.23 -0.378282 5.00874 0
M  V30 16113 C 1429.23 1.09482 6.27927 0
M  V30 16114 C 1426.91 0.431192 6.09577 0
M  V30 16115 C 1427.91 1.16641 6.72966 0
M  V30 16116 O 1427.6 1.96253 7.79577 0
M  V30 16117 H 1427.33 -0.168804 0.654585 0
M  V30 16118 H 1429.89 0.140832 2.04917 0
M  V30 16119 H 1428.12 -2.12367 3.23167 0
M  V30 16120 H 1429.81 -1.90089 3.58638 0
M  V30 16121 H 1430.57 0.240552 4.84403 0
M  V30 16122 H 1426.45 -0.940166 4.51311 0
M  V30 16123 H 1429.99 1.66918 6.77336 0
M  V30 16124 H 1425.89 0.481217 6.43704 0
M  V30 16125 H 1426.66 1.88686 7.96455 0
M  V30 16126 N 1429.32 -1.56304 -0.201686 0
M  V30 16127 C 1430.57 -1.79433 -0.921241 0
M  V30 16128 C 1430.88 -0.643943 -1.84696 0
M  V30 16129 O 1432.09 -0.759359 -2.60665 0
M  V30 16130 C 1430.55 -3.17835 -1.68846 0
M  V30 16131 C 1430.15 -4.40655 -0.807892 0
M  V30 16132 C 1431.9 -3.50277 -2.39805 0
M  V30 16133 C 1429.81 -5.7008 -1.5736 0
M  V30 16134 H 1428.74 -0.669029 -0.34773 0
M  V30 16135 H 1431.39 -1.82667 -0.174657 0
M  V30 16136 H 1429.77 -3.08832 -2.47869 0
M  V30 16137 H 1430.94 -4.60765 -0.0567923 0
M  V30 16138 H 1429.26 -4.15873 -0.209465 0
M  V30 16139 H 1431.85 -4.44207 -2.97631 0
M  V30 16140 H 1432.2 -2.7371 -3.1367 0
M  V30 16141 H 1432.73 -3.60698 -1.67754 0
M  V30 16142 H 1429.47 -6.49595 -0.877855 0
M  V30 16143 H 1428.99 -5.53999 -2.2988 0
M  V30 16144 H 1430.67 -6.10964 -2.12912 0
M  V30 16145 N 1430.8 0.469154 -1.50455 0
M  V30 16146 C 1432.22 0.803067 -1.37924 0
M  V30 16147 C 1432.42 1.96708 -0.436837 0
M  V30 16148 O 1431.47 2.52216 0.119823 0
M  V30 16149 C 1432.79 1.11332 -2.79331 0
M  V30 16150 C 1434.33 1.21965 -2.88259 0
M  V30 16151 C 1434.81 1.56302 -4.30504 0
M  V30 16152 N 1436.3 1.6329 -4.33464 0
M  V30 16153 C 1437.03 1.91367 -5.40524 0
M  V30 16154 N 1436.53 2.17451 -6.57789 0
M  V30 16155 N 1438.32 1.92885 -5.2797 0
M  V30 16156 H 1430.47 -0.297928 -2.103 0
M  V30 16157 H 1432.74 -0.0707794 -0.945354 0
M  V30 16158 H 1432.44 0.331052 -3.50138 0
M  V30 16159 H 1432.32 2.04903 -3.16693 0
M  V30 16160 H 1434.7 1.99259 -2.17669 0
M  V30 16161 H 1434.79 0.263692 -2.54437 0
M  V30 16162 H 1434.43 0.795479 -5.01632 0
M  V30 16163 H 1434.36 2.53052 -4.61814 0
M  V30 16164 H 1436.85 1.45164 -3.48907 0
M  V30 16165 H 1437.16 2.38154 -7.35189 0
M  V30 16166 H 1435.51 2.14839 -6.60961 0
M  V30 16167 H 1438.7 1.72005 -4.35353 0
M  V30 16168 H 1438.87 2.1443 -6.11493 0
M  V30 16169 N 1432.28 1.40065 0.722464 0
M  V30 16170 C 1433.23 1.39784 1.83655 0
M  V30 16171 C 1434.2 0.255743 1.64119 0
M  V30 16172 O 1435.38 0.452766 1.8535 0
M  V30 16173 C 1432.52 1.25946 3.21297 0
M  V30 16174 C 1431.63 2.49805 3.52451 0
M  V30 16175 C 1430.77 2.2846 4.79562 0
M  V30 16176 C 1429.81 3.4793 5.03598 0
M  V30 16177 N 1428.94 3.25823 6.21919 0
M  V30 16178 H 1433.78 2.35013 1.83229 0
M  V30 16179 H 1431.32 1.16728 0.895154 0
M  V30 16180 H 1433.28 1.15931 4.00769 0
M  V30 16181 H 1431.91 0.343402 3.20968 0
M  V30 16182 H 1430.96 2.70375 2.67585 0
M  V30 16183 H 1432.27 3.38753 3.66126 0
M  V30 16184 H 1431.43 2.15758 5.67039 0
M  V30 16185 H 1430.17 1.36926 4.68084 0
M  V30 16186 H 1429.17 3.61116 4.14579 0
M  V30 16187 H 1430.4 4.40382 5.16953 0
M  V30 16188 H 1428.34 2.36965 6.11705 0
M  V30 16189 H 1428.26 4.08333 6.36239 0
M  V30 16190 H 1429.53 3.16841 7.12202 0
M  V30 16191 N 1433.76 -0.95397 1.25448 0
M  V30 16192 C 1434.69 -2.06828 1.08372 0
M  V30 16193 C 1435.67 -1.70098 -0.00741585 0
M  V30 16194 O 1436.85 -1.93521 0.16224 0
M  V30 16195 C 1433.98 -3.40124 0.702365 0
M  V30 16196 C 1432.94 -3.90865 1.74381 0
M  V30 16197 C 1432.26 -5.20663 1.21712 0
M  V30 16198 C 1433.56 -4.17169 3.14273 0
M  V30 16199 H 1435.26 -2.21372 2.01581 0
M  V30 16200 H 1432.8 -1.06374 0.970592 0
M  V30 16201 H 1434.76 -4.17529 0.569837 0
M  V30 16202 H 1433.48 -3.2552 -0.265428 0
M  V30 16203 H 1432.14 -3.15628 1.86479 0
M  V30 16204 H 1431.79 -5.02429 0.23954 0
M  V30 16205 H 1431.49 -5.55581 1.91319 0
M  V30 16206 H 1433.01 -6.00665 1.097 0
M  V30 16207 H 1434.43 -4.85231 3.05325 0
M  V30 16208 H 1432.82 -4.63344 3.81356 0
M  V30 16209 H 1433.89 -3.23421 3.61285 0
M  V30 16210 N 1435.24 -1.07045 -1.15668 0
M  V30 16211 C 1436.48 -0.791735 -1.86381 0
M  V30 16212 C 1436.81 0.682084 -1.82148 0
M  V30 16213 O 1436.07 1.51617 -1.23737 0
M  V30 16214 C 1436.36 -1.24127 -3.35153 0
M  V30 16215 C 1436.03 -2.72051 -3.59582 0
M  V30 16216 C 1434.69 -3.12455 -3.65958 0
M  V30 16217 C 1437.04 -3.67547 -3.69538 0
M  V30 16218 C 1434.37 -4.4718 -3.79799 0
M  V30 16219 C 1436.72 -5.02029 -3.84902 0
M  V30 16220 C 1435.39 -5.42059 -3.89523 0
M  V30 16221 H 1434.66 -0.289717 -0.682016 0
M  V30 16222 H 1437.31 -1.34091 -1.36718 0
M  V30 16223 H 1435.61 -0.611428 -3.87 0
M  V30 16224 H 1437.31 -1.00256 -3.88265 0
M  V30 16225 H 1433.9 -2.39771 -3.55257 0
M  V30 16226 H 1438.08 -3.3746 -3.63915 0
M  V30 16227 H 1433.34 -4.77668 -3.81632 0
M  V30 16228 H 1437.51 -5.75902 -3.91548 0
M  V30 16229 H 1435.14 -6.46455 -4 0
M  V30 16230 N 1436.71 1.32449 -0.85411 0
M  V30 16231 C 1437.94 2.01171 -0.470505 0
M  V30 16232 C 1438.35 1.64356 0.937218 0
M  V30 16233 O 1437.69 0.860565 1.62296 0
M  V30 16234 C 1437.76 3.55583 -0.529241 0
M  V30 16235 C 1437.42 4.15824 -1.89576 0
M  V30 16236 C 1438.42 4.34091 -2.86114 0
M  V30 16237 C 1436.1 4.51911 -2.19276 0
M  V30 16238 C 1438.1 4.87612 -4.10504 0
M  V30 16239 C 1435.78 5.05137 -3.43919 0
M  V30 16240 C 1436.78 5.22936 -4.39349 0
M  V30 16241 O 1436.47 5.75024 -5.61785 0
M  V30 16242 H 1436.2 0.650645 -0.183405 0
M  V30 16243 H 1438.76 1.70015 -1.15257 0
M  V30 16244 H 1436.99 3.86131 0.209671 0
M  V30 16245 H 1438.67 4.05579 -0.161315 0
M  V30 16246 H 1439.44 4.06545 -2.64473 0
M  V30 16247 H 1435.32 4.37343 -1.45782 0
M  V30 16248 H 1438.86 5.0142 -4.84999 0
M  V30 16249 H 1434.76 5.32114 -3.6541 0
M  V30 16250 H 1435.53 5.93418 -5.63736 0
M  V30 16251 N 1438.19 0.611994 1.45232 0
M  V30 16252 C 1439.42 0.113618 2.07089 0
M  V30 16253 C 1439.84 -1.1947 1.45288 0
M  V30 16254 O 1439.2 -1.72845 0.547207 0
M  V30 16255 C 1439.25 -0.00789978 3.60599 0
M  V30 16256 O 1438.35 -1.05697 3.98625 0
M  V30 16257 H 1437.69 0.076066 0.659629 0
M  V30 16258 H 1440.22 0.843253 1.86415 0
M  V30 16259 H 1440.23 -0.204692 4.07486 0
M  V30 16260 H 1438.91 0.947386 4.04966 0
M  V30 16261 H 1437.48 -0.836291 3.63401 0
M  V30 16262 N 1439.67 -1.53632 0.351409 0
M  V30 16263 C 1440.92 -2.00222 -0.243731 0
M  V30 16264 C 1441.23 -1.24305 -1.51022 0
M  V30 16265 O 1442.44 -1.61411 -2.18309 0
M  V30 16266 C 1440.89 -3.56619 -0.48487 0
M  V30 16267 C 1440.5 -4.414 0.766173 0
M  V30 16268 C 1442.25 -4.11603 -1.03844 0
M  V30 16269 C 1440.15 -5.89321 0.4954 0
M  V30 16270 H 1439.08 -0.74801 -0.0948534 0
M  V30 16271 H 1441.73 -1.77433 0.467957 0
M  V30 16272 H 1440.12 -3.75505 -1.25746 0
M  V30 16273 H 1441.29 -4.34288 1.54047 0
M  V30 16274 H 1439.6 -3.97448 1.24194 0
M  V30 16275 H 1442.2 -5.19736 -1.25611 0
M  V30 16276 H 1442.54 -3.65311 -1.99634 0
M  V30 16277 H 1443.08 -3.96459 -0.326363 0
M  V30 16278 H 1439.82 -6.39863 1.42324 0
M  V30 16279 H 1439.34 -5.99317 -0.240662 0
M  V30 16280 H 1441.02 -6.46897 0.115584 0
M  V30 16281 N 1441.15 -0.0802183 -1.57396 0
M  V30 16282 C 1442.4 0.586573 -1.92982 0
M  V30 16283 C 1442.71 1.70256 -0.962918 0
M  V30 16284 O 1443.92 2.4295 -1.21193 0
M  V30 16285 C 1442.37 1.09475 -3.42846 0
M  V30 16286 C 1441.98 0.0093098 -4.47999 0
M  V30 16287 C 1443.72 1.73512 -3.87419 0
M  V30 16288 C 1441.63 0.532002 -5.89002 0
M  V30 16289 H 1440.56 0.222878 -0.720306 0
M  V30 16290 H 1443.21 -0.153816 -1.82854 0
M  V30 16291 H 1441.59 1.88836 -3.48076 0
M  V30 16292 H 1442.77 -0.765609 -4.54395 0
M  V30 16293 H 1441.08 -0.535345 -4.12944 0
M  V30 16294 H 1443.68 2.13665 -4.90154 0
M  V30 16295 H 1444.02 2.59845 -3.25248 0
M  V30 16296 H 1444.56 1.00758 -3.84828 0
M  V30 16297 H 1441.29 -0.294364 -6.54839 0
M  V30 16298 H 1440.81 1.27425 -5.86108 0
M  V30 16299 H 1442.49 1.00573 -6.39135 0
M  V30 16300 N 1442.63 1.56409 0.193394 0
M  V30 16301 C 1443.87 1.79919 0.911712 0
M  V30 16302 C 1444.19 0.653729 1.84352 0
M  V30 16303 O 1445.39 0.773172 2.60258 0
M  V30 16304 C 1443.85 3.18726 1.67158 0
M  V30 16305 C 1443.46 4.41078 0.784512 0
M  V30 16306 C 1445.2 3.51544 2.37944 0
M  V30 16307 C 1443.11 5.70907 1.54335 0
M  V30 16308 H 1442.04 0.670864 0.344177 0
M  V30 16309 H 1444.69 1.82757 0.164967 0
M  V30 16310 H 1443.07 3.10142 2.46227 0
M  V30 16311 H 1444.25 4.60789 0.032356 0
M  V30 16312 H 1442.56 4.15978 0.187407 0
M  V30 16313 H 1445.16 4.45779 2.95271 0
M  V30 16314 H 1445.5 2.75369 3.12214 0
M  V30 16315 H 1446.03 3.61583 1.65839 0
M  V30 16316 H 1442.77 6.50052 0.843393 0
M  V30 16317 H 1442.29 5.5521 2.26939 0
M  V30 16318 H 1443.97 6.12085 2.09669 0
M  V30 16319 N 1444.1 -0.461169 1.50702 0
M  V30 16320 C 1445.33 -1.23375 1.65717 0
M  V30 16321 C 1445.74 -1.86047 0.343992 0
M  V30 16322 O 1445.08 -1.70447 -0.68508 0
M  V30 16323 C 1445.15 -2.3758 2.69808 0
M  V30 16324 C 1444.81 -1.95467 4.13088 0
M  V30 16325 C 1445.81 -1.47154 4.9864 0
M  V30 16326 C 1443.49 -2.03885 4.5906 0
M  V30 16327 C 1445.49 -1.07815 6.28215 0
M  V30 16328 C 1443.17 -1.64157 5.88639 0
M  V30 16329 C 1444.17 -1.16201 6.73043 0
M  V30 16330 O 1443.86 -0.770282 8.00201 0
M  V30 16331 H 1443.59 -0.378885 0.559841 0
M  V30 16332 H 1446.15 -0.555712 1.9774 0
M  V30 16333 H 1444.38 -3.08586 2.33049 0
M  V30 16334 H 1446.06 -2.99517 2.73942 0
M  V30 16335 H 1446.83 -1.40064 4.64335 0
M  V30 16336 H 1442.71 -2.40159 3.93503 0
M  V30 16337 H 1446.25 -0.703139 6.94047 0
M  V30 16338 H 1442.15 -1.70909 6.22463 0
M  V30 16339 H 1442.92 -0.898254 8.13556 0
M  V30 16340 N 1445.58 -1.40446 -0.715026 0
M  V30 16341 C 1446.53 -1.40931 -1.85044 0
M  V30 16342 C 1447.52 -0.289745 -1.66904 0
M  V30 16343 O 1448.73 -0.460809 -1.74002 0
M  V30 16344 H 1445.1 -0.440534 -0.609454 0
M  V30 16345 H 1447.08 -2.36662 -1.81752 0
M  V30 16346 C 1445.82 -1.28933 -3.22911 0
M  V30 16347 H 1445.15 -2.14359 -3.37476 0
M  V30 16348 H 1446.59 -1.33331 -4.02491 0
M  V30 16349 C 1445.05 0.000379936 -3.369 0
M  V30 16350 O 1445.58 0.963093 -3.89984 0
M  V30 16351 N 1443.78 0.0700649 -2.90516 0
M  V30 16352 H 1443.33 -0.714088 -2.47505 0
M  V30 16353 H 1443.29 0.932457 -3.00254 0
M  V30 16354 N 1447.06 0.947303 -1.25952 0
M  V30 16355 C 1448.31 1.6953 -1.11299 0
M  V30 16356 C 1448.64 1.9113 0.343961 0
M  V30 16357 O 1447.91 1.48755 1.25309 0
M  V30 16358 C 1448.2 3.0738 -1.87588 0
M  V30 16359 C 1448.05 2.93145 -3.41154 0
M  V30 16360 C 1449.37 4.07396 -1.66483 0
M  V30 16361 H 1446.49 0.615281 -0.405707 0
M  V30 16362 H 1449.13 1.10064 -1.54874 0
M  V30 16363 H 1447.28 3.58143 -1.50553 0
M  V30 16364 H 1448.95 2.49651 -3.87907 0
M  V30 16365 H 1447.19 2.28902 -3.68492 0
M  V30 16366 H 1447.87 3.9089 -3.89755 0
M  V30 16367 H 1450.34 3.65572 -1.98738 0
M  V30 16368 H 1449.22 5.01876 -2.22287 0
M  V30 16369 H 1449.48 4.379 -0.607916 0
M  V30 16370 N 1448.54 1.07657 1.15099 0
M  V30 16371 C 1449.82 0.714608 1.82079 0
M  V30 16372 C 1450.2 -0.802578 1.95248 0
M  V30 16373 O 1449.54 -1.71818 1.50634 0
M  V30 16374 C 1449.75 1.43264 3.1824 0
M  V30 16375 C 1451.1 1.58675 3.93837 0
M  V30 16376 O 1452.13 1.39367 3.27804 0
M  V30 16377 O 1450.98 1.9047 5.12234 0
M  V30 16378 H 1448.08 0.254645 0.786819 0
M  V30 16379 H 1450.62 1.17768 1.22183 0
M  V30 16380 H 1449.4 2.46655 3.03772 0
M  V30 16381 H 1449.02 0.960546 3.85823 0
M  V30 16382 N 1450.02 -1.31994 0.861122 0
M  V30 16383 C 1450.95 -2.27632 0.267681 0
M  V30 16384 C 1451.96 -1.52709 -0.564265 0
M  V30 16385 O 1453.15 -1.74239 -0.3877 0
M  V30 16386 C 1450.25 -3.32805 -0.639856 0
M  V30 16387 C 1449.42 -4.37116 0.157676 0
M  V30 16388 C 1448.48 -5.21832 -0.676624 0
M  V30 16389 O 1447.51 -5.69098 -0.107822 0
M  V30 16390 N 1448.71 -5.45317 -1.99022 0
M  V30 16391 H 1451.48 -2.79195 1.0895 0
M  V30 16392 H 1449.04 -1.44923 0.721733 0
M  V30 16393 H 1451.03 -3.86391 -1.20348 0
M  V30 16394 H 1449.6 -2.81351 -1.36236 0
M  V30 16395 H 1448.82 -3.83724 0.902741 0
M  V30 16396 H 1450.11 -5.03889 0.70524 0
M  V30 16397 H 1449.5 -5.08656 -2.47558 0
M  V30 16398 H 1448.06 -6.01874 -2.50182 0
M  V30 16399 N 1451.49 -0.619688 -1.44906 0
M  V30 16400 C 1452.74 -0.119633 -2.02146 0
M  V30 16401 C 1453.07 1.25432 -1.48651 0
M  V30 16402 O 1452.32 1.84372 -0.656155 0
M  V30 16403 C 1452.62 -0.0432891 -3.57374 0
M  V30 16404 C 1452.29 -1.35451 -4.30074 0
M  V30 16405 C 1450.95 -1.71365 -4.49653 0
M  V30 16406 C 1453.3 -2.22053 -4.71532 0
M  V30 16407 C 1450.63 -2.93611 -5.07946 0
M  V30 16408 C 1452.98 -3.43559 -5.31178 0
M  V30 16409 C 1451.65 -3.7971 -5.48977 0
M  V30 16410 H 1450.92 -0.0437769 -0.739706 0
M  V30 16411 H 1453.56 -0.803722 -1.73818 0
M  V30 16412 H 1451.87 0.72412 -3.8505 0
M  V30 16413 H 1453.57 0.359964 -3.99381 0
M  V30 16414 H 1450.16 -1.06499 -4.15158 0
M  V30 16415 H 1454.34 -1.95603 -4.56129 0
M  V30 16416 H 1449.6 -3.21712 -5.19915 0
M  V30 16417 H 1453.77 -4.10906 -5.62254 0
M  V30 16418 H 1451.4 -4.7452 -5.93915 0
M  V30 16419 N 1452.97 1.53444 -0.359552 0
M  V30 16420 C 1454.22 2.01166 0.232022 0
M  V30 16421 C 1454.55 1.24699 1.49266 0
M  V30 16422 O 1453.8 0.327164 1.92946 0
M  V30 16423 C 1454.1 3.5273 0.575863 0
M  V30 16424 C 1453.77 4.47027 -0.589746 0
M  V30 16425 C 1452.43 4.72525 -0.909587 0
M  V30 16426 C 1454.78 5.02846 -1.37095 0
M  V30 16427 C 1452.11 5.51096 -2.01271 0
M  V30 16428 C 1454.46 5.82622 -2.46444 0
M  V30 16429 C 1453.13 6.06409 -2.7897 0
M  V30 16430 H 1452.4 0.73612 0.084903 0
M  V30 16431 H 1455.04 1.85105 -0.490771 0
M  V30 16432 H 1453.35 3.66708 1.37959 0
M  V30 16433 H 1455.04 3.87125 1.04573 0
M  V30 16434 H 1451.63 4.27324 -0.330418 0
M  V30 16435 H 1455.82 4.83098 -1.1371 0
M  V30 16436 H 1451.07 5.67747 -2.26877 0
M  V30 16437 H 1455.25 6.24884 -3.07398 0
M  V30 16438 H 1452.88 6.67077 -3.64572 0
M  V30 16439 N 1454.45 0.0885642 1.57351 0
M  V30 16440 C 1455.38 -0.869946 2.16689 0
M  V30 16441 C 1456.36 -1.29878 1.09844 0
M  V30 16442 O 1457.55 -1.36684 1.37954 0
M  V30 16443 C 1454.68 -2.13148 2.74199 0
M  V30 16444 C 1453.63 -1.84149 3.86359 0
M  V30 16445 C 1452.96 -3.17075 4.30543 0
M  V30 16446 C 1454.26 -1.13357 5.09851 0
M  V30 16447 H 1455.95 -0.375578 2.97035 0
M  V30 16448 H 1453.5 -0.17921 1.42881 0
M  V30 16449 H 1455.45 -2.80634 3.14361 0
M  V30 16450 H 1454.17 -2.64856 1.91098 0
M  V30 16451 H 1452.83 -1.19063 3.46727 0
M  V30 16452 H 1452.48 -3.66658 3.44342 0
M  V30 16453 H 1452.18 -2.98457 5.06159 0
M  V30 16454 H 1453.7 -3.85731 4.73333 0
M  V30 16455 H 1455.12 -1.70941 5.47222 0
M  V30 16456 H 1453.52 -1.0494 5.90853 0
M  V30 16457 H 1454.59 -0.115273 4.84763 0
M  V30 16458 N 1455.93 -1.56509 -0.185096 0
M  V30 16459 C 1457.18 -1.81206 -0.903924 0
M  V30 16460 C 1457.5 -0.663423 -1.82836 0
M  V30 16461 O 1456.76 0.350211 -1.92541 0
M  V30 16462 C 1457.06 -3.11968 -1.74387 0
M  V30 16463 C 1456.72 -4.40353 -0.969552 0
M  V30 16464 C 1455.39 -4.75227 -0.755799 0
M  V30 16465 C 1457.74 -5.19461 -0.425443 0
M  V30 16466 C 1455.07 -5.86698 0.0133856 0
M  V30 16467 C 1457.42 -6.31736 0.330582 0
M  V30 16468 C 1456.08 -6.65187 0.555262 0
M  V30 16469 H 1455.35 -0.663078 -0.330769 0
M  V30 16470 H 1458 -1.90747 -0.169673 0
M  V30 16471 H 1456.3 -2.97708 -2.5471 0
M  V30 16472 H 1458 -3.28284 -2.30284 0
M  V30 16473 H 1454.59 -4.1299 -1.14618 0
M  V30 16474 H 1458.77 -4.92923 -0.577959 0
M  V30 16475 H 1454.03 -6.11081 0.197335 0
M  V30 16476 H 1458.2 -6.92246 0.759523 0
M  V30 16477 H 1455.83 -7.51403 1.15318 0
M  V30 16478 N 1457.41 0.45317 -1.50944 0
M  V30 16479 C 1458.65 1.20389 -1.62827 0
M  V30 16480 C 1458.98 1.91559 -0.336982 0
M  V30 16481 O 1458.24 1.83574 0.678153 0
M  V30 16482 C 1458.54 2.25747 -2.7708 0
M  V30 16483 C 1458.2 1.71703 -4.16928 0
M  V30 16484 C 1456.86 1.56686 -4.54976 0
M  V30 16485 C 1459.22 1.31804 -5.04259 0
M  V30 16486 C 1456.54 1.0022 -5.78077 0
M  V30 16487 C 1458.9 0.767738 -6.27924 0
M  V30 16488 C 1457.56 0.604341 -6.64759 0
M  V30 16489 H 1456.83 0.440536 -0.595827 0
M  V30 16490 H 1459.48 0.497234 -1.84932 0
M  V30 16491 H 1457.78 3.0239 -2.49134 0
M  V30 16492 H 1459.48 2.83625 -2.83475 0
M  V30 16493 H 1456.07 1.84364 -3.86921 0
M  V30 16494 H 1460.25 1.42233 -4.75482 0
M  V30 16495 H 1455.51 0.863228 -6.05275 0
M  V30 16496 H 1459.68 0.449994 -6.94945 0
M  V30 16497 H 1457.31 0.164663 -7.60022 0
M  V30 16498 N 1458.88 1.40823 0.707568 0
M  V30 16499 C 1459.83 1.4191 1.84294 0
M  V30 16500 C 1460.83 0.298592 1.66748 0
M  V30 16501 O 1462.03 0.47003 1.73755 0
M  V30 16502 H 1458.41 0.44376 0.607109 0
M  V30 16503 H 1460.38 2.37623 1.80494 0
M  V30 16504 C 1459.13 1.30643 3.22223 0
M  V30 16505 H 1458.45 2.16145 3.36335 0
M  V30 16506 H 1459.89 1.35463 4.01778 0
M  V30 16507 C 1458.35 0.0174867 3.36895 0
M  V30 16508 O 1458.88 -0.942398 3.90489 0
M  V30 16509 N 1457.09 -0.0546572 2.90549 0
M  V30 16510 H 1456.63 0.727204 2.47122 0
M  V30 16511 H 1456.59 -0.916521 3.00744 0
M  V30 16512 N 1460.36 -0.94061 1.26453 0
M  V30 16513 C 1461.31 -2.06073 1.07873 0
M  V30 16514 C 1462.3 -1.69399 0.0055001 0
M  V30 16515 O 1463.51 -1.79267 0.162224 0
M  V30 16516 H 1459.89 -0.674748 0.331993 0
M  V30 16517 H 1461.86 -2.18895 2.02799 0
M  V30 16518 C 1460.61 -3.39971 0.729054 0
M  V30 16519 H 1459.93 -3.68667 1.54675 0
M  V30 16520 H 1461.37 -4.1916 0.638844 0
M  V30 16521 C 1459.83 -3.32114 -0.565835 0
M  V30 16522 O 1460.36 -3.68287 -1.60399 0
M  V30 16523 N 1458.56 -2.85218 -0.556679 0
M  V30 16524 H 1458.11 -2.55979 0.288541 0
M  V30 16525 H 1458.07 -2.80344 -1.42318 0
M  V30 16526 N 1461.84 -1.08266 -1.14527 0
M  V30 16527 C 1463.09 -0.806405 -1.84878 0
M  V30 16528 C 1463.4 0.670151 -1.83762 0
M  V30 16529 O 1464.61 1.06151 -2.49888 0
M  V30 16530 C 1463.06 -1.39257 -3.31867 0
M  V30 16531 C 1462.67 -2.90081 -3.41404 0
M  V30 16532 C 1464.42 -1.19475 -4.0734 0
M  V30 16533 C 1462.32 -3.41842 -4.82595 0
M  V30 16534 H 1461.25 -0.297993 -0.692615 0
M  V30 16535 H 1463.9 -1.30389 -1.29116 0
M  V30 16536 H 1462.29 -0.822802 -3.87358 0
M  V30 16537 H 1463.46 -3.53182 -2.95971 0
M  V30 16538 H 1461.78 -3.08761 -2.79385 0
M  V30 16539 H 1464.37 -1.55614 -5.11555 0
M  V30 16540 H 1464.72 -0.134455 -4.16083 0
M  V30 16541 H 1465.25 -1.73138 -3.58145 0
M  V30 16542 H 1461.99 -4.47439 -4.79039 0
M  V30 16543 H 1461.51 -2.835 -5.28572 0
M  V30 16544 H 1463.19 -3.38346 -5.51481 0
M  V30 16545 N 1463.32 1.31536 -0.86811 0
M  V30 16546 C 1464.27 2.30504 -0.311581 0
M  V30 16547 C 1465.26 1.59439 0.572332 0
M  V30 16548 O 1466.47 1.74059 0.458639 0
M  V30 16549 H 1462.84 0.747508 -0.0820745 0
M  V30 16550 H 1464.81 2.74919 -1.16026 0
M  V30 16551 C 1463.56 3.44459 0.473622 0
M  V30 16552 H 1462.89 3.99313 -0.197259 0
M  V30 16553 H 1464.33 4.15829 0.828393 0
M  V30 16554 C 1462.78 2.92929 1.66416 0
M  V30 16555 O 1463.31 2.91543 2.76344 0
M  V30 16556 N 1461.52 2.49154 1.49568 0
M  V30 16557 H 1461.07 2.50481 0.601408 0
M  V30 16558 H 1461.03 2.15032 2.29366 0
M  V30 16559 N 1464.8 0.627364 1.44575 0
M  V30 16560 C 1465.74 -0.0798044 2.30662 0
M  V30 16561 C 1466.71 -0.840528 1.43263 0
M  V30 16562 O 1467.9 -0.82232 1.7217 0
M  V30 16563 C 1465.04 -1.05796 3.28483 0
M  V30 16564 C 1464.15 -0.296052 4.30984 0
M  V30 16565 C 1463.29 -1.26569 5.15901 0
M  V30 16566 C 1462.33 -0.492722 6.10114 0
M  V30 16567 N 1461.46 -1.41263 6.87742 0
M  V30 16568 H 1466.3 0.660254 2.90594 0
M  V30 16569 H 1463.84 0.337382 1.43179 0
M  V30 16570 H 1465.8 -1.63842 3.83682 0
M  V30 16571 H 1464.43 -1.7652 2.7026 0
M  V30 16572 H 1463.48 0.400259 3.78288 0
M  V30 16573 H 1464.79 0.306149 4.9786 0
M  V30 16574 H 1463.95 -1.9176 5.75598 0
M  V30 16575 H 1462.69 -1.90182 4.4909 0
M  V30 16576 H 1461.69 0.172696 5.49529 0
M  V30 16577 H 1462.92 0.138634 6.78958 0
M  V30 16578 H 1460.86 -2.03604 6.23604 0
M  V30 16579 H 1460.78 -0.864362 7.51042 0
M  V30 16580 H 1462.05 -2.0535 7.51965 0
M  V30 16581 N 1466.28 -1.53251 0.367684 0
M  V30 16582 C 1467.5 -2.05705 -0.222047 0
M  V30 16583 C 1467.92 -1.24104 -1.4228 0
M  V30 16584 O 1467.28 -0.282228 -1.80305 0
M  V30 16585 C 1467.33 -3.56257 -0.613475 0
M  V30 16586 O 1467.05 -4.34765 0.539558 0
M  V30 16587 C 1468.55 -4.24976 -1.26137 0
M  V30 16588 H 1465.77 -0.66989 -0.0385799 0
M  V30 16589 H 1468.31 -1.97602 0.526663 0
M  V30 16590 H 1466.47 -3.64503 -1.3121 0
M  V30 16591 H 1466.88 -5.24027 0.222699 0
M  V30 16592 H 1468.36 -5.31628 -1.4858 0
M  V30 16593 H 1468.83 -3.78828 -2.2223 0
M  V30 16594 H 1469.44 -4.20987 -0.604121 0
M  V30 16595 N 1467.75 -0.0969077 -1.57302 0
M  V30 16596 C 1468.7 0.878876 -2.15357 0
M  V30 16597 C 1469.7 1.29091 -1.0969 0
M  V30 16598 O 1470.9 1.26523 -1.28031 0
M  V30 16599 H 1467.28 0.301458 -0.688932 0
M  V30 16600 H 1469.25 0.364542 -2.96165 0
M  V30 16601 C 1468 2.12761 -2.75006 0
M  V30 16602 H 1467.32 1.81944 -3.56 0
M  V30 16603 H 1468.76 2.79092 -3.19193 0
M  V30 16604 C 1467.22 2.90283 -1.70989 0
M  V30 16605 O 1467.75 3.84889 -1.14992 0
M  V30 16606 N 1465.95 2.53857 -1.41439 0
M  V30 16607 H 1465.5 1.76993 -1.87166 0
M  V30 16608 H 1465.46 3.06025 -0.720816 0
M  V30 16609 N 1469.23 1.56605 0.176793 0
M  V30 16610 C 1470.48 1.81952 0.895627 0
M  V30 16611 C 1470.81 0.673893 1.82133 0
M  V30 16612 O 1470.09 -0.324494 1.91774 0
M  V30 16613 C 1470.37 3.17658 1.69604 0
M  V30 16614 C 1470.22 4.4274 0.793834 0
M  V30 16615 C 1471.54 3.50246 2.66488 0
M  V30 16616 H 1468.66 0.661884 0.324159 0
M  V30 16617 H 1471.3 1.89307 0.162092 0
M  V30 16618 H 1469.45 3.11518 2.3214 0
M  V30 16619 H 1471.12 4.60942 0.181775 0
M  V30 16620 H 1469.37 4.33681 0.101566 0
M  V30 16621 H 1470.04 5.34231 1.38927 0
M  V30 16622 H 1472.51 3.56804 2.1408 0
M  V30 16623 H 1471.39 4.46286 3.19562 0
M  V30 16624 H 1471.65 2.7467 3.46423 0
M  V30 16625 N 1470.71 -0.445159 1.51182 0
M  V30 16626 C 1471.96 -1.19215 1.62698 0
M  V30 16627 C 1472.27 -1.92529 0.345249 0
M  V30 16628 O 1473.48 -2.69367 0.33967 0
M  V30 16629 C 1471.93 -2.16762 2.87302 0
M  V30 16630 C 1471.54 -1.49131 4.2245 0
M  V30 16631 C 1473.29 -2.91942 3.08172 0
M  V30 16632 C 1471.19 -2.45117 5.38212 0
M  V30 16633 H 1470.12 -0.448687 0.605967 0
M  V30 16634 H 1472.77 -0.459956 1.77642 0
M  V30 16635 H 1471.16 -2.93383 2.65975 0
M  V30 16636 H 1472.33 -0.781222 4.54129 0
M  V30 16637 H 1470.64 -0.861342 4.07394 0
M  V30 16638 H 1473.24 -3.6383 3.91832 0
M  V30 16639 H 1473.58 -3.52837 2.20934 0
M  V30 16640 H 1474.12 -2.22429 3.29803 0
M  V30 16641 H 1470.86 -1.88923 6.27685 0
M  V30 16642 H 1470.38 -3.14202 5.10918 0
M  V30 16643 H 1472.06 -3.06411 5.69843 0
M  V30 16644 N 1472.19 -1.41197 -0.700089 0
M  V30 16645 C 1473.12 -1.45456 -1.8266 0
M  V30 16646 C 1474.1 -0.313719 -1.67182 0
M  V30 16647 O 1475.28 -0.524528 -1.86982 0
M  V30 16648 C 1472.41 -1.33161 -3.20758 0
M  V30 16649 C 1471.37 -2.4501 -3.50933 0
M  V30 16650 C 1470.69 -2.17782 -4.88339 0
M  V30 16651 C 1471.99 -3.87352 -3.50365 0
M  V30 16652 H 1473.69 -2.39735 -1.79353 0
M  V30 16653 H 1471.23 -1.1539 -0.861465 0
M  V30 16654 H 1473.19 -1.34754 -3.99274 0
M  V30 16655 H 1471.91 -0.353646 -3.2468 0
M  V30 16656 H 1470.57 -2.42692 -2.74766 0
M  V30 16657 H 1470.22 -1.1834 -4.88881 0
M  V30 16658 H 1469.92 -2.92728 -5.09494 0
M  V30 16659 H 1471.44 -2.21083 -5.6917 0
M  V30 16660 H 1472.86 -3.9141 -4.18893 0
M  V30 16661 H 1471.25 -4.61944 -3.83051 0
M  V30 16662 H 1472.32 -4.15827 -2.4943 0
M  V30 16663 N 1473.67 0.933891 -1.2695 0
M  V30 16664 C 1474.6 2.03399 -1.03461 0
M  V30 16665 C 1475.58 1.62543 0.0430025 0
M  V30 16666 O 1476.76 1.8823 -0.100894 0
M  V30 16667 C 1473.89 3.339 -0.56818 0
M  V30 16668 C 1472.93 3.93732 -1.63944 0
M  V30 16669 S 1473.77 4.27096 -3.23032 0
M  V30 16670 C 1474.92 5.60686 -2.78176 0
M  V30 16671 H 1475.16 2.23011 -1.96604 0
M  V30 16672 H 1472.69 1.07621 -1.10711 0
M  V30 16673 H 1474.65 4.0936 -0.305745 0
M  V30 16674 H 1473.31 3.12221 0.343096 0
M  V30 16675 H 1472.5 4.87886 -1.26424 0
M  V30 16676 H 1472.1 3.24833 -1.85362 0
M  V30 16677 H 1474.39 6.39715 -2.23093 0
M  V30 16678 H 1475.34 6.03098 -3.7105 0
M  V30 16679 H 1475.75 5.20912 -2.17511 0
M  V30 16680 N 1475.14 1.08871 1.13951 0
M  V30 16681 C 1476.39 0.821287 1.85098 0
M  V30 16682 C 1476.72 -0.65302 1.8321 0
M  V30 16683 O 1475.97 -1.49629 1.26134 0
M  V30 16684 C 1476.27 1.29443 3.33135 0
M  V30 16685 C 1475.94 2.77737 3.55208 0
M  V30 16686 C 1474.6 3.18238 3.60941 0
M  V30 16687 C 1476.95 3.7338 3.63644 0
M  V30 16688 C 1474.28 4.53165 3.72637 0
M  V30 16689 C 1476.63 5.08089 3.76867 0
M  V30 16690 C 1475.3 5.48187 3.8085 0
M  V30 16691 H 1474.57 0.30053 0.67732 0
M  V30 16692 H 1477.21 1.36249 1.34568 0
M  V30 16693 H 1475.52 0.672919 3.85978 0
M  V30 16694 H 1477.22 1.06421 3.86621 0
M  V30 16695 H 1473.81 2.45393 3.51398 0
M  V30 16696 H 1477.99 3.43207 3.58501 0
M  V30 16697 H 1473.25 4.83679 3.73985 0
M  V30 16698 H 1477.42 5.82058 3.82337 0
M  V30 16699 H 1475.05 6.52737 3.89665 0
M  V30 16700 N 1476.62 -1.31073 0.875073 0
M  V30 16701 C 1477.55 -2.30855 0.350468 0
M  V30 16702 C 1478.53 -1.60569 -0.561384 0
M  V30 16703 O 1479.72 -1.88242 -0.477329 0
M  V30 16704 C 1476.85 -3.44444 -0.444493 0
M  V30 16705 C 1475.8 -4.26357 0.374716 0
M  V30 16706 C 1475.13 -5.31903 -0.546243 0
M  V30 16707 C 1476.43 -4.96817 1.61153 0
M  V30 16708 H 1478.12 -2.74983 1.18427 0
M  V30 16709 H 1475.67 -1.32199 0.570909 0
M  V30 16710 H 1477.62 -4.13304 -0.82206 0
M  V30 16711 H 1476.34 -2.99096 -1.31185 0
M  V30 16712 H 1475 -3.59171 0.734295 0
M  V30 16713 H 1474.65 -4.82803 -1.41102 0
M  V30 16714 H 1474.35 -5.876 -0.00198173 0
M  V30 16715 H 1475.88 -6.03621 -0.920542 0
M  V30 16716 H 1477.29 -5.58247 1.30511 0
M  V30 16717 H 1475.69 -5.62334 2.09524 0
M  V30 16718 H 1476.76 -4.2351 2.36151 0
M  V30 16719 N 1478.1 -0.635022 -1.4424 0
M  V30 16720 C 1479.33 -0.146549 -2.06882 0
M  V30 16721 C 1479.75 1.17143 -1.4717 0
M  V30 16722 O 1479.11 1.71952 -0.574636 0
M  V30 16723 C 1479.16 -0.0494694 -3.60566 0
M  V30 16724 O 1478.26 0.993423 -4.00256 0
M  V30 16725 H 1477.6 -0.0865505 -0.658335 0
M  V30 16726 H 1480.13 -0.872803 -1.85049 0
M  V30 16727 H 1480.14 0.139839 -4.0776 0
M  V30 16728 H 1478.82 -1.01169 -4.03407 0
M  V30 16729 H 1477.39 0.778372 -3.64686 0
M  V30 16730 N 1479.58 1.53054 -0.375806 0
M  V30 16731 C 1480.53 2.27576 0.480838 0
M  V30 16732 C 1481.52 1.30948 1.07466 0
M  V30 16733 O 1482.73 1.48538 1.01669 0
M  V30 16734 H 1479.1 0.731641 0.173799 0
M  V30 16735 H 1481.07 2.97919 -0.169327 0
M  V30 16736 C 1479.82 3.08533 1.60321 0
M  V30 16737 H 1479.14 3.82735 1.15558 0
M  V30 16738 H 1480.58 3.63837 2.17712 0
M  V30 16739 C 1479.04 2.20004 2.55147 0
M  V30 16740 O 1479.57 1.81771 3.58221 0
M  V30 16741 N 1477.78 1.84433 2.24573 0
M  V30 16742 H 1477.33 2.15723 1.40788 0
M  V30 16743 H 1477.28 1.25488 2.88271 0
M  V30 16744 N 1481.06 0.105248 1.57248 0
M  V30 16745 C 1481.99 -0.846915 2.176 0
M  V30 16746 C 1482.97 -1.28706 1.11216 0
M  V30 16747 O 1484.15 -1.35213 1.39396 0
M  V30 16748 C 1481.28 -2.10228 2.76445 0
M  V30 16749 C 1480.24 -1.80041 3.8829 0
M  V30 16750 C 1479.56 -3.12491 4.33882 0
M  V30 16751 C 1480.86 -1.07943 5.11024 0
M  V30 16752 H 1482.56 -0.344052 2.97417 0
M  V30 16753 H 1480.1 -0.164045 1.43063 0
M  V30 16754 H 1482.06 -2.77284 3.17319 0
M  V30 16755 H 1480.78 -2.62815 1.93897 0
M  V30 16756 H 1479.44 -1.15379 3.4797 0
M  V30 16757 H 1479.09 -3.62985 3.48211 0
M  V30 16758 H 1478.79 -2.93072 5.09296 0
M  V30 16759 H 1480.31 -3.80688 4.77398 0
M  V30 16760 H 1481.72 -1.65127 5.49004 0
M  V30 16761 H 1480.12 -0.986674 5.91933 0
M  V30 16762 H 1481.19 -0.0638511 4.84858 0
M  V30 16763 N 1482.53 -1.56697 -0.168486 0
M  V30 16764 C 1483.48 -1.9755 -1.22787 0
M  V30 16765 C 1484.48 -0.864668 -1.4567 0
M  V30 16766 O 1485.68 -1.04979 -1.46217 0
M  V30 16767 H 1482.06 -0.628561 -0.412813 0
M  V30 16768 H 1484.03 -2.85845 -0.85646 0
M  V30 16769 C 1482.78 -2.35394 -2.559 0
M  V30 16770 H 1482.1 -3.20412 -2.39115 0
M  V30 16771 H 1483.54 -2.67821 -3.28706 0
M  V30 16772 C 1482 -1.19842 -3.14864 0
M  V30 16773 O 1482.53 -0.487601 -3.9873 0
M  V30 16774 N 1480.74 -0.968249 -2.73995 0
M  V30 16775 H 1480.28 -1.54804 -2.05897 0
M  V30 16776 H 1480.24 -0.196951 -3.13783 0
M  V30 16777 N 1484.01 0.437135 -1.51416 0
M  V30 16778 C 1485.29 1.1978 -1.54636 0
M  V30 16779 C 1485.67 2.088 -0.310747 0
M  V30 16780 O 1485.02 2.1738 0.704148 0
M  V30 16781 C 1485.23 1.99947 -2.86046 0
M  V30 16782 C 1486.58 2.56981 -3.38003 0
M  V30 16783 O 1487.6 2.10157 -2.87598 0
M  V30 16784 O 1486.46 3.42383 -4.25953 0
M  V30 16785 H 1483.55 0.545346 -0.621713 0
M  V30 16786 H 1486.1 0.446189 -1.63729 0
M  V30 16787 H 1484.87 1.34564 -3.67435 0
M  V30 16788 H 1484.49 2.82172 -2.80115 0
M  V30 16789 N 1485.49 1.41566 0.692592 0
M  V30 16790 C 1486.74 1.40381 1.44831 0
M  V30 16791 C 1487.05 0.0172068 1.95592 0
M  V30 16792 O 1488.26 -0.11726 2.71247 0
M  V30 16793 C 1486.71 2.46844 2.61908 0
M  V30 16794 C 1486.32 3.91426 2.17921 0
M  V30 16795 C 1488.07 2.548 3.39525 0
M  V30 16796 C 1485.97 4.89436 3.31974 0
M  V30 16797 H 1484.9 0.522062 0.544028 0
M  V30 16798 H 1487.55 1.67402 0.751589 0
M  V30 16799 H 1485.94 2.12959 3.33863 0
M  V30 16800 H 1487.11 4.34575 1.53236 0
M  V30 16801 H 1485.43 3.87158 1.5329 0
M  V30 16802 H 1488.02 3.25207 4.24434 0
M  V30 16803 H 1488.37 1.58579 3.84913 0
M  V30 16804 H 1488.9 2.87791 2.74629 0
M  V30 16805 H 1485.64 5.87071 2.91595 0
M  V30 16806 H 1485.16 4.50933 3.95499 0
M  V30 16807 H 1486.84 5.10331 3.97708 0
M  V30 16808 N 1486.97 -0.927146 1.27443 0
M  V30 16809 C 1487.92 -2.02783 1.10216 0
M  V30 16810 C 1488.89 -1.661 0.00307842 0
M  V30 16811 O 1490.07 -1.90081 0.165508 0
M  V30 16812 C 1487.21 -3.36718 0.755984 0
M  V30 16813 C 1486.32 -3.86353 1.93276 0
M  V30 16814 C 1485.46 -5.08737 1.52841 0
M  V30 16815 C 1484.5 -5.50669 2.67263 0
M  V30 16816 N 1483.63 -6.6425 2.27413 0
M  V30 16817 H 1488.47 -2.16851 2.04401 0
M  V30 16818 H 1486.01 -1.06232 1.0175 0
M  V30 16819 H 1487.97 -4.13741 0.53609 0
M  V30 16820 H 1486.6 -3.22456 -0.148909 0
M  V30 16821 H 1485.65 -3.05604 2.26518 0
M  V30 16822 H 1486.96 -4.13401 2.79108 0
M  V30 16823 H 1486.12 -5.93263 1.26979 0
M  V30 16824 H 1484.86 -4.83467 0.641187 0
M  V30 16825 H 1483.86 -4.64692 2.93839 0
M  V30 16826 H 1485.09 -5.77934 3.56607 0
M  V30 16827 H 1483.03 -6.40636 1.41143 0
M  V30 16828 H 1482.95 -6.90955 3.06784 0
M  V30 16829 H 1484.22 -7.52115 2.048 0
M  V30 16830 N 1488.45 -1.09474 -1.13372 0
M  V30 16831 C 1489.7 -0.825968 -1.84013 0
M  V30 16832 C 1490.01 0.650623 -1.84462 0
M  V30 16833 O 1491.21 1.03495 -2.51 0
M  V30 16834 C 1489.67 -1.42769 -3.30371 0
M  V30 16835 C 1489.28 -2.93686 -3.38308 0
M  V30 16836 C 1491.02 -1.23788 -4.0605 0
M  V30 16837 C 1488.93 -3.46942 -4.78942 0
M  V30 16838 H 1487.86 -0.305322 -0.689416 0
M  V30 16839 H 1490.51 -1.31751 -1.27726 0
M  V30 16840 H 1488.89 -0.86384 -3.86463 0
M  V30 16841 H 1490.07 -3.56302 -2.92208 0
M  V30 16842 H 1488.38 -3.11706 -2.76094 0
M  V30 16843 H 1490.98 -1.61031 -5.09876 0
M  V30 16844 H 1491.32 -0.178578 -4.15917 0
M  V30 16845 H 1491.85 -1.76927 -3.56289 0
M  V30 16846 H 1488.59 -4.52495 -4.74267 0
M  V30 16847 H 1488.11 -2.8909 -5.25535 0
M  V30 16848 H 1489.79 -3.44176 -5.47861 0
M  V30 16849 N 1489.92 1.30607 -0.882012 0
M  V30 16850 C 1490.87 2.3016 -0.336011 0
M  V30 16851 C 1491.87 1.60037 0.555389 0
M  V30 16852 O 1493.07 1.74536 0.440152 0
M  V30 16853 H 1489.45 0.746595 -0.0899982 0
M  V30 16854 H 1491.42 2.73673 -1.18936 0
M  V30 16855 C 1490.17 3.44942 0.437061 0
M  V30 16856 H 1489.49 3.99081 -0.2396 0
M  V30 16857 H 1490.93 4.16684 0.784242 0
M  V30 16858 C 1489.39 2.94678 1.633 0
M  V30 16859 O 1489.92 2.94457 2.73236 0
M  V30 16860 N 1488.13 2.50727 1.46917 0
M  V30 16861 H 1487.67 2.51105 0.574807 0
M  V30 16862 H 1487.63 2.17453 2.27072 0
M  V30 16863 N 1491.4 0.642663 1.43901 0
M  V30 16864 C 1492.35 -0.0673926 2.32502 0
M  V30 16865 C 1493.34 -0.823981 1.4801 0
M  V30 16866 O 1494.55 -0.735575 1.64284 0
M  V30 16867 H 1490.93 -0.0405715 0.750905 0
M  V30 16868 H 1492.9 0.69777 2.90127 0
M  V30 16869 C 1491.65 -1.02745 3.32173 0
M  V30 16870 H 1490.97 -0.454697 3.97206 0
M  V30 16871 H 1492.41 -1.49355 3.96824 0
M  V30 16872 C 1490.87 -2.11835 2.61969 0
M  V30 16873 O 1491.4 -3.20074 2.42725 0
M  V30 16874 N 1489.6 -1.88092 2.21517 0
M  V30 16875 H 1489.15 -1.00072 2.37368 0
M  V30 16876 H 1489.11 -2.61279 1.74873 0
M  V30 16877 N 1492.88 -1.52852 0.383918 0
M  V30 16878 C 1494.11 -2.05929 -0.200216 0
M  V30 16879 C 1494.52 -1.25606 -1.40956 0
M  V30 16880 O 1493.88 -0.301336 -1.79995 0
M  V30 16881 C 1493.93 -3.56887 -0.575655 0
M  V30 16882 O 1493.65 -4.34168 0.58564 0
M  V30 16883 C 1495.15 -4.2629 -1.21623 0
M  V30 16884 H 1492.37 -0.670261 -0.0314727 0
M  V30 16885 H 1494.92 -1.97032 0.547591 0
M  V30 16886 H 1493.07 -3.65875 -1.27336 0
M  V30 16887 H 1493.49 -5.23761 0.278267 0
M  V30 16888 H 1494.96 -5.33174 -1.42933 0
M  V30 16889 H 1495.44 -3.81163 -2.182 0
M  V30 16890 H 1496.04 -4.21605 -0.559435 0
M  V30 16891 N 1494.36 -0.113586 -1.5719 0
M  V30 16892 C 1495.78 0.243023 -1.57739 0
M  V30 16893 C 1495.98 1.67105 -1.12597 0
M  V30 16894 O 1495.03 2.39126 -0.810874 0
M  V30 16895 C 1496.34 0.014629 -3.00696 0
M  V30 16896 C 1497.89 0.0809485 -3.12895 0
M  V30 16897 C 1498.37 -0.119685 -4.57844 0
M  V30 16898 N 1499.86 -0.0654711 -4.63154 0
M  V30 16899 C 1500.59 -0.195692 -5.73066 0
M  V30 16900 N 1500.09 -0.381782 -6.91747 0
M  V30 16901 N 1501.88 -0.13565 -5.61936 0
M  V30 16902 H 1494.03 -1.04639 -1.84836 0
M  V30 16903 H 1496.3 -0.411609 -0.85398 0
M  V30 16904 H 1496 -0.972399 -3.3799 0
M  V30 16905 H 1495.88 0.748882 -3.69691 0
M  V30 16906 H 1498.26 1.0585 -2.75463 0
M  V30 16907 H 1498.34 -0.685097 -2.46455 0
M  V30 16908 H 1497.99 -1.09418 -4.95974 0
M  V30 16909 H 1497.92 0.666281 -5.22368 0
M  V30 16910 H 1500.41 0.0750649 -3.77825 0
M  V30 16911 H 1500.72 -0.472157 -7.71356 0
M  V30 16912 H 1499.07 -0.417686 -6.93744 0
M  V30 16913 H 1502.26 0.0087301 -4.68099 0
M  V30 16914 H 1502.43 -0.240579 -6.47553 0
M  V30 16915 N 1495.84 1.56784 0.160173 0
M  V30 16916 C 1496.78 1.97267 1.1981 0
M  V30 16917 C 1497.75 0.83824 1.43397 0
M  V30 16918 O 1498.94 1.09926 1.55952 0
M  V30 16919 C 1496.08 2.34725 2.52979 0
M  V30 16920 C 1495.19 3.61397 2.36677 0
M  V30 16921 C 1494.33 3.88018 3.62789 0
M  V30 16922 C 1493.37 5.08002 3.41468 0
M  V30 16923 N 1492.5 5.30699 4.59677 0
M  V30 16924 H 1497.34 2.85743 0.845878 0
M  V30 16925 H 1494.88 1.41379 0.406249 0
M  V30 16926 H 1496.84 2.54468 3.30608 0
M  V30 16927 H 1495.47 1.49345 2.86175 0
M  V30 16928 H 1494.52 3.49505 1.50167 0
M  V30 16929 H 1495.83 4.49185 2.16875 0
M  V30 16930 H 1494.99 4.08188 4.48851 0
M  V30 16931 H 1493.73 2.98627 3.85582 0
M  V30 16932 H 1492.73 4.87718 2.53793 0
M  V30 16933 H 1493.96 5.98934 3.20086 0
M  V30 16934 H 1491.9 4.44261 4.82668 0
M  V30 16935 H 1491.82 6.1273 4.42829 0
M  V30 16936 H 1493.09 5.55357 5.46991 0
M  V30 16937 N 1497.32 -0.429099 1.51646 0
M  V30 16938 C 1498.25 -1.52867 1.76505 0
M  V30 16939 C 1499.23 -1.58586 0.615178 0
M  V30 16940 O 1500.41 -1.74182 0.858742 0
M  V30 16941 C 1497.54 -2.90875 1.8976 0
M  V30 16942 C 1496.5 -3.00014 3.05247 0
M  V30 16943 C 1495.82 -4.40082 3.03696 0
M  V30 16944 C 1497.12 -2.73334 4.45068 0
M  V30 16945 H 1498.82 -1.32315 2.68576 0
M  V30 16946 H 1496.36 -0.635091 1.29238 0
M  V30 16947 H 1498.31 -3.67765 2.05734 0
M  V30 16948 H 1497.04 -3.12677 0.943442 0
M  V30 16949 H 1495.7 -2.25565 2.88991 0
M  V30 16950 H 1495.35 -4.58864 2.06042 0
M  V30 16951 H 1495.05 -4.47125 3.81252 0
M  V30 16952 H 1496.57 -5.18935 3.21774 0
M  V30 16953 H 1497.98 -3.39954 4.61632 0
M  V30 16954 H 1496.38 -2.91777 5.24391 0
M  V30 16955 H 1497.45 -1.68889 4.54538 0
M  V30 16956 N 1498.79 -1.41931 -0.685074 0
M  V30 16957 C 1500.02 -1.45018 -1.4715 0
M  V30 16958 C 1500.43 -0.0569412 -1.89114 0
M  V30 16959 O 1499.77 0.936419 -1.58041 0
M  V30 16960 C 1499.84 -2.30522 -2.75862 0
M  V30 16961 C 1499.5 -3.78542 -2.56037 0
M  V30 16962 C 1500.5 -4.70448 -2.21303 0
M  V30 16963 C 1498.18 -4.22698 -2.71351 0
M  V30 16964 C 1500.18 -6.045 -2.02135 0
M  V30 16965 C 1497.86 -5.56812 -2.518 0
M  V30 16966 C 1498.86 -6.47529 -2.17244 0
M  V30 16967 O 1498.55 -7.79167 -1.97872 0
M  V30 16968 H 1498.28 -0.495682 -0.459647 0
M  V30 16969 H 1500.84 -1.86983 -0.850079 0
M  V30 16970 H 1499.07 -1.83389 -3.40449 0
M  V30 16971 H 1500.75 -2.25186 -3.37707 0
M  V30 16972 H 1501.52 -4.37621 -2.09077 0
M  V30 16973 H 1497.4 -3.52385 -2.9723 0
M  V30 16974 H 1500.94 -6.75271 -1.75086 0
M  V30 16975 H 1496.84 -5.89216 -2.6362 0
M  V30 16976 H 1497.61 -7.9042 -2.12552 0
M  V30 16977 N 1500.27 0.920374 -1.27933 0
M  V30 16978 C 1501.52 1.66338 -1.14081 0
M  V30 16979 C 1501.83 1.93107 0.311324 0
M  V30 16980 O 1503.04 2.65431 0.570862 0
M  V30 16981 C 1501.5 2.99624 -1.99383 0
M  V30 16982 C 1501.1 2.80527 -3.49297 0
M  V30 16983 C 1502.85 3.77474 -1.94199 0
M  V30 16984 C 1500.75 4.09413 -4.26773 0
M  V30 16985 H 1499.68 0.623935 -0.423346 0
M  V30 16986 H 1502.34 1.0219 -1.52412 0
M  V30 16987 H 1500.72 3.6487 -1.53902 0
M  V30 16988 H 1501.89 2.24002 -4.02691 0
M  V30 16989 H 1500.21 2.16097 -3.55937 0
M  V30 16990 H 1502.8 4.72997 -2.49356 0
M  V30 16991 H 1503.15 4.06069 -0.917249 0
M  V30 16992 H 1503.68 3.19036 -2.37614 0
M  V30 16993 H 1500.42 3.85994 -5.29801 0
M  V30 16994 H 1499.94 4.65574 -3.78155 0
M  V30 16995 H 1501.62 4.77721 -4.36339 0
M  V30 16996 N 1501.75 1.10074 1.1279 0
M  V30 16997 C 1502.68 0.768146 2.20503 0
M  V30 16998 C 1503.66 -0.257199 1.68144 0
M  V30 16999 O 1504.85 -0.12379 1.93805 0
M  V30 17000 C 1501.98 0.195125 3.46751 0
M  V30 17001 C 1500.93 1.15074 4.1224 0
M  V30 17002 C 1500.26 0.439098 5.32894 0
M  V30 17003 C 1501.56 2.49584 4.58808 0
M  V30 17004 H 1503.25 1.66876 2.48581 0
M  V30 17005 H 1500.8 0.803806 1.19478 0
M  V30 17006 H 1502.75 -0.0496695 4.21371 0
M  V30 17007 H 1501.47 -0.740717 3.1809 0
M  V30 17008 H 1500.13 1.38092 3.39597 0
M  V30 17009 H 1499.78 -0.501096 5.00498 0
M  V30 17010 H 1499.48 1.07632 5.77658 0
M  V30 17011 H 1501 0.202761 6.10263 0
M  V30 17012 H 1502.42 2.30736 5.24818 0
M  V30 17013 H 1500.81 3.09157 5.14336 0
M  V30 17014 H 1501.88 3.09857 3.72984 0
M  V30 17015 N 1503.23 -1.30138 0.888926 0
M  V30 17016 C 1504.19 -2.26299 0.363504 0
M  V30 17017 C 1505.19 -1.52951 -0.496244 0
M  V30 17018 O 1506.38 -1.71548 -0.302834 0
M  V30 17019 C 1503.51 -3.37482 -0.481544 0
M  V30 17020 H 1504.71 -2.7429 1.21265 0
M  V30 17021 H 1502.26 -1.41395 0.666124 0
M  V30 17022 H 1502.99 -2.94814 -1.35112 0
M  V30 17023 H 1502.78 -3.9187 0.134344 0
M  V30 17024 H 1504.27 -4.09048 -0.840816 0
M  V30 17025 N 1504.71 -0.650285 -1.43559 0
M  V30 17026 C 1505.64 0.0927934 -2.28011 0
M  V30 17027 C 1506.62 0.832739 -1.39657 0
M  V30 17028 O 1507.8 0.832912 -1.691 0
M  V30 17029 C 1504.93 1.13806 -3.19008 0
M  V30 17030 C 1503.97 0.496488 -4.236 0
M  V30 17031 S 1504.81 -0.727765 -5.30532 0
M  V30 17032 C 1505.96 0.317035 -6.25097 0
M  V30 17033 H 1506.2 -0.623605 -2.90686 0
M  V30 17034 H 1503.73 -0.439032 -1.48027 0
M  V30 17035 H 1505.69 1.73612 -3.7198 0
M  V30 17036 H 1504.35 1.82676 -2.55516 0
M  V30 17037 H 1503.54 1.28436 -4.87361 0
M  V30 17038 H 1503.14 -0.0273975 -3.7399 0
M  V30 17039 H 1505.43 1.18408 -6.67073 0
M  V30 17040 H 1506.38 -0.285468 -7.07524 0
M  V30 17041 H 1506.79 0.651527 -5.60728 0
M  V30 17042 N 1506.18 1.52647 -0.392018 0
M  V30 17043 C 1507.41 2.06511 0.191815 0
M  V30 17044 C 1507.83 1.26162 1.39516 0
M  V30 17045 O 1507.19 0.287373 1.79008 0
M  V30 17046 C 1507.24 3.56571 0.537512 0
M  V30 17047 O 1506.34 3.78774 1.63106 0
M  V30 17048 H 1505.68 0.663647 0.0216546 0
M  V30 17049 H 1508.21 1.96779 -0.560274 0
M  V30 17050 H 1508.22 4.00059 0.801044 0
M  V30 17051 H 1506.9 4.14489 -0.342239 0
M  V30 17052 H 1505.48 3.47175 1.36103 0
M  V30 17053 N 1507.66 0.121921 1.57128 0
M  V30 17054 C 1508.61 -0.844503 2.16728 0
M  V30 17055 C 1509.6 -1.2733 1.1173 0
M  V30 17056 O 1510.81 -1.2447 1.30028 0
M  V30 17057 H 1507.19 -0.290459 0.693641 0
M  V30 17058 H 1509.16 -0.317379 2.96707 0
M  V30 17059 C 1507.91 -2.08359 2.78356 0
M  V30 17060 H 1507.23 -1.76258 3.5885 0
M  V30 17061 H 1508.67 -2.73978 3.23592 0
M  V30 17062 C 1507.13 -2.87526 1.75586 0
M  V30 17063 O 1507.66 -3.83011 1.21101 0
M  V30 17064 N 1505.86 -2.51575 1.4546 0
M  V30 17065 H 1505.41 -1.73993 1.89958 0
M  V30 17066 H 1505.37 -3.0484 0.769411 0
M  V30 17067 N 1509.14 -1.56867 -0.151857 0
M  V30 17068 C 1510.39 -1.82273 -0.863689 0
M  V30 17069 C 1510.7 -0.702377 -1.82554 0
M  V30 17070 O 1511.91 -0.841903 -2.58117 0
M  V30 17071 C 1510.36 -3.23046 -1.58649 0
M  V30 17072 C 1509.97 -4.43003 -0.667292 0
M  V30 17073 C 1511.72 -3.57729 -2.28539 0
M  V30 17074 C 1509.62 -5.74798 -1.39144 0
M  V30 17075 H 1508.55 -0.679753 -0.326269 0
M  V30 17076 H 1511.2 -1.8313 -0.116454 0
M  V30 17077 H 1509.59 -3.16561 -2.37918 0
M  V30 17078 H 1510.76 -4.60712 0.0898254 0
M  V30 17079 H 1509.08 -4.16329 -0.0770521 0
M  V30 17080 H 1511.67 -4.53451 -2.83348 0
M  V30 17081 H 1512.02 -2.8355 -3.04803 0
M  V30 17082 H 1512.55 -3.65853 -1.56194 0
M  V30 17083 H 1509.29 -6.52059 -0.670747 0
M  V30 17084 H 1508.81 -5.61032 -2.12139 0
M  V30 17085 H 1510.49 -6.17429 -1.93367 0
M  V30 17086 N 1510.62 0.421051 -1.51871 0
M  V30 17087 C 1511.55 1.51928 -1.77313 0
M  V30 17088 C 1512.53 1.58258 -0.623579 0
M  V30 17089 O 1513.71 1.73724 -0.867967 0
M  V30 17090 C 1510.84 2.89865 -1.913 0
M  V30 17091 C 1509.8 2.98391 -3.06834 0
M  V30 17092 C 1509.12 4.38466 -3.06026 0
M  V30 17093 C 1510.42 2.7097 -4.46511 0
M  V30 17094 H 1512.12 1.30889 -2.69274 0
M  V30 17095 H 1509.66 0.628229 -1.29573 0
M  V30 17096 H 1511.62 3.66669 -2.07682 0
M  V30 17097 H 1510.34 3.12172 -0.960011 0
M  V30 17098 H 1509 2.24029 -2.90184 0
M  V30 17099 H 1508.65 4.57764 -2.08472 0
M  V30 17100 H 1508.35 4.45097 -3.83618 0
M  V30 17101 H 1509.87 5.17221 -3.24522 0
M  V30 17102 H 1511.29 3.37501 -4.63428 0
M  V30 17103 H 1509.68 2.88992 -5.25931 0
M  V30 17104 H 1510.75 1.66476 -4.55427 0
M  V30 17105 N 1512.1 1.42293 0.677538 0
M  V30 17106 C 1513.01 1.47953 1.82063 0
M  V30 17107 C 1514.02 0.36851 1.70053 0
M  V30 17108 O 1515.2 0.618996 1.91652 0
M  V30 17109 C 1512.26 1.3769 3.18186 0
M  V30 17110 C 1511.32 2.59261 3.42173 0
M  V30 17111 C 1510.56 2.49478 4.71801 0
M  V30 17112 O 1510.78 1.52915 5.49521 0
M  V30 17113 O 1509.71 3.39562 4.96972 0
M  V30 17114 H 1513.54 2.4443 1.80244 0
M  V30 17115 H 1511.13 1.24027 0.832932 0
M  V30 17116 H 1513.01 1.34319 3.9942 0
M  V30 17117 H 1511.68 0.443377 3.20649 0
M  V30 17118 H 1510.59 2.68207 2.60798 0
M  V30 17119 H 1511.92 3.51503 3.44538 0
M  V30 17120 N 1513.57 -0.913576 1.28419 0
M  V30 17121 C 1514.52 -2.03739 1.1222 0
M  V30 17122 C 1515.52 -1.69349 0.0414309 0
M  V30 17123 O 1516.72 -1.78883 0.200213 0
M  V30 17124 H 1513.1 -0.667554 0.34623 0
M  V30 17125 H 1515.07 -2.14544 2.07397 0
M  V30 17126 C 1513.82 -3.38348 0.801003 0
M  V30 17127 H 1513.14 -3.65304 1.6246 0
M  V30 17128 H 1514.58 -4.1771 0.727611 0
M  V30 17129 C 1513.04 -3.3324 -0.495261 0
M  V30 17130 O 1513.57 -3.71606 -1.52551 0
M  V30 17131 N 1511.78 -2.86335 -0.496054 0
M  V30 17132 H 1511.32 -2.55309 0.342773 0
M  V30 17133 H 1511.28 -2.833 -1.3634 0
M  V30 17134 N 1515.05 -1.1067 -1.12204 0
M  V30 17135 C 1515.99 -0.70161 -2.17147 0
M  V30 17136 C 1516.96 0.298272 -1.59841 0
M  V30 17137 O 1518.15 0.196594 -1.87472 0
M  V30 17138 C 1515.27 -0.0356178 -3.38681 0
M  V30 17139 C 1514.32 -0.999363 -4.14626 0
M  V30 17140 S 1515.15 -2.51792 -4.72611 0
M  V30 17141 C 1516.31 -1.8647 -5.97478 0
M  V30 17142 H 1516.54 -1.59058 -2.51173 0
M  V30 17143 H 1514.08 -0.923946 -1.23704 0
M  V30 17144 H 1516.03 0.342303 -4.0907 0
M  V30 17145 H 1514.69 0.830184 -3.0293 0
M  V30 17146 H 1513.89 -0.48067 -5.01703 0
M  V30 17147 H 1513.49 -1.31931 -3.49957 0
M  V30 17148 H 1515.78 -1.19637 -6.66853 0
M  V30 17149 H 1516.72 -2.71513 -6.53977 0
M  V30 17150 H 1517.13 -1.32821 -5.48652 0
M  V30 17151 N 1516.53 1.29665 -0.895815 0
M  V30 17152 C 1517.48 2.2542 -0.34201 0
M  V30 17153 C 1518.46 1.5172 0.535712 0
M  V30 17154 O 1519.66 1.72909 0.378364 0
M  V30 17155 C 1516.79 3.4056 0.43287 0
M  V30 17156 C 1515.87 4.21603 -0.459552 0
M  V30 17157 N 1516.26 4.8098 -1.565 0
M  V30 17158 C 1514.56 4.45261 -0.256632 0
M  V30 17159 C 1515.26 5.41792 -2.11746 0
M  V30 17160 N 1514.24 5.24968 -1.411 0
M  V30 17161 H 1518.04 2.68885 -1.18651 0
M  V30 17162 H 1515.55 1.4423 -0.74643 0
M  V30 17163 H 1517.55 4.08219 0.846334 0
M  V30 17164 H 1516.21 2.98633 1.27468 0
M  V30 17165 H 1517.22 4.79877 -1.94777 0
M  V30 17166 H 1513.9 4.13899 0.547131 0
M  V30 17167 H 1515.29 5.9887 -3.04637 0
M  V30 17168 N 1518.01 0.657889 1.43212 0
M  V30 17169 C 1518.96 -0.0427288 2.32561 0
M  V30 17170 C 1519.95 -0.808236 1.48875 0
M  V30 17171 O 1521.16 -0.718109 1.65055 0
M  V30 17172 H 1517.53 -0.0326049 0.751293 0
M  V30 17173 H 1519.5 0.728503 2.89371 0
M  V30 17174 C 1518.25 -0.99216 3.33244 0
M  V30 17175 H 1517.57 -0.412542 3.97666 0
M  V30 17176 H 1519.01 -1.45138 3.98385 0
M  V30 17177 C 1517.47 -2.09044 2.64201 0
M  V30 17178 O 1518 -3.17481 2.46107 0
M  V30 17179 N 1516.21 -1.85732 2.23499 0
M  V30 17180 H 1515.76 -0.975483 2.38416 0
M  V30 17181 H 1515.71 -2.5941 1.77634 0
M  V30 17182 N 1519.49 -1.52437 0.400108 0
M  V30 17183 C 1520.45 -2.2536 -0.417808 0
M  V30 17184 C 1521.45 -1.27393 -0.981204 0
M  V30 17185 O 1522.64 -1.51406 -0.861503 0
M  V30 17186 C 1519.77 -3.01695 -1.58724 0
M  V30 17187 H 1520.96 -2.99086 0.220782 0
M  V30 17188 H 1518.52 -1.55555 0.152439 0
M  V30 17189 H 1519.25 -2.32295 -2.26295 0
M  V30 17190 H 1519.04 -3.73611 -1.18984 0
M  V30 17191 H 1520.53 -3.57033 -2.16604 0
M  V30 17192 N 1520.96 -0.130252 -1.57061 0
M  V30 17193 C 1521.91 0.832998 -2.17173 0
M  V30 17194 C 1522.91 1.26735 -1.12403 0
M  V30 17195 O 1524.11 1.23778 -1.30686 0
M  V30 17196 H 1520.49 0.286777 -0.695171 0
M  V30 17197 H 1522.46 0.301639 -2.96872 0
M  V30 17198 C 1521.21 2.06879 -2.79457 0
M  V30 17199 H 1520.53 1.74352 -3.5978 0
M  V30 17200 H 1521.97 2.72258 -3.25041 0
M  V30 17201 C 1520.43 2.86591 -1.77108 0
M  V30 17202 O 1520.96 3.82363 -1.2313 0
M  V30 17203 N 1519.17 2.508 -1.46792 0
M  V30 17204 H 1518.71 1.72984 -1.90878 0
M  V30 17205 H 1518.67 3.04428 -0.785566 0
M  V30 17206 N 1522.44 1.56945 0.143535 0
M  V30 17207 C 1523.69 1.82728 0.854011 0
M  V30 17208 C 1524.01 0.712048 1.82179 0
M  V30 17209 O 1525.21 0.855579 2.57667 0
M  V30 17210 C 1523.67 3.23882 1.56934 0
M  V30 17211 C 1523.28 4.4335 0.643789 0
M  V30 17212 C 1525.02 3.58936 2.26639 0
M  V30 17213 C 1522.93 5.75528 1.36094 0
M  V30 17214 H 1521.86 0.681474 0.32266 0
M  V30 17215 H 1524.51 1.83189 0.106741 0
M  V30 17216 H 1522.89 3.17819 2.36236 0
M  V30 17217 H 1524.06 4.60658 -0.114257 0
M  V30 17218 H 1522.38 4.16364 0.0549721 0
M  V30 17219 H 1524.98 4.54948 2.80939 0
M  V30 17220 H 1525.32 2.85163 3.03295 0
M  V30 17221 H 1525.85 3.66676 1.54252 0
M  V30 17222 H 1522.59 6.52406 0.636157 0
M  V30 17223 H 1522.11 5.62149 2.09161 0
M  V30 17224 H 1523.79 6.18445 1.9009 0
M  V30 17225 N 1523.92 -0.412991 1.52093 0
M  V30 17226 C 1525.15 -1.18667 1.70096 0
M  V30 17227 C 1525.57 -1.83622 0.408012 0
M  V30 17228 O 1524.93 -1.69847 -0.634174 0
M  V30 17229 C 1524.98 -2.22837 2.83507 0
M  V30 17230 O 1524.08 -3.2889 2.48807 0
M  V30 17231 H 1523.42 -0.346581 0.566373 0
M  V30 17232 H 1525.95 -0.484642 1.98777 0
M  V30 17233 H 1525.96 -2.67229 3.08306 0
M  V30 17234 H 1524.64 -1.74942 3.77317 0
M  V30 17235 H 1523.21 -2.89804 2.34665 0
M  V30 17236 N 1525.4 -1.4265 -0.669982 0
M  V30 17237 C 1526.65 -1.42667 -1.42579 0
M  V30 17238 C 1526.96 -0.0483217 -1.9554 0
M  V30 17239 O 1528.17 0.0740917 -2.71399 0
M  V30 17240 C 1526.62 -2.5098 -2.57948 0
M  V30 17241 C 1526.23 -3.94844 -2.11666 0
M  V30 17242 C 1527.98 -2.6017 -3.35428 0
M  V30 17243 C 1525.88 -4.94655 -3.24146 0
M  V30 17244 H 1524.81 -0.530651 -0.535654 0
M  V30 17245 H 1527.46 -1.68576 -0.724861 0
M  V30 17246 H 1525.85 -2.18244 -3.30432 0
M  V30 17247 H 1527.02 -4.36958 -1.46303 0
M  V30 17248 H 1525.33 -3.89547 -1.47111 0
M  V30 17249 H 1527.93 -3.31918 -4.19207 0
M  V30 17250 H 1528.27 -1.64683 -3.82342 0
M  V30 17251 H 1528.81 -2.92124 -2.70016 0
M  V30 17252 H 1525.55 -5.91636 -2.82218 0
M  V30 17253 H 1525.07 -4.57168 -3.88275 0
M  V30 17254 H 1526.75 -5.16593 -3.89538 0
M  V30 17255 N 1526.88 0.906753 -1.28902 0
M  V30 17256 C 1527.83 1.99676 -1.10061 0
M  V30 17257 C 1528.81 1.60885 -0.0221442 0
M  V30 17258 O 1530 1.75323 -0.24307 0
M  V30 17259 C 1527.13 3.34511 -0.771823 0
M  V30 17260 C 1526.22 3.79683 -1.88948 0
M  V30 17261 N 1526.61 3.97159 -3.13207 0
M  V30 17262 C 1524.91 4.089 -1.78092 0
M  V30 17263 C 1525.61 4.35108 -3.86078 0
M  V30 17264 N 1524.58 4.43759 -3.13973 0
M  V30 17265 H 1528.39 2.11247 -2.04333 0
M  V30 17266 H 1525.9 1.09508 -1.19924 0
M  V30 17267 H 1527.9 4.12295 -0.617909 0
M  V30 17268 H 1526.56 3.2429 0.16305 0
M  V30 17269 H 1527.57 3.82884 -3.4874 0
M  V30 17270 H 1524.25 4.07276 -0.918291 0
M  V30 17271 H 1525.64 4.56533 -4.92978 0
M  V30 17272 N 1528.36 1.11264 1.11616 0
M  V30 17273 C 1529.6 0.855139 1.82675 0
M  V30 17274 C 1529.92 -0.621194 1.85474 0
M  V30 17275 O 1531.12 -0.994886 2.52615 0
M  V30 17276 C 1529.58 1.48007 3.28058 0
M  V30 17277 C 1529.19 2.99031 3.33593 0
M  V30 17278 C 1530.93 1.30233 4.04029 0
M  V30 17279 C 1528.84 3.54517 4.73362 0
M  V30 17280 H 1527.77 0.316252 0.684471 0
M  V30 17281 H 1530.42 1.33766 1.25614 0
M  V30 17282 H 1528.8 0.925214 3.8504 0
M  V30 17283 H 1529.98 3.60905 2.86503 0
M  V30 17284 H 1528.29 3.16059 2.711 0
M  V30 17285 H 1530.89 1.69122 5.07249 0
M  V30 17286 H 1531.23 0.244724 4.1558 0
M  V30 17287 H 1531.76 1.82573 3.53429 0
M  V30 17288 H 1528.5 4.59982 4.67008 0
M  V30 17289 H 1528.02 2.97414 5.20869 0
M  V30 17290 H 1529.7 3.52848 5.42316 0
M  V30 17291 N 1529.83 -1.29188 0.902679 0
M  V30 17292 C 1530.78 -2.29597 0.372585 0
M  V30 17293 C 1531.78 -1.609 -0.529858 0
M  V30 17294 O 1532.98 -1.75214 -0.41233 0
M  V30 17295 H 1529.36 -0.745069 0.101864 0
M  V30 17296 H 1531.33 -2.71746 1.23275 0
M  V30 17297 C 1530.08 -3.45594 -0.382128 0
M  V30 17298 H 1529.4 -3.9865 0.303061 0
M  V30 17299 H 1530.84 -4.17879 -0.717852 0
M  V30 17300 C 1529.3 -2.97238 -1.58591 0
M  V30 17301 O 1529.83 -2.98767 -2.68517 0
M  V30 17302 N 1528.03 -2.53032 -1.42909 0
M  V30 17303 H 1527.58 -2.51988 -0.534786 0
M  V30 17304 H 1527.54 -2.21038 -2.23584 0
M  V30 17305 N 1531.31 -0.665475 -1.42861 0
M  V30 17306 C 1532.22 0.018927 -2.34592 0
M  V30 17307 C 1533.24 0.798967 -1.54572 0
M  V30 17308 O 1534.41 0.743419 -1.87177 0
M  V30 17309 C 1531.48 0.965013 -3.32999 0
M  V30 17310 C 1530.54 0.180544 -4.2892 0
M  V30 17311 C 1529.77 1.08157 -5.22626 0
M  V30 17312 O 1530 2.32101 -5.21043 0
M  V30 17313 O 1528.93 0.54738 -5.99406 0
M  V30 17314 H 1532.76 -0.736444 -2.94636 0
M  V30 17315 H 1530.34 -0.425684 -1.43207 0
M  V30 17316 H 1532.22 1.50839 -3.93479 0
M  V30 17317 H 1530.9 1.7004 -2.75442 0
M  V30 17318 H 1529.8 -0.40671 -3.71883 0
M  V30 17319 H 1531.14 -0.515529 -4.89493 0
M  V30 17320 N 1532.79 1.52222 -0.408187 0
M  V30 17321 C 1534.04 2.00989 0.169252 0
M  V30 17322 C 1534.35 1.29824 1.46305 0
M  V30 17323 O 1535.56 1.69402 2.12168 0
M  V30 17324 C 1534.01 3.58173 0.352179 0
M  V30 17325 C 1533.62 4.38252 -0.929468 0
M  V30 17326 C 1535.37 4.15173 0.88496 0
M  V30 17327 C 1533.27 5.87077 -0.713781 0
M  V30 17328 H 1532.2 0.751015 0.0670261 0
M  V30 17329 H 1534.85 1.75574 -0.533487 0
M  V30 17330 H 1533.24 3.79913 1.11723 0
M  V30 17331 H 1534.41 4.28272 -1.70059 0
M  V30 17332 H 1532.72 3.92565 -1.38859 0
M  V30 17333 H 1535.32 5.2404 1.06235 0
M  V30 17334 H 1535.66 3.72468 1.85938 0
M  V30 17335 H 1536.2 3.97397 0.178995 0
M  V30 17336 H 1532.94 6.3414 -1.65974 0
M  V30 17337 H 1532.46 5.99797 0.0180631 0
M  V30 17338 H 1534.14 6.46022 -0.355596 0
M  V30 17339 N 1534.27 0.138579 1.5699 0
M  V30 17340 C 1535.22 -0.821469 2.17611 0
M  V30 17341 C 1536.21 -1.26137 1.13074 0
M  V30 17342 O 1537.42 -1.23084 1.31341 0
M  V30 17343 H 1533.79 -0.283086 0.696682 0
M  V30 17344 H 1535.76 -0.285891 2.97027 0
M  V30 17345 C 1534.51 -2.05395 2.8055 0
M  V30 17346 H 1533.83 -1.72442 3.60699 0
M  V30 17347 H 1535.27 -2.70531 3.2648 0
M  V30 17348 C 1533.73 -2.85647 1.78626 0
M  V30 17349 O 1534.26 -3.81705 1.25156 0
M  V30 17350 N 1532.47 -2.50018 1.4812 0
M  V30 17351 H 1532.02 -1.71969 1.91793 0
M  V30 17352 H 1531.97 -3.04007 0.8017 0
M  V30 17353 N 1535.75 -1.57019 -0.13521 0
M  V30 17354 C 1536.97 -1.8816 -0.860434 0
M  V30 17355 C 1537.39 -0.728081 -1.74196 0
M  V30 17356 O 1536.75 0.301745 -1.79988 0
M  V30 17357 C 1536.8 -3.1864 -1.70737 0
M  V30 17358 O 1536.52 -4.29549 -0.861347 0
M  V30 17359 C 1538.02 -3.63376 -2.53915 0
M  V30 17360 H 1535.24 -0.623408 -0.248201 0
M  V30 17361 H 1537.78 -2.04121 -0.124461 0
M  V30 17362 H 1535.94 -3.04397 -2.39627 0
M  V30 17363 H 1536.35 -5.04233 -1.44393 0
M  V30 17364 H 1537.83 -4.57478 -3.08897 0
M  V30 17365 H 1538.3 -2.89238 -3.30512 0
M  V30 17366 H 1538.91 -3.80352 -1.90296 0
M  V30 17367 N 1537.22 0.404919 -1.52309 0
M  V30 17368 C 1538.47 1.15148 -1.66575 0
M  V30 17369 C 1538.8 1.9039 -0.397754 0
M  V30 17370 O 1538.05 1.85639 0.619407 0
M  V30 17371 C 1538.35 2.16817 -2.84121 0
M  V30 17372 C 1538.02 1.58352 -4.22179 0
M  V30 17373 C 1536.68 1.42132 -4.5973 0
M  V30 17374 C 1539.03 1.15695 -5.08197 0
M  V30 17375 C 1536.36 0.817785 -5.80973 0
M  V30 17376 C 1538.71 0.56758 -6.30049 0
M  V30 17377 C 1537.38 0.392547 -6.66345 0
M  V30 17378 H 1536.65 0.421357 -0.60954 0
M  V30 17379 H 1539.29 0.438148 -1.8642 0
M  V30 17380 H 1537.6 2.94311 -2.58628 0
M  V30 17381 H 1539.3 2.74463 -2.92355 0
M  V30 17382 H 1535.89 1.71961 -3.92591 0
M  V30 17383 H 1540.07 1.27034 -4.79767 0
M  V30 17384 H 1535.33 0.670228 -6.07715 0
M  V30 17385 H 1539.5 0.228674 -6.96024 0
M  V30 17386 H 1537.13 -0.0772156 -7.60161 0
M  V30 17387 N 1538.7 1.43003 0.662408 0
M  V30 17388 C 1539.64 1.4189 1.78725 0
M  V30 17389 C 1540.61 0.281515 1.60144 0
M  V30 17390 O 1541.8 0.473677 1.82452 0
M  V30 17391 C 1538.92 1.22166 3.159 0
M  V30 17392 C 1537.97 2.39061 3.53203 0
M  V30 17393 S 1538.8 4.01607 3.54221 0
M  V30 17394 C 1539.96 3.84249 4.94068 0
M  V30 17395 H 1540.19 2.37073 1.79398 0
M  V30 17396 H 1537.73 1.29924 0.834214 0
M  V30 17397 H 1539.68 1.11474 3.95074 0
M  V30 17398 H 1538.34 0.285468 3.128 0
M  V30 17399 H 1537.54 2.21041 4.52943 0
M  V30 17400 H 1537.14 2.46331 2.81419 0
M  V30 17401 H 1539.43 3.46006 5.82483 0
M  V30 17402 H 1540.37 4.83709 5.17138 0
M  V30 17403 H 1540.78 3.16879 4.6717 0
M  V30 17404 N 1540.18 -0.899904 1.29381 0
M  V30 17405 C 1541.11 -2.02045 1.17047 0
M  V30 17406 C 1542.09 -1.69977 0.0647354 0
M  V30 17407 O 1543.28 -1.92659 0.244173 0
M  V30 17408 C 1540.41 -3.36839 0.845991 0
M  V30 17409 C 1539.36 -3.83117 1.90802 0
M  V30 17410 C 1538.69 -5.15032 1.43686 0
M  V30 17411 C 1539.99 -4.03464 3.31684 0
M  V30 17412 H 1541.68 -2.12623 2.10789 0
M  V30 17413 H 1539.23 -1.02162 1.01484 0
M  V30 17414 H 1541.18 -4.14737 0.746413 0
M  V30 17415 H 1539.9 -3.26352 -0.127125 0
M  V30 17416 H 1538.56 -3.07435 1.99698 0
M  V30 17417 H 1538.21 -5.00961 0.452422 0
M  V30 17418 H 1537.91 -5.46967 2.14711 0
M  V30 17419 H 1539.43 -5.95472 1.35078 0
M  V30 17420 H 1540.85 -4.71845 3.25631 0
M  V30 17421 H 1539.25 -4.46752 4.00665 0
M  V30 17422 H 1540.32 -3.07807 3.74677 0
M  V30 17423 N 1541.66 -1.11854 -1.11024 0
M  V30 17424 C 1542.61 -0.77596 -2.19275 0
M  V30 17425 C 1543.6 0.234503 -1.67769 0
M  V30 17426 O 1544.81 0.0933372 -1.79758 0
M  V30 17427 H 1541.18 -0.23307 -0.71497 0
M  V30 17428 H 1543.15 -1.69749 -2.45414 0
M  V30 17429 C 1541.9 -0.240148 -3.4687 0
M  V30 17430 H 1541.22 -1.00895 -3.86859 0
M  V30 17431 H 1542.66 -0.0386799 -4.23982 0
M  V30 17432 C 1541.12 1.03056 -3.20751 0
M  V30 17433 O 1541.65 2.10948 -3.41854 0
M  V30 17434 N 1539.86 0.955066 -2.74457 0
M  V30 17435 H 1539.41 0.0769523 -2.57485 0
M  V30 17436 H 1539.36 1.80593 -2.57359 0
M  V30 17437 N 1543.14 1.28707 -0.909517 0
M  V30 17438 C 1544.07 2.29845 -0.411552 0
M  V30 17439 C 1545.05 1.62001 0.518615 0
M  V30 17440 O 1546.23 1.89442 0.427252 0
M  V30 17441 C 1543.36 3.45501 0.353013 0
M  V30 17442 C 1542.32 4.25213 -0.487625 0
M  V30 17443 C 1541.64 5.33164 0.405026 0
M  V30 17444 C 1542.94 4.9237 -1.74268 0
M  V30 17445 H 1544.64 2.71746 -1.25676 0
M  V30 17446 H 1542.18 1.30639 -0.605759 0
M  V30 17447 H 1544.14 4.15338 0.712191 0
M  V30 17448 H 1542.86 3.02469 1.23209 0
M  V30 17449 H 1541.52 3.57098 -0.829265 0
M  V30 17450 H 1541.17 4.86375 1.28252 0
M  V30 17451 H 1540.87 5.87399 -0.153811 0
M  V30 17452 H 1542.39 6.0585 0.760179 0
M  V30 17453 H 1543.8 5.5459 -1.45266 0
M  V30 17454 H 1542.2 5.56581 -2.2436 0
M  V30 17455 H 1543.27 4.171 -2.47297 0
M  V30 17456 N 1544.61 0.673042 1.42506 0
M  V30 17457 C 1545.86 0.194864 2.01862 0
M  V30 17458 C 1546.19 -1.19491 1.53087 0
M  V30 17459 O 1545.47 -1.80187 0.732322 0
M  V30 17460 C 1545.75 0.227559 3.5938 0
M  V30 17461 C 1545.6 1.65266 4.18338 0
M  V30 17462 C 1546.92 -0.425197 4.38041 0
M  V30 17463 H 1544.04 0.0722831 0.733447 0
M  V30 17464 H 1546.68 0.857493 1.6955 0
M  V30 17465 H 1544.83 -0.336658 3.87039 0
M  V30 17466 H 1546.51 2.26899 4.0164 0
M  V30 17467 H 1544.75 2.19388 3.74234 0
M  V30 17468 H 1545.42 1.62724 5.2747 0
M  V30 17469 H 1547.9 0.0550709 4.16064 0
M  V30 17470 H 1546.77 -0.371675 5.4764 0
M  V30 17471 H 1547.03 -1.50251 4.15785 0
M  V30 17472 N 1546.09 -1.52004 0.416254 0
M  V30 17473 C 1547.04 -2.28771 -0.420331 0
M  V30 17474 C 1548.03 -1.33751 -1.03957 0
M  V30 17475 O 1549.24 -1.51181 -0.976951 0
M  V30 17476 H 1545.62 -0.735991 -0.15434 0
M  V30 17477 H 1547.59 -2.97366 0.248255 0
M  V30 17478 C 1546.34 -3.12675 -1.52085 0
M  V30 17479 H 1545.66 -3.85665 -1.0537 0
M  V30 17480 H 1547.1 -3.69482 -2.07989 0
M  V30 17481 C 1545.56 -2.26692 -2.49224 0
M  V30 17482 O 1546.09 -1.91205 -3.53276 0
M  V30 17483 N 1544.29 -1.90322 -2.19604 0
M  V30 17484 H 1543.84 -2.1938 -1.35019 0
M  V30 17485 H 1543.8 -1.33086 -2.84843 0
M  V30 17486 N 1547.57 -0.146903 -1.56914 0
M  V30 17487 C 1548.82 0.504195 -1.95297 0
M  V30 17488 C 1549.13 1.66019 -1.03426 0
M  V30 17489 O 1550.34 2.37591 -1.31388 0
M  V30 17490 C 1548.79 0.948348 -3.47181 0
M  V30 17491 C 1548.4 -0.18071 -4.47635 0
M  V30 17492 C 1550.15 1.56924 -3.9443 0
M  V30 17493 C 1548.05 0.281707 -5.90729 0
M  V30 17494 H 1546.98 0.192127 -0.729111 0
M  V30 17495 H 1549.63 -0.231232 -1.82037 0
M  V30 17496 H 1548.02 1.73903 -3.55772 0
M  V30 17497 H 1549.19 -0.957645 -4.50739 0
M  V30 17498 H 1547.51 -0.710007 -4.10302 0
M  V30 17499 H 1550.1 1.92684 -4.98776 0
M  V30 17500 H 1550.45 2.45816 -3.35976 0
M  V30 17501 H 1550.98 0.843456 -3.88755 0
M  V30 17502 H 1547.72 -0.571839 -6.53001 0
M  V30 17503 H 1547.24 1.02452 -5.90985 0
M  V30 17504 H 1548.92 0.733746 -6.42826 0
M  V30 17505 N 1549.05 1.57088 0.126881 0
M  V30 17506 C 1550.01 1.98836 1.14003 0
M  V30 17507 C 1551.01 0.877454 1.34749 0
M  V30 17508 O 1552.2 1.14366 1.314 0
M  V30 17509 C 1549.33 2.32171 2.49618 0
M  V30 17510 H 1550.53 2.89541 0.7814 0
M  V30 17511 H 1548.08 1.51835 0.370915 0
M  V30 17512 H 1548.81 1.44321 2.90417 0
M  V30 17513 H 1548.6 3.13187 2.35916 0
M  V30 17514 H 1550.09 2.65238 3.2255 0
M  V30 17515 N 1550.53 -0.396836 1.52522 0
M  V30 17516 C 1551.47 -1.50474 1.77371 0
M  V30 17517 C 1552.47 -1.56792 0.641307 0
M  V30 17518 O 1553.67 -1.60052 0.823621 0
M  V30 17519 H 1550.05 -0.500667 0.561103 0
M  V30 17520 H 1552.02 -1.26706 2.70163 0
M  V30 17521 C 1550.77 -2.87702 1.95251 0
M  V30 17522 H 1550.09 -2.83588 2.81812 0
M  V30 17523 H 1551.53 -3.64482 2.16631 0
M  V30 17524 C 1549.99 -3.29053 0.722904 0
M  V30 17525 O 1550.52 -4.01567 -0.103398 0
M  V30 17526 N 1548.73 -2.85246 0.555263 0
M  V30 17527 H 1548.27 -2.26403 1.22879 0
M  V30 17528 H 1548.23 -3.13272 -0.266113 0
M  V30 17529 N 1552.01 -1.43353 -0.654814 0
M  V30 17530 C 1552.94 -1.51194 -1.7794 0
M  V30 17531 C 1553.92 -0.366747 -1.66099 0
M  V30 17532 O 1555.1 -0.58375 -1.85219 0
M  V30 17533 C 1552.23 -1.43298 -3.16359 0
M  V30 17534 C 1551.19 -2.5605 -3.42961 0
M  V30 17535 C 1550.51 -2.33208 -4.81163 0
M  V30 17536 C 1551.81 -3.98303 -3.37864 0
M  V30 17537 H 1553.51 -2.4532 -1.71635 0
M  V30 17538 H 1551.05 -1.18072 -0.824319 0
M  V30 17539 H 1553 -1.47388 -3.94784 0
M  V30 17540 H 1551.73 -0.456761 -3.2339 0
M  V30 17541 H 1550.39 -2.5131 -2.66906 0
M  V30 17542 H 1550.04 -1.33833 -4.84869 0
M  V30 17543 H 1549.74 -3.08789 -4.99923 0
M  V30 17544 H 1551.26 -2.39079 -5.61848 0
M  V30 17545 H 1552.67 -4.04538 -4.06229 0
M  V30 17546 H 1551.07 -4.73897 -3.6816 0
M  V30 17547 H 1552.14 -4.23552 -2.36075 0
M  V30 17548 N 1553.48 0.89303 -1.29857 0
M  V30 17549 C 1554.71 1.675 -1.20943 0
M  V30 17550 C 1555.12 1.87779 0.231435 0
M  V30 17551 O 1554.46 1.41955 1.16596 0
M  V30 17552 C 1554.53 3.07722 -1.8587 0
M  V30 17553 C 1554.19 3.10647 -3.35182 0
M  V30 17554 C 1555.19 2.903 -4.31303 0
M  V30 17555 C 1552.87 3.32501 -3.76495 0
M  V30 17556 C 1554.87 2.91749 -5.66711 0
M  V30 17557 C 1552.55 3.33581 -5.12022 0
M  V30 17558 C 1553.55 3.13228 -6.06941 0
M  V30 17559 O 1553.24 3.14109 -7.39994 0
M  V30 17560 H 1552.97 0.529708 -0.419982 0
M  V30 17561 H 1555.53 1.12466 -1.71874 0
M  V30 17562 H 1553.76 3.64386 -1.29459 0
M  V30 17563 H 1555.44 3.68035 -1.71187 0
M  V30 17564 H 1556.21 2.73221 -4.00718 0
M  V30 17565 H 1552.09 3.47381 -3.03064 0
M  V30 17566 H 1555.63 2.75782 -6.40773 0
M  V30 17567 H 1551.53 3.50193 -5.4225 0
M  V30 17568 H 1552.3 3.3033 -7.48882 0
M  V30 17569 N 1554.96 1.12442 1.10429 0
M  V30 17570 C 1556.19 0.901291 1.85904 0
M  V30 17571 C 1556.6 -0.552928 1.8094 0
M  V30 17572 O 1555.94 -1.39404 1.19633 0
M  V30 17573 C 1556 1.29808 3.35246 0
M  V30 17574 C 1555.67 2.76361 3.63969 0
M  V30 17575 C 1556.67 3.74553 3.60564 0
M  V30 17576 C 1554.35 3.13268 3.92643 0
M  V30 17577 C 1556.34 5.07667 3.85426 0
M  V30 17578 C 1554.03 4.46564 4.17162 0
M  V30 17579 C 1555.03 5.43572 4.13544 0
M  V30 17580 O 1554.72 6.74465 4.37439 0
M  V30 17581 H 1554.45 0.321969 0.5944 0
M  V30 17582 H 1557 1.49816 1.40514 0
M  V30 17583 H 1555.23 0.644416 3.81293 0
M  V30 17584 H 1556.92 1.04908 3.92108 0
M  V30 17585 H 1557.69 3.47385 3.3845 0
M  V30 17586 H 1553.57 2.3837 3.94589 0
M  V30 17587 H 1557.11 5.83375 3.82518 0
M  V30 17588 H 1553.01 4.73461 4.38754 0
M  V30 17589 H 1553.78 6.80412 4.54953 0
M  V30 17590 N 1556.44 -1.28223 0.91633 0
M  V30 17591 C 1557.35 -2.30956 0.411882 0
M  V30 17592 C 1558.37 -1.66609 -0.501753 0
M  V30 17593 O 1559.54 -1.97641 -0.387317 0
M  V30 17594 C 1556.61 -3.45053 -0.337558 0
M  V30 17595 C 1555.67 -4.2495 0.609609 0
M  V30 17596 C 1554.9 -5.33598 -0.104159 0
M  V30 17597 O 1555.12 -5.54786 -1.32546 0
M  V30 17598 O 1554.06 -5.99272 0.561851 0
M  V30 17599 H 1557.88 -2.76118 1.26461 0
M  V30 17600 H 1555.47 -1.32964 0.681246 0
M  V30 17601 H 1557.35 -4.14477 -0.760722 0
M  V30 17602 H 1556.03 -3.01968 -1.16607 0
M  V30 17603 H 1554.93 -3.58104 1.08222 0
M  V30 17604 H 1556.27 -4.7172 1.40502 0
M  V30 17605 N 1557.92 -0.68059 -1.42147 0
M  V30 17606 C 1558.87 0.00572503 -2.32599 0
M  V30 17607 C 1559.86 0.784449 -1.50142 0
M  V30 17608 O 1561.07 0.69176 -1.66177 0
M  V30 17609 H 1557.44 0.0206483 -0.751716 0
M  V30 17610 H 1559.41 -0.774447 -2.88175 0
M  V30 17611 C 1558.16 0.939019 -3.3478 0
M  V30 17612 H 1557.48 0.349225 -3.98272 0
M  V30 17613 H 1558.92 1.38782 -4.00644 0
M  V30 17614 C 1557.38 2.04814 -2.67493 0
M  V30 17615 O 1557.91 3.13526 -2.51126 0
M  V30 17616 N 1556.12 1.82153 -2.26426 0
M  V30 17617 H 1555.67 0.93743 -2.39938 0
M  V30 17618 H 1555.62 2.56551 -1.81738 0
M  V30 17619 N 1559.4 1.51781 -0.424309 0
M  V30 17620 C 1560.34 2.27418 0.393668 0
M  V30 17621 C 1561.31 1.3046 1.02808 0
M  V30 17622 O 1562.5 1.59345 1.04946 0
M  V30 17623 C 1559.64 3.10983 1.49611 0
M  V30 17624 C 1558.75 4.22919 0.881123 0
M  V30 17625 C 1557.89 4.93816 1.95752 0
M  V30 17626 C 1556.92 5.97691 1.32028 0
M  V30 17627 N 1556.06 6.62047 2.33747 0
M  V30 17628 H 1560.9 2.96883 -0.257731 0
M  V30 17629 H 1558.44 1.46442 -0.138942 0
M  V30 17630 H 1560.4 3.57749 2.14642 0
M  V30 17631 H 1559.03 2.43658 2.11732 0
M  V30 17632 H 1558.08 3.80212 0.119445 0
M  V30 17633 H 1559.39 4.97383 0.375764 0
M  V30 17634 H 1558.54 5.44064 2.68476 0
M  V30 17635 H 1557.28 4.18954 2.49658 0
M  V30 17636 H 1556.29 5.46749 0.578444 0
M  V30 17637 H 1557.51 6.74504 0.788722 0
M  V30 17638 H 1555.46 5.90005 2.86757 0
M  V30 17639 H 1555.38 7.32234 1.88066 0
M  V30 17640 H 1556.64 7.16929 3.05995 0
M  V30 17641 N 1560.87 0.155222 1.56834 0
M  V30 17642 C 1561.82 -0.798342 2.1847 0
M  V30 17643 C 1562.82 -1.24931 1.14405 0
M  V30 17644 O 1564.02 -1.21684 1.32639 0
M  V30 17645 H 1560.4 -0.275681 0.699646 0
M  V30 17646 H 1562.37 -0.254371 2.97314 0
M  V30 17647 C 1561.12 -2.02407 2.82713 0
M  V30 17648 H 1560.44 -1.68606 3.62508 0
M  V30 17649 H 1561.88 -2.67053 3.29331 0
M  V30 17650 C 1560.34 -2.83737 1.81645 0
M  V30 17651 O 1560.87 -3.80356 1.29198 0
M  V30 17652 N 1559.07 -2.48433 1.50764 0
M  V30 17653 H 1558.62 -1.69925 1.93606 0
M  V30 17654 H 1558.58 -3.03139 0.833899 0
M  V30 17655 N 1562.35 -1.57153 -0.118549 0
M  V30 17656 C 1563.6 -1.8515 -0.82748 0
M  V30 17657 C 1563.93 -0.741026 -1.79506 0
M  V30 17658 O 1563.21 0.253095 -1.92846 0
M  V30 17659 C 1563.49 -3.23734 -1.57698 0
M  V30 17660 C 1563.34 -4.45381 -0.628967 0
M  V30 17661 C 1564.66 -3.59895 -2.53305 0
M  V30 17662 H 1561.78 -0.673459 -0.29937 0
M  V30 17663 H 1564.42 -1.89778 -0.0917198 0
M  V30 17664 H 1562.57 -3.19919 -2.20418 0
M  V30 17665 H 1564.24 -4.61299 -0.0105746 0
M  V30 17666 H 1562.49 -4.33759 0.059462 0
M  V30 17667 H 1563.16 -5.3902 -1.19004 0
M  V30 17668 H 1565.63 -3.64503 -2.0069 0
M  V30 17669 H 1564.51 -4.57839 -3.02778 0
M  V30 17670 H 1564.77 -2.87338 -3.3599 0
M  V30 17671 N 1563.83 0.388742 -1.5273 0
M  V30 17672 C 1564.78 1.47488 -1.77527 0
M  V30 17673 C 1565.75 1.54155 -0.618505 0
M  V30 17674 O 1566.93 1.70407 -0.858251 0
M  V30 17675 C 1564.07 2.84714 -1.95018 0
M  V30 17676 C 1563.18 2.87197 -3.2271 0
M  V30 17677 C 1562.32 4.15851 -3.30517 0
M  V30 17678 C 1561.36 4.12386 -4.52332 0
M  V30 17679 N 1560.5 5.32647 -4.57418 0
M  V30 17680 H 1565.34 1.25644 -2.70218 0
M  V30 17681 H 1562.87 0.609519 -1.33878 0
M  V30 17682 H 1564.83 3.64402 -2.03143 0
M  V30 17683 H 1563.46 3.05008 -1.05688 0
M  V30 17684 H 1562.51 1.99879 -3.23655 0
M  V30 17685 H 1563.82 2.80505 -4.12454 0
M  V30 17686 H 1562.98 5.03943 -3.37827 0
M  V30 17687 H 1561.72 4.25265 -2.38748 0
M  V30 17688 H 1560.72 3.22683 -4.45147 0
M  V30 17689 H 1561.95 4.04594 -5.45418 0
M  V30 17690 H 1559.89 5.42691 -3.68541 0
M  V30 17691 H 1559.81 5.28032 -5.41035 0
M  V30 17692 H 1561.08 6.22636 -4.68983 0
M  V30 17693 N 1565.31 1.43698 0.647203 0
M  V30 17694 C 1566.22 1.51781 1.78884 0
M  V30 17695 C 1567.23 0.404498 1.69233 0
M  V30 17696 O 1568.41 0.659509 1.90296 0
M  V30 17697 C 1565.47 1.44408 3.15194 0
M  V30 17698 C 1564.54 2.6646 3.36597 0
M  V30 17699 C 1563.77 2.59429 4.66403 0
M  V30 17700 O 1563.99 1.64537 5.46154 0
M  V30 17701 O 1562.93 3.50027 4.89658 0
M  V30 17702 H 1566.75 2.48198 1.75019 0
M  V30 17703 H 1564.34 1.25766 0.806436 0
M  V30 17704 H 1566.22 1.42761 3.96481 0
M  V30 17705 H 1564.89 0.511292 3.19637 0
M  V30 17706 H 1563.8 2.73679 2.5505 0
M  V30 17707 H 1565.13 3.58732 3.37005 0
M  V30 17708 N 1566.79 -0.886131 1.30328 0
M  V30 17709 C 1567.72 -1.99419 1.10938 0
M  V30 17710 C 1568.7 -1.62591 0.0173539 0
M  V30 17711 O 1569.88 -1.87726 0.170684 0
M  V30 17712 C 1567.01 -3.31561 0.691713 0
M  V30 17713 C 1566.05 -3.87376 1.78444 0
M  V30 17714 S 1566.89 -4.14812 3.38661 0
M  V30 17715 C 1568.04 -5.49976 2.98793 0
M  V30 17716 H 1568.28 -2.15561 2.04746 0
M  V30 17717 H 1565.81 -1.03438 1.14629 0
M  V30 17718 H 1567.77 -4.07943 0.457465 0
M  V30 17719 H 1566.43 -3.13279 -0.226981 0
M  V30 17720 H 1565.62 -4.82858 1.44445 0
M  V30 17721 H 1565.22 -3.1773 1.97291 0
M  V30 17722 H 1567.52 -6.30995 2.46682 0
M  V30 17723 H 1568.46 -5.88911 3.93178 0
M  V30 17724 H 1568.87 -5.1248 2.36694 0
M  V30 17725 N 1568.26 -1.13026 -1.09832 0
M  V30 17726 C 1569.49 -0.912803 -1.86233 0
M  V30 17727 C 1569.91 0.532955 -1.80392 0
M  V30 17728 O 1569.27 1.37783 -1.17837 0
M  V30 17729 C 1569.32 -1.40002 -3.32313 0
M  V30 17730 O 1568.42 -0.582537 -4.08265 0
M  V30 17731 H 1567.77 -0.327464 -0.577636 0
M  V30 17732 H 1570.3 -1.5039 -1.38723 0
M  V30 17733 H 1570.31 -1.40182 -3.83162 0
M  V30 17734 H 1568.98 -2.4527 -3.3588 0
M  V30 17735 H 1567.56 -0.648255 -3.67222 0
M  V30 17736 N 1569.74 1.27735 -0.923117 0
M  V30 17737 C 1570.65 2.30734 -0.424124 0
M  V30 17738 C 1571.67 1.66872 0.49291 0
M  V30 17739 O 1572.84 1.97843 0.37683 0
M  V30 17740 C 1569.91 3.45227 0.319254 0
M  V30 17741 C 1568.97 4.2462 -0.632137 0
M  V30 17742 C 1568.2 5.33646 0.0758596 0
M  V30 17743 O 1568.43 5.55481 1.29602 0
M  V30 17744 O 1567.36 5.98966 -0.593624 0
M  V30 17745 H 1571.19 2.75444 -1.27923 0
M  V30 17746 H 1568.77 1.32601 -0.688288 0
M  V30 17747 H 1570.65 4.14874 0.73873 0
M  V30 17748 H 1569.33 3.02582 1.15004 0
M  V30 17749 H 1568.24 3.57525 -1.1012 0
M  V30 17750 H 1569.57 4.70969 -1.43001 0
M  V30 17751 N 1571.22 0.688118 1.41784 0
M  V30 17752 C 1572.17 0.018099 2.30793 0
M  V30 17753 C 1573.14 -0.779009 1.46699 0
M  V30 17754 O 1574.32 -0.748556 1.75503 0
M  V30 17755 C 1571.46 -0.91769 3.32675 0
M  V30 17756 C 1570.58 -0.11299 4.31852 0
M  V30 17757 C 1569.71 -1.04574 5.20805 0
M  V30 17758 C 1568.75 -0.233509 6.11654 0
M  V30 17759 N 1567.89 -1.11967 6.93115 0
M  V30 17760 H 1572.73 0.782911 2.87532 0
M  V30 17761 H 1570.26 0.397806 1.41619 0
M  V30 17762 H 1572.22 -1.47421 3.90286 0
M  V30 17763 H 1570.85 -1.64898 2.77504 0
M  V30 17764 H 1569.9 0.560344 3.7625 0
M  V30 17765 H 1571.22 0.517033 4.96113 0
M  V30 17766 H 1570.37 -1.67174 5.83213 0
M  V30 17767 H 1569.11 -1.70963 4.56753 0
M  V30 17768 H 1568.11 0.405614 5.48302 0
M  V30 17769 H 1569.34 0.426479 6.7776 0
M  V30 17770 H 1567.28 -1.76972 6.31678 0
M  V30 17771 H 1567.2 -0.545042 7.54033 0
M  V30 17772 H 1568.47 -1.73272 7.59998 0
M  V30 17773 N 1572.7 -1.51554 0.432352 0
M  V30 17774 C 1573.92 -2.06947 -0.136995 0
M  V30 17775 C 1574.35 -1.29817 -1.36122 0
M  V30 17776 O 1573.71 -0.334733 -1.78183 0
M  V30 17777 C 1573.75 -3.57871 -0.442785 0
M  V30 17778 O 1572.86 -3.82966 -1.53007 0
M  V30 17779 H 1572.2 -0.663988 -0.00405152 0
M  V30 17780 H 1574.73 -1.95225 0.612249 0
M  V30 17781 H 1574.74 -4.02042 -0.694694 0
M  V30 17782 H 1573.41 -4.13436 0.452013 0
M  V30 17783 H 1571.99 -3.50661 -1.26851 0
M  V30 17784 N 1574.18 -0.163538 -1.56749 0
M  V30 17785 C 1575.42 0.483404 -1.96646 0
M  V30 17786 C 1575.75 1.63776 -1.04918 0
M  V30 17787 O 1575.01 1.95529 -0.0816828 0
M  V30 17788 C 1575.31 1.0153 -3.42675 0
M  V30 17789 C 1574.97 -0.0223402 -4.50894 0
M  V30 17790 C 1573.63 -0.30754 -4.80216 0
M  V30 17791 C 1575.99 -0.727064 -5.16104 0
M  V30 17792 C 1573.31 -1.30299 -5.72048 0
M  V30 17793 C 1575.67 -1.71144 -6.09009 0
M  V30 17794 C 1574.33 -2.00417 -6.36702 0
M  V30 17795 H 1573.6 0.17689 -0.719577 0
M  V30 17796 H 1576.25 -0.253859 -1.8981 0
M  V30 17797 H 1574.55 1.83023 -3.46425 0
M  V30 17798 H 1576.25 1.52472 -3.70882 0
M  V30 17799 H 1572.84 0.210124 -4.28085 0
M  V30 17800 H 1577.02 -0.519934 -4.93569 0
M  V30 17801 H 1572.28 -1.53604 -5.9179 0
M  V30 17802 H 1576.45 -2.26292 -6.58608 0
M  V30 17803 H 1574.08 -2.77701 -7.07663 0
M  V30 17804 N 1575.65 1.57214 0.110213 0
M  V30 17805 C 1576.93 1.76298 0.847249 0
M  V30 17806 C 1577.31 0.741294 1.97656 0
M  V30 17807 O 1576.66 -0.233104 2.27308 0
M  V30 17808 C 1576.87 3.21588 1.35582 0
M  V30 17809 C 1578.22 3.8434 1.80465 0
M  V30 17810 O 1579.24 3.25244 1.45241 0
M  V30 17811 O 1578.1 4.88231 2.45546 0
M  V30 17812 H 1575.19 0.722167 0.402993 0
M  V30 17813 H 1577.74 1.69443 0.0932694 0
M  V30 17814 H 1576.51 3.87472 0.54599 0
M  V30 17815 H 1576.14 3.33015 2.17225 0
M  V30 17816 N 1577.13 -0.380637 1.52934 0
M  V30 17817 C 1578.36 -1.15033 1.72575 0
M  V30 17818 C 1578.78 -1.82715 0.446869 0
M  V30 17819 O 1578.14 -1.71154 -0.598004 0
M  V30 17820 C 1578.19 -2.16773 2.8817 0
M  V30 17821 O 1577.29 -3.23539 2.55727 0
M  V30 17822 H 1576.63 -0.334489 0.573597 0
M  V30 17823 H 1579.16 -0.442369 1.9976 0
M  V30 17824 H 1579.17 -2.60629 3.13905 0
M  V30 17825 H 1577.85 -1.669 3.80943 0
M  V30 17826 H 1576.43 -2.84761 2.4076 0
M  V30 17827 N 1578.61 -1.44039 -0.639573 0
M  V30 17828 C 1579.89 -1.36853 -1.39752 0
M  V30 17829 C 1580.27 -0.0230515 -2.11087 0
M  V30 17830 O 1579.62 0.994061 -2.05744 0
M  V30 17831 C 1579.83 -2.56101 -2.37093 0
M  V30 17832 C 1581.17 -2.99793 -3.00681 0
M  V30 17833 O 1582.2 -2.56246 -2.4742 0
M  V30 17834 O 1581.06 -3.75274 -3.97281 0
M  V30 17835 H 1578.15 -0.541521 -0.625047 0
M  V30 17836 H 1580.7 -1.56113 -0.665336 0
M  V30 17837 H 1579.47 -3.45647 -1.83422 0
M  V30 17838 H 1579.09 -2.39011 -3.17741 0
M  V30 17839 N 1580.09 0.879207 -1.30796 0
M  V30 17840 C 1581.32 1.66449 -1.22891 0
M  V30 17841 C 1581.73 1.87658 0.207306 0
M  V30 17842 O 1581.09 1.42818 1.13619 0
M  V30 17843 C 1581.14 3.03765 -1.95982 0
M  V30 17844 O 1580.86 2.8351 -3.33997 0
M  V30 17845 C 1582.36 3.98204 -1.94804 0
M  V30 17846 H 1579.58 0.51922 -0.425031 0
M  V30 17847 H 1582.13 1.09807 -1.72519 0
M  V30 17848 H 1580.28 3.57124 -1.50138 0
M  V30 17849 H 1580.69 3.70663 -3.71092 0
M  V30 17850 H 1582.17 4.91901 -2.50474 0
M  V30 17851 H 1582.65 4.29277 -0.928336 0
M  V30 17852 H 1583.25 3.50781 -2.40485 0
M  V30 17853 N 1581.57 1.13606 1.09231 0
M  V30 17854 C 1582.79 0.922667 1.85746 0
M  V30 17855 C 1583.22 -0.523381 1.80672 0
M  V30 17856 O 1582.58 -1.37156 1.18566 0
M  V30 17857 C 1582.62 1.41762 3.31566 0
M  V30 17858 O 1581.73 0.60418 4.0795 0
M  V30 17859 H 1581.07 0.330523 0.575891 0
M  V30 17860 H 1583.6 1.51123 1.37924 0
M  V30 17861 H 1583.61 1.42212 3.82413 0
M  V30 17862 H 1582.28 2.47048 3.34574 0
M  V30 17863 H 1580.86 0.667721 3.66873 0
M  V30 17864 N 1583.05 -1.27244 0.929878 0
M  V30 17865 C 1584.27 -1.98912 0.587277 0
M  V30 17866 C 1584.7 -1.68888 -0.828168 0
M  V30 17867 O 1584.05 -0.930394 -1.55606 0
M  V30 17868 C 1584.1 -3.51097 0.822399 0
M  V30 17869 O 1583.21 -4.12251 -0.110968 0
M  V30 17870 H 1582.55 -0.624404 0.225867 0
M  V30 17871 H 1585.08 -1.61997 1.24973 0
M  V30 17872 H 1585.09 -4.01255 0.738824 0
M  V30 17873 H 1583.76 -3.72282 1.85416 0
M  V30 17874 H 1582.34 -3.72893 0.0227053 0
M  V30 17875 N 1584.52 -0.695628 -1.41417 0
M  V30 17876 C 1585.77 -0.223719 -2.00455 0
M  V30 17877 C 1586.09 1.18352 -1.55731 0
M  V30 17878 O 1587.29 1.7529 -2.0733 0
M  V30 17879 C 1585.75 -0.349076 -3.58203 0
M  V30 17880 C 1585.36 -1.76168 -4.11909 0
M  V30 17881 C 1587.1 0.0630563 -4.24453 0
M  V30 17882 C 1585.01 -1.83869 -5.62091 0
M  V30 17883 H 1583.94 -0.0798833 -0.749756 0
M  V30 17884 H 1586.59 -0.863834 -1.61896 0
M  V30 17885 H 1584.97 0.35929 -3.94367 0
M  V30 17886 H 1586.14 -2.49881 -3.87164 0
M  V30 17887 H 1584.46 -2.1235 -3.58185 0
M  V30 17888 H 1587.06 0.0259584 -5.34694 0
M  V30 17889 H 1587.4 1.10179 -4.01455 0
M  V30 17890 H 1587.93 -0.595036 -3.93324 0
M  V30 17891 H 1584.67 -2.85796 -5.89916 0
M  V30 17892 H 1584.19 -1.14541 -5.88762 0
M  V30 17893 H 1585.87 -1.60161 -6.26863 0
M  V30 17894 N 1586 1.51322 -0.440383 0
M  V30 17895 C 1587.28 1.94722 0.185148 0
M  V30 17896 C 1587.66 1.37922 1.59815 0
M  V30 17897 O 1587.01 0.567527 2.2134 0
M  V30 17898 C 1587.22 3.48634 0.159781 0
M  V30 17899 C 1588.56 4.23038 0.363853 0
M  V30 17900 O 1589.59 3.55406 0.237759 0
M  V30 17901 O 1588.45 5.43027 0.615137 0
M  V30 17902 H 1585.54 0.816983 0.128325 0
M  V30 17903 H 1588.09 1.62211 -0.498581 0
M  V30 17904 H 1586.86 3.8244 -0.827952 0
M  V30 17905 H 1586.48 3.87596 0.88629 0
M  V30 17906 N 1587.48 0.171848 1.5666 0
M  V30 17907 C 1588.76 -0.519355 1.88579 0
M  V30 17908 C 1589.14 -1.81273 1.08182 0
M  V30 17909 O 1588.48 -2.27822 0.175895 0
M  V30 17910 C 1588.69 -0.760743 3.40608 0
M  V30 17911 C 1590.04 -1.09051 4.10357 0
M  V30 17912 O 1591.07 -0.849264 3.45928 0
M  V30 17913 O 1589.93 -1.54566 5.24187 0
M  V30 17914 H 1587.02 -0.267782 0.782446 0
M  V30 17915 H 1589.57 0.210323 1.68392 0
M  V30 17916 H 1588.34 0.153577 3.90999 0
M  V30 17917 H 1587.96 -1.54372 3.66408 0
M  V30 17918 N 1588.96 -1.5727 -0.101874 0
M  V30 17919 C 1589.91 -2.0258 -1.14297 0
M  V30 17920 C 1590.9 -0.925674 -1.41872 0
M  V30 17921 O 1592.11 -1.11086 -1.41633 0
M  V30 17922 H 1588.48 -0.645504 -0.385782 0
M  V30 17923 H 1590.45 -2.8922 -0.734453 0
M  V30 17924 C 1589.2 -2.46036 -2.45686 0
M  V30 17925 H 1588.52 -3.30266 -2.2531 0
M  V30 17926 H 1589.96 -2.81522 -3.17051 0
M  V30 17927 C 1588.42 -1.33089 -3.09498 0
M  V30 17928 O 1588.95 -0.656277 -3.96303 0
M  V30 17929 N 1587.16 -1.08359 -2.69642 0
M  V30 17930 H 1586.71 -1.63397 -1.99146 0
M  V30 17931 H 1586.66 -0.329859 -3.12665 0
M  V30 17932 N 1590.44 0.372521 -1.53134 0
M  V30 17933 C 1591.66 1.14116 -1.73183 0
M  V30 17934 C 1592.09 1.82475 -0.456553 0
M  V30 17935 O 1591.44 1.71468 0.588919 0
M  V30 17936 C 1591.49 2.15241 -2.89316 0
M  V30 17937 O 1590.6 3.22178 -2.57439 0
M  V30 17938 H 1589.94 0.331442 -0.575362 0
M  V30 17939 H 1592.47 0.431769 -1.99992 0
M  V30 17940 H 1592.48 2.58961 -3.15283 0
M  V30 17941 H 1591.15 1.64877 -3.81822 0
M  V30 17942 H 1589.73 2.83481 -2.42267 0
M  V30 17943 N 1591.91 1.44376 0.631925 0
M  V30 17944 C 1592.82 1.5367 1.77264 0
M  V30 17945 C 1593.84 0.422425 1.68794 0
M  V30 17946 O 1595.02 0.679656 1.89585 0
M  V30 17947 C 1592.08 1.47743 3.13644 0
M  V30 17948 C 1591.14 2.70015 3.33752 0
M  V30 17949 C 1590.37 2.64362 4.63626 0
M  V30 17950 O 1590.6 1.7032 5.44378 0
M  V30 17951 O 1589.53 3.55201 4.85918 0
M  V30 17952 H 1593.36 2.5004 1.72376 0
M  V30 17953 H 1590.94 1.26614 0.793052 0
M  V30 17954 H 1592.82 1.46958 3.94945 0
M  V30 17955 H 1591.5 0.545165 3.19076 0
M  V30 17956 H 1590.41 2.76369 2.52133 0
M  V30 17957 H 1591.74 3.62286 3.33181 0
M  V30 17958 N 1593.39 -0.872258 1.31261 0
M  V30 17959 C 1594.64 -1.62752 1.20994 0
M  V30 17960 C 1594.97 -1.9281 -0.231942 0
M  V30 17961 O 1594.25 -1.55808 -1.16423 0
M  V30 17962 C 1594.53 -2.95921 2.0519 0
M  V30 17963 C 1594.38 -2.72756 3.57665 0
M  V30 17964 C 1595.7 -3.96996 1.89953 0
M  V30 17965 H 1592.82 -0.590581 0.440889 0
M  V30 17966 H 1595.46 -1.00848 1.61027 0
M  V30 17967 H 1593.61 -3.48756 1.71177 0
M  V30 17968 H 1595.28 -2.26611 4.01803 0
M  V30 17969 H 1593.53 -2.07029 3.81211 0
M  V30 17970 H 1594.2 -3.67502 4.11882 0
M  V30 17971 H 1596.67 -3.53363 2.19713 0
M  V30 17972 H 1595.55 -4.88063 2.51169 0
M  V30 17973 H 1595.81 -4.33611 0.862191 0
M  V30 17974 N 1594.87 -1.14184 -1.08627 0
M  V30 17975 C 1596.15 -0.81955 -1.77603 0
M  V30 17976 C 1596.53 0.687377 -1.99595 0
M  V30 17977 O 1595.87 1.62744 -1.60396 0
M  V30 17978 C 1596.08 -1.61574 -3.09346 0
M  V30 17979 C 1597.43 -1.81367 -3.83916 0
M  V30 17980 O 1598.46 -1.58241 -3.19121 0
M  V30 17981 O 1597.32 -2.20011 -5.00257 0
M  V30 17982 H 1594.41 -0.300086 -0.770635 0
M  V30 17983 H 1596.96 -1.24691 -1.15109 0
M  V30 17984 H 1595.73 -2.63946 -2.88874 0
M  V30 17985 H 1595.35 -1.18386 -3.79566 0
M  V30 17986 N 1596.35 1.26749 -0.936613 0
M  V30 17987 C 1597.6 1.93255 -0.577524 0
M  V30 17988 C 1597.91 1.74337 0.886905 0
M  V30 17989 O 1599.12 2.3526 1.35517 0
M  V30 17990 C 1597.57 3.4624 -0.982119 0
M  V30 17991 C 1597.18 3.739 -2.46784 0
M  V30 17992 C 1598.92 4.18777 -0.694706 0
M  V30 17993 C 1596.83 5.20303 -2.81138 0
M  V30 17994 H 1595.76 0.723502 -0.212276 0
M  V30 17995 H 1598.41 1.43901 -1.13863 0
M  V30 17996 H 1596.79 3.94454 -0.349577 0
M  V30 17997 H 1597.97 3.3641 -3.14905 0
M  V30 17998 H 1596.28 3.14587 -2.72808 0
M  V30 17999 H 1598.88 5.2659 -0.927756 0
M  V30 18000 H 1599.22 4.14667 0.368392 0
M  V30 18001 H 1599.76 3.76414 -1.28676 0
M  V30 18002 H 1596.5 5.29511 -3.86392 0
M  V30 18003 H 1596.02 5.58907 -2.17675 0
M  V30 18004 H 1597.69 5.88265 -2.69358 0
M  V30 18005 N 1597.83 0.703118 1.41046 0
M  V30 18006 C 1599.1 0.164985 1.94903 0
M  V30 18007 C 1599.48 -1.32665 1.64205 0
M  V30 18008 O 1598.83 -2.07675 0.953058 0
M  V30 18009 C 1599.04 0.464354 3.45897 0
M  V30 18010 C 1600.39 0.396205 4.22747 0
M  V30 18011 O 1601.41 0.399698 3.5395 0
M  V30 18012 O 1600.27 0.362874 5.45294 0
M  V30 18013 H 1597.37 0.0193901 0.826773 0
M  V30 18014 H 1599.91 0.779796 1.50722 0
M  V30 18015 H 1598.68 1.49653 3.61552 0
M  V30 18016 H 1598.31 -0.18105 3.97188 0
M  V30 18017 N 1599.3 -1.51086 0.448402 0
M  V30 18018 C 1600.21 -2.3177 -0.363323 0
M  V30 18019 C 1601.23 -1.41159 -1.01736 0
M  V30 18020 O 1602.41 -1.74226 -1.01031 0
M  V30 18021 C 1599.47 -3.15211 -1.4437 0
M  V30 18022 C 1598.53 -4.21615 -0.808643 0
M  V30 18023 C 1597.77 -5.01069 -1.83754 0
M  V30 18024 O 1597.99 -4.81296 -3.06121 0
M  V30 18025 O 1596.92 -5.84863 -1.42193 0
M  V30 18026 H 1600.75 -3.02257 0.295653 0
M  V30 18027 H 1598.33 -1.47907 0.210703 0
M  V30 18028 H 1600.22 -3.67053 -2.07002 0
M  V30 18029 H 1598.89 -2.47476 -2.08656 0
M  V30 18030 H 1597.8 -3.73823 -0.143975 0
M  V30 18031 H 1599.13 -4.91756 -0.209098 0
M  V30 18032 N 1600.78 -0.180154 -1.56567 0
M  V30 18033 C 1601.73 0.763484 -2.19713 0
M  V30 18034 C 1602.72 1.23095 -1.16378 0
M  V30 18035 O 1603.93 1.19558 -1.34558 0
M  V30 18036 H 1600.31 0.264515 -0.703943 0
M  V30 18037 H 1602.28 0.207039 -2.97681 0
M  V30 18038 C 1601.03 1.97884 -2.85897 0
M  V30 18039 H 1600.35 1.62818 -3.65144 0
M  V30 18040 H 1601.79 2.61779 -3.33538 0
M  V30 18041 C 1600.25 2.80811 -1.86136 0
M  V30 18042 O 1600.78 3.78253 -1.35232 0
M  V30 18043 N 1598.98 2.46003 -1.54697 0
M  V30 18044 H 1598.53 1.66823 -1.96285 0
M  V30 18045 H 1598.49 3.01774 -0.88202 0
M  V30 18046 N 1602.26 1.57322 0.0935319 0
M  V30 18047 C 1603.17 2.05499 1.13169 0
M  V30 18048 C 1604.19 0.980199 1.43764 0
M  V30 18049 O 1605.36 1.29347 1.54374 0
M  V30 18050 C 1602.43 2.47111 2.43181 0
M  V30 18051 C 1601.49 3.68791 2.19754 0
M  V30 18052 C 1600.72 4.08408 3.43567 0
M  V30 18053 O 1600.94 3.48104 4.51863 0
M  V30 18054 O 1599.88 5.01351 3.33062 0
M  V30 18055 H 1603.7 2.9423 0.752491 0
M  V30 18056 H 1601.29 1.4623 0.306151 0
M  V30 18057 H 1603.17 2.74495 3.19735 0
M  V30 18058 H 1601.85 1.61518 2.80524 0
M  V30 18059 H 1600.75 3.46521 1.40976 0
M  V30 18060 H 1602.09 4.55169 1.87303 0
M  V30 18061 N 1603.74 -0.364395 1.53329 0
M  V30 18062 C 1605.02 -1.12265 1.60174 0
M  V30 18063 C 1605.4 -2.0708 0.410015 0
M  V30 18064 O 1604.74 -2.20492 -0.599631 0
M  V30 18065 C 1604.95 -1.86071 2.9526 0
M  V30 18066 C 1606.3 -2.40562 3.49879 0
M  V30 18067 O 1607.33 -1.96196 2.97297 0
M  V30 18068 O 1606.18 -3.2167 4.41804 0
M  V30 18069 H 1603.28 -0.515062 0.647024 0
M  V30 18070 H 1605.82 -0.367563 1.65672 0
M  V30 18071 H 1604.6 -1.1688 3.73436 0
M  V30 18072 H 1604.22 -2.68486 2.93259 0
M  V30 18073 N 1605.22 -1.44709 -0.62426 0
M  V30 18074 C 1606.18 -1.51738 -1.7178 0
M  V30 18075 C 1607.18 -0.398646 -1.5578 0
M  V30 18076 O 1608.37 -0.661525 -1.61151 0
M  V30 18077 C 1605.5 -1.39792 -3.1092 0
M  V30 18078 H 1606.69 -2.49154 -1.6692 0
M  V30 18079 H 1604.25 -1.31903 -0.838531 0
M  V30 18080 H 1604.98 -0.434955 -3.2137 0
M  V30 18081 H 1604.77 -2.20919 -3.2394 0
M  V30 18082 H 1606.26 -1.47706 -3.90606 0
M  V30 18083 N 1606.69 0.865285 -1.31722 0
M  V30 18084 C 1607.92 1.65137 -1.24649 0
M  V30 18085 C 1608.34 1.87868 0.187391 0
M  V30 18086 O 1607.69 1.44015 1.12098 0
M  V30 18087 C 1607.75 3.0167 -1.99193 0
M  V30 18088 O 1607.47 2.79951 -3.36985 0
M  V30 18089 C 1608.97 3.96115 -1.99017 0
M  V30 18090 H 1606.19 0.514683 -0.430514 0
M  V30 18091 H 1608.73 1.07971 -1.73674 0
M  V30 18092 H 1606.89 3.55511 -1.53918 0
M  V30 18093 H 1607.3 3.66706 -3.75002 0
M  V30 18094 H 1608.77 4.89217 -2.55677 0
M  V30 18095 H 1609.25 4.28268 -0.973815 0
M  V30 18096 H 1609.86 3.4821 -2.44192 0
M  V30 18097 N 1608.17 1.14759 1.0802 0
M  V30 18098 C 1609.12 0.833824 2.17141 0
M  V30 18099 C 1610.11 -0.189939 1.68332 0
M  V30 18100 O 1611.32 -0.0456447 1.79942 0
M  V30 18101 H 1607.7 0.251944 0.70854 0
M  V30 18102 H 1609.67 1.76196 2.40827 0
M  V30 18103 C 1608.42 0.33203 3.46111 0
M  V30 18104 H 1607.74 1.11117 3.84048 0
M  V30 18105 H 1609.18 0.151078 4.23731 0
M  V30 18106 C 1607.64 -0.945153 3.2337 0
M  V30 18107 O 1608.17 -2.0181 3.47326 0
M  V30 18108 N 1606.37 -0.881963 2.76893 0
M  V30 18109 H 1605.92 -0.00865768 2.57599 0
M  V30 18110 H 1605.88 -1.73706 2.62056 0
M  V30 18111 N 1609.65 -1.26251 0.943322 0
M  V30 18112 C 1610.56 -2.3003 0.460778 0
M  V30 18113 C 1611.58 -1.67635 -0.4663 0
M  V30 18114 O 1612.75 -1.98418 -0.345307 0
M  V30 18115 C 1609.82 -3.45691 -0.264291 0
M  V30 18116 C 1608.88 -4.23561 0.69961 0
M  V30 18117 C 1608.11 -5.33699 0.00904846 0
M  V30 18118 O 1608.33 -5.57473 -1.20748 0
M  V30 18119 O 1607.27 -5.97945 0.688839 0
M  V30 18120 H 1611.09 -2.73374 1.32289 0
M  V30 18121 H 1608.68 -1.31489 0.709297 0
M  V30 18122 H 1610.56 -4.15997 -0.672634 0
M  V30 18123 H 1609.24 -3.04373 -1.10176 0
M  V30 18124 H 1608.14 -3.55728 1.15794 0
M  V30 18125 H 1609.48 -4.68634 1.50476 0
M  V30 18126 N 1611.13 -0.710588 -1.40671 0
M  V30 18127 C 1612.08 -0.0548139 -2.30735 0
M  V30 18128 C 1613.05 0.755572 -1.4792 0
M  V30 18129 O 1614.23 0.720541 -1.76672 0
M  V30 18130 C 1611.37 0.864648 -3.34093 0
M  V30 18131 C 1610.48 0.0442717 -4.31977 0
M  V30 18132 C 1609.62 0.962752 -5.22403 0
M  V30 18133 C 1608.66 0.13617 -6.11949 0
M  V30 18134 N 1607.8 1.00926 -6.94808 0
M  V30 18135 H 1612.64 -0.828555 -2.8625 0
M  V30 18136 H 1610.17 -0.420286 -1.40968 0
M  V30 18137 H 1612.13 1.41193 -3.92582 0
M  V30 18138 H 1610.76 1.60462 -2.80092 0
M  V30 18139 H 1609.81 -0.620132 -3.75311 0
M  V30 18140 H 1611.12 -0.595895 -4.95228 0
M  V30 18141 H 1610.28 1.57874 -5.85799 0
M  V30 18142 H 1609.02 1.63675 -4.59415 0
M  V30 18143 H 1608.02 -0.492793 -5.47587 0
M  V30 18144 H 1609.25 -0.534251 -6.76995 0
M  V30 18145 H 1607.19 1.669 -6.34413 0
M  V30 18146 H 1607.11 0.425013 -7.54804 0
M  V30 18147 H 1608.38 1.61159 -7.62659 0
M  V30 18148 N 1612.61 1.50847 -0.456408 0
M  V30 18149 C 1613.57 2.26755 0.33388 0
M  V30 18150 C 1614.57 1.30947 0.933247 0
M  V30 18151 O 1615.76 1.54499 0.804716 0
M  V30 18152 C 1612.89 3.07378 1.47417 0
M  V30 18153 H 1614.09 2.98061 -0.331634 0
M  V30 18154 H 1611.64 1.54882 -0.210067 0
M  V30 18155 H 1612.37 2.40534 2.17518 0
M  V30 18156 H 1612.16 3.7777 1.05036 0
M  V30 18157 H 1613.65 3.64826 2.03204 0
M  V30 18158 N 1614.09 0.188454 1.56469 0
M  V30 18159 C 1615.32 -0.457182 2.01478 0
M  V30 18160 C 1615.72 -1.5619 1.06777 0
M  V30 18161 O 1615.07 -1.8359 0.063659 0
M  V30 18162 C 1615.13 -1.08002 3.42893 0
M  V30 18163 C 1614.79 -0.114858 4.56856 0
M  V30 18164 C 1615.79 0.673269 5.15522 0
M  V30 18165 C 1613.47 -0.00570411 5.023 0
M  V30 18166 C 1615.47 1.55758 6.18076 0
M  V30 18167 C 1613.16 0.882173 6.04699 0
M  V30 18168 C 1614.15 1.66239 6.6246 0
M  V30 18169 O 1613.84 2.5354 7.62871 0
M  V30 18170 H 1613.57 -0.119784 0.665303 0
M  V30 18171 H 1616.13 0.292446 2.03307 0
M  V30 18172 H 1614.36 -1.87811 3.3803 0
M  V30 18173 H 1616.05 -1.62962 3.7175 0
M  V30 18174 H 1616.81 0.599207 4.81284 0
M  V30 18175 H 1612.69 -0.602804 4.57042 0
M  V30 18176 H 1616.24 2.16701 6.63088 0
M  V30 18177 H 1612.13 0.957375 6.38361 0
M  V30 18178 H 1612.9 2.47245 7.80264 0
M  V30 18179 N 1615.56 -1.5737 -0.0851874 0
M  V30 18180 C 1616.51 -2.02758 -1.10262 0
M  V30 18181 C 1617.48 -0.905702 -1.39235 0
M  V30 18182 O 1618.67 -1.17241 -1.50529 0
M  V30 18183 C 1615.81 -2.46528 -2.41492 0
M  V30 18184 C 1614.92 -3.72278 -2.19165 0
M  V30 18185 C 1614.05 -4.04885 -3.43863 0
M  V30 18186 C 1613.09 -5.23715 -3.16842 0
M  V30 18187 N 1612.23 -5.52026 -4.33833 0
M  V30 18188 H 1617.07 -2.89453 -0.708583 0
M  V30 18189 H 1614.61 -1.43156 -0.338332 0
M  V30 18190 H 1616.56 -2.69952 -3.18091 0
M  V30 18191 H 1615.19 -1.62829 -2.78723 0
M  V30 18192 H 1614.25 -3.56272 -1.33321 0
M  V30 18193 H 1615.56 -4.5902 -1.95197 0
M  V30 18194 H 1614.71 -4.29138 -4.28865 0
M  V30 18195 H 1613.45 -3.16683 -3.70895 0
M  V30 18196 H 1612.46 -4.99272 -2.30234 0
M  V30 18197 H 1613.68 -6.13523 -2.91146 0
M  V30 18198 H 1611.63 -4.66784 -4.60922 0
M  V30 18199 H 1611.54 -6.3316 -4.13091 0
M  V30 18200 H 1612.81 -5.80822 -5.19871 0
M  V30 18201 N 1617.04 0.356258 -1.53521 0
M  V30 18202 C 1617.97 1.44271 -1.83598 0
M  V30 18203 C 1618.95 1.5547 -0.690141 0
M  V30 18204 O 1620.14 1.69886 -0.940868 0
M  V30 18205 C 1617.27 2.8149 -2.03422 0
M  V30 18206 C 1616.22 2.85108 -3.19213 0
M  V30 18207 C 1615.55 4.25091 -3.24348 0
M  V30 18208 C 1616.85 2.51788 -4.57602 0
M  V30 18209 H 1618.54 1.1935 -2.74583 0
M  V30 18210 H 1616.09 0.572707 -1.32121 0
M  V30 18211 H 1618.04 3.57531 -2.23046 0
M  V30 18212 H 1616.76 3.07819 -1.09155 0
M  V30 18213 H 1615.42 2.1152 -2.99424 0
M  V30 18214 H 1615.07 4.4851 -2.277 0
M  V30 18215 H 1614.77 4.28426 -4.0215 0
M  V30 18216 H 1616.3 5.02992 -3.46167 0
M  V30 18217 H 1617.71 3.17542 -4.77326 0
M  V30 18218 H 1616.11 2.66426 -5.37715 0
M  V30 18219 H 1617.18 1.4701 -4.62078 0
M  V30 18220 N 1618.52 1.45038 0.616577 0
M  V30 18221 C 1619.77 1.47861 1.37186 0
M  V30 18222 C 1620.08 0.120862 1.95226 0
M  V30 18223 O 1621.29 0.0266872 2.71487 0
M  V30 18224 C 1619.74 2.6038 2.48455 0
M  V30 18225 C 1619.35 4.02428 1.96866 0
M  V30 18226 C 1621.1 2.7244 3.25541 0
M  V30 18227 C 1619 5.06345 3.05563 0
M  V30 18228 H 1617.93 0.550166 0.51559 0
M  V30 18229 H 1620.58 1.71151 0.661796 0
M  V30 18230 H 1618.97 2.30357 3.22105 0
M  V30 18231 H 1620.14 4.42087 1.29985 0
M  V30 18232 H 1618.45 3.94739 1.32552 0
M  V30 18233 H 1621.05 3.47248 4.06599 0
M  V30 18234 H 1621.39 1.7876 3.75966 0
M  V30 18235 H 1621.93 3.01944 2.58988 0
M  V30 18236 H 1618.67 6.01703 2.60065 0
M  V30 18237 H 1618.19 4.71264 3.7104 0
M  V30 18238 H 1619.87 5.30695 3.70097 0
M  V30 18239 N 1620 -0.858287 1.32179 0
M  V30 18240 C 1620.94 -1.96656 1.20811 0
M  V30 18241 C 1621.91 -1.6585 0.0911199 0
M  V30 18242 O 1623.1 -1.88936 0.266033 0
M  V30 18243 C 1620.24 -3.32237 0.933408 0
M  V30 18244 C 1619.35 -3.75564 2.13484 0
M  V30 18245 C 1618.49 -4.9992 1.79593 0
M  V30 18246 C 1617.53 -5.35728 2.96077 0
M  V30 18247 N 1616.66 -6.51261 2.62304 0
M  V30 18248 H 1621.5 -2.05711 2.15609 0
M  V30 18249 H 1619.04 -1.00689 1.07239 0
M  V30 18250 H 1621 -4.10318 0.754651 0
M  V30 18251 H 1619.63 -3.22792 0.0222279 0
M  V30 18252 H 1618.68 -2.93167 2.42399 0
M  V30 18253 H 1619.99 -3.98025 3.00629 0
M  V30 18254 H 1619.15 -5.85698 1.58248 0
M  V30 18255 H 1617.89 -4.79388 0.896561 0
M  V30 18256 H 1616.89 -4.48463 3.18058 0
M  V30 18257 H 1618.12 -5.58219 3.86741 0
M  V30 18258 H 1616.06 -6.32254 1.74904 0
M  V30 18259 H 1615.98 -6.73722 3.42979 0
M  V30 18260 H 1617.25 -7.40202 2.4438 0
M  V30 18261 N 1621.48 -1.1533 -1.07409 0
M  V30 18262 C 1622.7 -0.951643 -1.83715 0
M  V30 18263 C 1623.12 0.500054 -1.82057 0
M  V30 18264 O 1622.48 1.3468 -1.23157 0
M  V30 18265 C 1622.53 -1.45734 -3.30823 0
M  V30 18266 O 1622.25 -2.85217 -3.3254 0
M  V30 18267 C 1623.75 -1.29709 -4.23899 0
M  V30 18268 H 1620.97 -0.338021 -0.57964 0
M  V30 18269 H 1623.51 -1.53088 -1.35589 0
M  V30 18270 H 1621.67 -0.920643 -3.76302 0
M  V30 18271 H 1622.08 -3.08134 -4.24445 0
M  V30 18272 H 1623.56 -1.69938 -5.2519 0
M  V30 18273 H 1624.03 -0.241185 -4.38537 0
M  V30 18274 H 1624.64 -1.82283 -3.84256 0
M  V30 18275 N 1622.95 1.25748 -0.950004 0
M  V30 18276 C 1624.2 1.92632 -0.597988 0
M  V30 18277 C 1624.52 1.75268 0.868365 0
M  V30 18278 O 1625.72 2.36684 1.33014 0
M  V30 18279 C 1624.18 3.45179 -1.01879 0
M  V30 18280 C 1623.79 3.71262 -2.50736 0
M  V30 18281 C 1625.53 4.18017 -0.739084 0
M  V30 18282 C 1623.44 5.17292 -2.8664 0
M  V30 18283 H 1622.37 0.72121 -0.219938 0
M  V30 18284 H 1625.02 1.42685 -1.15383 0
M  V30 18285 H 1623.4 3.94061 -0.391395 0
M  V30 18286 H 1624.57 3.33051 -3.18455 0
M  V30 18287 H 1622.89 3.11676 -2.76129 0
M  V30 18288 H 1625.49 5.25576 -0.983555 0
M  V30 18289 H 1625.83 4.15034 0.32439 0
M  V30 18290 H 1626.36 3.75028 -1.32661 0
M  V30 18291 H 1623.1 5.25383 -3.91987 0
M  V30 18292 H 1622.62 5.56567 -2.23591 0
M  V30 18293 H 1624.3 5.85375 -2.75582 0
M  V30 18294 N 1624.43 0.718038 1.40292 0
M  V30 18295 C 1625.34 0.0681535 2.34501 0
M  V30 18296 C 1626.36 -0.741048 1.57431 0
M  V30 18297 O 1627.53 -0.673437 1.89807 0
M  V30 18298 C 1624.6 -0.840758 3.36351 0
M  V30 18299 C 1623.66 -0.0212287 4.29295 0
M  V30 18300 C 1622.89 -0.886852 5.2628 0
M  V30 18301 O 1623.12 -2.12603 5.29298 0
M  V30 18302 O 1622.05 -0.324537 6.01024 0
M  V30 18303 H 1625.88 0.845288 2.91699 0
M  V30 18304 H 1623.46 0.478541 1.41529 0
M  V30 18305 H 1625.34 -1.36131 3.98806 0
M  V30 18306 H 1624.02 -1.597 2.81563 0
M  V30 18307 H 1622.92 0.544451 3.70117 0
M  V30 18308 H 1624.26 0.696846 4.87242 0
M  V30 18309 N 1625.91 -1.50602 0.464402 0
M  V30 18310 C 1626.87 -2.26929 -0.32185 0
M  V30 18311 C 1627.87 -1.3144 -0.926289 0
M  V30 18312 O 1629.06 -1.54924 -0.796511 0
M  V30 18313 C 1626.2 -3.08155 -1.45785 0
M  V30 18314 H 1627.39 -2.97881 0.347436 0
M  V30 18315 H 1624.94 -1.54768 0.218278 0
M  V30 18316 H 1625.68 -2.41684 -2.16239 0
M  V30 18317 H 1625.46 -3.78321 -1.03031 0
M  V30 18318 H 1626.95 -3.65899 -2.01266 0
M  V30 18319 N 1627.39 -0.19675 -1.56367 0
M  V30 18320 C 1628.32 0.718607 -2.22167 0
M  V30 18321 C 1629.3 1.22002 -1.1853 0
M  V30 18322 O 1630.48 1.26856 -1.47042 0
M  V30 18323 C 1627.61 1.93753 -2.88231 0
M  V30 18324 C 1626.57 1.57096 -3.98127 0
M  V30 18325 C 1625.89 2.86663 -4.51363 0
M  V30 18326 C 1627.19 0.779649 -5.16448 0
M  V30 18327 H 1628.89 0.170064 -2.98917 0
M  V30 18328 H 1626.43 0.0803568 -1.43776 0
M  V30 18329 H 1628.39 2.58312 -3.32946 0
M  V30 18330 H 1627.11 2.51063 -2.0889 0
M  V30 18331 H 1625.77 0.948947 -3.54105 0
M  V30 18332 H 1625.42 3.42066 -3.68782 0
M  V30 18333 H 1625.12 2.6288 -5.25517 0
M  V30 18334 H 1626.64 3.52207 -4.98781 0
M  V30 18335 H 1628.06 1.32838 -5.57698 0
M  V30 18336 H 1626.45 0.639882 -5.96679 0
M  V30 18337 H 1627.52 -0.218944 -4.84405 0
M  V30 18338 N 1628.87 1.57413 0.0768405 0
M  V30 18339 C 1629.78 2.06688 1.10983 0
M  V30 18340 C 1630.79 0.995392 1.42716 0
M  V30 18341 O 1631.97 1.30977 1.52994 0
M  V30 18342 C 1629.03 2.49676 2.40546 0
M  V30 18343 C 1628.09 3.71101 2.1583 0
M  V30 18344 C 1627.33 4.1203 3.39216 0
M  V30 18345 O 1627.55 3.52877 4.48145 0
M  V30 18346 O 1626.48 5.04856 3.27726 0
M  V30 18347 H 1630.31 2.95012 0.721242 0
M  V30 18348 H 1627.9 1.46546 0.290624 0
M  V30 18349 H 1629.78 2.77871 3.16805 0
M  V30 18350 H 1628.45 1.64484 2.78795 0
M  V30 18351 H 1627.36 3.47996 1.37293 0
M  V30 18352 H 1628.69 4.5713 1.82465 0
M  V30 18353 N 1630.34 -0.348112 1.53707 0
M  V30 18354 C 1631.29 -1.42729 1.81375 0
M  V30 18355 C 1632.26 -1.52461 0.659159 0
M  V30 18356 O 1633.45 -1.68072 0.903129 0
M  V30 18357 C 1630.59 -2.79443 2.02498 0
M  V30 18358 C 1629.7 -2.7854 3.30211 0
M  V30 18359 C 1628.83 -4.06942 3.41426 0
M  V30 18360 C 1627.87 -4.00248 4.63106 0
M  V30 18361 N 1627.01 -5.20332 4.7138 0
M  V30 18362 H 1631.85 -1.18436 2.73454 0
M  V30 18363 H 1629.39 -0.573809 1.35447 0
M  V30 18364 H 1631.35 -3.58888 2.12733 0
M  V30 18365 H 1629.98 -3.02099 1.13737 0
M  V30 18366 H 1629.03 -1.91227 3.28841 0
M  V30 18367 H 1630.34 -2.69471 4.19746 0
M  V30 18368 H 1629.49 -4.94808 3.51069 0
M  V30 18369 H 1628.23 -4.18786 2.49939 0
M  V30 18370 H 1627.24 -3.10767 4.53546 0
M  V30 18371 H 1628.46 -3.89991 5.55953 0
M  V30 18372 H 1626.41 -5.32729 3.828 0
M  V30 18373 H 1626.33 -5.13502 5.54844 0
M  V30 18374 H 1627.59 -6.09982 4.85326 0
M  V30 18375 N 1631.82 -1.45363 -0.608876 0
M  V30 18376 C 1632.77 -1.53936 -1.71966 0
M  V30 18377 C 1633.74 -0.385352 -1.61568 0
M  V30 18378 O 1634.92 -0.598622 -1.81166 0
M  V30 18379 C 1632.06 -1.51079 -3.10272 0
M  V30 18380 C 1631.18 -2.77022 -3.31486 0
M  V30 18381 C 1630.31 -2.65846 -4.59891 0
M  V30 18382 C 1629.35 -3.86848 -4.74357 0
M  V30 18383 N 1628.49 -3.74214 -5.94061 0
M  V30 18384 H 1633.33 -2.4883 -1.63974 0
M  V30 18385 H 1630.87 -1.23472 -0.799565 0
M  V30 18386 H 1632.82 -1.47411 -3.90289 0
M  V30 18387 H 1631.45 -0.597374 -3.17224 0
M  V30 18388 H 1630.51 -2.90783 -2.45253 0
M  V30 18389 H 1631.82 -3.66776 -3.38049 0
M  V30 18390 H 1630.97 -2.60136 -5.48101 0
M  V30 18391 H 1629.71 -1.73689 -4.55723 0
M  V30 18392 H 1628.72 -3.92918 -3.84572 0
M  V30 18393 H 1629.94 -4.80069 -4.80324 0
M  V30 18394 H 1627.89 -2.84825 -5.9094 0
M  V30 18395 H 1627.8 -4.57601 -6.01779 0
M  V30 18396 H 1629.07 -3.72434 -6.84772 0
M  V30 18397 N 1633.3 0.851265 -1.32632 0
M  V30 18398 C 1634.25 1.98152 -1.21813 0
M  V30 18399 C 1635.24 1.68959 -0.122182 0
M  V30 18400 O 1636.45 1.77724 -0.285332 0
M  V30 18401 H 1632.82 0.650275 -0.377686 0
M  V30 18402 H 1634.79 2.04405 -2.17397 0
M  V30 18403 C 1633.54 3.34141 -0.961521 0
M  V30 18404 H 1632.87 3.57136 -1.79704 0
M  V30 18405 H 1634.31 4.13763 -0.926077 0
M  V30 18406 C 1632.77 3.35223 0.335704 0
M  V30 18407 O 1633.3 3.78461 1.34647 0
M  V30 18408 N 1631.5 2.88376 0.358875 0
M  V30 18409 H 1631.05 2.53383 -0.464194 0
M  V30 18410 H 1631.01 2.89482 1.22668 0
M  V30 18411 N 1634.78 1.15898 1.06796 0
M  V30 18412 C 1636.06 0.847701 1.76276 0
M  V30 18413 C 1636.44 -0.655537 2.00664 0
M  V30 18414 O 1635.78 -1.60171 1.62964 0
M  V30 18415 C 1635.99 1.66475 3.06736 0
M  V30 18416 C 1637.34 1.87452 3.80982 0
M  V30 18417 O 1638.37 1.63298 3.16563 0
M  V30 18418 O 1637.22 2.27942 4.96694 0
M  V30 18419 H 1634.32 0.312308 0.765763 0
M  V30 18420 H 1636.86 1.26507 1.13111 0
M  V30 18421 H 1635.64 2.68508 2.84638 0
M  V30 18422 H 1635.26 1.24409 3.77635 0
M  V30 18423 N 1636.26 -1.25243 0.956659 0
M  V30 18424 C 1637.19 -2.28159 0.496574 0
M  V30 18425 C 1638.17 -1.63814 -0.458132 0
M  V30 18426 O 1639.35 -1.90897 -0.356648 0
M  V30 18427 C 1636.48 -3.46573 -0.22454 0
M  V30 18428 C 1635.44 -4.2311 0.645104 0
M  V30 18429 C 1634.76 -5.343 -0.206867 0
M  V30 18430 C 1636.06 -4.85562 1.92422 0
M  V30 18431 H 1637.76 -2.66895 1.35675 0
M  V30 18432 H 1635.3 -1.28301 0.653827 0
M  V30 18433 H 1637.26 -4.17695 -0.55755 0
M  V30 18434 H 1635.98 -3.06833 -1.11898 0
M  V30 18435 H 1634.64 -3.53774 0.961228 0
M  V30 18436 H 1634.29 -4.908 -1.10112 0
M  V30 18437 H 1633.99 -5.86423 0.371714 0
M  V30 18438 H 1635.51 -6.08253 -0.534798 0
M  V30 18439 H 1636.92 -5.48817 1.65749 0
M  V30 18440 H 1635.32 -5.47871 2.44862 0
M  V30 18441 H 1636.39 -4.07634 2.62607 0
M  V30 18442 N 1637.73 -0.725468 -1.3991 0
M  V30 18443 C 1638.68 -0.0792833 -2.30664 0
M  V30 18444 C 1639.65 0.73984 -1.48713 0
M  V30 18445 O 1640.84 0.701762 -1.77426 0
M  V30 18446 C 1637.98 0.829164 -3.34991 0
M  V30 18447 C 1637.09 -0.00154779 -4.32 0
M  V30 18448 C 1636.22 0.907291 -5.23394 0
M  V30 18449 C 1635.26 0.0712573 -6.12059 0
M  V30 18450 N 1634.4 0.935508 -6.9584 0
M  V30 18451 H 1639.24 -0.858869 -2.85355 0
M  V30 18452 H 1636.78 -0.435214 -1.40514 0
M  V30 18453 H 1638.74 1.37021 -3.94057 0
M  V30 18454 H 1637.37 1.57483 -2.81778 0
M  V30 18455 H 1636.42 -0.659903 -3.74632 0
M  V30 18456 H 1637.73 -0.648387 -4.94568 0
M  V30 18457 H 1636.88 1.51652 -5.87441 0
M  V30 18458 H 1635.62 1.58793 -4.61125 0
M  V30 18459 H 1634.63 -0.550844 -5.47034 0
M  V30 18460 H 1635.85 -0.606025 -6.76391 0
M  V30 18461 H 1633.8 1.60162 -6.36148 0
M  V30 18462 H 1633.72 0.344932 -7.55213 0
M  V30 18463 H 1634.98 1.53061 -7.64325 0
M  V30 18464 N 1639.21 1.50354 -0.472382 0
M  V30 18465 C 1640.46 2.01526 0.0838536 0
M  V30 18466 C 1640.77 1.35913 1.40667 0
M  V30 18467 O 1641.98 1.78248 2.04792 0
M  V30 18468 C 1640.44 3.59344 0.199949 0
M  V30 18469 C 1640.04 4.33916 -1.11451 0
M  V30 18470 C 1641.79 4.18553 0.708075 0
M  V30 18471 C 1639.7 5.83521 -0.962138 0
M  V30 18472 H 1638.63 0.753182 0.0351127 0
M  V30 18473 H 1641.28 1.73153 -0.607474 0
M  V30 18474 H 1639.66 3.8431 0.955088 0
M  V30 18475 H 1640.83 4.20673 -1.8807 0
M  V30 18476 H 1639.15 3.86322 -1.55385 0
M  V30 18477 H 1641.74 5.28075 0.839126 0
M  V30 18478 H 1642.09 3.80019 1.69973 0
M  V30 18479 H 1642.62 3.97799 0.0102847 0
M  V30 18480 H 1639.36 6.26529 -1.9272 0
M  V30 18481 H 1638.88 5.99334 -0.236348 0
M  V30 18482 H 1640.56 6.43933 -0.629276 0
M  V30 18483 N 1640.69 0.205039 1.56261 0
M  V30 18484 C 1641.64 -0.711828 2.19549 0
M  V30 18485 C 1642.61 -1.2025 1.14582 0
M  V30 18486 O 1643.79 -1.26459 1.42873 0
M  V30 18487 C 1640.93 -1.92152 2.86656 0
M  V30 18488 C 1640.05 -1.47129 4.06174 0
M  V30 18489 C 1639.18 -2.63726 4.6111 0
M  V30 18490 C 1638.22 -2.15357 5.72964 0
M  V30 18491 N 1637.36 -3.25167 6.22263 0
M  V30 18492 H 1642.2 -0.165392 2.97541 0
M  V30 18493 H 1639.73 -0.0698889 1.46934 0
M  V30 18494 H 1641.69 -2.63152 3.23739 0
M  V30 18495 H 1640.32 -2.4411 2.11211 0
M  V30 18496 H 1639.37 -0.656797 3.74687 0
M  V30 18497 H 1640.69 -1.0765 4.87045 0
M  V30 18498 H 1639.84 -3.42833 5.0055 0
M  V30 18499 H 1638.58 -3.06484 3.79367 0
M  V30 18500 H 1637.58 -1.34706 5.33043 0
M  V30 18501 H 1638.81 -1.73618 6.56532 0
M  V30 18502 H 1636.76 -3.67438 5.43439 0
M  V30 18503 H 1636.67 -2.89888 6.98213 0
M  V30 18504 H 1637.94 -4.0446 6.66358 0
M  V30 18505 N 1642.17 -1.57451 -0.0684915 0
M  V30 18506 C 1643.1 -2.06954 -1.0813 0
M  V30 18507 C 1644.08 -0.963716 -1.40166 0
M  V30 18508 O 1645.27 -1.23664 -1.49736 0
M  V30 18509 C 1642.4 -2.51622 -2.39381 0
M  V30 18510 C 1641.35 -3.66111 -2.2169 0
M  V30 18511 C 1640.68 -3.96846 -3.58354 0
M  V30 18512 C 1641.98 -4.96036 -1.63541 0
M  V30 18513 H 1643.67 -2.91822 -0.66936 0
M  V30 18514 H 1641.22 -1.40387 -0.320533 0
M  V30 18515 H 1643.17 -2.84867 -3.1053 0
M  V30 18516 H 1641.89 -1.63788 -2.82562 0
M  V30 18517 H 1640.55 -3.33155 -1.52982 0
M  V30 18518 H 1640.2 -3.06137 -3.9911 0
M  V30 18519 H 1639.9 -4.73939 -3.47354 0
M  V30 18520 H 1641.42 -4.3259 -4.30927 0
M  V30 18521 H 1642.84 -5.27491 -2.24559 0
M  V30 18522 H 1641.23 -5.77474 -1.63228 0
M  V30 18523 H 1642.3 -4.81208 -0.597199 0
M  V30 18524 N 1643.65 0.339955 -1.5389 0
M  V30 18525 C 1644.59 1.41765 -1.8213 0
M  V30 18526 C 1645.56 1.52109 -0.667235 0
M  V30 18527 O 1646.75 1.67591 -0.91203 0
M  V30 18528 C 1643.89 2.78366 -2.03977 0
M  V30 18529 C 1643 2.76785 -3.31684 0
M  V30 18530 C 1642.14 4.05125 -3.4358 0
M  V30 18531 C 1641.18 3.97787 -4.65223 0
M  V30 18532 N 1640.31 5.17825 -4.74133 0
M  V30 18533 H 1645.15 1.16984 -2.74078 0
M  V30 18534 H 1642.69 0.566618 -1.35749 0
M  V30 18535 H 1644.65 3.57755 -2.14633 0
M  V30 18536 H 1643.28 3.01491 -1.15338 0
M  V30 18537 H 1642.33 1.89481 -3.2985 0
M  V30 18538 H 1643.64 2.67241 -4.2117 0
M  V30 18539 H 1642.8 4.9294 -3.53688 0
M  V30 18540 H 1641.54 4.17455 -2.52157 0
M  V30 18541 H 1640.54 3.08357 -4.55188 0
M  V30 18542 H 1641.77 3.87037 -5.58014 0
M  V30 18543 H 1639.71 5.30691 -3.8562 0
M  V30 18544 H 1639.63 5.10552 -5.5756 0
M  V30 18545 H 1640.9 6.074 -4.88554 0
M  V30 18546 N 1645.13 1.45684 0.601159 0
M  V30 18547 C 1646.4 1.4051 1.36074 0
M  V30 18548 C 1646.78 0.0790095 2.10952 0
M  V30 18549 O 1646.13 -0.939162 2.08307 0
M  V30 18550 C 1646.34 2.62297 2.3022 0
M  V30 18551 C 1647.69 3.0766 2.92627 0
M  V30 18552 O 1648.71 2.62716 2.40539 0
M  V30 18553 O 1647.57 3.85675 3.87191 0
M  V30 18554 H 1644.67 0.557902 0.61047 0
M  V30 18555 H 1647.21 1.57822 0.623712 0
M  V30 18556 H 1645.98 3.50389 1.74194 0
M  V30 18557 H 1645.61 2.47351 3.11293 0
M  V30 18558 N 1646.6 -0.84422 1.33082 0
M  V30 18559 C 1647.55 -1.97504 1.22862 0
M  V30 18560 C 1648.55 -1.68892 0.131141 0
M  V30 18561 O 1649.75 -1.7757 0.294753 0
M  V30 18562 H 1646.13 -0.648263 0.381129 0
M  V30 18563 H 1648.1 -2.03249 2.18478 0
M  V30 18564 C 1646.85 -3.33626 0.979228 0
M  V30 18565 H 1646.17 -3.56178 1.81596 0
M  V30 18566 H 1647.61 -4.13266 0.948007 0
M  V30 18567 C 1646.07 -3.35397 -0.317922 0
M  V30 18568 O 1646.6 -3.7917 -1.32638 0
M  V30 18569 N 1644.8 -2.88562 -0.343577 0
M  V30 18570 H 1644.35 -2.53133 0.477625 0
M  V30 18571 H 1644.31 -2.90129 -1.21131 0
M  V30 18572 N 1648.08 -1.16463 -1.0618 0
M  V30 18573 C 1649.33 -0.948248 -1.79265 0
M  V30 18574 C 1649.66 0.522578 -1.87037 0
M  V30 18575 O 1648.94 1.38772 -1.36282 0
M  V30 18576 C 1649.22 -1.57781 -3.23693 0
M  V30 18577 C 1649.07 -3.12005 -3.23995 0
M  V30 18578 C 1650.39 -1.27343 -4.21274 0
M  V30 18579 H 1647.51 -0.345907 -0.650782 0
M  V30 18580 H 1650.15 -1.4381 -1.24172 0
M  V30 18581 H 1648.3 -1.16126 -3.70738 0
M  V30 18582 H 1649.97 -3.62649 -2.85102 0
M  V30 18583 H 1648.22 -3.45276 -2.62615 0
M  V30 18584 H 1648.89 -3.51176 -4.25886 0
M  V30 18585 H 1651.36 -1.63396 -3.82676 0
M  V30 18586 H 1650.24 -1.73993 -5.20594 0
M  V30 18587 H 1650.5 -0.192469 -4.41681 0
M  V30 18588 N 1649.56 1.24734 -0.963288 0
M  V30 18589 C 1650.79 1.96745 -0.640234 0
M  V30 18590 C 1651.2 1.71503 0.789445 0
M  V30 18591 O 1650.56 0.996174 1.52914 0
M  V30 18592 C 1650.61 3.50118 -0.899987 0
M  V30 18593 O 1650.33 3.74494 -2.27346 0
M  V30 18594 C 1651.83 4.39349 -0.590511 0
M  V30 18595 H 1649.05 0.626892 -0.239266 0
M  V30 18596 H 1651.6 1.58678 -1.29002 0
M  V30 18597 H 1649.75 3.86264 -0.296478 0
M  V30 18598 H 1650.17 4.68902 -2.35013 0
M  V30 18599 H 1651.64 5.45834 -0.822744 0
M  V30 18600 H 1652.12 4.36622 0.475138 0
M  V30 18601 H 1652.72 4.08783 -1.17373 0
M  V30 18602 N 1651.04 0.732878 1.39523 0
M  V30 18603 C 1651.97 0.106583 2.33257 0
M  V30 18604 C 1652.95 -0.726582 1.53801 0
M  V30 18605 O 1654.13 -0.671994 1.82203 0
M  V30 18606 C 1651.26 -0.803051 3.37888 0
M  V30 18607 C 1650.22 -0.0742048 4.27936 0
M  V30 18608 C 1649.54 -1.10071 5.23248 0
M  V30 18609 C 1650.84 1.08195 5.10971 0
M  V30 18610 H 1652.54 0.889539 2.8588 0
M  V30 18611 H 1650.08 0.429209 1.37455 0
M  V30 18612 H 1652.04 -1.25071 4.02412 0
M  V30 18613 H 1650.76 -1.6181 2.83699 0
M  V30 18614 H 1649.42 0.35381 3.64889 0
M  V30 18615 H 1649.07 -1.90927 4.65356 0
M  V30 18616 H 1648.77 -0.617825 5.84343 0
M  V30 18617 H 1650.29 -1.54812 5.90649 0
M  V30 18618 H 1651.71 0.712835 5.68851 0
M  V30 18619 H 1650.1 1.49433 5.81197 0
M  V30 18620 H 1651.17 1.90463 4.45928 0
M  V30 18621 N 1652.52 -1.50101 0.480349 0
M  V30 18622 C 1653.79 -1.95144 -0.133456 0
M  V30 18623 C 1654.17 -1.4211 -1.56102 0
M  V30 18624 O 1653.52 -0.626012 -2.19757 0
M  V30 18625 C 1653.73 -3.48935 -0.0672904 0
M  V30 18626 C 1655.08 -4.23854 -0.251564 0
M  V30 18627 O 1656.1 -3.55911 -0.143446 0
M  V30 18628 O 1654.96 -5.44467 -0.470947 0
M  V30 18629 H 1652.06 -0.820098 -0.106619 0
M  V30 18630 H 1654.6 -1.60832 0.541413 0
M  V30 18631 H 1653.37 -3.80111 0.929058 0
M  V30 18632 H 1653 -3.8981 -0.783214 0
M  V30 18633 N 1653.99 -0.213323 -1.5615 0
M  V30 18634 C 1654.94 0.716708 -2.21283 0
M  V30 18635 C 1655.94 1.20599 -1.18963 0
M  V30 18636 O 1657.14 1.16677 -1.37064 0
M  V30 18637 H 1653.52 0.249524 -0.709395 0
M  V30 18638 H 1655.49 0.14385 -2.98053 0
M  V30 18639 C 1654.24 1.91775 -2.9003 0
M  V30 18640 H 1653.56 1.55036 -3.68516 0
M  V30 18641 H 1655 2.54646 -3.39016 0
M  V30 18642 C 1653.46 2.768 -1.92051 0
M  V30 18643 O 1653.99 3.75299 -1.43225 0
M  V30 18644 N 1652.19 2.42666 -1.5988 0
M  V30 18645 H 1651.74 1.62622 -1.99779 0
M  V30 18646 H 1651.7 2.99836 -0.945833 0
M  V30 18647 N 1655.47 1.57485 0.0601405 0
M  V30 18648 C 1656.72 1.86998 0.75595 0
M  V30 18649 C 1657.03 0.807616 1.78149 0
M  V30 18650 O 1658.24 0.99096 2.52769 0
M  V30 18651 C 1656.7 3.31746 1.39545 0
M  V30 18652 C 1656.3 4.46139 0.407874 0
M  V30 18653 C 1658.05 3.70445 2.07294 0
M  V30 18654 C 1655.96 5.81933 1.05395 0
M  V30 18655 H 1654.89 0.697619 0.286083 0
M  V30 18656 H 1657.54 1.83498 0.00948593 0
M  V30 18657 H 1655.92 3.29894 2.19057 0
M  V30 18658 H 1657.09 4.59405 -0.358281 0
M  V30 18659 H 1655.41 4.1607 -0.16581 0
M  V30 18660 H 1658 4.692 2.56428 0
M  V30 18661 H 1658.35 3.00839 2.87753 0
M  V30 18662 H 1658.88 3.74337 1.34598 0
M  V30 18663 H 1655.62 6.54861 0.289437 0
M  V30 18664 H 1655.14 5.72446 1.79068 0
M  V30 18665 H 1656.82 6.27652 1.5704 0
M  V30 18666 N 1656.95 -0.331789 1.54068 0
M  V30 18667 C 1658.2 -1.07228 1.72134 0
M  V30 18668 C 1658.53 -1.87936 0.489265 0
M  V30 18669 O 1657.8 -1.87592 -0.513761 0
M  V30 18670 C 1658.09 -2.00379 2.99199 0
M  V30 18671 C 1657.94 -1.23056 4.3264 0
M  V30 18672 C 1659.26 -3.00026 3.21982 0
M  V30 18673 H 1656.38 -0.388428 0.626333 0
M  V30 18674 H 1659.02 -0.34971 1.86754 0
M  V30 18675 H 1657.17 -2.61993 2.86865 0
M  V30 18676 H 1658.84 -0.639661 4.56844 0
M  V30 18677 H 1657.09 -0.532717 4.30517 0
M  V30 18678 H 1657.76 -1.91411 5.17751 0
M  V30 18679 H 1660.23 -2.48531 3.33724 0
M  V30 18680 H 1659.11 -3.62395 4.12263 0
M  V30 18681 H 1659.37 -3.72041 2.38826 0
M  V30 18682 N 1658.43 -1.46001 -0.593424 0
M  V30 18683 C 1659.66 -1.54307 -1.3783 0
M  V30 18684 C 1660.07 -0.18048 -1.87935 0
M  V30 18685 O 1659.43 0.820427 -1.63019 0
M  V30 18686 C 1659.48 -2.53911 -2.57316 0
M  V30 18687 O 1659.2 -3.84876 -2.09289 0
M  V30 18688 C 1660.7 -2.72054 -3.50002 0
M  V30 18689 H 1657.92 -0.522149 -0.421428 0
M  V30 18690 H 1660.47 -1.91315 -0.722423 0
M  V30 18691 H 1658.62 -2.19937 -3.18915 0
M  V30 18692 H 1659.03 -4.38996 -2.87025 0
M  V30 18693 H 1660.51 -3.45692 -4.3035 0
M  V30 18694 H 1660.99 -1.78583 -4.01254 0
M  V30 18695 H 1661.59 -3.07082 -2.94246 0
M  V30 18696 N 1659.91 0.83715 -1.33527 0
M  V30 18697 C 1660.87 1.92865 -1.23837 0
M  V30 18698 C 1661.87 1.60032 -0.157005 0
M  V30 18699 O 1663.06 1.69339 -0.408654 0
M  V30 18700 C 1660.19 3.28568 -0.908617 0
M  V30 18701 H 1661.38 2.02883 -2.20859 0
M  V30 18702 H 1658.94 1.02944 -1.1761 0
M  V30 18703 H 1659.67 3.24246 0.0590328 0
M  V30 18704 H 1659.46 3.53779 -1.69064 0
M  V30 18705 H 1660.95 4.0853 -0.86561 0
M  V30 18706 N 1661.38 1.17024 1.05561 0
M  V30 18707 C 1662.32 0.841314 2.13201 0
M  V30 18708 C 1663.33 -0.154667 1.62064 0
M  V30 18709 O 1664.52 0.0711173 1.78358 0
M  V30 18710 C 1661.62 0.233156 3.38097 0
M  V30 18711 C 1660.79 1.27108 4.18524 0
M  V30 18712 C 1659.85 0.681364 5.2177 0
M  V30 18713 O 1658.88 1.35219 5.52906 0
M  V30 18714 N 1660.08 -0.528381 5.7809 0
M  V30 18715 H 1662.84 1.76773 2.42015 0
M  V30 18716 H 1660.4 1.06858 1.21626 0
M  V30 18717 H 1662.4 -0.174565 4.04323 0
M  V30 18718 H 1660.97 -0.596965 3.06847 0
M  V30 18719 H 1660.19 1.85469 3.47843 0
M  V30 18720 H 1661.47 1.97129 4.6906 0
M  V30 18721 H 1660.87 -1.09141 5.55072 0
M  V30 18722 H 1659.43 -0.878214 6.45857 0
M  V30 18723 N 1662.86 -1.24221 0.969889 0
M  V30 18724 C 1664.09 -1.96403 0.650658 0
M  V30 18725 C 1664.51 -1.71919 -0.780339 0
M  V30 18726 O 1663.86 -1.00427 -1.52383 0
M  V30 18727 C 1663.91 -3.49636 0.918542 0
M  V30 18728 O 1663.63 -3.73283 2.29328 0
M  V30 18729 C 1665.14 -4.3903 0.613803 0
M  V30 18730 H 1662.36 -0.625614 0.242587 0
M  V30 18731 H 1664.9 -1.57992 1.29842 0
M  V30 18732 H 1663.05 -3.86101 0.316959 0
M  V30 18733 H 1663.47 -4.67649 2.37496 0
M  V30 18734 H 1664.94 -5.4539 0.851679 0
M  V30 18735 H 1665.42 -4.36868 -0.451976 0
M  V30 18736 H 1666.03 -4.08155 1.19539 0
M  V30 18737 N 1664.34 -0.740267 -1.39132 0
M  V30 18738 C 1665.27 -0.064087 -2.2911 0
M  V30 18739 C 1666.29 0.697897 -1.47082 0
M  V30 18740 O 1667.47 0.541189 -1.70098 0
M  V30 18741 C 1664.57 0.933426 -3.25792 0
M  V30 18742 C 1663.75 0.231867 -4.36785 0
M  V30 18743 C 1662.81 1.13823 -5.13742 0
M  V30 18744 O 1661.83 0.613741 -5.65881 0
M  V30 18745 N 1663.03 2.46751 -5.25447 0
M  V30 18746 H 1665.8 -0.836774 -2.87781 0
M  V30 18747 H 1663.36 -0.589928 -1.5077 0
M  V30 18748 H 1665.35 1.5425 -3.74151 0
M  V30 18749 H 1663.92 1.60728 -2.68114 0
M  V30 18750 H 1663.14 -0.557747 -3.90234 0
M  V30 18751 H 1664.43 -0.254115 -5.08165 0
M  V30 18752 H 1663.83 2.91834 -4.84613 0
M  V30 18753 H 1662.39 3.02741 -5.77227 0
M  V30 18754 N 1665.82 1.49844 -0.488302 0
M  V30 18755 C 1666.77 2.30515 0.310703 0
M  V30 18756 C 1667.76 1.38559 0.974569 0
M  V30 18757 O 1668.97 1.5567 0.903708 0
M  V30 18758 H 1665.34 0.742517 0.119049 0
M  V30 18759 H 1667.31 2.95842 -0.389849 0
M  V30 18760 C 1666.06 3.19575 1.36994 0
M  V30 18761 H 1665.38 3.90253 0.868497 0
M  V30 18762 H 1666.82 3.78984 1.90123 0
M  V30 18763 C 1665.28 2.38324 2.38124 0
M  V30 18764 O 1665.81 2.07842 3.43751 0
M  V30 18765 N 1664.02 2.00583 2.10273 0
M  V30 18766 H 1663.57 2.25572 1.24399 0
M  V30 18767 H 1663.52 1.46525 2.78169 0
M  V30 18768 N 1667.3 0.221601 1.56034 0
M  V30 18769 C 1668.54 -0.410087 1.98304 0
M  V30 18770 C 1668.87 -1.59769 1.10924 0
M  V30 18771 O 1668.13 -1.95092 0.154196 0
M  V30 18772 C 1668.43 -0.887416 3.46208 0
M  V30 18773 C 1668.09 0.189671 4.50501 0
M  V30 18774 C 1666.75 0.485557 4.78744 0
M  V30 18775 C 1669.11 0.918112 5.1305 0
M  V30 18776 C 1666.43 1.5144 5.66818 0
M  V30 18777 C 1668.79 1.93629 6.02238 0
M  V30 18778 C 1667.45 2.23909 6.28825 0
M  V30 18779 H 1666.72 -0.150061 0.725646 0
M  V30 18780 H 1669.37 0.32413 1.88737 0
M  V30 18781 H 1667.67 -1.70039 3.52979 0
M  V30 18782 H 1669.37 -1.38602 3.76285 0
M  V30 18783 H 1665.96 -0.0510987 4.2857 0
M  V30 18784 H 1670.14 0.702761 4.91299 0
M  V30 18785 H 1665.4 1.75462 5.85682 0
M  V30 18786 H 1669.57 2.5058 6.49756 0
M  V30 18787 H 1667.2 3.03774 6.96868 0
M  V30 18788 N 1668.77 -1.57515 -0.0517878 0
M  V30 18789 C 1669.72 -2.06114 -1.07795 0
M  V30 18790 C 1670.72 -0.97034 -1.38855 0
M  V30 18791 O 1671.92 -1.15536 -1.38027 0
M  V30 18792 H 1668.3 -0.657451 -0.365051 0
M  V30 18793 H 1670.27 -2.9141 -0.642068 0
M  V30 18794 C 1669.02 -2.53728 -2.37734 0
M  V30 18795 H 1668.34 -3.37266 -2.14689 0
M  V30 18796 H 1669.78 -2.91466 -3.07934 0
M  V30 18797 C 1668.24 -1.42868 -3.05107 0
M  V30 18798 O 1668.77 -0.782025 -3.94014 0
M  V30 18799 N 1666.98 -1.16882 -2.66058 0
M  V30 18800 H 1666.52 -1.6965 -1.93847 0
M  V30 18801 H 1666.48 -0.429164 -3.11457 0
M  V30 18802 N 1670.25 0.323614 -1.54242 0
M  V30 18803 C 1671.2 1.39826 -1.83623 0
M  V30 18804 C 1672.17 1.51393 -0.683331 0
M  V30 18805 O 1673.36 1.66614 -0.929754 0
M  V30 18806 C 1670.5 2.76187 -2.06918 0
M  V30 18807 C 1669.61 2.73251 -3.34601 0
M  V30 18808 C 1668.74 4.01458 -3.47857 0
M  V30 18809 C 1667.78 3.9283 -4.69415 0
M  V30 18810 N 1666.92 5.12767 -4.79598 0
M  V30 18811 H 1671.76 1.1407 -2.75303 0
M  V30 18812 H 1669.3 0.552188 -1.36343 0
M  V30 18813 H 1671.25 3.55458 -2.18416 0
M  V30 18814 H 1669.88 3.00251 -1.18529 0
M  V30 18815 H 1668.94 1.85971 -3.31842 0
M  V30 18816 H 1670.25 2.62759 -4.2398 0
M  V30 18817 H 1669.4 4.89161 -3.58897 0
M  V30 18818 H 1668.14 4.14757 -2.5657 0
M  V30 18819 H 1667.15 3.03512 -4.58433 0
M  V30 18820 H 1668.37 3.81097 -5.62087 0
M  V30 18821 H 1666.32 5.26572 -3.91227 0
M  V30 18822 H 1666.23 5.0461 -5.62943 0
M  V30 18823 H 1667.5 6.02184 -4.94969 0
M  V30 18824 N 1671.73 1.46313 0.585673 0
M  V30 18825 C 1672.64 1.59232 1.72286 0
M  V30 18826 C 1673.66 0.475912 1.67365 0
M  V30 18827 O 1674.83 0.739627 1.87327 0
M  V30 18828 C 1671.9 1.57647 3.08785 0
M  V30 18829 C 1670.96 2.80497 3.24992 0
M  V30 18830 C 1670.19 2.78978 4.5498 0
M  V30 18831 O 1670.42 1.87553 5.38684 0
M  V30 18832 O 1669.35 3.7048 4.74371 0
M  V30 18833 H 1673.18 2.55398 1.64334 0
M  V30 18834 H 1670.76 1.29073 0.752369 0
M  V30 18835 H 1672.64 1.59448 3.90069 0
M  V30 18836 H 1671.32 0.6464 3.1718 0
M  V30 18837 H 1670.22 2.8425 2.43213 0
M  V30 18838 H 1671.56 3.72703 3.21487 0
M  V30 18839 N 1673.21 -0.830057 1.33969 0
M  V30 18840 C 1674.46 -1.58084 1.25269 0
M  V30 18841 C 1674.77 -1.94792 -0.177557 0
M  V30 18842 O 1675.98 -2.68733 -0.386657 0
M  V30 18843 C 1674.43 -2.85177 2.1955 0
M  V30 18844 C 1674.04 -2.55798 3.67792 0
M  V30 18845 C 1675.79 -3.632 2.19741 0
M  V30 18846 C 1673.69 -3.79041 4.53963 0
M  V30 18847 H 1672.62 -0.593289 0.465321 0
M  V30 18848 H 1675.27 -0.914476 1.5909 0
M  V30 18849 H 1673.66 -3.53401 1.78672 0
M  V30 18850 H 1674.83 -1.9573 4.17165 0
M  V30 18851 H 1673.14 -1.91064 3.69978 0
M  V30 18852 H 1675.74 -4.54695 2.81347 0
M  V30 18853 H 1676.08 -3.98786 1.1948 0
M  V30 18854 H 1676.62 -3.0191 2.59028 0
M  V30 18855 H 1673.36 -3.4858 5.55133 0
M  V30 18856 H 1672.88 -4.38417 4.09329 0
M  V30 18857 H 1674.56 -4.46527 4.68212 0
M  V30 18858 N 1674.69 -1.17582 -1.04939 0
M  V30 18859 C 1675.63 -0.894855 -2.12746 0
M  V30 18860 C 1676.6 0.162261 -1.65306 0
M  V30 18861 O 1677.79 0.0245068 -1.90784 0
M  V30 18862 C 1674.93 -0.417085 -3.4257 0
M  V30 18863 C 1674.04 -1.53861 -4.03672 0
M  V30 18864 C 1673.18 -1.01446 -5.21423 0
M  V30 18865 C 1672.22 -2.11127 -5.74536 0
M  V30 18866 N 1671.35 -1.60169 -6.83586 0
M  V30 18867 H 1676.19 -1.81802 -2.36118 0
M  V30 18868 H 1673.73 -0.906716 -1.15832 0
M  V30 18869 H 1675.69 -0.121619 -4.17023 0
M  V30 18870 H 1674.32 0.469119 -3.19373 0
M  V30 18871 H 1673.37 -1.94975 -3.26633 0
M  V30 18872 H 1674.68 -2.36575 -4.39128 0
M  V30 18873 H 1673.84 -0.672992 -6.02956 0
M  V30 18874 H 1672.58 -0.156795 -4.87448 0
M  V30 18875 H 1671.58 -2.46128 -4.91631 0
M  V30 18876 H 1672.81 -2.97313 -6.10559 0
M  V30 18877 H 1670.75 -0.766783 -6.51503 0
M  V30 18878 H 1670.67 -2.36488 -7.18059 0
M  V30 18879 H 1671.94 -1.28923 -7.68765 0
M  V30 18880 N 1676.17 1.23705 -0.976463 0
M  V30 18881 C 1677.11 2.25023 -0.513156 0
M  V30 18882 C 1678.08 1.60003 0.445903 0
M  V30 18883 O 1679.27 1.87481 0.354323 0
M  V30 18884 C 1676.41 3.44619 0.182088 0
M  V30 18885 C 1675.52 4.24209 -0.816769 0
M  V30 18886 C 1674.66 5.31112 -0.0967355 0
M  V30 18887 C 1673.69 6.02406 -1.08507 0
M  V30 18888 N 1672.83 7.00991 -0.394455 0
M  V30 18889 H 1677.67 2.64019 -1.38194 0
M  V30 18890 H 1675.21 1.29777 -0.692566 0
M  V30 18891 H 1677.17 4.12835 0.601948 0
M  V30 18892 H 1675.8 3.06435 1.01477 0
M  V30 18893 H 1674.85 3.55448 -1.35503 0
M  V30 18894 H 1676.16 4.73445 -1.57006 0
M  V30 18895 H 1675.31 6.05504 0.380686 0
M  V30 18896 H 1674.05 4.82806 0.689187 0
M  V30 18897 H 1673.06 5.26809 -1.57328 0
M  V30 18898 H 1674.28 6.528 -1.87159 0
M  V30 18899 H 1672.23 6.54943 0.372331 0
M  V30 18900 H 1672.15 7.48152 -1.08647 0
M  V30 18901 H 1673.41 7.79476 0.0607087 0
M  V30 18902 N 1677.64 0.747635 1.38738 0
M  V30 18903 C 1678.59 0.0917864 2.27815 0
M  V30 18904 C 1679.58 -0.699471 1.44901 0
M  V30 18905 O 1680.77 -0.566404 1.67693 0
M  V30 18906 C 1677.9 -0.805131 3.33725 0
M  V30 18907 C 1676.98 -0.00734503 4.24099 0
M  V30 18908 N 1677.38 1.02602 4.95284 0
M  V30 18909 C 1675.67 -0.235075 4.4538 0
M  V30 18910 C 1676.37 1.50818 5.61808 0
M  V30 18911 N 1675.35 0.824534 5.3731 0
M  V30 18912 H 1679.15 0.883313 2.80312 0
M  V30 18913 H 1676.67 0.583125 1.5157 0
M  V30 18914 H 1678.66 -1.29056 3.96422 0
M  V30 18915 H 1677.32 -1.59568 2.82787 0
M  V30 18916 H 1678.33 1.40768 4.98402 0
M  V30 18917 H 1675.01 -0.99943 4.05361 0
M  V30 18918 H 1676.4 2.36862 6.28766 0
M  V30 18919 N 1679.12 -1.49583 0.496242 0
M  V30 18920 C 1680.07 -2.30677 -0.298474 0
M  V30 18921 C 1681.06 -1.39074 -0.967207 0
M  V30 18922 O 1682.27 -1.56147 -0.895439 0
M  V30 18923 H 1678.64 -0.743138 -0.11511 0
M  V30 18924 H 1680.62 -2.95632 0.405533 0
M  V30 18925 C 1679.36 -3.20297 -1.35297 0
M  V30 18926 H 1678.69 -3.90708 -0.847789 0
M  V30 18927 H 1680.13 -3.79987 -1.88111 0
M  V30 18928 C 1678.59 -2.39584 -2.36857 0
M  V30 18929 O 1679.12 -2.09662 -3.42644 0
M  V30 18930 N 1677.32 -2.01695 -2.09206 0
M  V30 18931 H 1676.87 -2.26229 -1.23201 0
M  V30 18932 H 1676.83 -1.47998 -2.77388 0
M  V30 18933 N 1680.6 -0.229873 -1.55915 0
M  V30 18934 C 1681.55 0.693198 -2.2203 0
M  V30 18935 C 1682.54 1.1933 -1.20236 0
M  V30 18936 O 1683.75 1.15217 -1.38294 0
M  V30 18937 H 1680.12 0.241986 -0.712002 0
M  V30 18938 H 1682.09 0.112229 -2.98189 0
M  V30 18939 C 1680.84 1.88688 -2.92048 0
M  V30 18940 H 1680.17 1.51119 -3.70139 0
M  V30 18941 H 1681.61 2.51036 -3.41697 0
M  V30 18942 C 1680.06 2.74747 -1.94976 0
M  V30 18943 O 1680.59 3.73759 -1.47198 0
M  V30 18944 N 1678.8 2.40956 -1.62445 0
M  V30 18945 H 1678.35 1.60494 -2.01493 0
M  V30 18946 H 1678.31 2.98816 -0.977581 0
M  V30 18947 N 1682.08 1.5754 0.0434337 0
M  V30 18948 C 1683.03 2.06683 1.067 0
M  V30 18949 C 1684.02 0.977691 1.38339 0
M  V30 18950 O 1685.23 1.16266 1.37412 0
M  V30 18951 H 1681.6 0.659378 0.361559 0
M  V30 18952 H 1683.57 2.91747 0.626605 0
M  V30 18953 C 1682.32 2.54985 2.36385 0
M  V30 18954 H 1681.64 3.384 2.12897 0
M  V30 18955 H 1683.08 2.93095 3.06384 0
M  V30 18956 C 1681.54 1.44484 3.04345 0
M  V30 18957 O 1682.07 0.80291 3.93594 0
M  V30 18958 N 1680.28 1.18292 2.65434 0
M  V30 18959 H 1679.83 1.70676 1.92944 0
M  V30 18960 H 1679.78 0.445676 3.11225 0
M  V30 18961 N 1683.56 -0.31543 1.54411 0
M  V30 18962 C 1684.51 -1.3898 1.80745 0
M  V30 18963 C 1685.49 -1.46567 0.663849 0
M  V30 18964 O 1686.68 -1.50963 0.924084 0
M  V30 18965 C 1683.81 -2.7571 2.04546 0
M  V30 18966 C 1682.9 -2.72403 3.2505 0
M  V30 18967 N 1683.29 -2.38715 4.45925 0
M  V30 18968 C 1681.59 -3.03523 3.26787 0
M  V30 18969 C 1682.29 -2.44346 5.27892 0
M  V30 18970 N 1681.26 -2.81118 4.65268 0
M  V30 18971 H 1685.06 -1.11875 2.71774 0
M  V30 18972 H 1682.58 -0.523951 1.53716 0
M  V30 18973 H 1684.58 -3.53156 2.21554 0
M  V30 18974 H 1683.24 -3.03738 1.14775 0
M  V30 18975 H 1684.25 -2.11419 4.72782 0
M  V30 18976 H 1680.92 -3.3654 2.47076 0
M  V30 18977 H 1682.31 -2.21221 6.34437 0
M  V30 18978 N 1685.03 -1.46622 -0.577906 0
M  V30 18979 C 1686.31 -1.42657 -1.33822 0
M  V30 18980 C 1686.69 -0.11256 -2.108 0
M  V30 18981 O 1686.04 0.905903 -2.09775 0
M  V30 18982 C 1686.25 -2.65927 -2.26018 0
M  V30 18983 C 1687.6 -3.12277 -2.87695 0
M  V30 18984 O 1688.62 -2.66509 -2.36329 0
M  V30 18985 O 1687.48 -3.91786 -3.81007 0
M  V30 18986 H 1684.57 -0.567544 -0.601517 0
M  V30 18987 H 1687.12 -1.58795 -0.598524 0
M  V30 18988 H 1685.89 -3.53116 -1.68597 0
M  V30 18989 H 1685.52 -2.52272 -3.07318 0
M  V30 18990 N 1686.51 0.822941 -1.34408 0
M  V30 18991 C 1687.79 1.56492 -1.17345 0
M  V30 18992 C 1688.17 2.09567 0.253965 0
M  V30 18993 O 1687.52 1.90931 1.25529 0
M  V30 18994 C 1687.73 2.6863 -2.22797 0
M  V30 18995 C 1689.08 3.37399 -2.57773 0
M  V30 18996 O 1690.1 2.78887 -2.21587 0
M  V30 18997 O 1688.96 4.43063 -3.19934 0
M  V30 18998 H 1686.05 0.690664 -0.454876 0
M  V30 18999 H 1688.6 0.864315 -1.4604 0
M  V30 19000 H 1687.37 2.27166 -3.18608 0
M  V30 19001 H 1686.99 3.46341 -1.95279 0
M  V30 19002 N 1687.99 1.18137 1.04314 0
M  V30 19003 C 1688.95 0.908268 2.10436 0
M  V30 19004 C 1689.95 -0.105315 1.60455 0
M  V30 19005 O 1691.14 0.12785 1.7373 0
M  V30 19006 C 1688.28 0.362233 3.3897 0
M  V30 19007 H 1689.47 1.84928 2.36096 0
M  V30 19008 H 1687.02 0.993048 1.20699 0
M  V30 19009 H 1687.76 -0.58551 3.18971 0
M  V30 19010 H 1687.54 1.09285 3.76562 0
M  V30 19011 H 1689.03 0.18977 4.17169 0
M  V30 19012 N 1689.47 -1.23186 0.98301 0
M  V30 19013 C 1690.75 -1.87121 0.569651 0
M  V30 19014 C 1691.13 -1.88355 -0.95319 0
M  V30 19015 O 1690.47 -1.36699 -1.831 0
M  V30 19016 C 1690.68 -3.28493 1.17871 0
M  V30 19017 C 1692.03 -4.05065 1.27308 0
M  V30 19018 O 1693.06 -3.37722 1.13236 0
M  V30 19019 O 1691.91 -5.2559 1.49723 0
M  V30 19020 H 1689.01 -0.804363 0.192171 0
M  V30 19021 H 1691.55 -1.31041 1.07826 0
M  V30 19022 H 1690.33 -3.22175 2.22078 0
M  V30 19023 H 1689.95 -3.92166 0.655087 0
M  V30 19024 N 1690.95 -0.754982 -1.38339 0
M  V30 19025 C 1692.18 -0.322156 -2.04073 0
M  V30 19026 C 1692.58 1.05488 -1.57063 0
M  V30 19027 O 1691.93 1.68154 -0.739597 0
M  V30 19028 C 1691.99 -0.267836 -3.58501 0
M  V30 19029 C 1691.65 -1.58665 -4.28572 0
M  V30 19030 C 1692.65 -2.53609 -4.53849 0
M  V30 19031 C 1690.34 -1.85647 -4.66734 0
M  V30 19032 C 1692.33 -3.73753 -5.16321 0
M  V30 19033 C 1690.02 -3.06065 -5.28931 0
M  V30 19034 C 1691.01 -3.99938 -5.53659 0
M  V30 19035 O 1690.7 -5.18238 -6.14561 0
M  V30 19036 H 1690.43 -0.135341 -0.662313 0
M  V30 19037 H 1692.99 -1.02517 -1.77987 0
M  V30 19038 H 1691.22 0.491434 -3.83565 0
M  V30 19039 H 1692.91 0.135662 -4.05673 0
M  V30 19040 H 1693.67 -2.3404 -4.24794 0
M  V30 19041 H 1689.55 -1.13415 -4.46831 0
M  V30 19042 H 1693.1 -4.47039 -5.35539 0
M  V30 19043 H 1688.99 -3.25526 -5.57408 0
M  V30 19044 H 1689.76 -5.18838 -6.33047 0
M  V30 19045 N 1692.42 1.49318 -0.504168 0
M  V30 19046 C 1693.7 1.95332 0.102393 0
M  V30 19047 C 1694.08 1.44576 1.53821 0
M  V30 19048 O 1693.43 0.660894 2.18734 0
M  V30 19049 C 1693.64 3.48998 0.0117694 0
M  V30 19050 C 1694.99 4.24201 0.184101 0
M  V30 19051 O 1696.01 3.56094 0.0868056 0
M  V30 19052 O 1694.87 5.45147 0.384267 0
M  V30 19053 H 1691.96 0.821691 0.0935582 0
M  V30 19054 H 1694.51 1.5995 -0.566932 0
M  V30 19055 H 1693.28 3.78585 -0.989413 0
M  V30 19056 H 1692.91 3.91006 0.7211 0
M  V30 19057 N 1693.9 0.238138 1.5579 0
M  V30 19058 C 1695.18 -0.438905 1.90612 0
M  V30 19059 C 1695.56 -1.76522 1.15773 0
M  V30 19060 O 1694.91 -2.26871 0.272363 0
M  V30 19061 C 1695.12 -0.615595 3.43528 0
M  V30 19062 C 1696.47 -0.915478 4.14613 0
M  V30 19063 O 1697.49 -0.70178 3.49218 0
M  V30 19064 O 1696.35 -1.32194 5.30271 0
M  V30 19065 H 1693.44 -0.234355 0.7931 0
M  V30 19066 H 1695.99 0.281555 1.67348 0
M  V30 19067 H 1694.76 0.319274 3.89995 0
M  V30 19068 H 1694.38 -1.38692 3.72626 0
M  V30 19069 N 1695.38 -1.57561 -0.0350783 0
M  V30 19070 C 1696.66 -1.8014 -0.76217 0
M  V30 19071 C 1697.04 -0.834754 -1.93894 0
M  V30 19072 O 1696.39 0.124387 -2.28161 0
M  V30 19073 C 1696.6 -3.2769 -1.20084 0
M  V30 19074 C 1697.94 -3.92513 -1.61923 0
M  V30 19075 O 1698.97 -3.31803 -1.29558 0
M  V30 19076 O 1697.83 -4.9939 -2.21972 0
M  V30 19077 H 1694.92 -0.740572 -0.368078 0
M  V30 19078 H 1697.47 -1.69696 -0.0123195 0
M  V30 19079 H 1696.24 -3.89636 -0.3605 0
M  V30 19080 H 1695.86 -3.43 -2.01089 0
M  V30 19081 N 1696.86 0.307236 -1.54576 0
M  V30 19082 C 1697.77 1.4014 -1.88143 0
M  V30 19083 C 1698.78 1.5579 -0.774952 0
M  V30 19084 O 1699.96 1.70574 -1.07082 0
M  V30 19085 C 1697.03 2.74613 -2.11633 0
M  V30 19086 C 1696.09 2.68001 -3.35371 0
M  V30 19087 C 1695.32 3.96061 -3.57731 0
M  V30 19088 O 1695.54 4.95119 -2.83219 0
M  V30 19089 O 1694.48 3.98331 -4.51238 0
M  V30 19090 H 1698.3 1.14677 -2.81217 0
M  V30 19091 H 1695.89 0.502739 -1.40687 0
M  V30 19092 H 1697.77 3.54186 -2.2832 0
M  V30 19093 H 1696.44 2.99933 -1.21746 0
M  V30 19094 H 1695.35 1.86922 -3.24054 0
M  V30 19095 H 1696.68 2.47635 -4.25368 0
M  V30 19096 N 1698.34 1.46926 0.570122 0
M  V30 19097 C 1699.61 1.43365 1.33063 0
M  V30 19098 C 1699.99 0.123738 2.10737 0
M  V30 19099 O 1699.34 -0.894766 2.10253 0
M  V30 19100 C 1699.55 2.67122 2.24604 0
M  V30 19101 C 1700.9 3.13798 2.86035 0
M  V30 19102 O 1701.92 2.67759 2.34912 0
M  V30 19103 O 1700.78 3.93801 3.78923 0
M  V30 19104 H 1697.88 0.570726 0.598499 0
M  V30 19105 H 1700.42 1.5911 0.590095 0
M  V30 19106 H 1699.19 3.54005 1.66722 0
M  V30 19107 H 1698.82 2.53899 3.05976 0
M  V30 19108 N 1699.82 -0.815801 1.34842 0
M  V30 19109 C 1701.09 -1.55867 1.18173 0
M  V30 19110 C 1701.47 -2.09698 -0.242848 0
M  V30 19111 O 1700.82 -1.91594 -1.24514 0
M  V30 19112 C 1701.03 -2.67445 2.24219 0
M  V30 19113 C 1702.38 -3.36027 2.59559 0
M  V30 19114 O 1703.4 -2.77708 2.23062 0
M  V30 19115 O 1702.26 -4.4136 3.22279 0
M  V30 19116 H 1699.36 -0.688242 0.458533 0
M  V30 19117 H 1701.9 -0.856558 1.46496 0
M  V30 19118 H 1700.67 -2.25473 3.19809 0
M  V30 19119 H 1700.3 -3.453 1.97113 0
M  V30 19120 N 1701.29 -1.18689 -1.03686 0
M  V30 19121 C 1702.57 -0.89414 -1.73967 0
M  V30 19122 C 1702.95 0.602104 -2.02331 0
M  V30 19123 O 1702.3 1.55794 -1.67154 0
M  V30 19124 C 1702.51 -1.74549 -3.02214 0
M  V30 19125 C 1703.86 -1.97487 -3.75878 0
M  V30 19126 O 1704.88 -1.71634 -3.12122 0
M  V30 19127 O 1703.74 -2.41031 -4.90476 0
M  V30 19128 H 1700.83 -0.332501 -0.757213 0
M  V30 19129 H 1703.38 -1.29461 -1.09717 0
M  V30 19130 H 1702.15 -2.75961 -2.77419 0
M  V30 19131 H 1701.77 -1.34378 -3.74204 0
M  V30 19132 N 1702.77 1.22662 -0.989529 0
M  V30 19133 C 1704.05 1.86816 -0.579566 0
M  V30 19134 C 1704.43 1.88858 0.943188 0
M  V30 19135 O 1703.78 1.37668 1.82372 0
M  V30 19136 C 1703.99 3.27863 -1.19612 0
M  V30 19137 C 1705.33 4.04384 -1.29454 0
M  V30 19138 O 1706.36 3.37116 -1.15026 0
M  V30 19139 O 1705.22 5.24789 -1.52508 0
M  V30 19140 H 1702.31 0.803332 -0.196434 0
M  V30 19141 H 1704.86 1.30467 -1.08519 0
M  V30 19142 H 1703.63 3.20993 -2.23784 0
M  V30 19143 H 1703.25 3.91813 -0.675875 0
M  V30 19144 N 1704.25 0.762308 1.37937 0
M  V30 19145 C 1705.53 0.247502 1.94028 0
M  V30 19146 C 1705.91 -1.25581 1.69684 0
M  V30 19147 O 1705.25 -2.03446 1.04028 0
M  V30 19148 C 1705.46 0.610643 3.43616 0
M  V30 19149 C 1706.81 0.57515 4.20687 0
M  V30 19150 O 1707.84 0.549461 3.51937 0
M  V30 19151 O 1706.7 0.593825 5.43264 0
M  V30 19152 H 1703.79 0.0544389 0.825206 0
M  V30 19153 H 1706.34 0.843021 1.47279 0
M  V30 19154 H 1705.11 1.64853 3.54879 0
M  V30 19155 H 1704.73 -0.0124265 3.97598 0
M  V30 19156 N 1705.73 -1.49049 0.51208 0
M  V30 19157 C 1707 -1.95383 -0.0920331 0
M  V30 19158 C 1707.38 -1.4539 -1.53053 0
M  V30 19159 O 1706.73 -0.672485 -2.1838 0
M  V30 19160 C 1706.94 -3.48999 0.00673901 0
M  V30 19161 C 1708.29 -4.24292 -0.161602 0
M  V30 19162 O 1709.31 -3.56135 -0.0679198 0
M  V30 19163 O 1708.17 -5.45343 -0.355351 0
M  V30 19164 H 1705.27 -0.822175 -0.0891992 0
M  V30 19165 H 1707.81 -1.59647 0.575406 0
M  V30 19166 H 1706.59 -3.78055 1.00948 0
M  V30 19167 H 1706.21 -3.91383 -0.700353 0
M  V30 19168 N 1707.21 -0.246397 -1.55662 0
M  V30 19169 C 1708.48 0.42879 -1.90842 0
M  V30 19170 C 1708.86 1.75905 -1.16707 0
M  V30 19171 O 1708.21 2.26723 -0.284391 0
M  V30 19172 C 1708.42 0.597368 -3.4385 0
M  V30 19173 C 1709.77 0.893477 -4.15093 0
M  V30 19174 O 1710.79 0.683251 -3.49586 0
M  V30 19175 O 1709.65 1.2938 -5.30964 0
M  V30 19176 H 1706.75 0.230145 -0.794331 0
M  V30 19177 H 1709.29 -0.290426 -1.67196 0
M  V30 19178 H 1708.06 -0.339952 -3.8982 0
M  V30 19179 H 1707.69 1.36714 -3.73356 0
M  V30 19180 N 1708.68 1.57577 0.026722 0
M  V30 19181 C 1709.96 1.80541 0.752606 0
M  V30 19182 C 1710.34 0.845025 1.93449 0
M  V30 19183 O 1709.69 -0.112286 2.28224 0
M  V30 19184 C 1709.9 3.28322 1.18345 0
M  V30 19185 C 1711.25 3.93366 1.59839 0
M  V30 19186 O 1712.27 3.32486 1.27796 0
M  V30 19187 O 1711.13 5.0056 2.19321 0
M  V30 19188 H 1708.22 0.742514 0.364146 0
M  V30 19189 H 1710.77 1.697 0.00332 0
M  V30 19190 H 1709.54 3.89822 0.339832 0
M  V30 19191 H 1709.16 3.44061 1.99267 0
M  V30 19192 N 1710.16 -0.299034 1.54737 0
M  V30 19193 C 1711.12 -1.35199 1.85078 0
M  V30 19194 C 1712.12 -1.4359 0.723788 0
M  V30 19195 O 1713.31 -1.43191 0.992067 0
M  V30 19196 C 1710.45 -2.73659 2.03282 0
M  V30 19197 H 1711.64 -1.09538 2.7918 0
M  V30 19198 H 1709.19 -0.535803 1.46829 0
M  V30 19199 H 1709.93 -3.04539 1.11475 0
M  V30 19200 H 1709.71 -2.68959 2.85313 0
M  V30 19201 H 1711.2 -3.49787 2.28119 0
M  V30 19202 N 1711.64 -1.47227 -0.562322 0
M  V30 19203 C 1712.87 -1.56968 -1.34331 0
M  V30 19204 C 1713.28 -0.217012 -1.87951 0
M  V30 19205 O 1712.62 0.79911 -1.65408 0
M  V30 19206 C 1712.68 -2.53072 -2.55332 0
M  V30 19207 C 1712.35 -3.98879 -2.23035 0
M  V30 19208 C 1713.34 -4.87511 -1.80636 0
M  V30 19209 C 1711.03 -4.44174 -2.34551 0
M  V30 19210 C 1713.02 -6.19456 -1.50176 0
M  V30 19211 C 1710.71 -5.76149 -2.03704 0
M  V30 19212 C 1711.71 -6.63611 -1.61584 0
M  V30 19213 O 1711.4 -7.93134 -1.31125 0
M  V30 19214 H 1711.13 -0.532854 -0.415984 0
M  V30 19215 H 1713.68 -1.93515 -0.688552 0
M  V30 19216 H 1711.91 -2.11582 -3.23682 0
M  V30 19217 H 1713.6 -2.52996 -3.17408 0
M  V30 19218 H 1714.37 -4.53766 -1.71236 0
M  V30 19219 H 1710.25 -3.76308 -2.66295 0
M  V30 19220 H 1713.79 -6.8768 -1.17227 0
M  V30 19221 H 1709.69 -6.09438 -2.12735 0
M  V30 19222 H 1710.45 -8.0559 -1.44799 0
M  V30 19223 N 1713.12 0.808639 -1.35273 0
M  V30 19224 C 1714.35 1.5947 -1.31351 0
M  V30 19225 C 1714.76 1.88871 0.111546 0
M  V30 19226 O 1714.1 1.49082 1.07332 0
M  V30 19227 C 1714.16 2.95278 -2.05064 0
M  V30 19228 C 1713.82 2.88702 -3.5426 0
M  V30 19229 C 1714.82 2.62283 -4.48892 0
M  V30 19230 C 1712.51 3.07884 -3.96879 0
M  V30 19231 C 1714.5 2.55118 -5.84118 0
M  V30 19232 C 1712.19 3.00343 -5.322 0
M  V30 19233 C 1713.19 2.73995 -6.25632 0
M  V30 19234 O 1712.87 2.66413 -7.58472 0
M  V30 19235 H 1712.61 0.501927 -0.45282 0
M  V30 19236 H 1715.16 1.01307 -1.78678 0
M  V30 19237 H 1713.39 3.55416 -1.5237 0
M  V30 19238 H 1715.08 3.56403 -1.94246 0
M  V30 19239 H 1715.84 2.47184 -4.17283 0
M  V30 19240 H 1711.72 3.27404 -3.24542 0
M  V30 19241 H 1715.27 2.34473 -6.57015 0
M  V30 19242 H 1711.16 3.14999 -5.63424 0
M  V30 19243 H 1711.93 2.82036 -7.68374 0
M  V30 19244 N 1714.6 1.19237 1.03055 0
M  V30 19245 C 1715.87 0.903353 1.7349 0
M  V30 19246 C 1716.25 -0.591365 2.02648 0
M  V30 19247 O 1715.6 -1.54906 1.67978 0
M  V30 19248 C 1715.81 1.7615 3.01284 0
M  V30 19249 C 1717.16 1.99477 3.74825 0
M  V30 19250 O 1718.18 1.73287 3.11207 0
M  V30 19251 O 1717.04 2.43628 4.89191 0
M  V30 19252 H 1714.14 0.336512 0.755439 0
M  V30 19253 H 1716.68 1.30041 1.09029 0
M  V30 19254 H 1715.45 2.77428 2.75952 0
M  V30 19255 H 1715.08 1.36361 3.73486 0
M  V30 19256 N 1716.07 -1.22136 0.99602 0
M  V30 19257 C 1717.3 -1.94696 0.691168 0
M  V30 19258 C 1717.71 -1.73754 -0.748749 0
M  V30 19259 O 1717.06 -1.03561 -1.51726 0
M  V30 19260 C 1717.12 -3.47498 0.921152 0
M  V30 19261 C 1716.78 -3.92179 2.34616 0
M  V30 19262 C 1717.78 -3.99603 3.32585 0
M  V30 19263 C 1715.46 -4.24741 2.68142 0
M  V30 19264 C 1717.46 -4.38968 4.62153 0
M  V30 19265 C 1715.14 -4.63785 3.97928 0
M  V30 19266 C 1716.14 -4.70867 4.94745 0
M  V30 19267 O 1715.83 -5.09026 6.22212 0
M  V30 19268 H 1715.56 -0.626231 0.25458 0
M  V30 19269 H 1718.12 -1.56152 1.33438 0
M  V30 19270 H 1716.35 -3.86069 0.220769 0
M  V30 19271 H 1718.04 -4.01274 0.61107 0
M  V30 19272 H 1718.8 -3.74634 3.08017 0
M  V30 19273 H 1714.68 -4.18431 1.93485 0
M  V30 19274 H 1718.22 -4.44411 5.37721 0
M  V30 19275 H 1714.12 -4.88207 4.22285 0
M  V30 19276 H 1714.89 -5.27089 6.26195 0
M  V30 19277 N 1717.55 -0.769612 -1.37531 0
M  V30 19278 C 1718.83 -0.257788 -1.93894 0
M  V30 19279 C 1719.21 1.24679 -1.70348 0
M  V30 19280 O 1718.56 2.02892 -1.05106 0
M  V30 19281 C 1718.77 -0.628857 -3.43288 0
M  V30 19282 C 1720.12 -0.597452 -4.20376 0
M  V30 19283 O 1721.14 -0.568117 -3.5164 0
M  V30 19284 O 1720 -0.622627 -5.42942 0
M  V30 19285 H 1717.09 -0.0588144 -0.824906 0
M  V30 19286 H 1719.64 -0.85082 -1.4683 0
M  V30 19287 H 1718.41 -1.66733 -3.54 0
M  V30 19288 H 1718.03 -0.00865929 -3.97599 0
M  V30 19289 N 1719.03 1.48775 -0.519977 0
M  V30 19290 C 1720.31 1.95429 0.0816701 0
M  V30 19291 C 1720.69 1.46199 1.52279 0
M  V30 19292 O 1720.04 0.684057 2.1802 0
M  V30 19293 C 1720.25 3.48991 -0.0252472 0
M  V30 19294 C 1721.59 4.24372 0.139099 0
M  V30 19295 O 1722.62 3.56166 0.0490322 0
M  V30 19296 O 1721.48 5.45524 0.326426 0
M  V30 19297 H 1718.57 0.822637 0.0848378 0
M  V30 19298 H 1721.12 1.5934 -0.583865 0
M  V30 19299 H 1719.89 3.77514 -1.02951 0
M  V30 19300 H 1719.51 3.91749 0.679588 0
M  V30 19301 N 1720.51 0.254649 1.55529 0
M  V30 19302 C 1721.75 -0.369374 2.01035 0
M  V30 19303 C 1722.11 -1.54564 1.13904 0
M  V30 19304 O 1723.31 -2.23792 1.48899 0
M  V30 19305 C 1721.58 -0.761489 3.49194 0
M  V30 19306 S 1723.14 -1.37494 4.16702 0
M  V30 19307 H 1719.96 -0.115878 0.701494 0
M  V30 19308 H 1722.56 0.371696 1.91934 0
M  V30 19309 H 1721.27 0.103781 4.10269 0
M  V30 19310 H 1720.8 -1.53454 3.62237 0
M  V30 19311 H 1722.81 -2.66389 4.1863 0
M  V30 19312 N 1721.99 -1.57589 -0.0183649 0
M  V30 19313 C 1723.21 -1.94421 -0.722172 0
M  V30 19314 C 1723.64 -0.855471 -1.67521 0
M  V30 19315 O 1722.99 0.187954 -1.80323 0
M  V30 19316 C 1723.04 -3.30331 -1.44615 0
M  V30 19317 O 1722.15 -3.23337 -2.55982 0
M  V30 19318 H 1721.49 -0.63519 -0.193466 0
M  V30 19319 H 1724.02 -2.04579 0.0293527 0
M  V30 19320 H 1724.03 -3.65471 -1.8137 0
M  V30 19321 H 1722.7 -4.09132 -0.747256 0
M  V30 19322 H 1721.28 -2.99845 -2.21692 0
M  V30 19323 N 1723.46 0.290824 -1.54893 0
M  V30 19324 C 1724.74 1.04495 -1.65348 0
M  V30 19325 C 1725.12 2.04888 -0.508348 0
M  V30 19326 O 1724.47 2.23102 0.493749 0
M  V30 19327 C 1724.68 1.71772 -3.03801 0
M  V30 19328 C 1726.03 2.23595 -3.60958 0
M  V30 19329 O 1727.05 1.81788 -3.06319 0
M  V30 19330 O 1725.91 3.00225 -4.56648 0
M  V30 19331 H 1723 0.483605 -0.670862 0
M  V30 19332 H 1725.55 0.288101 -1.67237 0
M  V30 19333 H 1724.32 0.989296 -3.78588 0
M  V30 19334 H 1723.95 2.54188 -3.05735 0
M  V30 19335 N 1724.94 1.47523 0.554506 0
M  V30 19336 C 1726.17 1.57678 1.33496 0
M  V30 19337 C 1726.58 0.226976 1.87834 0
M  V30 19338 O 1725.92 -0.790327 1.6583 0
M  V30 19339 C 1725.99 2.54423 2.53987 0
M  V30 19340 C 1725.65 4.00056 2.20916 0
M  V30 19341 C 1726.65 4.88462 1.78048 0
M  V30 19342 C 1724.33 4.45412 2.32192 0
M  V30 19343 C 1726.33 6.20244 1.46889 0
M  V30 19344 C 1724.01 5.77221 2.00646 0
M  V30 19345 C 1725.01 6.64459 1.58062 0
M  V30 19346 O 1724.7 7.93818 1.26917 0
M  V30 19347 H 1724.43 0.535053 0.413152 0
M  V30 19348 H 1726.98 1.93878 0.678279 0
M  V30 19349 H 1725.21 2.13296 3.22555 0
M  V30 19350 H 1726.9 2.54676 3.16061 0
M  V30 19351 H 1727.67 4.54667 1.68827 0
M  V30 19352 H 1723.55 3.77715 2.64296 0
M  V30 19353 H 1727.09 6.88292 1.13578 0
M  V30 19354 H 1722.99 6.10557 2.095 0
M  V30 19355 H 1723.76 8.06347 1.40525 0
M  V30 19356 N 1726.42 -0.801453 1.357 0
M  V30 19357 C 1727.65 -1.59518 1.32547 0
M  V30 19358 C 1728.07 -1.87868 -0.0934243 0
M  V30 19359 O 1727.43 -1.46955 -1.06179 0
M  V30 19360 C 1727.48 -2.90028 2.14281 0
M  V30 19361 O 1726.58 -3.83086 1.52704 0
M  V30 19362 H 1725.92 -0.48434 0.454215 0
M  V30 19363 H 1728.45 -0.994315 1.78814 0
M  V30 19364 H 1728.46 -3.39406 2.26423 0
M  V30 19365 H 1727.14 -2.6872 3.17431 0
M  V30 19366 H 1725.71 -3.4165 1.49432 0
M  V30 19367 N 1727.9 -1.19782 -1.02421 0
M  V30 19368 C 1728.85 -0.936475 -2.12915 0
M  V30 19369 C 1729.84 0.10941 -1.69046 0
M  V30 19370 O 1731.05 -0.04026 -1.79955 0
M  V30 19371 H 1727.42 -0.285462 -0.695712 0
M  V30 19372 H 1729.39 -1.87485 -2.32146 0
M  V30 19373 C 1728.14 -0.496786 -3.44133 0
M  V30 19374 H 1727.46 -1.29314 -3.78309 0
M  V30 19375 H 1728.9 -0.353073 -4.22527 0
M  V30 19376 C 1727.36 0.789792 -3.27512 0
M  V30 19377 O 1727.89 1.85009 -3.56559 0
M  V30 19378 N 1726.1 0.748849 -2.80786 0
M  V30 19379 H 1725.65 -0.114256 -2.57346 0
M  V30 19380 H 1725.6 1.61005 -2.70046 0
M  V30 19381 N 1729.38 1.21606 -1.00248 0
M  V30 19382 C 1730.65 1.86191 -0.599348 0
M  V30 19383 C 1731.03 1.89847 0.923104 0
M  V30 19384 O 1730.38 1.39595 1.80902 0
M  V30 19385 C 1730.59 3.26576 -1.23082 0
M  V30 19386 C 1731.94 4.02989 -1.33736 0
M  V30 19387 O 1732.96 3.35877 -1.18595 0
M  V30 19388 O 1731.82 5.23142 -1.58065 0
M  V30 19389 H 1728.92 0.801204 -0.204943 0
M  V30 19390 H 1731.46 1.29309 -1.09897 0
M  V30 19391 H 1730.24 3.18601 -2.27176 0
M  V30 19392 H 1729.86 3.91074 -0.717394 0
M  V30 19393 N 1730.86 0.776895 1.37121 0
M  V30 19394 C 1731.77 0.167552 2.34001 0
M  V30 19395 C 1732.78 -0.673609 1.60432 0
M  V30 19396 O 1733.96 -0.592327 1.92493 0
M  V30 19397 C 1731.02 -0.697343 3.39615 0
M  V30 19398 C 1730.08 0.160869 4.28998 0
M  V30 19399 C 1729.32 -0.662841 5.29568 0
M  V30 19400 O 1729.54 -1.89962 5.37839 0
M  V30 19401 O 1728.47 -0.0693304 6.0186 0
M  V30 19402 H 1732.3 0.968247 2.87852 0
M  V30 19403 H 1729.88 0.538137 1.39372 0
M  V30 19404 H 1731.77 -1.19094 4.04221 0
M  V30 19405 H 1730.44 -1.47614 2.88083 0
M  V30 19406 H 1729.35 0.700941 3.67475 0
M  V30 19407 H 1730.68 0.902875 4.83848 0
M  V30 19408 N 1732.33 -1.48497 0.527859 0
M  V30 19409 C 1733.56 -2.066 -0.00302155 0
M  V30 19410 C 1733.97 -1.38505 -1.28892 0
M  V30 19411 O 1733.31 -0.465745 -1.77698 0
M  V30 19412 C 1733.38 -3.58249 -0.2997 0
M  V30 19413 C 1733.04 -4.48202 0.892405 0
M  V30 19414 C 1734.04 -4.88105 1.79023 0
M  V30 19415 C 1731.72 -4.90134 1.0988 0
M  V30 19416 C 1733.72 -5.68707 2.87838 0
M  V30 19417 C 1731.4 -5.70507 2.19009 0
M  V30 19418 C 1732.4 -6.09701 3.07821 0
M  V30 19419 O 1732.09 -6.88461 4.15062 0
M  V30 19420 H 1731.82 -0.675359 0.029422 0
M  V30 19421 H 1734.38 -1.91903 0.732286 0
M  V30 19422 H 1732.61 -3.71051 -1.08895 0
M  V30 19423 H 1734.29 -3.98483 -0.772407 0
M  V30 19424 H 1735.06 -4.56333 1.64271 0
M  V30 19425 H 1730.94 -4.59112 0.416808 0
M  V30 19426 H 1734.48 -5.99219 3.57187 0
M  V30 19427 H 1730.38 -6.01692 2.33746 0
M  V30 19428 H 1731.15 -7.06812 4.12746 0
M  V30 19429 N 1733.81 -0.262893 -1.55392 0
M  V30 19430 C 1735.23 0.09157 -1.59337 0
M  V30 19431 C 1735.43 1.55612 -1.28012 0
M  V30 19432 O 1734.48 2.30308 -1.0351 0
M  V30 19433 C 1735.8 -0.272043 -2.99467 0
M  V30 19434 C 1737.34 -0.217653 -3.12242 0
M  V30 19435 C 1737.82 -0.555528 -4.54618 0
M  V30 19436 N 1739.31 -0.506623 -4.60421 0
M  V30 19437 C 1740.05 -0.741013 -5.68592 0
M  V30 19438 N 1739.54 -1.03937 -6.84959 0
M  V30 19439 N 1741.33 -0.670636 -5.58085 0
M  V30 19440 H 1733.49 -1.2178 -1.74021 0
M  V30 19441 H 1735.75 -0.491131 -0.81086 0
M  V30 19442 H 1735.45 -1.29012 -3.27183 0
M  V30 19443 H 1735.33 0.393105 -3.75146 0
M  V30 19444 H 1737.72 0.791123 -2.84298 0
M  V30 19445 H 1737.8 -0.916884 -2.38803 0
M  V30 19446 H 1737.44 -1.56193 -4.83287 0
M  V30 19447 H 1737.37 0.165358 -5.2634 0
M  V30 19448 H 1739.86 -0.285397 -3.76821 0
M  V30 19449 H 1740.17 -1.20522 -7.63344 0
M  V30 19450 H 1738.52 -1.07702 -6.86604 0
M  V30 19451 H 1741.71 -0.437473 -4.66051 0
M  V30 19452 H 1741.88 -0.856692 -6.42312 0
M  V30 19453 N 1735.29 1.57597 0.0100073 0
M  V30 19454 C 1736.24 2.07788 1.00463 0
M  V30 19455 C 1737.21 0.971101 1.34755 0
M  V30 19456 O 1738.39 1.2429 1.44764 0
M  V30 19457 C 1735.53 2.57769 2.29454 0
M  V30 19458 C 1734.64 3.8231 2.01153 0
M  V30 19459 C 1733.78 4.2083 3.24154 0
M  V30 19460 C 1732.82 5.38236 2.91494 0
M  V30 19461 N 1731.96 5.72096 4.07001 0
M  V30 19462 H 1736.8 2.92504 0.569675 0
M  V30 19463 H 1734.33 1.44607 0.269645 0
M  V30 19464 H 1736.29 2.84821 3.04849 0
M  V30 19465 H 1734.92 1.75942 2.70637 0
M  V30 19466 H 1733.97 3.62227 1.16171 0
M  V30 19467 H 1735.28 4.67811 1.73074 0
M  V30 19468 H 1734.44 4.49111 4.07902 0
M  V30 19469 H 1733.18 3.34019 3.55363 0
M  V30 19470 H 1732.18 5.09688 2.06151 0
M  V30 19471 H 1733.41 6.26716 2.61543 0
M  V30 19472 H 1731.35 4.88243 4.38126 0
M  V30 19473 H 1731.27 6.52148 3.82411 0
M  V30 19474 H 1732.54 6.04964 4.91567 0
M  V30 19475 N 1736.77 -0.282606 1.55045 0
M  V30 19476 C 1738.02 -1.01346 1.74852 0
M  V30 19477 C 1738.34 -1.87161 0.547327 0
M  V30 19478 O 1737.61 -1.9094 -0.438015 0
M  V30 19479 H 1736.19 -0.377178 0.644784 0
M  V30 19480 H 1738.85 -0.309152 1.92432 0
M  V30 19481 H 1737.94 -1.65596 2.64545 0
M  V30 19482 N 1738.25 -1.47815 -0.546675 0
M  V30 19483 C 1739.49 -1.5498 -1.30336 0
M  V30 19484 C 1739.82 -0.216533 -1.93291 0
M  V30 19485 O 1739.08 0.791622 -1.78974 0
M  V30 19486 C 1739.37 -2.6242 -2.42632 0
M  V30 19487 C 1739.04 -4.05375 -1.97439 0
M  V30 19488 C 1737.7 -4.44287 -1.84831 0
M  V30 19489 C 1740.05 -4.9503 -1.6308 0
M  V30 19490 C 1737.38 -5.70678 -1.36174 0
M  V30 19491 C 1739.73 -6.21894 -1.1589 0
M  V30 19492 C 1738.4 -6.59678 -1.01886 0
M  V30 19493 H 1737.67 -0.567112 -0.476933 0
M  V30 19494 H 1740.32 -1.81461 -0.611907 0
M  V30 19495 H 1738.62 -2.29736 -3.17378 0
M  V30 19496 H 1740.32 -2.65184 -3.00796 0
M  V30 19497 H 1736.91 -3.74635 -2.08199 0
M  V30 19498 H 1741.09 -4.65657 -1.71689 0
M  V30 19499 H 1736.35 -5.98693 -1.24004 0
M  V30 19500 H 1740.52 -6.9077 -0.883691 0
M  V30 19501 H 1738.15 -7.57504 -0.639614 0
M  V30 19502 N 1739.72 0.794246 -1.36123 0
M  V30 19503 C 1740.97 1.55191 -1.30084 0
M  V30 19504 C 1741.3 1.94122 0.121259 0
M  V30 19505 O 1740.55 1.62573 1.08942 0
M  V30 19506 C 1740.85 2.84387 -2.16469 0
M  V30 19507 C 1740.52 2.64617 -3.65087 0
M  V30 19508 C 1739.18 2.58934 -4.05594 0
M  V30 19509 C 1741.53 2.46293 -4.59336 0
M  V30 19510 C 1738.86 2.32885 -5.38499 0
M  V30 19511 C 1741.21 2.21771 -5.92453 0
M  V30 19512 C 1739.88 2.14518 -6.32091 0
M  V30 19513 H 1739.15 0.567885 -0.476013 0
M  V30 19514 H 1741.79 0.916723 -1.68132 0
M  V30 19515 H 1740.1 3.52348 -1.71342 0
M  V30 19516 H 1741.8 3.42152 -2.09124 0
M  V30 19517 H 1738.39 2.69894 -3.32949 0
M  V30 19518 H 1742.57 2.49688 -4.28917 0
M  V30 19519 H 1737.83 2.25748 -5.68197 0
M  V30 19520 H 1742 2.06586 -6.65053 0
M  V30 19521 H 1739.63 1.94096 -7.35004 0
M  V30 19522 N 1741.2 1.20323 1.01785 0
M  V30 19523 C 1742.48 0.921703 1.72522 0
M  V30 19524 C 1742.86 -0.569838 2.03264 0
M  V30 19525 O 1742.21 -1.53115 1.69611 0
M  V30 19526 C 1742.42 1.79335 2.99399 0
M  V30 19527 C 1743.76 2.03442 3.72688 0
M  V30 19528 O 1744.79 1.76578 3.09352 0
M  V30 19529 O 1743.65 2.48803 4.86579 0
M  V30 19530 H 1740.74 0.344505 0.751828 0
M  V30 19531 H 1743.29 1.31191 1.07644 0
M  V30 19532 H 1742.06 2.80339 2.72994 0
M  V30 19533 H 1741.68 1.40314 3.72018 0
M  V30 19534 N 1742.68 -1.21073 1.00892 0
M  V30 19535 C 1743.96 -1.85871 0.609214 0
M  V30 19536 C 1744.34 -1.90334 -0.913023 0
M  V30 19537 O 1743.68 -1.40552 -1.80159 0
M  V30 19538 C 1743.89 -3.25918 1.24813 0
M  V30 19539 C 1745.24 -4.02274 1.35871 0
M  V30 19540 O 1746.27 -3.35244 1.20375 0
M  V30 19541 O 1745.13 -5.22296 1.60838 0
M  V30 19542 H 1742.22 -0.800105 0.20919 0
M  V30 19543 H 1744.77 -1.28724 1.10581 0
M  V30 19544 H 1743.54 -3.17392 2.28862 0
M  V30 19545 H 1743.16 -3.90688 0.738124 0
M  V30 19546 N 1744.16 -0.784156 -1.36707 0
M  V30 19547 C 1745.41 -0.350748 -1.98627 0
M  V30 19548 C 1745.72 1.08208 -1.62943 0
M  V30 19549 O 1746.93 1.6175 -2.18058 0
M  V30 19550 C 1745.38 -0.576173 -3.55258 0
M  V30 19551 C 1744.99 -2.02008 -3.99871 0
M  V30 19552 C 1746.73 -0.207008 -4.23995 0
M  V30 19553 C 1744.64 -2.19244 -5.4926 0
M  V30 19554 H 1743.57 -0.127403 -0.743158 0
M  V30 19555 H 1746.22 -0.965044 -1.56074 0
M  V30 19556 H 1744.6 0.10776 -3.95853 0
M  V30 19557 H 1745.78 -2.73998 -3.70489 0
M  V30 19558 H 1744.09 -2.34699 -3.43955 0
M  V30 19559 H 1746.69 -0.314139 -5.33776 0
M  V30 19560 H 1747.03 0.844253 -4.07649 0
M  V30 19561 H 1747.57 -0.843971 -3.88744 0
M  V30 19562 H 1744.31 -3.22734 -5.70546 0
M  V30 19563 H 1743.83 -1.51752 -5.80286 0
M  V30 19564 H 1745.5 -1.99703 -6.15408 0
M  V30 19565 N 1745.64 1.48215 -0.535727 0
M  V30 19566 C 1746.58 2.31387 0.237209 0
M  V30 19567 C 1747.58 1.41589 0.929995 0
M  V30 19568 O 1748.78 1.58466 0.853725 0
M  V30 19569 H 1745.16 0.745928 0.0953663 0
M  V30 19570 H 1747.13 2.94452 -0.483772 0
M  V30 19571 C 1745.88 3.23771 1.26757 0
M  V30 19572 H 1745.2 3.92818 0.743902 0
M  V30 19573 H 1746.64 3.84841 1.7797 0
M  V30 19574 C 1745.1 2.45779 2.30422 0
M  V30 19575 O 1745.63 2.18673 3.36964 0
M  V30 19576 N 1743.84 2.07171 2.03785 0
M  V30 19577 H 1743.38 2.29416 1.17159 0
M  V30 19578 H 1743.34 1.55301 2.73366 0
M  V30 19579 N 1747.11 0.27113 1.5525 0
M  V30 19580 C 1748.08 -0.604946 2.21072 0
M  V30 19581 C 1749.08 -1.08438 1.18735 0
M  V30 19582 O 1750.27 -0.985192 1.43665 0
M  V30 19583 C 1747.4 -1.83416 2.87353 0
M  V30 19584 H 1748.59 -0.0302981 2.99885 0
M  V30 19585 H 1746.15 0.0217204 1.56285 0
M  V30 19586 H 1746.88 -2.44942 2.12542 0
M  V30 19587 H 1746.67 -1.49834 3.62343 0
M  V30 19588 H 1748.16 -2.45724 3.37653 0
M  V30 19589 N 1748.59 -1.576 -0.00164943 0
M  V30 19590 C 1749.84 -1.90496 -0.686842 0
M  V30 19591 C 1750.17 -0.871747 -1.7387 0
M  V30 19592 O 1749.42 0.123698 -1.95309 0
M  V30 19593 C 1749.72 -3.30147 -1.36886 0
M  V30 19594 C 1749.39 -4.48645 -0.450358 0
M  V30 19595 C 1748.05 -4.80795 -0.197461 0
M  V30 19596 C 1750.4 -5.20882 0.18214 0
M  V30 19597 C 1747.73 -5.82554 0.696255 0
M  V30 19598 C 1750.08 -6.23593 1.06372 0
M  V30 19599 C 1748.75 -6.54201 1.32581 0
M  V30 19600 H 1748.02 -0.697074 -0.251333 0
M  V30 19601 H 1750.66 -1.91425 0.0535238 0
M  V30 19602 H 1748.97 -3.25334 -2.18323 0
M  V30 19603 H 1750.66 -3.52859 -1.90504 0
M  V30 19604 H 1747.25 -4.23525 -0.657635 0
M  V30 19605 H 1751.44 -4.963 -0.000231234 0
M  V30 19606 H 1746.69 -6.0463 0.907337 0
M  V30 19607 H 1750.87 -6.78698 1.56018 0
M  V30 19608 H 1748.5 -7.3287 2.02002 0
M  V30 19609 N 1750.07 0.274379 -1.55193 0
M  V30 19610 C 1751.02 1.33913 -1.87978 0
M  V30 19611 C 1751.99 1.49142 -0.731149 0
M  V30 19612 O 1753.17 1.63572 -0.98229 0
M  V30 19613 C 1750.31 2.69464 -2.156 0
M  V30 19614 C 1749.43 2.62468 -3.43125 0
M  V30 19615 C 1748.56 3.90188 -3.60453 0
M  V30 19616 C 1747.6 3.77697 -4.81675 0
M  V30 19617 N 1746.74 4.97249 -4.95669 0
M  V30 19618 H 1751.58 1.05254 -2.78793 0
M  V30 19619 H 1749.11 0.508532 -1.3803 0
M  V30 19620 H 1751.07 3.48329 -2.29614 0
M  V30 19621 H 1749.7 2.96328 -1.28021 0
M  V30 19622 H 1748.75 1.7532 -3.3759 0
M  V30 19623 H 1750.07 2.49137 -4.32125 0
M  V30 19624 H 1749.22 4.77495 -3.74277 0
M  V30 19625 H 1747.96 4.06384 -2.69635 0
M  V30 19626 H 1746.96 2.88774 -4.67857 0
M  V30 19627 H 1748.19 3.63022 -5.73927 0
M  V30 19628 H 1746.13 5.13858 -4.07781 0
M  V30 19629 H 1746.05 4.86444 -5.78712 0
M  V30 19630 H 1747.32 5.86132 -5.13877 0
M  V30 19631 N 1751.55 1.48103 0.538828 0
M  V30 19632 C 1752.8 1.54925 1.29156 0
M  V30 19633 C 1753.11 0.224177 1.94311 0
M  V30 19634 O 1754.32 0.170559 2.70964 0
M  V30 19635 C 1752.77 2.73184 2.34304 0
M  V30 19636 C 1752.38 4.12297 1.75257 0
M  V30 19637 C 1754.12 2.89313 3.10642 0
M  V30 19638 C 1752.03 5.2183 2.78294 0
M  V30 19639 H 1750.96 0.576723 0.485702 0
M  V30 19640 H 1753.61 1.74418 0.570142 0
M  V30 19641 H 1751.99 2.47107 3.09441 0
M  V30 19642 H 1753.17 4.48355 1.06368 0
M  V30 19643 H 1751.48 4.0121 1.11442 0
M  V30 19644 H 1754.08 3.68313 3.87621 0
M  V30 19645 H 1754.42 1.98438 3.65962 0
M  V30 19646 H 1754.96 3.15248 2.42618 0
M  V30 19647 H 1751.7 6.14642 2.27805 0
M  V30 19648 H 1751.22 4.90269 3.45537 0
M  V30 19649 H 1752.89 5.49567 3.41446 0
M  V30 19650 N 1753.03 -0.787016 1.36542 0
M  V30 19651 C 1753.96 -1.91399 1.33749 0
M  V30 19652 C 1754.94 -1.68817 0.208559 0
M  V30 19653 O 1756.12 -1.89896 0.406574 0
M  V30 19654 C 1753.25 -3.28457 1.12842 0
M  V30 19655 C 1752.21 -3.65568 2.22585 0
M  V30 19656 C 1751.53 -5.01002 1.86818 0
M  V30 19657 C 1752.83 -3.73902 3.64684 0
M  V30 19658 H 1754.53 -1.93993 2.2805 0
M  V30 19659 H 1752.07 -0.931937 1.09777 0
M  V30 19660 H 1754.03 -4.06919 1.09522 0
M  V30 19661 H 1752.75 -3.26256 0.149918 0
M  V30 19662 H 1751.41 -2.89405 2.25035 0
M  V30 19663 H 1751.06 -4.95325 0.875361 0
M  V30 19664 H 1750.76 -5.26802 2.60294 0
M  V30 19665 H 1752.28 -5.81881 1.85058 0
M  V30 19666 H 1753.69 -4.4255 3.64448 0
M  V30 19667 H 1752.09 -4.11188 4.37086 0
M  V30 19668 H 1753.16 -2.74946 3.99416 0
M  V30 19669 N 1754.5 -1.20861 -1.01145 0
M  V30 19670 C 1755.73 -1.04617 -1.78154 0
M  V30 19671 C 1756.14 0.407396 -1.84762 0
M  V30 19672 O 1755.49 1.29457 -1.30333 0
M  V30 19673 C 1755.55 -1.56038 -3.23871 0
M  V30 19674 C 1755.21 -3.0441 -3.40857 0
M  V30 19675 C 1756.21 -4.02021 -3.29659 0
M  V30 19676 C 1753.89 -3.43479 -3.66507 0
M  V30 19677 C 1755.89 -5.36689 -3.43866 0
M  V30 19678 C 1753.57 -4.78301 -3.80356 0
M  V30 19679 C 1754.57 -5.74715 -3.69041 0
M  V30 19680 O 1754.26 -7.07093 -3.82459 0
M  V30 19681 H 1753.99 -0.368185 -0.566935 0
M  V30 19682 H 1756.55 -1.60508 -1.28165 0
M  V30 19683 H 1754.78 -0.945373 -3.74966 0
M  V30 19684 H 1756.47 -1.35735 -3.82532 0
M  V30 19685 H 1757.23 -3.73182 -3.09775 0
M  V30 19686 H 1753.11 -2.68972 -3.74399 0
M  V30 19687 H 1756.65 -6.11927 -3.3495 0
M  V30 19688 H 1752.55 -5.06829 -3.99743 0
M  V30 19689 H 1753.32 -7.14413 -3.99445 0
M  V30 19690 N 1755.98 1.20536 -1.01532 0
M  V30 19691 C 1757.26 1.85545 -0.619063 0
M  V30 19692 C 1757.64 1.90816 0.902916 0
M  V30 19693 O 1756.99 1.41506 1.79411 0
M  V30 19694 C 1757.2 3.25252 -1.26539 0
M  V30 19695 C 1758.55 4.01547 -1.38003 0
M  V30 19696 O 1759.57 3.34601 -1.22151 0
M  V30 19697 O 1758.43 5.21436 -1.63605 0
M  V30 19698 H 1755.52 0.798985 -0.21343 0
M  V30 19699 H 1758.07 1.28136 -1.11262 0
M  V30 19700 H 1756.84 3.16174 -2.30542 0
M  V30 19701 H 1756.46 3.90292 -0.758833 0
M  V30 19702 N 1757.46 0.791395 1.36289 0
M  V30 19703 C 1758.69 0.376696 2.03442 0
M  V30 19704 C 1759.1 -1.00753 1.59669 0
M  V30 19705 O 1758.46 -1.64657 0.787042 0
M  V30 19706 C 1758.51 0.433074 3.58897 0
M  V30 19707 O 1758.23 1.76272 4.01073 0
M  V30 19708 C 1759.73 0.00925475 4.43299 0
M  V30 19709 H 1756.95 0.154989 0.652855 0
M  V30 19710 H 1759.5 1.07079 1.74225 0
M  V30 19711 H 1757.65 -0.212623 3.86816 0
M  V30 19712 H 1758.07 1.71492 4.95672 0
M  V30 19713 H 1759.54 0.0998386 5.5191 0
M  V30 19714 H 1760.02 -1.04362 4.26621 0
M  V30 19715 H 1760.62 0.627518 4.20645 0
M  V30 19716 N 1758.94 -1.47929 0.54358 0
M  V30 19717 C 1760.17 -2.06891 0.0189187 0
M  V30 19718 C 1760.58 -1.39822 -1.26867 0
M  V30 19719 O 1759.94 -0.490197 -1.75793 0
M  V30 19720 C 1759.99 -3.60976 -0.194595 0
M  V30 19721 O 1759.71 -4.25528 1.04199 0
M  V30 19722 C 1761.21 -4.3677 -0.758093 0
M  V30 19723 H 1758.43 -0.669827 0.0396625 0
M  V30 19724 H 1760.98 -1.90128 0.753105 0
M  V30 19725 H 1759.13 -3.77299 -0.878869 0
M  V30 19726 H 1759.55 -5.17872 0.831191 0
M  V30 19727 H 1761.02 -5.45309 -0.856846 0
M  V30 19728 H 1761.5 -4.02121 -1.76621 0
M  V30 19729 H 1762.1 -4.25158 -0.109953 0
M  V30 19730 N 1760.42 -0.27936 -1.55104 0
M  V30 19731 C 1761.65 0.339429 -2.04097 0
M  V30 19732 C 1762.06 1.49151 -1.15756 0
M  V30 19733 O 1761.42 1.81624 -0.178558 0
M  V30 19734 C 1761.47 0.816392 -3.52161 0
M  V30 19735 O 1761.19 -0.289812 -4.3714 0
M  V30 19736 C 1762.69 1.50256 -4.17059 0
M  V30 19737 H 1759.91 0.0768615 -0.666583 0
M  V30 19738 H 1762.45 -0.412691 -2.00293 0
M  V30 19739 H 1760.61 1.51859 -3.56395 0
M  V30 19740 H 1761.02 0.0776213 -5.24443 0
M  V30 19741 H 1762.5 1.78767 -5.22251 0
M  V30 19742 H 1762.97 2.4355 -3.65486 0
M  V30 19743 H 1763.58 0.844106 -4.16839 0
M  V30 19744 N 1761.9 1.57599 -0.0067085 0
M  V30 19745 C 1762.84 2.09973 1.00071 0
M  V30 19746 C 1763.84 1.02121 1.35158 0
M  V30 19747 O 1765.04 1.20579 1.33644 0
M  V30 19748 H 1761.42 0.670547 0.340398 0
M  V30 19749 H 1763.39 2.93593 0.533471 0
M  V30 19750 C 1762.14 2.62376 2.28153 0
M  V30 19751 H 1761.46 3.45002 2.02024 0
M  V30 19752 H 1762.9 3.02694 2.96905 0
M  V30 19753 C 1761.36 1.54093 2.99595 0
M  V30 19754 O 1761.89 0.927722 3.9084 0
M  V30 19755 N 1760.1 1.26676 2.61537 0
M  V30 19756 H 1759.64 1.76728 1.87417 0
M  V30 19757 H 1759.6 0.544464 3.0965 0
M  V30 19758 N 1763.37 -0.266145 1.55336 0
M  V30 19759 C 1764.62 -0.996831 1.76265 0
M  V30 19760 C 1764.95 -1.86035 0.567553 0
M  V30 19761 O 1764.2 -1.90462 -0.449754 0
M  V30 19762 C 1764.5 -1.90357 3.02488 0
M  V30 19763 C 1764.17 -1.19699 4.34722 0
M  V30 19764 C 1762.83 -1.00164 4.7066 0
M  V30 19765 C 1765.18 -0.694703 5.16549 0
M  V30 19766 C 1762.51 -0.291394 5.85976 0
M  V30 19767 C 1764.86 0.00198006 6.326 0
M  V30 19768 C 1763.53 0.20898 6.67173 0
M  V30 19769 H 1762.8 -0.364766 0.645001 0
M  V30 19770 H 1765.44 -0.268528 1.89608 0
M  V30 19771 H 1763.75 -2.69831 2.84075 0
M  V30 19772 H 1765.45 -2.47026 3.15878 0
M  V30 19773 H 1762.04 -1.35916 4.06479 0
M  V30 19774 H 1766.22 -0.833229 4.89256 0
M  V30 19775 H 1761.48 -0.120359 6.11282 0
M  V30 19776 H 1765.65 0.398909 6.95257 0
M  V30 19777 H 1763.28 0.761301 7.56378 0
M  V30 19778 N 1764.85 -1.48386 -0.530967 0
M  V30 19779 C 1766.08 -1.59782 -1.30971 0
M  V30 19780 C 1766.49 -0.25683 -1.87449 0
M  V30 19781 O 1765.83 0.763845 -1.67066 0
M  V30 19782 C 1765.89 -2.58431 -2.49907 0
M  V30 19783 C 1765.56 -4.0352 -2.14524 0
M  V30 19784 C 1766.56 -4.91233 -1.70255 0
M  V30 19785 C 1764.24 -4.4905 -2.25077 0
M  V30 19786 C 1766.23 -6.22502 -1.37003 0
M  V30 19787 C 1763.92 -5.8034 -1.91437 0
M  V30 19788 C 1764.92 -6.66889 -1.47471 0
M  V30 19789 O 1764.61 -7.95737 -1.14272 0
M  V30 19790 H 1764.34 -0.541558 -0.404588 0
M  V30 19791 H 1766.89 -1.94932 -0.647349 0
M  V30 19792 H 1765.12 -2.184 -3.19121 0
M  V30 19793 H 1766.81 -2.59672 -3.1197 0
M  V30 19794 H 1767.58 -4.57296 -1.61572 0
M  V30 19795 H 1763.46 -3.81872 -2.58254 0
M  V30 19796 H 1767 -6.90012 -1.02613 0
M  V30 19797 H 1762.9 -6.13813 -1.9976 0
M  V30 19798 H 1763.67 -8.0848 -1.27679 0
M  V30 19799 N 1766.33 0.779763 -1.36958 0
M  V30 19800 C 1767.28 1.91417 -1.32145 0
M  V30 19801 C 1768.27 1.68074 -0.211572 0
M  V30 19802 O 1769.48 1.75962 -0.379139 0
M  V30 19803 H 1765.85 0.62934 -0.411624 0
M  V30 19804 H 1767.82 1.92594 -2.27926 0
M  V30 19805 C 1766.57 3.28574 -1.13729 0
M  V30 19806 H 1765.9 3.47109 -1.98383 0
M  V30 19807 H 1767.34 4.08272 -1.1441 0
M  V30 19808 C 1765.79 3.36531 0.157538 0
M  V30 19809 O 1766.32 3.85067 1.14397 0
M  V30 19810 N 1764.53 2.89872 0.205509 0
M  V30 19811 H 1764.08 2.50566 -0.597854 0
M  V30 19812 H 1764.04 2.95578 1.07151 0
M  V30 19813 N 1767.81 1.21396 1.00503 0
M  V30 19814 C 1768.75 0.973198 2.09279 0
M  V30 19815 C 1769.72 -0.100797 1.65794 0
M  V30 19816 O 1770.91 0.0463185 1.90744 0
M  V30 19817 C 1768.05 0.543941 3.40786 0
M  V30 19818 C 1767.16 1.68737 3.97683 0
M  V30 19819 C 1766.3 1.20728 5.17299 0
M  V30 19820 C 1765.34 2.32305 5.66305 0
M  V30 19821 N 1764.47 1.8543 6.77171 0
M  V30 19822 H 1769.31 1.90441 2.29208 0
M  V30 19823 H 1766.85 0.949082 1.12387 0
M  V30 19824 H 1768.81 0.276311 4.16284 0
M  V30 19825 H 1767.44 -0.350263 3.20894 0
M  V30 19826 H 1766.49 2.06964 3.19171 0
M  V30 19827 H 1767.8 2.5271 4.30045 0
M  V30 19828 H 1766.96 0.896312 6.00043 0
M  V30 19829 H 1765.7 0.3376 4.8653 0
M  V30 19830 H 1764.7 2.64205 4.82158 0
M  V30 19831 H 1765.93 3.19769 5.99103 0
M  V30 19832 H 1763.87 1.00806 6.48208 0
M  V30 19833 H 1763.79 2.62976 7.08788 0
M  V30 19834 H 1765.06 1.57366 7.6345 0
M  V30 19835 N 1769.29 -1.19996 1.0217 0
M  V30 19836 C 1770.52 -1.93186 0.732311 0
M  V30 19837 C 1770.92 -1.75303 -0.711724 0
M  V30 19838 O 1770.27 -1.06756 -1.49495 0
M  V30 19839 C 1770.33 -3.45466 0.994655 0
M  V30 19840 C 1769.99 -3.87114 2.42882 0
M  V30 19841 C 1770.99 -3.92459 3.40987 0
M  V30 19842 C 1768.67 -4.18958 2.77091 0
M  V30 19843 C 1770.67 -4.29067 4.7136 0
M  V30 19844 C 1768.36 -4.5524 4.07676 0
M  V30 19845 C 1769.35 -4.60267 5.04622 0
M  V30 19846 O 1769.04 -4.95713 6.32869 0
M  V30 19847 H 1768.77 -0.62069 0.267806 0
M  V30 19848 H 1771.33 -1.53287 1.3672 0
M  V30 19849 H 1769.56 -3.85514 0.30261 0
M  V30 19850 H 1771.25 -3.99887 0.696049 0
M  V30 19851 H 1772.01 -3.68016 3.15895 0
M  V30 19852 H 1767.89 -4.14233 2.02317 0
M  V30 19853 H 1771.44 -4.32905 5.47027 0
M  V30 19854 H 1767.33 -4.7914 4.32545 0
M  V30 19855 H 1768.1 -5.13687 6.37234 0
M  V30 19856 N 1770.76 -0.798611 -1.35867 0
M  V30 19857 C 1771.7 -0.161203 -2.28632 0
M  V30 19858 C 1772.71 0.634886 -1.4991 0
M  V30 19859 O 1773.9 0.468557 -1.72241 0
M  V30 19860 C 1771 0.794407 -3.29458 0
M  V30 19861 C 1770.17 0.0464031 -4.37375 0
M  V30 19862 C 1769.23 0.919313 -5.18107 0
M  V30 19863 O 1768.26 0.373179 -5.67975 0
M  V30 19864 N 1769.46 2.24243 -5.35439 0
M  V30 19865 H 1772.22 -0.958079 -2.83973 0
M  V30 19866 H 1769.78 -0.653344 -1.48132 0
M  V30 19867 H 1771.78 1.38242 -3.80357 0
M  V30 19868 H 1770.35 1.49212 -2.7469 0
M  V30 19869 H 1769.57 -0.722757 -3.87518 0
M  V30 19870 H 1770.85 -0.469417 -5.0663 0
M  V30 19871 H 1770.25 2.71017 -4.96554 0
M  V30 19872 H 1768.81 2.77986 -5.89548 0
M  V30 19873 N 1772.24 1.47639 -0.551417 0
M  V30 19874 C 1773.19 2.31626 0.212654 0
M  V30 19875 C 1774.18 1.42567 0.914925 0
M  V30 19876 O 1775.39 1.59363 0.836869 0
M  V30 19877 H 1771.76 0.746898 0.0874493 0
M  V30 19878 H 1773.74 2.93923 -0.514976 0
M  V30 19879 C 1772.48 3.25098 1.23316 0
M  V30 19880 H 1771.81 3.93585 0.702196 0
M  V30 19881 H 1773.25 3.86707 1.73878 0
M  V30 19882 C 1771.71 2.48209 2.27802 0
M  V30 19883 O 1772.24 2.22235 3.34626 0
M  V30 19884 N 1770.44 2.09321 2.01577 0
M  V30 19885 H 1769.99 2.30645 1.14719 0
M  V30 19886 H 1769.95 1.58191 2.71704 0
M  V30 19887 N 1773.72 0.287581 1.54954 0
M  V30 19888 C 1774.95 -0.328601 2.04274 0
M  V30 19889 C 1775.36 -1.48535 1.16545 0
M  V30 19890 O 1774.72 -1.81527 0.188187 0
M  V30 19891 C 1774.77 -0.797705 3.52589 0
M  V30 19892 O 1774.49 0.31299 4.36981 0
M  V30 19893 C 1775.99 -1.48042 4.1785 0
M  V30 19894 H 1773.21 -0.0733253 0.666982 0
M  V30 19895 H 1775.76 0.423307 2.00071 0
M  V30 19896 H 1773.91 -1.49967 3.57196 0
M  V30 19897 H 1774.33 -0.0498078 5.24476 0
M  V30 19898 H 1775.8 -1.75995 5.23192 0
M  V30 19899 H 1776.28 -2.41608 3.66772 0
M  V30 19900 H 1776.88 -0.821988 4.17281 0
M  V30 19901 N 1775.2 -1.57593 0.0150662 0
M  V30 19902 C 1776.43 -1.95221 -0.676193 0
M  V30 19903 C 1776.84 -0.889349 -1.66995 0
M  V30 19904 O 1776.18 0.138825 -1.83175 0
M  V30 19905 C 1776.24 -3.28921 -1.45092 0
M  V30 19906 C 1775.91 -4.52815 -0.61707 0
M  V30 19907 C 1776.9 -5.19801 0.101686 0
M  V30 19908 C 1774.59 -4.99184 -0.558606 0
M  V30 19909 C 1776.58 -6.31466 0.86773 0
M  V30 19910 C 1774.27 -6.10735 0.211154 0
M  V30 19911 C 1775.27 -6.76734 0.923041 0
M  V30 19912 O 1774.95 -7.86145 1.68021 0
M  V30 19913 H 1774.69 -0.648074 -0.192293 0
M  V30 19914 H 1777.24 -2.05291 0.0668663 0
M  V30 19915 H 1775.47 -3.15301 -2.2388 0
M  V30 19916 H 1777.16 -3.51552 -2.02894 0
M  V30 19917 H 1777.93 -4.84955 0.0657637 0
M  V30 19918 H 1773.8 -4.47629 -1.10226 0
M  V30 19919 H 1777.35 -6.82913 1.42391 0
M  V30 19920 H 1773.25 -6.4502 0.248843 0
M  V30 19921 H 1774.01 -8.02739 1.5985 0
M  V30 19922 N 1776.68 0.257904 -1.55475 0
M  V30 19923 C 1777.62 1.33893 -1.90198 0
M  V30 19924 C 1778.62 1.50381 -0.779868 0
M  V30 19925 O 1779.82 1.51986 -0.964376 0
M  V30 19926 H 1776.2 0.448115 -0.603901 0
M  V30 19927 H 1778.17 1.01868 -2.80474 0
M  V30 19928 C 1776.92 2.68954 -2.20361 0
M  V30 19929 H 1776.24 2.57064 -3.062 0
M  V30 19930 H 1777.68 3.43498 -2.48567 0
M  V30 19931 C 1776.14 3.21208 -1.01623 0
M  V30 19932 O 1776.67 4.00867 -0.258567 0
M  V30 19933 N 1774.88 2.79088 -0.809825 0
M  V30 19934 H 1774.42 2.1442 -1.42764 0
M  V30 19935 H 1774.38 3.14395 -0.0170171 0
M  V30 19936 N 1778.15 1.48666 0.52309 0
M  V30 19937 C 1779.1 1.64155 1.6479 0
M  V30 19938 C 1780.1 0.507838 1.61609 0
M  V30 19939 O 1781.3 0.686784 1.66383 0
M  V30 19940 H 1777.68 0.517234 0.545869 0
M  V30 19941 H 1779.65 2.58611 1.48871 0
M  V30 19942 C 1778.4 1.70488 3.03033 0
M  V30 19943 H 1777.72 2.5709 3.06178 0
M  V30 19944 H 1779.16 1.85367 3.81333 0
M  V30 19945 C 1777.62 0.444984 3.33948 0
M  V30 19946 O 1778.15 -0.439107 3.99293 0
M  V30 19947 N 1776.36 0.314593 2.88892 0
M  V30 19948 H 1775.9 1.03501 2.35893 0
M  V30 19949 H 1775.86 -0.527357 3.09946 0
M  V30 19950 N 1779.63 -0.772489 1.37369 0
M  V30 19951 C 1780.54 -1.91679 1.35263 0
M  V30 19952 C 1781.56 -1.72161 0.252321 0
M  V30 19953 O 1782.73 -1.95409 0.487581 0
M  V30 19954 C 1779.8 -3.26792 1.15792 0
M  V30 19955 C 1778.86 -3.5897 2.35455 0
M  V30 19956 C 1778.09 -4.87636 2.16903 0
M  V30 19957 O 1778.32 -5.58627 1.15291 0
M  V30 19958 O 1777.25 -5.18859 3.05072 0
M  V30 19959 H 1781.08 -1.96408 2.31641 0
M  V30 19960 H 1778.66 -0.915136 1.18092 0
M  V30 19961 H 1780.54 -4.07611 1.06918 0
M  V30 19962 H 1779.22 -3.22918 0.224872 0
M  V30 19963 H 1778.13 -2.78389 2.49901 0
M  V30 19964 H 1779.46 -3.67586 3.27325 0
M  V30 19965 N 1781.11 -1.21927 -0.998575 0
M  V30 19966 C 1782.36 -1.03456 -1.73147 0
M  V30 19967 C 1782.67 0.431472 -1.90782 0
M  V30 19968 O 1783.88 0.73573 -2.61341 0
M  V30 19969 C 1782.33 -1.80256 -3.11506 0
M  V30 19970 C 1781.94 -3.31071 -3.01821 0
M  V30 19971 C 1783.69 -1.70214 -3.8888 0
M  V30 19972 C 1781.59 -4.00335 -4.35299 0
M  V30 19973 H 1780.52 -0.3835 -0.649187 0
M  V30 19974 H 1783.17 -1.45724 -1.11521 0
M  V30 19975 H 1781.56 -1.30784 -3.7378 0
M  V30 19976 H 1782.73 -3.87895 -2.48746 0
M  V30 19977 H 1781.05 -3.41727 -2.37932 0
M  V30 19978 H 1783.64 -2.19289 -4.87664 0
M  V30 19979 H 1783.99 -0.661522 -4.1101 0
M  V30 19980 H 1784.52 -2.17199 -3.33271 0
M  V30 19981 H 1781.26 -5.04626 -4.18369 0
M  V30 19982 H 1780.78 -3.48301 -4.8831 0
M  V30 19983 H 1782.46 -4.05611 -5.04072 0
M  V30 19984 N 1782.59 1.19452 -1.02805 0
M  V30 19985 C 1783.52 2.24875 -0.628752 0
M  V30 19986 C 1784.5 1.66207 0.361844 0
M  V30 19987 O 1785.68 1.92652 0.244743 0
M  V30 19988 C 1782.81 3.47293 0.0220954 0
M  V30 19989 C 1781.77 4.1863 -0.890693 0
M  V30 19990 C 1781.09 5.34597 -0.104997 0
M  V30 19991 C 1782.39 4.73518 -2.20405 0
M  V30 19992 H 1784.09 2.5853 -1.51005 0
M  V30 19993 H 1781.63 1.24271 -0.727518 0
M  V30 19994 H 1783.59 4.20235 0.313073 0
M  V30 19995 H 1782.31 3.12835 0.938182 0
M  V30 19996 H 1780.97 3.47568 -1.16585 0
M  V30 19997 H 1780.62 4.96385 0.813098 0
M  V30 19998 H 1780.32 5.83258 -0.712983 0
M  V30 19999 H 1781.84 6.10337 0.179259 0
M  V30 20000 H 1783.26 5.3822 -1.97465 0
M  V30 20001 H 1781.65 5.32663 -2.76388 0
M  V30 20002 H 1782.72 3.9163 -2.85926 0
M  V30 20003 N 1784.07 0.805805 1.35442 0
M  V30 20004 C 1785.31 0.385046 1.98398 0
M  V30 20005 C 1785.64 -1.05114 1.64244 0
M  V30 20006 O 1784.91 -1.72711 0.924532 0
M  V30 20007 H 1783.49 0.139386 0.733881 0
M  V30 20008 H 1786.15 1.03147 1.65368 0
M  V30 20009 H 1785.24 0.490126 3.08227 0
M  V30 20010 N 1785.54 -1.47344 0.559239 0
M  V30 20011 C 1786.49 -2.30039 -0.187317 0
M  V30 20012 C 1787.46 -1.39186 -0.906443 0
M  V30 20013 O 1788.65 -1.68147 -0.901739 0
M  V30 20014 C 1785.79 -3.2319 -1.21004 0
M  V30 20015 C 1784.9 -4.29134 -0.496776 0
M  V30 20016 C 1784.03 -5.09435 -1.50497 0
M  V30 20017 C 1783.07 -6.07151 -0.776794 0
M  V30 20018 N 1782.21 -6.80404 -1.73192 0
M  V30 20019 H 1787.05 -2.93357 0.523978 0
M  V30 20020 H 1784.59 -1.44597 0.270225 0
M  V30 20021 H 1786.55 -3.75621 -1.81561 0
M  V30 20022 H 1785.18 -2.61732 -1.88935 0
M  V30 20023 H 1784.23 -3.79744 0.223359 0
M  V30 20024 H 1785.54 -4.98746 0.0735731 0
M  V30 20025 H 1784.69 -5.66026 -2.18402 0
M  V30 20026 H 1783.43 -4.3973 -2.10924 0
M  V30 20027 H 1782.44 -5.49736 -0.0838382 0
M  V30 20028 H 1783.66 -6.78866 -0.178239 0
M  V30 20029 H 1781.61 -6.13427 -2.32472 0
M  V30 20030 H 1781.53 -7.46193 -1.21377 0
M  V30 20031 H 1782.79 -7.41567 -2.40204 0
M  V30 20032 N 1787.02 -0.295795 -1.54799 0
M  V30 20033 C 1787.96 0.624485 -2.19489 0
M  V30 20034 C 1788.93 1.1368 -1.16257 0
M  V30 20035 O 1790.12 1.20596 -1.44875 0
M  V30 20036 C 1787.24 1.85387 -2.8346 0
M  V30 20037 C 1786.29 1.47524 -4.00173 0
M  V30 20038 S 1787.12 0.535637 -5.32814 0
M  V30 20039 C 1788.28 1.77293 -6.00265 0
M  V30 20040 H 1788.51 0.0748912 -2.97206 0
M  V30 20041 H 1786.05 -0.0799541 -1.54193 0
M  V30 20042 H 1788 2.55941 -3.20943 0
M  V30 20043 H 1786.66 2.37462 -2.05598 0
M  V30 20044 H 1785.86 2.39058 -4.43697 0
M  V30 20045 H 1785.46 0.849697 -3.6422 0
M  V30 20046 H 1787.75 2.7142 -6.20756 0
M  V30 20047 H 1788.69 1.38035 -6.94516 0
M  V30 20048 H 1789.1 1.94728 -5.2985 0
M  V30 20049 N 1788.5 1.57583 -0.0234236 0
M  V30 20050 C 1789.45 2.09872 0.960327 0
M  V30 20051 C 1790.42 0.999466 1.32665 0
M  V30 20052 O 1791.6 1.27332 1.42095 0
M  V30 20053 C 1788.74 2.62578 2.23935 0
M  V30 20054 C 1787.86 3.86491 1.92999 0
M  V30 20055 C 1786.99 4.27611 3.15154 0
M  V30 20056 C 1786.03 5.44298 2.80011 0
M  V30 20057 N 1785.17 5.80601 3.94775 0
M  V30 20058 H 1790.01 2.93647 0.507502 0
M  V30 20059 H 1787.54 1.45147 0.238911 0
M  V30 20060 H 1789.5 2.91223 2.98739 0
M  V30 20061 H 1788.13 1.81643 2.66844 0
M  V30 20062 H 1787.18 3.6461 1.08462 0
M  V30 20063 H 1788.5 4.71377 1.63112 0
M  V30 20064 H 1787.65 4.57663 3.98284 0
M  V30 20065 H 1786.39 3.41481 3.48198 0
M  V30 20066 H 1785.39 5.13946 1.95293 0
M  V30 20067 H 1786.62 6.32122 2.4819 0
M  V30 20068 H 1784.57 4.97427 4.27671 0
M  V30 20069 H 1784.48 6.60113 3.68492 0
M  V30 20070 H 1785.75 6.15255 4.78624 0
M  V30 20071 N 1789.98 -0.249655 1.5561 0
M  V30 20072 C 1791.21 -0.994263 1.81102 0
M  V30 20073 C 1791.62 -1.79553 0.596445 0
M  V30 20074 O 1790.96 -1.78246 -0.4443 0
M  V30 20075 C 1791.02 -1.9824 2.99902 0
M  V30 20076 C 1790.69 -1.36833 4.36034 0
M  V30 20077 C 1791.68 -0.772202 5.14133 0
M  V30 20078 C 1789.37 -1.38852 4.82727 0
M  V30 20079 C 1791.36 -0.204446 6.37072 0
M  V30 20080 C 1789.05 -0.816913 6.05615 0
M  V30 20081 C 1790.05 -0.225898 6.82626 0
M  V30 20082 O 1789.74 0.336892 8.03194 0
M  V30 20083 H 1789.47 -0.298339 0.606605 0
M  V30 20084 H 1792.02 -0.278647 2.03501 0
M  V30 20085 H 1790.25 -2.73625 2.73252 0
M  V30 20086 H 1791.94 -2.59021 3.12511 0
M  V30 20087 H 1792.71 -0.749129 4.7918 0
M  V30 20088 H 1788.59 -1.83793 4.22778 0
M  V30 20089 H 1792.13 0.257492 6.97125 0
M  V30 20090 H 1788.03 -0.837303 6.40046 0
M  V30 20091 H 1788.79 0.228492 8.18181 0
M  V30 20092 N 1791.46 -1.48941 -0.515198 0
M  V30 20093 C 1792.39 -1.67466 -1.62719 0
M  V30 20094 C 1793.37 -0.523393 -1.61847 0
M  V30 20095 O 1794.55 -0.757631 -1.78812 0
M  V30 20096 C 1791.68 -1.72799 -3.0126 0
M  V30 20097 C 1790.64 -2.87574 -3.16994 0
M  V30 20098 C 1789.96 -2.78008 -4.56745 0
M  V30 20099 C 1791.26 -4.28693 -2.98362 0
M  V30 20100 H 1792.96 -2.60562 -1.47471 0
M  V30 20101 H 1790.5 -1.25391 -0.708027 0
M  V30 20102 H 1792.46 -1.84346 -3.78939 0
M  V30 20103 H 1791.18 -0.762918 -3.17564 0
M  V30 20104 H 1789.84 -2.75606 -2.41737 0
M  V30 20105 H 1789.49 -1.79438 -4.69905 0
M  V30 20106 H 1789.19 -3.55033 -4.68215 0
M  V30 20107 H 1790.71 -2.91543 -5.36503 0
M  V30 20108 H 1792.13 -4.41416 -3.65821 0
M  V30 20109 H 1790.52 -5.0683 -3.21315 0
M  V30 20110 H 1791.59 -4.44125 -1.9463 0
M  V30 20111 N 1792.94 0.765193 -1.37777 0
M  V30 20112 C 1794.18 1.52623 -1.33545 0
M  V30 20113 C 1794.51 1.94043 0.077992 0
M  V30 20114 O 1793.79 1.64566 1.03673 0
M  V30 20115 C 1794.07 2.78679 -2.28057 0
M  V30 20116 C 1793.93 2.43471 -3.78209 0
M  V30 20117 C 1795.24 3.80646 -2.20899 0
M  V30 20118 H 1792.36 0.553678 -0.486425 0
M  V30 20119 H 1795.01 0.877326 -1.68532 0
M  V30 20120 H 1793.16 3.3405 -1.9835 0
M  V30 20121 H 1794.83 1.93965 -4.1854 0
M  V30 20122 H 1793.07 1.76081 -3.96457 0
M  V30 20123 H 1793.74 3.33609 -4.39783 0
M  V30 20124 H 1796.22 3.34786 -2.47099 0
M  V30 20125 H 1795.09 4.6656 -2.89159 0
M  V30 20126 H 1795.35 4.25389 -1.20403 0
M  V30 20127 N 1794.41 1.22455 0.992094 0
M  V30 20128 C 1795.69 0.958091 1.70529 0
M  V30 20129 C 1796.07 -0.526595 2.04426 0
M  V30 20130 O 1795.42 -1.49483 1.72821 0
M  V30 20131 C 1795.63 1.85646 2.95528 0
M  V30 20132 C 1796.98 2.11301 3.68289 0
M  V30 20133 O 1798 1.831 3.05537 0
M  V30 20134 O 1796.86 2.59068 4.81192 0
M  V30 20135 H 1793.95 0.360375 0.744351 0
M  V30 20136 H 1796.5 1.33444 1.04837 0
M  V30 20137 H 1795.27 2.86067 2.66986 0
M  V30 20138 H 1794.89 1.48174 3.68958 0
M  V30 20139 N 1795.89 -1.18905 1.03437 0
M  V30 20140 C 1796.85 -2.20529 0.624461 0
M  V30 20141 C 1797.85 -1.57688 -0.314824 0
M  V30 20142 O 1799.04 -1.73906 -0.101082 0
M  V30 20143 C 1796.18 -3.40793 -0.0854166 0
M  V30 20144 H 1797.37 -2.58309 1.5237 0
M  V30 20145 H 1794.92 -1.32679 0.826189 0
M  V30 20146 H 1795.66 -3.08538 -0.998747 0
M  V30 20147 H 1795.44 -3.87642 0.589596 0
M  V30 20148 H 1796.93 -4.16055 -0.358938 0
M  V30 20149 N 1797.37 -0.812977 -1.35013 0
M  V30 20150 C 1798.65 -0.319343 -1.92976 0
M  V30 20151 C 1799.03 1.19196 -1.74228 0
M  V30 20152 O 1798.37 1.99445 -1.11507 0
M  V30 20153 C 1798.58 -0.737753 -3.41113 0
M  V30 20154 C 1799.93 -0.730889 -4.18262 0
M  V30 20155 O 1800.96 -0.679701 -3.49655 0
M  V30 20156 O 1799.82 -0.795045 -5.40686 0
M  V30 20157 H 1796.91 -0.0850284 -0.822617 0
M  V30 20158 H 1799.46 -0.897102 -1.44049 0
M  V30 20159 H 1798.23 -1.77911 -3.48516 0
M  V30 20160 H 1797.85 -0.135148 -3.9737 0
M  V30 20161 N 1798.85 1.47045 -0.567045 0
M  V30 20162 C 1799.8 2.27158 0.195716 0
M  V30 20163 C 1800.78 1.34943 0.876307 0
M  V30 20164 O 1801.97 1.59229 0.772989 0
M  V30 20165 C 1799.1 3.20936 1.21882 0
M  V30 20166 C 1798.19 4.20633 0.54114 0
M  V30 20167 N 1798.58 5.0426 -0.394396 0
M  V30 20168 C 1796.88 4.38878 0.793847 0
M  V30 20169 C 1797.58 5.76324 -0.788986 0
M  V30 20170 N 1796.55 5.43416 -0.141613 0
M  V30 20171 H 1800.36 2.89201 -0.523432 0
M  V30 20172 H 1797.87 1.57705 -0.387691 0
M  V30 20173 H 1799.87 3.77023 1.77931 0
M  V30 20174 H 1798.53 2.60451 1.93895 0
M  V30 20175 H 1799.54 5.12158 -0.769095 0
M  V30 20176 H 1796.22 3.89556 1.50175 0
M  V30 20177 H 1797.61 6.5358 -1.55829 0
M  V30 20178 N 1800.33 0.304 1.5464 0
M  V30 20179 C 1801.27 -0.586475 2.25085 0
M  V30 20180 C 1802.27 -1.13458 1.25792 0
M  V30 20181 O 1803.47 -1.08487 1.43633 0
M  V30 20182 H 1799.85 -0.20774 0.722737 0
M  V30 20183 H 1801.82 0.0301682 2.98385 0
M  V30 20184 C 1800.57 -1.74539 3.00718 0
M  V30 20185 H 1799.89 -1.33287 3.76928 0
M  V30 20186 H 1801.33 -2.34447 3.53285 0
M  V30 20187 C 1799.79 -2.65132 2.07862 0
M  V30 20188 O 1800.32 -3.6631 1.64863 0
M  V30 20189 N 1798.53 -2.32932 1.73756 0
M  V30 20190 H 1798.07 -1.50698 2.08921 0
M  V30 20191 H 1798.03 -2.93811 1.11904 0
M  V30 20192 N 1801.8 -1.57568 0.0317802 0
M  V30 20193 C 1802.75 -2.11538 -0.967175 0
M  V30 20194 C 1803.75 -1.04258 -1.33516 0
M  V30 20195 O 1804.95 -1.2269 -1.31709 0
M  V30 20196 H 1801.33 -0.675877 -0.329687 0
M  V30 20197 H 1803.3 -2.94404 -0.486695 0
M  V30 20198 C 1802.05 -2.65973 -2.2395 0
M  V30 20199 H 1801.37 -3.48172 -1.96509 0
M  V30 20200 H 1802.81 -3.07379 -2.92052 0
M  V30 20201 C 1801.27 -1.5884 -2.97105 0
M  V30 20202 O 1801.8 -0.989784 -3.89315 0
M  V30 20203 N 1800 -1.30821 -2.59488 0
M  V30 20204 H 1799.55 -1.79687 -1.84581 0
M  V30 20205 H 1799.51 -0.593658 -3.08744 0
M  V30 20206 N 1803.28 0.241399 -1.5574 0
M  V30 20207 C 1804.19 1.32034 -1.93918 0
M  V30 20208 C 1805.21 1.52363 -0.840331 0
M  V30 20209 O 1806.38 1.65879 -1.1422 0
M  V30 20210 C 1803.45 2.6539 -2.2309 0
M  V30 20211 C 1802.51 2.53536 -3.46436 0
M  V30 20212 C 1801.74 3.80532 -3.74208 0
M  V30 20213 O 1801.97 4.82662 -3.03964 0
M  V30 20214 O 1800.9 3.78834 -4.67727 0
M  V30 20215 H 1804.73 1.02647 -2.85827 0
M  V30 20216 H 1802.31 0.442616 -1.42693 0
M  V30 20217 H 1804.19 3.44184 -2.43137 0
M  V30 20218 H 1802.87 2.94499 -1.34358 0
M  V30 20219 H 1801.78 1.73009 -3.3169 0
M  V30 20220 H 1803.11 2.29371 -4.35488 0
M  V30 20221 N 1804.76 1.49212 0.507292 0
M  V30 20222 C 1805.69 1.68326 1.61829 0
M  V30 20223 C 1806.67 0.531969 1.61568 0
M  V30 20224 O 1807.86 0.767104 1.78407 0
M  V30 20225 C 1804.99 1.74394 3.0034 0
M  V30 20226 C 1803.94 2.89251 3.15465 0
M  V30 20227 C 1803.27 2.80426 4.55264 0
M  V30 20228 C 1804.57 4.30269 2.96085 0
M  V30 20229 H 1806.26 2.6134 1.46087 0
M  V30 20230 H 1803.81 1.25765 0.701367 0
M  V30 20231 H 1805.76 1.86353 3.77956 0
M  V30 20232 H 1804.48 0.779748 3.17155 0
M  V30 20233 H 1803.14 2.76884 2.40272 0
M  V30 20234 H 1802.79 1.81928 4.68947 0
M  V30 20235 H 1802.49 3.57511 4.66326 0
M  V30 20236 H 1804.01 2.94384 5.34949 0
M  V30 20237 H 1805.43 4.4335 3.63475 0
M  V30 20238 H 1803.83 5.08527 3.18623 0
M  V30 20239 H 1804.9 4.45151 1.92272 0
M  V30 20240 N 1806.24 -0.757876 1.38181 0
M  V30 20241 C 1807.17 -1.88108 1.3095 0
M  V30 20242 C 1808.18 -1.61272 0.222551 0
M  V30 20243 O 1809.37 -1.71931 0.479782 0
M  V30 20244 C 1806.47 -3.2365 1.00518 0
M  V30 20245 C 1805.65 -3.78024 2.20037 0
M  V30 20246 C 1804.7 -4.92073 1.86416 0
M  V30 20247 O 1803.73 -5.0693 2.58864 0
M  V30 20248 N 1804.93 -5.74728 0.816553 0
M  V30 20249 H 1807.7 -1.94823 2.27737 0
M  V30 20250 H 1805.26 -0.937616 1.31986 0
M  V30 20251 H 1807.25 -3.97483 0.760861 0
M  V30 20252 H 1805.82 -3.12348 0.125418 0
M  V30 20253 H 1805.04 -2.95807 2.60561 0
M  V30 20254 H 1806.33 -4.11085 2.99811 0
M  V30 20255 H 1805.73 -5.65289 0.215659 0
M  V30 20256 H 1804.28 -6.48728 0.63211 0
M  V30 20257 N 1807.72 -1.22979 -0.985586 0
M  V30 20258 C 1808.65 -0.964185 -2.07933 0
M  V30 20259 C 1809.66 0.0599162 -1.6269 0
M  V30 20260 O 1810.85 -0.174984 -1.7764 0
M  V30 20261 C 1807.95 -0.429879 -3.36163 0
M  V30 20262 C 1807.12 -1.51293 -4.10401 0
M  V30 20263 C 1806.18 -0.984411 -5.1691 0
M  V30 20264 O 1805.21 -1.67225 -5.44081 0
M  V30 20265 N 1806.41 0.190439 -5.80188 0
M  V30 20266 H 1809.18 -1.90582 -2.31297 0
M  V30 20267 H 1806.74 -1.13767 -1.15189 0
M  V30 20268 H 1808.73 -0.0614639 -4.04653 0
M  V30 20269 H 1807.3 0.417049 -3.09806 0
M  V30 20270 H 1806.52 -2.05434 -3.36438 0
M  V30 20271 H 1807.81 -2.24141 -4.56769 0
M  V30 20272 H 1807.2 0.765928 -5.60491 0
M  V30 20273 H 1805.76 0.500168 -6.49878 0
M  V30 20274 N 1809.19 1.18355 -1.04066 0
M  V30 20275 C 1810.14 2.21987 -0.631714 0
M  V30 20276 C 1811.11 1.62142 0.360462 0
M  V30 20277 O 1812.3 1.89096 0.254445 0
M  V30 20278 C 1809.44 3.451 -0.000843566 0
M  V30 20279 C 1808.55 4.19283 -1.04048 0
M  V30 20280 C 1807.68 5.29852 -0.37813 0
M  V30 20281 C 1806.72 5.95807 -1.40287 0
M  V30 20282 N 1805.86 6.97915 -0.765481 0
M  V30 20283 H 1810.7 2.56323 -1.51995 0
M  V30 20284 H 1808.24 1.25923 -0.760384 0
M  V30 20285 H 1810.2 4.15445 0.382267 0
M  V30 20286 H 1808.83 3.11383 0.850911 0
M  V30 20287 H 1807.88 3.47765 -1.54154 0
M  V30 20288 H 1809.19 4.64457 -1.81882 0
M  V30 20289 H 1808.34 6.06671 0.059186 0
M  V30 20290 H 1807.08 4.8578 0.432293 0
M  V30 20291 H 1806.09 5.17729 -1.85032 0
M  V30 20292 H 1807.31 6.41962 -2.21499 0
M  V30 20293 H 1805.26 6.55995 0.0246364 0
M  V30 20294 H 1805.18 7.41341 -1.48152 0
M  V30 20295 H 1806.44 7.78702 -0.35256 0
M  V30 20296 N 1810.67 0.820125 1.3458 0
M  V30 20297 C 1811.9 0.419764 2.02597 0
M  V30 20298 C 1812.32 -0.973439 1.6177 0
M  V30 20299 O 1811.67 -1.6295 0.821791 0
M  V30 20300 C 1811.72 0.509104 3.57897 0
M  V30 20301 O 1811.44 1.84739 3.97244 0
M  V30 20302 C 1812.95 0.103283 4.4318 0
M  V30 20303 H 1810.17 0.168803 0.64942 0
M  V30 20304 H 1812.71 1.10751 1.71914 0
M  V30 20305 H 1810.86 -0.130526 3.8718 0
M  V30 20306 H 1811.28 1.81967 4.91923 0
M  V30 20307 H 1812.75 0.216884 5.51574 0
M  V30 20308 H 1813.23 -0.952888 4.28738 0
M  V30 20309 H 1813.84 0.716601 4.19219 0
M  V30 20310 N 1812.15 -1.46743 0.574835 0
M  V30 20311 C 1813.08 -2.2832 -0.20062 0
M  V30 20312 C 1814.1 -1.3805 -0.862898 0
M  V30 20313 O 1815.28 -1.6272 -0.733785 0
M  V30 20314 C 1812.38 -3.1285 -1.303 0
M  V30 20315 C 1811.56 -4.31195 -0.734153 0
M  V30 20316 C 1810.62 -4.97183 -1.72324 0
M  V30 20317 O 1809.64 -5.55025 -1.26239 0
M  V30 20318 N 1810.84 -4.93476 -3.05714 0
M  V30 20319 H 1813.61 -2.95513 0.499231 0
M  V30 20320 H 1811.17 -1.56568 0.412077 0
M  V30 20321 H 1813.16 -3.53861 -1.96378 0
M  V30 20322 H 1811.73 -2.47784 -1.90583 0
M  V30 20323 H 1810.95 -3.94063 0.103888 0
M  V30 20324 H 1812.24 -5.07704 -0.333751 0
M  V30 20325 H 1811.64 -4.47715 -3.45786 0
M  V30 20326 H 1810.2 -5.38453 -3.67304 0
M  V30 20327 N 1813.63 -0.312197 -1.54477 0
M  V30 20328 C 1814.91 0.347462 -1.92489 0
M  V30 20329 C 1815.29 1.70797 -1.24063 0
M  V30 20330 O 1814.63 2.25313 -0.380296 0
M  V30 20331 C 1814.84 0.450992 -3.46074 0
M  V30 20332 C 1816.19 0.716618 -4.18509 0
M  V30 20333 O 1817.22 0.534364 -3.52169 0
M  V30 20334 O 1816.07 1.06744 -5.35974 0
M  V30 20335 H 1813.17 0.196248 -0.803378 0
M  V30 20336 H 1815.71 -0.361078 -1.65814 0
M  V30 20337 H 1814.49 -0.504982 -3.88028 0
M  V30 20338 H 1814.11 1.20756 -3.78819 0
M  V30 20339 N 1815.11 1.57549 -0.040136 0
M  V30 20340 C 1816.05 2.10879 0.938013 0
M  V30 20341 C 1817.02 1.01348 1.31597 0
M  V30 20342 O 1818.21 1.28832 1.40737 0
M  V30 20343 C 1815.35 2.64938 2.21138 0
M  V30 20344 C 1814.46 3.88516 1.88889 0
M  V30 20345 C 1813.6 4.3093 3.10601 0
M  V30 20346 C 1812.64 5.47237 2.74223 0
M  V30 20347 N 1811.77 5.84755 3.88594 0
M  V30 20348 H 1816.61 2.94169 0.476328 0
M  V30 20349 H 1814.15 1.45392 0.223503 0
M  V30 20350 H 1816.11 2.94375 2.95633 0
M  V30 20351 H 1814.74 1.84463 2.64903 0
M  V30 20352 H 1813.79 3.6574 1.04588 0
M  V30 20353 H 1815.1 4.7308 1.58103 0
M  V30 20354 H 1814.26 4.61861 3.93407 0
M  V30 20355 H 1812.99 3.45155 3.44557 0
M  V30 20356 H 1812 5.15988 1.89831 0
M  V30 20357 H 1813.22 6.34719 2.41472 0
M  V30 20358 H 1811.17 5.01935 4.22371 0
M  V30 20359 H 1811.09 6.63984 3.6147 0
M  V30 20360 H 1812.36 6.20297 4.72072 0
M  V30 20361 O 1816.62 -0.101249 1.61182 0
M  V30 20362 H 1817.31 -0.73057 1.79394 0
M  V30 END ATOM
M  V30 BEGIN BOND
M  V30 END BOND
M  V30 END CTAB
M  END
$$$$
