drugbank_target|C0H5C2 40S ribosomal protein S19 (DB11638)
 OpenBabel12092121103D

  0  0  0     0  0            999 V3000
M  V30 BEGIN CTAB
M  V30 COUNTS 2427 2451 0 0 0
M  V30 BEGIN ATOM
M  V30 1 H -0.908 1.98254 -0.117106 0
M  V30 2 N 0 1.576 0 0
M  V30 3 C 0.933 2.03868 1.02534 0
M  V30 4 C 1.911 0.928543 1.3348 0
M  V30 5 O 3.095 1.19667 1.45644 0
M  V30 6 C 0.222 2.43627 2.35294 0
M  V30 7 C -0.732 3.65373 2.2001 0
M  V30 8 S 0.101 5.13292 1.52614 0
M  V30 9 C 1.257 5.56322 2.86805 0
M  V30 10 H 1.49 2.90518 0.631377 0
M  V30 11 H -0.977 1.52953 0.210867 0
M  V30 12 H 0.981 2.67203 3.11629 0
M  V30 13 H -0.358 1.57376 2.7183 0
M  V30 14 H -1.165 3.90944 3.18086 0
M  V30 15 H -1.563 3.418 1.51819 0
M  V30 16 H 0.729 5.58782 3.83104 0
M  V30 17 H 1.672 6.56266 2.65933 0
M  V30 18 H 2.08 4.83886 2.90714 0
M  V30 19 N 1.4781 -0.272755 1.55222 0
M  V30 20 C 2.3881 -1.35918 1.91216 0
M  V30 21 C 3.4041 -1.54026 0.809436 0
M  V30 22 O 4.5801 -1.68148 1.10852 0
M  V30 23 C 1.6451 -2.69834 2.17693 0
M  V30 24 C 0.7061 -2.6047 3.41253 0
M  V30 25 C -0.0609 -3.88 3.66458 0
M  V30 26 O 0.1621 -4.88693 2.94169 0
M  V30 27 O -0.9039 -3.88189 4.59992 0
M  V30 28 H 2.9221 -1.0839 2.83699 0
M  V30 29 H 0.5071 -0.471301 1.41771 0
M  V30 30 H 2.3891 -3.49017 2.36147 0
M  V30 31 H 1.0641 -2.97148 1.28392 0
M  V30 32 H -0.0289 -1.79663 3.28134 0
M  V30 33 H 1.3041 -2.38106 4.30774 0
M  V30 34 N 2.9562 -1.48159 -0.537278 0
M  V30 35 C 4.2332 -1.46291 -1.29839 0
M  V30 36 C 4.6132 -0.170613 -2.10409 0
M  V30 37 O 3.9612 0.847746 -2.12192 0
M  V30 38 C 4.1712 -2.72055 -2.18603 0
M  V30 39 C 5.5192 -3.20087 -2.7898 0
M  V30 40 O 6.5432 -2.72921 -2.28894 0
M  V30 41 O 5.4022 -4.02138 -3.70064 0
M  V30 42 H 2.4962 -0.583906 -0.585647 0
M  V30 43 H 5.0422 -1.60384 -0.554534 0
M  V30 44 H 3.8142 -3.57628 -1.58801 0
M  V30 45 H 3.4372 -2.60646 -3.00249 0
M  V30 46 N 4.4343 0.785586 -1.36625 0
M  V30 47 C 5.3973 1.87999 -1.31107 0
M  V30 48 C 6.3973 1.59316 -0.217959 0
M  V30 49 O 7.5873 1.67656 -0.472977 0
M  V30 50 C 4.7193 3.24861 -1.03334 0
M  V30 51 H 5.9123 1.94307 -2.2844 0
M  V30 52 H 3.4653 0.983813 -1.21453 0
M  V30 53 H 4.2003 3.24235 -0.0647432 0
M  V30 54 H 3.9853 3.4707 -1.82441 0
M  V30 55 H 5.4753 4.04929 -1.02088 0
M  V30 56 N 5.9124 1.20967 1.01018 0
M  V30 57 C 6.8604 0.961223 2.1181 0
M  V30 58 C 7.8544 -0.0897034 1.69162 0
M  V30 59 O 9.0604 0.0612271 1.79896 0
M  V30 60 H 5.4354 0.29355 0.692338 0
M  V30 61 H 7.4064 1.90178 2.29946 0
M  V30 62 C 6.1554 0.536854 3.4353 0
M  V30 63 H 5.4784 1.33713 3.76777 0
M  V30 64 H 6.9184 0.402286 4.22087 0
M  V30 65 C 5.3774 -0.751574 3.2841 0
M  V30 66 O 5.9074 -1.80841 3.58691 0
M  V30 67 N 4.1134 -0.716079 2.81639 0
M  V30 68 H 3.6604 0.144236 2.57196 0
M  V30 69 H 3.6184 -1.57847 2.71904 0
M  V30 70 N 7.3905 -1.2043 1.01659 0
M  V30 71 C 8.3375 -2.23215 0.586822 0
M  V30 72 C 9.3075 -1.61382 -0.393085 0
M  V30 73 O 10.4925 -1.88544 -0.292525 0
M  V30 74 C 7.6325 -3.45032 -0.0687464 0
M  V30 75 C 6.7455 -4.21296 0.955724 0
M  V30 76 C 5.8805 -5.30507 0.271208 0
M  V30 77 C 4.9195 -5.98515 1.28244 0
M  V30 78 N 4.0565 -6.99316 0.62459 0
M  V30 79 H 8.8965 -2.59336 1.46796 0
M  V30 80 H 6.4335 -1.27431 0.734836 0
M  V30 81 H 8.3915 -4.1459 -0.465965 0
M  V30 82 H 7.0215 -3.09604 -0.913529 0
M  V30 83 H 6.0735 -3.50803 1.4711 0
M  V30 84 H 7.3855 -4.6803 1.72479 0
M  V30 85 H 6.5395 -6.06428 -0.18151 0
M  V30 86 H 5.2785 -4.8481 -0.530163 0
M  V30 87 H 4.2835 -5.21355 1.74554 0
M  V30 88 H 5.5085 -6.46298 2.08509 0
M  V30 89 H 3.4545 -6.55812 -0.156914 0
M  V30 90 H 3.3715 -7.44178 1.33172 0
M  V30 91 H 4.6395 -7.79255 0.195462 0
M  V30 92 N 8.8686 -0.792821 -1.36206 0
M  V30 93 C 10.2796 -0.429513 -1.81692 0
M  V30 94 C 10.6306 1.04695 -1.65932 0
M  V30 95 O 9.7556 1.81256 -1.18218 0
M  V30 96 C 10.3506 -0.772831 -3.29868 0
M  V30 97 C 8.9096 -0.462307 -3.7355 0
M  V30 98 C 8.0566 -1.00569 -2.5842 0
M  V30 99 H 11.0076 -0.985672 -1.24379 0
M  V30 100 H 11.0286 -0.0651928 -3.80444 0
M  V30 101 H 10.5406 -1.84747 -3.41307 0
M  V30 102 H 8.6416 0.604158 -3.67669 0
M  V30 103 H 8.7546 -0.985299 -4.68859 0
M  V30 104 H 7.1186 -0.428734 -2.51066 0
M  V30 105 H 7.9016 -2.08616 -2.72643 0
M  V30 106 N 10.3467 1.47872 -0.545128 0
M  V30 107 C 11.2937 2.29849 0.2093 0
M  V30 108 C 12.2637 1.38313 0.919707 0
M  V30 109 O 13.4487 1.67277 0.917772 0
M  V30 110 C 10.5887 3.22019 1.24088 0
M  V30 111 C 9.7017 4.2864 0.537778 0
M  V30 112 C 8.8367 5.07973 1.5536 0
M  V30 113 C 7.8757 6.06381 0.8348 0
M  V30 114 N 7.0127 6.78717 1.79688 0
M  V30 115 H 11.8527 2.93845 -0.49591 0
M  V30 116 H 9.3897 1.44848 -0.256389 0
M  V30 117 H 11.3477 3.73868 1.85144 0
M  V30 118 H 9.9777 2.59914 1.91428 0
M  V30 119 H 9.0297 3.7994 -0.187046 0
M  V30 120 H 10.3417 4.98793 -0.0258907 0
M  V30 121 H 9.4957 5.63912 2.23803 0
M  V30 122 H 8.2347 4.37693 2.15118 0
M  V30 123 H 7.2397 5.49631 0.136388 0
M  V30 124 H 8.4647 6.78665 0.24313 0
M  V30 125 H 6.4107 6.11177 2.38326 0
M  V30 126 H 6.3277 7.44998 1.28505 0
M  V30 127 H 7.5957 7.39237 2.47282 0
M  V30 128 N 11.8248 0.280983 1.55075 0
M  V30 129 C 12.7718 -0.603937 2.22758 0
M  V30 130 C 13.7418 -1.1452 1.20309 0
M  V30 131 O 14.9268 -1.19343 1.48869 0
M  V30 132 C 12.0668 -1.77947 2.95684 0
M  V30 133 C 11.1798 -1.2715 4.12864 0
M  V30 134 C 10.3148 -2.4093 4.7342 0
M  V30 135 C 9.3538 -1.87165 5.82783 0
M  V30 136 N 8.4908 -2.94441 6.37377 0
M  V30 137 H 13.3308 -0.020124 2.97993 0
M  V30 138 H 10.8678 0.00183425 1.471 0
M  V30 139 H 12.8258 -2.47055 3.36184 0
M  V30 140 H 11.4558 -2.33522 2.22861 0
M  V30 141 H 10.5078 -0.473331 3.77444 0
M  V30 142 H 11.8198 -0.837751 4.91715 0
M  V30 143 H 10.9738 -3.18021 5.1667 0
M  V30 144 H 9.7128 -2.87623 3.93859 0
M  V30 145 H 8.7178 -1.08556 5.38976 0
M  V30 146 H 9.9428 -1.41401 6.64216 0
M  V30 147 H 7.8888 -3.40505 5.60707 0
M  V30 148 H 7.8058 -2.55501 7.11516 0
M  V30 149 H 9.0738 -3.71489 6.85285 0
M  V30 150 N 13.3029 -1.57598 0.00835791 0
M  V30 151 C 14.7189 -1.55764 -0.347822 0
M  V30 152 C 14.9189 -1.01186 -1.74252 0
M  V30 153 O 13.9749 -0.649371 -2.44007 0
M  V30 154 C 15.2879 -2.99927 -0.215407 0
M  V30 155 C 16.8359 -3.11656 -0.289725 0
M  V30 156 C 17.3109 -4.57621 -0.18634 0
M  V30 157 N 18.8019 -4.62557 -0.243978 0
M  V30 158 C 19.5369 -5.73094 -0.18745 0
M  V30 159 N 19.0329 -6.92753 -0.0810331 0
M  V30 160 N 20.8259 -5.61588 -0.239925 0
M  V30 161 H 12.9769 -1.91411 0.92062 0
M  V30 162 H 15.2399 -0.879562 0.353659 0
M  V30 163 H 14.9459 -3.43729 0.744512 0
M  V30 164 H 14.8199 -3.63865 -0.994097 0
M  V30 165 H 17.2069 -2.67779 -1.24009 0
M  V30 166 H 17.2879 -2.5048 0.51898 0
M  V30 167 H 16.9319 -5.02174 0.760519 0
M  V30 168 H 16.8619 -5.16752 -1.01364 0
M  V30 169 H 19.3529 -3.76481 -0.327217 0
M  V30 170 H 19.6659 -7.72787 -0.0440241 0
M  V30 171 H 18.0109 -6.94984 -0.0465419 0
M  V30 172 H 21.2019 -4.66996 -0.321317 0
M  V30 173 H 21.3749 -6.47714 -0.192407 0
M  V30 174 N 14.781 0.264519 -1.55364 0
M  V30 175 C 16.009 1.013 -1.80405 0
M  V30 176 C 16.424 1.79618 -0.581622 0
M  V30 177 O 15.781 1.76879 0.449468 0
M  V30 178 C 15.832 1.96487 -3.03439 0
M  V30 179 O 15.553 1.21341 -4.20961 0
M  V30 180 C 17.054 2.83079 -3.41147 0
M  V30 181 H 14.274 0.298875 -0.600762 0
M  V30 182 H 16.818 0.292736 -2.02394 0
M  V30 183 H 14.973 2.63965 -2.83551 0
M  V30 184 H 15.387 1.85573 -4.90574 0
M  V30 185 H 16.861 3.4565 -4.30384 0
M  V30 186 H 17.338 3.53286 -2.60932 0
M  V30 187 H 17.944 2.2108 -3.63323 0
M  V30 188 N 16.2591 1.48442 0.529413 0
M  V30 189 C 17.5061 1.56488 1.28521 0
M  V30 190 C 17.8341 0.239042 1.93025 0
M  V30 191 O 17.0891 -0.770713 1.79885 0
M  V30 192 C 17.3881 2.6523 2.39558 0
M  V30 193 C 17.0541 4.07648 1.92702 0
M  V30 194 C 15.7161 4.46411 1.79641 0
M  V30 195 C 18.0681 4.96896 1.573 0
M  V30 196 C 15.3961 5.72226 1.29514 0
M  V30 197 C 17.7481 6.23202 1.08636 0
M  V30 198 C 16.4121 6.60821 0.941919 0
M  V30 199 H 15.6821 0.572631 0.470292 0
M  V30 200 H 18.3291 1.82161 0.59072 0
M  V30 201 H 16.6341 2.33419 3.14679 0
M  V30 202 H 18.3311 2.68671 2.97686 0
M  V30 203 H 14.9211 3.77036 2.03819 0
M  V30 204 H 19.1051 4.67626 1.66251 0
M  V30 205 H 14.3611 6.00097 1.17019 0
M  V30 206 H 18.5351 6.91753 0.803136 0
M  V30 207 H 16.1621 7.58198 0.5513 0
M  V30 208 N 17.7372 -0.778329 1.37039 0
M  V30 209 C 19.1532 -1.07796 1.17695 0
M  V30 210 C 19.3532 -2.01498 0.00860115 0
M  V30 211 O 18.4092 -2.43901 -0.653352 0
M  V30 212 C 19.7222 -1.68178 2.49272 0
M  V30 213 C 21.2702 -1.80467 2.55735 0
M  V30 214 C 21.7452 -2.44263 3.87427 0
M  V30 215 N 23.2362 -2.51721 3.88833 0
M  V30 216 C 23.9712 -3.01919 4.87476 0
M  V30 217 N 23.4672 -3.5234 5.96513 0
M  V30 218 N 25.2602 -3.00733 4.74885 0
M  V30 219 H 17.4112 -0.156032 2.11826 0
M  V30 220 H 19.6742 -0.131844 0.938787 0
M  V30 221 H 19.3802 -1.06796 3.35093 0
M  V30 222 H 19.2542 -2.67554 2.65885 0
M  V30 223 H 21.6412 -2.40984 1.70325 0
M  V30 224 H 21.7222 -0.798656 2.43013 0
M  V30 225 H 21.3662 -1.84388 4.73248 0
M  V30 226 H 21.2962 -3.45458 3.9745 0
M  V30 227 H 23.7872 -2.1603 3.10063 0
M  V30 228 H 24.1002 -3.89027 6.67741 0
M  V30 229 H 22.4452 -3.50462 6.00168 0
M  V30 230 H 25.6362 -2.60638 3.88826 0
M  V30 231 H 25.8092 -3.39545 5.51918 0
M  V30 232 N 19.2153 -1.21501 -1.00376 0
M  V30 233 C 20.4433 -1.059 -1.77744 0
M  V30 234 C 20.8583 0.391125 -1.84704 0
M  V30 235 O 20.2153 1.27133 -1.30933 0
M  V30 236 C 20.2663 -1.65111 -3.21591 0
M  V30 237 O 19.9873 -3.0445 -3.15027 0
M  V30 238 C 21.4883 -1.54637 -4.15454 0
M  V30 239 H 18.7083 -0.371825 -0.558558 0
M  V30 240 H 21.2523 -1.60865 -1.26264 0
M  V30 241 H 19.4073 -1.14235 -3.70175 0
M  V30 242 H 19.8213 -3.3278 -4.0541 0
M  V30 243 H 21.2953 -2.00808 -5.14179 0
M  V30 244 H 21.7723 -0.501022 -4.36333 0
M  V30 245 H 22.3783 -2.04767 -3.72761 0
M  V30 246 N 20.6934 1.19889 -1.02296 0
M  V30 247 C 21.9404 1.8942 -0.715972 0
M  V30 248 C 22.2684 1.79251 0.754944 0
M  V30 249 O 21.5234 1.17526 1.56481 0
M  V30 250 C 21.8224 3.39883 -1.10518 0
M  V30 251 C 21.4884 3.70254 -2.57337 0
M  V30 252 C 20.1504 3.78254 -2.97452 0
M  V30 253 C 22.5024 3.84052 -3.52354 0
M  V30 254 C 19.8304 3.97514 -4.31509 0
M  V30 255 C 22.1824 4.04824 -4.86108 0
M  V30 256 C 20.8464 4.11054 -5.25919 0
M  V30 257 H 20.1164 0.693138 -0.261993 0
M  V30 258 H 22.7634 1.42012 -1.28472 0
M  V30 259 H 21.0684 3.8915 -0.454953 0
M  V30 260 H 22.7654 3.9199 -0.845261 0
M  V30 261 H 19.3554 3.64632 -2.25258 0
M  V30 262 H 23.5394 3.77221 -3.22518 0
M  V30 263 H 18.7954 4.00574 -4.61898 0
M  V30 264 H 22.9694 4.14442 -5.59653 0
M  V30 265 H 20.5964 4.2573 -6.29808 0
M  V30 266 N 22.1715 0.800033 1.35784 0
M  V30 267 C 23.1035 0.163596 2.28615 0
M  V30 268 C 24.1165 -0.633317 1.49976 0
M  V30 269 O 25.3055 -0.466754 1.72289 0
M  V30 270 C 22.4055 -0.790958 3.29541 0
M  V30 271 C 21.5785 -0.0418255 4.3738 0
M  V30 272 C 20.6375 -0.91389 5.18203 0
M  V30 273 O 19.6635 -0.367234 5.68014 0
M  V30 274 N 20.8655 -2.23682 5.35674 0
M  V30 275 H 23.6305 0.96105 2.83873 0
M  V30 276 H 21.1915 0.654894 1.48063 0
M  V30 277 H 23.1835 -1.37844 3.80501 0
M  V30 278 H 21.7535 -1.48925 2.74846 0
M  V30 279 H 20.9735 0.726813 3.87442 0
M  V30 280 H 22.2615 0.474719 5.06581 0
M  V30 281 H 21.6595 -2.70497 4.96838 0
M  V30 282 H 20.2165 -2.77369 5.89839 0
M  V30 283 N 23.6496 -1.47581 0.552962 0
M  V30 284 C 24.8796 -2.06575 0.0320091 0
M  V30 285 C 25.2876 -1.4067 -1.26525 0
M  V30 286 O 24.6306 -0.495808 -1.76883 0
M  V30 287 C 24.6926 -3.58705 -0.238913 0
M  V30 288 C 24.3566 -4.46625 0.968272 0
M  V30 289 C 25.3536 -4.85 1.87274 0
M  V30 290 C 23.0386 -4.88201 1.18175 0
M  V30 291 C 25.0326 -5.63745 2.9744 0
M  V30 292 C 22.7196 -5.66712 2.28651 0
M  V30 293 C 23.7176 -6.04394 3.18114 0
M  V30 294 O 23.4056 -6.81324 4.26676 0
M  V30 295 H 23.1376 -0.674763 0.0408689 0
M  V30 296 H 25.6916 -1.90634 0.764719 0
M  V30 297 H 23.9216 -3.72844 -1.02588 0
M  V30 298 H 25.6106 -3.99735 -0.704731 0
M  V30 299 H 26.3766 -4.53482 1.71984 0
M  V30 300 H 22.2556 -4.58339 0.494593 0
M  V30 301 H 25.7996 -5.93077 3.67296 0
M  V30 302 H 21.6966 -5.97642 2.43915 0
M  V30 303 H 22.4646 -6.99712 4.24671 0
M  V30 304 N 25.1277 -0.289203 -1.54924 0
M  V30 305 C 26.5437 0.0645403 -1.59469 0
M  V30 306 C 26.7437 1.53419 -1.30632 0
M  V30 307 O 25.7997 2.2852 -1.074 0
M  V30 308 C 27.1127 -0.32278 -2.98963 0
M  V30 309 C 28.6607 -0.270564 -3.11828 0
M  V30 310 C 29.1357 -0.632532 -4.53611 0
M  V30 311 N 30.6267 -0.584617 -4.59496 0
M  V30 312 C 31.3617 -0.837314 -5.67254 0
M  V30 313 N 30.8577 -1.15536 -6.83098 0
M  V30 314 N 32.6507 -0.765166 -5.56868 0
M  V30 315 H 24.8017 -1.24714 -1.71931 0
M  V30 316 H 27.0647 -0.504809 -0.802416 0
M  V30 317 H 26.7707 -1.34541 -3.24948 0
M  V30 318 H 26.6447 0.32944 -3.75759 0
M  V30 319 H 29.0317 0.742805 -2.85598 0
M  V30 320 H 29.1127 -0.957242 -2.37214 0
M  V30 321 H 28.7567 -1.64365 -4.80569 0
M  V30 322 H 28.6867 0.07609 -5.26545 0
M  V30 323 H 31.1777 -0.349248 -3.76283 0
M  V30 324 H 31.4907 -1.33447 -7.61191 0
M  V30 325 H 29.8357 -1.19328 -6.84679 0
M  V30 326 H 33.0267 -0.516432 -4.65243 0
M  V30 327 H 33.1997 -0.965477 -6.40767 0
M  V30 328 N 26.6058 1.57591 -0.0167156 0
M  V30 329 C 27.8538 1.90906 0.663285 0
M  V30 330 C 28.1748 0.892509 1.73376 0
M  V30 331 O 27.4448 -0.0677623 1.95783 0
M  V30 332 H 26.0248 0.704637 0.247983 0
M  V30 333 H 28.6868 1.94803 -0.0615909 0
M  V30 334 H 27.7828 2.9116 1.12393 0
M  V30 335 N 28.0839 -0.256276 1.55502 0
M  V30 336 C 29.3299 -0.987079 1.77157 0
M  V30 337 C 29.6629 -1.85327 0.580315 0
M  V30 338 O 28.9379 -1.89874 -0.421686 0
M  V30 339 C 29.2209 -1.85553 3.08613 0
M  V30 340 C 29.0739 -1.01816 4.38125 0
M  V30 341 C 30.3929 -2.8397 3.36228 0
M  V30 342 H 27.5119 -0.357428 0.644526 0
M  V30 343 H 30.1539 -0.258239 1.88237 0
M  V30 344 H 28.3039 -2.47695 2.99298 0
M  V30 345 H 29.9759 -0.416159 4.59419 0
M  V30 346 H 28.2189 -0.322178 4.32602 0
M  V30 347 H 28.8899 -1.65939 5.26468 0
M  V30 348 H 31.3659 -2.31964 3.45445 0
M  V30 349 H 30.2419 -3.41864 4.29442 0
M  V30 350 H 30.5029 -3.59955 2.56681 0
M  V30 351 N 29.562 -1.4872 -0.521534 0
M  V30 352 C 30.839 -1.4766 -1.2828 0
M  V30 353 C 31.219 -0.19292 -2.10217 0
M  V30 354 O 30.567 0.825193 -2.13079 0
M  V30 355 C 30.777 -2.74358 -2.15705 0
M  V30 356 C 32.125 -3.23028 -2.75569 0
M  V30 357 O 33.149 -2.75333 -2.25987 0
M  V30 358 O 32.008 -4.0604 -3.65778 0
M  V30 359 H 29.102 -0.590085 -0.579421 0
M  V30 360 H 31.648 -1.60963 -0.537492 0
M  V30 361 H 30.42 -3.59292 -1.54999 0
M  V30 362 H 30.043 -2.63816 -2.97467 0
M  V30 363 N 31.0401 0.771051 -1.3745 0
M  V30 364 C 31.9701 1.89827 -1.3597 0
M  V30 365 C 32.9511 1.68562 -0.228216 0
M  V30 366 O 34.1361 1.8941 -0.428675 0
M  V30 367 C 31.2661 3.2712 -1.16662 0
M  V30 368 C 30.2201 3.6295 -2.2683 0
M  V30 369 C 29.5461 4.98791 -1.92644 0
M  V30 370 C 30.8461 3.69627 -3.69017 0
M  V30 371 H 32.5401 1.91323 -2.30295 0
M  V30 372 H 30.0861 0.919082 -1.10855 0
M  V30 373 H 32.0391 4.05615 -1.14256 0
M  V30 374 H 30.7631 3.26059 -0.187926 0
M  V30 375 H 29.4221 2.86763 -2.28392 0
M  V30 376 H 29.0701 4.94271 -0.933021 0
M  V30 377 H 28.7701 5.23733 -2.66416 0
M  V30 378 H 30.2941 5.79685 -1.91826 0
M  V30 379 H 31.7081 4.38273 -3.69581 0
M  V30 380 H 30.1051 4.06067 -4.41848 0
M  V30 381 H 31.1751 2.70273 -4.02592 0
M  V30 382 N 32.5182 1.22032 0.997298 0
M  V30 383 C 33.7952 0.950823 1.70935 0
M  V30 384 C 34.1752 -0.535292 2.042 0
M  V30 385 O 33.5232 -1.50217 1.72183 0
M  V30 386 C 33.7332 1.84386 2.96315 0
M  V30 387 C 35.0812 2.09732 3.69185 0
M  V30 388 O 36.1052 1.81798 3.06314 0
M  V30 389 O 34.9642 2.57018 4.82291 0
M  V30 390 H 32.0582 0.357204 0.745878 0
M  V30 391 H 34.6042 1.32997 1.05404 0
M  V30 392 H 33.3762 2.84928 2.68201 0
M  V30 393 H 32.9992 1.46602 3.69586 0
M  V30 394 N 33.9963 -1.19345 1.0293 0
M  V30 395 C 34.9433 -2.2258 0.610464 0
M  V30 396 C 35.9133 -1.6179 -0.375946 0
M  V30 397 O 37.0983 -1.88844 -0.272511 0
M  V30 398 C 34.2383 -3.45085 -0.0321473 0
M  V30 399 C 33.3513 -4.20258 1.00035 0
M  V30 400 C 32.4863 -5.3019 0.32746 0
M  V30 401 C 31.5253 -5.97121 1.34584 0
M  V30 402 N 30.6623 -6.98615 0.698726 0
M  V30 403 H 35.5023 -2.57764 1.49538 0
M  V30 404 H 33.0393 -1.26644 0.748311 0
M  V30 405 H 34.9973 -4.15061 -0.421966 0
M  V30 406 H 33.6273 -3.10555 -0.88064 0
M  V30 407 H 32.6793 -3.49223 1.50823 0
M  V30 408 H 33.9913 -4.66175 1.77433 0
M  V30 409 H 33.1453 -6.06587 -0.11718 0
M  V30 410 H 31.8843 -4.85345 -0.478713 0
M  V30 411 H 30.8893 -5.19474 1.80074 0
M  V30 412 H 32.1143 -6.4405 2.15352 0
M  V30 413 H 30.0603 -6.55942 -0.0873471 0
M  V30 414 H 29.9773 -7.42724 1.41058 0
M  V30 415 H 31.2453 -7.79004 0.278102 0
M  V30 416 N 35.4744 -0.807222 -1.35358 0
M  V30 417 C 36.4044 -0.232509 -2.3234 0
M  V30 418 C 37.3854 0.642386 -1.57504 0
M  V30 419 O 38.5704 0.572526 -1.85569 0
M  V30 420 C 35.7004 0.619238 -3.41735 0
M  V30 421 C 34.6544 -0.157215 -4.27711 0
M  V30 422 C 33.9804 0.816273 -5.28433 0
M  V30 423 C 35.2804 -1.35656 -5.04376 0
M  V30 424 H 36.9744 -1.04276 -2.80654 0
M  V30 425 H 34.5204 -0.50288 -1.34934 0
M  V30 426 H 36.4734 1.03137 -4.08584 0
M  V30 427 H 35.1974 1.46239 -2.92031 0
M  V30 428 H 33.8564 -0.550525 -3.62443 0
M  V30 429 H 33.5044 1.65494 -4.74996 0
M  V30 430 H 33.2044 0.301067 -5.86828 0
M  V30 431 H 34.7284 1.22659 -5.98153 0
M  V30 432 H 36.1424 -1.01927 -5.64166 0
M  V30 433 H 34.5394 -1.8063 -5.7227 0
M  V30 434 H 35.6094 -2.14288 -4.34981 0
M  V30 435 N 36.9525 1.47285 -0.560781 0
M  V30 436 C 37.8825 2.32857 0.173105 0
M  V30 437 C 38.8635 1.44009 0.905281 0
M  V30 438 O 40.0485 1.7286 0.885046 0
M  V30 439 C 37.1785 3.25861 1.20133 0
M  V30 440 C 36.1325 4.23978 0.585388 0
M  V30 441 C 35.4585 5.06332 1.7185 0
M  V30 442 C 36.7585 5.20242 -0.463178 0
M  V30 443 H 38.4525 2.94466 -0.541307 0
M  V30 444 H 35.9985 1.41601 -0.261764 0
M  V30 445 H 37.9515 3.84569 1.72293 0
M  V30 446 H 36.6755 2.62315 1.94573 0
M  V30 447 H 35.3345 3.66501 0.085054 0
M  V30 448 H 34.9825 4.39186 2.45203 0
M  V30 449 H 34.6825 5.72762 1.31213 0
M  V30 450 H 36.2065 5.67899 2.24329 0
M  V30 451 H 37.6205 5.73293 -0.027502 0
M  V30 452 H 36.0175 5.94896 -0.788627 0
M  V30 453 H 37.0875 4.65504 -1.35773 0
M  V30 454 N 38.4306 0.297415 1.54768 0
M  V30 455 C 39.7076 -0.365847 1.92148 0
M  V30 456 C 40.0876 -1.71975 1.22424 0
M  V30 457 O 39.4356 -2.25666 0.358739 0
M  V30 458 C 39.6456 -0.484056 3.45627 0
M  V30 459 C 40.9936 -0.756594 4.17805 0
M  V30 460 O 42.0176 -0.568007 3.51642 0
M  V30 461 O 40.8766 -1.11863 5.34929 0
M  V30 462 H 37.9706 -0.203919 0.801465 0
M  V30 463 H 40.5166 0.34521 1.66152 0
M  V30 464 H 39.2886 0.467865 3.88493 0
M  V30 465 H 38.9116 -1.24372 3.77647 0
M  V30 466 N 39.9087 -1.5758 0.0250728 0
M  V30 467 C 40.8387 -2.13007 -0.956575 0
M  V30 468 C 41.8197 -1.0452 -1.342 0
M  V30 469 O 43.0047 -1.32332 -1.42133 0
M  V30 470 C 40.1347 -2.65386 -2.24026 0
M  V30 471 C 39.0887 -3.78623 -1.99571 0
M  V30 472 C 38.4147 -4.17414 -3.3417 0
M  V30 473 C 39.7147 -5.04867 -1.33814 0
M  V30 474 H 41.4087 -2.9528 -0.494991 0
M  V30 475 H 38.9547 -1.42042 -0.236651 0
M  V30 476 H 40.9077 -3.02794 -2.93076 0
M  V30 477 H 39.6317 -1.80268 -2.72343 0
M  V30 478 H 38.2907 -3.41646 -1.32941 0
M  V30 479 H 37.9387 -3.29284 -3.80238 0
M  V30 480 H 37.6387 -4.93719 -3.18615 0
M  V30 481 H 39.1627 -4.57402 -4.04495 0
M  V30 482 H 40.5767 -5.39888 -1.92857 0
M  V30 483 H 38.9737 -5.86144 -1.28669 0
M  V30 484 H 40.0437 -4.83904 -0.310561 0
M  V30 485 N 41.3868 0.248026 -1.55636 0
M  V30 486 C 42.6118 0.998028 -1.81808 0
M  V30 487 C 43.0368 1.78207 -0.601979 0
M  V30 488 O 42.3948 1.75653 0.448961 0
M  V30 489 C 42.4428 1.9125 -3.05705 0
M  V30 490 O 41.5468 3.00406 -2.82542 0
M  V30 491 H 40.8878 0.284045 -0.600179 0
M  V30 492 H 43.4178 0.269357 -2.02819 0
M  V30 493 H 43.4278 2.32737 -3.35108 0
M  V30 494 H 42.1028 1.33602 -3.93857 0
M  V30 495 H 40.6798 2.63056 -2.64303 0
M  V30 496 N 42.8649 1.48995 0.513639 0
M  V30 497 C 43.7969 1.60836 1.63293 0
M  V30 498 C 44.8099 0.491701 1.55197 0
M  V30 499 O 45.9989 0.763238 1.6136 0
M  V30 500 C 43.0989 1.53731 3.02027 0
M  V30 501 C 42.2719 2.80715 3.35437 0
M  V30 502 C 41.3309 2.66837 4.53525 0
M  V30 503 O 40.3569 3.40753 4.55934 0
M  V30 504 N 41.5589 1.77539 5.52684 0
M  V30 505 H 44.3239 2.57366 1.53566 0
M  V30 506 H 41.8849 1.45925 0.701259 0
M  V30 507 H 43.8769 1.42118 3.78926 0
M  V30 508 H 42.4469 0.651092 3.05744 0
M  V30 509 H 41.6669 3.06772 2.47557 0
M  V30 510 H 42.9549 3.64927 3.54551 0
M  V30 511 H 42.3529 1.16719 5.53528 0
M  V30 512 H 40.9099 1.71856 6.28736 0
M  V30 513 N 44.343 -0.763751 1.37857 0
M  V30 514 C 45.62 -1.51244 1.24035 0
M  V30 515 C 46 -2.10472 -0.162649 0
M  V30 516 O 45.348 -1.96206 -1.17112 0
M  V30 517 C 45.558 -2.58694 2.34261 0
M  V30 518 C 46.906 -3.25878 2.72193 0
M  V30 519 O 47.93 -2.68993 2.33497 0
M  V30 520 O 46.789 -4.2874 3.38887 0
M  V30 521 H 43.883 -0.670243 0.484462 0
M  V30 522 H 46.429 -0.800031 1.49658 0
M  V30 523 H 45.201 -2.13105 3.2818 0
M  V30 524 H 44.824 -3.37527 2.10146 0
M  V30 525 N 45.8211 -1.22559 -0.990812 0
M  V30 526 C 46.7311 -1.01394 -2.11557 0
M  V30 527 C 47.7471 0.0383962 -1.73958 0
M  V30 528 O 48.9231 -0.154787 -2.00804 0
M  V30 529 C 45.9881 -0.596569 -3.41529 0
M  V30 530 C 45.0491 -1.72276 -3.93217 0
M  V30 531 C 44.2821 -1.32521 -5.16985 0
M  V30 532 O 44.5051 -0.204909 -5.70032 0
M  V30 533 O 43.4391 -2.14247 -5.62478 0
M  V30 534 H 47.2651 -1.95633 -2.32296 0
M  V30 535 H 44.8501 -1.01172 -1.0993 0
M  V30 536 H 46.7321 -0.374263 -4.19735 0
M  V30 537 H 45.4071 0.316939 -3.22145 0
M  V30 538 H 44.3141 -1.99961 -3.16174 0
M  V30 539 H 45.6471 -2.61421 -4.17037 0
M  V30 540 N 47.2992 1.18797 -1.03562 0
M  V30 541 C 48.2292 2.24472 -0.643019 0
M  V30 542 C 49.2102 1.66433 0.351283 0
M  V30 543 O 50.3952 1.92803 0.232505 0
M  V30 544 C 47.5252 3.473 4.24935e-05 0
M  V30 545 C 46.4792 4.18055 -0.917257 0
M  V30 546 C 45.8052 5.34519 -0.138941 0
M  V30 547 C 47.1052 4.72109 -2.23407 0
M  V30 548 H 48.7992 2.57566 -1.52643 0
M  V30 549 H 46.3452 1.23806 -0.735394 0
M  V30 550 H 48.2982 4.20426 0.286383 0
M  V30 551 H 47.0222 3.13424 0.918299 0
M  V30 552 H 45.6812 3.46821 -1.1879 0
M  V30 553 H 45.3292 4.96891 0.781562 0
M  V30 554 H 45.0292 5.82794 -0.750005 0
M  V30 555 H 46.5532 6.10438 0.1405 0
M  V30 556 H 47.9672 5.36955 -2.00879 0
M  V30 557 H 46.3642 5.30897 -2.79765 0
M  V30 558 H 47.4342 3.89807 -2.88407 0
M  V30 559 N 48.7773 0.814389 1.34928 0
M  V30 560 C 50.0263 0.394871 1.97797 0
M  V30 561 C 50.3393 -1.04555 1.65311 0
M  V30 562 O 51.5453 -1.56856 2.21604 0
M  V30 563 C 50.0013 0.655103 3.53888 0
M  V30 564 C 49.6093 2.10858 3.95276 0
M  V30 565 C 51.3533 0.301329 4.23429 0
M  V30 566 C 49.2603 2.31415 5.44244 0
M  V30 567 H 48.1903 0.143913 0.740139 0
M  V30 568 H 50.8413 0.999544 1.53888 0
M  V30 569 H 49.2233 -0.0196253 3.95995 0
M  V30 570 H 50.3973 2.82176 3.64298 0
M  V30 571 H 48.7123 2.42297 3.38646 0
M  V30 572 H 51.3093 0.432869 5.32945 0
M  V30 573 H 51.6523 -0.75331 4.09428 0
M  V30 574 H 52.1853 0.930288 3.86769 0
M  V30 575 H 48.9243 3.35353 5.63222 0
M  V30 576 H 48.4443 1.6463 5.76764 0
M  V30 577 H 50.1233 2.13352 6.10811 0
M  V30 578 N 50.2554 -1.46986 0.568584 0
M  V30 579 C 51.2024 -2.30153 -0.172707 0
M  V30 580 C 52.1724 -1.39759 -0.897586 0
M  V30 581 O 53.3574 -1.68716 -0.891044 0
M  V30 582 C 50.4974 -3.23952 -1.1895 0
M  V30 583 C 49.6104 -4.29441 -0.469517 0
M  V30 584 C 48.7454 -5.1038 -1.47259 0
M  V30 585 C 47.7844 -6.07632 -0.738225 0
M  V30 586 N 46.9214 -6.8149 -1.68868 0
M  V30 587 H 51.7614 -2.93019 0.542596 0
M  V30 588 H 49.2984 -1.44422 0.279401 0
M  V30 589 H 51.2564 -3.76767 -1.79173 0
M  V30 590 H 49.8864 -2.62926 -1.87269 0
M  V30 591 H 48.9384 -3.79594 0.247467 0
M  V30 592 H 50.2504 -4.98689 0.105241 0
M  V30 593 H 49.4044 -5.67402 -2.14803 0
M  V30 594 H 48.1434 -4.4106 -2.08128 0
M  V30 595 H 47.1484 -5.49778 -0.0489293 0
M  V30 596 H 48.3734 -6.78966 -0.135129 0
M  V30 597 H 46.3194 -6.14891 -2.28573 0
M  V30 598 H 46.2364 -7.46948 -1.16636 0
M  V30 599 H 47.5044 -7.43078 -2.3549 0
M  V30 600 N 51.7335 -0.305618 -1.54608 0
M  V30 601 C 52.6635 0.561482 -2.26649 0
M  V30 602 C 53.6445 1.13415 -1.26772 0
M  V30 603 O 54.8295 1.16262 -1.55553 0
M  V30 604 C 51.9595 1.73122 -3.01075 0
M  V30 605 C 50.9135 1.2887 -4.08138 0
M  V30 606 C 50.2395 2.54396 -4.70305 0
M  V30 607 C 51.5395 0.416578 -5.20636 0
M  V30 608 H 53.2335 -0.0393902 -2.99374 0
M  V30 609 H 50.7795 -0.020385 -1.43986 0
M  V30 610 H 52.7325 2.34396 -3.50195 0
M  V30 611 H 51.4565 2.3584 -2.25936 0
M  V30 612 H 50.1155 0.698991 -3.59875 0
M  V30 613 H 49.7635 3.15439 -3.918 0
M  V30 614 H 49.4635 2.25486 -5.42614 0
M  V30 615 H 50.9875 3.16464 -5.2219 0
M  V30 616 H 52.4015 0.935116 -5.65622 0
M  V30 617 H 50.7985 0.221046 -5.99693 0
M  V30 618 H 51.8685 -0.557162 -4.81688 0
M  V30 619 N 53.2116 1.57565 -0.0334293 0
M  V30 620 C 54.4586 1.91978 0.644272 0
M  V30 621 C 54.7866 0.910231 1.71887 0
M  V30 622 O 54.0416 -0.0801961 1.95536 0
M  V30 623 C 54.3406 3.33112 1.29504 0
M  V30 624 C 54.0066 4.49537 0.350388 0
M  V30 625 C 52.6686 4.81115 0.0903974 0
M  V30 626 C 55.0206 5.20347 -0.298032 0
M  V30 627 C 52.3486 5.8086 -0.825746 0
M  V30 628 C 54.7006 6.2107 -1.20226 0
M  V30 629 C 53.3646 6.51088 -1.4711 0
M  V30 630 H 52.6346 0.702496 0.235756 0
M  V30 631 H 55.2816 1.91259 -0.0961176 0
M  V30 632 H 53.5866 3.30113 2.11028 0
M  V30 633 H 55.2836 3.57011 1.82603 0
M  V30 634 H 51.8736 4.24883 0.563205 0
M  V30 635 H 56.0576 4.96178 -0.110234 0
M  V30 636 H 51.3136 6.02461 -1.04169 0
M  V30 637 H 55.4876 6.75057 -1.71086 0
M  V30 638 H 53.1146 7.28193 -2.18264 0
M  V30 639 N 54.6897 -0.239769 1.55765 0
M  V30 640 C 55.6367 -1.29696 1.90913 0
M  V30 641 C 56.6067 -1.47478 0.764164 0
M  V30 642 O 57.7917 -1.61345 1.01845 0
M  V30 643 C 54.9317 -2.64598 2.21544 0
M  V30 644 C 54.0447 -2.54765 3.48882 0
M  V30 645 C 53.1797 -3.82069 3.69049 0
M  V30 646 C 52.2187 -3.66883 4.89963 0
M  V30 647 N 51.3557 -4.86094 5.06614 0
M  V30 648 H 56.1957 -0.990224 2.81067 0
M  V30 649 H 53.7327 -0.477684 1.39128 0
M  V30 650 H 55.6907 -3.43132 2.3731 0
M  V30 651 H 54.3207 -2.93405 1.34585 0
M  V30 652 H 53.3727 -1.67763 3.41409 0
M  V30 653 H 54.6847 -2.39457 4.37563 0
M  V30 654 H 53.8387 -4.69046 3.84812 0
M  V30 655 H 52.5777 -4.00282 2.78614 0
M  V30 656 H 51.5827 -2.78289 4.74168 0
M  V30 657 H 52.8077 -3.50157 5.81865 0
M  V30 658 H 50.7537 -5.04655 4.19117 0
M  V30 659 H 50.6707 -4.73443 5.89396 0
M  V30 660 H 51.9387 -5.74549 5.26795 0
M  V30 661 N 56.1678 -1.49265 -0.50573 0
M  V30 662 C 57.1308 -1.65075 -1.59006 0
M  V30 663 C 58.1308 -0.522768 -1.52065 0
M  V30 664 O 59.3208 -0.789117 -1.55302 0
M  V30 665 C 56.4528 -1.64369 -2.98656 0
M  V30 666 H 57.6458 -2.61784 -1.46319 0
M  V30 667 H 55.1988 -1.38226 -0.729616 0
M  V30 668 H 55.9338 -0.692272 -3.16825 0
M  V30 669 H 55.7188 -2.46282 -3.05103 0
M  V30 670 H 57.2088 -1.78674 -3.77446 0
M  V30 671 N 57.6459 0.756429 -1.3826 0
M  V30 672 C 59.0619 1.0591 -1.19395 0
M  V30 673 C 59.2619 2.01459 -0.0406567 0
M  V30 674 O 58.3179 2.44909 0.614467 0
M  V30 675 C 59.6309 1.64191 -2.51916 0
M  V30 676 C 61.1789 1.76376 -2.58574 0
M  V30 677 C 61.6539 2.38069 -3.91264 0
M  V30 678 N 63.1449 2.45503 -3.92788 0
M  V30 679 C 63.8799 2.94126 -4.92217 0
M  V30 680 N 63.3759 3.42805 -6.02043 0
M  V30 681 N 65.1689 2.9314 -4.7961 0
M  V30 682 H 57.3199 0.122313 -2.12048 0
M  V30 683 H 59.5829 0.116892 -0.940766 0
M  V30 684 H 59.2889 1.01451 -3.3675 0
M  V30 685 H 59.1629 2.6329 -2.70108 0
M  V30 686 H 61.5499 2.38244 -1.74137 0
M  V30 687 H 61.6309 0.759894 -2.44252 0
M  V30 688 H 61.2749 1.76835 -4.76121 0
M  V30 689 H 61.2049 3.39091 -4.02895 0
M  V30 690 H 63.6959 2.1107 -3.13461 0
M  V30 691 H 64.0089 3.78354 -6.73846 0
M  V30 692 H 62.3539 3.4087 -6.05667 0
M  V30 693 H 65.5449 2.54419 -3.92923 0
M  V30 694 H 65.7179 3.30721 -5.5725 0
M  V30 695 N 59.124 1.23083 0.984299 0
M  V30 696 C 60.056 0.96636 2.07832 0
M  V30 697 C 61.069 -0.0582135 1.62696 0
M  V30 698 O 62.258 0.176843 1.77622 0
M  V30 699 C 59.358 0.433397 3.36117 0
M  V30 700 C 58.531 1.51722 4.10243 0
M  V30 701 C 57.59 0.989821 5.16807 0
M  V30 702 O 56.616 1.67794 5.43906 0
M  V30 703 N 57.818 -0.184367 5.80207 0
M  V30 704 H 60.583 1.90824 2.31098 0
M  V30 705 H 58.144 1.13888 1.1507 0
M  V30 706 H 60.136 0.065699 4.04647 0
M  V30 707 H 58.706 -0.413806 3.09849 0
M  V30 708 H 57.926 2.05786 3.36223 0
M  V30 709 H 59.214 2.24619 4.56534 0
M  V30 710 H 58.612 -0.760062 5.60571 0
M  V30 711 H 57.169 -0.493366 6.4993 0
M  V30 712 N 60.6021 -1.18246 1.0419 0
M  V30 713 C 62.0181 -1.40269 0.761366 0
M  V30 714 C 62.2181 -1.90777 -0.648578 0
M  V30 715 O 61.2741 -2.0929 -1.41258 0
M  V30 716 C 62.5871 -2.40237 1.8085 0
M  V30 717 C 64.1351 -2.53961 1.82955 0
M  V30 718 C 64.6101 -3.57194 2.86664 0
M  V30 719 N 66.1011 -3.64702 2.85563 0
M  V30 720 C 66.8361 -4.44309 3.6246 0
M  V30 721 N 66.3321 -5.27514 4.49111 0
M  V30 722 N 68.1251 -4.39084 3.50944 0
M  V30 723 H 60.2761 -0.837882 1.95175 0
M  V30 724 H 62.5391 -0.430608 0.84456 0
M  V30 725 H 62.2451 -2.10176 2.81991 0
M  V30 726 H 62.1191 -3.39601 1.64168 0
M  V30 727 H 64.5061 -2.83338 0.824855 0
M  V30 728 H 64.5871 -1.54706 2.03715 0
M  V30 729 H 64.2311 -3.28558 3.87314 0
M  V30 730 H 64.1611 -4.5613 2.6316 0
M  V30 731 H 66.6521 -3.05289 2.22727 0
M  V30 732 H 66.9651 -5.85411 5.04493 0
M  V30 733 H 65.3101 -5.2693 4.53178 0
M  V30 734 H 68.5011 -3.7313 2.82651 0
M  V30 735 H 68.6741 -5.00883 4.11121 0
M  V30 736 N 62.0802 -0.821533 -1.34494 0
M  V30 737 C 63.4962 -0.507117 -1.51329 0
M  V30 738 C 63.6962 0.968964 -1.76673 0
M  V30 739 O 62.7522 1.75348 -1.81685 0
M  V30 740 C 64.0652 -1.36544 -2.67911 0
M  V30 741 C 65.6132 -1.36242 -2.81793 0
M  V30 742 C 66.0882 -2.2052 -4.01416 0
M  V30 743 N 67.5792 -2.18136 -4.08621 0
M  V30 744 C 68.3142 -2.80095 -5.00334 0
M  V30 745 N 67.8102 -3.51039 -5.9728 0
M  V30 746 N 69.6032 -2.69656 -4.93196 0
M  V30 747 H 61.7542 -1.77729 -1.16302 0
M  V30 748 H 64.0172 -0.757291 -0.570276 0
M  V30 749 H 63.7232 -2.41361 -2.55808 0
M  V30 750 H 63.5972 -1.02917 -3.62888 0
M  V30 751 H 65.9842 -0.322041 -2.93338 0
M  V30 752 H 66.0652 -1.73866 -1.87628 0
M  V30 753 H 65.7092 -3.24607 -3.90631 0
M  V30 754 H 65.6392 -1.80247 -4.94791 0
M  V30 755 H 68.1302 -1.6653 -3.39229 0
M  V30 756 H 68.4432 -3.95565 -6.63889 0
M  V30 757 H 66.7882 -3.55145 -5.97409 0
M  V30 758 H 69.9792 -2.13808 -4.16418 0
M  V30 759 H 70.1522 -3.1823 -5.64476 0
M  V30 760 N 63.5583 1.46682 -0.576371 0
M  V30 761 C 64.5053 2.30241 0.160499 0
M  V30 762 C 65.4753 1.40233 0.890162 0
M  V30 763 O 66.6603 1.69186 0.882084 0
M  V30 764 C 63.8003 3.24578 1.1723 0
M  V30 765 C 62.9133 4.29684 0.446736 0
M  V30 766 C 62.0483 5.11154 1.44551 0
M  V30 767 C 61.0873 6.08015 0.70599 0
M  V30 768 N 60.2243 6.82376 1.65251 0
M  V30 769 H 65.0643 2.92727 -0.558127 0
M  V30 770 H 62.6013 1.44272 -0.287056 0
M  V30 771 H 64.5593 3.77711 1.77172 0
M  V30 772 H 63.1893 2.63916 1.85872 0
M  V30 773 H 62.2413 3.79458 -0.267594 0
M  V30 774 H 63.5533 4.98626 -0.131686 0
M  V30 775 H 62.7073 5.68533 2.11791 0
M  V30 776 H 61.4463 4.42158 2.05786 0
M  V30 777 H 60.4513 5.49796 0.0197725 0
M  V30 778 H 61.6763 6.79028 0.09912 0
M  V30 779 H 59.6223 6.16094 2.25308 0
M  V30 780 H 59.5393 7.47556 1.12673 0
M  V30 781 H 60.8073 7.44316 2.31546 0
M  V30 782 N 65.0364 0.313813 1.54444 0
M  V30 783 C 66.2834 -0.291675 2.00388 0
M  V30 784 C 66.6114 -1.52904 1.2021 0
M  V30 785 O 65.8664 -1.93833 0.269707 0
M  V30 786 C 66.1654 -0.680386 3.50864 0
M  V30 787 C 65.8314 0.456699 4.48581 0
M  V30 788 C 64.4934 0.768824 4.75018 0
M  V30 789 C 66.8454 1.22098 5.06697 0
M  V30 790 C 64.1734 1.84812 5.56831 0
M  V30 791 C 66.5254 2.29029 5.89685 0
M  V30 792 C 65.1894 2.60834 6.14428 0
M  V30 793 H 64.4594 -0.106732 0.733273 0
M  V30 794 H 67.1064 0.43557 1.86481 0
M  V30 795 H 65.4114 -1.48791 3.62448 0
M  V30 796 H 67.1084 -1.16026 3.83847 0
M  V30 797 H 63.6984 0.203337 4.28117 0
M  V30 798 H 67.8824 0.993096 4.86263 0
M  V30 799 H 63.1384 2.09912 5.74236 0
M  V30 800 H 67.3124 2.887 6.33739 0
M  V30 801 H 64.9394 3.44596 6.77612 0
M  V30 802 N 66.5145 -1.57545 0.0417849 0
M  V30 803 C 67.4465 -2.07904 -0.964799 0
M  V30 804 C 68.4595 -1.00497 -1.28079 0
M  V30 805 O 69.6485 -1.28087 -1.24322 0
M  V30 806 C 66.7485 -2.49928 -2.28887 0
M  V30 807 C 65.9215 -3.80562 -2.15619 0
M  V30 808 C 64.9805 -4.08999 -3.31069 0
M  V30 809 O 64.0065 -4.79061 -3.0739 0
M  V30 810 N 65.2085 -3.6017 -4.55256 0
M  V30 811 H 67.9735 -2.94886 -0.535029 0
M  V30 812 H 65.5345 -1.61252 -0.144681 0
M  V30 813 H 67.5265 -2.66034 -3.04972 0
M  V30 814 H 66.0965 -1.68245 -2.63463 0
M  V30 815 H 65.3165 -3.74129 -1.24183 0
M  V30 816 H 66.6045 -4.66126 -2.03971 0
M  V30 817 H 66.0025 -3.03512 -4.77386 0
M  V30 818 H 64.5595 -3.81532 -5.28466 0
M  V30 819 N 67.9926 0.231505 -1.5589 0
M  V30 820 C 69.4086 0.580748 -1.48659 0
M  V30 821 C 69.6086 1.87617 -0.73498 0
M  V30 822 O 68.6646 2.51046 -0.270586 0
M  V30 823 C 69.9776 0.669202 -2.93159 0
M  V30 824 C 71.5256 0.760499 -3.03621 0
M  V30 825 C 72.0006 0.880383 -4.49459 0
M  V30 826 N 73.4916 0.944861 -4.53461 0
M  V30 827 C 74.2266 1.05716 -5.63571 0
M  V30 828 N 73.7226 1.13403 -6.83456 0
M  V30 829 N 75.5156 1.09152 -5.514 0
M  V30 830 H 67.6666 -0.618695 -2.03189 0
M  V30 831 H 69.9296 -0.215728 -0.923128 0
M  V30 832 H 69.6356 -0.212904 -3.51055 0
M  V30 833 H 69.5096 1.5361 -3.44505 0
M  V30 834 H 71.8966 1.63305 -2.45796 0
M  V30 835 H 71.9776 -0.131864 -2.5546 0
M  V30 836 H 71.6216 0.0123284 -5.07899 0
M  V30 837 H 71.5516 1.78802 -4.95316 0
M  V30 838 H 74.0426 0.896176 -3.6712 0
M  V30 839 H 74.3556 1.21921 -7.63122 0
M  V30 840 H 72.7006 1.10333 -6.86186 0
M  V30 841 H 75.8916 1.02805 -4.56671 0
M  V30 842 H 76.0646 1.17558 -6.37247 0
M  V30 843 N 69.4707 1.49531 0.497807 0
M  V30 844 C 70.7187 1.58865 1.24926 0
M  V30 845 C 71.0397 0.278721 1.92998 0
M  V30 846 O 70.3097 -0.702144 1.82885 0
M  V30 847 H 68.8897 0.585343 0.464094 0
M  V30 848 H 71.5517 1.86174 0.57666 0
M  V30 849 H 70.6477 2.38633 2.01149 0
M  V30 850 N 70.9488 -0.749086 1.3866 0
M  V30 851 C 72.1978 -1.50371 1.3443 0
M  V30 852 C 72.5108 -1.95503 -0.0616397 0
M  V30 853 O 73.7168 -2.70554 -0.226489 0
M  V30 854 C 72.1728 -2.71644 2.36088 0
M  V30 855 C 71.7808 -2.3352 3.82325 0
M  V30 856 C 73.5248 -3.49518 2.40909 0
M  V30 857 C 71.4318 -3.51431 4.75658 0
M  V30 858 H 70.3618 -0.564628 0.499712 0
M  V30 859 H 73.0128 -0.818449 1.64237 0
M  V30 860 H 71.3948 -3.42175 1.9933 0
M  V30 861 H 72.5688 -1.70627 4.28046 0
M  V30 862 H 70.8838 -1.6877 3.80665 0
M  V30 863 H 73.4808 -4.37197 3.07836 0
M  V30 864 H 73.8238 -3.90992 1.42937 0
M  V30 865 H 74.3568 -2.86005 2.76489 0
M  V30 866 H 71.0958 -3.15019 5.74842 0
M  V30 867 H 70.6158 -4.13352 4.34627 0
M  V30 868 H 72.2948 -4.17953 4.93887 0
M  V30 869 N 72.4269 -1.23603 -0.977757 0
M  V30 870 C 73.6519 -1.09735 -1.75991 0
M  V30 871 C 74.0769 0.346858 -1.84874 0
M  V30 872 O 73.4349 1.25093 -1.3123 0
M  V30 873 C 73.4829 -1.73051 -3.16363 0
M  V30 874 O 72.5869 -0.994452 -4.0023 0
M  V30 875 H 71.9279 -0.384476 -0.541364 0
M  V30 876 H 74.4579 -1.6371 -1.2272 0
M  V30 877 H 74.4679 -1.78398 -3.66931 0
M  V30 878 H 73.1429 -2.78137 -3.09213 0
M  V30 879 H 71.7199 -1.01812 -3.58732 0
M  V30 880 N 73.905 1.17692 -1.04816 0
M  V30 881 C 74.852 2.21581 -0.645797 0
M  V30 882 C 75.822 1.62367 0.350159 0
M  V30 883 O 77.007 1.89254 0.242433 0
M  V30 884 C 74.147 3.45092 -0.0227568 0
M  V30 885 C 73.26 4.18613 -1.06709 0
M  V30 886 C 72.395 5.29602 -0.411767 0
M  V30 887 C 71.434 5.94904 -1.44067 0
M  V30 888 N 70.571 6.97414 -0.809781 0
M  V30 889 H 75.411 2.55353 -1.5362 0
M  V30 890 H 72.948 1.25438 -0.768364 0
M  V30 891 H 74.906 4.15679 0.35588 0
M  V30 892 H 73.536 3.11917 0.831122 0
M  V30 893 H 72.588 3.46779 -1.5636 0
M  V30 894 H 73.9 4.63293 -1.84827 0
M  V30 895 H 73.054 6.06696 0.0206623 0
M  V30 896 H 71.793 4.86045 0.401438 0
M  V30 897 H 70.798 5.16544 -1.88316 0
M  V30 898 H 72.023 6.40542 -2.25571 0
M  V30 899 H 69.969 6.55998 -0.0170186 0
M  V30 900 H 69.886 7.40386 -1.52856 0
M  V30 901 H 71.154 7.78463 -0.401999 0
M  V30 902 N 75.3831 0.828654 1.34056 0
M  V30 903 C 76.3301 0.252567 2.29414 0
M  V30 904 C 77.3001 -0.62588 1.53857 0
M  V30 905 O 78.4851 -0.566312 1.82202 0
M  V30 906 C 75.6251 -0.574831 3.40279 0
M  V30 907 C 74.7381 0.326499 4.30764 0
M  V30 908 C 73.8731 -0.511016 5.28736 0
M  V30 909 C 72.9121 0.389342 6.1086 0
M  V30 910 N 72.0491 -0.409439 7.00905 0
M  V30 911 H 76.8891 1.07108 2.78086 0
M  V30 912 H 74.4261 0.539677 1.36843 0
M  V30 913 H 76.3841 -1.06992 4.03248 0
M  V30 914 H 75.0141 -1.35841 2.92826 0
M  V30 915 H 74.0661 0.939837 3.68607 0
M  V30 916 H 75.3781 1.01857 4.88289 0
M  V30 917 H 74.5321 -1.07035 5.97184 0
M  V30 918 H 73.2711 -1.23657 4.71763 0
M  V30 919 H 72.2761 0.960769 5.4134 0
M  V30 920 H 73.5011 1.1131 6.69916 0
M  V30 921 H 71.4471 -1.11856 6.46393 0
M  V30 922 H 71.3641 0.224126 7.55668 0
M  V30 923 H 72.6321 -0.951336 7.73673 0
M  V30 924 N 76.8612 -1.46375 0.584142 0
M  V30 925 C 77.8242 -2.28784 -0.138108 0
M  V30 926 C 78.8242 -1.38471 -0.817462 0
M  V30 927 O 80.0142 -1.60833 -0.669199 0
M  V30 928 C 77.1462 -3.18892 -1.20503 0
M  V30 929 H 78.3392 -2.94117 0.586127 0
M  V30 930 H 75.8922 -1.52509 0.342171 0
M  V30 931 H 76.6272 -2.58309 -1.96079 0
M  V30 932 H 76.4122 -3.85388 -0.722384 0
M  V30 933 H 77.9022 -3.80914 -1.71155 0
M  V30 934 N 78.3393 -0.321999 -1.54275 0
M  V30 935 C 79.2863 0.544664 -2.24281 0
M  V30 936 C 80.2563 1.1129 -1.23303 0
M  V30 937 O 81.4413 1.15354 -1.51981 0
M  V30 938 C 78.5813 1.70045 -3.00298 0
M  V30 939 C 77.6943 1.16159 -4.1609 0
M  V30 940 C 76.8293 2.28293 -4.79641 0
M  V30 941 C 75.8683 1.71648 -5.8754 0
M  V30 942 N 75.0053 2.77438 -6.44959 0
M  V30 943 H 79.8453 -0.0588907 -2.97942 0
M  V30 944 H 77.3823 -0.0408345 -1.47043 0
M  V30 945 H 79.3403 2.38054 -3.42616 0
M  V30 946 H 77.9703 2.27531 -2.28975 0
M  V30 947 H 77.0223 0.373092 -3.78566 0
M  V30 948 H 78.3343 0.707087 -4.93763 0
M  V30 949 H 77.4883 3.0421 -5.2492 0
M  V30 950 H 76.2273 2.77079 -4.01346 0
M  V30 951 H 75.2323 0.942282 -5.41665 0
M  V30 952 H 76.4573 1.23741 -6.67731 0
M  V30 953 H 74.4033 3.25519 -5.69538 0
M  V30 954 H 74.3203 2.36547 -7.1804 0
M  V30 955 H 75.5883 3.53189 -6.94894 0
M  V30 956 N 79.8174 1.5752 -0.0501392 0
M  V30 957 C 81.0424 1.97376 0.636997 0
M  V30 958 C 81.4674 0.927466 1.63645 0
M  V30 959 O 80.8254 -0.10941 1.8097 0
M  V30 960 C 80.8734 3.36304 1.30123 0
M  V30 961 O 79.9774 3.34156 2.41689 0
M  V30 962 H 79.3184 0.642998 0.165679 0
M  V30 963 H 81.8484 2.04258 -0.118233 0
M  V30 964 H 81.8584 3.73008 1.65315 0
M  V30 965 H 80.5334 4.11993 0.568746 0
M  V30 966 H 79.1104 3.09196 2.08451 0
M  V30 967 N 81.2955 -0.223234 1.56011 0
M  V30 968 C 82.2255 -1.27988 1.95298 0
M  V30 969 C 83.2065 -1.48976 0.820979 0
M  V30 970 O 84.3915 -1.61188 1.08315 0
M  V30 971 C 81.5215 -2.63 2.26822 0
M  V30 972 C 80.4755 -2.56671 3.42497 0
M  V30 973 C 79.8015 -3.95697 3.59622 0
M  V30 974 C 81.1015 -2.11601 4.77517 0
M  V30 975 H 82.7955 -0.953525 2.8381 0
M  V30 976 H 80.3415 -0.457244 1.36548 0
M  V30 977 H 82.2945 -3.37077 2.52898 0
M  V30 978 H 81.0185 -2.9732 1.35161 0
M  V30 979 H 79.6775 -1.85051 3.16467 0
M  V30 980 H 79.3255 -4.27322 2.6534 0
M  V30 981 H 79.0255 -3.92345 4.37424 0
M  V30 982 H 80.5495 -4.71438 3.88044 0
M  V30 983 H 81.9635 -2.7542 5.02809 0
M  V30 984 H 80.3605 -2.19311 5.5859 0
M  V30 985 H 81.4305 -1.06824 4.72987 0
M  V30 986 N 82.7736 -1.49793 -0.48987 0
M  V30 987 C 83.7036 -1.70201 -1.59856 0
M  V30 988 C 84.6846 -0.55076 -1.60937 0
M  V30 989 O 85.8696 -0.787841 -1.77501 0
M  V30 990 C 82.9996 -1.77882 -2.98287 0
M  V30 991 C 81.9536 -2.92907 -3.12073 0
M  V30 992 C 81.2796 -2.85712 -4.51965 0
M  V30 993 C 82.5796 -4.3369 -2.91051 0
M  V30 994 H 84.2736 -2.63025 -1.43032 0
M  V30 995 H 81.8196 -1.26574 -0.686664 0
M  V30 996 H 83.7726 -1.90744 -3.75759 0
M  V30 997 H 82.4966 -0.816653 -3.16225 0
M  V30 998 H 81.1556 -2.79665 -2.37029 0
M  V30 999 H 80.8036 -1.8738 -4.66795 0
M  V30 1000 H 80.5036 -3.62921 -4.62128 0
M  V30 1001 H 82.0276 -3.00598 -5.31482 0
M  V30 1002 H 83.4416 -4.47555 -3.58284 0
M  V30 1003 H 81.8386 -5.12205 -3.12675 0
M  V30 1004 H 82.9086 -4.47362 -1.87071 0
M  V30 1005 N 84.2517 0.741722 -1.39055 0
M  V30 1006 C 85.1987 1.85566 -1.37237 0
M  V30 1007 C 86.1687 1.64457 -0.233072 0
M  V30 1008 O 87.3537 1.85957 -0.427147 0
M  V30 1009 C 84.4937 3.23004 -1.215 0
M  V30 1010 C 83.6067 3.55864 -2.44918 0
M  V30 1011 C 82.7417 4.82669 -2.21821 0
M  V30 1012 C 81.7807 5.08351 -3.40948 0
M  V30 1013 N 80.9177 6.26356 -3.17211 0
M  V30 1014 H 85.7577 1.86455 -2.32462 0
M  V30 1015 H 83.2947 0.911176 -1.15482 0
M  V30 1016 H 85.2527 4.02331 -1.10389 0
M  V30 1017 H 83.8827 3.21411 -0.29908 0
M  V30 1018 H 82.9347 2.7129 -2.66657 0
M  V30 1019 H 84.2467 3.70765 -3.33668 0
M  V30 1020 H 83.4007 5.69962 -2.07914 0
M  V30 1021 H 82.1397 4.69929 -1.30454 0
M  V30 1022 H 81.1447 4.19522 -3.55361 0
M  V30 1023 H 82.3697 5.22981 -4.33207 0
M  V30 1024 H 80.3157 6.14917 -2.28502 0
M  V30 1025 H 80.2327 6.41813 -3.99515 0
M  V30 1026 H 81.5007 7.16506 -3.06984 0
M  V30 1027 N 85.7298 1.2412 0.971189 0
M  V30 1028 C 86.6768 1.0305 2.06517 0
M  V30 1029 C 87.6468 -0.0550666 1.66009 0
M  V30 1030 O 88.8318 0.0988688 1.90544 0
M  V30 1031 C 85.9718 0.637653 3.39158 0
M  V30 1032 C 85.0848 1.79633 3.92882 0
M  V30 1033 C 84.2198 1.34939 5.13775 0
M  V30 1034 C 83.2588 2.47823 5.59687 0
M  V30 1035 N 82.3958 2.04022 6.71803 0
M  V30 1036 H 87.2358 1.96685 2.23873 0
M  V30 1037 H 84.7728 0.979694 1.09729 0
M  V30 1038 H 86.7308 0.390931 4.15364 0
M  V30 1039 H 85.3608 -0.261693 3.21737 0
M  V30 1040 H 84.4128 2.15681 3.13346 0
M  V30 1041 H 85.7248 2.64466 4.22918 0
M  V30 1042 H 84.8788 1.06134 5.97345 0
M  V30 1043 H 83.6178 0.471557 4.85415 0
M  V30 1044 H 82.6228 2.77392 4.74693 0
M  V30 1045 H 83.8478 3.36158 5.90063 0
M  V30 1046 H 81.7938 1.18632 6.45184 0
M  V30 1047 H 81.7108 2.82409 7.01271 0
M  V30 1048 H 82.9788 1.78347 7.58823 0
M  V30 1049 N 87.2079 -1.17134 1.05439 0
M  V30 1050 C 88.4569 -1.86791 0.761049 0
M  V30 1051 C 88.7699 -1.82072 -0.714795 0
M  V30 1052 O 89.9759 -2.47223 -1.12218 0
M  V30 1053 C 88.4319 -3.35166 1.31117 0
M  V30 1054 C 88.0399 -3.48381 2.81664 0
M  V30 1055 C 89.7839 -4.10134 1.09499 0
M  V30 1056 C 87.6909 -4.90793 3.29964 0
M  V30 1057 H 86.6209 -0.699681 0.281002 0
M  V30 1058 H 89.2719 -1.3226 1.27199 0
M  V30 1059 H 87.6539 -3.8925 0.72803 0
M  V30 1060 H 88.8279 -3.04502 3.45855 0
M  V30 1061 H 87.1429 -2.86836 3.01851 0
M  V30 1062 H 89.7399 -5.152 1.43084 0
M  V30 1063 H 90.0829 -4.16287 0.0328772 0
M  V30 1064 H 90.6159 -3.62264 1.64346 0
M  V30 1065 H 87.3549 -4.89816 4.35616 0
M  V30 1066 H 86.8749 -5.35333 2.70516 0
M  V30 1067 H 88.5539 -5.59573 3.24787 0
M  V30 1068 N 88.686 -0.835752 -1.33615 0
M  V30 1069 C 90.102 -0.523139 -1.50783 0
M  V30 1070 C 90.302 0.950171 -1.77691 0
M  V30 1071 O 89.358 1.73411 -1.83534 0
M  V30 1072 C 90.671 -1.39378 -2.66448 0
M  V30 1073 C 92.219 -1.39223 -2.80332 0
M  V30 1074 C 92.694 -2.24765 -3.99055 0
M  V30 1075 N 94.185 -2.22458 -4.06284 0
M  V30 1076 C 94.92 -2.85386 -4.97336 0
M  V30 1077 N 94.416 -3.57354 -5.93523 0
M  V30 1078 N 96.209 -2.74872 -4.90308 0
M  V30 1079 H 88.36 -1.78952 -1.14411 0
M  V30 1080 H 90.623 -0.763297 -0.562212 0
M  V30 1081 H 90.329 -2.44061 -2.53234 0
M  V30 1082 H 90.203 -1.0676 -3.61776 0
M  V30 1083 H 92.59 -0.353136 -2.92979 0
M  V30 1084 H 92.671 -1.75846 -1.85773 0
M  V30 1085 H 92.315 -3.28732 -3.87167 0
M  V30 1086 H 92.245 -1.85485 -4.92852 0
M  V30 1087 H 94.736 -1.70119 -3.37443 0
M  V30 1088 H 95.049 -4.02584 -6.59656 0
M  V30 1089 H 93.394 -3.61461 -5.93608 0
M  V30 1090 H 96.585 -2.18213 -4.14126 0
M  V30 1091 H 96.758 -3.24199 -5.61069 0
M  V30 1092 N 90.1641 1.46063 -0.591896 0
M  V30 1093 C 91.1111 2.30399 0.136069 0
M  V30 1094 C 92.0811 1.41169 0.875238 0
M  V30 1095 O 93.2661 1.70112 0.86409 0
M  V30 1096 C 90.4061 3.25804 1.13781 0
M  V30 1097 C 89.5191 4.30134 0.401137 0
M  V30 1098 C 88.6541 5.12659 1.39121 0
M  V30 1099 C 87.6931 6.0873 0.641462 0
M  V30 1100 N 86.8301 6.8409 1.58004 0
M  V30 1101 H 91.6701 2.92118 -0.589144 0
M  V30 1102 H 89.2071 1.43959 -0.302342 0
M  V30 1103 H 91.1651 3.79569 1.73156 0
M  V30 1104 H 89.7951 2.65872 1.83062 0
M  V30 1105 H 88.8471 3.79152 -0.307826 0
M  V30 1106 H 90.1591 4.98458 -0.184565 0
M  V30 1107 H 89.3131 5.70747 2.05749 0
M  V30 1108 H 88.0521 4.44316 2.01084 0
M  V30 1109 H 87.0571 5.49786 -0.0385419 0
M  V30 1110 H 88.2821 6.79095 0.0270945 0
M  V30 1111 H 86.2281 6.18449 2.18761 0
M  V30 1112 H 86.1451 7.48709 1.04738 0
M  V30 1113 H 87.4131 7.4673 2.23639 0
M  V30 1114 N 91.6422 0.330177 1.54103 0
M  V30 1115 C 92.8672 -0.274893 2.0557 0
M  V30 1116 C 93.2922 -1.44487 1.20437 0
M  V30 1117 O 92.6502 -1.80021 0.214991 0
M  V30 1118 C 92.6982 -0.68079 3.54115 0
M  V30 1119 O 91.8022 -1.7824 3.71893 0
M  V30 1120 H 91.1432 -0.0483849 0.662235 0
M  V30 1121 H 93.6732 0.480508 1.98878 0
M  V30 1122 H 93.6832 -0.961635 3.96505 0
M  V30 1123 H 92.3582 0.174903 4.15532 0
M  V30 1124 H 90.9352 -1.49985 3.41407 0
M  V30 1125 N 93.1203 -1.57491 0.0584922 0
M  V30 1126 C 94.0673 -2.11958 -0.913376 0
M  V30 1127 C 95.0373 -1.02875 -1.30407 0
M  V30 1128 O 96.2223 -1.30464 -1.39226 0
M  V30 1129 C 93.3623 -2.67497 -2.18035 0
M  V30 1130 C 92.4753 -3.90691 -1.84349 0
M  V30 1131 C 91.6103 -4.3452 -3.05559 0
M  V30 1132 C 90.6493 -5.50395 -2.67827 0
M  V30 1133 N 89.7863 -5.89244 -3.81754 0
M  V30 1134 H 94.6263 -2.94704 -0.442017 0
M  V30 1135 H 92.1633 -1.45643 -0.206545 0
M  V30 1136 H 94.1213 -2.978 -2.92183 0
M  V30 1137 H 92.7513 -1.87537 -2.62735 0
M  V30 1138 H 91.8033 -3.66934 -1.00319 0
M  V30 1139 H 93.1153 -4.7489 -1.5258 0
M  V30 1140 H 92.2693 -4.66414 -3.87998 0
M  V30 1141 H 91.0083 -3.49147 -3.40511 0
M  V30 1142 H 90.0133 -5.18165 -1.83806 0
M  V30 1143 H 91.2383 -6.3749 -2.34059 0
M  V30 1144 H 89.1843 -5.06823 -4.16493 0
M  V30 1145 H 89.1013 -6.68151 -3.53708 0
M  V30 1146 H 90.3693 -6.25756 -4.64811 0
M  V30 1147 N 94.5984 0.214957 -1.56127 0
M  V30 1148 C 95.5454 1.26642 -1.92952 0
M  V30 1149 C 96.5154 1.46244 -0.78753 0
M  V30 1150 O 97.7004 1.59704 -1.04399 0
M  V30 1151 C 94.8404 2.6104 -2.25726 0
M  V30 1152 C 93.9534 2.49183 -3.52891 0
M  V30 1153 C 93.0884 3.76149 -3.7508 0
M  V30 1154 C 92.1274 3.59041 -4.95738 0
M  V30 1155 N 91.2644 4.77972 -5.14283 0
M  V30 1156 H 96.1044 0.945384 -2.82607 0
M  V30 1157 H 93.6414 0.455489 -1.3987 0
M  V30 1158 H 95.5994 3.39313 -2.42739 0
M  V30 1159 H 94.2294 2.91227 -1.39236 0
M  V30 1160 H 93.2814 1.6231 -3.44034 0
M  V30 1161 H 94.5934 2.32466 -4.41318 0
M  V30 1162 H 93.7474 4.62865 -3.92226 0
M  V30 1163 H 92.4864 3.95799 -2.84947 0
M  V30 1164 H 91.4914 2.7071 -4.78535 0
M  V30 1165 H 92.7164 3.40856 -5.87362 0
M  V30 1166 H 90.6624 4.97923 -4.27093 0
M  V30 1167 H 90.5794 4.64006 -5.96853 0
M  V30 1168 H 91.8474 5.66096 -5.35869 0
M  V30 1169 N 96.0765 1.50051 0.48192 0
M  V30 1170 C 97.0245 1.68635 1.60203 0
M  V30 1171 C 98.0185 0.552184 1.60148 0
M  V30 1172 O 99.2245 0.732377 1.64427 0
M  V30 1173 H 95.5995 0.532081 0.531407 0
M  V30 1174 H 97.5705 2.62616 1.41688 0
M  V30 1175 C 96.3195 1.78775 2.9822 0
M  V30 1176 H 95.6425 2.6543 2.98976 0
M  V30 1177 H 97.0825 1.95806 3.7608 0
M  V30 1178 C 95.5415 0.536849 3.32595 0
M  V30 1179 O 96.0715 -0.328897 4.00351 0
M  V30 1180 N 94.2775 0.394091 2.87915 0
M  V30 1181 H 93.8245 1.09962 2.32951 0
M  V30 1182 H 93.7825 -0.441737 3.11281 0
M  V30 1183 N 97.5546 -0.734337 1.39446 0
M  V30 1184 C 98.7946 -1.50655 1.38139 0
M  V30 1185 C 99.1586 -1.91986 -0.0228701 0
M  V30 1186 O 100.36 -2.68318 -0.160947 0
M  V30 1187 C 98.6306 -2.71251 2.32718 0
M  V30 1188 S 100.19 -3.60892 2.49605 0
M  V30 1189 H 97.0076 -0.515315 0.489869 0
M  V30 1190 H 99.6096 -0.860392 1.75549 0
M  V30 1191 H 98.3136 -2.39027 3.33608 0
M  V30 1192 H 97.8446 -3.40795 1.96526 0
M  V30 1193 H 99.8596 -4.64899 1.73446 0
M  V30 1194 N 99.0327 -1.24633 -0.964593 0
M  V30 1195 C 99.9427 -1.05859 -2.09359 0
M  V30 1196 C 100.959 0.00148855 -1.74 0
M  V30 1197 O 102.135 -0.197346 -2.00431 0
M  V30 1198 C 99.1997 -0.668879 -3.40187 0
M  V30 1199 C 98.2607 -1.80578 -3.89474 0
M  V30 1200 C 97.4937 -1.43457 -5.14058 0
M  V30 1201 O 97.7167 -0.325775 -5.69469 0
M  V30 1202 O 96.6507 -2.2613 -5.57807 0
M  V30 1203 H 100.477 -2.00516 -2.28094 0
M  V30 1204 H 98.0617 -1.03481 -1.0776 0
M  V30 1205 H 99.9437 -0.463211 -4.18846 0
M  V30 1206 H 98.6187 0.248536 -3.22744 0
M  V30 1207 H 97.5257 -2.06623 -3.11862 0
M  V30 1208 H 98.8587 -2.70208 -4.11398 0
M  V30 1209 N 100.511 1.16574 -1.06058 0
M  V30 1210 C 101.922 1.68662 -0.800632 0
M  V30 1211 C 102.273 1.84184 0.67608 0
M  V30 1212 O 101.398 1.53568 1.52466 0
M  V30 1213 C 101.993 3.06356 -1.44676 0
M  V30 1214 C 100.552 3.55575 -1.23465 0
M  V30 1215 C 99.6988 2.31616 -1.52477 0
M  V30 1216 H 102.65 1.00969 -1.22438 0
M  V30 1217 H 102.671 3.70636 -0.860788 0
M  V30 1218 H 102.183 2.95027 -2.52152 0
M  V30 1219 H 100.284 3.72167 -0.179527 0
M  V30 1220 H 100.397 4.37812 -1.94571 0
M  V30 1221 H 98.7608 2.36512 -0.945209 0
M  V30 1222 H 99.5438 2.22887 -2.61106 0
M  V30 1223 N 101.989 0.842826 1.3317 0
M  V30 1224 C 103.237 0.439577 1.97262 0
M  V30 1225 C 103.558 -1.00548 1.67078 0
M  V30 1226 O 102.828 -1.70098 0.971779 0
M  V30 1227 H 101.408 0.159558 0.72976 0
M  V30 1228 H 104.07 1.07665 1.62463 0
M  V30 1229 H 103.166 0.574886 3.0676 0
M  V30 1230 N 103.467 -1.45747 0.599634 0
M  V30 1231 C 104.377 -2.34262 -0.125888 0
M  V30 1232 C 105.393 -1.50768 -0.868625 0
M  V30 1233 O 106.569 -1.83592 -0.828003 0
M  V30 1234 C 103.634 -3.28252 -1.11587 0
M  V30 1235 C 102.695 -4.27651 -0.375956 0
M  V30 1236 C 101.928 -5.1715 -1.31877 0
M  V30 1237 O 102.151 -5.09916 -2.55621 0
M  V30 1238 O 101.085 -5.96286 -0.820157 0
M  V30 1239 H 104.911 -2.97688 0.601315 0
M  V30 1240 H 102.496 -1.44999 0.359934 0
M  V30 1241 H 104.378 -3.86191 -1.68626 0
M  V30 1242 H 103.053 -2.67401 -1.82424 0
M  V30 1243 H 101.96 -3.7335 0.236698 0
M  V30 1244 H 103.293 -4.91334 0.29177 0
M  V30 1245 N 104.945 -0.338344 -1.53925 0
M  V30 1246 C 105.892 0.520845 -2.24846 0
M  V30 1247 C 106.862 1.09976 -1.24477 0
M  V30 1248 O 108.047 1.13735 -1.53196 0
M  V30 1249 C 105.187 1.6685 -3.02084 0
M  V30 1250 C 104.3 1.11739 -4.17299 0
M  V30 1251 C 103.435 2.23193 -4.82036 0
M  V30 1252 C 102.474 1.65407 -5.89328 0
M  V30 1253 N 101.611 2.70582 -6.47866 0
M  V30 1254 H 106.451 -0.0904881 -2.97863 0
M  V30 1255 H 103.988 -0.0564282 -1.46992 0
M  V30 1256 H 105.946 2.34407 -3.45122 0
M  V30 1257 H 104.576 2.2509 -2.31375 0
M  V30 1258 H 103.628 0.332919 -3.7894 0
M  V30 1259 H 104.94 0.654677 -4.94485 0
M  V30 1260 H 104.094 2.98626 -5.28117 0
M  V30 1261 H 102.833 2.72807 -4.04262 0
M  V30 1262 H 101.838 0.884779 -5.42634 0
M  V30 1263 H 103.063 1.16652 -6.69006 0
M  V30 1264 H 101.009 3.1946 -5.72959 0
M  V30 1265 H 100.926 2.28917 -7.20509 0
M  V30 1266 H 102.194 3.45799 -6.98601 0
M  V30 1267 N 106.423 1.57458 -0.0668435 0
M  V30 1268 C 107.834 1.80776 0.466558 0
M  V30 1269 C 108.185 0.980361 1.69951 0
M  V30 1270 O 107.31 0.201441 2.1546 0
M  V30 1271 C 107.905 3.27881 0.85321 0
M  V30 1272 C 106.464 3.52062 1.3315 0
M  V30 1273 C 105.611 2.75513 0.314264 0
M  V30 1274 H 108.562 1.5598 -0.292588 0
M  V30 1275 H 108.583 3.39659 1.715 0
M  V30 1276 H 108.095 3.88075 -0.0443439 0
M  V30 1277 H 106.196 2.97167 2.24772 0
M  V30 1278 H 106.309 4.60762 1.31285 0
M  V30 1279 H 104.673 2.42123 0.790492 0
M  V30 1280 H 105.456 3.38442 -0.575477 0
M  V30 1281 N 107.901 -0.206675 1.56239 0
M  V30 1282 C 108.849 -1.27571 1.94495 0
M  V30 1283 C 109.843 -1.47737 0.828862 0
M  V30 1284 O 111.049 -1.48735 1.0138 0
M  V30 1285 H 107.424 -0.428029 0.6183 0
M  V30 1286 H 109.395 -0.925961 2.8367 0
M  V30 1287 C 108.144 -2.61568 2.29079 0
M  V30 1288 H 107.467 -2.46863 3.14482 0
M  V30 1289 H 108.907 -3.35144 2.5972 0
M  V30 1290 C 107.366 -3.17695 1.12123 0
M  V30 1291 O 107.896 -3.99801 0.390153 0
M  V30 1292 N 106.102 -2.76276 0.901097 0
M  V30 1293 H 105.649 -2.09613 1.49733 0
M  V30 1294 H 105.607 -3.1417 0.120319 0
M  V30 1295 N 109.379 -1.50304 -0.473955 0
M  V30 1296 C 110.79 -1.54042 -1.0549 0
M  V30 1297 C 111.141 -0.342248 -1.93192 0
M  V30 1298 O 110.266 0.545157 -2.09421 0
M  V30 1299 C 110.861 -2.79152 -1.91989 0
M  V30 1300 C 109.42 -2.8558 -2.45196 0
M  V30 1301 C 108.567 -2.48295 -1.2347 0
M  V30 1302 H 111.518 -1.5661 -0.256693 0
M  V30 1303 H 111.539 -2.60845 -2.7702 0
M  V30 1304 H 111.051 -3.66339 -1.28131 0
M  V30 1305 H 109.152 -2.02738 -3.12615 0
M  V30 1306 H 109.265 -3.88403 -2.80499 0
M  V30 1307 H 107.629 -2.00669 -1.56856 0
M  V30 1308 H 108.412 -3.37787 -0.612789 0
M  V30 1309 N 110.857 0.726932 -1.39834 0
M  V30 1310 C 112.103 1.48884 -1.377 0
M  V30 1311 C 112.436 1.94185 0.0244852 0
M  V30 1312 O 111.711 1.67361 0.990986 0
M  V30 1313 C 111.994 2.72288 -2.3565 0
M  V30 1314 C 111.847 2.32956 -3.84775 0
M  V30 1315 C 113.166 3.74414 -2.31306 0
M  V30 1316 H 110.285 0.540062 -0.5015 0
M  V30 1317 H 112.927 0.830547 -1.70886 0
M  V30 1318 H 111.077 3.28457 -2.07481 0
M  V30 1319 H 112.749 1.82356 -4.23726 0
M  V30 1320 H 110.992 1.65088 -4.01159 0
M  V30 1321 H 111.663 3.21362 -4.4881 0
M  V30 1322 H 114.139 3.27849 -2.56231 0
M  V30 1323 H 113.015 4.58414 -3.01907 0
M  V30 1324 H 113.276 4.21909 -1.32081 0
M  V30 1325 N 112.336 1.25143 0.95797 0
M  V30 1326 C 113.747 1.08851 1.51685 0
M  V30 1327 C 114.098 -0.33687 1.93286 0
M  V30 1328 O 113.223 -1.22644 1.7829 0
M  V30 1329 C 113.818 1.96978 2.75654 0
M  V30 1330 C 112.377 1.84881 3.27866 0
M  V30 1331 C 111.524 1.91329 2.0072 0
M  V30 1332 H 114.475 1.38478 0.77522 0
M  V30 1333 H 114.496 1.5078 3.4935 0
M  V30 1334 H 114.008 3.00712 2.45345 0
M  V30 1335 H 112.109 0.840182 3.63004 0
M  V30 1336 H 112.222 2.6951 3.96107 0
M  V30 1337 H 110.586 1.35174 2.15871 0
M  V30 1338 H 111.369 2.96661 1.72764 0
M  V30 1339 N 113.814 -1.1601 1.06675 0
M  V30 1340 C 115.042 -1.90527 0.806667 0
M  V30 1341 C 115.457 -1.77643 -0.639396 0
M  V30 1342 O 114.814 -1.12369 -1.43803 0
M  V30 1343 C 114.865 -3.41106 1.19705 0
M  V30 1344 O 114.586 -3.53608 2.58636 0
M  V30 1345 C 116.087 -4.32663 0.965266 0
M  V30 1346 H 113.307 -0.604053 0.292166 0
M  V30 1347 H 115.851 -1.47026 1.4214 0
M  V30 1348 H 114.006 -3.82296 0.626774 0
M  V30 1349 H 114.42 -4.47011 2.74375 0
M  V30 1350 H 115.894 -5.36763 1.288 0
M  V30 1351 H 116.371 -4.39089 -0.0987936 0
M  V30 1352 H 116.977 -3.97206 1.52011 0
M  V30 1353 N 115.292 -0.849877 -1.32721 0
M  V30 1354 C 116.242 -0.262892 -2.26479 0
M  V30 1355 C 117.226 0.588493 -1.49752 0
M  V30 1356 O 118.418 0.438659 -1.71478 0
M  V30 1357 C 115.547 0.551818 -3.38836 0
M  V30 1358 C 114.633 -0.311689 -4.22953 0
M  V30 1359 N 115.024 -1.39567 -4.86163 0
M  V30 1360 C 113.322 -0.100611 -4.45887 0
M  V30 1361 C 114.023 -1.92651 -5.48872 0
M  V30 1362 N 112.999 -1.22637 -5.29586 0
M  V30 1363 H 116.801 -1.09166 -2.72873 0
M  V30 1364 H 114.315 -0.695486 -1.46754 0
M  V30 1365 H 116.312 0.988713 -4.05006 0
M  V30 1366 H 114.972 1.37844 -2.93988 0
M  V30 1367 H 115.983 -1.77859 -4.86402 0
M  V30 1368 H 112.66 0.691681 -4.11731 0
M  V30 1369 H 114.05 -2.83487 -6.09167 0
M  V30 1370 N 116.77 1.45427 -0.607355 0
M  V30 1371 C 117.7 2.3329 0.0989352 0
M  V30 1372 C 118.681 1.46816 0.859007 0
M  V30 1373 O 119.866 1.75588 0.829604 0
M  V30 1374 C 116.996 3.29518 1.09705 0
M  V30 1375 C 115.95 4.25626 0.450206 0
M  V30 1376 C 115.276 5.11542 1.55655 0
M  V30 1377 C 116.576 5.18505 -0.628455 0
M  V30 1378 H 118.27 2.92595 -0.634716 0
M  V30 1379 H 115.816 1.40696 -0.306681 0
M  V30 1380 H 117.769 3.89855 1.59971 0
M  V30 1381 H 116.493 2.68372 1.86129 0
M  V30 1382 H 115.152 3.66586 -0.0315886 0
M  V30 1383 H 114.8 4.46765 2.31107 0
M  V30 1384 H 114.5 5.76647 1.12925 0
M  V30 1385 H 116.024 5.74748 2.06148 0
M  V30 1386 H 117.438 5.72916 -0.209877 0
M  V30 1387 H 115.835 5.92085 -0.977489 0
M  V30 1388 H 116.905 4.60948 -1.50514 0
M  V30 1389 N 118.248 0.346503 1.53744 0
M  V30 1390 C 119.664 -0.00530975 1.59599 0
M  V30 1391 C 119.864 -1.48465 1.36236 0
M  V30 1392 O 118.92 -2.24376 1.15808 0
M  V30 1393 C 120.233 0.433516 2.97559 0
M  V30 1394 C 121.781 0.386111 3.10609 0
M  V30 1395 C 122.256 0.800451 4.50951 0
M  V30 1396 N 123.747 0.754753 4.5701 0
M  V30 1397 C 124.482 1.04727 5.63755 0
M  V30 1398 N 123.978 1.4081 6.7834 0
M  V30 1399 N 125.771 0.971316 5.53644 0
M  V30 1400 H 117.922 1.31009 1.67184 0
M  V30 1401 H 120.185 0.534242 0.783128 0
M  V30 1402 H 119.891 1.46509 3.19731 0
M  V30 1403 H 119.765 -0.189753 3.76722 0
M  V30 1404 H 122.152 -0.636295 2.88158 0
M  V30 1405 H 122.233 1.04462 2.33498 0
M  V30 1406 H 121.877 1.82088 4.74137 0
M  V30 1407 H 121.807 0.119386 5.26465 0
M  V30 1408 H 124.298 0.488662 3.74727 0
M  V30 1409 H 124.611 1.61607 7.55714 0
M  V30 1410 H 122.956 1.44657 6.79779 0
M  V30 1411 H 126.147 0.688748 4.63005 0
M  V30 1412 H 126.32 1.20263 6.36742 0
M  V30 1413 N 119.726 -1.57421 0.075193 0
M  V30 1414 C 120.674 -2.14124 -0.908508 0
M  V30 1415 C 121.668 -1.07898 -1.30592 0
M  V30 1416 O 122.874 -1.26273 -1.28277 0
M  V30 1417 H 119.249 -0.684707 -0.310935 0
M  V30 1418 H 121.22 -2.95634 -0.405374 0
M  V30 1419 C 119.969 -2.72044 -2.16535 0
M  V30 1420 H 119.292 -3.53456 -1.86839 0
M  V30 1421 H 120.732 -3.15311 -2.83469 0
M  V30 1422 C 119.191 -1.66968 -2.92615 0
M  V30 1423 O 119.721 -1.0967 -3.86439 0
M  V30 1424 N 117.927 -1.37923 -2.55784 0
M  V30 1425 H 117.474 -1.84706 -1.79559 0
M  V30 1426 H 117.432 -0.67852 -3.06991 0
M  V30 1427 N 121.204 0.198386 -1.56346 0
M  V30 1428 C 122.137 1.27381 -1.89339 0
M  V30 1429 C 123.115 1.44106 -0.753134 0
M  V30 1430 O 124.299 1.59549 -1.00381 0
M  V30 1431 C 121.426 2.6409 -2.12071 0
M  V30 1432 C 120.472 2.64253 -3.34772 0
M  V30 1433 S 121.305 2.16013 -4.89999 0
M  V30 1434 C 122.461 3.54553 -5.15794 0
M  V30 1435 H 122.694 0.992058 -2.8026 0
M  V30 1436 H 120.227 0.401726 -1.49082 0
M  V30 1437 H 122.185 3.42786 -2.2585 0
M  V30 1438 H 120.846 2.89478 -1.21906 0
M  V30 1439 H 120.039 3.64768 -3.47794 0
M  V30 1440 H 119.641 1.93637 -3.1997 0
M  V30 1441 H 121.933 4.50396 -5.06112 0
M  V30 1442 H 122.876 3.46428 -6.1757 0
M  V30 1443 H 123.284 3.49313 -4.43442 0
M  V30 1444 N 122.682 1.50554 0.465978 0
M  V30 1445 C 123.91 1.65563 1.24083 0
M  V30 1446 C 124.325 0.341051 1.85694 0
M  V30 1447 O 123.682 -0.677543 1.69457 0
M  V30 1448 C 123.733 2.75051 2.34583 0
M  V30 1449 O 123.454 4.01413 1.75497 0
M  V30 1450 C 124.955 3.01078 3.25372 0
M  V30 1451 H 122.175 0.55638 0.375077 0
M  V30 1452 H 124.719 1.96807 0.555624 0
M  V30 1453 H 122.874 2.46486 2.9887 0
M  V30 1454 H 123.288 4.62002 2.48303 0
M  V30 1455 H 124.762 3.81339 3.99105 0
M  V30 1456 H 125.239 2.12349 3.84453 0
M  V30 1457 H 125.845 3.31194 2.66816 0
M  V30 1458 N 124.16 -0.719506 1.40217 0
M  V30 1459 C 125.409 -1.47486 1.37589 0
M  V30 1460 C 125.722 -1.9559 -0.0201568 0
M  V30 1461 O 126.928 -2.70973 -0.169049 0
M  V30 1462 C 125.384 -2.66575 2.41796 0
M  V30 1463 C 124.992 -2.25358 3.87192 0
M  V30 1464 C 126.736 -3.4433 2.48269 0
M  V30 1465 C 124.643 -3.41262 4.83005 0
M  V30 1466 H 123.573 -0.553901 0.511576 0
M  V30 1467 H 126.224 -0.783427 1.65936 0
M  V30 1468 H 124.606 -3.3787 2.06543 0
M  V30 1469 H 125.78 -1.61509 4.31569 0
M  V30 1470 H 124.095 -1.60657 3.84159 0
M  V30 1471 H 126.692 -4.30569 3.17041 0
M  V30 1472 H 127.035 -3.87872 1.51198 0
M  V30 1473 H 127.568 -2.80076 2.82493 0
M  V30 1474 H 124.307 -3.02755 5.81394 0
M  V30 1475 H 123.827 -4.0404 4.43297 0
M  V30 1476 H 125.506 -4.07383 5.02641 0
M  V30 1477 N 125.638 -1.25649 -0.95132 0
M  V30 1478 C 126.887 -1.09988 -1.69073 0
M  V30 1479 C 127.2 0.358355 -1.92289 0
M  V30 1480 O 128.406 0.635466 -2.63958 0
M  V30 1481 C 126.862 -1.92012 -3.044 0
M  V30 1482 C 126.47 -3.42347 -2.88968 0
M  V30 1483 C 128.214 -1.8493 -3.82101 0
M  V30 1484 C 126.121 -4.16655 -4.19705 0
M  V30 1485 H 125.051 -0.407993 -0.63408 0
M  V30 1486 H 127.702 -1.49873 -1.05879 0
M  V30 1487 H 126.084 -1.44952 -3.68517 0
M  V30 1488 H 127.258 -3.97104 -2.33762 0
M  V30 1489 H 125.573 -3.50557 -2.24719 0
M  V30 1490 H 128.17 -2.37739 -4.78941 0
M  V30 1491 H 128.513 -0.817883 -4.08187 0
M  V30 1492 H 129.046 -2.29758 -3.2474 0
M  V30 1493 H 125.785 -5.20224 -3.98807 0
M  V30 1494 H 125.305 -3.66681 -4.74663 0
M  V30 1495 H 126.984 -4.24551 -4.88227 0
M  V30 1496 N 127.117 1.15442 -1.07289 0
M  V30 1497 C 128.528 1.67803 -0.818475 0
M  V30 1498 C 128.879 1.8489 0.656507 0
M  V30 1499 O 128.004 1.55176 1.50829 0
M  V30 1500 C 128.599 3.04805 -1.47917 0
M  V30 1501 C 127.158 3.54245 -1.27229 0
M  V30 1502 C 126.305 2.29986 -1.54925 0
M  V30 1503 H 129.256 0.996646 -1.23502 0
M  V30 1504 H 129.277 3.69702 -0.90005 0
M  V30 1505 H 128.789 2.92336 -2.55267 0
M  V30 1506 H 126.89 3.71956 -0.21899 0
M  V30 1507 H 127.003 4.35723 -1.99203 0
M  V30 1508 H 125.367 2.35496 -0.970242 0
M  V30 1509 H 126.15 2.20105 -2.63455 0
M  V30 1510 N 128.595 0.856903 1.32268 0
M  V30 1511 C 129.505 0.306131 2.32594 0
M  V30 1512 C 130.521 -0.577209 1.64147 0
M  V30 1513 O 131.697 -0.477043 1.95669 0
M  V30 1514 C 128.762 -0.494561 3.43154 0
M  V30 1515 C 127.823 0.415186 4.27288 0
M  V30 1516 C 127.056 -0.347387 5.32568 0
M  V30 1517 O 127.279 -1.57708 5.48165 0
M  V30 1518 O 126.213 0.287982 6.01211 0
M  V30 1519 H 130.039 1.13737 2.81598 0
M  V30 1520 H 127.624 0.619902 1.35932 0
M  V30 1521 H 129.506 -0.948944 4.10576 0
M  V30 1522 H 128.181 -1.30257 2.96336 0
M  V30 1523 H 127.088 0.917793 3.62667 0
M  V30 1524 H 128.421 1.18844 4.77637 0
M  V30 1525 N 130.073 -1.45103 0.615059 0
M  V30 1526 C 131.006 -2.27717 -0.148408 0
M  V30 1527 C 131.984 -1.37584 -0.866572 0
M  V30 1528 O 133.168 -1.67017 -0.87393 0
M  V30 1529 C 130.295 -3.16136 -1.21557 0
M  V30 1530 C 129.341 -4.22263 -0.599712 0
M  V30 1531 S 130.174 -5.3215 0.598081 0
M  V30 1532 C 131.33 -6.24137 -0.469484 0
M  V30 1533 H 131.563 -2.92121 0.552483 0
M  V30 1534 H 129.096 -1.49054 0.402778 0
M  V30 1535 H 131.054 -3.67633 -1.82638 0
M  V30 1536 H 129.715 -2.50982 -1.88857 0
M  V30 1537 H 128.908 -4.84081 -1.4029 0
M  V30 1538 H 128.51 -3.73945 -0.063876 0
M  V30 1539 H 130.802 -6.63984 -1.34652 0
M  V30 1540 H 131.745 -7.0801 0.112725 0
M  V30 1541 H 132.153 -5.58971 -0.788168 0
M  V30 1542 N 131.551 -0.354651 -1.53558 0
M  V30 1543 C 132.797 0.238797 -2.01389 0
M  V30 1544 C 133.13 1.49309 -1.2418 0
M  V30 1545 O 132.405 1.91638 -0.332457 0
M  V30 1546 C 132.688 0.541771 -3.56001 0
M  V30 1547 C 132.541 -0.725388 -4.43912 0
M  V30 1548 C 133.86 1.34685 -4.18984 0
M  V30 1549 H 130.979 0.0853177 -0.732045 0
M  V30 1550 H 133.621 -0.477384 -1.83905 0
M  V30 1551 H 131.771 1.15189 -3.71031 0
M  V30 1552 H 133.443 -1.36313 -4.407 0
M  V30 1553 H 131.686 -1.34801 -4.12324 0
M  V30 1554 H 132.357 -0.468505 -5.50008 0
M  V30 1555 H 134.833 0.830837 -4.07721 0
M  V30 1556 H 133.709 1.52759 -5.27215 0
M  V30 1557 H 133.97 2.35221 -3.74331 0
M  V30 1558 N 133.029 1.57378 -0.0835403 0
M  V30 1559 C 134.277 1.93547 0.581718 0
M  V30 1560 C 134.598 0.96524 1.69435 0
M  V30 1561 O 133.868 0.0153369 1.95894 0
M  V30 1562 H 132.448 0.714521 0.217874 0
M  V30 1563 H 135.11 1.94366 -0.144158 0
M  V30 1564 H 134.206 2.95665 0.999423 0
M  V30 1565 N 134.507 -0.190092 1.56449 0
M  V30 1566 C 135.732 -0.929864 1.85387 0
M  V30 1567 C 136.157 -1.7585 0.667704 0
M  V30 1568 O 135.515 -1.77198 -0.383459 0
M  V30 1569 C 135.563 -1.79773 3.12593 0
M  V30 1570 O 134.667 -2.89713 2.93496 0
M  V30 1571 H 134.008 -0.261574 0.610307 0
M  V30 1572 H 136.538 -0.193896 2.03679 0
M  V30 1573 H 136.548 -2.20139 3.43515 0
M  V30 1574 H 135.223 -1.18892 3.98544 0
M  V30 1575 H 133.8 -2.53065 2.73884 0
M  V30 1576 N 135.985 -1.50799 -0.457987 0
M  V30 1577 C 137.234 -1.6168 -1.20593 0
M  V30 1578 C 137.547 -0.32888 -1.92815 0
M  V30 1579 O 138.753 -0.316773 -2.69646 0
M  V30 1580 C 137.209 -2.8545 -2.19195 0
M  V30 1581 C 136.817 -4.21168 -1.52715 0
M  V30 1582 C 138.561 -3.05681 -2.94549 0
M  V30 1583 C 136.468 -5.3611 -2.4968 0
M  V30 1584 H 135.398 -0.602134 -0.453818 0
M  V30 1585 H 138.049 -1.77245 -0.475031 0
M  V30 1586 H 136.431 -2.63472 -2.95632 0
M  V30 1587 H 137.605 -4.53449 -0.819775 0
M  V30 1588 H 135.92 -4.06648 -0.895922 0
M  V30 1589 H 138.517 -3.88727 -3.67145 0
M  V30 1590 H 138.86 -2.17929 -3.54701 0
M  V30 1591 H 139.393 -3.27901 -2.25223 0
M  V30 1592 H 136.132 -6.26057 -1.94249 0
M  V30 1593 H 135.652 -5.0823 -3.18532 0
M  V30 1594 H 137.331 -5.6722 -3.11241 0
M  V30 1595 N 137.463 0.71206 -1.40597 0
M  V30 1596 C 138.709 1.47416 -1.39271 0
M  V30 1597 C 139.042 1.942 0.00388791 0
M  V30 1598 O 138.317 1.68403 0.973179 0
M  V30 1599 C 138.6 2.69774 -2.38525 0
M  V30 1600 C 138.453 2.28861 -3.87224 0
M  V30 1601 C 139.772 3.71939 -2.35264 0
M  V30 1602 H 136.891 0.534713 -0.5072 0
M  V30 1603 H 139.533 0.812375 -1.71757 0
M  V30 1604 H 137.683 3.26238 -2.10953 0
M  V30 1605 H 139.355 1.77852 -4.25636 0
M  V30 1606 H 137.598 1.60824 -4.02887 0
M  V30 1607 H 138.269 3.16584 -4.52193 0
M  V30 1608 H 140.745 3.25113 -2.59694 0
M  V30 1609 H 139.621 4.55186 -3.06753 0
M  V30 1610 H 139.882 4.20484 -1.36549 0
M  V30 1611 N 138.941 1.26152 0.944643 0
M  V30 1612 C 139.904 1.07474 2.0244 0
M  V30 1613 C 140.904 0.0242064 1.60782 0
M  V30 1614 O 142.094 0.267302 1.72137 0
M  V30 1615 C 139.226 0.633956 3.34953 0
M  V30 1616 H 140.419 2.03336 2.20442 0
M  V30 1617 H 137.972 1.087 1.12312 0
M  V30 1618 H 138.707 -0.326811 3.22649 0
M  V30 1619 H 138.492 1.39247 3.66542 0
M  V30 1620 H 139.982 0.52501 4.14287 0
M  V30 1621 N 140.419 -1.14872 1.07899 0
M  V30 1622 C 141.665 -1.86064 0.806725 0
M  V30 1623 C 141.998 -1.82434 -0.665706 0
M  V30 1624 O 141.273 -1.25138 -1.48899 0
M  V30 1625 C 141.556 -3.34929 1.32267 0
M  V30 1626 C 141.409 -3.47161 2.86006 0
M  V30 1627 C 142.728 -4.29863 0.943717 0
M  V30 1628 H 139.847 -0.675591 0.294526 0
M  V30 1629 H 142.489 -1.34925 1.33773 0
M  V30 1630 H 140.639 -3.78611 0.870974 0
M  V30 1631 H 142.311 -3.12302 3.39507 0
M  V30 1632 H 140.554 -2.88539 3.23925 0
M  V30 1633 H 141.225 -4.51777 3.17177 0
M  V30 1634 H 143.701 -3.9417 1.33302 0
M  V30 1635 H 142.577 -5.32494 1.33198 0
M  V30 1636 H 142.838 -4.41846 -0.149796 0
M  V30 1637 N 141.898 -0.863906 -1.31812 0
M  V30 1638 C 142.848 -0.286898 -2.26188 0
M  V30 1639 C 143.832 0.572577 -1.50367 0
M  V30 1640 O 145.024 0.420447 -1.71934 0
M  V30 1641 C 142.153 0.515849 -3.39402 0
M  V30 1642 C 141.239 -0.356531 -4.22599 0
M  V30 1643 N 141.63 -1.44716 -4.84656 0
M  V30 1644 C 139.928 -0.147898 -4.45755 0
M  V30 1645 C 140.629 -1.98462 -5.46798 0
M  V30 1646 N 139.605 -1.28247 -5.28255 0
M  V30 1647 H 143.407 -1.12055 -2.717 0
M  V30 1648 H 140.921 -0.711012 -1.46008 0
M  V30 1649 H 142.918 0.945701 -4.06032 0
M  V30 1650 H 141.578 1.34718 -2.95434 0
M  V30 1651 H 142.589 -1.83008 -4.84488 0
M  V30 1652 H 139.266 0.647973 -4.12441 0
M  V30 1653 H 140.656 -2.89932 -6.06126 0
M  V30 1654 N 143.376 1.44774 -0.622745 0
M  V30 1655 C 144.324 2.32387 0.0994683 0
M  V30 1656 C 145.318 1.46859 0.844326 0
M  V30 1657 O 146.524 1.63254 0.758174 0
M  V30 1658 H 142.899 0.750273 0.0509291 0
M  V30 1659 H 144.87 2.91062 -0.65767 0
M  V30 1660 C 143.619 3.30723 1.07319 0
M  V30 1661 H 142.942 3.96541 0.509462 0
M  V30 1662 H 144.382 3.94725 1.54817 0
M  V30 1663 C 142.841 2.59021 2.15429 0
M  V30 1664 O 143.371 2.38286 3.23393 0
M  V30 1665 N 141.577 2.189 1.91131 0
M  V30 1666 H 141.124 2.35964 1.03337 0
M  V30 1667 H 141.082 1.71251 2.63668 0
M  V30 1668 N 144.854 0.36279 1.53368 0
M  V30 1669 C 146.102 -0.227326 2.00817 0
M  V30 1670 C 146.423 -1.49511 1.25186 0
M  V30 1671 O 145.693 -1.92482 0.364348 0
M  V30 1672 H 144.273 -0.0869923 0.741917 0
M  V30 1673 H 146.935 0.488381 1.88682 0
M  V30 1674 H 146.031 -0.456273 3.08747 0
M  V30 1675 N 146.332 -1.57332 0.0918853 0
M  V30 1676 C 147.279 -2.13847 -0.868211 0
M  V30 1677 C 148.249 -1.05618 -1.28196 0
M  V30 1678 O 149.434 -1.33387 -1.36427 0
M  V30 1679 C 146.574 -2.72062 -2.12312 0
M  V30 1680 C 145.687 -3.94514 -1.7602 0
M  V30 1681 C 144.822 -4.40903 -2.96273 0
M  V30 1682 C 143.861 -5.55953 -2.56092 0
M  V30 1683 N 142.998 -5.97209 -3.69169 0
M  V30 1684 H 147.838 -2.95575 -0.379406 0
M  V30 1685 H 145.375 -1.46048 -0.175606 0
M  V30 1686 H 147.333 -3.03931 -2.858 0
M  V30 1687 H 145.963 -1.93068 -2.58698 0
M  V30 1688 H 145.015 -3.68979 -0.925135 0
M  V30 1689 H 146.327 -4.7802 -1.42472 0
M  V30 1690 H 145.481 -4.74539 -3.78018 0
M  V30 1691 H 144.22 -3.56291 -3.33029 0
M  V30 1692 H 143.225 -5.21948 -1.72773 0
M  V30 1693 H 144.45 -6.42311 -2.20484 0
M  V30 1694 H 142.396 -5.15543 -4.05649 0
M  V30 1695 H 142.313 -6.75504 -3.39456 0
M  V30 1696 H 143.581 -6.35475 -4.51434 0
M  V30 1697 N 147.81 0.181792 -1.56548 0
M  V30 1698 C 148.742 1.24956 -1.92142 0
M  V30 1699 C 149.755 1.41022 -0.813422 0
M  V30 1700 O 150.944 1.41212 -1.09186 0
M  V30 1701 C 148.044 2.61981 -2.14987 0
M  V30 1702 C 147.217 2.6735 -3.46183 0
M  V30 1703 C 146.276 3.85664 -3.5798 0
M  V30 1704 O 145.302 3.72148 -4.30691 0
M  V30 1705 N 146.504 5.01683 -2.92053 0
M  V30 1706 H 149.269 0.947329 -2.84334 0
M  V30 1707 H 146.83 0.371629 -1.57577 0
M  V30 1708 H 148.822 3.3958 -2.20154 0
M  V30 1709 H 147.392 2.84637 -1.2923 0
M  V30 1710 H 146.612 1.75925 -3.52766 0
M  V30 1711 H 147.9 2.67939 -4.32534 0
M  V30 1712 H 147.298 5.15564 -2.32832 0
M  V30 1713 H 145.855 5.77181 -3.0283 0
M  V30 1714 N 149.288 1.51039 0.449983 0
M  V30 1715 C 150.518 1.66627 1.22143 0
M  V30 1716 C 150.926 0.357776 1.85786 0
M  V30 1717 O 150.269 -0.672424 1.70951 0
M  V30 1718 C 150.331 2.71562 2.35573 0
M  V30 1719 C 149.995 4.14526 1.92399 0
M  V30 1720 C 150.992 4.99717 1.43453 0
M  V30 1721 C 148.677 4.60559 2.00475 0
M  V30 1722 C 150.671 6.28998 1.03155 0
M  V30 1723 C 148.358 5.8984 1.59788 0
M  V30 1724 C 149.356 6.73886 1.11208 0
M  V30 1725 O 149.044 8.0075 0.710935 0
M  V30 1726 H 148.776 0.562635 0.374724 0
M  V30 1727 H 151.33 1.98146 0.541036 0
M  V30 1728 H 149.56 2.3533 3.06849 0
M  V30 1729 H 151.249 2.76156 2.97478 0
M  V30 1730 H 152.015 4.65361 1.36618 0
M  V30 1731 H 147.894 3.95273 2.37235 0
M  V30 1732 H 151.438 6.9455 0.651663 0
M  V30 1733 H 147.335 6.23713 1.66289 0
M  V30 1734 H 148.103 8.142 0.837913 0
M  V30 1735 N 150.766 -0.704594 1.40972 0
M  V30 1736 C 151.994 -1.49354 1.43182 0
M  V30 1737 C 152.409 -1.88768 0.0345508 0
M  V30 1738 O 151.766 -1.56184 -0.944081 0
M  V30 1739 C 151.817 -2.76187 2.33244 0
M  V30 1740 O 151.538 -2.38436 3.67532 0
M  V30 1741 C 153.039 -3.7 2.44162 0
M  V30 1742 H 150.259 -0.460559 0.487982 0
M  V30 1743 H 152.803 -0.868261 1.85153 0
M  V30 1744 H 150.958 -3.34974 1.94606 0
M  V30 1745 H 151.372 -3.20126 4.15475 0
M  V30 1746 H 152.846 -4.55803 3.11364 0
M  V30 1747 H 153.323 -4.13867 1.47006 0
M  V30 1748 H 153.929 -3.17121 2.83398 0
M  V30 1749 N 152.244 -1.26651 -0.937939 0
M  V30 1750 C 153.192 -1.08308 -2.05845 0
M  V30 1751 C 154.186 -0.0090757 -1.69398 0
M  V30 1752 O 155.392 -0.166007 -1.79233 0
M  V30 1753 H 151.767 -0.333416 -0.674046 0
M  V30 1754 H 153.738 -2.03261 -2.18467 0
M  V30 1755 C 152.487 -0.736229 -3.39816 0
M  V30 1756 H 151.81 -1.55453 -3.6834 0
M  V30 1757 H 153.25 -0.64769 -4.19024 0
M  V30 1758 C 151.709 0.558824 -3.32233 0
M  V30 1759 O 152.239 1.59621 -3.68624 0
M  V30 1760 N 150.445 0.550657 -2.85335 0
M  V30 1761 H 149.992 -0.293943 -2.55917 0
M  V30 1762 H 149.95 1.41726 -2.80644 0
M  V30 1763 N 153.722 1.14298 -1.08507 0
M  V30 1764 C 154.968 1.85633 -0.816581 0
M  V30 1765 C 155.301 1.82784 0.656021 0
M  V30 1766 O 154.576 1.25926 1.48233 0
M  V30 1767 C 154.859 3.34223 -1.34041 0
M  V30 1768 C 154.712 3.45639 -2.87843 0
M  V30 1769 C 156.031 4.29356 -0.9665 0
M  V30 1770 H 153.15 0.67402 -0.298104 0
M  V30 1771 H 155.792 1.34214 -1.34487 0
M  V30 1772 H 153.942 3.78144 -0.89104 0
M  V30 1773 H 155.614 3.10498 -3.41158 0
M  V30 1774 H 153.857 2.86817 -3.25451 0
M  V30 1775 H 154.528 4.50089 -3.19569 0
M  V30 1776 H 157.004 3.93457 -1.35391 0
M  V30 1777 H 155.88 5.3178 -1.3602 0
M  V30 1778 H 156.141 4.41919 0.126362 0
M  V30 1779 N 155.201 0.870884 1.31352 0
M  V30 1780 C 156.111 0.330783 2.32256 0
M  V30 1781 C 157.127 -0.559767 1.6475 0
M  V30 1782 O 158.303 -0.456263 1.96164 0
M  V30 1783 C 155.368 -0.458137 3.4366 0
M  V30 1784 C 154.429 0.460482 4.26823 0
M  V30 1785 C 153.662 -0.290881 5.32907 0
M  V30 1786 O 153.885 -1.51885 5.49806 0
M  V30 1787 O 152.819 0.351732 6.00871 0
M  V30 1788 H 156.645 1.16718 2.80376 0
M  V30 1789 H 154.23 0.634285 1.35267 0
M  V30 1790 H 156.112 -0.905343 4.1156 0
M  V30 1791 H 154.787 -1.27106 2.97701 0
M  V30 1792 H 153.694 0.956207 3.61673 0
M  V30 1793 H 155.027 1.23903 4.7635 0
M  V30 1794 N 156.679 -1.44442 0.630414 0
M  V30 1795 C 157.928 -2.01267 0.132073 0
M  V30 1796 C 158.241 -1.50172 -1.25331 0
M  V30 1797 O 159.447 -1.9912 -1.84562 0
M  V30 1798 C 157.903 -3.59422 0.185362 0
M  V30 1799 C 157.511 -4.19514 1.57201 0
M  V30 1800 C 159.255 -4.23724 -0.256553 0
M  V30 1801 C 157.162 -5.69891 1.58045 0
M  V30 1802 H 156.092 -0.752619 0.0456092 0
M  V30 1803 H 158.743 -1.65666 0.789106 0
M  V30 1804 H 157.125 -3.92318 -0.538759 0
M  V30 1805 H 158.299 -3.98156 2.31966 0
M  V30 1806 H 156.614 -3.67496 1.95795 0
M  V30 1807 H 159.211 -5.34019 -0.269767 0
M  V30 1808 H 159.554 -3.96013 -1.28372 0
M  V30 1809 H 160.087 -3.95629 0.41505 0
M  V30 1810 H 156.826 -6.02336 2.58597 0
M  V30 1811 H 156.346 -5.93373 0.875725 0
M  V30 1812 H 158.025 -6.33515 1.31408 0
M  V30 1813 N 158.157 -0.370918 -1.53173 0
M  V30 1814 C 159.104 0.473035 -2.259 0
M  V30 1815 C 160.074 1.07311 -1.26781 0
M  V30 1816 O 161.259 1.1046 -1.55574 0
M  V30 1817 C 158.399 1.60405 -3.05556 0
M  V30 1818 C 157.512 1.02863 -4.19575 0
M  V30 1819 C 156.647 2.12918 -4.86661 0
M  V30 1820 C 155.686 1.52869 -5.92704 0
M  V30 1821 N 154.823 2.56779 -6.53459 0
M  V30 1822 H 159.663 -0.153649 -2.97604 0
M  V30 1823 H 157.2 -0.0875946 -1.46839 0
M  V30 1824 H 159.158 2.27034 -3.50016 0
M  V30 1825 H 157.788 2.20131 -2.36097 0
M  V30 1826 H 156.84 0.252465 -3.79561 0
M  V30 1827 H 158.152 0.549642 -4.95762 0
M  V30 1828 H 157.306 2.87356 -5.34333 0
M  V30 1829 H 156.045 2.6417 -4.09958 0
M  V30 1830 H 155.05 0.769479 -5.44389 0
M  V30 1831 H 156.275 1.02435 -6.7133 0
M  V30 1832 H 154.221 3.07235 -5.79606 0
M  V30 1833 H 154.138 2.13583 -7.25202 0
M  V30 1834 H 155.406 3.30903 -7.05779 0
M  V30 1835 N 159.635 1.57281 -0.100228 0
M  V30 1836 C 161.046 1.81725 0.428107 0
M  V30 1837 C 161.397 1.01619 1.67833 0
M  V30 1838 O 160.522 0.247098 2.14985 0
M  V30 1839 C 161.117 3.29617 0.78347 0
M  V30 1840 C 159.676 3.54808 1.25653 0
M  V30 1841 C 158.823 2.76118 0.255752 0
M  V30 1842 H 161.774 1.55324 -0.325608 0
M  V30 1843 H 161.795 3.4322 1.64256 0
M  V30 1844 H 161.307 3.87893 -0.12665 0
M  V30 1845 H 159.408 3.01868 2.18418 0
M  V30 1846 H 159.521 4.63443 1.21482 0
M  V30 1847 H 157.885 2.43745 0.738956 0
M  V30 1848 H 158.668 3.37145 -0.647136 0
M  V30 1849 N 161.113 -0.173488 1.56642 0
M  V30 1850 C 162.023 -1.23482 1.99473 0
M  V30 1851 C 163.039 -1.48567 0.905752 0
M  V30 1852 O 164.215 -1.60758 1.21321 0
M  V30 1853 C 161.28 -2.55444 2.34413 0
M  V30 1854 C 160.341 -2.38241 3.57127 0
M  V30 1855 C 159.574 -3.63909 3.90392 0
M  V30 1856 O 159.797 -4.68996 3.24653 0
M  V30 1857 O 158.731 -3.58149 4.83749 0
M  V30 1858 H 162.557 -0.901279 2.90018 0
M  V30 1859 H 160.142 -0.380185 1.44482 0
M  V30 1860 H 162.024 -3.33292 2.57865 0
M  V30 1861 H 160.699 -2.88382 1.4703 0
M  V30 1862 H 159.606 -1.58431 3.38896 0
M  V30 1863 H 160.939 -2.10228 4.45045 0
M  V30 1864 N 162.591 -1.51276 -0.441967 0
M  V30 1865 C 163.524 -1.66933 -1.55591 0
M  V30 1866 C 164.502 -0.516958 -1.54163 0
M  V30 1867 O 165.686 -0.740209 -1.73358 0
M  V30 1868 C 162.813 -1.67866 -2.94174 0
M  V30 1869 C 161.859 -2.89013 -3.13646 0
M  V30 1870 S 162.692 -4.49897 -2.90436 0
M  V30 1871 C 163.848 -4.53568 -4.31308 0
M  V30 1872 H 164.081 -2.61155 -1.42076 0
M  V30 1873 H 161.614 -1.40902 -0.631341 0
M  V30 1874 H 163.572 -1.69089 -3.74058 0
M  V30 1875 H 162.233 -0.748296 -3.05056 0
M  V30 1876 H 161.426 -2.86054 -4.14957 0
M  V30 1877 H 161.028 -2.85509 -2.4158 0
M  V30 1878 H 163.32 -4.28924 -5.24434 0
M  V30 1879 H 164.263 -5.55355 -4.39303 0
M  V30 1880 H 164.671 -3.82943 -4.14747 0
M  V30 1881 N 164.069 0.697108 -1.41344 0
M  V30 1882 C 165.318 1.45279 -1.39918 0
M  V30 1883 C 165.631 1.95597 -0.0109624 0
M  V30 1884 O 166.837 2.71208 0.125919 0
M  V30 1885 C 165.293 2.62695 -2.46007 0
M  V30 1886 C 164.901 2.19169 -3.90729 0
M  V30 1887 C 166.645 3.40336 -2.53715 0
M  V30 1888 C 164.552 3.33535 -4.88373 0
M  V30 1889 H 163.482 0.545692 -0.520323 0
M  V30 1890 H 166.133 0.756929 -1.67161 0
M  V30 1891 H 164.515 3.34541 -2.11892 0
M  V30 1892 H 165.689 1.54623 -4.34083 0
M  V30 1893 H 164.004 1.54525 -3.86666 0
M  V30 1894 H 166.601 4.2547 -3.2385 0
M  V30 1895 H 166.944 3.85418 -1.5735 0
M  V30 1896 H 167.477 2.75546 -2.86913 0
M  V30 1897 H 164.216 2.93468 -5.86137 0
M  V30 1898 H 163.736 3.96936 -4.49668 0
M  V30 1899 H 165.415 3.99335 -5.09059 0
M  V30 1900 N 165.547 1.27147 0.931209 0
M  V30 1901 C 166.795 1.13055 1.6752 0
M  V30 1902 C 167.116 -0.324791 1.92276 0
M  V30 1903 O 166.386 -1.22775 1.52654 0
M  V30 1904 H 164.966 0.415391 0.620854 0
M  V30 1905 H 167.628 1.59623 1.11833 0
M  V30 1906 H 166.724 1.65694 2.64485 0
M  V30 1907 N 167.025 -1.13721 1.09112 0
M  V30 1908 C 168.255 -1.88499 0.845671 0
M  V30 1909 C 168.663 -1.79218 -0.606432 0
M  V30 1910 O 168.006 -1.1544 -1.42896 0
M  V30 1911 C 168.068 -3.38954 1.19793 0
M  V30 1912 C 167.732 -3.72018 2.65428 0
M  V30 1913 C 168.729 -3.7153 3.63677 0
M  V30 1914 C 166.414 -4.01775 3.01467 0
M  V30 1915 C 168.408 -4.00336 4.95994 0
M  V30 1916 C 166.095 -4.30243 4.33975 0
M  V30 1917 C 167.093 -4.29508 5.31048 0
M  V30 1918 O 166.781 -4.5728 6.61173 0
M  V30 1919 H 166.513 -0.603702 0.304171 0
M  V30 1920 H 169.067 -1.44903 1.45576 0
M  V30 1921 H 167.297 -3.83039 0.530871 0
M  V30 1922 H 168.986 -3.95052 0.932146 0
M  V30 1923 H 169.752 -3.4862 3.37179 0
M  V30 1924 H 165.631 -4.01496 2.26544 0
M  V30 1925 H 169.175 -3.99678 5.71755 0
M  V30 1926 H 165.072 -4.52625 4.60219 0
M  V30 1927 H 165.84 -4.74964 6.66597 0
M  V30 1928 N 168.503 -0.877838 -1.30888 0
M  V30 1929 C 169.733 -0.506678 -2.00291 0
M  V30 1930 C 170.141 0.907449 -1.66018 0
M  V30 1931 O 169.484 1.60719 -0.88967 0
M  V30 1932 C 169.546 -0.59323 -3.54572 0
M  V30 1933 C 169.21 -1.97038 -4.12341 0
M  V30 1934 C 170.207 -2.93889 -4.28865 0
M  V30 1935 C 167.892 -2.27383 -4.47886 0
M  V30 1936 C 169.886 -4.19224 -4.80136 0
M  V30 1937 C 167.573 -3.52965 -4.98857 0
M  V30 1938 C 168.571 -4.48701 -5.14934 0
M  V30 1939 O 168.259 -5.72056 -5.64808 0
M  V30 1940 H 167.991 -0.1951 -0.647234 0
M  V30 1941 H 170.545 -1.18301 -1.6791 0
M  V30 1942 H 168.775 0.140057 -3.86446 0
M  V30 1943 H 170.464 -0.234372 -4.05223 0
M  V30 1944 H 171.23 -2.71756 -4.01714 0
M  V30 1945 H 167.109 -1.53639 -4.34645 0
M  V30 1946 H 170.653 -4.93956 -4.92599 0
M  V30 1947 H 166.55 -3.74939 -5.25443 0
M  V30 1948 H 167.318 -5.74337 -5.83163 0
M  V30 1949 N 169.982 1.44106 -0.638065 0
M  V30 1950 C 170.912 2.33448 0.0494287 0
M  V30 1951 C 171.893 1.48606 0.827672 0
M  V30 1952 O 173.078 1.77308 0.792173 0
M  V30 1953 C 170.208 3.31771 1.02691 0
M  V30 1954 C 169.162 4.26485 0.359823 0
M  V30 1955 C 168.488 5.14729 1.44769 0
M  V30 1956 C 169.788 5.17056 -0.738296 0
M  V30 1957 H 171.482 2.91183 -0.696636 0
M  V30 1958 H 169.028 1.40014 -0.336456 0
M  V30 1959 H 170.981 3.93161 1.51666 0
M  V30 1960 H 169.705 2.7226 1.80395 0
M  V30 1961 H 168.364 3.66437 -0.10934 0
M  V30 1962 H 168.012 4.51566 2.21578 0
M  V30 1963 H 167.712 5.78913 1.00668 0
M  V30 1964 H 169.236 5.78991 1.93911 0
M  V30 1965 H 170.65 5.72342 -0.331354 0
M  V30 1966 H 169.047 5.89879 -1.10286 0
M  V30 1967 H 170.117 4.57652 -1.60258 0
M  V30 1968 N 171.46 0.379036 1.52974 0
M  V30 1969 C 172.708 -0.206014 2.01047 0
M  V30 1970 C 173.029 -1.48175 1.26765 0
M  V30 1971 O 172.299 -1.92085 0.384743 0
M  V30 1972 H 170.879 -0.0791184 0.742798 0
M  V30 1973 H 173.541 0.508366 1.88153 0
M  V30 1974 H 172.637 -0.423501 3.09213 0
M  V30 1975 N 172.938 -1.57226 0.108567 0
M  V30 1976 C 173.848 -2.18292 -0.859401 0
M  V30 1977 C 174.864 -1.15612 -1.30038 0
M  V30 1978 O 176.04 -1.48039 -1.36552 0
M  V30 1979 C 173.105 -2.762 -2.09558 0
M  V30 1980 C 172.166 -3.93881 -1.70752 0
M  V30 1981 C 171.399 -4.49018 -2.88477 0
M  V30 1982 O 171.622 -4.03068 -4.036 0
M  V30 1983 O 170.556 -5.39852 -2.66164 0
M  V30 1984 H 174.382 -3.01441 -0.369769 0
M  V30 1985 H 171.967 -1.48945 -0.1165 0
M  V30 1986 H 173.849 -3.13156 -2.81978 0
M  V30 1987 H 172.524 -1.96089 -2.57548 0
M  V30 1988 H 171.431 -3.61713 -0.954714 0
M  V30 1989 H 172.764 -4.75396 -1.27513 0
M  V30 1990 N 174.416 0.165178 -1.56732 0
M  V30 1991 C 175.663 0.880807 -1.8234 0
M  V30 1992 C 175.991 1.81977 -0.686621 0
M  V30 1993 O 175.246 1.92971 0.325697 0
M  V30 1994 C 175.545 1.70405 -3.1416 0
M  V30 1995 C 175.211 0.913475 -4.4155 0
M  V30 1996 C 173.873 0.695303 -4.7615 0
M  V30 1997 C 176.225 0.359349 -5.1996 0
M  V30 1998 C 173.553 -0.0879947 -5.86634 0
M  V30 1999 C 175.905 -0.410893 -6.31264 0
M  V30 2000 C 174.569 -0.639808 -6.64427 0
M  V30 2001 H 173.839 0.32231 -0.667231 0
M  V30 2002 H 176.486 0.145402 -1.90947 0
M  V30 2003 H 174.791 2.50903 -3.00923 0
M  V30 2004 H 176.488 2.26091 -3.31186 0
M  V30 2005 H 173.078 1.09357 -4.14414 0
M  V30 2006 H 177.262 0.515228 -4.93618 0
M  V30 2007 H 172.518 -0.27503 -6.10781 0
M  V30 2008 H 176.692 -0.847494 -6.91224 0
M  V30 2009 H 174.319 -1.24864 -7.49875 0
M  V30 2010 N 175.894 1.51508 0.433938 0
M  V30 2011 C 177.119 1.68443 1.21003 0
M  V30 2012 C 177.544 0.382636 1.84167 0
M  V30 2013 O 176.902 -0.65755 1.68956 0
M  V30 2014 C 176.95 2.80405 2.26727 0
M  V30 2015 O 176.054 2.44245 3.32292 0
M  V30 2016 H 175.395 0.561536 0.354363 0
M  V30 2017 H 177.925 1.9809 0.512024 0
M  V30 2018 H 177.935 3.0459 2.71457 0
M  V30 2019 H 176.61 3.74867 1.80132 0
M  V30 2020 H 175.187 2.30644 2.93015 0
M  V30 2021 N 177.372 -0.689602 1.41712 0
M  V30 2022 C 178.621 -1.44534 1.40686 0
M  V30 2023 C 178.934 -1.95588 0.0213352 0
M  V30 2024 O 180.14 -2.71271 -0.111534 0
M  V30 2025 C 178.596 -2.61387 2.47396 0
M  V30 2026 C 178.204 -2.17094 3.91885 0
M  V30 2027 C 179.948 -3.38986 2.55517 0
M  V30 2028 C 177.855 -3.3094 4.90135 0
M  V30 2029 H 176.785 -0.542925 0.52321 0
M  V30 2030 H 179.436 -0.748054 1.6756 0
M  V30 2031 H 177.818 -3.33412 2.13664 0
M  V30 2032 H 178.992 -1.52318 4.34897 0
M  V30 2033 H 177.307 -1.52473 3.8748 0
M  V30 2034 H 179.904 -4.23747 3.26102 0
M  V30 2035 H 180.247 -3.84578 1.59391 0
M  V30 2036 H 180.78 -2.74021 2.8837 0
M  V30 2037 H 177.519 -2.90355 5.87685 0
M  V30 2038 H 177.039 -3.94546 4.51767 0
M  V30 2039 H 178.718 -3.9663 5.11169 0
M  V30 2040 N 178.85 -1.27639 -0.924453 0
M  V30 2041 C 180.078 -1.16989 -1.70649 0
M  V30 2042 C 180.493 0.272869 -1.86818 0
M  V30 2043 O 179.85 1.18549 -1.38753 0
M  V30 2044 C 179.901 -1.85229 -3.10439 0
M  V30 2045 O 179.622 -3.23868 -2.95028 0
M  V30 2046 C 181.123 -1.80746 -4.04779 0
M  V30 2047 H 178.343 -0.406595 -0.53378 0
M  V30 2048 H 180.887 -1.68569 -1.15778 0
M  V30 2049 H 179.042 -1.37545 -3.6216 0
M  V30 2050 H 179.456 -3.57889 -3.83426 0
M  V30 2051 H 180.93 -2.33101 -5.00368 0
M  V30 2052 H 181.407 -0.777499 -4.32263 0
M  V30 2053 H 182.013 -2.28059 -3.58984 0
M  V30 2054 N 180.328 1.1314 -1.09713 0
M  V30 2055 C 181.558 1.88048 -0.855656 0
M  V30 2056 C 181.966 1.79537 0.596919 0
M  V30 2057 O 181.309 1.16196 1.42282 0
M  V30 2058 C 181.371 3.38314 -1.21589 0
M  V30 2059 C 181.035 3.70605 -2.67397 0
M  V30 2060 C 182.032 3.69596 -3.65643 0
M  V30 2061 C 179.717 4.0017 -3.03593 0
M  V30 2062 C 181.711 3.977 -4.9811 0
M  V30 2063 C 179.398 4.27935 -4.36251 0
M  V30 2064 C 180.396 4.26685 -5.33318 0
M  V30 2065 O 180.084 4.53767 -6.63589 0
M  V30 2066 H 179.816 0.60208 -0.307368 0
M  V30 2067 H 182.37 1.44128 -1.46343 0
M  V30 2068 H 180.6 3.82752 -0.551177 0
M  V30 2069 H 182.289 3.94552 -0.953083 0
M  V30 2070 H 183.055 3.46826 -3.39023 0
M  V30 2071 H 178.934 4.00289 -2.2867 0
M  V30 2072 H 182.478 3.9664 -5.73866 0
M  V30 2073 H 178.375 4.50178 -4.62613 0
M  V30 2074 H 179.143 4.71422 -6.69107 0
M  V30 2075 N 181.806 0.884767 1.30421 0
M  V30 2076 C 182.753 0.349642 2.28136 0
M  V30 2077 C 183.723 -0.560061 1.56373 0
M  V30 2078 O 184.908 -0.488524 1.8444 0
M  V30 2079 C 182.048 -0.42999 3.42411 0
M  V30 2080 C 181.161 0.508907 4.28992 0
M  V30 2081 C 180.296 -0.286301 5.30428 0
M  V30 2082 C 179.335 0.648079 6.08659 0
M  V30 2083 N 178.472 -0.111792 7.02011 0
M  V30 2084 H 183.312 1.18807 2.73293 0
M  V30 2085 H 180.849 0.597231 1.3443 0
M  V30 2086 H 182.807 -0.897923 4.07423 0
M  V30 2087 H 181.437 -1.23299 2.98324 0
M  V30 2088 H 180.489 1.09533 3.64289 0
M  V30 2089 H 181.801 1.22475 4.8353 0
M  V30 2090 H 180.955 -0.816098 6.01186 0
M  V30 2091 H 179.694 -1.03536 4.76583 0
M  V30 2092 H 178.699 1.18951 5.36778 0
M  V30 2093 H 179.924 1.39623 6.64592 0
M  V30 2094 H 177.87 -0.843395 6.50556 0
M  V30 2095 H 177.787 0.544429 7.54037 0
M  V30 2096 H 179.055 -0.622339 7.77012 0
M  V30 2097 N 183.284 -1.43765 0.645699 0
M  V30 2098 C 184.234 -2.27884 -0.0726442 0
M  V30 2099 C 185.218 -1.39483 -0.802086 0
M  V30 2100 O 186.41 -1.63174 -0.685791 0
M  V30 2101 C 183.539 -3.27055 -1.04356 0
M  V30 2102 C 182.625 -4.22944 -0.312985 0
M  V30 2103 N 183.016 -5.01391 0.666386 0
M  V30 2104 C 181.314 -4.42528 -0.55546 0
M  V30 2105 C 182.015 -5.71217 1.09935 0
M  V30 2106 N 180.991 -5.41856 0.435137 0
M  V30 2107 H 184.793 -2.85949 0.678988 0
M  V30 2108 H 182.307 -1.55378 0.472368 0
M  V30 2109 H 184.304 -3.86089 -1.57292 0
M  V30 2110 H 182.964 -2.70551 -1.79534 0
M  V30 2111 H 183.975 -5.07252 1.04481 0
M  V30 2112 H 180.652 -3.97104 -1.28899 0
M  V30 2113 H 182.042 -6.44202 1.90929 0
M  V30 2114 N 184.763 -0.387143 -1.52771 0
M  V30 2115 C 185.991 0.195869 -2.05971 0
M  V30 2116 C 186.406 1.40691 -1.25903 0
M  V30 2117 O 185.763 1.79931 -0.305134 0
M  V30 2118 C 185.814 0.56812 -3.57008 0
M  V30 2119 O 185.535 -0.594803 -4.34043 0
M  V30 2120 C 187.036 1.20723 -4.26545 0
M  V30 2121 H 184.256 0.0300578 -0.670326 0
M  V30 2122 H 186.8 -0.551749 -1.96916 0
M  V30 2123 H 184.955 1.26564 -3.66143 0
M  V30 2124 H 185.369 -0.289322 -5.23701 0
M  V30 2125 H 186.843 1.41807 -5.33474 0
M  V30 2126 H 187.32 2.17395 -3.81623 0
M  V30 2127 H 187.926 0.550535 -4.21722 0
M  V30 2128 N 186.241 1.57166 -0.116904 0
M  V30 2129 C 187.657 1.5779 0.239693 0
M  V30 2130 C 187.857 1.1295 1.66867 0
M  V30 2131 O 186.913 0.81592 2.38954 0
M  V30 2132 C 188.226 3.00699 0.00828202 0
M  V30 2133 C 189.774 3.12912 0.0743438 0
M  V30 2134 C 190.249 4.57817 -0.129348 0
M  V30 2135 N 191.74 4.63139 -0.075247 0
M  V30 2136 C 192.475 5.73023 -0.207788 0
M  V30 2137 N 191.971 6.91665 -0.396382 0
M  V30 2138 N 193.764 5.61906 -0.14751 0
M  V30 2139 H 185.915 1.84615 -1.05029 0
M  V30 2140 H 188.178 0.85311 -0.41341 0
M  V30 2141 H 187.884 3.37784 -0.979531 0
M  V30 2142 H 187.758 3.69848 0.741077 0
M  V30 2143 H 190.145 2.75686 1.05268 0
M  V30 2144 H 190.226 2.4631 -0.690297 0
M  V30 2145 H 189.87 4.95742 -1.10465 0
M  V30 2146 H 189.8 5.22507 0.655253 0
M  V30 2147 H 192.291 3.7784 0.0670898 0
M  V30 2148 H 192.604 7.71255 -0.488437 0
M  V30 2149 H 190.949 6.93654 -0.432329 0
M  V30 2150 H 194.14 4.681 -0.00115036 0
M  V30 2151 H 194.313 6.47501 -0.254247 0
M  V30 2152 N 187.719 -0.156864 1.56817 0
M  V30 2153 C 188.669 -1.19891 1.93934 0
M  V30 2154 C 189.653 -1.39061 0.809372 0
M  V30 2155 O 190.845 -1.40789 1.07273 0
M  V30 2156 C 187.974 -2.53493 2.31508 0
M  V30 2157 C 187.06 -2.37957 3.51052 0
M  V30 2158 N 187.451 -1.92158 4.67877 0
M  V30 2159 C 185.749 -2.68739 3.55943 0
M  V30 2160 C 186.45 -1.8943 5.49992 0
M  V30 2161 N 185.426 -2.32375 4.91429 0
M  V30 2162 H 189.228 -0.836746 2.81737 0
M  V30 2163 H 186.742 -0.365012 1.58245 0
M  V30 2164 H 188.739 -3.28811 2.56299 0
M  V30 2165 H 187.399 -2.905 1.45051 0
M  V30 2166 H 188.41 -1.62274 4.91821 0
M  V30 2167 H 185.087 -3.09687 2.80001 0
M  V30 2168 H 186.477 -1.55596 6.53636 0
M  V30 2169 N 189.197 -1.51736 -0.425897 0
M  V30 2170 C 190.445 -1.64644 -1.17204 0
M  V30 2171 C 190.766 -0.370486 -1.91448 0
M  V30 2172 O 190.036 0.614088 -1.86026 0
M  V30 2173 H 188.616 -0.606819 -0.435638 0
M  V30 2174 H 191.278 -1.88713 -0.487177 0
M  V30 2175 H 190.374 -2.47958 -1.89534 0
M  V30 2176 N 190.675 0.682077 -1.42076 0
M  V30 2177 C 191.622 1.79578 -1.44984 0
M  V30 2178 C 192.592 1.6332 -0.302614 0
M  V30 2179 O 193.777 1.83978 -0.505633 0
M  V30 2180 C 190.917 3.1756 -1.35091 0
M  V30 2181 C 190.03 3.45156 -2.59791 0
M  V30 2182 C 189.165 4.72826 -2.42093 0
M  V30 2183 C 188.204 4.93433 -3.62202 0
M  V30 2184 N 187.341 6.12338 -3.43491 0
M  V30 2185 H 192.181 1.76427 -2.40161 0
M  V30 2186 H 189.718 0.861376 -1.19242 0
M  V30 2187 H 191.676 3.97287 -1.27354 0
M  V30 2188 H 190.306 3.19854 -0.435133 0
M  V30 2189 H 189.358 2.59736 -2.77923 0
M  V30 2190 H 190.67 3.5628 -3.49094 0
M  V30 2191 H 189.824 5.60631 -2.319 0
M  V30 2192 H 188.563 4.63973 -1.50268 0
M  V30 2193 H 187.568 4.04073 -3.72834 0
M  V30 2194 H 188.793 5.04136 -4.54998 0
M  V30 2195 H 186.739 6.04672 -2.54377 0
M  V30 2196 H 186.656 6.2429 -4.26377 0
M  V30 2197 H 187.924 7.02841 -3.37097 0
M  V30 2198 N 192.153 1.28127 0.917671 0
M  V30 2199 C 193.564 1.13622 1.48145 0
M  V30 2200 C 193.915 -0.275207 1.9426 0
M  V30 2201 O 193.04 -1.1691 1.82102 0
M  V30 2202 C 193.635 2.05648 2.69248 0
M  V30 2203 C 192.194 1.95219 3.21818 0
M  V30 2204 C 191.341 1.97618 1.94532 0
M  V30 2205 H 194.292 1.40874 0.730772 0
M  V30 2206 H 194.313 1.61818 3.44377 0
M  V30 2207 H 193.825 3.08365 2.35653 0
M  V30 2208 H 191.926 0.955244 3.60147 0
M  V30 2209 H 192.039 2.81976 3.87333 0
M  V30 2210 H 190.403 1.41973 2.11461 0
M  V30 2211 H 191.186 3.02007 1.63238 0
M  V30 2212 N 193.631 -1.12557 1.10312 0
M  V30 2213 C 194.879 -1.83675 0.843091 0
M  V30 2214 C 195.2 -1.84435 -0.633131 0
M  V30 2215 O 194.47 -1.30657 -1.45964 0
M  V30 2216 H 193.05 -0.680138 0.308904 0
M  V30 2217 H 195.712 -1.36301 1.39313 0
M  V30 2218 H 194.808 -2.87908 1.2048 0
M  V30 2219 N 195.109 -0.891671 -1.2995 0
M  V30 2220 C 196.358 -0.509521 -1.95158 0
M  V30 2221 C 196.671 0.947388 -1.71125 0
M  V30 2222 O 197.877 1.43669 -2.30372 0
M  V30 2223 C 196.333 -0.860315 -3.49466 0
M  V30 2224 C 195.941 -2.33545 -3.8231 0
M  V30 2225 C 197.685 -0.547687 -4.20952 0
M  V30 2226 C 195.592 -2.62752 -5.29826 0
M  V30 2227 H 194.522 -0.18682 -0.730489 0
M  V30 2228 H 197.173 -1.08756 -1.47798 0
M  V30 2229 H 195.555 -0.211285 -3.95436 0
M  V30 2230 H 196.729 -3.02936 -3.47227 0
M  V30 2231 H 195.044 -2.61629 -3.23944 0
M  V30 2232 H 197.641 -0.742854 -5.29515 0
M  V30 2233 H 197.984 0.51332 -4.13123 0
M  V30 2234 H 198.517 -1.1542 -3.80688 0
M  V30 2235 H 195.256 -3.6762 -5.42712 0
M  V30 2236 H 194.776 -1.97977 -5.66185 0
M  V30 2237 H 196.455 -2.48601 -5.97333 0
M  V30 2238 N 196.587 1.43421 -0.653314 0
M  V30 2239 C 197.835 2.01414 -0.166415 0
M  V30 2240 C 198.156 1.51803 1.22397 0
M  V30 2241 O 197.426 0.730693 1.81763 0
M  V30 2242 H 196.006 0.744703 -0.0585319 0
M  V30 2243 H 198.668 1.75629 -0.845003 0
M  V30 2244 H 197.764 3.11734 -0.151111 0
M  V30 2245 N 198.065 0.39524 1.52563 0
M  V30 2246 C 199.028 -0.425001 2.25225 0
M  V30 2247 C 200.028 -0.985266 1.27079 0
M  V30 2248 O 201.218 -0.866332 1.5113 0
M  V30 2249 C 198.35 -1.59686 3.01186 0
M  V30 2250 H 199.543 0.211233 2.99155 0
M  V30 2251 H 197.096 0.147472 1.55603 0
M  V30 2252 H 197.831 -2.27035 2.31572 0
M  V30 2253 H 197.616 -1.20176 3.73229 0
M  V30 2254 H 199.106 -2.17743 3.5634 0
M  V30 2255 N 199.544 -1.57102 0.125237 0
M  V30 2256 C 200.772 -1.99761 -0.538797 0
M  V30 2257 C 201.187 -1.00503 -1.59827 0
M  V30 2258 O 200.544 0.00119474 -1.825 0
M  V30 2259 C 200.595 -3.42408 -1.15927 0
M  V30 2260 O 200.316 -4.37869 -0.142143 0
M  V30 2261 C 201.817 -4.00232 -1.90602 0
M  V30 2262 H 199.037 -0.655772 -0.14214 0
M  V30 2263 H 201.581 -2.03383 0.213413 0
M  V30 2264 H 199.736 -3.39706 -1.86223 0
M  V30 2265 H 200.15 -5.21128 -0.593775 0
M  V30 2266 H 201.624 -5.02105 -2.29335 0
M  V30 2267 H 202.101 -3.39721 -2.78363 0
M  V30 2268 H 202.707 -4.06499 -1.25055 0
M  V30 2269 N 201.022 0.148545 -1.56898 0
M  V30 2270 C 201.972 1.1886 -1.94567 0
M  V30 2271 C 202.956 1.3863 -0.816735 0
M  V30 2272 O 204.148 1.40218 -1.08018 0
M  V30 2273 C 201.277 2.52262 -2.32849 0
M  V30 2274 C 200.363 2.36092 -3.52309 0
M  V30 2275 N 200.754 1.89674 -4.6889 0
M  V30 2276 C 199.052 2.66848 -3.57363 0
M  V30 2277 C 199.753 1.86511 -5.50989 0
M  V30 2278 N 198.729 2.29766 -4.92655 0
M  V30 2279 H 202.531 0.821793 -2.82177 0
M  V30 2280 H 200.045 0.356615 -1.58436 0
M  V30 2281 H 202.042 3.27447 -2.58039 0
M  V30 2282 H 200.702 2.89727 -1.46589 0
M  V30 2283 H 201.713 1.59663 -4.92674 0
M  V30 2284 H 198.39 3.08198 -2.81639 0
M  V30 2285 H 199.78 1.52128 -6.54452 0
M  V30 2286 N 202.5 1.5196 0.417844 0
M  V30 2287 C 203.725 1.69717 1.1921 0
M  V30 2288 C 204.15 0.402148 1.83751 0
M  V30 2289 O 203.508 -0.639593 1.69643 0
M  V30 2290 C 203.556 2.82794 2.2374 0
M  V30 2291 O 202.66 2.47756 3.29683 0
M  V30 2292 H 202.001 0.565263 0.348387 0
M  V30 2293 H 204.531 1.98621 0.490985 0
M  V30 2294 H 204.541 3.07452 2.68212 0
M  V30 2295 H 203.216 3.76756 1.76146 0
M  V30 2296 H 201.793 2.33739 2.90552 0
M  V30 2297 N 203.978 -0.674533 1.42435 0
M  V30 2298 C 205.203 -1.46784 1.46524 0
M  V30 2299 C 205.628 -1.87938 0.078066 0
M  V30 2300 O 204.986 -1.56014 -0.92354 0
M  V30 2301 C 205.034 -2.69307 2.39805 0
M  V30 2302 O 204.138 -3.67587 1.86959 0
M  V30 2303 H 203.479 -0.440959 0.496439 0
M  V30 2304 H 206.009 -0.827326 1.87127 0
M  V30 2305 H 206.019 -3.17374 2.56393 0
M  V30 2306 H 204.694 -2.38692 3.40586 0
M  V30 2307 H 203.271 -3.2662 1.79927 0
M  V30 2308 N 205.456 -1.28612 -0.910864 0
M  V30 2309 C 206.872 -1.06381 -1.18976 0
M  V30 2310 C 207.072 0.191998 -2.00583 0
M  V30 2311 O 206.128 0.892869 -2.36187 0
M  V30 2312 C 207.441 -2.31295 -1.92154 0
M  V30 2313 C 208.989 -2.36503 -2.05025 0
M  V30 2314 C 209.464 -3.61191 -2.81612 0
M  V30 2315 N 210.955 -3.61847 -2.89172 0
M  V30 2316 C 211.69 -4.55004 -3.4894 0
M  V30 2317 N 211.186 -5.58482 -4.09963 0
M  V30 2318 N 212.979 -4.42594 -3.46506 0
M  V30 2319 H 205.13 -2.09221 -0.366094 0
M  V30 2320 H 207.393 -0.921003 -0.224629 0
M  V30 2321 H 207.099 -3.228 -1.39618 0
M  V30 2322 H 206.973 -2.37934 -2.9269 0
M  V30 2323 H 209.36 -1.45494 -2.5674 0
M  V30 2324 H 209.441 -2.33857 -1.03657 0
M  V30 2325 H 209.085 -4.52545 -2.30576 0
M  V30 2326 H 209.015 -3.61092 -3.83302 0
M  V30 2327 H 211.506 -2.87022 -2.45819 0
M  V30 2328 H 211.819 -6.25704 -4.53557 0
M  V30 2329 H 210.164 -5.62305 -4.08459 0
M  V30 2330 H 213.355 -3.60953 -2.98045 0
M  V30 2331 H 213.528 -5.15381 -3.92793 0
M  V30 2332 N 206.934 1.1197 -1.10907 0
M  V30 2333 C 208.181 1.83588 -0.854507 0
M  V30 2334 C 208.509 1.84357 0.6199 0
M  V30 2335 O 207.764 1.28809 1.47332 0
M  V30 2336 C 208.063 3.30749 -1.35425 0
M  V30 2337 C 207.729 3.50146 -2.84093 0
M  V30 2338 C 206.391 3.55148 -3.2469 0
M  V30 2339 C 208.743 3.56857 -3.79872 0
M  V30 2340 C 206.071 3.6441 -4.59806 0
M  V30 2341 C 208.423 3.6765 -5.14797 0
M  V30 2342 C 207.087 3.7091 -5.54961 0
M  V30 2343 H 206.357 0.671795 -0.312686 0
M  V30 2344 H 209.004 1.32091 -1.38652 0
M  V30 2345 H 207.309 3.84703 -0.742361 0
M  V30 2346 H 209.006 3.8464 -1.1337 0
M  V30 2347 H 205.596 3.46919 -2.51685 0
M  V30 2348 H 209.78 3.52258 -3.49611 0
M  V30 2349 H 205.036 3.65208 -4.9034 0
M  V30 2350 H 209.21 3.71786 -5.88853 0
M  V30 2351 H 206.837 3.7784 -6.59652 0
M  V30 2352 N 208.412 0.89855 1.29475 0
M  V30 2353 C 209.661 0.519863 1.94885 0
M  V30 2354 C 209.974 -0.9383 1.71625 0
M  V30 2355 O 211.18 -1.42445 2.31131 0
M  V30 2356 C 209.636 0.878836 3.49005 0
M  V30 2357 C 209.244 2.35569 3.81066 0
M  V30 2358 C 210.988 0.570004 4.20656 0
M  V30 2359 C 208.895 2.65558 5.28425 0
M  V30 2360 H 207.825 0.190692 0.729488 0
M  V30 2361 H 210.476 1.09539 1.47219 0
M  V30 2362 H 208.858 0.232253 3.95318 0
M  V30 2363 H 210.032 3.04773 3.45616 0
M  V30 2364 H 208.347 2.63343 3.22552 0
M  V30 2365 H 210.944 0.770925 5.29113 0
M  V30 2366 H 211.287 -0.491404 4.1339 0
M  V30 2367 H 211.82 1.17438 3.8007 0
M  V30 2368 H 208.559 3.70493 5.40754 0
M  V30 2369 H 208.079 2.00977 5.65127 0
M  V30 2370 H 209.758 2.51765 5.96006 0
M  V30 2371 N 209.89 -1.43072 0.660911 0
M  V30 2372 C 211.301 -1.84932 0.256348 0
M  V30 2373 C 211.652 -1.55325 -1.19868 0
M  V30 2374 O 210.777 -1.00607 -1.91591 0
M  V30 2375 C 211.372 -3.35684 0.458475 0
M  V30 2376 C 209.931 -3.76245 0.108161 0
M  V30 2377 C 209.078 -2.66749 0.757641 0
M  V30 2378 H 212.029 -1.33116 0.864051 0
M  V30 2379 H 212.05 -3.79365 -0.293683 0
M  V30 2380 H 211.562 -3.572 1.51755 0
M  V30 2381 H 209.663 -3.60338 -0.948014 0
M  V30 2382 H 209.776 -4.76058 0.538992 0
M  V30 2383 H 208.14 -2.53989 0.190185 0
M  V30 2384 H 208.923 -2.91092 1.81989 0
M  V30 2385 N 211.368 -0.403325 -1.52352 0
M  V30 2386 C 212.298 0.416205 -2.29761 0
M  V30 2387 C 213.279 1.05123 -1.33728 0
M  V30 2388 O 214.464 1.06134 -1.62632 0
M  V30 2389 C 211.594 1.53624 -3.11475 0
M  V30 2390 C 210.548 1.02653 -4.15507 0
M  V30 2391 C 209.874 2.23971 -4.85532 0
M  V30 2392 C 211.174 0.08463 -5.22231 0
M  V30 2393 H 212.868 -0.229701 -2.98518 0
M  V30 2394 H 210.414 -0.111913 -1.43564 0
M  V30 2395 H 212.367 2.1165 -3.64393 0
M  V30 2396 H 211.091 2.20994 -2.40477 0
M  V30 2397 H 209.75 0.46871 -3.63591 0
M  V30 2398 H 209.398 2.89883 -4.11068 0
M  V30 2399 H 209.098 1.90521 -5.55856 0
M  V30 2400 H 210.622 2.82614 -5.41259 0
M  V30 2401 H 212.036 0.573509 -5.70424 0
M  V30 2402 H 210.433 -0.160783 -5.99885 0
M  V30 2403 H 211.503 -0.86237 -4.7717 0
M  V30 2404 N 212.846 1.57033 -0.133567 0
M  V30 2405 C 213.793 2.16074 0.811208 0
M  V30 2406 C 214.763 1.08979 1.2535 0
M  V30 2407 O 215.948 1.36958 1.32843 0
M  V30 2408 C 213.088 2.77595 2.05024 0
M  V30 2409 C 212.201 3.99042 1.65498 0
M  V30 2410 C 211.336 4.48603 2.84479 0
M  V30 2411 C 210.375 5.62547 2.41262 0
M  V30 2412 N 209.512 6.06787 3.53206 0
M  V30 2413 H 214.352 2.96477 0.300906 0
M  V30 2414 H 211.889 1.46462 0.136822 0
M  V30 2415 H 213.847 3.11402 2.77642 0
M  V30 2416 H 212.477 1.99859 2.53488 0
M  V30 2417 H 211.529 3.71302 0.826981 0
M  V30 2418 H 212.841 4.81629 1.29748 0
M  V30 2419 H 211.995 4.84395 3.65303 0
M  V30 2420 H 210.734 3.64995 3.23465 0
M  V30 2421 H 209.739 5.26345 1.58874 0
M  V30 2422 H 210.964 6.47931 2.03377 0
M  V30 2423 H 208.91 5.26117 3.91838 0
M  V30 2424 H 208.827 6.84266 3.21427 0
M  V30 2425 H 210.095 6.4722 4.34427 0
M  V30 2426 O 214.363 -0.00541248 1.61499 0
M  V30 2427 H 215.054 -0.622816 1.83414 0
M  V30 END ATOM
M  V30 BEGIN BOND
M  V30 END BOND
M  V30 END CTAB
M  END
$$$$
