drugbank_target|C0H5H0 Heat shock protein 110, putative (DB11638)
 OpenBabel12092121113D

  0  0  0     0  0            999 V3000
M  V30 BEGIN CTAB
M  V30 COUNTS 15163 15277 0 0 0
M  V30 BEGIN ATOM
M  V30 1 H -0.908 1.98254 -0.117106 0
M  V30 2 N 0 1.576 0 0
M  V30 3 C 0.933 2.03868 1.02534 0
M  V30 4 C 1.911 0.928543 1.3348 0
M  V30 5 O 3.095 1.19667 1.45644 0
M  V30 6 C 0.222 2.43627 2.35294 0
M  V30 7 C -0.732 3.65373 2.2001 0
M  V30 8 S 0.101 5.13292 1.52614 0
M  V30 9 C 1.257 5.56322 2.86805 0
M  V30 10 H 1.49 2.90518 0.631377 0
M  V30 11 H -0.977 1.52953 0.210867 0
M  V30 12 H 0.981 2.67203 3.11629 0
M  V30 13 H -0.358 1.57376 2.7183 0
M  V30 14 H -1.165 3.90944 3.18086 0
M  V30 15 H -1.563 3.418 1.51819 0
M  V30 16 H 0.729 5.58782 3.83104 0
M  V30 17 H 1.672 6.56266 2.65933 0
M  V30 18 H 2.08 4.83886 2.90714 0
M  V30 19 N 1.4781 -0.272755 1.55222 0
M  V30 20 C 2.8941 -0.619959 1.47067 0
M  V30 21 C 3.0941 -1.895 0.684978 0
M  V30 22 O 2.1501 -2.51675 0.203931 0
M  V30 23 C 3.4631 -0.746693 2.91282 0
M  V30 24 C 5.0111 -0.840731 3.01497 0
M  V30 25 C 5.4861 -0.99924 4.46967 0
M  V30 26 N 6.9771 -1.06476 4.50796 0
M  V30 27 C 7.7121 -1.20621 5.6057 0
M  V30 28 N 7.2081 -1.31483 6.80209 0
M  V30 29 N 9.0011 -1.23733 5.48312 0
M  V30 30 H 1.1521 0.564606 2.04758 0
M  V30 31 H 3.4151 0.191177 0.928523 0
M  V30 32 H 3.1211 0.119753 3.51496 0
M  V30 33 H 2.9951 -1.6269 3.40311 0
M  V30 34 H 5.3821 -1.69764 2.41379 0
M  V30 35 H 5.4631 0.0640874 2.5572 0
M  V30 36 H 5.1071 -0.146984 5.07687 0
M  V30 37 H 5.0371 -1.91871 4.90401 0
M  V30 38 H 7.5281 -0.993196 3.64615 0
M  V30 39 H 7.8411 -1.42111 7.59621 0
M  V30 40 H 6.1861 -1.28487 6.8302 0
M  V30 41 H 9.3771 -1.14877 4.53785 0
M  V30 42 H 9.5501 -1.34412 6.33906 0
M  V30 43 N 2.9562 -1.48159 -0.537278 0
M  V30 44 C 4.3672 -1.49429 -1.11928 0
M  V30 45 C 4.7182 -0.26 -1.9447 0
M  V30 46 O 3.8432 0.633489 -2.0692 0
M  V30 47 C 4.4382 -2.70758 -2.03656 0
M  V30 48 C 2.9972 -2.74923 -2.57088 0
M  V30 49 C 2.1442 -2.42835 -1.3389 0
M  V30 50 H 5.0952 -1.55381 -0.322886 0
M  V30 51 H 5.1162 -2.48861 -2.87834 0
M  V30 52 H 4.6282 -3.60575 -1.43553 0
M  V30 53 H 2.7292 -1.89296 -3.20933 0
M  V30 54 H 2.8422 -3.76157 -2.9672 0
M  V30 55 H 1.2062 -1.93836 -1.65226 0
M  V30 56 H 1.9892 -3.34884 -0.755504 0
M  V30 57 N 4.4343 0.785586 -1.36625 0
M  V30 58 C 5.8503 1.08419 -1.17122 0
M  V30 59 C 6.0503 2.015 0.00208491 0
M  V30 60 O 5.1063 2.43551 0.666278 0
M  V30 61 C 6.4193 1.69498 -2.48377 0
M  V30 62 C 7.9673 1.81821 -2.54775 0
M  V30 63 C 8.4423 2.46315 -3.86126 0
M  V30 64 N 9.9333 2.53779 -3.87492 0
M  V30 65 C 10.6683 3.045 -4.85868 0
M  V30 66 N 10.1643 3.55499 -5.94637 0
M  V30 67 N 11.9573 3.03247 -4.73284 0
M  V30 68 H 4.1083 0.167264 -2.1174 0
M  V30 69 H 6.3713 0.13682 -0.938075 0
M  V30 70 H 6.0773 1.08571 -3.34522 0
M  V30 71 H 5.9513 2.6896 -2.64462 0
M  V30 72 H 8.3383 2.41884 -1.69045 0
M  V30 73 H 8.4193 0.811532 -2.42586 0
M  V30 74 H 8.0633 1.86895 -4.72263 0
M  V30 75 H 7.9933 3.47561 -3.95612 0
M  V30 76 H 10.4843 2.17672 -3.08913 0
M  V30 77 H 10.7973 3.92562 -6.65669 0
M  V30 78 H 9.1423 3.5364 -5.98301 0
M  V30 79 H 12.3333 2.62696 -3.87438 0
M  V30 80 H 12.5063 3.42467 -5.50109 0
M  V30 81 N 5.9124 1.20967 1.01018 0
M  V30 82 C 7.1594 1.02374 1.74716 0
M  V30 83 C 7.4874 -0.443375 1.89379 0
M  V30 84 O 6.7424 -1.34535 1.42123 0
M  V30 85 C 7.0414 1.65997 3.16512 0
M  V30 86 C 6.7074 3.15831 3.2181 0
M  V30 87 C 5.3694 3.56719 3.22963 0
M  V30 88 C 7.7214 4.11816 3.19464 0
M  V30 89 C 5.0494 4.92107 3.19449 0
M  V30 90 C 7.4014 5.47158 3.17491 0
M  V30 91 C 6.0654 5.87451 3.16951 0
M  V30 92 H 5.3354 0.374614 0.639332 0
M  V30 93 H 7.9824 1.50485 1.18434 0
M  V30 94 H 6.2874 1.10166 3.75993 0
M  V30 95 H 7.9844 1.49119 3.72242 0
M  V30 96 H 4.5744 2.83263 3.21652 0
M  V30 97 H 8.7584 3.81257 3.17737 0
M  V30 98 H 4.0144 5.22579 3.17366 0
M  V30 99 H 8.1884 6.21274 3.14629 0
M  V30 100 H 5.8154 6.92329 3.13983 0
M  V30 101 N 7.3905 -1.2043 1.01659 0
M  V30 102 C 8.6375 -1.89797 0.705917 0
M  V30 103 C 8.9655 -1.78848 -0.764439 0
M  V30 104 O 8.2205 -1.16694 -1.57102 0
M  V30 105 C 8.5195 -3.40464 1.08714 0
M  V30 106 C 8.1855 -3.71614 2.5537 0
M  V30 107 C 6.8475 -3.79826 2.95441 0
M  V30 108 C 9.1995 -3.85915 3.50313 0
M  V30 109 C 6.5275 -3.99797 4.29394 0
M  V30 110 C 8.8795 -4.07396 4.83954 0
M  V30 111 C 7.5435 -4.13837 5.23732 0
M  V30 112 H 6.8135 -0.694518 0.258313 0
M  V30 113 H 9.4605 -1.42691 1.27717 0
M  V30 114 H 7.7655 -3.89385 0.434309 0
M  V30 115 H 9.4625 -3.92433 0.824461 0
M  V30 116 H 6.0525 -3.65822 2.23321 0
M  V30 117 H 10.2365 -3.78926 3.20513 0
M  V30 118 H 5.4925 -4.03018 4.59768 0
M  V30 119 H 9.6665 -4.17404 5.57447 0
M  V30 120 H 7.2935 -4.29064 6.27541 0
M  V30 121 N 8.8686 -0.792821 -1.36206 0
M  V30 122 C 9.7986 -0.207853 -2.32573 0
M  V30 123 C 10.7796 0.659055 -1.56813 0
M  V30 124 O 11.9646 0.592176 -1.84951 0
M  V30 125 C 9.0946 0.655449 -3.41059 0
M  V30 126 C 8.0486 -0.111842 -4.27854 0
M  V30 127 C 7.3746 0.872274 -5.27537 0
M  V30 128 C 8.6746 -1.30299 -5.05786 0
M  V30 129 H 10.3686 -1.01294 -2.81744 0
M  V30 130 H 7.9146 -0.48854 -1.3546 0
M  V30 131 H 9.8676 1.07464 -4.07467 0
M  V30 132 H 8.5916 1.49328 -2.90463 0
M  V30 133 H 7.2506 -0.512053 -3.63006 0
M  V30 134 H 6.8986 1.70523 -4.73214 0
M  V30 135 H 6.5986 0.363291 -5.86476 0
M  V30 136 H 8.1226 1.28996 -5.96818 0
M  V30 137 H 9.5366 -0.959379 -5.65216 0
M  V30 138 H 7.9336 -1.7455 -5.74154 0
M  V30 139 H 9.0036 -2.09663 -4.37229 0
M  V30 140 N 10.3467 1.47872 -0.545128 0
M  V30 141 C 11.5937 2.02493 -0.0165858 0
M  V30 142 C 11.9217 1.42073 1.32836 0
M  V30 143 O 11.1767 0.561459 1.87473 0
M  V30 144 C 11.4757 3.57131 0.13867 0
M  V30 145 C 11.1417 4.36411 -1.13384 0
M  V30 146 C 9.8037 4.57792 -1.48256 0
M  V30 147 C 12.1557 4.82223 -1.97764 0
M  V30 148 C 9.4837 5.22233 -2.67376 0
M  V30 149 C 11.8357 5.47977 -3.16076 0
M  V30 150 C 10.4997 5.67593 -3.51275 0
M  V30 151 H 9.7697 0.740975 -0.00606918 0
M  V30 152 H 12.4167 1.77683 -0.714207 0
M  V30 153 H 10.7217 3.80865 0.919172 0
M  V30 154 H 12.4187 3.97031 0.562782 0
M  V30 155 H 9.0087 4.2004 -0.852297 0
M  V30 156 H 13.1927 4.65493 -1.72132 0
M  V30 157 H 8.4487 5.35616 -2.94831 0
M  V30 158 H 12.6227 5.8244 -3.81755 0
M  V30 159 H 10.2497 6.17298 -4.43675 0
M  V30 160 N 11.8248 0.280983 1.55075 0
M  V30 161 C 12.7548 -0.597469 2.25727 0
M  V30 162 C 13.7358 -1.15417 1.24952 0
M  V30 163 O 14.9208 -1.18722 1.53684 0
M  V30 164 C 12.0508 -1.7789 2.98283 0
M  V30 165 C 11.0048 -1.35347 4.06036 0
M  V30 166 C 10.3308 -2.61846 4.66198 0
M  V30 167 C 11.6308 -0.499354 5.19907 0
M  V30 168 H 13.3248 -0.00824265 2.99399 0
M  V30 169 H 10.8708 -0.0025244 1.44 0
M  V30 170 H 12.8238 -2.39937 3.46422 0
M  V30 171 H 11.5478 -2.39405 2.22155 0
M  V30 172 H 10.2068 -0.756156 3.58717 0
M  V30 173 H 9.8548 -3.21632 3.86732 0
M  V30 174 H 9.5548 -2.3409 5.38958 0
M  V30 175 H 11.0788 -3.24732 5.1709 0
M  V30 176 H 12.4928 -1.02498 5.64063 0
M  V30 177 H 10.8898 -0.316424 5.99265 0
M  V30 178 H 11.9598 0.480459 4.82514 0
M  V30 179 N 13.3029 -1.57598 0.00835791 0
M  V30 180 C 14.2329 -2.1198 -0.979113 0
M  V30 181 C 15.2139 -1.03091 -1.35301 0
M  V30 182 O 16.3989 -1.30818 -1.43528 0
M  V30 183 C 13.5289 -2.62995 -2.26828 0
M  V30 184 C 12.4829 -3.76485 -2.03576 0
M  V30 185 C 11.8089 -4.13846 -3.38579 0
M  V30 186 C 13.1089 -5.0342 -1.39161 0
M  V30 187 H 14.8029 -2.94738 -0.526281 0
M  V30 188 H 12.3489 -1.41783 -0.251704 0
M  V30 189 H 14.3019 -2.99669 -2.96271 0
M  V30 190 H 13.0259 -1.7737 -2.7424 0
M  V30 191 H 11.6849 -3.40217 -1.36557 0
M  V30 192 H 11.3329 -3.25232 -3.83709 0
M  V30 193 H 11.0329 -4.90312 -3.23834 0
M  V30 194 H 12.5569 -4.53086 -4.09323 0
M  V30 195 H 13.9709 -5.37812 -1.98573 0
M  V30 196 H 12.3679 -5.84746 -1.34878 0
M  V30 197 H 13.4379 -4.83548 -0.361868 0
M  V30 198 N 14.781 0.264519 -1.55364 0
M  V30 199 C 16.028 0.994986 -1.7637 0
M  V30 200 C 16.356 1.85976 -0.5695 0
M  V30 201 O 15.611 1.90509 0.44776 0
M  V30 202 C 15.91 1.9004 -3.02687 0
M  V30 203 C 15.576 1.19243 -4.34847 0
M  V30 204 C 14.238 0.996709 -4.70764 0
M  V30 205 C 16.59 0.689296 -5.16622 0
M  V30 206 C 13.918 0.285261 -5.86006 0
M  V30 207 C 16.27 -0.00860079 -6.32599 0
M  V30 208 C 14.934 -0.215963 -6.67151 0
M  V30 209 H 14.204 0.364091 -0.645383 0
M  V30 210 H 16.851 0.266543 -1.89636 0
M  V30 211 H 15.156 2.69533 -2.84357 0
M  V30 212 H 16.853 2.46695 -3.16137 0
M  V30 213 H 13.443 1.3549 -4.06621 0
M  V30 214 H 17.627 0.828108 -4.89342 0
M  V30 215 H 12.883 0.113961 -6.11294 0
M  V30 216 H 17.057 -0.406186 -6.95214 0
M  V30 217 H 14.684 -0.769217 -7.56298 0
M  V30 218 N 16.2591 1.48442 0.529413 0
M  V30 219 C 17.5081 1.55742 1.28169 0
M  V30 220 C 17.8211 0.236511 1.94165 0
M  V30 221 O 19.0271 0.187761 2.7085 0
M  V30 222 C 17.4831 2.74667 2.32564 0
M  V30 223 C 17.0911 4.13402 1.72636 0
M  V30 224 C 18.8351 2.9128 3.08798 0
M  V30 225 C 16.7421 5.23587 2.74975 0
M  V30 226 H 15.6721 0.579796 0.48203 0
M  V30 227 H 18.3231 1.74776 0.559056 0
M  V30 228 H 16.7051 2.49067 3.07866 0
M  V30 229 H 17.8791 4.49022 1.03519 0
M  V30 230 H 16.1941 4.0191 1.08892 0
M  V30 231 H 18.7911 3.70767 3.85274 0
M  V30 232 H 19.1341 2.00757 3.64695 0
M  V30 233 H 19.6671 3.16782 2.40611 0
M  V30 234 H 16.4061 6.16076 2.23897 0
M  V30 235 H 15.9261 4.92454 3.42417 0
M  V30 236 H 17.6051 5.51724 3.37949 0
M  V30 237 N 17.7372 -0.778329 1.37039 0
M  V30 238 C 18.9862 -1.53189 1.3121 0
M  V30 239 C 19.2992 -1.95328 -0.103095 0
M  V30 240 O 20.5052 -2.70012 -0.283826 0
M  V30 241 C 18.9612 -2.76591 2.30272 0
M  V30 242 C 18.5692 -2.41577 3.77286 0
M  V30 243 C 20.3132 -3.5455 2.33441 0
M  V30 244 C 18.2202 -3.61441 4.68096 0
M  V30 245 H 17.1502 -0.5751 0.487622 0
M  V30 246 H 19.8012 -0.853101 1.62464 0
M  V30 247 H 18.1832 -3.46326 1.92027 0
M  V30 248 H 19.3572 -1.79668 4.2433 0
M  V30 249 H 17.6722 -1.76806 3.76999 0
M  V30 250 H 20.2692 -4.43628 2.98493 0
M  V30 251 H 20.6122 -3.93936 1.34611 0
M  V30 252 H 21.1452 -2.91805 2.7036 0
M  V30 253 H 17.8842 -3.27142 5.6803 0
M  V30 254 H 17.4042 -4.22478 4.25761 0
M  V30 255 H 19.0832 -4.28335 4.8491 0
M  V30 256 N 19.2153 -1.21501 -1.00376 0
M  V30 257 C 20.4453 -1.05746 -1.77486 0
M  V30 258 C 20.8533 0.395655 -1.85017 0
M  V30 259 O 20.1963 1.28626 -1.31152 0
M  V30 260 C 20.2583 -1.58092 -3.22873 0
M  V30 261 C 19.9223 -3.06568 -3.38917 0
M  V30 262 C 20.9193 -4.04106 -3.271 0
M  V30 263 C 18.6043 -3.45799 -3.64319 0
M  V30 264 C 20.5983 -5.38862 -3.40451 0
M  V30 265 C 18.2853 -4.80707 -3.77311 0
M  V30 266 C 19.2833 -5.77047 -3.65384 0
M  V30 267 O 18.9713 -7.09507 -3.77961 0
M  V30 268 H 18.7033 -0.371778 -0.564586 0
M  V30 269 H 21.2573 -1.61319 -1.27143 0
M  V30 270 H 19.4873 -0.969163 -3.74358 0
M  V30 271 H 21.1763 -1.38162 -3.81662 0
M  V30 272 H 21.9423 -3.75141 -3.07399 0
M  V30 273 H 17.8213 -2.71344 -3.72684 0
M  V30 274 H 21.3653 -6.14041 -3.31058 0
M  V30 275 H 17.2623 -5.09357 -3.96517 0
M  V30 276 H 18.0303 -7.16935 -3.94901 0
M  V30 277 N 20.6934 1.19889 -1.02296 0
M  V30 278 C 21.9424 1.88743 -0.711257 0
M  V30 279 C 22.2554 1.80112 0.762817 0
M  V30 280 O 23.4614 2.44161 1.18733 0
M  V30 281 C 21.9174 3.38525 -1.22185 0
M  V30 282 C 21.5254 3.55727 -2.72328 0
M  V30 283 C 23.2694 4.12893 -0.985864 0
M  V30 284 C 21.1764 4.99369 -3.16835 0
M  V30 285 H 20.1064 0.706885 -0.262353 0
M  V30 286 H 22.7574 1.35586 -1.23648 0
M  V30 287 H 21.1394 3.91044 -0.624571 0
M  V30 288 H 22.3134 3.13564 -3.3766 0
M  V30 289 H 20.6284 2.94739 -2.9414 0
M  V30 290 H 23.2254 5.18813 -1.29374 0
M  V30 291 H 23.5684 4.16228 0.0775055 0
M  V30 292 H 24.1014 3.66494 -1.54684 0
M  V30 293 H 20.8404 5.01193 -4.22476 0
M  V30 294 H 20.3604 5.42317 -2.56228 0
M  V30 295 H 22.0394 5.67988 -3.09837 0
M  V30 296 N 22.1715 0.800033 1.35784 0
M  V30 297 C 23.4015 0.389041 2.02904 0
M  V30 298 C 23.8095 -1.0027 1.60445 0
M  V30 299 O 23.1525 -1.65633 0.794453 0
M  V30 300 C 23.2145 0.385495 3.57427 0
M  V30 301 C 22.8785 1.72662 4.23127 0
M  V30 302 C 23.8755 2.68385 4.4527 0
M  V30 303 C 21.5605 2.00883 4.60381 0
M  V30 304 C 23.5545 3.90517 5.03761 0
M  V30 305 C 21.2415 3.2328 5.18588 0
M  V30 306 C 22.2395 4.17915 5.40218 0
M  V30 307 O 21.9275 5.38153 5.97199 0
M  V30 308 H 21.6595 0.157032 0.657508 0
M  V30 309 H 24.2135 1.08311 1.74522 0
M  V30 310 H 22.4435 -0.365128 3.84972 0
M  V30 311 H 24.1325 -0.00228296 4.059 0
M  V30 312 H 24.8985 2.47872 4.16874 0
M  V30 313 H 20.7775 1.28037 4.42863 0
M  V30 314 H 24.3215 4.64395 5.2056 0
M  V30 315 H 20.2185 3.43667 5.4641 0
M  V30 316 H 20.9865 5.3936 6.15656 0
M  V30 317 N 23.6496 -1.47581 0.552962 0
M  V30 318 C 24.5976 -2.31648 -0.21023 0
M  V30 319 C 25.5916 -1.42663 -0.913432 0
M  V30 320 O 26.7976 -1.5945 -0.835201 0
M  V30 321 H 23.1726 -0.746989 -0.0866676 0
M  V30 322 H 25.1436 -2.93869 0.518051 0
M  V30 323 C 23.8926 -3.25226 -1.22976 0
M  V30 324 H 23.2156 -3.93658 -0.698077 0
M  V30 325 H 24.6556 -3.86889 -1.73473 0
M  V30 326 C 23.1146 -2.48448 -2.27542 0
M  V30 327 O 23.6446 -2.22585 -3.34393 0
M  V30 328 N 21.8506 -2.09532 -2.01357 0
M  V30 329 H 21.3976 -2.30765 -1.14478 0
M  V30 330 H 21.3556 -1.58476 -2.71538 0
M  V30 331 N 25.1277 -0.289203 -1.54924 0
M  V30 332 C 26.3527 0.329299 -2.04769 0
M  V30 333 C 26.7777 1.4763 -1.16564 0
M  V30 334 O 26.1357 1.80527 -0.167186 0
M  V30 335 C 26.1837 0.774438 -3.52186 0
M  V30 336 O 25.2877 1.88038 -3.67036 0
M  V30 337 H 24.6287 0.0659259 -0.660719 0
M  V30 338 H 27.1587 -0.42761 -2.00082 0
M  V30 339 H 27.1687 1.06642 -3.93816 0
M  V30 340 H 25.8437 -0.0646707 -4.1585 0
M  V30 341 H 24.4207 1.58985 -3.3731 0
M  V30 342 N 26.6058 1.57591 -0.0167156 0
M  V30 343 C 27.5358 2.12496 0.967858 0
M  V30 344 C 28.5168 1.03807 1.34752 0
M  V30 345 O 29.7018 1.31577 1.42833 0
M  V30 346 C 26.8318 2.64194 2.25431 0
M  V30 347 C 25.7858 3.77559 2.01576 0
M  V30 348 C 25.1118 4.15636 3.36379 0
M  V30 349 C 26.4118 5.04151 1.36489 0
M  V30 350 H 28.1058 2.95013 0.510643 0
M  V30 351 H 25.6518 1.41915 0.244181 0
M  V30 352 H 27.6048 3.01236 2.94678 0
M  V30 353 H 26.3288 1.78821 2.73296 0
M  V30 354 H 24.9878 3.40937 1.34751 0
M  V30 355 H 24.6358 3.27263 3.81979 0
M  V30 356 H 24.3358 4.92022 3.21229 0
M  V30 357 H 25.8598 4.5525 4.06915 0
M  V30 358 H 27.2738 5.38857 1.95718 0
M  V30 359 H 25.6708 5.85453 1.31776 0
M  V30 360 H 26.7408 4.83733 0.336219 0
M  V30 361 N 28.0839 -0.256276 1.55502 0
M  V30 362 C 29.4999 -0.604325 1.47716 0
M  V30 363 C 29.6999 -1.88763 0.705039 0
M  V30 364 O 28.7559 -2.51445 0.230613 0
M  V30 365 C 30.0689 -0.715756 2.92057 0
M  V30 366 C 31.6169 -0.808706 3.02372 0
M  V30 367 C 32.0919 -0.951777 4.48001 0
M  V30 368 N 33.5829 -1.01688 4.519 0
M  V30 369 C 34.3179 -1.14668 5.61817 0
M  V30 370 N 33.8139 -1.24261 6.81565 0
M  V30 371 N 35.6069 -1.1791 5.49594 0
M  V30 372 H 27.7579 0.586291 2.04148 0
M  V30 373 H 30.0209 0.201015 0.926443 0
M  V30 374 H 29.7269 0.157027 3.51349 0
M  V30 375 H 29.6009 -1.59071 3.42018 0
M  V30 376 H 31.9879 -1.67195 2.43166 0
M  V30 377 H 32.0689 0.0912063 2.55637 0
M  V30 378 H 31.7129 -0.0931291 5.07815 0
M  V30 379 H 31.6429 -1.86659 4.92408 0
M  V30 380 H 34.1339 -0.954468 3.65648 0
M  V30 381 H 34.4469 -1.34046 7.61086 0
M  V30 382 H 32.7919 -1.21236 6.84344 0
M  V30 383 H 35.9829 -1.10057 4.54978 0
M  V30 384 H 36.1559 -1.27681 6.35296 0
M  V30 385 N 29.562 -1.4872 -0.521534 0
M  V30 386 C 30.811 -1.56419 -1.27341 0
M  V30 387 C 31.124 -0.246805 -1.94037 0
M  V30 388 O 32.33 -0.202122 -2.70747 0
M  V30 389 C 30.786 -2.75896 -2.31105 0
M  V30 390 C 30.394 -4.14311 -1.70441 0
M  V30 391 C 32.138 -2.92913 -3.07249 0
M  V30 392 C 30.045 -5.25038 -2.72194 0
M  V30 393 H 28.975 -0.582344 -0.478949 0
M  V30 394 H 31.626 -1.75071 -0.549779 0
M  V30 395 H 30.008 -2.50697 -3.06541 0
M  V30 396 H 31.182 -4.49564 -1.01136 0
M  V30 397 H 29.497 -4.02482 -1.06759 0
M  V30 398 H 32.094 -3.72805 -3.83302 0
M  V30 399 H 32.437 -2.02689 -3.63625 0
M  V30 400 H 32.97 -3.18054 -2.38928 0
M  V30 401 H 29.709 -6.17255 -2.20627 0
M  V30 402 H 29.229 -4.94263 -3.39801 0
M  V30 403 H 30.908 -5.53508 -3.35019 0
M  V30 404 N 31.0401 0.771051 -1.3745 0
M  V30 405 C 31.9871 1.88435 -1.3327 0
M  V30 406 C 32.9571 1.64914 -0.198136 0
M  V30 407 O 34.1421 1.86821 -0.387606 0
M  V30 408 C 31.2821 3.25509 -1.14622 0
M  V30 409 C 30.3951 3.60979 -2.37314 0
M  V30 410 C 29.5301 4.87265 -2.11533 0
M  V30 411 C 28.5691 5.15469 -3.30088 0
M  V30 412 N 27.7061 6.32944 -3.03853 0
M  V30 413 H 32.5461 1.91344 -2.28455 0
M  V30 414 H 30.0831 0.935466 -1.13523 0
M  V30 415 H 32.0411 4.04582 -1.01831 0
M  V30 416 H 30.6711 3.21974 -0.230837 0
M  V30 417 H 29.7231 2.76885 -2.60842 0
M  V30 418 H 31.0351 3.77759 -3.25729 0
M  V30 419 H 30.1891 5.74244 -1.95777 0
M  V30 420 H 28.9281 4.7259 -1.20457 0
M  V30 421 H 27.9331 4.26966 -3.46382 0
M  V30 422 H 29.1581 5.32052 -4.22016 0
M  V30 423 H 27.1041 6.19625 -2.15407 0
M  V30 424 H 27.0211 6.50143 -3.85812 0
M  V30 425 H 28.2891 7.22857 -2.91716 0
M  V30 426 N 32.5182 1.22032 0.997298 0
M  V30 427 C 33.7582 1.05375 1.75144 0
M  V30 428 C 34.1222 -0.404696 1.87686 0
M  V30 429 O 35.3232 -0.691998 2.5974 0
M  V30 430 C 33.5942 1.74046 3.12158 0
M  V30 431 S 35.1532 1.72745 4.03366 0
M  V30 432 H 31.9712 0.377449 0.602539 0
M  V30 433 H 34.5732 1.54902 1.19272 0
M  V30 434 H 33.2772 2.79332 3.00669 0
M  V30 435 H 32.8082 1.24731 3.73103 0
M  V30 436 H 34.8232 0.774015 4.90126 0
M  V30 437 N 33.9963 -1.19345 1.0293 0
M  V30 438 C 35.2213 -1.93538 0.745511 0
M  V30 439 C 35.6463 -1.75007 -0.689511 0
M  V30 440 O 35.0043 -1.05265 -1.47611 0
M  V30 441 C 35.0523 -3.43336 1.10239 0
M  V30 442 O 34.1563 -4.11806 0.221289 0
M  V30 443 H 33.4973 -0.604193 0.275404 0
M  V30 444 H 36.0273 -1.5141 1.37609 0
M  V30 445 H 36.0373 -3.94004 1.05947 0
M  V30 446 H 34.7123 -3.56146 2.14786 0
M  V30 447 H 33.2893 -3.715 0.322842 0
M  V30 448 N 35.4744 -0.807222 -1.35358 0
M  V30 449 C 36.6994 -0.399309 -2.0352 0
M  V30 450 C 37.1244 0.981986 -1.60433 0
M  V30 451 O 36.4824 1.63601 -0.781299 0
M  V30 452 C 36.5304 -0.491552 -3.57234 0
M  V30 453 O 35.6344 0.494754 -4.09421 0
M  V30 454 H 34.9754 -0.166682 -0.642739 0
M  V30 455 H 37.5054 -1.09328 -1.72941 0
M  V30 456 H 37.5154 -0.361588 -4.06395 0
M  V30 457 H 36.1904 -1.49907 -3.87944 0
M  V30 458 H 34.7674 0.324977 -3.71481 0
M  V30 459 N 36.9525 1.47285 -0.560781 0
M  V30 460 C 37.8825 2.32857 0.173105 0
M  V30 461 C 38.8635 1.44009 0.905281 0
M  V30 462 O 40.0485 1.7286 0.885046 0
M  V30 463 C 37.1785 3.25861 1.20133 0
M  V30 464 C 36.1325 4.23978 0.585388 0
M  V30 465 C 35.4585 5.06332 1.7185 0
M  V30 466 C 36.7585 5.20242 -0.463178 0
M  V30 467 H 38.4525 2.94466 -0.541307 0
M  V30 468 H 35.9985 1.41601 -0.261764 0
M  V30 469 H 37.9515 3.84569 1.72293 0
M  V30 470 H 36.6755 2.62315 1.94573 0
M  V30 471 H 35.3345 3.66501 0.085054 0
M  V30 472 H 34.9825 4.39186 2.45203 0
M  V30 473 H 34.6825 5.72762 1.31213 0
M  V30 474 H 36.2065 5.67899 2.24329 0
M  V30 475 H 37.6205 5.73293 -0.027502 0
M  V30 476 H 36.0175 5.94896 -0.788627 0
M  V30 477 H 37.0875 4.65504 -1.35773 0
M  V30 478 N 38.4306 0.297415 1.54768 0
M  V30 479 C 39.3606 -0.573494 2.26348 0
M  V30 480 C 40.3416 -1.14085 1.26169 0
M  V30 481 O 41.5266 -1.17086 1.54934 0
M  V30 482 C 38.6566 -1.74716 3.00153 0
M  V30 483 C 37.6106 -1.31032 4.07449 0
M  V30 484 C 36.9366 -2.56887 4.68949 0
M  V30 485 C 38.2366 -0.444183 5.20408 0
M  V30 486 H 39.9306 0.0235131 2.99391 0
M  V30 487 H 37.4766 0.0127488 1.43994 0
M  V30 488 H 39.4296 -2.3625 3.48947 0
M  V30 489 H 38.1536 -2.37035 2.24682 0
M  V30 490 H 36.8126 -0.718066 3.59499 0
M  V30 491 H 36.4606 -3.17512 3.90122 0
M  V30 492 H 36.1606 -2.2836 5.41411 0
M  V30 493 H 37.6846 -3.19229 5.20505 0
M  V30 494 H 39.0986 -0.9651 5.65118 0
M  V30 495 H 37.4956 -0.252846 5.99567 0
M  V30 496 H 38.5656 0.531609 4.81977 0
M  V30 497 N 39.9087 -1.5758 0.0250728 0
M  V30 498 C 41.1567 -1.91255 -0.653151 0
M  V30 499 C 41.4777 -0.901691 -1.729 0
M  V30 500 O 40.7477 0.0573785 -1.95816 0
M  V30 501 H 39.3277 -0.705942 -0.244243 0
M  V30 502 H 41.9897 -1.94767 0.0719209 0
M  V30 503 H 41.0857 -2.91752 -1.10847 0
M  V30 504 N 41.3868 0.248026 -1.55636 0
M  V30 505 C 42.6358 0.974134 -1.76617 0
M  V30 506 C 42.9488 1.86528 -0.588796 0
M  V30 507 O 44.1548 2.62805 -0.681594 0
M  V30 508 C 42.6108 1.78213 -3.12679 0
M  V30 509 C 42.2188 0.93843 -4.38061 0
M  V30 510 C 43.9628 2.50104 -3.42999 0
M  V30 511 C 41.8698 1.74225 -5.65155 0
M  V30 512 H 40.7998 0.36745 -0.658405 0
M  V30 513 H 43.4508 0.22884 -1.82067 0
M  V30 514 H 41.8328 2.56933 -3.01333 0
M  V30 515 H 43.0068 0.193635 -4.60393 0
M  V30 516 H 41.3218 0.332905 -4.15067 0
M  V30 517 H 43.9188 3.10694 -4.3517 0
M  V30 518 H 44.2618 3.21662 -2.64271 0
M  V30 519 H 44.7948 1.78395 -3.55556 0
M  V30 520 H 41.5338 1.07043 -6.46701 0
M  V30 521 H 41.0538 2.46235 -5.46926 0
M  V30 522 H 42.7328 2.30967 -6.0437 0
M  V30 523 N 42.8649 1.48995 0.513639 0
M  V30 524 C 44.1419 1.48338 1.27495 0
M  V30 525 C 44.5219 0.204065 2.10111 0
M  V30 526 O 43.8699 -0.813881 2.13514 0
M  V30 527 C 44.0799 2.75498 2.14247 0
M  V30 528 C 45.4279 3.24484 2.73852 0
M  V30 529 O 46.4519 2.76528 2.24523 0
M  V30 530 O 45.3109 4.07974 3.6362 0
M  V30 531 H 42.4049 0.593149 0.576284 0
M  V30 532 H 44.9509 1.61246 0.528948 0
M  V30 533 H 43.7229 3.60109 1.53092 0
M  V30 534 H 43.3459 2.6539 2.96064 0
M  V30 535 N 44.343 -0.763751 1.37857 0
M  V30 536 C 45.59 -1.52257 1.33506 0
M  V30 537 C 45.918 -1.94343 -0.078022 0
M  V30 538 O 45.173 -1.64958 -1.05297 0
M  V30 539 C 45.472 -2.79499 2.22745 0
M  V30 540 C 45.138 -2.56426 3.70886 0
M  V30 541 C 43.8 -2.49842 4.11257 0
M  V30 542 C 46.152 -2.36008 4.64704 0
M  V30 543 C 43.48 -2.20841 5.43549 0
M  V30 544 C 45.832 -2.0853 5.97242 0
M  V30 545 C 44.496 -2.00396 6.36709 0
M  V30 546 H 43.766 -0.557149 0.488534 0
M  V30 547 H 46.413 -0.879073 1.70131 0
M  V30 548 H 44.718 -3.48447 1.79142 0
M  V30 549 H 46.415 -3.37413 2.16688 0
M  V30 550 H 43.005 -2.62416 3.38874 0
M  V30 551 H 47.189 -2.40079 4.34368 0
M  V30 552 H 42.445 -2.13045 5.73081 0
M  V30 553 H 46.619 -1.91732 6.69486 0
M  V30 554 H 44.246 -1.77688 7.39142 0
M  V30 555 N 45.8211 -1.22559 -0.990812 0
M  V30 556 C 47.0691 -1.04933 -1.72724 0
M  V30 557 C 47.3901 0.416158 -1.90508 0
M  V30 558 O 46.6601 1.29918 -1.46622 0
M  V30 559 H 45.2401 -0.385296 -0.639965 0
M  V30 560 H 47.9021 -1.54105 -1.19322 0
M  V30 561 H 46.9981 -1.52886 -2.72089 0
M  V30 562 N 47.2992 1.18797 -1.03562 0
M  V30 563 C 48.2472 2.24297 -0.615905 0
M  V30 564 C 49.2412 1.65643 0.354808 0
M  V30 565 O 50.4472 1.78618 0.22265 0
M  V30 566 H 46.8222 0.729909 -0.180934 0
M  V30 567 H 48.7932 2.5701 -1.5162 0
M  V30 568 C 47.5422 3.47698 0.0104735 0
M  V30 569 H 46.8652 3.93125 -0.727509 0
M  V30 570 H 48.3052 4.23159 0.266995 0
M  V30 571 C 46.7642 3.12489 1.25905 0
M  V30 572 O 47.2942 3.25761 2.35038 0
M  V30 573 N 45.5002 2.6686 1.15039 0
M  V30 574 H 45.0472 2.56261 0.262328 0
M  V30 575 H 45.0052 2.43674 1.98672 0
M  V30 576 N 48.7773 0.814389 1.34928 0
M  V30 577 C 49.6873 0.231978 2.3345 0
M  V30 578 C 50.7033 -0.629139 1.62228 0
M  V30 579 O 51.8793 -0.539052 1.94052 0
M  V30 580 C 48.9443 -0.603482 3.41407 0
M  V30 581 C 48.0053 0.279037 4.28392 0
M  V30 582 C 47.2383 -0.516643 5.31193 0
M  V30 583 O 47.4613 -1.75068 5.4287 0
M  V30 584 O 46.3953 0.0965652 6.01823 0
M  V30 585 H 50.2213 1.04721 2.85074 0
M  V30 586 H 47.8063 0.576343 1.37836 0
M  V30 587 H 49.6883 -1.07908 4.0735 0
M  V30 588 H 48.3633 -1.39618 2.92042 0
M  V30 589 H 47.2703 0.801948 3.65403 0
M  V30 590 H 48.6033 1.03588 4.81176 0
M  V30 591 N 50.2554 -1.46986 0.568584 0
M  V30 592 C 51.4854 -2.0653 0.0539173 0
M  V30 593 C 51.8934 -1.42004 -1.25026 0
M  V30 594 O 51.2364 -0.514541 -1.76347 0
M  V30 595 C 51.2984 -3.58938 -0.200854 0
M  V30 596 C 50.9624 -4.45572 1.01559 0
M  V30 597 C 51.9594 -4.82986 1.92407 0
M  V30 598 C 49.6444 -4.8692 1.23346 0
M  V30 599 C 51.6384 -5.60559 3.03402 0
M  V30 600 C 49.3254 -5.64255 2.34649 0
M  V30 601 C 50.3234 -6.00986 3.24507 0
M  V30 602 O 50.0114 -6.76761 4.33878 0
M  V30 603 H 49.7434 -0.674292 0.0480234 0
M  V30 604 H 52.2974 -1.89812 0.784896 0
M  V30 605 H 50.5274 -3.73911 -0.986279 0
M  V30 606 H 52.2164 -4.0046 -0.662294 0
M  V30 607 H 52.9824 -4.51633 1.76785 0
M  V30 608 H 48.8614 -4.57789 0.543178 0
M  V30 609 H 52.4054 -5.89147 3.73565 0
M  V30 610 H 48.3024 -5.95021 2.5024 0
M  V30 611 H 49.0704 -6.95168 4.32068 0
M  V30 612 N 51.7335 -0.305618 -1.54608 0
M  V30 613 C 52.9825 0.303098 -1.9941 0
M  V30 614 C 53.2955 1.54648 -1.19764 0
M  V30 615 O 54.5015 2.23007 -1.54855 0
M  V30 616 C 52.9575 0.590588 -3.55021 0
M  V30 617 C 52.5655 -0.634719 -4.43481 0
M  V30 618 C 54.3095 1.16025 -4.08336 0
M  V30 619 C 52.2165 -0.320126 -5.90533 0
M  V30 620 H 51.1465 0.117031 -0.744862 0
M  V30 621 H 53.7975 -0.415045 -1.78745 0
M  V30 622 H 52.1795 1.36845 -3.71604 0
M  V30 623 H 53.3535 -1.41079 -4.38672 0
M  V30 624 H 51.6685 -1.12333 -4.00962 0
M  V30 625 H 54.2655 1.40994 -5.15776 0
M  V30 626 H 54.6085 2.10397 -3.5922 0
M  V30 627 H 55.1415 0.443985 -3.95315 0
M  V30 628 H 51.8805 -1.23254 -6.43808 0
M  V30 629 H 51.4005 0.418579 -5.98338 0
M  V30 630 H 53.0795 0.0766241 -6.46955 0
M  V30 631 N 53.2116 1.57565 -0.0334293 0
M  V30 632 C 54.1586 2.10478 0.946981 0
M  V30 633 C 55.1286 1.00787 1.32027 0
M  V30 634 O 56.3136 1.28232 1.41284 0
M  V30 635 C 53.4536 2.63994 2.22263 0
M  V30 636 C 52.5666 3.87709 1.90541 0
M  V30 637 C 51.7016 4.29604 3.12433 0
M  V30 638 C 50.7406 5.46065 2.76549 0
M  V30 639 N 49.8776 5.83096 3.9108 0
M  V30 640 H 54.7176 2.93963 0.488846 0
M  V30 641 H 52.2546 1.45296 0.22969 0
M  V30 642 H 54.2126 2.93114 2.96884 0
M  V30 643 H 52.8426 1.83333 2.65685 0
M  V30 644 H 51.8946 3.65291 1.06144 0
M  V30 645 H 53.2066 4.72403 1.60116 0
M  V30 646 H 52.3606 4.60182 3.9537 0
M  V30 647 H 51.0996 3.43685 3.46023 0
M  V30 648 H 50.1046 5.15176 1.92026 0
M  V30 649 H 51.3296 6.33685 2.44171 0
M  V30 650 H 49.2756 5.00132 4.24504 0
M  V30 651 H 49.1926 6.6244 3.64293 0
M  V30 652 H 50.4606 6.18282 4.74708 0
M  V30 653 N 54.6897 -0.239769 1.55765 0
M  V30 654 C 55.9357 -0.968234 1.78194 0
M  V30 655 C 56.2687 -1.84701 0.599938 0
M  V30 656 O 55.5437 -1.9031 -0.401524 0
M  V30 657 C 55.8267 -1.8227 3.10564 0
M  V30 658 C 55.6797 -0.971633 4.3918 0
M  V30 659 C 56.9987 -2.80388 3.39221 0
M  V30 660 H 54.1177 -0.350572 0.648281 0
M  V30 661 H 56.7597 -0.238259 1.885 0
M  V30 662 H 54.9097 -2.44507 3.01908 0
M  V30 663 H 56.5817 -0.367408 4.59835 0
M  V30 664 H 54.8247 -0.276276 4.32919 0
M  V30 665 H 55.4957 -1.60346 5.28198 0
M  V30 666 H 57.9717 -2.28287 3.47885 0
M  V30 667 H 56.8477 -3.3729 4.33044 0
M  V30 668 H 57.1087 -3.57212 2.60484 0
M  V30 669 N 56.1678 -1.49265 -0.50573 0
M  V30 670 C 57.3928 -1.62478 -1.28902 0
M  V30 671 C 57.8178 -0.294332 -1.85783 0
M  V30 672 O 57.1758 0.737412 -1.65626 0
M  V30 673 C 57.2238 -2.69268 -2.39848 0
M  V30 674 O 56.3278 -2.28113 -3.43567 0
M  V30 675 H 55.6688 -0.54399 -0.380751 0
M  V30 676 H 58.1988 -1.95421 -0.605952 0
M  V30 677 H 58.2088 -2.91291 -2.85681 0
M  V30 678 H 56.8838 -3.65846 -1.97812 0
M  V30 679 H 55.4608 -2.16401 -3.03685 0
M  V30 680 N 57.6459 0.756429 -1.3826 0
M  V30 681 C 58.8949 1.51082 -1.3363 0
M  V30 682 C 59.2079 1.95467 0.0720068 0
M  V30 683 O 60.4139 2.7043 0.240834 0
M  V30 684 C 58.8699 2.72893 -2.34644 0
M  V30 685 C 58.4779 2.35544 -3.81081 0
M  V30 686 C 60.2219 3.50791 -2.39052 0
M  V30 687 C 58.1289 3.53948 -4.73787 0
M  V30 688 H 57.0589 0.56727 -0.49671 0
M  V30 689 H 59.7099 0.827147 -1.638 0
M  V30 690 H 58.0919 3.43227 -1.97513 0
M  V30 691 H 59.2659 1.72894 -4.27135 0
M  V30 692 H 57.5809 1.70786 -3.79764 0
M  V30 693 H 60.1779 4.38823 -3.05513 0
M  V30 694 H 60.5209 3.91745 -1.40861 0
M  V30 695 H 61.0539 2.87467 -2.74968 0
M  V30 696 H 57.7929 3.18064 -5.73163 0
M  V30 697 H 57.3129 4.15651 -4.32428 0
M  V30 698 H 58.9919 4.20566 -4.91663 0
M  V30 699 N 59.124 1.23083 0.984299 0
M  V30 700 C 60.37 1.06214 1.72761 0
M  V30 701 C 60.703 -0.400584 1.90024 0
M  V30 702 O 59.978 -1.29672 1.44967 0
M  V30 703 C 60.261 1.78375 3.12817 0
M  V30 704 C 60.114 3.32296 3.03149 0
M  V30 705 C 61.433 1.54309 4.12161 0
M  V30 706 H 58.552 0.387251 0.627061 0
M  V30 707 H 61.194 1.51536 1.14616 0
M  V30 708 H 59.344 1.39848 3.62457 0
M  V30 709 H 61.016 3.8032 2.61064 0
M  V30 710 H 59.259 3.6153 2.39747 0
M  V30 711 H 59.93 3.77972 4.02295 0
M  V30 712 H 62.406 1.87791 3.71314 0
M  V30 713 H 61.282 2.07281 5.08258 0
M  V30 714 H 61.543 0.477572 4.39513 0
M  V30 715 N 60.6021 -1.18246 1.0419 0
M  V30 716 C 61.8271 -1.92736 0.765996 0
M  V30 717 C 62.2521 -1.75728 -0.67091 0
M  V30 718 O 61.6101 -1.06825 -1.46486 0
M  V30 719 C 61.6581 -3.42148 1.13875 0
M  V30 720 O 60.7621 -4.11548 0.264954 0
M  V30 721 H 60.1031 -0.601238 0.281797 0
M  V30 722 H 62.6331 -1.49942 1.39207 0
M  V30 723 H 62.6431 -3.92858 1.1012 0
M  V30 724 H 61.3181 -3.53848 2.18551 0
M  V30 725 H 59.8951 -3.71137 0.362226 0
M  V30 726 N 62.0802 -0.821533 -1.34494 0
M  V30 727 C 63.4912 -0.467956 -1.8074 0
M  V30 728 C 63.8422 1.01151 -1.68116 0
M  V30 729 O 62.9672 1.78707 -1.22036 0
M  V30 730 C 63.5622 -0.842627 -3.28154 0
M  V30 731 C 62.1212 -0.541439 -3.72485 0
M  V30 732 C 61.2682 -1.06028 -2.56229 0
M  V30 733 H 64.2192 -1.01183 -1.22261 0
M  V30 734 H 64.2402 -0.145876 -3.8022 0
M  V30 735 H 63.7522 -1.91945 -3.37311 0
M  V30 736 H 61.8532 0.526034 -3.68868 0
M  V30 737 H 61.9662 -1.08453 -4.66663 0
M  V30 738 H 60.3302 -0.481892 -2.501 0
M  V30 739 H 61.1132 -2.14352 -2.68157 0
M  V30 740 N 63.5583 1.46682 -0.576371 0
M  V30 741 C 64.8063 2.02013 -0.0594163 0
M  V30 742 C 65.1273 1.45101 1.30271 0
M  V30 743 O 64.3973 0.633317 1.8538 0
M  V30 744 H 62.9773 0.746759 -0.0189745 0
M  V30 745 H 65.6393 1.79862 -0.750717 0
M  V30 746 H 64.7353 3.12097 0.014345 0
M  V30 747 N 65.0364 0.313813 1.54444 0
M  V30 748 C 65.9834 -0.55655 2.23989 0
M  V30 749 C 66.9534 -1.11943 1.22711 0
M  V30 750 O 68.1384 -1.16158 1.51367 0
M  V30 751 C 65.2784 -1.71635 2.99392 0
M  V30 752 C 64.3914 -1.18364 4.15468 0
M  V30 753 C 63.5264 -2.30834 4.78424 0
M  V30 754 C 62.5654 -1.74762 5.86622 0
M  V30 755 N 61.7024 -2.80855 6.43479 0
M  V30 756 H 66.5424 0.0430893 2.97969 0
M  V30 757 H 64.0794 0.0330359 1.47063 0
M  V30 758 H 66.0374 -2.39868 3.41349 0
M  V30 759 H 64.6674 -2.28742 2.27765 0
M  V30 760 H 63.7194 -0.393163 3.78363 0
M  V30 761 H 65.0314 -0.733262 4.93381 0
M  V30 762 H 64.1854 -3.0699 5.23299 0
M  V30 763 H 62.9244 -2.79204 3.99871 0
M  V30 764 H 61.9294 -0.970995 5.41158 0
M  V30 765 H 63.1544 -1.2728 6.67066 0
M  V30 766 H 61.1004 -3.28535 5.67804 0
M  V30 767 H 61.0174 -2.40351 7.16776 0
M  V30 768 H 62.2854 -3.5687 6.93011 0
M  V30 769 N 66.5145 -1.57545 0.0417849 0
M  V30 770 C 67.7625 -1.91937 -0.632829 0
M  V30 771 C 68.0835 -0.919978 -1.71934 0
M  V30 772 O 67.3535 0.0366064 -1.95866 0
M  V30 773 H 65.9335 -0.708493 -0.236742 0
M  V30 774 H 68.5955 -1.9468 0.0925745 0
M  V30 775 H 67.6915 -2.92912 -1.07746 0
M  V30 776 N 67.9926 0.231505 -1.5589 0
M  V30 777 C 69.2396 0.957352 -1.78441 0
M  V30 778 C 69.5676 1.84726 -0.60882 0
M  V30 779 O 68.8226 1.91416 0.40725 0
M  V30 780 C 69.1216 1.83577 -3.0665 0
M  V30 781 C 68.7876 1.09993 -4.37278 0
M  V30 782 C 67.4496 0.896629 -4.72773 0
M  V30 783 C 69.8016 0.579558 -5.17968 0
M  V30 784 C 67.1296 0.160896 -5.86479 0
M  V30 785 C 69.4816 -0.142783 -6.32439 0
M  V30 786 C 68.1456 -0.357427 -6.66542 0
M  V30 787 H 67.4156 0.35032 -0.65296 0
M  V30 788 H 70.0626 0.226259 -1.90159 0
M  V30 789 H 68.3676 2.63441 -2.90011 0
M  V30 790 H 70.0646 2.39934 -3.21298 0
M  V30 791 H 66.6546 1.26835 -4.09403 0
M  V30 792 H 70.8386 0.724125 -4.90989 0
M  V30 793 H 66.0946 -0.0157293 -6.11398 0
M  V30 794 H 70.2686 -0.553559 -6.94196 0
M  V30 795 H 67.8956 -0.929466 -7.54497 0
M  V30 796 N 69.4707 1.49531 0.497807 0
M  V30 797 C 70.4187 1.66926 1.61983 0
M  V30 798 C 71.4127 0.535167 1.60724 0
M  V30 799 O 72.6187 0.714896 1.65195 0
M  V30 800 H 68.9937 0.526415 0.537021 0
M  V30 801 H 70.9647 2.61098 1.44465 0
M  V30 802 C 69.7137 1.75602 3.00099 0
M  V30 803 H 69.0367 2.62244 3.01775 0
M  V30 804 H 70.4767 1.91807 3.78135 0
M  V30 805 C 68.9357 0.501543 3.33146 0
M  V30 806 O 69.4657 -0.371342 3.9998 0
M  V30 807 N 67.6717 0.363531 2.88317 0
M  V30 808 H 67.2187 1.07485 2.34104 0
M  V30 809 H 67.1767 -0.474728 3.10795 0
M  V30 810 N 70.9488 -0.749086 1.3866 0
M  V30 811 C 72.1978 -1.50371 1.3443 0
M  V30 812 C 72.5108 -1.95503 -0.0616397 0
M  V30 813 O 73.7168 -2.70554 -0.226489 0
M  V30 814 C 72.1728 -2.71644 2.36088 0
M  V30 815 C 71.7808 -2.3352 3.82325 0
M  V30 816 C 73.5248 -3.49518 2.40909 0
M  V30 817 C 71.4318 -3.51431 4.75658 0
M  V30 818 H 70.3618 -0.564628 0.499712 0
M  V30 819 H 73.0128 -0.818449 1.64237 0
M  V30 820 H 71.3948 -3.42175 1.9933 0
M  V30 821 H 72.5688 -1.70627 4.28046 0
M  V30 822 H 70.8838 -1.6877 3.80665 0
M  V30 823 H 73.4808 -4.37197 3.07836 0
M  V30 824 H 73.8238 -3.90992 1.42937 0
M  V30 825 H 74.3568 -2.86005 2.76489 0
M  V30 826 H 71.0958 -3.15019 5.74842 0
M  V30 827 H 70.6158 -4.13352 4.34627 0
M  V30 828 H 72.2948 -4.17953 4.93887 0
M  V30 829 N 72.4269 -1.23603 -0.977757 0
M  V30 830 C 73.3569 -1.04401 -2.0886 0
M  V30 831 C 74.3379 0.0399052 -1.70053 0
M  V30 832 O 75.5229 -0.125246 -1.93796 0
M  V30 833 C 72.6529 -0.637269 -3.41403 0
M  V30 834 C 71.6069 -1.66883 -3.94124 0
M  V30 835 C 70.9329 -1.11745 -5.22893 0
M  V30 836 C 72.2329 -3.06247 -4.23096 0
M  V30 837 H 73.9269 -1.97316 -2.25182 0
M  V30 838 H 71.4729 -0.950096 -1.08209 0
M  V30 839 H 73.4259 -0.48998 -4.18542 0
M  V30 840 H 72.1499 0.327557 -3.24953 0
M  V30 841 H 70.8089 -1.80416 -3.19133 0
M  V30 842 H 70.4569 -0.143527 -5.02795 0
M  V30 843 H 70.1569 -1.80672 -5.59134 0
M  V30 844 H 71.6809 -0.982067 -6.02651 0
M  V30 845 H 73.0949 -2.96001 -4.90975 0
M  V30 846 H 71.4919 -3.72436 -4.70544 0
M  V30 847 H 72.5619 -3.55041 -3.30263 0
M  V30 848 N 73.905 1.17692 -1.04816 0
M  V30 849 C 74.835 2.23777 -0.666791 0
M  V30 850 C 75.816 1.66796 0.33361 0
M  V30 851 O 77.001 1.93039 0.212042 0
M  V30 852 C 74.131 3.47281 -0.0367933 0
M  V30 853 C 73.085 4.17059 -0.961546 0
M  V30 854 C 72.411 5.34342 -0.195626 0
M  V30 855 C 73.711 4.69713 -2.28402 0
M  V30 856 H 75.405 2.55933 -1.55367 0
M  V30 857 H 72.951 1.23019 -0.748484 0
M  V30 858 H 74.904 4.20706 0.241775 0
M  V30 859 H 73.628 3.14381 0.885004 0
M  V30 860 H 72.287 3.45541 -1.22462 0
M  V30 861 H 71.935 4.97692 0.728816 0
M  V30 862 H 71.635 5.81966 -0.811775 0
M  V30 863 H 73.159 6.10553 0.0757473 0
M  V30 864 H 74.573 5.34794 -2.06563 0
M  V30 865 H 72.97 5.279 -2.8538 0
M  V30 866 H 74.04 3.86726 -2.92525 0
M  V30 867 N 75.3831 0.828654 1.34056 0
M  V30 868 C 76.3311 0.242973 2.31327 0
M  V30 869 C 77.3251 -0.61944 1.57668 0
M  V30 870 O 78.5311 -0.51014 1.7262 0
M  V30 871 H 74.9061 0.059834 0.749616 0
M  V30 872 H 76.8771 1.07809 2.78244 0
M  V30 873 C 75.6261 -0.575733 3.429 0
M  V30 874 H 74.9491 0.0785582 3.99723 0
M  V30 875 H 76.3891 -0.951547 4.13185 0
M  V30 876 C 74.8481 -1.75044 2.87856 0
M  V30 877 O 75.3781 -2.84882 2.83205 0
M  V30 878 N 73.5841 -1.56903 2.44602 0
M  V30 879 H 73.1311 -0.675547 2.48584 0
M  V30 880 H 73.0891 -2.35652 2.08124 0
M  V30 881 N 76.8612 -1.46375 0.584142 0
M  V30 882 C 77.8092 -2.32042 -0.161047 0
M  V30 883 C 78.8032 -1.44569 -0.882966 0
M  V30 884 O 80.0092 -1.61186 -0.801191 0
M  V30 885 H 76.3842 -0.748659 -0.0708033 0
M  V30 886 H 78.3552 -2.92704 0.580269 0
M  V30 887 C 77.1042 -3.27762 -1.1605 0
M  V30 888 H 76.4272 -3.95051 -0.614419 0
M  V30 889 H 77.8672 -3.90481 -1.65228 0
M  V30 890 C 76.3262 -2.53218 -2.22221 0
M  V30 891 O 76.8562 -2.29628 -3.29597 0
M  V30 892 N 75.0622 -2.13756 -1.96868 0
M  V30 893 H 74.6092 -2.33142 -1.09557 0
M  V30 894 H 74.5672 -1.642 -2.68115 0
M  V30 895 N 78.3393 -0.321999 -1.54275 0
M  V30 896 C 79.2713 0.578671 -2.21775 0
M  V30 897 C 80.2843 1.08109 -1.21722 0
M  V30 898 O 81.4733 0.994938 -1.482 0
M  V30 899 C 78.5733 1.80661 -2.86731 0
M  V30 900 C 77.7463 1.44314 -4.12907 0
M  V30 901 C 76.8053 2.52845 -4.61472 0
M  V30 902 O 75.8313 2.17054 -5.2619 0
M  V30 903 N 77.0333 3.83748 -4.35566 0
M  V30 904 H 79.7983 0.000709447 -2.997 0
M  V30 905 H 77.3593 -0.145132 -1.61248 0
M  V30 906 H 79.3513 2.52655 -3.16145 0
M  V30 907 H 77.9213 2.29245 -2.12521 0
M  V30 908 H 77.1413 0.554906 -3.90275 0
M  V30 909 H 78.4293 1.17598 -4.95023 0
M  V30 910 H 77.8273 4.15625 -3.83761 0
M  V30 911 H 76.3843 4.51977 -4.69638 0
M  V30 912 N 79.8174 1.5752 -0.0501392 0
M  V30 913 C 81.0424 1.97376 0.636997 0
M  V30 914 C 81.4674 0.927466 1.63645 0
M  V30 915 O 80.8254 -0.10941 1.8097 0
M  V30 916 C 80.8734 3.36304 1.30123 0
M  V30 917 O 79.9774 3.34156 2.41689 0
M  V30 918 H 79.3184 0.642998 0.165679 0
M  V30 919 H 81.8484 2.04258 -0.118233 0
M  V30 920 H 81.8584 3.73008 1.65315 0
M  V30 921 H 80.5334 4.11993 0.568746 0
M  V30 922 H 79.1104 3.09196 2.08451 0
M  V30 923 N 81.2955 -0.223234 1.56011 0
M  V30 924 C 82.2425 -1.27664 1.92277 0
M  V30 925 C 83.2125 -1.46659 0.779763 0
M  V30 926 O 84.3975 -1.60256 1.03551 0
M  V30 927 C 81.5375 -2.62234 2.24338 0
M  V30 928 C 80.6505 -2.51051 3.51564 0
M  V30 929 C 79.7855 -3.78133 3.7308 0
M  V30 930 C 78.8245 -3.61665 4.93827 0
M  V30 931 N 77.9615 -4.80693 5.11741 0
M  V30 932 H 82.8015 -0.960358 2.82101 0
M  V30 933 H 80.3385 -0.462901 1.39627 0
M  V30 934 H 82.2965 -3.40596 2.40936 0
M  V30 935 H 80.9265 -2.91961 1.3769 0
M  V30 936 H 79.9785 -1.64132 3.43169 0
M  V30 937 H 81.2905 -2.34803 4.40079 0
M  V30 938 H 80.4445 -4.64938 3.89766 0
M  V30 939 H 79.1835 -3.97304 2.82844 0
M  V30 940 H 78.1885 -2.73244 4.77093 0
M  V30 941 H 79.4135 -3.43966 5.85546 0
M  V30 942 H 77.3595 -5.00181 4.24446 0
M  V30 943 H 77.2765 -4.67165 5.94384 0
M  V30 944 H 78.5445 -5.6893 5.3286 0
M  V30 945 N 82.7736 -1.49793 -0.48987 0
M  V30 946 C 84.1896 -1.36803 -0.822022 0
M  V30 947 C 84.3896 -0.409652 -1.97292 0
M  V30 948 O 83.4456 0.154614 -2.52026 0
M  V30 949 C 84.7586 -2.77768 -1.15175 0
M  V30 950 C 86.3066 -2.86549 -1.25931 0
M  V30 951 C 86.7816 -4.28306 -1.62228 0
M  V30 952 N 88.2726 -4.31169 -1.69256 0
M  V30 953 C 89.0076 -5.37832 -1.98807 0
M  V30 954 N 88.5036 -6.54726 -2.26507 0
M  V30 955 N 90.2966 -5.25258 -2.00152 0
M  V30 956 H 82.4476 -2.10691 0.268881 0
M  V30 957 H 84.7106 -0.946241 0.057728 0
M  V30 958 H 84.4166 -3.49648 -0.379335 0
M  V30 959 H 84.2906 -3.13836 -2.09253 0
M  V30 960 H 86.6776 -2.14899 -2.02243 0
M  V30 961 H 86.7586 -2.54049 -0.298776 0
M  V30 962 H 86.4026 -5.00486 -0.864622 0
M  V30 963 H 86.3326 -4.58279 -2.594 0
M  V30 964 H 88.8236 -3.4687 -1.49965 0
M  V30 965 H 89.1366 -7.31833 -2.48276 0
M  V30 966 H 87.4816 -6.57933 -2.23939 0
M  V30 967 H 90.6726 -4.32938 -1.77996 0
M  V30 968 H 90.8456 -6.08476 -2.22848 0
M  V30 969 N 84.2517 0.741722 -1.39055 0
M  V30 970 C 85.1987 1.85566 -1.37237 0
M  V30 971 C 86.1687 1.64457 -0.233072 0
M  V30 972 O 87.3537 1.85957 -0.427147 0
M  V30 973 C 84.4937 3.23004 -1.215 0
M  V30 974 C 83.6067 3.55864 -2.44918 0
M  V30 975 C 82.7417 4.82669 -2.21821 0
M  V30 976 C 81.7807 5.08351 -3.40948 0
M  V30 977 N 80.9177 6.26356 -3.17211 0
M  V30 978 H 85.7577 1.86455 -2.32462 0
M  V30 979 H 83.2947 0.911176 -1.15482 0
M  V30 980 H 85.2527 4.02331 -1.10389 0
M  V30 981 H 83.8827 3.21411 -0.29908 0
M  V30 982 H 82.9347 2.7129 -2.66657 0
M  V30 983 H 84.2467 3.70765 -3.33668 0
M  V30 984 H 83.4007 5.69962 -2.07914 0
M  V30 985 H 82.1397 4.69929 -1.30454 0
M  V30 986 H 81.1447 4.19522 -3.55361 0
M  V30 987 H 82.3697 5.22981 -4.33207 0
M  V30 988 H 80.3157 6.14917 -2.28502 0
M  V30 989 H 80.2327 6.41813 -3.99515 0
M  V30 990 H 81.5007 7.16506 -3.06984 0
M  V30 991 N 85.7298 1.2412 0.971189 0
M  V30 992 C 86.9788 1.07284 1.70801 0
M  V30 993 C 87.2918 -0.388902 1.91695 0
M  V30 994 O 88.4978 -0.677379 2.62914 0
M  V30 995 C 86.9538 1.87145 3.07416 0
M  V30 996 C 86.5618 3.37707 2.94377 0
M  V30 997 C 88.3058 1.78828 3.84995 0
M  V30 998 C 86.2128 4.09925 4.26281 0
M  V30 999 H 85.1428 0.397854 0.64049 0
M  V30 1000 H 87.7938 1.4817 1.0825 0
M  V30 1001 H 86.1758 1.39071 3.70777 0
M  V30 1002 H 87.3498 3.93335 2.4005 0
M  V30 1003 H 85.6648 3.46938 2.30267 0
M  V30 1004 H 88.2618 2.30089 4.82662 0
M  V30 1005 H 88.6048 0.75284 4.09436 0
M  V30 1006 H 89.1378 2.24563 3.28354 0
M  V30 1007 H 85.8768 5.13813 4.07033 0
M  V30 1008 H 85.3968 3.59083 4.80437 0
M  V30 1009 H 87.0758 4.1673 4.94919 0
M  V30 1010 N 87.2079 -1.17134 1.05439 0
M  V30 1011 C 88.4359 -1.91372 0.786414 0
M  V30 1012 C 88.8509 -1.76955 -0.658202 0
M  V30 1013 O 88.2079 -1.10838 -1.44987 0
M  V30 1014 C 88.2589 -3.42356 1.1608 0
M  V30 1015 O 87.9799 -3.56332 2.54871 0
M  V30 1016 C 89.4809 -4.33663 0.919322 0
M  V30 1017 H 86.7009 -0.607118 0.285743 0
M  V30 1018 H 89.2449 -1.48525 1.40572 0
M  V30 1019 H 87.3999 -3.82939 0.586191 0
M  V30 1020 H 87.8139 -4.49896 2.69618 0
M  V30 1021 H 89.2879 -5.38099 1.231 0
M  V30 1022 H 89.7649 -4.38959 -0.145359 0
M  V30 1023 H 90.3709 -3.98796 1.47789 0
M  V30 1024 N 88.686 -0.835752 -1.33615 0
M  V30 1025 C 89.634 -0.255238 -2.31195 0
M  V30 1026 C 90.628 0.61107 -1.57995 0
M  V30 1027 O 91.834 0.500979 -1.72888 0
M  V30 1028 H 88.209 -0.0638085 -0.749288 0
M  V30 1029 H 90.18 -1.09283 -2.77669 0
M  V30 1030 C 88.929 0.55754 -3.43201 0
M  V30 1031 H 88.252 -0.0997553 -3.99676 0
M  V30 1032 H 89.692 0.929622 -4.13683 0
M  V30 1033 C 88.151 1.73515 -2.88781 0
M  V30 1034 O 88.681 2.83376 -2.84712 0
M  V30 1035 N 86.887 1.55603 -2.4543 0
M  V30 1036 H 86.434 0.662354 -2.48939 0
M  V30 1037 H 86.392 2.34545 -2.09371 0
M  V30 1038 N 90.1641 1.46063 -0.591896 0
M  V30 1039 C 91.3891 2.07226 -0.0850314 0
M  V30 1040 C 91.8141 1.43625 1.21463 0
M  V30 1041 O 91.1721 0.523305 1.73583 0
M  V30 1042 C 91.2201 3.60554 0.0576567 0
M  V30 1043 O 90.3241 3.97128 1.11188 0
M  V30 1044 H 89.6651 0.660615 -0.0669568 0
M  V30 1045 H 92.1951 1.8756 -0.81745 0
M  V30 1046 H 92.2051 4.07165 0.2609 0
M  V30 1047 H 90.8801 4.06235 -0.891416 0
M  V30 1048 H 89.4571 3.62213 0.886356 0
M  V30 1049 N 91.6422 0.330177 1.54103 0
M  V30 1050 C 92.8912 -0.271336 1.99867 0
M  V30 1051 C 93.2042 -1.52723 1.22209 0
M  V30 1052 O 94.4102 -2.20515 1.58383 0
M  V30 1053 C 92.8662 -0.534032 3.55916 0
M  V30 1054 C 92.4742 0.705193 4.42415 0
M  V30 1055 C 94.2182 -1.09514 4.1013 0
M  V30 1056 C 92.1252 0.414035 5.89949 0
M  V30 1057 H 91.0552 -0.105166 0.74663 0
M  V30 1058 H 93.7062 0.443429 1.78062 0
M  V30 1059 H 92.0882 -1.30915 3.73734 0
M  V30 1060 H 93.2622 1.4804 4.36372 0
M  V30 1061 H 91.5772 1.18698 3.99124 0
M  V30 1062 H 94.1742 -1.3277 5.17954 0
M  V30 1063 H 94.5172 -2.04656 3.62521 0
M  V30 1064 H 95.0502 -0.381038 3.95971 0
M  V30 1065 H 91.7892 1.33481 6.41766 0
M  V30 1066 H 91.3092 -0.323336 5.98928 0
M  V30 1067 H 92.9882 0.0263105 6.46995 0
M  V30 1068 N 93.1203 -1.57491 0.0584922 0
M  V30 1069 C 94.3453 -1.97711 -0.62652 0
M  V30 1070 C 94.7703 -0.936132 -1.63151 0
M  V30 1071 O 94.1283 0.099811 -1.81025 0
M  V30 1072 C 94.1763 -3.36989 -1.28338 0
M  V30 1073 O 93.2803 -3.35433 -2.39913 0
M  V30 1074 H 92.6213 -0.643868 -0.162266 0
M  V30 1075 H 95.1513 -2.04193 0.129064 0
M  V30 1076 H 95.1613 -3.73879 -1.63335 0
M  V30 1077 H 93.8363 -4.12289 -0.546889 0
M  V30 1078 H 92.4133 -3.10298 -2.06809 0
M  V30 1079 N 94.5984 0.214957 -1.56127 0
M  V30 1080 C 95.8454 0.938372 -1.79446 0
M  V30 1081 C 96.1734 1.8407 -0.628378 0
M  V30 1082 O 95.4284 1.91837 0.386925 0
M  V30 1083 C 95.7274 1.80314 -3.0858 0
M  V30 1084 C 95.3934 1.05349 -4.3842 0
M  V30 1085 C 94.0554 0.846435 -4.73697 0
M  V30 1086 C 96.4074 0.524588 -5.18553 0
M  V30 1087 C 93.7354 0.098683 -5.86617 0
M  V30 1088 C 96.0874 -0.209853 -6.32252 0
M  V30 1089 C 94.7514 -0.428102 -6.66126 0
M  V30 1090 H 94.0214 0.343375 -0.656639 0
M  V30 1091 H 96.6684 0.206077 -1.90388 0
M  V30 1092 H 94.9734 2.6035 -2.92789 0
M  V30 1093 H 96.6704 2.36513 -3.23825 0
M  V30 1094 H 93.2604 1.22486 -4.10725 0
M  V30 1095 H 97.4444 0.672008 -4.91729 0
M  V30 1096 H 92.7004 -0.0805753 -6.11347 0
M  V30 1097 H 96.8744 -0.627157 -6.9357 0
M  V30 1098 H 94.5014 -1.00944 -7.53468 0
M  V30 1099 N 96.0765 1.50051 0.48192 0
M  V30 1100 C 97.0395 1.67584 1.5636 0
M  V30 1101 C 98.0395 0.546894 1.51214 0
M  V30 1102 O 99.2295 0.813725 1.54026 0
M  V30 1103 C 96.3615 1.691 2.96003 0
M  V30 1104 H 97.5545 2.64078 1.42136 0
M  V30 1105 H 95.1075 1.39369 0.707533 0
M  V30 1106 H 95.8425 0.742589 3.15684 0
M  V30 1107 H 95.6275 2.51105 3.01146 0
M  V30 1108 H 97.1175 1.84656 3.74556 0
M  V30 1109 N 97.5546 -0.734337 1.39446 0
M  V30 1110 C 98.5026 -1.86971 1.38364 0
M  V30 1111 C 99.4966 -1.67288 0.266687 0
M  V30 1112 O 100.703 -1.74621 0.436755 0
M  V30 1113 H 97.0776 -0.615474 0.432082 0
M  V30 1114 H 99.0486 -1.85 2.34132 0
M  V30 1115 C 97.7976 -3.2466 1.24465 0
M  V30 1116 H 97.1206 -3.40402 2.09682 0
M  V30 1117 H 98.5606 -4.04292 1.27764 0
M  V30 1118 C 97.0196 -3.36867 -0.0468674 0
M  V30 1119 O 97.5496 -3.88618 -1.01681 0
M  V30 1120 N 95.7556 -2.90391 -0.110145 0
M  V30 1121 H 95.3026 -2.48466 0.679868 0
M  V30 1122 H 95.2606 -2.98939 -0.973799 0
M  V30 1123 N 99.0327 -1.24633 -0.964593 0
M  V30 1124 C 99.9797 -1.04144 -2.05968 0
M  V30 1125 C 100.95 0.046262 -1.66036 0
M  V30 1126 O 102.135 -0.108972 -1.90489 0
M  V30 1127 C 99.2747 -0.65563 -3.38815 0
M  V30 1128 C 98.3877 -1.81714 -3.91923 0
M  V30 1129 C 97.5227 -1.37662 -5.13052 0
M  V30 1130 C 96.5617 -2.50788 -5.58365 0
M  V30 1131 N 95.6987 -2.07582 -6.70712 0
M  V30 1132 H 100.539 -1.9787 -2.22827 0
M  V30 1133 H 98.0757 -0.9855 -1.09208 0
M  V30 1134 H 100.034 -0.412954 -4.15151 0
M  V30 1135 H 98.6637 0.244627 -3.21872 0
M  V30 1136 H 97.7157 -2.1734 -3.12198 0
M  V30 1137 H 99.0277 -2.66705 -4.21509 0
M  V30 1138 H 98.1817 -1.093 -5.96773 0
M  V30 1139 H 96.9207 -0.497293 -4.85158 0
M  V30 1140 H 95.9257 -2.79906 -4.73215 0
M  V30 1141 H 97.1507 -3.39283 -5.88272 0
M  V30 1142 H 95.0967 -1.22051 -6.44546 0
M  V30 1143 H 95.0137 -2.86125 -6.99763 0
M  V30 1144 H 96.2817 -1.82369 -7.57867 0
M  V30 1145 N 100.511 1.16574 -1.06058 0
M  V30 1146 C 101.758 1.87047 -0.775873 0
M  V30 1147 C 102.086 1.81562 0.697534 0
M  V30 1148 O 101.341 1.22445 1.52662 0
M  V30 1149 C 101.64 3.36195 -1.21275 0
M  V30 1150 C 101.306 3.6188 -2.68986 0
M  V30 1151 C 99.9678 3.68599 -3.09335 0
M  V30 1152 C 102.32 3.72648 -3.64394 0
M  V30 1153 C 99.6478 3.83584 -4.43937 0
M  V30 1154 C 102 3.89154 -4.98741 0
M  V30 1155 C 100.664 3.94114 -5.3873 0
M  V30 1156 H 99.9338 0.684452 -0.283912 0
M  V30 1157 H 102.581 1.37853 -1.32925 0
M  V30 1158 H 100.886 3.87505 -0.578528 0
M  V30 1159 H 102.583 3.89103 -0.969542 0
M  V30 1160 H 99.1728 3.57281 -2.36744 0
M  V30 1161 H 103.357 3.66769 -3.34356 0
M  V30 1162 H 98.6128 3.85677 -4.74409 0
M  V30 1163 H 102.787 3.96427 -5.72554 0
M  V30 1164 H 100.414 4.05478 -6.43033 0
M  V30 1165 N 101.989 0.842826 1.3317 0
M  V30 1166 C 103.405 0.531128 1.50503 0
M  V30 1167 C 103.605 -0.940734 1.78192 0
M  V30 1168 O 102.661 -1.72436 1.84451 0
M  V30 1169 C 103.974 1.40789 2.65705 0
M  V30 1170 C 105.522 1.40708 2.79589 0
M  V30 1171 C 105.997 2.26878 3.97857 0
M  V30 1172 N 107.488 2.24609 4.05099 0
M  V30 1173 C 108.223 2.88019 4.95815 0
M  V30 1174 N 107.719 3.60496 5.9162 0
M  V30 1175 N 109.512 2.77469 4.88843 0
M  V30 1176 H 101.663 1.79557 1.1346 0
M  V30 1177 H 103.926 0.766267 0.558156 0
M  V30 1178 H 103.632 2.454 2.51936 0
M  V30 1179 H 103.506 1.08677 3.61205 0
M  V30 1180 H 105.893 0.368668 2.92788 0
M  V30 1181 H 105.974 1.76829 1.84838 0
M  V30 1182 H 105.618 3.3078 3.85418 0
M  V30 1183 H 105.548 1.88096 4.91861 0
M  V30 1184 H 108.039 1.71906 3.36536 0
M  V30 1185 H 108.352 4.06076 6.57512 0
M  V30 1186 H 106.697 3.64604 5.91683 0
M  V30 1187 H 109.888 2.20406 4.12963 0
M  V30 1188 H 110.061 3.2717 5.59342 0
M  V30 1189 N 103.467 -1.45747 0.599634 0
M  V30 1190 C 104.695 -2.06668 0.0978551 0
M  V30 1191 C 105.11 -1.44562 -1.21439 0
M  V30 1192 O 104.467 -0.556923 -1.73795 0
M  V30 1193 C 104.518 -3.61456 -0.0567044 0
M  V30 1194 O 104.239 -4.21242 1.20361 0
M  V30 1195 C 105.74 -4.39345 -0.590869 0
M  V30 1196 H 102.96 -0.667825 0.0651943 0
M  V30 1197 H 105.504 -1.87115 0.82511 0
M  V30 1198 H 103.659 -3.80378 -0.734251 0
M  V30 1199 H 104.073 -5.14323 1.02821 0
M  V30 1200 H 105.547 -5.48182 -0.648131 0
M  V30 1201 H 106.024 -4.08568 -1.61147 0
M  V30 1202 H 106.63 -4.25268 0.0523679 0
M  V30 1203 N 104.945 -0.338344 -1.53925 0
M  V30 1204 C 106.175 0.260919 -2.04946 0
M  V30 1205 C 106.583 1.45174 -1.2133 0
M  V30 1206 O 105.926 1.82122 -0.240262 0
M  V30 1207 C 105.988 0.744596 -3.51704 0
M  V30 1208 C 105.652 -0.325883 -4.55837 0
M  V30 1209 C 106.649 -1.16687 -5.06636 0
M  V30 1210 C 104.334 -0.478317 -5.00017 0
M  V30 1211 C 106.328 -2.14588 -6.00192 0
M  V30 1212 C 104.015 -1.46073 -5.93385 0
M  V30 1213 C 105.013 -2.29297 -6.4336 0
M  V30 1214 O 104.701 -3.25867 -7.34892 0
M  V30 1215 H 104.433 0.0551207 -0.673749 0
M  V30 1216 H 106.987 -0.486984 -1.99544 0
M  V30 1217 H 105.217 1.54366 -3.54553 0
M  V30 1218 H 106.906 1.26383 -3.85723 0
M  V30 1219 H 107.672 -1.06016 -4.73271 0
M  V30 1220 H 103.551 0.159613 -4.60724 0
M  V30 1221 H 107.095 -2.79585 -6.39123 0
M  V30 1222 H 102.992 -1.56802 -6.26166 0
M  V30 1223 H 103.76 -3.21278 -7.5281 0
M  V30 1224 N 106.423 1.57458 -0.0668435 0
M  V30 1225 C 107.7 1.8469 0.644132 0
M  V30 1226 C 108.08 0.958343 1.88093 0
M  V30 1227 O 107.428 0.0233579 2.28488 0
M  V30 1228 C 107.638 3.34767 0.986509 0
M  V30 1229 C 108.986 4.02159 1.36212 0
M  V30 1230 O 110.01 3.39484 1.07839 0
M  V30 1231 O 108.869 5.12694 1.89227 0
M  V30 1232 H 105.963 0.762816 0.319437 0
M  V30 1233 H 108.509 1.6942 -0.0973986 0
M  V30 1234 H 107.281 3.91151 0.107883 0
M  V30 1235 H 106.904 3.55281 1.78497 0
M  V30 1236 N 107.901 -0.206675 1.56239 0
M  V30 1237 C 108.811 -1.27686 1.96808 0
M  V30 1238 C 109.827 -1.50455 0.874035 0
M  V30 1239 O 111.003 -1.63295 1.17884 0
M  V30 1240 C 108.068 -2.60358 2.28942 0
M  V30 1241 C 107.129 -2.45762 3.51994 0
M  V30 1242 C 106.362 -3.72108 3.82585 0
M  V30 1243 O 106.585 -4.75776 3.14631 0
M  V30 1244 O 105.519 -3.6833 4.76043 0
M  V30 1245 H 109.345 -0.962593 2.88041 0
M  V30 1246 H 106.93 -0.410746 1.43643 0
M  V30 1247 H 108.812 -3.38687 2.50737 0
M  V30 1248 H 107.487 -2.91435 1.4088 0
M  V30 1249 H 106.394 -1.65584 3.35459 0
M  V30 1250 H 107.727 -2.19621 4.40486 0
M  V30 1251 N 109.379 -1.50304 -0.473955 0
M  V30 1252 C 110.289 -1.7174 -1.5982 0
M  V30 1253 C 111.305 -0.600457 -1.63311 0
M  V30 1254 O 112.481 -0.878441 -1.81233 0
M  V30 1255 C 109.546 -1.80427 -2.96052 0
M  V30 1256 C 108.607 -3.04148 -3.02972 0
M  V30 1257 C 107.84 -3.12411 -4.32706 0
M  V30 1258 O 108.063 -2.27542 -5.23049 0
M  V30 1259 O 106.997 -4.05113 -4.45159 0
M  V30 1260 H 110.823 -2.67035 -1.44657 0
M  V30 1261 H 108.408 -1.34366 -0.653148 0
M  V30 1262 H 110.29 -1.88338 -3.7697 0
M  V30 1263 H 108.965 -0.883156 -3.11419 0
M  V30 1264 H 107.872 -3.0174 -2.21142 0
M  V30 1265 H 109.205 -3.95829 -2.92541 0
M  V30 1266 N 110.857 0.726932 -1.39834 0
M  V30 1267 C 112.082 1.52121 -1.40976 0
M  V30 1268 C 112.507 1.88098 -0.00826029 0
M  V30 1269 O 111.865 1.52479 0.980807 0
M  V30 1270 C 111.913 2.78021 -2.29644 0
M  V30 1271 O 111.017 3.74272 -1.73188 0
M  V30 1272 H 110.358 0.45908 -0.479731 0
M  V30 1273 H 112.888 0.896207 -1.83927 0
M  V30 1274 H 112.898 3.26671 -2.44438 0
M  V30 1275 H 111.573 2.51169 -3.31492 0
M  V30 1276 H 110.15 3.33073 -1.6768 0
M  V30 1277 N 112.336 1.25143 0.95797 0
M  V30 1278 C 113.283 1.05235 2.05412 0
M  V30 1279 C 114.253 -0.0374561 1.66058 0
M  V30 1280 O 115.438 0.119073 1.90428 0
M  V30 1281 C 112.578 0.673589 3.38462 0
M  V30 1282 C 111.691 1.8379 3.90954 0
M  V30 1283 C 110.826 1.40381 5.12315 0
M  V30 1284 C 109.865 2.53746 5.57027 0
M  V30 1285 N 109.002 2.11136 6.69601 0
M  V30 1286 H 113.842 1.99048 2.21774 0
M  V30 1287 H 111.379 0.991277 1.08683 0
M  V30 1288 H 113.337 0.434964 4.14926 0
M  V30 1289 H 111.967 -0.227554 3.21997 0
M  V30 1290 H 111.019 2.18992 3.11041 0
M  V30 1291 H 112.331 2.68937 4.20089 0
M  V30 1292 H 111.485 1.12464 5.96185 0
M  V30 1293 H 110.224 0.523015 4.84887 0
M  V30 1294 H 109.229 2.82412 4.71724 0
M  V30 1295 H 110.454 3.42398 5.86464 0
M  V30 1296 H 108.4 1.25468 6.4389 0
M  V30 1297 H 108.317 2.89832 6.98236 0
M  V30 1298 H 109.585 1.86385 7.56889 0
M  V30 1299 N 113.814 -1.1601 1.06675 0
M  V30 1300 C 115.063 -1.85973 0.780818 0
M  V30 1301 C 115.376 -1.82819 -0.695444 0
M  V30 1302 O 116.582 -2.484 -1.09589 0
M  V30 1303 C 115.038 -3.33757 1.34665 0
M  V30 1304 C 114.646 -3.45374 2.85343 0
M  V30 1305 C 116.39 -4.0895 1.13843 0
M  V30 1306 C 114.297 -4.87266 3.35151 0
M  V30 1307 H 113.227 -0.696661 0.288407 0
M  V30 1308 H 115.878 -1.30903 1.28595 0
M  V30 1309 H 114.26 -3.88456 0.769274 0
M  V30 1310 H 115.434 -3.00816 3.49065 0
M  V30 1311 H 113.749 -2.83619 3.04876 0
M  V30 1312 H 116.346 -5.13654 1.4854 0
M  V30 1313 H 116.689 -4.16229 0.0770282 0
M  V30 1314 H 117.222 -3.605 1.68179 0
M  V30 1315 H 113.961 -4.85168 4.40786 0
M  V30 1316 H 113.481 -5.32433 2.76179 0
M  V30 1317 H 115.16 -5.56097 3.30704 0
M  V30 1318 N 115.292 -0.849877 -1.32721 0
M  V30 1319 C 116.522 -0.46408 -2.0132 0
M  V30 1320 C 116.93 0.94246 -1.64056 0
M  V30 1321 O 116.273 1.6257 -0.855379 0
M  V30 1322 C 116.335 -0.517887 -3.5575 0
M  V30 1323 C 115.999 -1.88248 -4.16427 0
M  V30 1324 C 116.996 -2.84726 -4.35002 0
M  V30 1325 C 114.681 -2.17832 -4.52609 0
M  V30 1326 C 116.675 -4.08945 -4.8892 0
M  V30 1327 C 114.362 -3.42304 -5.06232 0
M  V30 1328 C 115.36 -4.37677 -5.24335 0
M  V30 1329 O 115.048 -5.59946 -5.76815 0
M  V30 1330 H 114.78 -0.181327 -0.651227 0
M  V30 1331 H 117.334 -1.14713 -1.70382 0
M  V30 1332 H 115.564 0.221997 -3.86062 0
M  V30 1333 H 117.253 -0.148366 -4.05629 0
M  V30 1334 H 118.019 -2.63174 -4.07388 0
M  V30 1335 H 113.898 -1.44385 -4.37806 0
M  V30 1336 H 117.442 -4.83396 -5.02966 0
M  V30 1337 H 113.339 -3.63709 -5.33278 0
M  V30 1338 H 114.107 -5.61838 -5.95214 0
M  V30 1339 N 116.77 1.45427 -0.607355 0
M  V30 1340 C 117.995 2.07124 -0.107006 0
M  V30 1341 C 118.42 1.44906 1.19933 0
M  V30 1342 O 117.778 0.541687 1.73019 0
M  V30 1343 C 117.826 3.60595 0.0194119 0
M  V30 1344 O 116.93 3.98285 1.0697 0
M  V30 1345 H 116.271 0.659868 -0.0739597 0
M  V30 1346 H 118.801 1.86683 -0.837297 0
M  V30 1347 H 118.811 4.07419 0.2177 0
M  V30 1348 H 117.486 4.05266 -0.934453 0
M  V30 1349 H 116.063 3.63133 0.847889 0
M  V30 1350 N 118.248 0.346503 1.53744 0
M  V30 1351 C 119.476 -0.25041 2.05379 0
M  V30 1352 C 119.891 -1.43979 1.22129 0
M  V30 1353 O 119.248 -1.80677 0.257321 0
M  V30 1354 C 119.299 -0.662575 3.55376 0
M  V30 1355 O 119.02 0.479515 4.35468 0
M  V30 1356 C 120.521 -1.31989 4.23195 0
M  V30 1357 H 117.741 -0.0478198 0.669294 0
M  V30 1358 H 120.285 0.499346 1.9831 0
M  V30 1359 H 118.44 -1.36227 3.62658 0
M  V30 1360 H 118.854 0.15037 5.24284 0
M  V30 1361 H 120.328 -1.55902 5.29527 0
M  V30 1362 H 120.805 -2.27436 3.75725 0
M  V30 1363 H 121.411 -0.662154 4.20114 0
M  V30 1364 N 119.726 -1.57421 0.075193 0
M  V30 1365 C 120.673 -2.12915 -0.890843 0
M  V30 1366 C 121.643 -1.04252 -1.29309 0
M  V30 1367 O 122.828 -1.31933 -1.37834 0
M  V30 1368 C 119.968 -2.69795 -2.15186 0
M  V30 1369 C 119.081 -3.92624 -1.80194 0
M  V30 1370 C 118.216 -4.37736 -3.00933 0
M  V30 1371 C 117.255 -5.53205 -2.61974 0
M  V30 1372 N 116.392 -5.9326 -3.75483 0
M  V30 1373 H 121.232 -2.95156 -0.410735 0
M  V30 1374 H 118.769 -1.45854 -0.191086 0
M  V30 1375 H 120.727 -3.00883 -2.89008 0
M  V30 1376 H 119.357 -1.90313 -2.60731 0
M  V30 1377 H 118.409 -3.67977 -0.964218 0
M  V30 1378 H 119.721 -4.76482 -1.47534 0
M  V30 1379 H 118.875 -4.70503 -3.8303 0
M  V30 1380 H 117.614 -3.52739 -3.36789 0
M  V30 1381 H 116.619 -5.20086 -1.783 0
M  V30 1382 H 117.844 -6.39936 -2.27284 0
M  V30 1383 H 115.79 -5.11212 -4.11094 0
M  V30 1384 H 115.707 -6.71865 -3.46602 0
M  V30 1385 H 116.975 -6.30651 -4.58148 0
M  V30 1386 N 121.204 0.198386 -1.56346 0
M  V30 1387 C 122.434 0.934215 -1.84271 0
M  V30 1388 C 122.842 1.77496 -0.655125 0
M  V30 1389 O 122.185 1.7961 0.385488 0
M  V30 1390 C 122.247 1.88278 -3.06254 0
M  V30 1391 C 121.911 1.22431 -4.40295 0
M  V30 1392 C 122.908 0.602839 -5.16393 0
M  V30 1393 C 120.593 1.22915 -4.87029 0
M  V30 1394 C 122.587 -0.0050083 -6.374 0
M  V30 1395 C 120.274 0.617465 -6.07973 0
M  V30 1396 C 121.272 0.00146341 -6.83 0
M  V30 1397 O 120.96 -0.600642 -8.01653 0
M  V30 1398 H 120.692 0.278245 -0.616081 0
M  V30 1399 H 123.246 0.211626 -2.04307 0
M  V30 1400 H 121.476 2.64498 -2.82095 0
M  V30 1401 H 123.165 2.48612 -3.20853 0
M  V30 1402 H 123.931 0.591265 -4.81382 0
M  V30 1403 H 119.81 1.69801 -4.28589 0
M  V30 1404 H 123.354 -0.48643 -6.95902 0
M  V30 1405 H 119.251 0.62653 -6.42452 0
M  V30 1406 H 120.019 -0.497225 -8.16988 0
M  V30 1407 N 122.682 1.50554 0.465978 0
M  V30 1408 C 124.093 1.54599 1.04671 0
M  V30 1409 C 124.444 0.352488 1.93008 0
M  V30 1410 O 123.569 -0.534044 2.09707 0
M  V30 1411 C 124.164 2.80166 1.90505 0
M  V30 1412 C 122.723 2.86876 2.43678 0
M  V30 1413 C 121.87 2.48947 1.22151 0
M  V30 1414 H 124.821 1.56744 0.248384 0
M  V30 1415 H 124.842 2.62311 2.75633 0
M  V30 1416 H 124.354 3.67013 1.26186 0
M  V30 1417 H 122.455 2.04393 3.11536 0
M  V30 1418 H 122.568 3.89885 2.78436 0
M  V30 1419 H 120.932 2.01498 1.5579 0
M  V30 1420 H 121.715 3.38107 0.594866 0
M  V30 1421 N 124.16 -0.719506 1.40217 0
M  V30 1422 C 125.092 -1.84428 1.36084 0
M  V30 1423 C 126.105 -1.60597 0.266913 0
M  V30 1424 O 127.294 -1.70544 0.526983 0
M  V30 1425 C 124.394 -3.20757 1.094 0
M  V30 1426 C 123.567 -3.71817 2.30372 0
M  V30 1427 C 122.626 -4.86748 1.99907 0
M  V30 1428 O 121.652 -4.99603 2.72737 0
M  V30 1429 N 122.854 -5.7226 0.974635 0
M  V30 1430 H 125.619 -1.88473 2.33019 0
M  V30 1431 H 123.18 -0.900885 1.3452 0
M  V30 1432 H 125.172 -3.95235 0.870116 0
M  V30 1433 H 123.742 -3.11884 0.211452 0
M  V30 1434 H 122.962 -2.88514 2.68614 0
M  V30 1435 H 124.25 -4.02666 3.11026 0
M  V30 1436 H 123.648 -5.6448 0.371368 0
M  V30 1437 H 122.205 -6.46739 0.810656 0
M  V30 1438 N 125.638 -1.25649 -0.95132 0
M  V30 1439 C 126.568 -1.08808 -2.06599 0
M  V30 1440 C 127.549 0.00382547 -1.701 0
M  V30 1441 O 128.734 -0.166325 -1.93486 0
M  V30 1442 C 125.864 -0.709542 -3.39975 0
M  V30 1443 C 124.818 -1.75206 -3.90496 0
M  V30 1444 C 124.144 -1.22811 -5.20405 0
M  V30 1445 C 125.444 -3.15153 -4.16504 0
M  V30 1446 H 127.138 -2.02048 -2.20946 0
M  V30 1447 H 124.684 -0.972835 -1.06169 0
M  V30 1448 H 126.637 -0.578649 -4.17408 0
M  V30 1449 H 125.361 0.258556 -3.25575 0
M  V30 1450 H 124.02 -1.87145 -3.15234 0
M  V30 1451 H 123.668 -0.250145 -5.02378 0
M  V30 1452 H 123.368 -1.92492 -5.55176 0
M  V30 1453 H 124.892 -1.10968 -6.00432 0
M  V30 1454 H 126.306 -3.06349 -4.84586 0
M  V30 1455 H 124.703 -3.82333 -4.62538 0
M  V30 1456 H 125.773 -3.61966 -3.22658 0
M  V30 1457 N 127.117 1.15442 -1.07289 0
M  V30 1458 C 128.345 1.90096 -0.81676 0
M  V30 1459 C 128.76 1.7798 0.629966 0
M  V30 1460 O 128.117 1.1313 1.43206 0
M  V30 1461 C 128.168 3.40466 -1.21512 0
M  V30 1462 O 127.889 3.52232 -2.60508 0
M  V30 1463 C 129.39 4.32145 -0.988198 0
M  V30 1464 H 126.61 0.602495 -0.295366 0
M  V30 1465 H 129.154 1.4627 -1.42918 0
M  V30 1466 H 127.309 3.81958 -0.647039 0
M  V30 1467 H 127.723 4.45549 -2.76742 0
M  V30 1468 H 129.197 5.36072 -1.31645 0
M  V30 1469 H 129.674 4.39135 0.0755063 0
M  V30 1470 H 130.28 3.96395 -1.54115 0
M  V30 1471 N 128.595 0.856903 1.32268 0
M  V30 1472 C 129.525 0.31858 2.31316 0
M  V30 1473 C 130.506 -0.583487 1.59779 0
M  V30 1474 O 131.691 -0.503259 1.87566 0
M  V30 1475 C 128.821 -0.491979 3.43798 0
M  V30 1476 C 127.775 0.315849 4.26833 0
M  V30 1477 C 127.101 -0.619586 5.31098 0
M  V30 1478 C 128.401 1.54282 4.98993 0
M  V30 1479 H 130.095 1.14621 2.76591 0
M  V30 1480 H 127.641 0.552613 1.32974 0
M  V30 1481 H 129.594 -0.879012 4.1213 0
M  V30 1482 H 128.318 -1.35299 2.97257 0
M  V30 1483 H 126.977 0.684664 3.6015 0
M  V30 1484 H 126.625 -1.47751 4.8081 0
M  V30 1485 H 126.325 -0.0830621 5.87541 0
M  V30 1486 H 127.849 -1.00375 6.02293 0
M  V30 1487 H 129.263 1.22796 5.59995 0
M  V30 1488 H 127.66 2.01745 5.65172 0
M  V30 1489 H 128.73 2.30285 4.26728 0
M  V30 1490 N 130.073 -1.45103 0.615059 0
M  V30 1491 C 131.003 -2.33339 -0.0865619 0
M  V30 1492 C 131.984 -1.4727 -0.851209 0
M  V30 1493 O 133.169 -1.76026 -0.820281 0
M  V30 1494 C 130.299 -3.30095 -1.07956 0
M  V30 1495 C 129.253 -4.25858 -0.427628 0
M  V30 1496 C 128.579 -5.12361 -1.5294 0
M  V30 1497 C 129.879 -5.18165 0.655944 0
M  V30 1498 H 131.573 -2.92254 0.650224 0
M  V30 1499 H 129.119 -1.40532 0.314138 0
M  V30 1500 H 131.072 -3.90698 -1.57901 0
M  V30 1501 H 129.796 -2.69355 -1.84703 0
M  V30 1502 H 128.455 -3.66564 0.0510292 0
M  V30 1503 H 128.103 -4.47984 -2.28734 0
M  V30 1504 H 127.803 -5.77238 -1.09865 0
M  V30 1505 H 129.327 -5.75833 -2.03098 0
M  V30 1506 H 130.741 -5.72796 0.240257 0
M  V30 1507 H 129.138 -5.91559 1.00888 0
M  V30 1508 H 130.208 -4.60144 1.52957 0
M  V30 1509 N 131.551 -0.354651 -1.53558 0
M  V30 1510 C 132.499 0.512195 -2.26891 0
M  V30 1511 C 133.493 1.09263 -1.29452 0
M  V30 1512 O 134.699 1.03709 -1.47121 0
M  V30 1513 H 131.074 0.183878 -0.729173 0
M  V30 1514 H 133.045 -0.128202 -2.98124 0
M  V30 1515 C 131.794 1.64563 -3.06291 0
M  V30 1516 H 131.117 1.20829 -3.81104 0
M  V30 1517 H 132.557 2.22711 -3.60799 0
M  V30 1518 C 131.016 2.58158 -2.16462 0
M  V30 1519 O 131.546 3.60695 -1.76811 0
M  V30 1520 N 129.752 2.27096 -1.81317 0
M  V30 1521 H 129.299 1.43751 -2.1376 0
M  V30 1522 H 129.257 2.89975 -1.21498 0
M  V30 1523 N 133.029 1.57378 -0.0835403 0
M  V30 1524 C 134.254 1.98682 0.594987 0
M  V30 1525 C 134.679 0.961969 1.61641 0
M  V30 1526 O 134.037 -0.0709989 1.81161 0
M  V30 1527 C 134.085 3.38988 1.2296 0
M  V30 1528 O 133.189 3.39208 2.34546 0
M  V30 1529 H 132.53 0.646368 0.152002 0
M  V30 1530 H 135.06 2.03961 -0.161533 0
M  V30 1531 H 135.07 3.76431 1.57366 0
M  V30 1532 H 133.745 4.13107 0.481228 0
M  V30 1533 H 132.322 3.13548 2.01846 0
M  V30 1534 N 134.507 -0.190092 1.56449 0
M  V30 1535 C 135.455 -1.25501 1.95837 0
M  V30 1536 C 136.449 -1.4685 0.844485 0
M  V30 1537 O 137.655 -1.47651 1.02952 0
M  V30 1538 H 134.03 -0.421447 0.622805 0
M  V30 1539 H 136.001 -0.895821 2.84636 0
M  V30 1540 C 134.75 -2.59124 2.31841 0
M  V30 1541 H 134.073 -2.43514 3.17082 0
M  V30 1542 H 135.513 -3.32371 2.6326 0
M  V30 1543 C 133.972 -3.16488 1.15486 0
M  V30 1544 O 134.502 -3.99365 0.432535 0
M  V30 1545 N 132.708 -2.75305 0.930349 0
M  V30 1546 H 132.255 -2.08013 1.51948 0
M  V30 1547 H 132.213 -3.14024 0.153634 0
M  V30 1548 N 135.985 -1.50799 -0.457987 0
M  V30 1549 C 136.933 -1.71162 -1.575 0
M  V30 1550 C 137.927 -0.577592 -1.59249 0
M  V30 1551 O 139.133 -0.758443 -1.63241 0
M  V30 1552 H 135.508 -0.540468 -0.522875 0
M  V30 1553 H 137.479 -2.64837 -1.37492 0
M  V30 1554 C 136.228 -1.83496 -2.95338 0
M  V30 1555 H 135.551 -2.70153 -2.94716 0
M  V30 1556 H 136.991 -2.01765 -3.72917 0
M  V30 1557 C 135.45 -0.589694 -3.31699 0
M  V30 1558 O 135.98 0.265163 -4.00824 0
M  V30 1559 N 134.186 -0.439845 -2.87252 0
M  V30 1560 H 133.733 -1.13655 -2.31172 0
M  V30 1561 H 133.691 0.392159 -3.11945 0
M  V30 1562 N 137.463 0.71206 -1.40597 0
M  V30 1563 C 138.712 1.46754 -1.38369 0
M  V30 1564 C 139.025 1.95598 0.0097839 0
M  V30 1565 O 140.231 2.71059 0.154677 0
M  V30 1566 C 138.687 2.65289 -2.43207 0
M  V30 1567 C 138.295 2.23301 -3.88382 0
M  V30 1568 C 140.039 3.43008 -2.50091 0
M  V30 1569 C 137.946 3.38696 -4.84808 0
M  V30 1570 H 136.876 0.55118 -0.514506 0
M  V30 1571 H 139.527 0.774616 -1.66349 0
M  V30 1572 H 137.909 3.36769 -2.08332 0
M  V30 1573 H 139.083 1.59218 -4.32419 0
M  V30 1574 H 137.398 1.58618 -3.85006 0
M  V30 1575 H 139.995 4.28881 -3.1932 0
M  V30 1576 H 140.338 3.87065 -1.53253 0
M  V30 1577 H 140.871 2.78574 -2.83974 0
M  V30 1578 H 137.61 2.99668 -5.82992 0
M  V30 1579 H 137.13 4.01683 -4.45433 0
M  V30 1580 H 138.809 4.04712 -5.04794 0
M  V30 1581 N 138.941 1.26152 0.944643 0
M  V30 1582 C 139.871 1.09902 2.06019 0
M  V30 1583 C 140.852 0.00519538 1.70099 0
M  V30 1584 O 142.037 0.176583 1.93396 0
M  V30 1585 C 139.167 0.727562 3.39594 0
M  V30 1586 C 138.121 1.77274 3.89561 0
M  V30 1587 C 137.447 1.25569 5.19747 0
M  V30 1588 C 138.747 3.17357 4.14827 0
M  V30 1589 H 140.441 2.03217 2.19871 0
M  V30 1590 H 137.987 0.978452 1.05652 0
M  V30 1591 H 139.94 0.600777 4.17095 0
M  V30 1592 H 138.664 -0.241287 3.25707 0
M  V30 1593 H 137.323 1.88814 3.14237 0
M  V30 1594 H 136.971 0.276783 5.02238 0
M  V30 1595 H 136.671 1.95433 5.54148 0
M  V30 1596 H 138.195 1.1415 5.99835 0
M  V30 1597 H 139.609 3.08914 4.82954 0
M  V30 1598 H 138.006 3.84781 4.60504 0
M  V30 1599 H 139.076 3.63673 3.20734 0
M  V30 1600 N 140.419 -1.14872 1.07899 0
M  V30 1601 C 141.667 -1.85422 0.803941 0
M  V30 1602 C 141.988 -1.83051 -0.67211 0
M  V30 1603 O 141.258 -1.27532 -1.48703 0
M  V30 1604 H 139.838 -0.686537 0.294408 0
M  V30 1605 H 142.5 -1.39226 1.3639 0
M  V30 1606 H 141.596 -2.90399 1.14346 0
M  V30 1607 N 141.898 -0.863906 -1.31812 0
M  V30 1608 C 143.128 -0.485406 -2.00817 0
M  V30 1609 C 143.536 0.925007 -1.65046 0
M  V30 1610 O 142.879 1.61653 -0.872574 0
M  V30 1611 C 142.941 -0.555589 -3.55181 0
M  V30 1612 C 142.605 -1.92654 -4.14407 0
M  V30 1613 C 143.602 -2.89324 -4.31958 0
M  V30 1614 C 141.287 -2.2262 -4.50273 0
M  V30 1615 C 143.281 -4.14108 -4.84555 0
M  V30 1616 C 140.968 -3.47654 -5.02573 0
M  V30 1617 C 141.966 -4.43214 -5.19664 0
M  V30 1618 O 141.654 -5.66033 -5.70843 0
M  V30 1619 H 141.386 -0.188224 -0.649267 0
M  V30 1620 H 143.94 -1.16514 -1.69156 0
M  V30 1621 H 142.17 0.181037 -3.86276 0
M  V30 1622 H 143.859 -0.19138 -4.05449 0
M  V30 1623 H 144.625 -2.6748 -4.04573 0
M  V30 1624 H 140.504 -1.4902 -4.3625 0
M  V30 1625 H 144.048 -4.88703 -4.9781 0
M  V30 1626 H 139.945 -3.69345 -5.29391 0
M  V30 1627 H 140.713 -5.6812 -5.89222 0
M  V30 1628 N 143.376 1.44774 -0.622745 0
M  V30 1629 C 144.324 2.32387 0.0994683 0
M  V30 1630 C 145.318 1.46859 0.844326 0
M  V30 1631 O 146.524 1.63254 0.758174 0
M  V30 1632 H 142.899 0.750273 0.0509291 0
M  V30 1633 H 144.87 2.91062 -0.65767 0
M  V30 1634 C 143.619 3.30723 1.07319 0
M  V30 1635 H 142.942 3.96541 0.509462 0
M  V30 1636 H 144.382 3.94725 1.54817 0
M  V30 1637 C 142.841 2.59021 2.15429 0
M  V30 1638 O 143.371 2.38286 3.23393 0
M  V30 1639 N 141.577 2.189 1.91131 0
M  V30 1640 H 141.124 2.35964 1.03337 0
M  V30 1641 H 141.082 1.71251 2.63668 0
M  V30 1642 N 144.854 0.36279 1.53368 0
M  V30 1643 C 145.784 -0.476976 2.28576 0
M  V30 1644 C 146.765 -1.08631 1.30894 0
M  V30 1645 O 147.95 -1.10409 1.59761 0
M  V30 1646 C 145.08 -1.61828 3.07293 0
M  V30 1647 C 144.034 -1.13633 4.1264 0
M  V30 1648 C 143.36 -2.36766 4.79423 0
M  V30 1649 C 144.66 -0.223061 5.21823 0
M  V30 1650 H 146.354 0.150474 2.99022 0
M  V30 1651 H 143.9 0.0738103 1.43811 0
M  V30 1652 H 145.853 -2.21237 3.58653 0
M  V30 1653 H 144.577 -2.27292 2.34533 0
M  V30 1654 H 143.236 -0.564945 3.62221 0
M  V30 1655 H 142.884 -3.0068 4.03238 0
M  V30 1656 H 142.584 -2.05192 5.50609 0
M  V30 1657 H 144.108 -2.96865 5.33576 0
M  V30 1658 H 145.522 -0.724545 5.68703 0
M  V30 1659 H 143.919 0.001678 6.001 0
M  V30 1660 H 144.989 0.735553 4.79289 0
M  V30 1661 N 146.332 -1.57332 0.0918853 0
M  V30 1662 C 147.579 -1.94236 -0.572577 0
M  V30 1663 C 147.907 -0.973398 -1.6839 0
M  V30 1664 O 147.162 0.00756912 -1.95699 0
M  V30 1665 C 147.461 -3.37689 -1.17051 0
M  V30 1666 C 147.127 -4.50527 -0.183304 0
M  V30 1667 C 145.789 -4.81119 0.0882276 0
M  V30 1668 C 148.141 -5.18883 0.49095 0
M  V30 1669 C 145.469 -5.77395 1.04076 0
M  V30 1670 C 147.821 -6.1618 1.43193 0
M  V30 1671 C 146.485 -6.45179 1.71173 0
M  V30 1672 H 145.755 -0.710762 -0.209521 0
M  V30 1673 H 148.402 -1.9077 0.167036 0
M  V30 1674 H 146.707 -3.37718 -1.9863 0
M  V30 1675 H 148.404 -3.63543 -1.69227 0
M  V30 1676 H 144.994 -4.26681 -0.405124 0
M  V30 1677 H 149.178 -4.95427 0.294312 0
M  V30 1678 H 144.434 -5.98179 1.26457 0
M  V30 1679 H 148.608 -6.68243 1.96023 0
M  V30 1680 H 146.235 -7.1959 2.4514 0
M  V30 1681 N 147.81 0.181792 -1.56548 0
M  V30 1682 C 149.087 0.926765 -1.72251 0
M  V30 1683 C 149.467 2.00831 -0.650386 0
M  V30 1684 O 148.815 2.26008 0.336521 0
M  V30 1685 C 149.025 1.50106 -3.1507 0
M  V30 1686 C 150.373 1.97805 -3.75711 0
M  V30 1687 O 151.397 1.59922 -3.18282 0
M  V30 1688 O 150.256 2.67555 -4.76525 0
M  V30 1689 H 147.35 0.435506 -0.703039 0
M  V30 1690 H 149.896 0.170443 -1.68842 0
M  V30 1691 H 148.668 0.72212 -3.84579 0
M  V30 1692 H 148.291 2.32186 -3.22763 0
M  V30 1693 N 149.288 1.51039 0.449983 0
M  V30 1694 C 150.513 1.6715 1.22783 0
M  V30 1695 C 150.938 0.363081 1.84563 0
M  V30 1696 O 150.296 -0.675433 1.68249 0
M  V30 1697 C 150.344 2.77985 2.29689 0
M  V30 1698 O 149.448 2.40707 3.34864 0
M  V30 1699 H 148.789 0.557746 0.360299 0
M  V30 1700 H 151.319 1.97535 0.533005 0
M  V30 1701 H 151.329 3.01693 2.74673 0
M  V30 1702 H 150.004 3.72935 1.84098 0
M  V30 1703 H 148.581 2.27523 2.95445 0
M  V30 1704 N 150.766 -0.704594 1.40972 0
M  V30 1705 C 151.696 -1.83124 1.44872 0
M  V30 1706 C 152.677 -1.67281 0.30838 0
M  V30 1707 O 153.862 -1.87149 0.518556 0
M  V30 1708 C 150.992 -3.21181 1.32136 0
M  V30 1709 C 149.946 -3.51714 2.43888 0
M  V30 1710 C 149.272 -4.89032 2.16222 0
M  V30 1711 C 150.572 -3.516 3.86232 0
M  V30 1712 H 152.266 -1.80117 2.39161 0
M  V30 1713 H 149.812 -0.865145 1.15114 0
M  V30 1714 H 151.765 -3.99702 1.33479 0
M  V30 1715 H 150.489 -3.24791 0.343279 0
M  V30 1716 H 149.148 -2.75539 2.41813 0
M  V30 1717 H 148.796 -4.89256 1.16778 0
M  V30 1718 H 148.496 -5.10426 2.911 0
M  V30 1719 H 150.02 -5.69873 2.19265 0
M  V30 1720 H 151.434 -4.2014 3.9007 0
M  V30 1721 H 149.831 -3.84523 4.60719 0
M  V30 1722 H 150.901 -2.50757 4.15029 0
M  V30 1723 N 152.244 -1.26651 -0.937939 0
M  V30 1724 C 153.191 -1.0849 -2.03712 0
M  V30 1725 C 154.161 0.011033 -1.66096 0
M  V30 1726 O 155.346 -0.149353 -1.90215 0
M  V30 1727 C 152.486 -0.72735 -3.37348 0
M  V30 1728 C 151.599 -1.89986 -3.87981 0
M  V30 1729 C 150.734 -1.48513 -5.10017 0
M  V30 1730 C 149.773 -2.62575 -5.5292 0
M  V30 1731 N 148.91 -2.21762 -6.66158 0
M  V30 1732 H 153.75 -2.02551 -2.18579 0
M  V30 1733 H 151.287 -1.00844 -1.07093 0
M  V30 1734 H 153.245 -0.50092 -4.14182 0
M  V30 1735 H 151.875 0.176298 -3.22318 0
M  V30 1736 H 150.927 -2.23913 -3.07518 0
M  V30 1737 H 152.239 -2.75586 -4.15757 0
M  V30 1738 H 151.393 -1.21934 -5.94321 0
M  V30 1739 H 150.132 -0.60009 -4.83994 0
M  V30 1740 H 149.137 -2.8988 -4.67172 0
M  V30 1741 H 150.362 -3.51685 -5.80943 0
M  V30 1742 H 148.308 -1.35696 -6.41812 0
M  V30 1743 H 148.225 -3.00903 -6.93537 0
M  V30 1744 H 149.493 -1.98403 -7.53828 0
M  V30 1745 N 153.722 1.14298 -1.08507 0
M  V30 1746 C 154.67 2.21483 -0.710483 0
M  V30 1747 C 155.664 1.66998 0.284234 0
M  V30 1748 O 156.87 1.79401 0.146692 0
M  V30 1749 H 153.245 0.721578 -0.211729 0
M  V30 1750 H 155.216 2.50348 -1.62384 0
M  V30 1751 C 153.965 3.4743 -0.137007 0
M  V30 1752 H 153.288 3.89686 -0.893592 0
M  V30 1753 H 154.728 4.2391 0.0872789 0
M  V30 1754 C 153.187 3.17548 1.12538 0
M  V30 1755 O 153.717 3.35437 2.21009 0
M  V30 1756 N 151.923 2.71499 1.03617 0
M  V30 1757 H 151.47 2.57143 0.153403 0
M  V30 1758 H 151.428 2.51881 1.88158 0
M  V30 1759 N 155.201 0.870884 1.31352 0
M  V30 1760 C 156.148 0.325425 2.28494 0
M  V30 1761 C 157.118 -0.576615 1.5577 0
M  V30 1762 O 158.303 -0.508059 1.83911 0
M  V30 1763 C 155.443 -0.466283 3.41935 0
M  V30 1764 C 154.556 0.463378 4.29508 0
M  V30 1765 C 153.691 -0.342544 5.30094 0
M  V30 1766 C 152.73 0.583486 6.09313 0
M  V30 1767 N 151.867 -0.186244 7.01853 0
M  V30 1768 H 156.707 1.15901 2.74538 0
M  V30 1769 H 154.244 0.58294 1.35056 0
M  V30 1770 H 156.202 -0.941085 4.06447 0
M  V30 1771 H 154.832 -1.26456 2.97 0
M  V30 1772 H 153.884 1.05663 3.65431 0
M  V30 1773 H 155.196 1.1734 4.84802 0
M  V30 1774 H 154.35 -0.879816 6.00287 0
M  V30 1775 H 153.089 -1.08585 4.75458 0
M  V30 1776 H 152.094 1.13251 5.3801 0
M  V30 1777 H 153.319 1.32566 6.66035 0
M  V30 1778 H 151.265 -0.912348 6.49625 0
M  V30 1779 H 151.182 0.464422 7.54572 0
M  V30 1780 H 152.45 -0.704716 7.76308 0
M  V30 1781 N 156.679 -1.44442 0.630414 0
M  V30 1782 C 157.589 -2.34476 -0.0761693 0
M  V30 1783 C 158.605 -1.52576 -0.836449 0
M  V30 1784 O 159.781 -1.85307 -0.788874 0
M  V30 1785 C 156.846 -3.30545 -1.04599 0
M  V30 1786 C 155.907 -4.28352 -0.28516 0
M  V30 1787 C 155.14 -5.19831 -1.20878 0
M  V30 1788 O 155.363 -5.15223 -2.44747 0
M  V30 1789 O 154.297 -5.97892 -0.693491 0
M  V30 1790 H 158.123 -2.96345 0.664324 0
M  V30 1791 H 155.708 -1.44203 0.39061 0
M  V30 1792 H 157.59 -3.89681 -1.60396 0
M  V30 1793 H 156.265 -2.7121 -1.76711 0
M  V30 1794 H 155.172 -3.72764 0.315837 0
M  V30 1795 H 156.505 -4.90605 0.395924 0
M  V30 1796 N 158.157 -0.370918 -1.53173 0
M  V30 1797 C 159.105 0.488101 -2.27421 0
M  V30 1798 C 160.099 1.07884 -1.30604 0
M  V30 1799 O 161.305 1.02143 -1.48212 0
M  V30 1800 H 157.68 0.176134 -0.731082 0
M  V30 1801 H 159.651 -0.159815 -2.97972 0
M  V30 1802 C 158.4 1.61306 -3.08019 0
M  V30 1803 H 157.723 1.1678 -3.82364 0
M  V30 1804 H 159.163 2.18872 -3.63141 0
M  V30 1805 C 157.622 2.55848 -2.19188 0
M  V30 1806 O 158.152 3.58799 -1.80626 0
M  V30 1807 N 156.358 2.2516 -1.83715 0
M  V30 1808 H 155.905 1.41476 -2.15273 0
M  V30 1809 H 155.863 2.8867 -1.24567 0
M  V30 1810 N 159.635 1.57281 -0.100228 0
M  V30 1811 C 160.882 1.94537 0.562268 0
M  V30 1812 C 161.21 0.982315 1.67871 0
M  V30 1813 O 160.465 0.00280936 1.957 0
M  V30 1814 C 160.764 3.38305 1.15259 0
M  V30 1815 C 160.43 4.50618 0.159409 0
M  V30 1816 C 159.092 4.81066 -0.113741 0
M  V30 1817 C 161.444 5.18615 -0.518461 0
M  V30 1818 C 158.772 5.76835 -1.07137 0
M  V30 1819 C 161.124 6.15412 -1.46459 0
M  V30 1820 C 159.788 6.44262 -1.74592 0
M  V30 1821 H 159.058 0.711863 0.205748 0
M  V30 1822 H 161.705 1.90679 -0.17715 0
M  V30 1823 H 160.01 3.38766 1.96836 0
M  V30 1824 H 161.707 3.64435 1.67297 0
M  V30 1825 H 158.297 4.2689 0.382491 0
M  V30 1826 H 162.481 4.95264 -0.320581 0
M  V30 1827 H 157.737 5.975 -1.29628 0
M  V30 1828 H 161.911 6.67194 -1.99564 0
M  V30 1829 H 159.538 7.1828 -2.48953 0
M  V30 1830 N 161.113 -0.173488 1.56642 0
M  V30 1831 C 162.359 -0.891784 1.8214 0
M  V30 1832 C 162.692 -1.8199 0.677736 0
M  V30 1833 O 161.967 -1.91842 -0.320446 0
M  V30 1834 C 162.25 -1.68933 3.18015 0
M  V30 1835 C 162.103 -0.784487 4.42906 0
M  V30 1836 C 163.422 -2.65748 3.50808 0
M  V30 1837 H 160.541 -0.322761 0.662567 0
M  V30 1838 H 163.183 -0.158095 1.89341 0
M  V30 1839 H 161.333 -2.31482 3.12007 0
M  V30 1840 H 163.005 -0.172046 4.60979 0
M  V30 1841 H 161.248 -0.0924117 4.33702 0
M  V30 1842 H 161.919 -1.37799 5.34524 0
M  V30 1843 H 164.395 -2.13327 3.57255 0
M  V30 1844 H 163.271 -3.18619 4.4696 0
M  V30 1845 H 163.532 -3.45842 2.75401 0
M  V30 1846 N 162.591 -1.51276 -0.441967 0
M  V30 1847 C 163.84 -1.6295 -1.18871 0
M  V30 1848 C 164.153 -0.349312 -1.92456 0
M  V30 1849 O 165.359 -0.345355 -2.69295 0
M  V30 1850 C 163.815 -2.87759 -2.16155 0
M  V30 1851 C 163.423 -4.22764 -1.48239 0
M  V30 1852 C 165.167 -3.08788 -2.91291 0
M  V30 1853 C 163.074 -5.38728 -2.4398 0
M  V30 1854 H 162.004 -0.606913 -0.447406 0
M  V30 1855 H 164.655 -1.77739 -0.456205 0
M  V30 1856 H 163.037 -2.66593 -2.92821 0
M  V30 1857 H 164.211 -4.54293 -0.771635 0
M  V30 1858 H 162.526 -4.07575 -0.852741 0
M  V30 1859 H 165.123 -3.92599 -3.63002 0
M  V30 1860 H 165.466 -2.21679 -3.5237 0
M  V30 1861 H 165.999 -3.30272 -2.21733 0
M  V30 1862 H 162.738 -6.28082 -1.87598 0
M  V30 1863 H 162.258 -5.1158 -3.13123 0
M  V30 1864 H 163.937 -5.70489 -3.05207 0
M  V30 1865 N 164.069 0.697108 -1.41344 0
M  V30 1866 C 164.979 1.84088 -1.45427 0
M  V30 1867 C 165.995 1.70545 -0.34501 0
M  V30 1868 O 167.171 1.92488 -0.592492 0
M  V30 1869 C 164.236 3.20056 -1.33286 0
M  V30 1870 C 163.297 3.45718 -2.54514 0
M  V30 1871 C 162.53 4.75199 -2.42944 0
M  V30 1872 O 162.753 5.51579 -1.45318 0
M  V30 1873 O 161.687 5.0161 -3.32672 0
M  V30 1874 H 165.513 1.836 -2.41919 0
M  V30 1875 H 163.098 0.849966 -1.22866 0
M  V30 1876 H 164.98 4.01236 -1.28794 0
M  V30 1877 H 163.655 3.2123 -0.39909 0
M  V30 1878 H 162.562 2.64474 -2.64583 0
M  V30 1879 H 163.895 3.49356 -3.46715 0
M  V30 1880 N 165.547 1.27147 0.931209 0
M  V30 1881 C 166.495 1.09398 2.05268 0
M  V30 1882 C 167.489 0.0180591 1.6939 0
M  V30 1883 O 168.695 0.17551 1.79142 0
M  V30 1884 H 165.07 0.336986 0.672268 0
M  V30 1885 H 167.041 2.04416 2.17386 0
M  V30 1886 C 165.79 0.75424 3.39421 0
M  V30 1887 H 165.113 1.57404 3.67511 0
M  V30 1888 H 166.553 0.669903 4.18674 0
M  V30 1889 C 165.012 -0.541197 3.32525 0
M  V30 1890 O 165.542 -1.57664 3.69466 0
M  V30 1891 N 163.748 -0.535517 2.85623 0
M  V30 1892 H 163.295 0.307511 2.55758 0
M  V30 1893 H 163.253 -1.40236 2.81392 0
M  V30 1894 N 167.025 -1.13721 1.09112 0
M  V30 1895 C 168.255 -1.88499 0.845671 0
M  V30 1896 C 168.663 -1.79218 -0.606432 0
M  V30 1897 O 168.006 -1.1544 -1.42896 0
M  V30 1898 C 168.068 -3.38954 1.19793 0
M  V30 1899 C 167.732 -3.72018 2.65428 0
M  V30 1900 C 168.729 -3.7153 3.63677 0
M  V30 1901 C 166.414 -4.01775 3.01467 0
M  V30 1902 C 168.408 -4.00336 4.95994 0
M  V30 1903 C 166.095 -4.30243 4.33975 0
M  V30 1904 C 167.093 -4.29508 5.31048 0
M  V30 1905 O 166.781 -4.5728 6.61173 0
M  V30 1906 H 166.513 -0.603702 0.304171 0
M  V30 1907 H 169.067 -1.44903 1.45576 0
M  V30 1908 H 167.297 -3.83039 0.530871 0
M  V30 1909 H 168.986 -3.95052 0.932146 0
M  V30 1910 H 169.752 -3.4862 3.37179 0
M  V30 1911 H 165.631 -4.01496 2.26544 0
M  V30 1912 H 169.175 -3.99678 5.71755 0
M  V30 1913 H 165.072 -4.52625 4.60219 0
M  V30 1914 H 165.84 -4.74964 6.66597 0
M  V30 1915 N 168.503 -0.877838 -1.30888 0
M  V30 1916 C 169.78 -0.413052 -1.91189 0
M  V30 1917 C 170.16 1.1056 -1.79832 0
M  V30 1918 O 169.508 1.93771 -1.21099 0
M  V30 1919 C 169.718 -0.903191 -3.3711 0
M  V30 1920 C 171.066 -0.93395 -4.14201 0
M  V30 1921 O 172.09 -0.849373 -3.45925 0
M  V30 1922 O 170.949 -1.05772 -5.36167 0
M  V30 1923 H 168.043 -0.125035 -0.817493 0
M  V30 1924 H 170.589 -0.966269 -1.39504 0
M  V30 1925 H 169.361 -1.94692 -3.39427 0
M  V30 1926 H 168.984 -0.328732 -3.96239 0
M  V30 1927 N 169.982 1.44106 -0.638065 0
M  V30 1928 C 170.892 2.34513 0.0637334 0
M  V30 1929 C 171.908 1.53018 0.828346 0
M  V30 1930 O 173.084 1.85723 0.779036 0
M  V30 1931 C 170.149 3.31095 1.02844 0
M  V30 1932 C 169.21 4.28497 0.26244 0
M  V30 1933 C 168.443 5.20465 1.1812 0
M  V30 1934 O 168.666 5.16514 2.42011 0
M  V30 1935 O 167.6 5.98251 0.661774 0
M  V30 1936 H 171.426 2.95989 -0.68003 0
M  V30 1937 H 169.011 1.43994 -0.398252 0
M  V30 1938 H 170.893 3.90526 1.58327 0
M  V30 1939 H 169.568 2.72144 1.7527 0
M  V30 1940 H 168.475 3.72592 -0.335602 0
M  V30 1941 H 169.808 4.90388 -0.421936 0
M  V30 1942 N 171.46 0.379036 1.52974 0
M  V30 1943 C 172.408 -0.476033 2.27677 0
M  V30 1944 C 173.402 -1.0719 1.31174 0
M  V30 1945 O 174.608 -1.01355 1.48752 0
M  V30 1946 H 170.983 -0.172255 0.732006 0
M  V30 1947 H 172.954 0.175615 2.97883 0
M  V30 1948 C 171.703 -1.5967 3.0887 0
M  V30 1949 H 171.026 -1.1475 3.82978 0
M  V30 1950 H 172.466 -2.16943 3.64296 0
M  V30 1951 C 170.925 -2.54682 2.20542 0
M  V30 1952 O 171.455 -3.57836 1.82527 0
M  V30 1953 N 169.661 -2.24183 1.84907 0
M  V30 1954 H 169.208 -1.40333 2.1602 0
M  V30 1955 H 169.166 -2.88006 1.26096 0
M  V30 1956 N 172.938 -1.57226 0.108567 0
M  V30 1957 C 173.886 -2.16002 -0.862885 0
M  V30 1958 C 174.88 -1.10644 -1.28274 0
M  V30 1959 O 176.086 -1.28966 -1.2557 0
M  V30 1960 H 172.461 -0.691148 -0.296342 0
M  V30 1961 H 174.432 -2.96427 -0.342575 0
M  V30 1962 C 173.181 -2.76576 -2.10716 0
M  V30 1963 H 172.504 -3.5734 -1.793 0
M  V30 1964 H 173.944 -3.21253 -2.76717 0
M  V30 1965 C 172.403 -1.73137 -2.89007 0
M  V30 1966 O 172.933 -1.17842 -3.84026 0
M  V30 1967 N 171.139 -1.43317 -2.52801 0
M  V30 1968 H 170.686 -1.88473 -1.75601 0
M  V30 1969 H 170.644 -0.743485 -3.05483 0
M  V30 1970 N 174.416 0.165178 -1.56732 0
M  V30 1971 C 175.326 1.22423 -2.00125 0
M  V30 1972 C 176.342 1.48084 -0.913619 0
M  V30 1973 O 177.518 1.60112 -1.22172 0
M  V30 1974 C 174.583 2.54197 -2.35764 0
M  V30 1975 C 173.644 2.36343 -3.58386 0
M  V30 1976 C 172.877 3.61834 -3.92316 0
M  V30 1977 O 173.1 4.67267 -3.27135 0
M  V30 1978 O 172.034 3.55579 -4.85641 0
M  V30 1979 H 175.86 0.885886 -2.90492 0
M  V30 1980 H 173.445 0.372518 -1.44681 0
M  V30 1981 H 175.327 3.3192 -2.59629 0
M  V30 1982 H 174.002 2.87598 -1.48557 0
M  V30 1983 H 172.909 1.56632 -3.39731 0
M  V30 1984 H 174.242 2.07865 -4.46154 0
M  V30 1985 N 175.894 1.51508 0.433938 0
M  V30 1986 C 176.804 1.75917 1.5521 0
M  V30 1987 C 177.82 0.643545 1.61662 0
M  V30 1988 O 178.996 0.926183 1.7884 0
M  V30 1989 C 176.061 1.88213 2.91164 0
M  V30 1990 C 175.122 3.12074 2.94802 0
M  V30 1991 C 174.355 3.23774 4.24271 0
M  V30 1992 O 174.578 2.4133 5.16833 0
M  V30 1993 O 173.512 4.16774 4.34262 0
M  V30 1994 H 177.338 2.70777 1.37527 0
M  V30 1995 H 174.923 1.36051 0.617293 0
M  V30 1996 H 176.805 1.98267 3.71845 0
M  V30 1997 H 175.48 0.965413 3.08968 0
M  V30 1998 H 174.387 3.07497 2.13065 0
M  V30 1999 H 175.72 4.03446 2.81943 0
M  V30 2000 N 177.372 -0.689602 1.41712 0
M  V30 2001 C 178.619 -1.44966 1.4139 0
M  V30 2002 C 178.947 -1.94484 0.025105 0
M  V30 2003 O 178.202 -1.70307 -0.964048 0
M  V30 2004 C 178.501 -2.67298 2.37247 0
M  V30 2005 C 178.167 -2.36405 3.83958 0
M  V30 2006 C 176.829 -2.27691 4.23923 0
M  V30 2007 C 179.181 -2.11043 4.76561 0
M  V30 2008 C 176.509 -1.91719 5.54492 0
M  V30 2009 C 178.861 -1.76578 6.07456 0
M  V30 2010 C 177.525 -1.66363 6.46436 0
M  V30 2011 H 176.795 -0.53047 0.517381 0
M  V30 2012 H 179.442 -0.787655 1.74552 0
M  V30 2013 H 177.747 -3.38461 1.9736 0
M  V30 2014 H 179.444 -3.25452 2.34269 0
M  V30 2015 H 176.034 -2.44085 3.52308 0
M  V30 2016 H 180.218 -2.16717 4.46483 0
M  V30 2017 H 175.474 -1.82367 5.83568 0
M  V30 2018 H 179.648 -1.55974 6.78708 0
M  V30 2019 H 177.275 -1.38258 7.47522 0
M  V30 2020 N 178.85 -1.27639 -0.924453 0
M  V30 2021 C 180.08 -1.16819 -1.70402 0
M  V30 2022 C 180.488 0.277191 -1.87158 0
M  V30 2023 O 179.831 1.20025 -1.39067 0
M  V30 2024 C 179.893 -1.78305 -3.12166 0
M  V30 2025 C 179.557 -3.27502 -3.18734 0
M  V30 2026 C 180.554 -4.2409 -3.00738 0
M  V30 2027 C 178.239 -3.68269 -3.4159 0
M  V30 2028 C 180.233 -5.59422 -3.05492 0
M  V30 2029 C 177.92 -5.0373 -3.45977 0
M  V30 2030 C 178.918 -5.99116 -3.27946 0
M  V30 2031 O 178.606 -7.32108 -3.32074 0
M  V30 2032 H 178.338 -0.406931 -0.539799 0
M  V30 2033 H 180.892 -1.69078 -1.16626 0
M  V30 2034 H 179.122 -1.20528 -3.67437 0
M  V30 2035 H 180.811 -1.62154 -3.72103 0
M  V30 2036 H 181.577 -3.93931 -2.82919 0
M  V30 2037 H 177.456 -2.94496 -3.54673 0
M  V30 2038 H 181 -6.33852 -2.91337 0
M  V30 2039 H 176.897 -5.33543 -3.63321 0
M  V30 2040 H 177.665 -7.40598 -3.48507 0
M  V30 2041 N 180.328 1.1314 -1.09713 0
M  V30 2042 C 181.553 1.88862 -0.857081 0
M  V30 2043 C 181.978 1.78729 0.586304 0
M  V30 2044 O 181.336 1.13692 1.41222 0
M  V30 2045 C 181.384 3.36325 -1.30069 0
M  V30 2046 O 180.488 4.09815 -0.461007 0
M  V30 2047 H 179.829 0.587108 -0.310162 0
M  V30 2048 H 182.359 1.43129 -1.46203 0
M  V30 2049 H 182.369 3.87157 -1.28738 0
M  V30 2050 H 181.044 3.43017 -2.35185 0
M  V30 2051 H 179.621 3.68986 -0.538888 0
M  V30 2052 N 181.806 0.884767 1.30421 0
M  V30 2053 C 183.083 0.423185 1.90967 0
M  V30 2054 C 183.463 -1.09605 1.80416 0
M  V30 2055 O 182.811 -1.93126 1.22125 0
M  V30 2056 C 183.021 0.921056 3.36627 0
M  V30 2057 C 184.369 0.955903 4.137 0
M  V30 2058 O 185.393 0.867706 3.4547 0
M  V30 2059 O 184.252 1.08614 5.35598 0
M  V30 2060 H 181.346 0.129369 0.816819 0
M  V30 2061 H 183.892 0.973653 1.3899 0
M  V30 2062 H 182.664 1.96489 3.3839 0
M  V30 2063 H 182.287 0.349741 3.96059 0
M  V30 2064 N 183.284 -1.43765 0.645699 0
M  V30 2065 C 184.533 -2.01116 0.153412 0
M  V30 2066 C 184.846 -1.51493 -1.23731 0
M  V30 2067 O 186.052 -2.01067 -1.8244 0
M  V30 2068 C 184.508 -3.59206 0.223473 0
M  V30 2069 C 184.116 -4.17823 1.61642 0
M  V30 2070 C 185.86 -4.23972 -0.211597 0
M  V30 2071 C 183.767 -5.68183 1.64081 0
M  V30 2072 H 182.697 -0.752093 0.0535891 0
M  V30 2073 H 185.348 -1.6482 0.806633 0
M  V30 2074 H 183.73 -3.92867 -0.497118 0
M  V30 2075 H 184.904 -3.95674 2.36176 0
M  V30 2076 H 183.219 -3.65399 1.99681 0
M  V30 2077 H 185.816 -5.34275 -0.213112 0
M  V30 2078 H 186.159 -3.97352 -1.24165 0
M  V30 2079 H 186.692 -3.95166 0.456988 0
M  V30 2080 H 183.431 -5.99559 2.64971 0
M  V30 2081 H 182.951 -5.9241 0.938611 0
M  V30 2082 H 184.63 -6.32085 1.3812 0
M  V30 2083 N 184.763 -0.387143 -1.52771 0
M  V30 2084 C 185.711 0.463953 -2.27926 0
M  V30 2085 C 186.705 1.06493 -1.31741 0
M  V30 2086 O 187.911 1.00565 -1.49287 0
M  V30 2087 H 184.286 0.16837 -0.732909 0
M  V30 2088 H 186.257 -0.19141 -2.97785 0
M  V30 2089 C 185.006 1.5803 -3.09713 0
M  V30 2090 H 184.329 1.12718 -3.83581 0
M  V30 2091 H 185.769 2.15008 -3.65442 0
M  V30 2092 C 184.228 2.53509 -2.2189 0
M  V30 2093 O 184.758 3.56863 -1.84422 0
M  V30 2094 N 182.964 2.23199 -1.86093 0
M  V30 2095 H 182.511 1.39185 -2.16761 0
M  V30 2096 H 182.469 2.87333 -1.27621 0
M  V30 2097 N 186.241 1.57166 -0.116904 0
M  V30 2098 C 187.189 2.16457 0.851418 0
M  V30 2099 C 188.183 1.11323 1.27686 0
M  V30 2100 O 189.389 1.2963 1.24884 0
M  V30 2101 H 185.764 0.69271 0.292672 0
M  V30 2102 H 187.735 2.96605 0.32685 0
M  V30 2103 C 186.484 2.77689 2.09246 0
M  V30 2104 H 185.807 3.58285 1.77402 0
M  V30 2105 H 187.247 3.22716 2.7501 0
M  V30 2106 C 185.706 1.74667 2.88085 0
M  V30 2107 O 186.236 1.19877 3.83396 0
M  V30 2108 N 184.442 1.44656 2.52038 0
M  V30 2109 H 183.989 1.89402 1.74599 0
M  V30 2110 H 183.947 0.759675 3.05084 0
M  V30 2111 N 187.719 -0.156864 1.56817 0
M  V30 2112 C 188.949 -0.885031 1.86684 0
M  V30 2113 C 189.357 -1.75696 0.701954 0
M  V30 2114 O 188.7 -1.80569 -0.337732 0
M  V30 2115 C 188.762 -1.80092 3.11138 0
M  V30 2116 C 188.426 -1.10714 4.43386 0
M  V30 2117 C 189.423 -0.465714 5.1781 0
M  V30 2118 C 187.108 -1.09959 4.90117 0
M  V30 2119 C 189.102 0.174002 6.37162 0
M  V30 2120 C 186.789 -0.456055 6.09396 0
M  V30 2121 C 187.787 0.179622 6.82764 0
M  V30 2122 O 187.475 0.812975 7.99779 0
M  V30 2123 H 187.207 -0.261813 0.623242 0
M  V30 2124 H 189.761 -0.157383 2.04796 0
M  V30 2125 H 187.991 -2.56926 2.89009 0
M  V30 2126 H 189.68 -2.40018 3.27332 0
M  V30 2127 H 190.446 -0.463427 4.82781 0
M  V30 2128 H 186.325 -1.58378 4.3294 0
M  V30 2129 H 189.869 0.670765 6.94368 0
M  V30 2130 H 185.766 -0.455975 6.43888 0
M  V30 2131 H 186.534 0.71366 8.15383 0
M  V30 2132 N 189.197 -1.51736 -0.425897 0
M  V30 2133 C 190.474 -1.55519 -1.1863 0
M  V30 2134 C 190.854 -0.326219 -2.08564 0
M  V30 2135 O 190.202 0.688012 -2.17896 0
M  V30 2136 C 190.412 -2.87521 -1.9782 0
M  V30 2137 C 191.76 -3.39899 -2.54468 0
M  V30 2138 O 192.784 -2.89148 -2.08019 0
M  V30 2139 O 191.643 -4.2848 -3.39215 0
M  V30 2140 H 188.737 -0.625739 -0.540721 0
M  V30 2141 H 191.283 -1.64055 -0.434038 0
M  V30 2142 H 190.055 -3.68422 -1.31836 0
M  V30 2143 H 189.678 -2.822 -2.80088 0
M  V30 2144 N 190.675 0.682077 -1.42076 0
M  V30 2145 C 191.922 1.44215 -1.42156 0
M  V30 2146 C 192.25 1.94468 -0.0354186 0
M  V30 2147 O 191.505 1.70816 0.955002 0
M  V30 2148 C 191.804 2.66036 -2.38662 0
M  V30 2149 C 191.47 2.34366 -3.85206 0
M  V30 2150 C 190.132 2.25439 -4.25124 0
M  V30 2151 C 192.484 2.08513 -4.77673 0
M  V30 2152 C 189.812 1.88775 -5.55501 0
M  V30 2153 C 192.164 1.73354 -6.08384 0
M  V30 2154 C 190.828 1.62933 -6.47309 0
M  V30 2155 H 190.098 0.527718 -0.520187 0
M  V30 2156 H 192.745 0.778387 -1.74967 0
M  V30 2157 H 191.05 3.3741 -1.99152 0
M  V30 2158 H 192.747 3.24205 -2.35991 0
M  V30 2159 H 189.337 2.42213 -3.53597 0
M  V30 2160 H 193.521 2.14346 -4.47626 0
M  V30 2161 H 188.777 1.7927 -5.84527 0
M  V30 2162 H 192.951 1.52373 -6.79526 0
M  V30 2163 H 190.578 1.34292 -7.48244 0
M  V30 2164 N 192.153 1.28127 0.917671 0
M  V30 2165 C 193.378 1.18007 1.70555 0
M  V30 2166 C 193.803 -0.258257 1.86319 0
M  V30 2167 O 193.161 -1.1869 1.37049 0
M  V30 2168 C 193.209 1.87948 3.07746 0
M  V30 2169 O 192.313 1.18427 3.9503 0
M  V30 2170 H 191.654 0.409867 0.522403 0
M  V30 2171 H 194.184 1.69379 1.1477 0
M  V30 2172 H 194.194 1.95701 3.58001 0
M  V30 2173 H 192.869 2.92573 2.95591 0
M  V30 2174 H 191.446 1.18811 3.53466 0
M  V30 2175 N 193.631 -1.12557 1.10312 0
M  V30 2176 C 194.579 -2.20325 0.745629 0
M  V30 2177 C 195.573 -1.67429 -0.25763 0
M  V30 2178 O 196.779 -1.79612 -0.118132 0
M  V30 2179 H 193.154 -0.718118 0.223182 0
M  V30 2180 H 195.125 -2.47733 1.66346 0
M  V30 2181 C 193.874 -3.47168 0.192262 0
M  V30 2182 H 193.197 -3.88215 0.955475 0
M  V30 2183 H 194.637 -4.23995 -0.0198274 0
M  V30 2184 C 193.096 -3.19298 -1.07472 0
M  V30 2185 O 193.626 -3.3891 -2.15645 0
M  V30 2186 N 191.832 -2.73113 -0.992847 0
M  V30 2187 H 191.379 -2.57354 -0.112474 0
M  V30 2188 H 191.337 -2.54842 -1.84127 0
M  V30 2189 N 195.109 -0.891671 -1.2995 0
M  V30 2190 C 196.386 -0.433307 -1.9074 0
M  V30 2191 C 196.766 1.08646 -1.80995 0
M  V30 2192 O 196.114 1.92476 -1.23147 0
M  V30 2193 C 196.324 -0.938895 -3.36134 0
M  V30 2194 C 197.672 -0.977829 -4.13187 0
M  V30 2195 O 198.696 -0.886015 -3.45005 0
M  V30 2196 O 197.555 -1.11453 -5.35015 0
M  V30 2197 H 194.649 -0.133699 -0.816121 0
M  V30 2198 H 197.195 -0.981011 -1.38471 0
M  V30 2199 H 195.967 -1.98281 -3.37343 0
M  V30 2200 H 195.59 -0.37074 -3.95868 0
M  V30 2201 N 196.587 1.43421 -0.653314 0
M  V30 2202 C 197.834 2.01812 -0.166745 0
M  V30 2203 C 198.162 1.51535 1.21931 0
M  V30 2204 O 197.417 0.698975 1.82792 0
M  V30 2205 C 197.716 3.57176 -0.126623 0
M  V30 2206 C 197.382 4.26798 -1.45444 0
M  V30 2207 C 196.044 4.45534 -1.81805 0
M  V30 2208 C 198.396 4.66225 -2.32989 0
M  V30 2209 C 195.724 5.00961 -3.05377 0
M  V30 2210 C 198.076 5.23021 -3.55853 0
M  V30 2211 C 196.74 5.39973 -3.9241 0
M  V30 2212 H 196.01 0.738484 -0.0610162 0
M  V30 2213 H 198.657 1.71896 -0.84404 0
M  V30 2214 H 196.962 3.86634 0.634123 0
M  V30 2215 H 198.659 4.00112 0.266723 0
M  V30 2216 H 195.249 4.12561 -1.16153 0
M  V30 2217 H 199.433 4.51443 -2.06187 0
M  V30 2218 H 194.689 5.12271 -3.3375 0
M  V30 2219 H 198.863 5.52518 -4.23907 0
M  V30 2220 H 196.49 5.82687 -4.88242 0
M  V30 2221 N 198.065 0.39524 1.52563 0
M  V30 2222 C 199.313 -0.184678 2.01254 0
M  V30 2223 C 199.634 -1.46822 1.28329 0
M  V30 2224 O 198.904 -1.91666 0.405094 0
M  V30 2225 H 197.484 -0.0712355 0.743596 0
M  V30 2226 H 200.146 0.528293 1.87603 0
M  V30 2227 H 199.242 -0.390681 3.09645 0
M  V30 2228 N 199.544 -1.57102 0.125237 0
M  V30 2229 C 200.769 -2.0019 -0.542101 0
M  V30 2230 C 201.194 -1.00449 -1.59034 0
M  V30 2231 O 200.552 0.0229423 -1.81285 0
M  V30 2232 C 200.6 -3.42129 -1.13929 0
M  V30 2233 O 199.704 -3.45307 -2.2547 0
M  V30 2234 H 199.045 -0.650171 -0.134812 0
M  V30 2235 H 201.575 -2.03461 0.215553 0
M  V30 2236 H 201.585 -3.80471 -1.4733 0
M  V30 2237 H 200.26 -4.14237 -0.371531 0
M  V30 2238 H 198.837 -3.1879 -1.93462 0
M  V30 2239 N 201.022 0.148545 -1.56898 0
M  V30 2240 C 201.969 1.18345 -1.98149 0
M  V30 2241 C 202.939 1.42772 -0.848848 0
M  V30 2242 O 204.124 1.55132 -1.11079 0
M  V30 2243 C 201.264 2.51231 -2.36594 0
M  V30 2244 C 200.377 2.33991 -3.63142 0
M  V30 2245 C 199.512 3.59902 -3.90697 0
M  V30 2246 C 198.551 3.37692 -5.1052 0
M  V30 2247 N 197.688 4.5573 -5.34092 0
M  V30 2248 H 202.528 0.82467 -2.86362 0
M  V30 2249 H 200.065 0.395756 -1.41676 0
M  V30 2250 H 202.023 3.28713 -2.56912 0
M  V30 2251 H 200.653 2.85059 -1.51463 0
M  V30 2252 H 199.705 1.47572 -3.50609 0
M  V30 2253 H 201.017 2.13539 -4.5078 0
M  V30 2254 H 200.171 4.45813 -4.11505 0
M  V30 2255 H 198.91 3.83357 -3.01477 0
M  V30 2256 H 197.915 2.5017 -4.89587 0
M  V30 2257 H 199.14 3.15637 -6.0129 0
M  V30 2258 H 197.086 4.79361 -4.47827 0
M  V30 2259 H 197.003 4.38274 -6.15996 0
M  V30 2260 H 198.271 5.42858 -5.59397 0
M  V30 2261 N 202.5 1.5196 0.417844 0
M  V30 2262 C 203.73 1.69181 1.18581 0
M  V30 2263 C 204.138 0.397104 1.84986 0
M  V30 2264 O 203.481 -0.636011 1.72339 0
M  V30 2265 C 203.543 2.76497 2.29759 0
M  V30 2266 C 203.207 4.18514 1.83563 0
M  V30 2267 C 204.204 5.02648 1.32821 0
M  V30 2268 C 201.889 4.64708 1.90661 0
M  V30 2269 C 203.883 6.31044 0.897894 0
M  V30 2270 C 201.57 5.93096 1.47241 0
M  V30 2271 C 202.568 6.76093 0.968891 0
M  V30 2272 O 202.256 8.02078 0.540924 0
M  V30 2273 H 201.988 0.570457 0.362705 0
M  V30 2274 H 204.542 1.99249 0.498885 0
M  V30 2275 H 202.772 2.41786 3.01789 0
M  V30 2276 H 204.461 2.82403 2.91553 0
M  V30 2277 H 205.227 4.68154 1.26716 0
M  V30 2278 H 201.106 4.00216 2.28797 0
M  V30 2279 H 204.65 6.95776 0.504192 0
M  V30 2280 H 200.547 6.271 1.53022 0
M  V30 2281 H 201.315 8.15794 0.66502 0
M  V30 2282 N 203.978 -0.674533 1.42435 0
M  V30 2283 C 205.208 -1.46071 1.46105 0
M  V30 2284 C 205.616 -1.89067 0.0709605 0
M  V30 2285 O 204.959 -1.58731 -0.924677 0
M  V30 2286 C 205.021 -2.74145 2.32561 0
M  V30 2287 C 204.685 -2.53224 3.8043 0
M  V30 2288 C 205.682 -2.17809 4.72075 0
M  V30 2289 C 203.367 -2.6821 4.24698 0
M  V30 2290 C 205.361 -1.97648 6.05982 0
M  V30 2291 C 203.048 -2.47665 5.58664 0
M  V30 2292 C 204.046 -2.12437 6.49122 0
M  V30 2293 O 203.734 -1.9209 7.80613 0
M  V30 2294 H 203.466 -0.455959 0.499076 0
M  V30 2295 H 206.02 -0.836193 1.87609 0
M  V30 2296 H 204.25 -3.3908 1.85908 0
M  V30 2297 H 205.939 -3.36028 2.27683 0
M  V30 2298 H 206.705 -2.05826 4.39159 0
M  V30 2299 H 202.584 -2.94609 3.54579 0
M  V30 2300 H 206.128 -1.70075 6.7655 0
M  V30 2301 H 202.025 -2.59244 5.91154 0
M  V30 2302 H 202.793 -2.06686 7.91974 0
M  V30 2303 N 205.456 -1.28612 -0.910864 0
M  V30 2304 C 206.681 -1.1891 -1.69927 0
M  V30 2305 C 207.106 0.248372 -1.86453 0
M  V30 2306 O 206.464 1.17961 -1.37676 0
M  V30 2307 C 206.512 -1.89578 -3.06745 0
M  V30 2308 O 205.616 -1.20521 -3.94396 0
M  V30 2309 H 204.957 -0.412632 -0.520222 0
M  V30 2310 H 207.487 -1.69985 -1.1387 0
M  V30 2311 H 207.497 -1.97597 -3.56958 0
M  V30 2312 H 206.172 -2.94136 -2.94035 0
M  V30 2313 H 204.749 -1.20684 -3.52831 0
M  V30 2314 N 206.934 1.1197 -1.10907 0
M  V30 2315 C 208.164 1.8713 -0.875553 0
M  V30 2316 C 208.572 1.8016 0.577843 0
M  V30 2317 O 207.915 1.17699 1.41042 0
M  V30 2318 C 207.977 3.37005 -1.2517 0
M  V30 2319 C 207.641 3.67748 -2.71313 0
M  V30 2320 C 208.638 3.65698 -3.69542 0
M  V30 2321 C 206.323 3.96928 -3.07821 0
M  V30 2322 C 208.317 3.92395 -5.023 0
M  V30 2323 C 206.004 4.23284 -4.40765 0
M  V30 2324 C 207.002 4.21005 -5.37814 0
M  V30 2325 O 206.69 4.46704 -6.68364 0
M  V30 2326 H 206.422 0.598786 -0.313737 0
M  V30 2327 H 208.976 1.42568 -1.47863 0
M  V30 2328 H 207.206 3.82146 -0.591741 0
M  V30 2329 H 208.895 3.93519 -0.994877 0
M  V30 2330 H 209.661 3.43211 -3.42682 0
M  V30 2331 H 205.54 3.97841 -2.32902 0
M  V30 2332 H 209.084 3.90531 -5.78041 0
M  V30 2333 H 204.981 4.45246 -4.67361 0
M  V30 2334 H 205.749 4.64299 -6.74069 0
M  V30 2335 N 208.412 0.89855 1.29475 0
M  V30 2336 C 209.689 0.443416 1.90508 0
M  V30 2337 C 210.069 -1.07685 1.81569 0
M  V30 2338 O 209.417 -1.9182 1.24166 0
M  V30 2339 C 209.627 0.956708 3.35631 0
M  V30 2340 C 210.975 0.999728 4.12663 0
M  V30 2341 O 211.999 0.904299 3.4453 0
M  V30 2342 O 210.858 1.14289 5.34416 0
M  V30 2343 H 207.952 0.138025 0.815401 0
M  V30 2344 H 210.498 0.98834 1.37949 0
M  V30 2345 H 209.27 2.00067 3.36287 0
M  V30 2346 H 208.893 0.391728 3.95666 0
M  V30 2347 N 209.89 -1.43072 0.660911 0
M  V30 2348 C 211.12 -2.05769 0.185153 0
M  V30 2349 C 211.528 -1.49668 -1.15742 0
M  V30 2350 O 210.871 -0.625649 -1.72717 0
M  V30 2351 C 210.933 -3.59489 0.0278237 0
M  V30 2352 C 210.597 -4.38212 1.2969 0
M  V30 2353 C 211.594 -4.69772 2.22734 0
M  V30 2354 C 209.279 -4.7809 1.54063 0
M  V30 2355 C 211.273 -5.40129 3.38437 0
M  V30 2356 C 208.96 -5.4819 2.70058 0
M  V30 2357 C 209.958 -5.79132 3.62071 0
M  V30 2358 O 209.646 -6.47798 4.76039 0
M  V30 2359 H 209.378 -0.669873 0.0908086 0
M  V30 2360 H 211.932 -1.84436 0.90402 0
M  V30 2361 H 210.162 -3.79426 -0.746489 0
M  V30 2362 H 211.851 -4.03862 -0.406275 0
M  V30 2363 H 212.617 -4.39476 2.05149 0
M  V30 2364 H 208.496 -4.53408 0.833215 0
M  V30 2365 H 212.04 -5.64198 4.10277 0
M  V30 2366 H 207.937 -5.77902 2.87574 0
M  V30 2367 H 208.705 -6.66283 4.75404 0
M  V30 2368 N 211.368 -0.403325 -1.52352 0
M  V30 2369 C 212.614 0.174605 -2.02047 0
M  V30 2370 C 212.947 1.45282 -1.28867 0
M  V30 2371 O 212.222 1.90483 -0.393257 0
M  V30 2372 C 212.505 0.428238 -3.57545 0
M  V30 2373 C 212.358 -0.866248 -4.4138 0
M  V30 2374 C 213.677 1.21287 -4.23057 0
M  V30 2375 H 210.796 0.0619851 -0.734389 0
M  V30 2376 H 213.438 -0.53565 -1.82293 0
M  V30 2377 H 211.588 1.03327 -3.74507 0
M  V30 2378 H 213.26 -1.50265 -4.3614 0
M  V30 2379 H 211.503 -1.47851 -4.07827 0
M  V30 2380 H 212.174 -0.643249 -5.48239 0
M  V30 2381 H 214.65 0.700703 -4.10158 0
M  V30 2382 H 213.526 1.35909 -5.31808 0
M  V30 2383 H 213.787 2.23193 -3.81625 0
M  V30 2384 N 212.846 1.57033 -0.133567 0
M  V30 2385 C 214.092 1.95976 0.521649 0
M  V30 2386 C 214.425 1.01779 1.65393 0
M  V30 2387 O 213.7 0.0576581 1.94415 0
M  V30 2388 C 213.983 3.44738 1.04057 0
M  V30 2389 C 213.836 4.49711 -0.0892897 0
M  V30 2390 C 215.155 3.95682 1.92675 0
M  V30 2391 H 212.274 0.712579 0.188149 0
M  V30 2392 H 214.916 1.88813 -0.212076 0
M  V30 2393 H 213.066 3.50973 1.66583 0
M  V30 2394 H 214.738 4.55565 -0.725152 0
M  V30 2395 H 212.981 4.27261 -0.750378 0
M  V30 2396 H 213.652 5.51099 0.315284 0
M  V30 2397 H 216.128 3.91841 1.39998 0
M  V30 2398 H 215.004 5.00262 2.25897 0
M  V30 2399 H 215.265 3.37239 2.85872 0
M  V30 2400 N 214.325 -0.140222 1.56975 0
M  V30 2401 C 215.602 -0.880769 1.74648 0
M  V30 2402 C 215.982 -1.99036 0.703404 0
M  V30 2403 O 215.33 -2.26821 -0.27648 0
M  V30 2404 C 215.54 -1.417 3.18939 0
M  V30 2405 C 216.888 -1.87774 3.80823 0
M  V30 2406 O 217.912 -1.51427 3.2241 0
M  V30 2407 O 216.771 -2.54827 4.83452 0
M  V30 2408 H 213.865 -0.416713 0.714338 0
M  V30 2409 H 216.411 -0.125618 1.69234 0
M  V30 2410 H 215.183 -0.619902 3.86359 0
M  V30 2411 H 214.806 -2.23546 3.28805 0
M  V30 2412 N 215.803 -1.52179 -0.40978 0
M  V30 2413 C 216.753 -1.71857 -1.49831 0
M  V30 2414 C 217.737 -0.572469 -1.50372 0
M  V30 2415 O 218.929 -0.829509 -1.56359 0
M  V30 2416 C 216.058 -1.87206 -2.87765 0
M  V30 2417 C 215.144 -3.07685 -2.91875 0
M  V30 2418 N 215.535 -4.30403 -2.65683 0
M  V30 2419 C 213.833 -3.07505 -3.23043 0
M  V30 2420 C 214.534 -5.11868 -2.76344 0
M  V30 2421 N 213.51 -4.47101 -3.09195 0
M  V30 2422 H 217.312 -2.64381 -1.28375 0
M  V30 2423 H 214.826 -1.50203 -0.617479 0
M  V30 2424 H 216.823 -1.99419 -3.66111 0
M  V30 2425 H 215.483 -0.958814 -3.10221 0
M  V30 2426 H 216.494 -4.58887 -2.4009 0
M  V30 2427 H 213.171 -2.25915 -3.51096 0
M  V30 2428 H 214.561 -6.19634 -2.59814 0
M  V30 2429 N 217.281 0.66697 -1.42791 0
M  V30 2430 C 218.228 1.7803 -1.4688 0
M  V30 2431 C 219.198 1.6299 -0.319919 0
M  V30 2432 O 220.383 1.83432 -0.525118 0
M  V30 2433 C 217.523 3.1611 -1.38451 0
M  V30 2434 C 216.636 3.42381 -2.63437 0
M  V30 2435 C 215.771 4.70232 -2.47094 0
M  V30 2436 C 214.81 4.89564 -3.67415 0
M  V30 2437 N 213.947 6.08661 -3.49966 0
M  V30 2438 H 218.787 1.7387 -2.42019 0
M  V30 2439 H 216.324 0.84868 -1.20149 0
M  V30 2440 H 218.282 3.95914 -1.31561 0
M  V30 2441 H 216.912 3.19374 -0.469033 0
M  V30 2442 H 215.964 2.56774 -2.80662 0
M  V30 2443 H 217.276 3.52557 -3.52853 0
M  V30 2444 H 216.43 5.5814 -2.37834 0
M  V30 2445 H 215.169 4.62353 -1.5518 0
M  V30 2446 H 214.174 4.00096 -3.77099 0
M  V30 2447 H 215.399 4.99282 -4.6032 0
M  V30 2448 H 213.345 6.0194 -2.60776 0
M  V30 2449 H 213.262 6.19733 -4.32975 0
M  V30 2450 H 214.53 6.99226 -3.44532 0
M  V30 2451 N 218.759 1.29093 0.90403 0
M  V30 2452 C 220.175 1.07011 1.1841 0
M  V30 2453 C 220.375 -0.181358 2.00682 0
M  V30 2454 O 219.431 -0.880331 2.36657 0
M  V30 2455 C 220.744 2.32311 1.90924 0
M  V30 2456 C 222.292 2.37587 2.03768 0
M  V30 2457 C 222.767 3.62679 2.79693 0
M  V30 2458 N 224.258 3.63376 2.87249 0
M  V30 2459 C 224.993 4.56848 3.46522 0
M  V30 2460 N 224.489 5.60648 4.06996 0
M  V30 2461 N 226.282 4.44426 3.44154 0
M  V30 2462 H 218.433 2.09412 0.354993 0
M  V30 2463 H 220.696 0.922181 0.219742 0
M  V30 2464 H 220.402 3.23536 1.37905 0
M  V30 2465 H 220.276 2.39483 2.91424 0
M  V30 2466 H 222.663 1.46853 2.55965 0
M  V30 2467 H 222.744 2.34403 1.02415 0
M  V30 2468 H 222.388 4.53762 2.28173 0
M  V30 2469 H 222.318 3.63119 3.81381 0
M  V30 2470 H 224.809 2.88321 2.44293 0
M  V30 2471 H 225.122 6.28101 4.50232 0
M  V30 2472 H 223.467 5.64463 4.05471 0
M  V30 2473 H 226.658 3.62529 2.96126 0
M  V30 2474 H 226.831 5.17457 3.90054 0
M  V30 2475 N 220.237 -1.11381 1.11499 0
M  V30 2476 C 221.485 -1.8277 0.862524 0
M  V30 2477 C 221.806 -1.85097 -0.613534 0
M  V30 2478 O 221.076 -1.32198 -1.4457 0
M  V30 2479 H 219.656 -0.676823 0.316101 0
M  V30 2480 H 222.318 -1.34816 1.4075 0
M  V30 2481 H 221.414 -2.86614 1.23527 0
M  V30 2482 N 221.715 -0.905404 -1.28997 0
M  V30 2483 C 222.943 -0.549846 -1.9946 0
M  V30 2484 C 223.358 0.866834 -1.67724 0
M  V30 2485 O 222.715 1.57298 -0.925404 0
M  V30 2486 C 222.766 -0.739387 -3.53858 0
M  V30 2487 O 222.487 -2.10031 -3.84472 0
M  V30 2488 C 223.988 -0.389541 -4.41585 0
M  V30 2489 H 221.208 -0.210429 -0.637151 0
M  V30 2490 H 223.752 -1.21632 -1.64396 0
M  V30 2491 H 221.907 -0.120023 -3.87214 0
M  V30 2492 H 222.321 -2.13385 -4.79132 0
M  V30 2493 H 223.795 -0.572972 -5.49018 0
M  V30 2494 H 224.272 0.673756 -4.34001 0
M  V30 2495 H 224.878 -0.986089 -4.1371 0
M  V30 2496 N 223.193 1.4272 -0.668489 0
M  V30 2497 C 224.442 2.00846 -0.185389 0
M  V30 2498 C 224.755 1.53442 1.21305 0
M  V30 2499 O 225.961 2.03944 1.79218 0
M  V30 2500 C 224.417 3.58805 -0.280591 0
M  V30 2501 C 224.025 4.15198 -1.68268 0
M  V30 2502 C 225.769 4.24255 0.14412 0
M  V30 2503 C 223.676 5.655 -1.73099 0
M  V30 2504 H 222.606 0.751145 -0.0655475 0
M  V30 2505 H 225.257 1.63516 -0.832752 0
M  V30 2506 H 223.639 3.93608 0.434553 0
M  V30 2507 H 224.813 3.91866 -2.42441 0
M  V30 2508 H 223.128 3.62176 -2.05469 0
M  V30 2509 H 225.725 5.34547 0.128086 0
M  V30 2510 H 226.068 3.99277 1.17827 0
M  V30 2511 H 226.601 3.94389 -0.519798 0
M  V30 2512 H 223.34 5.95268 -2.74475 0
M  V30 2513 H 222.86 5.90842 -1.03274 0
M  V30 2514 H 224.539 6.29808 -1.48158 0
M  V30 2515 N 224.671 0.411399 1.52136 0
M  V30 2516 C 225.619 -0.427633 2.28635 0
M  V30 2517 C 226.613 -1.04383 1.33419 0
M  V30 2518 O 227.819 -0.981772 1.50868 0
M  V30 2519 H 224.194 -0.156689 0.735495 0
M  V30 2520 H 226.165 0.238761 2.97443 0
M  V30 2521 C 224.914 -1.53082 3.12188 0
M  V30 2522 H 224.237 -1.06601 3.85326 0
M  V30 2523 H 225.677 -2.09167 3.68816 0
M  V30 2524 C 224.136 -2.49946 2.25895 0
M  V30 2525 O 224.666 -3.53884 1.90076 0
M  V30 2526 N 222.872 -2.2021 1.8962 0
M  V30 2527 H 222.419 -1.35719 2.18948 0
M  V30 2528 H 222.377 -2.85266 1.32176 0
M  V30 2529 N 226.149 -1.5696 0.141893 0
M  V30 2530 C 227.398 -1.95135 -0.510427 0
M  V30 2531 C 227.711 -1.02896 -1.66348 0
M  V30 2532 O 228.917 -1.30629 -2.38009 0
M  V30 2533 C 227.373 -3.46876 -0.959427 0
M  V30 2534 C 226.981 -4.47691 0.166419 0
M  V30 2535 C 228.725 -3.93927 -1.58183 0
M  V30 2536 C 226.632 -5.90636 -0.300565 0
M  V30 2537 H 225.562 -0.728494 -0.194454 0
M  V30 2538 H 228.213 -1.8211 0.22542 0
M  V30 2539 H 226.595 -3.55215 -1.75038 0
M  V30 2540 H 227.769 -4.51043 0.94325 0
M  V30 2541 H 226.084 -4.10527 0.696905 0
M  V30 2542 H 228.681 -4.98158 -1.94275 0
M  V30 2543 H 229.024 -3.3519 -2.46888 0
M  V30 2544 H 229.557 -3.88484 -0.855863 0
M  V30 2545 H 226.296 -6.5318 0.550989 0
M  V30 2546 H 225.816 -5.90655 -1.04338 0
M  V30 2547 H 227.495 -6.42588 -0.754265 0
M  V30 2548 N 227.627 0.131896 -1.57047 0
M  V30 2549 C 228.574 1.16236 -1.99393 0
M  V30 2550 C 229.544 1.41863 -0.863943 0
M  V30 2551 O 230.729 1.53946 -1.12718 0
M  V30 2552 C 227.869 2.48708 -2.39245 0
M  V30 2553 C 226.982 2.30127 -3.65603 0
M  V30 2554 C 226.117 3.55738 -3.94492 0
M  V30 2555 C 225.156 3.32259 -5.14073 0
M  V30 2556 N 224.293 4.50039 -5.38896 0
M  V30 2557 H 229.133 0.794251 -2.87221 0
M  V30 2558 H 226.67 0.380707 -1.42088 0
M  V30 2559 H 228.628 3.25969 -2.60384 0
M  V30 2560 H 227.258 2.83437 -1.54478 0
M  V30 2561 H 226.31 1.43845 -3.52154 0
M  V30 2562 H 227.622 2.08746 -4.5302 0
M  V30 2563 H 226.776 4.41423 -4.1621 0
M  V30 2564 H 225.515 3.80138 -3.05526 0
M  V30 2565 H 224.52 2.44963 -4.92212 0
M  V30 2566 H 225.745 3.09242 -6.04604 0
M  V30 2567 H 223.691 4.74584 -4.52886 0
M  V30 2568 H 223.608 4.31716 -6.2061 0
M  V30 2569 H 224.876 5.36895 -5.65123 0
M  V30 2570 N 229.106 1.52395 0.401703 0
M  V30 2571 C 230.036 1.79231 1.49661 0
M  V30 2572 C 231.017 0.643654 1.57452 0
M  V30 2573 O 232.202 0.889989 1.72606 0
M  V30 2574 C 229.332 1.94971 2.87409 0
M  V30 2575 C 228.286 3.10604 2.94465 0
M  V30 2576 C 227.612 3.11577 4.34538 0
M  V30 2577 C 228.912 4.49921 2.6527 0
M  V30 2578 H 230.606 2.70917 1.27454 0
M  V30 2579 H 228.152 1.30362 0.6117 0
M  V30 2580 H 230.105 2.12328 3.63999 0
M  V30 2581 H 228.829 0.999632 3.10926 0
M  V30 2582 H 227.488 2.93009 2.20321 0
M  V30 2583 H 227.136 2.14277 4.55076 0
M  V30 2584 H 226.836 3.89247 4.40183 0
M  V30 2585 H 228.36 3.31073 5.13053 0
M  V30 2586 H 229.774 4.67683 3.31581 0
M  V30 2587 H 228.171 5.29564 2.82281 0
M  V30 2588 H 229.241 4.57507 1.60671 0
M  V30 2589 N 230.584 -0.659388 1.43143 0
M  V30 2590 C 231.531 -1.77249 1.47822 0
M  V30 2591 C 232.501 -1.62818 0.328558 0
M  V30 2592 O 233.686 -1.83151 0.534838 0
M  V30 2593 C 230.826 -3.15371 1.40126 0
M  V30 2594 C 229.939 -3.4098 2.65249 0
M  V30 2595 C 229.074 -4.68915 2.49584 0
M  V30 2596 C 228.113 -4.87608 3.70006 0
M  V30 2597 N 227.25 -6.06796 3.53189 0
M  V30 2598 H 232.09 -1.72584 2.42938 0
M  V30 2599 H 229.627 -0.842297 1.20598 0
M  V30 2600 H 231.585 -3.9521 1.33659 0
M  V30 2601 H 230.215 -3.19121 0.485964 0
M  V30 2602 H 229.267 -2.55282 2.8202 0
M  V30 2603 H 230.579 -3.50681 3.54717 0
M  V30 2604 H 229.733 -5.56871 2.4079 0
M  V30 2605 H 228.472 -4.61524 1.5763 0
M  V30 2606 H 227.477 -3.9809 3.79215 0
M  V30 2607 H 228.702 -4.96834 4.62961 0
M  V30 2608 H 226.648 -6.00549 2.63965 0
M  V30 2609 H 226.565 -6.17428 4.36255 0
M  V30 2610 H 227.833 -6.9739 3.48236 0
M  V30 2611 N 232.062 -1.29571 -0.897171 0
M  V30 2612 C 233.339 -1.08365 -1.62839 0
M  V30 2613 C 233.719 0.371331 -2.07808 0
M  V30 2614 O 233.067 1.3606 -1.83576 0
M  V30 2615 C 233.277 -2.0735 -2.80726 0
M  V30 2616 C 234.625 -2.38406 -3.51351 0
M  V30 2617 O 235.649 -2.05564 -2.90898 0
M  V30 2618 O 234.508 -2.9453 -4.60341 0
M  V30 2619 H 231.602 -0.415345 -0.715134 0
M  V30 2620 H 234.148 -1.40952 -0.945018 0
M  V30 2621 H 232.92 -3.05339 -2.44711 0
M  V30 2622 H 232.543 -1.75507 -3.56767 0
M  V30 2623 N 233.54 1.10788 -1.12088 0
M  V30 2624 C 234.488 2.19111 -0.780587 0
M  V30 2625 C 235.482 1.67818 0.230961 0
M  V30 2626 O 236.688 1.79777 0.0895427 0
M  V30 2627 H 233.063 0.714477 -0.234578 0
M  V30 2628 H 235.034 2.45055 -1.70266 0
M  V30 2629 C 233.783 3.46818 -0.24747 0
M  V30 2630 H 233.106 3.86646 -1.01712 0
M  V30 2631 H 234.546 4.23973 -0.0476291 0
M  V30 2632 C 233.005 3.20968 1.02378 0
M  V30 2633 O 233.535 3.42298 2.10226 0
M  V30 2634 N 231.741 2.74658 0.949271 0
M  V30 2635 H 231.288 2.57501 0.0715173 0
M  V30 2636 H 231.246 2.57739 1.80049 0
M  V30 2637 N 235.018 0.912232 1.28515 0
M  V30 2638 C 235.951 0.343928 2.25593 0
M  V30 2639 C 236.929 -0.550994 1.5298 0
M  V30 2640 O 238.113 -0.494991 1.81885 0
M  V30 2641 C 235.24 -0.508525 3.34861 0
M  V30 2642 C 234.286 0.320808 4.25292 0
M  V30 2643 S 235.119 1.72658 5.06902 0
M  V30 2644 C 236.275 0.881394 6.19663 0
M  V30 2645 H 236.508 1.16674 2.73449 0
M  V30 2646 H 234.041 0.713384 1.36931 0
M  V30 2647 H 235.999 -0.994539 3.9827 0
M  V30 2648 H 234.66 -1.30571 2.85675 0
M  V30 2649 H 233.853 -0.330941 5.02912 0
M  V30 2650 H 233.455 0.74042 3.66598 0
M  V30 2651 H 235.747 0.110359 6.7741 0
M  V30 2652 H 236.69 1.63009 6.89082 0
M  V30 2653 H 237.098 0.430239 5.62858 0
M  V30 2654 N 236.496 -1.42363 0.676048 0
M  V30 2655 C 237.742 -2.0182 0.199125 0
M  V30 2656 C 238.075 -1.53339 -1.19168 0
M  V30 2657 O 237.35 -0.736124 -1.80032 0
M  V30 2658 C 237.633 -3.59331 0.235144 0
M  V30 2659 C 237.486 -4.17989 1.66149 0
M  V30 2660 C 238.805 -4.3813 -0.41595 0
M  V30 2661 H 235.924 -0.733293 0.0738311 0
M  V30 2662 H 238.566 -1.69368 0.86107 0
M  V30 2663 H 236.716 -3.87109 -0.328487 0
M  V30 2664 H 238.388 -4.0116 2.27747 0
M  V30 2665 H 236.631 -3.7377 2.20178 0
M  V30 2666 H 237.302 -5.27126 1.63837 0
M  V30 2667 H 239.778 -4.16051 0.0638529 0
M  V30 2668 H 238.654 -5.47717 -0.360115 0
M  V30 2669 H 238.915 -4.16101 -1.49373 0
M  V30 2670 N 237.974 -0.419461 -1.51915 0
M  V30 2671 C 239.223 0.154346 -2.01109 0
M  V30 2672 C 239.536 1.45338 -1.30905 0
M  V30 2673 O 240.742 2.10906 -1.7097 0
M  V30 2674 C 239.198 0.325615 -3.58424 0
M  V30 2675 C 238.806 -0.961934 -4.37551 0
M  V30 2676 C 240.55 0.854155 -4.15818 0
M  V30 2677 C 238.457 -0.757287 -5.86531 0
M  V30 2678 H 237.387 0.0614563 -0.751491 0
M  V30 2679 H 240.038 -0.54649 -1.75173 0
M  V30 2680 H 238.42 1.08903 -3.80731 0
M  V30 2681 H 239.594 -1.7323 -4.26999 0
M  V30 2682 H 237.909 -1.41766 -3.91524 0
M  V30 2683 H 240.506 1.02346 -5.24814 0
M  V30 2684 H 240.849 1.83172 -3.73837 0
M  V30 2685 H 241.382 0.149528 -3.97519 0
M  V30 2686 H 238.121 -1.70671 -6.32892 0
M  V30 2687 H 237.641 -0.0264061 -5.99794 0
M  V30 2688 H 239.32 -0.403482 -6.45741 0
M  V30 2689 N 239.452 1.56882 -0.150215 0
M  V30 2690 C 240.677 2.01027 0.510184 0
M  V30 2691 C 241.102 1.02966 1.57415 0
M  V30 2692 O 240.46 0.00590158 1.81299 0
M  V30 2693 C 240.508 3.43899 1.08472 0
M  V30 2694 O 239.612 3.4885 2.19948 0
M  V30 2695 H 238.953 0.652233 0.124451 0
M  V30 2696 H 241.483 2.03093 -0.247894 0
M  V30 2697 H 241.493 3.82766 1.41259 0
M  V30 2698 H 240.168 4.14776 0.305582 0
M  V30 2699 H 238.745 3.21827 1.88366 0
M  V30 2700 N 240.93 -0.123565 1.57115 0
M  V30 2701 C 242.155 -0.850398 1.89164 0
M  V30 2702 C 242.58 -1.7286 0.741688 0
M  V30 2703 O 241.938 -1.78665 -0.307958 0
M  V30 2704 C 241.986 -1.66353 3.19936 0
M  V30 2705 O 241.09 -2.77004 3.0552 0
M  V30 2706 H 240.431 -0.235454 0.620852 0
M  V30 2707 H 242.961 -0.107335 2.04318 0
M  V30 2708 H 242.971 -2.05372 3.52543 0
M  V30 2709 H 241.646 -1.01881 4.03228 0
M  V30 2710 H 240.223 -2.41221 2.84371 0
M  V30 2711 N 242.408 -1.52605 -0.393616 0
M  V30 2712 C 243.318 -1.79971 -1.50492 0
M  V30 2713 C 244.334 -0.686181 -1.59899 0
M  V30 2714 O 245.51 -0.973274 -1.76322 0
M  V30 2715 C 242.575 -1.95867 -2.86072 0
M  V30 2716 C 241.636 -3.19781 -2.86424 0
M  V30 2717 C 240.869 -3.34909 -4.15538 0
M  V30 2718 O 241.092 -2.54948 -5.10253 0
M  V30 2719 O 240.026 -4.28141 -4.23059 0
M  V30 2720 H 243.852 -2.74328 -1.30299 0
M  V30 2721 H 241.437 -1.3764 -0.581005 0
M  V30 2722 H 243.319 -2.08056 -3.66457 0
M  V30 2723 H 241.994 -1.04699 -3.063 0
M  V30 2724 H 240.901 -3.13038 -2.04837 0
M  V30 2725 H 242.234 -4.1078 -2.71147 0
M  V30 2726 N 243.887 0.651787 -1.4349 0
M  V30 2727 C 244.797 1.79368 -1.5121 0
M  V30 2728 C 245.813 1.69361 -0.399093 0
M  V30 2729 O 246.989 1.90505 -0.653431 0
M  V30 2730 C 244.054 3.15653 -1.43401 0
M  V30 2731 C 243.115 3.37446 -2.65384 0
M  V30 2732 C 242.348 4.67229 -2.57939 0
M  V30 2733 O 242.571 5.46676 -1.62792 0
M  V30 2734 O 241.505 4.90773 -3.48462 0
M  V30 2735 H 245.331 1.7581 -2.47638 0
M  V30 2736 H 242.916 0.810447 -1.25507 0
M  V30 2737 H 244.798 3.96935 -1.41494 0
M  V30 2738 H 243.473 3.19798 -0.501085 0
M  V30 2739 H 242.38 2.55923 -2.72863 0
M  V30 2740 H 243.713 3.38148 -3.57654 0
M  V30 2741 N 245.365 1.30045 0.890287 0
M  V30 2742 C 246.611 1.18737 1.64406 0
M  V30 2743 C 246.944 -0.258525 1.92472 0
M  V30 2744 O 246.219 -1.18562 1.54186 0
M  V30 2745 C 246.502 2.01087 2.98724 0
M  V30 2746 C 246.355 3.53867 2.77665 0
M  V30 2747 C 247.674 1.84457 3.9958 0
M  V30 2748 H 244.793 0.432698 0.596608 0
M  V30 2749 H 247.435 1.5962 1.0306 0
M  V30 2750 H 245.585 1.66349 3.51084 0
M  V30 2751 H 247.257 3.98637 2.32133 0
M  V30 2752 H 245.5 3.78318 2.12269 0
M  V30 2753 H 246.171 4.06772 3.7315 0
M  V30 2754 H 248.647 2.14817 3.56361 0
M  V30 2755 H 247.523 2.44411 4.91482 0
M  V30 2756 H 247.784 0.802276 4.3476 0
M  V30 2757 N 246.843 -1.10192 1.12674 0
M  V30 2758 C 248.071 -1.85983 0.906527 0
M  V30 2759 C 248.486 -1.80783 -0.544333 0
M  V30 2760 O 247.843 -1.19834 -1.37645 0
M  V30 2761 C 247.894 -3.34281 1.37618 0
M  V30 2762 O 247.615 -3.39401 2.77017 0
M  V30 2763 C 249.116 -4.26938 1.19325 0
M  V30 2764 H 246.336 -0.587716 0.323775 0
M  V30 2765 H 248.88 -1.39284 1.49734 0
M  V30 2766 H 247.035 -3.78436 0.828539 0
M  V30 2767 H 247.449 -4.31838 2.97684 0
M  V30 2768 H 248.923 -5.29181 1.57071 0
M  V30 2769 H 249.4 -4.38995 0.134097 0
M  V30 2770 H 250.006 -3.8859 1.72852 0
M  V30 2771 N 248.321 -0.919034 -1.28029 0
M  V30 2772 C 249.284 -0.416182 -2.2539 0
M  V30 2773 C 250.284 0.460438 -1.54067 0
M  V30 2774 O 251.474 0.262744 -1.72207 0
M  V30 2775 C 248.606 0.402707 -3.38513 0
M  V30 2776 H 249.799 -1.27629 -2.71387 0
M  V30 2777 H 247.352 -0.698919 -1.39803 0
M  V30 2778 H 248.087 1.282 -2.97885 0
M  V30 2779 H 247.872 -0.225698 -3.9145 0
M  V30 2780 H 249.362 0.745191 -4.10897 0
M  V30 2781 N 249.799 1.42003 -0.683588 0
M  V30 2782 C 250.747 2.326 0.000815408 0
M  V30 2783 C 251.741 1.50308 0.781278 0
M  V30 2784 O 252.947 1.66322 0.688251 0
M  V30 2785 H 249.322 0.751758 0.0190616 0
M  V30 2786 H 251.293 2.88011 -0.780528 0
M  V30 2787 C 250.042 3.34978 0.93195 0
M  V30 2788 H 249.365 3.98345 0.340817 0
M  V30 2789 H 250.805 4.00936 1.37936 0
M  V30 2790 C 249.264 2.67925 2.04249 0
M  V30 2791 O 249.794 2.51788 3.12995 0
M  V30 2792 N 248 2.2681 1.81675 0
M  V30 2793 H 247.547 2.40135 0.932363 0
M  V30 2794 H 247.505 1.8228 2.56167 0
M  V30 2795 N 251.277 0.427512 1.51691 0
M  V30 2796 C 252.526 -0.143679 2.01188 0
M  V30 2797 C 252.839 -1.44642 1.31674 0
M  V30 2798 O 254.045 -2.09997 1.72086 0
M  V30 2799 C 252.501 -0.306602 3.58592 0
M  V30 2800 C 252.109 0.985125 4.37035 0
M  V30 2801 C 253.853 -0.832091 4.16265 0
M  V30 2802 C 251.76 0.788382 5.86122 0
M  V30 2803 H 250.69 -0.0574701 0.751807 0
M  V30 2804 H 253.341 0.555772 1.74881 0
M  V30 2805 H 251.723 -1.06882 3.81303 0
M  V30 2806 H 252.897 1.75492 4.26074 0
M  V30 2807 H 251.212 1.4384 3.90767 0
M  V30 2808 H 253.809 -0.995617 5.25349 0
M  V30 2809 H 254.152 -1.81186 3.74803 0
M  V30 2810 H 254.685 -0.128444 3.97593 0
M  V30 2811 H 251.424 1.74025 6.31978 0
M  V30 2812 H 250.944 0.0582143 5.99772 0
M  V30 2813 H 252.623 0.437722 6.45518 0
M  V30 2814 N 252.755 -1.56801 0.158532 0
M  V30 2815 C 253.685 -2.20347 -0.772609 0
M  V30 2816 C 254.666 -1.15518 -1.24859 0
M  V30 2817 O 255.851 -1.43902 -1.30406 0
M  V30 2818 C 252.981 -2.83417 -2.00729 0
M  V30 2819 C 251.935 -3.94174 -1.66765 0
M  V30 2820 C 251.261 -4.44233 -2.97592 0
M  V30 2821 C 252.561 -5.14392 -0.905447 0
M  V30 2822 H 254.255 -2.98413 -0.242959 0
M  V30 2823 H 251.801 -1.43537 -0.115419 0
M  V30 2824 H 253.754 -3.26543 -2.6636 0
M  V30 2825 H 252.478 -2.02701 -2.56086 0
M  V30 2826 H 251.137 -3.51684 -1.03508 0
M  V30 2827 H 250.785 -3.60325 -3.50963 0
M  V30 2828 H 250.485 -5.18945 -2.75626 0
M  V30 2829 H 252.009 -4.90037 -3.64274 0
M  V30 2830 H 253.423 -5.5429 -1.46408 0
M  V30 2831 H 251.82 -5.9494 -0.7853 0
M  V30 2832 H 252.89 -4.84795 0.100668 0
M  V30 2833 N 254.233 0.115231 -1.57178 0
M  V30 2834 C 255.481 0.820727 -1.84685 0
M  V30 2835 C 255.802 1.80237 -0.744279 0
M  V30 2836 O 255.072 1.94529 0.231375 0
M  V30 2837 H 253.652 0.306084 -0.681411 0
M  V30 2838 H 256.314 0.101656 -1.94635 0
M  V30 2839 H 255.41 1.36366 -2.80733 0
M  V30 2840 N 255.711 1.52812 0.385517 0
M  V30 2841 C 256.941 1.71658 1.14966 0
M  V30 2842 C 257.349 0.436253 1.84102 0
M  V30 2843 O 256.692 -0.599313 1.73649 0
M  V30 2844 C 256.754 2.81309 2.23843 0
M  V30 2845 C 256.418 4.22313 1.74644 0
M  V30 2846 C 257.415 5.05352 1.22129 0
M  V30 2847 C 255.1 4.68648 1.80761 0
M  V30 2848 C 257.094 6.32807 0.763838 0
M  V30 2849 C 254.781 5.96086 1.34627 0
M  V30 2850 C 255.779 6.77996 0.825264 0
M  V30 2851 O 255.467 8.03045 0.370669 0
M  V30 2852 H 255.199 0.578022 0.350523 0
M  V30 2853 H 257.753 2.00263 0.456509 0
M  V30 2854 H 255.983 2.48133 2.96592 0
M  V30 2855 H 257.672 2.88524 2.85497 0
M  V30 2856 H 258.438 4.70736 1.16758 0
M  V30 2857 H 254.317 4.04979 2.20256 0
M  V30 2858 H 257.861 6.96689 0.356494 0
M  V30 2859 H 253.758 6.30205 1.39686 0
M  V30 2860 H 254.526 8.17021 0.491829 0
M  V30 2861 N 257.189 -0.644168 1.43834 0
M  V30 2862 C 258.438 -1.39985 1.45214 0
M  V30 2863 C 258.751 -1.95421 0.0835494 0
M  V30 2864 O 259.957 -2.71488 -0.0251748 0
M  V30 2865 C 258.413 -2.53384 2.55587 0
M  V30 2866 C 258.021 -2.04517 3.98594 0
M  V30 2867 C 259.765 -3.30685 2.66172 0
M  V30 2868 C 257.672 -3.1518 5.00416 0
M  V30 2869 H 256.602 -0.526005 0.540218 0
M  V30 2870 H 259.253 -0.694367 1.69855 0
M  V30 2871 H 257.635 -3.26446 2.24163 0
M  V30 2872 H 258.809 -1.38405 4.39523 0
M  V30 2873 H 257.124 -1.40068 3.92135 0
M  V30 2874 H 259.721 -4.13158 3.39418 0
M  V30 2875 H 260.064 -3.79312 1.71546 0
M  V30 2876 H 260.597 -2.64708 2.96942 0
M  V30 2877 H 257.336 -2.71511 5.96625 0
M  V30 2878 H 256.856 -3.79974 4.64091 0
M  V30 2879 H 258.535 -3.80166 5.23529 0
M  V30 2880 N 258.668 -1.30515 -0.883378 0
M  V30 2881 C 259.615 -1.17032 -1.98927 0
M  V30 2882 C 260.585 -0.0594241 -1.65994 0
M  V30 2883 O 261.77 -0.229895 -1.8941 0
M  V30 2884 C 258.91 -0.869777 -3.33959 0
M  V30 2885 C 258.023 -2.06271 -3.79574 0
M  V30 2886 C 257.158 -1.70011 -5.03259 0
M  V30 2887 C 256.197 -2.8579 -5.41286 0
M  V30 2888 N 255.334 -2.49816 -6.56153 0
M  V30 2889 H 260.174 -2.1164 -2.09792 0
M  V30 2890 H 257.711 -1.05296 -1.02719 0
M  V30 2891 H 259.669 -0.676138 -4.11685 0
M  V30 2892 H 258.299 0.0394332 -3.22776 0
M  V30 2893 H 257.351 -2.36755 -2.97744 0
M  V30 2894 H 258.663 -2.92971 -4.03694 0
M  V30 2895 H 257.817 -1.47032 -5.88614 0
M  V30 2896 H 256.556 -0.804829 -4.81013 0
M  V30 2897 H 255.561 -3.09434 -4.54456 0
M  V30 2898 H 256.786 -3.76008 -5.65504 0
M  V30 2899 H 254.732 -1.62795 -6.35479 0
M  V30 2900 H 254.649 -3.30048 -6.8015 0
M  V30 2901 H 255.917 -2.30197 -7.44735 0
M  V30 2902 N 260.146 1.09593 -1.13257 0
M  V30 2903 C 261.093 2.1618 -0.808381 0
M  V30 2904 C 262.063 1.64517 0.228754 0
M  V30 2905 O 263.248 1.9053 0.101381 0
M  V30 2906 C 260.388 3.43973 -0.278675 0
M  V30 2907 C 259.501 4.09545 -1.37466 0
M  V30 2908 C 258.636 5.25088 -0.803479 0
M  V30 2909 C 257.675 5.82579 -1.87799 0
M  V30 2910 N 256.812 6.89486 -1.32488 0
M  V30 2911 H 261.652 2.43254 -1.72138 0
M  V30 2912 H 259.189 1.19392 -0.859294 0
M  V30 2913 H 261.147 4.17174 0.0465583 0
M  V30 2914 H 259.777 3.17223 0.597459 0
M  V30 2915 H 258.829 3.34226 -1.81652 0
M  V30 2916 H 260.141 4.48307 -2.18684 0
M  V30 2917 H 259.295 6.05178 -0.429427 0
M  V30 2918 H 258.034 4.87684 0.0397956 0
M  V30 2919 H 257.039 5.01152 -2.26113 0
M  V30 2920 H 258.264 6.22045 -2.72463 0
M  V30 2921 H 256.21 6.54064 -0.503575 0
M  V30 2922 H 256.127 7.27007 -2.07355 0
M  V30 2923 H 257.395 7.73336 -0.978336 0
M  V30 2924 N 261.624 0.925811 1.2754 0
M  V30 2925 C 262.554 0.440748 2.29303 0
M  V30 2926 C 263.535 -0.497971 1.62648 0
M  V30 2927 O 264.72 -0.403126 1.8997 0
M  V30 2928 C 261.85 -0.309048 3.45922 0
M  V30 2929 C 260.804 0.54166 4.24559 0
M  V30 2930 C 260.13 -0.337191 5.33636 0
M  V30 2931 C 261.43 1.80516 4.90114 0
M  V30 2932 H 263.124 1.29121 2.70126 0
M  V30 2933 H 260.67 0.622323 1.29858 0
M  V30 2934 H 262.623 -0.659315 4.1621 0
M  V30 2935 H 261.347 -1.19352 3.04011 0
M  V30 2936 H 260.006 0.874609 3.56014 0
M  V30 2937 H 259.654 -1.22056 4.87966 0
M  V30 2938 H 259.354 0.228497 5.87156 0
M  V30 2939 H 260.878 -0.683072 6.06767 0
M  V30 2940 H 262.292 1.52307 5.52698 0
M  V30 2941 H 260.689 2.3142 5.53683 0
M  V30 2942 H 261.759 2.52581 4.13921 0
M  V30 2943 N 263.102 -1.41638 0.69111 0
M  V30 2944 C 264.065 -2.29178 0.0319786 0
M  V30 2945 C 265.065 -1.44153 -0.712496 0
M  V30 2946 O 266.255 -1.65354 -0.548053 0
M  V30 2947 C 263.387 -3.26952 -0.965161 0
M  V30 2948 H 264.58 -2.88959 0.802681 0
M  V30 2949 H 262.133 -1.4955 0.454356 0
M  V30 2950 H 262.868 -2.72142 -1.76378 0
M  V30 2951 H 262.653 -3.89685 -0.434522 0
M  V30 2952 H 264.143 -3.92561 -1.42428 0
M  V30 2953 N 264.58 -0.43555 -1.51462 0
M  V30 2954 C 265.81 0.130053 -2.0619 0
M  V30 2955 C 266.218 1.37164 -1.30317 0
M  V30 2956 O 265.561 1.80225 -0.355598 0
M  V30 2957 C 265.623 0.519418 -3.55728 0
M  V30 2958 C 265.287 -0.615119 -4.52841 0
M  V30 2959 C 266.284 -1.48671 -4.9819 0
M  V30 2960 C 263.969 -0.795341 -4.95963 0
M  V30 2961 C 265.963 -2.52324 -5.8533 0
M  V30 2962 C 263.65 -1.83514 -5.82894 0
M  V30 2963 C 264.648 -2.69748 -6.27475 0
M  V30 2964 O 264.336 -3.71944 -7.1268 0
M  V30 2965 H 264.068 0.0121612 -0.675891 0
M  V30 2966 H 266.622 -0.6129 -1.96043 0
M  V30 2967 H 264.852 1.31505 -3.63653 0
M  V30 2968 H 266.541 1.01597 -3.92979 0
M  V30 2969 H 267.307 -1.359 -4.65571 0
M  V30 2970 H 263.186 -0.133713 -4.60806 0
M  V30 2971 H 266.73 -3.19665 -6.20048 0
M  V30 2972 H 262.627 -1.96306 -6.14926 0
M  V30 2973 H 263.395 -3.68503 -7.30854 0
M  V30 2974 N 266.058 1.56714 -0.166846 0
M  V30 2975 C 267.286 2.0112 0.485644 0
M  V30 2976 C 267.701 1.04705 1.57106 0
M  V30 2977 O 267.058 0.0471923 1.82439 0
M  V30 2978 C 267.109 3.45361 1.06808 0
M  V30 2979 O 266.83 4.38092 0.0259995 0
M  V30 2980 C 268.331 4.05145 1.79924 0
M  V30 2981 H 265.551 0.65931 0.124704 0
M  V30 2982 H 268.095 2.02746 -0.267262 0
M  V30 2983 H 266.25 3.44524 1.7715 0
M  V30 2984 H 266.664 5.22519 0.455398 0
M  V30 2985 H 268.138 5.08009 2.15942 0
M  V30 2986 H 268.615 3.46982 2.69258 0
M  V30 2987 H 269.221 4.09672 1.14234 0
M  V30 2988 N 267.536 -0.106894 1.57237 0
M  V30 2989 C 268.486 -1.1366 1.9765 0
M  V30 2990 C 269.47 -1.36416 0.853203 0
M  V30 2991 O 270.662 -1.37305 1.11697 0
M  V30 2992 C 267.791 -2.46 2.39455 0
M  V30 2993 C 266.877 -2.26668 3.58445 0
M  V30 2994 N 267.268 -1.77176 4.73754 0
M  V30 2995 C 265.566 -2.57279 3.64312 0
M  V30 2996 C 266.267 -1.71836 5.5574 0
M  V30 2997 N 265.243 -2.16623 4.98573 0
M  V30 2998 H 269.045 -0.74669 2.84256 0
M  V30 2999 H 266.559 -0.314483 1.59326 0
M  V30 3000 H 268.556 -3.2049 2.6663 0
M  V30 3001 H 267.216 -2.85738 1.54219 0
M  V30 3002 H 268.227 -1.46545 4.96734 0
M  V30 3003 H 264.904 -3.00622 2.89711 0
M  V30 3004 H 266.294 -1.34723 6.58255 0
M  V30 3005 N 269.014 -1.53014 -0.377408 0
M  V30 3006 C 269.944 -1.81589 -1.46791 0
M  V30 3007 C 270.925 -0.668622 -1.56408 0
M  V30 3008 O 272.11 -0.917337 -1.71168 0
M  V30 3009 C 269.24 -1.99519 -2.8427 0
M  V30 3010 C 268.194 -3.15249 -2.89486 0
M  V30 3011 C 267.52 -3.18451 -4.29527 0
M  V30 3012 C 268.82 -4.54084 -2.58079 0
M  V30 3013 H 270.514 -2.7291 -1.23127 0
M  V30 3014 H 268.06 -1.31319 -0.590883 0
M  V30 3015 H 270.013 -2.18092 -3.60575 0
M  V30 3016 H 268.737 -1.04897 -3.09296 0
M  V30 3017 H 267.396 -2.96477 -2.15631 0
M  V30 3018 H 267.044 -2.2149 -4.5161 0
M  V30 3019 H 266.744 -3.962 -4.33934 0
M  V30 3020 H 268.268 -3.39193 -5.07721 0
M  V30 3021 H 269.682 -4.72899 -3.24098 0
M  V30 3022 H 268.079 -5.33987 -2.7382 0
M  V30 3023 H 269.149 -4.60006 -1.53372 0
M  V30 3024 N 270.492 0.636531 -1.44174 0
M  V30 3025 C 271.44 1.76995 -1.50915 0
M  V30 3026 C 272.434 1.65053 -0.381295 0
M  V30 3027 O 273.64 1.71197 -0.55601 0
M  V30 3028 H 270.015 0.584247 -0.473455 0
M  V30 3029 H 271.986 1.68432 -2.4632 0
M  V30 3030 C 270.735 3.15314 -1.46534 0
M  V30 3031 H 270.058 3.25149 -2.32633 0
M  V30 3032 H 271.498 3.9453 -1.55312 0
M  V30 3033 C 269.957 3.3639 -0.185305 0
M  V30 3034 O 270.487 3.94699 0.746688 0
M  V30 3035 N 268.693 2.9046 -0.0901606 0
M  V30 3036 H 268.24 2.43193 -0.849416 0
M  V30 3037 H 268.198 3.04937 0.765553 0
M  V30 3038 N 271.97 1.30982 0.876444 0
M  V30 3039 C 273.219 1.19658 1.62373 0
M  V30 3040 C 273.532 -0.245636 1.94052 0
M  V30 3041 O 274.738 -0.48049 2.67214 0
M  V30 3042 C 273.194 2.09433 2.92687 0
M  V30 3043 C 272.802 3.58613 2.68516 0
M  V30 3044 C 274.546 2.06893 3.70669 0
M  V30 3045 C 272.453 4.40416 3.94699 0
M  V30 3046 H 271.383 0.444268 0.609214 0
M  V30 3047 H 274.034 1.55791 0.969605 0
M  V30 3048 H 272.416 1.66191 3.59439 0
M  V30 3049 H 273.59 4.10058 2.10212 0
M  V30 3050 H 271.905 3.63063 2.03898 0
M  V30 3051 H 274.502 2.65258 4.64265 0
M  V30 3052 H 274.845 1.05448 4.02724 0
M  V30 3053 H 275.378 2.48301 3.10792 0
M  V30 3054 H 272.117 5.42591 3.67798 0
M  V30 3055 H 271.637 3.93731 4.52477 0
M  V30 3056 H 273.316 4.52294 4.62644 0
M  V30 3057 N 273.449 -1.08991 1.13837 0
M  V30 3058 C 274.726 -1.77863 0.813876 0
M  V30 3059 C 275.106 -1.99375 -0.693746 0
M  V30 3060 O 274.454 -1.59875 -1.63255 0
M  V30 3061 C 274.664 -3.0986 1.60586 0
M  V30 3062 C 276.012 -3.84493 1.8014 0
M  V30 3063 O 277.036 -3.19624 1.57222 0
M  V30 3064 O 275.895 -5.00957 2.18413 0
M  V30 3065 H 272.989 -0.771589 0.297624 0
M  V30 3066 H 275.535 -1.15507 1.24323 0
M  V30 3067 H 274.307 -2.89715 2.63022 0
M  V30 3068 H 273.93 -3.79942 1.17173 0
M  V30 3069 N 274.927 -0.932562 -1.27047 0
M  V30 3070 C 276.157 -0.591173 -1.97961 0
M  V30 3071 C 276.565 0.836219 -1.69717 0
M  V30 3072 O 275.908 1.56801 -0.957036 0
M  V30 3073 C 275.97 -0.743082 -3.51736 0
M  V30 3074 C 275.634 -2.1435 -4.03613 0
M  V30 3075 C 276.631 -3.11815 -4.16014 0
M  V30 3076 C 274.316 -2.46175 -4.37839 0
M  V30 3077 C 276.31 -4.39211 -4.61923 0
M  V30 3078 C 273.997 -3.73806 -4.83438 0
M  V30 3079 C 274.995 -4.70137 -4.95439 0
M  V30 3080 O 274.683 -5.95496 -5.40037 0
M  V30 3081 H 274.415 -0.222375 -0.638377 0
M  V30 3082 H 276.969 -1.25317 -1.62742 0
M  V30 3083 H 275.199 -0.0239739 -3.86693 0
M  V30 3084 H 276.888 -0.40603 -4.03864 0
M  V30 3085 H 277.654 -2.88549 -3.89826 0
M  V30 3086 H 273.533 -1.71936 -4.27737 0
M  V30 3087 H 277.077 -5.14404 -4.71205 0
M  V30 3088 H 272.974 -3.96888 -5.09068 0
M  V30 3089 H 273.742 -5.98554 -5.58279 0
M  V30 3090 N 276.405 1.4127 -0.698611 0
M  V30 3091 C 277.352 2.30773 -0.0352094 0
M  V30 3092 C 278.322 1.47273 0.768111 0
M  V30 3093 O 279.507 1.76053 0.735524 0
M  V30 3094 C 276.647 3.33346 0.893 0
M  V30 3095 C 275.76 4.31924 0.0809695 0
M  V30 3096 C 274.895 5.21566 1.0071 0
M  V30 3097 C 273.934 6.11811 0.188155 0
M  V30 3098 N 273.071 6.93926 1.06825 0
M  V30 3099 H 277.911 2.86943 -0.804207 0
M  V30 3100 H 275.448 1.4132 -0.408294 0
M  V30 3101 H 277.406 3.91368 1.44523 0
M  V30 3102 H 276.036 2.78719 1.62836 0
M  V30 3103 H 275.088 3.75825 -0.588224 0
M  V30 3104 H 276.4 4.95716 -0.553801 0
M  V30 3105 H 275.554 5.84437 1.62845 0
M  V30 3106 H 274.293 4.58008 1.67572 0
M  V30 3107 H 273.298 5.47986 -0.446254 0
M  V30 3108 H 274.523 6.77425 -0.476716 0
M  V30 3109 H 272.469 6.32973 1.72283 0
M  V30 3110 H 272.386 7.54416 0.489123 0
M  V30 3111 H 273.654 7.61262 1.67632 0
M  V30 3112 N 277.883 0.443576 1.51229 0
M  V30 3113 C 279.129 -0.120975 2.02439 0
M  V30 3114 C 279.462 -1.41815 1.32674 0
M  V30 3115 O 278.737 -1.89373 0.443622 0
M  V30 3116 C 279.02 -0.333291 3.58554 0
M  V30 3117 C 278.873 0.982968 4.38928 0
M  V30 3118 C 280.192 -1.10028 4.26124 0
M  V30 3119 H 277.311 -0.0424923 0.735774 0
M  V30 3120 H 279.953 0.583794 1.80809 0
M  V30 3121 H 278.103 -0.933614 3.77115 0
M  V30 3122 H 279.775 1.61775 4.32003 0
M  V30 3123 H 278.018 1.58611 4.03763 0
M  V30 3124 H 278.689 0.788379 5.46341 0
M  V30 3125 H 281.165 -0.591711 4.11871 0
M  V30 3126 H 280.041 -1.21761 5.35225 0
M  V30 3127 H 280.302 -2.12996 3.87408 0
M  V30 3128 N 279.361 -1.56624 0.175154 0
M  V30 3129 C 280.308 -2.18149 -0.753634 0
M  V30 3130 C 281.278 -1.12265 -1.22417 0
M  V30 3131 O 282.463 -1.40432 -1.29165 0
M  V30 3132 C 279.603 -2.82933 -1.97592 0
M  V30 3133 C 278.716 -4.03289 -1.5486 0
M  V30 3134 C 277.851 -4.55988 -2.72485 0
M  V30 3135 C 276.89 -5.68746 -2.26262 0
M  V30 3136 N 276.027 -6.15938 -3.36994 0
M  V30 3137 H 280.867 -2.9717 -0.222195 0
M  V30 3138 H 278.404 -1.46774 -0.0979422 0
M  V30 3139 H 280.362 -3.18653 -2.69288 0
M  V30 3140 H 278.992 -2.06509 -2.481 0
M  V30 3141 H 278.044 -3.73364 -0.728246 0
M  V30 3142 H 279.356 -4.849 -1.16933 0
M  V30 3143 H 278.51 -4.9391 -3.52332 0
M  V30 3144 H 277.249 -3.73443 -3.13674 0
M  V30 3145 H 276.254 -5.30372 -1.44863 0
M  V30 3146 H 277.479 -6.53095 -1.86127 0
M  V30 3147 H 275.425 -5.36321 -3.77751 0
M  V30 3148 H 275.342 -6.92548 -3.03172 0
M  V30 3149 H 276.61 -6.58511 -4.17114 0
M  V30 3150 N 280.839 0.0985539 -1.57292 0
M  V30 3151 C 282.255 0.45267 -1.53046 0
M  V30 3152 C 282.455 1.80713 -0.891342 0
M  V30 3153 O 281.511 2.4785 -0.482375 0
M  V30 3154 C 282.824 0.418341 -2.97776 0
M  V30 3155 C 284.372 0.500443 -3.08973 0
M  V30 3156 C 284.847 0.496297 -4.55303 0
M  V30 3157 N 286.338 0.557151 -4.59837 0
M  V30 3158 C 287.073 0.575726 -5.70502 0
M  V30 3159 N 286.569 0.550714 -6.90608 0
M  V30 3160 N 288.362 0.620277 -5.58667 0
M  V30 3161 H 280.513 -0.788673 -1.97215 0
M  V30 3162 H 282.776 -0.293188 -0.901524 0
M  V30 3163 H 282.482 -0.509659 -3.47988 0
M  V30 3164 H 282.356 1.2386 -3.56284 0
M  V30 3165 H 284.743 1.41886 -2.58751 0
M  V30 3166 H 284.824 -0.347894 -2.53423 0
M  V30 3167 H 284.468 -0.418162 -5.06176 0
M  V30 3168 H 284.398 1.3618 -5.08687 0
M  V30 3169 H 286.889 0.581816 -3.73394 0
M  V30 3170 H 287.202 0.568075 -7.70709 0
M  V30 3171 H 285.547 0.517816 -6.93068 0
M  V30 3172 H 288.738 0.637322 -4.63741 0
M  V30 3173 H 288.911 0.631283 -6.44918 0
M  V30 3174 N 282.317 1.53212 0.369288 0
M  V30 3175 C 283.265 1.80054 1.47253 0
M  V30 3176 C 284.259 0.669456 1.55611 0
M  V30 3177 O 285.465 0.852328 1.58541 0
M  V30 3178 H 281.84 0.570034 0.490475 0
M  V30 3179 H 283.811 2.72403 1.21817 0
M  V30 3180 C 282.56 2.00403 2.84137 0
M  V30 3181 H 281.883 2.86876 2.78464 0
M  V30 3182 H 283.323 2.23164 3.60519 0
M  V30 3183 C 281.782 0.782081 3.27697 0
M  V30 3184 O 282.312 -0.0310205 4.01688 0
M  V30 3185 N 280.518 0.606573 2.84199 0
M  V30 3186 H 280.065 1.26939 2.24152 0
M  V30 3187 H 280.023 -0.20962 3.137 0
M  V30 3188 N 283.795 -0.628877 1.44509 0
M  V30 3189 C 285.044 -1.38437 1.4669 0
M  V30 3190 C 285.357 -1.95322 0.104272 0
M  V30 3191 O 286.563 -2.715 0.00362163 0
M  V30 3192 C 285.019 -2.50659 2.5826 0
M  V30 3193 C 284.627 -2.00277 4.0074 0
M  V30 3194 C 286.371 -3.27844 2.69664 0
M  V30 3195 C 284.278 -3.09854 5.0373 0
M  V30 3196 H 283.208 -0.520245 0.545766 0
M  V30 3197 H 285.859 -0.676313 1.70582 0
M  V30 3198 H 284.241 -3.2405 2.27612 0
M  V30 3199 H 285.415 -1.33736 4.40966 0
M  V30 3200 H 283.73 -1.35901 3.93599 0
M  V30 3201 H 286.327 -4.09534 3.43781 0
M  V30 3202 H 286.67 -3.77471 1.75559 0
M  V30 3203 H 287.203 -2.61543 2.99733 0
M  V30 3204 H 283.942 -2.65168 5.99472 0
M  V30 3205 H 283.462 -3.7503 4.68095 0
M  V30 3206 H 285.141 -3.74592 5.27532 0
M  V30 3207 N 285.273 -1.31445 -0.869486 0
M  V30 3208 C 286.221 -1.19067 -1.99814 0
M  V30 3209 C 287.215 -0.0988569 -1.69111 0
M  V30 3210 O 288.421 -0.260781 -1.78101 0
M  V30 3211 H 284.796 -0.368677 -0.655425 0
M  V30 3212 H 286.767 -2.14555 -2.07385 0
M  V30 3213 C 285.516 -0.915323 -3.35436 0
M  V30 3214 H 284.839 -1.74759 -3.59582 0
M  V30 3215 H 286.279 -0.868895 -4.15001 0
M  V30 3216 C 284.738 0.381928 -3.34728 0
M  V30 3217 O 285.268 1.39857 -3.76567 0
M  V30 3218 N 283.474 0.398633 -2.87853 0
M  V30 3219 H 283.021 -0.429186 -2.54 0
M  V30 3220 H 282.979 1.26651 -2.87762 0
M  V30 3221 N 286.751 1.08385 -1.14413 0
M  V30 3222 C 287.681 2.17321 -0.854044 0
M  V30 3223 C 288.662 1.69024 0.191049 0
M  V30 3224 O 289.847 1.94141 0.0476779 0
M  V30 3225 C 286.977 3.45719 -0.330983 0
M  V30 3226 C 285.931 4.07409 -1.31155 0
M  V30 3227 C 285.257 5.30762 -0.64778 0
M  V30 3228 C 286.557 4.48665 -2.67388 0
M  V30 3229 H 288.251 2.41845 -1.76498 0
M  V30 3230 H 285.797 1.16233 -0.850051 0
M  V30 3231 H 287.75 4.21241 -0.115645 0
M  V30 3232 H 286.474 3.2075 0.615381 0
M  V30 3233 H 285.133 3.33919 -1.51306 0
M  V30 3234 H 284.781 5.02078 0.304398 0
M  V30 3235 H 284.481 5.72992 -1.30207 0
M  V30 3236 H 286.005 6.08998 -0.441972 0
M  V30 3237 H 287.419 5.15364 -2.51143 0
M  V30 3238 H 285.816 5.01814 -3.29093 0
M  V30 3239 H 286.886 3.60543 -3.24248 0
M  V30 3240 N 288.23 0.939286 1.26551 0
M  V30 3241 C 289.178 0.43815 2.28436 0
M  V30 3242 C 290.172 -0.483587 1.62351 0
M  V30 3243 O 291.378 -0.362009 1.76322 0
M  V30 3244 H 287.753 0.123149 0.741848 0
M  V30 3245 H 289.724 1.31002 2.68106 0
M  V30 3246 C 288.473 -0.283052 3.46546 0
M  V30 3247 H 287.796 0.417043 3.97619 0
M  V30 3248 H 289.236 -0.597948 4.19763 0
M  V30 3249 C 287.695 -1.50018 3.01656 0
M  V30 3250 O 288.225 -2.59855 3.0633 0
M  V30 3251 N 286.431 -1.35608 2.57019 0
M  V30 3252 H 285.978 -0.46244 2.53415 0
M  V30 3253 H 285.936 -2.17165 2.27347 0
M  V30 3254 N 289.708 -1.40897 0.706093 0
M  V30 3255 C 290.957 -2.00284 0.238574 0
M  V30 3256 C 291.27 -1.56604 -1.17194 0
M  V30 3257 O 292.476 -2.08624 -1.73748 0
M  V30 3258 C 290.932 -3.57934 0.375623 0
M  V30 3259 C 290.54 -4.10591 1.79217 0
M  V30 3260 C 292.284 -4.24488 -0.0315857 0
M  V30 3261 C 290.191 -5.60712 1.88032 0
M  V30 3262 H 289.121 -0.749144 0.0854398 0
M  V30 3263 H 291.772 -1.61251 0.875813 0
M  V30 3264 H 290.154 -3.94622 -0.330042 0
M  V30 3265 H 291.328 -3.85301 2.52745 0
M  V30 3266 H 289.643 -3.56601 2.15 0
M  V30 3267 H 292.24 -5.34698 0.0136842 0
M  V30 3268 H 292.583 -4.02261 -1.072 0
M  V30 3269 H 293.116 -3.92873 0.624181 0
M  V30 3270 H 289.855 -5.87781 2.90161 0
M  V30 3271 H 289.375 -5.87896 1.18903 0
M  V30 3272 H 291.054 -6.25658 1.64805 0
M  V30 3273 N 291.186 -0.45159 -1.50991 0
M  V30 3274 C 292.434 0.109857 -2.01801 0
M  V30 3275 C 292.755 1.41958 -1.3369 0
M  V30 3276 O 292.025 1.9003 -0.475951 0
M  V30 3277 H 290.605 0.0435884 -0.745727 0
M  V30 3278 H 293.267 -0.597557 -1.85514 0
M  V30 3279 H 292.363 0.275489 -3.10882 0
M  V30 3280 N 292.664 1.56529 -0.183458 0
M  V30 3281 C 293.904 1.99141 0.460667 0
M  V30 3282 C 294.268 1.06736 1.59597 0
M  V30 3283 O 295.469 1.38538 2.30349 0
M  V30 3284 C 293.74 3.45358 0.919939 0
M  V30 3285 S 295.299 4.09999 1.56354 0
M  V30 3286 H 292.117 0.695479 0.147748 0
M  V30 3287 H 294.719 1.93429 -0.283782 0
M  V30 3288 H 293.423 4.10315 0.0834208 0
M  V30 3289 H 292.954 3.54862 1.69814 0
M  V30 3290 H 294.969 4.06046 2.85203 0
M  V30 3291 N 294.142 -0.090211 1.57342 0
M  V30 3292 C 295.388 -0.793982 1.86611 0
M  V30 3293 C 295.721 -1.78142 0.773252 0
M  V30 3294 O 294.996 -1.93271 -0.218304 0
M  V30 3295 C 295.279 -1.51839 3.26523 0
M  V30 3296 C 295.132 -0.548609 4.46442 0
M  V30 3297 C 296.451 -2.46779 3.64401 0
M  V30 3298 H 293.57 -0.287186 0.678744 0
M  V30 3299 H 296.212 -0.0575076 1.89913 0
M  V30 3300 H 294.362 -2.14617 3.23839 0
M  V30 3301 H 296.034 0.0725513 4.61243 0
M  V30 3302 H 294.277 0.137614 4.33582 0
M  V30 3303 H 294.948 -1.09271 5.41076 0
M  V30 3304 H 297.424 -1.94089 3.68061 0
M  V30 3305 H 296.3 -2.94479 4.63221 0
M  V30 3306 H 296.561 -3.30758 2.93346 0
M  V30 3307 N 295.62 -1.53406 -0.361157 0
M  V30 3308 C 296.869 -1.69022 -1.10066 0
M  V30 3309 C 297.182 -0.450838 -1.90333 0
M  V30 3310 O 298.388 -0.487617 -2.67085 0
M  V30 3311 C 296.844 -2.98812 -2.00598 0
M  V30 3312 C 296.452 -4.30027 -1.25621 0
M  V30 3313 C 298.196 -3.23795 -2.74513 0
M  V30 3314 C 296.103 -5.50903 -2.1508 0
M  V30 3315 H 295.033 -0.629776 -0.414606 0
M  V30 3316 H 297.684 -1.79907 -0.361348 0
M  V30 3317 H 296.066 -2.8174 -2.78278 0
M  V30 3318 H 297.24 -4.57745 -0.529739 0
M  V30 3319 H 295.555 -4.11522 -0.635496 0
M  V30 3320 H 298.152 -4.11289 -3.41681 0
M  V30 3321 H 298.495 -2.40045 -3.40123 0
M  V30 3322 H 299.028 -3.41561 -2.03914 0
M  V30 3323 H 295.767 -6.37143 -1.54041 0
M  V30 3324 H 295.287 -5.27459 -2.85565 0
M  V30 3325 H 296.966 -5.85865 -2.74538 0
M  V30 3326 N 297.098 0.621204 -1.44841 0
M  V30 3327 C 298.323 1.41244 -1.51871 0
M  V30 3328 C 298.748 1.87519 -0.147764 0
M  V30 3329 O 298.106 1.59334 0.865 0
M  V30 3330 C 298.154 2.60221 -2.49634 0
M  V30 3331 O 297.258 3.60395 -2.00473 0
M  V30 3332 H 296.599 0.42223 -0.512463 0
M  V30 3333 H 299.129 0.757305 -1.90069 0
M  V30 3334 H 299.139 3.0764 -2.67996 0
M  V30 3335 H 297.814 2.25887 -3.4921 0
M  V30 3336 H 296.391 3.19717 -1.91925 0
M  V30 3337 N 298.576 1.31904 0.862503 0
M  V30 3338 C 299.822 1.22197 1.61851 0
M  V30 3339 C 300.155 -0.217641 1.92977 0
M  V30 3340 O 299.43 -1.15264 1.56666 0
M  V30 3341 C 299.713 2.07378 2.94391 0
M  V30 3342 C 299.566 3.59678 2.70096 0
M  V30 3343 C 300.885 1.92891 3.95577 0
M  V30 3344 H 298.004 0.445255 0.587296 0
M  V30 3345 H 300.646 1.6177 0.99651 0
M  V30 3346 H 298.796 1.73758 3.47477 0
M  V30 3347 H 300.468 4.03472 2.23625 0
M  V30 3348 H 298.711 3.82735 2.04197 0
M  V30 3349 H 299.382 4.14595 3.64438 0
M  V30 3350 H 301.858 2.22327 3.51724 0
M  V30 3351 H 300.734 2.54781 4.86187 0
M  V30 3352 H 300.995 0.894315 4.3296 0
M  V30 3353 N 300.054 -1.07777 1.14986 0
M  V30 3354 C 301.465 -1.61766 0.932127 0
M  V30 3355 C 301.816 -1.88974 -0.527581 0
M  V30 3356 O 300.941 -1.65198 -1.39781 0
M  V30 3357 C 301.536 -2.93891 1.68563 0
M  V30 3358 C 300.095 -3.44639 1.5133 0
M  V30 3359 C 299.242 -2.18767 1.704 0
M  V30 3360 H 302.193 -0.909201 1.30074 0
M  V30 3361 H 302.214 -3.62623 1.15259 0
M  V30 3362 H 301.726 -2.74057 2.74799 0
M  V30 3363 H 299.827 -3.69564 0.474702 0
M  V30 3364 H 299.94 -4.20966 2.28746 0
M  V30 3365 H 298.304 -2.28253 1.13016 0
M  V30 3366 H 299.087 -2.01433 2.77992 0
M  V30 3367 N 301.532 -0.945985 -1.26051 0
M  V30 3368 C 302.772 -0.603665 -1.95282 0
M  V30 3369 C 303.136 0.842377 -1.72534 0
M  V30 3370 O 304.337 1.29387 -2.35611 0
M  V30 3371 C 302.608 -0.942292 -3.44754 0
M  V30 3372 S 304.167 -0.711242 -4.32997 0
M  V30 3373 H 300.985 -0.222176 -0.675395 0
M  V30 3374 H 303.587 -1.21832 -1.52896 0
M  V30 3375 H 302.291 -1.99203 -3.58812 0
M  V30 3376 H 301.822 -0.317546 -3.92116 0
M  V30 3377 H 303.837 0.422221 -4.944 0
M  V30 3378 N 303.011 1.40521 -0.713556 0
M  V30 3379 C 303.959 2.32549 -0.0485227 0
M  V30 3380 C 304.953 1.51931 0.74922 0
M  V30 3381 O 306.159 1.67745 0.652816 0
M  V30 3382 H 302.534 0.751994 0.00311138 0
M  V30 3383 H 304.505 2.86291 -0.841443 0
M  V30 3384 C 303.254 3.36879 0.860687 0
M  V30 3385 H 302.577 3.98978 0.256246 0
M  V30 3386 H 304.017 4.03772 1.294 0
M  V30 3387 C 302.476 2.72197 1.9852 0
M  V30 3388 O 303.006 2.5837 3.07584 0
M  V30 3389 N 301.212 2.30612 1.76823 0
M  V30 3390 H 300.759 2.42059 0.881217 0
M  V30 3391 H 300.717 1.87672 2.52243 0
M  V30 3392 N 304.489 0.459591 1.5075 0
M  V30 3393 C 305.736 -0.0993495 2.02256 0
M  V30 3394 C 306.064 -1.40751 1.34237 0
M  V30 3395 O 305.319 -1.90379 0.453228 0
M  V30 3396 C 305.618 -0.342866 3.55752 0
M  V30 3397 C 305.284 0.88218 4.42186 0
M  V30 3398 C 303.946 1.21808 4.65528 0
M  V30 3399 C 306.298 1.69837 4.92752 0
M  V30 3400 C 303.626 2.37045 5.36681 0
M  V30 3401 C 305.978 2.84192 5.65171 0
M  V30 3402 C 304.642 3.1821 5.8677 0
M  V30 3403 H 303.912 -0.0363545 0.740108 0
M  V30 3404 H 306.559 0.611329 1.8148 0
M  V30 3405 H 304.864 -1.13567 3.7498 0
M  V30 3406 H 306.561 -0.789121 3.93159 0
M  V30 3407 H 303.151 0.610467 4.2423 0
M  V30 3408 H 307.335 1.45205 4.74583 0
M  V30 3409 H 302.591 2.63689 5.51614 0
M  V30 3410 H 306.765 3.4779 6.03337 0
M  V30 3411 H 304.392 4.07613 6.41682 0
M  V30 3412 N 305.967 -1.56429 0.191757 0
M  V30 3413 C 307.192 -2.02309 -0.456706 0
M  V30 3414 C 307.617 -1.07103 -1.5463 0
M  V30 3415 O 306.975 -0.0539677 -1.8122 0
M  V30 3416 C 307.023 -3.46654 -0.993159 0
M  V30 3417 O 306.127 -3.54559 -2.10622 0
M  V30 3418 H 305.468 -0.655303 -0.107114 0
M  V30 3419 H 307.998 -2.02364 0.301653 0
M  V30 3420 H 308.008 -3.86377 -1.31061 0
M  V30 3421 H 306.683 -4.1544 -0.195504 0
M  V30 3422 H 305.26 -3.26708 -1.79767 0
M  V30 3423 N 307.445 0.0818655 -1.57387 0
M  V30 3424 C 308.377 1.12484 -1.997 0
M  V30 3425 C 309.39 1.35564 -0.90146 0
M  V30 3426 O 310.579 1.33982 -1.17945 0
M  V30 3427 C 307.679 2.47778 -2.31213 0
M  V30 3428 C 306.852 2.44793 -3.62485 0
M  V30 3429 C 305.911 3.62117 -3.81782 0
M  V30 3430 O 304.937 3.44005 -4.53486 0
M  V30 3431 N 306.139 4.82094 -3.23367 0
M  V30 3432 H 308.904 0.764585 -2.89783 0
M  V30 3433 H 306.465 0.270664 -1.59621 0
M  V30 3434 H 308.457 3.24891 -2.41304 0
M  V30 3435 H 307.027 2.75843 -1.4707 0
M  V30 3436 H 306.247 1.53134 -3.6324 0
M  V30 3437 H 307.535 2.39889 -4.48699 0
M  V30 3438 H 306.933 4.99713 -2.65148 0
M  V30 3439 H 305.49 5.56753 -3.38923 0
M  V30 3440 N 308.923 1.53595 0.353017 0
M  V30 3441 C 310.339 1.43648 0.695516 0
M  V30 3442 C 310.539 0.585617 1.92802 0
M  V30 3443 O 309.595 0.0729223 2.52395 0
M  V30 3444 C 310.908 2.8701 0.896991 0
M  V30 3445 C 312.456 2.96723 0.996209 0
M  V30 3446 C 312.931 4.41173 1.23007 0
M  V30 3447 N 314.422 4.44657 1.29749 0
M  V30 3448 C 315.157 5.53547 1.49577 0
M  V30 3449 N 314.653 6.72461 1.66639 0
M  V30 3450 N 316.446 5.41145 1.52048 0
M  V30 3451 H 308.597 2.07415 -0.457481 0
M  V30 3452 H 310.86 0.9372 -0.142687 0
M  V30 3453 H 310.566 3.51644 0.0629938 0
M  V30 3454 H 310.44 3.31401 1.80148 0
M  V30 3455 H 312.827 2.32235 1.82074 0
M  V30 3456 H 312.908 2.55707 0.0688331 0
M  V30 3457 H 312.552 5.06238 0.410505 0
M  V30 3458 H 312.482 4.79772 2.17086 0
M  V30 3459 H 314.973 3.58963 1.18126 0
M  V30 3460 H 315.286 7.51214 1.81378 0
M  V30 3461 H 313.631 6.75423 1.63794 0
M  V30 3462 H 316.822 4.47205 1.38294 0
M  V30 3463 H 316.995 6.26068 1.67159 0
M  V30 3464 N 310.401 -0.613514 1.45168 0
M  V30 3465 C 311.348 -1.72456 1.53387 0
M  V30 3466 C 312.318 -1.6169 0.380191 0
M  V30 3467 O 313.503 -1.81356 0.592836 0
M  V30 3468 C 310.643 -3.10753 1.50088 0
M  V30 3469 C 309.756 -3.32368 2.75963 0
M  V30 3470 C 308.891 -4.60737 2.64376 0
M  V30 3471 C 307.93 -4.7559 3.85332 0
M  V30 3472 N 307.067 -5.95253 3.72315 0
M  V30 3473 H 311.907 -1.64768 2.48305 0
M  V30 3474 H 309.444 -0.803503 1.23216 0
M  V30 3475 H 311.402 -3.90758 1.46164 0
M  V30 3476 H 310.032 -3.17413 0.587243 0
M  V30 3477 H 309.084 -2.4618 2.89999 0
M  V30 3478 H 310.396 -3.39218 3.65695 0
M  V30 3479 H 309.55 -5.48928 2.58385 0
M  V30 3480 H 308.289 -4.56275 1.72233 0
M  V30 3481 H 307.294 -3.85824 3.91688 0
M  V30 3482 H 308.519 -4.81854 4.78533 0
M  V30 3483 H 306.465 -5.91847 2.82937 0
M  V30 3484 H 306.382 -6.03236 4.55677 0
M  V30 3485 H 307.65 -6.85958 3.70246 0
M  V30 3486 N 311.879 -1.3236 -0.855495 0
M  V30 3487 C 312.826 -1.21225 -1.964 0
M  V30 3488 C 313.796 -0.0946204 -1.6583 0
M  V30 3489 O 314.981 -0.27002 -1.8888 0
M  V30 3490 C 312.121 -0.940419 -3.32039 0
M  V30 3491 C 311.234 -2.14276 -3.75113 0
M  V30 3492 C 310.369 -1.80648 -4.9954 0
M  V30 3493 C 309.408 -2.97208 -5.35102 0
M  V30 3494 N 308.545 -2.63678 -6.50706 0
M  V30 3495 H 313.385 -2.16042 -2.05255 0
M  V30 3496 H 310.922 -1.07451 -1.00463 0
M  V30 3497 H 312.88 -0.763311 -4.10158 0
M  V30 3498 H 311.51 -0.0290413 -3.22787 0
M  V30 3499 H 310.562 -2.43017 -2.92655 0
M  V30 3500 H 311.874 -3.01468 -3.97389 0
M  V30 3501 H 311.028 -1.59484 -5.85363 0
M  V30 3502 H 309.767 -0.906678 -4.79198 0
M  V30 3503 H 308.772 -3.19004 -4.47791 0
M  V30 3504 H 309.997 -3.87918 -5.57401 0
M  V30 3505 H 307.943 -1.76238 -6.31883 0
M  V30 3506 H 307.86 -3.444 -6.72997 0
M  V30 3507 H 309.128 -2.45942 -7.39684 0
M  V30 3508 N 313.357 1.07166 -1.15556 0
M  V30 3509 C 314.289 2.14341 -0.811815 0
M  V30 3510 C 315.302 1.61835 0.177015 0
M  V30 3511 O 316.491 1.78439 -0.0464996 0
M  V30 3512 C 313.591 3.38387 -0.186481 0
M  V30 3513 C 312.764 4.20238 -1.21321 0
M  V30 3514 C 311.823 5.2266 -0.609302 0
M  V30 3515 O 310.849 5.54719 -1.27576 0
M  V30 3516 N 312.051 5.77306 0.608099 0
M  V30 3517 H 314.816 2.44431 -1.73417 0
M  V30 3518 H 312.377 1.23089 -1.0517 0
M  V30 3519 H 314.369 4.04044 0.230339 0
M  V30 3520 H 312.939 3.05994 0.639249 0
M  V30 3521 H 312.159 3.50369 -1.80652 0
M  V30 3522 H 313.447 4.71736 -1.90638 0
M  V30 3523 H 312.845 5.53513 1.1679 0
M  V30 3524 H 311.402 6.44583 0.96725 0
M  V30 3525 N 314.835 0.952656 1.25548 0
M  V30 3526 C 315.798 0.475794 2.24207 0
M  V30 3527 C 316.798 -0.419428 1.55234 0
M  V30 3528 O 317.988 -0.216994 1.72843 0
M  V30 3529 C 315.12 -0.312814 3.39462 0
M  V30 3530 H 316.313 1.34779 2.67908 0
M  V30 3531 H 313.866 0.735739 1.37901 0
M  V30 3532 H 314.601 -1.20257 3.01179 0
M  V30 3533 H 314.386 0.329404 3.90714 0
M  V30 3534 H 315.876 -0.635986 4.12729 0
M  V30 3535 N 316.313 -1.40141 0.720998 0
M  V30 3536 C 317.243 -2.33339 0.0867621 0
M  V30 3537 C 318.224 -1.53178 -0.739622 0
M  V30 3538 O 319.409 -1.81625 -0.687449 0
M  V30 3539 C 316.539 -3.37194 -0.831728 0
M  V30 3540 C 315.493 -4.27857 -0.110558 0
M  V30 3541 C 314.819 -5.22294 -1.14513 0
M  V30 3542 C 316.119 -5.11872 1.0385 0
M  V30 3543 H 317.813 -2.86626 0.865219 0
M  V30 3544 H 315.359 -1.37814 0.417516 0
M  V30 3545 H 317.312 -4.01335 -1.28485 0
M  V30 3546 H 316.036 -2.82314 -1.64214 0
M  V30 3547 H 314.695 -3.65176 0.322797 0
M  V30 3548 H 314.343 -4.63717 -1.94874 0
M  V30 3549 H 314.043 -5.83797 -0.667446 0
M  V30 3550 H 315.567 -5.89312 -1.59824 0
M  V30 3551 H 316.981 -5.69436 0.664482 0
M  V30 3552 H 315.378 -5.82445 1.4449 0
M  V30 3553 H 316.448 -4.4753 1.86668 0
M  V30 3554 N 317.792 -0.46758 -1.50504 0
M  V30 3555 C 319.041 0.0902868 -2.01498 0
M  V30 3556 C 319.354 1.411 -1.35463 0
M  V30 3557 O 320.56 2.0536 -1.77594 0
M  V30 3558 C 319.016 0.21142 -3.59278 0
M  V30 3559 C 318.624 -1.10065 -4.34269 0
M  V30 3560 C 320.368 0.721433 -4.18325 0
M  V30 3561 C 318.275 -0.943505 -5.83825 0
M  V30 3562 H 317.205 0.037517 -0.753066 0
M  V30 3563 H 319.856 -0.601943 -1.73346 0
M  V30 3564 H 318.238 0.967352 -3.84003 0
M  V30 3565 H 319.412 -1.86726 -4.21272 0
M  V30 3566 H 317.727 -1.5415 -3.86816 0
M  V30 3567 H 320.324 0.85598 -5.27804 0
M  V30 3568 H 320.667 1.71186 -3.79475 0
M  V30 3569 H 321.2 0.0229843 -3.97793 0
M  V30 3570 H 317.939 -1.90719 -6.27141 0
M  V30 3571 H 317.459 -0.217213 -5.99407 0
M  V30 3572 H 319.138 -0.608715 -6.4413 0
M  V30 3573 N 319.27 1.56325 -0.20005 0
M  V30 3574 C 320.218 2.20666 0.735482 0
M  V30 3575 C 321.212 1.17934 1.21605 0
M  V30 3576 O 322.418 1.36068 1.17837 0
M  V30 3577 H 318.793 0.70725 0.255542 0
M  V30 3578 H 320.764 2.9792 0.169166 0
M  V30 3579 C 319.513 2.88391 1.94232 0
M  V30 3580 H 318.836 3.67185 1.58161 0
M  V30 3581 H 320.276 3.3684 2.57517 0
M  V30 3582 C 318.735 1.89692 2.78421 0
M  V30 3583 O 319.265 1.40032 3.76502 0
M  V30 3584 N 317.471 1.57813 2.44015 0
M  V30 3585 H 317.018 1.9839 1.64314 0
M  V30 3586 H 316.976 0.920325 3.00628 0
M  V30 3587 N 320.748 -0.0735177 1.57428 0
M  V30 3588 C 321.711 -1.07192 2.02589 0
M  V30 3589 C 322.711 -1.31695 0.922661 0
M  V30 3590 O 323.901 -1.27445 1.18758 0
M  V30 3591 C 321.033 -2.41599 2.40506 0
M  V30 3592 H 322.226 -0.682727 2.92025 0
M  V30 3593 H 319.779 -0.319193 1.53006 0
M  V30 3594 H 320.514 -2.85354 1.5409 0
M  V30 3595 H 320.299 -2.25156 3.21009 0
M  V30 3596 H 321.789 -3.13367 2.76027 0
M  V30 3597 N 322.226 -1.5378 -0.344866 0
M  V30 3598 C 323.451 -1.75211 -1.10977 0
M  V30 3599 C 323.876 -0.48936 -1.81623 0
M  V30 3600 O 323.234 0.557925 -1.72502 0
M  V30 3601 C 323.282 -2.93147 -2.09993 0
M  V30 3602 O 322.386 -2.63203 -3.17487 0
M  V30 3603 H 321.727 -0.581241 -0.321021 0
M  V30 3604 H 324.257 -2.00738 -0.395661 0
M  V30 3605 H 324.267 -3.19898 -2.53237 0
M  V30 3606 H 322.942 -3.84731 -1.5797 0
M  V30 3607 H 321.519 -2.47336 -2.79069 0
M  V30 3608 N 323.704 0.605807 -1.45491 0
M  V30 3609 C 324.651 1.7164 -1.54299 0
M  V30 3610 C 325.621 1.61486 -0.388761 0
M  V30 3611 O 326.806 1.81039 -0.602445 0
M  V30 3612 C 323.946 3.09953 -1.51734 0
M  V30 3613 C 323.059 3.309 -2.77721 0
M  V30 3614 C 322.194 4.59329 -2.66816 0
M  V30 3615 C 321.233 4.7354 -3.87848 0
M  V30 3616 N 320.37 5.9327 -3.75467 0
M  V30 3617 H 325.21 1.63449 -2.49176 0
M  V30 3618 H 322.747 0.796957 -1.23641 0
M  V30 3619 H 324.705 3.89977 -1.48235 0
M  V30 3620 H 323.335 3.17098 -0.604068 0
M  V30 3621 H 322.387 2.44639 -2.913 0
M  V30 3622 H 323.699 3.37274 -3.67488 0
M  V30 3623 H 322.853 5.4755 -2.61292 0
M  V30 3624 H 321.592 4.55355 -1.74651 0
M  V30 3625 H 320.597 3.83741 -3.93729 0
M  V30 3626 H 321.822 4.79309 -4.81082 0
M  V30 3627 H 319.768 5.90338 -2.86072 0
M  V30 3628 H 319.685 6.00811 -4.5887 0
M  V30 3629 H 320.953 6.83984 -3.73879 0
M  V30 3630 N 325.182 1.32811 0.848464 0
M  V30 3631 C 326.431 1.23075 1.59798 0
M  V30 3632 C 326.744 -0.204419 1.94529 0
M  V30 3633 O 327.95 -0.423701 2.68173 0
M  V30 3634 C 326.406 2.15594 2.88179 0
M  V30 3635 C 326.014 3.64228 2.60849 0
M  V30 3636 C 327.758 2.14709 3.66197 0
M  V30 3637 C 325.665 4.48689 3.85269 0
M  V30 3638 H 324.595 0.457091 0.599653 0
M  V30 3639 H 327.246 1.57813 0.936342 0
M  V30 3640 H 325.628 1.73778 3.55833 0
M  V30 3641 H 326.802 4.14424 2.01467 0
M  V30 3642 H 325.117 3.67306 1.96151 0
M  V30 3643 H 327.714 2.75046 4.58534 0
M  V30 3644 H 328.057 1.13966 4.00397 0
M  V30 3645 H 328.59 2.54837 3.05455 0
M  V30 3646 H 325.329 5.5027 3.56207 0
M  V30 3647 H 324.849 4.03241 4.44024 0
M  V30 3648 H 326.528 4.62006 4.52946 0
M  V30 3649 N 326.66 -1.06551 1.16123 0
M  V30 3650 C 327.623 -2.12132 0.867906 0
M  V30 3651 C 328.623 -1.60224 -0.135944 0
M  V30 3652 O 329.813 -1.73943 0.0946422 0
M  V30 3653 C 326.945 -3.396 0.297419 0
M  V30 3654 H 328.138 -2.39586 1.80385 0
M  V30 3655 H 325.691 -1.22574 0.969812 0
M  V30 3656 H 326.426 -3.17794 -0.64633 0
M  V30 3657 H 326.211 -3.78581 1.02073 0
M  V30 3658 H 327.701 -4.17455 0.110052 0
M  V30 3659 N 328.138 -0.959301 -1.25041 0
M  V30 3660 C 329.386 -0.615393 -1.92503 0
M  V30 3661 C 329.707 0.850969 -1.75452 0
M  V30 3662 O 328.977 1.60658 -1.12098 0
M  V30 3663 H 327.557 -0.224613 -0.712431 0
M  V30 3664 H 330.219 -1.21855 -1.5211 0
M  V30 3665 H 329.315 -0.848738 -3.00338 0
M  V30 3666 N 329.616 1.39756 -0.72842 0
M  V30 3667 C 330.546 2.33289 -0.0991354 0
M  V30 3668 C 331.527 1.53568 0.731489 0
M  V30 3669 O 332.712 1.81987 0.677807 0
M  V30 3670 C 329.842 3.3763 0.813834 0
M  V30 3671 C 328.796 4.2791 0.0878663 0
M  V30 3672 C 328.122 5.22894 1.11741 0
M  V30 3673 C 329.422 5.11314 -1.06563 0
M  V30 3674 H 331.116 2.86163 -0.880408 0
M  V30 3675 H 328.662 1.37591 -0.424819 0
M  V30 3676 H 330.615 4.0201 1.26355 0
M  V30 3677 H 329.339 2.83181 1.62715 0
M  V30 3678 H 327.998 3.65 -0.342159 0
M  V30 3679 H 327.646 4.64744 1.92412 0
M  V30 3680 H 327.346 5.84143 0.636477 0
M  V30 3681 H 328.87 5.90151 1.56697 0
M  V30 3682 H 330.284 5.69076 -0.694671 0
M  V30 3683 H 328.681 5.81671 -1.47577 0
M  V30 3684 H 329.751 4.46534 -1.89038 0
M  V30 3685 N 331.094 0.475555 1.50254 0
M  V30 3686 C 332.004 -0.321501 2.32387 0
M  V30 3687 C 333.02 -0.991755 1.42969 0
M  V30 3688 O 334.196 -0.978747 1.76018 0
M  V30 3689 C 331.261 -1.38667 3.17762 0
M  V30 3690 C 330.322 -0.732538 4.23004 0
M  V30 3691 C 329.555 -1.74695 5.04299 0
M  V30 3692 O 329.778 -2.97399 4.86734 0
M  V30 3693 O 328.712 -1.31631 5.8733 0
M  V30 3694 H 332.538 0.350071 3.01676 0
M  V30 3695 H 330.123 0.237321 1.47503 0
M  V30 3696 H 332.005 -2.00354 3.70724 0
M  V30 3697 H 330.68 -2.04163 2.51196 0
M  V30 3698 H 329.587 -0.0765902 3.74022 0
M  V30 3699 H 330.92 -0.120452 4.92053 0
M  V30 3700 N 332.573 -1.56217 0.208337 0
M  V30 3701 C 333.503 -2.22694 -0.702116 0
M  V30 3702 C 334.484 -1.19432 -1.2112 0
M  V30 3703 O 335.669 -1.47978 -1.25762 0
M  V30 3704 C 332.799 -2.8966 -1.9161 0
M  V30 3705 C 331.753 -3.9928 -1.5414 0
M  V30 3706 C 331.079 -4.53476 -2.83308 0
M  V30 3707 C 332.379 -5.17012 -0.741339 0
M  V30 3708 H 334.073 -2.99034 -0.147898 0
M  V30 3709 H 331.619 -1.43831 -0.0696951 0
M  V30 3710 H 333.572 -3.34852 -2.55836 0
M  V30 3711 H 332.296 -2.10746 -2.49507 0
M  V30 3712 H 330.955 -3.54799 -0.922668 0
M  V30 3713 H 330.603 -3.71308 -3.39322 0
M  V30 3714 H 330.303 -5.27451 -2.58976 0
M  V30 3715 H 331.827 -5.01378 -3.485 0
M  V30 3716 H 333.241 -5.58667 -1.28699 0
M  V30 3717 H 331.638 -5.97137 -0.595627 0
M  V30 3718 H 332.708 -4.8423 0.254851 0
M  V30 3719 N 334.051 0.0651679 -1.57465 0
M  V30 3720 C 334.981 1.07693 -2.07182 0
M  V30 3721 C 335.962 1.39962 -0.966673 0
M  V30 3722 O 337.147 1.49475 -1.2398 0
M  V30 3723 C 334.277 2.3885 -2.52127 0
M  V30 3724 C 333.231 2.20917 -3.66579 0
M  V30 3725 C 332.557 3.57515 -3.97601 0
M  V30 3726 C 333.857 1.62493 -4.9638 0
M  V30 3727 H 335.551 0.663199 -2.91962 0
M  V30 3728 H 333.097 0.317569 -1.40455 0
M  V30 3729 H 335.05 3.09928 -2.85522 0
M  V30 3730 H 333.774 2.82215 -1.64384 0
M  V30 3731 H 332.433 1.52279 -3.33477 0
M  V30 3732 H 332.081 3.98463 -3.06979 0
M  V30 3733 H 331.781 3.46353 -4.74672 0
M  V30 3734 H 333.305 4.30013 -4.33499 0
M  V30 3735 H 334.719 2.23445 -5.27963 0
M  V30 3736 H 333.116 1.62009 -5.77818 0
M  V30 3737 H 334.186 0.587041 -4.81333 0
M  V30 3738 N 335.529 1.53961 0.336706 0
M  V30 3739 C 336.777 1.71197 1.07405 0
M  V30 3740 C 337.098 0.481475 1.88962 0
M  V30 3741 O 336.368 -0.504585 1.8929 0
M  V30 3742 H 334.948 0.631185 0.399517 0
M  V30 3743 H 337.61 1.91232 0.376323 0
M  V30 3744 H 336.706 2.58587 1.74755 0
M  V30 3745 N 337.007 -0.598083 1.45811 0
M  V30 3746 C 338.256 -1.35295 1.49594 0
M  V30 3747 C 338.569 -1.95057 0.145679 0
M  V30 3748 O 339.775 -2.71431 0.0612099 0
M  V30 3749 C 338.231 -2.45124 2.63519 0
M  V30 3750 C 337.839 -1.91732 4.04899 0
M  V30 3751 C 339.583 -3.2205 2.76558 0
M  V30 3752 C 337.49 -2.991 5.1019 0
M  V30 3753 H 336.42 -0.508552 0.556679 0
M  V30 3754 H 339.071 -0.639977 1.71978 0
M  V30 3755 H 337.453 -3.19149 2.34435 0
M  V30 3756 H 338.627 -1.24352 4.43704 0
M  V30 3757 H 336.942 -1.27522 3.96393 0
M  V30 3758 H 339.539 -4.0215 3.52391 0
M  V30 3759 H 339.882 -3.73663 1.83526 0
M  V30 3760 H 340.415 -2.55127 3.05213 0
M  V30 3761 H 337.154 -2.52393 6.04961 0
M  V30 3762 H 336.674 -3.65017 4.75944 0
M  V30 3763 H 338.353 -3.63318 5.35359 0
M  V30 3764 N 338.485 -1.33259 -0.841409 0
M  V30 3765 C 339.734 -1.23921 -1.59143 0
M  V30 3766 C 340.047 0.1941 -1.94635 0
M  V30 3767 O 341.253 0.409474 -2.68394 0
M  V30 3768 C 339.709 -2.17119 -2.87032 0
M  V30 3769 C 339.317 -3.65606 -2.58914 0
M  V30 3770 C 341.061 -2.16648 -3.65053 0
M  V30 3771 C 338.968 -4.50726 -3.82884 0
M  V30 3772 H 337.898 -0.460264 -0.597221 0
M  V30 3773 H 340.549 -1.58307 -0.927959 0
M  V30 3774 H 338.931 -1.75663 -3.54906 0
M  V30 3775 H 340.105 -4.15487 -1.99267 0
M  V30 3776 H 338.42 -3.68341 -1.942 0
M  V30 3777 H 341.017 -2.77474 -4.57069 0
M  V30 3778 H 341.36 -1.16088 -3.99787 0
M  V30 3779 H 341.893 -2.56453 -3.041 0
M  V30 3780 H 338.632 -5.52151 -3.53283 0
M  V30 3781 H 338.152 -4.0559 -4.41879 0
M  V30 3782 H 339.831 -4.64401 -4.50489 0
M  V30 3783 N 339.963 1.05934 -1.16686 0
M  V30 3784 C 340.911 2.15603 -0.872817 0
M  V30 3785 C 341.905 1.68647 0.159576 0
M  V30 3786 O 343.111 1.79995 0.0132125 0
M  V30 3787 H 339.486 0.703885 -0.264671 0
M  V30 3788 H 341.457 2.37613 -1.80507 0
M  V30 3789 C 340.206 3.45457 -0.394344 0
M  V30 3790 H 339.529 3.81984 -1.18019 0
M  V30 3791 H 340.969 4.2339 -0.227408 0
M  V30 3792 C 339.428 3.25021 0.88673 0
M  V30 3793 O 339.958 3.50906 1.95519 0
M  V30 3794 N 338.164 2.78437 0.831925 0
M  V30 3795 H 337.711 2.57572 -0.0377619 0
M  V30 3796 H 337.669 2.65144 1.68956 0
M  V30 3797 N 341.441 0.965919 1.2453 0
M  V30 3798 C 342.689 0.625593 1.92174 0
M  V30 3799 C 343.01 -0.841652 1.75901 0
M  V30 3800 O 342.28 -1.60061 1.12948 0
M  V30 3801 H 340.86 0.228388 0.71123 0
M  V30 3802 H 343.522 1.2266 1.51461 0
M  V30 3803 H 342.618 0.864653 2.99884 0
M  V30 3804 N 342.919 -1.39368 0.735821 0
M  V30 3805 C 344.165 -2.00794 0.284544 0
M  V30 3806 C 344.498 -1.58255 -1.12557 0
M  V30 3807 O 343.773 -0.811819 -1.76748 0
M  V30 3808 C 344.056 -3.58011 0.387337 0
M  V30 3809 C 343.909 -4.10566 1.83728 0
M  V30 3810 C 345.228 -4.395 -0.22975 0
M  V30 3811 H 342.347 -0.729501 0.104866 0
M  V30 3812 H 344.989 -1.65564 0.93213 0
M  V30 3813 H 343.139 -3.88154 -0.164006 0
M  V30 3814 H 344.811 -3.91139 2.44556 0
M  V30 3815 H 343.054 -3.64095 2.35833 0
M  V30 3816 H 343.725 -5.19702 1.86047 0
M  V30 3817 H 346.201 -4.15406 0.240257 0
M  V30 3818 H 345.077 -5.48752 -0.127485 0
M  V30 3819 H 345.338 -4.22062 -1.3159 0
M  V30 3820 N 344.397 -0.483516 -1.5 0
M  V30 3821 C 345.625 0.0644831 -2.06799 0
M  V30 3822 C 346.04 1.32399 -1.34596 0
M  V30 3823 O 345.397 1.77626 -0.418946 0
M  V30 3824 C 345.448 0.339927 -3.59898 0
M  V30 3825 O 345.169 -0.869635 -4.29382 0
M  V30 3826 C 346.67 0.933515 -4.33359 0
M  V30 3827 H 343.89 -0.0126333 -0.670881 0
M  V30 3828 H 346.434 -0.675864 -1.93009 0
M  V30 3829 H 344.589 1.03022 -3.7345 0
M  V30 3830 H 345.003 -0.62179 -5.20801 0
M  V30 3831 H 346.477 1.07593 -5.41413 0
M  V30 3832 H 346.954 1.92685 -3.94676 0
M  V30 3833 H 347.56 0.281221 -4.24369 0
M  V30 3834 N 345.875 1.56104 -0.216619 0
M  V30 3835 C 346.838 2.18819 0.681962 0
M  V30 3836 C 347.838 1.14866 1.12528 0
M  V30 3837 O 349.028 1.40128 1.03488 0
M  V30 3838 C 346.16 2.80756 1.93362 0
M  V30 3839 H 347.353 2.99595 0.135254 0
M  V30 3840 H 344.906 1.56265 0.0330003 0
M  V30 3841 H 345.641 2.03837 2.52232 0
M  V30 3842 H 345.426 3.56876 1.62426 0
M  V30 3843 H 346.916 3.28844 2.57393 0
M  V30 3844 N 347.353 -0.0568162 1.57498 0
M  V30 3845 C 348.316 -1.05038 2.03715 0
M  V30 3846 C 349.316 -1.30709 0.936577 0
M  V30 3847 O 350.506 -1.26178 1.20103 0
M  V30 3848 C 347.638 -2.39034 2.43055 0
M  V30 3849 H 348.831 -0.651715 2.92733 0
M  V30 3850 H 346.384 -0.302947 1.53336 0
M  V30 3851 H 347.119 -2.83703 1.57108 0
M  V30 3852 H 346.904 -2.21739 3.2338 0
M  V30 3853 H 348.394 -3.10421 2.79336 0
M  V30 3854 N 348.832 -1.54138 -0.328536 0
M  V30 3855 C 349.795 -1.82462 -1.38709 0
M  V30 3856 C 350.795 -0.696229 -1.44946 0
M  V30 3857 O 351.985 -0.964535 -1.4506 0
M  V30 3858 C 349.117 -1.98018 -2.77492 0
M  V30 3859 H 350.31 -2.77037 -1.14851 0
M  V30 3860 H 347.863 -1.45779 -0.563751 0
M  V30 3861 H 348.598 -1.05637 -3.06613 0
M  V30 3862 H 348.383 -2.80124 -2.74359 0
M  V30 3863 H 349.873 -2.21396 -3.54081 0
M  V30 3864 N 350.31 0.590341 -1.46126 0
M  V30 3865 C 351.559 1.34499 -1.50309 0
M  V30 3866 C 351.872 1.94977 -0.156021 0
M  V30 3867 O 353.078 2.71395 -0.0756037 0
M  V30 3868 C 351.534 2.43723 -2.64815 0
M  V30 3869 C 351.142 1.89582 -4.0591 0
M  V30 3870 C 352.886 3.20579 -2.78262 0
M  V30 3871 C 350.793 2.9639 -5.11769 0
M  V30 3872 H 349.723 0.505593 -0.559368 0
M  V30 3873 H 352.374 0.630848 -1.72315 0
M  V30 3874 H 350.756 3.17902 -2.36124 0
M  V30 3875 H 351.93 1.21997 -4.44357 0
M  V30 3876 H 350.245 1.25418 -3.97063 0
M  V30 3877 H 352.842 4.00276 -3.54519 0
M  V30 3878 H 353.185 3.72684 -1.85505 0
M  V30 3879 H 353.718 2.53505 -3.06562 0
M  V30 3880 H 350.457 2.49181 -6.06291 0
M  V30 3881 H 349.977 3.62487 -4.77873 0
M  V30 3882 H 351.656 3.60474 -5.37278 0
M  V30 3883 N 351.788 1.33704 0.83433 0
M  V30 3884 C 352.738 1.20899 1.93306 0
M  V30 3885 C 353.722 0.110783 1.60518 0
M  V30 3886 O 354.914 0.339331 1.73717 0
M  V30 3887 C 352.043 0.955018 3.29749 0
M  V30 3888 C 351.129 2.09587 3.68692 0
M  V30 3889 N 351.52 3.34621 3.79292 0
M  V30 3890 C 349.818 2.00358 3.98463 0
M  V30 3891 C 350.519 4.09472 4.13167 0
M  V30 3892 N 349.495 3.37954 4.25779 0
M  V30 3893 H 353.297 2.15665 1.99664 0
M  V30 3894 H 350.811 1.25777 1.02732 0
M  V30 3895 H 352.808 0.844208 4.08263 0
M  V30 3896 H 351.468 0.0159317 3.24696 0
M  V30 3897 H 352.479 3.69313 3.63082 0
M  V30 3898 H 349.156 1.14137 4.01596 0
M  V30 3899 H 350.546 5.17391 4.28668 0
M  V30 3900 N 353.266 -1.05314 1.17247 0
M  V30 3901 C 354.214 -2.15137 0.884238 0
M  V30 3902 C 355.208 -1.68729 -0.15063 0
M  V30 3903 O 356.414 -1.8 -0.00366673 0
M  V30 3904 H 352.789 -0.702471 0.2684 0
M  V30 3905 H 354.76 -2.36652 1.81764 0
M  V30 3906 C 353.509 -3.45243 0.412659 0
M  V30 3907 H 352.832 -3.81352 1.20043 0
M  V30 3908 H 354.272 -4.23263 0.249858 0
M  V30 3909 C 352.731 -3.25487 -0.86948 0
M  V30 3910 O 353.261 -3.51938 -1.93655 0
M  V30 3911 N 351.467 -2.78875 -0.817147 0
M  V30 3912 H 351.014 -2.57549 0.0514211 0
M  V30 3913 H 350.972 -2.66036 -1.67547 0
M  V30 3914 N 354.744 -0.972509 -1.24016 0
M  V30 3915 C 355.99 -0.637978 -1.92504 0
M  V30 3916 C 356.323 0.825383 -1.75787 0
M  V30 3917 O 355.598 1.59442 -1.11393 0
M  V30 3918 C 355.881 -1.01942 -3.45369 0
M  V30 3919 C 355.734 -2.53983 -3.71231 0
M  V30 3920 C 357.053 -0.55751 -4.36555 0
M  V30 3921 H 354.172 -0.233248 -0.699117 0
M  V30 3922 H 356.814 -1.21238 -1.46292 0
M  V30 3923 H 354.964 -0.530656 -3.84859 0
M  V30 3924 H 356.636 -3.10374 -3.41271 0
M  V30 3925 H 354.879 -2.96968 -3.16216 0
M  V30 3926 H 355.55 -2.75723 -4.78206 0
M  V30 3927 H 358.026 -0.977029 -4.04467 0
M  V30 3928 H 356.902 -0.85292 -5.42233 0
M  V30 3929 H 357.163 0.542328 -4.38761 0
M  V30 3930 N 356.222 1.38976 -0.743202 0
M  V30 3931 C 357.172 2.27843 -0.084513 0
M  V30 3932 C 358.156 1.44677 0.704094 0
M  V30 3933 O 359.348 1.67511 0.571755 0
M  V30 3934 C 356.477 3.33466 0.815781 0
M  V30 3935 C 355.563 4.24095 0.0208844 0
M  V30 3936 N 355.954 4.95609 -1.0102 0
M  V30 3937 C 354.252 4.45303 0.249293 0
M  V30 3938 C 354.953 5.62287 -1.49024 0
M  V30 3939 N 353.929 5.37571 -0.807377 0
M  V30 3940 H 357.731 2.80593 -0.87436 0
M  V30 3941 H 355.245 1.51755 -0.578283 0
M  V30 3942 H 357.242 3.96008 1.30321 0
M  V30 3943 H 355.902 2.82276 1.6047 0
M  V30 3944 H 356.913 4.98849 -1.39176 0
M  V30 3945 H 353.59 4.0504 1.01237 0
M  V30 3946 H 354.98 6.29519 -2.34853 0
M  V30 3947 N 357.7 0.491464 1.49741 0
M  V30 3948 C 358.977 -0.118984 1.95238 0
M  V30 3949 C 359.357 -1.55044 1.43264 0
M  V30 3950 O 358.705 -2.19287 0.642287 0
M  V30 3951 C 358.915 -0.0414187 3.48975 0
M  V30 3952 C 360.263 -0.220133 4.24029 0
M  V30 3953 O 361.287 -0.117055 3.56008 0
M  V30 3954 O 360.146 -0.430567 5.44801 0
M  V30 3955 H 357.24 -0.100536 0.820866 0
M  V30 3956 H 359.786 0.553322 1.60426 0
M  V30 3957 H 358.558 0.957214 3.79412 0
M  V30 3958 H 358.181 -0.754292 3.9038 0
M  V30 3959 N 359.178 -1.55987 0.224894 0
M  V30 3960 C 360.427 -1.97566 -0.406273 0
M  V30 3961 C 360.74 -1.11569 -1.6066 0
M  V30 3962 O 361.946 -1.43062 -2.3075 0
M  V30 3963 C 360.402 -3.51474 -0.774207 0
M  V30 3964 C 360.01 -4.46179 0.403496 0
M  V30 3965 C 361.754 -4.01758 -1.37079 0
M  V30 3966 C 359.661 -5.91399 0.0129412 0
M  V30 3967 H 358.591 -0.737777 -0.155565 0
M  V30 3968 H 361.242 -1.80659 0.321635 0
M  V30 3969 H 359.624 -3.63994 -1.55963 0
M  V30 3970 H 360.798 -4.45409 1.18101 0
M  V30 3971 H 359.113 -4.06255 0.913536 0
M  V30 3972 H 361.71 -5.07756 -1.67596 0
M  V30 3973 H 362.053 -3.47805 -2.28773 0
M  V30 3974 H 362.586 -3.92475 -0.648733 0
M  V30 3975 H 359.325 -6.49341 0.896451 0
M  V30 3976 H 358.845 -5.95356 -0.728821 0
M  V30 3977 H 360.524 -6.45683 -0.412582 0
M  V30 3978 N 360.656 0.0484629 -1.57525 0
M  V30 3979 C 362.067 0.597486 -1.76881 0
M  V30 3980 C 362.418 1.76664 -0.853475 0
M  V30 3981 O 361.543 2.16357 -0.0433656 0
M  V30 3982 C 362.138 1.09066 -3.20765 0
M  V30 3983 C 360.697 1.58535 -3.41385 0
M  V30 3984 C 359.844 0.514868 -2.72478 0
M  V30 3985 H 362.795 -0.177758 -1.57701 0
M  V30 3986 H 362.816 1.95875 -3.2621 0
M  V30 3987 H 362.328 0.239521 -3.8736 0
M  V30 3988 H 360.429 2.45898 -2.79937 0
M  V30 3989 H 360.542 1.64622 -4.49929 0
M  V30 3990 H 358.906 0.965407 -2.35695 0
M  V30 3991 H 359.689 -0.32648 -3.41744 0
M  V30 3992 N 362.134 1.5431 0.320358 0
M  V30 3993 C 363.064 1.86912 1.3995 0
M  V30 3994 C 364.045 0.726211 1.53819 0
M  V30 3995 O 365.23 0.980233 1.67646 0
M  V30 3996 C 362.36 2.09932 2.7667 0
M  V30 3997 C 361.314 3.25776 2.77586 0
M  V30 3998 C 360.64 3.34173 4.17412 0
M  V30 3999 C 361.94 4.6335 2.41048 0
M  V30 4000 H 363.634 2.77292 1.12914 0
M  V30 4001 H 361.18 1.33421 0.541738 0
M  V30 4002 H 363.133 2.31324 3.52232 0
M  V30 4003 H 361.857 1.16304 3.0519 0
M  V30 4004 H 360.516 3.04276 2.04479 0
M  V30 4005 H 360.164 2.38098 4.43078 0
M  V30 4006 H 359.864 4.12033 4.18931 0
M  V30 4007 H 361.388 3.57803 4.94782 0
M  V30 4008 H 362.802 4.84602 3.06324 0
M  V30 4009 H 361.199 5.43782 2.53813 0
M  V30 4010 H 362.269 4.65381 1.36193 0
M  V30 4011 N 363.613 -0.582584 1.46437 0
M  V30 4012 C 364.561 -1.71272 1.5738 0
M  V30 4013 C 365.555 -1.63524 0.44229 0
M  V30 4014 O 366.761 -1.69016 0.619166 0
M  V30 4015 H 363.136 -0.566273 0.494813 0
M  V30 4016 H 365.107 -1.59174 2.52401 0
M  V30 4017 C 363.856 -3.09658 1.58136 0
M  V30 4018 H 363.179 -3.16291 2.44541 0
M  V30 4019 H 364.619 -3.88494 1.69847 0
M  V30 4020 C 363.078 -3.3547 0.310026 0
M  V30 4021 O 363.608 -3.97199 -0.599683 0
M  V30 4022 N 361.814 -2.89925 0.197901 0
M  V30 4023 H 361.361 -2.39873 0.93909 0
M  V30 4024 H 361.319 -3.07568 -0.65185 0
M  V30 4025 N 365.091 -1.34144 -0.827227 0
M  V30 4026 C 366.319 -1.29325 -1.61501 0
M  V30 4027 C 366.734 0.13354 -1.88327 0
M  V30 4028 O 366.091 1.0793 -1.47164 0
M  V30 4029 C 366.142 -2.07746 -2.95844 0
M  V30 4030 O 365.863 -3.4486 -2.70191 0
M  V30 4031 C 367.364 -2.10273 -3.90256 0
M  V30 4032 H 364.584 -0.445069 -0.50215 0
M  V30 4033 H 367.128 -1.76693 -1.02955 0
M  V30 4034 H 365.283 -1.6403 -3.5096 0
M  V30 4035 H 365.697 -3.85345 -3.55822 0
M  V30 4036 H 367.171 -2.69575 -4.81698 0
M  V30 4037 H 367.648 -1.096 -4.25305 0
M  V30 4038 H 368.254 -2.54059 -3.41078 0
M  V30 4039 N 366.569 1.04691 -1.17803 0
M  V30 4040 C 367.797 1.81446 -0.99423 0
M  V30 4041 C 368.212 1.83174 0.457459 0
M  V30 4042 O 367.569 1.26265 1.31771 0
M  V30 4043 C 367.62 3.27334 -1.5341 0
M  V30 4044 O 367.341 3.25798 -2.92895 0
M  V30 4045 C 368.842 4.20759 -1.39559 0
M  V30 4046 H 366.062 0.571599 -0.351447 0
M  V30 4047 H 368.606 1.31982 -1.56208 0
M  V30 4048 H 366.761 3.74052 -1.00815 0
M  V30 4049 H 367.175 4.17144 -3.17949 0
M  V30 4050 H 368.649 5.21084 -1.82141 0
M  V30 4051 H 369.126 4.37856 -0.343394 0
M  V30 4052 H 369.732 3.79901 -1.91195 0
M  V30 4053 N 368.047 0.979072 1.23499 0
M  V30 4054 C 368.994 0.517904 2.24914 0
M  V30 4055 C 369.964 -0.442525 1.60097 0
M  V30 4056 O 371.149 -0.350365 1.87556 0
M  V30 4057 C 368.289 -0.174813 3.44657 0
M  V30 4058 C 367.402 0.825721 4.24035 0
M  V30 4059 C 366.537 0.107946 5.3109 0
M  V30 4060 C 365.576 1.09778 6.02175 0
M  V30 4061 N 364.713 0.40925 7.00906 0
M  V30 4062 H 369.553 1.38751 2.63727 0
M  V30 4063 H 367.09 0.695303 1.2963 0
M  V30 4064 H 369.048 -0.593233 4.12961 0
M  V30 4065 H 367.678 -1.0083 3.06648 0
M  V30 4066 H 366.73 1.36253 3.55161 0
M  V30 4067 H 368.042 1.58005 4.73113 0
M  V30 4068 H 367.196 -0.367904 6.05583 0
M  V30 4069 H 365.935 -0.678994 4.8295 0
M  V30 4070 H 364.94 1.5844 5.26476 0
M  V30 4071 H 366.165 1.88536 6.52404 0
M  V30 4072 H 364.111 -0.358506 6.5502 0
M  V30 4073 H 364.028 1.10226 7.47921 0
M  V30 4074 H 365.296 -0.0442557 7.79487 0
M  V30 4075 N 369.525 -1.3858 0.750561 0
M  V30 4076 C 370.455 -2.33102 0.136237 0
M  V30 4077 C 371.436 -1.54713 -0.706965 0
M  V30 4078 O 372.621 -1.83043 -0.648769 0
M  V30 4079 C 369.751 -3.38882 -0.760017 0
M  V30 4080 C 368.705 -4.27995 -0.0197785 0
M  V30 4081 C 368.031 -5.24605 -1.03408 0
M  V30 4082 C 369.331 -5.09554 1.14684 0
M  V30 4083 H 371.025 -2.84726 0.925822 0
M  V30 4084 H 368.571 -1.36898 0.446654 0
M  V30 4085 H 370.524 -4.0397 -1.19943 0
M  V30 4086 H 369.248 -2.85734 -1.58189 0
M  V30 4087 H 367.907 -3.64409 0.400184 0
M  V30 4088 H 367.555 -4.67746 -1.84994 0
M  V30 4089 H 367.255 -5.85081 -0.543464 0
M  V30 4090 H 368.779 -5.9257 -1.47288 0
M  V30 4091 H 370.193 -5.67899 0.785118 0
M  V30 4092 H 368.59 -5.7925 1.56812 0
M  V30 4093 H 369.66 -4.4347 1.96118 0
M  V30 4094 N 371.003 -0.499398 -1.49478 0
M  V30 4095 C 372.231 0.0425456 -2.06856 0
M  V30 4096 C 372.646 1.30964 -1.35992 0
M  V30 4097 O 372.003 1.77172 -0.437762 0
M  V30 4098 C 372.054 0.301735 -3.60239 0
M  V30 4099 O 371.775 -0.915127 -4.28436 0
M  V30 4100 C 373.276 0.887499 -4.34325 0
M  V30 4101 H 370.496 -0.0197482 -0.670709 0
M  V30 4102 H 373.04 -0.696297 -1.92281 0
M  V30 4103 H 371.195 0.990556 -3.74522 0
M  V30 4104 H 371.609 -0.676993 -5.20113 0
M  V30 4105 H 373.083 1.01845 -5.42523 0
M  V30 4106 H 373.56 1.88488 -3.96698 0
M  V30 4107 H 374.166 0.236196 -4.24644 0
M  V30 4108 N 372.481 1.55866 -0.233164 0
M  V30 4109 C 373.414 2.16794 0.712442 0
M  V30 4110 C 374.392 1.1158 1.18273 0
M  V30 4111 O 375.576 1.39897 1.26337 0
M  V30 4112 C 372.703 2.75757 1.96661 0
M  V30 4113 C 371.749 3.93902 1.63533 0
M  V30 4114 S 372.582 5.30223 0.74995 0
M  V30 4115 C 373.738 5.92631 2.01343 0
M  V30 4116 H 373.971 2.96662 0.194617 0
M  V30 4117 H 371.504 1.5439 -0.0177425 0
M  V30 4118 H 373.462 3.10367 2.68668 0
M  V30 4119 H 372.123 1.9586 2.45556 0
M  V30 4120 H 371.316 4.33702 2.56747 0
M  V30 4121 H 370.918 3.60499 0.995804 0
M  V30 4122 H 373.21 6.09312 2.96219 0
M  V30 4123 H 374.153 6.88388 1.65915 0
M  V30 4124 H 374.561 5.21571 2.15925 0
M  V30 4125 N 373.959 -0.0401083 1.57549 0
M  V30 4126 C 375.189 -0.744115 1.92734 0
M  V30 4127 C 375.597 -1.70005 0.830348 0
M  V30 4128 O 374.94 -1.82576 -0.20286 0
M  V30 4129 C 375.002 -1.56516 3.2364 0
M  V30 4130 C 374.666 -0.7752 4.50377 0
M  V30 4131 C 375.663 -0.0803326 5.19838 0
M  V30 4132 C 373.348 -0.733002 4.96923 0
M  V30 4133 C 375.342 0.646154 6.34116 0
M  V30 4134 C 373.029 -0.00276321 6.111 0
M  V30 4135 C 374.027 0.685585 6.7955 0
M  V30 4136 O 373.715 1.40399 7.91545 0
M  V30 4137 H 373.447 -0.214861 0.640945 0
M  V30 4138 H 376.001 -0.00503675 2.05399 0
M  V30 4139 H 374.231 -2.3478 3.07271 0
M  V30 4140 H 375.92 -2.15076 3.44234 0
M  V30 4141 H 376.686 -0.104035 4.84888 0
M  V30 4142 H 372.565 -1.25827 4.43496 0
M  V30 4143 H 376.109 1.18398 6.87479 0
M  V30 4144 H 372.006 0.0229012 6.45496 0
M  V30 4145 H 372.774 1.31653 8.07843 0
M  V30 4146 N 375.437 -1.54477 -0.31217 0
M  V30 4147 C 376.367 -1.87652 -1.38957 0
M  V30 4148 C 377.348 -0.734358 -1.53431 0
M  V30 4149 O 378.533 -0.98911 -1.67123 0
M  V30 4150 C 375.663 -2.11396 -2.75552 0
M  V30 4151 C 374.617 -3.27243 -2.75855 0
M  V30 4152 C 373.943 -3.36382 -4.15633 0
M  V30 4153 C 375.243 -4.64622 -2.38587 0
M  V30 4154 H 376.937 -2.77887 -1.11442 0
M  V30 4155 H 374.483 -1.33707 -0.534655 0
M  V30 4156 H 376.436 -2.33189 -3.51 0
M  V30 4157 H 375.16 -1.17921 -3.04569 0
M  V30 4158 H 373.819 -3.05356 -2.02863 0
M  V30 4159 H 373.467 -2.40445 -4.41809 0
M  V30 4160 H 373.167 -4.14249 -4.1674 0
M  V30 4161 H 374.691 -3.60422 -4.92877 0
M  V30 4162 H 376.105 -4.86219 -3.03749 0
M  V30 4163 H 374.502 -5.45121 -2.50925 0
M  V30 4164 H 375.572 -4.66097 -1.33723 0
M  V30 4165 N 376.915 0.57481 -1.46744 0
M  V30 4166 C 378.192 1.3352 -1.4294 0
M  V30 4167 C 378.572 2.10775 -0.117009 0
M  V30 4168 O 377.92 2.09966 0.901474 0
M  V30 4169 C 378.13 2.25456 -2.66403 0
M  V30 4170 C 379.478 2.87035 -3.12883 0
M  V30 4171 O 380.502 2.35766 -2.67007 0
M  V30 4172 O 379.361 3.80179 -3.92589 0
M  V30 4173 H 376.455 0.600318 -0.568812 0
M  V30 4174 H 379.001 0.595171 -1.58921 0
M  V30 4175 H 377.773 1.67851 -3.53471 0
M  V30 4176 H 377.396 3.06785 -2.52921 0
M  V30 4177 N 378.394 1.34581 0.820102 0
M  V30 4178 C 379.643 1.26437 1.57151 0
M  V30 4179 C 379.956 -0.163111 1.94919 0
M  V30 4180 O 381.162 -0.366722 2.69012 0
M  V30 4181 C 379.618 2.21658 2.83541 0
M  V30 4182 C 379.226 3.69679 2.53065 0
M  V30 4183 C 380.97 2.22428 3.61561 0
M  V30 4184 C 378.877 4.56761 3.75664 0
M  V30 4185 H 377.807 0.469707 0.589823 0
M  V30 4186 H 380.458 1.59763 0.902656 0
M  V30 4187 H 378.84 1.81287 3.52067 0
M  V30 4188 H 380.014 4.18605 1.92631 0
M  V30 4189 H 378.329 3.71384 1.88316 0
M  V30 4190 H 380.926 2.8471 4.52597 0
M  V30 4191 H 381.269 1.22434 3.97889 0
M  V30 4192 H 381.802 2.61259 2.99981 0
M  V30 4193 H 378.541 5.57702 3.44454 0
M  V30 4194 H 378.061 4.12568 4.35371 0
M  V30 4195 H 379.74 4.71509 4.43044 0
M  V30 4196 N 379.872 -1.04064 1.18357 0
M  V30 4197 C 381.12 -1.76915 0.977013 0
M  V30 4198 C 381.441 -1.88624 -0.494577 0
M  V30 4199 O 380.711 -1.41125 -1.3587 0
M  V30 4200 H 379.291 -0.65535 0.358504 0
M  V30 4201 H 381.953 -1.25592 1.49039 0
M  V30 4202 H 381.049 -2.78178 1.41504 0
M  V30 4203 N 381.35 -0.985608 -1.22978 0
M  V30 4204 C 382.575 -0.675254 -1.961 0
M  V30 4205 C 383 0.752154 -1.72407 0
M  V30 4206 O 382.358 1.5131 -0.998751 0
M  V30 4207 C 382.406 -0.977899 -3.47087 0
M  V30 4208 O 381.51 -0.072685 -4.12336 0
M  V30 4209 H 380.851 -0.253443 -0.613728 0
M  V30 4210 H 383.381 -1.32061 -1.56272 0
M  V30 4211 H 383.391 -0.916739 -3.97567 0
M  V30 4212 H 382.066 -2.01807 -3.63657 0
M  V30 4213 H 380.643 -0.188703 -3.72422 0
M  V30 4214 N 382.828 1.3818 -0.7579 0
M  V30 4215 C 383.775 2.30416 -0.133057 0
M  V30 4216 C 384.745 1.50398 0.704957 0
M  V30 4217 O 385.93 1.79014 0.660192 0
M  V30 4218 C 383.07 3.36834 0.750813 0
M  V30 4219 C 382.183 4.31879 -0.102297 0
M  V30 4220 C 381.318 5.25368 0.784979 0
M  V30 4221 C 380.357 6.12058 -0.0715046 0
M  V30 4222 N 379.494 6.97832 0.772972 0
M  V30 4223 H 384.334 2.83274 -0.925186 0
M  V30 4224 H 381.871 1.39461 -0.467866 0
M  V30 4225 H 383.829 3.97145 1.27794 0
M  V30 4226 H 382.459 2.85374 1.50868 0
M  V30 4227 H 381.511 3.72991 -0.747095 0
M  V30 4228 H 382.823 4.92921 -0.763552 0
M  V30 4229 H 381.977 5.90818 1.37911 0
M  V30 4230 H 380.716 4.64703 1.47996 0
M  V30 4231 H 379.721 5.456 -0.678272 0
M  V30 4232 H 380.946 6.74793 -0.763606 0
M  V30 4233 H 378.892 6.3971 1.45282 0
M  V30 4234 H 378.809 7.55812 0.168709 0
M  V30 4235 H 380.077 7.67687 1.35194 0
M  V30 4236 N 384.306 0.507319 1.49211 0
M  V30 4237 C 385.254 -0.281364 2.30892 0
M  V30 4238 C 386.248 -0.95687 1.39787 0
M  V30 4239 O 387.454 -0.883838 1.56807 0
M  V30 4240 H 383.829 -0.109597 0.743971 0
M  V30 4241 H 385.8 0.42744 2.95323 0
M  V30 4242 C 384.549 -1.32918 3.21291 0
M  V30 4243 H 383.872 -0.818799 3.91326 0
M  V30 4244 H 385.312 -1.85288 3.81372 0
M  V30 4245 C 383.771 -2.35074 2.41333 0
M  V30 4246 O 384.301 -3.4108 2.12197 0
M  V30 4247 N 382.507 -2.07705 2.03241 0
M  V30 4248 H 382.054 -1.2152 2.27136 0
M  V30 4249 H 382.012 -2.76283 1.50051 0
M  V30 4250 N 385.784 -1.5574 0.241426 0
M  V30 4251 C 387.033 -1.97986 -0.385295 0
M  V30 4252 C 387.346 -1.13267 -1.59468 0
M  V30 4253 O 388.552 -1.45501 -2.2922 0
M  V30 4254 C 387.008 -3.52275 -0.736884 0
M  V30 4255 C 386.616 -4.45726 0.450796 0
M  V30 4256 C 388.36 -4.03189 -1.3281 0
M  V30 4257 C 386.267 -5.91352 0.0756662 0
M  V30 4258 H 385.197 -0.739386 -0.147731 0
M  V30 4259 H 387.848 -1.80308 0.340779 0
M  V30 4260 H 386.23 -3.65628 -1.52094 0
M  V30 4261 H 387.404 -4.44131 1.22819 0
M  V30 4262 H 385.719 -4.05264 0.956573 0
M  V30 4263 H 388.316 -5.09505 -1.62201 0
M  V30 4264 H 388.659 -3.50212 -2.25071 0
M  V30 4265 H 389.192 -3.93141 -0.607069 0
M  V30 4266 H 385.931 -6.48354 0.965272 0
M  V30 4267 H 385.451 -5.96095 -0.665635 0
M  V30 4268 H 387.13 -6.46084 -0.344075 0
M  V30 4269 N 387.262 0.0317525 -1.57568 0
M  V30 4270 C 388.21 1.05165 -2.07468 0
M  V30 4271 C 389.204 1.3761 -0.98792 0
M  V30 4272 O 390.41 1.36546 -1.17282 0
M  V30 4273 H 386.785 0.35666 -0.66204 0
M  V30 4274 H 388.756 0.604958 -2.92203 0
M  V30 4275 C 387.505 2.34488 -2.56731 0
M  V30 4276 H 386.828 2.10383 -3.39969 0
M  V30 4277 H 388.268 3.04203 -2.95358 0
M  V30 4278 C 386.727 3.03266 -1.46736 0
M  V30 4279 O 387.257 3.92988 -0.832069 0
M  V30 4280 N 385.463 2.6455 -1.20256 0
M  V30 4281 H 385.01 1.91674 -1.72102 0
M  V30 4282 H 384.968 3.10886 -0.468737 0
M  V30 4283 N 388.74 1.54641 0.303973 0
M  V30 4284 C 389.986 1.74038 1.04109 0
M  V30 4285 C 390.319 0.523051 1.87024 0
M  V30 4286 O 389.594 -0.479874 1.88487 0
M  V30 4287 C 389.877 3.02761 1.94955 0
M  V30 4288 C 389.73 4.34787 1.1524 0
M  V30 4289 C 391.049 3.27336 2.94175 0
M  V30 4290 H 388.168 0.63323 0.377079 0
M  V30 4291 H 390.81 1.87354 0.316001 0
M  V30 4292 H 388.96 2.9154 2.56782 0
M  V30 4293 H 390.632 4.57922 0.557236 0
M  V30 4294 H 388.875 4.31407 0.455053 0
M  V30 4295 H 389.546 5.21116 1.8205 0
M  V30 4296 H 392.022 3.38148 2.42477 0
M  V30 4297 H 390.898 4.18726 3.54908 0
M  V30 4298 H 391.159 2.45491 3.67677 0
M  V30 4299 N 390.218 -0.567019 1.47046 0
M  V30 4300 C 391.466 -1.322 1.52864 0
M  V30 4301 C 391.787 -1.94088 0.188388 0
M  V30 4302 O 391.057 -1.7941 -0.786693 0
M  V30 4303 H 389.637 -0.490894 0.563056 0
M  V30 4304 H 392.299 -0.662879 1.83281 0
M  V30 4305 H 391.395 -2.12062 2.2899 0
M  V30 4306 N 391.696 -1.35014 -0.812953 0
M  V30 4307 C 392.945 -1.27269 -1.56479 0
M  V30 4308 C 393.258 0.152771 -1.95002 0
M  V30 4309 O 394.464 0.352451 -2.69203 0
M  V30 4310 C 392.92 -2.23159 -2.82362 0
M  V30 4311 C 392.528 -3.71016 -2.511 0
M  V30 4312 C 394.272 -2.24342 -3.60376 0
M  V30 4313 C 392.179 -4.58746 -3.73237 0
M  V30 4314 H 391.109 -0.472829 -0.587324 0
M  V30 4315 H 393.76 -1.6024 -0.894171 0
M  V30 4316 H 392.142 -1.83151 -3.51101 0
M  V30 4317 H 393.316 -4.1962 -1.90409 0
M  V30 4318 H 391.631 -3.72378 -1.86343 0
M  V30 4319 H 394.228 -2.87107 -4.51081 0
M  V30 4320 H 394.571 -1.24542 -3.97234 0
M  V30 4321 H 395.104 -2.62846 -2.98591 0
M  V30 4322 H 391.843 -5.59521 -3.41492 0
M  V30 4323 H 391.363 -4.14871 -4.33176 0
M  V30 4324 H 393.042 -4.73852 -4.40537 0
M  V30 4325 N 393.175 1.03435 -1.18907 0
M  V30 4326 C 394.138 2.09756 -0.923844 0
M  V30 4327 C 395.138 1.60528 0.093416 0
M  V30 4328 O 396.328 1.73631 -0.140727 0
M  V30 4329 C 393.46 3.38692 -0.387354 0
M  V30 4330 H 394.653 2.34719 -1.86674 0
M  V30 4331 H 392.206 1.19959 -1.00197 0
M  V30 4332 H 392.941 3.19396 0.561845 0
M  V30 4333 H 392.726 3.75742 -1.12074 0
M  V30 4334 H 394.216 4.17016 -0.220694 0
M  V30 4335 N 394.653 0.992116 1.22453 0
M  V30 4336 C 395.881 0.685944 1.95198 0
M  V30 4337 C 396.296 -0.749233 1.73297 0
M  V30 4338 O 395.653 -1.50549 1.03156 0
M  V30 4339 C 395.704 0.981395 3.47924 0
M  V30 4340 O 395.425 2.36018 3.6909 0
M  V30 4341 C 396.926 0.692815 4.37853 0
M  V30 4342 H 394.146 0.253821 0.621141 0
M  V30 4343 H 396.69 1.32668 1.55626 0
M  V30 4344 H 394.845 0.386481 3.85467 0
M  V30 4345 H 395.259 2.45884 4.63294 0
M  V30 4346 H 396.733 0.949818 5.43767 0
M  V30 4347 H 397.21 -0.373181 4.37612 0
M  V30 4348 H 397.816 1.26874 4.05935 0
M  V30 4349 N 396.131 -1.37776 0.765217 0
M  V30 4350 C 397.38 -1.99092 0.323307 0
M  V30 4351 C 397.693 -1.61434 -1.10446 0
M  V30 4352 O 398.899 -2.15805 -1.64743 0
M  V30 4353 C 397.355 -3.56019 0.527098 0
M  V30 4354 C 396.963 -4.0262 1.96471 0
M  V30 4355 C 398.707 -4.2424 0.148483 0
M  V30 4356 C 396.614 -5.52233 2.11644 0
M  V30 4357 H 395.544 -0.744846 0.117137 0
M  V30 4358 H 398.195 -1.57391 0.943417 0
M  V30 4359 H 396.577 -3.95667 -0.162372 0
M  V30 4360 H 397.751 -3.74234 2.68859 0
M  V30 4361 H 396.066 -3.47161 2.29931 0
M  V30 4362 H 398.663 -5.34159 0.240456 0
M  V30 4363 H 399.006 -4.06446 -0.900422 0
M  V30 4364 H 399.539 -3.89872 0.79025 0
M  V30 4365 H 396.278 -5.74945 3.1483 0
M  V30 4366 H 395.798 -5.82324 1.4373 0
M  V30 4367 H 397.477 -6.18106 1.91193 0
M  V30 4368 N 397.609 -0.515225 -1.4894 0
M  V30 4369 C 398.834 0.022727 -2.07388 0
M  V30 4370 C 399.259 1.2876 -1.37122 0
M  V30 4371 O 398.617 1.76067 -0.432431 0
M  V30 4372 C 398.665 0.244869 -3.59768 0
M  V30 4373 O 397.769 1.31667 -3.90817 0
M  V30 4374 H 397.11 -0.0325506 -0.663202 0
M  V30 4375 H 399.64 -0.718918 -1.91553 0
M  V30 4376 H 399.65 0.47205 -4.0526 0
M  V30 4377 H 398.325 -0.679194 -4.10317 0
M  V30 4378 H 396.902 1.07331 -3.5712 0
M  V30 4379 N 399.087 1.5561 -0.249682 0
M  V30 4380 C 400.334 1.99011 0.374287 0
M  V30 4381 C 400.662 1.13785 1.57744 0
M  V30 4382 O 399.917 0.189326 1.94782 0
M  V30 4383 C 400.216 3.4775 0.824887 0
M  V30 4384 C 399.882 4.50086 -0.270819 0
M  V30 4385 C 398.544 4.77791 -0.571746 0
M  V30 4386 C 400.896 5.11312 -1.01041 0
M  V30 4387 C 398.224 5.63997 -1.61629 0
M  V30 4388 C 400.576 5.98651 -2.0445 0
M  V30 4389 C 399.24 6.24688 -2.35204 0
M  V30 4390 H 398.51 0.728233 0.136961 0
M  V30 4391 H 401.157 1.88122 -0.358087 0
M  V30 4392 H 399.462 3.55985 1.63651 0
M  V30 4393 H 401.159 3.78721 1.31799 0
M  V30 4394 H 397.749 4.28592 -0.026136 0
M  V30 4395 H 401.933 4.89953 -0.791177 0
M  V30 4396 H 397.189 5.82425 -1.85988 0
M  V30 4397 H 401.363 6.45135 -2.62248 0
M  V30 4398 H 398.99 6.91281 -3.16282 0
M  V30 4399 N 400.565 -0.0233959 1.57583 0
M  V30 4400 C 401.811 -0.714119 1.89811 0
M  V30 4401 C 402.144 -1.74702 0.848113 0
M  V30 4402 O 401.419 -1.94023 -0.136135 0
M  V30 4403 C 401.702 -1.37853 3.32669 0
M  V30 4404 C 401.555 -0.358764 4.48367 0
M  V30 4405 C 402.874 -2.31101 3.7454 0
M  V30 4406 H 399.993 -0.25814 0.690314 0
M  V30 4407 H 402.635 0.0230927 1.89986 0
M  V30 4408 H 400.785 -2.00689 3.3265 0
M  V30 4409 H 402.457 0.268115 4.6052 0
M  V30 4410 H 400.7 0.321387 4.32608 0
M  V30 4411 H 401.371 -0.862242 5.45224 0
M  V30 4412 H 403.847 -1.78304 3.75961 0
M  V30 4413 H 402.723 -2.74567 4.75294 0
M  V30 4414 H 402.984 -3.18018 3.0711 0
M  V30 4415 N 402.043 -1.548 -0.295768 0
M  V30 4416 C 402.953 -1.89177 -1.38742 0
M  V30 4417 C 403.969 -0.786481 -1.55211 0
M  V30 4418 O 405.145 -1.08344 -1.69775 0
M  V30 4419 C 402.21 -2.13663 -2.73036 0
M  V30 4420 C 401.271 -3.37349 -2.65508 0
M  V30 4421 C 400.504 -3.60658 -3.93398 0
M  V30 4422 O 400.727 -2.86882 -4.93006 0
M  V30 4423 O 399.661 -4.54179 -3.94975 0
M  V30 4424 H 403.487 -2.82059 -1.12589 0
M  V30 4425 H 401.072 -1.41056 -0.492295 0
M  V30 4426 H 402.954 -2.3094 -3.52484 0
M  V30 4427 H 401.629 -1.23967 -2.99022 0
M  V30 4428 H 400.536 -3.25431 -1.84514 0
M  V30 4429 H 401.869 -4.27192 -2.44474 0
M  V30 4430 N 403.521 0.559213 -1.47345 0
M  V30 4431 C 404.468 1.66645 -1.59682 0
M  V30 4432 C 405.438 1.60168 -0.43994 0
M  V30 4433 O 406.623 1.79031 -0.659736 0
M  V30 4434 C 403.763 3.04969 -1.61518 0
M  V30 4435 C 402.876 3.21897 -2.88108 0
M  V30 4436 C 402.011 4.50608 -2.81294 0
M  V30 4437 C 401.05 4.60961 -4.02717 0
M  V30 4438 N 400.187 5.81024 -3.94151 0
M  V30 4439 H 405.027 1.55439 -2.54249 0
M  V30 4440 H 402.564 0.757219 -1.26113 0
M  V30 4441 H 404.522 3.85064 -1.60566 0
M  V30 4442 H 403.152 3.15015 -0.704645 0
M  V30 4443 H 402.204 2.35248 -2.98936 0
M  V30 4444 H 403.516 3.25412 -3.78032 0
M  V30 4445 H 402.67 5.3896 -2.7858 0
M  V30 4446 H 401.409 4.49568 -1.89049 0
M  V30 4447 H 400.414 3.71021 -4.05738 0
M  V30 4448 H 401.639 4.63761 -4.96087 0
M  V30 4449 H 399.585 5.80938 -3.04708 0
M  V30 4450 H 399.502 5.85909 -4.77752 0
M  V30 4451 H 400.77 6.71744 -3.9545 0
M  V30 4452 N 404.999 1.35443 0.805782 0
M  V30 4453 C 406.276 1.19325 1.54987 0
M  V30 4454 C 406.656 -0.227294 2.09873 0
M  V30 4455 O 406.004 -1.2309 1.92512 0
M  V30 4456 C 406.214 2.26196 2.65775 0
M  V30 4457 C 407.562 2.62043 3.34094 0
M  V30 4458 O 408.586 2.25115 2.76046 0
M  V30 4459 O 407.445 3.25542 4.38958 0
M  V30 4460 H 404.539 0.463623 0.684823 0
M  V30 4461 H 407.085 1.47127 0.845674 0
M  V30 4462 H 405.857 3.21471 2.23096 0
M  V30 4463 H 405.48 1.99667 3.43829 0
M  V30 4464 N 406.477 -1.02803 1.19454 0
M  V30 4465 C 407.424 -2.11099 0.933046 0
M  V30 4466 C 408.394 -1.65571 -0.132447 0
M  V30 4467 O 409.579 -1.90797 0.00987576 0
M  V30 4468 C 406.719 -3.41763 0.478747 0
M  V30 4469 C 405.832 -4.00833 1.6111 0
M  V30 4470 C 404.967 -5.19511 1.10825 0
M  V30 4471 C 404.006 -5.70639 2.21445 0
M  V30 4472 N 403.143 -6.80589 1.72461 0
M  V30 4473 H 407.983 -2.32804 1.86028 0
M  V30 4474 H 405.52 -1.14179 0.927441 0
M  V30 4475 H 407.478 -4.16736 0.196745 0
M  V30 4476 H 406.108 -3.20166 -0.411493 0
M  V30 4477 H 405.16 -3.23066 2.00829 0
M  V30 4478 H 406.472 -4.34794 2.4445 0
M  V30 4479 H 405.626 -6.01645 0.781533 0
M  V30 4480 H 404.365 -4.87086 0.244606 0
M  V30 4481 H 403.37 -4.87116 2.54947 0
M  V30 4482 H 404.595 -6.05102 3.08267 0
M  V30 4483 H 402.541 -6.50016 0.884056 0
M  V30 4484 H 402.458 -7.13681 2.49389 0
M  V30 4485 H 403.726 -7.66317 1.42755 0
M  V30 4486 N 407.956 -0.998596 -1.21925 0
M  V30 4487 C 409.202 -0.678667 -1.91107 0
M  V30 4488 C 409.535 0.78791 -1.77498 0
M  V30 4489 O 408.81 1.57043 -1.1475 0
M  V30 4490 C 409.093 -1.09245 -3.43129 0
M  V30 4491 C 408.946 -2.61801 -3.6576 0
M  V30 4492 C 410.265 -0.649984 -4.35274 0
M  V30 4493 H 407.384 -0.248025 -0.694012 0
M  V30 4494 H 410.026 -1.24314 -1.43688 0
M  V30 4495 H 408.176 -0.612171 -3.83647 0
M  V30 4496 H 409.848 -3.17543 -3.34611 0
M  V30 4497 H 408.091 -3.03609 -3.09845 0
M  V30 4498 H 408.762 -2.85804 -4.7225 0
M  V30 4499 H 411.238 -1.0626 -4.02303 0
M  V30 4500 H 410.114 -0.967743 -5.40302 0
M  V30 4501 H 410.375 0.449139 -4.39813 0
M  V30 4502 N 409.434 1.37368 -0.772513 0
M  V30 4503 C 410.85 1.53059 -0.452231 0
M  V30 4504 C 411.05 1.73065 1.03203 0
M  V30 4505 O 410.106 1.75245 1.81784 0
M  V30 4506 C 411.419 2.72659 -1.26797 0
M  V30 4507 C 412.967 2.86521 -1.25995 0
M  V30 4508 C 413.442 4.09105 -2.05905 0
M  V30 4509 N 414.933 4.16219 -2.03263 0
M  V30 4510 C 415.668 5.10107 -2.61875 0
M  V30 4511 N 415.164 6.09547 -3.29278 0
M  V30 4512 N 416.957 5.02596 -2.51701 0
M  V30 4513 H 409.108 1.22634 -1.7342 0
M  V30 4514 H 411.371 0.597206 -0.736239 0
M  V30 4515 H 411.077 2.64343 -2.31982 0
M  V30 4516 H 410.951 3.66363 -0.897672 0
M  V30 4517 H 413.338 2.94308 -0.216081 0
M  V30 4518 H 413.419 1.93774 -1.66989 0
M  V30 4519 H 413.063 4.0208 -3.10313 0
M  V30 4520 H 412.993 5.00968 -1.62292 0
M  V30 4521 H 415.484 3.45012 -1.54192 0
M  V30 4522 H 415.797 6.77718 -3.71374 0
M  V30 4523 H 414.142 6.09824 -3.33377 0
M  V30 4524 H 417.333 4.23855 -1.98657 0
M  V30 4525 H 417.506 5.75582 -2.97673 0
M  V30 4526 N 410.912 0.523116 1.48665 0
M  V30 4527 C 412.137 -0.0117284 2.07397 0
M  V30 4528 C 412.562 -1.28031 1.37803 0
M  V30 4529 O 411.92 -1.75836 0.441762 0
M  V30 4530 C 411.968 -0.225786 3.59892 0
M  V30 4531 O 411.072 -1.29592 3.91509 0
M  V30 4532 H 410.413 0.0360673 0.66302 0
M  V30 4533 H 412.943 0.729066 1.9117 0
M  V30 4534 H 412.953 -0.450552 4.05505 0
M  V30 4535 H 411.628 0.700944 4.09951 0
M  V30 4536 H 410.205 -1.05436 3.57684 0
M  V30 4537 N 412.39 -1.55475 0.257931 0
M  V30 4538 C 413.806 -1.59307 -0.0966563 0
M  V30 4539 C 414.006 -1.27514 -1.5602 0
M  V30 4540 O 413.062 -1.02774 -2.30637 0
M  V30 4541 C 414.375 -2.99552 0.262481 0
M  V30 4542 C 415.923 -3.1231 0.207683 0
M  V30 4543 C 416.398 -4.54793 0.541012 0
M  V30 4544 N 417.889 -4.6058 0.491921 0
M  V30 4545 C 418.624 -5.68825 0.722857 0
M  V30 4546 N 418.12 -6.85287 1.0175 0
M  V30 4547 N 419.913 -5.58296 0.652815 0
M  V30 4548 H 412.064 -1.74409 1.21224 0
M  V30 4549 H 414.327 -0.812424 0.48854 0
M  V30 4550 H 414.033 -3.27593 1.27967 0
M  V30 4551 H 413.907 -3.75019 -0.40508 0
M  V30 4552 H 416.294 -2.84044 -0.800195 0
M  V30 4553 H 416.375 -2.39095 0.909255 0
M  V30 4554 H 416.019 -4.83783 1.5465 0
M  V30 4555 H 415.949 -5.26285 -0.18216 0
M  V30 4556 H 418.44 -3.7691 0.273366 0
M  V30 4557 H 418.753 -7.63725 1.18084 0
M  V30 4558 H 417.098 -6.86945 1.05509 0
M  V30 4559 H 420.289 -4.66189 0.422592 0
M  V30 4560 H 420.462 -6.42582 0.836182 0
M  V30 4561 N 413.868 0.0150385 -1.57593 0
M  V30 4562 C 415.093 0.718067 -1.94573 0
M  V30 4563 C 415.518 1.6734 -0.859005 0
M  V30 4564 O 414.876 1.80362 0.184147 0
M  V30 4565 C 414.924 1.43918 -3.30636 0
M  V30 4566 O 414.028 2.55299 -3.23876 0
M  V30 4567 H 413.369 0.192125 -0.635597 0
M  V30 4568 H 415.899 -0.0336708 -2.04572 0
M  V30 4569 H 415.909 1.80598 -3.65853 0
M  V30 4570 H 414.584 0.738619 -4.09289 0
M  V30 4571 H 413.161 2.21058 -3.00312 0
M  V30 4572 N 415.346 1.54954 0.287554 0
M  V30 4573 C 416.592 1.75132 1.02257 0
M  V30 4574 C 416.925 0.542858 1.86458 0
M  V30 4575 O 416.2 -0.459856 1.88986 0
M  V30 4576 C 416.483 3.04812 1.91733 0
M  V30 4577 C 416.336 4.35985 1.10622 0
M  V30 4578 C 417.655 3.30438 2.90687 0
M  V30 4579 H 414.774 0.637194 0.370341 0
M  V30 4580 H 417.416 1.87678 0.296111 0
M  V30 4581 H 415.566 2.94247 2.53675 0
M  V30 4582 H 417.238 4.58487 0.508636 0
M  V30 4583 H 415.481 4.31865 0.409271 0
M  V30 4584 H 416.152 5.23017 1.76513 0
M  V30 4585 H 418.628 3.40701 2.38877 0
M  V30 4586 H 417.504 4.22467 3.50447 0
M  V30 4587 H 417.765 2.49377 3.65053 0
M  V30 4588 N 416.824 -0.551391 1.4764 0
M  V30 4589 C 417.756 -1.67333 1.56628 0
M  V30 4590 C 418.769 -1.56398 0.452045 0
M  V30 4591 O 419.958 -1.6325 0.721926 0
M  V30 4592 C 417.058 -3.05841 1.45994 0
M  V30 4593 C 416.231 -3.42472 2.72088 0
M  V30 4594 C 415.29 -4.60168 2.55209 0
M  V30 4595 O 414.316 -4.64458 3.2904 0
M  V30 4596 N 415.518 -5.57024 1.63416 0
M  V30 4597 H 418.283 -1.60066 2.53375 0
M  V30 4598 H 415.844 -0.738169 1.44093 0
M  V30 4599 H 417.836 -3.8242 1.32428 0
M  V30 4600 H 416.406 -3.07302 0.573071 0
M  V30 4601 H 415.626 -2.55284 3.00373 0
M  V30 4602 H 416.914 -3.63723 3.55785 0
M  V30 4603 H 416.312 -5.56319 1.02594 0
M  V30 4604 H 414.869 -6.32906 1.558 0
M  V30 4605 N 418.302 -1.35869 -0.798587 0
M  V30 4606 C 419.548 -1.2978 -1.55836 0
M  V30 4607 C 419.881 0.125322 -1.93795 0
M  V30 4608 O 419.156 1.07658 -1.61987 0
M  V30 4609 C 419.439 -2.21188 -2.84162 0
M  V30 4610 C 419.292 -3.72155 -2.52628 0
M  V30 4611 C 420.611 -2.11545 -3.85923 0
M  V30 4612 H 417.73 -0.472769 -0.565383 0
M  V30 4613 H 420.372 -1.66341 -0.918192 0
M  V30 4614 H 418.522 -1.90139 -3.38791 0
M  V30 4615 H 420.194 -4.13682 -2.04121 0
M  V30 4616 H 418.437 -3.92042 -1.85704 0
M  V30 4617 H 419.108 -4.31511 -3.44242 0
M  V30 4618 H 421.584 -2.38855 -3.40716 0
M  V30 4619 H 420.46 -2.77688 -4.73477 0
M  V30 4620 H 420.721 -1.09987 -4.282 0
M  V30 4621 N 419.78 1.02168 -1.19998 0
M  V30 4622 C 421.01 1.79036 -1.031 0
M  V30 4623 C 421.418 1.84409 0.423078 0
M  V30 4624 O 420.761 1.29228 1.30559 0
M  V30 4625 C 420.823 3.25185 -1.53281 0
M  V30 4626 C 420.487 3.43431 -3.01503 0
M  V30 4627 C 421.484 3.33063 -3.99206 0
M  V30 4628 C 419.169 3.69412 -3.40353 0
M  V30 4629 C 421.163 3.48413 -5.33748 0
M  V30 4630 C 418.85 3.84406 -4.75053 0
M  V30 4631 C 419.848 3.7391 -5.71559 0
M  V30 4632 O 419.536 3.88452 -7.03818 0
M  V30 4633 H 419.268 0.570043 -0.363355 0
M  V30 4634 H 421.822 1.29524 -1.59414 0
M  V30 4635 H 420.052 3.75756 -0.913483 0
M  V30 4636 H 421.741 3.83671 -1.32481 0
M  V30 4637 H 422.507 3.12934 -3.70537 0
M  V30 4638 H 418.386 3.76671 -2.65782 0
M  V30 4639 H 421.93 3.40137 -6.09059 0
M  V30 4640 H 417.827 4.04035 -5.03415 0
M  V30 4641 H 418.595 4.055 -7.10993 0
M  V30 4642 N 421.258 1.00505 1.21394 0
M  V30 4643 C 422.221 0.570459 2.21987 0
M  V30 4644 C 423.221 -0.353211 1.56873 0
M  V30 4645 O 424.411 -0.14349 1.73608 0
M  V30 4646 C 421.543 -0.168555 3.40483 0
M  V30 4647 H 422.736 1.46021 2.6195 0
M  V30 4648 H 420.289 0.793565 1.34656 0
M  V30 4649 H 421.024 -1.07374 3.06009 0
M  V30 4650 H 420.809 0.494823 3.88965 0
M  V30 4651 H 422.299 -0.460362 4.15055 0
M  V30 4652 N 422.737 -1.36956 0.779787 0
M  V30 4653 C 423.977 -2.01328 0.353043 0
M  V30 4654 C 424.341 -1.60558 -1.05286 0
M  V30 4655 O 425.542 -2.1745 -1.58016 0
M  V30 4656 C 423.813 -3.53874 0.500822 0
M  V30 4657 S 425.372 -4.38506 0.16053 0
M  V30 4658 H 422.19 -0.69799 0.13539 0
M  V30 4659 H 424.792 -1.67016 1.01617 0
M  V30 4660 H 423.496 -3.81034 1.52451 0
M  V30 4661 H 423.027 -3.92994 -0.178574 0
M  V30 4662 H 425.042 -4.85153 -1.04121 0
M  V30 4663 N 424.215 -0.530993 -1.48385 0
M  V30 4664 C 425.125 0.23503 -2.3342 0
M  V30 4665 C 426.141 0.93801 -1.46552 0
M  V30 4666 O 427.317 0.912745 -1.7953 0
M  V30 4667 C 424.382 1.26778 -3.22689 0
M  V30 4668 C 423.443 0.575038 -4.25431 0
M  V30 4669 C 422.676 1.55858 -5.10435 0
M  V30 4670 O 422.899 2.79129 -4.97437 0
M  V30 4671 O 421.833 1.09742 -5.91811 0
M  V30 4672 H 425.659 -0.461794 -3.00169 0
M  V30 4673 H 423.244 -0.291903 -1.46521 0
M  V30 4674 H 425.126 1.86457 -3.77904 0
M  V30 4675 H 423.801 1.94699 -2.586 0
M  V30 4676 H 422.708 -0.0622782 -3.74048 0
M  V30 4677 H 424.041 -0.062253 -4.92161 0
M  V30 4678 N 425.693 1.55336 -0.266172 0
M  V30 4679 C 426.918 2.04258 0.359661 0
M  V30 4680 C 427.343 1.14359 1.49344 0
M  V30 4681 O 426.701 0.140369 1.80756 0
M  V30 4682 C 426.749 3.50997 0.826635 0
M  V30 4683 O 425.853 3.64204 1.93466 0
M  V30 4684 H 425.194 0.659668 0.075727 0
M  V30 4685 H 427.724 2.00694 -0.39786 0
M  V30 4686 H 427.734 3.9219 1.12477 0
M  V30 4687 H 426.409 4.159 -0.00293032 0
M  V30 4688 H 424.986 3.34913 1.63974 0
M  V30 4689 N 427.171 -0.0066808 1.57599 0
M  V30 4690 C 428.101 -0.999296 2.11036 0
M  V30 4691 C 429.082 -1.36278 1.01795 0
M  V30 4692 O 430.267 -1.4477 1.29442 0
M  V30 4693 C 427.397 -2.29328 2.60818 0
M  V30 4694 C 426.351 -2.07159 3.74525 0
M  V30 4695 C 425.677 -3.42512 4.10596 0
M  V30 4696 C 426.977 -1.43959 5.02069 0
M  V30 4697 H 428.671 -0.554382 2.94223 0
M  V30 4698 H 426.217 -0.265221 1.41536 0
M  V30 4699 H 428.17 -2.99117 2.96828 0
M  V30 4700 H 426.894 -2.7592 1.74745 0
M  V30 4701 H 425.553 -1.39797 3.38899 0
M  V30 4702 H 425.201 -3.86795 3.21556 0
M  V30 4703 H 424.901 -3.28498 4.87199 0
M  V30 4704 H 426.425 -4.13628 4.4916 0
M  V30 4705 H 427.839 -2.03696 5.35893 0
M  V30 4706 H 426.236 -1.40452 5.83432 0
M  V30 4707 H 427.306 -0.407992 4.83181 0
M  V30 4708 N 428.649 -1.55105 -0.279332 0
M  V30 4709 C 429.559 -1.90638 -1.36727 0
M  V30 4710 C 430.575 -0.802899 -1.54368 0
M  V30 4711 O 431.751 -1.10138 -1.68616 0
M  V30 4712 C 428.816 -2.16547 -2.70755 0
M  V30 4713 C 427.877 -3.40146 -2.61915 0
M  V30 4714 C 427.11 -3.6481 -3.8955 0
M  V30 4715 O 427.333 -2.92095 -4.89935 0
M  V30 4716 O 426.267 -4.58343 -3.90135 0
M  V30 4717 H 430.093 -2.83237 -1.09591 0
M  V30 4718 H 427.678 -1.4157 -0.477306 0
M  V30 4719 H 429.56 -2.34665 -3.50014 0
M  V30 4720 H 428.235 -1.27131 -2.9769 0
M  V30 4721 H 427.142 -3.2737 -1.81052 0
M  V30 4722 H 428.475 -4.29761 -2.3993 0
M  V30 4723 N 430.127 0.543554 -1.4793 0
M  V30 4724 C 431.075 1.67039 -1.61866 0
M  V30 4725 C 432.069 1.62294 -0.48549 0
M  V30 4726 O 433.275 1.67315 -0.66376 0
M  V30 4727 H 429.65 0.552954 -0.509652 0
M  V30 4728 H 431.621 1.52426 -2.56533 0
M  V30 4729 C 430.37 3.05357 -1.6629 0
M  V30 4730 H 429.693 3.09696 -2.5284 0
M  V30 4731 H 431.133 3.83855 -1.80088 0
M  V30 4732 C 429.592 3.34531 -0.398861 0
M  V30 4733 O 430.122 3.98649 0.494162 0
M  V30 4734 N 428.328 2.89299 -0.2747 0
M  V30 4735 H 427.875 2.37298 -1.00236 0
M  V30 4736 H 427.833 3.09188 0.570075 0
M  V30 4737 N 431.605 1.3629 0.791371 0
M  V30 4738 C 432.553 1.30514 1.92533 0
M  V30 4739 C 433.547 0.197285 1.68247 0
M  V30 4740 O 434.753 0.364176 1.76278 0
M  V30 4741 H 431.128 0.406263 0.632815 0
M  V30 4742 H 433.099 2.26282 1.94523 0
M  V30 4743 C 431.848 1.10933 3.29529 0
M  V30 4744 H 431.171 1.95427 3.48781 0
M  V30 4745 H 432.611 1.10937 4.0923 0
M  V30 4746 C 431.07 -0.186123 3.36385 0
M  V30 4747 O 431.6 -1.17664 3.84081 0
M  V30 4748 N 429.806 -0.230128 2.89687 0
M  V30 4749 H 429.353 0.576545 2.51065 0
M  V30 4750 H 429.311 -1.09658 2.94657 0
M  V30 4751 N 433.083 -1.0153 1.20538 0
M  V30 4752 C 434.308 -1.79283 1.04271 0
M  V30 4753 C 434.733 -1.8372 -0.403544 0
M  V30 4754 O 434.091 -1.27321 -1.2907 0
M  V30 4755 C 434.139 -3.21535 1.63241 0
M  V30 4756 O 433.243 -4.03099 0.870908 0
M  V30 4757 H 432.584 -0.55293 0.367647 0
M  V30 4758 H 435.114 -1.27696 1.59859 0
M  V30 4759 H 435.124 -3.72243 1.6703 0
M  V30 4760 H 433.799 -3.1762 2.68497 0
M  V30 4761 H 432.376 -3.61693 0.907323 0
M  V30 4762 N 434.561 -1.01147 -1.20859 0
M  V30 4763 C 435.809 -0.696486 -1.89719 0
M  V30 4764 C 436.13 0.775788 -1.78904 0
M  V30 4765 O 435.4 1.55759 -1.18811 0
M  V30 4766 H 433.98 -0.254628 -0.702263 0
M  V30 4767 H 436.642 -1.28197 -1.46804 0
M  V30 4768 H 435.738 -0.975357 -2.96468 0
M  V30 4769 N 436.039 1.36541 -0.78704 0
M  V30 4770 C 436.987 2.31965 -0.171724 0
M  V30 4771 C 437.981 1.55689 0.667631 0
M  V30 4772 O 439.187 1.70969 0.562981 0
M  V30 4773 H 435.562 0.751101 -0.0367545 0
M  V30 4774 H 437.533 2.81428 -0.992017 0
M  V30 4775 C 436.282 3.40968 0.680904 0
M  V30 4776 H 435.605 3.99775 0.0443961 0
M  V30 4777 H 437.045 4.10063 1.07815 0
M  V30 4778 C 435.504 2.82338 1.83813 0
M  V30 4779 O 436.034 2.74311 2.93456 0
M  V30 4780 N 434.24 2.39661 1.6435 0
M  V30 4781 H 433.787 2.46389 0.751668 0
M  V30 4782 H 433.745 2.00779 2.4194 0
M  V30 4783 N 437.518 0.538854 1.48102 0
M  V30 4784 C 438.465 -0.219042 2.29758 0
M  V30 4785 C 439.435 -0.925562 1.37922 0
M  V30 4786 O 440.62 -0.924855 1.66886 0
M  V30 4787 C 437.76 -1.25452 3.2149 0
M  V30 4788 C 436.873 -0.555943 4.28408 0
M  V30 4789 C 436.008 -1.57512 5.0731 0
M  V30 4790 C 435.047 -0.860498 6.06021 0
M  V30 4791 N 434.184 -1.82564 6.77949 0
M  V30 4792 H 439.024 0.483449 2.94052 0
M  V30 4793 H 436.561 0.250247 1.44956 0
M  V30 4794 H 438.519 -1.86727 3.7308 0
M  V30 4795 H 437.149 -1.92528 2.591 0
M  V30 4796 H 436.201 0.170938 3.80016 0
M  V30 4797 H 437.513 0.00474616 4.988 0
M  V30 4798 H 436.667 -2.26191 5.62959 0
M  V30 4799 H 435.406 -2.16972 4.36778 0
M  V30 4800 H 434.411 -0.159686 5.49568 0
M  V30 4801 H 435.636 -0.271897 6.78555 0
M  V30 4802 H 433.582 -2.40915 6.10161 0
M  V30 4803 H 433.499 -1.31662 7.44447 0
M  V30 4804 H 434.767 -2.50414 7.38182 0
M  V30 4805 N 438.996 -1.55193 0.274407 0
M  V30 4806 C 440.245 -1.98758 -0.343213 0
M  V30 4807 C 440.558 -1.16624 -1.5703 0
M  V30 4808 O 441.764 -1.5033 -2.26082 0
M  V30 4809 C 440.22 -3.53759 -0.661996 0
M  V30 4810 C 439.828 -4.4467 0.54524 0
M  V30 4811 C 441.572 -4.05916 -1.24228 0
M  V30 4812 C 439.479 -5.91058 0.201084 0
M  V30 4813 H 438.409 -0.742353 -0.132014 0
M  V30 4814 H 441.06 -1.79545 0.378948 0
M  V30 4815 H 439.442 -3.68772 -1.44304 0
M  V30 4816 H 440.616 -4.41426 1.32212 0
M  V30 4817 H 438.931 -4.03143 1.04232 0
M  V30 4818 H 441.528 -5.12831 -1.51357 0
M  V30 4819 H 441.871 -3.54908 -2.17592 0
M  V30 4820 H 442.404 -3.9434 -0.523542 0
M  V30 4821 H 439.143 -6.46161 1.10258 0
M  V30 4822 H 438.663 -5.97373 -0.539045 0
M  V30 4823 H 440.342 -6.46669 -0.206954 0
M  V30 4824 N 440.474 -0.00167713 -1.576 0
M  V30 4825 C 441.751 0.719951 -1.81868 0
M  V30 4826 C 442.131 1.91895 -0.879747 0
M  V30 4827 O 441.479 2.28389 0.0711423 0
M  V30 4828 C 441.689 1.12409 -3.30402 0
M  V30 4829 C 443.037 1.52724 -3.96182 0
M  V30 4830 O 444.061 1.21784 -3.34734 0
M  V30 4831 O 442.92 2.10265 -5.04431 0
M  V30 4832 H 440.014 0.350707 -0.748955 0
M  V30 4833 H 442.56 -0.0272597 -1.69678 0
M  V30 4834 H 441.332 0.269532 -3.90371 0
M  V30 4835 H 440.955 1.93035 -3.47596 0
M  V30 4836 N 441.952 1.55251 0.271103 0
M  V30 4837 C 442.885 1.83191 1.36075 0
M  V30 4838 C 443.863 0.685091 1.47463 0
M  V30 4839 O 445.047 0.928292 1.64058 0
M  V30 4840 C 442.174 1.99521 2.73696 0
M  V30 4841 C 441.22 3.22081 2.79582 0
M  V30 4842 S 442.053 4.79388 2.38636 0
M  V30 4843 C 443.209 4.98693 3.78228 0
M  V30 4844 H 443.442 2.75327 1.12171 0
M  V30 4845 H 440.975 1.47046 0.470833 0
M  V30 4846 H 442.933 2.09613 3.52948 0
M  V30 4847 H 441.594 1.0827 2.9485 0
M  V30 4848 H 440.787 3.304 3.80594 0
M  V30 4849 H 440.389 3.10589 2.08352 0
M  V30 4850 H 442.681 4.84551 4.73515 0
M  V30 4851 H 443.624 6.00738 3.7486 0
M  V30 4852 H 444.032 4.26665 3.69618 0
M  V30 4853 N 443.43 -0.535701 1.48216 0
M  V30 4854 C 444.36 -1.65014 1.65204 0
M  V30 4855 C 445.341 -1.62554 0.501011 0
M  V30 4856 O 446.526 -1.7984 0.732886 0
M  V30 4857 C 443.656 -3.03616 1.68626 0
M  V30 4858 C 442.61 -3.20932 2.83172 0
M  V30 4859 C 441.936 -4.60537 2.71679 0
M  V30 4860 C 443.236 -3.04249 4.24535 0
M  V30 4861 H 444.93 -1.51053 2.58502 0
M  V30 4862 H 442.476 -0.725262 1.24402 0
M  V30 4863 H 444.429 -3.81446 1.79099 0
M  V30 4864 H 443.153 -3.18587 0.719026 0
M  V30 4865 H 441.812 -2.45517 2.72244 0
M  V30 4866 H 441.46 -4.72336 1.72937 0
M  V30 4867 H 441.16 -4.73069 3.48538 0
M  V30 4868 H 442.684 -5.40475 2.84112 0
M  V30 4869 H 444.098 -3.71877 4.36326 0
M  V30 4870 H 442.495 -3.28278 5.02348 0
M  V30 4871 H 443.565 -2.00739 4.41397 0
M  V30 4872 N 444.908 -1.36708 -0.784132 0
M  V30 4873 C 445.838 -1.34153 -1.91116 0
M  V30 4874 C 446.819 -0.212121 -1.68772 0
M  V30 4875 O 448.004 -0.410581 -1.8981 0
M  V30 4876 C 445.134 -1.13535 -3.28218 0
M  V30 4877 C 444.088 -2.23356 -3.65097 0
M  V30 4878 C 443.414 -1.87875 -5.00607 0
M  V30 4879 C 444.714 -3.65473 -3.73131 0
M  V30 4880 H 446.408 -2.28459 -1.93512 0
M  V30 4881 H 443.954 -1.09973 -0.929618 0
M  V30 4882 H 445.907 -1.10381 -4.06687 0
M  V30 4883 H 444.631 -0.156804 -3.26223 0
M  V30 4884 H 443.29 -2.25645 -2.88929 0
M  V30 4885 H 442.938 -0.885814 -4.95139 0
M  V30 4886 H 442.638 -2.61406 -5.26252 0
M  V30 4887 H 444.162 -1.86286 -5.81489 0
M  V30 4888 H 445.576 -3.65382 -4.41779 0
M  V30 4889 H 443.973 -4.37953 -4.10265 0
M  V30 4890 H 445.043 -3.99995 -2.74102 0
M  V30 4891 N 446.386 1.0089 -1.21074 0
M  V30 4892 C 447.349 2.0775 -0.968129 0
M  V30 4893 C 448.349 1.6069 0.0593445 0
M  V30 4894 O 449.539 1.73293 -0.177525 0
M  V30 4895 C 446.671 3.37794 -0.459108 0
M  V30 4896 H 447.864 2.30707 -1.9161 0
M  V30 4897 H 445.417 1.17807 -1.02719 0
M  V30 4898 H 446.152 3.20516 0.49397 0
M  V30 4899 H 445.937 3.7328 -1.20019 0
M  V30 4900 H 447.427 4.16454 -0.309099 0
M  V30 4901 N 447.864 1.01787 1.20321 0
M  V30 4902 C 448.774 0.598898 2.26827 0
M  V30 4903 C 449.79 -0.36418 1.70146 0
M  V30 4904 O 450.966 -0.224812 2.00141 0
M  V30 4905 C 448.031 -0.0549769 3.46656 0
M  V30 4906 C 447.092 0.954205 4.18561 0
M  V30 4907 C 446.325 0.331439 5.3267 0
M  V30 4908 O 446.548 -0.86851 5.63749 0
M  V30 4909 O 445.482 1.0488 5.92692 0
M  V30 4910 H 449.308 1.48562 2.64883 0
M  V30 4911 H 446.893 0.787434 1.26964 0
M  V30 4912 H 448.775 -0.420102 4.19301 0
M  V30 4913 H 447.45 -0.915876 3.10473 0
M  V30 4914 H 446.357 1.37072 3.48083 0
M  V30 4915 H 447.69 1.78511 4.58688 0
M  V30 4916 N 449.342 -1.36122 0.79427 0
M  V30 4917 C 450.29 -2.31871 0.184023 0
M  V30 4918 C 451.284 -1.56041 -0.659365 0
M  V30 4919 O 452.49 -1.71266 -0.553906 0
M  V30 4920 H 448.865 -0.750896 0.0407373 0
M  V30 4921 H 450.836 -2.80898 1.00693 0
M  V30 4922 C 449.585 -3.41324 -0.662813 0
M  V30 4923 H 448.908 -3.99793 -0.0231944 0
M  V30 4924 H 450.348 -4.10629 -1.05639 0
M  V30 4925 C 448.807 -2.83308 -1.82313 0
M  V30 4926 O 449.337 -2.75863 -2.91997 0
M  V30 4927 N 447.543 -2.40529 -1.63077 0
M  V30 4928 H 447.09 -2.46785 -0.738591 0
M  V30 4929 H 447.048 -2.02059 -2.40872 0
M  V30 4930 N 450.82 -0.546701 -1.47814 0
M  V30 4931 C 451.75 0.195317 -2.32682 0
M  V30 4932 C 452.731 0.918981 -1.43139 0
M  V30 4933 O 453.916 0.901501 -1.72008 0
M  V30 4934 C 451.046 1.23237 -3.247 0
M  V30 4935 C 450 0.625818 -4.234 0
M  V30 4936 C 449.326 1.76674 -5.04669 0
M  V30 4937 C 450.626 -0.413515 -5.2066 0
M  V30 4938 H 452.32 -0.513184 -2.94969 0
M  V30 4939 H 449.866 -0.248241 -1.41844 0
M  V30 4940 H 451.819 1.75955 -3.82907 0
M  V30 4941 H 450.543 1.97067 -2.60446 0
M  V30 4942 H 449.202 0.120023 -3.66403 0
M  V30 4943 H 448.85 2.49383 -4.36826 0
M  V30 4944 H 448.55 1.36673 -5.71484 0
M  V30 4945 H 450.074 2.29738 -5.65732 0
M  V30 4946 H 451.488 0.0272042 -5.73294 0
M  V30 4947 H 449.885 -0.731825 -5.95621 0
M  V30 4948 H 450.955 -1.31325 -4.66778 0
M  V30 4949 N 452.299 1.55045 -0.282633 0
M  V30 4950 C 453.715 1.59441 0.0712997 0
M  V30 4951 C 453.915 1.2998 1.53972 0
M  V30 4952 O 452.971 1.06431 2.28973 0
M  V30 4953 C 454.284 2.99097 -0.310104 0
M  V30 4954 C 455.832 3.1194 -0.257343 0
M  V30 4955 C 456.307 4.53875 -0.613297 0
M  V30 4956 N 457.798 4.5974 -0.565134 0
M  V30 4957 C 458.533 5.67603 -0.81326 0
M  V30 4958 N 458.029 6.83582 -1.1264 0
M  V30 4959 N 459.822 5.57187 -0.741553 0
M  V30 4960 H 451.973 1.72458 -1.23984 0
M  V30 4961 H 454.236 0.804549 -0.501403 0
M  V30 4962 H 453.942 3.25516 -1.33163 0
M  V30 4963 H 453.816 3.75616 0.345366 0
M  V30 4964 H 456.203 2.85281 0.754905 0
M  V30 4965 H 456.284 2.37618 -0.947178 0
M  V30 4966 H 455.928 4.81261 -1.62327 0
M  V30 4967 H 455.858 5.26508 0.09841 0
M  V30 4968 H 458.349 3.76427 -0.333294 0
M  V30 4969 H 458.662 7.6175 -1.30219 0
M  V30 4970 H 457.007 6.85179 -1.16425 0
M  V30 4971 H 460.198 4.65457 -0.496705 0
M  V30 4972 H 460.371 6.41171 -0.938306 0
M  V30 4973 N 453.777 0.010035 1.57597 0
M  V30 4974 C 454.724 -0.978122 2.09049 0
M  V30 4975 C 455.694 -1.33509 0.988159 0
M  V30 4976 O 456.879 -1.43172 1.26121 0
M  V30 4977 C 454.019 -2.26158 2.60666 0
M  V30 4978 C 453.132 -1.96275 3.84838 0
M  V30 4979 C 452.267 -3.18776 4.24918 0
M  V30 4980 C 451.306 -2.84625 5.41899 0
M  V30 4981 N 450.443 -3.99693 5.77226 0
M  V30 4982 H 455.283 -0.532431 2.93205 0
M  V30 4983 H 452.82 -0.251234 1.44939 0
M  V30 4984 H 454.778 -3.01202 2.88675 0
M  V30 4985 H 453.408 -2.68378 1.79369 0
M  V30 4986 H 452.46 -1.11555 3.63675 0
M  V30 4987 H 453.772 -1.67111 4.69974 0
M  V30 4988 H 452.926 -4.02157 4.54262 0
M  V30 4989 H 451.665 -3.51087 3.38511 0
M  V30 4990 H 450.67 -1.99653 5.12268 0
M  V30 4991 H 451.895 -2.53551 6.29991 0
M  V30 4992 H 449.841 -4.31882 4.93776 0
M  V30 4993 H 449.758 -3.74087 6.56959 0
M  V30 4994 H 451.026 -4.83834 6.11167 0
M  V30 4995 N 455.255 -1.55392 -0.262866 0
M  V30 4996 C 456.202 -1.88966 -1.32516 0
M  V30 4997 C 457.172 -0.742187 -1.48596 0
M  V30 4998 O 458.357 -0.99439 -1.62839 0
M  V30 4999 C 455.497 -2.17592 -2.67858 0
M  V30 5000 C 454.61 -3.45061 -2.59917 0
M  V30 5001 C 453.745 -3.63336 -3.87505 0
M  V30 5002 C 452.784 -4.84462 -3.74116 0
M  V30 5003 N 451.921 -4.99342 -4.93561 0
M  V30 5004 H 456.761 -2.79566 -1.03184 0
M  V30 5005 H 454.298 -1.38404 -0.498285 0
M  V30 5006 H 456.256 -2.3219 -3.46617 0
M  V30 5007 H 454.886 -1.30215 -2.95371 0
M  V30 5008 H 453.938 -3.38881 -1.72812 0
M  V30 5009 H 455.25 -4.3396 -2.45926 0
M  V30 5010 H 454.404 -3.77807 -4.74707 0
M  V30 5011 H 453.143 -2.72641 -4.04374 0
M  V30 5012 H 452.148 -4.69985 -2.85297 0
M  V30 5013 H 453.373 -5.76603 -3.58757 0
M  V30 5014 H 451.319 -4.1158 -5.10821 0
M  V30 5015 H 451.236 -5.82303 -4.82141 0
M  V30 5016 H 452.504 -5.18208 -5.82306 0
M  V30 5017 N 456.733 0.527833 -1.48498 0
M  V30 5018 C 457.98 1.28354 -1.56625 0
M  V30 5019 C 458.308 1.93 -0.241096 0
M  V30 5020 O 457.563 1.79967 0.768798 0
M  V30 5021 C 457.862 2.39275 -2.65485 0
M  V30 5022 C 457.528 1.92268 -4.07853 0
M  V30 5023 C 456.19 1.79166 -4.46602 0
M  V30 5024 C 458.542 1.56771 -4.97064 0
M  V30 5025 C 455.87 1.28905 -5.72364 0
M  V30 5026 C 458.222 1.07972 -6.23318 0
M  V30 5027 C 456.886 0.934887 -6.60921 0
M  V30 5028 H 456.156 0.469682 -0.573131 0
M  V30 5029 H 458.803 0.588781 -1.82224 0
M  V30 5030 H 457.108 3.1443 -2.33754 0
M  V30 5031 H 458.805 2.974 -2.68988 0
M  V30 5032 H 455.395 2.03417 -3.77252 0
M  V30 5033 H 459.579 1.65753 -4.67803 0
M  V30 5034 H 454.835 1.16381 -6.00221 0
M  V30 5035 H 459.009 0.795775 -6.91838 0
M  V30 5036 H 456.636 0.543231 -7.58257 0
M  V30 5037 N 458.211 1.37122 0.776871 0
M  V30 5038 C 459.121 1.34651 1.9211 0
M  V30 5039 C 460.137 0.246824 1.7224 0
M  V30 5040 O 461.313 0.48134 1.95563 0
M  V30 5041 C 458.378 1.14748 3.2716 0
M  V30 5042 C 457.439 2.34308 3.5972 0
M  V30 5043 C 456.672 2.15345 4.88326 0
M  V30 5044 O 456.895 1.13507 5.58992 0
M  V30 5045 O 455.829 3.03414 5.1983 0
M  V30 5046 H 459.655 2.31013 1.97146 0
M  V30 5047 H 457.24 1.17799 0.918901 0
M  V30 5048 H 459.122 1.05616 4.0795 0
M  V30 5049 H 457.797 0.214562 3.22988 0
M  V30 5050 H 456.704 2.49011 2.79185 0
M  V30 5051 H 458.037 3.26149 3.68629 0
M  V30 5052 N 459.689 -1.00246 1.21608 0
M  V30 5053 C 460.599 -2.12515 0.993709 0
M  V30 5054 C 461.615 -1.73913 -0.0549939 0
M  V30 5055 O 462.791 -2.00943 0.135619 0
M  V30 5056 C 459.856 -3.42083 0.563953 0
M  V30 5057 C 458.917 -3.94843 1.68516 0
M  V30 5058 C 458.15 -5.18226 1.27582 0
M  V30 5059 O 458.373 -5.70201 0.150506 0
M  V30 5060 O 457.307 -5.64497 2.0887 0
M  V30 5061 H 461.133 -2.34152 1.93407 0
M  V30 5062 H 458.718 -1.10891 1.00118 0
M  V30 5063 H 460.6 -4.20073 0.334194 0
M  V30 5064 H 459.275 -3.21828 -0.347665 0
M  V30 5065 H 458.182 -3.18068 1.96935 0
M  V30 5066 H 459.515 -4.19512 2.5743 0
M  V30 5067 N 461.167 -1.02423 -1.1978 0
M  V30 5068 C 462.114 -0.601023 -2.22837 0
M  V30 5069 C 463.084 0.382801 -1.61629 0
M  V30 5070 O 464.269 0.280514 -1.88727 0
M  V30 5071 C 461.409 0.0467755 -3.45068 0
M  V30 5072 C 460.522 -0.98253 -4.20678 0
M  V30 5073 C 459.657 -0.304982 -5.30324 0
M  V30 5074 C 458.696 -1.32052 -5.97686 0
M  V30 5075 N 457.833 -0.669105 -6.98904 0
M  V30 5076 H 462.673 -1.48444 -2.58396 0
M  V30 5077 H 460.21 -0.742936 -1.2696 0
M  V30 5078 H 462.168 0.439556 -4.14878 0
M  V30 5079 H 460.798 0.893796 -3.10179 0
M  V30 5080 H 459.85 -1.49341 -3.49859 0
M  V30 5081 H 461.162 -1.75455 -4.66923 0
M  V30 5082 H 460.316 0.142893 -6.06532 0
M  V30 5083 H 459.055 0.499283 -4.85138 0
M  V30 5084 H 458.06 -1.7787 -5.20233 0
M  V30 5085 H 459.285 -2.1262 -6.44957 0
M  V30 5086 H 457.231 0.115152 -6.55899 0
M  V30 5087 H 457.148 -1.37908 -7.43315 0
M  V30 5088 H 458.416 -0.245076 -7.79115 0
M  V30 5089 N 462.645 1.35699 -0.801477 0
M  V30 5090 C 463.875 2.02862 -0.3912 0
M  V30 5091 C 464.283 1.60552 1.00099 0
M  V30 5092 O 463.626 0.796215 1.65548 0
M  V30 5093 C 463.688 3.57386 -0.389299 0
M  V30 5094 C 463.352 4.22943 -1.73113 0
M  V30 5095 C 464.349 4.44984 -2.68859 0
M  V30 5096 C 462.034 4.60167 -2.01373 0
M  V30 5097 C 464.028 5.03345 -3.91053 0
M  V30 5098 C 461.715 5.18243 -3.23832 0
M  V30 5099 C 462.713 5.39773 -4.1849 0
M  V30 5100 O 462.401 5.96626 -5.38788 0
M  V30 5101 H 462.133 0.657341 -0.157732 0
M  V30 5102 H 464.687 1.74407 -1.08496 0
M  V30 5103 H 462.917 3.85011 0.361031 0
M  V30 5104 H 464.606 4.059 -0.0020365 0
M  V30 5105 H 465.372 4.1661 -2.48316 0
M  V30 5106 H 461.251 4.42726 -1.28508 0
M  V30 5107 H 464.795 5.20065 -4.64949 0
M  V30 5108 H 460.692 5.46044 -3.44248 0
M  V30 5109 H 461.46 6.15082 -5.40015 0
M  V30 5110 N 464.123 0.554532 1.47522 0
M  V30 5111 C 465.071 -0.207765 2.3167 0
M  V30 5112 C 466.065 -0.911914 1.4276 0
M  V30 5113 O 467.271 -0.833504 1.59539 0
M  V30 5114 H 463.646 -0.0858726 0.747081 0
M  V30 5115 H 465.617 0.521178 2.93813 0
M  V30 5116 C 464.366 -1.2263 3.25357 0
M  V30 5117 H 463.689 -0.693887 3.93732 0
M  V30 5118 H 465.129 -1.73062 3.87073 0
M  V30 5119 C 463.588 -2.27278 2.4869 0
M  V30 5120 O 464.118 -3.34156 2.22941 0
M  V30 5121 N 462.324 -2.01134 2.09746 0
M  V30 5122 H 461.871 -1.14232 2.30887 0
M  V30 5123 H 461.829 -2.71369 1.58765 0
M  V30 5124 N 465.601 -1.54893 0.290851 0
M  V30 5125 C 466.847 -2.0023 -0.321867 0
M  V30 5126 C 467.18 -1.179 -1.54316 0
M  V30 5127 O 466.455 -0.25293 -1.92848 0
M  V30 5128 C 466.738 -3.53456 -0.688515 0
M  V30 5129 C 466.591 -4.46532 0.541209 0
M  V30 5130 C 467.91 -4.13057 -1.51895 0
M  V30 5131 H 465.029 -0.727891 -0.115515 0
M  V30 5132 H 467.671 -1.85722 0.400931 0
M  V30 5133 H 465.821 -3.6595 -1.30433 0
M  V30 5134 H 467.493 -4.4596 1.17973 0
M  V30 5135 H 465.736 -4.17545 1.17636 0
M  V30 5136 H 466.407 -5.51475 0.240675 0
M  V30 5137 H 468.883 -4.03937 -0.99872 0
M  V30 5138 H 467.759 -5.20448 -1.74429 0
M  V30 5139 H 468.02 -3.64284 -2.50498 0
M  V30 5140 N 467.08 -0.0183926 -1.57589 0
M  V30 5141 C 468.305 0.676634 -1.96052 0
M  V30 5142 C 468.73 1.6548 -0.894307 0
M  V30 5143 O 468.088 1.80712 0.145849 0
M  V30 5144 C 468.136 1.36872 -3.33614 0
M  V30 5145 O 467.24 2.48372 -3.29219 0
M  V30 5146 H 466.581 0.1786 -0.63953 0
M  V30 5147 H 469.111 -0.077056 -2.04455 0
M  V30 5148 H 469.121 1.72797 -3.69601 0
M  V30 5149 H 467.796 0.651636 -4.10763 0
M  V30 5150 H 466.373 2.14639 -3.04934 0
M  V30 5151 N 468.558 1.5553 0.254621 0
M  V30 5152 C 469.807 1.76202 0.981612 0
M  V30 5153 C 470.12 0.580883 1.86776 0
M  V30 5154 O 471.326 0.670448 2.63092 0
M  V30 5155 C 469.782 3.11921 1.79537 0
M  V30 5156 C 469.39 4.37659 0.956991 0
M  V30 5157 C 471.134 3.41936 2.51555 0
M  V30 5158 C 469.041 5.64411 1.76619 0
M  V30 5159 H 467.971 0.656841 0.370237 0
M  V30 5160 H 470.622 1.81969 0.236556 0
M  V30 5161 H 469.004 3.00241 2.58208 0
M  V30 5162 H 470.178 4.60307 0.21315 0
M  V30 5163 H 468.493 4.14922 0.350497 0
M  V30 5164 H 471.09 4.33849 3.12536 0
M  V30 5165 H 471.433 2.62905 3.22779 0
M  V30 5166 H 471.966 3.54797 1.799 0
M  V30 5167 H 468.705 6.46241 1.09783 0
M  V30 5168 H 468.225 5.45877 2.48551 0
M  V30 5169 H 469.904 6.03386 2.33527 0
M  V30 5170 N 470.036 -0.519951 1.48776 0
M  V30 5171 C 470.946 -1.65025 1.66745 0
M  V30 5172 C 471.962 -1.6508 0.549954 0
M  V30 5173 O 473.138 -1.83848 0.822295 0
M  V30 5174 C 470.203 -3.0146 1.71238 0
M  V30 5175 C 469.264 -3.12182 2.94688 0
M  V30 5176 C 468.497 -4.42109 2.98958 0
M  V30 5177 O 468.72 -5.29799 2.1135 0
M  V30 5178 O 467.654 -4.57406 3.91233 0
M  V30 5179 H 471.48 -1.52801 2.62461 0
M  V30 5180 H 469.065 -0.694157 1.32294 0
M  V30 5181 H 470.947 -3.82584 1.76657 0
M  V30 5182 H 469.622 -3.13988 0.786975 0
M  V30 5183 H 468.529 -2.30316 2.94797 0
M  V30 5184 H 469.862 -3.04574 3.86646 0
M  V30 5185 N 471.514 -1.37532 -0.769588 0
M  V30 5186 C 472.462 -1.33561 -1.90432 0
M  V30 5187 C 473.456 -0.224027 -1.67912 0
M  V30 5188 O 474.662 -0.392174 -1.75676 0
M  V30 5189 H 471.037 -0.416279 -0.626271 0
M  V30 5190 H 473.008 -2.29348 -1.90899 0
M  V30 5191 C 471.757 -1.16162 -3.27722 0
M  V30 5192 H 471.08 -2.00951 -3.45628 0
M  V30 5193 H 472.52 -1.17434 -4.07413 0
M  V30 5194 C 470.979 0.132583 -3.36639 0
M  V30 5195 O 471.509 1.11539 -3.85904 0
M  V30 5196 N 469.715 0.184013 -2.90017 0
M  V30 5197 H 469.262 -0.616415 -2.50116 0
M  V30 5198 H 469.22 1.04956 -2.96364 0
M  V30 5199 N 472.992 0.995999 -1.22138 0
M  V30 5200 C 474.269 1.70834 -0.952642 0
M  V30 5201 C 474.649 2.04257 0.533119 0
M  V30 5202 O 473.997 1.72343 1.50034 0
M  V30 5203 C 474.207 2.96119 -1.84701 0
M  V30 5204 C 475.555 3.68962 -2.10124 0
M  V30 5205 O 476.579 3.0612 -1.82124 0
M  V30 5206 O 475.438 4.82017 -2.57531 0
M  V30 5207 H 472.532 0.745498 -0.357997 0
M  V30 5208 H 475.078 1.05262 -1.33109 0
M  V30 5209 H 473.85 2.67898 -2.85213 0
M  V30 5210 H 473.473 3.6943 -1.46995 0
M  V30 5211 N 474.47 1.03057 1.19235 0
M  V30 5212 C 475.417 0.612832 2.22515 0
M  V30 5213 C 476.387 -0.374224 1.61829 0
M  V30 5214 O 477.572 -0.270501 1.88873 0
M  V30 5215 C 474.712 -0.028475 3.45088 0
M  V30 5216 C 473.825 1.00483 4.20151 0
M  V30 5217 C 472.96 0.333102 5.30155 0
M  V30 5218 C 471.999 1.3522 5.96977 0
M  V30 5219 N 471.136 0.70616 6.9854 0
M  V30 5220 H 475.976 1.49812 2.57605 0
M  V30 5221 H 473.513 0.749658 1.26564 0
M  V30 5222 H 475.471 -0.417548 4.15105 0
M  V30 5223 H 474.101 -0.877334 3.10649 0
M  V30 5224 H 473.153 1.51194 3.49062 0
M  V30 5225 H 474.465 1.77929 4.65986 0
M  V30 5226 H 473.619 -0.110725 6.06599 0
M  V30 5227 H 472.358 -0.473547 4.85396 0
M  V30 5228 H 471.363 1.80627 5.19282 0
M  V30 5229 H 472.588 2.16037 6.4382 0
M  V30 5230 H 470.534 -0.0803667 6.55951 0
M  V30 5231 H 470.451 1.41848 7.42573 0
M  V30 5232 H 471.719 0.286391 7.78974 0
M  V30 5233 N 475.948 -1.35272 0.808662 0
M  V30 5234 C 476.895 -2.29764 0.218482 0
M  V30 5235 C 477.865 -1.52911 -0.648652 0
M  V30 5236 O 479.05 -1.81341 -0.593297 0
M  V30 5237 C 476.19 -3.39388 -0.625282 0
M  V30 5238 C 475.303 -4.31202 0.262516 0
M  V30 5239 C 474.438 -5.27919 -0.589451 0
M  V30 5240 C 473.477 -6.11371 0.298617 0
M  V30 5241 N 472.614 -7.0022 -0.513443 0
M  V30 5242 H 477.454 -2.79645 1.02968 0
M  V30 5243 H 474.991 -1.37629 0.519303 0
M  V30 5244 H 476.949 -4.01615 -1.12966 0
M  V30 5245 H 475.579 -2.90777 -1.40173 0
M  V30 5246 H 474.631 -3.69962 0.885013 0
M  V30 5247 H 475.943 -4.89748 0.945971 0
M  V30 5248 H 475.097 -5.95529 -1.15888 0
M  V30 5249 H 473.836 -4.69875 -1.30647 0
M  V30 5250 H 472.841 -5.42707 0.880301 0
M  V30 5251 H 474.066 -6.71494 1.01352 0
M  V30 5252 H 472.012 -6.44662 -1.21439 0
M  V30 5253 H 471.929 -7.55917 0.111922 0
M  V30 5254 H 473.197 -7.72175 -1.06608 0
M  V30 5255 N 477.426 -0.562348 -1.47226 0
M  V30 5256 C 478.389 0.172056 -2.28553 0
M  V30 5257 C 479.389 0.837928 -1.37242 0
M  V30 5258 O 480.579 0.693001 -1.59822 0
M  V30 5259 C 477.711 1.25223 -3.17068 0
M  V30 5260 H 478.904 -0.542401 -2.94954 0
M  V30 5261 H 476.457 -0.319493 -1.53 0
M  V30 5262 H 477.192 1.99892 -2.55369 0
M  V30 5263 H 476.977 0.779515 -3.84273 0
M  V30 5264 H 478.467 1.76791 -3.78332 0
M  V30 5265 N 478.904 1.54736 -0.299062 0
M  V30 5266 C 479.837 2.1962 0.619851 0
M  V30 5267 C 480.815 1.16496 1.13434 0
M  V30 5268 O 481.999 1.4513 1.2029 0
M  V30 5269 C 479.126 2.8385 1.84788 0
M  V30 5270 C 478.172 4.00484 1.46679 0
M  V30 5271 S 479.005 5.32926 0.524389 0
M  V30 5272 C 480.161 6.00638 1.76026 0
M  V30 5273 H 480.394 2.97221 0.0686177 0
M  V30 5274 H 477.927 1.54176 -0.0832085 0
M  V30 5275 H 479.885 3.21483 2.55263 0
M  V30 5276 H 478.546 2.06099 2.37028 0
M  V30 5277 H 477.739 4.44201 2.38121 0
M  V30 5278 H 477.341 3.64398 0.842008 0
M  V30 5279 H 479.633 6.21327 2.70109 0
M  V30 5280 H 480.576 6.94805 1.36569 0
M  V30 5281 H 480.984 5.3026 1.93609 0
M  V30 5282 N 480.382 0.0267497 1.57577 0
M  V30 5283 C 481.798 -0.32962 1.56159 0
M  V30 5284 C 481.998 -1.73059 1.03213 0
M  V30 5285 O 481.054 -2.43233 0.677804 0
M  V30 5286 C 482.367 -0.18039 3.00158 0
M  V30 5287 C 483.915 -0.253334 3.11973 0
M  V30 5288 C 484.39 -0.132921 4.57807 0
M  V30 5289 N 485.881 -0.189979 4.6281 0
M  V30 5290 C 486.616 -0.120554 5.73273 0
M  V30 5291 N 486.112 -0.000180315 6.928 0
M  V30 5292 N 487.905 -0.174369 5.61829 0
M  V30 5293 H 480.056 0.942896 1.90324 0
M  V30 5294 H 482.319 0.3639 0.875375 0
M  V30 5295 H 482.025 0.784576 3.42837 0
M  V30 5296 H 481.899 -0.951565 3.65 0
M  V30 5297 H 484.286 -1.20876 2.69208 0
M  V30 5298 H 484.367 0.548177 2.49857 0
M  V30 5299 H 484.011 0.819073 5.01252 0
M  V30 5300 H 483.941 -0.953264 5.179 0
M  V30 5301 H 486.432 -0.283257 3.76837 0
M  V30 5302 H 486.745 0.0461666 7.72786 0
M  V30 5303 H 485.09 0.034569 6.94991 0
M  V30 5304 H 488.281 -0.266794 4.67339 0
M  V30 5305 H 488.454 -0.116802 6.47895 0
M  V30 5306 N 481.861 -1.55662 -0.24637 0
M  V30 5307 C 482.808 -1.90361 -1.30504 0
M  V30 5308 C 483.778 -0.757905 -1.47801 0
M  V30 5309 O 484.963 -1.01161 -1.61775 0
M  V30 5310 C 482.103 -2.2042 -2.65535 0
M  V30 5311 C 481.216 -3.47799 -2.56242 0
M  V30 5312 C 480.351 -3.67426 -3.8363 0
M  V30 5313 C 479.39 -4.88403 -3.68956 0
M  V30 5314 N 478.527 -5.04548 -4.88237 0
M  V30 5315 H 483.367 -2.80645 -1.00213 0
M  V30 5316 H 480.904 -1.38924 -0.483577 0
M  V30 5317 H 482.862 -2.35853 -3.44135 0
M  V30 5318 H 481.492 -1.3334 -2.93973 0
M  V30 5319 H 480.544 -3.40694 -1.69208 0
M  V30 5320 H 481.856 -4.36544 -2.4131 0
M  V30 5321 H 481.01 -3.82821 -4.70673 0
M  V30 5322 H 479.749 -2.76914 -4.01459 0
M  V30 5323 H 478.754 -4.72984 -2.80296 0
M  V30 5324 H 479.979 -5.80375 -3.52621 0
M  V30 5325 H 477.925 -4.16974 -5.06427 0
M  V30 5326 H 477.842 -5.87384 -4.75937 0
M  V30 5327 H 479.11 -5.24355 -5.76777 0
M  V30 5328 N 483.339 0.512053 -1.4905 0
M  V30 5329 C 484.269 1.62365 -1.67809 0
M  V30 5330 C 485.25 1.61737 -0.526809 0
M  V30 5331 O 486.435 1.78651 -0.761404 0
M  V30 5332 C 483.565 3.00895 -1.73435 0
M  V30 5333 C 482.519 3.16387 -2.88242 0
M  V30 5334 C 481.845 4.56157 -2.78971 0
M  V30 5335 C 483.145 2.97457 -4.29321 0
M  V30 5336 H 484.839 1.46921 -2.60873 0
M  V30 5337 H 482.385 0.705379 -1.2554 0
M  V30 5338 H 484.338 3.78549 -1.85145 0
M  V30 5339 H 483.062 3.17403 -0.769619 0
M  V30 5340 H 481.721 2.41155 -2.76116 0
M  V30 5341 H 481.369 4.69525 -1.8043 0
M  V30 5342 H 481.069 4.67465 -3.5602 0
M  V30 5343 H 482.593 5.35886 -2.92675 0
M  V30 5344 H 484.007 3.64888 -4.42187 0
M  V30 5345 H 482.404 3.20245 -5.07507 0
M  V30 5346 H 483.474 1.93692 -4.44535 0
M  V30 5347 N 484.817 1.37938 0.762283 0
M  V30 5348 C 486.066 1.32989 1.51647 0
M  V30 5349 C 486.379 -0.0802922 1.95435 0
M  V30 5350 O 487.585 -0.252295 2.70325 0
M  V30 5351 C 486.041 2.33485 2.73885 0
M  V30 5352 C 485.649 3.80079 2.37157 0
M  V30 5353 C 487.393 2.37563 3.51801 0
M  V30 5354 C 485.3 4.72283 3.55954 0
M  V30 5355 H 484.23 0.494301 0.56937 0
M  V30 5356 H 486.881 1.63448 0.834083 0
M  V30 5357 H 485.263 1.96056 3.44061 0
M  V30 5358 H 486.437 4.26398 1.74704 0
M  V30 5359 H 484.752 3.79037 1.72395 0
M  V30 5360 H 487.349 3.0365 4.40114 0
M  V30 5361 H 487.692 1.39199 3.92338 0
M  V30 5362 H 488.225 2.73747 2.8863 0
M  V30 5363 H 484.964 5.7181 3.2049 0
M  V30 5364 H 484.484 4.30663 4.1748 0
M  V30 5365 H 486.163 4.89876 4.22647 0
M  V30 5366 N 486.295 -0.989507 1.22664 0
M  V30 5367 C 487.541 -1.7321 1.05481 0
M  V30 5368 C 487.874 -1.89852 -0.408635 0
M  V30 5369 O 487.149 -1.44416 -1.30285 0
M  V30 5370 C 487.432 -3.1357 1.77047 0
M  V30 5371 C 487.285 -3.04555 3.31008 0
M  V30 5372 C 488.604 -4.12812 1.5256 0
M  V30 5373 H 485.723 -0.628697 0.384589 0
M  V30 5374 H 488.365 -1.15258 1.51049 0
M  V30 5375 H 486.515 -3.63046 1.3831 0
M  V30 5376 H 488.187 -2.62674 3.7921 0
M  V30 5377 H 486.43 -2.41278 3.6051 0
M  V30 5378 H 487.101 -4.03894 3.76263 0
M  V30 5379 H 489.577 -3.72106 1.86215 0
M  V30 5380 H 488.453 -5.09132 2.05124 0
M  V30 5381 H 488.714 -4.39711 0.458936 0
M  V30 5382 N 487.773 -1.03688 -1.18687 0
M  V30 5383 C 488.736 -0.629115 -2.20397 0
M  V30 5384 C 489.736 0.311495 -1.57754 0
M  V30 5385 O 490.926 0.0974107 -1.73927 0
M  V30 5386 C 488.058 0.0782231 -3.4081 0
M  V30 5387 H 489.251 -1.52915 -2.57987 0
M  V30 5388 H 486.804 -0.828988 -1.32505 0
M  V30 5389 H 487.539 0.992233 -3.08748 0
M  V30 5390 H 487.324 -0.597776 -3.87517 0
M  V30 5391 H 488.814 0.350156 -4.16129 0
M  V30 5392 N 489.251 1.34841 -0.815825 0
M  V30 5393 C 490.214 2.27959 -0.238185 0
M  V30 5394 C 491.214 1.49983 0.579816 0
M  V30 5395 O 492.404 1.69617 0.396953 0
M  V30 5396 C 489.536 3.34314 0.666876 0
M  V30 5397 H 490.729 2.80558 -1.05958 0
M  V30 5398 H 488.282 1.44852 -0.587156 0
M  V30 5399 H 489.017 2.86916 1.5116 0
M  V30 5400 H 488.802 3.92014 0.0819106 0
M  V30 5401 H 490.292 4.0379 1.06506 0
M  V30 5402 N 490.729 0.570148 1.46925 0
M  V30 5403 C 491.677 -0.183181 2.31878 0
M  V30 5404 C 492.671 -0.896721 1.43719 0
M  V30 5405 O 493.877 -0.816536 1.60414 0
M  V30 5406 H 490.252 -0.077944 0.74795 0
M  V30 5407 H 492.223 0.552312 2.93244 0
M  V30 5408 C 490.972 -1.19172 3.2664 0
M  V30 5409 H 490.295 -0.652088 3.94446 0
M  V30 5410 H 491.735 -1.68946 3.88887 0
M  V30 5411 C 490.194 -2.24627 2.51086 0
M  V30 5412 O 490.724 -3.31773 2.26472 0
M  V30 5413 N 488.93 -1.98898 2.11867 0
M  V30 5414 H 488.477 -1.11777 2.32086 0
M  V30 5415 H 488.435 -2.6967 1.61634 0
M  V30 5416 N 492.207 -1.54576 0.307264 0
M  V30 5417 C 493.154 -2.23751 -0.56604 0
M  V30 5418 C 494.124 -1.22235 -1.12462 0
M  V30 5419 O 495.309 -1.50873 -1.16799 0
M  V30 5420 C 492.449 -2.98661 -1.72903 0
M  V30 5421 C 491.562 -4.14963 -1.20124 0
M  V30 5422 C 490.697 -4.77441 -2.3286 0
M  V30 5423 C 489.736 -5.85875 -1.77247 0
M  V30 5424 N 488.873 -6.42282 -2.8358 0
M  V30 5425 H 493.713 -2.97984 0.0304578 0
M  V30 5426 H 491.25 -1.47076 0.0268015 0
M  V30 5427 H 493.208 -3.40329 -2.41313 0
M  V30 5428 H 491.838 -2.26793 -2.29706 0
M  V30 5429 H 490.89 -3.78193 -0.409198 0
M  V30 5430 H 492.202 -4.93066 -0.754171 0
M  V30 5431 H 491.356 -5.21993 -3.09205 0
M  V30 5432 H 490.095 -3.98684 -2.80896 0
M  V30 5433 H 489.1 -5.40741 -0.993926 0
M  V30 5434 H 490.325 -6.6652 -1.30107 0
M  V30 5435 H 488.271 -5.66406 -3.30939 0
M  V30 5436 H 488.188 -7.1575 -2.43388 0
M  V30 5437 H 489.456 -6.91492 -3.59804 0
M  V30 5438 N 493.685 -0.035106 -1.57561 0
M  V30 5439 C 494.648 0.929819 -2.09492 0
M  V30 5440 C 495.648 1.25026 -1.01119 0
M  V30 5441 O 496.838 1.18961 -1.27255 0
M  V30 5442 C 493.97 2.24457 -2.56577 0
M  V30 5443 H 495.163 0.479935 -2.96035 0
M  V30 5444 H 492.716 0.213033 -1.54841 0
M  V30 5445 H 493.451 2.74061 -1.73382 0
M  V30 5446 H 493.236 2.02508 -3.35757 0
M  V30 5447 H 494.726 2.93607 -2.96959 0
M  V30 5448 N 495.163 1.55791 0.238111 0
M  V30 5449 C 496.11 1.9105 1.29493 0
M  V30 5450 C 497.08 0.765733 1.47397 0
M  V30 5451 O 498.265 1.02017 1.61236 0
M  V30 5452 C 495.405 2.21826 2.64362 0
M  V30 5453 C 494.518 3.49153 2.54394 0
M  V30 5454 C 493.653 3.69455 3.81676 0
M  V30 5455 C 492.692 4.90353 3.66361 0
M  V30 5456 N 491.829 5.07131 4.85554 0
M  V30 5457 H 496.669 2.81172 0.987233 0
M  V30 5458 H 494.206 1.39179 0.476203 0
M  V30 5459 H 496.164 2.37675 3.4288 0
M  V30 5460 H 494.794 1.34897 2.93262 0
M  V30 5461 H 493.846 3.41587 1.67399 0
M  V30 5462 H 495.158 4.37818 2.38991 0
M  V30 5463 H 494.312 3.85311 4.68636 0
M  V30 5464 H 493.051 2.7904 3.99985 0
M  V30 5465 H 492.056 4.74464 2.77784 0
M  V30 5466 H 493.281 5.82237 3.49538 0
M  V30 5467 H 491.227 4.19654 5.04209 0
M  V30 5468 H 491.144 5.89899 4.72816 0
M  V30 5469 H 492.412 5.27407 5.73988 0
M  V30 5470 N 496.642 -0.504142 1.49319 0
M  V30 5471 C 497.572 -1.61473 1.68667 0
M  V30 5472 C 498.553 -1.61455 0.535378 0
M  V30 5473 O 499.738 -1.78245 0.770868 0
M  V30 5474 C 496.868 -2.99971 1.75028 0
M  V30 5475 C 495.822 -3.14854 2.89916 0
M  V30 5476 C 495.148 -4.54671 2.81387 0
M  V30 5477 C 496.448 -2.95176 4.30893 0
M  V30 5478 H 498.142 -1.45535 2.61648 0
M  V30 5479 H 495.688 -0.698711 1.25913 0
M  V30 5480 H 497.641 -3.77562 1.8715 0
M  V30 5481 H 496.365 -3.1699 0.786441 0
M  V30 5482 H 495.024 -2.39687 2.77391 0
M  V30 5483 H 494.672 -4.68562 1.82917 0
M  V30 5484 H 494.372 -4.6557 3.58494 0
M  V30 5485 H 495.896 -5.34327 2.95512 0
M  V30 5486 H 497.31 -3.62538 4.44116 0
M  V30 5487 H 495.707 -3.17549 5.09198 0
M  V30 5488 H 496.777 -1.91332 4.45556 0
M  V30 5489 N 498.12 -1.38341 -0.754957 0
M  V30 5490 C 499.05 -1.38176 -1.88227 0
M  V30 5491 C 500.031 -0.247873 -1.68284 0
M  V30 5492 O 501.216 -0.45075 -1.88896 0
M  V30 5493 C 498.346 -1.20471 -3.25736 0
M  V30 5494 C 497.3 -2.3105 -3.60278 0
M  V30 5495 C 496.626 -1.98452 -4.96509 0
M  V30 5496 C 497.926 -3.73305 -3.65295 0
M  V30 5497 H 499.62 -2.32512 -1.88622 0
M  V30 5498 H 497.166 -1.1192 -0.906082 0
M  V30 5499 H 499.119 -1.18982 -4.04254 0
M  V30 5500 H 497.843 -0.225965 -3.25817 0
M  V30 5501 H 496.502 -2.31723 -2.84078 0
M  V30 5502 H 496.15 -0.990641 -4.93148 0
M  V30 5503 H 495.85 -2.7251 -5.20588 0
M  V30 5504 H 497.374 -1.98578 -5.77407 0
M  V30 5505 H 498.788 -3.7467 -4.3393 0
M  V30 5506 H 497.185 -4.46557 -4.00883 0
M  V30 5507 H 498.255 -4.05719 -2.65556 0
M  V30 5508 N 499.598 0.982988 -1.23187 0
M  V30 5509 C 500.528 2.09301 -1.03515 0
M  V30 5510 C 501.509 1.70035 0.0471136 0
M  V30 5511 O 502.694 1.93847 -0.117029 0
M  V30 5512 C 499.824 3.4167 -0.622791 0
M  V30 5513 C 498.778 3.94828 -1.65211 0
M  V30 5514 C 498.104 5.23362 -1.09527 0
M  V30 5515 C 499.404 4.2439 -3.04451 0
M  V30 5516 H 501.098 2.26016 -1.96359 0
M  V30 5517 H 498.644 1.08611 -0.945501 0
M  V30 5518 H 500.597 4.18746 -0.472233 0
M  V30 5519 H 499.321 3.24811 0.341329 0
M  V30 5520 H 497.98 3.19895 -1.79061 0
M  V30 5521 H 497.628 5.02852 -0.122211 0
M  V30 5522 H 497.328 5.59895 -1.783 0
M  V30 5523 H 498.852 6.03062 -0.956511 0
M  V30 5524 H 500.266 4.92225 -2.93917 0
M  V30 5525 H 498.663 4.72118 -3.70438 0
M  V30 5526 H 499.733 3.31765 -3.53638 0
M  V30 5527 N 501.076 1.04316 1.18135 0
M  V30 5528 C 502.301 0.768047 1.92655 0
M  V30 5529 C 502.726 -0.66904 1.758 0
M  V30 5530 O 502.084 -1.46372 1.06981 0
M  V30 5531 C 502.132 1.14239 3.42026 0
M  V30 5532 O 501.236 0.269333 4.1152 0
M  V30 5533 H 500.577 0.282436 0.600937 0
M  V30 5534 H 503.107 1.39367 1.49793 0
M  V30 5535 H 503.117 1.10538 3.92741 0
M  V30 5536 H 501.792 2.18928 3.53615 0
M  V30 5537 H 500.369 0.366175 3.71098 0
M  V30 5538 N 502.554 -1.34406 0.822964 0
M  V30 5539 C 503.517 -2.2783 0.250271 0
M  V30 5540 C 504.517 -1.50288 -0.571854 0
M  V30 5541 O 505.707 -1.69825 -0.387952 0
M  V30 5542 C 502.839 -3.34663 -0.649137 0
M  V30 5543 H 504.032 -2.79992 1.07444 0
M  V30 5544 H 501.585 -1.44539 0.594829 0
M  V30 5545 H 502.32 -2.87714 -1.49637 0
M  V30 5546 H 502.105 -3.92052 -0.0611199 0
M  V30 5547 H 503.595 -4.04349 -1.04363 0
M  V30 5548 N 504.032 -0.577932 -1.46621 0
M  V30 5549 C 504.979 0.158048 -2.30258 0
M  V30 5550 C 505.949 0.888669 -1.40328 0
M  V30 5551 O 507.134 0.880283 -1.6928 0
M  V30 5552 C 504.274 1.16884 -3.24703 0
M  V30 5553 C 503.387 0.442163 -4.29731 0
M  V30 5554 C 502.522 1.44007 -5.11308 0
M  V30 5555 C 501.561 0.69952 -6.0809 0
M  V30 5556 N 500.698 1.64525 -6.82551 0
M  V30 5557 H 505.538 -0.561242 -2.92667 0
M  V30 5558 H 503.075 -0.288591 -1.44241 0
M  V30 5559 H 505.033 1.7677 -3.779 0
M  V30 5560 H 503.663 1.85591 -2.64113 0
M  V30 5561 H 502.715 -0.271632 -3.79429 0
M  V30 5562 H 504.027 -0.136992 -4.98612 0
M  V30 5563 H 503.181 2.11186 -5.68758 0
M  V30 5564 H 501.92 2.05315 -4.42377 0
M  V30 5565 H 500.925 0.0139217 -5.49798 0
M  V30 5566 H 502.15 0.091894 -6.79038 0
M  V30 5567 H 500.096 2.24653 -6.16334 0
M  V30 5568 H 500.013 1.11878 -7.47676 0
M  V30 5569 H 501.281 2.30754 -7.44562 0
M  V30 5570 N 505.51 1.54411 -0.315457 0
M  V30 5571 C 506.457 2.24048 0.554166 0
M  V30 5572 C 507.427 1.2283 1.11812 0
M  V30 5573 O 508.612 1.51491 1.15997 0
M  V30 5574 C 505.752 2.99574 1.71316 0
M  V30 5575 C 504.865 4.15594 1.17922 0
M  V30 5576 C 504 4.78669 2.30324 0
M  V30 5577 C 503.039 5.86807 1.74137 0
M  V30 5578 N 502.176 6.43777 2.8017 0
M  V30 5579 H 507.016 2.97964 -0.0462602 0
M  V30 5580 H 504.553 1.47059 -0.0346009 0
M  V30 5581 H 506.511 3.41604 2.39505 0
M  V30 5582 H 505.141 2.28008 2.285 0
M  V30 5583 H 504.193 3.78404 0.389136 0
M  V30 5584 H 505.505 4.93459 0.728012 0
M  V30 5585 H 504.659 5.23626 3.06433 0
M  V30 5586 H 503.398 4.00168 2.78778 0
M  V30 5587 H 502.403 5.41261 0.965236 0
M  V30 5588 H 503.628 6.67201 1.2657 0
M  V30 5589 H 501.574 5.68153 3.2793 0
M  V30 5590 H 501.491 7.17031 2.39588 0
M  V30 5591 H 502.759 6.9339 3.56132 0
M  V30 5592 N 506.988 0.0434614 1.5754 0
M  V30 5593 C 508.213 -0.645358 1.97104 0
M  V30 5594 C 508.638 -1.64037 0.920521 0
M  V30 5595 O 507.996 -1.80922 -0.11708 0
M  V30 5596 C 508.044 -1.31547 3.35749 0
M  V30 5597 O 507.148 -2.43103 3.33129 0
M  V30 5598 H 506.489 -0.168403 0.64229 0
M  V30 5599 H 509.019 0.109573 2.04306 0
M  V30 5600 H 509.029 -1.66895 3.72304 0
M  V30 5601 H 507.704 -0.586205 4.11748 0
M  V30 5602 H 506.281 -2.0976 3.0831 0
M  V30 5603 N 508.466 -1.55915 -0.229846 0
M  V30 5604 C 509.429 -1.90914 -1.26824 0
M  V30 5605 C 510.429 -0.786999 -1.40225 0
M  V30 5606 O 511.619 -1.05484 -1.38632 0
M  V30 5607 C 508.751 -2.15264 -2.64337 0
M  V30 5608 H 509.944 -2.8378 -0.969998 0
M  V30 5609 H 507.497 -1.49069 -0.4699 0
M  V30 5610 H 508.232 -1.24923 -2.99274 0
M  V30 5611 H 508.017 -2.97005 -2.55989 0
M  V30 5612 H 509.507 -2.43467 -3.39284 0
M  V30 5613 N 509.944 0.496216 -1.49584 0
M  V30 5614 C 511.221 1.25755 -1.49816 0
M  V30 5615 C 511.601 2.09859 -0.228572 0
M  V30 5616 O 510.949 2.14449 0.788908 0
M  V30 5617 C 511.159 2.11017 -2.7798 0
M  V30 5618 C 512.507 2.70047 -3.27658 0
M  V30 5619 O 513.531 2.21281 -2.79129 0
M  V30 5620 O 512.39 3.58834 -4.1219 0
M  V30 5621 H 509.484 0.569322 -0.599834 0
M  V30 5622 H 512.03 0.510094 -1.61852 0
M  V30 5623 H 510.802 1.48879 -3.61871 0
M  V30 5624 H 510.425 2.92947 -2.68827 0
M  V30 5625 N 511.423 1.38739 0.74761 0
M  V30 5626 C 512.669 1.35475 1.50912 0
M  V30 5627 C 513.002 -0.0533093 1.94127 0
M  V30 5628 O 512.277 -1.01572 1.65871 0
M  V30 5629 C 512.56 2.31582 2.75757 0
M  V30 5630 C 512.413 3.81274 2.38642 0
M  V30 5631 C 513.732 2.25722 3.77806 0
M  V30 5632 H 510.851 0.493427 0.547447 0
M  V30 5633 H 513.493 1.69634 0.855823 0
M  V30 5634 H 511.643 2.02582 3.31501 0
M  V30 5635 H 513.315 4.20972 1.88626 0
M  V30 5636 H 511.558 3.98664 1.71025 0
M  V30 5637 H 512.229 4.4399 3.27989 0
M  V30 5638 H 514.705 2.51336 3.31616 0
M  V30 5639 H 513.581 2.95069 4.62845 0
M  V30 5640 H 513.842 1.25803 4.23823 0
M  V30 5641 N 512.901 -0.976442 1.23707 0
M  V30 5642 C 514.148 -1.71827 1.07153 0
M  V30 5643 C 514.476 -1.9053 -0.390982 0
M  V30 5644 O 513.731 -1.45779 -1.30564 0
M  V30 5645 C 514.03 -3.11814 1.74662 0
M  V30 5646 C 513.696 -3.12978 3.24585 0
M  V30 5647 C 512.358 -3.13003 3.6549 0
M  V30 5648 C 514.71 -3.07986 4.20469 0
M  V30 5649 C 512.038 -3.05757 5.00729 0
M  V30 5650 C 514.39 -3.02282 5.55705 0
M  V30 5651 C 513.054 -3.00631 5.95968 0
M  V30 5652 H 512.324 -0.628758 0.392102 0
M  V30 5653 H 514.971 -1.14239 1.53693 0
M  V30 5654 H 513.276 -3.72812 1.20492 0
M  V30 5655 H 514.973 -3.67989 1.59328 0
M  V30 5656 H 511.563 -3.13718 2.92026 0
M  V30 5657 H 515.747 -3.07103 3.89874 0
M  V30 5658 H 511.003 -3.02834 5.31132 0
M  V30 5659 H 515.177 -2.97376 6.29714 0
M  V30 5660 H 512.804 -2.94771 7.00724 0
M  V30 5661 N 514.379 -1.04941 -1.1758 0
M  V30 5662 C 515.628 -0.753124 -1.87112 0
M  V30 5663 C 515.941 0.722507 -1.81767 0
M  V30 5664 O 517.147 1.13265 -2.46746 0
M  V30 5665 C 515.603 -1.29695 -3.35719 0
M  V30 5666 C 515.211 -2.80184 -3.49572 0
M  V30 5667 C 516.955 -1.07759 -4.10595 0
M  V30 5668 C 514.862 -3.2788 -4.92187 0
M  V30 5669 H 513.792 -0.278034 -0.700866 0
M  V30 5670 H 516.443 -1.26637 -1.32798 0
M  V30 5671 H 514.825 -0.711522 -3.89555 0
M  V30 5672 H 515.999 -3.44561 -3.05965 0
M  V30 5673 H 514.314 -3.00632 -2.88113 0
M  V30 5674 H 516.911 -1.40899 -5.15802 0
M  V30 5675 H 517.254 -0.0152302 -4.16297 0
M  V30 5676 H 517.787 -1.62809 -3.62957 0
M  V30 5677 H 514.526 -4.33535 -4.91658 0
M  V30 5678 H 514.046 -2.68245 -5.36475 0
M  V30 5679 H 515.725 -3.22412 -5.60945 0
M  V30 5680 N 515.857 1.33968 -0.830081 0
M  V30 5681 C 516.767 2.33164 -0.259207 0
M  V30 5682 C 517.783 1.62951 0.610164 0
M  V30 5683 O 518.959 1.94668 0.516369 0
M  V30 5684 C 516.024 3.42088 0.563598 0
M  V30 5685 C 515.085 4.28037 -0.329014 0
M  V30 5686 C 514.318 5.3176 0.454616 0
M  V30 5687 O 514.541 5.44876 1.6872 0
M  V30 5688 O 513.475 6.01669 -0.166794 0
M  V30 5689 H 517.301 2.83832 -1.08041 0
M  V30 5690 H 514.886 1.37154 -0.59239 0
M  V30 5691 H 516.768 4.08581 1.03147 0
M  V30 5692 H 515.443 2.93651 1.36201 0
M  V30 5693 H 514.35 3.64443 -0.844538 0
M  V30 5694 H 515.683 4.79934 -1.09196 0
M  V30 5695 N 517.335 0.585699 1.46312 0
M  V30 5696 C 518.56 0.0762461 2.0726 0
M  V30 5697 C 518.985 -1.22071 1.43109 0
M  V30 5698 O 518.343 -1.73804 0.515942 0
M  V30 5699 C 518.391 -0.0729404 3.60526 0
M  V30 5700 O 517.495 -1.1287 3.96654 0
M  V30 5701 H 516.836 0.0641558 0.660893 0
M  V30 5702 H 519.366 0.809492 1.87905 0
M  V30 5703 H 519.376 -0.278158 4.07051 0
M  V30 5704 H 518.051 0.874188 4.06609 0
M  V30 5705 H 516.628 -0.901703 3.61834 0
M  V30 5706 N 518.813 -1.54241 0.323641 0
M  V30 5707 C 519.743 -2.27289 -0.534993 0
M  V30 5708 C 520.724 -1.28087 -1.11927 0
M  V30 5709 O 521.909 -1.56899 -1.14439 0
M  V30 5710 C 519.039 -3.03075 -1.69596 0
M  V30 5711 C 517.993 -4.09614 -1.24098 0
M  V30 5712 C 517.319 -4.73242 -2.4889 0
M  V30 5713 C 518.619 -5.21087 -0.355789 0
M  V30 5714 H 520.313 -2.99308 0.0743257 0
M  V30 5715 H 517.859 -1.43952 0.0371874 0
M  V30 5716 H 519.812 -3.52907 -2.30293 0
M  V30 5717 H 518.536 -2.28673 -2.33187 0
M  V30 5718 H 517.195 -3.60666 -0.656945 0
M  V30 5719 H 516.843 -3.95455 -3.10845 0
M  V30 5720 H 516.543 -5.45209 -2.19138 0
M  V30 5721 H 518.067 -5.25848 -3.10348 0
M  V30 5722 H 519.481 -5.66675 -0.869042 0
M  V30 5723 H 517.878 -5.9991 -0.151045 0
M  V30 5724 H 518.948 -4.81005 0.613339 0
M  V30 5725 N 520.291 -0.0518155 -1.57515 0
M  V30 5726 C 521.521 0.63048 -1.96745 0
M  V30 5727 C 521.929 1.64875 -0.928054 0
M  V30 5728 O 521.272 1.83449 0.0960678 0
M  V30 5729 C 521.334 1.37381 -3.32215 0
M  V30 5730 C 520.998 0.511298 -4.54131 0
M  V30 5731 C 521.995 -0.222884 -5.19422 0
M  V30 5732 C 519.68 0.442035 -5.00351 0
M  V30 5733 C 521.674 -1.01476 -6.2927 0
M  V30 5734 C 519.361 -0.35353 -6.10077 0
M  V30 5735 C 520.359 -1.08062 -6.74397 0
M  V30 5736 O 520.047 -1.8631 -7.82013 0
M  V30 5737 H 519.779 0.177126 -0.652382 0
M  V30 5738 H 522.333 -0.114726 -2.05079 0
M  V30 5739 H 520.563 2.16466 -3.20436 0
M  V30 5740 H 522.252 1.9464 -3.56188 0
M  V30 5741 H 523.018 -0.178846 -4.8467 0
M  V30 5742 H 518.897 0.997562 -4.50077 0
M  V30 5743 H 522.441 -1.58279 -6.79407 0
M  V30 5744 H 518.338 -0.399205 -6.44264 0
M  V30 5745 H 519.106 -1.78528 -7.98793 0
M  V30 5746 N 521.769 1.56035 0.221574 0
M  V30 5747 C 522.717 1.93269 1.29421 0
M  V30 5748 C 523.711 0.814727 1.48521 0
M  V30 5749 O 524.917 0.999559 1.49696 0
M  V30 5750 H 521.292 0.614188 0.43391 0
M  V30 5751 H 523.263 2.82773 0.952987 0
M  V30 5752 C 522.012 2.26573 2.63742 0
M  V30 5753 H 521.335 3.12112 2.49853 0
M  V30 5754 H 522.775 2.5651 3.37607 0
M  V30 5755 C 521.234 1.09086 3.1875 0
M  V30 5756 O 521.764 0.351985 4.00155 0
M  V30 5757 N 519.97 0.874693 2.77124 0
M  V30 5758 H 519.517 1.47726 2.11033 0
M  V30 5759 H 519.475 0.0903349 3.1427 0
M  V30 5760 N 523.247 -0.488276 1.49845 0
M  V30 5761 C 524.195 -1.60917 1.67954 0
M  V30 5762 C 525.189 -1.6038 0.54539 0
M  V30 5763 O 526.395 -1.64736 0.7254 0
M  V30 5764 H 522.77 -0.533658 0.529824 0
M  V30 5765 H 524.741 -1.428 2.62013 0
M  V30 5766 C 523.49 -2.98975 1.77509 0
M  V30 5767 H 522.813 -3.00099 2.6416 0
M  V30 5768 H 524.253 -3.76906 1.9421 0
M  V30 5769 C 522.712 -3.3282 0.522745 0
M  V30 5770 O 523.242 -4.00208 -0.345866 0
M  V30 5771 N 521.448 -2.8808 0.381882 0
M  V30 5772 H 520.995 -2.33415 1.08974 0
M  V30 5773 H 520.953 -3.11091 -0.454929 0
M  V30 5774 N 524.725 -1.39134 -0.740242 0
M  V30 5775 C 525.672 -1.37434 -1.8542 0
M  V30 5776 C 526.642 -0.234822 -1.64432 0
M  V30 5777 O 527.827 -0.429125 -1.85912 0
M  V30 5778 C 524.967 -1.21844 -3.22875 0
M  V30 5779 C 524.08 -2.45296 -3.55603 0
M  V30 5780 C 523.215 -2.22334 -4.82432 0
M  V30 5781 C 522.254 -3.41488 -5.07988 0
M  V30 5782 N 521.391 -3.17877 -6.26018 0
M  V30 5783 H 526.231 -2.3266 -1.86207 0
M  V30 5784 H 523.768 -1.15578 -0.909946 0
M  V30 5785 H 525.726 -1.10818 -4.02213 0
M  V30 5786 H 524.356 -0.3025 -3.21379 0
M  V30 5787 H 523.408 -2.66945 -2.71006 0
M  V30 5788 H 524.72 -3.34063 -3.7041 0
M  V30 5789 H 523.874 -2.0852 -5.69741 0
M  V30 5790 H 522.613 -1.30954 -4.6979 0
M  V30 5791 H 521.618 -3.55807 -4.19144 0
M  V30 5792 H 522.843 -4.33763 -5.22519 0
M  V30 5793 H 520.789 -2.29156 -6.14673 0
M  V30 5794 H 520.706 -4.00198 -6.41387 0
M  V30 5795 H 521.974 -3.07746 -7.16179 0
M  V30 5796 N 526.204 0.969867 -1.24223 0
M  V30 5797 C 527.429 1.75289 -1.10853 0
M  V30 5798 C 527.854 1.85091 0.335079 0
M  V30 5799 O 527.212 1.32024 1.24255 0
M  V30 5800 C 527.26 3.15255 -1.75062 0
M  V30 5801 O 526.364 3.99589 -1.01992 0
M  V30 5802 H 525.705 0.538904 -0.387915 0
M  V30 5803 H 528.235 1.21675 -1.64488 0
M  V30 5804 H 528.245 3.65787 -1.80731 0
M  V30 5805 H 526.92 3.07436 -2.801 0
M  V30 5806 H 525.497 3.58077 -1.04094 0
M  V30 5807 N 527.682 1.05563 1.17022 0
M  V30 5808 C 528.612 0.681026 2.23348 0
M  V30 5809 C 529.593 -0.322983 1.67005 0
M  V30 5810 O 530.778 -0.199746 1.9317 0
M  V30 5811 C 527.908 0.0589053 3.4725 0
M  V30 5812 C 526.862 0.988082 4.16438 0
M  V30 5813 C 526.188 0.229646 5.34207 0
M  V30 5814 C 527.488 2.31388 4.68249 0
M  V30 5815 H 529.182 1.56993 2.54938 0
M  V30 5816 H 526.728 0.756302 1.2254 0
M  V30 5817 H 528.681 -0.214982 4.20851 0
M  V30 5818 H 527.405 -0.864968 3.14938 0
M  V30 5819 H 526.064 1.24659 3.44754 0
M  V30 5820 H 525.712 -0.697111 4.98146 0
M  V30 5821 H 525.412 0.848815 5.81437 0
M  V30 5822 H 526.936 -0.0368694 6.10589 0
M  V30 5823 H 528.35 2.09964 5.33468 0
M  V30 5824 H 526.747 2.88736 5.26072 0
M  V30 5825 H 527.817 2.94982 3.84855 0
M  V30 5826 N 529.16 -1.33526 0.837174 0
M  V30 5827 C 530.108 -2.31168 0.257698 0
M  V30 5828 C 531.102 -1.5806 -0.609388 0
M  V30 5829 O 532.308 -1.72941 -0.499139 0
M  V30 5830 H 528.683 -0.74922 0.0646058 0
M  V30 5831 H 530.654 -2.77552 1.09578 0
M  V30 5832 C 529.403 -3.4326 -0.553887 0
M  V30 5833 H 528.726 -3.99665 0.104008 0
M  V30 5834 H 530.166 -4.13782 -0.925219 0
M  V30 5835 C 528.625 -2.88965 -1.73207 0
M  V30 5836 O 529.155 -2.85013 -2.83073 0
M  V30 5837 N 527.361 -2.45596 -1.55342 0
M  V30 5838 H 526.908 -2.49009 -0.659705 0
M  V30 5839 H 526.866 -2.0962 -2.34322 0
M  V30 5840 N 530.638 -0.59345 -1.46 0
M  V30 5841 C 531.548 0.135817 -2.34207 0
M  V30 5842 C 532.564 0.875008 -1.50398 0
M  V30 5843 O 533.74 0.835778 -1.83239 0
M  V30 5844 C 530.805 1.12977 -3.27776 0
M  V30 5845 C 529.866 0.394081 -4.27487 0
M  V30 5846 C 529.099 1.34068 -5.16586 0
M  V30 5847 O 529.322 2.5778 -5.08828 0
M  V30 5848 O 528.256 0.845426 -5.95933 0
M  V30 5849 H 532.082 -0.588691 -2.9794 0
M  V30 5850 H 529.667 -0.353784 -1.45151 0
M  V30 5851 H 531.549 1.70261 -3.85473 0
M  V30 5852 H 530.224 1.83556 -2.66625 0
M  V30 5853 H 529.131 -0.220869 -3.73447 0
M  V30 5854 H 530.464 -0.270939 -4.91454 0
M  V30 5855 N 532.116 1.54067 -0.331816 0
M  V30 5856 C 533.341 2.05599 0.272705 0
M  V30 5857 C 533.766 1.2059 1.44359 0
M  V30 5858 O 533.124 0.216907 1.79998 0
M  V30 5859 C 533.172 3.54188 0.677021 0
M  V30 5860 O 532.276 3.72082 1.77844 0
M  V30 5861 H 531.617 0.662286 0.0476801 0
M  V30 5862 H 534.147 1.98826 -0.482624 0
M  V30 5863 H 534.157 3.96608 0.957415 0
M  V30 5864 H 532.832 4.15513 -0.179325 0
M  V30 5865 H 531.409 3.41566 1.49622 0
M  V30 5866 N 533.594 0.0601682 1.57485 0
M  V30 5867 C 534.84 -0.612501 1.93329 0
M  V30 5868 C 535.173 -1.6996 0.939526 0
M  V30 5869 O 534.448 -1.94472 -0.0330957 0
M  V30 5870 C 534.731 -1.20025 3.39508 0
M  V30 5871 C 534.584 -0.12059 4.49638 0
M  V30 5872 C 535.903 -2.10923 3.86264 0
M  V30 5873 H 533.022 -0.221185 0.703027 0
M  V30 5874 H 535.664 0.123768 1.89596 0
M  V30 5875 H 533.814 -1.82774 3.42821 0
M  V30 5876 H 535.486 0.51185 4.58452 0
M  V30 5877 H 533.729 0.550251 4.30296 0
M  V30 5878 H 534.4 -0.572019 5.49028 0
M  V30 5879 H 536.876 -1.58124 3.84884 0
M  V30 5880 H 535.752 -2.48987 4.8918 0
M  V30 5881 H 536.013 -3.01292 3.23536 0
M  V30 5882 N 535.072 -1.5615 -0.213296 0
M  V30 5883 C 536.297 -1.83986 -0.957282 0
M  V30 5884 C 536.722 -0.641526 -1.76822 0
M  V30 5885 O 536.08 0.409722 -1.7661 0
M  V30 5886 C 536.128 -3.09889 -1.84393 0
M  V30 5887 O 535.232 -2.89163 -2.94038 0
M  V30 5888 H 534.573 -0.606357 -0.270605 0
M  V30 5889 H 537.103 -2.03369 -0.224111 0
M  V30 5890 H 537.113 -3.40209 -2.25215 0
M  V30 5891 H 535.788 -3.96735 -1.24795 0
M  V30 5892 H 534.365 -2.70097 -2.57103 0
M  V30 5893 N 536.55 0.480323 -1.50102 0
M  V30 5894 C 537.966 0.813295 -1.37323 0
M  V30 5895 C 538.166 1.97027 -0.422206 0
M  V30 5896 O 537.222 2.5212 0.138563 0
M  V30 5897 C 538.535 1.13404 -2.78496 0
M  V30 5898 C 540.083 1.24104 -2.87345 0
M  V30 5899 C 540.558 1.59497 -4.29331 0
M  V30 5900 N 542.049 1.66507 -4.32238 0
M  V30 5901 C 542.784 1.95378 -5.39087 0
M  V30 5902 N 542.28 2.22333 -6.56155 0
M  V30 5903 N 544.073 1.96803 -5.26522 0
M  V30 5904 H 536.224 -0.282291 -2.10516 0
M  V30 5905 H 538.487 -0.063752 -0.945854 0
M  V30 5906 H 538.193 0.357064 -3.49883 0
M  V30 5907 H 538.067 2.07251 -3.15162 0
M  V30 5908 H 540.454 2.00871 -2.16183 0
M  V30 5909 H 540.535 0.282593 -2.54234 0
M  V30 5910 H 540.179 0.832736 -5.01027 0
M  V30 5911 H 540.109 2.56477 -4.59921 0
M  V30 5912 H 542.6 1.47753 -3.47818 0
M  V30 5913 H 542.913 2.43611 -7.33399 0
M  V30 5914 H 541.258 2.19745 -6.59346 0
M  V30 5915 H 544.449 1.75235 -4.34062 0
M  V30 5916 H 544.622 2.18969 -6.09883 0
M  V30 5917 N 538.028 1.39524 0.732853 0
M  V30 5918 C 538.96 1.34318 1.85718 0
M  V30 5919 C 539.973 0.251576 1.60844 0
M  V30 5920 O 541.162 0.510685 1.71039 0
M  V30 5921 C 538.262 1.06334 3.21786 0
M  V30 5922 C 537.435 2.26813 3.73998 0
M  V30 5923 C 536.494 1.95253 4.88634 0
M  V30 5924 O 535.52 2.67957 5.02183 0
M  V30 5925 N 536.722 0.919984 5.73164 0
M  V30 5926 H 539.487 2.3121 1.90688 0
M  V30 5927 H 537.048 1.33654 0.91368 0
M  V30 5928 H 539.04 0.832363 3.96048 0
M  V30 5929 H 537.61 0.181682 3.12072 0
M  V30 5930 H 536.83 2.65849 2.91064 0
M  V30 5931 H 538.118 3.0717 4.05616 0
M  V30 5932 H 537.516 0.317487 5.64808 0
M  V30 5933 H 536.073 0.748905 6.47483 0
M  V30 5934 N 539.506 -0.963266 1.24736 0
M  V30 5935 C 540.783 -1.68248 0.9976 0
M  V30 5936 C 541.163 -2.05599 -0.478776 0
M  V30 5937 O 540.511 -1.7626 -1.45412 0
M  V30 5938 C 540.721 -2.91118 1.92487 0
M  V30 5939 C 542.069 -3.63261 2.19833 0
M  V30 5940 O 543.093 -3.01184 1.90176 0
M  V30 5941 O 541.952 -4.75019 2.7022 0
M  V30 5942 H 539.046 -0.735744 0.377637 0
M  V30 5943 H 541.592 -1.01696 1.35853 0
M  V30 5944 H 540.364 -2.60242 2.92215 0
M  V30 5945 H 539.987 -3.65402 1.56738 0
M  V30 5946 N 540.985 -1.06182 -1.16461 0
M  V30 5947 C 542.232 -0.777863 -1.86964 0
M  V30 5948 C 542.56 0.695602 -1.81636 0
M  V30 5949 O 541.815 1.52532 -1.22607 0
M  V30 5950 C 542.114 -1.21633 -3.36066 0
M  V30 5951 C 541.78 -2.69371 -3.61594 0
M  V30 5952 C 540.442 -3.09727 -3.6827 0
M  V30 5953 C 542.794 -3.64791 -3.7226 0
M  V30 5954 C 540.122 -4.44345 -3.83112 0
M  V30 5955 C 542.474 -4.99155 -3.88623 0
M  V30 5956 C 541.138 -5.39149 -3.93541 0
M  V30 5957 H 540.408 -0.28464 -0.68415 0
M  V30 5958 H 543.055 -1.33071 -1.37711 0
M  V30 5959 H 541.36 -0.582651 -3.87443 0
M  V30 5960 H 543.057 -0.973682 -3.88999 0
M  V30 5961 H 539.647 -2.37124 -3.57029 0
M  V30 5962 H 543.831 -3.34746 -3.66413 0
M  V30 5963 H 539.087 -4.74819 -3.85172 0
M  V30 5964 H 543.261 -5.72976 -3.95817 0
M  V30 5965 H 540.888 -6.43464 -4.04794 0
M  V30 5966 N 542.463 1.3308 -0.844243 0
M  V30 5967 C 543.373 2.32876 -0.283922 0
M  V30 5968 C 544.389 1.63589 0.592846 0
M  V30 5969 O 545.565 1.95205 0.495693 0
M  V30 5970 C 542.63 3.42667 0.527283 0
M  V30 5971 C 541.691 4.27664 -0.374394 0
M  V30 5972 C 540.924 5.32212 0.39819 0
M  V30 5973 O 541.147 5.46635 1.62932 0
M  V30 5974 O 540.081 6.01458 -0.2306 0
M  V30 5975 H 543.907 2.82671 -1.11045 0
M  V30 5976 H 541.492 1.36518 -0.606903 0
M  V30 5977 H 543.374 4.09652 0.988078 0
M  V30 5978 H 542.049 2.95079 1.33078 0
M  V30 5979 H 540.956 3.63526 -0.883144 0
M  V30 5980 H 542.289 4.78749 -1.1428 0
M  V30 5981 N 543.941 0.601185 1.45683 0
M  V30 5982 C 544.851 -0.123395 2.34275 0
M  V30 5983 C 545.867 -0.86702 1.5086 0
M  V30 5984 O 547.043 -0.826049 1.8368 0
M  V30 5985 C 544.108 -1.11237 3.2837 0
M  V30 5986 C 543.169 -0.371405 4.2769 0
M  V30 5987 C 542.402 -1.31327 5.1729 0
M  V30 5988 O 542.625 -2.55078 5.10188 0
M  V30 5989 O 541.559 -0.813811 5.96373 0
M  V30 5990 H 545.385 0.604483 2.97623 0
M  V30 5991 H 542.97 0.361477 1.44961 0
M  V30 5992 H 544.852 -1.68214 3.8637 0
M  V30 5993 H 543.527 -1.82139 2.67595 0
M  V30 5994 H 542.434 0.24067 3.73325 0
M  V30 5995 H 543.767 0.296998 4.91303 0
M  V30 5996 N 545.419 -1.53889 0.339982 0
M  V30 5997 C 546.349 -2.27843 -0.510856 0
M  V30 5998 C 547.33 -1.29267 -1.10563 0
M  V30 5999 O 548.515 -1.58104 -1.12768 0
M  V30 6000 C 545.645 -3.04857 -1.66372 0
M  V30 6001 C 544.599 -4.10907 -1.19746 0
M  V30 6002 C 543.925 -4.75855 -2.43857 0
M  V30 6003 C 545.225 -5.21435 -0.300501 0
M  V30 6004 H 546.919 -2.99212 0.106067 0
M  V30 6005 H 544.465 -1.43904 0.0524533 0
M  V30 6006 H 546.418 -3.5533 -2.26537 0
M  V30 6007 H 545.142 -2.31133 -2.30749 0
M  V30 6008 H 543.801 -3.61342 -0.618654 0
M  V30 6009 H 543.449 -3.9873 -3.06633 0
M  V30 6010 H 543.149 -5.47502 -2.13343 0
M  V30 6011 H 544.673 -5.2911 -3.04754 0
M  V30 6012 H 546.087 -5.67565 -0.80889 0
M  V30 6013 H 544.484 -6.00036 -0.0874076 0
M  V30 6014 H 545.554 -4.80328 0.664321 0
M  V30 6015 N 546.897 -0.0685191 -1.57451 0
M  V30 6016 C 548.146 0.600898 -1.92541 0
M  V30 6017 C 548.459 1.70967 -0.950239 0
M  V30 6018 O 549.665 2.43844 -1.19384 0
M  V30 6019 C 548.121 1.12019 -3.42023 0
M  V30 6020 C 547.729 0.0426028 -4.4798 0
M  V30 6021 C 549.473 1.76386 -3.86119 0
M  V30 6022 C 547.38 0.575759 -5.88591 0
M  V30 6023 H 546.31 0.228225 -0.71863 0
M  V30 6024 H 548.961 -0.140223 -1.82963 0
M  V30 6025 H 547.343 1.91418 -3.46663 0
M  V30 6026 H 548.517 -0.73182 -4.54952 0
M  V30 6027 H 546.832 -0.504642 -4.13331 0
M  V30 6028 H 549.429 2.17302 -4.88553 0
M  V30 6029 H 549.772 2.62255 -3.23308 0
M  V30 6030 H 550.305 1.03615 -3.84069 0
M  V30 6031 H 547.044 -0.245691 -6.55039 0
M  V30 6032 H 546.564 1.31778 -5.85145 0
M  V30 6033 H 548.243 1.0532 -6.3837 0
M  V30 6034 N 548.375 1.56261 0.205012 0
M  V30 6035 C 549.307 1.90266 1.27795 0
M  V30 6036 C 550.32 0.792397 1.42214 0
M  V30 6037 O 551.509 1.07077 1.42817 0
M  V30 6038 C 548.609 2.11074 2.65143 0
M  V30 6039 C 547.782 3.42176 2.7246 0
M  V30 6040 C 546.841 3.52216 3.90936 0
M  V30 6041 O 545.867 4.25119 3.78501 0
M  V30 6042 N 547.069 2.84573 5.05963 0
M  V30 6043 H 549.834 2.82896 0.989434 0
M  V30 6044 H 547.395 1.57008 0.394981 0
M  V30 6045 H 549.387 2.15089 3.4281 0
M  V30 6046 H 547.957 1.2499 2.86524 0
M  V30 6047 H 547.177 3.50116 1.81142 0
M  V30 6048 H 548.465 4.28509 2.74331 0
M  V30 6049 H 547.863 2.25152 5.18963 0
M  V30 6050 H 546.42 2.94228 5.81613 0
M  V30 6051 N 549.853 -0.472356 1.50355 0
M  V30 6052 C 550.763 -1.59637 1.7191 0
M  V30 6053 C 551.779 -1.63247 0.602195 0
M  V30 6054 O 552.955 -1.81139 0.880369 0
M  V30 6055 C 550.02 -2.9586 1.80742 0
M  V30 6056 C 549.081 -3.02649 3.04471 0
M  V30 6057 C 548.314 -4.32374 3.12872 0
M  V30 6058 O 548.537 -5.22807 2.28099 0
M  V30 6059 O 547.471 -4.44728 4.05587 0
M  V30 6060 H 551.297 -1.44373 2.67189 0
M  V30 6061 H 548.882 -0.651717 1.34436 0
M  V30 6062 H 550.764 -3.7677 1.88739 0
M  V30 6063 H 549.439 -3.11325 0.88647 0
M  V30 6064 H 548.346 -2.20821 3.01975 0
M  V30 6065 H 549.679 -2.92119 3.9614 0
M  V30 6066 N 551.331 -1.39911 -0.725443 0
M  V30 6067 C 552.577 -1.37858 -1.48738 0
M  V30 6068 C 552.91 0.0224187 -1.94187 0
M  V30 6069 O 552.185 0.989204 -1.67466 0
M  V30 6070 C 552.468 -2.3594 -2.72038 0
M  V30 6071 C 552.321 -3.85023 -2.32546 0
M  V30 6072 C 553.64 -2.31704 -3.74167 0
M  V30 6073 H 550.759 -0.502074 -0.539528 0
M  V30 6074 H 553.401 -1.70974 -0.828728 0
M  V30 6075 H 551.551 -2.0783 -3.28236 0
M  V30 6076 H 553.223 -4.2392 -1.81905 0
M  V30 6077 H 551.466 -4.01334 -1.64661 0
M  V30 6078 H 552.137 -4.49152 -3.20884 0
M  V30 6079 H 554.613 -2.5658 -3.27576 0
M  V30 6080 H 553.489 -3.02395 -4.58092 0
M  V30 6081 H 553.75 -1.3253 -4.21768 0
M  V30 6082 N 552.809 0.956637 -1.25245 0
M  V30 6083 C 554.058 1.69537 -1.0927 0
M  V30 6084 C 554.371 1.92136 0.366503 0
M  V30 6085 O 555.577 2.63687 0.64665 0
M  V30 6086 C 554.033 3.05211 -1.9072 0
M  V30 6087 C 553.641 2.90416 -3.41119 0
M  V30 6088 C 555.385 3.82882 -1.83308 0
M  V30 6089 C 553.292 4.21468 -4.14872 0
M  V30 6090 H 552.222 0.635804 -0.405302 0
M  V30 6091 H 554.873 1.06513 -1.49423 0
M  V30 6092 H 553.255 3.69128 -1.43389 0
M  V30 6093 H 554.429 2.35444 -3.9611 0
M  V30 6094 H 552.744 2.26203 -3.49602 0
M  V30 6095 H 555.341 4.79944 -2.35706 0
M  V30 6096 H 555.684 4.0853 -0.800572 0
M  V30 6097 H 556.217 3.25711 -2.28379 0
M  V30 6098 H 552.956 4.01009 -5.18529 0
M  V30 6099 H 552.476 4.76213 -3.64665 0
M  V30 6100 H 554.155 4.90022 -4.22478 0
M  V30 6101 N 554.287 1.06798 1.15896 0
M  V30 6102 C 555.197 0.694564 2.24083 0
M  V30 6103 C 556.213 -0.291687 1.71538 0
M  V30 6104 O 557.389 -0.139723 2.00915 0
M  V30 6105 C 554.454 0.0921014 3.46578 0
M  V30 6106 C 553.515 1.13087 4.14137 0
M  V30 6107 C 552.748 0.557064 5.30785 0
M  V30 6108 O 552.971 -0.628623 5.66925 0
M  V30 6109 O 551.905 1.29924 5.8771 0
M  V30 6110 H 555.731 1.59663 2.58344 0
M  V30 6111 H 553.316 0.840575 1.2351 0
M  V30 6112 H 555.198 -0.241884 4.20705 0
M  V30 6113 H 553.873 -0.78337 3.14078 0
M  V30 6114 H 552.78 1.51712 3.41957 0
M  V30 6115 H 554.113 1.97805 4.50704 0
M  V30 6116 N 555.766 -1.3263 0.851289 0
M  V30 6117 C 556.714 -2.30882 0.282202 0
M  V30 6118 C 557.708 -1.58697 -0.592589 0
M  V30 6119 O 558.914 -1.73461 -0.480768 0
M  V30 6120 H 555.289 -0.748492 0.0725487 0
M  V30 6121 H 557.26 -2.76374 1.12516 0
M  V30 6122 C 556.009 -3.43828 -0.517449 0
M  V30 6123 H 555.332 -3.99532 0.146392 0
M  V30 6124 H 556.772 -4.1474 -0.88128 0
M  V30 6125 C 555.231 -2.90786 -1.70133 0
M  V30 6126 O 555.761 -2.88 -2.80034 0
M  V30 6127 N 553.967 -2.4723 -1.52728 0
M  V30 6128 H 553.514 -2.49695 -0.633257 0
M  V30 6129 H 553.472 -2.12094 -2.32085 0
M  V30 6130 N 557.244 -0.608902 -1.45362 0
M  V30 6131 C 558.177 0.158059 -2.27652 0
M  V30 6132 C 559.155 0.872397 -1.37215 0
M  V30 6133 O 560.339 0.881002 -1.66645 0
M  V30 6134 C 557.466 1.22896 -3.15617 0
M  V30 6135 C 556.512 0.617607 -4.22005 0
M  V30 6136 S 557.345 -0.575518 -5.32398 0
M  V30 6137 C 558.501 0.495938 -6.23932 0
M  V30 6138 H 558.734 -0.540095 -2.92353 0
M  V30 6139 H 556.267 -0.396456 -1.49223 0
M  V30 6140 H 558.225 1.84195 -3.66855 0
M  V30 6141 H 556.886 1.89919 -2.50179 0
M  V30 6142 H 556.079 1.42341 -4.83482 0
M  V30 6143 H 555.681 0.0797273 -3.73915 0
M  V30 6144 H 557.973 1.37465 -6.63408 0
M  V30 6145 H 558.916 -0.0827108 -7.08052 0
M  V30 6146 H 559.324 0.811856 -5.58631 0
M  V30 6147 N 558.722 1.53707 -0.348139 0
M  V30 6148 C 559.669 2.25173 0.506518 0
M  V30 6149 C 560.639 1.25174 1.09182 0
M  V30 6150 O 561.824 1.53917 1.12757 0
M  V30 6151 C 558.964 3.03141 1.64923 0
M  V30 6152 C 558.077 4.18002 1.0908 0
M  V30 6153 C 557.212 4.83447 2.20119 0
M  V30 6154 C 556.251 5.90369 1.61651 0
M  V30 6155 N 555.388 6.49575 2.66451 0
M  V30 6156 H 560.228 2.97799 -0.109452 0
M  V30 6157 H 557.765 1.46953 -0.0657866 0
M  V30 6158 H 559.723 3.46607 2.32205 0
M  V30 6159 H 558.353 2.32803 2.23612 0
M  V30 6160 H 557.405 3.79145 0.308783 0
M  V30 6161 H 558.717 4.94892 0.623178 0
M  V30 6162 H 557.871 5.30008 2.95257 0
M  V30 6163 H 556.61 4.05991 2.70227 0
M  V30 6164 H 555.615 5.43186 0.850209 0
M  V30 6165 H 556.84 6.69735 1.1239 0
M  V30 6166 H 554.786 5.74981 3.15805 0
M  V30 6167 H 554.703 7.21952 2.24325 0
M  V30 6168 H 555.971 7.00789 3.41344 0
M  V30 6169 N 560.2 0.0768682 1.57412 0
M  V30 6170 C 561.449 -0.590679 1.92857 0
M  V30 6171 C 561.762 -1.70461 0.959293 0
M  V30 6172 O 562.968 -2.43207 1.20675 0
M  V30 6173 C 561.424 -1.10204 3.42612 0
M  V30 6174 C 561.032 -0.0188447 4.47996 0
M  V30 6175 C 562.776 -1.74336 3.87049 0
M  V30 6176 C 560.683 -0.544536 5.88888 0
M  V30 6177 H 559.613 -0.224411 0.71983 0
M  V30 6178 H 562.264 0.149924 1.82887 0
M  V30 6179 H 560.646 -1.89577 3.47673 0
M  V30 6180 H 561.82 0.755936 4.54557 0
M  V30 6181 H 560.135 0.526555 4.13057 0
M  V30 6182 H 562.732 -2.14708 4.89699 0
M  V30 6183 H 563.075 -2.60537 3.24694 0
M  V30 6184 H 563.608 -1.01577 3.84613 0
M  V30 6185 H 560.347 0.280426 6.549 0
M  V30 6186 H 559.867 -1.28673 5.85836 0
M  V30 6187 H 561.546 -1.01933 6.3892 0
M  V30 6188 N 561.678 -1.56367 -0.196722 0
M  V30 6189 C 563.089 -1.70462 -0.761545 0
M  V30 6190 C 563.44 -0.683161 -1.83922 0
M  V30 6191 O 562.565 0.160753 -2.15802 0
M  V30 6192 C 563.16 -3.09057 -1.38814 0
M  V30 6193 C 561.719 -3.24922 -1.90007 0
M  V30 6194 C 560.866 -2.66412 -0.769399 0
M  V30 6195 H 563.817 -1.58675 0.0283263 0
M  V30 6196 H 563.838 -3.06296 -2.2575 0
M  V30 6197 H 563.35 -3.83378 -0.603559 0
M  V30 6198 H 561.451 -2.55514 -2.71189 0
M  V30 6199 H 561.564 -4.3241 -2.06297 0
M  V30 6200 H 559.928 -2.25546 -1.18326 0
M  V30 6201 H 560.711 -3.433 0.00291773 0
M  V30 6202 N 563.156 0.464375 -1.50603 0
M  V30 6203 C 564.405 1.21277 -1.61167 0
M  V30 6204 C 564.718 1.92953 -0.320704 0
M  V30 6205 O 565.924 2.69778 -0.30534 0
M  V30 6206 C 564.38 2.20403 -2.84518 0
M  V30 6207 C 563.988 1.54499 -4.20516 0
M  V30 6208 C 565.732 2.95843 -3.0443 0
M  V30 6209 C 563.639 2.51951 -5.35047 0
M  V30 6210 H 562.569 0.456367 -0.600204 0
M  V30 6211 H 565.22 0.48254 -1.77042 0
M  V30 6212 H 563.602 2.96746 -2.62217 0
M  V30 6213 H 564.776 0.83899 -4.53098 0
M  V30 6214 H 563.091 0.913152 -4.06264 0
M  V30 6215 H 565.688 3.6879 -3.87167 0
M  V30 6216 H 566.031 3.55622 -2.16423 0
M  V30 6217 H 566.564 2.26611 -3.26944 0
M  V30 6218 H 563.303 1.96901 -6.25228 0
M  V30 6219 H 562.823 3.20683 -5.06875 0
M  V30 6220 H 564.502 3.13643 -5.65895 0
M  V30 6221 N 564.634 1.40294 0.718013 0
M  V30 6222 C 565.582 1.40536 1.85344 0
M  V30 6223 C 566.576 0.286192 1.66965 0
M  V30 6224 O 567.782 0.457105 1.74099 0
M  V30 6225 H 564.157 0.439236 0.61039 0
M  V30 6226 H 566.128 2.36275 1.82255 0
M  V30 6227 C 564.877 1.28245 3.23185 0
M  V30 6228 H 564.2 2.1364 3.37932 0
M  V30 6229 H 565.64 1.32474 4.02774 0
M  V30 6230 C 564.099 -0.0075503 3.36899 0
M  V30 6231 O 564.629 -0.971391 3.89778 0
M  V30 6232 N 562.835 -0.0762479 2.905 0
M  V30 6233 H 562.382 0.708819 2.47656 0
M  V30 6234 H 562.34 -0.938846 3.00055 0
M  V30 6235 N 566.112 -0.949982 1.2575 0
M  V30 6236 C 567.059 -2.04738 1.06541 0
M  V30 6237 C 568.029 -1.66078 -0.0268818 0
M  V30 6238 O 569.214 -1.90348 0.131196 0
M  V30 6239 C 566.354 -3.38027 0.695127 0
M  V30 6240 C 565.467 -3.89776 1.86276 0
M  V30 6241 C 564.602 -5.11411 1.4364 0
M  V30 6242 C 563.641 -5.554 2.57287 0
M  V30 6243 N 562.778 -6.68244 2.15395 0
M  V30 6244 H 567.618 -2.20502 2.00457 0
M  V30 6245 H 565.155 -1.0805 0.998178 0
M  V30 6246 H 567.113 -4.14641 0.461375 0
M  V30 6247 H 565.743 -3.22135 -0.207046 0
M  V30 6248 H 564.795 -3.0964 2.20969 0
M  V30 6249 H 566.107 -4.18368 2.71606 0
M  V30 6250 H 565.261 -5.95457 1.16257 0
M  V30 6251 H 564 -4.84545 0.553879 0
M  V30 6252 H 563.005 -4.69916 2.85409 0
M  V30 6253 H 564.23 -5.84272 3.46125 0
M  V30 6254 H 562.176 -6.43078 1.29565 0
M  V30 6255 H 562.093 -6.96377 2.94272 0
M  V30 6256 H 563.361 -7.55687 1.91201 0
M  V30 6257 N 567.59 -1.07411 -1.15328 0
M  V30 6258 C 568.553 -0.698914 -2.18284 0
M  V30 6259 C 569.553 0.261149 -1.58665 0
M  V30 6260 O 570.743 0.0420277 -1.74149 0
M  V30 6261 C 567.875 -0.0302427 -3.40887 0
M  V30 6262 H 569.068 -1.61045 -2.52991 0
M  V30 6263 H 566.621 -0.870724 -1.298 0
M  V30 6264 H 567.356 0.893505 -3.11748 0
M  V30 6265 H 567.141 -0.720759 -3.85419 0
M  V30 6266 H 568.631 0.21759 -4.17033 0
M  V30 6267 N 569.068 1.32177 -0.85831 0
M  V30 6268 C 569.998 2.31282 -0.321041 0
M  V30 6269 C 570.979 1.59841 0.581786 0
M  V30 6270 O 572.164 1.87619 0.501262 0
M  V30 6271 C 569.294 3.4385 0.48832 0
M  V30 6272 C 568.248 4.26799 -0.320391 0
M  V30 6273 C 567.574 5.31164 0.613934 0
M  V30 6274 C 568.874 4.98829 -1.54813 0
M  V30 6275 H 570.568 2.76469 -1.14915 0
M  V30 6276 H 568.114 1.32916 -0.554028 0
M  V30 6277 H 570.067 4.12224 0.874626 0
M  V30 6278 H 568.791 2.97401 1.34983 0
M  V30 6279 H 567.45 3.60077 -0.688497 0
M  V30 6280 H 567.098 4.80967 1.47239 0
M  V30 6281 H 566.798 5.8755 0.0768097 0
M  V30 6282 H 568.322 6.024 0.997336 0
M  V30 6283 H 569.736 5.59864 -1.23392 0
M  V30 6284 H 568.133 5.64957 -2.02346 0
M  V30 6285 H 569.203 4.26483 -2.30739 0
M  V30 6286 N 570.547 0.616602 1.45037 0
M  V30 6287 C 571.457 -0.0985401 2.34393 0
M  V30 6288 C 572.473 -0.850971 1.51771 0
M  V30 6289 O 573.649 -0.806521 1.84546 0
M  V30 6290 C 570.714 -1.07748 3.29532 0
M  V30 6291 C 569.775 -0.326022 4.2806 0
M  V30 6292 C 569.008 -1.25833 5.18654 0
M  V30 6293 O 569.231 -2.49652 5.12864 0
M  V30 6294 O 568.165 -0.750512 5.97203 0
M  V30 6295 H 571.991 0.636016 2.96966 0
M  V30 6296 H 569.576 0.376832 1.44569 0
M  V30 6297 H 571.458 -1.64107 3.88133 0
M  V30 6298 H 570.133 -1.79291 2.69512 0
M  V30 6299 H 569.04 0.280253 3.73049 0
M  V30 6300 H 570.373 0.349091 4.9096 0
M  V30 6301 N 572.025 -1.5352 0.356285 0
M  V30 6302 C 572.972 -2.25439 -0.494569 0
M  V30 6303 C 573.942 -1.25752 -1.08516 0
M  V30 6304 O 575.127 -1.54513 -1.1194 0
M  V30 6305 C 572.267 -3.04011 -1.63313 0
M  V30 6306 C 571.38 -4.18574 -1.06862 0
M  V30 6307 C 570.515 -4.84607 -2.17552 0
M  V30 6308 C 569.554 -5.91218 -1.58518 0
M  V30 6309 N 568.691 -6.50979 -2.63003 0
M  V30 6310 H 573.531 -2.97737 0.125244 0
M  V30 6311 H 571.068 -1.46916 0.0735789 0
M  V30 6312 H 573.026 -3.47834 -2.30363 0
M  V30 6313 H 571.656 -2.33986 -2.22374 0
M  V30 6314 H 570.708 -3.79303 -0.288672 0
M  V30 6315 H 572.02 -4.95215 -0.596924 0
M  V30 6316 H 571.174 -5.31566 -2.92442 0
M  V30 6317 H 569.913 -4.07418 -2.6807 0
M  V30 6318 H 568.918 -5.4363 -0.821391 0
M  V30 6319 H 570.143 -6.70322 -1.08836 0
M  V30 6320 H 568.089 -5.76648 -3.12751 0
M  V30 6321 H 568.006 -7.23131 -2.20493 0
M  V30 6322 H 569.274 -7.02589 -3.37623 0
M  V30 6323 N 573.503 -0.0852151 -1.57369 0
M  V30 6324 C 574.751 0.579658 -1.93609 0
M  V30 6325 C 575.072 1.69332 -0.967043 0
M  V30 6326 O 574.342 1.95892 -0.0174215 0
M  V30 6327 H 572.922 0.217113 -0.714752 0
M  V30 6328 H 575.584 -0.146226 -1.94351 0
M  V30 6329 H 574.68 0.996276 -2.95771 0
M  V30 6330 N 574.981 1.5647 0.188427 0
M  V30 6331 C 576.229 1.80655 0.905986 0
M  V30 6332 C 576.55 0.659391 1.83513 0
M  V30 6333 O 575.82 -0.321868 1.93238 0
M  V30 6334 H 574.4 0.666391 0.337538 0
M  V30 6335 H 577.062 1.93949 0.192339 0
M  V30 6336 H 576.158 2.74066 1.49313 0
M  V30 6337 N 576.459 -0.456382 1.50847 0
M  V30 6338 C 577.706 -1.20736 1.62571 0
M  V30 6339 C 578.034 -1.9163 0.332904 0
M  V30 6340 O 577.289 -1.8343 -0.682058 0
M  V30 6341 C 577.588 -2.26336 2.76599 0
M  V30 6342 C 577.254 -1.7259 4.16562 0
M  V30 6343 C 575.916 -1.57654 4.54641 0
M  V30 6344 C 578.268 -1.32877 5.03977 0
M  V30 6345 C 575.596 -1.0145 5.77862 0
M  V30 6346 C 577.948 -0.7811 6.27759 0
M  V30 6347 C 576.612 -0.618488 6.64628 0
M  V30 6348 H 575.882 -0.441803 0.594888 0
M  V30 6349 H 578.529 -0.501169 1.84826 0
M  V30 6350 H 576.834 -3.0292 2.48489 0
M  V30 6351 H 578.531 -2.84227 2.82871 0
M  V30 6352 H 575.121 -1.85187 3.86528 0
M  V30 6353 H 579.305 -1.43245 4.75179 0
M  V30 6354 H 574.561 -0.876109 6.0509 0
M  V30 6355 H 578.735 -0.464783 6.94847 0
M  V30 6356 H 576.362 -0.180838 7.59985 0
M  V30 6357 N 577.937 -1.40673 -0.710563 0
M  V30 6358 C 578.869 -1.37256 -1.83558 0
M  V30 6359 C 579.882 -0.277133 -1.60424 0
M  V30 6360 O 581.071 -0.537831 -1.70205 0
M  V30 6361 C 578.171 -1.1144 -3.20054 0
M  V30 6362 C 577.344 -2.32734 -3.70342 0
M  V30 6363 C 576.403 -2.03002 -4.85465 0
M  V30 6364 O 575.429 -2.75912 -4.97857 0
M  V30 6365 N 576.631 -1.01105 -5.71627 0
M  V30 6366 H 579.396 -2.34215 -1.86985 0
M  V30 6367 H 576.957 -1.35091 -0.892301 0
M  V30 6368 H 578.949 -0.895265 -3.94673 0
M  V30 6369 H 577.519 -0.231307 -3.11743 0
M  V30 6370 H 576.739 -2.70446 -2.86798 0
M  V30 6371 H 578.027 -3.13584 -4.00678 0
M  V30 6372 H 577.425 -0.407303 -5.64232 0
M  V30 6373 H 575.982 -0.85182 -6.4621 0
M  V30 6374 N 579.415 0.9433 -1.26252 0
M  V30 6375 C 580.345 2.05902 -1.10122 0
M  V30 6376 C 581.326 1.70099 -0.00700552 0
M  V30 6377 O 582.511 1.93377 -0.178641 0
M  V30 6378 C 579.641 3.39516 -0.731175 0
M  V30 6379 C 578.595 3.89372 -1.77688 0
M  V30 6380 C 577.921 5.19613 -1.26122 0
M  V30 6381 C 579.221 4.14489 -3.17799 0
M  V30 6382 H 580.915 2.19655 -2.03451 0
M  V30 6383 H 578.461 1.05548 -0.979576 0
M  V30 6384 H 580.414 4.17031 -0.605215 0
M  V30 6385 H 579.138 3.25733 0.23782 0
M  V30 6386 H 577.797 3.14036 -1.89148 0
M  V30 6387 H 577.445 5.02208 -0.282128 0
M  V30 6388 H 577.145 5.53939 -1.96023 0
M  V30 6389 H 578.669 5.99713 -1.14789 0
M  V30 6390 H 580.083 4.82625 -3.09428 0
M  V30 6391 H 578.48 4.60094 -3.85271 0
M  V30 6392 H 579.55 3.20347 -3.64014 0
M  V30 6393 N 580.893 1.08022 1.14757 0
M  V30 6394 C 581.84 0.706657 2.19716 0
M  V30 6395 C 582.81 -0.30525 1.63271 0
M  V30 6396 O 583.995 -0.19015 1.8985 0
M  V30 6397 C 581.135 0.117914 3.44898 0
M  V30 6398 C 580.248 1.18212 4.15512 0
M  V30 6399 C 579.383 0.557659 5.28265 0
M  V30 6400 C 578.422 1.60418 5.90705 0
M  V30 6401 N 577.559 1.0018 6.94916 0
M  V30 6402 H 582.399 1.60603 2.51019 0
M  V30 6403 H 579.936 0.802664 1.23271 0
M  V30 6404 H 581.894 -0.241112 4.16503 0
M  V30 6405 H 580.524 -0.744788 3.1409 0
M  V30 6406 H 579.576 1.65863 3.42335 0
M  V30 6407 H 580.888 1.97533 4.5802 0
M  V30 6408 H 580.042 0.146654 6.06523 0
M  V30 6409 H 578.781 -0.267249 4.86967 0
M  V30 6410 H 577.786 2.02489 5.11154 0
M  V30 6411 H 579.011 2.43149 6.34078 0
M  V30 6412 H 576.957 0.197917 6.55701 0
M  V30 6413 H 576.874 1.73216 7.35889 0
M  V30 6414 H 578.142 0.616523 7.77058 0
M  V30 6415 N 582.371 -1.3172 0.865308 0
M  V30 6416 C 583.648 -1.91574 0.394789 0
M  V30 6417 C 584.028 -1.78769 -1.12271 0
M  V30 6418 O 583.376 -1.19245 -1.94918 0
M  V30 6419 C 583.586 -3.37957 0.870982 0
M  V30 6420 C 584.934 -4.15073 0.894384 0
M  V30 6421 O 585.958 -3.4672 0.816325 0
M  V30 6422 O 584.817 -5.37151 1.00651 0
M  V30 6423 H 581.911 -0.818649 0.117229 0
M  V30 6424 H 584.457 -1.4042 0.952913 0
M  V30 6425 H 583.229 -3.41269 1.91444 0
M  V30 6426 H 582.852 -3.96534 0.290907 0
M  V30 6427 N 583.85 -0.624285 -1.44708 0
M  V30 6428 C 585.099 -0.123539 -2.01321 0
M  V30 6429 C 585.412 1.25966 -1.49639 0
M  V30 6430 O 586.618 1.85405 -1.98336 0
M  V30 6431 C 585.074 -0.170124 -3.59498 0
M  V30 6432 C 584.682 -1.55421 -4.20176 0
M  V30 6433 C 586.426 0.274513 -4.23611 0
M  V30 6434 C 584.332 -1.55628 -5.70556 0
M  V30 6435 H 583.263 -0.0424183 -0.752806 0
M  V30 6436 H 585.913 -0.782076 -1.65999 0
M  V30 6437 H 584.296 0.555385 -3.92086 0
M  V30 6438 H 585.47 -2.30276 -3.99136 0
M  V30 6439 H 583.784 -1.94235 -3.68323 0
M  V30 6440 H 586.382 0.292402 -5.339 0
M  V30 6441 H 586.725 1.3005 -3.95465 0
M  V30 6442 H 587.258 -0.398275 -3.95801 0
M  V30 6443 H 583.997 -2.56041 -6.03426 0
M  V30 6444 H 583.517 -0.850563 -5.93739 0
M  V30 6445 H 585.196 -1.28721 -6.34066 0
M  V30 6446 N 585.328 1.53329 -0.364422 0
M  V30 6447 C 586.238 2.29414 0.490552 0
M  V30 6448 C 587.254 1.35335 1.09363 0
M  V30 6449 O 588.43 1.68391 1.10483 0
M  V30 6450 C 585.495 3.06772 1.61529 0
M  V30 6451 C 584.556 4.16516 1.03986 0
M  V30 6452 C 583.789 4.90176 2.111 0
M  V30 6453 O 584.012 4.63687 3.32191 0
M  V30 6454 O 582.946 5.76134 1.74222 0
M  V30 6455 H 586.772 3.03428 -0.12856 0
M  V30 6456 H 584.357 1.48843 -0.128837 0
M  V30 6457 H 586.239 3.55082 2.26924 0
M  V30 6458 H 584.914 2.35596 2.21983 0
M  V30 6459 H 583.821 3.7246 0.349856 0
M  V30 6460 H 585.154 4.89855 0.4799 0
M  V30 6461 N 586.806 0.0935595 1.57322 0
M  V30 6462 C 587.769 -0.851426 2.12799 0
M  V30 6463 C 588.769 -1.21187 1.0569 0
M  V30 6464 O 589.959 -1.14156 1.31583 0
M  V30 6465 C 587.091 -2.14779 2.64731 0
M  V30 6466 H 588.284 -0.369733 2.97612 0
M  V30 6467 H 585.837 -0.155417 1.55525 0
M  V30 6468 H 586.572 -2.67437 1.83434 0
M  V30 6469 H 586.357 -1.89907 3.43042 0
M  V30 6470 H 587.847 -2.82383 3.07651 0
M  V30 6471 N 588.284 -1.56567 -0.180126 0
M  V30 6472 C 589.214 -1.98753 -1.22553 0
M  V30 6473 C 590.195 -0.86175 -1.46656 0
M  V30 6474 O 591.38 -1.12719 -1.58139 0
M  V30 6475 C 588.51 -2.33988 -2.56645 0
M  V30 6476 C 587.464 -3.49445 -2.47128 0
M  V30 6477 C 586.79 -3.70397 -3.8563 0
M  V30 6478 C 588.09 -4.83171 -1.98352 0
M  V30 6479 H 589.784 -2.86332 -0.874896 0
M  V30 6480 H 587.33 -1.37757 -0.419414 0
M  V30 6481 H 589.283 -2.62097 -3.29974 0
M  V30 6482 H 588.007 -1.43309 -2.93479 0
M  V30 6483 H 586.666 -3.2145 -1.76254 0
M  V30 6484 H 586.314 -2.77023 -4.19842 0
M  V30 6485 H 586.014 -4.48077 -3.80132 0
M  V30 6486 H 587.538 -4.00897 -4.60558 0
M  V30 6487 H 588.952 -5.10213 -2.61449 0
M  V30 6488 H 587.349 -5.64425 -2.03823 0
M  V30 6489 H 588.419 -4.75753 -0.937402 0
M  V30 6490 N 589.762 0.448376 -1.51087 0
M  V30 6491 C 590.672 1.56882 -1.74428 0
M  V30 6492 C 591.688 1.62268 -0.62809 0
M  V30 6493 O 592.864 1.79716 -0.909075 0
M  V30 6494 C 589.929 2.92947 -1.85426 0
M  V30 6495 C 588.99 2.97766 -3.09247 0
M  V30 6496 C 588.223 4.27341 -3.19711 0
M  V30 6497 O 588.446 5.19112 -2.36387 0
M  V30 6498 O 587.38 4.38219 -4.12611 0
M  V30 6499 H 591.206 1.40104 -2.69452 0
M  V30 6500 H 588.791 0.630247 -1.35456 0
M  V30 6501 H 590.673 3.73719 -1.94709 0
M  V30 6502 H 589.348 3.09876 -0.935887 0
M  V30 6503 H 588.255 2.15989 -3.0545 0
M  V30 6504 H 589.588 2.8578 -4.00738 0
M  V30 6505 N 591.24 1.41047 0.703093 0
M  V30 6506 C 592.17 1.45067 1.82969 0
M  V30 6507 C 593.151 0.31016 1.67248 0
M  V30 6508 O 594.336 0.520548 1.87093 0
M  V30 6509 C 591.466 1.32478 3.2104 0
M  V30 6510 C 590.42 2.44262 3.51454 0
M  V30 6511 C 589.746 2.16742 4.88801 0
M  V30 6512 C 591.046 3.86606 3.51189 0
M  V30 6513 H 592.74 2.39353 1.79863 0
M  V30 6514 H 590.286 1.15206 0.863919 0
M  V30 6515 H 592.239 1.33904 3.99559 0
M  V30 6516 H 590.963 0.346735 3.24754 0
M  V30 6517 H 589.622 2.42107 2.75282 0
M  V30 6518 H 589.27 1.17299 4.89132 0
M  V30 6519 H 588.97 2.91643 5.10116 0
M  V30 6520 H 590.494 2.19872 5.69639 0
M  V30 6521 H 591.908 3.90517 4.19725 0
M  V30 6522 H 590.305 4.61128 3.84033 0
M  V30 6523 H 591.375 4.15296 2.50315 0
M  V30 6524 N 592.718 -0.936591 1.26751 0
M  V30 6525 C 593.967 -1.67778 1.11953 0
M  V30 6526 C 594.28 -1.92694 -0.33589 0
M  V30 6527 O 595.486 -2.64682 -0.604618 0
M  V30 6528 C 593.942 -3.02138 1.95551 0
M  V30 6529 C 593.55 -2.84953 3.45696 0
M  V30 6530 C 595.294 -3.79917 1.89377 0
M  V30 6531 C 593.201 -4.14814 4.21525 0
M  V30 6532 H 592.131 -0.629275 0.415366 0
M  V30 6533 H 594.782 -1.04122 1.51099 0
M  V30 6534 H 593.164 -3.668 1.49243 0
M  V30 6535 H 594.338 -2.29112 3.99805 0
M  V30 6536 H 592.653 -2.20612 3.53156 0
M  V30 6537 H 595.25 -4.76134 2.43312 0
M  V30 6538 H 595.593 -4.07204 0.865464 0
M  V30 6539 H 596.126 -3.22037 2.33532 0
M  V30 6540 H 592.865 -3.92709 5.24843 0
M  V30 6541 H 592.385 -4.70352 3.72195 0
M  V30 6542 H 594.064 -4.83239 4.3022 0
M  V30 6543 N 594.196 -1.08629 -1.14182 0
M  V30 6544 C 595.444 -0.815731 -1.84906 0
M  V30 6545 C 595.765 0.660441 -1.83475 0
M  V30 6546 O 595.035 1.47888 -1.28476 0
M  V30 6547 H 593.615 -0.298773 -0.684648 0
M  V30 6548 H 596.277 -1.37274 -1.38354 0
M  V30 6549 H 595.373 -1.16193 -2.89665 0
M  V30 6550 N 595.674 1.31259 -0.872281 0
M  V30 6551 C 596.899 2.0133 -0.498099 0
M  V30 6552 C 597.324 1.65031 0.902568 0
M  V30 6553 O 596.682 0.860164 1.59596 0
M  V30 6554 C 596.73 3.54411 -0.665205 0
M  V30 6555 O 595.834 4.11347 0.294473 0
M  V30 6556 H 595.175 0.633844 -0.197832 0
M  V30 6557 H 597.705 1.67402 -1.17633 0
M  V30 6558 H 597.715 4.04147 -0.559373 0
M  V30 6559 H 596.39 3.80171 -1.68651 0
M  V30 6560 H 594.967 3.72624 0.143403 0
M  V30 6561 N 597.152 0.631951 1.44375 0
M  V30 6562 C 598.4 0.136497 2.01639 0
M  V30 6563 C 598.721 -1.24637 1.49969 0
M  V30 6564 O 597.991 -1.82827 0.70363 0
M  V30 6565 H 596.571 0.0474703 0.74549 0
M  V30 6566 H 599.233 0.818837 1.76865 0
M  V30 6567 H 598.329 0.104817 3.11924 0
M  V30 6568 N 598.631 -1.53133 0.372548 0
M  V30 6569 C 599.877 -2.02336 -0.207823 0
M  V30 6570 C 600.232 -1.25477 -1.45853 0
M  V30 6571 O 599.525 -0.341971 -1.88524 0
M  V30 6572 C 599.719 -3.53206 -0.545938 0
M  V30 6573 C 599.548 -4.44674 0.670454 0
M  V30 6574 C 598.318 -4.91217 1.18465 0
M  V30 6575 C 600.516 -4.90772 1.53777 0
M  V30 6576 N 598.498 -5.66711 2.36034 0
M  V30 6577 C 599.869 -5.64678 2.56004 0
M  V30 6578 C 601.924 -4.72836 1.55983 0
M  V30 6579 C 600.627 -6.22555 3.60303 0
M  V30 6580 C 602.653 -5.31583 2.59179 0
M  V30 6581 C 602.015 -6.05381 3.6013 0
M  V30 6582 H 598.114 -0.781048 -0.0385783 0
M  V30 6583 H 600.698 -1.87665 0.518664 0
M  V30 6584 H 598.869 -3.68024 -1.24149 0
M  V30 6585 H 600.601 -3.89123 -1.112 0
M  V30 6586 H 597.356 -4.67652 0.748205 0
M  V30 6587 H 597.78 -6.09117 2.95475 0
M  V30 6588 H 602.422 -4.15299 0.792877 0
M  V30 6589 H 600.14 -6.79183 4.37876 0
M  V30 6590 H 603.726 -5.19595 2.61749 0
M  V30 6591 H 602.606 -6.50028 4.38672 0
M  V30 6592 N 600.109 -0.101901 -1.5727 0
M  V30 6593 C 601.525 0.254739 -1.57554 0
M  V30 6594 C 601.725 1.67937 -1.11352 0
M  V30 6595 O 600.781 2.39722 -0.793081 0
M  V30 6596 C 602.094 0.036975 -3.00677 0
M  V30 6597 C 603.642 0.104199 -3.12827 0
M  V30 6598 C 604.117 -0.0856565 -4.5792 0
M  V30 6599 N 605.608 -0.0310498 -4.6319 0
M  V30 6600 C 606.343 -0.153099 -5.73196 0
M  V30 6601 N 605.839 -0.330364 -6.92012 0
M  V30 6602 N 607.632 -0.0938854 -5.62022 0
M  V30 6603 H 599.783 -1.03263 -1.85609 0
M  V30 6604 H 602.046 -0.405251 -0.857016 0
M  V30 6605 H 601.752 -0.947254 -3.38703 0
M  V30 6606 H 601.626 0.776335 -3.69124 0
M  V30 6607 H 604.013 1.07894 -2.74669 0
M  V30 6608 H 604.094 -0.666762 -2.46957 0
M  V30 6609 H 603.738 -1.05729 -4.96773 0
M  V30 6610 H 603.668 0.705082 -5.21858 0
M  V30 6611 H 606.159 0.103141 -3.77759 0
M  V30 6612 H 606.472 -0.41482 -7.71686 0
M  V30 6613 H 604.817 -0.366119 -6.94035 0
M  V30 6614 H 608.008 0.0435168 -4.6808 0
M  V30 6615 H 608.181 -0.19245 -6.47714 0
M  V30 6616 N 601.587 1.56661 0.17182 0
M  V30 6617 C 602.833 1.82235 0.889845 0
M  V30 6618 C 603.166 0.679673 1.81918 0
M  V30 6619 O 602.441 -0.318404 1.91876 0
M  V30 6620 C 602.724 3.18195 1.68595 0
M  V30 6621 C 602.577 4.42989 0.779773 0
M  V30 6622 C 603.896 3.5109 2.65375 0
M  V30 6623 H 601.015 0.66291 0.322056 0
M  V30 6624 H 603.657 1.89358 0.15608 0
M  V30 6625 H 601.807 3.12253 2.3115 0
M  V30 6626 H 603.479 4.60997 0.16714 0
M  V30 6627 H 601.722 4.33711 0.0877964 0
M  V30 6628 H 602.393 5.3467 1.3723 0
M  V30 6629 H 604.869 3.57482 2.12946 0
M  V30 6630 H 603.745 4.47298 3.18144 0
M  V30 6631 H 604.006 2.75768 3.45549 0
M  V30 6632 N 603.065 -0.440357 1.51323 0
M  V30 6633 C 604.476 -1.02032 1.56353 0
M  V30 6634 C 604.827 -1.92382 0.385197 0
M  V30 6635 O 603.952 -2.10583 -0.498373 0
M  V30 6636 C 604.547 -1.85723 2.83359 0
M  V30 6637 C 603.106 -2.38774 2.90971 0
M  V30 6638 C 602.253 -1.17908 2.50984 0
M  V30 6639 H 605.204 -0.221744 1.57143 0
M  V30 6640 H 605.225 -2.71141 2.66951 0
M  V30 6641 H 604.737 -1.19939 3.69102 0
M  V30 6642 H 602.838 -3.08021 2.09651 0
M  V30 6643 H 602.951 -2.71778 3.94555 0
M  V30 6644 H 601.315 -1.52347 2.04114 0
M  V30 6645 H 602.098 -0.537393 3.39068 0
M  V30 6646 N 604.543 -1.41418 -0.695603 0
M  V30 6647 C 605.49 -1.43264 -1.80954 0
M  V30 6648 C 606.46 -0.287016 -1.63601 0
M  V30 6649 O 607.645 -0.488054 -1.84452 0
M  V30 6650 C 604.785 -1.32054 -3.18835 0
M  V30 6651 C 603.898 -2.56485 -3.4762 0
M  V30 6652 C 603.033 -2.3757 -4.75115 0
M  V30 6653 C 602.072 -3.57477 -4.96867 0
M  V30 6654 N 601.209 -3.37632 -6.15588 0
M  V30 6655 H 606.049 -2.38467 -1.78711 0
M  V30 6656 H 603.586 -1.18415 -0.872715 0
M  V30 6657 H 605.544 -1.23558 -3.98484 0
M  V30 6658 H 604.174 -0.404592 -3.20254 0
M  V30 6659 H 603.226 -2.75432 -2.62376 0
M  V30 6660 H 604.538 -3.45678 -3.59594 0
M  V30 6661 H 603.692 -2.2654 -5.62818 0
M  V30 6662 H 602.431 -1.45834 -4.65386 0
M  V30 6663 H 601.436 -3.68961 -4.07612 0
M  V30 6664 H 602.661 -4.50167 -5.08455 0
M  V30 6665 H 600.607 -2.48596 -6.07072 0
M  V30 6666 H 600.524 -4.20401 -6.2833 0
M  V30 6667 H 601.792 -3.30375 -7.06026 0
M  V30 6668 N 606.021 0.929856 -1.27246 0
M  V30 6669 C 607.27 1.67182 -1.12842 0
M  V30 6670 C 607.583 1.9287 0.325666 0
M  V30 6671 O 608.789 2.64999 0.590572 0
M  V30 6672 C 607.245 3.01097 -1.97151 0
M  V30 6673 C 606.853 2.83115 -3.47203 0
M  V30 6674 C 608.597 3.78907 -1.91389 0
M  V30 6675 C 606.504 4.12573 -4.23719 0
M  V30 6676 H 605.434 0.627064 -0.418697 0
M  V30 6677 H 608.085 1.0332 -1.51649 0
M  V30 6678 H 606.467 3.66004 -1.51186 0
M  V30 6679 H 607.641 2.26989 -4.01015 0
M  V30 6680 H 605.956 2.18736 -3.54321 0
M  V30 6681 H 608.553 4.74837 -2.45834 0
M  V30 6682 H 608.896 4.0674 -0.887047 0
M  V30 6683 H 609.429 3.20794 -2.35237 0
M  V30 6684 H 606.168 3.8992 -5.26918 0
M  V30 6685 H 605.688 4.68371 -3.74685 0
M  V30 6686 H 607.367 4.8095 -4.32777 0
M  V30 6687 N 607.499 1.09233 1.13605 0
M  V30 6688 C 608.429 0.751738 2.21068 0
M  V30 6689 C 609.41 -0.269688 1.67948 0
M  V30 6690 O 610.595 -0.13819 1.93708 0
M  V30 6691 C 607.725 0.16935 3.46887 0
M  V30 6692 C 606.679 1.12007 4.13084 0
M  V30 6693 C 606.005 0.399483 5.33206 0
M  V30 6694 C 607.305 2.46168 4.6065 0
M  V30 6695 H 608.999 1.65024 2.49815 0
M  V30 6696 H 606.545 0.794905 1.20072 0
M  V30 6697 H 608.498 -0.0809824 4.21322 0
M  V30 6698 H 607.222 -0.764335 3.1753 0
M  V30 6699 H 605.881 1.35564 3.40614 0
M  V30 6700 H 605.529 -0.538277 5.00112 0
M  V30 6701 H 605.229 1.03337 5.78442 0
M  V30 6702 H 606.753 0.157403 6.10397 0
M  V30 6703 H 608.167 2.26829 5.26518 0
M  V30 6704 H 606.564 3.05326 5.1662 0
M  V30 6705 H 607.634 3.07076 3.75276 0
M  V30 6706 N 608.977 -1.30795 0.87923 0
M  V30 6707 C 609.925 -2.30231 0.331112 0
M  V30 6708 C 610.919 -1.59918 -0.558794 0
M  V30 6709 O 612.125 -1.74441 -0.443866 0
M  V30 6710 H 608.5 -0.746785 0.088409 0
M  V30 6711 H 610.471 -2.73925 1.18353 0
M  V30 6712 C 609.22 -3.44848 -0.444401 0
M  V30 6713 H 608.543 -3.99131 0.231106 0
M  V30 6714 H 609.983 -4.16516 -0.793109 0
M  V30 6715 C 608.442 -2.94329 -1.63926 0
M  V30 6716 O 608.972 -2.93875 -2.73862 0
M  V30 6717 N 607.178 -2.50413 -1.4745 0
M  V30 6718 H 606.725 -2.50982 -0.58015 0
M  V30 6719 H 606.683 -2.16969 -2.27534 0
M  V30 6720 N 610.455 -0.639598 -1.44038 0
M  V30 6721 C 611.365 0.0612377 -2.3452 0
M  V30 6722 C 612.381 0.826717 -1.53106 0
M  V30 6723 O 613.557 0.777059 -1.85806 0
M  V30 6724 C 610.622 1.02492 -3.31204 0
M  V30 6725 C 609.683 0.25788 -4.28525 0
M  V30 6726 C 608.916 1.17566 -5.2059 0
M  V30 6727 O 609.139 2.41461 -5.16771 0
M  V30 6728 O 608.073 0.655407 -5.98321 0
M  V30 6729 H 611.899 -0.68318 -2.95916 0
M  V30 6730 H 609.484 -0.399784 -1.43952 0
M  V30 6731 H 611.366 1.57911 -3.90694 0
M  V30 6732 H 610.041 1.7498 -2.7233 0
M  V30 6733 H 608.948 -0.339566 -3.72556 0
M  V30 6734 H 610.281 -0.427154 -4.90343 0
M  V30 6735 N 611.933 1.52934 -0.380664 0
M  V30 6736 C 613.179 2.01765 0.20458 0
M  V30 6737 C 613.512 1.26696 1.47179 0
M  V30 6738 O 612.787 0.364936 1.91046 0
M  V30 6739 C 613.07 3.56869 0.481269 0
M  V30 6740 C 612.923 4.42617 -0.800629 0
M  V30 6741 C 614.242 4.2121 1.27554 0
M  V30 6742 H 611.361 0.733388 0.0728803 0
M  V30 6743 H 614.003 1.83068 -0.50853 0
M  V30 6744 H 612.153 3.72932 1.08875 0
M  V30 6745 H 613.825 4.38323 -1.43773 0
M  V30 6746 H 612.068 4.09977 -1.4178 0
M  V30 6747 H 612.739 5.49134 -0.561791 0
M  V30 6748 H 615.215 4.09072 0.761514 0
M  V30 6749 H 614.091 5.29732 1.43788 0
M  V30 6750 H 614.352 3.78269 2.28833 0
M  V30 6751 N 613.412 0.11024 1.57214 0
M  V30 6752 C 614.64 -0.557834 1.99238 0
M  V30 6753 C 615.055 -1.60778 0.989734 0
M  V30 6754 O 614.412 -1.82491 -0.0186092 0
M  V30 6755 C 614.463 -1.19189 3.41286 0
M  V30 6756 O 614.184 -0.183919 4.37714 0
M  V30 6757 C 615.685 -1.94413 3.98395 0
M  V30 6758 H 612.905 -0.148392 0.654386 0
M  V30 6759 H 615.449 0.193996 2.03578 0
M  V30 6760 H 613.604 -1.89456 3.37913 0
M  V30 6761 H 614.018 -0.643475 5.20538 0
M  V30 6762 H 615.492 -2.34116 4.99894 0
M  V30 6763 H 615.969 -2.81592 3.3705 0
M  V30 6764 H 616.575 -1.28928 4.05287 0
M  V30 6765 N 614.89 -1.56749 -0.16351 0
M  V30 6766 C 615.8 -2.00255 -1.2221 0
M  V30 6767 C 616.816 -0.915194 -1.47987 0
M  V30 6768 O 617.992 -1.22342 -1.59982 0
M  V30 6769 C 615.057 -2.36035 -2.53946 0
M  V30 6770 C 614.118 -3.58637 -2.35962 0
M  V30 6771 C 613.351 -3.92701 -3.61416 0
M  V30 6772 O 613.574 -3.27632 -4.66919 0
M  V30 6773 O 612.508 -4.86019 -3.55062 0
M  V30 6774 H 616.334 -2.90586 -0.882794 0
M  V30 6775 H 613.919 -1.44721 -0.370978 0
M  V30 6776 H 615.801 -2.59982 -3.31643 0
M  V30 6777 H 614.476 -1.48863 -2.8744 0
M  V30 6778 H 613.383 -3.39898 -1.5627 0
M  V30 6779 H 614.716 -4.46374 -2.0739 0
M  V30 6780 N 616.368 0.432326 -1.51554 0
M  V30 6781 C 617.615 1.18134 -1.64471 0
M  V30 6782 C 617.943 1.91076 -0.363349 0
M  V30 6783 O 617.198 1.84492 0.65279 0
M  V30 6784 C 617.497 2.21907 -2.80164 0
M  V30 6785 C 617.163 1.65941 -4.19255 0
M  V30 6786 C 615.825 1.50401 -4.57092 0
M  V30 6787 C 618.177 1.24843 -5.06027 0
M  V30 6788 C 615.505 0.922443 -5.79403 0
M  V30 6789 C 617.857 0.68113 -6.28922 0
M  V30 6790 C 616.521 0.512673 -6.65528 0
M  V30 6791 H 615.791 0.432283 -0.601841 0
M  V30 6792 H 618.438 0.471701 -1.856 0
M  V30 6793 H 616.743 2.98928 -2.53277 0
M  V30 6794 H 618.44 2.79691 -2.87357 0
M  V30 6795 H 615.03 1.79014 -3.89425 0
M  V30 6796 H 619.214 1.35667 -4.77397 0
M  V30 6797 H 614.47 0.779733 -6.06408 0
M  V30 6798 H 618.644 0.35418 -6.95499 0
M  V30 6799 H 616.271 0.0599084 -7.60176 0
M  V30 6800 N 617.846 1.41785 0.688094 0
M  V30 6801 C 619.093 1.41544 1.44816 0
M  V30 6802 C 619.421 0.0271746 1.94481 0
M  V30 6803 O 618.676 -0.962235 1.7041 0
M  V30 6804 C 618.975 2.37532 2.67046 0
M  V30 6805 C 618.641 3.84209 2.35996 0
M  V30 6806 C 617.303 4.24165 2.27239 0
M  V30 6807 C 619.655 4.76785 2.10536 0
M  V30 6808 C 616.983 5.54695 1.91128 0
M  V30 6809 C 619.335 6.07644 1.75931 0
M  V30 6810 C 617.999 6.46613 1.65675 0
M  V30 6811 H 617.269 0.517945 0.529919 0
M  V30 6812 H 619.916 1.74635 0.785797 0
M  V30 6813 H 618.221 1.9772 3.38251 0
M  V30 6814 H 619.918 2.34615 3.25203 0
M  V30 6815 H 616.508 3.52567 2.4371 0
M  V30 6816 H 620.692 4.46714 2.16242 0
M  V30 6817 H 615.948 5.83762 1.81746 0
M  V30 6818 H 620.122 6.78874 1.55252 0
M  V30 6819 H 617.749 7.47668 1.37463 0
M  V30 6820 N 619.324 -0.923095 1.27737 0
M  V30 6821 C 620.272 -2.04567 1.10703 0
M  V30 6822 C 621.266 -1.69375 0.0288445 0
M  V30 6823 O 622.472 -1.79027 0.186913 0
M  V30 6824 H 618.847 -0.670109 0.34126 0
M  V30 6825 H 620.818 -2.1608 2.05796 0
M  V30 6826 C 619.567 -3.38934 0.775837 0
M  V30 6827 H 618.89 -3.66501 1.59741 0
M  V30 6828 H 620.33 -4.18239 0.696548 0
M  V30 6829 C 618.789 -3.32863 -0.520012 0
M  V30 6830 O 619.319 -3.70462 -1.55308 0
M  V30 6831 N 617.525 -2.85958 -0.51732 0
M  V30 6832 H 617.072 -2.55557 0.32379 0
M  V30 6833 H 617.03 -2.82279 -1.38441 0
M  V30 6834 N 620.802 -1.09834 -1.13024 0
M  V30 6835 C 622.213 -0.855651 -1.65938 0
M  V30 6836 C 622.564 0.615159 -1.86307 0
M  V30 6837 O 621.689 1.47335 -1.58497 0
M  V30 6838 C 622.284 -1.5467 -3.01434 0
M  V30 6839 C 620.843 -1.35088 -3.51323 0
M  V30 6840 C 619.99 -1.6001 -2.26478 0
M  V30 6841 H 622.941 -1.25691 -0.968889 0
M  V30 6842 H 622.962 -0.982179 -3.67605 0
M  V30 6843 H 622.474 -2.61715 -2.86578 0
M  V30 6844 H 620.575 -0.30179 -3.71376 0
M  V30 6845 H 620.688 -2.0886 -4.31178 0
M  V30 6846 H 619.052 -1.02246 -2.33276 0
M  V30 6847 H 619.835 -2.68293 -2.14182 0
M  V30 6848 N 622.28 1.30327 -0.886154 0
M  V30 6849 C 623.21 2.30549 -0.370028 0
M  V30 6850 C 624.191 1.61039 0.547751 0
M  V30 6851 O 625.376 1.8864 0.461353 0
M  V30 6852 C 622.506 3.44808 0.415275 0
M  V30 6853 C 621.46 4.26024 -0.41085 0
M  V30 6854 C 620.786 5.32347 0.501128 0
M  V30 6855 C 622.086 4.95433 -1.65359 0
M  V30 6856 H 623.78 2.73969 -1.20754 0
M  V30 6857 H 621.326 1.3171 -0.582097 0
M  V30 6858 H 623.279 4.13986 0.78699 0
M  V30 6859 H 622.003 3.00197 1.28644 0
M  V30 6860 H 620.662 3.58535 -0.764719 0
M  V30 6861 H 620.31 4.83982 1.37004 0
M  V30 6862 H 620.01 5.87581 -0.0478356 0
M  V30 6863 H 621.534 6.0438 0.869333 0
M  V30 6864 H 622.948 5.5712 -1.35239 0
M  V30 6865 H 621.345 5.60537 -2.14284 0
M  V30 6866 H 622.415 4.21493 -2.39733 0
M  V30 6867 N 623.758 0.647228 1.43697 0
M  V30 6868 C 624.705 -0.0480092 2.3075 0
M  V30 6869 C 625.675 -0.820705 1.44408 0
M  V30 6870 O 626.86 -0.798515 1.73287 0
M  V30 6871 C 624 -1.01259 3.2991 0
M  V30 6872 C 623.113 -0.236629 4.31351 0
M  V30 6873 C 622.248 -1.19447 5.17596 0
M  V30 6874 C 621.287 -0.408595 6.10735 0
M  V30 6875 N 620.424 -1.31772 6.89623 0
M  V30 6876 H 625.264 0.700238 2.89656 0
M  V30 6877 H 622.801 0.357082 1.427 0
M  V30 6878 H 624.759 -1.58538 3.85903 0
M  V30 6879 H 623.389 -1.72778 2.72667 0
M  V30 6880 H 622.441 0.452353 3.77701 0
M  V30 6881 H 623.753 0.374731 4.9739 0
M  V30 6882 H 622.907 -1.83809 5.78186 0
M  V30 6883 H 621.646 -1.83975 4.51669 0
M  V30 6884 H 620.651 0.24841 5.49239 0
M  V30 6885 H 621.876 0.232188 6.78703 0
M  V30 6886 H 619.822 -1.94991 6.2635 0
M  V30 6887 H 619.739 -0.760779 7.52162 0
M  V30 6888 H 621.007 -1.94967 7.54724 0
M  V30 6889 N 625.236 -1.5273 0.388769 0
M  V30 6890 C 626.482 -2.01871 -0.193877 0
M  V30 6891 C 626.815 -1.27475 -1.46505 0
M  V30 6892 O 626.09 -0.375063 -1.90849 0
M  V30 6893 C 626.373 -3.5712 -0.462336 0
M  V30 6894 C 626.226 -4.42186 0.824091 0
M  V30 6895 C 627.545 -4.21881 -1.25319 0
M  V30 6896 H 624.664 -0.733764 -0.0689899 0
M  V30 6897 H 627.306 -1.82796 0.518231 0
M  V30 6898 H 625.456 -3.73504 -1.06896 0
M  V30 6899 H 627.128 -4.37554 1.46096 0
M  V30 6900 H 625.371 -4.09219 1.43952 0
M  V30 6901 H 626.042 -5.48828 0.590905 0
M  V30 6902 H 628.518 -4.0947 -0.73981 0
M  V30 6903 H 627.394 -5.30487 -1.40977 0
M  V30 6904 H 627.655 -3.79478 -2.26824 0
M  V30 6905 N 626.714 -0.118576 -1.57153 0
M  V30 6906 C 627.962 0.538461 -1.94795 0
M  V30 6907 C 628.283 1.67243 -1.00274 0
M  V30 6908 O 627.553 1.95811 -0.0589692 0
M  V30 6909 H 626.133 0.201904 -0.719197 0
M  V30 6910 H 628.795 -0.187418 -1.93997 0
M  V30 6911 H 627.891 0.933315 -2.97818 0
M  V30 6912 N 628.193 1.56834 0.155195 0
M  V30 6913 C 629.126 1.9278 1.22111 0
M  V30 6914 C 630.104 0.792588 1.41975 0
M  V30 6915 O 631.288 1.04743 1.5672 0
M  V30 6916 C 628.415 2.19273 2.58142 0
M  V30 6917 C 627.461 3.41932 2.54921 0
M  V30 6918 S 628.294 4.95769 2.02418 0
M  V30 6919 C 629.45 5.25375 3.40194 0
M  V30 6920 H 629.683 2.82889 0.914393 0
M  V30 6921 H 627.216 1.50133 0.360461 0
M  V30 6922 H 629.174 2.35217 3.36427 0
M  V30 6923 H 627.835 1.29843 2.86007 0
M  V30 6924 H 627.028 3.57721 3.55038 0
M  V30 6925 H 626.63 3.25188 1.8474 0
M  V30 6926 H 628.922 5.1834 4.36268 0
M  V30 6927 H 629.865 6.26889 3.29266 0
M  V30 6928 H 630.273 4.52906 3.36951 0
M  V30 6929 N 629.671 -0.424282 1.51781 0
M  V30 6930 C 630.621 -1.51464 1.70419 0
M  V30 6931 C 631.605 -1.50911 0.558094 0
M  V30 6932 O 632.797 -1.57143 0.814552 0
M  V30 6933 C 629.926 -2.89539 1.84451 0
M  V30 6934 C 629.012 -2.94798 3.04886 0
M  V30 6935 N 629.403 -2.69778 4.27848 0
M  V30 6936 C 627.701 -3.25962 3.04408 0
M  V30 6937 C 628.402 -2.81216 5.09208 0
M  V30 6938 N 627.378 -3.13447 4.44131 0
M  V30 6939 H 631.18 -1.30892 2.63144 0
M  V30 6940 H 628.694 -0.631783 1.49607 0
M  V30 6941 H 630.691 -3.67998 1.95917 0
M  V30 6942 H 629.351 -3.11121 0.929168 0
M  V30 6943 H 630.362 -2.44458 4.56575 0
M  V30 6944 H 627.039 -3.53236 2.22555 0
M  V30 6945 H 628.429 -2.65715 6.17127 0
M  V30 6946 N 631.149 -1.42148 -0.680565 0
M  V30 6947 C 632.079 -1.4796 -1.80638 0
M  V30 6948 C 633.06 -0.336728 -1.66734 0
M  V30 6949 O 634.245 -0.550247 -1.86242 0
M  V30 6950 C 631.375 -1.37569 -3.18892 0
M  V30 6951 C 630.329 -2.49823 -3.47524 0
M  V30 6952 C 629.655 -2.24491 -4.85291 0
M  V30 6953 C 630.955 -3.92144 -3.44994 0
M  V30 6954 H 632.649 -2.42184 -1.76032 0
M  V30 6955 H 630.195 -1.16566 -0.845481 0
M  V30 6956 H 632.148 -1.40243 -3.97379 0
M  V30 6957 H 630.872 -0.398357 -3.24162 0
M  V30 6958 H 629.531 -2.46455 -2.71395 0
M  V30 6959 H 629.179 -1.25066 -4.87204 0
M  V30 6960 H 628.879 -2.99722 -5.05411 0
M  V30 6961 H 630.403 -2.28906 -5.66069 0
M  V30 6962 H 631.817 -3.97145 -4.13459 0
M  V30 6963 H 630.214 -4.67179 -3.76648 0
M  V30 6964 H 631.284 -4.19225 -2.43676 0
M  V30 6965 N 632.627 0.916307 -1.28225 0
M  V30 6966 C 633.575 2.03977 -1.11786 0
M  V30 6967 C 634.569 1.69358 -0.0378265 0
M  V30 6968 O 635.775 1.78925 -0.196405 0
M  V30 6969 H 632.15 0.66829 -0.344809 0
M  V30 6970 H 634.121 2.14985 -2.06939 0
M  V30 6971 C 632.87 3.38518 -0.7938 0
M  V30 6972 H 632.193 3.65649 -1.61682 0
M  V30 6973 H 633.633 4.17864 -0.718719 0
M  V30 6974 C 632.092 3.33134 0.502353 0
M  V30 6975 O 632.622 3.71281 1.53341 0
M  V30 6976 N 630.828 2.86229 0.502147 0
M  V30 6977 H 630.375 2.55382 -0.337338 0
M  V30 6978 H 630.333 2.83009 1.36942 0
M  V30 6979 N 634.105 1.10431 1.1244 0
M  V30 6980 C 635.33 0.869089 1.88313 0
M  V30 6981 C 635.755 -0.574912 1.79099 0
M  V30 6982 O 635.113 -1.40496 1.14589 0
M  V30 6983 C 635.161 1.32208 3.3549 0
M  V30 6984 O 634.265 0.487092 4.09513 0
M  V30 6985 H 633.606 0.313894 0.585121 0
M  V30 6986 H 636.136 1.47111 1.42195 0
M  V30 6987 H 636.146 1.31201 3.86329 0
M  V30 6988 H 634.821 2.37364 3.41513 0
M  V30 6989 H 633.398 0.562372 3.68635 0
M  V30 6990 N 635.583 -1.29855 0.893053 0
M  V30 6991 C 636.86 -1.90694 0.435336 0
M  V30 6992 C 637.24 -1.8111 -1.08454 0
M  V30 6993 O 636.588 -1.23352 -1.92345 0
M  V30 6994 C 636.798 -3.36033 0.942472 0
M  V30 6995 C 638.146 -4.13083 0.982226 0
M  V30 6996 O 639.17 -3.4491 0.889686 0
M  V30 6997 O 638.029 -5.34896 1.12022 0
M  V30 6998 H 635.123 -0.815978 0.134567 0
M  V30 6999 H 637.669 -1.38367 0.982484 0
M  V30 7000 H 636.441 -3.37132 1.9864 0
M  V30 7001 H 636.064 -3.95828 0.374952 0
M  V30 7002 N 637.061 -0.65484 -1.43351 0
M  V30 7003 C 637.971 0.0363603 -2.34572 0
M  V30 7004 C 638.987 0.810432 -1.53974 0
M  V30 7005 O 640.163 0.757308 -1.86619 0
M  V30 7006 C 637.228 0.989733 -3.32273 0
M  V30 7007 C 636.289 0.212414 -4.28774 0
M  V30 7008 C 635.522 1.12038 -5.21808 0
M  V30 7009 O 635.745 2.35967 -5.19303 0
M  V30 7010 O 634.679 0.59191 -5.98982 0
M  V30 7011 H 638.505 -0.714527 -2.95175 0
M  V30 7012 H 636.09 -0.415029 -1.4352 0
M  V30 7013 H 637.972 1.53759 -3.92347 0
M  V30 7014 H 636.647 1.72082 -2.74171 0
M  V30 7015 H 635.554 -0.379062 -3.72175 0
M  V30 7016 H 636.887 -0.479138 -4.89862 0
M  V30 7017 N 638.539 1.52521 -0.396863 0
M  V30 7018 C 639.502 2.2527 0.422604 0
M  V30 7019 C 640.502 1.27184 0.983913 0
M  V30 7020 O 641.692 1.51222 0.864723 0
M  V30 7021 C 638.824 3.01356 1.59365 0
M  V30 7022 H 640.017 2.99133 -0.214416 0
M  V30 7023 H 637.57 1.55587 -0.149128 0
M  V30 7024 H 638.305 2.31813 2.26789 0
M  V30 7025 H 638.09 3.73357 1.19779 0
M  V30 7026 H 639.58 3.56571 2.17363 0
M  V30 7027 N 640.017 0.126909 1.57088 0
M  V30 7028 C 641.263 -0.529952 1.95753 0
M  V30 7029 C 641.596 -1.65823 1.01077 0
M  V30 7030 O 640.871 -1.94437 0.0494162 0
M  V30 7031 C 641.154 -1.05517 3.44294 0
M  V30 7032 C 641.007 0.0702253 4.49745 0
M  V30 7033 C 642.326 -1.9435 3.94862 0
M  V30 7034 H 639.445 -0.191168 0.711775 0
M  V30 7035 H 642.087 0.204071 1.88901 0
M  V30 7036 H 640.237 -1.68069 3.50264 0
M  V30 7037 H 641.909 0.705834 4.55868 0
M  V30 7038 H 640.152 0.732259 4.27575 0
M  V30 7039 H 640.823 -0.338642 5.5096 0
M  V30 7040 H 643.299 -1.41658 3.91244 0
M  V30 7041 H 642.175 -2.28015 4.993 0
M  V30 7042 H 642.436 -2.87299 3.36024 0
M  V30 7043 N 641.495 -1.56914 -0.146875 0
M  V30 7044 C 642.723 -1.87515 -0.874394 0
M  V30 7045 C 643.138 -0.715116 -1.74733 0
M  V30 7046 O 642.495 0.315113 -1.79759 0
M  V30 7047 C 642.546 -3.17362 -1.731 0
M  V30 7048 O 642.267 -4.28897 -0.893245 0
M  V30 7049 C 643.768 -3.61479 -2.56609 0
M  V30 7050 H 640.988 -0.621546 -0.252827 0
M  V30 7051 H 643.532 -2.04023 -0.139627 0
M  V30 7052 H 641.687 -3.02608 -2.41883 0
M  V30 7053 H 642.101 -5.03146 -1.48137 0
M  V30 7054 H 643.575 -4.5517 -3.12289 0
M  V30 7055 H 644.052 -2.86773 -3.32653 0
M  V30 7056 H 644.658 -3.78927 -1.93117 0
M  V30 7057 N 642.974 0.416227 -1.52004 0
M  V30 7058 C 643.907 1.52736 -1.6955 0
M  V30 7059 C 644.885 1.53264 -0.54305 0
M  V30 7060 O 646.069 1.72077 -0.769527 0
M  V30 7061 C 643.196 2.91283 -1.72835 0
M  V30 7062 C 642.242 3.08695 -2.94295 0
M  V30 7063 S 643.075 2.82758 -4.54762 0
M  V30 7064 C 644.231 4.23548 -4.60823 0
M  V30 7065 H 644.464 1.37623 -2.63528 0
M  V30 7066 H 641.997 0.607335 -1.41954 0
M  V30 7067 H 643.955 3.71134 -1.75413 0
M  V30 7068 H 642.616 3.03742 -0.799966 0
M  V30 7069 H 641.809 4.10042 -2.93056 0
M  V30 7070 H 641.411 2.36699 -2.89568 0
M  V30 7071 H 643.703 5.17078 -4.37763 0
M  V30 7072 H 644.646 4.29813 -5.62731 0
M  V30 7073 H 645.054 4.08188 -3.89927 0
M  V30 7074 N 644.452 1.42507 0.673017 0
M  V30 7075 C 645.7 1.42789 1.43023 0
M  V30 7076 C 646.021 0.0459738 1.94946 0
M  V30 7077 O 645.291 -0.915765 1.73178 0
M  V30 7078 H 643.871 0.525657 0.530748 0
M  V30 7079 H 646.533 1.77944 0.795113 0
M  V30 7080 H 645.629 2.12872 2.28237 0
M  V30 7081 N 645.93 -0.909495 1.28709 0
M  V30 7082 C 647.155 -1.69801 1.1909 0
M  V30 7083 C 647.58 -1.86479 -0.246388 0
M  V30 7084 O 646.938 -1.37802 -1.17815 0
M  V30 7085 C 646.986 -3.06543 1.89904 0
M  V30 7086 O 646.09 -3.94268 1.2094 0
M  V30 7087 H 645.431 -0.519783 0.413185 0
M  V30 7088 H 647.961 -1.13689 1.70106 0
M  V30 7089 H 647.971 -3.56748 1.97977 0
M  V30 7090 H 646.646 -2.93722 2.94449 0
M  V30 7091 H 645.223 -3.52702 1.2106 0
M  V30 7092 N 647.408 -1.11026 -1.11852 0
M  V30 7093 C 648.338 -0.786812 -2.19844 0
M  V30 7094 C 649.319 0.242935 -1.68356 0
M  V30 7095 O 650.504 0.107355 -1.93903 0
M  V30 7096 C 647.634 -0.224516 -3.46574 0
M  V30 7097 C 646.588 -1.18564 -4.1125 0
M  V30 7098 C 645.914 -0.484261 -5.32503 0
M  V30 7099 C 647.214 -2.53465 -4.56676 0
M  V30 7100 H 648.908 -1.68978 -2.47158 0
M  V30 7101 H 646.454 -0.813906 -1.18792 0
M  V30 7102 H 648.407 0.0139435 -4.21398 0
M  V30 7103 H 647.131 0.713722 -3.18706 0
M  V30 7104 H 645.79 -1.40966 -3.38414 0
M  V30 7105 H 645.438 0.458646 -5.00905 0
M  V30 7106 H 645.138 -1.12526 -5.76725 0
M  V30 7107 H 646.662 -0.254492 -6.10069 0
M  V30 7108 H 648.076 -2.35177 -5.22843 0
M  V30 7109 H 646.473 -3.13507 -5.11697 0
M  V30 7110 H 647.543 -3.13008 -3.70343 0
M  V30 7111 N 648.886 1.2938 -0.899927 0
M  V30 7112 C 650.116 1.99402 -0.540601 0
M  V30 7113 C 650.524 1.67534 0.87914 0
M  V30 7114 O 649.867 0.916821 1.59186 0
M  V30 7115 C 649.929 3.53514 -0.653326 0
M  V30 7116 C 649.593 4.08937 -2.04009 0
M  V30 7117 C 650.59 4.23815 -3.01126 0
M  V30 7118 C 648.275 4.43962 -2.34953 0
M  V30 7119 C 650.269 4.72951 -4.27313 0
M  V30 7120 C 647.956 4.92795 -3.61382 0
M  V30 7121 C 648.954 5.07244 -4.57376 0
M  V30 7122 O 648.642 5.55017 -5.8156 0
M  V30 7123 H 648.374 0.64383 -0.206057 0
M  V30 7124 H 650.928 1.65878 -1.21134 0
M  V30 7125 H 649.158 3.86628 0.0744449 0
M  V30 7126 H 650.847 4.04767 -0.303118 0
M  V30 7127 H 651.613 3.97043 -2.78535 0
M  V30 7128 H 647.492 4.31974 -1.60994 0
M  V30 7129 H 651.036 4.84144 -5.02245 0
M  V30 7130 H 646.933 5.19004 -3.83804 0
M  V30 7131 H 647.701 5.73331 -5.84153 0
M  V30 7132 N 650.364 0.662433 1.43002 0
M  V30 7133 C 651.613 0.176873 2.00923 0
M  V30 7134 C 651.926 -1.21954 1.52927 0
M  V30 7135 O 653.132 -1.80081 2.03182 0
M  V30 7136 C 651.588 0.265379 3.5892 0
M  V30 7137 C 651.196 1.66507 4.15908 0
M  V30 7138 C 652.94 -0.162103 4.2419 0
M  V30 7139 C 650.847 1.707 5.66229 0
M  V30 7140 H 649.777 0.0623627 0.751417 0
M  V30 7141 H 652.428 0.825813 1.63868 0
M  V30 7142 H 650.81 -0.451235 3.93421 0
M  V30 7143 H 651.984 2.40777 3.92891 0
M  V30 7144 H 650.299 2.03932 3.63044 0
M  V30 7145 H 652.896 -0.150745 5.34487 0
M  V30 7146 H 653.239 -1.19519 3.98774 0
M  V30 7147 H 653.772 0.503075 3.94606 0
M  V30 7148 H 650.511 2.7195 5.96426 0
M  V30 7149 H 650.031 1.00768 5.91275 0
M  V30 7150 H 651.71 1.45487 6.3043 0
M  V30 7151 N 651.842 -1.52309 0.404946 0
M  V30 7152 C 652.805 -2.25491 -0.410651 0
M  V30 7153 C 653.805 -1.27704 -0.977154 0
M  V30 7154 O 654.995 -1.51679 -0.856691 0
M  V30 7155 C 652.127 -3.02197 -1.57765 0
M  V30 7156 H 653.32 -2.99015 0.230277 0
M  V30 7157 H 650.873 -1.55506 0.157377 0
M  V30 7158 H 651.608 -2.33013 -2.25556 0
M  V30 7159 H 651.393 -3.73987 -1.17797 0
M  V30 7160 H 652.883 -3.57719 -2.15469 0
M  V30 7161 N 653.32 -0.135238 -1.57019 0
M  V30 7162 C 654.283 0.794707 -2.14981 0
M  V30 7163 C 655.283 1.18342 -1.08866 0
M  V30 7164 O 656.473 1.10627 -1.34563 0
M  V30 7165 C 653.605 2.07685 -2.70333 0
M  V30 7166 H 654.798 0.290696 -2.98488 0
M  V30 7167 H 652.351 0.114128 -1.55883 0
M  V30 7168 H 653.086 2.6248 -1.9046 0
M  V30 7169 H 652.871 1.80745 -3.47957 0
M  V30 7170 H 654.361 2.74127 -3.1503 0
M  V30 7171 N 654.798 1.5699 0.138552 0
M  V30 7172 C 656.028 1.87704 0.863184 0
M  V30 7173 C 656.436 0.722411 1.74865 0
M  V30 7174 O 655.779 -0.316636 1.80951 0
M  V30 7175 C 655.841 3.13219 1.76449 0
M  V30 7176 C 655.505 4.44648 1.05532 0
M  V30 7177 C 656.502 5.18318 0.405252 0
M  V30 7178 C 654.187 4.91367 1.04231 0
M  V30 7179 C 656.181 6.36916 -0.24835 0
M  V30 7180 C 653.868 6.09887 0.384904 0
M  V30 7181 C 654.866 6.82508 -0.259292 0
M  V30 7182 O 654.554 7.98775 -0.906258 0
M  V30 7183 H 654.286 0.626255 0.254521 0
M  V30 7184 H 656.84 2.04966 0.133472 0
M  V30 7185 H 655.07 2.91988 2.53535 0
M  V30 7186 H 656.759 3.30111 2.36181 0
M  V30 7187 H 657.525 4.83289 0.407053 0
M  V30 7188 H 653.404 4.34759 1.53315 0
M  V30 7189 H 656.948 6.93538 -0.751755 0
M  V30 7190 H 652.845 6.44376 0.380799 0
M  V30 7191 H 653.613 8.14494 -0.80877 0
M  V30 7192 N 656.276 -0.40816 1.52223 0
M  V30 7193 C 657.224 -1.51788 1.76248 0
M  V30 7194 C 658.218 -1.57264 0.629638 0
M  V30 7195 O 659.424 -1.60659 0.811704 0
M  V30 7196 H 655.799 -0.504823 0.557367 0
M  V30 7197 H 657.77 -1.2871 2.69214 0
M  V30 7198 C 656.519 -2.89145 1.93107 0
M  V30 7199 H 655.842 -2.85674 2.79697 0
M  V30 7200 H 657.282 -3.66082 2.13916 0
M  V30 7201 C 655.741 -3.29581 0.698431 0
M  V30 7202 O 656.271 -4.01479 -0.133238 0
M  V30 7203 N 654.477 -2.85651 0.53405 0
M  V30 7204 H 654.024 -2.2731 1.21194 0
M  V30 7205 H 653.982 -3.13065 -0.289387 0
M  V30 7206 N 657.755 -1.42862 -0.66545 0
M  V30 7207 C 658.98 -1.47456 -1.45848 0
M  V30 7208 C 659.405 -0.0900312 -1.87884 0
M  V30 7209 O 658.763 0.913587 -1.56599 0
M  V30 7210 C 658.811 -2.41514 -2.67774 0
M  V30 7211 O 657.915 -1.89296 -3.66389 0
M  V30 7212 H 657.256 -0.499236 -0.437789 0
M  V30 7213 H 659.786 -1.8765 -0.815394 0
M  V30 7214 H 659.796 -2.58409 -3.15735 0
M  V30 7215 H 658.471 -3.42099 -2.36519 0
M  V30 7216 H 657.048 -1.82003 -3.25468 0
M  V30 7217 N 659.233 0.902656 -1.29189 0
M  V30 7218 C 660.196 1.98797 -1.14071 0
M  V30 7219 C 661.196 1.60615 -0.0770549 0
M  V30 7220 O 662.386 1.71165 -0.323753 0
M  V30 7221 C 659.518 3.32688 -0.743739 0
M  V30 7222 H 660.711 2.13637 -2.10473 0
M  V30 7223 H 658.264 1.08678 -1.12334 0
M  V30 7224 H 658.999 3.23549 0.220554 0
M  V30 7225 H 658.784 3.61765 -1.51223 0
M  V30 7226 H 660.274 4.12337 -0.660935 0
M  V30 7227 N 660.711 1.11618 1.11262 0
M  V30 7228 C 661.659 0.771291 2.1944 0
M  V30 7229 C 662.653 -0.238073 1.67719 0
M  V30 7230 O 663.859 -0.0971628 1.79738 0
M  V30 7231 H 660.234 0.231548 0.715465 0
M  V30 7232 H 662.205 1.69226 2.45775 0
M  V30 7233 C 660.954 0.232765 3.4692 0
M  V30 7234 H 660.277 1.00072 3.87073 0
M  V30 7235 H 661.717 0.0296561 4.2399 0
M  V30 7236 C 660.176 -1.03738 3.20531 0
M  V30 7237 O 660.706 -2.11675 3.41404 0
M  V30 7238 N 658.912 -0.960906 2.74253 0
M  V30 7239 H 658.459 -0.0824323 2.57468 0
M  V30 7240 H 658.417 -1.8114 2.56974 0
M  V30 7241 N 662.189 -1.289 0.906776 0
M  V30 7242 C 663.436 -1.95269 0.536326 0
M  V30 7243 C 663.764 -1.71435 -0.918711 0
M  V30 7244 O 663.019 -1.02431 -1.66752 0
M  V30 7245 C 663.318 -3.48704 0.783617 0
M  V30 7246 C 662.984 -3.92626 2.21711 0
M  V30 7247 C 661.646 -4.04329 2.60906 0
M  V30 7248 C 663.998 -4.15218 3.15029 0
M  V30 7249 C 661.326 -4.35998 3.92584 0
M  V30 7250 C 663.678 -4.48365 4.46264 0
M  V30 7251 C 662.342 -4.58278 4.85322 0
M  V30 7252 H 661.612 -0.714538 0.196256 0
M  V30 7253 H 664.259 -1.53366 1.14678 0
M  V30 7254 H 662.564 -3.91696 0.0903048 0
M  V30 7255 H 664.261 -3.98162 0.476267 0
M  V30 7256 H 660.851 -3.84038 1.90296 0
M  V30 7257 H 665.035 -4.05636 2.8596 0
M  V30 7258 H 660.291 -4.41878 4.22557 0
M  V30 7259 H 664.465 -4.64795 5.18593 0
M  V30 7260 H 662.092 -4.82573 5.87391 0
M  V30 7261 N 663.667 -0.670007 -1.42649 0
M  V30 7262 C 665.083 -0.33911 -1.55956 0
M  V30 7263 C 665.283 1.1558 -1.65056 0
M  V30 7264 O 664.339 1.94111 -1.61485 0
M  V30 7265 C 665.652 -1.06522 -2.812 0
M  V30 7266 C 667.2 -1.04708 -2.94966 0
M  V30 7267 C 667.675 -1.75442 -4.23065 0
M  V30 7268 N 669.166 -1.72286 -4.29967 0
M  V30 7269 C 669.901 -2.23877 -5.27889 0
M  V30 7270 N 669.397 -2.83829 -6.31991 0
M  V30 7271 N 671.19 -2.14279 -5.19654 0
M  V30 7272 H 663.341 -1.6399 -1.34986 0
M  V30 7273 H 665.604 -0.690603 -0.649439 0
M  V30 7274 H 665.31 -2.12033 -2.80597 0
M  V30 7275 H 665.184 -0.627398 -3.71946 0
M  V30 7276 H 667.571 -0.000315966 -2.951 0
M  V30 7277 H 667.652 -1.52374 -2.05465 0
M  V30 7278 H 667.296 -2.80084 -4.23693 0
M  V30 7279 H 667.226 -1.25229 -5.11493 0
M  V30 7280 H 669.717 -1.28554 -3.55362 0
M  V30 7281 H 670.03 -3.20827 -7.03057 0
M  V30 7282 H 668.375 -2.87896 -6.32567 0
M  V30 7283 H 671.566 -1.67135 -4.37245 0
M  V30 7284 H 671.739 -2.54792 -5.95806 0
M  V30 7285 N 665.145 1.52092 -0.413018 0
M  V30 7286 C 666.075 2.30021 0.401567 0
M  V30 7287 C 667.056 1.34395 1.04269 0
M  V30 7288 O 668.241 1.63304 1.05097 0
M  V30 7289 C 665.371 3.12447 1.51638 0
M  V30 7290 C 664.325 4.16153 1.00005 0
M  V30 7291 C 663.651 4.86948 2.20875 0
M  V30 7292 C 664.951 5.22275 0.0513757 0
M  V30 7293 H 666.645 2.98365 -0.248704 0
M  V30 7294 H 664.191 1.4349 -0.121052 0
M  V30 7295 H 666.144 3.65733 2.09326 0
M  V30 7296 H 664.868 2.41879 2.19458 0
M  V30 7297 H 663.527 3.63882 0.445549 0
M  V30 7298 H 663.175 4.12905 2.8726 0
M  V30 7299 H 662.875 5.57057 1.86978 0
M  V30 7300 H 664.399 5.43048 2.79162 0
M  V30 7301 H 665.813 5.70778 0.537176 0
M  V30 7302 H 664.21 5.9977 -0.198977 0
M  V30 7303 H 665.28 4.76611 -0.892736 0
M  V30 7304 N 666.623 0.143563 1.56945 0
M  V30 7305 C 667.57 -0.797433 2.16586 0
M  V30 7306 C 668.54 -1.24654 1.09775 0
M  V30 7307 O 669.725 -1.31968 1.37801 0
M  V30 7308 C 666.865 -2.03253 2.78895 0
M  V30 7309 C 665.978 -1.62954 4.00087 0
M  V30 7310 C 665.113 -2.81617 4.50406 0
M  V30 7311 C 664.152 -2.37675 5.64072 0
M  V30 7312 N 663.289 -3.49335 6.09023 0
M  V30 7313 H 668.129 -0.282023 2.96662 0
M  V30 7314 H 665.666 -0.127494 1.46546 0
M  V30 7315 H 667.624 -2.75653 3.13163 0
M  V30 7316 H 666.254 -2.52211 2.01469 0
M  V30 7317 H 665.306 -0.803322 3.71821 0
M  V30 7318 H 666.618 -1.26679 4.82446 0
M  V30 7319 H 665.772 -3.62212 4.86711 0
M  V30 7320 H 664.511 -3.21134 3.67048 0
M  V30 7321 H 663.516 -1.55519 5.27346 0
M  V30 7322 H 664.741 -1.99247 6.49213 0
M  V30 7323 H 662.687 -3.8848 5.28601 0
M  V30 7324 H 662.604 -3.17064 6.86299 0
M  V30 7325 H 663.872 -4.30297 6.49973 0
M  V30 7326 N 668.101 -1.57061 -0.130224 0
M  V30 7327 C 669.378 -1.75205 -0.869631 0
M  V30 7328 C 669.758 -0.716063 -1.98584 0
M  V30 7329 O 669.106 0.262032 -2.26993 0
M  V30 7330 C 669.316 -3.19835 -1.39666 0
M  V30 7331 C 670.664 -3.82011 -1.85345 0
M  V30 7332 O 671.688 -3.23368 -1.49371 0
M  V30 7333 O 670.547 -4.85064 -2.51744 0
M  V30 7334 H 667.641 -0.716977 -0.412157 0
M  V30 7335 H 670.187 -1.69311 -0.11484 0
M  V30 7336 H 668.959 -3.86745 -0.595288 0
M  V30 7337 H 668.582 -3.30222 -2.21448 0
M  V30 7338 N 669.579 0.400081 -1.52437 0
M  V30 7339 C 670.509 1.4947 -1.7939 0
M  V30 7340 C 671.49 1.57383 -0.645329 0
M  V30 7341 O 672.675 1.72511 -0.891826 0
M  V30 7342 C 669.805 2.87201 -1.95276 0
M  V30 7343 C 668.759 2.94134 -3.10917 0
M  V30 7344 C 668.085 4.34207 -3.1204 0
M  V30 7345 C 669.385 2.64791 -4.50203 0
M  V30 7346 H 671.079 1.27165 -2.71052 0
M  V30 7347 H 668.625 0.610312 -1.30427 0
M  V30 7348 H 670.578 3.63772 -2.12715 0
M  V30 7349 H 669.302 3.10819 -1.00294 0
M  V30 7350 H 667.961 2.20009 -2.93243 0
M  V30 7351 H 667.609 4.54848 -2.14761 0
M  V30 7352 H 667.309 4.39768 -3.89715 0
M  V30 7353 H 668.833 5.127 -3.31619 0
M  V30 7354 H 670.247 3.31083 -4.68035 0
M  V30 7355 H 668.644 2.81717 -5.29864 0
M  V30 7356 H 669.714 1.60184 -4.57678 0
M  V30 7357 N 671.057 1.43213 0.657864 0
M  V30 7358 C 672.334 1.35063 1.41483 0
M  V30 7359 C 672.714 -0.0038314 2.111 0
M  V30 7360 O 672.062 -1.02018 2.04462 0
M  V30 7361 C 672.272 2.53061 2.40335 0
M  V30 7362 C 673.62 2.9594 3.04474 0
M  V30 7363 O 674.644 2.53074 2.50663 0
M  V30 7364 O 673.503 3.70184 4.02027 0
M  V30 7365 H 670.597 0.533517 0.631893 0
M  V30 7366 H 673.143 1.55253 0.685162 0
M  V30 7367 H 671.915 3.43283 1.87809 0
M  V30 7368 H 671.538 2.34945 3.20759 0
M  V30 7369 N 672.536 -0.895792 1.29666 0
M  V30 7370 C 673.766 -1.67757 1.20586 0
M  V30 7371 C 674.174 -1.87729 -0.235432 0
M  V30 7372 O 673.517 -1.41706 -1.16898 0
M  V30 7373 C 673.579 -3.08117 1.85215 0
M  V30 7374 C 673.243 -3.1136 3.3452 0
M  V30 7375 C 674.24 -2.91217 4.30684 0
M  V30 7376 C 671.925 -3.33302 3.75786 0
M  V30 7377 C 673.919 -2.92955 5.66089 0
M  V30 7378 C 671.606 -3.3467 5.11311 0
M  V30 7379 C 672.604 -3.14519 6.06273 0
M  V30 7380 O 672.292 -3.15684 7.39323 0
M  V30 7381 H 672.024 -0.530601 0.418854 0
M  V30 7382 H 674.578 -1.12831 1.71634 0
M  V30 7383 H 672.808 -3.64661 1.28683 0
M  V30 7384 H 674.497 -3.68399 1.70403 0
M  V30 7385 H 675.263 -2.74074 4.00136 0
M  V30 7386 H 671.142 -3.48025 3.02324 0
M  V30 7387 H 674.686 -2.77145 6.40185 0
M  V30 7388 H 670.583 -3.51346 5.41504 0
M  V30 7389 H 671.351 -3.31924 7.48177 0
M  V30 7390 N 674.014 -1.12206 -1.10668 0
M  V30 7391 C 674.961 -0.787716 -2.16942 0
M  V30 7392 C 675.931 0.244442 -1.64291 0
M  V30 7393 O 677.116 0.119558 -1.90425 0
M  V30 7394 C 674.256 -0.24584 -3.44223 0
M  V30 7395 C 673.369 -1.33552 -4.10838 0
M  V30 7396 C 672.504 -0.753337 -5.25831 0
M  V30 7397 C 671.543 -1.82231 -5.84344 0
M  V30 7398 N 670.68 -1.25902 -6.90719 0
M  V30 7399 H 675.52 -1.69809 -2.44885 0
M  V30 7400 H 673.057 -0.847862 -1.20207 0
M  V30 7401 H 675.015 0.0863639 -4.17111 0
M  V30 7402 H 673.645 0.627702 -3.16638 0
M  V30 7403 H 672.697 -1.78454 -3.35944 0
M  V30 7404 H 674.009 -2.14396 -4.50373 0
M  V30 7405 H 673.163 -0.37166 -6.05561 0
M  V30 7406 H 671.902 0.0863297 -4.87624 0
M  V30 7407 H 670.907 -2.2132 -5.03287 0
M  V30 7408 H 672.132 -2.66515 -6.24617 0
M  V30 7409 H 670.078 -0.44114 -6.54515 0
M  V30 7410 H 669.995 -2.00408 -7.28953 0
M  V30 7411 H 671.263 -0.904498 -7.74235 0
M  V30 7412 N 675.492 1.28418 -0.913599 0
M  V30 7413 C 676.769 1.89977 -0.465619 0
M  V30 7414 C 677.149 1.82813 1.05559 0
M  V30 7415 O 676.497 1.26397 1.90358 0
M  V30 7416 C 676.707 3.34492 -0.995813 0
M  V30 7417 C 678.055 4.11468 -1.04782 0
M  V30 7418 O 679.079 3.43451 -0.944445 0
M  V30 7419 O 677.938 5.33046 -1.20518 0
M  V30 7420 H 675.032 0.813734 -0.147532 0
M  V30 7421 H 677.578 1.36786 -1.00437 0
M  V30 7422 H 676.35 3.33929 -2.03978 0
M  V30 7423 H 675.973 3.95181 -0.437878 0
M  V30 7424 N 676.97 0.677563 1.42291 0
M  V30 7425 C 678.219 0.198173 2.00724 0
M  V30 7426 C 678.532 -1.20325 1.54211 0
M  V30 7427 O 679.738 -1.77916 2.05081 0
M  V30 7428 C 678.194 0.303432 3.58619 0
M  V30 7429 C 677.802 1.70909 4.14119 0
M  V30 7430 C 679.546 -0.117103 4.24338 0
M  V30 7431 C 677.453 1.76696 5.64387 0
M  V30 7432 H 676.383 0.070329 0.750713 0
M  V30 7433 H 679.034 0.843147 1.62982 0
M  V30 7434 H 677.416 -0.409482 3.93877 0
M  V30 7435 H 678.59 2.44931 3.90315 0
M  V30 7436 H 676.905 2.07771 3.6086 0
M  V30 7437 H 679.502 -0.0940471 5.34617 0
M  V30 7438 H 679.845 -1.15283 4.00019 0
M  V30 7439 H 680.378 0.5449 3.9405 0
M  V30 7440 H 677.117 2.7826 5.93508 0
M  V30 7441 H 676.637 1.07034 5.90173 0
M  V30 7442 H 678.316 1.52166 6.28852 0
M  V30 7443 N 678.448 -1.51871 0.421078 0
M  V30 7444 C 679.694 -2.02237 -0.151014 0
M  V30 7445 C 680.027 -1.30554 -1.43768 0
M  V30 7446 O 679.302 -0.41546 -1.90011 0
M  V30 7447 C 679.585 -3.5802 -0.386482 0
M  V30 7448 C 679.438 -4.40339 0.9177 0
M  V30 7449 C 680.757 -4.24444 -1.16342 0
M  V30 7450 H 677.876 -0.735062 -0.0534102 0
M  V30 7451 H 680.518 -1.81656 0.556888 0
M  V30 7452 H 678.668 -3.75688 -0.989494 0
M  V30 7453 H 680.34 -4.34357 1.55344 0
M  V30 7454 H 678.583 -4.06073 1.526 0
M  V30 7455 H 679.254 -5.47451 0.707187 0
M  V30 7456 H 681.73 -4.10948 -0.652788 0
M  V30 7457 H 680.606 -5.33358 -1.29693 0
M  V30 7458 H 680.867 -3.84204 -2.18724 0
M  V30 7459 N 679.926 -0.151884 -1.56866 0
M  V30 7460 C 681.151 0.508044 -2.01081 0
M  V30 7461 C 681.576 1.57306 -1.03134 0
M  V30 7462 O 680.934 1.81298 -0.0078309 0
M  V30 7463 C 680.982 1.08106 -3.44014 0
M  V30 7464 O 680.086 2.19577 -3.49084 0
M  V30 7465 H 679.427 0.123757 -0.652365 0
M  V30 7466 H 681.957 -0.250055 -2.03066 0
M  V30 7467 H 681.967 1.40851 -3.82916 0
M  V30 7468 H 680.642 0.301168 -4.14808 0
M  V30 7469 H 679.219 1.88023 -3.22027 0
M  V30 7470 N 681.404 1.57128 0.121893 0
M  V30 7471 C 682.352 2.01109 1.16868 0
M  V30 7472 C 683.346 0.907532 1.43039 0
M  V30 7473 O 684.552 1.09274 1.43036 0
M  V30 7474 H 680.927 0.640539 0.393971 0
M  V30 7475 H 682.898 2.88261 0.771224 0
M  V30 7476 C 681.647 2.42887 2.48799 0
M  V30 7477 H 680.97 3.2737 2.29498 0
M  V30 7478 H 682.41 2.77461 3.20611 0
M  V30 7479 C 680.869 1.29137 3.11168 0
M  V30 7480 O 681.399 0.605756 3.97106 0
M  V30 7481 N 679.605 1.04916 2.71 0
M  V30 7482 H 679.152 1.60848 2.01211 0
M  V30 7483 H 679.11 0.290016 3.1306 0
M  V30 7484 N 682.882 -0.391992 1.52647 0
M  V30 7485 C 683.792 -1.503 1.80131 0
M  V30 7486 C 684.808 -1.59825 0.687882 0
M  V30 7487 O 685.984 -1.76218 0.975149 0
M  V30 7488 C 683.049 -2.85863 1.96171 0
M  V30 7489 C 682.11 -2.86084 3.20085 0
M  V30 7490 C 681.343 -4.15181 3.35351 0
M  V30 7491 O 681.566 -5.09981 2.55491 0
M  V30 7492 O 680.5 -4.22603 4.28591 0
M  V30 7493 H 684.326 -1.30007 2.74466 0
M  V30 7494 H 681.911 -0.579539 1.37701 0
M  V30 7495 H 683.793 -3.66236 2.08445 0
M  V30 7496 H 682.468 -3.06189 1.05025 0
M  V30 7497 H 681.375 -2.04504 3.13256 0
M  V30 7498 H 682.708 -2.7071 4.11068 0
M  V30 7499 N 684.36 -1.4356 -0.65026 0
M  V30 7500 C 685.59 -1.48563 -1.4357 0
M  V30 7501 C 685.998 -0.103041 -1.88919 0
M  V30 7502 O 685.341 0.897602 -1.60277 0
M  V30 7503 C 685.403 -2.37181 -2.70158 0
M  V30 7504 C 685.067 -3.84673 -2.4673 0
M  V30 7505 C 686.064 -4.75704 -2.09765 0
M  V30 7506 C 683.749 -4.29189 -2.60963 0
M  V30 7507 C 685.743 -6.09249 -1.87334 0
M  V30 7508 C 683.43 -5.62787 -2.38147 0
M  V30 7509 C 684.428 -6.52634 -2.01389 0
M  V30 7510 O 684.116 -7.83761 -1.78813 0
M  V30 7511 H 683.848 -0.506743 -0.447423 0
M  V30 7512 H 686.402 -1.89001 -0.80423 0
M  V30 7513 H 684.632 -1.91636 -3.35876 0
M  V30 7514 H 686.321 -2.33354 -3.32116 0
M  V30 7515 H 687.087 -4.42589 -1.98343 0
M  V30 7516 H 682.966 -3.59529 -2.88548 0
M  V30 7517 H 686.51 -6.7934 -1.58567 0
M  V30 7518 H 682.407 -5.95469 -2.49173 0
M  V30 7519 H 683.175 -7.95368 -1.93214 0
M  V30 7520 N 685.838 0.888903 -1.30139 0
M  V30 7521 C 686.788 1.9814 -1.12803 0
M  V30 7522 C 687.772 1.60839 -0.0443137 0
M  V30 7523 O 688.964 1.74971 -0.267208 0
M  V30 7524 C 686.093 3.33416 -0.817849 0
M  V30 7525 C 685.179 3.77043 -1.94163 0
M  V30 7526 N 685.57 3.92805 -3.18651 0
M  V30 7527 C 683.868 4.06407 -1.8371 0
M  V30 7528 C 684.569 4.29746 -3.92038 0
M  V30 7529 N 683.545 4.3939 -3.20059 0
M  V30 7530 H 687.347 2.08411 -2.07225 0
M  V30 7531 H 684.861 1.07845 -1.21421 0
M  V30 7532 H 686.858 4.11405 -0.674668 0
M  V30 7533 H 685.518 3.24484 0.118344 0
M  V30 7534 H 686.529 3.78042 -3.53984 0
M  V30 7535 H 683.206 4.05972 -0.974331 0
M  V30 7536 H 684.596 4.49695 -4.99223 0
M  V30 7537 N 687.317 1.12792 1.10072 0
M  V30 7538 C 688.566 0.880232 1.81479 0
M  V30 7539 C 688.879 -0.595575 1.86312 0
M  V30 7540 O 690.085 -0.959979 2.53962 0
M  V30 7541 C 688.541 1.52514 3.25987 0
M  V30 7542 C 688.149 3.036 3.29441 0
M  V30 7543 C 689.893 1.35788 4.02196 0
M  V30 7544 C 687.8 3.61007 4.68431 0
M  V30 7545 H 686.73 0.325654 0.680048 0
M  V30 7546 H 689.381 1.35485 1.23758 0
M  V30 7547 H 687.763 0.978188 3.83728 0
M  V30 7548 H 688.937 3.64819 2.81502 0
M  V30 7549 H 687.252 3.19765 2.66719 0
M  V30 7550 H 689.849 1.76096 5.0487 0
M  V30 7551 H 690.192 0.301972 4.15203 0
M  V30 7552 H 690.725 1.87426 3.50879 0
M  V30 7553 H 687.464 4.66375 4.60625 0
M  V30 7554 H 686.984 3.04564 5.16721 0
M  V30 7555 H 688.663 3.60289 5.37402 0
M  V30 7556 N 688.795 -1.27931 0.920396 0
M  V30 7557 C 689.725 -2.29487 0.431024 0
M  V30 7558 C 690.706 -1.62435 -0.504861 0
M  V30 7559 O 691.891 -1.89797 -0.411176 0
M  V30 7560 C 689.021 -3.45788 -0.323709 0
M  V30 7561 C 687.975 -4.24784 0.523658 0
M  V30 7562 C 687.301 -5.33488 -0.359809 0
M  V30 7563 C 688.601 -4.90874 1.78437 0
M  V30 7564 H 690.295 -2.70671 1.27975 0
M  V30 7565 H 687.841 -1.30121 0.616813 0
M  V30 7566 H 689.794 -4.15927 -0.676952 0
M  V30 7567 H 688.518 -3.03502 -1.2064 0
M  V30 7568 H 687.177 -3.56382 0.85951 0
M  V30 7569 H 686.825 -4.87445 -1.24124 0
M  V30 7570 H 686.525 -5.87247 0.203605 0
M  V30 7571 H 688.049 -6.06472 -0.708787 0
M  V30 7572 H 689.463 -5.53339 1.49963 0
M  V30 7573 H 687.86 -5.54659 2.29071 0
M  V30 7574 H 688.93 -4.14988 2.50824 0
M  V30 7575 N 690.273 -0.685099 -1.4193 0
M  V30 7576 C 691.519 -0.211971 -2.01689 0
M  V30 7577 C 691.852 1.18189 -1.54094 0
M  V30 7578 O 691.127 1.79559 -0.747572 0
M  V30 7579 C 691.41 -0.258019 -3.59174 0
M  V30 7580 C 691.263 -1.68807 -4.16922 0
M  V30 7581 C 692.582 0.388044 -4.38386 0
M  V30 7582 H 689.701 -0.0784987 -0.732808 0
M  V30 7583 H 692.343 -0.871837 -1.68816 0
M  V30 7584 H 690.493 0.303832 -3.8731 0
M  V30 7585 H 692.165 -2.30296 -3.99702 0
M  V30 7586 H 690.408 -2.22553 -3.72361 0
M  V30 7587 H 691.079 -1.6719 -5.26072 0
M  V30 7588 H 693.555 -0.0903432 -4.16002 0
M  V30 7589 H 692.431 0.325232 -5.47936 0
M  V30 7590 H 692.692 1.4672 -4.17044 0
M  V30 7591 N 691.751 1.51645 -0.429126 0
M  V30 7592 C 692.699 2.29119 0.400921 0
M  V30 7593 C 693.693 1.34628 1.02819 0
M  V30 7594 O 694.899 1.52004 0.964098 0
M  V30 7595 H 691.274 0.737273 0.148095 0
M  V30 7596 H 693.245 2.97144 -0.273457 0
M  V30 7597 C 691.994 3.13953 1.49429 0
M  V30 7598 H 691.317 3.86544 1.02097 0
M  V30 7599 H 692.757 3.71232 2.04849 0
M  V30 7600 C 691.216 2.28796 2.47293 0
M  V30 7601 O 691.746 1.94193 3.51642 0
M  V30 7602 N 689.952 1.92177 2.17982 0
M  V30 7603 H 689.499 2.20517 1.33154 0
M  V30 7604 H 689.457 1.35497 2.83704 0
M  V30 7605 N 693.229 0.160201 1.56784 0
M  V30 7606 C 694.457 -0.494165 2.00912 0
M  V30 7607 C 694.872 -1.57548 1.04038 0
M  V30 7608 O 694.229 -1.82457 0.0394581 0
M  V30 7609 C 694.28 -1.08271 3.44905 0
M  V30 7610 O 694.001 -0.0445704 4.38077 0
M  V30 7611 C 695.502 -1.8164 4.04378 0
M  V30 7612 H 692.722 -0.127498 0.658776 0
M  V30 7613 H 695.266 0.258665 2.02858 0
M  V30 7614 H 693.421 -1.78609 3.4377 0
M  V30 7615 H 693.835 -0.477544 5.22322 0
M  V30 7616 H 695.309 -2.18094 5.07089 0
M  V30 7617 H 695.786 -2.70727 3.45838 0
M  V30 7618 H 696.392 -1.15969 4.09184 0
M  V30 7619 N 694.707 -1.5719 -0.113559 0
M  V30 7620 C 695.984 -1.76117 -0.850999 0
M  V30 7621 C 696.364 -0.737085 -1.97814 0
M  V30 7622 O 695.712 0.237942 -2.27258 0
M  V30 7623 C 695.922 -3.21298 -1.36266 0
M  V30 7624 C 697.27 -3.83955 -1.81283 0
M  V30 7625 O 698.294 -3.24934 -1.45933 0
M  V30 7626 O 697.153 -4.87707 -2.46585 0
M  V30 7627 H 694.247 -0.721308 -0.404529 0
M  V30 7628 H 696.793 -1.69423 -0.0968756 0
M  V30 7629 H 695.565 -3.87355 -0.554235 0
M  V30 7630 H 695.188 -3.32552 -2.17933 0
M  V30 7631 N 696.185 0.383891 -1.52853 0
M  V30 7632 C 697.095 1.49343 -1.80925 0
M  V30 7633 C 698.111 1.59458 -0.696348 0
M  V30 7634 O 699.287 1.75698 -0.984481 0
M  V30 7635 C 696.352 2.84819 -1.97684 0
M  V30 7636 C 695.413 2.84382 -3.21598 0
M  V30 7637 C 694.646 4.13397 -3.37548 0
M  V30 7638 O 694.869 5.08619 -2.58192 0
M  V30 7639 O 693.803 4.20325 -4.30826 0
M  V30 7640 H 697.629 1.2855 -2.75152 0
M  V30 7641 H 695.214 0.572229 -1.38007 0
M  V30 7642 H 697.096 3.65125 -2.10385 0
M  V30 7643 H 695.771 3.05627 -1.06647 0
M  V30 7644 H 694.678 2.0284 -3.14336 0
M  V30 7645 H 696.011 2.68526 -4.12498 0
M  V30 7646 N 697.663 1.43903 0.642637 0
M  V30 7647 C 698.573 1.52349 1.78401 0
M  V30 7648 C 699.589 0.409869 1.69104 0
M  V30 7649 O 700.765 0.665548 1.90085 0
M  V30 7650 C 697.83 1.45408 3.14734 0
M  V30 7651 C 696.891 2.67528 3.35749 0
M  V30 7652 C 696.124 2.60909 4.65577 0
M  V30 7653 O 696.347 1.6627 5.45628 0
M  V30 7654 O 695.281 3.5158 4.88544 0
M  V30 7655 H 699.107 2.48752 1.7423 0
M  V30 7656 H 696.692 1.26021 0.802439 0
M  V30 7657 H 698.574 1.44019 3.96026 0
M  V30 7658 H 697.249 0.521437 3.19473 0
M  V30 7659 H 696.156 2.74487 2.5418 0
M  V30 7660 H 697.489 3.598 3.35864 0
M  V30 7661 N 699.141 -0.881989 1.30609 0
M  V30 7662 C 700.051 -2.02076 1.19174 0
M  V30 7663 C 701.067 -1.73645 0.11102 0
M  V30 7664 O 702.243 -1.98735 0.326528 0
M  V30 7665 C 699.308 -3.3515 0.887438 0
M  V30 7666 C 698.369 -3.76983 2.05383 0
M  V30 7667 C 697.602 -5.03707 1.76395 0
M  V30 7668 O 697.825 -5.66171 0.693302 0
M  V30 7669 O 696.759 -5.42019 2.61723 0
M  V30 7670 H 700.585 -2.14652 2.14845 0
M  V30 7671 H 698.17 -1.00843 1.10232 0
M  V30 7672 H 700.052 -4.14975 0.73306 0
M  V30 7673 H 698.727 -3.23676 -0.0393354 0
M  V30 7674 H 697.634 -2.97849 2.26355 0
M  V30 7675 H 698.967 -3.93066 2.96243 0
M  V30 7676 N 700.619 -1.13374 -1.09472 0
M  V30 7677 C 701.567 -0.806105 -2.18185 0
M  V30 7678 C 702.561 0.21136 -1.68076 0
M  V30 7679 O 703.767 0.0685558 -1.79869 0
M  V30 7680 H 700.142 -0.242901 -0.71169 0
M  V30 7681 H 702.113 -1.73115 -2.43051 0
M  V30 7682 C 700.862 -0.287928 -3.46506 0
M  V30 7683 H 700.185 -1.06217 -3.85432 0
M  V30 7684 H 701.625 -0.0971054 -4.23889 0
M  V30 7685 C 700.084 0.986256 -3.22141 0
M  V30 7686 O 700.614 2.06217 -3.44728 0
M  V30 7687 N 698.82 0.917153 -2.75747 0
M  V30 7688 H 698.367 0.0414609 -2.57567 0
M  V30 7689 H 698.325 1.77029 -2.59823 0
M  V30 7690 N 702.098 1.27442 -0.927168 0
M  V30 7691 C 703.046 2.28844 -0.416333 0
M  V30 7692 C 704.04 1.61882 0.499057 0
M  V30 7693 O 705.246 1.75969 0.378817 0
M  V30 7694 H 701.621 0.742989 -0.116065 0
M  V30 7695 H 703.592 2.69344 -1.28438 0
M  V30 7696 C 702.341 3.4626 0.316107 0
M  V30 7697 H 701.664 3.97999 -0.379082 0
M  V30 7698 H 703.104 4.19173 0.637975 0
M  V30 7699 C 701.563 3.00211 1.5289 0
M  V30 7700 O 702.093 3.03837 2.62766 0
M  V30 7701 N 700.299 2.55713 1.38054 0
M  V30 7702 H 699.846 2.52962 0.4866 0
M  V30 7703 H 699.804 2.25264 2.19325 0
M  V30 7704 N 703.576 0.692616 1.41565 0
M  V30 7705 C 704.804 0.231279 2.05603 0
M  V30 7706 C 705.219 -1.11837 1.52111 0
M  V30 7707 O 704.576 -1.6983 0.66813 0
M  V30 7708 C 704.627 0.177125 3.61066 0
M  V30 7709 O 704.348 1.47346 4.12578 0
M  V30 7710 C 705.849 -0.30556 4.42246 0
M  V30 7711 H 703.069 0.108238 0.662213 0
M  V30 7712 H 705.613 0.944369 1.81389 0
M  V30 7713 H 703.768 -0.486769 3.8433 0
M  V30 7714 H 704.182 1.35861 5.06599 0
M  V30 7715 H 705.656 -0.29233 5.51225 0
M  V30 7716 H 706.133 -1.34393 4.18133 0
M  V30 7717 H 706.739 0.327229 4.24039 0
M  V30 7718 N 705.054 -1.51416 0.437162 0
M  V30 7719 C 706.282 -2.06503 -0.128045 0
M  V30 7720 C 706.697 -1.30461 -1.36475 0
M  V30 7721 O 706.054 -0.364127 -1.78831 0
M  V30 7722 C 706.105 -3.58683 -0.450437 0
M  V30 7723 O 705.826 -4.31853 0.737186 0
M  V30 7724 C 707.327 -4.30284 -1.06633 0
M  V30 7725 H 704.547 -0.670952 -0.00800269 0
M  V30 7726 H 707.091 -1.94996 0.616193 0
M  V30 7727 H 705.246 -3.70106 -1.14457 0
M  V30 7728 H 705.66 -5.22467 0.461347 0
M  V30 7729 H 707.134 -5.37848 -1.24191 0
M  V30 7730 H 707.611 -3.88564 -2.0473 0
M  V30 7731 H 708.217 -4.23304 -0.411585 0
M  V30 7732 N 706.532 -0.168513 -1.56696 0
M  V30 7733 C 707.48 0.779791 -2.19139 0
M  V30 7734 C 708.474 1.23957 -1.1546 0
M  V30 7735 O 709.68 1.20555 -1.33666 0
M  V30 7736 H 706.055 0.269739 -0.701958 0
M  V30 7737 H 708.026 0.229156 -2.97519 0
M  V30 7738 C 706.775 2.00003 -2.84419 0
M  V30 7739 H 706.098 1.65527 -3.63924 0
M  V30 7740 H 707.538 2.64251 -3.31583 0
M  V30 7741 C 705.997 2.82187 -1.84044 0
M  V30 7742 O 706.527 3.79247 -1.32418 0
M  V30 7743 N 704.733 2.47145 -1.52864 0
M  V30 7744 H 704.28 1.68277 -1.9504 0
M  V30 7745 H 704.238 3.02422 -0.859569 0
M  V30 7746 N 708.01 1.57248 0.105221 0
M  V30 7747 C 708.92 2.04653 1.14693 0
M  V30 7748 C 709.936 0.969488 1.44489 0
M  V30 7749 O 711.112 1.28196 1.55331 0
M  V30 7750 C 708.177 2.45297 2.45011 0
M  V30 7751 C 707.238 3.67148 2.22489 0
M  V30 7752 C 706.471 4.05844 3.46592 0
M  V30 7753 O 706.694 3.44736 4.54437 0
M  V30 7754 O 705.628 4.98862 3.36779 0
M  V30 7755 H 709.454 2.93663 0.774336 0
M  V30 7756 H 707.039 1.45998 0.31701 0
M  V30 7757 H 708.921 2.72112 3.21766 0
M  V30 7758 H 707.596 1.59429 2.81717 0
M  V30 7759 H 706.503 3.45463 1.43547 0
M  V30 7760 H 707.836 4.53764 1.9068 0
M  V30 7761 N 709.488 -0.375779 1.53054 0
M  V30 7762 C 710.398 -1.48381 1.81715 0
M  V30 7763 C 711.414 -1.59087 0.704795 0
M  V30 7764 O 712.59 -1.75174 0.993785 0
M  V30 7765 C 709.655 -2.83767 1.99192 0
M  V30 7766 C 708.716 -2.82673 3.23102 0
M  V30 7767 C 707.949 -4.11601 3.39736 0
M  V30 7768 O 708.172 -5.07243 2.60885 0
M  V30 7769 O 707.106 -4.18034 4.33049 0
M  V30 7770 H 710.932 -1.27089 2.7583 0
M  V30 7771 H 708.517 -0.564902 1.38308 0
M  V30 7772 H 710.399 -3.64004 2.12318 0
M  V30 7773 H 709.074 -3.05057 1.08267 0
M  V30 7774 H 707.981 -2.0117 3.15407 0
M  V30 7775 H 709.314 -2.66335 4.13916 0
M  V30 7776 N 710.966 -1.44241 -0.634997 0
M  V30 7777 C 711.913 -1.5081 -1.74714 0
M  V30 7778 C 712.883 -0.356147 -1.62237 0
M  V30 7779 O 714.068 -0.565848 -1.82216 0
M  V30 7780 C 711.208 -1.45458 -3.12947 0
M  V30 7781 C 710.321 -2.70998 -3.36428 0
M  V30 7782 C 709.456 -2.57507 -4.64611 0
M  V30 7783 C 708.495 -3.78229 -4.81258 0
M  V30 7784 N 707.632 -3.63438 -6.00714 0
M  V30 7785 H 712.472 -2.45832 -1.68436 0
M  V30 7786 H 710.009 -1.2201 -0.821706 0
M  V30 7787 H 711.967 -1.40347 -3.92885 0
M  V30 7788 H 710.597 -0.540058 -3.1825 0
M  V30 7789 H 709.649 -2.86312 -2.50458 0
M  V30 7790 H 710.961 -3.60619 -3.44609 0
M  V30 7791 H 710.115 -2.50207 -5.52703 0
M  V30 7792 H 708.854 -1.65441 -4.58782 0
M  V30 7793 H 707.859 -3.85918 -3.91596 0
M  V30 7794 H 709.084 -4.71327 -4.88904 0
M  V30 7795 H 707.03 -2.7412 -5.95982 0
M  V30 7796 H 706.947 -4.46672 -6.09934 0
M  V30 7797 H 708.215 -3.60022 -6.91378 0
M  V30 7798 N 712.444 0.87505 -1.31075 0
M  V30 7799 C 713.69 1.63009 -1.20647 0
M  V30 7800 C 714.023 1.9276 0.236045 0
M  V30 7801 O 713.298 1.55559 1.16754 0
M  V30 7802 C 713.581 2.96357 -2.0456 0
M  V30 7803 C 713.434 2.73516 -3.57084 0
M  V30 7804 C 714.753 3.974 -1.89107 0
M  V30 7805 H 711.872 0.591518 -0.439631 0
M  V30 7806 H 714.514 1.0119 -1.60812 0
M  V30 7807 H 712.664 3.49119 -1.70435 0
M  V30 7808 H 714.336 2.27465 -4.01319 0
M  V30 7809 H 712.579 2.0784 -3.80769 0
M  V30 7810 H 713.25 3.68377 -4.11099 0
M  V30 7811 H 715.726 3.5383 -2.18961 0
M  V30 7812 H 714.602 4.88596 -2.5013 0
M  V30 7813 H 714.863 4.33794 -0.85296 0
M  V30 7814 N 713.922 1.13953 1.08869 0
M  V30 7815 C 714.87 0.817664 2.17754 0
M  V30 7816 C 715.864 -0.202444 1.68186 0
M  V30 7817 O 717.07 -0.0590159 1.79903 0
M  V30 7818 H 713.445 0.246671 0.710392 0
M  V30 7819 H 715.416 1.74401 2.4213 0
M  V30 7820 C 714.165 0.3063 3.46348 0
M  V30 7821 H 713.488 1.08259 3.84864 0
M  V30 7822 H 714.928 0.119584 4.23831 0
M  V30 7823 C 713.387 -0.969158 3.22659 0
M  V30 7824 O 713.917 -2.04386 3.45817 0
M  V30 7825 N 712.123 -0.902516 2.7623 0
M  V30 7826 H 711.67 -0.027801 2.57585 0
M  V30 7827 H 711.628 -1.75649 2.60758 0
M  V30 7828 N 715.4 -1.26948 0.933913 0
M  V30 7829 C 716.649 -1.93378 0.573409 0
M  V30 7830 C 716.962 -1.74148 -0.890614 0
M  V30 7831 O 718.168 -2.34971 -1.36017 0
M  V30 7832 C 716.624 -3.46449 0.974747 0
M  V30 7833 C 716.232 -3.74425 2.45988 0
M  V30 7834 C 717.976 -4.18924 0.685791 0
M  V30 7835 C 715.883 -5.209 2.8003 0
M  V30 7836 H 714.813 -0.723952 0.210736 0
M  V30 7837 H 717.464 -1.44143 1.13557 0
M  V30 7838 H 715.846 -3.94528 0.341181 0
M  V30 7839 H 717.02 -3.37079 3.14188 0
M  V30 7840 H 715.335 -3.15167 2.72138 0
M  V30 7841 H 717.932 -5.26786 0.916546 0
M  V30 7842 H 718.275 -4.14587 -0.377217 0
M  V30 7843 H 718.808 -3.76687 1.27874 0
M  V30 7844 H 715.547 -5.30332 3.85264 0
M  V30 7845 H 715.067 -5.59369 2.16485 0
M  V30 7846 H 716.746 -5.88837 2.68105 0
M  V30 7847 N 716.879 -0.700114 -1.41195 0
M  V30 7848 C 717.826 -0.0376652 -2.30769 0
M  V30 7849 C 718.796 0.766544 -1.47354 0
M  V30 7850 O 719.981 0.73365 -1.76131 0
M  V30 7851 C 717.121 0.889452 -3.33441 0
M  V30 7852 C 716.234 0.076373 -4.31932 0
M  V30 7853 C 715.369 1.00155 -5.21673 0
M  V30 7854 C 714.408 0.181644 -6.1183 0
M  V30 7855 N 713.545 1.06087 -6.94039 0
M  V30 7856 H 718.385 -0.80726 -2.86858 0
M  V30 7857 H 715.922 -0.409798 -1.41277 0
M  V30 7858 H 717.88 1.44107 -3.91522 0
M  V30 7859 H 716.51 1.6254 -2.78892 0
M  V30 7860 H 715.562 -0.592223 -3.75762 0
M  V30 7861 H 716.874 -0.559076 -4.95657 0
M  V30 7862 H 716.028 1.62223 -5.8461 0
M  V30 7863 H 714.767 1.67085 -4.58186 0
M  V30 7864 H 713.772 -0.452085 -5.47938 0
M  V30 7865 H 714.997 -0.483925 -6.77374 0
M  V30 7866 H 712.943 1.7161 -6.33156 0
M  V30 7867 H 712.86 0.481094 -7.54468 0
M  V30 7868 H 714.128 1.66822 -7.6144 0
M  V30 7869 N 718.357 1.51182 -0.445186 0
M  V30 7870 C 719.304 2.27939 0.362291 0
M  V30 7871 C 720.274 1.31864 1.01 0
M  V30 7872 O 721.459 1.60776 1.02741 0
M  V30 7873 C 718.599 3.13016 1.45311 0
M  V30 7874 C 717.712 4.24093 0.822757 0
M  V30 7875 C 716.847 4.96467 1.88928 0
M  V30 7876 C 715.886 5.99454 1.23778 0
M  V30 7877 N 715.023 6.65206 2.24602 0
M  V30 7878 H 719.863 2.965 -0.29862 0
M  V30 7879 H 717.4 1.46237 -0.15911 0
M  V30 7880 H 719.358 3.60673 2.09692 0
M  V30 7881 H 717.988 2.46553 2.08354 0
M  V30 7882 H 717.04 3.80341 0.0670364 0
M  V30 7883 H 718.352 4.97853 0.307184 0
M  V30 7884 H 717.506 5.47712 2.60953 0
M  V30 7885 H 716.245 4.22355 2.4386 0
M  V30 7886 H 715.25 5.47494 0.503042 0
M  V30 7887 H 716.475 6.75527 0.695694 0
M  V30 7888 H 714.421 5.93901 2.78599 0
M  V30 7889 H 714.338 7.34756 1.77958 0
M  V30 7890 H 715.606 7.21078 2.96085 0
M  V30 7891 N 719.835 0.176821 1.56605 0
M  V30 7892 C 720.745 -0.763682 2.21822 0
M  V30 7893 C 721.761 -1.24889 1.21156 0
M  V30 7894 O 722.937 -1.29987 1.53836 0
M  V30 7895 C 720.002 -1.97352 2.8505 0
M  V30 7896 C 719.063 -1.53466 4.00932 0
M  V30 7897 C 718.296 -2.68682 4.61135 0
M  V30 7898 O 718.519 -3.85694 4.20234 0
M  V30 7899 O 717.453 -2.42442 5.50913 0
M  V30 7900 H 721.279 -0.238363 3.02763 0
M  V30 7901 H 718.864 -0.0516331 1.49311 0
M  V30 7902 H 720.746 -2.68096 3.25119 0
M  V30 7903 H 719.421 -2.48779 2.07101 0
M  V30 7904 H 718.328 -0.796551 3.65521 0
M  V30 7905 H 719.661 -1.06724 4.8049 0
M  V30 7906 N 721.313 -1.57302 -0.09688 0
M  V30 7907 C 722.243 -2.0497 -1.11846 0
M  V30 7908 C 723.224 -0.938278 -1.41882 0
M  V30 7909 O 724.409 -1.20943 -1.51942 0
M  V30 7910 C 721.539 -2.47264 -2.43881 0
M  V30 7911 C 720.493 -3.62053 -2.28257 0
M  V30 7912 C 719.819 -3.90318 -3.65453 0
M  V30 7913 C 721.119 -4.93005 -1.72461 0
M  V30 7914 H 722.813 -2.90567 -0.721888 0
M  V30 7915 H 720.359 -1.39786 -0.345803 0
M  V30 7916 H 722.312 -2.7922 -3.15617 0
M  V30 7917 H 721.036 -1.58664 -2.8547 0
M  V30 7918 H 719.695 -3.30341 -1.58967 0
M  V30 7919 H 719.343 -2.98889 -4.04567 0
M  V30 7920 H 719.043 -4.67597 -3.55846 0
M  V30 7921 H 720.567 -4.24747 -4.3866 0
M  V30 7922 H 721.981 -5.23354 -2.34036 0
M  V30 7923 H 720.378 -5.74436 -1.73618 0
M  V30 7924 H 721.448 -4.80053 -0.683898 0
M  V30 7925 N 722.791 0.367657 -1.53252 0
M  V30 7926 C 724.037 1.11216 -1.69584 0
M  V30 7927 C 724.37 1.89026 -0.445269 0
M  V30 7928 O 723.645 1.86342 0.557404 0
M  V30 7929 C 723.928 2.07308 -2.94441 0
M  V30 7930 C 723.781 1.3312 -4.2965 0
M  V30 7931 C 725.1 3.07459 -3.14892 0
M  V30 7932 H 722.219 0.40294 -0.617096 0
M  V30 7933 H 724.861 0.393201 -1.85887 0
M  V30 7934 H 723.011 2.68617 -2.80673 0
M  V30 7935 H 724.683 0.746111 -4.55226 0
M  V30 7936 H 722.926 0.633051 -4.29156 0
M  V30 7937 H 723.597 2.03443 -5.13142 0
M  V30 7938 H 726.073 2.56252 -3.27832 0
M  V30 7939 H 724.949 3.71919 -4.03693 0
M  V30 7940 H 725.21 3.77514 -2.30077 0
M  V30 7941 N 724.269 1.44576 0.627338 0
M  V30 7942 C 725.217 1.52039 1.76031 0
M  V30 7943 C 726.211 0.391796 1.64807 0
M  V30 7944 O 727.417 0.5669 1.7084 0
M  V30 7945 H 723.792 0.477165 0.581221 0
M  V30 7946 H 725.763 2.47387 1.6686 0
M  V30 7947 C 724.512 1.48539 3.14375 0
M  V30 7948 H 723.835 2.34699 3.23661 0
M  V30 7949 H 725.275 1.57821 3.93534 0
M  V30 7950 C 723.734 0.20672 3.36265 0
M  V30 7951 O 724.264 -0.72154 3.95167 0
M  V30 7952 N 722.47 0.108654 2.90397 0
M  V30 7953 H 722.017 0.864884 2.42647 0
M  V30 7954 H 721.975 -0.746121 3.05418 0
M  V30 7955 N 725.747 -0.868086 1.31537 0
M  V30 7956 C 726.977 -1.65162 1.24118 0
M  V30 7957 C 727.385 -1.88187 -0.195558 0
M  V30 7958 O 726.728 -1.44154 -1.13866 0
M  V30 7959 C 726.79 -3.04119 1.91708 0
M  V30 7960 C 726.454 -3.04194 3.4105 0
M  V30 7961 C 727.451 -2.82016 4.36764 0
M  V30 7962 C 725.136 -3.25256 3.82772 0
M  V30 7963 C 727.13 -2.80881 5.72175 0
M  V30 7964 C 724.817 -3.23749 5.18295 0
M  V30 7965 C 725.815 -3.01589 6.12808 0
M  V30 7966 O 725.503 -2.9993 7.45853 0
M  V30 7967 H 725.235 -0.521597 0.430015 0
M  V30 7968 H 727.789 -1.09165 1.73989 0
M  V30 7969 H 726.019 -3.61849 1.36389 0
M  V30 7970 H 727.708 -3.64701 1.78179 0
M  V30 7971 H 728.474 -2.65525 4.05859 0
M  V30 7972 H 724.353 -3.41534 3.09638 0
M  V30 7973 H 727.897 -2.63503 6.45919 0
M  V30 7974 H 723.794 -3.39781 5.48834 0
M  V30 7975 H 724.562 -3.15979 7.55049 0
M  V30 7976 N 727.225 -1.14528 -1.08264 0
M  V30 7977 C 728.173 -0.829201 -2.17318 0
M  V30 7978 C 729.167 0.193521 -1.68291 0
M  V30 7979 O 730.373 0.0494744 -1.79932 0
M  V30 7980 H 726.748 -0.250435 -0.709074 0
M  V30 7981 H 728.719 -1.75683 -2.41201 0
M  V30 7982 C 727.468 -0.324663 -3.46181 0
M  V30 7983 H 726.791 -1.10299 -3.84284 0
M  V30 7984 H 728.231 -0.142059 -4.23762 0
M  V30 7985 C 726.69 0.952033 -3.23169 0
M  V30 7986 O 727.22 2.02549 -3.46896 0
M  V30 7987 N 725.426 0.887854 -2.76705 0
M  V30 7988 H 724.973 0.0141402 -2.57596 0
M  V30 7989 H 724.931 1.74263 -2.61686 0
M  V30 7990 N 728.703 1.26451 -0.940633 0
M  V30 7991 C 729.928 1.98407 -0.60412 0
M  V30 7992 C 730.353 1.69584 0.81382 0
M  V30 7993 O 729.711 0.943553 1.54812 0
M  V30 7994 C 729.759 3.50387 -0.852136 0
M  V30 7995 O 728.863 4.1233 0.076013 0
M  V30 7996 H 728.204 0.622466 -0.231153 0
M  V30 7997 H 730.734 1.60932 -1.26342 0
M  V30 7998 H 730.744 4.00614 -0.772816 0
M  V30 7999 H 729.419 3.70696 -1.88566 0
M  V30 8000 H 727.996 3.7286 -0.0543187 0
M  V30 8001 N 730.181 0.707592 1.40822 0
M  V30 8002 C 731.597 0.38034 1.55002 0
M  V30 8003 C 731.797 -1.11163 1.68062 0
M  V30 8004 O 730.853 -1.89761 1.66574 0
M  V30 8005 C 732.166 1.1394 2.78277 0
M  V30 8006 C 733.714 1.12492 2.92087 0
M  V30 8007 C 734.189 1.86597 4.18265 0
M  V30 8008 N 735.68 1.83626 4.25248 0
M  V30 8009 C 736.415 2.37794 5.21768 0
M  V30 8010 N 735.911 3.00485 6.24244 0
M  V30 8011 N 737.704 2.27982 5.13791 0
M  V30 8012 H 729.855 1.67511 1.3059 0
M  V30 8013 H 732.118 0.707579 0.630901 0
M  V30 8014 H 731.824 2.19398 2.74877 0
M  V30 8015 H 731.698 0.725793 3.70151 0
M  V30 8016 H 734.085 0.0785564 2.94995 0
M  V30 8017 H 734.166 1.57768 2.01353 0
M  V30 8018 H 733.81 2.91219 4.16118 0
M  V30 8019 H 733.74 1.38746 5.07993 0
M  V30 8020 H 736.231 1.3793 3.51829 0
M  V30 8021 H 736.544 3.39355 6.94304 0
M  V30 8022 H 734.889 3.04567 6.24711 0
M  V30 8023 H 738.08 1.78669 4.3266 0
M  V30 8024 H 738.253 2.70499 5.88841 0
M  V30 8025 N 731.66 -1.50943 0.453197 0
M  V30 8026 C 732.89 -2.06328 -0.105981 0
M  V30 8027 C 733.298 -1.31909 -1.35634 0
M  V30 8028 O 732.641 -0.376607 -1.79798 0
M  V30 8029 C 732.703 -3.5631 -0.477868 0
M  V30 8030 C 732.367 -4.52093 0.667925 0
M  V30 8031 C 733.364 -4.96421 1.54475 0
M  V30 8032 C 731.049 -4.95001 0.853168 0
M  V30 8033 C 733.043 -5.82346 2.59138 0
M  V30 8034 C 730.73 -5.80713 1.90305 0
M  V30 8035 C 731.728 -6.24284 2.77053 0
M  V30 8036 O 731.416 -7.08291 3.80236 0
M  V30 8037 H 731.148 -0.675986 -0.00427247 0
M  V30 8038 H 733.702 -1.95314 0.635738 0
M  V30 8039 H 731.932 -3.65163 -1.27252 0
M  V30 8040 H 733.621 -3.94138 -0.970039 0
M  V30 8041 H 734.387 -4.63953 1.41324 0
M  V30 8042 H 730.266 -4.60619 0.187482 0
M  V30 8043 H 733.81 -6.16276 3.2688 0
M  V30 8044 H 729.707 -6.12593 2.03469 0
M  V30 8045 H 730.475 -7.26504 3.77007 0
M  V30 8046 N 733.138 -0.185124 -1.56509 0
M  V30 8047 C 734.549 0.329221 -1.83774 0
M  V30 8048 C 734.9 1.62093 -1.10545 0
M  V30 8049 O 734.025 2.13334 -0.36298 0
M  V30 8050 C 734.62 0.604099 -3.33371 0
M  V30 8051 C 733.179 1.06284 -3.61083 0
M  V30 8052 C 732.326 0.10608 -2.77097 0
M  V30 8053 H 735.277 -0.409116 -1.53336 0
M  V30 8054 H 735.298 1.45458 -3.51599 0
M  V30 8055 H 734.81 -0.336201 -3.86641 0
M  V30 8056 H 732.911 2.01777 -3.13236 0
M  V30 8057 H 733.024 0.962453 -4.69333 0
M  V30 8058 H 731.388 0.606082 -2.47384 0
M  V30 8059 H 732.171 -0.828486 -3.33153 0
M  V30 8060 N 734.616 1.57351 0.0885366 0
M  V30 8061 C 735.566 1.98963 1.11346 0
M  V30 8062 C 736.55 0.869065 1.35411 0
M  V30 8063 O 737.742 1.13292 1.35992 0
M  V30 8064 C 734.871 2.4231 2.43189 0
M  V30 8065 C 733.957 3.61065 2.22469 0
M  V30 8066 N 734.348 4.75789 1.71635 0
M  V30 8067 C 732.646 3.6729 2.5301 0
M  V30 8068 C 733.347 5.57708 1.65339 0
M  V30 8069 N 732.323 5.01067 2.1079 0
M  V30 8070 H 736.125 2.85109 0.713465 0
M  V30 8071 H 733.639 1.59682 0.295868 0
M  V30 8072 H 735.636 2.70352 3.17357 0
M  V30 8073 H 734.296 1.57544 2.83919 0
M  V30 8074 H 735.307 4.98411 1.40738 0
M  V30 8075 H 731.984 2.932 2.9722 0
M  V30 8076 H 733.374 6.59782 1.27031 0
M  V30 8077 N 736.094 -0.359525 1.53444 0
M  V30 8078 C 737.042 -1.46104 1.80987 0
M  V30 8079 C 738.036 -1.55181 0.679351 0
M  V30 8080 O 739.242 -1.57995 0.862405 0
M  V30 8081 H 735.617 -0.486835 0.573145 0
M  V30 8082 H 737.588 -1.2008 2.73173 0
M  V30 8083 C 736.337 -2.82855 2.02208 0
M  V30 8084 H 735.66 -2.76631 2.88644 0
M  V30 8085 H 737.1 -3.59091 2.25455 0
M  V30 8086 C 735.559 -3.27192 0.802931 0
M  V30 8087 O 736.089 -4.017 -0.00544286 0
M  V30 8088 N 734.295 -2.83807 0.624657 0
M  V30 8089 H 733.842 -2.23339 1.28364 0
M  V30 8090 H 733.8 -3.13828 -0.189641 0
M  V30 8091 N 737.572 -1.44907 -0.619662 0
M  V30 8092 C 738.519 -1.52654 -1.73105 0
M  V30 8093 C 739.489 -0.373334 -1.6185 0
M  V30 8094 O 740.674 -0.585143 -1.81606 0
M  V30 8095 C 737.814 -1.48769 -3.11387 0
M  V30 8096 C 736.927 -2.74551 -3.33535 0
M  V30 8097 C 736.062 -2.62421 -4.61854 0
M  V30 8098 C 735.101 -3.83312 -4.77219 0
M  V30 8099 N 734.238 -3.69789 -5.96826 0
M  V30 8100 H 739.078 -2.47605 -1.65819 0
M  V30 8101 H 736.615 -1.22875 -0.808719 0
M  V30 8102 H 738.573 -1.44507 -3.91374 0
M  V30 8103 H 737.203 -0.573783 -3.1766 0
M  V30 8104 H 736.255 -2.88953 -2.47408 0
M  V30 8105 H 737.567 -3.64253 -3.40765 0
M  V30 8106 H 736.721 -2.56056 -5.50019 0
M  V30 8107 H 735.46 -1.70298 -4.57001 0
M  V30 8108 H 734.465 -3.90049 -3.87481 0
M  V30 8109 H 735.69 -4.76486 -4.83878 0
M  V30 8110 H 733.636 -2.80426 -5.93041 0
M  V30 8111 H 733.553 -4.53116 -6.05163 0
M  V30 8112 H 734.821 -3.67335 -6.87521 0
M  V30 8113 N 739.05 0.861098 -1.31996 0
M  V30 8114 C 739.998 1.99052 -1.20337 0
M  V30 8115 C 740.992 1.69045 -0.109623 0
M  V30 8116 O 742.198 1.77931 -0.272117 0
M  V30 8117 H 738.573 0.653064 -0.372843 0
M  V30 8118 H 740.544 2.06015 -2.15872 0
M  V30 8119 C 739.293 3.34846 -0.936663 0
M  V30 8120 H 738.616 3.58462 -1.77045 0
M  V30 8121 H 740.056 4.1444 -0.895302 0
M  V30 8122 C 738.515 3.34965 0.360607 0
M  V30 8123 O 739.045 3.7745 1.37456 0
M  V30 8124 N 737.251 2.88101 0.380296 0
M  V30 8125 H 736.798 2.53721 -0.445351 0
M  V30 8126 H 736.756 2.88563 1.24816 0
M  V30 8127 N 740.528 1.15101 1.07655 0
M  V30 8128 C 741.774 0.925343 1.80458 0
M  V30 8129 C 742.107 -0.546354 1.86356 0
M  V30 8130 O 741.382 -1.40496 1.34503 0
M  V30 8131 C 741.665 1.53646 3.25676 0
M  V30 8132 C 741.518 3.07854 3.27942 0
M  V30 8133 C 742.837 1.21968 4.22861 0
M  V30 8134 H 739.956 0.337592 0.655134 0
M  V30 8135 H 742.598 1.42217 1.25993 0
M  V30 8136 H 740.748 1.11395 3.72187 0
M  V30 8137 H 742.42 3.58989 2.89697 0
M  V30 8138 H 740.663 3.41904 2.66991 0
M  V30 8139 H 741.334 3.45725 4.30324 0
M  V30 8140 H 743.81 1.5851 3.84726 0
M  V30 8141 H 742.686 1.67349 5.22767 0
M  V30 8142 H 742.947 0.136207 4.4189 0
M  V30 8143 N 742.006 -1.2595 0.947325 0
M  V30 8144 C 743.255 -1.92759 0.593887 0
M  V30 8145 C 743.568 -1.75083 -0.872093 0
M  V30 8146 O 744.774 -2.36401 -1.33518 0
M  V30 8147 C 743.23 -3.45395 1.01144 0
M  V30 8148 C 742.838 -3.71795 2.49946 0
M  V30 8149 C 744.582 -4.18173 0.730185 0
M  V30 8150 C 742.489 -5.17901 2.85539 0
M  V30 8151 H 741.419 -0.721676 0.218403 0
M  V30 8152 H 744.07 -1.4293 1.15079 0
M  V30 8153 H 742.452 -3.94143 0.383007 0
M  V30 8154 H 743.626 -3.33728 3.17746 0
M  V30 8155 H 741.941 -3.12263 2.75465 0
M  V30 8156 H 744.538 -5.25784 0.972367 0
M  V30 8157 H 744.881 -4.14964 -0.333223 0
M  V30 8158 H 745.414 -3.75309 1.31862 0
M  V30 8159 H 742.153 -5.26216 3.90867 0
M  V30 8160 H 741.673 -5.57042 2.22406 0
M  V30 8161 H 743.352 -5.8596 2.74336 0
M  V30 8162 N 743.484 -0.715051 -1.40445 0
M  V30 8163 C 744.414 -0.0768699 -2.33373 0
M  V30 8164 C 745.395 0.746109 -1.52863 0
M  V30 8165 O 746.58 0.695142 -1.81332 0
M  V30 8166 C 743.71 0.846014 -3.36838 0
M  V30 8167 C 742.664 0.128694 -4.27806 0
M  V30 8168 C 741.99 1.16726 -5.21804 0
M  V30 8169 C 743.29 -1.01679 -5.12307 0
M  V30 8170 H 744.984 -0.853061 -2.8699 0
M  V30 8171 H 742.53 -0.41167 -1.3799 0
M  V30 8172 H 744.483 1.30185 -4.00786 0
M  V30 8173 H 743.207 1.6541 -2.81615 0
M  V30 8174 H 741.866 -0.307314 -3.6531 0
M  V30 8175 H 741.514 1.96838 -4.62887 0
M  V30 8176 H 741.214 0.692188 -5.83509 0
M  V30 8177 H 742.738 1.62321 -5.88629 0
M  V30 8178 H 744.152 -0.640337 -5.69713 0
M  V30 8179 H 742.549 -1.4202 -5.83053 0
M  V30 8180 H 743.619 -1.84769 -4.48317 0
M  V30 8181 N 744.962 1.50701 -0.461195 0
M  V30 8182 C 746.19 2.06681 0.0951756 0
M  V30 8183 C 746.605 1.32615 1.34382 0
M  V30 8184 O 745.962 0.392531 1.78229 0
M  V30 8185 C 746.013 3.59354 0.393316 0
M  V30 8186 O 745.734 4.30626 -0.805797 0
M  V30 8187 C 747.235 4.31926 0.997744 0
M  V30 8188 H 744.455 0.670995 -0.00267259 0
M  V30 8189 H 746.999 1.93991 -0.647137 0
M  V30 8190 H 745.154 3.7188 1.08555 0
M  V30 8191 H 745.568 5.21667 -0.544409 0
M  V30 8192 H 747.042 5.39756 1.15619 0
M  V30 8193 H 747.519 3.91772 1.98523 0
M  V30 8194 H 748.125 4.23905 0.344188 0
M  V30 8195 N 746.441 0.193421 1.56409 0
M  V30 8196 C 747.671 -0.450783 2.01622 0
M  V30 8197 C 748.079 -1.5585 1.07273 0
M  V30 8198 O 747.422 -1.83569 0.0694875 0
M  V30 8199 C 747.484 -1.06913 3.43235 0
M  V30 8200 C 747.148 -0.100352 4.5689 0
M  V30 8201 C 748.145 0.689633 5.15306 0
M  V30 8202 C 745.83 0.0102436 5.02299 0
M  V30 8203 C 747.824 1.5772 6.17579 0
M  V30 8204 C 745.511 0.901368 6.04416 0
M  V30 8205 C 746.509 1.68341 6.61929 0
M  V30 8206 O 746.197 2.5596 7.62063 0
M  V30 8207 H 745.929 -0.117671 0.66568 0
M  V30 8208 H 748.483 0.2989 2.03214 0
M  V30 8209 H 746.713 -1.86736 3.38624 0
M  V30 8210 H 748.402 -1.61781 3.72266 0
M  V30 8211 H 749.168 0.614485 4.81092 0
M  V30 8212 H 745.047 -0.58829 4.57231 0
M  V30 8213 H 748.591 2.18805 6.62397 0
M  V30 8214 H 744.488 0.977637 6.38054 0
M  V30 8215 H 745.256 2.49721 7.79475 0
M  V30 8216 N 747.919 -1.57396 -0.0801906 0
M  V30 8217 C 748.866 -2.03107 -1.09618 0
M  V30 8218 C 749.836 -0.910118 -1.38946 0
M  V30 8219 O 751.021 -1.17719 -1.50156 0
M  V30 8220 C 748.161 -2.47293 -2.40708 0
M  V30 8221 C 747.274 -3.72972 -2.17982 0
M  V30 8222 C 746.409 -4.05975 -3.42576 0
M  V30 8223 C 745.448 -5.24719 -3.15177 0
M  V30 8224 N 744.585 -5.53401 -4.32078 0
M  V30 8225 H 749.425 -2.89677 -0.69939 0
M  V30 8226 H 746.962 -1.43263 -0.333785 0
M  V30 8227 H 748.92 -2.7096 -3.17232 0
M  V30 8228 H 747.55 -1.63713 -2.78205 0
M  V30 8229 H 746.602 -3.56693 -1.32189 0
M  V30 8230 H 747.914 -4.59638 -1.93738 0
M  V30 8231 H 747.068 -4.30498 -4.275 0
M  V30 8232 H 745.807 -3.17859 -3.69887 0
M  V30 8233 H 744.812 -5 -2.28648 0
M  V30 8234 H 746.037 -6.14445 -2.89197 0
M  V30 8235 H 743.983 -4.68245 -4.59437 0
M  V30 8236 H 743.9 -6.34469 -4.11078 0
M  V30 8237 H 745.168 -5.8247 -5.18024 0
M  V30 8238 N 749.397 0.351382 -1.53633 0
M  V30 8239 C 750.674 1.10903 -1.6112 0
M  V30 8240 C 751.054 2.06725 -0.427556 0
M  V30 8241 O 750.402 2.20992 0.580916 0
M  V30 8242 C 750.612 1.83561 -2.96827 0
M  V30 8243 C 751.96 2.37587 -3.51906 0
M  V30 8244 O 752.984 1.93669 -2.9895 0
M  V30 8245 O 751.843 3.17913 -4.44515 0
M  V30 8246 H 748.937 0.509558 -0.651368 0
M  V30 8247 H 751.483 0.353504 -1.65977 0
M  V30 8248 H 750.255 1.1371 -3.74414 0
M  V30 8249 H 749.878 2.6599 -2.95525 0
M  V30 8250 N 750.875 1.45233 0.611969 0
M  V30 8251 C 751.823 1.53898 1.74408 0
M  V30 8252 C 752.817 0.409254 1.64382 0
M  V30 8253 O 754.023 0.584988 1.70229 0
M  V30 8254 H 750.398 0.483303 0.576127 0
M  V30 8255 H 752.369 2.49143 1.64227 0
M  V30 8256 C 751.118 1.51865 3.12782 0
M  V30 8257 H 750.441 2.38118 3.21154 0
M  V30 8258 H 751.881 1.61986 3.91838 0
M  V30 8259 C 750.34 0.242374 3.36027 0
M  V30 8260 O 750.87 -0.679587 3.9591 0
M  V30 8261 N 749.076 0.139448 2.90265 0
M  V30 8262 H 748.623 0.890571 2.41716 0
M  V30 8263 H 748.581 -0.713686 3.06193 0
M  V30 8264 N 752.353 -0.854086 1.3245 0
M  V30 8265 C 753.283 -1.97827 1.24044 0
M  V30 8266 C 754.264 -1.69646 0.124166 0
M  V30 8267 O 755.449 -1.91687 0.31143 0
M  V30 8268 C 752.579 -3.33673 0.963324 0
M  V30 8269 C 751.533 -3.76207 2.04089 0
M  V30 8270 C 750.859 -5.0969 1.61618 0
M  V30 8271 C 752.159 -3.91612 3.45597 0
M  V30 8272 H 753.853 -2.05118 2.18099 0
M  V30 8273 H 751.399 -0.985489 1.04996 0
M  V30 8274 H 753.352 -4.11871 0.891061 0
M  V30 8275 H 752.076 -3.26597 -0.0128649 0
M  V30 8276 H 750.735 -3.0026 2.10332 0
M  V30 8277 H 750.383 -4.99072 0.627418 0
M  V30 8278 H 750.083 -5.3912 2.33717 0
M  V30 8279 H 751.607 -5.90381 1.55829 0
M  V30 8280 H 753.021 -4.60163 3.4194 0
M  V30 8281 H 751.418 -4.3246 4.16051 0
M  V30 8282 H 752.488 -2.9451 3.85217 0
M  V30 8283 N 753.831 -1.1567 -1.07043 0
M  V30 8284 C 754.778 -0.856336 -2.14326 0
M  V30 8285 C 755.748 0.192051 -1.64986 0
M  V30 8286 O 756.933 0.0589148 -1.90709 0
M  V30 8287 C 754.073 -0.355227 -3.43267 0
M  V30 8288 C 753.186 -1.46555 -4.06381 0
M  V30 8289 C 752.321 -0.920245 -5.23168 0
M  V30 8290 C 751.36 -2.00729 -5.78251 0
M  V30 8291 N 750.497 -1.47813 -6.86364 0
M  V30 8292 H 755.337 -1.77514 -2.39359 0
M  V30 8293 H 752.874 -0.885676 -1.17449 0
M  V30 8294 H 754.832 -0.0463804 -4.17174 0
M  V30 8295 H 753.462 0.526649 -3.18475 0
M  V30 8296 H 752.514 -1.89052 -3.30096 0
M  V30 8297 H 753.826 -2.28616 -4.43324 0
M  V30 8298 H 752.98 -0.564127 -6.04072 0
M  V30 8299 H 751.719 -0.0688477 -4.87651 0
M  V30 8300 H 750.724 -2.3722 -4.95991 0
M  V30 8301 H 751.949 -2.86252 -6.15822 0
M  V30 8302 H 749.895 -0.649145 -6.5278 0
M  V30 8303 H 749.812 -2.23498 -7.22208 0
M  V30 8304 H 751.08 -1.15036 -7.70965 0
M  V30 8305 N 755.309 1.25446 -0.953992 0
M  V30 8306 C 756.556 1.93143 -0.608429 0
M  V30 8307 C 756.884 1.74727 0.854451 0
M  V30 8308 O 756.139 1.0855 1.62836 0
M  V30 8309 C 756.438 3.45555 -0.912496 0
M  V30 8310 C 756.104 3.84126 -2.36131 0
M  V30 8311 C 754.766 3.94367 -2.75732 0
M  V30 8312 C 757.118 4.0324 -3.30223 0
M  V30 8313 C 754.446 4.21127 -4.08496 0
M  V30 8314 C 756.798 4.31493 -4.62598 0
M  V30 8315 C 755.462 4.3995 -5.01996 0
M  V30 8316 H 754.732 0.706762 -0.22264 0
M  V30 8317 H 757.379 1.49005 -1.20291 0
M  V30 8318 H 755.684 3.91091 -0.235618 0
M  V30 8319 H 757.381 3.9612 -0.623714 0
M  V30 8320 H 753.971 3.76711 -2.04418 0
M  V30 8321 H 758.155 3.94744 -3.00817 0
M  V30 8322 H 753.411 4.2589 -4.38665 0
M  V30 8323 H 757.585 4.45227 -5.35486 0
M  V30 8324 H 755.212 4.60439 -6.04896 0
M  V30 8325 N 756.787 0.722489 1.40064 0
M  V30 8326 C 758.012 0.273446 2.05589 0
M  V30 8327 C 758.437 -1.07875 1.54093 0
M  V30 8328 O 757.795 -1.68095 0.679252 0
M  V30 8329 C 757.843 0.271023 3.5958 0
M  V30 8330 O 756.947 -0.745499 4.05606 0
M  V30 8331 H 756.288 0.126856 0.65177 0
M  V30 8332 H 758.818 0.984906 1.79334 0
M  V30 8333 H 758.828 0.111084 4.07849 0
M  V30 8334 H 757.503 1.25776 3.96425 0
M  V30 8335 H 756.08 -0.552719 3.68781 0
M  V30 8336 N 758.265 -1.50454 0.469181 0
M  V30 8337 C 759.511 -2.02615 -0.0865971 0
M  V30 8338 C 759.844 -1.35062 -1.39542 0
M  V30 8339 O 759.119 -0.475701 -1.88593 0
M  V30 8340 C 759.402 -3.59068 -0.272385 0
M  V30 8341 C 759.255 -4.37196 1.05733 0
M  V30 8342 C 760.574 -4.2793 -1.0278 0
M  V30 8343 H 757.693 -0.736389 -0.0299977 0
M  V30 8344 H 760.335 -1.79792 0.614399 0
M  V30 8345 H 758.485 -3.78646 -0.869471 0
M  V30 8346 H 760.157 -4.29195 1.69084 0
M  V30 8347 H 758.4 -4.01013 1.65442 0
M  V30 8348 H 759.071 -5.44924 0.880997 0
M  V30 8349 H 761.547 -4.12816 -0.521718 0
M  V30 8350 H 760.423 -5.37214 -1.12659 0
M  V30 8351 H 760.684 -3.90968 -2.0639 0
M  V30 8352 N 759.743 -0.201713 -1.56304 0
M  V30 8353 C 760.973 0.440084 -2.01858 0
M  V30 8354 C 761.381 1.55279 -1.08098 0
M  V30 8355 O 760.724 1.83529 -0.0792216 0
M  V30 8356 C 760.786 1.05091 -3.43797 0
M  V30 8357 C 760.45 0.0761208 -4.56937 0
M  V30 8358 C 761.447 -0.716951 -5.14933 0
M  V30 8359 C 759.132 -0.0368815 -5.02286 0
M  V30 8360 C 761.126 -1.60993 -6.16733 0
M  V30 8361 C 758.813 -0.933409 -6.03929 0
M  V30 8362 C 759.811 -1.71849 -6.61027 0
M  V30 8363 O 759.499 -2.59998 -7.60695 0
M  V30 8364 H 759.231 0.114139 -0.666294 0
M  V30 8365 H 761.785 -0.309672 -2.03052 0
M  V30 8366 H 760.015 1.84938 -3.3961 0
M  V30 8367 H 761.704 1.59804 -3.73118 0
M  V30 8368 H 762.47 -0.63999 -4.80759 0
M  V30 8369 H 758.349 0.564034 -4.57537 0
M  V30 8370 H 761.893 -2.22315 -6.61227 0
M  V30 8371 H 757.79 -1.01146 -6.37526 0
M  V30 8372 H 758.558 -2.53851 -7.7814 0
M  V30 8373 N 761.222 1.57436 0.0718424 0
M  V30 8374 C 762.132 2.07039 1.10326 0
M  V30 8375 C 763.148 0.999918 1.424 0
M  V30 8376 O 764.324 1.31462 1.52577 0
M  V30 8377 C 761.389 2.50439 2.39752 0
M  V30 8378 C 760.45 3.71784 2.14651 0
M  V30 8379 C 759.683 4.13104 3.37906 0
M  V30 8380 O 759.906 3.54298 4.47023 0
M  V30 8381 O 758.84 5.05894 3.26121 0
M  V30 8382 H 762.666 2.95239 0.711872 0
M  V30 8383 H 760.251 1.46638 0.28597 0
M  V30 8384 H 762.133 2.78876 3.15921 0
M  V30 8385 H 760.808 1.65368 2.78271 0
M  V30 8386 H 759.715 3.48431 1.36187 0
M  V30 8387 H 761.048 4.57707 1.81012 0
M  V30 8388 N 762.7 -0.34323 1.53817 0
M  V30 8389 C 763.648 -1.44176 1.82527 0
M  V30 8390 C 764.642 -1.54452 0.695772 0
M  V30 8391 O 765.848 -1.57072 0.879114 0
M  V30 8392 H 762.223 -0.480729 0.578277 0
M  V30 8393 H 764.194 -1.17176 2.74431 0
M  V30 8394 C 762.943 -2.80695 2.05197 0
M  V30 8395 H 762.266 -2.73554 2.91561 0
M  V30 8396 H 763.706 -3.56679 2.29251 0
M  V30 8397 C 762.165 -3.26322 0.837589 0
M  V30 8398 O 762.695 -4.01683 0.0371631 0
M  V30 8399 N 760.901 -2.83128 0.654724 0
M  V30 8400 H 760.448 -2.21965 1.30725 0
M  V30 8401 H 760.406 -3.14011 -0.156345 0
M  V30 8402 N 764.178 -1.45556 -0.604258 0
M  V30 8403 C 765.426 -1.4945 -1.36048 0
M  V30 8404 C 765.747 -0.138933 -1.94504 0
M  V30 8405 O 765.017 0.832097 -1.7735 0
M  V30 8406 H 763.597 -0.550381 -0.505064 0
M  V30 8407 H 766.259 -1.81535 -0.709308 0
M  V30 8408 H 765.355 -2.23519 -2.17821 0
M  V30 8409 N 765.656 0.84705 -1.32902 0
M  V30 8410 C 766.603 1.95624 -1.22473 0
M  V30 8411 C 767.573 1.65767 -0.105178 0
M  V30 8412 O 768.758 1.88704 -0.282042 0
M  V30 8413 C 765.898 3.31434 -0.961542 0
M  V30 8414 C 765.011 3.73741 -2.1666 0
M  V30 8415 C 764.146 4.98379 -1.83825 0
M  V30 8416 C 763.185 5.33199 -3.00609 0
M  V30 8417 N 762.322 6.49014 -2.67816 0
M  V30 8418 H 767.162 2.03875 -2.17345 0
M  V30 8419 H 764.699 0.997764 -1.08088 0
M  V30 8420 H 766.657 4.09663 -0.789411 0
M  V30 8421 H 765.287 3.22762 -0.0495938 0
M  V30 8422 H 764.339 2.91102 -2.44875 0
M  V30 8423 H 765.651 3.95462 -3.03993 0
M  V30 8424 H 764.805 5.84336 -1.63208 0
M  V30 8425 H 763.544 4.78611 -0.937172 0
M  V30 8426 H 762.549 4.4575 -3.21849 0
M  V30 8427 H 763.774 5.5492 -3.9146 0
M  V30 8428 H 761.72 6.30748 -1.80258 0
M  V30 8429 H 761.637 6.7079 -3.48679 0
M  V30 8430 H 762.905 7.38103 -2.50647 0
M  V30 8431 N 767.134 1.16236 1.06428 0
M  V30 8432 C 768.383 0.937523 1.78587 0
M  V30 8433 C 768.696 -0.536 1.88113 0
M  V30 8434 O 769.902 -0.878697 2.56887 0
M  V30 8435 C 768.358 1.62808 3.2097 0
M  V30 8436 C 767.966 3.13927 3.19615 0
M  V30 8437 C 769.71 1.48515 3.97673 0
M  V30 8438 C 767.617 3.75727 4.56709 0
M  V30 8439 H 766.547 0.347125 0.669343 0
M  V30 8440 H 769.198 1.39353 1.19385 0
M  V30 8441 H 767.58 1.09977 3.80422 0
M  V30 8442 H 768.754 3.7359 2.69753 0
M  V30 8443 H 767.069 3.28089 2.56411 0
M  V30 8444 H 769.666 1.92069 4.99013 0
M  V30 8445 H 770.009 0.433913 4.14032 0
M  V30 8446 H 770.542 1.98494 3.44739 0
M  V30 8447 H 767.281 4.80793 4.45554 0
M  V30 8448 H 766.801 3.20849 5.0677 0
M  V30 8449 H 768.48 3.77203 5.25668 0
M  V30 8450 N 768.612 -1.24939 0.960631 0
M  V30 8451 C 769.861 -1.92118 0.614298 0
M  V30 8452 C 770.174 -1.75998 -0.853474 0
M  V30 8453 O 771.38 -2.37804 -1.31003 0
M  V30 8454 C 769.836 -3.44303 1.04801 0
M  V30 8455 C 769.444 -3.69123 2.53875 0
M  V30 8456 C 771.188 -4.17375 0.774497 0
M  V30 8457 C 769.095 -5.14843 2.91016 0
M  V30 8458 H 768.025 -0.719319 0.226045 0
M  V30 8459 H 770.676 -1.41701 1.16589 0
M  V30 8460 H 769.058 -3.93715 0.42479 0
M  V30 8461 H 770.232 -3.30339 3.21267 0
M  V30 8462 H 768.547 -3.09323 2.78762 0
M  V30 8463 H 771.144 -5.24723 1.02808 0
M  V30 8464 H 771.487 -4.15294 -0.289192 0
M  V30 8465 H 772.02 -3.7389 1.35835 0
M  V30 8466 H 768.759 -5.2204 3.96427 0
M  V30 8467 H 768.279 -5.54652 2.28302 0
M  V30 8468 H 769.958 -5.83017 2.80535 0
M  V30 8469 N 770.09 -0.729906 -1.39679 0
M  V30 8470 C 771.038 -0.0756589 -2.32477 0
M  V30 8471 C 772.032 0.731438 -1.52795 0
M  V30 8472 O 773.238 0.633195 -1.68495 0
M  V30 8473 H 769.613 -0.00566492 -0.751979 0
M  V30 8474 H 771.584 -0.874797 -2.85289 0
M  V30 8475 C 770.333 0.821313 -3.37861 0
M  V30 8476 H 769.656 0.209666 -3.9925 0
M  V30 8477 H 771.096 1.24679 -4.05254 0
M  V30 8478 C 769.555 1.9533 -2.74495 0
M  V30 8479 O 770.085 3.04548 -2.61942 0
M  V30 8480 N 768.291 1.74119 -2.3266 0
M  V30 8481 H 767.838 0.852908 -2.4307 0
M  V30 8482 H 767.796 2.50036 -1.90603 0
M  V30 8483 N 771.568 1.50203 -0.477153 0
M  V30 8484 C 772.478 2.32421 0.319027 0
M  V30 8485 C 773.494 1.43075 0.990233 0
M  V30 8486 O 774.67 1.76123 0.976873 0
M  V30 8487 C 771.735 3.17909 1.38328 0
M  V30 8488 C 770.796 4.23082 0.728036 0
M  V30 8489 C 770.029 5.04484 1.74158 0
M  V30 8490 O 770.252 4.8705 2.96881 0
M  V30 8491 O 769.186 5.8747 1.31006 0
M  V30 8492 H 773.012 3.01638 -0.353281 0
M  V30 8493 H 770.597 1.47478 -0.238891 0
M  V30 8494 H 772.479 3.70937 1.9996 0
M  V30 8495 H 771.154 2.51413 2.03895 0
M  V30 8496 H 770.061 3.7403 0.07261 0
M  V30 8497 H 771.394 4.92065 0.115216 0
M  V30 8498 N 773.046 0.209999 1.56195 0
M  V30 8499 C 774.276 -0.429373 2.02089 0
M  V30 8500 C 774.684 -1.54703 1.0892 0
M  V30 8501 O 774.027 -1.83485 0.0889535 0
M  V30 8502 C 774.089 -1.03266 3.44349 0
M  V30 8503 C 773.753 -0.0518873 4.56971 0
M  V30 8504 C 774.75 0.744249 5.14545 0
M  V30 8505 C 772.435 0.0635185 5.0226 0
M  V30 8506 C 774.429 1.64261 6.15871 0
M  V30 8507 C 772.116 0.965423 6.03426 0
M  V30 8508 C 773.114 1.75352 6.60106 0
M  V30 8509 O 772.802 2.64029 7.59305 0
M  V30 8510 H 772.534 -0.110604 0.66689 0
M  V30 8511 H 775.088 0.320436 2.02885 0
M  V30 8512 H 773.318 -1.83134 3.40586 0
M  V30 8513 H 775.007 -1.57823 3.73961 0
M  V30 8514 H 775.773 0.665476 4.80413 0
M  V30 8515 H 771.652 -0.539762 4.57829 0
M  V30 8516 H 775.196 2.25819 6.60039 0
M  V30 8517 H 771.093 1.04526 6.36981 0
M  V30 8518 H 771.861 2.57974 7.76783 0
M  V30 8519 N 774.524 -1.57472 -0.0634922 0
M  V30 8520 C 775.77 -1.87932 -0.762194 0
M  V30 8521 C 776.103 -0.803377 -1.76804 0
M  V30 8522 O 775.378 0.185468 -1.93614 0
M  V30 8523 C 775.661 -3.29053 -1.46275 0
M  V30 8524 C 775.514 -4.47309 -0.472755 0
M  V30 8525 C 776.833 -3.68537 -2.40558 0
M  V30 8526 H 773.952 -0.683521 -0.275624 0
M  V30 8527 H 776.594 -1.89983 -0.0252651 0
M  V30 8528 H 774.744 -3.27435 -2.0909 0
M  V30 8529 H 776.416 -4.61053 0.150828 0
M  V30 8530 H 774.659 -4.33286 0.211187 0
M  V30 8531 H 775.33 -5.42853 -1.00072 0
M  V30 8532 H 777.806 -3.71302 -1.87814 0
M  V30 8533 H 776.682 -4.68152 -2.86574 0
M  V30 8534 H 776.943 -2.98917 -3.25731 0
M  V30 8535 N 776.003 0.335068 -1.53997 0
M  V30 8536 C 776.933 1.41727 -1.85568 0
M  V30 8537 C 777.914 1.54505 -0.7115 0
M  V30 8538 O 779.099 1.68573 -0.964191 0
M  V30 8539 C 776.229 2.7866 -2.07282 0
M  V30 8540 C 775.183 2.80682 -3.23112 0
M  V30 8541 C 774.509 4.20581 -3.30175 0
M  V30 8542 C 775.809 2.45458 -4.61029 0
M  V30 8543 H 777.503 1.15555 -2.76202 0
M  V30 8544 H 775.049 0.554445 -1.32898 0
M  V30 8545 H 777.002 3.54423 -2.27952 0
M  V30 8546 H 775.726 3.06286 -1.13387 0
M  V30 8547 H 774.385 2.07373 -3.02311 0
M  V30 8548 H 774.033 4.4533 -2.33859 0
M  V30 8549 H 773.733 4.22843 -4.08016 0
M  V30 8550 H 775.257 4.98174 -3.53066 0
M  V30 8551 H 776.671 3.10934 -4.81656 0
M  V30 8552 H 775.068 2.5899 -5.41336 0
M  V30 8553 H 776.138 1.40628 -4.6406 0
M  V30 8554 N 777.481 1.45874 0.596531 0
M  V30 8555 C 778.729 1.5017 1.35253 0
M  V30 8556 C 779.05 0.149246 1.94428 0
M  V30 8557 O 778.32 -0.82268 1.77789 0
M  V30 8558 H 776.9 0.553052 0.502138 0
M  V30 8559 H 779.562 1.81908 0.699671 0
M  V30 8560 H 778.658 2.24671 2.16632 0
M  V30 8561 N 778.959 -0.83999 1.33349 0
M  V30 8562 C 779.907 -1.97113 1.23488 0
M  V30 8563 C 780.901 -1.68849 0.136503 0
M  V30 8564 O 782.107 -1.77476 0.300389 0
M  V30 8565 H 778.482 -0.647049 0.383185 0
M  V30 8566 H 780.453 -2.02554 2.19122 0
M  V30 8567 C 779.202 -3.33314 0.989815 0
M  V30 8568 H 778.525 -3.556 1.82726 0
M  V30 8569 H 779.965 -4.12963 0.961123 0
M  V30 8570 C 778.424 -3.35496 -0.307272 0
M  V30 8571 O 778.954 -3.79589 -1.31434 0
M  V30 8572 N 777.16 -2.88669 -0.334414 0
M  V30 8573 H 776.707 -2.5298 0.485659 0
M  V30 8574 H 776.665 -2.90512 -1.20209 0
M  V30 8575 N 780.437 -1.16799 -1.0581 0
M  V30 8576 C 781.367 -0.902241 -2.15364 0
M  V30 8577 C 782.348 0.153351 -1.69407 0
M  V30 8578 O 783.533 0.00442032 -1.94199 0
M  V30 8579 C 780.663 -0.407911 -3.44896 0
M  V30 8580 C 779.617 -1.40197 -4.04387 0
M  V30 8581 C 778.943 -0.765848 -5.29187 0
M  V30 8582 C 780.243 -2.77316 -4.42598 0
M  V30 8583 H 781.937 -1.81841 -2.37853 0
M  V30 8584 H 779.483 -0.875731 -1.14311 0
M  V30 8585 H 781.436 -0.20945 -4.20879 0
M  V30 8586 H 780.16 0.54378 -3.22041 0
M  V30 8587 H 778.819 -1.58707 -3.30466 0
M  V30 8588 H 778.467 0.192482 -5.02632 0
M  V30 8589 H 778.167 -1.42939 -5.69949 0
M  V30 8590 H 779.691 -0.577519 -6.07863 0
M  V30 8591 H 781.105 -2.62561 -5.09642 0
M  V30 8592 H 779.502 -3.4019 -4.94359 0
M  V30 8593 H 780.572 -3.32199 -3.53231 0
M  V30 8594 N 781.915 1.24427 -0.967243 0
M  V30 8595 C 783.192 1.87831 -0.545776 0
M  V30 8596 C 783.572 1.87126 0.977099 0
M  V30 8597 O 782.92 1.34357 1.84826 0
M  V30 8598 C 783.13 3.29967 -1.13679 0
M  V30 8599 C 784.478 4.06654 -1.22139 0
M  V30 8600 O 785.502 3.39136 -1.08926 0
M  V30 8601 O 784.361 5.27455 -1.43017 0
M  V30 8602 H 781.455 0.806745 -0.181912 0
M  V30 8603 H 784.001 1.32403 -1.06148 0
M  V30 8604 H 782.773 3.24977 -2.17958 0
M  V30 8605 H 782.396 3.92969 -0.605093 0
M  V30 8606 N 783.393 0.737304 1.3929 0
M  V30 8607 C 784.341 0.0879867 2.32434 0
M  V30 8608 C 785.335 -0.723324 1.53181 0
M  V30 8609 O 786.541 -0.624251 1.68829 0
M  V30 8610 H 782.916 0.00965277 0.751938 0
M  V30 8611 H 784.887 0.889915 2.84821 0
M  V30 8612 C 783.636 -0.803384 3.38291 0
M  V30 8613 H 782.959 -0.18849 3.99355 0
M  V30 8614 H 784.399 -1.22528 4.0591 0
M  V30 8615 C 782.858 -1.93872 2.75527 0
M  V30 8616 O 783.388 -3.03154 2.63553 0
M  V30 8617 N 781.594 -1.72883 2.3358 0
M  V30 8618 H 781.141 -0.840005 2.43519 0
M  V30 8619 H 781.099 -2.49021 1.91927 0
M  V30 8620 N 784.871 -1.49948 0.485112 0
M  V30 8621 C 785.834 -2.27351 -0.290546 0
M  V30 8622 C 786.834 -1.32704 -0.908087 0
M  V30 8623 O 788.024 -1.56007 -0.775085 0
M  V30 8624 C 785.156 -3.10135 -1.41524 0
M  V30 8625 H 786.349 -2.97374 0.388454 0
M  V30 8626 H 783.902 -1.54453 0.239586 0
M  V30 8627 H 784.637 -2.44641 -2.12888 0
M  V30 8628 H 784.422 -3.79705 -0.978074 0
M  V30 8629 H 785.912 -3.68638 -1.96204 0
M  V30 8630 N 786.349 -0.21828 -1.56081 0
M  V30 8631 C 787.598 0.414644 -1.97392 0
M  V30 8632 C 787.911 1.61132 -1.10887 0
M  V30 8633 O 789.117 2.31355 -1.42082 0
M  V30 8634 C 787.573 0.789099 -3.51143 0
M  V30 8635 C 787.181 -0.384578 -4.46346 0
M  V30 8636 C 788.925 1.38781 -4.01173 0
M  V30 8637 C 786.832 0.0121288 -5.91399 0
M  V30 8638 H 785.762 0.158691 -0.737111 0
M  V30 8639 H 788.413 -0.313974 -1.80794 0
M  V30 8640 H 786.795 1.57505 -3.6333 0
M  V30 8641 H 787.969 -1.16212 -4.45905 0
M  V30 8642 H 786.284 -0.896306 -4.06639 0
M  V30 8643 H 788.881 1.69746 -5.07041 0
M  V30 8644 H 789.224 2.30245 -3.46833 0
M  V30 8645 H 789.757 0.665364 -3.92196 0
M  V30 8646 H 786.496 -0.868917 -6.49715 0
M  V30 8647 H 786.016 0.754053 -5.95041 0
M  V30 8648 H 787.695 0.439949 -6.45502 0
M  V30 8649 N 787.827 1.57504 0.0551401 0
M  V30 8650 C 788.774 2.04825 1.06373 0
M  V30 8651 C 789.744 0.932108 1.37481 0
M  V30 8652 O 790.929 1.20093 1.48265 0
M  V30 8653 C 788.069 2.51091 2.36743 0
M  V30 8654 C 787.182 3.76392 2.12021 0
M  V30 8655 C 786.317 4.11373 3.36074 0
M  V30 8656 C 785.356 5.29666 3.0679 0
M  V30 8657 N 784.493 5.60205 4.2322 0
M  V30 8658 H 789.333 2.90753 0.653216 0
M  V30 8659 H 786.87 1.43776 0.310951 0
M  V30 8660 H 788.828 2.75973 3.12881 0
M  V30 8661 H 787.458 1.68118 2.75565 0
M  V30 8662 H 786.51 3.58751 1.26498 0
M  V30 8663 H 787.822 4.62662 1.86401 0
M  V30 8664 H 786.976 4.37245 4.20597 0
M  V30 8665 H 785.715 3.23704 3.64784 0
M  V30 8666 H 784.72 5.03574 2.20664 0
M  V30 8667 H 785.945 6.18968 2.79385 0
M  V30 8668 H 783.891 4.75495 4.5193 0
M  V30 8669 H 783.808 6.40928 4.00933 0
M  V30 8670 H 785.076 5.90637 5.08692 0
M  V30 8671 N 789.305 -0.326896 1.54172 0
M  V30 8672 C 790.53 -1.08924 1.76494 0
M  V30 8673 C 790.955 -1.81039 0.510523 0
M  V30 8674 O 790.313 -1.73141 -0.537756 0
M  V30 8675 C 790.361 -2.06558 2.95578 0
M  V30 8676 O 789.465 -3.14394 2.6689 0
M  V30 8677 H 788.806 -0.314216 0.584948 0
M  V30 8678 H 791.336 -0.372207 2.01186 0
M  V30 8679 H 791.346 -2.49487 3.22832 0
M  V30 8680 H 790.021 -1.53469 3.86549 0
M  V30 8681 H 788.598 -2.76164 2.50576 0
M  V30 8682 N 790.784 -1.46188 -0.588786 0
M  V30 8683 C 791.731 -1.56292 -1.69828 0
M  V30 8684 C 792.701 -0.407581 -1.61022 0
M  V30 8685 O 793.886 -0.623532 -1.80324 0
M  V30 8686 C 791.026 -1.55341 -3.08161 0
M  V30 8687 C 790.139 -2.81564 -3.27636 0
M  V30 8688 C 789.274 -2.72158 -4.56183 0
M  V30 8689 C 788.313 -3.93348 -4.68981 0
M  V30 8690 N 787.45 -3.82365 -5.88848 0
M  V30 8691 H 792.29 -2.51066 -1.6053 0
M  V30 8692 H 789.827 -1.24562 -0.782474 0
M  V30 8693 H 791.785 -1.52776 -3.88221 0
M  V30 8694 H 790.415 -0.641034 -3.16371 0
M  V30 8695 H 789.467 -2.94136 -2.41223 0
M  V30 8696 H 790.779 -3.714 -3.32962 0
M  V30 8697 H 789.933 -2.67665 -5.44464 0
M  V30 8698 H 788.672 -1.79953 -4.53286 0
M  V30 8699 H 787.677 -3.98181 -3.7912 0
M  V30 8700 H 788.902 -4.86643 -4.73662 0
M  V30 8701 H 786.848 -2.92942 -5.86959 0
M  V30 8702 H 786.765 -4.65851 -5.95415 0
M  V30 8703 H 788.033 -3.81836 -6.79575 0
M  V30 8704 N 792.262 0.832906 -1.33792 0
M  V30 8705 C 793.492 1.61813 -1.28453 0
M  V30 8706 C 793.9 1.88639 0.145595 0
M  V30 8707 O 793.243 1.47122 1.10004 0
M  V30 8708 C 793.305 2.98929 -1.99704 0
M  V30 8709 C 792.969 2.95045 -3.48995 0
M  V30 8710 C 793.966 2.70337 -4.44088 0
M  V30 8711 C 791.651 3.14993 -3.91261 0
M  V30 8712 C 793.645 2.65612 -5.79421 0
M  V30 8713 C 791.332 3.09893 -5.26697 0
M  V30 8714 C 792.33 2.85235 -6.20588 0
M  V30 8715 O 792.018 2.8005 -7.53543 0
M  V30 8716 H 791.75 0.510013 -0.443693 0
M  V30 8717 H 794.304 1.04514 -1.76822 0
M  V30 8718 H 792.534 3.58106 -1.45935 0
M  V30 8719 H 794.223 3.59849 -1.87786 0
M  V30 8720 H 794.989 2.54671 -4.12756 0
M  V30 8721 H 790.868 3.33204 -3.18584 0
M  V30 8722 H 794.412 2.46285 -6.52679 0
M  V30 8723 H 790.309 3.2511 -5.5765 0
M  V30 8724 H 791.077 2.95849 -7.63162 0
M  V30 8725 N 793.74 1.17359 1.05189 0
M  V30 8726 C 794.65 0.904984 2.16442 0
M  V30 8727 C 795.666 -0.12686 1.73537 0
M  V30 8728 O 796.842 0.0524127 2.01332 0
M  V30 8729 C 793.907 0.422019 3.44122 0
M  V30 8730 C 792.968 1.52045 4.01473 0
M  V30 8731 C 792.201 1.06044 5.23059 0
M  V30 8732 O 792.424 -0.0854023 5.70336 0
M  V30 8733 O 791.358 1.85349 5.72651 0
M  V30 8734 H 795.184 1.8356 2.41949 0
M  V30 8735 H 792.769 0.95447 1.14936 0
M  V30 8736 H 794.651 0.160208 4.21095 0
M  V30 8737 H 793.326 -0.480444 3.20115 0
M  V30 8738 H 792.233 1.83615 3.25939 0
M  V30 8739 H 793.566 2.39863 4.29798 0
M  V30 8740 N 795.218 -1.23913 0.973828 0
M  V30 8741 C 796.168 -2.22892 0.479933 0
M  V30 8742 C 797.152 -1.54726 -0.441434 0
M  V30 8743 O 798.344 -1.74908 -0.271358 0
M  V30 8744 C 795.473 -3.42577 -0.222702 0
M  V30 8745 C 794.559 -4.17981 0.717851 0
M  V30 8746 N 794.95 -4.7045 1.8577 0
M  V30 8747 C 793.248 -4.42841 0.529858 0
M  V30 8748 C 793.949 -5.27751 2.44651 0
M  V30 8749 N 792.925 -5.15302 1.73104 0
M  V30 8750 H 796.727 -2.61083 1.34956 0
M  V30 8751 H 794.241 -1.39368 0.83368 0
M  V30 8752 H 796.238 -4.1265 -0.593793 0
M  V30 8753 H 794.898 -3.05904 -1.0887 0
M  V30 8754 H 795.909 -4.66997 2.23908 0
M  V30 8755 H 792.586 -4.1648 -0.291664 0
M  V30 8756 H 793.976 -5.79011 3.40875 0
M  V30 8757 N 796.696 -0.74468 -1.38897 0
M  V30 8758 C 797.626 -0.126355 -2.33158 0
M  V30 8759 C 798.607 0.713517 -1.54412 0
M  V30 8760 O 799.792 0.656523 -1.82766 0
M  V30 8761 C 796.922 0.774375 -3.38557 0
M  V30 8762 C 795.876 0.0379214 -4.27983 0
M  V30 8763 C 795.202 1.05631 -5.24162 0
M  V30 8764 C 796.502 -1.12523 -5.10035 0
M  V30 8765 H 798.196 -0.913744 -2.85116 0
M  V30 8766 H 795.742 -0.440847 -1.37086 0
M  V30 8767 H 797.695 1.21655 -4.03458 0
M  V30 8768 H 796.419 1.59399 -2.85061 0
M  V30 8769 H 795.078 -0.384733 -3.64576 0
M  V30 8770 H 794.726 1.86975 -4.66958 0
M  V30 8771 H 794.426 0.568261 -5.84846 0
M  V30 8772 H 795.95 1.49799 -5.9194 0
M  V30 8773 H 797.364 -0.761037 -5.68226 0
M  V30 8774 H 795.761 -1.54355 -5.79909 0
M  V30 8775 H 796.831 -1.94237 -4.44297 0
M  V30 8776 N 798.174 1.49689 -0.493057 0
M  V30 8777 C 799.422 2.02027 0.0541642 0
M  V30 8778 C 799.743 1.37554 1.38217 0
M  V30 8779 O 799.013 0.528174 1.88646 0
M  V30 8780 H 797.593 0.746646 0.0230069 0
M  V30 8781 H 800.255 1.83795 -0.648489 0
M  V30 8782 H 799.351 3.11523 0.189652 0
M  V30 8783 N 799.652 0.226554 1.55963 0
M  V30 8784 C 800.88 -0.408507 2.02827 0
M  V30 8785 C 801.295 -1.52994 1.10627 0
M  V30 8786 O 800.652 -1.82126 0.116809 0
M  V30 8787 C 800.703 -0.93545 3.49187 0
M  V30 8788 O 800.424 0.141273 4.37872 0
M  V30 8789 C 801.925 -1.64325 4.11719 0
M  V30 8790 H 799.145 -0.099442 0.66359 0
M  V30 8791 H 801.689 0.344471 2.01578 0
M  V30 8792 H 799.844 -1.63868 3.51036 0
M  V30 8793 H 800.258 -0.25558 5.23877 0
M  V30 8794 H 801.732 -1.9639 5.15883 0
M  V30 8795 H 802.209 -2.55815 3.57009 0
M  V30 8796 H 802.815 -0.9851 4.13734 0
M  V30 8797 N 801.13 -1.57531 -0.0467866 0
M  V30 8798 C 802.541 -1.76945 -0.595603 0
M  V30 8799 C 802.892 -0.855354 -1.76573 0
M  V30 8800 O 802.017 -0.045668 -2.16352 0
M  V30 8801 C 802.612 -3.20881 -1.08725 0
M  V30 8802 C 801.171 -3.41553 -1.58172 0
M  V30 8803 C 800.318 -2.72533 -0.511968 0
M  V30 8804 H 803.269 -1.57682 0.179436 0
M  V30 8805 H 803.29 -3.26419 -1.95528 0
M  V30 8806 H 802.802 -3.87385 -0.235398 0
M  V30 8807 H 800.903 -2.80199 -2.456 0
M  V30 8808 H 801.016 -4.50104 -1.64143 0
M  V30 8809 H 799.38 -2.35797 -0.962899 0
M  V30 8810 H 800.163 -3.41709 0.330117 0
M  V30 8811 N 802.608 0.318715 -1.54344 0
M  V30 8812 C 803.555 1.39242 -1.84066 0
M  V30 8813 C 804.525 1.51175 -0.688134 0
M  V30 8814 O 805.71 1.66318 -0.935039 0
M  V30 8815 C 802.85 2.75528 -2.07794 0
M  V30 8816 C 801.963 2.72187 -3.35467 0
M  V30 8817 C 801.098 4.00352 -3.4913 0
M  V30 8818 C 800.137 3.91338 -4.7066 0
M  V30 8819 N 799.274 5.11242 -4.81224 0
M  V30 8820 H 804.114 1.13196 -2.75664 0
M  V30 8821 H 801.651 0.547857 -1.36517 0
M  V30 8822 H 803.609 3.54763 -2.19543 0
M  V30 8823 H 802.239 2.99873 -1.19482 0
M  V30 8824 H 801.291 1.84917 -3.3243 0
M  V30 8825 H 802.603 2.61411 -4.24812 0
M  V30 8826 H 801.757 4.88019 -3.60448 0
M  V30 8827 H 800.496 4.1394 -2.57886 0
M  V30 8828 H 799.501 3.02055 -4.59394 0
M  V30 8829 H 800.726 3.7931 -5.63294 0
M  V30 8830 H 798.672 5.25327 -3.92897 0
M  V30 8831 H 798.589 5.0282 -5.64543 0
M  V30 8832 H 799.857 6.0061 -4.96879 0
M  V30 8833 N 804.086 1.46499 0.581025 0
M  V30 8834 C 805.016 1.60052 1.70017 0
M  V30 8835 C 805.997 0.450788 1.64018 0
M  V30 8836 O 807.182 0.677237 1.82009 0
M  V30 8837 C 804.312 1.5921 3.08658 0
M  V30 8838 C 803.266 2.73169 3.29488 0
M  V30 8839 C 802.592 2.57389 4.68674 0
M  V30 8840 C 803.892 4.14978 3.1716 0
M  V30 8841 H 805.586 2.53735 1.5893 0
M  V30 8842 H 803.132 1.22113 0.763173 0
M  V30 8843 H 805.085 1.67285 3.86773 0
M  V30 8844 H 803.809 0.620718 3.20647 0
M  V30 8845 H 802.468 2.64566 2.53773 0
M  V30 8846 H 802.116 1.58331 4.77431 0
M  V30 8847 H 801.816 3.33826 4.83564 0
M  V30 8848 H 803.34 2.67358 5.48956 0
M  V30 8849 H 804.754 4.24684 3.85119 0
M  V30 8850 H 803.151 4.92016 3.4357 0
M  V30 8851 H 804.221 4.35016 2.14218 0
M  V30 8852 N 805.565 -0.825799 1.34232 0
M  V30 8853 C 806.513 -1.95792 1.25572 0
M  V30 8854 C 807.507 -1.68695 0.154404 0
M  V30 8855 O 808.713 -1.77147 0.319196 0
M  V30 8856 H 805.088 -0.642949 0.390027 0
M  V30 8857 H 807.059 -2.00219 2.21258 0
M  V30 8858 C 805.808 -3.32245 1.02511 0
M  V30 8859 H 805.131 -3.53642 1.86487 0
M  V30 8860 H 806.571 -4.1192 1.00487 0
M  V30 8861 C 805.03 -3.35803 -0.27167 0
M  V30 8862 O 805.56 -3.80962 -1.274 0
M  V30 8863 N 803.766 -2.89008 -0.303778 0
M  V30 8864 H 803.313 -2.52451 0.512464 0
M  V30 8865 H 803.271 -2.9177 -1.17121 0
M  V30 8866 N 807.043 -1.17915 -1.04565 0
M  V30 8867 C 807.973 -0.925033 -2.14395 0
M  V30 8868 C 808.954 0.135375 -1.6956 0
M  V30 8869 O 810.139 -0.0161774 -1.94193 0
M  V30 8870 C 807.269 -0.444469 -3.44444 0
M  V30 8871 C 806.223 -1.44478 -4.02877 0
M  V30 8872 C 805.549 -0.821933 -5.28345 0
M  V30 8873 C 806.849 -2.81995 -4.39632 0
M  V30 8874 H 808.543 -1.84354 -2.35911 0
M  V30 8875 H 806.089 -0.887806 -1.13375 0
M  V30 8876 H 808.042 -0.254078 -4.20633 0
M  V30 8877 H 806.766 0.509592 -3.226 0
M  V30 8878 H 805.425 -1.62203 -3.28764 0
M  V30 8879 H 805.073 0.139161 -5.02807 0
M  V30 8880 H 804.773 -1.48976 -5.68401 0
M  V30 8881 H 806.297 -0.641959 -6.07216 0
M  V30 8882 H 807.711 -2.67952 -5.06828 0
M  V30 8883 H 806.108 -3.45414 -4.90723 0
M  V30 8884 H 807.178 -3.35927 -3.49687 0
M  V30 8885 N 808.521 1.23394 -0.980386 0
M  V30 8886 C 809.468 2.24859 -0.520298 0
M  V30 8887 C 810.438 1.60144 0.440821 0
M  V30 8888 O 811.623 1.87593 0.348369 0
M  V30 8889 C 808.763 3.44675 0.171145 0
M  V30 8890 C 807.876 4.23947 -0.830233 0
M  V30 8891 C 807.011 5.31079 -0.113597 0
M  V30 8892 C 806.05 6.02058 -1.10419 0
M  V30 8893 N 805.187 7.00862 -0.416709 0
M  V30 8894 H 810.027 2.63579 -1.39032 0
M  V30 8895 H 807.564 1.29556 -0.696682 0
M  V30 8896 H 809.522 4.13024 0.588838 0
M  V30 8897 H 808.152 3.06755 1.00504 0
M  V30 8898 H 807.204 3.55016 -1.36631 0
M  V30 8899 H 808.516 4.72945 -1.58508 0
M  V30 8900 H 807.67 6.05622 0.36146 0
M  V30 8901 H 806.409 4.83022 0.673854 0
M  V30 8902 H 805.414 5.26307 -1.59 0
M  V30 8903 H 806.639 6.52203 -1.8923 0
M  V30 8904 H 804.585 6.55057 0.351535 0
M  V30 8905 H 804.502 7.47804 -1.11021 0
M  V30 8906 H 805.77 7.79492 0.0359606 0
M  V30 8907 N 809.999 0.752036 1.385 0
M  V30 8908 C 811.246 0.307503 2.00152 0
M  V30 8909 C 811.574 -1.11033 1.59693 0
M  V30 8910 O 810.829 -1.77455 0.825125 0
M  V30 8911 C 811.128 0.376155 3.55415 0
M  V30 8912 C 810.794 1.74942 4.15579 0
M  V30 8913 C 809.456 2.12525 4.31725 0
M  V30 8914 C 811.808 2.65031 4.48785 0
M  V30 8915 C 809.136 3.39671 4.78373 0
M  V30 8916 C 811.488 3.91567 4.96848 0
M  V30 8917 C 810.152 4.2922 5.11201 0
M  V30 8918 H 809.422 0.112523 0.732407 0
M  V30 8919 H 812.069 0.962213 1.65571 0
M  V30 8920 H 810.374 -0.362121 3.90123 0
M  V30 8921 H 812.071 0.0138065 4.00998 0
M  V30 8922 H 808.661 1.44726 4.03426 0
M  V30 8923 H 812.845 2.3726 4.35914 0
M  V30 8924 H 808.101 3.68765 4.8767 0
M  V30 8925 H 812.275 4.61517 5.21512 0
M  V30 8926 H 809.902 5.27805 5.47107 0
M  V30 8927 N 811.477 -1.49425 0.500989 0
M  V30 8928 C 812.427 -2.26061 -0.296698 0
M  V30 8929 C 813.411 -1.30906 -0.935541 0
M  V30 8930 O 814.603 -1.55628 -0.843142 0
M  V30 8931 C 811.732 -3.15189 -1.36055 0
M  V30 8932 C 810.818 -4.17806 -0.727952 0
M  V30 8933 N 811.209 -5.05516 0.169408 0
M  V30 8934 C 809.507 -4.34907 -0.988535 0
M  V30 8935 C 810.208 -5.79267 0.531509 0
M  V30 8936 N 809.184 -5.43507 -0.100564 0
M  V30 8937 H 812.986 -2.91246 0.394103 0
M  V30 8938 H 810.5 -1.59275 0.317065 0
M  V30 8939 H 812.497 -3.68724 -1.94547 0
M  V30 8940 H 811.157 -2.51556 -2.05303 0
M  V30 8941 H 812.168 -5.15075 0.540218 0
M  V30 8942 H 808.845 -3.82481 -1.67376 0
M  V30 8943 H 810.235 -6.59872 1.26564 0
M  V30 8944 N 812.955 -0.234822 -1.55841 0
M  V30 8945 C 813.885 0.664217 -2.23854 0
M  V30 8946 C 814.866 1.19076 -1.2147 0
M  V30 8947 O 816.051 1.23232 -1.50091 0
M  V30 8948 C 813.181 1.86666 -2.9287 0
M  V30 8949 C 812.135 1.47341 -4.01839 0
M  V30 8950 C 811.461 2.75571 -4.58219 0
M  V30 8951 C 812.761 0.653479 -5.18196 0
M  V30 8952 H 814.455 0.0971213 -2.99242 0
M  V30 8953 H 812.001 0.0452724 -1.43929 0
M  V30 8954 H 813.954 2.50116 -3.39146 0
M  V30 8955 H 812.678 2.45894 -2.1495 0
M  V30 8956 H 811.337 0.862314 -3.56314 0
M  V30 8957 H 810.985 3.32971 -3.77014 0
M  V30 8958 H 810.685 2.49987 -5.31771 0
M  V30 8959 H 812.209 3.39939 -5.07221 0
M  V30 8960 H 813.623 1.19198 -5.60771 0
M  V30 8961 H 812.02 0.494188 -5.98062 0
M  V30 8962 H 813.09 -0.337004 -4.83728 0
M  V30 8963 N 814.433 1.57553 0.0384317 0
M  V30 8964 C 815.71 1.79977 0.766002 0
M  V30 8965 C 816.09 0.830625 1.94072 0
M  V30 8966 O 815.438 -0.129243 2.28134 0
M  V30 8967 C 815.648 3.27434 1.20781 0
M  V30 8968 C 816.996 3.92167 1.62758 0
M  V30 8969 O 818.02 3.31527 1.30263 0
M  V30 8970 O 816.879 4.98917 2.23035 0
M  V30 8971 H 813.973 0.739787 0.369654 0
M  V30 8972 H 816.519 1.69693 0.0159312 0
M  V30 8973 H 815.291 3.89558 0.368792 0
M  V30 8974 H 814.914 3.42571 2.01819 0
M  V30 8975 N 815.911 -0.310526 1.54511 0
M  V30 8976 C 816.858 -1.38264 1.84802 0
M  V30 8977 C 817.828 -1.50808 0.696141 0
M  V30 8978 O 819.013 -1.6582 0.943846 0
M  V30 8979 C 816.153 -2.74422 2.09252 0
M  V30 8980 C 815.266 -2.70405 3.36906 0
M  V30 8981 C 814.401 -3.98495 3.51248 0
M  V30 8982 C 813.44 -3.88836 4.72729 0
M  V30 8983 N 812.577 -5.08683 4.83928 0
M  V30 8984 H 817.417 -1.11732 2.76261 0
M  V30 8985 H 814.954 -0.540609 1.36806 0
M  V30 8986 H 816.912 -3.53593 2.21422 0
M  V30 8987 H 815.542 -2.99235 1.2107 0
M  V30 8988 H 814.594 -1.83151 3.33406 0
M  V30 8989 H 815.906 -2.59155 4.26193 0
M  V30 8990 H 815.06 -4.861 3.63031 0
M  V30 8991 H 813.799 -4.12567 2.60077 0
M  V30 8992 H 812.804 -2.99615 4.60989 0
M  V30 8993 H 814.029 -3.76318 5.65298 0
M  V30 8994 H 811.975 -5.23236 3.95677 0
M  V30 8995 H 811.892 -4.99819 5.67201 0
M  V30 8996 H 813.16 -5.97966 5.00057 0
M  V30 8997 N 817.389 -1.46805 -0.573248 0
M  V30 8998 C 818.636 -1.52604 -1.3311 0
M  V30 8999 C 818.964 -0.181633 -1.9365 0
M  V30 9000 O 818.219 0.823775 -1.77517 0
M  V30 9001 C 818.518 -2.58001 -2.47326 0
M  V30 9002 C 818.184 -4.01747 -2.04719 0
M  V30 9003 C 816.846 -4.40881 -1.92814 0
M  V30 9004 C 819.198 -4.92008 -1.71982 0
M  V30 9005 C 816.526 -5.68129 -1.46445 0
M  V30 9006 C 818.878 -6.19703 -1.27089 0
M  V30 9007 C 817.542 -6.57733 -1.13768 0
M  V30 9008 H 816.812 -0.558417 -0.487084 0
M  V30 9009 H 819.459 -1.80327 -0.644538 0
M  V30 9010 H 817.764 -2.23974 -3.2147 0
M  V30 9011 H 819.461 -2.59715 -3.05531 0
M  V30 9012 H 816.051 -3.70819 -2.14922 0
M  V30 9013 H 820.235 -4.62485 -1.8006 0
M  V30 9014 H 815.491 -5.96359 -1.34783 0
M  V30 9015 H 819.665 -6.89064 -1.00814 0
M  V30 9016 H 817.292 -7.56228 -0.776142 0
M  V30 9017 N 818.867 0.818669 -1.34668 0
M  V30 9018 C 820.115 1.57201 -1.27013 0
M  V30 9019 C 820.436 1.94354 0.158599 0
M  V30 9020 O 819.706 1.62626 1.09223 0
M  V30 9021 H 818.286 0.582919 -0.467135 0
M  V30 9022 H 820.948 0.977234 -1.6863 0
M  V30 9023 H 820.044 2.49291 -1.87778 0
M  V30 9024 N 820.346 1.18468 1.03938 0
M  V30 9025 C 821.595 0.975193 1.76558 0
M  V30 9026 C 821.908 -0.495978 1.89207 0
M  V30 9027 O 823.114 -0.824009 2.58694 0
M  V30 9028 C 821.57 1.69579 3.17444 0
M  V30 9029 C 821.178 3.20636 3.12884 0
M  V30 9030 C 822.922 1.56917 3.94433 0
M  V30 9031 C 820.829 3.8533 4.48636 0
M  V30 9032 H 819.759 0.361244 0.66183 0
M  V30 9033 H 822.41 1.41854 1.16403 0
M  V30 9034 H 820.792 1.18022 3.78004 0
M  V30 9035 H 821.966 3.79228 2.61768 0
M  V30 9036 H 820.281 3.33454 2.49394 0
M  V30 9037 H 822.878 2.02611 4.94826 0
M  V30 9038 H 823.221 0.521638 4.13019 0
M  V30 9039 H 823.754 2.05762 3.40451 0
M  V30 9040 H 820.493 4.90136 4.35255 0
M  V30 9041 H 820.013 3.31526 4.99851 0
M  V30 9042 H 821.692 3.88269 5.17549 0
M  V30 9043 N 821.824 -1.22873 0.986916 0
M  V30 9044 C 822.754 -2.2688 0.552064 0
M  V30 9045 C 823.735 -1.64883 -0.418048 0
M  V30 9046 O 824.92 -1.9171 -0.30999 0
M  V30 9047 C 822.05 -3.47018 -0.139959 0
M  V30 9048 C 821.004 -4.21411 0.748091 0
M  V30 9049 C 820.33 -5.34645 -0.0765132 0
M  V30 9050 C 821.63 -4.80726 2.04206 0
M  V30 9051 H 823.324 -2.63507 1.42143 0
M  V30 9052 H 820.87 -1.26668 0.68492 0
M  V30 9053 H 822.823 -4.18931 -0.455527 0
M  V30 9054 H 821.547 -3.0947 -1.04382 0
M  V30 9055 H 820.206 -3.51325 1.04721 0
M  V30 9056 H 819.854 -4.93339 -0.981109 0
M  V30 9057 H 819.554 -5.85342 0.514606 0
M  V30 9058 H 821.078 -6.09377 -0.386313 0
M  V30 9059 H 822.492 -5.44612 1.79083 0
M  V30 9060 H 820.889 -5.41737 2.5815 0
M  V30 9061 H 821.959 -4.01109 2.72469 0
M  V30 9062 N 823.302 -0.75937 -1.38099 0
M  V30 9063 C 824.527 -0.327859 -2.04792 0
M  V30 9064 C 824.952 1.03752 -1.56899 0
M  V30 9065 O 824.31 1.66235 -0.723581 0
M  V30 9066 C 824.358 -0.366264 -3.58735 0
M  V30 9067 O 823.462 0.637697 -4.0744 0
M  V30 9068 H 822.803 -0.144092 -0.648177 0
M  V30 9069 H 825.333 -1.03211 -1.7666 0
M  V30 9070 H 825.343 -0.219179 -4.07411 0
M  V30 9071 H 824.018 -1.36243 -3.92951 0
M  V30 9072 H 822.595 0.454749 -3.70117 0
M  V30 9073 N 824.78 1.49157 -0.508906 0
M  V30 9074 C 825.71 2.32109 0.254469 0
M  V30 9075 C 826.691 1.40754 0.955111 0
M  V30 9076 O 827.876 1.69658 0.944983 0
M  V30 9077 C 825.006 3.21458 1.3146 0
M  V30 9078 C 823.96 4.2167 0.733368 0
M  V30 9079 C 823.286 5.00009 1.8946 0
M  V30 9080 C 824.586 5.21544 -0.280875 0
M  V30 9081 H 826.28 2.9618 -0.43795 0
M  V30 9082 H 823.826 1.4243 -0.212062 0
M  V30 9083 H 825.779 3.78305 1.85643 0
M  V30 9084 H 824.503 2.55346 2.03632 0
M  V30 9085 H 823.162 3.65979 0.213231 0
M  V30 9086 H 822.81 4.30338 2.60419 0
M  V30 9087 H 822.51 5.67821 1.51173 0
M  V30 9088 H 824.034 5.59702 2.44061 0
M  V30 9089 H 825.448 5.73039 0.173095 0
M  V30 9090 H 823.845 5.97291 -0.580006 0
M  V30 9091 H 824.915 4.69969 -1.19404 0
M  V30 9092 N 826.258 0.243083 1.55714 0
M  V30 9093 C 827.535 -0.432851 1.90751 0
M  V30 9094 C 827.915 -1.76153 1.16333 0
M  V30 9095 O 827.263 -2.26783 0.279565 0
M  V30 9096 C 827.473 -0.604685 3.43722 0
M  V30 9097 C 828.821 -0.90231 4.14902 0
M  V30 9098 O 829.845 -0.690689 3.49439 0
M  V30 9099 O 828.704 -1.3051 5.30688 0
M  V30 9100 H 825.798 -0.231835 0.79384 0
M  V30 9101 H 828.344 0.286867 1.67258 0
M  V30 9102 H 827.116 0.331655 3.89892 0
M  V30 9103 H 826.739 -1.37509 3.73065 0
M  V30 9104 N 827.736 -1.57571 -0.0300757 0
M  V30 9105 C 828.683 -2.06492 -1.03101 0
M  V30 9106 C 829.653 -0.953862 -1.3598 0
M  V30 9107 O 830.838 -1.22436 -1.46335 0
M  V30 9108 C 827.978 -2.54826 -2.32718 0
M  V30 9109 C 827.091 -3.79718 -2.06006 0
M  V30 9110 C 826.226 -4.16668 -3.29487 0
M  V30 9111 C 825.265 -5.3448 -2.98324 0
M  V30 9112 N 824.402 -5.66867 -4.14254 0
M  V30 9113 H 829.242 -2.91755 -0.606877 0
M  V30 9114 H 826.779 -1.44252 -0.288038 0
M  V30 9115 H 828.737 -2.80916 -3.08451 0
M  V30 9116 H 827.367 -1.72481 -2.72856 0
M  V30 9117 H 826.419 -3.60718 -1.20774 0
M  V30 9118 H 827.731 -4.65569 -1.79017 0
M  V30 9119 H 826.885 -4.43881 -4.13588 0
M  V30 9120 H 825.624 -3.29466 -3.59588 0
M  V30 9121 H 824.629 -5.07021 -2.12625 0
M  V30 9122 H 825.854 -6.23334 -2.69502 0
M  V30 9123 H 823.8 -4.82625 -4.44308 0
M  V30 9124 H 823.717 -6.47226 -3.90685 0
M  V30 9125 H 824.985 -5.98656 -4.99231 0
M  V30 9126 N 829.214 0.302327 -1.54673 0
M  V30 9127 C 830.46 1.03924 -1.74149 0
M  V30 9128 C 830.793 1.86968 -0.525041 0
M  V30 9129 O 830.068 1.88538 0.477868 0
M  V30 9130 C 830.351 1.94633 -3.02969 0
M  V30 9131 C 830.204 1.14778 -4.34909 0
M  V30 9132 C 831.523 2.93826 -3.27649 0
M  V30 9133 H 828.642 0.376405 -0.633631 0
M  V30 9134 H 831.284 0.314007 -1.87387 0
M  V30 9135 H 829.434 2.56471 -2.91813 0
M  V30 9136 H 831.106 0.552363 -4.57981 0
M  V30 9137 H 829.349 0.450462 -4.31455 0
M  V30 9138 H 830.02 1.81495 -5.21309 0
M  V30 9139 H 832.496 2.42117 -3.38406 0
M  V30 9140 H 831.372 3.54462 -4.19104 0
M  V30 9141 H 831.633 3.67416 -2.45882 0
M  V30 9142 N 830.692 1.47107 0.565454 0
M  V30 9143 C 831.622 1.61846 1.68309 0
M  V30 9144 C 832.603 0.468159 1.63531 0
M  V30 9145 O 833.788 0.696504 1.8128 0
M  V30 9146 C 830.918 1.62474 3.06952 0
M  V30 9147 C 829.872 2.76649 3.26572 0
M  V30 9148 C 829.198 2.62345 4.65917 0
M  V30 9149 C 830.498 4.18319 3.12741 0
M  V30 9150 H 832.192 2.55407 1.5623 0
M  V30 9151 H 829.738 1.22916 0.750179 0
M  V30 9152 H 831.691 1.71378 3.84977 0
M  V30 9153 H 830.415 0.654692 3.19971 0
M  V30 9154 H 829.074 2.67242 2.50952 0
M  V30 9155 H 828.722 1.63386 4.75725 0
M  V30 9156 H 828.422 3.38936 4.79996 0
M  V30 9157 H 829.946 2.73165 5.46089 0
M  V30 9158 H 831.36 4.28745 3.80593 0
M  V30 9159 H 829.757 4.95632 3.38333 0
M  V30 9160 H 830.827 4.37263 2.09592 0
M  V30 9161 N 832.17 -0.811516 1.35101 0
M  V30 9162 C 833.416 -1.57068 1.28287 0
M  V30 9163 C 833.749 -1.93667 -0.143808 0
M  V30 9164 O 833.024 -1.60953 -1.09199 0
M  V30 9165 C 833.307 -2.86259 2.18466 0
M  V30 9166 C 833.16 -2.56168 3.69727 0
M  V30 9167 C 834.479 -3.87924 2.07852 0
M  V30 9168 H 831.598 -0.569869 0.467353 0
M  V30 9169 H 834.24 -0.934023 1.65457 0
M  V30 9170 H 832.39 -3.4059 1.86898 0
M  V30 9171 H 834.062 -2.08059 4.11715 0
M  V30 9172 H 832.305 -1.89436 3.90252 0
M  V30 9173 H 832.976 -3.48344 4.28206 0
M  V30 9174 H 835.452 -3.4298 2.35593 0
M  V30 9175 H 834.328 -4.76106 2.73157 0
M  V30 9176 H 834.589 -4.2923 1.05896 0
M  V30 9177 N 833.648 -1.19017 -1.03309 0
M  V30 9178 C 834.894 -0.991681 -1.769 0
M  V30 9179 C 835.227 0.476813 -1.88255 0
M  V30 9180 O 834.502 1.35407 -1.39625 0
M  V30 9181 C 834.785 -1.65627 -3.19749 0
M  V30 9182 C 834.638 -3.19813 -3.1629 0
M  V30 9183 C 835.957 -1.37579 -4.18043 0
M  V30 9184 H 833.076 -0.361674 -0.642153 0
M  V30 9185 H 835.718 -1.46795 -1.20628 0
M  V30 9186 H 833.868 -1.25132 -3.67796 0
M  V30 9187 H 835.54 -3.69494 -2.76174 0
M  V30 9188 H 833.783 -3.51578 -2.54117 0
M  V30 9189 H 834.454 -3.61457 -4.17196 0
M  V30 9190 H 836.93 -1.72679 -3.78578 0
M  V30 9191 H 835.806 -1.86636 -5.16196 0
M  V30 9192 H 836.067 -0.300118 -4.4108 0
M  V30 9193 N 835.127 1.22348 -0.993418 0
M  V30 9194 C 836.357 1.94842 -0.687023 0
M  V30 9195 C 836.765 1.73594 0.752445 0
M  V30 9196 O 836.108 1.03238 1.51946 0
M  V30 9197 C 836.17 3.47694 -0.913754 0
M  V30 9198 C 835.834 3.92678 -2.33781 0
M  V30 9199 C 836.831 4.0031 -3.31734 0
M  V30 9200 C 834.516 4.25311 -2.67237 0
M  V30 9201 C 836.51 4.39951 -4.61218 0
M  V30 9202 C 834.197 4.64631 -3.9694 0
M  V30 9203 C 835.195 4.71919 -4.93742 0
M  V30 9204 O 834.883 5.10349 -6.21127 0
M  V30 9205 H 834.615 0.626771 -0.253247 0
M  V30 9206 H 837.169 1.56436 -1.33105 0
M  V30 9207 H 835.399 3.86115 -0.212552 0
M  V30 9208 H 837.088 4.01403 -0.602528 0
M  V30 9209 H 837.854 3.75288 -3.07219 0
M  V30 9210 H 833.733 4.18842 -1.92594 0
M  V30 9211 H 837.277 4.45555 -5.36774 0
M  V30 9212 H 833.174 4.89104 -4.21245 0
M  V30 9213 H 833.942 5.2842 -6.25072 0
M  V30 9214 N 836.605 0.766683 1.37694 0
M  V30 9215 C 837.515 0.150158 2.34119 0
M  V30 9216 C 838.531 -0.685513 1.59927 0
M  V30 9217 O 839.707 -0.606616 1.92047 0
M  V30 9218 C 836.772 -0.722562 3.39087 0
M  V30 9219 C 835.833 0.128983 4.29106 0
M  V30 9220 C 835.066 -0.702178 5.29061 0
M  V30 9221 O 835.289 -1.93954 5.36412 0
M  V30 9222 O 834.223 -0.114056 6.01792 0
M  V30 9223 H 838.049 0.946829 2.88563 0
M  V30 9224 H 835.634 0.527765 1.39768 0
M  V30 9225 H 837.516 -1.22095 4.03325 0
M  V30 9226 H 836.191 -1.49751 2.86978 0
M  V30 9227 H 835.098 0.673612 3.67985 0
M  V30 9228 H 836.431 0.866892 4.84506 0
M  V30 9229 N 838.083 -1.48885 0.516809 0
M  V30 9230 C 838.993 -2.33185 -0.257293 0
M  V30 9231 C 840.009 -1.4565 -0.951952 0
M  V30 9232 O 841.185 -1.78651 -0.929834 0
M  V30 9233 C 838.25 -3.21465 -1.29851 0
M  V30 9234 C 837.311 -4.24863 -0.615608 0
M  V30 9235 C 836.544 -5.08925 -1.60722 0
M  V30 9236 O 836.767 -4.9475 -2.83863 0
M  V30 9237 O 835.701 -5.90737 -1.15384 0
M  V30 9238 H 839.527 -3.00596 0.433131 0
M  V30 9239 H 837.112 -1.46792 0.277908 0
M  V30 9240 H 838.994 -3.76108 -1.90055 0
M  V30 9241 H 837.669 -2.5673 -1.97158 0
M  V30 9242 H 836.576 -3.74091 0.0265829 0
M  V30 9243 H 837.909 -4.92198 0.0152871 0
M  V30 9244 N 839.561 -0.251338 -1.55583 0
M  V30 9245 C 840.493 0.679167 -2.18906 0
M  V30 9246 C 841.506 1.13545 -1.16667 0
M  V30 9247 O 842.695 1.06146 -1.4351 0
M  V30 9248 C 839.795 1.93544 -2.78198 0
M  V30 9249 C 838.968 1.62987 -4.05899 0
M  V30 9250 C 838.027 2.73618 -4.49466 0
M  V30 9251 O 837.053 2.40815 -5.15749 0
M  V30 9252 N 838.255 4.03204 -4.1762 0
M  V30 9253 H 841.02 0.137328 -2.99385 0
M  V30 9254 H 838.581 -0.0714754 -1.61742 0
M  V30 9255 H 840.573 2.66804 -3.04299 0
M  V30 9256 H 839.143 2.38695 -2.0185 0
M  V30 9257 H 838.363 0.732237 -3.8734 0
M  V30 9258 H 839.651 1.40041 -4.89148 0
M  V30 9259 H 839.049 4.32686 -3.64416 0
M  V30 9260 H 837.606 4.72916 -4.48547 0
M  V30 9261 N 841.039 1.57585 0.0217189 0
M  V30 9262 C 841.986 2.07036 1.02004 0
M  V30 9263 C 842.956 0.96106 1.35473 0
M  V30 9264 O 844.141 1.23211 1.45684 0
M  V30 9265 C 841.281 2.56056 2.31364 0
M  V30 9266 C 840.394 3.80805 2.03989 0
M  V30 9267 C 839.529 4.18409 3.27272 0
M  V30 9268 C 838.568 5.36055 2.95486 0
M  V30 9269 N 837.705 5.69056 4.11242 0
M  V30 9270 H 842.545 2.92073 0.591396 0
M  V30 9271 H 840.082 1.44403 0.280384 0
M  V30 9272 H 842.04 2.82548 3.06957 0
M  V30 9273 H 840.67 1.73925 2.71937 0
M  V30 9274 H 839.722 3.61354 1.1886 0
M  V30 9275 H 841.034 4.66512 1.76546 0
M  V30 9276 H 840.188 4.46068 4.11228 0
M  V30 9277 H 838.927 3.31369 3.57835 0
M  V30 9278 H 837.932 5.08142 2.09933 0
M  V30 9279 H 839.157 6.24755 2.66193 0
M  V30 9280 H 837.103 4.84974 4.41742 0
M  V30 9281 H 837.02 6.49288 3.87247 0
M  V30 9282 H 838.288 6.01295 4.96049 0
M  V30 9283 N 842.517 -0.29412 1.54831 0
M  V30 9284 C 843.794 -1.04847 1.65126 0
M  V30 9285 C 844.174 -2.04996 0.503986 0
M  V30 9286 O 843.522 -2.22996 -0.498496 0
M  V30 9287 C 843.732 -1.72418 3.03435 0
M  V30 9288 C 845.08 -2.24362 3.60481 0
M  V30 9289 O 846.104 -1.8244 3.05932 0
M  V30 9290 O 844.963 -3.01196 4.56008 0
M  V30 9291 H 842.057 -0.485032 0.669831 0
M  V30 9292 H 844.603 -0.291659 1.67175 0
M  V30 9293 H 843.375 -0.997351 3.78376 0
M  V30 9294 H 842.998 -2.54839 3.05193 0
M  V30 9295 N 843.995 -1.47404 -0.557645 0
M  V30 9296 C 845.243 -1.53703 -1.31224 0
M  V30 9297 C 845.564 -0.200742 -1.93964 0
M  V30 9298 O 844.834 0.775253 -1.79907 0
M  V30 9299 H 843.414 -0.566171 -0.487299 0
M  V30 9300 H 846.076 -1.83699 -0.651195 0
M  V30 9301 H 845.172 -2.30335 -2.10599 0
M  V30 9302 N 845.473 0.80434 -1.35529 0
M  V30 9303 C 846.436 1.89788 -1.28503 0
M  V30 9304 C 847.436 1.59601 -0.195983 0
M  V30 9305 O 848.626 1.68292 -0.449827 0
M  V30 9306 C 845.758 3.26255 -0.98847 0
M  V30 9307 H 846.951 1.97436 -2.25741 0
M  V30 9308 H 844.504 1.00046 -1.20086 0
M  V30 9309 H 845.239 3.24294 -0.0200541 0
M  V30 9310 H 845.024 3.49551 -1.77641 0
M  V30 9311 H 846.514 4.06298 -0.964975 0
M  V30 9312 N 846.951 1.19563 1.02676 0
M  V30 9313 C 848.199 0.997593 1.75763 0
M  V30 9314 C 848.52 -0.47253 1.89188 0
M  V30 9315 O 847.79 -1.34214 1.42701 0
M  V30 9316 H 846.37 0.366128 0.651122 0
M  V30 9317 H 849.032 1.50495 1.23844 0
M  V30 9318 H 848.128 1.44741 2.76508 0
M  V30 9319 N 848.429 -1.21819 0.999893 0
M  V30 9320 C 849.706 -1.86318 0.595384 0
M  V30 9321 C 850.086 -1.8965 -0.927143 0
M  V30 9322 O 849.434 -1.3921 -1.81199 0
M  V30 9323 C 849.644 -3.26837 1.22387 0
M  V30 9324 C 850.992 -4.03272 1.32878 0
M  V30 9325 O 852.016 -3.36129 1.1788 0
M  V30 9326 O 850.875 -5.23477 1.56952 0
M  V30 9327 H 847.969 -0.801638 0.203238 0
M  V30 9328 H 850.515 -1.29542 1.09622 0
M  V30 9329 H 849.287 -3.19084 2.26497 0
M  V30 9330 H 848.91 -3.91226 0.709069 0
M  V30 9331 N 849.908 -0.773975 -1.37286 0
M  V30 9332 C 851.136 -0.350758 -2.03905 0
M  V30 9333 C 851.551 1.02779 -1.58373 0
M  V30 9334 O 850.908 1.65646 -0.766009 0
M  V30 9335 C 850.959 -0.387335 -3.59419 0
M  V30 9336 O 850.68 -1.7115 -4.03286 0
M  V30 9337 C 852.181 0.047198 -4.43275 0
M  V30 9338 H 849.401 -0.146663 -0.654775 0
M  V30 9339 H 851.945 -1.04852 -1.75574 0
M  V30 9340 H 850.1 0.261865 -3.86514 0
M  V30 9341 H 850.514 -1.65166 -4.97816 0
M  V30 9342 H 851.988 -0.0295474 -5.51992 0
M  V30 9343 H 852.465 1.09786 -4.25257 0
M  V30 9344 H 853.071 -0.573899 -4.2141 0
M  V30 9345 N 851.386 1.48609 -0.524698 0
M  V30 9346 C 852.333 2.29539 0.240956 0
M  V30 9347 C 853.303 1.37033 0.938681 0
M  V30 9348 O 854.488 1.65996 0.940737 0
M  V30 9349 C 851.628 3.20278 1.28514 0
M  V30 9350 C 850.741 4.27858 0.596798 0
M  V30 9351 C 849.876 5.05784 1.62346 0
M  V30 9352 C 848.915 6.05173 0.918287 0
M  V30 9353 N 848.052 6.76176 1.89025 0
M  V30 9354 H 852.892 2.945 -0.455368 0
M  V30 9355 H 850.429 1.45188 -0.236403 0
M  V30 9356 H 852.387 3.71281 1.90279 0
M  V30 9357 H 851.017 2.57251 1.94992 0
M  V30 9358 H 850.069 3.80162 -0.134668 0
M  V30 9359 H 851.381 4.98782 0.0428506 0
M  V30 9360 H 850.535 5.60775 2.31553 0
M  V30 9361 H 849.274 4.34687 2.2113 0
M  V30 9362 H 848.279 5.49391 0.21212 0
M  V30 9363 H 849.504 6.78265 0.336633 0
M  V30 9364 H 847.45 6.07834 2.46726 0
M  V30 9365 H 847.367 7.43157 1.3876 0
M  V30 9366 H 848.635 7.35759 2.57446 0
M  V30 9367 N 852.864 0.259585 1.55447 0
M  V30 9368 C 854.141 -0.412595 1.91199 0
M  V30 9369 C 854.521 -1.74909 1.18194 0
M  V30 9370 O 853.869 -2.26474 0.303603 0
M  V30 9371 C 854.079 -0.568195 3.44344 0
M  V30 9372 C 855.427 -0.858253 4.15836 0
M  V30 9373 O 856.451 -0.653588 3.50152 0
M  V30 9374 O 855.31 -1.24874 5.32042 0
M  V30 9375 H 852.404 -0.223403 0.796254 0
M  V30 9376 H 854.95 0.30459 1.66944 0
M  V30 9377 H 853.722 0.372989 3.89518 0
M  V30 9378 H 853.345 -1.33544 3.74502 0
M  V30 9379 N 854.342 -1.57594 -0.0133615 0
M  V30 9380 C 855.29 -2.08682 -1.02736 0
M  V30 9381 C 856.284 -1.00391 -1.36448 0
M  V30 9382 O 857.49 -1.18868 -1.35168 0
M  V30 9383 H 853.865 -0.666158 -0.34891 0
M  V30 9384 H 855.836 -2.9289 -0.570815 0
M  V30 9385 C 854.585 -2.5945 -2.31476 0
M  V30 9386 H 853.908 -3.42401 -2.06401 0
M  V30 9387 H 855.348 -2.98888 -3.00735 0
M  V30 9388 C 853.807 -1.50266 -3.01533 0
M  V30 9389 O 854.337 -0.877875 -3.9199 0
M  V30 9390 N 852.543 -1.23336 -2.63129 0
M  V30 9391 H 852.09 -1.74327 -1.89652 0
M  V30 9392 H 852.048 -0.504987 -3.10318 0
M  V30 9393 N 855.82 0.285905 -1.54985 0
M  V30 9394 C 856.767 1.35306 -1.86978 0
M  V30 9395 C 857.737 1.49682 -0.720046 0
M  V30 9396 O 858.922 1.64297 -0.970107 0
M  V30 9397 C 856.062 2.71059 -2.13591 0
M  V30 9398 C 855.175 2.6501 -3.41165 0
M  V30 9399 C 854.31 3.92856 -3.57544 0
M  V30 9400 C 853.349 3.81266 -4.78855 0
M  V30 9401 N 852.486 5.00919 -4.9196 0
M  V30 9402 H 857.326 1.07323 -2.78003 0
M  V30 9403 H 854.863 0.518776 -1.37649 0
M  V30 9404 H 856.821 3.50026 -2.27019 0
M  V30 9405 H 855.451 2.97271 -1.25816 0
M  V30 9406 H 854.503 1.77824 -3.36278 0
M  V30 9407 H 855.815 2.52342 -4.30262 0
M  V30 9408 H 854.969 4.80263 -3.70718 0
M  V30 9409 H 853.708 4.08377 -2.66608 0
M  V30 9410 H 852.713 2.92243 -4.65698 0
M  V30 9411 H 853.938 3.67277 -5.71213 0
M  V30 9412 H 851.884 5.16875 -4.03951 0
M  V30 9413 H 851.801 4.90732 -5.75081 0
M  V30 9414 H 853.069 5.89935 -5.09507 0
M  V30 9415 N 857.298 1.47698 0.54982 0
M  V30 9416 C 858.245 1.60739 1.65625 0
M  V30 9417 C 859.215 0.450129 1.59884 0
M  V30 9418 O 860.4 0.671123 1.78607 0
M  V30 9419 C 857.54 1.63457 3.03934 0
M  V30 9420 C 856.653 2.90152 3.20056 0
M  V30 9421 C 855.788 2.84157 4.48807 0
M  V30 9422 C 854.827 4.05644 4.58387 0
M  V30 9423 N 853.964 3.97843 5.78503 0
M  V30 9424 H 858.804 2.55234 1.53817 0
M  V30 9425 H 856.341 1.26593 0.749173 0
M  V30 9426 H 858.299 1.63015 3.84034 0
M  V30 9427 H 856.929 0.724689 3.1456 0
M  V30 9428 H 855.981 3.00428 2.33339 0
M  V30 9429 H 857.293 3.80097 3.22998 0
M  V30 9430 H 856.447 2.82006 5.37175 0
M  V30 9431 H 855.186 1.91908 4.48356 0
M  V30 9432 H 854.191 4.08092 3.6843 0
M  V30 9433 H 855.416 4.9903 4.60593 0
M  V30 9434 H 853.362 3.08401 5.78986 0
M  V30 9435 H 853.279 4.81473 5.82855 0
M  V30 9436 H 854.547 3.99719 6.69212 0
M  V30 9437 N 858.776 -0.797141 1.35954 0
M  V30 9438 C 859.686 -1.94088 1.31784 0
M  V30 9439 C 860.702 -1.72588 0.221227 0
M  V30 9440 O 861.878 -1.96256 0.452255 0
M  V30 9441 C 858.943 -3.28828 1.09878 0
M  V30 9442 C 858.004 -3.63158 2.28942 0
M  V30 9443 C 857.237 -4.91469 2.08072 0
M  V30 9444 O 857.46 -5.60616 1.05196 0
M  V30 9445 O 856.394 -5.24277 2.95664 0
M  V30 9446 H 860.22 -2.00554 2.28061 0
M  V30 9447 H 857.805 -0.936288 1.16422 0
M  V30 9448 H 859.687 -4.09473 0.995485 0
M  V30 9449 H 858.362 -3.23271 0.16659 0
M  V30 9450 H 857.269 -2.82851 2.44839 0
M  V30 9451 H 858.602 -3.7343 3.20641 0
M  V30 9452 N 860.254 -1.20106 -1.0204 0
M  V30 9453 C 861.502 -1.0069 -1.75231 0
M  V30 9454 C 861.823 0.462491 -1.89436 0
M  V30 9455 O 861.093 1.33455 -1.4341 0
M  V30 9456 H 859.673 -0.369576 -0.649171 0
M  V30 9457 H 862.335 -1.51149 -1.23044 0
M  V30 9458 H 861.431 -1.46205 -2.75736 0
M  V30 9459 N 861.732 1.21287 -1.00634 0
M  V30 9460 C 863.009 1.86 -0.605257 0
M  V30 9461 C 863.389 1.90139 0.917072 0
M  V30 9462 O 862.737 1.40169 1.80458 0
M  V30 9463 C 862.947 3.26183 -1.24119 0
M  V30 9464 C 864.295 4.02562 -1.35015 0
M  V30 9465 O 865.319 3.35499 -1.19661 0
M  V30 9466 O 864.178 5.22638 -1.59726 0
M  V30 9467 H 861.272 0.800549 -0.207486 0
M  V30 9468 H 863.818 1.28959 -1.10307 0
M  V30 9469 H 862.59 3.17878 -2.28186 0
M  V30 9470 H 862.213 3.90845 -0.729807 0
M  V30 9471 N 863.21 0.781244 1.36873 0
M  V30 9472 C 864.12 0.174981 2.33947 0
M  V30 9473 C 865.136 -0.668512 1.60645 0
M  V30 9474 O 866.312 -0.586213 1.9268 0
M  V30 9475 C 863.377 -0.686557 3.39834 0
M  V30 9476 C 862.438 0.174489 4.28945 0
M  V30 9477 C 861.671 -0.646024 5.29776 0
M  V30 9478 O 861.894 -1.88254 5.38439 0
M  V30 9479 O 860.828 -0.0502214 6.01879 0
M  V30 9480 H 864.654 0.977382 2.87543 0
M  V30 9481 H 862.239 0.542559 1.392 0
M  V30 9482 H 864.121 -1.1781 4.04597 0
M  V30 9483 H 862.796 -1.46699 2.8855 0
M  V30 9484 H 861.703 0.712604 3.6725 0
M  V30 9485 H 863.036 0.918232 4.83559 0
M  V30 9486 N 864.689 -1.48329 0.532571 0
M  V30 9487 C 865.599 -2.33445 -0.232546 0
M  V30 9488 C 866.615 -1.46651 -0.93645 0
M  V30 9489 O 867.791 -1.79627 -0.910834 0
M  V30 9490 C 864.856 -3.22824 -1.26434 0
M  V30 9491 C 863.917 -4.25492 -0.570511 0
M  V30 9492 C 863.15 -5.10601 -1.55315 0
M  V30 9493 O 863.373 -4.97733 -2.78599 0
M  V30 9494 O 862.307 -5.91927 -1.09112 0
M  V30 9495 H 866.133 -3.00119 0.464988 0
M  V30 9496 H 863.718 -1.46489 0.293462 0
M  V30 9497 H 865.6 -3.78103 -1.86055 0
M  V30 9498 H 864.275 -2.58807 -1.94424 0
M  V30 9499 H 863.182 -3.74041 0.0662587 0
M  V30 9500 H 864.515 -4.92154 0.0674904 0
M  V30 9501 N 866.167 -0.267825 -1.55308 0
M  V30 9502 C 867.115 0.638848 -2.23655 0
M  V30 9503 C 868.109 1.16363 -1.2311 0
M  V30 9504 O 869.315 1.1181 -1.41062 0
M  V30 9505 H 865.69 0.224551 -0.717691 0
M  V30 9506 H 867.661 0.0394809 -2.98374 0
M  V30 9507 C 866.41 1.8151 -2.96562 0
M  V30 9508 H 865.733 1.42048 -3.73715 0
M  V30 9509 H 867.173 2.42629 -3.47717 0
M  V30 9510 C 865.632 2.69911 -2.01618 0
M  V30 9511 O 866.162 3.70058 -1.56268 0
M  V30 9512 N 864.368 2.36924 -1.68272 0
M  V30 9513 H 863.915 1.55533 -2.05347 0
M  V30 9514 H 863.873 2.96343 -1.05016 0
M  V30 9515 N 867.645 1.57599 0.00500368 0
M  V30 9516 C 868.593 2.09223 1.01628 0
M  V30 9517 C 869.587 1.01113 1.35913 0
M  V30 9518 O 870.793 1.19583 1.34536 0
M  V30 9519 H 867.168 0.667999 0.345372 0
M  V30 9520 H 869.139 2.93188 0.555274 0
M  V30 9521 C 867.888 2.60674 2.30097 0
M  V30 9522 H 867.211 3.43491 2.04582 0
M  V30 9523 H 868.651 3.00479 2.99146 0
M  V30 9524 C 867.11 1.51862 3.00731 0
M  V30 9525 O 867.64 0.898651 3.91519 0
M  V30 9526 N 865.846 1.24729 2.62471 0
M  V30 9527 H 865.393 1.7533 1.88725 0
M  V30 9528 H 865.351 0.521437 3.10046 0
M  V30 9529 N 869.123 -0.277682 1.55134 0
M  V30 9530 C 870.071 -1.36305 1.88478 0
M  V30 9531 C 871.065 -1.51362 0.760654 0
M  V30 9532 O 872.271 -1.53202 0.944943 0
M  V30 9533 H 868.646 -0.45577 0.598146 0
M  V30 9534 H 870.617 -1.05431 2.79154 0
M  V30 9535 C 869.366 -2.71739 2.16918 0
M  V30 9536 H 868.689 -2.60942 3.02901 0
M  V30 9537 H 870.129 -3.46635 2.44172 0
M  V30 9538 C 868.588 -3.22476 0.975239 0
M  V30 9539 O 869.118 -4.01164 0.207497 0
M  V30 9540 N 867.324 -2.80097 0.774219 0
M  V30 9541 H 866.871 -2.16221 1.40022 0
M  V30 9542 H 866.829 -3.14392 -0.023021 0
M  V30 9543 N 870.601 -1.47988 -0.541979 0
M  V30 9544 C 871.549 -1.62044 -1.66867 0
M  V30 9545 C 872.543 -0.487217 -1.62242 0
M  V30 9546 O 873.749 -0.66554 -1.67244 0
M  V30 9547 H 870.124 -0.51024 -0.552412 0
M  V30 9548 H 872.095 -2.56695 -1.52153 0
M  V30 9549 C 870.844 -1.66615 -3.0518 0
M  V30 9550 H 870.167 -2.5317 -3.09427 0
M  V30 9551 H 871.607 -1.80496 -3.83663 0
M  V30 9552 C 870.066 -0.402421 -3.34488 0
M  V30 9553 O 870.596 0.48992 -3.98701 0
M  V30 9554 N 868.802 -0.277778 -2.89269 0
M  V30 9555 H 868.349 -1.00488 -2.37192 0
M  V30 9556 H 868.307 0.566784 -3.09249 0
M  V30 9557 N 872.079 0.78992 -1.36375 0
M  V30 9558 C 873.027 1.92394 -1.30719 0
M  V30 9559 C 874.021 1.68226 -0.199076 0
M  V30 9560 O 875.227 1.76239 -0.366051 0
M  V30 9561 H 871.602 0.632382 -0.406936 0
M  V30 9562 H 873.573 1.94282 -2.26488 0
M  V30 9563 C 872.322 3.2941 -1.11284 0
M  V30 9564 H 871.645 3.48573 -1.95798 0
M  V30 9565 H 873.085 4.09111 -1.11373 0
M  V30 9566 C 871.544 3.36405 0.182543 0
M  V30 9567 O 872.074 3.84206 1.17255 0
M  V30 9568 N 870.28 2.89712 0.227046 0
M  V30 9569 H 869.827 2.51004 -0.579217 0
M  V30 9570 H 869.785 2.94773 1.09344 0
M  V30 9571 N 873.557 1.20646 1.01402 0
M  V30 9572 C 874.505 0.954493 2.12114 0
M  V30 9573 C 875.499 -0.0950737 1.69133 0
M  V30 9574 O 876.705 0.0555153 1.79914 0
M  V30 9575 H 873.08 0.29135 0.693267 0
M  V30 9576 H 875.051 1.89447 2.30548 0
M  V30 9577 C 873.8 0.525944 3.43699 0
M  V30 9578 H 873.123 1.32516 3.772 0
M  V30 9579 H 874.563 0.388883 4.22213 0
M  V30 9580 C 873.022 -0.761997 3.28169 0
M  V30 9581 O 873.552 -1.81979 3.58115 0
M  V30 9582 N 871.758 -0.725017 2.8141 0
M  V30 9583 H 871.305 0.13607 2.5724 0
M  V30 9584 H 871.263 -1.5871 2.71401 0
M  V30 9585 N 875.035 -1.20752 1.01276 0
M  V30 9586 C 875.983 -2.25432 0.572989 0
M  V30 9587 C 876.977 -1.64935 -0.386354 0
M  V30 9588 O 878.183 -1.7816 -0.256696 0
M  V30 9589 H 874.558 -0.733229 0.166972 0
M  V30 9590 H 876.529 -2.59856 1.46687 0
M  V30 9591 C 875.278 -3.47615 -0.0768249 0
M  V30 9592 H 874.601 -3.94442 0.652354 0
M  V30 9593 H 876.041 -4.22572 -0.3477 0
M  V30 9594 C 874.5 -3.1003 -1.31845 0
M  V30 9595 O 875.03 -3.21216 -2.41211 0
M  V30 9596 N 873.236 -2.64616 -1.20111 0
M  V30 9597 H 872.783 -2.55714 -0.311184 0
M  V30 9598 H 872.741 -2.39838 -2.03286 0
M  V30 9599 N 876.513 -0.788492 -1.36457 0
M  V30 9600 C 877.423 -0.187385 -2.3385 0
M  V30 9601 C 878.439 0.659984 -1.60998 0
M  V30 9602 O 879.615 0.575986 -1.92988 0
M  V30 9603 C 876.68 0.668525 -3.40194 0
M  V30 9604 C 875.741 -0.197234 -4.28847 0
M  V30 9605 C 874.974 0.61792 -5.30111 0
M  V30 9606 O 875.197 1.85396 -5.3943 0
M  V30 9607 O 874.131 0.0183016 -6.01897 0
M  V30 9608 H 877.957 -0.992617 -2.87021 0
M  V30 9609 H 875.542 -0.549934 -1.3891 0
M  V30 9610 H 877.424 1.15663 -4.05216 0
M  V30 9611 H 876.099 1.45166 -2.89324 0
M  V30 9612 H 875.006 -0.73207 -3.66867 0
M  V30 9613 H 876.339 -0.943863 -4.83065 0
M  V30 9614 N 877.991 1.48044 -0.54043 0
M  V30 9615 C 878.901 2.33565 0.220163 0
M  V30 9616 C 879.917 1.47146 0.928659 0
M  V30 9617 O 881.093 1.80107 0.901295 0
M  V30 9618 C 878.158 3.2349 1.2472 0
M  V30 9619 C 877.219 4.25789 0.547938 0
M  V30 9620 C 876.452 5.11417 1.52605 0
M  V30 9621 O 876.675 4.99204 2.75956 0
M  V30 9622 O 875.609 5.92498 1.05972 0
M  V30 9623 H 879.435 2.99868 -0.480898 0
M  V30 9624 H 877.02 1.46332 -0.301226 0
M  V30 9625 H 878.902 3.79084 1.84047 0
M  V30 9626 H 877.577 2.59835 1.93048 0
M  V30 9627 H 876.484 3.74001 -0.0860941 0
M  V30 9628 H 877.817 4.92111 -0.0935896 0
M  V30 9629 N 879.47 0.276058 1.55163 0
M  V30 9630 C 880.719 -0.341098 1.98795 0
M  V30 9631 C 881.032 -1.56905 1.16791 0
M  V30 9632 O 882.238 -2.25922 1.50571 0
M  V30 9633 C 880.694 -0.658231 3.5383 0
M  V30 9634 C 880.302 0.549972 4.44611 0
M  V30 9635 C 882.046 -1.23796 4.06048 0
M  V30 9636 C 879.953 0.207373 5.91036 0
M  V30 9637 H 878.883 -0.131224 0.742493 0
M  V30 9638 H 881.534 0.380858 1.79504 0
M  V30 9639 H 879.916 -1.43911 3.68925 0
M  V30 9640 H 881.09 1.32681 4.41285 0
M  V30 9641 H 879.405 1.04661 4.03032 0
M  V30 9642 H 882.002 -1.50811 5.12991 0
M  V30 9643 H 882.345 -2.17214 3.55139 0
M  V30 9644 H 882.878 -0.519345 3.94395 0
M  V30 9645 H 879.617 1.10946 6.46043 0
M  V30 9646 H 879.137 -0.532687 5.9743 0
M  V30 9647 H 880.816 -0.200072 6.46691 0
M  V30 9648 N 880.948 -1.576 0.00335426 0
M  V30 9649 C 881.896 -2.09759 -1.00517 0
M  V30 9650 C 882.89 -1.01833 -1.35375 0
M  V30 9651 O 884.096 -1.20294 -1.339 0
M  V30 9652 H 880.471 -0.669821 -0.341825 0
M  V30 9653 H 882.442 -2.93478 -0.539718 0
M  V30 9654 C 881.191 -2.6189 -2.28711 0
M  V30 9655 H 880.514 -3.44571 -2.02758 0
M  V30 9656 H 881.954 -3.02061 -2.97548 0
M  V30 9657 C 880.413 -1.53455 -2.99922 0
M  V30 9658 O 880.943 -0.919402 -3.91037 0
M  V30 9659 N 879.149 -1.2612 -2.61806 0
M  V30 9660 H 878.696 -1.76329 -1.87792 0
M  V30 9661 H 878.654 -0.537872 -3.09765 0
M  V30 9662 N 882.426 0.269451 -1.5528 0
M  V30 9663 C 883.373 1.33316 -1.88403 0
M  V30 9664 C 884.343 1.48909 -0.735881 0
M  V30 9665 O 885.528 1.63259 -0.987479 0
M  V30 9666 C 882.668 2.68778 -2.16454 0
M  V30 9667 C 881.781 2.61377 -3.43956 0
M  V30 9668 C 880.916 3.89042 -3.6169 0
M  V30 9669 C 879.955 3.76166 -4.82872 0
M  V30 9670 N 879.092 4.95673 -4.97245 0
M  V30 9671 H 883.932 1.04368 -2.79126 0
M  V30 9672 H 881.469 0.504147 -1.38191 0
M  V30 9673 H 883.427 3.47599 -2.30719 0
M  V30 9674 H 882.057 2.9592 -1.28961 0
M  V30 9675 H 881.109 1.74247 -3.38145 0
M  V30 9676 H 882.421 2.47764 -4.32914 0
M  V30 9677 H 881.575 4.76304 -3.75791 0
M  V30 9678 H 880.314 4.05526 -2.70924 0
M  V30 9679 H 879.319 2.87287 -4.68771 0
M  V30 9680 H 880.544 3.61198 -5.75077 0
M  V30 9681 H 878.49 5.12561 -4.09411 0
M  V30 9682 H 878.407 4.84605 -5.80254 0
M  V30 9683 H 879.675 5.84498 -5.15735 0
M  V30 9684 N 883.904 1.48273 0.534124 0
M  V30 9685 C 885.181 1.46567 1.29528 0
M  V30 9686 C 885.561 0.17509 2.10373 0
M  V30 9687 O 884.909 -0.843228 2.12372 0
M  V30 9688 C 885.119 2.72519 2.18023 0
M  V30 9689 C 886.467 3.2068 2.78298 0
M  V30 9690 O 887.491 2.73408 2.28313 0
M  V30 9691 O 886.35 4.02924 3.69208 0
M  V30 9692 H 883.444 0.585151 0.584403 0
M  V30 9693 H 885.99 1.60502 0.551119 0
M  V30 9694 H 884.762 3.57965 1.5804 0
M  V30 9695 H 884.385 2.61285 2.99693 0
M  V30 9696 N 885.382 -0.782676 1.36792 0
M  V30 9697 C 886.659 -1.52939 1.21939 0
M  V30 9698 C 887.039 -2.10228 -0.191639 0
M  V30 9699 O 886.387 -1.94574 -1.19805 0
M  V30 9700 C 886.597 -2.61898 2.30674 0
M  V30 9701 C 887.945 -3.29598 2.67676 0
M  V30 9702 O 888.969 -2.72186 2.29768 0
M  V30 9703 O 887.828 -4.3337 3.32946 0
M  V30 9704 H 884.922 -0.676856 0.47518 0
M  V30 9705 H 887.468 -0.82058 1.48542 0
M  V30 9706 H 886.24 -2.17607 3.25212 0
M  V30 9707 H 885.863 -3.40391 2.05475 0
M  V30 9708 N 886.86 -1.21182 -1.00761 0
M  V30 9709 C 888.137 -0.936297 -1.71735 0
M  V30 9710 C 888.517 0.552585 -2.03739 0
M  V30 9711 O 887.865 1.51672 -1.70903 0
M  V30 9712 C 888.075 -1.81867 -2.97868 0
M  V30 9713 C 889.423 -2.06594 -3.7095 0
M  V30 9714 O 890.447 -1.79194 -3.07844 0
M  V30 9715 O 889.306 -2.5292 -4.84452 0
M  V30 9716 H 886.4 -0.350867 -0.74888 0
M  V30 9717 H 888.946 -1.32098 -1.06527 0
M  V30 9718 H 887.718 -2.82643 -2.70607 0
M  V30 9719 H 887.341 -1.43463 -3.70815 0
M  V30 9720 N 888.338 1.20213 -1.01915 0
M  V30 9721 C 889.566 1.93622 -0.729255 0
M  V30 9722 C 889.981 1.74923 0.710444 0
M  V30 9723 O 889.338 1.06484 1.48214 0
M  V30 9724 C 889.389 3.45651 -1.05865 0
M  V30 9725 O 889.11 3.63741 -2.44181 0
M  V30 9726 C 890.611 4.36201 -0.790176 0
M  V30 9727 H 887.831 0.615333 -0.267594 0
M  V30 9728 H 890.375 1.52633 -1.36101 0
M  V30 9729 H 888.53 3.84511 -0.47225 0
M  V30 9730 H 888.944 4.57702 -2.56143 0
M  V30 9731 H 890.418 5.41516 -1.07071 0
M  V30 9732 H 890.895 4.38334 0.275609 0
M  V30 9733 H 891.501 4.03008 -1.35885 0
M  V30 9734 N 889.816 0.795718 1.36037 0
M  V30 9735 C 890.764 0.18649 2.31851 0
M  V30 9736 C 891.758 -0.657704 1.56111 0
M  V30 9737 O 892.964 -0.552083 1.71324 0
M  V30 9738 H 889.339 0.0415363 0.750852 0
M  V30 9739 H 891.31 1.00992 2.8079 0
M  V30 9740 C 890.059 -0.65918 3.41394 0
M  V30 9741 H 889.382 -0.01894 3.99796 0
M  V30 9742 H 890.822 -1.05202 4.10741 0
M  V30 9743 C 889.281 -1.82011 2.83502 0
M  V30 9744 O 889.811 -2.91703 2.76174 0
M  V30 9745 N 888.017 -1.62821 2.40703 0
M  V30 9746 H 887.564 -0.735965 2.46863 0
M  V30 9747 H 887.522 -2.40657 2.02316 0
M  V30 9748 N 891.294 -1.47756 0.548274 0
M  V30 9749 C 892.242 -2.3158 -0.217584 0
M  V30 9750 C 893.236 -1.42372 -0.917957 0
M  V30 9751 O 894.442 -1.59184 -0.840259 0
M  V30 9752 H 890.817 -0.74671 -0.0890388 0
M  V30 9753 H 892.788 -2.94032 0.508719 0
M  V30 9754 C 891.537 -3.24834 -1.24008 0
M  V30 9755 H 890.86 -3.93435 -0.710572 0
M  V30 9756 H 892.3 -3.86336 -1.74701 0
M  V30 9757 C 890.759 -2.47724 -2.2833 0
M  V30 9758 O 891.289 -2.21522 -3.35098 0
M  V30 9759 N 889.495 -2.08891 -2.02022 0
M  V30 9760 H 889.042 -2.30401 -1.1521 0
M  V30 9761 H 889 -1.57613 -2.7204 0
M  V30 9762 N 892.772 -0.284283 -1.55015 0
M  V30 9763 C 893.72 0.615091 -2.2432 0
M  V30 9764 C 894.714 1.15051 -1.24337 0
M  V30 9765 O 895.92 1.10308 -1.4224 0
M  V30 9766 H 892.295 0.216927 -0.720033 0
M  V30 9767 H 894.266 0.00783216 -2.98399 0
M  V30 9768 C 893.015 1.78355 -2.98471 0
M  V30 9769 H 892.338 1.38076 -3.752 0
M  V30 9770 H 893.778 2.38927 -3.50271 0
M  V30 9771 C 892.237 2.67757 -2.04469 0
M  V30 9772 O 892.767 3.6838 -1.60185 0
M  V30 9773 N 890.973 2.35125 -1.70776 0
M  V30 9774 H 890.52 1.53346 -2.06985 0
M  V30 9775 H 890.478 2.95212 -1.08153 0
M  V30 9776 N 894.251 1.57596 -0.0117121 0
M  V30 9777 C 895.198 2.09153 0.975897 0
M  V30 9778 C 896.168 0.989579 1.33404 0
M  V30 9779 O 897.353 1.26273 1.43038 0
M  V30 9780 C 894.493 2.60906 2.2588 0
M  V30 9781 C 893.606 3.85046 1.95866 0
M  V30 9782 C 892.741 4.25257 3.18323 0
M  V30 9783 C 891.78 5.42202 2.84049 0
M  V30 9784 N 890.917 5.77651 3.99079 0
M  V30 9785 H 895.757 2.93261 0.52931 0
M  V30 9786 H 893.294 1.44965 0.249691 0
M  V30 9787 H 895.252 2.88995 3.00895 0
M  V30 9788 H 893.882 1.79654 2.68187 0
M  V30 9789 H 892.934 3.63794 1.11168 0
M  V30 9790 H 894.246 4.70151 1.66611 0
M  V30 9791 H 893.4 4.5469 4.01674 0
M  V30 9792 H 892.139 3.38884 3.50726 0
M  V30 9793 H 891.144 5.1248 1.99107 0
M  V30 9794 H 892.369 6.3026 2.52881 0
M  V30 9795 H 890.315 4.94235 4.31356 0
M  V30 9796 H 890.232 6.57356 3.73388 0
M  V30 9797 H 891.5 6.11681 4.83183 0
M  V30 9798 N 895.729 -0.261212 1.5542 0
M  V30 9799 C 896.954 -1.01341 1.80955 0
M  V30 9800 C 897.379 -1.78711 0.586849 0
M  V30 9801 O 896.737 -1.75266 -0.463837 0
M  V30 9802 C 896.785 -1.93835 3.04073 0
M  V30 9803 O 895.889 -3.02791 2.79985 0
M  V30 9804 H 895.23 -0.289123 0.597749 0
M  V30 9805 H 897.76 -0.286543 2.02584 0
M  V30 9806 H 897.77 -2.3557 3.33123 0
M  V30 9807 H 896.445 -1.36936 3.9271 0
M  V30 9808 H 895.022 -2.65287 2.62063 0
M  V30 9809 N 897.207 -1.48554 -0.526253 0
M  V30 9810 C 898.484 -1.47252 -1.28748 0
M  V30 9811 C 898.864 -0.186245 -2.10277 0
M  V30 9812 O 898.212 0.831954 -2.12816 0
M  V30 9813 C 898.422 -2.73672 -2.16575 0
M  V30 9814 C 899.77 -3.22151 -2.76593 0
M  V30 9815 O 900.794 -2.74614 -2.2686 0
M  V30 9816 O 899.653 -4.04877 -3.67066 0
M  V30 9817 H 896.747 -0.588242 -0.581292 0
M  V30 9818 H 899.293 -1.60792 -0.5426 0
M  V30 9819 H 898.065 -3.58798 -1.56139 0
M  V30 9820 H 897.688 -2.6287 -2.98304 0
M  V30 9821 N 898.685 0.775411 -1.37205 0
M  V30 9822 C 899.962 1.5229 -1.22748 0
M  V30 9823 C 900.342 2.10327 0.180487 0
M  V30 9824 O 899.69 1.95206 1.18772 0
M  V30 9825 C 899.9 2.60671 -2.3206 0
M  V30 9826 C 901.248 3.28173 -2.6942 0
M  V30 9827 O 902.272 2.70963 -2.31208 0
M  V30 9828 O 901.131 4.31598 -3.3524 0
M  V30 9829 H 898.225 0.674326 -0.478762 0
M  V30 9830 H 900.771 0.812691 -1.48975 0
M  V30 9831 H 899.543 2.1588 -3.26361 0
M  V30 9832 H 899.166 3.39296 -2.07277 0
M  V30 9833 N 900.163 1.21714 1.00117 0
M  V30 9834 C 901.073 0.99597 2.12409 0
M  V30 9835 C 902.089 -0.0531431 1.73919 0
M  V30 9836 O 903.265 0.137757 2.00928 0
M  V30 9837 C 900.33 0.567593 3.42022 0
M  V30 9838 C 899.391 1.68936 3.94663 0
M  V30 9839 C 898.624 1.28133 5.1809 0
M  V30 9840 O 898.847 0.156574 5.70185 0
M  V30 9841 O 897.781 2.0947 5.64275 0
M  V30 9842 H 901.607 1.93657 2.33946 0
M  V30 9843 H 899.192 1.00236 1.10784 0
M  V30 9844 H 901.074 0.338664 4.20037 0
M  V30 9845 H 899.749 -0.34424 3.21864 0
M  V30 9846 H 898.656 1.97274 3.17858 0
M  V30 9847 H 899.989 2.57876 4.19238 0
M  V30 9848 N 901.641 -1.19671 1.02551 0
M  V30 9849 C 902.573 -2.22215 0.561517 0
M  V30 9850 C 903.586 -1.58751 -0.360821 0
M  V30 9851 O 904.775 -1.77802 -0.157749 0
M  V30 9852 C 901.875 -3.383 -0.201494 0
M  V30 9853 C 901.048 -4.3135 0.724952 0
M  V30 9854 C 900.107 -5.26199 0.00794334 0
M  V30 9855 O 899.133 -5.65665 0.633398 0
M  V30 9856 N 900.335 -5.66573 -1.26394 0
M  V30 9857 H 903.1 -2.6265 1.44343 0
M  V30 9858 H 900.661 -1.34303 0.904122 0
M  V30 9859 H 902.653 -3.98764 -0.690625 0
M  V30 9860 H 901.223 -2.96683 -0.98479 0
M  V30 9861 H 900.443 -3.6872 1.39423 0
M  V30 9862 H 901.731 -4.90433 1.35472 0
M  V30 9863 H 901.129 -5.36538 -1.79287 0
M  V30 9864 H 899.686 -6.29304 -1.69763 0
M  V30 9865 N 903.119 -0.802921 -1.35613 0
M  V30 9866 C 904.067 -0.198783 -2.31749 0
M  V30 9867 C 905.061 0.649416 -1.56458 0
M  V30 9868 O 906.267 0.542989 -1.71615 0
M  V30 9869 H 902.642 -0.0455177 -0.750621 0
M  V30 9870 H 904.613 -1.02479 -2.80251 0
M  V30 9871 C 903.362 0.641066 -3.41739 0
M  V30 9872 H 902.685 -0.00226244 -3.998 0
M  V30 9873 H 904.125 1.03022 -4.11294 0
M  V30 9874 C 902.584 1.80505 -2.84464 0
M  V30 9875 O 903.114 2.90235 -2.77717 0
M  V30 9876 N 901.32 1.61542 -2.41563 0
M  V30 9877 H 900.867 0.722863 -2.4725 0
M  V30 9878 H 900.825 2.39581 -2.03589 0
M  V30 9879 N 904.597 1.47463 -0.556102 0
M  V30 9880 C 905.544 2.29998 0.192213 0
M  V30 9881 C 906.514 1.38993 0.909403 0
M  V30 9882 O 907.699 1.67954 0.905316 0
M  V30 9883 C 904.839 3.22932 1.21692 0
M  V30 9884 C 903.952 4.29027 0.505908 0
M  V30 9885 C 903.087 5.09114 1.51581 0
M  V30 9886 C 902.126 6.06984 0.789714 0
M  V30 9887 N 901.263 6.80033 1.74639 0
M  V30 9888 H 906.103 2.93468 -0.517734 0
M  V30 9889 H 903.64 1.44654 -0.267147 0
M  V30 9890 H 905.598 3.75234 1.8236 0
M  V30 9891 H 904.228 2.61329 1.89491 0
M  V30 9892 H 903.28 3.7979 -0.215276 0
M  V30 9893 H 904.592 4.9876 -0.062958 0
M  V30 9894 H 903.746 5.6556 2.19606 0
M  V30 9895 H 902.485 4.3928 2.11859 0
M  V30 9896 H 901.49 5.49717 0.0955382 0
M  V30 9897 H 902.715 6.78827 0.192688 0
M  V30 9898 H 900.661 6.12931 2.33777 0
M  V30 9899 H 900.578 7.45933 1.22965 0
M  V30 9900 H 901.846 7.41054 2.41782 0
M  V30 9901 N 906.075 0.2925 1.54862 0
M  V30 9902 C 907.323 -0.318633 1.99572 0
M  V30 9903 C 907.644 -1.55062 1.1824 0
M  V30 9904 O 906.914 -1.93943 0.276226 0
M  V30 9905 H 905.494 -0.120722 0.737181 0
M  V30 9906 H 908.156 0.401862 1.90712 0
M  V30 9907 H 907.252 -0.596542 3.06346 0
M  V30 9908 N 907.553 -1.57587 0.0200696 0
M  V30 9909 C 908.83 -1.82696 -0.698677 0
M  V30 9910 C 909.21 -0.902082 -1.90855 0
M  V30 9911 O 908.558 0.0444834 -2.28457 0
M  V30 9912 C 908.768 -3.31691 -1.08546 0
M  V30 9913 C 910.116 -3.97938 -1.4809 0
M  V30 9914 O 911.14 -3.36133 -1.17869 0
M  V30 9915 O 909.999 -5.06851 -2.04364 0
M  V30 9916 H 907.093 -0.752997 -0.341942 0
M  V30 9917 H 909.639 -1.69635 0.04706 0
M  V30 9918 H 908.411 -3.90659 -0.223956 0
M  V30 9919 H 908.034 -3.49825 -1.88965 0
M  V30 9920 N 909.032 0.252966 -1.55557 0
M  V30 9921 C 909.942 1.33472 -1.92931 0
M  V30 9922 C 910.958 1.52983 -0.828985 0
M  V30 9923 O 912.134 1.66723 -1.12984 0
M  V30 9924 C 909.199 2.6704 -2.21112 0
M  V30 9925 C 908.26 2.56103 -3.44542 0
M  V30 9926 C 907.493 3.83302 -3.71369 0
M  V30 9927 O 907.716 4.84907 -3.00368 0
M  V30 9928 O 906.65 3.823 -4.64898 0
M  V30 9929 H 910.476 1.04768 -2.85057 0
M  V30 9930 H 908.061 0.453208 -1.4236 0
M  V30 9931 H 909.943 3.45981 -2.40572 0
M  V30 9932 H 908.618 2.95489 -1.32166 0
M  V30 9933 H 907.525 1.7547 -3.30396 0
M  V30 9934 H 908.858 2.32601 -4.33772 0
M  V30 9935 N 910.51 1.48831 0.518367 0
M  V30 9936 C 911.458 1.64678 1.64268 0
M  V30 9937 C 912.452 0.512967 1.61447 0
M  V30 9938 O 913.658 0.692063 1.66164 0
M  V30 9939 H 910.033 0.518964 0.544224 0
M  V30 9940 H 912.004 2.59083 1.4805 0
M  V30 9941 C 910.753 1.71449 3.0249 0
M  V30 9942 H 910.076 2.58061 3.0536 0
M  V30 9943 H 911.516 1.86577 3.80743 0
M  V30 9944 C 909.975 0.455584 3.33805 0
M  V30 9945 O 910.505 -0.426428 3.9943 0
M  V30 9946 N 908.711 0.323763 2.88791 0
M  V30 9947 H 908.258 1.04249 2.35563 0
M  V30 9948 H 908.216 -0.517514 3.10112 0
M  V30 9949 N 911.988 -0.768124 1.37614 0
M  V30 9950 C 912.935 -1.88151 1.33671 0
M  V30 9951 C 913.905 -1.64871 0.201645 0
M  V30 9952 O 915.09 -1.86739 0.391582 0
M  V30 9953 C 912.23 -3.25264 1.15314 0
M  V30 9954 C 911.343 -3.60473 2.38082 0
M  V30 9955 C 910.478 -4.86814 2.12569 0
M  V30 9956 C 909.517 -5.14765 3.31184 0
M  V30 9957 N 908.654 -6.32295 3.052 0
M  V30 9958 H 913.494 -1.90857 2.28862 0
M  V30 9959 H 911.031 -0.933048 1.13722 0
M  V30 9960 H 912.989 -4.04364 1.02691 0
M  V30 9961 H 911.619 -3.21924 0.237689 0
M  V30 9962 H 910.671 -2.7633 2.61431 0
M  V30 9963 H 911.983 -3.77065 3.26532 0
M  V30 9964 H 911.137 -5.73826 1.96999 0
M  V30 9965 H 909.876 -4.72333 1.21462 0
M  V30 9966 H 908.881 -4.26227 3.4729 0
M  V30 9967 H 910.106 -5.31153 4.23147 0
M  V30 9968 H 908.052 -6.19166 2.16726 0
M  V30 9969 H 907.969 -6.4932 3.87195 0
M  V30 9970 H 909.237 -7.22234 2.93254 0
M  V30 9971 N 913.466 -1.22244 -0.994698 0
M  V30 9972 C 914.691 -1.07299 -1.77487 0
M  V30 9973 C 915.116 0.372302 -1.84379 0
M  V30 9974 O 914.474 1.2689 -1.29494 0
M  V30 9975 C 914.522 -1.68675 -3.18718 0
M  V30 9976 O 913.626 -0.939202 -4.01563 0
M  V30 9977 H 912.967 -0.376979 -0.546611 0
M  V30 9978 H 915.497 -1.62003 -1.24965 0
M  V30 9979 H 915.507 -1.73324 -3.69354 0
M  V30 9980 H 914.182 -2.73849 -3.13017 0
M  V30 9981 H 912.759 -0.968583 -3.60101 0
M  V30 9982 N 914.944 1.19125 -1.03184 0
M  V30 9983 C 915.892 2.24492 -0.608781 0
M  V30 9984 C 916.886 1.65529 0.360065 0
M  V30 9985 O 918.092 1.78546 0.22832 0
M  V30 9986 H 914.467 0.73048 -0.178616 0
M  V30 9987 H 916.438 2.5749 -1.50803 0
M  V30 9988 C 915.187 3.47693 0.0215126 0
M  V30 9989 H 914.51 3.93354 -0.715024 0
M  V30 9990 H 915.95 4.23072 0.280429 0
M  V30 9991 C 914.409 3.12088 1.26896 0
M  V30 9992 O 914.939 3.25013 2.36071 0
M  V30 9993 N 913.145 2.66494 1.15886 0
M  V30 9994 H 912.692 2.56176 0.270463 0
M  V30 9995 H 912.65 2.43042 1.99444 0
M  V30 9996 N 916.422 0.810101 1.35185 0
M  V30 9997 C 917.699 0.315235 1.93043 0
M  V30 9998 C 918.079 -1.19567 1.73974 0
M  V30 9999 O 917.427 -1.99682 1.11083 0
M  V30 10000 C 917.637 0.730492 3.41269 0
M  V30 10001 C 918.985 0.721985 4.18417 0
M  V30 10002 O 920.009 0.672258 3.49799 0
M  V30 10003 O 918.868 0.783535 5.40854 0
M  V30 10004 H 915.962 0.0832774 0.822796 0
M  V30 10005 H 918.508 0.894034 1.4424 0
M  V30 10006 H 917.28 1.77169 3.48894 0
M  V30 10007 H 916.903 0.12669 3.97398 0
M  V30 10008 N 917.9 -1.47166 0.563914 0
M  V30 10009 C 918.81 -2.33885 -0.182977 0
M  V30 10010 C 919.826 -1.48605 -0.905132 0
M  V30 10011 O 921.002 -1.81518 -0.872527 0
M  V30 10012 C 918.067 -3.25433 -1.19558 0
M  V30 10013 C 917.128 -4.26607 -0.480129 0
M  V30 10014 C 916.361 -5.1378 -1.44449 0
M  V30 10015 O 916.584 -5.03531 -2.67979 0
M  V30 10016 O 915.518 -5.94109 -0.965321 0
M  V30 10017 H 919.344 -2.99065 0.528544 0
M  V30 10018 H 916.929 -1.45834 0.324468 0
M  V30 10019 H 918.811 -3.81964 -1.77993 0
M  V30 10020 H 917.486 -2.62873 -1.8889 0
M  V30 10021 H 916.393 -3.73817 0.145583 0
M  V30 10022 H 917.726 -4.919 0.171868 0
M  V30 10023 N 919.378 -0.300708 -1.54705 0
M  V30 10024 C 920.326 0.591264 -2.2496 0
M  V30 10025 C 921.32 1.13725 -1.2555 0
M  V30 10026 O 922.526 1.08793 -1.43402 0
M  V30 10027 H 918.901 0.209278 -0.722293 0
M  V30 10028 H 920.872 -0.0238175 -2.9839 0
M  V30 10029 C 919.621 1.75179 -3.00346 0
M  V30 10030 H 918.944 1.34089 -3.76643 0
M  V30 10031 H 920.384 2.35198 -3.52786 0
M  V30 10032 C 918.843 2.65574 -2.07298 0
M  V30 10033 O 919.373 3.6666 -1.64083 0
M  V30 10034 N 917.579 2.33301 -1.7326 0
M  V30 10035 H 917.126 1.51142 -2.08599 0
M  V30 10036 H 917.084 2.94049 -1.11278 0
M  V30 10037 N 920.856 1.57574 -0.0284266 0
M  V30 10038 C 921.803 2.10176 0.953658 0
M  V30 10039 C 922.773 1.00367 1.32347 0
M  V30 10040 O 923.958 1.27783 1.4169 0
M  V30 10041 C 921.098 2.63287 2.231 0
M  V30 10042 C 920.211 3.87102 1.91771 0
M  V30 10043 C 919.346 4.28609 3.13795 0
M  V30 10044 C 918.385 5.45184 2.78282 0
M  V30 10045 N 917.522 5.81851 3.92929 0
M  V30 10046 H 922.362 2.93806 0.498176 0
M  V30 10047 H 919.899 1.45222 0.234302 0
M  V30 10048 H 921.857 2.9217 2.97813 0
M  V30 10049 H 920.487 1.82489 2.66266 0
M  V30 10050 H 919.539 3.64952 1.07303 0
M  V30 10051 H 920.851 4.71892 1.61615 0
M  V30 10052 H 920.005 4.58925 3.96829 0
M  V30 10053 H 918.744 3.42585 3.47112 0
M  V30 10054 H 917.749 5.14563 1.93661 0
M  V30 10055 H 918.974 6.32907 2.46182 0
M  V30 10056 H 916.92 4.98782 4.2609 0
M  V30 10057 H 916.837 6.6128 3.66395 0
M  V30 10058 H 918.105 6.16772 4.76669 0
M  V30 10059 N 922.334 -0.244713 1.55689 0
M  V30 10060 C 923.244 -1.32447 1.93636 0
M  V30 10061 C 924.26 -1.52541 0.837086 0
M  V30 10062 O 925.436 -1.66121 1.13867 0
M  V30 10063 C 922.501 -2.65864 2.22525 0
M  V30 10064 C 921.562 -2.54273 3.45896 0
M  V30 10065 C 920.795 -3.81327 3.73397 0
M  V30 10066 O 921.018 -4.83307 3.02936 0
M  V30 10067 O 919.952 -3.79829 4.66919 0
M  V30 10068 H 923.778 -1.03255 2.85608 0
M  V30 10069 H 921.363 -0.445652 1.42598 0
M  V30 10070 H 923.245 -3.447 2.42404 0
M  V30 10071 H 921.92 -2.94784 1.33731 0
M  V30 10072 H 920.827 -1.73715 3.31321 0
M  V30 10073 H 922.16 -2.30297 4.34999 0
M  V30 10074 N 923.813 -1.49104 -0.510467 0
M  V30 10075 C 924.761 -1.65547 -1.63392 0
M  V30 10076 C 925.755 -0.521522 -1.61172 0
M  V30 10077 O 926.961 -0.700865 -1.65795 0
M  V30 10078 H 923.336 -0.521843 -0.541464 0
M  V30 10079 H 925.307 -2.59864 -1.46673 0
M  V30 10080 C 924.056 -1.73051 -3.01577 0
M  V30 10081 H 923.379 -2.59676 -3.03987 0
M  V30 10082 H 924.819 -1.88594 -3.79748 0
M  V30 10083 C 923.278 -0.47328 -3.33559 0
M  V30 10084 O 923.808 0.405239 -3.99651 0
M  V30 10085 N 922.014 -0.339074 -2.88615 0
M  V30 10086 H 921.561 -1.05497 -2.35007 0
M  V30 10087 H 921.519 0.501061 -3.10382 0
M  V30 10088 N 925.291 0.760815 -1.38019 0
M  V30 10089 C 926.201 1.90526 -1.36884 0
M  V30 10090 C 927.217 1.71941 -0.266908 0
M  V30 10091 O 928.393 1.94988 -0.50413 0
M  V30 10092 C 925.458 3.25799 -1.18558 0
M  V30 10093 C 924.519 3.56961 -2.3849 0
M  V30 10094 C 923.752 4.8578 -2.21029 0
M  V30 10095 O 923.975 5.57629 -1.20023 0
M  V30 10096 O 922.909 5.16254 -3.0946 0
M  V30 10097 H 926.735 1.94437 -2.33298 0
M  V30 10098 H 924.32 0.905091 -1.18863 0
M  V30 10099 H 926.202 4.0669 -1.1037 0
M  V30 10100 H 924.877 3.22716 -0.252241 0
M  V30 10101 H 923.784 2.7626 -2.52252 0
M  V30 10102 H 925.117 3.64798 -3.30429 0
M  V30 10103 N 926.769 1.22769 0.988202 0
M  V30 10104 C 927.679 1.01844 2.11341 0
M  V30 10105 C 928.695 -0.0346937 1.73965 0
M  V30 10106 O 929.871 0.159061 2.00771 0
M  V30 10107 C 926.936 0.603837 3.41401 0
M  V30 10108 C 925.997 1.73113 3.92849 0
M  V30 10109 C 925.23 1.33621 5.16702 0
M  V30 10110 O 925.453 0.217041 5.69987 0
M  V30 10111 O 924.387 2.15444 5.62021 0
M  V30 10112 H 928.213 1.96127 2.31879 0
M  V30 10113 H 925.798 1.01405 1.09715 0
M  V30 10114 H 927.68 0.383196 4.19654 0
M  V30 10115 H 926.355 -0.310082 3.22211 0
M  V30 10116 H 925.262 2.00634 3.15748 0
M  V30 10117 H 926.595 2.62308 4.1648 0
M  V30 10118 N 928.247 -1.18576 1.03814 0
M  V30 10119 C 929.195 -2.24166 0.620678 0
M  V30 10120 C 930.189 -1.65718 -0.351282 0
M  V30 10121 O 931.395 -1.78665 -0.218848 0
M  V30 10122 H 927.77 -0.729522 0.182487 0
M  V30 10123 H 929.741 -2.56686 1.52166 0
M  V30 10124 C 928.49 -3.477 -0.00307331 0
M  V30 10125 H 927.813 -3.92969 0.735874 0
M  V30 10126 H 929.253 -4.23214 -0.257988 0
M  V30 10127 C 927.712 -3.12757 -1.2524 0
M  V30 10128 O 928.242 -3.26261 -2.34344 0
M  V30 10129 N 926.448 -2.67104 -1.14471 0
M  V30 10130 H 925.995 -2.56316 -0.256873 0
M  V30 10131 H 925.953 -2.44096 -1.98153 0
M  V30 10132 N 929.725 -0.817259 -1.34754 0
M  V30 10133 C 930.672 -0.233108 -2.2962 0
M  V30 10134 C 931.642 0.638902 -1.53321 0
M  V30 10135 O 932.827 0.581739 -1.81715 0
M  V30 10136 C 929.967 0.603659 -3.39779 0
M  V30 10137 C 929.08 -0.289967 -4.31026 0
M  V30 10138 C 928.215 0.555825 -5.28284 0
M  V30 10139 C 927.254 -0.337539 -6.11169 0
M  V30 10140 N 926.391 0.468847 -7.00533 0
M  V30 10141 H 931.231 -1.04747 -2.78984 0
M  V30 10142 H 928.768 -0.528056 -1.37295 0
M  V30 10143 H 930.726 1.10407 -4.02326 0
M  V30 10144 H 929.356 1.38319 -2.91664 0
M  V30 10145 H 928.408 -0.908552 -3.69391 0
M  V30 10146 H 929.72 -0.977136 -4.89135 0
M  V30 10147 H 928.874 1.12094 -5.96255 0
M  V30 10148 H 927.613 1.27652 -4.70698 0
M  V30 10149 H 926.618 -0.914839 -5.42135 0
M  V30 10150 H 927.843 -1.05626 -6.70835 0
M  V30 10151 H 925.789 1.17332 -6.45422 0
M  V30 10152 H 925.706 -0.160052 -7.55831 0
M  V30 10153 H 926.974 1.01689 -7.72839 0
M  V30 10154 N 931.203 1.46865 -0.571711 0
M  V30 10155 C 932.135 2.28277 0.205479 0
M  V30 10156 C 933.148 1.37866 0.865835 0
M  V30 10157 O 934.337 1.62564 0.737247 0
M  V30 10158 C 931.437 3.12572 1.30965 0
M  V30 10159 C 930.61 4.31038 0.743328 0
M  V30 10160 C 929.669 4.96815 1.73382 0
M  V30 10161 O 928.695 5.54755 1.2742 0
M  V30 10162 N 929.897 4.92825 3.06764 0
M  V30 10163 H 932.662 2.95618 -0.49294 0
M  V30 10164 H 930.223 1.56655 -0.408744 0
M  V30 10165 H 932.215 3.53442 1.97131 0
M  V30 10166 H 930.785 2.47378 1.91109 0
M  V30 10167 H 930.005 3.94084 -0.0955004 0
M  V30 10168 H 931.293 5.07632 0.344556 0
M  V30 10169 H 930.691 4.46978 3.46738 0
M  V30 10170 H 929.248 5.3767 3.68449 0
M  V30 10171 N 932.681 0.308908 1.54543 0
M  V30 10172 C 933.629 -0.579326 2.2527 0
M  V30 10173 C 934.623 -1.13058 1.26152 0
M  V30 10174 O 935.829 -1.08031 1.43977 0
M  V30 10175 H 932.204 -0.205444 0.723392 0
M  V30 10176 H 934.175 0.0396415 2.98374 0
M  V30 10177 C 932.924 -1.73584 3.01271 0
M  V30 10178 H 932.247 -1.32089 3.77349 0
M  V30 10179 H 933.687 -2.33324 3.54028 0
M  V30 10180 C 932.146 -2.6447 2.08703 0
M  V30 10181 O 932.676 -3.65785 1.66025 0
M  V30 10182 N 930.882 -2.32379 1.74495 0
M  V30 10183 H 930.429 -1.50034 2.09398 0
M  V30 10184 H 930.387 -2.93454 1.12836 0
M  V30 10185 N 934.159 -1.57557 0.0367827 0
M  V30 10186 C 935.407 -1.91735 -0.63892 0
M  V30 10187 C 935.728 -0.914515 -1.72226 0
M  V30 10188 O 934.998 0.0428248 -1.95853 0
M  V30 10189 H 933.578 -0.707738 -0.23899 0
M  V30 10190 H 936.24 -1.94708 0.0863931 0
M  V30 10191 H 935.336 -2.92568 -1.08676 0
M  V30 10192 N 935.637 0.236453 -1.55816 0
M  V30 10193 C 936.547 1.31418 -1.94336 0
M  V30 10194 C 937.563 1.52095 -0.845164 0
M  V30 10195 O 938.739 1.65515 -1.14746 0
M  V30 10196 C 935.804 2.6468 -2.23932 0
M  V30 10197 C 934.865 2.52435 -3.47239 0
M  V30 10198 C 934.098 3.79342 -3.75414 0
M  V30 10199 O 934.321 4.81694 -3.05495 0
M  V30 10200 O 933.255 3.77347 -4.68927 0
M  V30 10201 H 937.081 1.01739 -2.86152 0
M  V30 10202 H 934.666 0.438084 -1.42833 0
M  V30 10203 H 936.548 3.4341 -2.44228 0
M  V30 10204 H 935.223 2.94071 -1.35292 0
M  V30 10205 H 934.13 1.71955 -3.32238 0
M  V30 10206 H 935.463 2.27987 -4.36214 0
M  V30 10207 N 937.115 1.49373 0.502552 0
M  V30 10208 C 938.062 1.65927 1.60427 0
M  V30 10209 C 939.032 0.500768 1.58371 0
M  V30 10210 O 940.217 0.727606 1.76382 0
M  V30 10211 C 937.357 1.73043 2.9858 0
M  V30 10212 C 936.47 3.00187 3.10663 0
M  V30 10213 C 935.605 2.98292 4.3954 0
M  V30 10214 C 934.644 4.20022 4.4525 0
M  V30 10215 N 933.781 4.16046 5.65553 0
M  V30 10216 H 938.621 2.59998 1.45619 0
M  V30 10217 H 936.158 1.28912 0.708519 0
M  V30 10218 H 938.116 1.7515 3.78653 0
M  V30 10219 H 936.746 0.824397 3.12095 0
M  V30 10220 H 935.798 3.07699 2.23663 0
M  V30 10221 H 937.11 3.9018 3.10742 0
M  V30 10222 H 936.264 2.98953 5.27932 0
M  V30 10223 H 935.003 2.06075 4.42023 0
M  V30 10224 H 934.008 4.19607 3.5526 0
M  V30 10225 H 935.233 5.13431 4.44484 0
M  V30 10226 H 933.179 3.26665 5.68881 0
M  V30 10227 H 933.096 4.99773 5.67242 0
M  V30 10228 H 934.364 4.20807 6.56156 0
M  V30 10229 N 938.594 -0.753485 1.38421 0
M  V30 10230 C 939.541 -1.86723 1.35659 0
M  V30 10231 C 940.511 -1.64648 0.219121 0
M  V30 10232 O 941.696 -1.86313 0.411366 0
M  V30 10233 C 938.836 -3.24023 1.18758 0
M  V30 10234 C 937.949 -3.57928 2.41892 0
M  V30 10235 C 937.084 -4.84532 2.17721 0
M  V30 10236 C 936.123 -5.11224 3.36626 0
M  V30 10237 N 935.26 -6.29023 3.11889 0
M  V30 10238 H 940.1 -1.88419 2.30873 0
M  V30 10239 H 937.637 -0.920934 1.14705 0
M  V30 10240 H 939.595 -4.03252 1.06974 0
M  V30 10241 H 938.225 -3.21654 0.27182 0
M  V30 10242 H 937.277 -2.73541 2.64347 0
M  V30 10243 H 938.589 -3.73581 3.30513 0
M  V30 10244 H 937.743 -5.71704 2.03074 0
M  V30 10245 H 936.482 -4.71018 1.26465 0
M  V30 10246 H 935.487 -4.2252 3.51791 0
M  V30 10247 H 936.712 -5.26635 4.28757 0
M  V30 10248 H 934.658 -6.16832 2.2328 0
M  V30 10249 H 934.575 -6.45177 3.9406 0
M  V30 10250 H 935.843 -7.19083 3.00898 0
M  V30 10251 N 940.072 -1.23292 -0.981677 0
M  V30 10252 C 941.019 -1.01296 -2.07383 0
M  V30 10253 C 941.989 0.069139 -1.65956 0
M  V30 10254 O 943.174 -0.0827108 -1.90621 0
M  V30 10255 C 940.314 -0.608876 -3.39686 0
M  V30 10256 C 939.427 -1.76296 -3.9439 0
M  V30 10257 C 938.562 -1.30578 -5.14901 0
M  V30 10258 C 937.601 -2.4307 -5.61768 0
M  V30 10259 N 936.738 -1.98319 -6.73509 0
M  V30 10260 H 941.578 -1.9478 -2.25532 0
M  V30 10261 H 939.115 -0.970356 -1.10555 0
M  V30 10262 H 941.073 -0.355702 -4.15681 0
M  V30 10263 H 939.703 0.288961 -3.21504 0
M  V30 10264 H 938.755 -2.13017 -3.15163 0
M  V30 10265 H 940.067 -2.60871 -4.25145 0
M  V30 10266 H 939.221 -1.01066 -5.98223 0
M  V30 10267 H 937.96 -0.430386 -4.85797 0
M  V30 10268 H 936.965 -2.73358 -4.77028 0
M  V30 10269 H 938.19 -3.31144 -5.92892 0
M  V30 10270 H 936.136 -1.13157 -6.46167 0
M  V30 10271 H 936.053 -2.76454 -7.0364 0
M  V30 10272 H 937.321 -1.71907 -7.60308 0
M  V30 10273 N 941.55 1.18024 -1.04442 0
M  V30 10274 C 942.498 2.23834 -0.632557 0
M  V30 10275 C 943.492 1.65902 0.342488 0
M  V30 10276 O 944.698 1.78778 0.20937 0
M  V30 10277 H 941.073 0.728544 -0.186353 0
M  V30 10278 H 943.044 2.55876 -1.53526 0
M  V30 10279 C 941.793 3.47697 -0.0153661 0
M  V30 10280 H 941.116 3.92574 -0.756704 0
M  V30 10281 H 942.556 4.23345 0.235541 0
M  V30 10282 C 941.015 3.13416 1.23579 0
M  V30 10283 O 941.545 3.27499 2.3261 0
M  V30 10284 N 939.751 2.67708 1.13053 0
M  V30 10285 H 939.298 2.56449 0.243277 0
M  V30 10286 H 939.256 2.45143 1.96855 0
M  V30 10287 N 943.028 0.824394 1.34319 0
M  V30 10288 C 944.305 0.335692 1.92698 0
M  V30 10289 C 944.685 -1.17715 1.75232 0
M  V30 10290 O 944.033 -1.98493 1.13194 0
M  V30 10291 C 944.243 0.766647 3.40475 0
M  V30 10292 C 945.591 0.766323 4.17627 0
M  V30 10293 O 946.615 0.709321 3.49066 0
M  V30 10294 O 945.474 0.840856 5.39992 0
M  V30 10295 H 942.568 0.0919996 0.821867 0
M  V30 10296 H 945.114 0.909282 1.43283 0
M  V30 10297 H 943.886 1.80859 3.46995 0
M  V30 10298 H 943.509 0.168833 3.97241 0
M  V30 10299 N 944.506 -1.46559 0.579492 0
M  V30 10300 C 945.755 -2.01606 0.0615735 0
M  V30 10301 C 946.068 -1.45695 -1.30508 0
M  V30 10302 O 947.274 -1.92541 -1.91416 0
M  V30 10303 C 945.73 -3.59851 0.059496 0
M  V30 10304 C 945.338 -4.24757 1.42427 0
M  V30 10305 C 947.082 -4.22567 -0.404646 0
M  V30 10306 C 944.989 -5.75072 1.38009 0
M  V30 10307 H 943.919 -0.753754 0.0192491 0
M  V30 10308 H 946.57 -1.68326 0.73066 0
M  V30 10309 H 944.952 -3.90193 -0.675691 0
M  V30 10310 H 946.126 -4.06029 2.17893 0
M  V30 10311 H 944.441 -3.74121 1.82817 0
M  V30 10312 H 947.038 -5.32748 -0.456441 0
M  V30 10313 H 947.381 -3.91279 -1.42149 0
M  V30 10314 H 947.914 -3.96839 0.276376 0
M  V30 10315 H 944.653 -6.11014 2.37364 0
M  V30 10316 H 944.173 -5.96073 0.667583 0
M  V30 10317 H 945.852 -6.37724 1.09163 0
M  V30 10318 N 945.984 -0.3171 -1.54377 0
M  V30 10319 C 947.233 0.288271 -1.99629 0
M  V30 10320 C 947.546 1.53754 -1.2091 0
M  V30 10321 O 948.752 2.2185 -1.56508 0
M  V30 10322 C 947.208 0.564188 -3.5545 0
M  V30 10323 C 946.816 -0.667659 -4.42997 0
M  V30 10324 C 948.56 1.12987 -4.09187 0
M  V30 10325 C 946.467 -0.364003 -5.90279 0
M  V30 10326 H 945.397 0.111492 -0.745711 0
M  V30 10327 H 948.048 -0.428317 -1.78431 0
M  V30 10328 H 946.43 1.34079 -3.72611 0
M  V30 10329 H 947.604 -1.44335 -4.37612 0
M  V30 10330 H 945.919 -1.1531 -4.00116 0
M  V30 10331 H 948.516 1.37157 -5.1681 0
M  V30 10332 H 948.859 2.07722 -3.60773 0
M  V30 10333 H 949.392 0.414595 -3.95634 0
M  V30 10334 H 946.131 -1.28035 -6.42874 0
M  V30 10335 H 945.651 0.374102 -5.98632 0
M  V30 10336 H 947.33 0.0285433 -6.46994 0
M  V30 10337 N 947.462 1.57535 -0.0451378 0
M  V30 10338 C 948.409 2.11176 0.931313 0
M  V30 10339 C 949.379 1.01765 1.31275 0
M  V30 10340 O 950.564 1.29279 1.40327 0
M  V30 10341 C 947.704 2.65639 2.20295 0
M  V30 10342 C 946.817 3.89114 1.87654 0
M  V30 10343 C 945.952 4.31914 3.09232 0
M  V30 10344 C 944.991 5.48105 2.72484 0
M  V30 10345 N 944.128 5.85986 3.86736 0
M  V30 10346 H 948.968 2.94318 0.466986 0
M  V30 10347 H 946.505 1.45462 0.218886 0
M  V30 10348 H 948.463 2.95312 2.94697 0
M  V30 10349 H 947.093 1.85303 2.64316 0
M  V30 10350 H 946.145 3.6607 1.03427 0
M  V30 10351 H 947.457 4.7358 1.56601 0
M  V30 10352 H 946.611 4.63108 3.91939 0
M  V30 10353 H 945.35 3.46247 3.43459 0
M  V30 10354 H 944.355 5.16589 1.88192 0
M  V30 10355 H 945.58 6.35482 2.39455 0
M  V30 10356 H 943.526 5.03273 4.20775 0
M  V30 10357 H 943.443 6.65129 3.5936 0
M  V30 10358 H 944.711 6.21793 4.701 0
M  V30 10359 N 948.94 -0.228186 1.55939 0
M  V30 10360 C 949.89 -1.28607 1.88267 0
M  V30 10361 C 950.874 -1.42606 0.745139 0
M  V30 10362 O 952.066 -1.45533 1.00743 0
M  V30 10363 C 949.195 -2.63783 2.19712 0
M  V30 10364 C 948.281 -2.53712 3.3984 0
M  V30 10365 N 948.672 -2.13287 4.58631 0
M  V30 10366 C 946.97 -2.84686 3.43322 0
M  V30 10367 C 947.671 -2.14305 5.40785 0
M  V30 10368 N 946.647 -2.54536 4.80325 0
M  V30 10369 H 950.449 -0.964307 2.7763 0
M  V30 10370 H 947.963 -0.436769 1.56416 0
M  V30 10371 H 949.96 -3.40152 2.41044 0
M  V30 10372 H 948.62 -2.9681 1.31657 0
M  V30 10373 H 949.631 -1.84525 4.83912 0
M  V30 10374 H 946.308 -3.22129 2.65592 0
M  V30 10375 H 947.698 -1.85231 6.45863 0
M  V30 10376 N 950.418 -1.49637 -0.494624 0
M  V30 10377 C 951.366 -1.6727 -1.61627 0
M  V30 10378 C 952.36 -0.538587 -1.6061 0
M  V30 10379 O 953.566 -0.718411 -1.65042 0
M  V30 10380 H 949.941 -0.527557 -0.535899 0
M  V30 10381 H 951.912 -2.61405 -1.43909 0
M  V30 10382 C 950.661 -1.7624 -2.99725 0
M  V30 10383 H 949.984 -2.62886 -3.01216 0
M  V30 10384 H 951.424 -1.92611 -3.77726 0
M  V30 10385 C 949.883 -0.508632 -3.33038 0
M  V30 10386 O 950.413 0.362828 -4.00058 0
M  V30 10387 N 948.619 -0.369667 -2.88239 0
M  V30 10388 H 948.166 -1.07984 -2.33875 0
M  V30 10389 H 948.124 0.468112 -3.10896 0
M  V30 10390 N 951.896 0.746133 -1.38819 0
M  V30 10391 C 953.145 1.50085 -1.34749 0
M  V30 10392 C 953.458 1.95516 0.0574786 0
M  V30 10393 O 954.664 2.70601 0.22073 0
M  V30 10394 C 953.12 2.71141 -2.36665 0
M  V30 10395 C 952.728 2.32706 -3.82821 0
M  V30 10396 C 954.472 3.49005 -2.41652 0
M  V30 10397 C 952.379 3.50418 -4.76405 0
M  V30 10398 H 951.309 0.563563 -0.500912 0
M  V30 10399 H 953.96 0.814951 -1.6441 0
M  V30 10400 H 952.342 3.4175 -2.00058 0
M  V30 10401 H 953.516 1.69715 -4.28408 0
M  V30 10402 H 951.831 1.67959 -3.81023 0
M  V30 10403 H 954.428 4.36541 -3.08766 0
M  V30 10404 H 954.771 3.90687 -1.43769 0
M  V30 10405 H 955.304 2.85416 -2.77097 0
M  V30 10406 H 952.043 3.13795 -5.75511 0
M  V30 10407 H 951.563 4.12426 -4.35505 0
M  V30 10408 H 953.242 4.16901 -4.94775 0
M  V30 10409 N 953.375 1.23811 0.975125 0
M  V30 10410 C 954.786 1.0675 1.53171 0
M  V30 10411 C 955.137 -0.363475 1.92804 0
M  V30 10412 O 954.262 -1.25089 1.76583 0
M  V30 10413 C 954.857 1.93161 2.78342 0
M  V30 10414 C 953.416 1.80346 3.30382 0
M  V30 10415 C 952.563 1.88544 2.03338 0
M  V30 10416 H 955.514 1.37396 0.79423 0
M  V30 10417 H 955.535 1.45951 3.51395 0
M  V30 10418 H 955.047 2.97302 2.49465 0
M  V30 10419 H 953.148 0.790077 3.64127 0
M  V30 10420 H 953.261 2.64026 3.99784 0
M  V30 10421 H 951.625 1.32186 2.17713 0
M  V30 10422 H 952.408 2.94252 1.76836 0
M  V30 10423 N 954.853 -1.17469 1.05066 0
M  V30 10424 C 956.102 -1.87032 0.755114 0
M  V30 10425 C 956.415 -1.81844 -0.720572 0
M  V30 10426 O 957.621 -2.46866 -1.13002 0
M  V30 10427 C 956.077 -3.35581 1.30052 0
M  V30 10428 C 955.685 -3.49274 2.80556 0
M  V30 10429 C 957.429 -4.1048 1.08196 0
M  V30 10430 C 955.336 -4.91838 3.28404 0
M  V30 10431 H 954.266 -0.70057 0.278779 0
M  V30 10432 H 956.917 -1.32663 1.26779 0
M  V30 10433 H 955.299 -3.89479 0.715667 0
M  V30 10434 H 956.473 -3.05598 3.44886 0
M  V30 10435 H 954.788 -2.87793 3.00939 0
M  V30 10436 H 957.385 -5.15652 1.41447 0
M  V30 10437 H 957.728 -4.16295 0.0196603 0
M  V30 10438 H 958.261 -3.62784 1.63195 0
M  V30 10439 H 955 -4.91196 4.34058 0
M  V30 10440 H 954.52 -5.36189 2.68815 0
M  V30 10441 H 956.199 -5.60602 3.23009 0
M  V30 10442 N 956.331 -0.831506 -1.3388 0
M  V30 10443 C 957.241 -0.261688 -2.33136 0
M  V30 10444 C 958.257 0.608429 -1.63016 0
M  V30 10445 O 959.433 0.514297 -1.94723 0
M  V30 10446 C 956.498 0.559957 -3.42148 0
M  V30 10447 C 955.559 -0.333569 -4.28002 0
M  V30 10448 C 954.792 0.448956 -5.31808 0
M  V30 10449 O 955.015 1.6814 -5.45055 0
M  V30 10450 O 953.949 -0.173197 -6.01651 0
M  V30 10451 H 957.775 -1.08343 -2.83717 0
M  V30 10452 H 955.36 -0.593849 -1.3709 0
M  V30 10453 H 957.242 1.02712 -4.08691 0
M  V30 10454 H 955.917 1.35888 -2.93796 0
M  V30 10455 H 954.824 -0.848416 -3.64352 0
M  V30 10456 H 956.157 -1.09707 -4.79818 0
M  V30 10457 N 957.809 1.4625 -0.587256 0
M  V30 10458 C 959.056 2.02363 -0.0745746 0
M  V30 10459 C 959.384 1.4582 1.28712 0
M  V30 10460 O 958.639 0.614922 1.85788 0
M  V30 10461 C 958.938 3.57382 0.036328 0
M  V30 10462 C 958.604 4.32985 -1.25837 0
M  V30 10463 C 957.266 4.53358 -1.61306 0
M  V30 10464 C 959.618 4.76361 -2.11494 0
M  V30 10465 C 956.946 5.14361 -2.82223 0
M  V30 10466 C 959.298 5.38699 -3.31641 0
M  V30 10467 C 957.962 5.57299 -3.67388 0
M  V30 10468 H 957.232 0.740497 -0.0272888 0
M  V30 10469 H 959.879 1.75565 -0.764804 0
M  V30 10470 H 958.184 3.83342 0.809712 0
M  V30 10471 H 959.881 3.9848 0.448838 0
M  V30 10472 H 956.471 4.17427 -0.972251 0
M  V30 10473 H 960.655 4.60372 -1.85394 0
M  V30 10474 H 955.911 5.26952 -3.10051 0
M  V30 10475 H 960.085 5.71267 -3.9828 0
M  V30 10476 H 957.712 6.04338 -4.61173 0
M  V30 10477 N 959.287 0.325282 1.54207 0
M  V30 10478 C 960.219 -0.57395 2.21897 0
M  V30 10479 C 961.232 -1.0785 1.21952 0
M  V30 10480 O 962.421 -0.991782 1.48411 0
M  V30 10481 C 959.521 -1.8005 2.87115 0
M  V30 10482 C 958.694 -1.43435 4.13213 0
M  V30 10483 C 957.753 -2.51862 4.62009 0
M  V30 10484 O 956.779 -2.15934 5.26651 0
M  V30 10485 N 957.981 -3.8282 4.36382 0
M  V30 10486 H 960.746 0.00566918 2.99699 0
M  V30 10487 H 958.307 0.148563 1.61217 0
M  V30 10488 H 960.299 -2.51981 3.16682 0
M  V30 10489 H 958.869 -2.28792 2.13009 0
M  V30 10490 H 958.089 -0.546598 3.90392 0
M  V30 10491 H 959.377 -1.16544 4.95273 0
M  V30 10492 H 958.775 -4.14807 3.84645 0
M  V30 10493 H 957.332 -4.50976 4.70599 0
M  V30 10494 N 960.765 -1.57509 0.0534917 0
M  V30 10495 C 961.993 -1.97098 -0.629298 0
M  V30 10496 C 962.408 -0.931128 -1.64242 0
M  V30 10497 O 961.765 0.0843866 -1.82305 0
M  V30 10498 C 961.816 -3.36767 -1.31415 0
M  V30 10499 O 961.537 -4.36766 -0.341599 0
M  V30 10500 C 963.038 -3.91127 -2.08649 0
M  V30 10501 H 960.258 -0.648611 -0.171886 0
M  V30 10502 H 962.802 -2.04145 0.120479 0
M  V30 10503 H 960.957 -3.30863 -2.01515 0
M  V30 10504 H 961.371 -5.1788 -0.830715 0
M  V30 10505 H 962.845 -4.91129 -2.51985 0
M  V30 10506 H 963.322 -3.26679 -2.9356 0
M  V30 10507 H 963.928 -4.00376 -1.43456 0
M  V30 10508 N 962.243 0.219913 -1.56058 0
M  V30 10509 C 963.659 0.569685 -1.49086 0
M  V30 10510 C 963.859 1.87066 -0.748903 0
M  V30 10511 O 962.915 2.50838 -0.289235 0
M  V30 10512 C 964.228 0.647397 -2.93648 0
M  V30 10513 C 965.776 0.737914 -3.04177 0
M  V30 10514 C 966.251 0.846957 -4.50101 0
M  V30 10515 N 967.742 0.911136 -4.5415 0
M  V30 10516 C 968.477 1.01525 -5.64341 0
M  V30 10517 N 967.973 1.0832 -6.8428 0
M  V30 10518 N 969.766 1.05051 -5.52196 0
M  V30 10519 H 961.917 -0.633778 -2.02724 0
M  V30 10520 H 964.18 -0.222583 -0.921499 0
M  V30 10521 H 963.886 -0.238987 -3.50887 0
M  V30 10522 H 963.76 1.51046 -3.45637 0
M  V30 10523 H 966.147 1.61474 -2.47002 0
M  V30 10524 H 966.228 -0.150845 -2.55355 0
M  V30 10525 H 965.872 -0.0254166 -5.07894 0
M  V30 10526 H 965.802 1.75116 -4.96631 0
M  V30 10527 H 968.293 0.868869 -3.67776 0
M  V30 10528 H 968.606 1.16247 -7.64007 0
M  V30 10529 H 966.951 1.05231 -6.86987 0
M  V30 10530 H 970.142 0.994086 -4.57423 0
M  V30 10531 H 970.315 1.12819 -6.38103 0
M  V30 10532 N 963.721 1.49897 0.486681 0
M  V30 10533 C 964.669 1.68125 1.60738 0
M  V30 10534 C 965.663 0.547097 1.60322 0
M  V30 10535 O 966.869 0.727153 1.64659 0
M  V30 10536 H 963.244 0.530391 0.533094 0
M  V30 10537 H 965.215 2.62165 1.42521 0
M  V30 10538 C 963.964 1.77827 2.98786 0
M  V30 10539 H 963.287 2.6448 2.99818 0
M  V30 10540 H 964.727 1.94611 3.76699 0
M  V30 10541 C 963.186 0.526287 3.32764 0
M  V30 10542 O 963.716 -0.341607 4.00245 0
M  V30 10543 N 961.922 0.384947 2.88039 0
M  V30 10544 H 961.469 1.09222 2.33299 0
M  V30 10545 H 961.427 -0.451618 3.11139 0
M  V30 10546 N 965.199 -0.738761 1.39212 0
M  V30 10547 C 966.448 -1.49368 1.35543 0
M  V30 10548 C 966.761 -1.95543 -0.0471091 0
M  V30 10549 O 967.967 -2.70714 -0.206376 0
M  V30 10550 C 966.423 -2.69882 2.381 0
M  V30 10551 C 966.031 -2.30672 3.8405 0
M  V30 10552 C 967.775 -3.47718 2.435 0
M  V30 10553 C 965.682 -3.47886 4.78256 0
M  V30 10554 H 964.612 -0.560898 0.503894 0
M  V30 10555 H 967.263 -0.806221 1.6484 0
M  V30 10556 H 965.645 -3.40684 2.01867 0
M  V30 10557 H 966.819 -1.67441 4.29302 0
M  V30 10558 H 965.134 -1.65936 3.81909 0
M  V30 10559 H 967.731 -4.34897 3.11077 0
M  V30 10560 H 968.074 -3.89919 1.45838 0
M  V30 10561 H 968.607 -2.83942 2.78606 0
M  V30 10562 H 965.346 -3.10739 5.77167 0
M  V30 10563 H 964.866 -4.10111 4.37686 0
M  V30 10564 H 966.545 -4.14271 4.96979 0
M  V30 10565 N 966.677 -1.24326 -0.968545 0
M  V30 10566 C 967.624 -1.0349 -2.06297 0
M  V30 10567 C 968.594 0.0515333 -1.6602 0
M  V30 10568 O 969.779 -0.102924 -1.90522 0
M  V30 10569 C 966.919 -0.64487 -3.39021 0
M  V30 10570 C 966.032 -1.80469 -3.92498 0
M  V30 10571 C 965.167 -1.36032 -5.13487 0
M  V30 10572 C 964.206 -2.49014 -5.59159 0
M  V30 10573 N 963.343 -2.05451 -6.71367 0
M  V30 10574 H 968.183 -1.97161 -2.23454 0
M  V30 10575 H 965.72 -0.982028 -1.0952 0
M  V30 10576 H 967.678 -0.399771 -4.1528 0
M  V30 10577 H 966.308 0.254845 -3.21792 0
M  V30 10578 H 965.36 -2.16348 -3.12886 0
M  V30 10579 H 966.672 -2.65365 -4.22354 0
M  V30 10580 H 965.826 -1.07405 -5.97117 0
M  V30 10581 H 964.565 -0.481887 -4.85313 0
M  V30 10582 H 963.57 -2.78402 -4.74102 0
M  V30 10583 H 964.795 -3.37413 -5.89346 0
M  V30 10584 H 962.741 -1.20004 -6.4493 0
M  V30 10585 H 962.658 -2.83901 -7.00668 0
M  V30 10586 H 963.926 -1.79962 -7.58442 0
M  V30 10587 N 968.156 1.1691 -1.05688 0
M  V30 10588 C 969.567 1.68915 -0.795273 0
M  V30 10589 C 969.918 1.83968 0.681925 0
M  V30 10590 O 969.043 1.53083 1.52953 0
M  V30 10591 C 969.638 3.06814 -1.43703 0
M  V30 10592 C 968.197 3.55965 -1.22335 0
M  V30 10593 C 967.344 2.32099 -1.51741 0
M  V30 10594 H 970.295 1.01357 -1.22116 0
M  V30 10595 H 970.316 3.70907 -0.849016 0
M  V30 10596 H 969.828 2.95826 -2.51214 0
M  V30 10597 H 967.929 3.72222 -0.16771 0
M  V30 10598 H 968.042 4.38427 -1.9318 0
M  V30 10599 H 966.406 2.36811 -0.937696 0
M  V30 10600 H 967.189 2.23715 -2.60397 0
M  V30 10601 N 969.634 0.838594 1.33437 0
M  V30 10602 C 970.564 0.286672 2.31734 0
M  V30 10603 C 971.545 -0.605451 1.5896 0
M  V30 10604 O 972.73 -0.529059 1.86854 0
M  V30 10605 C 969.86 -0.539311 3.43087 0
M  V30 10606 C 968.814 0.256997 4.27228 0
M  V30 10607 C 968.14 -0.692718 5.30194 0
M  V30 10608 C 969.44 1.47391 5.01072 0
M  V30 10609 H 971.134 1.10798 2.78144 0
M  V30 10610 H 968.68 0.534235 1.33723 0
M  V30 10611 H 970.633 -0.935724 4.1088 0
M  V30 10612 H 969.357 -1.39383 2.95364 0
M  V30 10613 H 968.016 0.634967 3.61059 0
M  V30 10614 H 967.664 -1.54363 4.78729 0
M  V30 10615 H 967.364 -0.164023 5.87371 0
M  V30 10616 H 968.888 -1.08665 6.00853 0
M  V30 10617 H 970.302 1.15067 5.61634 0
M  V30 10618 H 968.699 1.93937 5.67898 0
M  V30 10619 H 969.769 2.24382 4.29861 0
M  V30 10620 N 971.112 -1.45937 0.595003 0
M  V30 10621 C 972.523 -1.85908 0.171779 0
M  V30 10622 C 972.874 -1.497 -1.26824 0
M  V30 10623 O 971.999 -0.917688 -1.95978 0
M  V30 10624 C 972.594 -3.37425 0.304976 0
M  V30 10625 C 971.153 -3.76346 -0.0634635 0
M  V30 10626 C 970.3 -2.69926 0.635255 0
M  V30 10627 H 973.251 -1.36916 0.802471 0
M  V30 10628 H 973.272 -3.77632 -0.466313 0
M  V30 10629 H 972.784 -3.63747 1.35314 0
M  V30 10630 H 970.885 -3.55642 -1.11129 0
M  V30 10631 H 970.998 -4.78021 0.321419 0
M  V30 10632 H 969.362 -2.54592 0.0742054 0
M  V30 10633 H 970.145 -2.99086 1.68531 0
M  V30 10634 N 972.59 -0.333456 -1.54032 0
M  V30 10635 C 973.52 0.52051 -2.27625 0
M  V30 10636 C 974.501 1.1111 -1.28797 0
M  V30 10637 O 975.686 1.13438 -1.57625 0
M  V30 10638 C 972.816 1.67663 -3.04149 0
M  V30 10639 C 971.77 1.21487 -4.10396 0
M  V30 10640 C 971.096 2.45872 -4.74817 0
M  V30 10641 C 972.396 0.322603 -5.21303 0
M  V30 10642 H 974.09 -0.0933823 -2.99254 0
M  V30 10643 H 971.636 -0.0463526 -1.43925 0
M  V30 10644 H 973.589 2.28041 -3.54366 0
M  V30 10645 H 972.313 2.31727 -2.30153 0
M  V30 10646 H 970.972 0.633966 -3.61077 0
M  V30 10647 H 970.62 3.0832 -3.97426 0
M  V30 10648 H 970.32 2.15662 -5.46593 0
M  V30 10649 H 971.844 3.06994 -5.27814 0
M  V30 10650 H 973.258 0.832942 -5.67217 0
M  V30 10651 H 971.655 0.112843 -5.99994 0
M  V30 10652 H 972.725 -0.643954 -4.80605 0
M  V30 10653 N 974.068 1.57479 -0.061844 0
M  V30 10654 C 975.296 1.97429 0.618837 0
M  V30 10655 C 975.711 0.939826 1.63746 0
M  V30 10656 O 975.068 -0.0747173 1.82347 0
M  V30 10657 C 975.119 3.3746 1.29628 0
M  V30 10658 O 974.84 4.36941 0.318431 0
M  V30 10659 C 976.341 3.92228 2.06572 0
M  V30 10660 H 973.561 0.649513 0.168444 0
M  V30 10661 H 976.105 2.04078 -0.131303 0
M  V30 10662 H 974.26 3.31928 1.99757 0
M  V30 10663 H 974.674 5.18313 0.803239 0
M  V30 10664 H 976.148 4.92458 2.49377 0
M  V30 10665 H 976.625 3.28231 2.91824 0
M  V30 10666 H 977.231 4.01131 1.4133 0
M  V30 10667 N 975.546 -0.211634 1.56173 0
M  V30 10668 C 976.793 -0.93455 1.79645 0
M  V30 10669 C 977.121 -1.83936 0.632294 0
M  V30 10670 O 976.376 -1.91919 -0.382841 0
M  V30 10671 C 976.675 -1.79657 3.08963 0
M  V30 10672 C 976.341 -1.04415 4.38644 0
M  V30 10673 C 975.003 -0.836351 4.73876 0
M  V30 10674 C 977.355 -0.51355 5.18664 0
M  V30 10675 C 974.683 -0.0861976 5.86637 0
M  V30 10676 C 977.035 0.223309 6.32206 0
M  V30 10677 C 975.699 0.442279 6.66033 0
M  V30 10678 H 974.969 -0.341976 0.657368 0
M  V30 10679 H 977.616 -0.202024 1.90431 0
M  V30 10680 H 975.921 -2.59726 2.93342 0
M  V30 10681 H 977.618 -2.35823 3.24328 0
M  V30 10682 H 974.208 -1.21611 4.10985 0
M  V30 10683 H 978.392 -0.661541 4.91871 0
M  V30 10684 H 973.648 0.0935866 6.11328 0
M  V30 10685 H 977.822 0.641917 6.93435 0
M  V30 10686 H 975.449 1.02547 7.53252 0
M  V30 10687 N 977.024 -1.50153 -0.478725 0
M  V30 10688 C 977.934 -1.71232 -1.60364 0
M  V30 10689 C 978.95 -0.595269 -1.63501 0
M  V30 10690 O 980.126 -0.872683 -1.81511 0
M  V30 10691 C 977.191 -1.79487 -2.96623 0
M  V30 10692 C 976.252 -3.03185 -3.03937 0
M  V30 10693 C 975.485 -3.11036 -4.33696 0
M  V30 10694 O 975.708 -2.2588 -5.23769 0
M  V30 10695 O 974.642 -4.03698 -4.46443 0
M  V30 10696 H 978.468 -2.66575 -1.45505 0
M  V30 10697 H 976.053 -1.34158 -0.65741 0
M  V30 10698 H 977.935 -1.8714 -3.77567 0
M  V30 10699 H 976.61 -0.873264 -3.11698 0
M  V30 10700 H 975.517 -3.01036 -2.22099 0
M  V30 10701 H 976.85 -3.94898 -2.93796 0
M  V30 10702 N 978.502 0.731368 -1.39602 0
M  V30 10703 C 979.412 1.87579 -1.40894 0
M  V30 10704 C 980.428 1.71336 -0.303319 0
M  V30 10705 O 981.604 1.93875 -0.545377 0
M  V30 10706 C 978.669 3.23211 -1.25442 0
M  V30 10707 C 977.73 3.51822 -2.46008 0
M  V30 10708 C 976.963 4.80982 -2.31284 0
M  V30 10709 O 977.186 5.54958 -1.31824 0
M  V30 10710 O 976.12 5.09574 -3.20341 0
M  V30 10711 H 979.946 1.89444 -2.3737 0
M  V30 10712 H 977.531 0.879675 -1.20756 0
M  V30 10713 H 979.413 4.04257 -1.18972 0
M  V30 10714 H 978.088 3.22108 -0.320637 0
M  V30 10715 H 976.995 2.70847 -2.58055 0
M  V30 10716 H 978.328 3.57707 -3.38093 0
M  V30 10717 N 979.98 1.24838 0.961938 0
M  V30 10718 C 981.229 1.0855 1.69999 0
M  V30 10719 C 981.542 -0.374645 1.91979 0
M  V30 10720 O 982.748 -0.657822 2.6341 0
M  V30 10721 C 981.204 1.89424 3.06017 0
M  V30 10722 C 980.812 3.39885 2.9186 0
M  V30 10723 C 982.556 1.81684 3.83655 0
M  V30 10724 C 980.463 4.13082 4.23223 0
M  V30 10725 H 979.393 0.402603 0.637516 0
M  V30 10726 H 982.044 1.4897 1.07146 0
M  V30 10727 H 980.426 1.41823 3.69733 0
M  V30 10728 H 981.6 3.95108 2.37121 0
M  V30 10729 H 979.915 3.4864 2.27683 0
M  V30 10730 H 982.512 2.3367 4.80939 0
M  V30 10731 H 982.855 0.783247 4.08865 0
M  V30 10732 H 983.388 2.26997 3.26676 0
M  V30 10733 H 980.127 5.16824 4.03204 0
M  V30 10734 H 979.647 3.62644 4.77755 0
M  V30 10735 H 981.326 4.20397 4.91808 0
M  V30 10736 N 981.458 -1.16348 1.06306 0
M  V30 10737 C 982.405 -2.20741 0.673962 0
M  V30 10738 C 983.375 -1.628 -0.329454 0
M  V30 10739 O 984.56 -1.89547 -0.218313 0
M  V30 10740 C 981.7 -3.45036 0.0667008 0
M  V30 10741 C 980.813 -4.17221 1.12031 0
M  V30 10742 C 979.948 -5.29034 0.479176 0
M  V30 10743 C 978.987 -5.93021 1.51631 0
M  V30 10744 N 978.124 -6.96327 0.898528 0
M  V30 10745 H 982.964 -2.53376 1.56859 0
M  V30 10746 H 980.501 -1.24449 0.784276 0
M  V30 10747 H 982.459 -4.16099 -0.302916 0
M  V30 10748 H 981.089 -3.1295 -0.791333 0
M  V30 10749 H 980.141 -3.4476 1.60763 0
M  V30 10750 H 981.453 -4.60902 1.90712 0
M  V30 10751 H 980.607 -6.06674 0.0565993 0
M  V30 10752 H 979.346 -4.86517 -0.33951 0
M  V30 10753 H 978.351 -5.14104 1.94878 0
M  V30 10754 H 979.576 -6.37618 2.3371 0
M  V30 10755 H 977.522 -6.55923 0.100555 0
M  V30 10756 H 977.439 -7.38379 1.62272 0
M  V30 10757 H 978.707 -7.77888 0.5011 0
M  V30 10758 N 982.937 -0.845659 -1.3299 0
M  V30 10759 C 983.847 -0.2864 -2.32845 0
M  V30 10760 C 984.863 0.591105 -1.63652 0
M  V30 10761 O 986.039 0.493615 -1.95257 0
M  V30 10762 C 983.104 0.523636 -3.42723 0
M  V30 10763 C 982.165 -0.378945 -4.27624 0
M  V30 10764 C 981.398 0.392526 -5.32255 0
M  V30 10765 O 981.621 1.6235 -5.46808 0
M  V30 10766 O 980.555 -0.237 -6.01433 0
M  V30 10767 H 984.381 -1.11346 -2.82552 0
M  V30 10768 H 981.966 -0.608356 -1.36453 0
M  V30 10769 H 983.848 0.983718 -4.09757 0
M  V30 10770 H 982.523 1.32764 -2.95221 0
M  V30 10771 H 981.43 -0.887012 -3.63432 0
M  V30 10772 H 982.763 -1.1479 -4.78627 0
M  V30 10773 N 984.415 1.45619 -0.602734 0
M  V30 10774 C 985.362 2.30493 0.118944 0
M  V30 10775 C 986.332 1.41816 0.864723 0
M  V30 10776 O 987.517 1.7075 0.851424 0
M  V30 10777 C 984.657 3.2664 1.11356 0
M  V30 10778 C 983.77 4.3042 0.369161 0
M  V30 10779 C 982.905 5.13678 1.35307 0
M  V30 10780 C 981.944 6.09189 0.596207 0
M  V30 10781 N 981.081 6.85245 1.52916 0
M  V30 10782 H 985.921 2.91672 -0.610836 0
M  V30 10783 H 983.458 1.43731 -0.313032 0
M  V30 10784 H 985.416 3.80846 1.7033 0
M  V30 10785 H 984.046 2.67225 1.81081 0
M  V30 10786 H 983.098 3.78913 -0.335994 0
M  V30 10787 H 984.41 4.98307 -0.221603 0
M  V30 10788 H 983.564 5.7226 2.01502 0
M  V30 10789 H 982.303 4.45798 1.97777 0
M  V30 10790 H 981.308 5.49743 -0.0793984 0
M  V30 10791 H 982.533 6.79096 -0.0233734 0
M  V30 10792 H 980.479 6.20058 2.14159 0
M  V30 10793 H 980.396 7.49467 0.991713 0
M  V30 10794 H 981.664 7.48371 2.18083 0
M  V30 10795 N 985.893 0.34162 1.53853 0
M  V30 10796 C 986.84 -0.516058 2.24957 0
M  V30 10797 C 987.81 -1.09711 1.2471 0
M  V30 10798 O 988.995 -1.13409 1.53438 0
M  V30 10799 C 986.135 -1.66207 3.02439 0
M  V30 10800 C 985.248 -1.10851 4.17536 0
M  V30 10801 C 984.383 -2.22167 4.82509 0
M  V30 10802 C 983.422 -1.64152 5.89678 0
M  V30 10803 N 982.559 -2.69203 6.4844 0
M  V30 10804 H 987.399 0.0968275 2.97843 0
M  V30 10805 H 984.936 0.0595565 1.46979 0
M  V30 10806 H 986.894 -2.33672 3.4562 0
M  V30 10807 H 985.524 -2.24597 2.31853 0
M  V30 10808 H 984.576 -0.324853 3.7901 0
M  V30 10809 H 985.888 -0.644151 4.94623 0
M  V30 10810 H 985.042 -2.97501 5.28751 0
M  V30 10811 H 983.781 -2.71946 4.04842 0
M  V30 10812 H 982.786 -0.873228 5.42821 0
M  V30 10813 H 984.011 -1.15228 6.69253 0
M  V30 10814 H 981.957 -3.1824 5.73637 0
M  V30 10815 H 981.874 -2.27383 7.20994 0
M  V30 10816 H 983.142 -3.44312 6.99335 0
M  V30 10817 N 987.371 -1.57444 0.0701946 0
M  V30 10818 C 988.281 -2.16132 -0.912377 0
M  V30 10819 C 989.297 -1.12406 -1.32819 0
M  V30 10820 O 990.473 -1.44665 -1.40121 0
M  V30 10821 C 987.538 -2.71008 -2.16231 0
M  V30 10822 C 986.599 -3.896 -1.80306 0
M  V30 10823 C 985.832 -4.4185 -2.9934 0
M  V30 10824 O 986.055 -3.93106 -4.13309 0
M  V30 10825 O 984.989 -5.33201 -2.7925 0
M  V30 10826 H 988.815 -3.00449 -0.443167 0
M  V30 10827 H 986.4 -1.48617 -0.152786 0
M  V30 10828 H 988.282 -3.06186 -2.8953 0
M  V30 10829 H 986.957 -1.8975 -2.62253 0
M  V30 10830 H 985.864 -3.59277 -1.04264 0
M  V30 10831 H 987.197 -4.72145 -1.39068 0
M  V30 10832 N 988.849 0.203349 -1.56283 0
M  V30 10833 C 990.098 0.92315 -1.79334 0
M  V30 10834 C 990.411 1.84765 -0.641977 0
M  V30 10835 O 991.617 2.60745 -0.756584 0
M  V30 10836 C 990.073 1.69184 -3.17655 0
M  V30 10837 C 989.681 0.812581 -4.40569 0
M  V30 10838 C 991.425 2.40177 -3.50022 0
M  V30 10839 C 989.332 1.57967 -5.69913 0
M  V30 10840 H 988.262 0.348442 -0.668659 0
M  V30 10841 H 990.913 0.1766 -1.82648 0
M  V30 10842 H 989.295 2.48197 -3.08568 0
M  V30 10843 H 990.469 0.0616956 -4.60759 0
M  V30 10844 H 988.784 0.21389 -4.1585 0
M  V30 10845 H 991.381 2.98103 -4.4389 0
M  V30 10846 H 991.724 3.13961 -2.73376 0
M  V30 10847 H 992.257 1.68138 -3.6052 0
M  V30 10848 H 988.996 0.884767 -6.49501 0
M  V30 10849 H 988.516 2.3047 -5.53754 0
M  V30 10850 H 990.195 2.13562 -6.10737 0
M  V30 10851 N 990.327 1.50405 0.470755 0
M  V30 10852 C 991.257 1.72222 1.57676 0
M  V30 10853 C 992.238 0.57121 1.60222 0
M  V30 10854 O 993.423 0.810381 1.76484 0
M  V30 10855 C 990.553 1.81666 2.95998 0
M  V30 10856 C 989.507 2.96857 3.08318 0
M  V30 10857 C 988.833 2.91445 4.4829 0
M  V30 10858 C 990.133 4.37361 2.85504 0
M  V30 10859 H 991.827 2.64825 1.39671 0
M  V30 10860 H 989.373 1.27438 0.67049 0
M  V30 10861 H 991.326 1.95514 3.73299 0
M  V30 10862 H 990.05 0.856856 3.1516 0
M  V30 10863 H 988.709 2.82661 2.33449 0
M  V30 10864 H 988.357 1.93309 4.64371 0
M  V30 10865 H 988.057 3.68776 4.57469 0
M  V30 10866 H 989.581 3.07341 5.27611 0
M  V30 10867 H 990.995 4.52081 3.52555 0
M  V30 10868 H 989.392 5.16145 3.06127 0
M  V30 10869 H 990.462 4.49708 1.81359 0
M  V30 10870 N 991.805 -0.723954 1.39988 0
M  V30 10871 C 992.752 -1.83803 1.39589 0
M  V30 10872 C 993.722 -1.64146 0.253996 0
M  V30 10873 O 994.907 -1.85398 0.450793 0
M  V30 10874 C 992.047 -3.21431 1.25604 0
M  V30 10875 C 991.16 -3.52717 2.49429 0
M  V30 10876 C 990.295 -4.79805 2.27949 0
M  V30 10877 C 989.334 -5.03968 3.47394 0
M  V30 10878 N 988.471 -6.22266 3.25161 0
M  V30 10879 H 993.311 -1.83479 2.34818 0
M  V30 10880 H 990.848 -0.896396 1.16633 0
M  V30 10881 H 992.806 -4.00892 1.15504 0
M  V30 10882 H 991.436 -3.21005 0.339986 0
M  V30 10883 H 990.488 -2.67872 2.7009 0
M  V30 10884 H 991.8 -3.66486 3.38363 0
M  V30 10885 H 990.954 -5.67268 2.15155 0
M  V30 10886 H 989.693 -4.68229 1.36428 0
M  V30 10887 H 988.698 -4.14963 3.60674 0
M  V30 10888 H 989.923 -5.17422 4.39831 0
M  V30 10889 H 987.869 -6.11957 2.36314 0
M  V30 10890 H 987.786 -6.36673 4.07656 0
M  V30 10891 H 989.054 -7.12539 3.16083 0
M  V30 10892 N 993.283 -1.25346 -0.955304 0
M  V30 10893 C 994.231 -1.05461 -2.07318 0
M  V30 10894 C 995.225 0.0142699 -1.69394 0
M  V30 10895 O 996.431 -0.141292 -1.79445 0
M  V30 10896 H 992.806 -0.324095 -0.678577 0
M  V30 10897 H 994.777 -2.00231 -2.21247 0
M  V30 10898 C 993.526 -0.689329 -3.40798 0
M  V30 10899 H 992.849 -1.50362 -3.70447 0
M  V30 10900 H 994.289 -0.589883 -4.19877 0
M  V30 10901 C 992.748 0.604556 -3.31431 0
M  V30 10902 O 993.278 1.64686 -3.6639 0
M  V30 10903 N 991.484 0.589927 -2.84549 0
M  V30 10904 H 991.031 -0.258647 -2.56298 0
M  V30 10905 H 990.989 1.4558 -2.78664 0
M  V30 10906 N 994.761 1.15782 -1.06922 0
M  V30 10907 C 995.691 2.22538 -0.707045 0
M  V30 10908 C 996.672 1.67371 0.303471 0
M  V30 10909 O 997.857 1.9339 0.177189 0
M  V30 10910 C 994.987 3.47158 -0.0994269 0
M  V30 10911 C 993.941 4.15257 -1.03661 0
M  V30 10912 C 993.267 5.33902 -0.291974 0
M  V30 10913 C 994.567 4.65516 -2.36837 0
M  V30 10914 H 996.261 2.53089 -1.59958 0
M  V30 10915 H 993.807 1.21649 -0.770552 0
M  V30 10916 H 995.76 4.21073 0.165852 0
M  V30 10917 H 994.484 3.15926 0.828155 0
M  V30 10918 H 993.143 3.43276 -1.28674 0
M  V30 10919 H 992.791 4.98926 0.638928 0
M  V30 10920 H 992.491 5.80407 -0.916613 0
M  V30 10921 H 994.015 6.1059 -0.0343915 0
M  V30 10922 H 995.429 5.30981 -2.16175 0
M  V30 10923 H 993.826 5.22666 -2.94856 0
M  V30 10924 H 994.896 3.81387 -2.99453 0
M  V30 10925 N 996.239 0.8527 1.3254 0
M  V30 10926 C 997.516 0.376491 1.91942 0
M  V30 10927 C 997.896 -1.13972 1.7769 0
M  V30 10928 O 997.244 -1.96047 1.17379 0
M  V30 10929 C 997.454 0.838694 3.38773 0
M  V30 10930 C 998.802 0.854736 4.15908 0
M  V30 10931 O 999.826 0.783203 3.47483 0
M  V30 10932 O 998.685 0.955207 5.38087 0
M  V30 10933 H 995.779 0.109412 0.81973 0
M  V30 10934 H 998.325 0.93947 1.41322 0
M  V30 10935 H 997.097 1.88179 3.43081 0
M  V30 10936 H 996.72 0.253055 3.96794 0
M  V30 10937 N 997.718 -1.45297 0.610449 0
M  V30 10938 C 998.628 -2.34349 -0.108475 0
M  V30 10939 C 999.644 -1.51409 -0.857397 0
M  V30 10940 O 1000.82 -1.84202 -0.814337 0
M  V30 10941 C 997.885 -3.29072 -1.09144 0
M  V30 10942 C 996.946 -4.27918 -0.344165 0
M  V30 10943 C 996.179 -5.18116 -1.28031 0
M  V30 10944 O 996.402 -5.11802 -2.51824 0
M  V30 10945 O 995.336 -5.96879 -0.775821 0
M  V30 10946 H 999.162 -2.97232 0.623421 0
M  V30 10947 H 996.747 -1.44728 0.3707 0
M  V30 10948 H 998.629 -3.87433 -1.65751 0
M  V30 10949 H 997.304 -2.68749 -1.80431 0
M  V30 10950 H 996.211 -3.73164 0.264437 0
M  V30 10951 H 997.544 -4.91104 0.328275 0
M  V30 10952 N 999.196 -0.349774 -1.5367 0
M  V30 10953 C 1000.15 0.52023 -2.21986 0
M  V30 10954 C 1001.13 1.06119 -1.20944 0
M  V30 10955 O 1002.32 0.993857 -1.46463 0
M  V30 10956 C 999.451 1.66751 -3.00082 0
M  V30 10957 C 998.537 1.14019 -4.08486 0
M  V30 10958 N 998.928 0.334588 -5.04692 0
M  V30 10959 C 997.226 1.4165 -4.22908 0
M  V30 10960 C 997.927 0.0476906 -5.8168 0
M  V30 10961 N 996.903 0.641032 -5.39807 0
M  V30 10962 H 1000.7 -0.102261 -2.93722 0
M  V30 10963 H 998.219 -0.15696 -1.6164 0
M  V30 10964 H 1000.22 2.30281 -3.47529 0
M  V30 10965 H 998.876 2.29322 -2.29873 0
M  V30 10966 H 999.887 -0.0248665 -5.17894 0
M  V30 10967 H 996.564 2.04615 -3.63922 0
M  V30 10968 H 997.954 -0.602565 -6.69193 0
M  V30 10969 N 1000.67 1.57404 -0.0785433 0
M  V30 10970 C 1001.95 1.85163 0.630389 0
M  V30 10971 C 1002.33 0.972295 1.87376 0
M  V30 10972 O 1001.68 0.0403375 2.28464 0
M  V30 10973 C 1001.89 3.35491 0.961604 0
M  V30 10974 C 1003.24 4.0316 1.33219 0
M  V30 10975 O 1004.26 3.40276 1.05313 0
M  V30 10976 O 1003.12 5.14086 1.85412 0
M  V30 10977 H 1000.21 0.765169 0.31376 0
M  V30 10978 H 1002.76 1.69343 -0.109986 0
M  V30 10979 H 1001.53 3.91221 0.0788113 0
M  V30 10980 H 1001.15 3.56598 1.75852 0
M  V30 10981 N 1002.15 -0.195058 1.56388 0
M  V30 10982 C 1003.4 -0.913626 1.79821 0
M  V30 10983 C 1003.71 -1.84422 0.651767 0
M  V30 10984 O 1004.92 -2.6034 0.770402 0
M  V30 10985 C 1003.38 -1.67497 3.18548 0
M  V30 10986 C 1002.98 -0.789205 4.40994 0
M  V30 10987 C 1004.73 -2.38318 3.5129 0
M  V30 10988 C 1002.63 -1.54942 5.70742 0
M  V30 10989 H 1001.56 -0.344891 0.670497 0
M  V30 10990 H 1004.22 -0.166912 1.82739 0
M  V30 10991 H 1002.6 -2.46557 3.0988 0
M  V30 10992 H 1003.77 -0.0372595 4.60785 0
M  V30 10993 H 1002.09 -0.191834 4.15958 0
M  V30 10994 H 1004.68 -2.95745 4.45465 0
M  V30 10995 H 1005.03 -3.12507 2.75037 0
M  V30 10996 H 1005.56 -1.66224 3.61406 0
M  V30 10997 H 1002.3 -0.85031 6.49962 0
M  V30 10998 H 1001.82 -2.2753 5.54969 0
M  V30 10999 H 1003.5 -2.1032 6.11861 0
M  V30 11000 N 1003.63 -1.50653 -0.462772 0
M  V30 11001 C 1004.91 -1.5258 -1.22387 0
M  V30 11002 C 1005.29 -0.275263 -2.09298 0
M  V30 11003 O 1004.63 0.740943 -2.16153 0
M  V30 11004 C 1004.84 -2.82611 -2.04773 0
M  V30 11005 C 1006.19 -3.33592 -2.62681 0
M  V30 11006 O 1007.22 -2.83989 -2.15008 0
M  V30 11007 O 1006.08 -4.20081 -3.49563 0
M  V30 11008 H 1003.17 -0.612367 -0.55582 0
M  V30 11009 H 1005.72 -1.62948 -0.473914 0
M  V30 11010 H 1004.49 -3.65098 -1.40781 0
M  V30 11011 H 1004.11 -2.75286 -2.86886 0
M  V30 11012 N 1005.11 0.71652 -1.4037 0
M  V30 11013 C 1006.36 1.47193 -1.37903 0
M  V30 11014 C 1006.67 1.95593 0.0159939 0
M  V30 11015 O 1007.88 2.71009 0.163282 0
M  V30 11016 C 1006.33 2.6606 -2.42363 0
M  V30 11017 C 1005.94 2.24533 -3.87671 0
M  V30 11018 C 1007.68 3.438 -2.49001 0
M  V30 11019 C 1005.59 3.40234 -4.8373 0
M  V30 11020 H 1004.52 0.552811 -0.512753 0
M  V30 11021 H 1007.17 0.779894 -1.66102 0
M  V30 11022 H 1005.55 3.37429 -2.07262 0
M  V30 11023 H 1006.73 1.6059 -4.31911 0
M  V30 11024 H 1005.04 1.59839 -3.845 0
M  V30 11025 H 1007.64 4.29893 -3.17956 0
M  V30 11026 H 1007.98 3.8755 -1.52023 0
M  V30 11027 H 1008.52 2.79474 -2.83088 0
M  V30 11028 H 1005.26 3.01517 -5.82037 0
M  V30 11029 H 1004.78 4.03095 -4.44156 0
M  V30 11030 H 1006.45 4.06312 -5.03507 0
M  V30 11031 N 1006.59 1.25851 0.948643 0
M  V30 11032 C 1007.83 1.10954 1.69397 0
M  V30 11033 C 1008.16 -0.348443 1.91353 0
M  V30 11034 O 1007.42 -1.27285 1.48651 0
M  V30 11035 C 1007.72 1.81565 3.07846 0
M  V30 11036 C 1007.38 3.31477 3.0567 0
M  V30 11037 C 1006.04 3.72371 3.04784 0
M  V30 11038 C 1008.4 4.27225 2.98543 0
M  V30 11039 C 1005.72 5.07416 2.94527 0
M  V30 11040 C 1008.08 5.62301 2.89828 0
M  V30 11041 C 1006.74 6.02516 2.87281 0
M  V30 11042 H 1006.01 0.406011 0.619868 0
M  V30 11043 H 1008.66 1.562 1.10787 0
M  V30 11044 H 1006.96 1.28767 3.70035 0
M  V30 11045 H 1008.66 1.67486 3.64348 0
M  V30 11046 H 1005.25 2.98941 3.07135 0
M  V30 11047 H 1009.43 3.96618 2.98342 0
M  V30 11048 H 1004.69 5.37746 2.90928 0
M  V30 11049 H 1008.86 6.36182 2.83276 0
M  V30 11050 H 1006.49 7.07116 2.79089 0
M  V30 11051 N 1008.06 -1.15214 1.07534 0
M  V30 11052 C 1008.99 -2.2216 0.718837 0
M  V30 11053 C 1009.98 -1.6753 -0.29459 0
M  V30 11054 O 1011.16 -1.93481 -0.166931 0
M  V30 11055 C 1008.29 -3.471 0.117836 0
M  V30 11056 C 1007.24 -4.14701 1.05862 0
M  V30 11057 C 1006.57 -5.3374 0.320284 0
M  V30 11058 C 1007.87 -4.64254 2.39302 0
M  V30 11059 H 1009.56 -2.52237 1.61297 0
M  V30 11060 H 1007.11 -1.21239 0.776992 0
M  V30 11061 H 1009.06 -4.21156 -0.143519 0
M  V30 11062 H 1007.79 -3.16361 -0.811389 0
M  V30 11063 H 1006.45 -3.42589 1.30493 0
M  V30 11064 H 1006.09 -4.99257 -0.61246 0
M  V30 11065 H 1005.79 -5.79912 0.947381 0
M  V30 11066 H 1007.32 -6.10563 0.0667721 0
M  V30 11067 H 1008.73 -5.29827 2.18988 0
M  V30 11068 H 1007.13 -5.21095 2.97623 0
M  V30 11069 H 1008.2 -3.79793 3.01472 0
M  V30 11070 N 1009.54 -0.859717 -1.32086 0
M  V30 11071 C 1010.49 -0.306042 -2.28762 0
M  V30 11072 C 1011.46 0.589801 -1.55276 0
M  V30 11073 O 1012.64 0.523633 -1.83474 0
M  V30 11074 C 1009.78 0.495256 -3.41528 0
M  V30 11075 C 1008.9 -0.426947 -4.29885 0
M  V30 11076 C 1008.03 0.387474 -5.29785 0
M  V30 11077 C 1007.07 -0.531807 -6.09785 0
M  V30 11078 N 1006.21 0.245741 -7.0167 0
M  V30 11079 H 1011.05 -1.1357 -2.7551 0
M  V30 11080 H 1008.59 -0.571468 -1.35546 0
M  V30 11081 H 1010.54 0.97551 -4.05635 0
M  V30 11082 H 1009.17 1.28969 -2.95917 0
M  V30 11083 H 1008.23 -1.02561 -3.66313 0
M  V30 11084 H 1009.54 -1.13226 -4.85779 0
M  V30 11085 H 1008.69 0.930677 -5.99519 0
M  V30 11086 H 1007.43 1.12612 -4.74521 0
M  V30 11087 H 1006.44 -1.08685 -5.3895 0
M  V30 11088 H 1007.66 -1.26915 -6.67135 0
M  V30 11089 H 1005.61 0.967391 -6.48828 0
M  V30 11090 H 1005.52 -0.400432 -7.54939 0
M  V30 11091 H 1006.79 0.770507 -7.75683 0
M  V30 11092 N 1011.02 1.44971 -0.618145 0
M  V30 11093 C 1012.25 2.07039 -0.122395 0
M  V30 11094 C 1012.67 1.45793 1.18853 0
M  V30 11095 O 1012.03 0.55453 1.72611 0
M  V30 11096 C 1012.08 3.60599 -0.0073864 0
M  V30 11097 O 1011.18 3.99069 1.04007 0
M  V30 11098 H 1010.52 0.6593 -0.0788615 0
M  V30 11099 H 1013.05 1.86055 -0.851147 0
M  V30 11100 H 1013.06 4.07569 0.187417 0
M  V30 11101 H 1011.74 4.04561 -0.964544 0
M  V30 11102 H 1010.31 3.63753 0.820879 0
M  V30 11103 N 1012.5 0.357919 1.53482 0
M  V30 11104 C 1013.41 -0.500273 2.29204 0
M  V30 11105 C 1014.42 -1.09936 1.3487 0
M  V30 11106 O 1015.6 -1.11195 1.67921 0
M  V30 11107 C 1012.67 -1.62828 3.06085 0
M  V30 11108 C 1011.73 -1.05751 4.16071 0
M  V30 11109 C 1010.96 -2.13176 4.89277 0
M  V30 11110 O 1011.18 -3.34153 4.62274 0
M  V30 11111 O 1010.12 -1.76663 5.7539 0
M  V30 11112 H 1013.94 0.115696 3.0348 0
M  V30 11113 H 1011.53 0.122527 1.48897 0
M  V30 11114 H 1013.41 -2.28427 3.54117 0
M  V30 11115 H 1012.08 -2.22979 2.34653 0
M  V30 11116 H 1010.99 -0.365642 3.72309 0
M  V30 11117 H 1012.32 -0.500661 4.89647 0
M  V30 11118 N 1013.98 -1.5736 0.0868897 0
M  V30 11119 C 1014.92 -2.13571 -0.874996 0
M  V30 11120 C 1015.89 -1.0521 -1.2853 0
M  V30 11121 O 1017.08 -1.32954 -1.3685 0
M  V30 11122 C 1014.22 -2.71386 -2.13175 0
M  V30 11123 C 1013.33 -3.93953 -1.77272 0
M  V30 11124 C 1012.47 -4.3996 -2.97671 0
M  V30 11125 C 1011.51 -5.55137 -2.57856 0
M  V30 11126 N 1010.64 -5.96034 -3.71064 0
M  V30 11127 H 1015.48 -2.95453 -0.388789 0
M  V30 11128 H 1013.02 -1.45992 -0.180242 0
M  V30 11129 H 1014.98 -3.03022 -2.86764 0
M  V30 11130 H 1013.61 -1.92245 -2.5931 0
M  V30 11131 H 1012.66 -3.68683 -0.936845 0
M  V30 11132 H 1013.97 -4.77565 -1.43989 0
M  V30 11133 H 1013.13 -4.73337 -3.79522 0
M  V30 11134 H 1011.86 -3.55232 -3.34158 0
M  V30 11135 H 1010.87 -5.21397 -1.7443 0
M  V30 11136 H 1012.09 -6.41608 -2.22522 0
M  V30 11137 H 1010.04 -5.14253 -4.07284 0
M  V30 11138 H 1009.96 -6.74423 -3.41599 0
M  V30 11139 H 1011.23 -6.34038 -4.53449 0
M  V30 11140 N 1015.45 0.186762 -1.56489 0
M  V30 11141 C 1016.4 1.23141 -1.95205 0
M  V30 11142 C 1017.37 1.44799 -0.81378 0
M  V30 11143 O 1018.56 1.57795 -1.07263 0
M  V30 11144 C 1015.7 2.56926 -2.30397 0
M  V30 11145 C 1014.81 2.42777 -3.57328 0
M  V30 11146 C 1013.94 3.69323 -3.81804 0
M  V30 11147 C 1012.98 3.50041 -5.02133 0
M  V30 11148 N 1012.12 4.68619 -5.2282 0
M  V30 11149 H 1016.96 0.894256 -2.84266 0
M  V30 11150 H 1014.5 0.430187 -1.40669 0
M  V30 11151 H 1016.46 3.3488 -2.4882 0
M  V30 11152 H 1015.09 2.88668 -1.44466 0
M  V30 11153 H 1014.14 1.56078 -3.46906 0
M  V30 11154 H 1015.45 2.24468 -4.45439 0
M  V30 11155 H 1014.6 4.55715 -4.00511 0
M  V30 11156 H 1013.34 3.90595 -2.92039 0
M  V30 11157 H 1012.35 2.62034 -4.8334 0
M  V30 11158 H 1013.57 3.30206 -5.93414 0
M  V30 11159 H 1011.52 4.90139 -4.36005 0
M  V30 11160 H 1011.44 4.53165 -6.05126 0
M  V30 11161 H 1012.7 5.56338 -5.45993 0
M  V30 11162 N 1016.93 1.50896 0.454776 0
M  V30 11163 C 1017.88 1.71497 1.57136 0
M  V30 11164 C 1018.87 0.58098 1.59126 0
M  V30 11165 O 1020.08 0.761916 1.63079 0
M  V30 11166 H 1016.46 0.54158 0.521724 0
M  V30 11167 H 1018.43 2.65129 1.36928 0
M  V30 11168 C 1017.18 1.84125 2.94947 0
M  V30 11169 H 1016.5 2.7078 2.9414 0
M  V30 11170 H 1017.94 2.02558 3.72487 0
M  V30 11171 C 1016.4 0.596752 3.31573 0
M  V30 11172 O 1016.93 -0.256632 4.00879 0
M  V30 11173 N 1015.13 0.445958 2.87158 0
M  V30 11174 H 1014.68 1.14146 2.30929 0
M  V30 11175 H 1014.64 -0.385519 3.12027 0
M  V30 11176 N 1018.41 -0.709066 1.40748 0
M  V30 11177 C 1019.64 -1.49808 1.42707 0
M  V30 11178 C 1020.05 -1.88778 0.0285574 0
M  V30 11179 O 1019.41 -1.55883 -0.949035 0
M  V30 11180 C 1019.46 -2.76926 2.32366 0
M  V30 11181 O 1019.18 -2.39602 3.66773 0
M  V30 11182 C 1020.68 -3.70773 2.42986 0
M  V30 11183 H 1017.9 -0.462106 0.486517 0
M  V30 11184 H 1020.45 -0.874135 1.84876 0
M  V30 11185 H 1018.6 -3.3559 1.93541 0
M  V30 11186 H 1019.02 -3.21443 4.14457 0
M  V30 11187 H 1020.49 -4.56789 3.09916 0
M  V30 11188 H 1020.97 -4.14332 1.45691 0
M  V30 11189 H 1021.57 -3.18019 2.8239 0
M  V30 11190 N 1019.89 -1.26353 -0.941956 0
M  V30 11191 C 1020.82 -1.10341 -2.05784 0
M  V30 11192 C 1021.8 -0.00881565 -1.70098 0
M  V30 11193 O 1022.99 -0.180699 -1.93357 0
M  V30 11194 C 1020.12 -0.734788 -3.39438 0
M  V30 11195 C 1019.07 -1.78103 -3.89183 0
M  V30 11196 C 1018.4 -1.26675 -5.19478 0
M  V30 11197 C 1019.7 -3.1824 -4.14151 0
M  V30 11198 H 1021.39 -2.03684 -2.19438 0
M  V30 11199 H 1018.94 -0.980698 -1.05443 0
M  V30 11200 H 1020.89 -0.609653 -4.16967 0
M  V30 11201 H 1019.61 0.234354 -3.25758 0
M  V30 11202 H 1018.27 -1.89482 -3.13835 0
M  V30 11203 H 1017.92 -0.287472 -5.02178 0
M  V30 11204 H 1017.62 -1.96612 -5.53731 0
M  V30 11205 H 1019.14 -1.15427 -5.99591 0
M  V30 11206 H 1020.56 -3.09942 -4.82296 0
M  V30 11207 H 1018.95 -3.8576 -4.59684 0
M  V30 11208 H 1020.02 -3.64354 -3.19959 0
M  V30 11209 N 1021.37 1.14642 -1.08144 0
M  V30 11210 C 1022.28 2.23257 -0.720668 0
M  V30 11211 C 1023.29 1.71866 0.271648 0
M  V30 11212 O 1024.47 2.01064 0.116266 0
M  V30 11213 C 1021.53 3.46447 -0.132542 0
M  V30 11214 C 1020.6 4.12789 -1.17913 0
M  V30 11215 C 1019.83 5.30099 -0.618971 0
M  V30 11216 O 1020.05 5.6762 0.562418 0
M  V30 11217 O 1018.99 5.86154 -1.36774 0
M  V30 11218 H 1022.81 2.56463 -1.62667 0
M  V30 11219 H 1020.4 1.22521 -0.854932 0
M  V30 11220 H 1022.28 4.20959 0.19277 0
M  V30 11221 H 1020.95 3.14971 0.746662 0
M  V30 11222 H 1019.86 3.40163 -1.55693 0
M  V30 11223 H 1021.19 4.48365 -2.03051 0
M  V30 11224 N 1022.85 0.866709 1.31628 0
M  V30 11225 C 1024.07 0.48956 2.01539 0
M  V30 11226 C 1024.5 -0.909556 1.64647 0
M  V30 11227 O 1023.85 -1.59959 0.853391 0
M  V30 11228 C 1023.9 0.650176 3.5469 0
M  V30 11229 O 1023.01 -0.311908 4.11219 0
M  V30 11230 H 1022.35 0.195144 0.634677 0
M  V30 11231 H 1024.88 1.16923 1.679 0
M  V30 11232 H 1024.89 0.542236 4.04381 0
M  V30 11233 H 1023.56 1.67038 3.80882 0
M  V30 11234 H 1022.14 -0.159197 3.7256 0
M  V30 11235 N 1024.32 -1.44642 0.625825 0
M  V30 11236 C 1025.57 -2.02094 0.128201 0
M  V30 11237 C 1025.9 -1.49181 -1.24801 0
M  V30 11238 O 1025.15 -0.663965 -1.84092 0
M  V30 11239 C 1025.45 -3.57352 0.0584381 0
M  V30 11240 C 1025.12 -4.29496 1.37272 0
M  V30 11241 C 1023.78 -4.48922 1.7327 0
M  V30 11242 C 1026.13 -4.70586 2.2405 0
M  V30 11243 C 1023.46 -5.06697 2.95762 0
M  V30 11244 C 1025.81 -5.29717 3.45807 0
M  V30 11245 C 1024.48 -5.47363 3.82034 0
M  V30 11246 H 1023.75 -0.739514 0.0469122 0
M  V30 11247 H 1026.39 -1.73475 0.811083 0
M  V30 11248 H 1024.7 -3.85354 -0.707791 0
M  V30 11249 H 1026.4 -3.9953 -0.34303 0
M  V30 11250 H 1022.99 -4.14702 1.08258 0
M  V30 11251 H 1027.17 -4.55295 1.97535 0
M  V30 11252 H 1022.43 -5.18546 3.23913 0
M  V30 11253 H 1026.6 -5.60507 4.13286 0
M  V30 11254 H 1024.23 -5.91898 4.77033 0
M  V30 11255 N 1025.8 -0.366053 -1.5329 0
M  V30 11256 C 1027.05 0.224614 -2.00445 0
M  V30 11257 C 1027.36 1.49829 -1.2574 0
M  V30 11258 O 1028.57 2.16759 -1.63487 0
M  V30 11259 C 1027.03 0.450818 -3.57065 0
M  V30 11260 C 1026.63 -0.808257 -4.40649 0
M  V30 11261 C 1028.38 0.999116 -4.12575 0
M  V30 11262 C 1026.28 -0.551612 -5.88822 0
M  V30 11263 H 1025.21 0.0877114 -0.748881 0
M  V30 11264 H 1027.87 -0.484866 -1.76978 0
M  V30 11265 H 1026.25 1.22157 -3.76688 0
M  V30 11266 H 1027.42 -1.58184 -4.32798 0
M  V30 11267 H 1025.74 -1.27981 -3.96245 0
M  V30 11268 H 1028.33 1.20646 -5.20911 0
M  V30 11269 H 1028.68 1.96139 -3.67199 0
M  V30 11270 H 1029.21 0.288518 -3.96752 0
M  V30 11271 H 1025.95 -1.48423 -6.38475 0
M  V30 11272 H 1025.47 0.183462 -5.99519 0
M  V30 11273 H 1027.15 -0.177307 -6.46757 0
M  V30 11274 N 1027.28 1.57312 -0.0952337 0
M  V30 11275 C 1028.51 1.98409 0.575984 0
M  V30 11276 C 1028.92 0.973168 1.62253 0
M  V30 11277 O 1028.26 -0.0454416 1.83644 0
M  V30 11278 C 1028.32 3.35877 1.28167 0
M  V30 11279 C 1027.99 4.55368 0.385868 0
M  V30 11280 C 1028.98 5.1861 -0.366041 0
M  V30 11281 C 1026.67 5.0138 0.303885 0
M  V30 11282 C 1028.66 6.26233 -1.18791 0
M  V30 11283 C 1026.35 6.0887 -0.521637 0
M  V30 11284 C 1027.35 6.71161 -1.26618 0
M  V30 11285 O 1027.04 7.76577 -2.07804 0
M  V30 11286 H 1026.77 0.657018 0.159068 0
M  V30 11287 H 1029.32 2.04685 -0.171237 0
M  V30 11288 H 1027.55 3.26284 2.07547 0
M  V30 11289 H 1029.24 3.6142 1.84744 0
M  V30 11290 H 1030.01 4.83993 -0.312435 0
M  V30 11291 H 1025.89 4.52657 0.873065 0
M  V30 11292 H 1029.43 6.74784 -1.76955 0
M  V30 11293 H 1025.33 6.42918 -0.576722 0
M  V30 11294 H 1026.09 7.93566 -2.00489 0
M  V30 11295 N 1028.76 -0.17846 1.56586 0
M  V30 11296 C 1029.67 -1.24115 1.9908 0
M  V30 11297 C 1030.68 -1.48854 0.901031 0
M  V30 11298 O 1031.86 -1.61142 1.2081 0
M  V30 11299 C 1028.92 -2.56187 2.33601 0
M  V30 11300 C 1027.99 -2.39373 3.56369 0
M  V30 11301 C 1027.22 -3.65147 3.89234 0
M  V30 11302 O 1027.44 -4.70024 3.23162 0
M  V30 11303 O 1026.38 -3.59683 4.82609 0
M  V30 11304 H 1030.2 -0.910482 2.89731 0
M  V30 11305 H 1027.79 -0.38477 1.4436 0
M  V30 11306 H 1029.67 -3.34109 2.56806 0
M  V30 11307 H 1028.34 -2.88847 1.46113 0
M  V30 11308 H 1027.25 -1.59506 3.38391 0
M  V30 11309 H 1028.58 -2.1164 4.44375 0
M  V30 11310 N 1030.24 -1.51135 -0.446768 0
M  V30 11311 C 1031.46 -1.67129 -1.21965 0
M  V30 11312 C 1031.88 -0.36467 -1.85245 0
M  V30 11313 O 1031.24 0.655908 -1.70306 0
M  V30 11314 C 1031.29 -2.78016 -2.31061 0
M  V30 11315 O 1031.01 -4.03615 -1.70371 0
M  V30 11316 C 1032.51 -3.05197 -3.21511 0
M  V30 11317 H 1029.73 -0.561111 -0.367961 0
M  V30 11318 H 1032.27 -1.97499 -0.530517 0
M  V30 11319 H 1030.43 -2.50272 -2.95707 0
M  V30 11320 H 1030.84 -4.65126 -2.424 0
M  V30 11321 H 1032.32 -3.8639 -3.94216 0
M  V30 11322 H 1032.79 -2.17228 -3.81718 0
M  V30 11323 H 1033.4 -3.34565 -2.62577 0
M  V30 11324 N 1031.71 0.701592 -1.41122 0
M  V30 11325 C 1033.13 1.01143 -1.23459 0
M  V30 11326 C 1033.33 2.01144 -0.11968 0
M  V30 11327 O 1032.39 2.47132 0.517889 0
M  V30 11328 C 1033.7 1.54179 -2.58165 0
M  V30 11329 C 1035.25 1.66093 -2.65296 0
M  V30 11330 C 1035.72 2.22532 -4.00304 0
M  V30 11331 N 1037.21 2.299 -4.0212 0
M  V30 11332 C 1037.95 2.74584 -5.0338 0
M  V30 11333 N 1037.44 3.18917 -6.15032 0
M  V30 11334 N 1039.24 2.74094 -4.90743 0
M  V30 11335 H 1031.39 0.0390087 -2.12364 0
M  V30 11336 H 1033.65 0.0798848 -0.944628 0
M  V30 11337 H 1033.36 0.881587 -3.40472 0
M  V30 11338 H 1033.23 2.52488 -2.80231 0
M  V30 11339 H 1035.62 2.31227 -1.83352 0
M  V30 11340 H 1035.7 0.663461 -2.47046 0
M  V30 11341 H 1035.34 1.58016 -4.82694 0
M  V30 11342 H 1035.27 3.2302 -4.15891 0
M  V30 11343 H 1037.76 1.98607 -3.21502 0
M  V30 11344 H 1038.08 3.5162 -6.88174 0
M  V30 11345 H 1036.42 3.1684 -6.18577 0
M  V30 11346 H 1039.61 2.38804 -4.02604 0
M  V30 11347 H 1039.79 3.086 -5.69798 0
M  V30 11348 N 1033.19 1.2685 0.935242 0
M  V30 11349 C 1034.42 1.15645 1.72165 0
M  V30 11350 C 1034.84 -0.283909 1.85945 0
M  V30 11351 O 1034.2 -1.20567 1.354 0
M  V30 11352 C 1034.25 1.83689 3.10307 0
M  V30 11353 O 1033.35 1.12972 3.96625 0
M  V30 11354 H 1032.69 0.402629 0.528002 0
M  V30 11355 H 1035.22 1.67781 1.17093 0
M  V30 11356 H 1035.23 1.90749 3.60664 0
M  V30 11357 H 1033.91 2.88472 2.99595 0
M  V30 11358 H 1032.48 1.13929 3.5507 0
M  V30 11359 N 1034.67 -1.14067 1.0875 0
M  V30 11360 C 1035.62 -2.19261 0.720633 0
M  V30 11361 C 1036.59 -1.63462 -0.294847 0
M  V30 11362 O 1037.77 -1.89967 -0.178058 0
M  V30 11363 C 1034.91 -3.44816 0.139873 0
M  V30 11364 C 1034.03 -4.1475 1.20856 0
M  V30 11365 C 1033.16 -5.27899 0.591285 0
M  V30 11366 C 1032.2 -5.89672 1.64176 0
M  V30 11367 N 1031.34 -6.94264 1.04603 0
M  V30 11368 H 1036.18 -2.49991 1.62198 0
M  V30 11369 H 1033.71 -1.22757 0.810497 0
M  V30 11370 H 1035.67 -4.16648 -0.214587 0
M  V30 11371 H 1034.3 -3.14558 -0.724774 0
M  V30 11372 H 1033.35 -3.41272 1.6804 0
M  V30 11373 H 1034.67 -4.56753 2.00446 0
M  V30 11374 H 1033.82 -6.06417 0.185271 0
M  V30 11375 H 1032.56 -4.87128 -0.236236 0
M  V30 11376 H 1031.56 -5.09854 2.05739 0
M  V30 11377 H 1032.79 -6.32517 2.47182 0
M  V30 11378 H 1030.73 -6.55562 0.239664 0
M  V30 11379 H 1030.65 -7.34771 1.77898 0
M  V30 11380 H 1031.92 -7.7665 0.665989 0
M  V30 11381 N 1036.15 -0.873678 -1.31166 0
M  V30 11382 C 1037.08 -0.276805 -2.26515 0
M  V30 11383 C 1038.06 0.596166 -1.51277 0
M  V30 11384 O 1039.24 0.548769 -1.80335 0
M  V30 11385 C 1036.37 0.607711 -3.33203 0
M  V30 11386 C 1035.42 -0.194411 -4.26057 0
M  V30 11387 S 1036.25 -1.57534 -5.11804 0
M  V30 11388 C 1037.41 -0.697047 -6.22006 0
M  V30 11389 H 1037.64 -1.08505 -2.76792 0
M  V30 11390 H 1035.17 -0.672419 -1.38989 0
M  V30 11391 H 1037.13 1.11234 -3.95142 0
M  V30 11392 H 1035.79 1.38994 -2.81673 0
M  V30 11393 H 1034.98 0.480094 -5.01708 0
M  V30 11394 H 1034.59 -0.631262 -3.68634 0
M  V30 11395 H 1036.88 0.0907919 -6.77439 0
M  V30 11396 H 1037.82 -1.42481 -6.93617 0
M  V30 11397 H 1038.23 -0.262954 -5.63887 0
M  V30 11398 N 1037.63 1.44308 -0.633487 0
M  V30 11399 C 1038.57 2.30694 0.0700257 0
M  V30 11400 C 1039.54 1.43618 0.834447 0
M  V30 11401 O 1040.73 1.72517 0.815014 0
M  V30 11402 C 1037.87 3.28929 1.04403 0
M  V30 11403 C 1036.98 4.31106 0.277779 0
M  V30 11404 C 1036.12 5.16433 1.24381 0
M  V30 11405 C 1035.16 6.10317 0.466855 0
M  V30 11406 N 1034.29 6.88335 1.38347 0
M  V30 11407 H 1039.13 2.90311 -0.672567 0
M  V30 11408 H 1036.67 1.43034 -0.343449 0
M  V30 11409 H 1038.63 3.84373 1.62214 0
M  V30 11410 H 1037.26 2.71006 1.75372 0
M  V30 11411 H 1036.31 3.78115 -0.416292 0
M  V30 11412 H 1037.62 4.97725 -0.327251 0
M  V30 11413 H 1036.78 5.76406 1.89318 0
M  V30 11414 H 1035.51 4.49893 1.88276 0
M  V30 11415 H 1034.52 5.49451 -0.195989 0
M  V30 11416 H 1035.74 6.78894 -0.167414 0
M  V30 11417 H 1033.69 6.24461 2.00959 0
M  V30 11418 H 1033.61 7.51402 0.832517 0
M  V30 11419 H 1034.88 7.52829 2.0216 0
M  V30 11420 N 1039.1 0.374177 1.53094 0
M  V30 11421 C 1040.04 -0.503065 2.23611 0
M  V30 11422 C 1041.05 -1.03915 1.25321 0
M  V30 11423 O 1042.24 -0.944064 1.51492 0
M  V30 11424 C 1039.34 -1.70825 2.92698 0
M  V30 11425 C 1038.51 -1.30217 4.17567 0
M  V30 11426 C 1037.57 -2.37036 4.69788 0
M  V30 11427 O 1036.6 -1.99069 5.33254 0
M  V30 11428 N 1037.8 -3.68743 4.4834 0
M  V30 11429 H 1040.56 0.101013 2.9953 0
M  V30 11430 H 1038.12 0.199778 1.60663 0
M  V30 11431 H 1040.12 -2.41779 3.24538 0
M  V30 11432 H 1038.69 -2.219 2.2018 0
M  V30 11433 H 1037.91 -0.422121 3.91933 0
M  V30 11434 H 1039.19 -1.00728 4.9873 0
M  V30 11435 H 1038.59 -4.0236 3.97647 0
M  V30 11436 H 1037.15 -4.35776 4.84709 0
M  V30 11437 N 1040.58 -1.57259 0.103575 0
M  V30 11438 C 1041.86 -1.86143 -0.600852 0
M  V30 11439 C 1042.24 -1.00198 -1.85805 0
M  V30 11440 O 1041.59 -0.0766791 -2.28371 0
M  V30 11441 C 1041.8 -3.36978 -0.908108 0
M  V30 11442 C 1043.15 -4.05228 -1.26788 0
M  V30 11443 O 1044.17 -3.41908 -0.998859 0
M  V30 11444 O 1043.03 -5.16971 -1.7721 0
M  V30 11445 H 1040.12 -0.770064 -0.301547 0
M  V30 11446 H 1042.67 -1.69147 0.136914 0
M  V30 11447 H 1041.44 -3.91296 -0.0165615 0
M  V30 11448 H 1041.06 -3.5935 -1.70156 0
M  V30 11449 N 1042.06 0.170153 -1.56679 0
M  V30 11450 C 1043.31 0.884902 -1.81252 0
M  V30 11451 C 1043.62 1.83361 -0.681024 0
M  V30 11452 O 1044.83 2.59082 -0.811722 0
M  V30 11453 C 1043.28 1.62408 -3.21172 0
M  V30 11454 C 1042.89 0.718947 -4.42194 0
M  V30 11455 C 1044.64 2.32699 -3.55037 0
M  V30 11456 C 1042.54 1.45843 -5.73135 0
M  V30 11457 H 1041.47 0.33418 -0.675899 0
M  V30 11458 H 1044.12 0.137818 -1.82982 0
M  V30 11459 H 1042.51 2.41596 -3.13763 0
M  V30 11460 H 1043.68 -0.0360521 -4.60786 0
M  V30 11461 H 1042 0.125634 -4.1621 0
M  V30 11462 H 1044.59 2.88621 -4.50114 0
M  V30 11463 H 1044.94 3.08092 -2.79974 0
M  V30 11464 H 1045.47 1.60453 -3.64005 0
M  V30 11465 H 1042.21 0.746799 -6.51232 0
M  V30 11466 H 1041.73 2.18672 -5.58518 0
M  V30 11467 H 1043.41 2.0056 -6.1513 0
M  V30 11468 N 1043.54 1.5137 0.438746 0
M  V30 11469 C 1044.77 1.6753 1.20901 0
M  V30 11470 C 1045.18 0.371573 1.85515 0
M  V30 11471 O 1044.52 -0.659701 1.71446 0
M  V30 11472 C 1044.58 2.73305 2.33548 0
M  V30 11473 C 1044.25 4.15944 1.89313 0
M  V30 11474 C 1045.24 5.00769 1.39736 0
M  V30 11475 C 1042.93 4.62036 1.97047 0
M  V30 11476 C 1044.92 6.29747 0.984773 0
M  V30 11477 C 1042.61 5.91011 1.554 0
M  V30 11478 C 1043.61 6.74693 1.06197 0
M  V30 11479 O 1043.29 8.01256 0.651407 0
M  V30 11480 H 1043.03 0.565404 0.370532 0
M  V30 11481 H 1045.58 1.98543 0.526296 0
M  V30 11482 H 1043.81 2.37604 3.05092 0
M  V30 11483 H 1045.5 2.78359 2.95417 0
M  V30 11484 H 1046.27 4.66363 1.33156 0
M  V30 11485 H 1042.14 3.97025 2.34291 0
M  V30 11486 H 1045.69 6.95015 0.600029 0
M  V30 11487 H 1041.59 6.24932 1.6165 0
M  V30 11488 H 1042.35 8.148 0.777382 0
M  V30 11489 N 1045.02 -0.694098 1.41492 0
M  V30 11490 C 1045.96 -1.80801 1.43456 0
M  V30 11491 C 1046.93 -1.63571 0.288757 0
M  V30 11492 O 1048.12 -1.844 0.490017 0
M  V30 11493 C 1045.26 -3.18694 1.32394 0
M  V30 11494 C 1044.37 -3.47346 2.56855 0
M  V30 11495 C 1043.51 -4.74862 2.38075 0
M  V30 11496 C 1042.55 -4.96486 3.58005 0
M  V30 11497 N 1041.68 -6.15229 3.38287 0
M  V30 11498 H 1046.52 -1.78457 2.38657 0
M  V30 11499 H 1044.06 -0.871455 1.18508 0
M  V30 11500 H 1046.02 -3.98352 1.23982 0
M  V30 11501 H 1044.65 -3.20211 0.407999 0
M  V30 11502 H 1043.7 -2.62083 2.75711 0
M  V30 11503 H 1045.01 -3.59226 3.4606 0
M  V30 11504 H 1044.17 -5.62577 2.27139 0
M  V30 11505 H 1042.9 -4.6523 1.46329 0
M  V30 11506 H 1041.91 -4.07219 3.69395 0
M  V30 11507 H 1043.13 -5.07976 4.50708 0
M  V30 11508 H 1041.08 -6.06807 2.49242 0
M  V30 11509 H 1041 -6.27883 4.21069 0
M  V30 11510 H 1042.27 -7.05674 3.31126 0
M  V30 11511 N 1046.49 -1.27344 -0.928501 0
M  V30 11512 C 1047.43 -1.05797 -2.03322 0
M  V30 11513 C 1048.44 -0.0143086 -1.62794 0
M  V30 11514 O 1049.63 -0.25578 -1.76658 0
M  V30 11515 C 1046.73 -0.582673 -3.33853 0
M  V30 11516 C 1045.9 -1.69844 -4.03078 0
M  V30 11517 C 1044.96 -1.21902 -5.11885 0
M  V30 11518 O 1043.99 -1.91853 -5.35893 0
M  V30 11519 N 1045.19 -0.0742392 -5.80453 0
M  V30 11520 H 1047.95 -2.00928 -2.22369 0
M  V30 11521 H 1045.51 -1.189 -1.09883 0
M  V30 11522 H 1047.51 -0.245862 -4.03952 0
M  V30 11523 H 1046.08 0.27539 -3.11385 0
M  V30 11524 H 1045.3 -2.20557 -3.26723 0
M  V30 11525 H 1046.58 -2.4473 -4.46077 0
M  V30 11526 H 1045.98 0.509631 -5.634 0
M  V30 11527 H 1044.54 0.203399 -6.51483 0
M  V30 11528 N 1047.97 1.13488 -1.09353 0
M  V30 11529 C 1049.22 1.85022 -0.830354 0
M  V30 11530 C 1049.55 1.83266 0.64242 0
M  V30 11531 O 1048.83 1.27024 1.47293 0
M  V30 11532 C 1049.11 3.33218 -1.36521 0
M  V30 11533 C 1048.96 3.43491 -2.90404 0
M  V30 11534 C 1050.28 4.28626 -0.998381 0
M  V30 11535 H 1047.4 0.671786 -0.303105 0
M  V30 11536 H 1050.04 1.33211 -1.3548 0
M  V30 11537 H 1048.19 3.77471 -0.919117 0
M  V30 11538 H 1049.86 3.07954 -3.43456 0
M  V30 11539 H 1048.11 2.84391 -3.27573 0
M  V30 11540 H 1048.78 4.47702 -3.22905 0
M  V30 11541 H 1051.25 3.9244 -1.38311 0
M  V30 11542 H 1050.13 5.30754 -1.39968 0
M  V30 11543 H 1050.39 4.42001 0.093517 0
M  V30 11544 N 1049.45 0.880621 1.30701 0
M  V30 11545 C 1050.68 0.511682 2.00473 0
M  V30 11546 C 1051.09 -0.898684 1.6604 0
M  V30 11547 O 1050.45 -1.59035 0.895218 0
M  V30 11548 C 1050.5 0.671723 3.55204 0
M  V30 11549 O 1050.22 2.02656 3.8841 0
M  V30 11550 C 1051.72 0.3052 4.42248 0
M  V30 11551 H 1048.94 0.198231 0.64105 0
M  V30 11552 H 1051.49 1.18472 1.66687 0
M  V30 11553 H 1049.64 0.0461066 3.87373 0
M  V30 11554 H 1050.06 2.04202 4.83117 0
M  V30 11555 H 1051.53 0.468095 5.50012 0
M  V30 11556 H 1052.01 -0.756456 4.32637 0
M  V30 11557 H 1052.61 0.906959 4.15517 0
M  V30 11558 N 1050.93 -1.4397 0.641131 0
M  V30 11559 C 1051.88 -2.30728 -0.0577905 0
M  V30 11560 C 1052.85 -1.44059 -0.826819 0
M  V30 11561 O 1054.03 -1.72947 -0.805853 0
M  V30 11562 C 1051.17 -3.29478 -1.02657 0
M  V30 11563 C 1050.28 -4.31247 -0.254913 0
M  V30 11564 C 1049.42 -5.17085 -1.2164 0
M  V30 11565 C 1048.46 -6.10556 -0.434481 0
M  V30 11566 N 1047.6 -6.89059 -1.34694 0
M  V30 11567 H 1052.44 -2.8995 0.687953 0
M  V30 11568 H 1049.97 -1.4285 0.351029 0
M  V30 11569 H 1051.93 -3.85228 -1.60173 0
M  V30 11570 H 1050.56 -2.71932 -1.73933 0
M  V30 11571 H 1049.61 -3.77889 0.436338 0
M  V30 11572 H 1050.92 -4.97545 0.353642 0
M  V30 11573 H 1050.08 -5.77402 -1.86258 0
M  V30 11574 H 1048.82 -4.50885 -1.85888 0
M  V30 11575 H 1047.82 -5.49339 0.225125 0
M  V30 11576 H 1049.05 -6.78795 0.203415 0
M  V30 11577 H 1046.99 -6.25518 -1.97644 0
M  V30 11578 H 1046.91 -7.51833 -0.792657 0
M  V30 11579 H 1048.18 -7.5389 -1.98165 0
M  V30 11580 N 1052.41 -0.382291 -1.52893 0
M  V30 11581 C 1053.32 0.463745 -2.29971 0
M  V30 11582 C 1054.33 1.07777 -1.36602 0
M  V30 11583 O 1055.51 1.0851 -1.69669 0
M  V30 11584 C 1052.57 1.57938 -3.08637 0
M  V30 11585 C 1051.64 0.991182 -4.17701 0
M  V30 11586 C 1050.87 2.05365 -4.92606 0
M  V30 11587 O 1051.09 3.26757 -4.67532 0
M  V30 11588 O 1050.03 1.67487 -5.78128 0
M  V30 11589 H 1053.85 -0.163962 -3.03257 0
M  V30 11590 H 1051.44 -0.146199 -1.48683 0
M  V30 11591 H 1053.32 2.22765 -3.57706 0
M  V30 11592 H 1051.99 2.19218 -2.3817 0
M  V30 11593 H 1050.9 0.306364 -3.72843 0
M  V30 11594 H 1052.23 0.422699 -4.90382 0
M  V30 11595 N 1053.89 1.57202 -0.111913 0
M  V30 11596 C 1054.8 2.18475 0.854753 0
M  V30 11597 C 1055.81 1.15888 1.29792 0
M  V30 11598 O 1056.99 1.48329 1.36237 0
M  V30 11599 C 1054.05 2.76645 2.0897 0
M  V30 11600 C 1053.11 3.94244 1.69913 0
M  V30 11601 C 1052.35 4.49631 2.8752 0
M  V30 11602 O 1052.57 4.03926 4.02741 0
M  V30 11603 O 1051.5 5.40417 2.65015 0
M  V30 11604 H 1055.33 3.01519 0.363352 0
M  V30 11605 H 1052.91 1.4897 0.113329 0
M  V30 11606 H 1054.8 3.13755 2.81311 0
M  V30 11607 H 1053.47 1.96637 2.5713 0
M  V30 11608 H 1052.38 3.61915 0.947013 0
M  V30 11609 H 1053.71 4.75666 1.26501 0
M  V30 11610 N 1055.36 -0.161842 1.56767 0
M  V30 11611 C 1056.59 -0.892247 1.86672 0
M  V30 11612 C 1057.01 -1.75407 0.69841 0
M  V30 11613 O 1056.36 -1.7945 -0.332251 0
M  V30 11614 C 1056.41 -1.7612 3.15696 0
M  V30 11615 O 1056.14 -0.934131 4.28025 0
M  V30 11616 C 1057.64 -2.60046 3.59014 0
M  V30 11617 H 1054.86 -0.258747 0.619105 0
M  V30 11618 H 1057.4 -0.159089 2.0388 0
M  V30 11619 H 1055.56 -2.44759 3.00286 0
M  V30 11620 H 1055.97 -1.52931 5.01709 0
M  V30 11621 H 1057.44 -3.16618 4.5217 0
M  V30 11622 H 1057.92 -3.35374 2.83586 0
M  V30 11623 H 1058.53 -1.96724 3.77067 0
M  V30 11624 N 1056.84 -1.516 -0.430713 0
M  V30 11625 C 1058.26 -1.39923 -0.767706 0
M  V30 11626 C 1058.46 -0.486756 -1.95532 0
M  V30 11627 O 1057.51 0.0555965 -2.52439 0
M  V30 11628 C 1058.83 -2.82074 -1.04187 0
M  V30 11629 C 1060.37 -2.9127 -1.1459 0
M  V30 11630 C 1060.85 -4.34342 -1.45295 0
M  V30 11631 N 1062.34 -4.37479 -1.52206 0
M  V30 11632 C 1063.08 -5.45219 -1.77549 0
M  V30 11633 N 1062.57 -6.6311 -2.0064 0
M  V30 11634 N 1064.36 -5.32707 -1.79386 0
M  V30 11635 H 1056.52 -2.09474 0.351351 0
M  V30 11636 H 1058.78 -0.943247 0.0948151 0
M  V30 11637 H 1058.48 -3.50868 -0.241837 0
M  V30 11638 H 1058.36 -3.21805 -1.96777 0
M  V30 11639 H 1060.75 -2.2267 -1.93655 0
M  V30 11640 H 1060.83 -2.55026 -0.198854 0
M  V30 11641 H 1060.47 -5.03494 -0.667559 0
M  V30 11642 H 1060.4 -4.68105 -2.41217 0
M  V30 11643 H 1062.89 -3.52488 -1.36237 0
M  V30 11644 H 1063.2 -7.41012 -2.19366 0
M  V30 11645 H 1061.55 -6.66214 -1.97948 0
M  V30 11646 H 1064.74 -4.39589 -1.60869 0
M  V30 11647 H 1064.91 -6.16752 -1.98799 0
M  V30 11648 N 1058.32 0.686584 -1.41858 0
M  V30 11649 C 1059.27 1.82167 -1.4463 0
M  V30 11650 C 1060.26 1.66286 -0.323313 0
M  V30 11651 O 1061.47 1.73038 -0.495773 0
M  V30 11652 H 1057.84 0.600454 -0.452724 0
M  V30 11653 H 1059.81 1.76947 -2.40276 0
M  V30 11654 C 1058.56 3.20248 -1.35412 0
M  V30 11655 H 1057.89 3.33089 -2.21115 0
M  V30 11656 H 1059.33 3.99723 -1.41413 0
M  V30 11657 C 1057.78 3.36832 -0.0674972 0
M  V30 11658 O 1058.31 3.91845 0.884325 0
M  V30 11659 N 1056.52 2.90598 0.011519 0
M  V30 11660 H 1056.07 2.46016 -0.76381 0
M  V30 11661 H 1056.03 3.02072 0.871774 0
M  V30 11662 N 1059.8 1.27835 0.921735 0
M  V30 11663 C 1060.71 1.12904 2.05645 0
M  V30 11664 C 1061.72 0.0575704 1.73905 0
M  V30 11665 O 1062.9 0.265261 1.99645 0
M  V30 11666 C 1059.96 0.783957 3.3772 0
M  V30 11667 C 1059.03 1.93694 3.8312 0
M  V30 11668 C 1058.26 1.60823 5.08893 0
M  V30 11669 O 1058.48 0.518873 5.68035 0
M  V30 11670 O 1057.42 2.44932 5.49811 0
M  V30 11671 H 1061.24 2.08143 2.21157 0
M  V30 11672 H 1058.83 1.07078 1.04185 0
M  V30 11673 H 1060.71 0.605107 4.17033 0
M  V30 11674 H 1059.38 -0.138849 3.23402 0
M  V30 11675 H 1058.29 2.17089 3.04669 0
M  V30 11676 H 1059.62 2.84016 4.0199 0
M  V30 11677 N 1061.28 -1.12907 1.09954 0
M  V30 11678 C 1062.51 -1.87866 0.859656 0
M  V30 11679 C 1062.91 -1.79664 -0.593096 0
M  V30 11680 O 1062.26 -1.16499 -1.42034 0
M  V30 11681 C 1062.32 -3.38055 1.22308 0
M  V30 11682 C 1061.98 -3.70035 2.68185 0
M  V30 11683 C 1062.98 -3.68817 3.66428 0
M  V30 11684 C 1060.66 -3.99523 3.04444 0
M  V30 11685 C 1062.66 -3.96639 4.98955 0
M  V30 11686 C 1060.35 -4.27006 4.37161 0
M  V30 11687 C 1061.34 -4.25549 5.34225 0
M  V30 11688 O 1061.03 -4.52354 6.64553 0
M  V30 11689 H 1060.76 -0.601425 0.308649 0
M  V30 11690 H 1063.32 -1.43817 1.46649 0
M  V30 11691 H 1061.55 -3.82634 0.559322 0
M  V30 11692 H 1063.24 -3.94348 0.961479 0
M  V30 11693 H 1064 -3.46104 3.3976 0
M  V30 11694 H 1059.88 -3.99801 2.29521 0
M  V30 11695 H 1063.43 -3.95418 5.74709 0
M  V30 11696 H 1059.32 -4.49192 4.6357 0
M  V30 11697 H 1060.09 -4.69997 6.70108 0
M  V30 11698 N 1062.75 -0.88754 -1.30232 0
M  V30 11699 C 1063.68 -0.372481 -2.3051 0
M  V30 11700 C 1064.66 0.546037 -1.61098 0
M  V30 11701 O 1065.85 0.459345 -1.88689 0
M  V30 11702 C 1062.98 0.411605 -3.44852 0
M  V30 11703 C 1061.93 -0.415383 -4.2598 0
M  V30 11704 C 1061.26 0.495463 -5.324 0
M  V30 11705 C 1062.56 -1.65886 -4.95257 0
M  V30 11706 H 1064.25 -1.21045 -2.7384 0
M  V30 11707 H 1061.8 -0.583498 -1.31648 0
M  V30 11708 H 1063.75 0.782584 -4.1407 0
M  V30 11709 H 1062.48 1.28325 -3.00334 0
M  V30 11710 H 1061.14 -0.768534 -3.58454 0
M  V30 11711 H 1060.78 1.36489 -4.84128 0
M  V30 11712 H 1060.48 -0.0540885 -5.87575 0
M  V30 11713 H 1062.01 0.862901 -6.04472 0
M  V30 11714 H 1063.42 -1.35832 -5.56976 0
M  V30 11715 H 1061.82 -2.14881 -5.60309 0
M  V30 11716 H 1062.89 -2.40181 -4.21237 0
M  V30 11717 N 1064.23 1.43628 -0.648757 0
M  V30 11718 C 1065.18 2.32529 0.057536 0
M  V30 11719 C 1066.17 1.48358 0.817699 0
M  V30 11720 O 1067.38 1.64595 0.728605 0
M  V30 11721 H 1063.76 0.75107 0.037388 0
M  V30 11722 H 1065.73 2.89829 -0.710062 0
M  V30 11723 C 1064.48 3.32605 1.01336 0
M  V30 11724 H 1063.8 3.97395 0.437855 0
M  V30 11725 H 1065.24 3.97453 1.47672 0
M  V30 11726 C 1063.7 2.62865 2.10722 0
M  V30 11727 O 1064.23 2.4408 3.19042 0
M  V30 11728 N 1062.43 2.22312 1.87152 0
M  V30 11729 H 1061.98 2.3779 0.990644 0
M  V30 11730 H 1061.94 1.75979 2.60536 0
M  V30 11731 N 1065.71 0.390394 1.52688 0
M  V30 11732 C 1066.66 -0.444229 2.26485 0
M  V30 11733 C 1067.63 -1.05688 1.28138 0
M  V30 11734 O 1068.81 -1.0847 1.56968 0
M  V30 11735 C 1065.95 -1.56501 3.07574 0
M  V30 11736 C 1065.07 -0.975111 4.20851 0
M  V30 11737 C 1064.2 -2.06704 4.89333 0
M  V30 11738 C 1063.24 -1.45309 5.94602 0
M  V30 11739 N 1062.38 -2.48437 6.56676 0
M  V30 11740 H 1067.22 0.191535 2.97384 0
M  V30 11741 H 1064.75 0.106287 1.46716 0
M  V30 11742 H 1066.71 -2.22558 3.52879 0
M  V30 11743 H 1065.34 -2.17107 2.38881 0
M  V30 11744 H 1064.39 -0.204109 3.79852 0
M  V30 11745 H 1065.71 -0.486465 4.96422 0
M  V30 11746 H 1064.86 -2.80528 5.37949 0
M  V30 11747 H 1063.6 -2.58928 4.13289 0
M  V30 11748 H 1062.6 -0.700091 5.45324 0
M  V30 11749 H 1063.83 -0.938775 6.7258 0
M  V30 11750 H 1061.77 -2.99829 5.83471 0
M  V30 11751 H 1061.69 -2.04331 7.27863 0
M  V30 11752 H 1062.96 -3.21888 7.09935 0
M  V30 11753 N 1067.19 -1.57141 0.120249 0
M  V30 11754 C 1068.12 -2.18398 -0.826112 0
M  V30 11755 C 1069.1 -1.12439 -1.27638 0
M  V30 11756 O 1070.28 -1.40679 -1.33877 0
M  V30 11757 C 1067.41 -2.78438 -2.0758 0
M  V30 11758 C 1066.37 -3.89991 -1.76327 0
M  V30 11759 C 1065.69 -4.36844 -3.08336 0
M  V30 11760 C 1066.99 -5.12031 -1.03062 0
M  V30 11761 H 1068.69 -2.97731 -0.315656 0
M  V30 11762 H 1066.23 -1.43213 -0.150387 0
M  V30 11763 H 1068.19 -3.19951 -2.74243 0
M  V30 11764 H 1066.91 -1.96396 -2.60953 0
M  V30 11765 H 1065.57 -3.49055 -1.12053 0
M  V30 11766 H 1065.22 -3.51659 -3.59646 0
M  V30 11767 H 1064.92 -5.1207 -2.88199 0
M  V30 11768 H 1066.44 -4.81009 -3.76116 0
M  V30 11769 H 1067.86 -5.50555 -1.59881 0
M  V30 11770 H 1066.25 -5.92848 -0.930146 0
M  V30 11771 H 1067.32 -4.84897 -0.017582 0
M  V30 11772 N 1068.67 0.153526 -1.5685 0
M  V30 11773 C 1069.58 1.20932 -2.01029 0
M  V30 11774 C 1070.59 1.47401 -0.924598 0
M  V30 11775 O 1071.77 1.592 -1.23359 0
M  V30 11776 C 1068.83 2.52438 -2.37647 0
M  V30 11777 C 1067.89 2.33673 -3.60132 0
M  V30 11778 C 1067.13 3.58909 -3.94994 0
M  V30 11779 O 1067.35 4.64823 -3.30599 0
M  V30 11780 O 1066.28 3.5196 -4.8827 0
M  V30 11781 H 1070.11 0.864273 -2.91143 0
M  V30 11782 H 1067.7 0.361755 -1.44954 0
M  V30 11783 H 1069.58 3.29981 -2.62088 0
M  V30 11784 H 1068.25 2.86486 -1.5069 0
M  V30 11785 H 1067.16 1.54102 -3.40886 0
M  V30 11786 H 1068.49 2.04544 -4.47686 0
M  V30 11787 N 1070.14 1.51827 0.422667 0
M  V30 11788 C 1071.05 1.77066 1.53899 0
M  V30 11789 C 1072.07 0.655541 1.61179 0
M  V30 11790 O 1073.25 0.939448 1.78147 0
M  V30 11791 C 1070.31 1.90372 2.89758 0
M  V30 11792 C 1069.37 3.14256 2.92475 0
M  V30 11793 C 1068.61 3.26918 4.21853 0
M  V30 11794 O 1068.83 2.45164 5.15025 0
M  V30 11795 O 1067.76 4.19989 4.31153 0
M  V30 11796 H 1071.59 2.71791 1.35511 0
M  V30 11797 H 1069.17 1.36506 0.607165 0
M  V30 11798 H 1071.06 2.01024 3.70361 0
M  V30 11799 H 1069.73 0.988347 3.08242 0
M  V30 11800 H 1068.64 3.09072 2.10773 0
M  V30 11801 H 1069.97 4.0553 2.78937 0
M  V30 11802 N 1071.62 -0.679052 1.4222 0
M  V30 11803 C 1072.85 -1.46534 1.45641 0
M  V30 11804 C 1073.26 -1.89088 0.0649574 0
M  V30 11805 O 1072.6 -1.58436 -0.929712 0
M  V30 11806 C 1072.67 -2.74882 2.3169 0
M  V30 11807 C 1072.33 -2.5443 3.79624 0
M  V30 11808 C 1073.33 -2.19307 4.71382 0
M  V30 11809 C 1071.01 -2.69557 4.23845 0
M  V30 11810 C 1073.01 -1.99571 6.05351 0
M  V30 11811 C 1070.69 -2.49437 5.57875 0
M  V30 11812 C 1071.69 -2.14497 6.48444 0
M  V30 11813 O 1071.38 -1.94567 7.79999 0
M  V30 11814 H 1071.11 -0.457542 0.497626 0
M  V30 11815 H 1073.66 -0.842145 1.87342 0
M  V30 11816 H 1071.89 -3.39669 1.8483 0
M  V30 11817 H 1073.58 -3.3675 2.26615 0
M  V30 11818 H 1074.35 -2.0722 4.38503 0
M  V30 11819 H 1070.23 -2.95733 3.53642 0
M  V30 11820 H 1073.77 -1.72222 6.76007 0
M  V30 11821 H 1069.67 -2.61119 5.90328 0
M  V30 11822 H 1070.44 -2.092 7.91314 0
M  V30 11823 N 1073.1 -1.28322 -0.914942 0
M  V30 11824 C 1074.01 -1.13993 -2.05043 0
M  V30 11825 C 1075.03 -0.0667921 -1.73872 0
M  V30 11826 O 1076.2 -0.275845 -1.99502 0
M  V30 11827 C 1073.27 -0.801856 -3.373 0
M  V30 11828 C 1072.33 -1.95723 -3.82088 0
M  V30 11829 C 1071.56 -1.63519 -5.08033 0
M  V30 11830 O 1071.78 -0.54899 -5.67752 0
M  V30 11831 O 1070.72 -2.47844 -5.48504 0
M  V30 11832 H 1074.54 -2.09313 -2.2005 0
M  V30 11833 H 1072.13 -1.0763 -1.03616 0
M  V30 11834 H 1074.01 -0.627214 -4.16706 0
M  V30 11835 H 1072.69 0.121696 -3.23471 0
M  V30 11836 H 1071.59 -2.18702 -3.03514 0
M  V30 11837 H 1072.93 -2.86144 -4.00478 0
M  V30 11838 N 1074.58 1.12322 -1.10551 0
M  V30 11839 C 1075.86 1.80201 -0.760715 0
M  V30 11840 C 1076.24 1.97228 0.752628 0
M  V30 11841 O 1075.58 1.54958 1.67929 0
M  V30 11842 C 1075.79 3.14491 -1.51316 0
M  V30 11843 C 1077.14 3.89671 -1.68647 0
M  V30 11844 O 1078.17 3.24151 -1.47664 0
M  V30 11845 O 1077.02 5.0722 -2.03445 0
M  V30 11846 H 1074.12 0.780084 -0.274587 0
M  V30 11847 H 1076.66 1.19147 -1.20839 0
M  V30 11848 H 1075.44 2.97396 -2.54306 0
M  V30 11849 H 1075.06 3.83253 -1.05842 0
M  V30 11850 N 1076.06 0.894434 1.2976 0
M  V30 11851 C 1077.3 0.527831 1.96432 0
M  V30 11852 C 1077.66 -0.914793 1.69261 0
M  V30 11853 O 1076.95 -1.63911 0.99215 0
M  V30 11854 C 1077.14 0.750307 3.49435 0
M  V30 11855 C 1076.97 2.213 3.91479 0
M  V30 11856 C 1075.74 2.85943 4.16611 0
M  V30 11857 C 1077.94 3.18771 4.03595 0
M  V30 11858 N 1075.92 4.2271 4.45185 0
M  V30 11859 C 1077.29 4.40641 4.3616 0
M  V30 11860 C 1079.35 3.14432 3.86053 0
M  V30 11861 C 1078.05 5.58725 4.53011 0
M  V30 11862 C 1080.08 4.31797 4.0411 0
M  V30 11863 C 1079.44 5.52435 4.37029 0
M  V30 11864 H 1075.54 0.242654 0.7434 0
M  V30 11865 H 1078.12 1.15415 1.56804 0
M  V30 11866 H 1076.29 0.153411 3.88097 0
M  V30 11867 H 1078.03 0.349663 4.03187 0
M  V30 11868 H 1074.78 2.36763 4.10171 0
M  V30 11869 H 1075.21 4.9337 4.63589 0
M  V30 11870 H 1079.85 2.22255 3.5967 0
M  V30 11871 H 1077.57 6.51398 4.78232 0
M  V30 11872 H 1081.15 4.2992 3.91995 0
M  V30 11873 H 1080.03 6.41738 4.50712 0
M  V30 11874 N 1077.53 -1.43282 0.656365 0
M  V30 11875 C 1078.46 -2.33492 -0.0196962 0
M  V30 11876 C 1079.45 -1.49647 -0.80868 0
M  V30 11877 O 1080.63 -1.78303 -0.769529 0
M  V30 11878 C 1077.76 -3.33052 -0.984574 0
M  V30 11879 C 1076.71 -4.26908 -0.305483 0
M  V30 11880 C 1076.04 -5.16531 -1.38202 0
M  V30 11881 C 1077.34 -5.16073 0.804081 0
M  V30 11882 H 1079.03 -2.90272 0.733661 0
M  V30 11883 H 1076.58 -1.39574 0.354259 0
M  V30 11884 H 1078.53 -3.9506 -1.46647 0
M  V30 11885 H 1077.26 -2.74535 -1.76913 0
M  V30 11886 H 1075.92 -3.66268 0.155995 0
M  V30 11887 H 1075.56 -4.54351 -2.1581 0
M  V30 11888 H 1075.26 -5.80148 -0.932878 0
M  V30 11889 H 1076.79 -5.81414 -1.86522 0
M  V30 11890 H 1078.2 -5.71873 0.404212 0
M  V30 11891 H 1076.6 -5.88427 1.17789 0
M  V30 11892 H 1077.67 -4.55574 1.66073 0
M  V30 11893 N 1079.01 -0.398486 -1.52479 0
M  V30 11894 C 1080.24 0.180295 -2.05812 0
M  V30 11895 C 1080.65 1.40301 -1.26934 0
M  V30 11896 O 1079.99 1.81039 -0.311544 0
M  V30 11897 C 1080.06 0.60601 -3.54355 0
M  V30 11898 C 1079.72 -0.504508 -4.54207 0
M  V30 11899 C 1080.72 -1.36478 -5.01667 0
M  V30 11900 C 1078.4 -0.674161 -4.97755 0
M  V30 11901 C 1080.4 -2.37975 -5.91309 0
M  V30 11902 C 1078.08 -1.69246 -5.87196 0
M  V30 11903 C 1079.08 -2.54367 -6.33866 0
M  V30 11904 O 1078.77 -3.54454 -7.21538 0
M  V30 11905 H 1078.5 0.0286396 -0.675393 0
M  V30 11906 H 1081.06 -0.564912 -1.97479 0
M  V30 11907 H 1079.29 1.40334 -3.60338 0
M  V30 11908 H 1080.97 1.1115 -3.90385 0
M  V30 11909 H 1081.74 -1.24506 -4.68746 0
M  V30 11910 H 1077.62 -0.0213029 -4.60995 0
M  V30 11911 H 1081.16 -3.0445 -6.27659 0
M  V30 11912 H 1077.06 -1.81252 -6.1953 0
M  V30 11913 H 1077.83 -3.50571 -7.39623 0
M  V30 11914 N 1080.49 1.57075 -0.12858 0
M  V30 11915 C 1081.72 1.99876 0.534544 0
M  V30 11916 C 1082.13 1.00843 1.59612 0
M  V30 11917 O 1081.49 0.00268947 1.825 0
M  V30 11918 C 1081.54 3.42654 1.15198 0
M  V30 11919 O 1081.26 4.37899 0.132823 0
M  V30 11920 C 1082.76 4.00637 1.8975 0
M  V30 11921 H 1079.98 0.656073 0.140744 0
M  V30 11922 H 1082.53 2.03337 -0.217742 0
M  V30 11923 H 1080.68 3.40101 1.85499 0
M  V30 11924 H 1081.1 5.21253 0.582682 0
M  V30 11925 H 1082.57 5.02592 2.28266 0
M  V30 11926 H 1083.05 3.40313 2.7764 0
M  V30 11927 H 1083.65 4.06764 1.2419 0
M  V30 11928 N 1081.97 -0.145205 1.5693 0
M  V30 11929 C 1082.88 -1.19864 2.01667 0
M  V30 11930 C 1083.9 -1.46909 0.932402 0
M  V30 11931 O 1085.07 -1.58543 1.24201 0
M  V30 11932 C 1082.14 -2.51174 2.38982 0
M  V30 11933 C 1081.2 -2.3176 3.61366 0
M  V30 11934 C 1080.43 -3.56809 3.96892 0
M  V30 11935 O 1080.65 -4.63063 3.33059 0
M  V30 11936 O 1079.59 -3.49366 4.9013 0
M  V30 11937 H 1083.41 -0.848821 2.91597 0
M  V30 11938 H 1081 -0.354063 1.45144 0
M  V30 11939 H 1082.88 -3.28587 2.63835 0
M  V30 11940 H 1081.56 -2.85683 1.52207 0
M  V30 11941 H 1080.46 -1.52293 3.41698 0
M  V30 11942 H 1081.8 -2.02167 4.48764 0
M  V30 11943 N 1083.45 -1.52049 -0.414609 0
M  V30 11944 C 1084.39 -1.74998 -1.5048 0
M  V30 11945 C 1085.36 -0.592251 -1.55182 0
M  V30 11946 O 1086.55 -0.829203 -1.7184 0
M  V30 11947 C 1083.69 -1.90157 -2.87983 0
M  V30 11948 C 1082.8 -3.17789 -2.92633 0
M  V30 11949 C 1081.94 -3.23411 -4.21401 0
M  V30 11950 C 1080.98 -4.45267 -4.20004 0
M  V30 11951 N 1080.11 -4.48312 -5.40334 0
M  V30 11952 H 1084.95 -2.68046 -1.30212 0
M  V30 11953 H 1082.49 -1.32824 -0.632154 0
M  V30 11954 H 1084.45 -1.96929 -3.67797 0
M  V30 11955 H 1083.08 -1.00496 -3.06758 0
M  V30 11956 H 1082.13 -3.20216 -2.05343 0
M  V30 11957 H 1083.44 -4.07634 -2.87465 0
M  V30 11958 H 1082.6 -3.29224 -5.09604 0
M  V30 11959 H 1081.34 -2.31495 -4.29257 0
M  V30 11960 H 1080.34 -4.39606 -3.30192 0
M  V30 11961 H 1081.57 -5.38472 -4.13793 0
M  V30 11962 H 1079.51 -3.59277 -5.48868 0
M  V30 11963 H 1079.43 -5.31994 -5.37139 0
M  V30 11964 H 1080.7 -4.58347 -6.30506 0
M  V30 11965 N 1084.93 0.6715 -1.42579 0
M  V30 11966 C 1086.2 1.42766 -1.33706 0
M  V30 11967 C 1086.58 2.11086 0.0239748 0
M  V30 11968 O 1085.93 2.03479 1.03964 0
M  V30 11969 C 1086.14 2.42739 -2.50756 0
M  V30 11970 C 1087.49 3.07284 -2.93021 0
M  V30 11971 O 1088.51 2.53066 -2.50671 0
M  V30 11972 O 1087.37 4.05541 -3.66331 0
M  V30 11973 H 1084.47 0.636955 -0.527463 0
M  V30 11974 H 1087.01 0.699946 -1.54593 0
M  V30 11975 H 1085.78 1.91076 -3.41476 0
M  V30 11976 H 1085.41 3.22986 -2.31874 0
M  V30 11977 N 1086.4 1.28806 0.908124 0
M  V30 11978 C 1087.31 1.15079 2.04436 0
M  V30 11979 C 1088.33 0.076012 1.73834 0
M  V30 11980 O 1089.51 0.286421 1.99353 0
M  V30 11981 C 1086.57 0.819733 3.3687 0
M  V30 11982 C 1085.63 1.97746 3.81045 0
M  V30 11983 C 1084.86 1.66211 5.07158 0
M  V30 11984 O 1085.09 0.579092 5.67453 0
M  V30 11985 O 1084.02 2.5075 5.47182 0
M  V30 11986 H 1087.85 2.10477 2.18937 0
M  V30 11987 H 1085.43 1.08177 1.03044 0
M  V30 11988 H 1087.31 0.649304 4.16368 0
M  V30 11989 H 1085.99 -0.10454 3.23531 0
M  V30 11990 H 1084.9 2.20308 3.02349 0
M  V30 11991 H 1086.23 2.88264 3.98955 0
M  V30 11992 N 1087.88 -1.11734 1.11145 0
M  V30 11993 C 1089.29 -1.64928 0.874959 0
M  V30 11994 C 1089.64 -1.87012 -0.593375 0
M  V30 11995 O 1088.77 -1.60206 -1.45475 0
M  V30 11996 C 1089.36 -2.99608 1.58178 0
M  V30 11997 C 1087.92 -3.49723 1.39179 0
M  V30 11998 C 1087.07 -2.24595 1.62642 0
M  V30 11999 H 1090.02 -0.954154 1.26813 0
M  V30 12000 H 1090.04 -3.66434 1.02501 0
M  V30 12001 H 1089.55 -2.83504 2.65042 0
M  V30 12002 H 1087.65 -3.70998 0.345111 0
M  V30 12003 H 1087.77 -4.28711 2.13878 0
M  V30 12004 H 1086.13 -2.32067 1.04961 0
M  V30 12005 H 1086.91 -2.11036 2.70774 0
M  V30 12006 N 1089.36 -0.901303 -1.29284 0
M  V30 12007 C 1090.29 -0.396909 -2.30102 0
M  V30 12008 C 1091.27 0.528919 -1.61668 0
M  V30 12009 O 1092.46 0.439306 -1.89166 0
M  V30 12010 C 1089.59 0.375006 -3.45269 0
M  V30 12011 C 1088.54 -0.46054 -4.25515 0
M  V30 12012 C 1087.87 0.438967 -5.32895 0
M  V30 12013 C 1089.17 -1.7113 -4.93469 0
M  V30 12014 H 1090.86 -1.23943 -2.72541 0
M  V30 12015 H 1088.41 -0.597428 -1.31022 0
M  V30 12016 H 1090.36 0.738622 -4.14876 0
M  V30 12017 H 1089.08 1.25132 -3.01678 0
M  V30 12018 H 1087.74 -0.80651 -3.57618 0
M  V30 12019 H 1087.39 1.31346 -4.85548 0
M  V30 12020 H 1087.09 -0.116406 -5.87485 0
M  V30 12021 H 1088.61 0.79874 -6.05353 0
M  V30 12022 H 1090.03 -1.41732 -5.55504 0
M  V30 12023 H 1088.42 -2.20811 -5.57999 0
M  V30 12024 H 1089.49 -2.44636 -4.18666 0
M  V30 12025 N 1090.84 1.42931 -0.663954 0
M  V30 12026 C 1091.75 2.3459 0.0214234 0
M  V30 12027 C 1092.76 1.54487 0.800611 0
M  V30 12028 O 1093.94 1.87098 0.74541 0
M  V30 12029 C 1091 3.32896 0.968556 0
M  V30 12030 C 1090.07 4.28901 0.185108 0
M  V30 12031 C 1089.3 5.2251 1.08713 0
M  V30 12032 O 1089.52 5.20795 2.32655 0
M  V30 12033 O 1088.46 5.99347 0.553758 0
M  V30 12034 H 1092.28 2.94714 -0.733308 0
M  V30 12035 H 1089.87 1.43252 -0.424159 0
M  V30 12036 H 1091.75 3.93318 1.51257 0
M  V30 12037 H 1090.42 2.75261 1.70333 0
M  V30 12038 H 1089.33 3.71926 -0.402752 0
M  V30 12039 H 1090.66 4.89547 -0.510319 0
M  V30 12040 N 1092.32 0.406567 1.52266 0
M  V30 12041 C 1093.26 -0.43489 2.28498 0
M  V30 12042 C 1094.26 -1.04806 1.33086 0
M  V30 12043 O 1095.46 -0.986557 1.50556 0
M  V30 12044 H 1091.84 -0.159023 0.734994 0
M  V30 12045 H 1093.81 0.229316 2.97518 0
M  V30 12046 C 1092.56 -1.54073 3.117 0
M  V30 12047 H 1091.88 -1.07824 3.84986 0
M  V30 12048 H 1093.32 -2.10337 3.6815 0
M  V30 12049 C 1091.78 -2.50662 2.251 0
M  V30 12050 O 1092.31 -3.54486 1.88951 0
M  V30 12051 N 1090.52 -2.20811 1.8892 0
M  V30 12052 H 1090.06 -1.36413 2.18516 0
M  V30 12053 H 1090.02 -2.85684 1.3127 0
M  V30 12054 N 1093.79 -1.57004 0.136909 0
M  V30 12055 C 1095.04 -1.96087 -0.517477 0
M  V30 12056 C 1095.37 -1.0213 -1.65176 0
M  V30 12057 O 1094.65 -0.0617958 -1.94402 0
M  V30 12058 C 1094.93 -3.44958 -1.03323 0
M  V30 12059 C 1094.78 -4.49691 0.0988609 0
M  V30 12060 C 1096.1 -3.96091 -1.91832 0
M  V30 12061 H 1093.22 -0.712978 -0.186632 0
M  V30 12062 H 1095.86 -1.88767 0.216095 0
M  V30 12063 H 1094.01 -3.51327 -1.65836 0
M  V30 12064 H 1095.69 -4.55409 0.734847 0
M  V30 12065 H 1093.93 -4.271 0.75947 0
M  V30 12066 H 1094.6 -5.51165 -0.303554 0
M  V30 12067 H 1097.08 -3.92139 -1.39164 0
M  V30 12068 H 1095.95 -5.00742 -2.24831 0
M  V30 12069 H 1096.21 -3.37846 -2.85153 0
M  V30 12070 N 1095.27 0.136881 -1.57004 0
M  V30 12071 C 1096.5 0.866405 -1.88436 0
M  V30 12072 C 1096.92 1.73483 -0.727006 0
M  V30 12073 O 1096.28 1.78398 0.323094 0
M  V30 12074 C 1096.33 1.69059 -3.18514 0
M  V30 12075 O 1095.43 2.79584 -3.03161 0
M  V30 12076 H 1094.77 0.240709 -0.618834 0
M  V30 12077 H 1097.3 0.124653 -2.0422 0
M  V30 12078 H 1097.31 2.08353 -3.50789 0
M  V30 12079 H 1095.99 1.05296 -4.0235 0
M  V30 12080 H 1094.57 2.43623 -2.82315 0
M  V30 12081 N 1096.75 1.52266 0.40654 0
M  V30 12082 C 1097.7 1.76409 1.516 0
M  V30 12083 C 1098.69 0.631311 1.57197 0
M  V30 12084 O 1099.9 0.813413 1.60573 0
M  V30 12085 H 1096.27 0.557904 0.50423 0
M  V30 12086 H 1098.24 2.69351 1.28424 0
M  V30 12087 C 1096.99 1.93415 2.88939 0
M  V30 12088 H 1096.32 2.8 2.85377 0
M  V30 12089 H 1097.76 2.14306 3.65854 0
M  V30 12090 C 1096.22 0.701938 3.29506 0
M  V30 12091 O 1096.75 -0.128965 4.01493 0
M  V30 12092 N 1094.95 0.537089 2.85594 0
M  V30 12093 H 1094.5 1.21435 2.27181 0
M  V30 12094 H 1094.46 -0.286055 3.13096 0
M  V30 12095 N 1098.23 -0.663929 1.42933 0
M  V30 12096 C 1099.18 -1.77717 1.47259 0
M  V30 12097 C 1100.15 -1.62922 0.323387 0
M  V30 12098 O 1101.33 -1.83319 0.529021 0
M  V30 12099 C 1098.47 -3.15814 1.39124 0
M  V30 12100 C 1097.58 -3.4182 2.64165 0
M  V30 12101 C 1096.72 -4.69705 2.48094 0
M  V30 12102 C 1095.76 -4.88781 3.68456 0
M  V30 12103 N 1094.89 -6.07915 3.51261 0
M  V30 12104 H 1099.73 -1.73355 2.42388 0
M  V30 12105 H 1097.27 -0.846121 1.2033 0
M  V30 12106 H 1099.23 -3.95633 1.32403 0
M  V30 12107 H 1097.86 -3.19274 0.475829 0
M  V30 12108 H 1096.91 -2.56176 2.81208 0
M  V30 12109 H 1098.22 -3.51805 3.53602 0
M  V30 12110 H 1097.38 -5.57632 2.39021 0
M  V30 12111 H 1096.12 -4.62022 1.56164 0
M  V30 12112 H 1095.12 -3.99292 3.7795 0
M  V30 12113 H 1096.35 -4.98301 4.61381 0
M  V30 12114 H 1094.29 -6.01384 2.62057 0
M  V30 12115 H 1094.21 -6.1881 4.34293 0
M  V30 12116 H 1095.48 -6.98492 3.4602 0
M  V30 12117 N 1099.71 -1.29285 -0.901281 0
M  V30 12118 C 1100.96 -1.16538 -1.64626 0
M  V30 12119 C 1101.27 0.282623 -1.93547 0
M  V30 12120 O 1102.47 0.531396 -2.66249 0
M  V30 12121 C 1100.93 -2.03809 -2.96631 0
M  V30 12122 C 1100.54 -3.53423 -2.75311 0
M  V30 12123 C 1102.28 -1.99782 -3.7455 0
M  V30 12124 C 1100.19 -4.32804 -4.03032 0
M  V30 12125 H 1099.12 -0.432561 -0.617581 0
M  V30 12126 H 1101.77 -1.53912 -0.999159 0
M  V30 12127 H 1100.15 -1.59302 -3.62545 0
M  V30 12128 H 1101.33 -4.05971 -2.18 0
M  V30 12129 H 1099.64 -3.59106 -2.10789 0
M  V30 12130 H 1102.24 -2.5635 -4.69243 0
M  V30 12131 H 1102.58 -0.97743 -4.04663 0
M  V30 12132 H 1103.11 -2.42324 -3.15474 0
M  V30 12133 H 1099.85 -5.35473 -3.78086 0
M  V30 12134 H 1099.37 -3.85025 -4.59909 0
M  V30 12135 H 1101.05 -4.43383 -4.71191 0
M  V30 12136 N 1101.18 1.11143 -1.11736 0
M  V30 12137 C 1102.13 2.15396 -0.747566 0
M  V30 12138 C 1103.12 1.58948 0.249894 0
M  V30 12139 O 1104.31 1.7691 0.0565267 0
M  V30 12140 C 1101.44 3.42741 -0.195776 0
M  V30 12141 C 1100.53 4.06141 -1.22109 0
M  V30 12142 N 1100.92 4.44351 -2.41631 0
M  V30 12143 C 1099.21 4.33104 -1.06474 0
M  V30 12144 C 1099.92 4.94062 -3.07046 0
M  V30 12145 N 1098.89 4.90411 -2.34516 0
M  V30 12146 H 1102.69 2.42722 -1.6572 0
M  V30 12147 H 1100.21 1.28189 -0.997059 0
M  V30 12148 H 1102.2 4.16809 0.0872984 0
M  V30 12149 H 1100.86 3.16878 0.708406 0
M  V30 12150 H 1101.88 4.36283 -2.79065 0
M  V30 12151 H 1098.55 4.16934 -0.217246 0
M  V30 12152 H 1099.94 5.33234 -4.08792 0
M  V30 12153 N 1102.66 0.908147 1.28804 0
M  V30 12154 C 1103.57 0.397167 2.31214 0
M  V30 12155 C 1104.59 -0.512352 1.66286 0
M  V30 12156 O 1105.76 -0.399893 1.9739 0
M  V30 12157 C 1102.83 -0.359522 3.44831 0
M  V30 12158 C 1101.89 0.582539 4.25329 0
M  V30 12159 C 1101.12 -0.138133 5.33521 0
M  V30 12160 O 1101.35 -1.36076 5.53931 0
M  V30 12161 O 1100.28 0.523682 5.99618 0
M  V30 12162 H 1104.11 1.247 2.76918 0
M  V30 12163 H 1101.69 0.672766 1.33395 0
M  V30 12164 H 1103.57 -0.787098 4.13984 0
M  V30 12165 H 1102.25 -1.18528 3.01219 0
M  V30 12166 H 1101.16 1.0594 3.58786 0
M  V30 12167 H 1102.49 1.37495 4.72605 0
M  V30 12168 N 1104.14 -1.42577 0.671525 0
M  V30 12169 C 1105.07 -2.33499 0.00506984 0
M  V30 12170 C 1106.05 -1.50497 -0.792763 0
M  V30 12171 O 1107.24 -1.79109 -0.750574 0
M  V30 12172 C 1104.37 -3.34077 -0.949194 0
M  V30 12173 C 1103.32 -4.27208 -0.260187 0
M  V30 12174 C 1102.65 -5.17968 -1.32716 0
M  V30 12175 C 1103.95 -5.15192 0.858772 0
M  V30 12176 H 1105.64 -2.89477 0.764407 0
M  V30 12177 H 1103.19 -1.39191 0.369043 0
M  V30 12178 H 1105.14 -3.96594 -1.42448 0
M  V30 12179 H 1103.86 -2.76396 -1.73991 0
M  V30 12180 H 1102.52 -3.66082 0.194834 0
M  V30 12181 H 1102.17 -4.56615 -2.10979 0
M  V30 12182 H 1101.87 -5.81104 -0.871293 0
M  V30 12183 H 1103.39 -5.83359 -1.80345 0
M  V30 12184 H 1104.81 -5.71412 0.464844 0
M  V30 12185 H 1103.21 -5.87144 1.24023 0
M  V30 12186 H 1104.28 -4.53787 1.70895 0
M  V30 12187 N 1105.62 -0.414636 -1.52048 0
M  V30 12188 C 1106.55 0.443601 -2.24866 0
M  V30 12189 C 1107.56 1.00556 -1.28032 0
M  V30 12190 O 1108.75 0.903566 -1.53941 0
M  V30 12191 C 1105.85 1.63004 -2.97124 0
M  V30 12192 C 1105.03 1.191 -4.20873 0
M  V30 12193 C 1104.08 2.24497 -4.75907 0
M  V30 12194 O 1103.11 1.84861 -5.38345 0
M  V30 12195 N 1104.31 3.56727 -4.57959 0
M  V30 12196 H 1107.08 -0.180393 -2.99157 0
M  V30 12197 H 1104.64 -0.242305 -1.60077 0
M  V30 12198 H 1106.63 2.33089 -3.30835 0
M  V30 12199 H 1105.2 2.15984 -2.25986 0
M  V30 12200 H 1104.42 0.318059 -3.92915 0
M  V30 12201 H 1105.71 0.874699 -5.01225 0
M  V30 12202 H 1105.11 3.91675 -4.08175 0
M  V30 12203 H 1103.66 4.22772 -4.96092 0
M  V30 12204 N 1107.1 1.56929 -0.145233 0
M  V30 12205 C 1108.37 1.8767 0.551288 0
M  V30 12206 C 1108.75 1.05089 1.83083 0
M  V30 12207 O 1108.1 0.137201 2.28088 0
M  V30 12208 C 1108.31 3.39268 0.818445 0
M  V30 12209 C 1109.66 4.08447 1.16 0
M  V30 12210 O 1110.68 3.44436 0.907857 0
M  V30 12211 O 1109.54 5.21488 1.63441 0
M  V30 12212 H 1106.64 0.777788 0.281024 0
M  V30 12213 H 1109.18 1.68724 -0.181712 0
M  V30 12214 H 1107.95 3.91203 -0.0871897 0
M  V30 12215 H 1107.58 3.63735 1.60569 0
M  V30 12216 N 1108.58 -0.128553 1.57075 0
M  V30 12217 C 1109.82 -0.836536 1.83535 0
M  V30 12218 C 1110.14 -1.81491 0.7294 0
M  V30 12219 O 1111.34 -2.56838 0.880128 0
M  V30 12220 C 1109.8 -1.53836 3.25365 0
M  V30 12221 C 1109.41 -0.601454 4.43944 0
M  V30 12222 C 1111.15 -2.23204 3.61082 0
M  V30 12223 C 1109.06 -1.30596 5.768 0
M  V30 12224 H 1107.99 -0.316142 0.684522 0
M  V30 12225 H 1110.64 -0.0892555 1.83283 0
M  V30 12226 H 1109.02 -2.33192 3.20058 0
M  V30 12227 H 1110.2 0.158209 4.60528 0
M  V30 12228 H 1108.51 -0.0152393 4.16397 0
M  V30 12229 H 1111.11 -2.76585 4.57608 0
M  V30 12230 H 1111.45 -3.0056 2.88044 0
M  V30 12231 H 1111.98 -1.50746 3.68131 0
M  V30 12232 H 1108.72 -0.573874 6.52983 0
M  V30 12233 H 1108.24 -2.03787 5.6412 0
M  V30 12234 H 1109.92 -1.8418 6.20231 0
M  V30 12235 N 1110.05 -1.5248 -0.398459 0
M  V30 12236 C 1111.28 -1.70677 -1.16417 0
M  V30 12237 C 1111.69 -0.420629 -1.84465 0
M  V30 12238 O 1111.03 0.614013 -1.73135 0
M  V30 12239 C 1111.1 -2.79401 -2.2622 0
M  V30 12240 C 1110.76 -4.20817 -1.78218 0
M  V30 12241 C 1111.76 -5.04298 -1.26409 0
M  V30 12242 C 1109.44 -4.67098 -1.84728 0
M  V30 12243 C 1111.44 -6.32136 -0.817461 0
M  V30 12244 C 1109.12 -5.94923 -1.39676 0
M  V30 12245 C 1110.12 -6.77272 -0.882716 0
M  V30 12246 O 1109.81 -8.02702 -0.438739 0
M  V30 12247 H 1109.54 -0.57503 -0.355411 0
M  V30 12248 H 1112.1 -1.99868 -0.473471 0
M  V30 12249 H 1110.33 -2.4561 -2.98685 0
M  V30 12250 H 1112.01 -2.86093 -2.87933 0
M  V30 12251 H 1112.78 -4.6973 -1.20744 0
M  V30 12252 H 1108.66 -4.03097 -2.23682 0
M  V30 12253 H 1112.2 -6.96361 -0.415548 0
M  V30 12254 H 1108.1 -6.28998 -1.45024 0
M  V30 12255 H 1108.87 -8.16575 -0.561079 0
M  V30 12256 N 1111.53 0.65634 -1.43283 0
M  V30 12257 C 1112.48 1.79058 -1.48462 0
M  V30 12258 C 1113.47 1.65563 -0.358512 0
M  V30 12259 O 1114.68 1.71947 -0.532365 0
M  V30 12260 H 1111.05 0.590716 -0.465358 0
M  V30 12261 H 1113.03 1.7181 -2.43975 0
M  V30 12262 C 1111.77 3.17304 -1.42175 0
M  V30 12263 H 1111.1 3.28324 -2.2813 0
M  V30 12264 H 1112.54 3.96633 -1.4986 0
M  V30 12265 C 1111 3.36613 -0.138929 0
M  V30 12266 O 1111.53 3.93633 0.80101 0
M  V30 12267 N 1109.73 2.90557 -0.0501237 0
M  V30 12268 H 1109.28 2.4434 -0.815821 0
M  V30 12269 H 1109.24 3.03853 0.807504 0
M  V30 12270 N 1113.01 1.29761 0.894412 0
M  V30 12271 C 1114.42 1.16275 1.46072 0
M  V30 12272 C 1114.77 -0.240123 1.94725 0
M  V30 12273 O 1113.9 -1.13606 1.84181 0
M  V30 12274 C 1114.49 2.10471 2.65494 0
M  V30 12275 C 1113.05 2.00992 3.18244 0
M  V30 12276 C 1112.2 2.01094 1.90936 0
M  V30 12277 H 1115.15 1.42169 0.705243 0
M  V30 12278 H 1115.17 1.68003 3.41402 0
M  V30 12279 H 1114.68 3.12566 2.30053 0
M  V30 12280 H 1112.78 1.02005 3.58365 0
M  V30 12281 H 1112.9 2.88916 3.82184 0
M  V30 12282 H 1111.26 1.45764 2.08866 0
M  V30 12283 H 1112.04 3.04902 1.57764 0
M  V30 12284 N 1114.49 -1.10549 1.12324 0
M  V30 12285 C 1115.74 -1.81851 0.872531 0
M  V30 12286 C 1116.05 -1.86058 -0.603468 0
M  V30 12287 O 1117.26 -2.53553 -0.970736 0
M  V30 12288 C 1115.71 -3.26631 1.51131 0
M  V30 12289 C 1115.32 -3.30725 3.02201 0
M  V30 12290 C 1117.06 -4.02768 1.34082 0
M  V30 12291 C 1114.97 -4.69957 3.59018 0
M  V30 12292 H 1113.9 -0.681422 0.322769 0
M  V30 12293 H 1116.55 -1.24332 1.34959 0
M  V30 12294 H 1114.93 -3.8414 0.961913 0
M  V30 12295 H 1116.11 -2.83046 3.63623 0
M  V30 12296 H 1114.42 -2.68072 3.18632 0
M  V30 12297 H 1117.02 -5.05612 1.73955 0
M  V30 12298 H 1117.36 -4.15328 0.284369 0
M  V30 12299 H 1117.9 -3.51671 1.85937 0
M  V30 12300 H 1114.63 -4.62597 4.64418 0
M  V30 12301 H 1114.15 -5.18008 3.02371 0
M  V30 12302 H 1115.83 -5.38925 3.58007 0
M  V30 12303 N 1115.97 -0.914965 -1.28321 0
M  V30 12304 C 1116.91 -0.402792 -2.27258 0
M  V30 12305 C 1117.88 0.523412 -1.57638 0
M  V30 12306 O 1119.07 0.445344 -1.8553 0
M  V30 12307 C 1116.21 0.349956 -3.43321 0
M  V30 12308 C 1115.32 -0.608892 -4.27687 0
M  V30 12309 C 1114.46 0.162425 -5.30952 0
M  V30 12310 C 1113.49 -0.789959 -6.06981 0
M  V30 12311 N 1112.63 -0.0520826 -7.02081 0
M  V30 12312 H 1117.47 -1.25153 -2.70446 0
M  V30 12313 H 1115.01 -0.628444 -1.33 0
M  V30 12314 H 1116.97 0.802589 -4.09407 0
M  V30 12315 H 1115.6 1.16303 -3.01121 0
M  V30 12316 H 1114.65 -1.18005 -3.61634 0
M  V30 12317 H 1115.96 -1.33727 -4.8054 0
M  V30 12318 H 1115.11 0.675563 -6.02927 0
M  V30 12319 H 1113.85 0.923851 -4.7887 0
M  V30 12320 H 1112.86 -1.31446 -5.33856 0
M  V30 12321 H 1114.08 -1.55096 -6.61152 0
M  V30 12322 H 1112.03 0.691331 -6.52347 0
M  V30 12323 H 1111.95 -0.720267 -7.52561 0
M  V30 12324 H 1113.21 0.44082 -7.78253 0
M  V30 12325 N 1117.44 1.42219 -0.679077 0
M  V30 12326 C 1118.35 2.346 -0.00345919 0
M  V30 12327 C 1119.37 1.55327 0.784181 0
M  V30 12328 O 1120.55 1.87878 0.725524 0
M  V30 12329 C 1117.61 3.33905 0.933194 0
M  V30 12330 C 1116.67 4.29073 0.139607 0
M  V30 12331 C 1115.9 5.23634 1.03165 0
M  V30 12332 O 1116.13 5.23234 2.27119 0
M  V30 12333 O 1115.06 5.99901 0.490159 0
M  V30 12334 H 1118.89 2.9392 -0.764525 0
M  V30 12335 H 1116.47 1.42794 -0.439329 0
M  V30 12336 H 1118.35 3.949 1.47077 0
M  V30 12337 H 1117.03 2.77052 1.67404 0
M  V30 12338 H 1115.94 3.71478 -0.442177 0
M  V30 12339 H 1117.27 4.88979 -0.562214 0
M  V30 12340 N 1118.92 0.422693 1.51826 0
M  V30 12341 C 1120.34 0.0742364 1.59427 0
M  V30 12342 C 1120.54 -1.41491 1.43466 0
M  V30 12343 O 1119.59 -2.18326 1.26846 0
M  V30 12344 C 1120.91 0.581272 2.95028 0
M  V30 12345 C 1122.45 0.54043 3.08299 0
M  V30 12346 C 1122.93 1.0242 4.46401 0
M  V30 12347 N 1124.42 0.981576 4.5268 0
M  V30 12348 C 1125.16 1.32693 5.57835 0
M  V30 12349 N 1124.65 1.74441 6.70479 0
M  V30 12350 N 1126.44 1.24603 5.48115 0
M  V30 12351 H 1118.6 1.39178 1.60447 0
M  V30 12352 H 1120.86 0.572607 0.75553 0
M  V30 12353 H 1120.56 1.62261 3.12032 0
M  V30 12354 H 1120.44 -0.00176969 3.772 0
M  V30 12355 H 1122.83 -0.491895 2.90971 0
M  V30 12356 H 1122.91 1.15969 2.28002 0
M  V30 12357 H 1122.55 2.05491 4.64474 0
M  V30 12358 H 1122.48 0.381613 5.25215 0
M  V30 12359 H 1124.97 0.674808 3.71826 0
M  V30 12360 H 1125.28 1.99068 7.46721 0
M  V30 12361 H 1123.63 1.78356 6.71725 0
M  V30 12362 H 1126.82 0.918641 4.58997 0
M  V30 12363 H 1126.99 1.51847 6.29958 0
M  V30 12364 N 1120.4 -1.5685 0.153553 0
M  V30 12365 C 1121.36 -2.15894 -0.769564 0
M  V30 12366 C 1122.36 -1.10239 -1.17064 0
M  V30 12367 O 1123.55 -1.35845 -1.09049 0
M  V30 12368 C 1120.68 -2.72738 -2.04516 0
M  V30 12369 H 1121.88 -2.98807 -0.255842 0
M  V30 12370 H 1119.43 -1.56005 -0.0959279 0
M  V30 12371 H 1120.17 -1.9351 -2.60239 0
M  V30 12372 H 1119.95 -3.50042 -1.76672 0
M  V30 12373 H 1121.44 -3.18208 -2.70432 0
M  V30 12374 N 1121.88 0.120221 -1.57141 0
M  V30 12375 C 1122.79 1.16641 -2.03549 0
M  V30 12376 C 1123.8 1.45407 -0.955656 0
M  V30 12377 O 1124.98 1.56547 -1.26708 0
M  V30 12378 C 1122.04 2.4734 -2.42948 0
M  V30 12379 C 1121.11 2.25982 -3.65008 0
M  V30 12380 C 1120.34 3.50449 -4.02518 0
M  V30 12381 O 1120.56 4.57706 -3.40384 0
M  V30 12382 O 1119.5 3.41524 -4.95626 0
M  V30 12383 H 1123.32 0.802323 -2.9291 0
M  V30 12384 H 1120.91 0.330927 -1.45689 0
M  V30 12385 H 1122.79 3.24348 -2.69029 0
M  V30 12386 H 1121.46 2.83225 -1.56733 0
M  V30 12387 H 1120.37 1.46837 -3.44078 0
M  V30 12388 H 1121.7 1.95002 -4.51924 0
M  V30 12389 N 1123.36 1.52689 0.390367 0
M  V30 12390 C 1124.27 1.8029 1.50108 0
M  V30 12391 C 1125.28 0.689582 1.59752 0
M  V30 12392 O 1126.46 0.977024 1.76114 0
M  V30 12393 C 1123.52 1.96475 2.85654 0
M  V30 12394 C 1122.58 3.2039 2.85743 0
M  V30 12395 C 1121.82 3.35793 4.14824 0
M  V30 12396 O 1122.04 2.56033 5.09709 0
M  V30 12397 O 1120.97 4.2904 4.22147 0
M  V30 12398 H 1124.8 2.74605 1.29715 0
M  V30 12399 H 1122.39 1.37763 0.578074 0
M  V30 12400 H 1124.27 2.08835 3.66013 0
M  V30 12401 H 1122.94 1.05351 3.06077 0
M  V30 12402 H 1121.85 3.13473 2.0417 0
M  V30 12403 H 1123.18 4.11356 2.70272 0
M  V30 12404 N 1124.83 -0.648732 1.43629 0
M  V30 12405 C 1125.76 -1.77298 1.51947 0
M  V30 12406 C 1126.75 -1.65942 0.373785 0
M  V30 12407 O 1127.93 -1.8497 0.591596 0
M  V30 12408 C 1125.06 -3.15749 1.44638 0
M  V30 12409 C 1124.01 -3.41872 2.57502 0
M  V30 12410 C 1123.34 -4.8017 2.35246 0
M  V30 12411 C 1124.64 -3.36173 3.99731 0
M  V30 12412 H 1126.33 -1.70594 2.46045 0
M  V30 12413 H 1123.88 -0.819306 1.1842 0
M  V30 12414 H 1125.83 -3.94156 1.4906 0
M  V30 12415 H 1124.56 -3.23194 0.470466 0
M  V30 12416 H 1123.22 -2.65838 2.5244 0
M  V30 12417 H 1122.86 -4.84297 1.35887 0
M  V30 12418 H 1122.56 -4.9861 3.10906 0
M  V30 12419 H 1124.09 -5.6083 2.41459 0
M  V30 12420 H 1125.5 -4.0451 4.06257 0
M  V30 12421 H 1123.9 -3.66148 4.75453 0
M  V30 12422 H 1124.97 -2.34277 4.24549 0
M  V30 12423 N 1126.31 -1.30234 -0.887518 0
M  V30 12424 C 1127.24 -1.12212 -1.99853 0
M  V30 12425 C 1128.26 -0.0660929 -1.62666 0
M  V30 12426 O 1129.45 -0.311853 -1.75755 0
M  V30 12427 C 1126.55 -0.688591 -3.31831 0
M  V30 12428 C 1125.72 -1.82581 -3.97471 0
M  V30 12429 C 1124.78 -1.38126 -5.07748 0
M  V30 12430 O 1123.8 -2.08805 -5.29518 0
M  V30 12431 N 1125.01 -0.258868 -5.79923 0
M  V30 12432 H 1127.77 -2.07901 -2.15864 0
M  V30 12433 H 1125.33 -1.22336 -1.06045 0
M  V30 12434 H 1127.32 -0.374252 -4.02966 0
M  V30 12435 H 1125.89 0.176185 -3.12103 0
M  V30 12436 H 1125.11 -2.3084 -3.19541 0
M  V30 12437 H 1126.4 -2.58798 -4.38065 0
M  V30 12438 H 1125.8 0.330131 -5.64736 0
M  V30 12439 H 1124.36 -0.00396813 -6.518 0
M  V30 12440 N 1127.79 1.09952 -1.12909 0
M  V30 12441 C 1129.04 1.82286 -0.888797 0
M  V30 12442 C 1129.37 1.85218 0.58379 0
M  V30 12443 O 1128.64 1.31645 1.43177 0
M  V30 12444 C 1128.93 3.28706 -1.47053 0
M  V30 12445 C 1128.78 3.34078 -3.01184 0
M  V30 12446 C 1130.1 4.25233 -1.13424 0
M  V30 12447 H 1127.22 0.661803 -0.324324 0
M  V30 12448 H 1129.86 1.28833 -1.3965 0
M  V30 12449 H 1128.01 3.74356 -1.03874 0
M  V30 12450 H 1129.68 2.96871 -3.5308 0
M  V30 12451 H 1127.93 2.73825 -3.36455 0
M  V30 12452 H 1128.6 4.37202 -3.36984 0
M  V30 12453 H 1131.07 3.87841 -1.50726 0
M  V30 12454 H 1129.95 5.26033 -1.56783 0
M  V30 12455 H 1130.21 4.42075 -0.0471496 0
M  V30 12456 N 1129.27 0.921757 1.27833 0
M  V30 12457 C 1130.68 0.621102 1.47019 0
M  V30 12458 C 1130.88 -0.831338 1.83551 0
M  V30 12459 O 1129.94 -1.60974 1.94534 0
M  V30 12460 C 1131.25 1.56588 2.56712 0
M  V30 12461 C 1132.8 1.57346 2.70576 0
M  V30 12462 C 1133.28 2.50505 3.8342 0
M  V30 12463 N 1134.77 2.48678 3.90786 0
M  V30 12464 C 1135.5 3.17454 4.77505 0
M  V30 12465 N 1135 3.95588 5.68755 0
M  V30 12466 N 1136.79 3.06501 4.71183 0
M  V30 12467 H 1128.94 1.86085 1.02403 0
M  V30 12468 H 1131.21 0.798595 0.510833 0
M  V30 12469 H 1130.91 2.60175 2.36647 0
M  V30 12470 H 1130.79 1.30305 3.53978 0
M  V30 12471 H 1133.17 0.544919 2.90025 0
M  V30 12472 H 1133.25 1.87675 1.73815 0
M  V30 12473 H 1132.9 3.53466 3.64725 0
M  V30 12474 H 1132.83 2.17474 4.79596 0
M  V30 12475 H 1135.32 1.91928 3.25534 0
M  V30 12476 H 1135.63 4.45066 6.31772 0
M  V30 12477 H 1133.98 3.99692 5.6857 0
M  V30 12478 H 1137.17 2.44958 3.9889 0
M  V30 12479 H 1137.34 3.60372 5.3855 0
M  V30 12480 N 1130.75 -1.41857 0.686609 0
M  V30 12481 C 1132.02 -1.95082 0.142228 0
M  V30 12482 C 1132.4 -1.62646 -1.34572 0
M  V30 12483 O 1131.75 -0.928757 -2.08773 0
M  V30 12484 C 1131.96 -3.46415 0.423955 0
M  V30 12485 C 1133.31 -4.23181 0.346842 0
M  V30 12486 O 1134.33 -3.54393 0.358363 0
M  V30 12487 O 1133.19 -5.4568 0.299211 0
M  V30 12488 H 1130.29 -0.826943 0.00974 0
M  V30 12489 H 1132.83 -1.51622 0.762153 0
M  V30 12490 H 1131.6 -3.63273 1.45424 0
M  V30 12491 H 1131.23 -3.96949 -0.227391 0
M  V30 12492 N 1132.22 -0.430739 -1.51599 0
M  V30 12493 C 1133.17 0.384024 -2.27583 0
M  V30 12494 C 1134.14 1.02254 -1.30895 0
M  V30 12495 O 1135.33 1.0427 -1.59789 0
M  V30 12496 C 1132.47 1.48291 -3.11615 0
M  V30 12497 C 1131.58 0.863187 -4.23288 0
M  V30 12498 C 1130.71 1.93657 -4.94642 0
M  V30 12499 C 1129.75 1.29493 -5.98246 0
M  V30 12500 N 1128.89 2.30939 -6.63032 0
M  V30 12501 H 1133.73 -0.270314 -2.96771 0
M  V30 12502 H 1131.27 -0.145148 -1.46382 0
M  V30 12503 H 1133.23 2.13124 -3.58656 0
M  V30 12504 H 1131.86 2.10697 -2.44554 0
M  V30 12505 H 1130.91 0.103326 -3.8026 0
M  V30 12506 H 1132.22 0.354676 -4.97537 0
M  V30 12507 H 1131.37 2.66167 -5.45197 0
M  V30 12508 H 1130.11 2.4788 -4.20008 0
M  V30 12509 H 1129.12 0.555262 -5.46989 0
M  V30 12510 H 1130.34 0.760122 -6.74833 0
M  V30 12511 H 1128.29 2.84254 -5.91216 0
M  V30 12512 H 1128.21 1.84961 -7.33025 0
M  V30 12513 H 1129.47 3.02953 -7.1822 0
M  V30 12514 N 1133.7 1.56767 -0.161869 0
M  V30 12515 C 1134.95 1.95769 0.485536 0
M  V30 12516 C 1135.26 1.05006 1.65025 0
M  V30 12517 O 1136.47 1.33649 2.36326 0
M  V30 12518 C 1134.93 3.4807 0.915176 0
M  V30 12519 C 1134.53 4.47443 -0.223416 0
M  V30 12520 C 1136.28 3.95909 1.53153 0
M  V30 12521 C 1134.19 5.90971 0.225325 0
M  V30 12522 H 1133.12 0.730911 0.185161 0
M  V30 12523 H 1135.77 1.81808 -0.248592 0
M  V30 12524 H 1134.15 3.57415 1.705 0
M  V30 12525 H 1135.32 4.49805 -1.00061 0
M  V30 12526 H 1133.64 4.09606 -0.749127 0
M  V30 12527 H 1136.23 5.00592 1.87915 0
M  V30 12528 H 1136.58 3.38307 2.42599 0
M  V30 12529 H 1137.11 3.89542 0.806322 0
M  V30 12530 H 1133.85 6.52426 -0.634124 0
M  V30 12531 H 1133.37 5.91936 0.96808 0
M  V30 12532 H 1135.05 6.43497 0.672373 0
M  V30 12533 N 1135.18 -0.111886 1.57202 0
M  V30 12534 C 1136.43 -0.817022 1.84412 0
M  V30 12535 C 1136.74 -1.80708 0.748608 0
M  V30 12536 O 1137.95 -2.55891 0.907319 0
M  V30 12537 C 1136.4 -1.50376 3.26979 0
M  V30 12538 C 1136.01 -0.554334 4.44557 0
M  V30 12539 C 1137.76 -2.19361 3.63429 0
M  V30 12540 C 1135.66 -1.24471 5.78153 0
M  V30 12541 H 1134.59 -0.308864 0.687836 0
M  V30 12542 H 1137.24 -0.0698109 1.83367 0
M  V30 12543 H 1135.63 -2.29785 3.22514 0
M  V30 12544 H 1136.8 0.207045 4.60335 0
M  V30 12545 H 1135.12 0.0289261 4.1639 0
M  V30 12546 H 1137.71 -2.71716 4.60515 0
M  V30 12547 H 1138.06 -2.97488 2.91215 0
M  V30 12548 H 1138.59 -1.46833 3.69709 0
M  V30 12549 H 1135.33 -0.504584 6.53555 0
M  V30 12550 H 1134.85 -1.97792 5.66249 0
M  V30 12551 H 1136.53 -1.77591 6.2215 0
M  V30 12552 N 1136.66 -1.52894 -0.382264 0
M  V30 12553 C 1137.57 -1.81084 -1.4915 0
M  V30 12554 C 1138.58 -0.698045 -1.59384 0
M  V30 12555 O 1139.76 -0.98635 -1.75594 0
M  V30 12556 C 1136.83 -1.97987 -2.84608 0
M  V30 12557 C 1135.89 -3.219 -2.8404 0
M  V30 12558 C 1135.12 -3.37988 -4.13037 0
M  V30 12559 O 1135.34 -2.58733 -5.08344 0
M  V30 12560 O 1134.28 -4.31273 -4.19866 0
M  V30 12561 H 1138.1 -2.75289 -1.28257 0
M  V30 12562 H 1135.69 -1.38068 -0.57076 0
M  V30 12563 H 1137.57 -2.10773 -3.64901 0
M  V30 12564 H 1136.24 -1.06972 -3.05514 0
M  V30 12565 H 1135.15 -3.14551 -2.02505 0
M  V30 12566 H 1136.48 -4.12783 -2.68087 0
M  V30 12567 N 1138.14 0.641106 -1.43971 0
M  V30 12568 C 1139.05 1.78239 -1.52538 0
M  V30 12569 C 1140.06 1.6906 -0.411668 0
M  V30 12570 O 1141.24 1.90014 -0.66757 0
M  V30 12571 C 1138.3 3.14579 -1.45743 0
M  V30 12572 C 1137.37 3.35464 -2.67885 0
M  V30 12573 C 1136.6 4.65299 -2.61404 0
M  V30 12574 O 1136.82 5.45451 -1.66851 0
M  V30 12575 O 1135.76 4.8817 -3.521 0
M  V30 12576 H 1139.58 1.73965 -2.48937 0
M  V30 12577 H 1137.17 0.801098 -1.26106 0
M  V30 12578 H 1139.05 3.95873 -1.4444 0
M  V30 12579 H 1137.72 3.19417 -0.524837 0
M  V30 12580 H 1136.63 2.53888 -2.74758 0
M  V30 12581 H 1137.96 3.35481 -3.60157 0
M  V30 12582 N 1139.62 1.30703 0.880598 0
M  V30 12583 C 1140.84 1.22714 1.6658 0
M  V30 12584 C 1141.26 -0.209303 1.87636 0
M  V30 12585 O 1140.62 -1.13771 1.42697 0
M  V30 12586 C 1140.67 1.95659 3.03974 0
M  V30 12587 O 1140.39 3.33695 2.83865 0
M  V30 12588 C 1141.89 1.9438 3.98411 0
M  V30 12589 H 1139.11 0.424478 0.519673 0
M  V30 12590 H 1141.65 1.72402 1.0999 0
M  V30 12591 H 1139.81 1.49758 3.57283 0
M  V30 12592 H 1140.22 3.70697 3.71058 0
M  V30 12593 H 1141.7 2.4995 4.92168 0
M  V30 12594 H 1142.17 0.923767 4.29375 0
M  V30 12595 H 1142.78 2.40112 3.51036 0
M  V30 12596 N 1141.09 -1.09351 1.1349 0
M  V30 12597 C 1142.04 -2.18099 0.808426 0
M  V30 12598 C 1143.04 -1.68099 -0.209571 0
M  V30 12599 O 1144.24 -1.79877 -0.0666417 0
M  V30 12600 H 1140.62 -0.711432 0.243658 0
M  V30 12601 H 1142.59 -2.42867 1.73373 0
M  V30 12602 C 1141.34 -3.46475 0.291615 0
M  V30 12603 H 1140.66 -3.85319 1.06627 0
M  V30 12604 H 1142.1 -4.23878 0.101616 0
M  V30 12605 C 1140.56 -3.22245 -0.982827 0
M  V30 12606 O 1141.09 -3.44947 -2.0585 0
M  V30 12607 N 1139.29 -2.75845 -0.914218 0
M  V30 12608 H 1138.84 -2.57571 -0.03872 0
M  V30 12609 H 1138.8 -2.60011 -1.76753 0
M  V30 12610 N 1142.57 -0.928524 -1.27343 0
M  V30 12611 C 1143.52 -0.426873 -2.26818 0
M  V30 12612 C 1144.49 0.506663 -1.58184 0
M  V30 12613 O 1145.67 0.425641 -1.85992 0
M  V30 12614 C 1142.81 0.313523 -3.43673 0
M  V30 12615 C 1141.93 -0.65422 -4.27018 0
M  V30 12616 C 1141.06 0.106102 -5.31094 0
M  V30 12617 C 1140.1 -0.854293 -6.06109 0
M  V30 12618 N 1139.24 -0.126545 -7.01986 0
M  V30 12619 H 1144.08 -1.28014 -2.69103 0
M  V30 12620 H 1141.61 -0.642515 -1.32326 0
M  V30 12621 H 1143.57 0.75912 -4.10236 0
M  V30 12622 H 1142.2 1.13102 -3.02337 0
M  V30 12623 H 1141.25 -1.21834 -3.60362 0
M  V30 12624 H 1142.57 -1.38817 -4.79094 0
M  V30 12625 H 1141.72 0.611577 -6.0361 0
M  V30 12626 H 1140.46 0.873009 -4.79823 0
M  V30 12627 H 1139.46 -1.37101 -5.32432 0
M  V30 12628 H 1140.69 -1.621 -6.5947 0
M  V30 12629 H 1138.64 0.622102 -6.53044 0
M  V30 12630 H 1138.55 -0.800046 -7.51755 0
M  V30 12631 H 1139.82 0.358251 -7.78676 0
M  V30 12632 N 1144.05 1.41491 -0.694123 0
M  V30 12633 C 1145 2.30783 -0.0278824 0
M  V30 12634 C 1145.97 1.47028 0.772783 0
M  V30 12635 O 1147.15 1.75819 0.74111 0
M  V30 12636 C 1144.29 3.33061 0.903579 0
M  V30 12637 C 1143.4 4.31896 0.0946823 0
M  V30 12638 C 1142.54 5.21243 1.02365 0
M  V30 12639 C 1141.58 6.11748 0.207578 0
M  V30 12640 N 1140.72 6.93583 1.09028 0
M  V30 12641 H 1145.56 2.87197 -0.795092 0
M  V30 12642 H 1143.09 1.41449 -0.403806 0
M  V30 12643 H 1145.05 3.90907 1.45765 0
M  V30 12644 H 1143.68 2.782 1.6372 0
M  V30 12645 H 1142.73 3.76009 -0.576289 0
M  V30 12646 H 1144.04 4.95889 -0.538059 0
M  V30 12647 H 1143.2 5.83917 1.647 0
M  V30 12648 H 1141.94 4.57473 1.69025 0
M  V30 12649 H 1140.94 5.48125 -0.428854 0
M  V30 12650 H 1142.17 6.77573 -0.455206 0
M  V30 12651 H 1140.11 6.32422 1.74292 0
M  V30 12652 H 1140.03 7.54257 0.513073 0
M  V30 12653 H 1141.3 7.60726 1.70048 0
M  V30 12654 N 1145.53 0.438773 1.51369 0
M  V30 12655 C 1146.78 -0.128723 2.01289 0
M  V30 12656 C 1147.09 -1.43659 1.32745 0
M  V30 12657 O 1148.3 -2.08712 1.73642 0
M  V30 12658 C 1146.75 -0.279945 3.5881 0
M  V30 12659 C 1146.36 1.01758 4.3629 0
M  V30 12660 C 1148.1 -0.801133 4.16872 0
M  V30 12661 C 1146.01 0.831918 5.85519 0
M  V30 12662 H 1144.94 -0.0518814 0.752213 0
M  V30 12663 H 1147.59 0.568753 1.74463 0
M  V30 12664 H 1145.97 -1.04046 3.82087 0
M  V30 12665 H 1147.15 1.78653 4.24758 0
M  V30 12666 H 1145.46 1.46741 3.89687 0
M  V30 12667 H 1148.06 -0.956548 5.26074 0
M  V30 12668 H 1148.4 -1.78396 3.76139 0
M  V30 12669 H 1148.94 -0.0988934 3.97677 0
M  V30 12670 H 1145.67 1.78716 6.30667 0
M  V30 12671 H 1145.19 0.102785 5.99712 0
M  V30 12672 H 1146.87 0.485681 6.45174 0
M  V30 12673 N 1147.01 -1.56678 0.170181 0
M  V30 12674 C 1147.94 -2.15083 -0.791961 0
M  V30 12675 C 1148.95 -1.10612 -1.19452 0
M  V30 12676 O 1150.14 -1.37803 -1.13457 0
M  V30 12677 C 1147.24 -2.67769 -2.07733 0
M  V30 12678 C 1146.41 -3.96885 -1.83851 0
M  V30 12679 C 1145.47 -4.34646 -2.96596 0
M  V30 12680 O 1144.5 -5.02543 -2.67281 0
M  V30 12681 N 1145.7 -3.96112 -4.24353 0
M  V30 12682 H 1148.46 -2.98268 -0.292658 0
M  V30 12683 H 1146.03 -1.61895 -0.0126383 0
M  V30 12684 H 1148.02 -2.90029 -2.8225 0
M  V30 12685 H 1146.59 -1.89179 -2.48858 0
M  V30 12686 H 1145.81 -3.83013 -0.932452 0
M  V30 12687 H 1147.1 -4.81213 -1.65261 0
M  V30 12688 H 1146.49 -3.41448 -4.51032 0
M  V30 12689 H 1145.05 -4.23375 -4.95577 0
M  V30 12690 N 1148.48 0.103547 -1.57259 0
M  V30 12691 C 1149.39 1.14475 -2.04774 0
M  V30 12692 C 1150.41 1.44385 -0.971025 0
M  V30 12693 O 1151.59 1.55195 -1.28361 0
M  V30 12694 C 1148.65 2.4475 -2.45558 0
M  V30 12695 C 1147.71 2.22098 -3.67384 0
M  V30 12696 C 1146.94 3.4616 -4.06213 0
M  V30 12697 O 1147.17 4.5407 -3.45219 0
M  V30 12698 O 1146.1 3.36248 -4.9922 0
M  V30 12699 H 1149.93 0.771211 -2.93745 0
M  V30 12700 H 1147.51 0.315456 -1.46032 0
M  V30 12701 H 1149.39 3.21476 -2.72454 0
M  V30 12702 H 1148.07 2.81547 -1.59728 0
M  V30 12703 H 1146.98 1.43179 -3.45616 0
M  V30 12704 H 1148.31 1.90197 -4.53967 0
M  V30 12705 N 1149.96 1.53094 0.37415 0
M  V30 12706 C 1150.89 1.73697 1.48002 0
M  V30 12707 C 1151.87 0.585109 1.51708 0
M  V30 12708 O 1153.06 0.816688 1.6989 0
M  V30 12709 C 1150.18 1.80802 2.86406 0
M  V30 12710 C 1149.23 3.02696 3.00462 0
M  V30 12711 S 1150.06 4.62386 2.70109 0
M  V30 12712 C 1151.22 4.72328 4.10679 0
M  V30 12713 H 1151.45 2.67223 1.30303 0
M  V30 12714 H 1148.98 1.43574 0.567957 0
M  V30 12715 H 1150.94 1.85581 3.66155 0
M  V30 12716 H 1149.6 0.883425 3.01421 0
M  V30 12717 H 1148.8 3.04252 4.01804 0
M  V30 12718 H 1148.4 2.95985 2.28624 0
M  V30 12719 H 1150.69 4.51856 5.04809 0
M  V30 12720 H 1151.63 5.7437 4.14131 0
M  V30 12721 H 1152.04 4.01035 3.9728 0
M  V30 12722 N 1151.44 -0.633461 1.44309 0
M  V30 12723 C 1152.69 -1.38902 1.4625 0
M  V30 12724 C 1153 -1.95354 0.0980699 0
M  V30 12725 O 1154.21 -2.715 -0.0049983 0
M  V30 12726 C 1152.66 -2.51477 2.57463 0
M  V30 12727 C 1152.27 -2.01549 4.00103 0
M  V30 12728 C 1154.02 -3.28698 2.68622 0
M  V30 12729 C 1151.92 -3.11452 5.02744 0
M  V30 12730 H 1150.85 -0.521976 0.544112 0
M  V30 12731 H 1153.5 -0.681725 1.70367 0
M  V30 12732 H 1151.89 -3.24771 2.26582 0
M  V30 12733 H 1153.06 -1.35135 4.4054 0
M  V30 12734 H 1151.37 -1.3715 3.93165 0
M  V30 12735 H 1153.97 -4.10624 3.42479 0
M  V30 12736 H 1154.31 -3.78027 1.7436 0
M  V30 12737 H 1154.85 -2.62494 2.98901 0
M  V30 12738 H 1151.59 -2.6707 5.98627 0
M  V30 12739 H 1151.11 -3.76514 4.66902 0
M  V30 12740 H 1152.79 -3.76265 5.2634 0
M  V30 12741 N 1152.92 -1.31168 -0.873655 0
M  V30 12742 C 1153.83 -1.20458 -2.01313 0
M  V30 12743 C 1154.84 -0.122074 -1.73571 0
M  V30 12744 O 1156.02 -0.339176 -1.98523 0
M  V30 12745 C 1153.09 -0.90876 -3.34578 0
M  V30 12746 C 1152.15 -2.07779 -3.75668 0
M  V30 12747 C 1151.38 -1.79599 -5.02573 0
M  V30 12748 O 1151.6 -0.729338 -5.65718 0
M  V30 12749 O 1150.54 -2.65169 -5.40341 0
M  V30 12750 H 1154.36 -2.16207 -2.13279 0
M  V30 12751 H 1151.95 -1.10871 -1.00139 0
M  V30 12752 H 1153.83 -0.759469 -4.145 0
M  V30 12753 H 1152.5 0.0187249 -3.23695 0
M  V30 12754 H 1151.41 -2.28247 -2.96402 0
M  V30 12755 H 1152.74 -2.9874 -3.91172 0
M  V30 12756 N 1154.4 1.08748 -1.14068 0
M  V30 12757 C 1155.34 2.15573 -0.824425 0
M  V30 12758 C 1156.31 1.64683 0.216522 0
M  V30 12759 O 1157.5 1.90601 0.0872193 0
M  V30 12760 C 1154.64 3.43756 -0.30423 0
M  V30 12761 C 1153.75 4.08512 -1.40506 0
M  V30 12762 C 1152.89 5.24477 -0.842479 0
M  V30 12763 C 1151.93 5.81167 -1.92123 0
M  V30 12764 N 1151.06 6.88483 -1.37608 0
M  V30 12765 H 1155.9 2.41968 -1.73941 0
M  V30 12766 H 1153.44 1.18751 -0.868143 0
M  V30 12767 H 1155.4 4.17197 0.0155546 0
M  V30 12768 H 1154.03 3.17658 0.573868 0
M  V30 12769 H 1153.08 3.32866 -1.84131 0
M  V30 12770 H 1154.39 4.46669 -2.2201 0
M  V30 12771 H 1153.55 6.04842 -0.474389 0
M  V30 12772 H 1152.28 4.877 0.00355212 0
M  V30 12773 H 1151.29 4.99458 -2.29831 0
M  V30 12774 H 1152.51 6.20003 -2.77079 0
M  V30 12775 H 1150.46 6.53672 -0.552168 0
M  V30 12776 H 1150.38 7.25446 -2.12752 0
M  V30 12777 H 1151.65 7.72588 -1.03578 0
M  V30 12778 N 1155.87 0.935264 1.26849 0
M  V30 12779 C 1157.12 0.575467 1.93317 0
M  V30 12780 C 1157.44 -0.88876 1.74242 0
M  V30 12781 O 1158.64 -1.35767 2.35116 0
M  V30 12782 C 1157.1 0.978433 3.46345 0
M  V30 12783 C 1156.71 2.46386 3.74163 0
M  V30 12784 C 1158.45 0.690249 4.18851 0
M  V30 12785 C 1156.36 2.80584 5.20602 0
M  V30 12786 H 1155.29 0.211506 0.723727 0
M  V30 12787 H 1157.94 1.1371 1.44022 0
M  V30 12788 H 1156.32 0.345379 3.94491 0
M  V30 12789 H 1157.49 3.14547 3.36745 0
M  V30 12790 H 1155.81 2.72473 3.14877 0
M  V30 12791 H 1158.41 0.922151 5.26688 0
M  V30 12792 H 1158.75 -0.372805 4.14627 0
M  V30 12793 H 1159.28 1.28275 3.76551 0
M  V30 12794 H 1156.02 3.85828 5.29921 0
M  V30 12795 H 1155.54 2.1708 5.59139 0
M  V30 12796 H 1157.22 2.68732 5.88551 0
M  V30 12797 N 1157.35 -1.41121 0.701616 0
M  V30 12798 C 1158.3 -2.30765 0.040121 0
M  V30 12799 C 1159.27 -1.47436 -0.764975 0
M  V30 12800 O 1160.45 -1.76209 -0.731775 0
M  V30 12801 C 1157.59 -3.33535 -0.885903 0
M  V30 12802 C 1156.71 -4.3194 -0.0717765 0
M  V30 12803 C 1155.84 -5.21779 -0.995996 0
M  V30 12804 C 1154.88 -6.11849 -0.175133 0
M  V30 12805 N 1154.02 -6.94151 -1.05348 0
M  V30 12806 H 1158.86 -2.86772 0.810312 0
M  V30 12807 H 1156.4 -1.41233 0.411301 0
M  V30 12808 H 1158.35 -3.91675 -1.4369 0
M  V30 12809 H 1156.98 -2.79065 -1.62243 0
M  V30 12810 H 1156.04 -3.75698 0.596221 0
M  V30 12811 H 1157.35 -4.95597 0.56435 0
M  V30 12812 H 1156.5 -5.84782 -1.61601 0
M  V30 12813 H 1155.24 -4.58363 -1.66597 0
M  V30 12814 H 1154.25 -5.4789 0.457916 0
M  V30 12815 H 1155.47 -6.77322 0.491133 0
M  V30 12816 H 1153.42 -6.33338 -1.70936 0
M  V30 12817 H 1153.33 -7.54518 -0.473065 0
M  V30 12818 H 1154.6 -7.61617 -1.66012 0
M  V30 12819 N 1158.83 -0.446794 -1.51134 0
M  V30 12820 C 1160.11 0.176892 -1.94798 0
M  V30 12821 C 1160.49 1.59229 -1.38598 0
M  V30 12822 O 1159.84 2.21097 -0.576905 0
M  V30 12823 C 1160.05 0.145 -3.48699 0
M  V30 12824 C 1161.39 0.345917 -4.23189 0
M  V30 12825 O 1162.42 0.222691 -3.55503 0
M  V30 12826 O 1161.28 0.592112 -5.43283 0
M  V30 12827 H 1158.37 0.12486 -0.81752 0
M  V30 12828 H 1160.92 -0.505453 -1.61998 0
M  V30 12829 H 1159.69 -0.844156 -3.82086 0
M  V30 12830 H 1159.31 0.869851 -3.87968 0
M  V30 12831 N 1160.31 1.56586 -0.178487 0
M  V30 12832 C 1161.24 2.21313 0.744486 0
M  V30 12833 C 1162.22 1.17098 1.23377 0
M  V30 12834 O 1163.4 1.45551 1.28563 0
M  V30 12835 C 1160.53 2.8595 1.97103 0
M  V30 12836 C 1159.49 3.96266 1.61732 0
M  V30 12837 C 1158.81 4.47987 2.91911 0
M  V30 12838 C 1160.11 5.15503 0.839868 0
M  V30 12839 H 1161.81 2.98698 0.204938 0
M  V30 12840 H 1159.35 1.43672 0.0971306 0
M  V30 12841 H 1161.31 3.29909 2.6218 0
M  V30 12842 H 1160.03 2.05946 2.53484 0
M  V30 12843 H 1158.69 3.52974 0.990208 0
M  V30 12844 H 1158.34 3.64765 3.46346 0
M  V30 12845 H 1158.04 5.22413 2.68995 0
M  V30 12846 H 1159.56 4.94637 3.58004 0
M  V30 12847 H 1160.98 5.5611 1.39337 0
M  V30 12848 H 1159.37 5.95891 0.709473 0
M  V30 12849 H 1160.44 4.84628 -0.162396 0
M  V30 12850 N 1161.79 -0.095206 1.57312 0
M  V30 12851 C 1163.01 -0.81614 1.90667 0
M  V30 12852 C 1163.44 -1.71494 0.772746 0
M  V30 12853 O 1162.79 -1.79192 -0.275682 0
M  V30 12854 C 1162.84 -1.60555 3.22885 0
M  V30 12855 O 1161.95 -2.71448 3.10467 0
M  V30 12856 H 1161.29 -0.224217 0.624998 0
M  V30 12857 H 1163.82 -0.070464 2.04479 0
M  V30 12858 H 1163.83 -1.98979 3.5619 0
M  V30 12859 H 1162.5 -0.945918 4.05 0
M  V30 12860 H 1161.08 -2.36053 2.88675 0
M  V30 12861 N 1163.26 -1.53291 -0.366026 0
M  V30 12862 C 1164.17 -1.82656 -1.47221 0
M  V30 12863 C 1165.19 -0.71491 -1.58635 0
M  V30 12864 O 1166.37 -1.00492 -1.74538 0
M  V30 12865 C 1163.43 -2.00995 -2.82492 0
M  V30 12866 C 1162.49 -3.24895 -2.8061 0
M  V30 12867 C 1161.73 -3.4235 -4.09429 0
M  V30 12868 O 1161.95 -2.6411 -5.05571 0
M  V30 12869 O 1160.88 -4.35702 -4.15268 0
M  V30 12870 H 1164.71 -2.76634 -1.2533 0
M  V30 12871 H 1162.29 -1.38665 -0.556084 0
M  V30 12872 H 1164.18 -2.14632 -3.62645 0
M  V30 12873 H 1162.85 -1.10207 -3.04362 0
M  V30 12874 H 1161.76 -3.16682 -1.99157 0
M  V30 12875 H 1163.09 -4.15604 -2.63694 0
M  V30 12876 N 1164.74 0.6258 -1.44643 0
M  V30 12877 C 1165.69 1.73751 -1.51919 0
M  V30 12878 C 1166.66 1.62007 -0.36647 0
M  V30 12879 O 1167.84 1.81852 -0.577439 0
M  V30 12880 C 1164.98 3.12015 -1.47448 0
M  V30 12881 C 1164.1 3.34696 -2.73135 0
M  V30 12882 C 1163.23 4.62962 -2.6046 0
M  V30 12883 C 1162.27 4.7884 -3.81286 0
M  V30 12884 N 1161.41 5.98388 -3.67255 0
M  V30 12885 H 1166.25 1.66867 -2.46899 0
M  V30 12886 H 1163.79 0.813921 -1.22531 0
M  V30 12887 H 1165.74 3.91983 -1.42846 0
M  V30 12888 H 1164.37 3.179 -0.560312 0
M  V30 12889 H 1163.43 2.4863 -2.87901 0
M  V30 12890 H 1164.74 3.42306 -3.62806 0
M  V30 12891 H 1163.89 5.51099 -2.53722 0
M  V30 12892 H 1162.63 4.57719 -1.68359 0
M  V30 12893 H 1161.64 3.89131 -3.88403 0
M  V30 12894 H 1162.86 4.85893 -4.74431 0
M  V30 12895 H 1160.81 5.94224 -2.77909 0
M  V30 12896 H 1160.72 6.07078 -4.50547 0
M  V30 12897 H 1161.99 6.89072 -3.64417 0
M  V30 12898 N 1166.22 1.31629 0.866686 0
M  V30 12899 C 1167.17 1.19556 1.97421 0
M  V30 12900 C 1168.14 0.0805578 1.65905 0
M  V30 12901 O 1169.32 0.253997 1.89102 0
M  V30 12902 C 1166.46 0.912234 3.32825 0
M  V30 12903 C 1165.58 2.11088 3.76916 0
M  V30 12904 C 1164.71 1.76406 5.01053 0
M  V30 12905 C 1163.75 2.9266 5.37602 0
M  V30 12906 N 1162.89 2.58152 6.52918 0
M  V30 12907 H 1167.73 2.14294 2.0708 0
M  V30 12908 H 1165.26 1.06595 1.0137 0
M  V30 12909 H 1167.22 0.72851 4.1079 0
M  V30 12910 H 1165.85 0.00167404 3.228 0
M  V30 12911 H 1164.9 2.40527 2.94705 0
M  V30 12912 H 1166.22 2.98089 3.99931 0
M  V30 12913 H 1165.37 1.54515 5.86694 0
M  V30 12914 H 1164.11 0.866018 4.79949 0
M  V30 12915 H 1163.11 3.15196 4.50479 0
M  V30 12916 H 1164.34 3.83179 5.6067 0
M  V30 12917 H 1162.28 1.70874 6.33355 0
M  V30 12918 H 1162.2 3.38682 6.75892 0
M  V30 12919 H 1163.47 2.39662 7.41743 0
M  V30 12920 N 1167.7 -1.08142 1.14644 0
M  V30 12921 C 1169.11 -1.62061 0.926986 0
M  V30 12922 C 1169.46 -1.88805 -0.533578 0
M  V30 12923 O 1168.59 -1.64753 -1.40305 0
M  V30 12924 C 1169.18 -2.94425 1.67629 0
M  V30 12925 C 1167.74 -3.45118 1.50235 0
M  V30 12926 C 1166.89 -2.19307 1.69705 0
M  V30 12927 H 1169.84 -0.913326 1.29785 0
M  V30 12928 H 1169.86 -3.62987 1.14107 0
M  V30 12929 H 1169.37 -2.74928 2.73927 0
M  V30 12930 H 1167.47 -3.69713 0.462967 0
M  V30 12931 H 1167.59 -4.2169 2.27408 0
M  V30 12932 H 1165.95 -2.28611 1.12291 0
M  V30 12933 H 1166.73 -2.02315 2.77351 0
M  V30 12934 N 1169.18 -0.941978 -1.26351 0
M  V30 12935 C 1170.42 -0.600372 -1.94338 0
M  V30 12936 C 1170.78 0.851343 -1.7254 0
M  V30 12937 O 1170.07 1.60116 -1.0523 0
M  V30 12938 C 1170.27 -0.879481 -3.4641 0
M  V30 12939 C 1170.09 -2.35678 -3.82996 0
M  V30 12940 C 1168.86 -3.01208 -4.05712 0
M  V30 12941 C 1171.06 -3.33531 -3.91486 0
M  V30 12942 N 1169.04 -4.38942 -4.29189 0
M  V30 12943 C 1170.42 -4.56525 -4.19506 0
M  V30 12944 C 1172.47 -3.28544 -3.74117 0
M  V30 12945 C 1171.17 -5.75153 -4.31962 0
M  V30 12946 C 1173.2 -4.46498 -3.87806 0
M  V30 12947 C 1172.56 -5.68275 -4.16225 0
M  V30 12948 H 1168.66 -0.270078 -0.733881 0
M  V30 12949 H 1171.24 -1.21155 -1.52413 0
M  V30 12950 H 1169.42 -0.297345 -3.8726 0
M  V30 12951 H 1171.15 -0.499062 -4.01611 0
M  V30 12952 H 1167.9 -2.51823 -4.01101 0
M  V30 12953 H 1168.33 -5.10236 -4.44959 0
M  V30 12954 H 1172.97 -2.35451 -3.51173 0
M  V30 12955 H 1170.69 -6.68699 -4.53727 0
M  V30 12956 H 1174.27 -4.44173 -3.75768 0
M  V30 12957 H 1173.15 -6.58024 -4.26584 0
M  V30 12958 N 1170.66 1.40747 -0.709091 0
M  V30 12959 C 1171.62 2.29118 -0.0611607 0
M  V30 12960 C 1172.62 1.45049 0.694081 0
M  V30 12961 O 1173.81 1.66039 0.526952 0
M  V30 12962 C 1170.94 3.28154 0.923447 0
M  V30 12963 H 1172.13 2.87913 -0.839413 0
M  V30 12964 H 1169.69 1.4896 -0.473363 0
M  V30 12965 H 1170.42 2.74366 1.72899 0
M  V30 12966 H 1170.21 3.90207 0.384862 0
M  V30 12967 H 1171.7 3.94343 1.37417 0
M  V30 12968 N 1172.13 0.454803 1.50895 0
M  V30 12969 C 1173.1 -0.336293 2.26719 0
M  V30 12970 C 1174.1 -0.93464 1.30848 0
M  V30 12971 O 1175.29 -0.80636 1.54413 0
M  V30 12972 C 1172.42 -1.47744 3.07221 0
M  V30 12973 H 1173.61 0.328462 2.98096 0
M  V30 12974 H 1171.16 0.208419 1.54904 0
M  V30 12975 H 1171.9 -2.17773 2.40302 0
M  V30 12976 H 1171.68 -1.05438 3.77658 0
M  V30 12977 H 1173.17 -2.03592 3.6461 0
M  V30 12978 N 1173.61 -1.56489 0.186789 0
M  V30 12979 C 1174.52 -2.22304 -0.749543 0
M  V30 12980 C 1175.54 -1.21949 -1.24115 0
M  V30 12981 O 1176.71 -1.5466 -1.29005 0
M  V30 12982 C 1173.78 -2.863 -1.95533 0
M  V30 12983 C 1172.84 -4.01901 -1.5091 0
M  V30 12984 C 1172.07 -4.62837 -2.6574 0
M  V30 12985 O 1172.3 -4.22681 -3.8301 0
M  V30 12986 O 1171.23 -5.52446 -2.38929 0
M  V30 12987 H 1175.06 -3.02909 -0.21908 0
M  V30 12988 H 1172.64 -1.49341 -0.0421249 0
M  V30 12989 H 1174.52 -3.2682 -2.6602 0
M  V30 12990 H 1173.2 -2.08681 -2.47455 0
M  V30 12991 H 1172.1 -3.66021 -0.773261 0
M  V30 12992 H 1173.44 -4.8116 -1.03663 0
M  V30 12993 N 1175.09 0.086862 -1.5736 0
M  V30 12994 C 1176.32 0.802167 -1.90717 0
M  V30 12995 C 1176.73 1.71875 -0.781304 0
M  V30 12996 O 1176.09 1.80831 0.246255 0
M  V30 12997 C 1176.14 1.60858 -3.23739 0
M  V30 12998 O 1175.86 0.728851 -4.31995 0
M  V30 12999 C 1177.36 2.42621 -3.71012 0
M  V30 13000 H 1174.58 0.228914 -0.630745 0
M  V30 13001 H 1177.13 0.061634 -2.04407 0
M  V30 13002 H 1175.28 2.30153 -3.11622 0
M  V30 13003 H 1175.7 1.2882 -5.08435 0
M  V30 13004 H 1177.17 2.94683 -4.66761 0
M  V30 13005 H 1177.65 3.21462 -2.99264 0
M  V30 13006 H 1178.25 1.78509 -3.86024 0
M  V30 13007 N 1176.57 1.53483 0.357892 0
M  V30 13008 C 1177.82 1.69256 1.09706 0
M  V30 13009 C 1178.13 0.454888 1.90237 0
M  V30 13010 O 1179.34 0.4933 2.66981 0
M  V30 13011 C 1177.79 2.99238 1.99961 0
M  V30 13012 C 1177.4 4.30293 1.24706 0
M  V30 13013 C 1179.14 3.24378 2.73823 0
M  V30 13014 C 1177.05 5.5136 2.13907 0
M  V30 13015 H 1175.98 0.630657 0.413265 0
M  V30 13016 H 1178.63 1.79983 0.357518 0
M  V30 13017 H 1177.01 2.82332 2.77677 0
M  V30 13018 H 1178.19 4.57857 0.519995 0
M  V30 13019 H 1176.5 4.11656 0.626736 0
M  V30 13020 H 1179.1 4.12015 3.40805 0
M  V30 13021 H 1179.44 2.40769 3.39612 0
M  V30 13022 H 1179.98 3.41994 2.03187 0
M  V30 13023 H 1176.71 6.3747 1.52684 0
M  V30 13024 H 1176.23 5.28065 2.84442 0
M  V30 13025 H 1177.91 5.86448 2.7329 0
M  V30 13026 N 1178.05 -0.61812 1.44973 0
M  V30 13027 C 1178.99 -1.72942 1.52838 0
M  V30 13028 C 1179.96 -1.6181 0.375056 0
M  V30 13029 O 1181.15 -1.81544 0.587075 0
M  V30 13030 C 1178.29 -3.11228 1.49101 0
M  V30 13031 C 1177.4 -3.33243 2.74906 0
M  V30 13032 C 1176.54 -4.61574 2.62912 0
M  V30 13033 C 1175.57 -4.76811 3.8382 0
M  V30 13034 N 1174.71 -5.96432 3.70424 0
M  V30 13035 H 1179.55 -1.65556 2.47781 0
M  V30 13036 H 1177.09 -0.807411 1.2296 0
M  V30 13037 H 1179.05 -3.9122 1.44923 0
M  V30 13038 H 1177.68 -3.17598 0.577163 0
M  V30 13039 H 1176.73 -2.471 2.89216 0
M  V30 13040 H 1178.04 -3.40377 3.64616 0
M  V30 13041 H 1177.19 -5.49746 2.56641 0
M  V30 13042 H 1175.93 -4.5682 1.70784 0
M  V30 13043 H 1174.94 -3.87066 3.90461 0
M  V30 13044 H 1176.16 -4.83371 4.77001 0
M  V30 13045 H 1174.11 -5.92742 2.81057 0
M  V30 13046 H 1174.03 -6.0468 4.5376 0
M  V30 13047 H 1175.29 -6.8713 3.68067 0
M  V30 13048 N 1179.52 -1.32087 -0.859693 0
M  V30 13049 C 1180.46 -1.14934 -1.97143 0
M  V30 13050 C 1181.43 -0.0501084 -1.62523 0
M  V30 13051 O 1182.62 -0.208472 -1.87344 0
M  V30 13052 C 1179.75 -0.758374 -3.30101 0
M  V30 13053 C 1178.79 -1.86212 -3.83702 0
M  V30 13054 S 1179.62 -3.46949 -4.07905 0
M  V30 13055 C 1180.78 -3.09813 -5.43844 0
M  V30 13056 H 1181.01 -2.09047 -2.11392 0
M  V30 13057 H 1178.55 -1.1669 -1.01108 0
M  V30 13058 H 1180.5 -0.539563 -4.06939 0
M  V30 13059 H 1179.17 0.163817 -3.13673 0
M  V30 13060 H 1178.36 -1.54144 -4.7985 0
M  V30 13061 H 1177.96 -2.03652 -3.13691 0
M  V30 13062 H 1180.25 -2.59345 -6.25897 0
M  V30 13063 H 1181.2 -4.04963 -5.8087 0
M  V30 13064 H 1181.6 -2.46971 -5.07607 0
M  V30 13065 N 1181 1.07532 -1.15215 0
M  V30 13066 C 1182.25 1.8036 -0.927263 0
M  V30 13067 C 1182.58 1.86414 0.544371 0
M  V30 13068 O 1181.86 1.34653 1.40353 0
M  V30 13069 C 1182.14 3.25512 -1.53992 0
M  V30 13070 C 1181.99 3.27614 -3.08203 0
M  V30 13071 C 1183.31 4.22731 -1.22418 0
M  V30 13072 H 1180.43 0.654775 -0.338289 0
M  V30 13073 H 1183.07 1.25842 -1.42351 0
M  V30 13074 H 1181.22 3.72068 -1.11791 0
M  V30 13075 H 1182.89 2.89315 -3.59297 0
M  V30 13076 H 1181.14 2.66627 -3.42188 0
M  V30 13077 H 1181.81 4.29956 -3.46182 0
M  V30 13078 H 1184.28 3.84557 -1.58919 0
M  V30 13079 H 1183.16 5.22589 -1.67906 0
M  V30 13080 H 1183.42 4.41875 -0.14091 0
M  V30 13081 N 1182.48 0.948665 1.2585 0
M  V30 13082 C 1183.43 0.462904 2.2611 0
M  V30 13083 C 1184.4 -0.481433 1.5897 0
M  V30 13084 O 1185.58 -0.395997 1.86645 0
M  V30 13085 C 1182.72 -0.258808 3.44128 0
M  V30 13086 C 1181.84 0.722072 4.25923 0
M  V30 13087 C 1180.97 -0.0215958 5.31196 0
M  V30 13088 C 1180.01 0.950612 6.04673 0
M  V30 13089 N 1179.15 0.238209 7.01696 0
M  V30 13090 H 1183.99 1.32279 2.67032 0
M  V30 13091 H 1181.52 0.663485 1.31287 0
M  V30 13092 H 1183.48 -0.693759 4.11391 0
M  V30 13093 H 1182.11 -1.08278 3.04098 0
M  V30 13094 H 1181.16 1.27552 3.58378 0
M  V30 13095 H 1182.48 1.46421 4.76825 0
M  V30 13096 H 1181.63 -0.51547 6.04506 0
M  V30 13097 H 1180.37 -0.796563 4.81151 0
M  V30 13098 H 1179.37 1.45554 5.30183 0
M  V30 13099 H 1180.6 1.72571 6.56808 0
M  V30 13100 H 1178.54 -0.518129 6.53951 0
M  V30 13101 H 1178.46 0.919542 7.50387 0
M  V30 13102 H 1179.73 -0.234325 7.79148 0
M  V30 13103 N 1183.96 -1.40369 0.716545 0
M  V30 13104 C 1185.24 -1.94737 0.183576 0
M  V30 13105 C 1185.62 -1.65464 -1.31092 0
M  V30 13106 O 1184.96 -0.972832 -2.06756 0
M  V30 13107 C 1185.17 -3.45438 0.497339 0
M  V30 13108 C 1186.52 -4.2235 0.436526 0
M  V30 13109 O 1187.55 -3.53553 0.433454 0
M  V30 13110 O 1186.4 -5.44923 0.41489 0
M  V30 13111 H 1183.5 -0.82655 0.0272785 0
M  V30 13112 H 1186.04 -1.49972 0.794143 0
M  V30 13113 H 1184.82 -3.60107 1.53097 0
M  V30 13114 H 1184.44 -3.97342 -0.143141 0
M  V30 13115 N 1185.44 -0.462799 -1.50652 0
M  V30 13116 C 1186.66 0.0952726 -2.07181 0
M  V30 13117 C 1187.09 1.33479 -1.32533 0
M  V30 13118 O 1186.44 1.77473 -0.370564 0
M  V30 13119 C 1186.49 0.370592 -3.58691 0
M  V30 13120 O 1185.6 1.4526 -3.85971 0
M  V30 13121 H 1184.94 -0.00932702 -0.663934 0
M  V30 13122 H 1187.47 -0.651458 -1.93951 0
M  V30 13123 H 1187.48 0.613551 -4.0336 0
M  V30 13124 H 1186.15 -0.535219 -4.12442 0
M  V30 13125 H 1184.73 1.1976 -3.53146 0
M  V30 13126 N 1186.91 1.56388 -0.195085 0
M  V30 13127 C 1187.84 2.22091 0.720971 0
M  V30 13128 C 1188.83 1.184 1.22128 0
M  V30 13129 O 1190.01 1.46907 1.27012 0
M  V30 13130 C 1187.14 2.88025 1.94059 0
M  V30 13131 C 1186.09 3.97959 1.5752 0
M  V30 13132 C 1185.42 4.51058 2.87143 0
M  V30 13133 C 1186.72 5.16365 0.785145 0
M  V30 13134 H 1188.41 2.98898 0.173245 0
M  V30 13135 H 1185.96 1.43767 0.0818868 0
M  V30 13136 H 1187.91 3.32671 2.58666 0
M  V30 13137 H 1186.64 2.08623 2.51285 0
M  V30 13138 H 1185.3 3.54004 0.952715 0
M  V30 13139 H 1184.94 3.68418 3.42458 0
M  V30 13140 H 1184.64 5.25237 2.63439 0
M  V30 13141 H 1186.17 4.98406 3.52738 0
M  V30 13142 H 1187.58 5.57556 1.33431 0
M  V30 13143 H 1185.98 5.9661 0.646231 0
M  V30 13144 H 1187.05 4.84428 -0.213789 0
M  V30 13145 N 1188.39 -0.0785156 1.57404 0
M  V30 13146 C 1189.67 -0.811557 1.77969 0
M  V30 13147 C 1190.05 -1.96123 0.780966 0
M  V30 13148 O 1189.4 -2.27731 -0.18726 0
M  V30 13149 C 1189.61 -1.29075 3.24254 0
M  V30 13150 C 1190.96 -1.72685 3.87898 0
M  V30 13151 O 1191.98 -1.38658 3.28104 0
M  V30 13152 O 1190.84 -2.3566 4.93079 0
M  V30 13153 H 1187.93 -0.388361 0.73014 0
M  V30 13154 H 1190.48 -0.0591118 1.69597 0
M  V30 13155 H 1189.25 -0.467813 3.88494 0
M  V30 13156 H 1188.87 -2.10472 3.37324 0
M  V30 13157 N 1189.87 -1.5367 -0.349747 0
M  V30 13158 C 1190.82 -1.81223 -1.42922 0
M  V30 13159 C 1191.79 -0.657536 -1.52531 0
M  V30 13160 O 1192.97 -0.90134 -1.68168 0
M  V30 13161 C 1190.11 -2.022 -2.79659 0
M  V30 13162 C 1189.23 -3.29915 -2.78891 0
M  V30 13163 C 1188.36 -3.40993 -4.07305 0
M  V30 13164 C 1187.4 -4.6268 -4.00741 0
M  V30 13165 N 1186.54 -4.70826 -5.20833 0
M  V30 13166 H 1191.38 -2.73328 -1.18727 0
M  V30 13167 H 1188.91 -1.35386 -0.57525 0
M  V30 13168 H 1190.87 -2.12351 -3.59114 0
M  V30 13169 H 1189.5 -1.13416 -3.0222 0
M  V30 13170 H 1188.55 -3.28637 -1.91577 0
M  V30 13171 H 1189.87 -4.19459 -2.69917 0
M  V30 13172 H 1189.02 -3.50542 -4.95182 0
M  V30 13173 H 1187.76 -2.49493 -4.19052 0
M  V30 13174 H 1186.76 -4.53215 -3.11249 0
M  V30 13175 H 1187.99 -5.55538 -3.90582 0
M  V30 13176 H 1185.93 -3.82233 -5.33136 0
M  V30 13177 H 1185.85 -5.54297 -5.14092 0
M  V30 13178 H 1187.12 -4.84677 -6.10499 0
M  V30 13179 N 1191.35 0.610423 -1.45298 0
M  V30 13180 C 1192.26 1.74964 -1.56285 0
M  V30 13181 C 1193.27 1.68149 -0.447436 0
M  V30 13182 O 1194.45 1.88556 -0.707725 0
M  V30 13183 C 1191.52 3.11417 -1.52383 0
M  V30 13184 C 1190.58 3.29707 -2.7494 0
M  V30 13185 C 1189.81 4.5965 -2.71215 0
M  V30 13186 O 1190.03 5.41789 -1.78383 0
M  V30 13187 O 1188.97 4.80591 -3.62375 0
M  V30 13188 H 1192.79 1.68646 -2.52571 0
M  V30 13189 H 1190.38 0.774168 -1.27777 0
M  V30 13190 H 1192.26 3.9272 -1.52805 0
M  V30 13191 H 1190.93 3.18232 -0.592472 0
M  V30 13192 H 1189.84 2.48003 -2.80081 0
M  V30 13193 H 1191.17 3.27766 -3.67192 0
M  V30 13194 N 1192.83 1.32541 0.852676 0
M  V30 13195 C 1194.07 1.23397 1.60938 0
M  V30 13196 C 1194.41 -0.203294 1.93133 0
M  V30 13197 O 1193.68 -1.14097 1.57519 0
M  V30 13198 C 1193.96 2.0956 2.92842 0
M  V30 13199 C 1193.82 3.61675 2.67416 0
M  V30 13200 C 1195.14 1.95825 3.94133 0
M  V30 13201 H 1192.25 0.449608 0.583971 0
M  V30 13202 H 1194.9 1.62507 0.98446 0
M  V30 13203 H 1193.05 1.76336 3.46176 0
M  V30 13204 H 1194.72 4.05122 2.20621 0
M  V30 13205 H 1192.96 3.84242 2.01347 0
M  V30 13206 H 1193.63 4.17292 3.61347 0
M  V30 13207 H 1196.11 2.24935 3.50062 0
M  V30 13208 H 1194.98 2.58387 4.8428 0
M  V30 13209 H 1195.25 0.926466 4.32284 0
M  V30 13210 N 1194.3 -1.0692 1.15784 0
M  V30 13211 C 1195.24 -2.14168 0.816375 0
M  V30 13212 C 1196.25 -1.61872 -0.17357 0
M  V30 13213 O 1197.44 -1.78429 0.0502973 0
M  V30 13214 C 1194.54 -3.38346 0.193682 0
M  V30 13215 C 1193.71 -4.19979 1.22215 0
M  V30 13216 C 1192.77 -5.2253 0.620424 0
M  V30 13217 O 1191.8 -5.54446 1.28757 0
M  V30 13218 N 1193 -5.77434 -0.595811 0
M  V30 13219 H 1195.76 -2.44062 1.73937 0
M  V30 13220 H 1193.32 -1.22865 1.05431 0
M  V30 13221 H 1195.32 -4.04092 -0.22174 0
M  V30 13222 H 1193.89 -3.06129 -0.632735 0
M  V30 13223 H 1193.11 -3.49984 1.81397 0
M  V30 13224 H 1194.39 -4.71329 1.91641 0
M  V30 13225 H 1193.79 -5.5376 -1.15611 0
M  V30 13226 H 1192.35 -6.44788 -0.953529 0
M  V30 13227 N 1195.78 -0.955326 -1.25345 0
M  V30 13228 C 1197.03 -0.62095 -1.9369 0
M  V30 13229 C 1197.38 0.832995 -1.73433 0
M  V30 13230 O 1196.68 1.58991 -1.06922 0
M  V30 13231 C 1196.87 -0.916173 -3.45458 0
M  V30 13232 C 1196.7 -2.39726 -3.80475 0
M  V30 13233 C 1195.47 -3.05494 -4.02494 0
M  V30 13234 C 1197.67 -3.37664 -3.87927 0
M  V30 13235 N 1195.65 -4.43469 -4.2451 0
M  V30 13236 C 1197.02 -4.60949 -4.1464 0
M  V30 13237 C 1199.08 -3.32493 -3.70611 0
M  V30 13238 C 1197.78 -5.79703 -4.25837 0
M  V30 13239 C 1199.8 -4.50586 -3.83048 0
M  V30 13240 C 1199.17 -5.72657 -4.10174 0
M  V30 13241 H 1195.27 -0.277847 -0.730976 0
M  V30 13242 H 1197.85 -1.22764 -1.51119 0
M  V30 13243 H 1196.02 -0.338402 -3.86923 0
M  V30 13244 H 1197.75 -0.54163 -4.01059 0
M  V30 13245 H 1194.51 -2.56063 -3.98408 0
M  V30 13246 H 1194.93 -5.14927 -4.39522 0
M  V30 13247 H 1199.57 -2.39163 -3.48656 0
M  V30 13248 H 1197.29 -6.73473 -4.46609 0
M  V30 13249 H 1200.88 -4.48133 -3.71036 0
M  V30 13250 H 1199.76 -6.62512 -4.19581 0
M  V30 13251 N 1197.26 1.39987 -0.723979 0
M  V30 13252 C 1198.51 2.01514 -0.276365 0
M  V30 13253 C 1198.86 1.56399 1.12058 0
M  V30 13254 O 1198.16 0.777927 1.75097 0
M  V30 13255 C 1198.35 3.56101 -0.304472 0
M  V30 13256 C 1198.18 4.16223 -1.70261 0
M  V30 13257 C 1196.95 4.49292 -2.31225 0
M  V30 13258 C 1199.15 4.40512 -2.65431 0
M  V30 13259 N 1197.13 4.94854 -3.63308 0
M  V30 13260 C 1198.5 4.88158 -3.82232 0
M  V30 13261 C 1200.55 4.22562 -2.63335 0
M  V30 13262 C 1199.26 5.19739 -4.97256 0
M  V30 13263 C 1201.28 4.5525 -3.77493 0
M  V30 13264 C 1200.65 5.03093 -4.93028 0
M  V30 13265 H 1196.74 0.768031 -0.147146 0
M  V30 13266 H 1199.33 1.70085 -0.947581 0
M  V30 13267 H 1197.5 3.86941 0.336344 0
M  V30 13268 H 1199.23 4.04381 0.160647 0
M  V30 13269 H 1195.99 4.36712 -1.83248 0
M  V30 13270 H 1196.41 5.22007 -4.31089 0
M  V30 13271 H 1201.05 3.84786 -1.75212 0
M  V30 13272 H 1198.77 5.56426 -5.86017 0
M  V30 13273 H 1202.36 4.42995 -3.77156 0
M  V30 13274 H 1201.24 5.27909 -5.79898 0
M  V30 13275 N 1198.74 0.470782 1.50404 0
M  V30 13276 C 1199.69 -0.337584 2.30137 0
M  V30 13277 C 1200.68 -0.990673 1.37412 0
M  V30 13278 O 1201.89 -0.921813 1.54605 0
M  V30 13279 H 1198.26 -0.127707 0.741077 0
M  V30 13280 H 1200.23 0.355297 2.96277 0
M  V30 13281 C 1198.98 -1.40714 3.17954 0
M  V30 13282 H 1198.31 -0.913982 3.89213 0
M  V30 13283 H 1199.75 -1.94533 3.7674 0
M  V30 13284 C 1198.2 -2.40889 2.35529 0
M  V30 13285 O 1198.73 -3.46153 2.03816 0
M  V30 13286 N 1196.94 -2.126 1.98115 0
M  V30 13287 H 1196.49 -1.27023 2.24105 0
M  V30 13288 H 1196.45 -2.7986 1.43269 0
M  V30 13289 N 1200.22 -1.56282 0.203376 0
M  V30 13290 C 1201.17 -2.16094 -0.727145 0
M  V30 13291 C 1202.15 -1.10404 -1.17046 0
M  V30 13292 O 1203.34 -1.36444 -1.12748 0
M  V30 13293 C 1200.47 -2.83029 -1.94293 0
M  V30 13294 C 1199.56 -3.9592 -1.52013 0
M  V30 13295 N 1199.95 -4.99292 -0.808794 0
M  V30 13296 C 1198.25 -4.07674 -1.80881 0
M  V30 13297 C 1198.95 -5.78641 -0.595738 0
M  V30 13298 N 1197.92 -5.31362 -1.14697 0
M  V30 13299 H 1201.73 -2.93378 -0.175041 0
M  V30 13300 H 1199.24 -1.624 0.00390859 0
M  V30 13301 H 1201.24 -3.24277 -2.62012 0
M  V30 13302 H 1199.9 -2.07235 -2.49968 0
M  V30 13303 H 1200.91 -5.15823 -0.463383 0
M  V30 13304 H 1197.59 -3.43016 -2.38005 0
M  V30 13305 H 1198.98 -6.71893 -0.0308618 0
M  V30 13306 N 1201.7 0.070167 -1.57444 0
M  V30 13307 C 1202.66 1.06761 -2.02817 0
M  V30 13308 C 1203.66 1.31498 -0.925462 0
M  V30 13309 O 1204.85 1.27192 -1.19029 0
M  V30 13310 C 1201.98 2.41086 -2.41019 0
M  V30 13311 H 1203.17 0.67651 -2.9217 0
M  V30 13312 H 1200.73 0.315936 -1.53074 0
M  V30 13313 H 1201.46 2.85025 -1.54697 0
M  V30 13314 H 1201.25 2.24472 -3.21488 0
M  V30 13315 H 1202.74 3.12778 -2.76694 0
M  V30 13316 N 1203.17 1.53854 0.341593 0
M  V30 13317 C 1204.11 1.78295 1.44027 0
M  V30 13318 C 1205.12 0.664303 1.4863 0
M  V30 13319 O 1206.31 0.941073 1.51678 0
M  V30 13320 C 1203.41 1.86947 2.82673 0
M  V30 13321 C 1202.58 3.16898 3.01487 0
M  V30 13322 C 1201.64 3.16483 4.20386 0
M  V30 13323 O 1200.67 3.90197 4.14409 0
M  V30 13324 N 1201.87 2.3899 5.29022 0
M  V30 13325 H 1204.63 2.73102 1.23431 0
M  V30 13326 H 1202.19 1.52928 0.531483 0
M  V30 13327 H 1204.19 1.84118 3.60392 0
M  V30 13328 H 1202.76 0.993169 2.96403 0
M  V30 13329 H 1201.98 3.32835 2.11221 0
M  V30 13330 H 1203.26 4.02733 3.1094 0
M  V30 13331 H 1202.66 1.78657 5.36748 0
M  V30 13332 H 1201.22 2.41957 6.05227 0
M  V30 13333 N 1204.65 -0.602709 1.4562 0
M  V30 13334 C 1205.56 -1.74132 1.5721 0
M  V30 13335 C 1206.58 -1.67909 0.456347 0
M  V30 13336 O 1207.75 -1.88178 0.717714 0
M  V30 13337 C 1204.82 -3.10604 1.54032 0
M  V30 13338 C 1203.88 -3.28244 2.76685 0
M  V30 13339 C 1203.11 -4.58205 2.73649 0
M  V30 13340 O 1203.34 -5.40836 1.81254 0
M  V30 13341 O 1202.27 -4.78663 3.64919 0
M  V30 13342 H 1206.1 -1.67304 2.53462 0
M  V30 13343 H 1203.68 -0.767381 1.28186 0
M  V30 13344 H 1205.56 -3.91904 1.54885 0
M  V30 13345 H 1204.24 -3.17913 0.60934 0
M  V30 13346 H 1203.14 -2.46514 2.81393 0
M  V30 13347 H 1204.48 -3.25814 3.68925 0
M  V30 13348 N 1206.13 -1.32992 -0.845635 0
M  V30 13349 C 1207.04 -1.24701 -1.98713 0
M  V30 13350 C 1208.06 -0.158864 -1.73273 0
M  V30 13351 O 1209.23 -0.381209 -1.97759 0
M  V30 13352 C 1206.3 -0.979524 -3.32575 0
M  V30 13353 C 1205.36 -2.15701 -3.71176 0
M  V30 13354 C 1204.59 -1.90219 -4.98651 0
M  V30 13355 O 1204.81 -0.849171 -5.64044 0
M  V30 13356 O 1203.75 -2.76571 -5.34595 0
M  V30 13357 H 1207.57 -2.20683 -2.08645 0
M  V30 13358 H 1205.16 -1.12971 -0.97765 0
M  V30 13359 H 1207.04 -0.847219 -4.12796 0
M  V30 13360 H 1205.72 -0.0499398 -3.23661 0
M  V30 13361 H 1204.62 -2.34483 -2.91494 0
M  V30 13362 H 1205.96 -3.0697 -3.84747 0
M  V30 13363 N 1207.61 1.06304 -1.1635 0
M  V30 13364 C 1208.54 2.13732 -0.827721 0
M  V30 13365 C 1209.55 1.61962 0.164983 0
M  V30 13366 O 1210.74 1.784 -0.0597591 0
M  V30 13367 C 1207.84 3.38239 -0.211623 0
M  V30 13368 C 1207.01 4.19325 -1.2444 0
M  V30 13369 C 1206.07 5.22193 -0.648127 0
M  V30 13370 O 1205.1 5.53755 -1.31695 0
M  V30 13371 N 1206.3 5.77742 0.565179 0
M  V30 13372 H 1209.07 2.43136 -1.75228 0
M  V30 13373 H 1206.63 1.22304 -1.06081 0
M  V30 13374 H 1208.62 4.04204 0.200306 0
M  V30 13375 H 1207.19 3.06461 0.616491 0
M  V30 13376 H 1206.41 3.49017 -1.83251 0
M  V30 13377 H 1207.7 4.70306 -1.94138 0
M  V30 13378 H 1207.1 5.54366 1.12673 0
M  V30 13379 H 1205.65 6.45284 0.919321 0
M  V30 13380 N 1209.09 0.96196 1.24836 0
M  V30 13381 C 1210.03 0.48686 2.25607 0
M  V30 13382 C 1211 -0.464546 1.59472 0
M  V30 13383 O 1212.19 -0.376179 1.87055 0
M  V30 13384 C 1209.33 -0.222294 3.44383 0
M  V30 13385 C 1208.44 0.767206 4.25133 0
M  V30 13386 C 1207.58 0.0347458 5.31189 0
M  V30 13387 C 1206.61 1.01469 6.03631 0
M  V30 13388 N 1205.75 0.312619 7.01404 0
M  V30 13389 H 1210.59 1.35104 2.65614 0
M  V30 13390 H 1208.13 0.677373 1.30576 0
M  V30 13391 H 1210.09 -0.650087 4.12104 0
M  V30 13392 H 1208.72 -1.05047 3.0523 0
M  V30 13393 H 1207.77 1.31346 3.57005 0
M  V30 13394 H 1209.08 1.5147 4.75245 0
M  V30 13395 H 1208.23 -0.451325 6.05019 0
M  V30 13396 H 1206.97 -0.745485 4.81969 0
M  V30 13397 H 1205.98 1.51169 5.28609 0
M  V30 13398 H 1207.2 1.79527 6.5494 0
M  V30 13399 H 1205.15 -0.44874 6.54463 0
M  V30 13400 H 1205.07 0.999079 7.49369 0
M  V30 13401 H 1206.33 -0.151673 7.79352 0
M  V30 13402 N 1210.56 -1.39601 0.731392 0
M  V30 13403 C 1211.51 -2.30628 0.0890606 0
M  V30 13404 C 1212.48 -1.49025 -0.73353 0
M  V30 13405 O 1213.67 -1.77722 -0.694234 0
M  V30 13406 C 1210.81 -3.35339 -0.814956 0
M  V30 13407 C 1209.92 -4.31995 0.0198606 0
M  V30 13408 C 1209.05 -5.23774 -0.885095 0
M  V30 13409 C 1208.09 -6.12083 -0.045311 0
M  V30 13410 N 1207.23 -6.9623 -0.906002 0
M  V30 13411 H 1212.07 -2.84988 0.870958 0
M  V30 13412 H 1209.61 -1.40329 0.441166 0
M  V30 13413 H 1211.56 -3.94634 -1.3535 0
M  V30 13414 H 1210.19 -2.82443 -1.56287 0
M  V30 13415 H 1209.25 -3.74349 0.675778 0
M  V30 13416 H 1210.56 -4.94289 0.669346 0
M  V30 13417 H 1209.71 -5.88078 -1.49161 0
M  V30 13418 H 1208.45 -4.61794 -1.56837 0
M  V30 13419 H 1207.46 -5.46795 0.574028 0
M  V30 13420 H 1208.68 -6.76128 0.634692 0
M  V30 13421 H 1206.63 -6.36821 -1.57463 0
M  V30 13422 H 1206.54 -7.55352 -0.312914 0
M  V30 13423 H 1207.81 -7.64967 -1.49819 0
M  V30 13424 N 1212.04 -0.478751 -1.50152 0
M  V30 13425 C 1212.97 0.301182 -2.31549 0
M  V30 13426 C 1213.95 0.983276 -1.38801 0
M  V30 13427 O 1215.14 0.978973 -1.67719 0
M  V30 13428 C 1212.27 1.3791 -3.18745 0
M  V30 13429 C 1211.22 0.818175 -4.20107 0
M  V30 13430 C 1210.55 1.99496 -4.9609 0
M  V30 13431 C 1211.85 -0.17574 -5.22004 0
M  V30 13432 H 1213.54 -0.378188 -2.97002 0
M  V30 13433 H 1211.09 -0.183323 -1.42828 0
M  V30 13434 H 1213.04 1.93227 -3.74488 0
M  V30 13435 H 1211.77 2.08735 -2.51192 0
M  V30 13436 H 1210.42 0.286924 -3.65475 0
M  V30 13437 H 1210.07 2.69036 -4.25004 0
M  V30 13438 H 1209.77 1.62582 -5.6466 0
M  V30 13439 H 1211.3 2.55288 -5.54671 0
M  V30 13440 H 1212.71 0.288513 -5.72574 0
M  V30 13441 H 1211.11 -0.459549 -5.98338 0
M  V30 13442 H 1212.18 -1.09911 -4.72279 0
M  V30 13443 N 1213.52 1.56172 -0.211661 0
M  V30 13444 C 1214.8 1.8984 0.471195 0
M  V30 13445 C 1215.18 1.1276 1.78461 0
M  V30 13446 O 1214.53 0.233817 2.27301 0
M  V30 13447 C 1214.74 3.42434 0.673814 0
M  V30 13448 C 1216.08 4.13 0.985719 0
M  V30 13449 O 1217.11 3.47977 0.760953 0
M  V30 13450 O 1215.97 5.2795 1.41176 0
M  V30 13451 H 1213.06 0.789008 0.247782 0
M  V30 13452 H 1215.61 1.67802 -0.25311 0
M  V30 13453 H 1214.38 3.90481 -0.253034 0
M  V30 13454 H 1214 3.70218 1.44997 0
M  V30 13455 N 1215 -0.0618163 1.57479 0
M  V30 13456 C 1215.95 -1.09105 2.05424 0
M  V30 13457 C 1216.94 -1.3947 0.961479 0
M  V30 13458 O 1218.15 -1.3876 1.14655 0
M  V30 13459 H 1214.52 -0.36923 0.655113 0
M  V30 13460 H 1216.49 -0.66061 2.90996 0
M  V30 13461 C 1215.24 -2.39345 2.52209 0
M  V30 13462 H 1214.56 -2.16832 3.35893 0
M  V30 13463 H 1216 -3.09784 2.89499 0
M  V30 13464 C 1214.46 -3.06011 1.40922 0
M  V30 13465 O 1214.99 -3.94504 0.756921 0
M  V30 13466 N 1213.2 -2.66797 1.15186 0
M  V30 13467 H 1212.75 -1.94923 1.68412 0
M  V30 13468 H 1212.7 -3.11724 0.409324 0
M  V30 13469 N 1216.48 -1.54033 -0.333429 0
M  V30 13470 C 1217.71 -1.75461 -1.09073 0
M  V30 13471 C 1218.11 -0.498488 -1.82515 0
M  V30 13472 O 1217.46 0.540029 -1.75583 0
M  V30 13473 C 1217.52 -2.88744 -2.14166 0
M  V30 13474 C 1217.18 -4.27998 -1.60209 0
M  V30 13475 C 1218.18 -5.09206 -1.04907 0
M  V30 13476 C 1215.87 -4.74513 -1.6475 0
M  V30 13477 C 1217.86 -6.35035 -0.548615 0
M  V30 13478 C 1215.55 -6.00312 -1.14318 0
M  V30 13479 C 1216.54 -6.80406 -0.594667 0
M  V30 13480 O 1216.23 -8.0384 -0.097891 0
M  V30 13481 H 1215.96 -0.589586 -0.330702 0
M  V30 13482 H 1218.52 -2.01697 -0.388274 0
M  V30 13483 H 1216.75 -2.58057 -2.87999 0
M  V30 13484 H 1218.44 -2.98048 -2.7554 0
M  V30 13485 H 1219.2 -4.74428 -1.00713 0
M  V30 13486 H 1215.08 -4.12222 -2.06384 0
M  V30 13487 H 1218.63 -6.97497 -0.119823 0
M  V30 13488 H 1214.52 -6.34583 -1.18215 0
M  V30 13489 H 1215.29 -8.1822 -0.214237 0
M  V30 13490 N 1217.95 0.594978 -1.45938 0
M  V30 13491 C 1219.18 1.37994 -1.5416 0
M  V30 13492 C 1219.6 1.87954 -0.17848 0
M  V30 13493 O 1218.95 1.62932 0.822161 0
M  V30 13494 C 1219.01 2.57586 -2.53637 0
M  V30 13495 O 1218.73 2.09698 -3.84653 0
M  V30 13496 C 1220.23 3.50292 -2.71681 0
M  V30 13497 H 1217.45 0.421983 -0.5217 0
M  V30 13498 H 1219.99 0.724459 -1.91238 0
M  V30 13499 H 1218.15 3.19149 -2.19597 0
M  V30 13500 H 1218.56 2.87492 -4.3869 0
M  V30 13501 H 1220.03 4.30717 -3.45234 0
M  V30 13502 H 1220.51 4.01444 -1.78156 0
M  V30 13503 H 1221.12 2.94573 -3.06768 0
M  V30 13504 N 1219.43 1.33438 0.838571 0
M  V30 13505 C 1220.4 1.23632 1.92997 0
M  V30 13506 C 1221.4 0.155302 1.60048 0
M  V30 13507 O 1222.59 0.406852 1.69382 0
M  V30 13508 C 1219.72 0.90512 3.28665 0
M  V30 13509 H 1220.91 2.20643 2.03117 0
M  V30 13510 H 1218.46 1.17501 1.03069 0
M  V30 13511 H 1219.2 -0.0624833 3.2424 0
M  V30 13512 H 1218.98 1.68688 3.53959 0
M  V30 13513 H 1220.47 0.861262 4.08622 0
M  V30 13514 N 1220.91 -1.05686 1.16912 0
M  V30 13515 C 1222.32 -1.60059 0.961153 0
M  V30 13516 C 1222.67 -1.89894 -0.493409 0
M  V30 13517 O 1221.8 -1.67692 -1.36778 0
M  V30 13518 C 1222.39 -2.90803 1.73837 0
M  V30 13519 C 1220.95 -3.41854 1.57522 0
M  V30 13520 C 1220.1 -2.15658 1.74319 0
M  V30 13521 H 1223.05 -0.885592 1.31693 0
M  V30 13522 H 1223.07 -3.60485 1.21781 0
M  V30 13523 H 1222.58 -2.69056 2.79697 0
M  V30 13524 H 1220.68 -3.68647 0.541284 0
M  V30 13525 H 1220.8 -4.16771 2.36302 0
M  V30 13526 H 1219.16 -2.26177 1.17115 0
M  V30 13527 H 1219.94 -1.96386 2.8158 0
M  V30 13528 N 1222.39 -0.968567 -1.24324 0
M  V30 13529 C 1223.64 -0.630928 -1.9242 0
M  V30 13530 C 1223.96 0.834001 -1.75712 0
M  V30 13531 O 1223.22 1.61558 -1.10442 0
M  V30 13532 C 1223.52 -0.952762 -3.44467 0
M  V30 13533 C 1223.18 -2.40597 -3.81345 0
M  V30 13534 C 1221.85 -2.80316 -3.91122 0
M  V30 13535 C 1224.2 -3.34906 -3.99359 0
M  V30 13536 C 1221.53 -4.13383 -4.16331 0
M  V30 13537 C 1223.88 -4.67602 -4.26065 0
M  V30 13538 C 1222.54 -5.07097 -4.34061 0
M  V30 13539 H 1221.81 -0.230873 -0.704116 0
M  V30 13540 H 1224.46 -1.22022 -1.47591 0
M  V30 13541 H 1222.76 -0.281244 -3.90789 0
M  V30 13542 H 1224.46 -0.6699 -3.95365 0
M  V30 13543 H 1221.05 -2.088 -3.743 0
M  V30 13544 H 1225.23 -3.05404 -3.91206 0
M  V30 13545 H 1220.49 -4.43606 -4.20742 0
M  V30 13546 H 1224.66 -5.40646 -4.38948 0
M  V30 13547 H 1222.29 -6.10229 -4.53349 0
M  V30 13548 N 1223.87 1.39211 -0.738786 0
M  V30 13549 C 1225.11 2.00436 -0.28839 0
M  V30 13550 C 1225.44 1.58626 1.12552 0
M  V30 13551 O 1224.7 0.808154 1.78234 0
M  V30 13552 C 1225 3.55758 -0.342224 0
M  V30 13553 C 1224.66 4.1723 -1.70968 0
M  V30 13554 C 1223.32 4.33734 -2.08395 0
M  V30 13555 C 1225.68 4.51294 -2.60736 0
M  V30 13556 C 1223 4.81592 -3.35091 0
M  V30 13557 C 1225.36 5.00562 -3.86808 0
M  V30 13558 C 1224.02 5.15274 -4.24322 0
M  V30 13559 H 1223.29 0.733447 -0.105529 0
M  V30 13560 H 1225.94 1.66481 -0.94637 0
M  V30 13561 H 1224.24 3.8976 0.399331 0
M  V30 13562 H 1225.94 4.00993 0.0244582 0
M  V30 13563 H 1222.53 4.04788 -1.4087 0
M  V30 13564 H 1226.71 4.38158 -2.3309 0
M  V30 13565 H 1221.97 4.91167 -3.64095 0
M  V30 13566 H 1226.14 5.25892 -4.5652 0
M  V30 13567 H 1223.77 5.52119 -5.2256 0
M  V30 13568 N 1225.34 0.486708 1.49896 0
M  V30 13569 C 1226.29 -0.299294 2.28851 0
M  V30 13570 C 1227.26 -0.973251 1.346 0
M  V30 13571 O 1228.45 -0.982678 1.63548 0
M  V30 13572 C 1225.59 -1.36624 3.16904 0
M  V30 13573 C 1224.7 -0.705492 4.262 0
M  V30 13574 C 1223.83 -1.75165 5.01488 0
M  V30 13575 C 1222.87 -1.072 6.0264 0
M  V30 13576 N 1222.01 -2.06172 6.71147 0
M  V30 13577 H 1226.85 0.380272 2.95564 0
M  V30 13578 H 1224.39 0.199377 1.45743 0
M  V30 13579 H 1226.35 -1.99666 3.66319 0
M  V30 13580 H 1224.98 -2.01476 2.52205 0
M  V30 13581 H 1224.03 0.0378757 3.80381 0
M  V30 13582 H 1225.34 -0.169774 4.98511 0
M  V30 13583 H 1224.49 -2.45749 5.547 0
M  V30 13584 H 1223.23 -2.3212 4.28919 0
M  V30 13585 H 1222.24 -0.351868 5.48673 0
M  V30 13586 H 1223.46 -0.509139 6.77189 0
M  V30 13587 H 1221.41 -2.62115 6.01358 0
M  V30 13588 H 1221.33 -1.57627 7.39385 0
M  V30 13589 H 1222.59 -2.76088 7.28969 0
M  V30 13590 N 1226.82 -1.56058 0.219941 0
M  V30 13591 C 1227.77 -2.16853 -0.704185 0
M  V30 13592 C 1228.76 -1.11639 -1.15869 0
M  V30 13593 O 1229.95 -1.37632 -1.11295 0
M  V30 13594 C 1227.08 -2.85073 -1.9128 0
M  V30 13595 C 1226.16 -3.9751 -1.47805 0
M  V30 13596 N 1226.56 -5.00121 -0.755792 0
M  V30 13597 C 1224.85 -4.0957 -1.76546 0
M  V30 13598 C 1225.55 -5.79241 -0.534332 0
M  V30 13599 N 1224.53 -5.32549 -1.09055 0
M  V30 13600 H 1228.33 -2.93547 -0.143914 0
M  V30 13601 H 1225.85 -1.62386 0.021133 0
M  V30 13602 H 1227.84 -3.27037 -2.58558 0
M  V30 13603 H 1226.5 -2.09874 -2.47756 0
M  V30 13604 H 1227.51 -5.16285 -0.408647 0
M  V30 13605 H 1224.19 -3.45521 -2.34353 0
M  V30 13606 H 1225.58 -6.71888 0.0404032 0
M  V30 13607 N 1228.3 0.053464 -1.57509 0
M  V30 13608 C 1229.25 1.06155 -2.04939 0
M  V30 13609 C 1230.22 1.37382 -0.93357 0
M  V30 13610 O 1231.4 1.48137 -1.2025 0
M  V30 13611 C 1228.54 2.36476 -2.51343 0
M  V30 13612 C 1227.66 2.1162 -3.76618 0
M  V30 13613 C 1226.79 3.35636 -4.11731 0
M  V30 13614 C 1225.83 3.06226 -5.29993 0
M  V30 13615 N 1224.97 4.22623 -5.60655 0
M  V30 13616 H 1229.81 0.650122 -2.90822 0
M  V30 13617 H 1227.34 0.309421 -1.43809 0
M  V30 13618 H 1229.3 3.12588 -2.76306 0
M  V30 13619 H 1227.93 2.75386 -1.68411 0
M  V30 13620 H 1226.98 1.26116 -3.58886 0
M  V30 13621 H 1228.3 1.85909 -4.6286 0
M  V30 13622 H 1227.45 4.20132 -4.37692 0
M  V30 13623 H 1226.19 3.64439 -3.24092 0
M  V30 13624 H 1225.19 2.20128 -5.03809 0
M  V30 13625 H 1226.42 2.78726 -6.19265 0
M  V30 13626 H 1224.37 4.51424 -4.75976 0
M  V30 13627 H 1224.28 4.0025 -6.41355 0
M  V30 13628 H 1225.55 5.08063 -5.91178 0
M  V30 13629 N 1229.78 1.54207 0.325255 0
M  V30 13630 C 1231.06 1.6298 1.08153 0
M  V30 13631 C 1231.44 0.462583 2.05969 0
M  V30 13632 O 1230.78 -0.543323 2.21947 0
M  V30 13633 C 1230.99 2.999 1.78497 0
M  V30 13634 C 1232.34 3.55888 2.3158 0
M  V30 13635 O 1233.37 3.02194 1.88566 0
M  V30 13636 O 1232.23 4.49847 3.10322 0
M  V30 13637 H 1229.32 0.659923 0.498429 0
M  V30 13638 H 1231.87 1.66553 0.325282 0
M  V30 13639 H 1230.64 3.7629 1.07338 0
M  V30 13640 H 1230.26 2.99997 2.60936 0
M  V30 13641 N 1231.26 -0.58723 1.46251 0
M  V30 13642 C 1232.5 -1.3476 1.51551 0
M  V30 13643 C 1232.84 -1.93499 0.16483 0
M  V30 13644 O 1232.11 -1.7622 -0.823207 0
M  V30 13645 C 1232.39 -2.48033 2.61059 0
M  V30 13646 C 1232.25 -1.94358 4.05642 0
M  V30 13647 C 1233.57 -3.50096 2.66685 0
M  V30 13648 H 1230.69 -0.48863 0.551733 0
M  V30 13649 H 1233.33 -0.660097 1.78165 0
M  V30 13650 H 1231.48 -3.06679 2.38496 0
M  V30 13651 H 1233.15 -1.40204 4.39478 0
M  V30 13652 H 1231.39 -1.25217 4.15335 0
M  V30 13653 H 1232.06 -2.76105 4.77986 0
M  V30 13654 H 1234.54 -3.01324 2.86955 0
M  V30 13655 H 1233.42 -4.26817 3.45135 0
M  V30 13656 H 1233.68 -4.07032 1.7256 0
M  V30 13657 N 1232.74 -1.33881 -0.831482 0
M  V30 13658 C 1233.67 -1.20587 -1.94914 0
M  V30 13659 C 1234.68 -0.135026 -1.62239 0
M  V30 13660 O 1235.87 -0.386116 -1.74274 0
M  V30 13661 C 1232.97 -0.828712 -3.28612 0
M  V30 13662 C 1232.14 -1.99275 -3.89369 0
M  V30 13663 C 1231.2 -1.59537 -5.01432 0
M  V30 13664 O 1230.23 -2.31076 -5.20185 0
M  V30 13665 N 1231.43 -0.5046 -5.78303 0
M  V30 13666 H 1234.19 -2.16869 -2.06852 0
M  V30 13667 H 1231.76 -1.26723 -1.00761 0
M  V30 13668 H 1233.75 -0.544827 -4.01016 0
M  V30 13669 H 1232.32 0.0436534 -3.1257 0
M  V30 13670 H 1231.54 -2.44185 -3.09463 0
M  V30 13671 H 1232.83 -2.77145 -4.26694 0
M  V30 13672 H 1232.22 0.0903105 -5.65628 0
M  V30 13673 H 1230.78 -0.280415 -6.51197 0
M  V30 13674 N 1234.21 1.05064 -1.1747 0
M  V30 13675 C 1235.14 2.14786 -0.915936 0
M  V30 13676 C 1236.12 1.69502 0.142561 0
M  V30 13677 O 1237.31 1.94198 -0.00794522 0
M  V30 13678 C 1234.44 3.44629 -0.429864 0
M  V30 13679 C 1233.39 4.03486 -1.42769 0
M  V30 13680 C 1232.72 5.28689 -0.799528 0
M  V30 13681 C 1234.02 4.40823 -2.80129 0
M  V30 13682 H 1235.71 2.3669 -1.83352 0
M  V30 13683 H 1233.26 1.13751 -0.882992 0
M  V30 13684 H 1235.21 4.20737 -0.236245 0
M  V30 13685 H 1233.94 3.22381 0.523263 0
M  V30 13686 H 1232.6 3.29449 -1.60808 0
M  V30 13687 H 1232.24 5.02744 0.160474 0
M  V30 13688 H 1231.94 5.69028 -1.46565 0
M  V30 13689 H 1233.47 6.07483 -0.616212 0
M  V30 13690 H 1234.88 5.07959 -2.65801 0
M  V30 13691 H 1233.28 4.92183 -3.43331 0
M  V30 13692 H 1234.35 3.51108 -3.34441 0
M  V30 13693 N 1235.69 0.975146 1.23809 0
M  V30 13694 C 1236.64 0.510761 2.25077 0
M  V30 13695 C 1237.61 -0.447605 1.59955 0
M  V30 13696 O 1238.79 -0.356318 1.87443 0
M  V30 13697 C 1235.93 -0.185755 3.446 0
M  V30 13698 C 1235.05 0.812254 4.24295 0
M  V30 13699 C 1234.18 0.0910835 5.31122 0
M  V30 13700 C 1233.22 1.07866 6.02521 0
M  V30 13701 N 1232.36 0.386995 7.01033 0
M  V30 13702 H 1237.2 1.37913 2.64166 0
M  V30 13703 H 1234.73 0.691184 1.2985 0
M  V30 13704 H 1236.69 -0.606341 4.1277 0
M  V30 13705 H 1235.32 -1.01803 3.06327 0
M  V30 13706 H 1234.37 1.35125 3.55592 0
M  V30 13707 H 1235.69 1.56502 4.73612 0
M  V30 13708 H 1234.84 -0.387129 6.05464 0
M  V30 13709 H 1233.58 -0.694324 4.82732 0
M  V30 13710 H 1232.58 1.56767 5.26976 0
M  V30 13711 H 1233.81 1.86464 6.52999 0
M  V30 13712 H 1231.76 -0.3793 6.54903 0
M  V30 13713 H 1231.67 1.0785 7.48268 0
M  V30 13714 H 1232.94 -0.0690036 7.79469 0
M  V30 13715 N 1237.17 -1.38817 0.746158 0
M  V30 13716 C 1238.42 -2.0028 0.299016 0
M  V30 13717 C 1238.74 -1.59221 -1.11709 0
M  V30 13718 O 1238 -0.817595 -1.77803 0
M  V30 13719 C 1238.3 -3.55571 0.361086 0
M  V30 13720 C 1237.96 -4.16317 1.73179 0
M  V30 13721 C 1236.63 -4.32622 2.10693 0
M  V30 13722 C 1238.98 -4.49905 2.63126 0
M  V30 13723 C 1236.31 -4.79808 3.3764 0
M  V30 13724 C 1238.66 -4.98504 3.89457 0
M  V30 13725 C 1237.32 -5.13016 4.27049 0
M  V30 13726 H 1236.59 -0.732877 0.109418 0
M  V30 13727 H 1239.24 -1.65977 0.955186 0
M  V30 13728 H 1237.54 -3.89966 -0.378655 0
M  V30 13729 H 1239.24 -4.01 -0.00319228 0
M  V30 13730 H 1235.83 -4.04035 1.43015 0
M  V30 13731 H 1240.02 -4.36916 2.3541 0
M  V30 13732 H 1235.27 -4.89229 3.66695 0
M  V30 13733 H 1239.45 -5.23464 4.59302 0
M  V30 13734 H 1237.07 -5.4934 5.25481 0
M  V30 13735 N 1238.65 -0.49465 -1.49636 0
M  V30 13736 C 1239.59 0.287153 -2.29007 0
M  V30 13737 C 1240.56 0.966099 -1.35114 0
M  V30 13738 O 1241.75 0.973991 -1.64067 0
M  V30 13739 C 1238.89 1.34941 -3.17624 0
M  V30 13740 C 1238 0.682879 -4.26569 0
M  V30 13741 C 1237.14 1.72503 -5.0241 0
M  V30 13742 C 1236.18 1.04003 -6.032 0
M  V30 13743 N 1235.31 2.0261 -6.7223 0
M  V30 13744 H 1240.15 -0.395941 -2.95358 0
M  V30 13745 H 1237.69 -0.207103 -1.45635 0
M  V30 13746 H 1239.65 1.9772 -3.67372 0
M  V30 13747 H 1238.28 2.00135 -2.5327 0
M  V30 13748 H 1237.33 -0.0580477 -3.80356 0
M  V30 13749 H 1238.64 0.143334 -4.98594 0
M  V30 13750 H 1237.8 2.42804 -5.55996 0
M  V30 13751 H 1236.54 2.29843 -4.30144 0
M  V30 13752 H 1235.54 0.322765 -5.48852 0
M  V30 13753 H 1236.77 0.473219 -6.77449 0
M  V30 13754 H 1234.71 2.58922 -6.0274 0
M  V30 13755 H 1234.63 1.53704 -7.4021 0
M  V30 13756 H 1235.9 2.72218 -7.30423 0
M  V30 13757 N 1240.13 1.55939 -0.228214 0
M  V30 13758 C 1241.35 2.0332 0.409364 0
M  V30 13759 C 1241.78 1.10683 1.52088 0
M  V30 13760 O 1241.13 0.0962484 1.81044 0
M  V30 13761 C 1241.18 3.48877 0.911981 0
M  V30 13762 O 1240.29 3.59378 2.02289 0
M  V30 13763 H 1239.63 0.657625 0.0917909 0
M  V30 13764 H 1242.16 2.01605 -0.348802 0
M  V30 13765 H 1242.17 3.89331 1.22007 0
M  V30 13766 H 1240.84 4.15783 0.0984902 0
M  V30 13767 H 1239.42 3.30815 1.72093 0
M  V30 13768 N 1241.6 -0.0451101 1.57535 0
M  V30 13769 C 1242.85 -0.738072 1.87711 0
M  V30 13770 C 1243.17 -1.7737 0.824579 0
M  V30 13771 O 1244.37 -2.51812 1.01503 0
M  V30 13772 C 1242.83 -1.36373 3.33062 0
M  V30 13773 C 1242.44 -0.365283 4.46508 0
M  V30 13774 C 1244.18 -2.0375 3.72406 0
M  V30 13775 C 1242.09 -0.998371 5.82912 0
M  V30 13776 H 1241.02 -0.279413 0.700317 0
M  V30 13777 H 1243.67 0.00802425 1.83498 0
M  V30 13778 H 1242.05 -2.15899 3.31969 0
M  V30 13779 H 1243.22 0.402102 4.59042 0
M  V30 13780 H 1241.54 0.205505 4.15893 0
M  V30 13781 H 1244.14 -2.51939 4.71625 0
M  V30 13782 H 1244.48 -2.84869 3.03571 0
M  V30 13783 H 1245.01 -1.3102 3.75604 0
M  V30 13784 H 1241.75 -0.226935 6.55107 0
M  V30 13785 H 1241.27 -1.73598 5.74129 0
M  V30 13786 H 1242.95 -1.51044 6.29122 0
M  V30 13787 N 1243.08 -1.54377 -0.317073 0
M  V30 13788 C 1244.01 -1.80563 -1.41172 0
M  V30 13789 C 1245.03 -0.687865 -1.47554 0
M  V30 13790 O 1246.22 -0.965084 -1.50161 0
M  V30 13791 C 1243.32 -1.9142 -2.79663 0
M  V30 13792 C 1242.49 -3.21655 -2.96407 0
M  V30 13793 C 1241.55 -3.23131 -4.15298 0
M  V30 13794 O 1240.57 -3.96741 -4.08149 0
M  V30 13795 N 1241.78 -2.47376 -5.25153 0
M  V30 13796 H 1244.54 -2.75032 -1.1907 0
M  V30 13797 H 1242.1 -1.53754 -0.507086 0
M  V30 13798 H 1244.09 -1.89828 -3.57418 0
M  V30 13799 H 1242.66 -1.0402 -2.94786 0
M  V30 13800 H 1241.88 -3.36154 -2.05899 0
M  V30 13801 H 1243.17 -4.07629 -3.04494 0
M  V30 13802 H 1242.57 -1.87173 -5.33838 0
M  V30 13803 H 1241.13 -2.51555 -6.01301 0
M  V30 13804 N 1244.56 0.579466 -1.4656 0
M  V30 13805 C 1245.49 1.7031 -1.51887 0
M  V30 13806 C 1246.47 1.58271 -0.372721 0
M  V30 13807 O 1247.66 1.79441 -0.577336 0
M  V30 13808 C 1244.78 3.0839 -1.40048 0
M  V30 13809 C 1243.83 3.3894 -2.58886 0
M  V30 13810 S 1244.66 3.30652 -4.21224 0
M  V30 13811 C 1245.82 4.71264 -4.119 0
M  V30 13812 H 1246.05 1.65533 -2.46954 0
M  V30 13813 H 1243.58 0.758477 -1.34486 0
M  V30 13814 H 1245.54 3.88046 -1.33905 0
M  V30 13815 H 1244.2 3.10653 -0.464048 0
M  V30 13816 H 1243.4 4.39547 -2.46605 0
M  V30 13817 H 1243 2.66858 -2.62036 0
M  V30 13818 H 1245.29 5.61722 -3.7878 0
M  V30 13819 H 1246.23 4.88602 -5.12517 0
M  V30 13820 H 1246.64 4.48266 -3.43101 0
M  V30 13821 N 1246.04 1.3432 0.824371 0
M  V30 13822 C 1246.97 1.2842 1.95014 0
M  V30 13823 C 1247.95 0.161925 1.69328 0
M  V30 13824 O 1249.13 0.354052 1.90945 0
M  V30 13825 C 1246.26 1.03741 3.31444 0
M  V30 13826 C 1245.22 2.12419 3.71567 0
M  V30 13827 C 1244.54 1.72931 5.05963 0
M  V30 13828 C 1245.84 3.54235 3.83817 0
M  V30 13829 H 1247.54 2.22614 2.00209 0
M  V30 13830 H 1245.08 1.07165 0.961856 0
M  V30 13831 H 1247.04 0.982586 4.09784 0
M  V30 13832 H 1245.76 0.0598892 3.26545 0
M  V30 13833 H 1244.42 2.16968 2.955 0
M  V30 13834 H 1244.07 0.738433 4.9755 0
M  V30 13835 H 1243.77 2.45668 5.3378 0
M  V30 13836 H 1245.29 1.68941 5.86763 0
M  V30 13837 H 1246.71 3.52106 4.52432 0
M  V30 13838 H 1245.1 4.25581 4.23085 0
M  V30 13839 H 1246.17 3.91682 2.85856 0
M  V30 13840 N 1247.52 -1.0444 1.18026 0
M  V30 13841 C 1248.77 -1.7697 0.9677 0
M  V30 13842 C 1249.08 -1.88995 -0.503994 0
M  V30 13843 O 1250.28 -2.58342 -0.834968 0
M  V30 13844 C 1248.74 -3.1816 1.68232 0
M  V30 13845 C 1248.35 -3.14241 3.19307 0
M  V30 13846 C 1250.09 -3.95095 1.55244 0
M  V30 13847 C 1248 -4.50266 3.83425 0
M  V30 13848 H 1246.93 -0.663355 0.358436 0
M  V30 13849 H 1249.58 -1.17003 1.4136 0
M  V30 13850 H 1247.96 -3.78501 1.16418 0
M  V30 13851 H 1249.14 -2.63373 3.78115 0
M  V30 13852 H 1247.45 -2.50805 3.32394 0
M  V30 13853 H 1250.05 -4.95681 2.00511 0
M  V30 13854 H 1250.39 -4.13236 0.504125 0
M  V30 13855 H 1250.92 -3.4132 2.04317 0
M  V30 13856 H 1247.66 -4.37329 4.88286 0
M  V30 13857 H 1247.18 -5.01251 3.29404 0
M  V30 13858 H 1248.86 -5.1919 3.86071 0
M  V30 13859 N 1248.99 -0.981699 -1.2329 0
M  V30 13860 C 1249.94 -0.52269 -2.24803 0
M  V30 13861 C 1250.91 0.439116 -1.6019 0
M  V30 13862 O 1252.1 0.346372 -1.8763 0
M  V30 13863 C 1249.24 0.167477 -3.44693 0
M  V30 13864 C 1248.35 -0.834744 -4.23858 0
M  V30 13865 C 1247.48 -0.119249 -5.31066 0
M  V30 13866 C 1246.52 -1.1106 -6.0194 0
M  V30 13867 N 1245.66 -0.424167 -7.00818 0
M  V30 13868 H 1250.5 -1.39312 -2.63431 0
M  V30 13869 H 1248.04 -0.698061 -1.29482 0
M  V30 13870 H 1250 0.584442 -4.13086 0
M  V30 13871 H 1248.63 1.00177 -3.06862 0
M  V30 13872 H 1247.68 -1.37009 -3.5487 0
M  V30 13873 H 1248.99 -1.59012 -4.72776 0
M  V30 13874 H 1248.14 0.355015 -6.0566 0
M  V30 13875 H 1246.88 0.668714 -4.83094 0
M  V30 13876 H 1245.89 -1.5956 -5.26138 0
M  V30 13877 H 1247.11 -1.89924 -6.52001 0
M  V30 13878 H 1245.06 0.344564 -6.55094 0
M  V30 13879 H 1244.98 -1.11817 -7.47685 0
M  V30 13880 H 1246.24 0.0276655 -7.79495 0
M  V30 13881 N 1250.47 1.3842 -0.753509 0
M  V30 13882 C 1251.7 2.04403 -0.320449 0
M  V30 13883 C 1252.12 1.5683 1.05118 0
M  V30 13884 O 1251.47 0.741335 1.66765 0
M  V30 13885 C 1251.52 3.59954 -0.333937 0
M  V30 13886 O 1251.24 4.05782 -1.65144 0
M  V30 13887 C 1252.75 4.43156 0.112997 0
M  V30 13888 H 1249.97 0.656881 -0.136927 0
M  V30 13889 H 1252.51 1.77112 -1.02234 0
M  V30 13890 H 1250.66 3.86083 0.319215 0
M  V30 13891 H 1251.08 5.00213 -1.57757 0
M  V30 13892 H 1252.55 5.51975 0.0523995 0
M  V30 13893 H 1253.03 4.23581 1.16087 0
M  V30 13894 H 1253.64 4.22216 -0.511278 0
M  V30 13895 N 1251.95 0.502579 1.49372 0
M  V30 13896 C 1252.88 -0.264307 2.31999 0
M  V30 13897 C 1253.86 -0.96107 1.40348 0
M  V30 13898 O 1255.05 -0.952167 1.69255 0
M  V30 13899 C 1252.18 -1.32822 3.20898 0
M  V30 13900 C 1251.13 -0.751236 4.21355 0
M  V30 13901 C 1250.46 -1.91578 4.99201 0
M  V30 13902 C 1251.76 0.258764 5.21659 0
M  V30 13903 H 1253.45 0.425391 2.96363 0
M  V30 13904 H 1251 0.206022 1.42519 0
M  V30 13905 H 1252.95 -1.87245 3.77515 0
M  V30 13906 H 1251.67 -2.04712 2.54481 0
M  V30 13907 H 1250.33 -0.228743 3.65886 0
M  V30 13908 H 1249.98 -2.62241 4.2923 0
M  V30 13909 H 1249.68 -1.53578 5.67175 0
M  V30 13910 H 1251.2 -2.46432 5.58663 0
M  V30 13911 H 1252.62 -0.197385 5.7296 0
M  V30 13912 H 1251.02 0.554681 5.97531 0
M  V30 13913 H 1252.09 1.1741 4.70471 0
M  V30 13914 N 1253.43 -1.55816 0.23648 0
M  V30 13915 C 1254.71 -1.90565 -0.440933 0
M  V30 13916 C 1255.09 -1.15585 -1.76645 0
M  V30 13917 O 1254.43 -0.269949 -2.269 0
M  V30 13918 C 1254.64 -3.43462 -0.61925 0
M  V30 13919 C 1255.99 -4.14516 -0.91989 0
M  V30 13920 O 1257.02 -3.49144 -0.705496 0
M  V30 13921 O 1255.87 -5.3013 -1.32759 0
M  V30 13922 H 1252.97 -0.79285 -0.235199 0
M  V30 13923 H 1255.51 -1.67378 0.279774 0
M  V30 13924 H 1254.29 -3.90029 0.315124 0
M  V30 13925 H 1253.91 -3.72478 -1.39089 0
M  V30 13926 N 1254.91 0.036755 -1.57557 0
M  V30 13927 C 1255.85 1.03975 -2.06053 0
M  V30 13928 C 1256.82 1.36384 -0.948089 0
M  V30 13929 O 1258.01 1.46853 -1.21815 0
M  V30 13930 C 1255.15 2.33796 -2.53837 0
M  V30 13931 C 1254.26 2.07614 -3.78841 0
M  V30 13932 C 1253.4 3.3125 -4.15267 0
M  V30 13933 C 1252.44 3.00587 -5.33211 0
M  V30 13934 N 1251.57 4.16653 -5.65106 0
M  V30 13935 H 1256.41 0.61924 -2.91495 0
M  V30 13936 H 1253.95 0.294151 -1.44129 0
M  V30 13937 H 1255.91 3.09639 -2.79606 0
M  V30 13938 H 1254.54 2.73584 -1.71323 0
M  V30 13939 H 1253.59 1.22302 -3.60203 0
M  V30 13940 H 1254.9 1.80989 -4.64806 0
M  V30 13941 H 1254.06 4.15466 -4.42123 0
M  V30 13942 H 1252.79 3.60981 -3.27939 0
M  V30 13943 H 1251.8 2.14772 -5.06115 0
M  V30 13944 H 1253.02 2.72142 -6.22186 0
M  V30 13945 H 1250.97 4.4635 -4.80737 0
M  V30 13946 H 1250.89 3.93425 -6.45564 0
M  V30 13947 H 1252.16 5.01764 -5.96534 0
M  V30 13948 N 1256.39 1.54543 0.308881 0
M  V30 13949 C 1257.32 1.87947 1.38557 0
M  V30 13950 C 1258.3 0.737622 1.53275 0
M  V30 13951 O 1259.48 0.992664 1.66913 0
M  V30 13952 C 1256.61 2.11982 2.75102 0
M  V30 13953 C 1255.57 3.2783 2.75158 0
M  V30 13954 C 1254.89 3.37266 4.14917 0
M  V30 13955 C 1256.19 4.65129 2.37598 0
M  V30 13956 H 1257.89 2.78123 1.1085 0
M  V30 13957 H 1255.43 1.3382 0.531808 0
M  V30 13958 H 1257.38 2.33935 3.50503 0
M  V30 13959 H 1256.11 1.18569 3.04317 0
M  V30 13960 H 1254.77 3.05787 2.02212 0
M  V30 13961 H 1254.42 2.41384 4.41296 0
M  V30 13962 H 1254.12 4.15135 4.15857 0
M  V30 13963 H 1255.64 3.61471 4.92109 0
M  V30 13964 H 1257.05 4.86865 3.02714 0
M  V30 13965 H 1255.45 5.45653 2.49765 0
M  V30 13966 H 1256.52 4.6638 1.32731 0
M  V30 13967 N 1257.86 -0.571685 1.46866 0
M  V30 13968 C 1258.81 -1.67992 1.58263 0
M  V30 13969 C 1259.78 -1.60535 0.426345 0
M  V30 13970 O 1260.97 -1.79584 0.644534 0
M  V30 13971 C 1258.11 -3.06327 1.58927 0
M  V30 13972 C 1257.22 -3.24328 2.85369 0
M  V30 13973 C 1256.35 -4.52976 2.77464 0
M  V30 13974 C 1255.39 -4.64359 3.98795 0
M  V30 13975 N 1254.53 -5.84345 3.89211 0
M  V30 13976 H 1259.37 -1.57589 2.52922 0
M  V30 13977 H 1256.91 -0.767883 1.25467 0
M  V30 13978 H 1258.86 -3.86411 1.57296 0
M  V30 13979 H 1257.49 -3.15601 0.677912 0
M  V30 13980 H 1256.55 -2.37774 2.96931 0
M  V30 13981 H 1257.86 -3.28605 3.7526 0
M  V30 13982 H 1257.01 -5.41303 2.74001 0
M  V30 13983 H 1255.75 -4.51155 1.85231 0
M  V30 13984 H 1254.76 -3.74448 4.02578 0
M  V30 13985 H 1255.98 -4.6795 4.92137 0
M  V30 13986 H 1253.93 -5.835 2.99772 0
M  V30 13987 H 1253.84 -5.89938 4.72768 0
M  V30 13988 H 1255.11 -6.75072 3.89741 0
M  V30 13989 N 1259.34 -1.34755 -0.817236 0
M  V30 13990 C 1260.29 -1.26801 -1.92848 0
M  V30 13991 C 1261.26 -0.142077 -1.65491 0
M  V30 13992 O 1262.44 -0.324006 -1.88029 0
M  V30 13993 C 1259.58 -1.03513 -3.2921 0
M  V30 13994 C 1258.7 -2.24932 -3.68822 0
M  V30 13995 C 1257.83 -1.94881 -4.94161 0
M  V30 13996 C 1256.87 -3.12411 -5.2637 0
M  V30 13997 N 1256.01 -2.82207 -6.42887 0
M  V30 13998 H 1260.85 -2.21832 -1.98983 0
M  V30 13999 H 1258.38 -1.10284 -0.973439 0
M  V30 14000 H 1260.34 -0.88047 -4.07803 0
M  V30 14001 H 1258.97 -0.121478 -3.22571 0
M  V30 14002 H 1258.02 -2.51299 -2.85575 0
M  V30 14003 H 1259.34 -3.12726 -3.88592 0
M  V30 14004 H 1258.49 -1.76184 -5.80555 0
M  V30 14005 H 1257.23 -1.04355 -4.76405 0
M  V30 14006 H 1256.23 -3.31698 -4.3847 0
M  V30 14007 H 1257.46 -4.03724 -5.46062 0
M  V30 14008 H 1255.41 -1.94263 -6.26576 0
M  V30 14009 H 1255.32 -3.63534 -6.62857 0
M  V30 14010 H 1256.59 -2.67026 -7.32337 0
M  V30 14011 N 1260.82 1.03812 -1.18578 0
M  V30 14012 C 1262.23 1.58509 -0.986496 0
M  V30 14013 C 1262.58 1.90655 0.463136 0
M  V30 14014 O 1261.71 1.69847 1.34093 0
M  V30 14015 C 1262.3 2.88 -1.78441 0
M  V30 14016 C 1260.86 3.39304 -1.6294 0
M  V30 14017 C 1260.01 2.12857 -1.77727 0
M  V30 14018 H 1262.96 0.864528 -1.33085 0
M  V30 14019 H 1262.98 3.58502 -1.27501 0
M  V30 14020 H 1262.49 2.64572 -2.83942 0
M  V30 14021 H 1260.59 3.6774 -0.599864 0
M  V30 14022 H 1260.71 4.12959 -2.42902 0
M  V30 14023 H 1259.07 2.24285 -1.20699 0
M  V30 14024 H 1259.85 1.91882 -2.84669 0
M  V30 14025 N 1262.3 0.988223 1.22768 0
M  V30 14026 C 1263.54 0.662441 1.91676 0
M  V30 14027 C 1263.88 -0.802931 1.76824 0
M  V30 14028 O 1263.15 -1.58011 1.13415 0
M  V30 14029 C 1263.43 1.06332 3.44043 0
M  V30 14030 C 1263.29 2.5869 3.67967 0
M  V30 14031 C 1264.61 0.613058 4.35809 0
M  V30 14032 H 1261.73 0.242132 0.69609 0
M  V30 14033 H 1264.37 1.23091 1.44736 0
M  V30 14034 H 1262.52 0.579623 3.84152 0
M  V30 14035 H 1264.19 3.14694 3.37291 0
M  V30 14036 H 1262.43 3.00971 3.12408 0
M  V30 14037 H 1263.1 2.8179 4.74656 0
M  V30 14038 H 1265.58 1.02846 4.0319 0
M  V30 14039 H 1264.46 0.921901 5.41103 0
M  V30 14040 H 1264.72 -0.48641 4.39416 0
M  V30 14041 N 1263.78 -1.38018 0.760839 0
M  V30 14042 C 1264.69 -2.34181 0.140232 0
M  V30 14043 C 1265.7 -1.59635 -0.692287 0
M  V30 14044 O 1266.88 -1.91788 -0.614752 0
M  V30 14045 C 1263.94 -3.38778 -0.73693 0
M  V30 14046 C 1263 -4.29157 0.110792 0
M  V30 14047 C 1262.24 -5.28758 -0.724599 0
M  V30 14048 O 1262.46 -5.35585 -1.96226 0
M  V30 14049 O 1261.39 -6.01738 -0.139565 0
M  V30 14050 H 1265.22 -2.88962 0.934588 0
M  V30 14051 H 1262.8 -1.3999 0.521835 0
M  V30 14052 H 1264.69 -4.02804 -1.23803 0
M  V30 14053 H 1263.36 -2.86341 -1.50966 0
M  V30 14054 H 1262.27 -3.68268 0.658007 0
M  V30 14055 H 1263.6 -4.84869 0.846346 0
M  V30 14056 N 1265.25 -0.510493 -1.49103 0
M  V30 14057 C 1266.2 0.262848 -2.29298 0
M  V30 14058 C 1267.17 0.951714 -1.36131 0
M  V30 14059 O 1268.36 0.956534 -1.65091 0
M  V30 14060 C 1265.5 1.31565 -3.19037 0
M  V30 14061 C 1264.61 0.637598 -4.27269 0
M  V30 14062 C 1263.74 1.67165 -5.04212 0
M  V30 14063 C 1262.78 0.975992 -6.04269 0
M  V30 14064 N 1261.92 1.95468 -6.74342 0
M  V30 14065 H 1266.76 -0.427246 -2.94921 0
M  V30 14066 H 1264.3 -0.222538 -1.45407 0
M  V30 14067 H 1266.25 1.93813 -3.69449 0
M  V30 14068 H 1264.88 1.97438 -2.55379 0
M  V30 14069 H 1263.94 -0.0983863 -3.80273 0
M  V30 14070 H 1265.25 0.0904435 -4.98718 0
M  V30 14071 H 1264.4 2.36893 -5.5854 0
M  V30 14072 H 1263.14 2.25267 -4.32557 0
M  V30 14073 H 1262.15 0.264534 -5.49163 0
M  V30 14074 H 1263.37 0.40134 -6.77913 0
M  V30 14075 H 1261.32 2.52515 -6.05452 0
M  V30 14076 H 1261.23 1.45845 -7.41799 0
M  V30 14077 H 1262.5 2.64455 -7.33269 0
M  V30 14078 N 1266.73 1.55688 -0.24474 0
M  V30 14079 C 1267.68 2.21289 0.655723 0
M  V30 14080 C 1268.65 1.17606 1.17295 0
M  V30 14081 O 1269.83 1.46045 1.22782 0
M  V30 14082 C 1266.97 2.91453 1.84794 0
M  V30 14083 C 1266.09 4.09787 1.36744 0
M  V30 14084 C 1265.22 4.67672 2.51905 0
M  V30 14085 C 1264.26 5.78259 2.00706 0
M  V30 14086 N 1263.4 6.30336 3.09225 0
M  V30 14087 H 1268.24 2.97865 0.0896156 0
M  V30 14088 H 1265.77 1.47064 0.0324725 0
M  V30 14089 H 1267.73 3.30331 2.54828 0
M  V30 14090 H 1266.36 2.17355 2.38656 0
M  V30 14091 H 1265.41 3.76237 0.561228 0
M  V30 14092 H 1266.73 4.89627 0.952199 0
M  V30 14093 H 1265.88 5.09113 3.29984 0
M  V30 14094 H 1264.62 3.87044 2.9673 0
M  V30 14095 H 1263.62 5.36298 1.21097 0
M  V30 14096 H 1264.85 6.60737 1.56853 0
M  V30 14097 H 1262.8 5.52614 3.53489 0
M  V30 14098 H 1262.71 7.05364 2.72025 0
M  V30 14099 H 1263.98 6.76435 3.8737 0
M  V30 14100 N 1268.21 -0.0283989 1.57574 0
M  V30 14101 C 1269.12 -1.04575 2.10003 0
M  V30 14102 C 1270.14 -1.39588 1.03881 0
M  V30 14103 O 1271.31 -1.48894 1.35619 0
M  V30 14104 C 1268.38 -2.32755 2.56955 0
M  V30 14105 C 1267.44 -2.04317 3.77562 0
M  V30 14106 C 1266.67 -3.26385 4.22266 0
M  V30 14107 O 1266.89 -4.37082 3.66491 0
M  V30 14108 O 1265.83 -3.12046 5.14695 0
M  V30 14109 H 1269.65 -0.630183 2.9709 0
M  V30 14110 H 1267.24 -0.245423 1.4737 0
M  V30 14111 H 1269.12 -3.08111 2.87482 0
M  V30 14112 H 1267.8 -2.73605 1.72979 0
M  V30 14113 H 1266.7 -1.26527 3.52054 0
M  V30 14114 H 1268.04 -1.68321 4.62524 0
M  V30 14115 N 1269.69 -1.54705 -0.300681 0
M  V30 14116 C 1270.96 -1.6468 -1.05546 0
M  V30 14117 C 1271.34 -0.495292 -2.05207 0
M  V30 14118 O 1270.69 0.507944 -2.22783 0
M  V30 14119 C 1270.9 -3.02702 -1.73703 0
M  V30 14120 C 1272.25 -3.59527 -2.25888 0
M  V30 14121 O 1273.27 -3.05156 -1.83735 0
M  V30 14122 O 1272.13 -4.54727 -3.03126 0
M  V30 14123 H 1269.23 -0.667769 -0.487867 0
M  V30 14124 H 1271.77 -1.6705 -0.298743 0
M  V30 14125 H 1270.55 -3.7795 -1.01338 0
M  V30 14126 H 1270.17 -3.0411 -2.5613 0
M  V30 14127 N 1271.17 0.563888 -1.47167 0
M  V30 14128 C 1272.11 1.67151 -1.59152 0
M  V30 14129 C 1273.08 1.60307 -0.434852 0
M  V30 14130 O 1274.27 1.7924 -0.654049 0
M  V30 14131 C 1271.41 3.0548 -1.60549 0
M  V30 14132 C 1270.52 3.2281 -2.87085 0
M  V30 14133 C 1269.66 4.51498 -2.79862 0
M  V30 14134 C 1268.7 4.62237 -4.01252 0
M  V30 14135 N 1267.83 5.82273 -3.92305 0
M  V30 14136 H 1272.67 1.56245 -2.53755 0
M  V30 14137 H 1270.21 0.761219 -1.25872 0
M  V30 14138 H 1272.17 3.85572 -1.59343 0
M  V30 14139 H 1270.8 3.15237 -0.69464 0
M  V30 14140 H 1269.85 2.36196 -2.98188 0
M  V30 14141 H 1271.16 3.2661 -3.76997 0
M  V30 14142 H 1270.32 5.39842 -2.76867 0
M  V30 14143 H 1269.05 4.50166 -1.87621 0
M  V30 14144 H 1268.06 3.72307 -4.04558 0
M  V30 14145 H 1269.28 4.65334 -4.94612 0
M  V30 14146 H 1267.23 5.81902 -3.02862 0
M  V30 14147 H 1267.15 5.87422 -4.7589 0
M  V30 14148 H 1268.42 6.72996 -3.93315 0
M  V30 14149 N 1272.64 1.35187 0.810078 0
M  V30 14150 C 1273.59 1.27822 1.92173 0
M  V30 14151 C 1274.56 0.150851 1.65414 0
M  V30 14152 O 1275.75 0.333973 1.87854 0
M  V30 14153 C 1272.89 1.05258 3.28656 0
M  V30 14154 C 1272 2.26884 3.67624 0
M  V30 14155 C 1271.13 1.97499 4.9312 0
M  V30 14156 C 1270.17 3.15198 5.24706 0
M  V30 14157 N 1269.31 2.85612 6.41381 0
M  V30 14158 H 1274.15 2.22884 1.97804 0
M  V30 14159 H 1271.69 1.10799 0.967577 0
M  V30 14160 H 1273.65 0.902084 4.07331 0
M  V30 14161 H 1272.28 0.138583 3.22502 0
M  V30 14162 H 1271.33 2.5281 2.84238 0
M  V30 14163 H 1272.64 3.14783 3.86928 0
M  V30 14164 H 1271.79 1.7926 5.79613 0
M  V30 14165 H 1270.53 1.0688 4.75844 0
M  V30 14166 H 1269.54 3.34019 4.36705 0
M  V30 14167 H 1270.76 4.06614 5.43913 0
M  V30 14168 H 1268.71 1.97583 6.25537 0
M  V30 14169 H 1268.63 3.67044 6.60919 0
M  V30 14170 H 1269.89 2.70906 7.3091 0
M  V30 14171 N 1274.12 -1.03182 1.19127 0
M  V30 14172 C 1275.07 -2.13507 0.922899 0
M  V30 14173 C 1276.06 -1.68973 -0.120171 0
M  V30 14174 O 1277.27 -1.79977 0.0288007 0
M  V30 14175 H 1273.65 -0.697516 0.281027 0
M  V30 14176 H 1275.62 -2.33335 1.86003 0
M  V30 14177 C 1274.37 -3.44442 0.474864 0
M  V30 14178 H 1273.69 -3.79125 1.26902 0
M  V30 14179 H 1275.13 -4.22744 0.326162 0
M  V30 14180 C 1273.59 -3.27002 -0.81063 0
M  V30 14181 O 1274.12 -3.55374 -1.87276 0
M  V30 14182 N 1272.32 -2.80303 -0.766713 0
M  V30 14183 H 1271.87 -2.57414 0.0978672 0
M  V30 14184 H 1271.83 -2.69015 -1.62721 0
M  V30 14185 N 1275.6 -0.99472 -1.22242 0
M  V30 14186 C 1276.83 -0.690097 -1.95052 0
M  V30 14187 C 1277.24 0.745543 -1.73456 0
M  V30 14188 O 1276.6 1.50329 -1.03477 0
M  V30 14189 C 1276.65 -0.988798 -3.47714 0
M  V30 14190 O 1276.37 -2.36803 -3.68587 0
M  V30 14191 C 1277.87 -0.702132 -4.37704 0
M  V30 14192 H 1275.09 -0.255142 -0.620599 0
M  V30 14193 H 1277.64 -1.32998 -1.55344 0
M  V30 14194 H 1275.79 -0.394684 -3.85384 0
M  V30 14195 H 1276.21 -2.4687 -4.62769 0
M  V30 14196 H 1277.68 -0.961389 -5.43564 0
M  V30 14197 H 1278.16 0.363866 -4.3769 0
M  V30 14198 H 1278.76 -1.27738 -4.05664 0
M  V30 14199 N 1277.08 1.37613 -0.768148 0
M  V30 14200 C 1278.36 1.93921 -0.255724 0
M  V30 14201 C 1278.74 1.70215 1.2486 0
M  V30 14202 O 1278.08 1.0489 2.03003 0
M  V30 14203 C 1278.29 3.43354 -0.625204 0
M  V30 14204 C 1279.64 4.20439 -0.592978 0
M  V30 14205 O 1280.67 3.51701 -0.564375 0
M  V30 14206 O 1279.52 5.43008 -0.616849 0
M  V30 14207 H 1276.62 0.824968 -0.0579366 0
M  V30 14208 H 1279.16 1.46921 -0.849257 0
M  V30 14209 H 1277.94 3.54177 -1.66356 0
M  V30 14210 H 1277.56 3.976 -0.00442816 0
M  V30 14211 N 1278.56 0.518393 1.4883 0
M  V30 14212 C 1279.5 -0.264197 2.31095 0
M  V30 14213 C 1280.5 -0.946455 1.40494 0
M  V30 14214 O 1281.7 -0.872161 1.57459 0
M  V30 14215 H 1278.08 -0.104065 0.744765 0
M  V30 14216 H 1280.05 0.449375 2.94997 0
M  V30 14217 C 1278.8 -1.30527 3.2227 0
M  V30 14218 H 1278.12 -0.789695 3.91923 0
M  V30 14219 H 1279.56 -1.82449 3.82738 0
M  V30 14220 C 1278.02 -2.33274 2.43073 0
M  V30 14221 O 1278.55 -3.39493 2.14726 0
M  V30 14222 N 1276.76 -2.06189 2.04779 0
M  V30 14223 H 1276.3 -1.19829 2.28033 0
M  V30 14224 H 1276.26 -2.7516 1.521 0
M  V30 14225 N 1280.03 -1.55556 0.252993 0
M  V30 14226 C 1280.97 -2.18978 -0.676837 0
M  V30 14227 C 1281.98 -1.16788 -1.13421 0
M  V30 14228 O 1283.17 -1.43623 -1.05993 0
M  V30 14229 C 1280.27 -2.78404 -1.93248 0
M  V30 14230 C 1279.44 -4.06072 -1.62555 0
M  V30 14231 C 1278.5 -4.49757 -2.7314 0
M  V30 14232 O 1277.53 -5.16005 -2.40266 0
M  V30 14233 N 1278.73 -4.18049 -4.0276 0
M  V30 14234 H 1281.49 -2.994 -0.134142 0
M  V30 14235 H 1279.05 -1.61734 0.0731965 0
M  V30 14236 H 1281.05 -3.04583 -2.6648 0
M  V30 14237 H 1279.62 -2.02104 -2.3848 0
M  V30 14238 H 1278.84 -3.87417 -0.728115 0
M  V30 14239 H 1280.12 -4.89297 -1.39521 0
M  V30 14240 H 1279.52 -3.64876 -4.32298 0
M  V30 14241 H 1278.08 -4.4905 -4.72438 0
M  V30 14242 N 1281.51 0.0200419 -1.57587 0
M  V30 14243 C 1282.46 1.0362 -2.08244 0
M  V30 14244 C 1283.45 1.36872 -0.998119 0
M  V30 14245 O 1284.66 1.35671 -1.18293 0
M  V30 14246 H 1281.04 0.351731 -0.664673 0
M  V30 14247 H 1283.01 0.583226 -2.92645 0
M  V30 14248 C 1281.76 2.32574 -2.58466 0
M  V30 14249 H 1281.08 2.0785 -3.41523 0
M  V30 14250 H 1282.52 3.02 -2.97611 0
M  V30 14251 C 1280.98 3.02167 -1.48986 0
M  V30 14252 O 1281.51 3.92359 -0.861251 0
M  V30 14253 N 1279.71 2.63649 -1.22219 0
M  V30 14254 H 1279.26 1.90389 -1.73521 0
M  V30 14255 H 1279.22 3.10529 -0.491828 0
M  V30 14256 N 1282.99 1.54862 0.292472 0
M  V30 14257 C 1283.9 1.89472 1.38339 0
M  V30 14258 C 1284.92 0.789783 1.55043 0
M  V30 14259 O 1286.09 1.08705 1.69544 0
M  V30 14260 C 1283.16 2.14244 2.72581 0
M  V30 14261 C 1282.22 3.37913 2.64789 0
M  V30 14262 C 1281.45 3.61494 3.92629 0
M  V30 14263 O 1281.67 2.87931 4.92394 0
M  V30 14264 O 1280.61 4.55019 3.94007 0
M  V30 14265 H 1284.43 2.82298 1.11989 0
M  V30 14266 H 1282.02 1.41161 0.489291 0
M  V30 14267 H 1283.9 2.31689 3.51991 0
M  V30 14268 H 1282.58 1.24603 2.98757 0
M  V30 14269 H 1281.48 3.25823 1.83821 0
M  V30 14270 H 1282.82 4.27711 2.43565 0
M  V30 14271 N 1284.47 -0.556076 1.47464 0
M  V30 14272 C 1285.42 -1.68406 1.60444 0
M  V30 14273 C 1286.41 -1.627 0.471713 0
M  V30 14274 O 1287.62 -1.67871 0.649551 0
M  V30 14275 H 1283.99 -0.557255 0.504946 0
M  V30 14276 H 1285.96 -1.54595 2.55231 0
M  V30 14277 C 1284.71 -3.06756 1.63695 0
M  V30 14278 H 1284.03 -3.11829 2.50206 0
M  V30 14279 H 1285.47 -3.85368 1.76827 0
M  V30 14280 C 1283.93 -3.34857 0.370485 0
M  V30 14281 O 1284.46 -3.98216 -0.527942 0
M  V30 14282 N 1282.67 -2.89521 0.250163 0
M  V30 14283 H 1282.22 -2.3814 0.982204 0
M  V30 14284 H 1282.17 -3.08694 -0.596268 0
M  V30 14285 N 1285.95 -1.35615 -0.802897 0
M  V30 14286 C 1287.18 -1.32217 -1.59142 0
M  V30 14287 C 1287.59 0.0995496 -1.88537 0
M  V30 14288 O 1286.95 1.05258 -1.49087 0
M  V30 14289 C 1287 -2.13048 -2.92049 0
M  V30 14290 O 1286.72 -3.49677 -2.63927 0
M  V30 14291 C 1288.22 -2.17278 -3.864 0
M  V30 14292 H 1285.44 -0.454054 -0.49404 0
M  V30 14293 H 1287.98 -1.78521 -0.997516 0
M  V30 14294 H 1286.14 -1.70334 -3.47944 0
M  V30 14295 H 1286.55 -3.917 -3.48814 0
M  V30 14296 H 1288.03 -2.7822 -4.76758 0
M  V30 14297 H 1288.5 -1.17253 -4.23259 0
M  V30 14298 H 1289.11 -2.6017 -3.3644 0
M  V30 14299 N 1287.43 1.02549 -1.19673 0
M  V30 14300 C 1288.65 1.8016 -1.02748 0
M  V30 14301 C 1289.08 1.83372 0.419105 0
M  V30 14302 O 1288.43 1.26222 1.30144 0
M  V30 14303 C 1288.48 3.22907 -1.60509 0
M  V30 14304 O 1287.59 4.03823 -0.836702 0
M  V30 14305 H 1286.93 0.556027 -0.362946 0
M  V30 14306 H 1289.46 1.29047 -1.5877 0
M  V30 14307 H 1289.47 3.73646 -1.63868 0
M  V30 14308 H 1288.14 3.19885 -2.65794 0
M  V30 14309 H 1286.72 3.6245 -0.876626 0
M  V30 14310 N 1288.9 1.00119 1.21713 0
M  V30 14311 C 1289.85 0.558388 2.23943 0
M  V30 14312 C 1290.82 -0.413576 1.60869 0
M  V30 14313 O 1292.01 -0.316478 1.88157 0
M  V30 14314 C 1289.15 -0.112618 3.44916 0
M  V30 14315 C 1288.26 0.902071 4.22477 0
M  V30 14316 C 1287.39 0.203722 5.30809 0
M  V30 14317 C 1286.43 1.20622 6.00097 0
M  V30 14318 N 1285.57 0.535607 7.00054 0
M  V30 14319 H 1290.41 1.43486 2.61182 0
M  V30 14320 H 1287.95 0.718572 1.28355 0
M  V30 14321 H 1289.9 -0.51865 4.13964 0
M  V30 14322 H 1288.53 -0.952827 3.08417 0
M  V30 14323 H 1287.59 1.42637 3.52645 0
M  V30 14324 H 1288.9 1.66513 4.70186 0
M  V30 14325 H 1288.05 -0.258614 6.06149 0
M  V30 14326 H 1286.79 -0.591773 4.84096 0
M  V30 14327 H 1285.8 1.6791 5.23532 0
M  V30 14328 H 1287.02 2.00273 6.48897 0
M  V30 14329 H 1284.97 -0.2403 6.5556 0
M  V30 14330 H 1284.88 1.23698 7.45812 0
M  V30 14331 H 1286.15 0.0963489 7.7944 0
M  V30 14332 N 1290.38 -1.37203 0.775435 0
M  V30 14333 C 1291.31 -2.28873 0.122374 0
M  V30 14334 C 1292.33 -1.48811 -0.660239 0
M  V30 14335 O 1293.52 -1.7142 -0.497724 0
M  V30 14336 C 1290.62 -3.28062 -0.850212 0
M  V30 14337 C 1289.79 -4.37234 -0.120633 0
M  V30 14338 C 1288.85 -5.16472 -1.00712 0
M  V30 14339 O 1287.87 -5.6726 -0.469528 0
M  V30 14340 N 1289.08 -5.31556 -2.33299 0
M  V30 14341 H 1291.84 -2.85559 0.909741 0
M  V30 14342 H 1289.4 -1.49219 0.628107 0
M  V30 14343 H 1291.39 -3.77956 -1.44678 0
M  V30 14344 H 1289.96 -2.72118 -1.53853 0
M  V30 14345 H 1289.18 -3.88688 0.656879 0
M  V30 14346 H 1290.47 -5.07354 0.383358 0
M  V30 14347 H 1289.87 -4.91883 -2.79406 0
M  V30 14348 H 1288.43 -5.84745 -2.87953 0
M  V30 14349 N 1291.86 -0.526279 -1.48553 0
M  V30 14350 C 1293.14 0.073385 -1.95462 0
M  V30 14351 C 1293.52 1.51658 -1.46843 0
M  V30 14352 O 1292.86 2.17729 -0.693293 0
M  V30 14353 C 1293.07 -0.040041 -3.48977 0
M  V30 14354 C 1294.42 0.121108 -4.24427 0
M  V30 14355 O 1295.45 0.0339335 -3.56184 0
M  V30 14356 O 1294.31 0.303297 -5.45658 0
M  V30 14357 H 1291.4 0.0813498 -0.822989 0
M  V30 14358 H 1293.95 -0.590614 -1.59091 0
M  V30 14359 H 1292.72 -1.0455 -3.77074 0
M  V30 14360 H 1292.34 0.662975 -3.92034 0
M  V30 14361 N 1293.34 1.5542 -0.261239 0
M  V30 14362 C 1294.3 2.20683 0.619011 0
M  V30 14363 C 1295.3 1.18042 1.09192 0
M  V30 14364 O 1296.49 1.43035 0.99432 0
M  V30 14365 C 1293.62 2.86179 1.85242 0
M  V30 14366 H 1294.82 2.99859 0.0493924 0
M  V30 14367 H 1292.37 1.56296 -0.0117687 0
M  V30 14368 H 1293.1 2.10978 2.4629 0
M  V30 14369 H 1292.89 3.61381 1.52138 0
M  V30 14370 H 1294.38 3.36081 2.47869 0
M  V30 14371 N 1294.82 -0.0116844 1.57596 0
M  V30 14372 C 1296.06 -0.697577 1.89679 0
M  V30 14373 C 1296.38 -1.74956 0.861122 0
M  V30 14374 O 1295.65 -1.95629 -0.103031 0
M  V30 14375 H 1294.23 -0.26064 0.700054 0
M  V30 14376 H 1296.9 0.0264782 1.94882 0
M  V30 14377 H 1295.99 -1.17621 2.89088 0
M  V30 14378 N 1296.29 -1.55015 -0.284256 0
M  V30 14379 C 1297.26 -1.8636 -1.33426 0
M  V30 14380 C 1298.26 -0.737457 -1.42892 0
M  V30 14381 O 1299.45 -1.00569 -1.42238 0
M  V30 14382 C 1296.58 -2.05884 -2.71707 0
M  V30 14383 H 1297.77 -2.80212 -1.06869 0
M  V30 14384 H 1295.32 -1.47334 -0.521767 0
M  V30 14385 H 1296.06 -1.14376 -3.03461 0
M  V30 14386 H 1295.84 -2.87867 -2.66224 0
M  V30 14387 H 1297.33 -2.31447 -3.47595 0
M  V30 14388 N 1297.77 0.548248 -1.47757 0
M  V30 14389 C 1299.05 1.3092 -1.45325 0
M  V30 14390 C 1299.43 2.1053 -0.155008 0
M  V30 14391 O 1298.78 2.11558 0.863455 0
M  V30 14392 C 1298.99 2.20614 -2.70426 0
M  V30 14393 C 1300.33 2.81345 -3.18009 0
M  V30 14394 O 1301.36 2.30911 -2.71216 0
M  V30 14395 O 1300.22 3.73036 -3.99383 0
M  V30 14396 H 1297.31 0.58996 -0.579548 0
M  V30 14397 H 1299.86 0.56641 -1.59968 0
M  V30 14398 H 1298.63 1.61449 -3.56441 0
M  V30 14399 H 1298.25 3.02173 -2.58413 0
M  V30 14400 N 1299.25 1.36039 0.795694 0
M  V30 14401 C 1300.2 1.29853 1.90806 0
M  V30 14402 C 1301.17 0.168387 1.65244 0
M  V30 14403 O 1302.35 0.353879 1.8749 0
M  V30 14404 C 1299.49 1.08737 3.27521 0
M  V30 14405 C 1298.6 2.30771 3.65197 0
M  V30 14406 C 1297.74 2.02718 4.90998 0
M  V30 14407 C 1296.78 3.20746 5.21333 0
M  V30 14408 N 1295.92 2.92399 6.38316 0
M  V30 14409 H 1300.76 2.2497 1.95429 0
M  V30 14410 H 1298.29 1.11819 0.955771 0
M  V30 14411 H 1300.25 0.945236 4.06351 0
M  V30 14412 H 1298.88 0.172781 3.22337 0
M  V30 14413 H 1297.93 2.5581 2.81541 0
M  V30 14414 H 1299.24 3.18869 3.83568 0
M  V30 14415 H 1298.4 1.85398 5.77679 0
M  V30 14416 H 1297.14 1.11921 4.74684 0
M  V30 14417 H 1296.14 3.38632 4.33138 0
M  V30 14418 H 1297.37 4.1236 5.3957 0
M  V30 14419 H 1295.31 2.04207 6.23406 0
M  V30 14420 H 1295.23 3.74034 6.56989 0
M  V30 14421 H 1296.5 2.78643 7.27996 0
M  V30 14422 N 1300.73 -1.01913 1.20215 0
M  V30 14423 C 1301.68 -2.12516 0.945493 0
M  V30 14424 C 1302.67 -1.69091 -0.102243 0
M  V30 14425 O 1303.88 -1.79936 0.047888 0
M  V30 14426 H 1300.25 -0.694496 0.288409 0
M  V30 14427 H 1302.22 -2.31349 1.88468 0
M  V30 14428 C 1300.97 -3.43919 0.51137 0
M  V30 14429 H 1300.29 -3.77758 1.30916 0
M  V30 14430 H 1301.73 -4.22374 0.370981 0
M  V30 14431 C 1300.19 -3.27844 -0.775902 0
M  V30 14432 O 1300.72 -3.5734 -1.83496 0
M  V30 14433 N 1298.93 -2.81101 -0.73694 0
M  V30 14434 H 1298.48 -2.57296 0.125164 0
M  V30 14435 H 1298.43 -2.70726 -1.59859 0
M  V30 14436 N 1302.21 -1.00763 -1.2118 0
M  V30 14437 C 1303.16 -0.541218 -2.21483 0
M  V30 14438 C 1304.14 0.398597 -1.55885 0
M  V30 14439 O 1305.33 0.22302 -1.75589 0
M  V30 14440 C 1302.46 0.128145 -3.43061 0
M  V30 14441 C 1301.55 -0.832845 -4.15842 0
M  V30 14442 N 1301.94 -1.98673 -4.65148 0
M  V30 14443 C 1300.24 -0.651779 -4.41212 0
M  V30 14444 C 1300.94 -2.59112 -5.20803 0
M  V30 14445 N 1299.91 -1.87249 -5.10332 0
M  V30 14446 H 1303.72 -1.42105 -2.57262 0
M  V30 14447 H 1301.23 -0.871796 -1.37016 0
M  V30 14448 H 1303.23 0.479771 -4.1413 0
M  V30 14449 H 1301.89 1.00392 -3.0879 0
M  V30 14450 H 1302.9 -2.36701 -4.60644 0
M  V30 14451 H 1299.57 0.1767 -4.17126 0
M  V30 14452 H 1300.96 -3.56713 -5.69391 0
M  V30 14453 N 1303.68 1.3679 -0.7827 0
M  V30 14454 C 1304.63 2.32019 -0.164358 0
M  V30 14455 C 1305.63 1.55476 0.672571 0
M  V30 14456 O 1306.83 1.7079 0.568406 0
M  V30 14457 H 1303.21 0.751214 -0.0343697 0
M  V30 14458 H 1305.18 2.81741 -0.983077 0
M  V30 14459 C 1303.93 3.4075 0.691727 0
M  V30 14460 H 1303.25 3.99759 0.0570885 0
M  V30 14461 H 1304.69 4.09719 1.09117 0
M  V30 14462 C 1303.15 2.81753 1.84708 0
M  V30 14463 O 1303.68 2.73378 2.94325 0
M  V30 14464 N 1301.89 2.39138 1.6511 0
M  V30 14465 H 1301.43 2.46149 0.759487 0
M  V30 14466 H 1301.39 2.0001 2.42576 0
M  V30 14467 N 1305.16 0.53415 1.48272 0
M  V30 14468 C 1306.39 0.00574475 2.06899 0
M  V30 14469 C 1306.81 -1.27754 1.39012 0
M  V30 14470 O 1306.16 -1.76102 0.478993 0
M  V30 14471 C 1306.21 -0.217576 3.60845 0
M  V30 14472 O 1305.93 1.01487 4.26183 0
M  V30 14473 C 1307.44 -0.785888 4.36278 0
M  V30 14474 H 1304.66 0.0353967 0.670066 0
M  V30 14475 H 1307.2 0.740984 1.90603 0
M  V30 14476 H 1305.35 -0.902875 3.76732 0
M  V30 14477 H 1305.77 0.7982 5.18391 0
M  V30 14478 H 1307.24 -0.891551 5.44753 0
M  V30 14479 H 1307.72 -1.79178 4.00989 0
M  V30 14480 H 1308.33 -0.137022 4.25079 0
M  V30 14481 N 1306.64 -1.55279 0.269478 0
M  V30 14482 C 1307.87 -2.03876 -0.352418 0
M  V30 14483 C 1308.28 -1.14804 -1.49885 0
M  V30 14484 O 1307.64 -0.166989 -1.81734 0
M  V30 14485 C 1307.69 -3.51634 -0.838799 0
M  V30 14486 O 1307.41 -4.37316 0.261972 0
M  V30 14487 C 1308.91 -4.16094 -1.52909 0
M  V30 14488 H 1306.13 -0.66608 -0.0811043 0
M  V30 14489 H 1308.68 -2.00551 0.399929 0
M  V30 14490 H 1306.83 -3.55421 -1.54125 0
M  V30 14491 H 1307.25 -5.24383 -0.111013 0
M  V30 14492 H 1308.72 -5.21102 -1.82089 0
M  V30 14493 H 1309.2 -3.63928 -2.45872 0
M  V30 14494 H 1309.8 -4.16293 -0.87063 0
M  V30 14495 N 1308.12 0.00332656 -1.576 0
M  V30 14496 C 1309.03 1.01221 -2.1164 0
M  V30 14497 C 1310.04 1.37918 -1.06088 0
M  V30 14498 O 1311.22 1.46717 -1.37971 0
M  V30 14499 C 1308.29 2.28638 -2.60626 0
M  V30 14500 C 1307.35 1.98284 -3.80765 0
M  V30 14501 C 1306.58 3.19626 -4.27405 0
M  V30 14502 O 1306.8 4.31196 -3.73398 0
M  V30 14503 O 1305.74 3.03819 -5.19594 0
M  V30 14504 H 1309.56 0.582839 -2.98055 0
M  V30 14505 H 1307.15 0.221947 -1.47742 0
M  V30 14506 H 1309.03 3.03498 -2.92347 0
M  V30 14507 H 1307.7 2.70819 -1.7731 0
M  V30 14508 H 1306.61 1.2091 -3.54022 0
M  V30 14509 H 1307.94 1.60942 -4.65144 0
M  V30 14510 N 1309.6 1.55164 0.276031 0
M  V30 14511 C 1310.54 1.88623 1.36104 0
M  V30 14512 C 1311.54 0.762265 1.51281 0
M  V30 14513 O 1312.74 0.946573 1.53101 0
M  V30 14514 H 1309.12 0.59863 0.455133 0
M  V30 14515 H 1311.09 2.79266 1.05134 0
M  V30 14516 C 1309.84 2.17207 2.71508 0
M  V30 14517 H 1309.16 3.03179 2.6062 0
M  V30 14518 H 1310.6 2.44541 3.46375 0
M  V30 14519 C 1309.06 0.978671 3.22372 0
M  V30 14520 O 1309.59 0.211766 4.01141 0
M  V30 14521 N 1307.8 0.777199 2.80014 0
M  V30 14522 H 1307.34 1.40252 2.16072 0
M  V30 14523 H 1307.3 -0.0196754 3.14394 0
M  V30 14524 N 1311.07 -0.540404 1.48045 0
M  V30 14525 C 1312.01 -1.66164 1.57867 0
M  V30 14526 C 1313.02 -1.56058 0.463655 0
M  V30 14527 O 1314.21 -1.62709 0.734038 0
M  V30 14528 C 1311.31 -3.04748 1.48263 0
M  V30 14529 C 1310.48 -3.40441 2.74625 0
M  V30 14530 C 1309.54 -4.58259 2.58621 0
M  V30 14531 O 1308.57 -4.62 3.32482 0
M  V30 14532 N 1309.77 -5.55794 1.67551 0
M  V30 14533 H 1312.53 -1.58179 2.54557 0
M  V30 14534 H 1310.09 -0.727441 1.44637 0
M  V30 14535 H 1312.09 -3.81425 1.35267 0
M  V30 14536 H 1310.66 -3.06868 0.595892 0
M  V30 14537 H 1309.88 -2.53044 3.02262 0
M  V30 14538 H 1311.16 -3.61069 3.58478 0
M  V30 14539 H 1310.56 -5.55541 1.06725 0
M  V30 14540 H 1309.12 -6.3173 1.60499 0
M  V30 14541 N 1312.55 -1.36459 -0.788468 0
M  V30 14542 C 1313.5 -1.30924 -1.92254 0
M  V30 14543 C 1314.49 -0.200866 -1.68205 0
M  V30 14544 O 1315.7 -0.367927 -1.762 0
M  V30 14545 H 1312.08 -0.407609 -0.631949 0
M  V30 14546 H 1314.05 -2.26695 -1.94041 0
M  V30 14547 C 1312.8 -1.11635 -3.29292 0
M  V30 14548 H 1312.12 -1.96168 -3.48365 0
M  V30 14549 H 1313.56 -1.11808 -4.08993 0
M  V30 14550 C 1312.02 0.178963 -3.36424 0
M  V30 14551 O 1312.55 1.16846 -3.8433 0
M  V30 14552 N 1310.75 0.223962 -2.89736 0
M  V30 14553 H 1310.3 -0.581888 -2.50942 0
M  V30 14554 H 1310.26 1.0903 -2.94889 0
M  V30 14555 N 1314.03 1.01274 -1.20754 0
M  V30 14556 C 1314.94 2.1335 -0.975656 0
M  V30 14557 C 1315.96 1.7386 0.0697364 0
M  V30 14558 O 1317.13 2.01051 -0.118578 0
M  V30 14559 C 1314.2 3.42548 -0.534931 0
M  V30 14560 C 1313.26 3.96257 -1.65163 0
M  V30 14561 C 1312.49 5.19289 -1.23184 0
M  V30 14562 O 1312.71 5.70309 -0.102158 0
M  V30 14563 O 1311.65 5.66248 -2.04076 0
M  V30 14564 H 1315.47 2.35783 -1.91415 0
M  V30 14565 H 1313.06 1.11736 -0.991743 0
M  V30 14566 H 1314.94 4.20341 -0.298568 0
M  V30 14567 H 1313.62 3.21521 0.374937 0
M  V30 14568 H 1312.52 3.19726 -1.94232 0
M  V30 14569 H 1313.86 4.2168 -2.53864 0
M  V30 14570 N 1315.51 1.01404 1.20644 0
M  V30 14571 C 1316.44 0.540288 2.22741 0
M  V30 14572 C 1317.45 -0.375953 1.584 0
M  V30 14573 O 1318.64 -0.174708 1.77643 0
M  V30 14574 C 1315.74 -0.233766 3.38093 0
M  V30 14575 C 1314.92 0.683759 4.32023 0
M  V30 14576 C 1313.98 -0.0422681 5.26183 0
M  V30 14577 O 1313 0.579392 5.66243 0
M  V30 14578 N 1314.2 -1.31794 5.65341 0
M  V30 14579 H 1316.97 1.41831 2.64015 0
M  V30 14580 H 1314.53 0.891265 1.35159 0
M  V30 14581 H 1316.52 -0.728645 3.98087 0
M  V30 14582 H 1315.09 -1.01306 2.9573 0
M  V30 14583 H 1314.31 1.35899 3.70034 0
M  V30 14584 H 1315.6 1.30786 4.91704 0
M  V30 14585 H 1315 -1.84399 5.34802 0
M  V30 14586 H 1313.55 -1.7576 6.27656 0
M  V30 14587 N 1316.99 -1.36373 0.789944 0
M  V30 14588 C 1318.21 -2.04011 0.373396 0
M  V30 14589 C 1318.64 -1.59171 -1.00231 0
M  V30 14590 O 1318 -0.760431 -1.64582 0
M  V30 14591 C 1318.04 -3.5783 0.446083 0
M  V30 14592 O 1317.15 -4.08759 -0.54678 0
M  V30 14593 H 1316.49 -0.644807 0.158495 0
M  V30 14594 H 1319.02 -1.74317 1.0712 0
M  V30 14595 H 1319.03 -4.06822 0.309877 0
M  V30 14596 H 1317.7 -3.89819 1.44962 0
M  V30 14597 H 1316.28 -3.71038 -0.372192 0
M  V30 14598 N 1318.47 -0.542005 -1.47987 0
M  V30 14599 C 1319.43 0.203537 -2.28294 0
M  V30 14600 C 1320.43 0.856762 -1.36074 0
M  V30 14601 O 1321.62 0.71496 -1.58852 0
M  V30 14602 C 1318.75 1.29581 -3.15312 0
M  V30 14603 H 1319.94 -0.501701 -2.95674 0
M  V30 14604 H 1317.5 -0.298378 -1.53426 0
M  V30 14605 H 1318.23 2.03393 -2.5259 0
M  V30 14606 H 1318.02 0.832398 -3.83163 0
M  V30 14607 H 1319.51 1.81988 -3.75859 0
M  V30 14608 N 1319.94 1.55134 -0.277709 0
M  V30 14609 C 1320.88 2.20028 0.641913 0
M  V30 14610 C 1321.89 1.18578 1.11549 0
M  V30 14611 O 1323.08 1.45291 1.03695 0
M  V30 14612 C 1320.18 2.81443 1.88794 0
M  V30 14613 C 1319.35 4.08607 1.56074 0
M  V30 14614 C 1318.41 4.54045 2.6595 0
M  V30 14615 O 1317.44 5.19762 2.32026 0
M  V30 14616 N 1318.64 4.24403 3.96058 0
M  V30 14617 H 1321.4 2.99575 0.0864929 0
M  V30 14618 H 1318.96 1.61598 -0.0989178 0
M  V30 14619 H 1320.96 3.08784 2.616 0
M  V30 14620 H 1319.53 2.05873 2.35234 0
M  V30 14621 H 1318.75 3.88527 0.666388 0
M  V30 14622 H 1320.03 4.91455 1.31719 0
M  V30 14623 H 1319.43 3.71708 4.26439 0
M  V30 14624 H 1317.99 4.56509 4.65234 0
M  V30 14625 N 1321.42 0.00503138 1.57599 0
M  V30 14626 C 1322.37 -1.00294 2.09866 0
M  V30 14627 C 1323.36 -1.35267 1.01977 0
M  V30 14628 O 1324.57 -1.33772 1.20437 0
M  V30 14629 H 1320.94 -0.341112 0.670184 0
M  V30 14630 H 1322.92 -0.536595 2.93536 0
M  V30 14631 C 1321.66 -2.28432 2.62133 0
M  V30 14632 H 1320.99 -2.02391 3.44787 0
M  V30 14633 H 1322.43 -2.97227 3.02378 0
M  V30 14634 C 1320.89 -2.99758 1.53774 0
M  V30 14635 O 1321.42 -3.90939 0.923563 0
M  V30 14636 N 1319.62 -2.61671 1.26398 0
M  V30 14637 H 1319.17 -1.87605 1.76528 0
M  V30 14638 H 1319.13 -3.09707 0.541168 0
M  V30 14639 N 1322.9 -1.55308 -0.267798 0
M  V30 14640 C 1323.83 -1.84963 -1.35356 0
M  V30 14641 C 1324.84 -0.73446 -1.45291 0
M  V30 14642 O 1326.03 -1.01237 -1.47015 0
M  V30 14643 C 1323.13 -2.00221 -2.73432 0
M  V30 14644 C 1322.31 -3.30922 -2.86024 0
M  V30 14645 C 1321.37 -3.3618 -4.04808 0
M  V30 14646 O 1320.39 -4.09525 -3.9532 0
M  V30 14647 N 1321.59 -2.63958 -5.17017 0
M  V30 14648 H 1324.36 -2.7868 -1.1026 0
M  V30 14649 H 1321.92 -1.55289 -0.457914 0
M  V30 14650 H 1323.91 -2.01103 -3.51197 0
M  V30 14651 H 1322.48 -1.13346 -2.91327 0
M  V30 14652 H 1321.7 -3.42534 -1.951 0
M  V30 14653 H 1322.99 -4.17109 -2.91371 0
M  V30 14654 H 1322.39 -2.04062 -5.27613 0
M  V30 14655 H 1320.94 -2.70558 -5.92994 0
M  V30 14656 N 1324.38 0.532545 -1.4833 0
M  V30 14657 C 1325.33 1.65832 -1.63103 0
M  V30 14658 C 1326.32 1.61929 -0.497538 0
M  V30 14659 O 1327.53 1.66817 -0.676176 0
M  V30 14660 H 1323.9 0.549152 -0.513748 0
M  V30 14661 H 1325.87 1.50515 -2.57658 0
M  V30 14662 C 1324.62 3.04113 -1.68555 0
M  V30 14663 H 1323.94 3.07809 -2.55135 0
M  V30 14664 H 1325.38 3.82506 -1.82936 0
M  V30 14665 C 1323.84 3.34225 -0.423711 0
M  V30 14666 O 1324.37 3.99005 0.464523 0
M  V30 14667 N 1322.58 2.89087 -0.296192 0
M  V30 14668 H 1322.13 2.36547 -1.01997 0
M  V30 14669 H 1322.08 3.09604 0.547082 0
M  V30 14670 N 1325.86 1.36875 0.78122 0
M  V30 14671 C 1326.8 1.31941 1.91557 0
M  V30 14672 C 1327.8 0.209783 1.68096 0
M  V30 14673 O 1329 0.377266 1.76002 0
M  V30 14674 H 1325.38 0.410955 0.629778 0
M  V30 14675 H 1327.35 2.27721 1.92836 0
M  V30 14676 C 1326.1 1.13379 3.28695 0
M  V30 14677 H 1325.42 1.98013 3.47319 0
M  V30 14678 H 1326.86 1.13976 4.08394 0
M  V30 14679 C 1325.32 -0.161119 3.36515 0
M  V30 14680 O 1325.85 -1.14806 3.84945 0
M  V30 14681 N 1324.06 -0.208594 2.8985 0
M  V30 14682 H 1323.6 0.595187 2.5063 0
M  V30 14683 H 1323.56 -1.07465 2.95463 0
M  V30 14684 N 1327.33 -1.00632 1.21289 0
M  V30 14685 C 1328.24 -2.12829 0.986957 0
M  V30 14686 C 1329.26 -1.73895 -0.0605152 0
M  V30 14687 O 1330.44 -2.00985 0.129238 0
M  V30 14688 C 1327.5 -3.4226 0.553089 0
M  V30 14689 C 1326.56 -3.95376 1.67262 0
M  V30 14690 C 1325.79 -5.18629 1.25936 0
M  V30 14691 O 1326.02 -5.70246 0.132402 0
M  V30 14692 O 1324.95 -5.65157 2.07077 0
M  V30 14693 H 1328.78 -2.34765 1.92663 0
M  V30 14694 H 1326.36 -1.11208 0.997654 0
M  V30 14695 H 1328.24 -4.20177 0.320856 0
M  V30 14696 H 1326.92 -3.21716 -0.357881 0
M  V30 14697 H 1325.83 -3.18692 1.95924 0
M  V30 14698 H 1327.16 -4.20328 2.56097 0
M  V30 14699 N 1328.81 -1.02043 -1.20104 0
M  V30 14700 C 1329.76 -0.587332 -2.25063 0
M  V30 14701 C 1330.75 0.375844 -1.65178 0
M  V30 14702 O 1331.96 0.245347 -1.7832 0
M  V30 14703 H 1328.33 -0.171637 -0.732151 0
M  V30 14704 H 1330.31 -1.48339 -2.58917 0
M  V30 14705 C 1329.05 0.0546893 -3.47657 0
M  V30 14706 H 1328.38 -0.677457 -3.94018 0
M  V30 14707 H 1329.82 0.320786 -4.22785 0
M  V30 14708 C 1328.28 1.29869 -3.10863 0
M  V30 14709 O 1328.81 2.39161 -3.22746 0
M  V30 14710 N 1327.01 1.18423 -2.65376 0
M  V30 14711 H 1326.56 0.294895 -2.55906 0
M  V30 14712 H 1326.52 2.01755 -2.41128 0
M  V30 14713 N 1330.29 1.35952 -0.797165 0
M  V30 14714 C 1331.24 2.31831 -0.188958 0
M  V30 14715 C 1332.23 1.56181 0.656042 0
M  V30 14716 O 1333.44 1.71383 0.550259 0
M  V30 14717 H 1329.81 0.750807 -0.0423354 0
M  V30 14718 H 1331.78 2.80683 -1.0129 0
M  V30 14719 C 1330.53 3.41464 0.655547 0
M  V30 14720 H 1329.86 3.99797 0.0146854 0
M  V30 14721 H 1331.3 4.10853 1.04765 0
M  V30 14722 C 1329.76 2.83696 1.81709 0
M  V30 14723 O 1330.29 2.76484 2.91409 0
M  V30 14724 N 1328.49 2.40876 1.62564 0
M  V30 14725 H 1328.04 2.46941 0.733337 0
M  V30 14726 H 1328 2.02572 2.40441 0
M  V30 14727 N 1331.77 0.549846 1.47697 0
M  V30 14728 C 1333.05 -0.0422793 1.95554 0
M  V30 14729 C 1333.43 -1.49303 1.49238 0
M  V30 14730 O 1332.77 -2.16598 0.727844 0
M  V30 14731 C 1332.98 0.0955552 3.48869 0
M  V30 14732 C 1334.33 -0.0535698 4.24566 0
M  V30 14733 O 1335.36 0.0227365 3.56193 0
M  V30 14734 O 1334.21 -0.21645 5.46071 0
M  V30 14735 H 1331.31 -0.0682465 0.824179 0
M  V30 14736 H 1333.85 0.615849 1.58131 0
M  V30 14737 H 1332.63 1.10536 3.75363 0
M  V30 14738 H 1332.25 -0.600522 3.93039 0
M  V30 14739 N 1333.25 -1.54984 0.285932 0
M  V30 14740 C 1334.52 -1.91872 -0.380083 0
M  V30 14741 C 1334.9 -1.21146 -1.72878 0
M  V30 14742 O 1334.25 -0.341999 -2.25926 0
M  V30 14743 C 1334.46 -3.45258 -0.509667 0
M  V30 14744 C 1335.81 -4.17232 -0.787549 0
M  V30 14745 O 1336.83 -3.51211 -0.594062 0
M  V30 14746 O 1335.69 -5.34085 -1.15826 0
M  V30 14747 H 1332.79 -0.799931 -0.209856 0
M  V30 14748 H 1335.33 -1.66403 0.332882 0
M  V30 14749 H 1334.1 -3.88829 0.439049 0
M  V30 14750 H 1333.73 -3.76715 -1.27168 0
M  V30 14751 N 1334.72 -0.0133892 -1.57594 0
M  V30 14752 C 1335.67 0.991796 -2.10395 0
M  V30 14753 C 1336.67 1.34724 -1.02693 0
M  V30 14754 O 1337.87 1.33131 -1.21145 0
M  V30 14755 H 1334.25 0.337553 -0.671984 0
M  V30 14756 H 1336.22 0.52102 -2.93816 0
M  V30 14757 C 1334.97 2.27039 -2.63341 0
M  V30 14758 H 1334.29 2.00559 -3.45855 0
M  V30 14759 H 1335.73 2.95619 -3.0395 0
M  V30 14760 C 1334.19 2.98939 -1.55362 0
M  V30 14761 O 1334.72 3.90444 -0.944282 0
M  V30 14762 N 1332.93 2.60997 -1.27784 0
M  V30 14763 H 1332.47 1.86666 -1.77521 0
M  V30 14764 H 1332.43 3.09416 -0.557585 0
M  V30 14765 N 1336.2 1.55448 0.259558 0
M  V30 14766 C 1337.13 1.85678 1.34373 0
M  V30 14767 C 1338.15 0.742155 1.449 0
M  V30 14768 O 1339.34 1.02015 1.46476 0
M  V30 14769 C 1336.44 2.01668 2.72366 0
M  V30 14770 C 1335.61 3.32434 2.84265 0
M  V30 14771 C 1334.67 3.38322 4.03019 0
M  V30 14772 O 1333.69 4.11616 3.93143 0
M  V30 14773 N 1334.9 2.66697 5.1561 0
M  V30 14774 H 1337.66 2.79261 1.08781 0
M  V30 14775 H 1335.22 1.5553 0.449672 0
M  V30 14776 H 1337.21 2.02963 3.50126 0
M  V30 14777 H 1335.78 1.14889 2.90722 0
M  V30 14778 H 1335 3.43564 1.93281 0
M  V30 14779 H 1336.29 4.18649 2.89155 0
M  V30 14780 H 1335.69 2.06857 5.26523 0
M  V30 14781 H 1334.25 2.73699 5.91551 0
M  V30 14782 N 1337.68 -0.524672 1.4861 0
M  V30 14783 C 1338.63 -1.64965 1.6398 0
M  V30 14784 C 1339.62 -1.61663 0.506118 0
M  V30 14785 O 1340.83 -1.66456 0.685013 0
M  V30 14786 H 1337.2 -0.546419 0.516653 0
M  V30 14787 H 1339.17 -1.49146 2.58453 0
M  V30 14788 C 1337.92 -3.03215 1.70165 0
M  V30 14789 H 1337.25 -3.06451 2.56764 0
M  V30 14790 H 1338.69 -3.8153 1.84962 0
M  V30 14791 C 1337.15 -3.33996 0.44143 0
M  V30 14792 O 1337.68 -3.99246 -0.443356 0
M  V30 14793 N 1335.88 -2.88925 0.311518 0
M  V30 14794 H 1335.43 -2.36003 1.0325 0
M  V30 14795 H 1335.39 -3.09889 -0.530655 0
M  V30 14796 N 1339.16 -1.37287 -0.77395 0
M  V30 14797 C 1340.11 -1.32955 -1.90855 0
M  V30 14798 C 1341.1 -0.218695 -1.67982 0
M  V30 14799 O 1342.31 -0.386594 -1.75799 0
M  V30 14800 H 1338.68 -0.414289 -0.62759 0
M  V30 14801 H 1340.65 -2.2874 -1.91626 0
M  V30 14802 C 1339.4 -1.15121 -3.28089 0
M  V30 14803 H 1338.72 -1.99852 -3.46264 0
M  V30 14804 H 1340.16 -1.1614 -4.07784 0
M  V30 14805 C 1338.62 0.14327 -3.36595 0
M  V30 14806 O 1339.15 1.12763 -3.85548 0
M  V30 14807 N 1337.36 0.193219 -2.89957 0
M  V30 14808 H 1336.91 -0.608471 -2.50311 0
M  V30 14809 H 1336.86 1.05897 -2.96029 0
M  V30 14810 N 1340.64 0.999871 -1.21821 0
M  V30 14811 C 1341.55 2.12303 -0.99823 0
M  V30 14812 C 1342.56 1.73924 0.0512923 0
M  V30 14813 O 1343.74 2.00914 -0.139895 0
M  V30 14814 C 1340.8 3.41962 -0.571232 0
M  V30 14815 C 1339.86 3.94483 -1.69356 0
M  V30 14816 C 1339.1 5.17954 -1.28685 0
M  V30 14817 O 1339.32 5.70168 -0.162641 0
M  V30 14818 O 1338.25 5.64051 -2.10071 0
M  V30 14819 H 1342.08 2.3374 -1.93905 0
M  V30 14820 H 1339.67 1.10677 -1.00354 0
M  V30 14821 H 1341.55 4.20001 -0.343134 0
M  V30 14822 H 1340.22 3.21901 0.340814 0
M  V30 14823 H 1339.13 3.17648 -1.97612 0
M  V30 14824 H 1340.46 4.18964 -2.58322 0
M  V30 14825 N 1342.11 1.02678 1.19562 0
M  V30 14826 C 1343.06 0.576385 2.20594 0
M  V30 14827 C 1344.05 -0.373747 1.56499 0
M  V30 14828 O 1345.24 -0.195058 1.75922 0
M  V30 14829 C 1342.37 -0.0735507 3.43221 0
M  V30 14830 C 1341.46 0.898896 4.14464 0
M  V30 14831 N 1341.85 2.06048 4.61928 0
M  V30 14832 C 1340.14 0.721889 4.40119 0
M  V30 14833 C 1340.85 2.67364 5.16615 0
M  V30 14834 N 1339.82 1.95344 5.07289 0
M  V30 14835 H 1343.62 1.46179 2.54968 0
M  V30 14836 H 1341.14 0.893484 1.35612 0
M  V30 14837 H 1343.13 -0.413825 4.14841 0
M  V30 14838 H 1341.79 -0.954671 3.10348 0
M  V30 14839 H 1342.81 2.43999 4.5682 0
M  V30 14840 H 1339.48 -0.110317 4.17354 0
M  V30 14841 H 1340.87 3.65726 5.63644 0
M  V30 14842 N 1343.59 -1.35528 0.804364 0
M  V30 14843 C 1344.87 -1.93175 0.307049 0
M  V30 14844 C 1345.25 -1.73466 -1.20303 0
M  V30 14845 O 1344.6 -1.10235 -2.00151 0
M  V30 14846 C 1344.81 -3.41576 0.716018 0
M  V30 14847 C 1346.16 -4.18719 0.704242 0
M  V30 14848 O 1347.18 -3.50081 0.657423 0
M  V30 14849 O 1346.04 -5.41181 0.760601 0
M  V30 14850 H 1343.13 -0.823142 0.0797888 0
M  V30 14851 H 1345.68 -1.44617 0.887912 0
M  V30 14852 H 1344.45 -3.49642 1.75688 0
M  V30 14853 H 1344.07 -3.97448 0.109843 0
M  V30 14854 N 1345.07 -0.557671 -1.47404 0
M  V30 14855 C 1346.03 0.179311 -2.28498 0
M  V30 14856 C 1347.03 0.842281 -1.36975 0
M  V30 14857 O 1348.22 0.698072 -1.59601 0
M  V30 14858 C 1345.36 1.26229 -3.16668 0
M  V30 14859 H 1346.55 -0.533033 -2.95125 0
M  V30 14860 H 1344.1 -0.314634 -1.531 0
M  V30 14861 H 1344.84 2.00702 -2.54733 0
M  V30 14862 H 1344.62 0.791712 -3.84024 0
M  V30 14863 H 1346.11 1.77991 -3.77768 0
M  V30 14864 N 1346.55 1.54831 -0.294147 0
M  V30 14865 C 1347.5 2.24707 0.600795 0
M  V30 14866 C 1348.49 1.25067 1.14257 0
M  V30 14867 O 1349.7 1.42939 1.094 0
M  V30 14868 H 1346.07 0.721399 0.212338 0
M  V30 14869 H 1348.04 2.98398 -0.0111682 0
M  V30 14870 C 1346.79 2.996 1.76451 0
M  V30 14871 H 1346.12 3.76072 1.35684 0
M  V30 14872 H 1347.56 3.51785 2.36692 0
M  V30 14873 C 1346.01 2.0617 2.6645 0
M  V30 14874 O 1346.54 1.62527 3.67353 0
M  V30 14875 N 1344.75 1.7227 2.34033 0
M  V30 14876 H 1344.3 2.07957 1.52025 0
M  V30 14877 H 1344.26 1.10031 2.94518 0
M  V30 14878 N 1348.03 0.0217466 1.57585 0
M  V30 14879 C 1348.96 -0.99116 2.06661 0
M  V30 14880 C 1349.97 -1.29346 0.988604 0
M  V30 14881 O 1351.16 -1.25941 1.26496 0
M  V30 14882 C 1348.26 -2.32047 2.46997 0
M  V30 14883 C 1347.43 -2.20441 3.77789 0
M  V30 14884 C 1346.49 -3.36243 4.04755 0
M  V30 14885 O 1345.52 -3.13458 4.75114 0
M  V30 14886 N 1346.72 -4.598 3.54351 0
M  V30 14887 H 1349.49 -0.572486 2.94181 0
M  V30 14888 H 1347.05 -0.165175 1.61055 0
M  V30 14889 H 1349.04 -3.0833 2.62135 0
M  V30 14890 H 1347.61 -2.65581 1.64881 0
M  V30 14891 H 1346.83 -1.28931 3.72519 0
M  V30 14892 H 1348.12 -2.09882 4.63494 0
M  V30 14893 H 1347.52 -4.81207 2.97416 0
M  V30 14894 H 1346.07 -5.33276 3.7478 0
M  V30 14895 N 1349.51 -1.55583 -0.251311 0
M  V30 14896 C 1350.73 -1.81597 -1.00186 0
M  V30 14897 C 1351.16 -0.598216 -1.78334 0
M  V30 14898 O 1350.51 0.452667 -1.75558 0
M  V30 14899 C 1350.56 -3.05301 -1.91895 0
M  V30 14900 O 1349.67 -2.81907 -3.01002 0
M  V30 14901 H 1349.01 -0.599578 -0.285311 0
M  V30 14902 H 1351.54 -2.02762 -0.273638 0
M  V30 14903 H 1351.55 -3.34616 -2.33444 0
M  V30 14904 H 1350.22 -3.93574 -1.34433 0
M  V30 14905 H 1348.8 -2.63747 -2.63613 0
M  V30 14906 N 1350.98 0.516783 -1.48886 0
M  V30 14907 C 1352.21 1.30103 -1.61518 0
M  V30 14908 C 1352.63 1.85996 -0.28055 0
M  V30 14909 O 1351.99 1.65075 0.749671 0
M  V30 14910 C 1352.04 2.41837 -2.67483 0
M  V30 14911 O 1351.14 3.45249 -2.25559 0
M  V30 14912 H 1350.48 0.384774 -0.541152 0
M  V30 14913 H 1353.01 0.620424 -1.94966 0
M  V30 14914 H 1353.02 2.87832 -2.89165 0
M  V30 14915 H 1351.7 2.00519 -3.64369 0
M  V30 14916 H 1350.28 3.05281 -2.14144 0
M  V30 14917 N 1352.46 1.37696 0.766659 0
M  V30 14918 C 1353.41 1.33966 1.90147 0
M  V30 14919 C 1354.4 0.2276 1.67864 0
M  V30 14920 O 1355.61 0.395912 1.75592 0
M  V30 14921 H 1351.98 0.417611 0.625384 0
M  V30 14922 H 1353.96 2.29753 1.9041 0
M  V30 14923 C 1352.7 1.16859 3.27474 0
M  V30 14924 H 1352.03 2.01686 3.452 0
M  V30 14925 H 1353.47 1.18301 4.07162 0
M  V30 14926 C 1351.93 -0.125418 3.36666 0
M  V30 14927 O 1352.46 -1.10717 3.86141 0
M  V30 14928 N 1350.66 -0.17784 2.90055 0
M  V30 14929 H 1350.21 0.621737 2.49984 0
M  V30 14930 H 1350.17 -1.04325 2.96587 0
M  V30 14931 N 1353.94 -0.993397 1.22349 0
M  V30 14932 C 1355.22 -1.7063 0.956275 0
M  V30 14933 C 1355.6 -2.0437 -0.52877 0
M  V30 14934 O 1354.94 -1.72662 -1.49667 0
M  V30 14935 C 1355.15 -2.95725 1.85331 0
M  V30 14936 C 1356.5 -3.68514 2.10909 0
M  V30 14937 O 1357.53 -3.05732 1.82775 0
M  V30 14938 O 1356.39 -4.81468 2.58556 0
M  V30 14939 H 1353.48 -0.744734 0.359583 0
M  V30 14940 H 1356.03 -1.04979 1.33333 0
M  V30 14941 H 1354.8 -2.6729 2.85782 0
M  V30 14942 H 1354.42 -3.69116 1.47781 0
M  V30 14943 N 1355.42 -1.03311 -1.19015 0
M  V30 14944 C 1356.33 -0.627735 -2.26046 0
M  V30 14945 C 1357.34 0.342483 -1.70596 0
M  V30 14946 O 1358.52 0.199307 -2.00411 0
M  V30 14947 C 1355.58 0.0108274 -3.46698 0
M  V30 14948 C 1354.65 -1.00743 -4.17312 0
M  V30 14949 C 1353.88 -0.399245 -5.32205 0
M  V30 14950 O 1354.1 0.796649 -5.64809 0
M  V30 14951 O 1353.04 -1.12419 -5.91308 0
M  V30 14952 H 1356.86 -1.51923 -2.6297 0
M  V30 14953 H 1354.45 -0.803538 -1.25951 0
M  V30 14954 H 1356.33 0.366672 -4.19802 0
M  V30 14955 H 1355 0.876265 -3.11614 0
M  V30 14956 H 1353.91 -1.41494 -3.4631 0
M  V30 14957 H 1355.24 -1.84338 -4.56377 0
M  V30 14958 N 1356.9 1.35099 -0.81154 0
M  V30 14959 C 1357.83 2.28468 -0.183012 0
M  V30 14960 C 1358.84 1.50509 0.620553 0
M  V30 14961 O 1360.03 1.7268 0.4521 0
M  V30 14962 C 1357.13 3.30201 0.762933 0
M  V30 14963 C 1356.3 4.374 0.00466561 0
M  V30 14964 C 1355.36 5.18961 0.869832 0
M  V30 14965 O 1354.39 5.68306 0.318964 0
M  V30 14966 N 1355.59 5.37555 2.19123 0
M  V30 14967 H 1358.35 2.83046 -0.985132 0
M  V30 14968 H 1355.92 1.47502 -0.667449 0
M  V30 14969 H 1357.91 3.81659 1.34606 0
M  V30 14970 H 1356.48 2.76101 1.46584 0
M  V30 14971 H 1355.7 3.8681 -0.759702 0
M  V30 14972 H 1356.99 5.06159 -0.517739 0
M  V30 14973 H 1356.38 4.99118 2.66266 0
M  V30 14974 H 1354.94 5.92174 2.72348 0
M  V30 14975 N 1358.37 0.56548 1.47106 0
M  V30 14976 C 1359.32 -0.190542 2.31818 0
M  V30 14977 C 1360.32 -0.901279 1.43434 0
M  V30 14978 O 1361.52 -0.821625 1.60154 0
M  V30 14979 H 1357.9 -0.0803183 0.747698 0
M  V30 14980 H 1359.87 0.542999 2.93418 0
M  V30 14981 C 1358.62 -1.20208 3.2626 0
M  V30 14982 H 1357.94 -0.664608 3.94237 0
M  V30 14983 H 1359.38 -1.7018 3.88349 0
M  V30 14984 C 1357.84 -2.25423 2.50372 0
M  V30 14985 O 1358.37 -3.3249 2.25418 0
M  V30 14986 N 1356.57 -1.9957 2.11235 0
M  V30 14987 H 1356.12 -1.12513 2.31729 0
M  V30 14988 H 1356.08 -2.70182 1.60777 0
M  V30 14989 N 1359.85 -1.54672 0.302354 0
M  V30 14990 C 1360.8 -2.2357 -0.573141 0
M  V30 14991 C 1361.77 -1.21878 -1.12849 0
M  V30 14992 O 1362.95 -1.50502 -1.17277 0
M  V30 14993 C 1360.09 -2.98111 -1.7385 0
M  V30 14994 C 1359.21 -4.14579 -1.21441 0
M  V30 14995 C 1358.34 -4.76699 -2.34374 0
M  V30 14996 C 1357.38 -5.8531 -1.79106 0
M  V30 14997 N 1356.52 -6.41379 -2.85618 0
M  V30 14998 H 1361.36 -2.97993 0.0209969 0
M  V30 14999 H 1358.9 -1.47083 0.0221318 0
M  V30 15000 H 1360.85 -3.39561 -2.42392 0
M  V30 15001 H 1359.48 -2.26063 -2.30425 0
M  V30 15002 H 1358.54 -3.78061 -0.421204 0
M  V30 15003 H 1359.85 -4.92824 -0.769821 0
M  V30 15004 H 1359 -5.21009 -3.10861 0
M  V30 15005 H 1357.74 -3.9779 -2.8216 0
M  V30 15006 H 1356.75 -5.40423 -1.01109 0
M  V30 15007 H 1357.97 -6.66104 -1.32222 0
M  V30 15008 H 1355.92 -5.65352 -3.32735 0
M  V30 15009 H 1355.83 -7.14974 -2.45659 0
M  V30 15010 H 1357.1 -6.90346 -3.61998 0
M  V30 15011 N 1361.33 -0.0301034 -1.57571 0
M  V30 15012 C 1362.28 0.969425 -2.11435 0
M  V30 15013 C 1363.27 1.33627 -1.04116 0
M  V30 15014 O 1364.48 1.31839 -1.2255 0
M  V30 15015 H 1360.85 0.330407 -0.675526 0
M  V30 15016 H 1362.82 0.489828 -2.94352 0
M  V30 15017 C 1361.57 2.24233 -2.65734 0
M  V30 15018 H 1360.9 1.9688 -3.47963 0
M  V30 15019 H 1362.34 2.92378 -3.07068 0
M  V30 15020 C 1360.8 2.97274 -1.58524 0
M  V30 15021 O 1361.33 3.8942 -0.985641 0
M  V30 15022 N 1359.53 2.59627 -1.30545 0
M  V30 15023 H 1359.08 1.84773 -1.79491 0
M  V30 15024 H 1359.04 3.08807 -0.590372 0
M  V30 15025 N 1362.81 1.55714 0.243056 0
M  V30 15026 C 1364.09 1.68483 0.993614 0
M  V30 15027 C 1364.47 0.571112 2.03228 0
M  V30 15028 O 1363.81 -0.42491 2.24515 0
M  V30 15029 C 1364.02 3.0894 1.62349 0
M  V30 15030 C 1365.37 3.67663 2.12389 0
M  V30 15031 O 1366.4 3.11764 1.72283 0
M  V30 15032 O 1365.25 4.65664 2.8604 0
M  V30 15033 H 1362.35 0.685415 0.462747 0
M  V30 15034 H 1364.89 1.68043 0.236538 0
M  V30 15035 H 1363.67 3.81451 0.87241 0
M  V30 15036 H 1363.29 3.13407 2.44667 0
M  V30 15037 N 1364.29 -0.50888 1.49158 0
M  V30 15038 C 1365.53 -1.261 1.57934 0
M  V30 15039 C 1365.86 -1.93199 0.264405 0
M  V30 15040 O 1365.13 -1.82359 -0.715684 0
M  V30 15041 H 1363.71 -0.468421 0.581886 0
M  V30 15042 H 1366.37 -0.590447 1.85741 0
M  V30 15043 H 1365.46 -2.02913 2.37135 0
M  V30 15044 N 1365.76 -1.381 -0.759346 0
M  V30 15045 C 1366.73 -1.34674 -1.8546 0
M  V30 15046 C 1367.73 -0.248351 -1.58871 0
M  V30 15047 O 1368.92 -0.504915 -1.66722 0
M  V30 15048 C 1366.05 -1.0952 -3.22828 0
M  V30 15049 H 1367.24 -2.3211 -1.89908 0
M  V30 15050 H 1364.8 -1.2331 -0.960435 0
M  V30 15051 H 1365.53 -0.126664 -3.24053 0
M  V30 15052 H 1365.32 -1.89037 -3.43522 0
M  V30 15053 H 1366.81 -1.09804 -4.02906 0
M  V30 15054 N 1367.24 0.986894 -1.22875 0
M  V30 15055 C 1368.47 1.768 -1.08427 0
M  V30 15056 C 1368.89 1.84612 0.360555 0
M  V30 15057 O 1368.25 1.30299 1.26063 0
M  V30 15058 C 1368.3 3.17638 -1.70701 0
M  V30 15059 O 1367.4 4.00957 -0.964752 0
M  V30 15060 H 1366.74 0.544199 -0.380451 0
M  V30 15061 H 1369.27 1.23931 -1.62795 0
M  V30 15062 H 1369.28 3.68243 -1.75672 0
M  V30 15063 H 1367.96 3.11267 -2.75837 0
M  V30 15064 H 1366.54 3.59477 -0.991493 0
M  V30 15065 N 1368.72 1.0394 1.18466 0
M  V30 15066 C 1370 0.65632 1.8426 0
M  V30 15067 C 1370.38 -0.864288 1.92596 0
M  V30 15068 O 1369.73 -1.76524 1.45092 0
M  V30 15069 C 1369.94 1.33067 3.22636 0
M  V30 15070 C 1371.28 1.46065 3.98686 0
M  V30 15071 O 1372.31 1.28867 3.32072 0
M  V30 15072 O 1371.17 1.74078 5.18034 0
M  V30 15073 H 1368.26 0.229484 0.794523 0
M  V30 15074 H 1370.81 1.13821 1.25868 0
M  V30 15075 H 1369.58 2.36866 3.11465 0
M  V30 15076 H 1369.2 0.837313 3.88683 0
M  V30 15077 N 1370.2 -1.34667 0.818693 0
M  V30 15078 C 1371.13 -2.28368 0.195126 0
M  V30 15079 C 1372.14 -1.50836 -0.612562 0
M  V30 15080 O 1373.33 -1.72917 -0.442936 0
M  V30 15081 C 1370.43 -3.30601 -0.745411 0
M  V30 15082 C 1369.61 -4.37396 0.0185308 0
M  V30 15083 C 1368.66 -5.19415 -0.842298 0
M  V30 15084 O 1367.69 -5.68467 -0.288821 0
M  V30 15085 N 1368.89 -5.38709 -2.1627 0
M  V30 15086 H 1371.66 -2.8252 1.00013 0
M  V30 15087 H 1369.22 -1.47146 0.675262 0
M  V30 15088 H 1371.21 -3.82367 -1.3258 0
M  V30 15089 H 1369.78 -2.76875 -1.45118 0
M  V30 15090 H 1369 -3.86402 0.780205 0
M  V30 15091 H 1370.29 -5.05877 0.544575 0
M  V30 15092 H 1369.69 -5.00523 -2.63616 0
M  V30 15093 H 1368.24 -5.9361 -2.69204 0
M  V30 15094 N 1371.68 -0.573274 -1.46804 0
M  V30 15095 C 1372.62 0.165358 -2.30207 0
M  V30 15096 C 1373.59 0.89312 -1.40045 0
M  V30 15097 O 1374.78 0.885653 -1.68999 0
M  V30 15098 C 1371.92 1.17915 -3.2433 0
M  V30 15099 C 1371.03 0.455805 -4.29589 0
M  V30 15100 C 1370.17 1.45629 -5.10848 0
M  V30 15101 C 1369.21 0.718822 -6.07865 0
M  V30 15102 N 1368.34 1.66691 -6.82025 0
M  V30 15103 H 1373.18 -0.551947 -2.92844 0
M  V30 15104 H 1370.72 -0.28401 -1.44332 0
M  V30 15105 H 1372.68 1.77969 -3.77337 0
M  V30 15106 H 1371.31 1.86429 -2.63523 0
M  V30 15107 H 1370.36 -0.259584 -3.79513 0
M  V30 15108 H 1371.67 -0.121161 -4.98653 0
M  V30 15109 H 1370.83 2.1299 -5.68084 0
M  V30 15110 H 1369.56 2.06718 -4.41723 0
M  V30 15111 H 1368.57 0.0313773 -5.49791 0
M  V30 15112 H 1369.79 0.113452 -6.79005 0
M  V30 15113 H 1367.74 2.26608 -6.15617 0
M  V30 15114 H 1367.66 1.14251 -7.47317 0
M  V30 15115 H 1368.93 2.33117 -7.43826 0
M  V30 15116 N 1373.15 1.5451 -0.310553 0
M  V30 15117 C 1374.43 1.92452 0.34951 0
M  V30 15118 C 1374.81 1.23881 1.70929 0
M  V30 15119 O 1374.16 0.377898 2.25353 0
M  V30 15120 C 1374.37 3.46026 0.454675 0
M  V30 15121 C 1375.72 4.18432 0.721071 0
M  V30 15122 O 1376.74 3.52112 0.538112 0
M  V30 15123 O 1375.6 5.3586 1.07314 0
M  V30 15124 H 1372.69 0.803168 0.197103 0
M  V30 15125 H 1375.24 1.65852 -0.359313 0
M  V30 15126 H 1374.01 3.88081 -0.500853 0
M  V30 15127 H 1373.64 3.7869 1.21159 0
M  V30 15128 N 1374.63 0.0384594 1.57553 0
M  V30 15129 C 1375.54 -0.955737 2.14249 0
M  V30 15130 C 1376.56 -1.35056 1.09708 0
M  V30 15131 O 1377.74 -1.43008 1.41812 0
M  V30 15132 C 1374.8 -2.21647 2.66596 0
M  V30 15133 C 1373.86 -1.88119 3.85888 0
M  V30 15134 C 1373.09 -3.08182 4.35729 0
M  V30 15135 O 1373.32 -4.21145 3.84699 0
M  V30 15136 O 1372.25 -2.89936 5.27467 0
M  V30 15137 H 1376.08 -0.50361 2.99495 0
M  V30 15138 H 1373.66 -0.182698 1.48279 0
M  V30 15139 H 1375.54 -2.9564 3.00291 0
M  V30 15140 H 1374.22 -2.66022 1.84428 0
M  V30 15141 H 1373.13 -1.11481 3.57103 0
M  V30 15142 H 1374.46 -1.48553 4.69247 0
M  V30 15143 N 1376.11 -1.55841 -0.234795 0
M  V30 15144 C 1377.04 -1.94344 -1.29432 0
M  V30 15145 C 1378.02 -0.809912 -1.49581 0
M  V30 15146 O 1379.21 -1.07117 -1.61986 0
M  V30 15147 C 1376.34 -2.24866 -2.64675 0
M  V30 15148 C 1375.29 -3.40584 -2.59203 0
M  V30 15149 C 1374.62 -3.56678 -3.98353 0
M  V30 15150 C 1375.92 -4.75935 -2.15135 0
M  V30 15151 H 1377.61 -2.83096 -0.97454 0
M  V30 15152 H 1375.16 -1.36205 -0.467355 0
M  V30 15153 H 1377.11 -2.50392 -3.38942 0
M  V30 15154 H 1375.83 -1.32953 -2.98314 0
M  V30 15155 H 1374.49 -3.15087 -1.87393 0
M  V30 15156 H 1374.14 -2.62164 -4.29277 0
M  V30 15157 H 1373.84 -4.34503 -3.95577 0
M  V30 15158 H 1375.37 -3.84538 -4.74302 0
M  V30 15159 H 1376.78 -5.00753 -2.7914 0
M  V30 15160 H 1375.18 -5.56949 -2.23446 0
M  V30 15161 H 1376.25 -4.72182 -1.10328 0
M  V30 15162 O 1377.63 0.380346 -1.56957 0
M  V30 15163 H 1378.32 1.03176 -1.63934 0
M  V30 END ATOM
M  V30 BEGIN BOND
M  V30 END BOND
M  V30 END CTAB
M  END
$$$$
