drugbank_target|C0H551 Glutamine synthetase, putative (DB11638)
 OpenBabel12092121123D

  0  0  0     0  0            999 V3000
M  V30 BEGIN CTAB
M  V30 COUNTS 8783 8893 0 0 0
M  V30 BEGIN ATOM
M  V30 1 H -0.908 1.98254 -0.117106 0
M  V30 2 N 0 1.576 0 0
M  V30 3 C 0.933 2.03868 1.02534 0
M  V30 4 C 1.911 0.928543 1.3348 0
M  V30 5 O 3.095 1.19667 1.45644 0
M  V30 6 C 0.222 2.43627 2.35294 0
M  V30 7 C -0.732 3.65373 2.2001 0
M  V30 8 S 0.101 5.13292 1.52614 0
M  V30 9 C 1.257 5.56322 2.86805 0
M  V30 10 H 1.49 2.90518 0.631377 0
M  V30 11 H -0.977 1.52953 0.210867 0
M  V30 12 H 0.981 2.67203 3.11629 0
M  V30 13 H -0.358 1.57376 2.7183 0
M  V30 14 H -1.165 3.90944 3.18086 0
M  V30 15 H -1.563 3.418 1.51819 0
M  V30 16 H 0.729 5.58782 3.83104 0
M  V30 17 H 1.672 6.56266 2.65933 0
M  V30 18 H 2.08 4.83886 2.90714 0
M  V30 19 N 1.4781 -0.272755 1.55222 0
M  V30 20 C 2.4251 -1.33716 1.88119 0
M  V30 21 C 3.3951 -1.49066 0.73271 0
M  V30 22 O 4.5801 -1.63469 0.984002 0
M  V30 23 C 1.7201 -2.69238 2.15882 0
M  V30 24 C 0.8331 -2.62108 3.43399 0
M  V30 25 C -0.0319 -3.89811 3.60861 0
M  V30 26 C -0.9929 -3.77193 4.8207 0
M  V30 27 N -1.8559 -4.9673 4.96189 0
M  V30 28 H 2.9841 -1.04962 2.78903 0
M  V30 29 H 0.5211 -0.507088 1.38083 0
M  V30 30 H 2.4791 -3.48089 2.29978 0
M  V30 31 H 1.1091 -2.96194 1.28331 0
M  V30 32 H 0.1611 -1.74967 3.37773 0
M  V30 33 H 1.4731 -2.48685 4.32386 0
M  V30 34 H 0.6271 -4.77103 3.74777 0
M  V30 35 H -0.6339 -4.06102 2.7006 0
M  V30 36 H -1.6289 -2.88284 4.68159 0
M  V30 37 H -0.4039 -3.62421 5.74307 0
M  V30 38 H -2.4579 -5.13431 4.08319 0
M  V30 39 H -2.5409 -4.85839 5.79221 0
M  V30 40 H -1.2729 -5.85594 5.1449 0
M  V30 41 N 2.9562 -1.48159 -0.537278 0
M  V30 42 C 4.1812 -1.59707 -1.32319 0
M  V30 43 C 4.6062 -0.254859 -1.86365 0
M  V30 44 O 3.9642 0.772378 -1.64024 0
M  V30 45 C 4.0122 -2.6412 -2.45505 0
M  V30 46 O 3.1162 -2.20774 -3.48328 0
M  V30 47 H 2.4572 -0.535791 -0.392204 0
M  V30 48 H 4.9872 -1.94092 -0.647268 0
M  V30 49 H 4.9972 -2.85166 -2.91795 0
M  V30 50 H 3.6722 -3.61567 -2.05528 0
M  V30 51 H 2.2492 -2.09911 -3.08207 0
M  V30 52 N 4.4343 0.785586 -1.36625 0
M  V30 53 C 5.6803 1.54591 -1.31261 0
M  V30 54 C 6.0133 1.93906 0.106823 0
M  V30 55 O 5.2883 1.63007 1.06108 0
M  V30 56 C 5.5713 2.82038 -2.23889 0
M  V30 57 C 5.4243 2.49066 -3.74548 0
M  V30 58 C 6.7433 3.83887 -2.15217 0
M  V30 59 H 3.8623 0.560846 -0.478143 0
M  V30 60 H 6.5043 0.902278 -1.67209 0
M  V30 61 H 4.6543 3.36961 -1.93363 0
M  V30 62 H 6.3263 2.00164 -4.15611 0
M  V30 63 H 4.5693 1.81954 -3.93796 0
M  V30 64 H 5.2403 3.40109 -4.34776 0
M  V30 65 H 7.7163 3.38421 -2.42096 0
M  V30 66 H 6.5923 4.70806 -2.82193 0
M  V30 67 H 6.8533 4.27131 -1.14068 0
M  V30 68 N 5.9124 1.20967 1.01018 0
M  V30 69 C 7.1374 1.0503 1.78839 0
M  V30 70 C 7.5624 -0.395752 1.8389 0
M  V30 71 O 6.9204 -1.28529 1.27867 0
M  V30 72 C 6.9684 1.64602 3.2084 0
M  V30 73 O 6.0724 0.887988 4.02726 0
M  V30 74 H 5.4134 0.369987 0.551367 0
M  V30 75 H 7.9434 1.60399 1.27018 0
M  V30 76 H 7.9534 1.68607 3.71532 0
M  V30 77 H 6.6284 2.69841 3.16479 0
M  V30 78 H 5.2054 0.922648 3.61305 0
M  V30 79 N 7.3905 -1.2043 1.01659 0
M  V30 80 C 8.6375 -1.89797 0.705917 0
M  V30 81 C 8.9655 -1.78848 -0.764439 0
M  V30 82 O 8.2205 -1.16694 -1.57102 0
M  V30 83 C 8.5195 -3.40464 1.08714 0
M  V30 84 C 8.1855 -3.71614 2.5537 0
M  V30 85 C 6.8475 -3.79826 2.95441 0
M  V30 86 C 9.1995 -3.85915 3.50313 0
M  V30 87 C 6.5275 -3.99797 4.29394 0
M  V30 88 C 8.8795 -4.07396 4.83954 0
M  V30 89 C 7.5435 -4.13837 5.23732 0
M  V30 90 H 6.8135 -0.694518 0.258313 0
M  V30 91 H 9.4605 -1.42691 1.27717 0
M  V30 92 H 7.7655 -3.89385 0.434309 0
M  V30 93 H 9.4625 -3.92433 0.824461 0
M  V30 94 H 6.0525 -3.65822 2.23321 0
M  V30 95 H 10.2365 -3.78926 3.20513 0
M  V30 96 H 5.4925 -4.03018 4.59768 0
M  V30 97 H 9.6665 -4.17404 5.57447 0
M  V30 98 H 7.2935 -4.29064 6.27541 0
M  V30 99 N 8.8686 -0.792821 -1.36206 0
M  V30 100 C 10.0936 -0.377701 -2.03932 0
M  V30 101 C 10.5186 0.998947 -1.59382 0
M  V30 102 O 9.8766 1.64421 -0.763903 0
M  V30 103 C 9.9246 -0.453635 -3.57735 0
M  V30 104 O 9.0286 0.538151 -4.08874 0
M  V30 105 H 8.3696 -0.159855 -0.644471 0
M  V30 106 H 10.8996 -1.07488 -1.7409 0
M  V30 107 H 10.9096 -0.318464 -4.06755 0
M  V30 108 H 9.5846 -1.45784 -3.89512 0
M  V30 109 H 8.1616 0.364359 -3.71116 0
M  V30 110 N 10.3467 1.47872 -0.545128 0
M  V30 111 C 11.2947 2.31533 0.222512 0
M  V30 112 C 12.2887 1.42177 0.920985 0
M  V30 113 O 13.4947 1.59005 0.843645 0
M  V30 114 H 9.8697 0.746519 0.0906278 0
M  V30 115 H 11.8407 2.94139 -0.50246 0
M  V30 116 C 10.5897 3.2457 1.24699 0
M  V30 117 H 9.9127 3.93283 0.718944 0
M  V30 118 H 11.3527 3.85963 1.75523 0
M  V30 119 C 9.8117 2.47237 2.28856 0
M  V30 120 O 10.3417 2.20808 3.35569 0
M  V30 121 N 8.5477 2.08461 2.02466 0
M  V30 122 H 8.0947 2.30155 1.157 0
M  V30 123 H 8.0527 1.57033 2.72375 0
M  V30 124 N 11.8248 0.280983 1.55075 0
M  V30 125 C 12.7728 -0.619864 2.24188 0
M  V30 126 C 13.7668 -1.15315 1.24092 0
M  V30 127 O 14.9728 -1.1061 1.42005 0
M  V30 128 H 11.3478 -0.218459 0.719569 0
M  V30 129 H 13.3188 -0.0141831 2.98397 0
M  V30 130 C 12.0678 -1.7899 2.98091 0
M  V30 131 H 11.3908 -1.38874 3.74905 0
M  V30 132 H 12.8308 -2.39672 3.49762 0
M  V30 133 C 11.2898 -2.68192 2.03899 0
M  V30 134 O 11.8198 -3.6872 1.594 0
M  V30 135 N 10.0258 -2.35488 1.70275 0
M  V30 136 H 9.5728 -1.53787 2.06658 0
M  V30 137 H 9.5308 -2.95442 1.07524 0
M  V30 138 N 13.3029 -1.57598 0.00835791 0
M  V30 139 C 14.2659 -2.07884 -0.965242 0
M  V30 140 C 15.2659 -0.989825 -1.26725 0
M  V30 141 O 16.4559 -1.25218 -1.21104 0
M  V30 142 C 13.5879 -2.52731 -2.28779 0
M  V30 143 H 14.7809 -2.95178 -0.530112 0
M  V30 144 H 12.3339 -1.54458 -0.239283 0
M  V30 145 H 13.0689 -1.68705 -2.76964 0
M  V30 146 H 12.8539 -3.32272 -2.08177 0
M  V30 147 H 14.3439 -2.91933 -2.98605 0
M  V30 148 N 14.781 0.264519 -1.55364 0
M  V30 149 C 15.691 1.34902 -1.91934 0
M  V30 150 C 16.707 1.53595 -0.817593 0
M  V30 151 O 17.883 1.67558 -1.11742 0
M  V30 152 C 14.948 2.68676 -2.19121 0
M  V30 153 C 14.009 2.58657 -3.4263 0
M  V30 154 C 13.242 3.86051 -3.68511 0
M  V30 155 O 13.465 4.87126 -2.96757 0
M  V30 156 O 12.399 3.85744 -4.62045 0
M  V30 157 H 16.225 1.06883 -2.8427 0
M  V30 158 H 13.81 0.463775 -1.42019 0
M  V30 159 H 15.692 3.47759 -2.37995 0
M  V30 160 H 14.367 2.96463 -1.29966 0
M  V30 161 H 13.274 1.7792 -3.29082 0
M  V30 162 H 14.607 2.35818 -4.32031 0
M  V30 163 N 16.2591 1.48442 0.529413 0
M  V30 164 C 17.1891 1.65902 1.64313 0
M  V30 165 C 18.1701 0.507897 1.6234 0
M  V30 166 O 19.3551 0.740503 1.79528 0
M  V30 167 C 16.4851 1.69911 3.02898 0
M  V30 168 C 15.4391 2.8453 3.19729 0
M  V30 169 C 14.7651 2.73629 4.59381 0
M  V30 170 C 16.0651 4.25821 3.02447 0
M  V30 171 H 17.7591 2.5914 1.49955 0
M  V30 172 H 15.3051 1.24709 0.719982 0
M  V30 173 H 17.2581 1.80715 3.80684 0
M  V30 174 H 15.9821 0.732524 3.18279 0
M  V30 175 H 14.6411 2.73283 2.44361 0
M  V30 176 H 14.2891 1.74938 4.71599 0
M  V30 177 H 13.9891 3.50541 4.71588 0
M  V30 178 H 15.5131 2.86401 5.39265 0
M  V30 179 H 16.9271 4.37898 3.70024 0
M  V30 180 H 15.3241 5.03735 3.26146 0
M  V30 181 H 16.3941 4.42244 1.98867 0
M  V30 182 N 17.7372 -0.778329 1.37039 0
M  V30 183 C 18.9672 -1.56507 1.34868 0
M  V30 184 C 19.3752 -1.89072 -0.0694802 0
M  V30 185 O 18.7182 -1.51434 -1.03987 0
M  V30 186 C 18.7802 -2.90641 2.11585 0
M  V30 187 C 18.4442 -2.80746 3.60598 0
M  V30 188 C 19.4412 -2.52226 4.54618 0
M  V30 189 C 17.1262 -2.98974 4.03633 0
M  V30 190 C 19.1202 -2.42054 5.89651 0
M  V30 191 C 16.8072 -2.88423 5.38754 0
M  V30 192 C 17.8052 -2.60002 6.31576 0
M  V30 193 O 17.4932 -2.49465 7.64214 0
M  V30 194 H 17.2252 -0.491723 0.463879 0
M  V30 195 H 19.7792 -0.973053 1.80889 0
M  V30 196 H 18.0092 -3.51936 1.60243 0
M  V30 197 H 19.6982 -3.51992 2.0213 0
M  V30 198 H 20.4642 -2.37835 4.22681 0
M  V30 199 H 16.3432 -3.20099 3.31749 0
M  V30 200 H 19.8872 -2.19791 6.62071 0
M  V30 201 H 15.7842 -3.0238 5.70295 0
M  V30 202 H 16.5522 -2.64864 7.74461 0
M  V30 203 N 19.2153 -1.21501 -1.00376 0
M  V30 204 C 20.1253 -0.991447 -2.12621 0
M  V30 205 C 21.1413 0.0568446 -1.73907 0
M  V30 206 O 22.3173 -0.13348 -2.00957 0
M  V30 207 C 19.3823 -0.560312 -3.42142 0
M  V30 208 C 18.4433 -1.68096 -3.95022 0
M  V30 209 C 17.6763 -1.2703 -5.18362 0
M  V30 210 O 17.8993 -0.144438 -5.70217 0
M  V30 211 O 16.8333 -2.08269 -5.64719 0
M  V30 212 H 20.6593 -1.93158 -2.34358 0
M  V30 213 H 18.2443 -0.999999 -1.10997 0
M  V30 214 H 20.1263 -0.329724 -4.20108 0
M  V30 215 H 18.8013 0.351089 -3.2179 0
M  V30 216 H 17.7083 -1.96597 -3.18278 0
M  V30 217 H 19.0413 -2.56983 -4.19786 0
M  V30 218 N 20.6934 1.19889 -1.02296 0
M  V30 219 C 21.9234 1.93109 -0.734332 0
M  V30 220 C 22.3314 1.75377 0.709889 0
M  V30 221 O 21.6744 1.06912 1.49384 0
M  V30 222 C 21.7364 3.45362 -0.99827 0
M  V30 223 C 21.4004 3.8686 -2.43287 0
M  V30 224 C 22.3974 3.92102 -3.41397 0
M  V30 225 C 20.0824 4.18668 -2.77529 0
M  V30 226 C 22.0764 4.28573 -4.71809 0
M  V30 227 C 19.7634 4.54813 -4.08153 0
M  V30 228 C 20.7614 4.59739 -5.05103 0
M  V30 229 O 20.4494 4.95051 -6.33388 0
M  V30 230 H 20.1814 0.620409 -0.268456 0
M  V30 231 H 22.7354 1.53144 -1.3688 0
M  V30 232 H 20.9654 3.85482 -0.306645 0
M  V30 233 H 22.6544 3.99814 -0.700234 0
M  V30 234 H 23.4204 3.67685 -3.1628 0
M  V30 235 H 19.2994 4.14021 -2.0275 0
M  V30 236 H 22.8434 4.32333 -5.4748 0
M  V30 237 H 18.7404 4.78687 -4.33047 0
M  V30 238 H 19.5084 5.1302 -6.37772 0
M  V30 239 N 22.1715 0.800033 1.35784 0
M  V30 240 C 23.4205 0.37387 1.98205 0
M  V30 241 C 23.7335 -1.06302 1.64193 0
M  V30 242 O 24.9395 -1.59198 2.19928 0
M  V30 243 C 23.3955 0.617532 3.54562 0
M  V30 244 C 23.0035 2.06654 3.9749 0
M  V30 245 C 24.7475 0.256401 4.23725 0
M  V30 246 C 22.6545 2.2563 5.46667 0
M  V30 247 H 21.5845 0.136055 0.741623 0
M  V30 248 H 24.2355 0.983166 1.54939 0
M  V30 249 H 22.6175 -0.0616248 3.95952 0
M  V30 250 H 23.7915 2.78296 3.67271 0
M  V30 251 H 22.1065 2.38691 3.41197 0
M  V30 252 H 24.7035 0.376318 5.33374 0
M  V30 253 H 25.0465 -0.796692 4.08606 0
M  V30 254 H 25.5795 0.889214 3.87734 0
M  V30 255 H 22.3185 3.2936 5.66747 0
M  V30 256 H 21.8385 1.58504 5.78478 0
M  V30 257 H 23.5175 2.06861 6.1304 0
M  V30 258 N 23.6496 -1.47581 0.552962 0
M  V30 259 C 24.5966 -2.29957 -0.197108 0
M  V30 260 C 25.5666 -1.38799 -0.912359 0
M  V30 261 O 26.7516 -1.67761 -0.908888 0
M  V30 262 C 23.8916 -3.22672 -1.22379 0
M  V30 263 C 23.0046 -4.28919 -0.515038 0
M  V30 264 C 22.1396 -5.0879 -1.52664 0
M  V30 265 C 21.1786 -6.06815 -0.802631 0
M  V30 266 N 20.3156 -6.7966 -1.76086 0
M  V30 267 H 25.1556 -2.93578 0.511486 0
M  V30 268 H 22.6926 -1.4471 0.264067 0
M  V30 269 H 24.6506 -3.74845 -1.83159 0
M  V30 270 H 23.2806 -2.60925 -1.90047 0
M  V30 271 H 22.3326 -3.79835 0.207192 0
M  V30 272 H 23.6446 -4.98773 0.0523425 0
M  V30 273 H 22.7986 -5.65091 -2.20809 0
M  V30 274 H 21.5376 -4.38828 -2.12794 0
M  V30 275 H 20.5426 -5.49695 -0.107238 0
M  V30 276 H 21.7676 -6.78784 -0.207135 0
M  V30 277 H 19.7136 -6.12432 -2.35081 0
M  V30 278 H 19.6306 -7.45669 -1.24552 0
M  V30 279 H 20.8986 -7.40538 -2.43359 0
M  V30 280 N 25.1277 -0.289203 -1.54924 0
M  V30 281 C 26.4047 0.376032 -1.91951 0
M  V30 282 C 26.7847 1.72622 -1.21511 0
M  V30 283 O 26.1327 2.25853 -0.346767 0
M  V30 284 C 26.3427 0.502378 -3.45365 0
M  V30 285 C 27.6907 0.778741 -4.17398 0
M  V30 286 O 28.7147 0.586647 -3.51336 0
M  V30 287 O 27.5737 1.14698 -5.34328 0
M  V30 288 H 24.6677 0.208167 -0.800372 0
M  V30 289 H 27.2137 -0.336394 -1.66332 0
M  V30 290 H 25.9857 -0.447255 -3.88736 0
M  V30 291 H 25.6087 1.26373 -3.76982 0
M  V30 292 N 26.6058 1.57591 -0.0167156 0
M  V30 293 C 27.5528 2.09462 0.969251 0
M  V30 294 C 28.5228 0.99381 1.33089 0
M  V30 295 O 29.7078 1.26726 1.42636 0
M  V30 296 C 26.8478 2.61622 2.25051 0
M  V30 297 C 25.9608 3.85666 1.94642 0
M  V30 298 C 25.0958 4.26266 3.16972 0
M  V30 299 C 24.1348 5.43101 2.82326 0
M  V30 300 N 23.2718 5.78915 3.97243 0
M  V30 301 H 28.1118 2.93428 0.519997 0
M  V30 302 H 25.6488 1.45044 0.245087 0
M  V30 303 H 27.6068 2.89949 2.99976 0
M  V30 304 H 26.2368 1.80505 2.67615 0
M  V30 305 H 25.2888 3.64145 1.10013 0
M  V30 306 H 26.6008 4.70678 1.65117 0
M  V30 307 H 25.7548 4.55963 4.00228 0
M  V30 308 H 24.4938 3.39996 3.49648 0
M  V30 309 H 23.4988 5.1311 1.97479 0
M  V30 310 H 24.7238 6.3106 2.50879 0
M  V30 311 H 22.6698 4.95602 4.29785 0
M  V30 312 H 22.5868 6.58539 3.71299 0
M  V30 313 H 23.8548 6.13212 4.81239 0
M  V30 314 N 28.0839 -0.256276 1.55502 0
M  V30 315 C 29.0309 -1.31714 1.89526 0
M  V30 316 C 30.0009 -1.4828 0.748479 0
M  V30 317 O 31.1859 -1.62416 1.00128 0
M  V30 318 C 28.3259 -2.66933 2.18725 0
M  V30 319 C 27.4389 -2.58452 3.4616 0
M  V30 320 C 26.5739 -3.85961 3.64976 0
M  V30 321 C 25.6129 -3.72059 4.86044 0
M  V30 322 N 24.7499 -4.9144 5.01429 0
M  V30 323 H 29.5899 -1.01998 2.80001 0
M  V30 324 H 27.1269 -0.492413 1.38613 0
M  V30 325 H 29.0849 -3.4563 2.33657 0
M  V30 326 H 27.7149 -2.94816 1.31466 0
M  V30 327 H 26.7669 -1.71374 3.3961 0
M  V30 328 H 28.0789 -2.44085 4.34999 0
M  V30 329 H 27.2329 -4.73101 3.79816 0
M  V30 330 H 25.9719 -4.03215 2.74353 0
M  V30 331 H 24.9769 -2.83302 4.7119 0
M  V30 332 H 26.2019 -3.56309 5.78118 0
M  V30 333 H 24.1479 -5.09072 4.13741 0
M  V30 334 H 24.0649 -4.79668 5.84341 0
M  V30 335 H 25.3329 -5.80104 5.20672 0
M  V30 336 N 29.562 -1.4872 -0.521534 0
M  V30 337 C 30.51 -1.64328 -1.64618 0
M  V30 338 C 31.504 -0.50953 -1.61555 0
M  V30 339 O 32.71 -0.688525 -1.66311 0
M  V30 340 H 29.085 -0.517805 -0.545328 0
M  V30 341 H 31.056 -2.58767 -1.48601 0
M  V30 342 C 29.805 -1.70805 -3.02855 0
M  V30 343 H 29.128 -2.5741 -3.05909 0
M  V30 344 H 30.568 -1.85766 -3.81139 0
M  V30 345 C 29.027 -0.448479 -3.33902 0
M  V30 346 O 29.557 0.434928 -3.99339 0
M  V30 347 N 27.763 -0.317616 -2.88859 0
M  V30 348 H 27.31 -1.03748 -2.35784 0
M  V30 349 H 27.268 0.524113 -3.10001 0
M  V30 350 N 31.0401 0.771051 -1.3745 0
M  V30 351 C 32.3171 1.519 -1.23231 0
M  V30 352 C 32.6971 2.10383 0.173809 0
M  V30 353 O 32.0451 1.95583 1.18151 0
M  V30 354 C 32.2551 2.59933 -2.32886 0
M  V30 355 C 33.6031 3.27316 -2.70461 0
M  V30 356 O 34.6271 2.70228 -2.32068 0
M  V30 357 O 33.4861 4.30531 -3.36608 0
M  V30 358 H 30.5801 0.672803 -0.480901 0
M  V30 359 H 33.1261 0.807957 -1.49232 0
M  V30 360 H 31.8981 2.14842 -3.27045 0
M  V30 361 H 31.5211 3.38637 -2.08353 0
M  V30 362 N 32.5182 1.22032 0.997298 0
M  V30 363 C 33.7642 1.04376 1.73878 0
M  V30 364 C 34.0972 -0.420716 1.89588 0
M  V30 365 O 33.3722 -1.31202 1.43583 0
M  V30 366 C 33.6552 1.75047 3.14691 0
M  V30 367 C 33.5082 3.29062 3.06656 0
M  V30 368 C 34.8272 1.49928 4.13775 0
M  V30 369 H 31.9462 0.380578 0.631133 0
M  V30 370 H 34.5882 1.50312 1.16217 0
M  V30 371 H 32.7382 1.35996 3.63919 0
M  V30 372 H 34.4102 3.7753 2.65083 0
M  V30 373 H 32.6532 3.58967 2.43568 0
M  V30 374 H 33.3242 3.73683 4.06282 0
M  V30 375 H 35.8002 1.83842 3.73285 0
M  V30 376 H 34.6762 2.01878 5.10428 0
M  V30 377 H 34.9372 0.430929 4.39995 0
M  V30 378 N 33.9963 -1.19345 1.0293 0
M  V30 379 C 34.9063 -2.26245 0.620515 0
M  V30 380 C 35.9223 -1.70486 -0.347928 0
M  V30 381 O 37.0983 -2.00347 -0.205704 0
M  V30 382 C 34.1633 -3.46693 -0.0218957 0
M  V30 383 C 33.2243 -4.17632 0.994102 0
M  V30 384 C 32.4573 -5.32329 0.382253 0
M  V30 385 O 32.6803 -5.64552 -0.814676 0
M  V30 386 O 31.6143 -5.91664 1.10531 0
M  V30 387 H 35.4403 -2.63453 1.51083 0
M  V30 388 H 33.0253 -1.26207 0.799513 0
M  V30 389 H 34.9073 -4.19683 -0.380072 0
M  V30 390 H 33.5823 -3.11333 -0.886209 0
M  V30 391 H 32.4893 -3.4676 1.40387 0
M  V30 392 H 33.8223 -4.56964 1.8288 0
M  V30 393 N 35.4744 -0.807222 -1.35358 0
M  V30 394 C 36.7234 -0.384376 -1.98004 0
M  V30 395 C 37.0364 1.0543 -1.64754 0
M  V30 396 O 38.2424 1.58029 -2.20769 0
M  V30 397 C 36.6984 -0.636326 -3.5423 0
M  V30 398 C 36.3064 -2.08759 -3.96388 0
M  V30 399 C 38.0504 -0.278869 -4.23583 0
M  V30 400 C 35.9574 -2.28525 -5.45463 0
M  V30 401 H 34.8874 -0.139986 -0.740891 0
M  V30 402 H 37.5384 -0.991369 -1.54415 0
M  V30 403 H 35.9204 0.0406256 -3.95979 0
M  V30 404 H 37.0944 -2.8024 -3.6579 0
M  V30 405 H 35.4094 -2.40497 -3.39926 0
M  V30 406 H 38.0064 -0.404599 -5.33167 0
M  V30 407 H 38.3494 0.775012 -4.09022 0
M  V30 408 H 38.8824 -0.909764 -3.87257 0
M  V30 409 H 35.6214 -3.32361 -5.64992 0
M  V30 410 H 35.1414 -1.61569 -5.77629 0
M  V30 411 H 36.8204 -2.10109 -6.11934 0
M  V30 412 N 36.9525 1.47285 -0.560781 0
M  V30 413 C 38.1985 2.02764 -0.0381184 0
M  V30 414 C 38.5315 1.43384 1.30976 0
M  V30 415 O 37.8065 0.590733 1.85312 0
M  V30 416 C 38.0895 3.60064 0.0511427 0
M  V30 417 C 37.9425 4.2987 -1.32408 0
M  V30 418 C 39.2615 4.33439 0.762795 0
M  V30 419 H 36.3805 0.736841 -0.0153264 0
M  V30 420 H 39.0225 1.75675 -0.723759 0
M  V30 421 H 37.1725 3.83274 0.635065 0
M  V30 422 H 38.8445 4.17989 -1.95148 0
M  V30 423 H 37.0875 3.90085 -1.8978 0
M  V30 424 H 37.7585 5.38478 -1.21431 0
M  V30 425 H 40.2345 4.15243 0.266965 0
M  V30 426 H 39.1105 5.43124 0.794221 0
M  V30 427 H 39.3715 4.02915 1.81966 0
M  V30 428 N 38.4306 0.297415 1.54768 0
M  V30 429 C 39.3936 -0.567375 2.22066 0
M  V30 430 C 40.3936 -1.06409 1.20556 0
M  V30 431 O 41.5836 -0.960691 1.45315 0
M  V30 432 C 38.7156 -1.78517 2.90421 0
M  V30 433 H 39.9086 0.0205534 2.99893 0
M  V30 434 H 37.4616 0.0482163 1.56226 0
M  V30 435 H 38.1966 -2.41303 2.16664 0
M  V30 436 H 37.9816 -1.43669 3.64831 0
M  V30 437 H 39.4716 -2.39964 3.41771 0
M  V30 438 N 39.9087 -1.5758 0.0250728 0
M  V30 439 C 41.1487 -1.93497 -0.65865 0
M  V30 440 C 41.5127 -0.901409 -1.69525 0
M  V30 441 O 42.7137 -1.14664 -2.43116 0
M  V30 442 C 40.9847 -3.34352 -1.26267 0
M  V30 443 S 42.5437 -3.92191 -1.96803 0
M  V30 444 H 39.3617 -0.67709 -0.216958 0
M  V30 445 H 41.9637 -1.95303 0.0877692 0
M  V30 446 H 40.6677 -4.07395 -0.495741 0
M  V30 447 H 40.1987 -3.3598 -2.04648 0
M  V30 448 H 42.2137 -3.75298 -3.24601 0
M  V30 449 N 41.3868 0.248026 -1.55636 0
M  V30 450 C 42.6358 0.974134 -1.76617 0
M  V30 451 C 42.9488 1.86528 -0.588796 0
M  V30 452 O 44.1548 2.62805 -0.681594 0
M  V30 453 C 42.6108 1.78213 -3.12679 0
M  V30 454 C 42.2188 0.93843 -4.38061 0
M  V30 455 C 43.9628 2.50104 -3.42999 0
M  V30 456 C 41.8698 1.74225 -5.65155 0
M  V30 457 H 40.7998 0.36745 -0.658405 0
M  V30 458 H 43.4508 0.22884 -1.82067 0
M  V30 459 H 41.8328 2.56933 -3.01333 0
M  V30 460 H 43.0068 0.193635 -4.60393 0
M  V30 461 H 41.3218 0.332905 -4.15067 0
M  V30 462 H 43.9188 3.10694 -4.3517 0
M  V30 463 H 44.2618 3.21662 -2.64271 0
M  V30 464 H 44.7948 1.78395 -3.55556 0
M  V30 465 H 41.5338 1.07043 -6.46701 0
M  V30 466 H 41.0538 2.46235 -5.46926 0
M  V30 467 H 42.7328 2.30967 -6.0437 0
M  V30 468 N 42.8649 1.48995 0.513639 0
M  V30 469 C 44.1139 1.57093 1.2651 0
M  V30 470 C 44.4269 0.257091 1.93903 0
M  V30 471 O 45.6329 0.216478 2.70636 0
M  V30 472 C 44.0889 2.77118 2.29638 0
M  V30 473 C 43.6969 4.15209 1.68241 0
M  V30 474 C 45.4409 2.94538 3.05692 0
M  V30 475 C 43.3479 5.26474 2.69406 0
M  V30 476 H 42.2779 0.584876 0.475854 0
M  V30 477 H 44.9289 1.7536 0.540487 0
M  V30 478 H 43.3109 2.52319 3.05207 0
M  V30 479 H 44.4849 4.50094 0.987505 0
M  V30 480 H 42.7999 4.03042 1.04623 0
M  V30 481 H 45.3969 3.74832 3.8132 0
M  V30 482 H 45.7399 2.04614 3.62545 0
M  V30 483 H 46.2729 3.19316 2.37238 0
M  V30 484 H 43.0119 6.18417 2.17351 0
M  V30 485 H 42.5319 4.96058 3.37175 0
M  V30 486 H 44.2109 5.55277 3.32078 0
M  V30 487 N 44.343 -0.763751 1.37857 0
M  V30 488 C 45.571 -1.55293 1.36718 0
M  V30 489 C 45.986 -1.88745 -0.0455434 0
M  V30 490 O 45.343 -1.52039 -1.00947 0
M  V30 491 C 45.394 -2.85831 2.2132 0
M  V30 492 O 45.115 -2.5381 3.57089 0
M  V30 493 C 46.616 -3.80023 2.28249 0
M  V30 494 H 43.836 -0.480841 0.468009 0
M  V30 495 H 46.38 -0.946009 1.81303 0
M  V30 496 H 44.535 -3.42926 1.80223 0
M  V30 497 H 44.949 -3.37459 4.01524 0
M  V30 498 H 46.423 -4.68599 2.91752 0
M  V30 499 H 46.9 -4.1973 1.2932 0
M  V30 500 H 47.506 -3.28855 2.69693 0
M  V30 501 N 45.8211 -1.22559 -0.990812 0
M  V30 502 C 46.7691 -0.994798 -2.10253 0
M  V30 503 C 47.7631 0.0627798 -1.69284 0
M  V30 504 O 48.9691 -0.0898392 -1.79776 0
M  V30 505 H 45.3441 -0.304527 -0.687581 0
M  V30 506 H 47.3151 -1.93812 -2.26891 0
M  V30 507 C 46.0641 -0.591439 -3.42633 0
M  V30 508 H 45.3871 -1.3969 -3.74602 0
M  V30 509 H 46.8271 -0.469385 -4.21394 0
M  V30 510 C 45.2861 0.699232 -3.29564 0
M  V30 511 O 45.8161 1.75112 -3.61523 0
M  V30 512 N 44.0221 0.671182 -2.82743 0
M  V30 513 H 43.5691 -0.185136 -2.56934 0
M  V30 514 H 43.5271 1.53502 -2.7438 0
M  V30 515 N 47.2992 1.18797 -1.03562 0
M  V30 516 C 48.2292 2.24472 -0.643019 0
M  V30 517 C 49.2102 1.66433 0.351283 0
M  V30 518 O 50.3952 1.92803 0.232505 0
M  V30 519 C 47.5252 3.473 4.24935e-05 0
M  V30 520 C 46.4792 4.18055 -0.917257 0
M  V30 521 C 45.8052 5.34519 -0.138941 0
M  V30 522 C 47.1052 4.72109 -2.23407 0
M  V30 523 H 48.7992 2.57566 -1.52643 0
M  V30 524 H 46.3452 1.23806 -0.735394 0
M  V30 525 H 48.2982 4.20426 0.286383 0
M  V30 526 H 47.0222 3.13424 0.918299 0
M  V30 527 H 45.6812 3.46821 -1.1879 0
M  V30 528 H 45.3292 4.96891 0.781562 0
M  V30 529 H 45.0292 5.82794 -0.750005 0
M  V30 530 H 46.5532 6.10438 0.1405 0
M  V30 531 H 47.9672 5.36955 -2.00879 0
M  V30 532 H 46.3642 5.30897 -2.79765 0
M  V30 533 H 47.4342 3.89807 -2.88407 0
M  V30 534 N 48.7773 0.814389 1.34928 0
M  V30 535 C 49.7073 0.244827 2.32213 0
M  V30 536 C 50.6883 -0.634024 1.57842 0
M  V30 537 O 51.8733 -0.562676 1.8587 0
M  V30 538 C 49.0033 -0.601106 3.42058 0
M  V30 539 C 47.9573 0.179896 4.27622 0
M  V30 540 C 47.2833 -0.788237 5.28858 0
M  V30 541 C 48.5833 1.38329 5.03649 0
M  V30 542 H 50.2773 1.05763 2.80097 0
M  V30 543 H 47.8233 0.510029 1.34665 0
M  V30 544 H 49.7763 -1.00968 4.09125 0
M  V30 545 H 48.5003 -1.44688 2.92802 0
M  V30 546 H 47.1593 0.569739 3.62146 0
M  V30 547 H 46.8073 -1.62973 4.75866 0
M  V30 548 H 46.5073 -0.269942 5.8698 0
M  V30 549 H 48.0313 -1.19485 5.98795 0
M  V30 550 H 49.4453 1.04918 5.63618 0
M  V30 551 H 47.8423 1.83662 5.71304 0
M  V30 552 H 48.9123 2.16592 4.33839 0
M  V30 553 N 50.2554 -1.46986 0.568584 0
M  V30 554 C 51.5034 -2.02041 0.0487022 0
M  V30 555 C 51.8244 -1.44408 -1.31039 0
M  V30 556 O 51.0944 -0.623477 -1.85714 0
M  V30 557 H 49.6744 -0.746849 0.015014 0
M  V30 558 H 52.3364 -1.80257 0.741168 0
M  V30 559 H 51.4324 -3.12085 -0.0308961 0
M  V30 560 N 51.7335 -0.305618 -1.54608 0
M  V30 561 C 52.9615 0.304775 -2.04643 0
M  V30 562 C 53.3765 1.47167 -1.18268 0
M  V30 563 O 52.7335 1.81296 -0.209328 0
M  V30 564 C 52.7845 0.756564 -3.53495 0
M  V30 565 O 52.5055 -0.36389 -4.36586 0
M  V30 566 C 54.0065 1.43163 -4.19546 0
M  V30 567 H 51.2265 0.0655481 -0.667791 0
M  V30 568 H 53.7705 -0.446592 -1.99564 0
M  V30 569 H 51.9255 1.45794 -3.58919 0
M  V30 570 H 52.3395 -0.0113121 -5.24499 0
M  V30 571 H 53.8135 1.69886 -5.25207 0
M  V30 572 H 54.2905 2.37318 -3.69563 0
M  V30 573 H 54.8965 0.773307 -4.18211 0
M  V30 574 N 53.2116 1.57565 -0.0334293 0
M  V30 575 C 54.4416 1.95996 0.653398 0
M  V30 576 C 54.8496 0.908749 1.65947 0
M  V30 577 O 54.1926 -0.117471 1.83324 0
M  V30 578 C 54.2546 3.30589 1.41249 0
M  V30 579 C 53.9186 4.53503 0.564263 0
M  V30 580 C 54.9156 5.19647 -0.16225 0
M  V30 581 C 52.6006 4.99801 0.500398 0
M  V30 582 C 54.5946 6.30412 -0.941255 0
M  V30 583 C 52.2816 6.10448 -0.282308 0
M  V30 584 C 53.2796 6.75612 -1.00184 0
M  V30 585 O 52.9676 7.84134 -1.77171 0
M  V30 586 H 52.6996 0.65027 0.184728 0
M  V30 587 H 55.2536 2.05199 -0.0907841 0
M  V30 588 H 53.4836 3.17888 2.20191 0
M  V30 589 H 55.1726 3.53892 1.98784 0
M  V30 590 H 55.9386 4.84846 -0.12227 0
M  V30 591 H 51.8176 4.48883 1.05002 0
M  V30 592 H 55.3616 6.81208 -1.50339 0
M  V30 593 H 51.2586 6.44686 -0.323989 0
M  V30 594 H 52.0266 8.00822 -1.69194 0
M  V30 595 N 54.6897 -0.239769 1.55765 0
M  V30 596 C 55.9367 -0.966801 1.7793 0
M  V30 597 C 56.2647 -1.85046 0.599015 0
M  V30 598 O 55.5197 -1.91197 -0.417395 0
M  V30 599 C 55.8187 -1.852 3.05672 0
M  V30 600 C 55.4847 -1.1231 4.36689 0
M  V30 601 C 54.1467 -0.921689 4.72291 0
M  V30 602 C 56.4987 -0.607019 5.17653 0
M  V30 603 C 53.8267 -0.191996 5.86386 0
M  V30 604 C 56.1787 0.109241 6.32506 0
M  V30 605 C 54.8427 0.322073 6.66723 0
M  V30 606 H 54.1127 -0.353778 0.651093 0
M  V30 607 H 56.7597 -0.23634 1.90036 0
M  V30 608 H 55.0647 -2.64975 2.8861 0
M  V30 609 H 56.7617 -2.41635 3.20021 0
M  V30 610 H 53.3517 -1.29004 4.08725 0
M  V30 611 H 57.5357 -0.750153 4.90598 0
M  V30 612 H 52.7917 -0.0166949 6.11398 0
M  V30 613 H 56.9657 0.516737 6.9448 0
M  V30 614 H 54.5927 0.88944 7.54979 0
M  V30 615 N 56.1678 -1.49265 -0.50573 0
M  V30 616 C 57.1148 -1.65585 -1.6078 0
M  V30 617 C 58.0848 -0.497396 -1.58478 0
M  V30 618 O 59.2698 -0.72385 -1.76536 0
M  V30 619 C 56.4098 -1.72408 -2.98948 0
M  V30 620 C 55.5228 -2.99525 -3.11301 0
M  V30 621 C 54.6578 -2.97356 -4.40174 0
M  V30 622 C 53.6968 -4.19074 -4.46143 0
M  V30 623 N 52.8338 -4.14841 -5.66437 0
M  V30 624 H 57.6738 -2.59688 -1.46172 0
M  V30 625 H 55.2108 -1.28761 -0.711261 0
M  V30 626 H 57.1688 -1.74344 -3.79025 0
M  V30 627 H 55.7988 -0.817753 -3.1227 0
M  V30 628 H 54.8508 -3.07222 -2.24318 0
M  V30 629 H 56.1628 -3.89518 -3.11572 0
M  V30 630 H 55.3168 -2.97829 -5.28567 0
M  V30 631 H 54.0558 -2.05133 -4.42461 0
M  V30 632 H 53.0608 -4.1885 -3.56153 0
M  V30 633 H 54.2858 -5.12483 -4.45575 0
M  V30 634 H 52.2318 -3.25453 -5.69575 0
M  V30 635 H 52.1488 -4.98564 -5.68304 0
M  V30 636 H 53.4168 -4.1941 -6.57051 0
M  V30 637 N 57.6459 0.756429 -1.3826 0
M  V30 638 C 58.8859 1.52833 -1.35725 0
M  V30 639 C 59.2499 1.91926 0.0534106 0
M  V30 640 O 60.4509 2.68028 0.203613 0
M  V30 641 C 58.7219 2.74919 -2.28373 0
M  V30 642 S 60.2809 3.64817 -2.43832 0
M  V30 643 H 57.0989 0.523043 -0.481608 0
M  V30 644 H 59.7009 0.888212 -1.74158 0
M  V30 645 H 58.4049 2.44304 -3.29763 0
M  V30 646 H 57.9359 3.43878 -1.91079 0
M  V30 647 H 59.9509 4.676 -1.66027 0
M  V30 648 N 59.124 1.23083 0.984299 0
M  V30 649 C 60.371 1.06057 1.72505 0
M  V30 650 C 60.699 -0.403105 1.90277 0
M  V30 651 O 59.954 -1.3149 1.44944 0
M  V30 652 C 60.253 1.72673 3.1292 0
M  V30 653 C 59.919 3.22586 3.15038 0
M  V30 654 C 58.581 3.63489 3.15324 0
M  V30 655 C 60.933 4.185 3.10657 0
M  V30 656 C 58.261 4.98772 3.08939 0
M  V30 657 C 60.613 5.53769 3.05814 0
M  V30 658 C 59.277 5.94041 3.04419 0
M  V30 659 H 58.547 0.388091 0.631242 0
M  V30 660 H 61.194 1.52963 1.15215 0
M  V30 661 H 59.499 1.18116 3.73572 0
M  V30 662 H 61.196 1.56982 3.68996 0
M  V30 663 H 57.786 2.90022 3.15571 0
M  V30 664 H 61.97 3.87911 3.09579 0
M  V30 665 H 57.226 5.29193 3.0621 0
M  V30 666 H 61.4 6.27808 3.0138 0
M  V30 667 H 59.027 6.98833 2.99227 0
M  V30 668 N 60.6021 -1.18246 1.0419 0
M  V30 669 C 61.8491 -1.88257 0.746017 0
M  V30 670 C 62.1771 -1.80429 -0.726331 0
M  V30 671 O 61.4321 -1.2 -1.54591 0
M  V30 672 C 61.7311 -3.38082 1.15911 0
M  V30 673 C 61.3971 -3.66114 2.63195 0
M  V30 674 C 60.0591 -3.73474 3.03432 0
M  V30 675 C 62.4111 -3.78398 3.5842 0
M  V30 676 C 59.7391 -3.90599 4.37778 0
M  V30 677 C 62.0911 -3.97039 4.92487 0
M  V30 678 C 60.7551 -4.02635 5.32392 0
M  V30 679 H 60.0251 -0.688883 0.272987 0
M  V30 680 H 62.6721 -1.3995 1.30715 0
M  V30 681 H 60.9771 -3.88377 0.516806 0
M  V30 682 H 62.6741 -3.90596 0.907516 0
M  V30 683 H 59.2641 -3.61003 2.3103 0
M  V30 684 H 63.4481 -3.72042 3.28479 0
M  V30 685 H 58.7041 -3.93175 4.68213 0
M  V30 686 H 62.8781 -4.05486 5.66175 0
M  V30 687 H 60.5051 -4.15657 6.36501 0
M  V30 688 N 62.0802 -0.821533 -1.34494 0
M  V30 689 C 63.3102 -0.421272 -2.02259 0
M  V30 690 C 63.7182 0.977047 -1.6202 0
M  V30 691 O 63.0612 1.64348 -0.820703 0
M  V30 692 C 63.1232 -0.44231 -3.56769 0
M  V30 693 C 62.7872 -1.79372 -4.20327 0
M  V30 694 C 63.7842 -2.75435 -4.40944 0
M  V30 695 C 61.4692 -2.08182 -4.57127 0
M  V30 696 C 63.4632 -3.98482 -4.97484 0
M  V30 697 C 61.1502 -3.31489 -5.13379 0
M  V30 698 C 62.1482 -4.26457 -5.33501 0
M  V30 699 O 61.8362 -5.47585 -5.88562 0
M  V30 700 H 61.5682 -0.167473 -0.654927 0
M  V30 701 H 64.1222 -1.11073 -1.72777 0
M  V30 702 H 62.3522 0.303836 -3.85505 0
M  V30 703 H 64.0412 -0.0622925 -4.05852 0
M  V30 704 H 64.8072 -2.54473 -4.12878 0
M  V30 705 H 60.6862 -1.35066 -4.4077 0
M  V30 706 H 64.2302 -4.72618 -5.13106 0
M  V30 707 H 60.1272 -3.52316 -5.40873 0
M  V30 708 H 60.8952 -5.49086 -6.06998 0
M  V30 709 N 63.5583 1.46682 -0.576371 0
M  V30 710 C 64.8043 2.02712 -0.0596221 0
M  V30 711 C 65.1373 1.44765 1.29448 0
M  V30 712 O 64.4123 0.610355 1.84675 0
M  V30 713 C 64.6953 3.60098 0.0129503 0
M  V30 714 C 64.5483 4.28441 -1.3696 0
M  V30 715 C 65.8673 4.34224 0.71678 0
M  V30 716 H 62.9863 0.736637 -0.0231407 0
M  V30 717 H 65.6283 1.74898 -0.742351 0
M  V30 718 H 63.7783 3.83926 0.594378 0
M  V30 719 H 65.4503 4.15896 -1.9957 0
M  V30 720 H 63.6933 3.8805 -1.93907 0
M  V30 721 H 64.3643 5.3716 -1.27135 0
M  V30 722 H 66.8403 4.15503 0.222908 0
M  V30 723 H 65.7163 5.43936 0.73657 0
M  V30 724 H 65.9773 4.04823 1.77682 0
M  V30 725 N 65.0364 0.313813 1.54444 0
M  V30 726 C 65.9834 -0.55655 2.23989 0
M  V30 727 C 66.9534 -1.11943 1.22711 0
M  V30 728 O 68.1384 -1.16158 1.51367 0
M  V30 729 C 65.2784 -1.71635 2.99392 0
M  V30 730 C 64.3914 -1.18364 4.15468 0
M  V30 731 C 63.5264 -2.30834 4.78424 0
M  V30 732 C 62.5654 -1.74762 5.86622 0
M  V30 733 N 61.7024 -2.80855 6.43479 0
M  V30 734 H 66.5424 0.0430893 2.97969 0
M  V30 735 H 64.0794 0.0330359 1.47063 0
M  V30 736 H 66.0374 -2.39868 3.41349 0
M  V30 737 H 64.6674 -2.28742 2.27765 0
M  V30 738 H 63.7194 -0.393163 3.78363 0
M  V30 739 H 65.0314 -0.733262 4.93381 0
M  V30 740 H 64.1854 -3.0699 5.23299 0
M  V30 741 H 62.9244 -2.79204 3.99871 0
M  V30 742 H 61.9294 -0.970995 5.41158 0
M  V30 743 H 63.1544 -1.2728 6.67066 0
M  V30 744 H 61.1004 -3.28535 5.67804 0
M  V30 745 H 61.0174 -2.40351 7.16776 0
M  V30 746 H 62.2854 -3.5687 6.93011 0
M  V30 747 N 66.5145 -1.57545 0.0417849 0
M  V30 748 C 67.4245 -2.14451 -0.951213 0
M  V30 749 C 68.4405 -1.09992 -1.34825 0
M  V30 750 O 69.6165 -1.42114 -1.42708 0
M  V30 751 C 66.6815 -2.67063 -2.21084 0
M  V30 752 C 65.7425 -3.86284 -1.87304 0
M  V30 753 C 64.9755 -4.36378 -3.07261 0
M  V30 754 O 65.1985 -3.85587 -4.20332 0
M  V30 755 O 64.1325 -5.28077 -2.88822 0
M  V30 756 H 67.9585 -2.99601 -0.497287 0
M  V30 757 H 65.5435 -1.48317 -0.179567 0
M  V30 758 H 67.4255 -3.00914 -2.95006 0
M  V30 759 H 66.1005 -1.84989 -2.65633 0
M  V30 760 H 65.0075 -3.57338 -1.10727 0
M  V30 761 H 66.3405 -4.6956 -1.47562 0
M  V30 762 N 67.9926 0.231505 -1.5589 0
M  V30 763 C 69.2416 0.955346 -1.7764 0
M  V30 764 C 69.5546 1.85893 -0.608546 0
M  V30 765 O 70.7606 2.62067 -0.70943 0
M  V30 766 C 69.2166 1.74886 -3.14552 0
M  V30 767 C 68.8246 0.891915 -4.39032 0
M  V30 768 C 70.5686 2.46452 -3.45633 0
M  V30 769 C 68.4756 1.68221 -5.66971 0
M  V30 770 H 67.4056 0.360446 -0.662265 0
M  V30 771 H 70.0566 0.209516 -1.823 0
M  V30 772 H 68.4386 2.53723 -3.04041 0
M  V30 773 H 69.6126 0.144793 -4.60572 0
M  V30 774 H 67.9276 0.288863 -4.15397 0
M  V30 775 H 70.5246 3.06061 -4.38441 0
M  V30 776 H 70.8676 3.18841 -2.67668 0
M  V30 777 H 71.4006 1.74613 -3.57428 0
M  V30 778 H 68.1396 1.00178 -6.478 0
M  V30 779 H 67.6596 2.4042 -5.49507 0
M  V30 780 H 69.3386 2.24544 -6.06786 0
M  V30 781 N 69.4707 1.49531 0.497807 0
M  V30 782 C 70.6987 1.62893 1.27567 0
M  V30 783 C 71.1137 0.301585 1.86376 0
M  V30 784 O 70.4707 -0.713335 1.67982 0
M  V30 785 C 70.5217 2.70013 2.40364 0
M  V30 786 O 70.2427 3.976 1.83972 0
M  V30 787 C 71.7437 2.94109 3.31685 0
M  V30 788 H 68.9637 0.548298 0.386794 0
M  V30 789 H 71.5077 1.95584 0.597245 0
M  V30 790 H 69.6627 2.40092 3.04031 0
M  V30 791 H 70.0767 4.56631 2.58047 0
M  V30 792 H 71.5507 3.72788 4.07104 0
M  V30 793 H 72.0277 2.04147 3.88871 0
M  V30 794 H 72.6337 3.2546 2.73781 0
M  V30 795 N 70.9488 -0.749086 1.3866 0
M  V30 796 C 71.8788 -1.8764 1.38973 0
M  V30 797 C 72.8598 -1.68178 0.255004 0
M  V30 798 O 74.0448 -1.88704 0.458754 0
M  V30 799 C 71.1748 -3.25222 1.21851 0
M  V30 800 C 70.1288 -3.59295 2.32575 0
M  V30 801 C 69.4548 -4.95663 2.00555 0
M  V30 802 C 70.7548 -3.63709 3.7485 0
M  V30 803 H 72.4488 -1.87635 2.3331 0
M  V30 804 H 69.9948 -0.901329 1.12303 0
M  V30 805 H 71.9478 -4.03746 1.20695 0
M  V30 806 H 70.6718 -3.25719 0.239775 0
M  V30 807 H 69.3308 -2.83093 2.32925 0
M  V30 808 H 68.9788 -4.92724 1.01154 0
M  V30 809 H 68.6788 -5.19429 2.74714 0
M  V30 810 H 70.2028 -5.7656 2.01024 0
M  V30 811 H 71.6168 -4.32338 3.76506 0
M  V30 812 H 70.0138 -3.98986 4.48252 0
M  V30 813 H 71.0838 -2.63834 4.06841 0
M  V30 814 N 72.4269 -1.23603 -0.977757 0
M  V30 815 C 73.3749 -1.01704 -2.09187 0
M  V30 816 C 74.3689 0.0448214 -1.69341 0
M  V30 817 O 75.5749 -0.108902 -1.7967 0
M  V30 818 H 71.9499 -0.311803 -0.684312 0
M  V30 819 H 73.9209 -1.96207 -2.24823 0
M  V30 820 C 72.6699 -0.627746 -3.41986 0
M  V30 821 H 71.9929 -1.43656 -3.73099 0
M  V30 822 H 73.4329 -0.514053 -4.20872 0
M  V30 823 C 71.8919 0.664238 -3.30287 0
M  V30 824 O 72.4219 1.71268 -3.6336 0
M  V30 825 N 70.6279 0.641156 -2.83439 0
M  V30 826 H 70.1749 -0.212376 -2.56723 0
M  V30 827 H 70.1329 1.50583 -2.75993 0
M  V30 828 N 73.905 1.17692 -1.04816 0
M  V30 829 C 74.852 2.21581 -0.645797 0
M  V30 830 C 75.822 1.62367 0.350159 0
M  V30 831 O 77.007 1.89254 0.242433 0
M  V30 832 C 74.147 3.45092 -0.0227568 0
M  V30 833 C 73.26 4.18613 -1.06709 0
M  V30 834 C 72.395 5.29602 -0.411767 0
M  V30 835 C 71.434 5.94904 -1.44067 0
M  V30 836 N 70.571 6.97414 -0.809781 0
M  V30 837 H 75.411 2.55353 -1.5362 0
M  V30 838 H 72.948 1.25438 -0.768364 0
M  V30 839 H 74.906 4.15679 0.35588 0
M  V30 840 H 73.536 3.11917 0.831122 0
M  V30 841 H 72.588 3.46779 -1.5636 0
M  V30 842 H 73.9 4.63293 -1.84827 0
M  V30 843 H 73.054 6.06696 0.0206623 0
M  V30 844 H 71.793 4.86045 0.401438 0
M  V30 845 H 70.798 5.16544 -1.88316 0
M  V30 846 H 72.023 6.40542 -2.25571 0
M  V30 847 H 69.969 6.55998 -0.0170186 0
M  V30 848 H 69.886 7.40386 -1.52856 0
M  V30 849 H 71.154 7.78463 -0.401999 0
M  V30 850 N 75.3831 0.828654 1.34056 0
M  V30 851 C 76.3131 0.269443 2.3194 0
M  V30 852 C 77.2941 -0.617247 1.58506 0
M  V30 853 O 78.4791 -0.542931 1.86456 0
M  V30 854 C 75.6091 -0.564793 3.42677 0
M  V30 855 C 74.5631 0.225241 4.27407 0
M  V30 856 C 73.8891 -0.7321 5.29664 0
M  V30 857 C 75.1891 1.43663 5.02154 0
M  V30 858 H 76.8831 1.08728 2.7896 0
M  V30 859 H 74.4291 0.524283 1.34117 0
M  V30 860 H 76.3821 -0.966233 4.10173 0
M  V30 861 H 75.1061 -1.41574 2.9432 0
M  V30 862 H 73.7651 0.608117 3.61521 0
M  V30 863 H 73.4131 -1.57916 4.77568 0
M  V30 864 H 73.1131 -0.20767 5.87233 0
M  V30 865 H 74.6371 -1.13128 6.00029 0
M  V30 866 H 76.0511 1.1089 5.62473 0
M  V30 867 H 74.4481 1.89711 5.69324 0
M  V30 868 H 75.5181 2.21181 4.31517 0
M  V30 869 N 76.8612 -1.46375 0.584142 0
M  V30 870 C 77.7712 -2.34115 -0.150728 0
M  V30 871 C 78.7872 -1.49838 -0.884567 0
M  V30 872 O 79.9632 -1.82704 -0.847429 0
M  V30 873 C 77.0282 -3.2705 -1.15062 0
M  V30 874 C 76.0892 -4.27228 -0.421293 0
M  V30 875 C 75.3222 -5.15722 -1.37355 0
M  V30 876 O 75.5452 -5.07176 -2.61014 0
M  V30 877 O 74.4792 -5.95383 -0.883355 0
M  V30 878 H 78.3052 -2.98309 0.569708 0
M  V30 879 H 75.8902 -1.45373 0.344535 0
M  V30 880 H 77.7722 -3.84381 -1.72712 0
M  V30 881 H 76.4472 -2.65451 -1.8525 0
M  V30 882 H 75.3542 -3.7358 0.197085 0
M  V30 883 H 76.6872 -4.91616 0.239641 0
M  V30 884 N 78.3393 -0.321999 -1.54275 0
M  V30 885 C 79.5643 0.285791 -2.05422 0
M  V30 886 C 79.9893 1.45124 -1.19669 0
M  V30 887 O 79.3473 1.80132 -0.205441 0
M  V30 888 C 79.3953 0.69956 -3.53749 0
M  V30 889 O 78.4993 1.8021 -3.70942 0
M  V30 890 H 77.8403 0.0518962 -0.661969 0
M  V30 891 H 80.3703 -0.469954 -1.9913 0
M  V30 892 H 80.3803 0.982649 -3.9599 0
M  V30 893 H 79.0553 -0.152864 -4.15619 0
M  V30 894 H 77.6323 1.51794 -3.40607 0
M  V30 895 N 79.8174 1.5752 -0.0501392 0
M  V30 896 C 81.0654 1.9227 0.622642 0
M  V30 897 C 81.3864 0.929083 1.71444 0
M  V30 898 O 80.6564 -0.0262186 1.95882 0
M  V30 899 H 79.2364 0.709739 0.232981 0
M  V30 900 H 81.8984 1.94628 -0.102898 0
M  V30 901 H 80.9944 2.93479 1.06191 0
M  V30 902 N 81.2955 -0.223234 1.56011 0
M  V30 903 C 82.5425 -0.947875 1.78946 0
M  V30 904 C 82.8705 -1.844 0.618608 0
M  V30 905 O 82.1255 -1.91629 -0.397093 0
M  V30 906 C 82.4245 -1.81948 3.0762 0
M  V30 907 C 82.0905 -1.07672 4.37856 0
M  V30 908 C 80.7525 -0.871544 4.73242 0
M  V30 909 C 83.1045 -0.552081 5.18268 0
M  V30 910 C 80.4325 -0.129791 5.86556 0
M  V30 911 C 82.7845 0.17632 6.32354 0
M  V30 912 C 81.4485 0.39277 6.66343 0
M  V30 913 H 80.7185 -0.346852 0.654809 0
M  V30 914 H 83.3655 -0.216171 1.90276 0
M  V30 915 H 81.6705 -2.61899 2.91404 0
M  V30 916 H 83.3675 -2.38227 3.22566 0
M  V30 917 H 79.9575 -1.24662 4.1007 0
M  V30 918 H 84.1415 -0.698076 4.91366 0
M  V30 919 H 79.3975 0.048153 6.11381 0
M  V30 920 H 83.5715 0.590367 6.93893 0
M  V30 921 H 81.1985 0.969466 7.53993 0
M  V30 922 N 82.7736 -1.49793 -0.48987 0
M  V30 923 C 83.9986 -1.63836 -1.27172 0
M  V30 924 C 84.4236 -0.31402 -1.8546 0
M  V30 925 O 83.7816 0.719803 -1.66399 0
M  V30 926 C 83.8296 -2.71797 -2.36978 0
M  V30 927 O 82.9336 -2.31744 -3.41128 0
M  V30 928 H 82.2746 -0.547997 -0.37496 0
M  V30 929 H 84.8046 -1.96053 -0.585191 0
M  V30 930 H 84.8146 -2.94305 -2.82575 0
M  V30 931 H 83.4896 -3.67923 -1.93921 0
M  V30 932 H 82.0666 -2.1961 -3.01373 0
M  V30 933 N 84.2517 0.741722 -1.39055 0
M  V30 934 C 85.4987 1.50114 -1.35912 0
M  V30 935 C 85.8267 1.94443 0.0470937 0
M  V30 936 O 85.0817 1.66612 1.02659 0
M  V30 937 C 85.3807 2.7592 -2.27163 0
M  V30 938 C 85.0467 2.50493 -3.74919 0
M  V30 939 C 83.7087 2.43267 -4.1518 0
M  V30 940 C 86.0607 2.28585 -4.684 0
M  V30 941 C 83.3887 2.12166 -5.46994 0
M  V30 942 C 85.7407 1.99002 -6.00484 0
M  V30 943 C 84.4047 1.90241 -6.39816 0
M  V30 944 H 83.6747 0.549306 -0.497336 0
M  V30 945 H 86.3217 0.851896 -1.71508 0
M  V30 946 H 84.6267 3.45553 -1.84663 0
M  V30 947 H 86.3237 3.33923 -2.22028 0
M  V30 948 H 82.9137 2.56992 -3.43006 0
M  V30 949 H 87.0977 2.33139 -4.38132 0
M  V30 950 H 82.3537 2.03901 -5.76398 0
M  V30 951 H 86.5277 1.81057 -6.72452 0
M  V30 952 H 84.1547 1.65907 -7.41875 0
M  V30 953 N 85.7298 1.2412 0.971189 0
M  V30 954 C 87.0068 0.986867 1.6888 0
M  V30 955 C 87.3868 -0.491857 2.0529 0
M  V30 956 O 86.7348 -1.46531 1.75331 0
M  V30 957 C 86.9448 1.9063 2.92338 0
M  V30 958 C 88.2928 2.17515 3.64654 0
M  V30 959 O 89.3168 1.88254 3.02388 0
M  V30 960 O 88.1758 2.6719 4.7673 0
M  V30 961 H 85.2698 0.372944 0.738134 0
M  V30 962 H 87.8158 1.35203 1.02559 0
M  V30 963 H 86.5878 2.90552 2.62097 0
M  V30 964 H 86.2108 1.54408 3.66393 0
M  V30 965 N 87.2079 -1.17134 1.05439 0
M  V30 966 C 88.1709 -2.19439 0.661764 0
M  V30 967 C 89.1709 -1.58199 -0.288042 0
M  V30 968 O 90.3609 -1.74053 -0.0715803 0
M  V30 969 C 87.4929 -3.40889 -0.0276209 0
M  V30 970 H 88.6859 -2.55688 1.56728 0
M  V30 971 H 86.2389 -1.31259 0.848567 0
M  V30 972 H 86.9739 -3.10187 -0.94629 0
M  V30 973 H 86.7589 -3.86586 0.655238 0
M  V30 974 H 88.2489 -4.16603 -0.288342 0
M  V30 975 N 88.686 -0.835752 -1.33615 0
M  V30 976 C 89.911 -0.442389 -2.02627 0
M  V30 977 C 90.336 0.947735 -1.62479 0
M  V30 978 O 89.694 1.61907 -0.815826 0
M  V30 979 C 89.742 -0.567216 -3.56111 0
M  V30 980 O 88.846 0.407799 -4.10379 0
M  V30 981 H 88.187 -0.180278 -0.639059 0
M  V30 982 H 90.717 -1.12972 -1.70583 0
M  V30 983 H 90.727 -0.447708 -4.05536 0
M  V30 984 H 89.402 -1.58103 -3.84677 0
M  V30 985 H 87.979 0.246107 -3.72087 0
M  V30 986 N 90.1641 1.46063 -0.591896 0
M  V30 987 C 91.3891 2.07226 -0.0850314 0
M  V30 988 C 91.8141 1.43625 1.21463 0
M  V30 989 O 91.1721 0.523305 1.73583 0
M  V30 990 C 91.2201 3.60554 0.0576567 0
M  V30 991 O 90.3241 3.97128 1.11188 0
M  V30 992 H 89.6651 0.660615 -0.0669568 0
M  V30 993 H 92.1951 1.8756 -0.81745 0
M  V30 994 H 92.2051 4.07165 0.2609 0
M  V30 995 H 90.8801 4.06235 -0.891416 0
M  V30 996 H 89.4571 3.62213 0.886356 0
M  V30 997 N 91.6422 0.330177 1.54103 0
M  V30 998 C 92.8912 -0.271336 1.99867 0
M  V30 999 C 93.2042 -1.52723 1.22209 0
M  V30 1000 O 94.4102 -2.20515 1.58383 0
M  V30 1001 C 92.8662 -0.534032 3.55916 0
M  V30 1002 C 92.4742 0.705193 4.42415 0
M  V30 1003 C 94.2182 -1.09514 4.1013 0
M  V30 1004 C 92.1252 0.414035 5.89949 0
M  V30 1005 H 91.0552 -0.105166 0.74663 0
M  V30 1006 H 93.7062 0.443429 1.78062 0
M  V30 1007 H 92.0882 -1.30915 3.73734 0
M  V30 1008 H 93.2622 1.4804 4.36372 0
M  V30 1009 H 91.5772 1.18698 3.99124 0
M  V30 1010 H 94.1742 -1.3277 5.17954 0
M  V30 1011 H 94.5172 -2.04656 3.62521 0
M  V30 1012 H 95.0502 -0.381038 3.95971 0
M  V30 1013 H 91.7892 1.33481 6.41766 0
M  V30 1014 H 91.3092 -0.323336 5.98928 0
M  V30 1015 H 92.9882 0.0263105 6.46995 0
M  V30 1016 N 93.1203 -1.57491 0.0584922 0
M  V30 1017 C 94.0673 -2.11958 -0.913376 0
M  V30 1018 C 95.0373 -1.02875 -1.30407 0
M  V30 1019 O 96.2223 -1.30464 -1.39226 0
M  V30 1020 C 93.3623 -2.67497 -2.18035 0
M  V30 1021 C 92.4753 -3.90691 -1.84349 0
M  V30 1022 C 91.6103 -4.3452 -3.05559 0
M  V30 1023 C 90.6493 -5.50395 -2.67827 0
M  V30 1024 N 89.7863 -5.89244 -3.81754 0
M  V30 1025 H 94.6263 -2.94704 -0.442017 0
M  V30 1026 H 92.1633 -1.45643 -0.206545 0
M  V30 1027 H 94.1213 -2.978 -2.92183 0
M  V30 1028 H 92.7513 -1.87537 -2.62735 0
M  V30 1029 H 91.8033 -3.66934 -1.00319 0
M  V30 1030 H 93.1153 -4.7489 -1.5258 0
M  V30 1031 H 92.2693 -4.66414 -3.87998 0
M  V30 1032 H 91.0083 -3.49147 -3.40511 0
M  V30 1033 H 90.0133 -5.18165 -1.83806 0
M  V30 1034 H 91.2383 -6.3749 -2.34059 0
M  V30 1035 H 89.1843 -5.06823 -4.16493 0
M  V30 1036 H 89.1013 -6.68151 -3.53708 0
M  V30 1037 H 90.3693 -6.25756 -4.64811 0
M  V30 1038 N 94.5984 0.214957 -1.56127 0
M  V30 1039 C 95.5284 1.2695 -1.95974 0
M  V30 1040 C 96.5094 1.48539 -0.828868 0
M  V30 1041 O 97.6944 1.60611 -1.09168 0
M  V30 1042 C 94.8244 2.61794 -2.28214 0
M  V30 1043 C 93.7784 2.54851 -3.43853 0
M  V30 1044 C 93.1044 3.93785 -3.61715 0
M  V30 1045 C 94.4044 2.09065 -4.78632 0
M  V30 1046 H 96.0984 0.93846 -2.84312 0
M  V30 1047 H 93.6444 0.449996 -1.36788 0
M  V30 1048 H 95.5974 3.35731 -2.54682 0
M  V30 1049 H 94.3214 2.96599 -1.36736 0
M  V30 1050 H 92.9804 1.8337 -3.17444 0
M  V30 1051 H 92.6284 4.25908 -2.67602 0
M  V30 1052 H 92.3284 3.90019 -4.39498 0
M  V30 1053 H 93.8524 4.69374 -3.90539 0
M  V30 1054 H 95.2664 2.7275 -5.04262 0
M  V30 1055 H 93.6634 2.16346 -5.59745 0
M  V30 1056 H 94.7334 1.04315 -4.73547 0
M  V30 1057 N 96.0765 1.50051 0.48192 0
M  V30 1058 C 97.3165 1.62128 1.24474 0
M  V30 1059 C 97.6805 0.309742 1.89485 0
M  V30 1060 O 98.8815 0.305854 2.67054 0
M  V30 1061 C 97.1525 2.76151 2.26882 0
M  V30 1062 S 98.7115 3.08297 3.12247 0
M  V30 1063 H 95.5295 0.571661 0.422759 0
M  V30 1064 H 98.1315 1.87791 0.54359 0
M  V30 1065 H 96.8355 3.69942 1.77683 0
M  V30 1066 H 96.3665 2.52541 3.0164 0
M  V30 1067 H 98.3815 2.51287 4.27866 0
M  V30 1068 N 97.5546 -0.734337 1.39446 0
M  V30 1069 C 98.7796 -1.52866 1.40167 0
M  V30 1070 C 99.2046 -1.881 -0.00171513 0
M  V30 1071 O 98.5626 -1.51957 -0.988879 0
M  V30 1072 C 98.6106 -2.79235 2.28167 0
M  V30 1073 O 97.7146 -3.75185 1.71201 0
M  V30 1074 H 97.0556 -0.461618 0.477289 0
M  V30 1075 H 99.5856 -0.905949 1.8345 0
M  V30 1076 H 99.5956 -3.27963 2.42702 0
M  V30 1077 H 98.2706 -2.52923 3.30156 0
M  V30 1078 H 96.8476 -3.33958 1.65912 0
M  V30 1079 N 99.0327 -1.24633 -0.964593 0
M  V30 1080 C 100.31 -0.995809 -1.68354 0
M  V30 1081 C 100.69 0.480964 -2.05548 0
M  V30 1082 O 100.038 1.45599 -1.76105 0
M  V30 1083 C 100.248 -1.92177 -2.91323 0
M  V30 1084 C 101.596 -2.19446 -3.63495 0
M  V30 1085 O 102.62 -1.89855 -3.01386 0
M  V30 1086 O 101.479 -2.69714 -4.75307 0
M  V30 1087 H 98.5727 -0.376854 -0.736146 0
M  V30 1088 H 101.119 -1.35745 -1.0184 0
M  V30 1089 H 99.8907 -2.91938 -2.60553 0
M  V30 1090 H 99.5137 -1.56349 -3.65569 0
M  V30 1091 N 100.511 1.16574 -1.06058 0
M  V30 1092 C 101.739 1.90952 -0.796552 0
M  V30 1093 C 102.154 1.77302 0.648808 0
M  V30 1094 O 101.511 1.11605 1.44397 0
M  V30 1095 C 101.562 3.41736 -1.17894 0
M  V30 1096 O 101.283 3.54975 -2.56758 0
M  V30 1097 C 102.784 4.33169 -0.942308 0
M  V30 1098 H 100.004 0.605594 -0.288959 0
M  V30 1099 H 102.548 1.47777 -1.41358 0
M  V30 1100 H 100.703 3.82623 -0.606491 0
M  V30 1101 H 101.117 4.4846 -2.72 0
M  V30 1102 H 102.591 5.37439 -1.25952 0
M  V30 1103 H 103.068 4.3903 0.122078 0
M  V30 1104 H 103.674 3.98007 -1.49902 0
M  V30 1105 N 101.989 0.842826 1.3317 0
M  V30 1106 C 102.899 0.281444 2.32906 0
M  V30 1107 C 103.915 -0.594587 1.63526 0
M  V30 1108 O 105.091 -0.49777 1.95152 0
M  V30 1109 C 102.156 -0.530929 3.42611 0
M  V30 1110 C 101.217 0.369843 4.27704 0
M  V30 1111 C 100.45 -0.403853 5.3217 0
M  V30 1112 O 100.673 -1.63513 5.46461 0
M  V30 1113 O 99.6069 0.224199 6.01482 0
M  V30 1114 H 103.433 1.10744 2.82789 0
M  V30 1115 H 101.018 0.60545 1.36582 0
M  V30 1116 H 102.9 -0.992437 4.09547 0
M  V30 1117 H 101.575 -1.33392 2.94938 0
M  V30 1118 H 100.482 0.879275 3.6362 0
M  V30 1119 H 101.815 1.13771 4.78871 0
M  V30 1120 N 103.467 -1.45747 0.599634 0
M  V30 1121 C 104.713 -2.02592 0.0918643 0
M  V30 1122 C 105.046 -1.46806 -1.27128 0
M  V30 1123 O 104.321 -0.639658 -1.83681 0
M  V30 1124 C 104.604 -3.60073 0.0443398 0
M  V30 1125 C 104.457 -4.26208 1.43759 0
M  V30 1126 C 105.776 -4.35309 -0.647608 0
M  V30 1127 H 102.895 -0.736175 0.034857 0
M  V30 1128 H 105.537 -1.73694 0.770081 0
M  V30 1129 H 103.687 -3.84823 -0.533224 0
M  V30 1130 H 105.359 -4.12668 2.06162 0
M  V30 1131 H 103.602 -3.84916 2.00056 0
M  V30 1132 H 104.273 -5.35069 1.35665 0
M  V30 1133 H 106.749 -4.15805 -0.156776 0
M  V30 1134 H 105.625 -5.45038 -0.649942 0
M  V30 1135 H 105.886 -4.07598 -1.71219 0
M  V30 1136 N 104.945 -0.338344 -1.53925 0
M  V30 1137 C 106.17 0.263987 -2.05713 0
M  V30 1138 C 106.595 1.43847 -1.21201 0
M  V30 1139 O 105.953 1.79904 -0.224535 0
M  V30 1140 C 106.001 0.662 -3.54471 0
M  V30 1141 O 105.105 1.76265 -3.72833 0
M  V30 1142 H 104.446 0.0448722 -0.662482 0
M  V30 1143 H 106.976 -0.491048 -1.9862 0
M  V30 1144 H 106.986 0.940594 -3.9701 0
M  V30 1145 H 105.661 -0.196937 -4.15433 0
M  V30 1146 H 104.238 1.48173 -3.42198 0
M  V30 1147 N 106.423 1.57458 -0.0668435 0
M  V30 1148 C 107.7 1.8469 0.644132 0
M  V30 1149 C 108.08 0.958343 1.88093 0
M  V30 1150 O 107.428 0.0233579 2.28488 0
M  V30 1151 C 107.638 3.34767 0.986509 0
M  V30 1152 C 108.986 4.02159 1.36212 0
M  V30 1153 O 110.01 3.39484 1.07839 0
M  V30 1154 O 108.869 5.12694 1.89227 0
M  V30 1155 H 105.963 0.762816 0.319437 0
M  V30 1156 H 108.509 1.6942 -0.0973986 0
M  V30 1157 H 107.281 3.91151 0.107883 0
M  V30 1158 H 106.904 3.55281 1.78497 0
M  V30 1159 N 107.901 -0.206675 1.56239 0
M  V30 1160 C 109.148 -0.928842 1.79941 0
M  V30 1161 C 109.476 -1.83734 0.638131 0
M  V30 1162 O 108.731 -1.92039 -0.376746 0
M  V30 1163 C 109.03 -1.78675 3.09532 0
M  V30 1164 C 108.696 -1.03022 4.38973 0
M  V30 1165 C 107.358 -0.821302 4.74139 0
M  V30 1166 C 109.71 -0.497081 5.18824 0
M  V30 1167 C 107.038 -0.0675719 5.86661 0
M  V30 1168 C 109.39 0.24338 6.32132 0
M  V30 1169 C 108.054 0.463422 6.65889 0
M  V30 1170 H 107.324 -0.339887 0.658451 0
M  V30 1171 H 109.971 -0.195977 1.90495 0
M  V30 1172 H 108.276 -2.58794 2.94165 0
M  V30 1173 H 109.973 -2.34792 3.25075 0
M  V30 1174 H 106.563 -1.20306 4.11369 0
M  V30 1175 H 110.747 -0.645921 4.92079 0
M  V30 1176 H 106.003 0.112995 6.11296 0
M  V30 1177 H 110.177 0.66393 6.93228 0
M  V30 1178 H 107.804 1.04938 7.52922 0
M  V30 1179 N 109.379 -1.50304 -0.473955 0
M  V30 1180 C 110.626 -1.6115 -1.22625 0
M  V30 1181 C 110.954 -0.310517 -1.92005 0
M  V30 1182 O 110.209 0.703419 -1.82621 0
M  V30 1183 C 110.508 -2.73938 -2.29549 0
M  V30 1184 C 110.174 -4.14519 -1.7744 0
M  V30 1185 C 108.836 -4.5277 -1.62949 0
M  V30 1186 C 111.188 -5.02392 -1.3875 0
M  V30 1187 C 108.516 -5.76639 -1.08187 0
M  V30 1188 C 110.868 -6.26805 -0.854309 0
M  V30 1189 C 109.532 -6.63861 -0.696011 0
M  V30 1190 H 108.802 -0.589691 -0.448715 0
M  V30 1191 H 111.449 -1.84228 -0.522705 0
M  V30 1192 H 109.754 -2.44937 -3.05799 0
M  V30 1193 H 111.451 -2.79534 -2.87509 0
M  V30 1194 H 108.041 -3.8434 -1.89685 0
M  V30 1195 H 112.225 -4.73474 -1.4878 0
M  V30 1196 H 107.481 -6.04027 -0.946666 0
M  V30 1197 H 111.655 -6.94258 -0.545843 0
M  V30 1198 H 109.282 -7.59722 -0.26952 0
M  V30 1199 N 110.857 0.726932 -1.39834 0
M  V30 1200 C 112.106 1.48214 -1.36805 0
M  V30 1201 C 112.419 1.95576 0.0305291 0
M  V30 1202 O 113.625 2.7088 0.183417 0
M  V30 1203 C 112.081 2.67854 -2.40379 0
M  V30 1204 C 111.689 2.27408 -3.85992 0
M  V30 1205 C 113.433 3.45641 -2.46439 0
M  V30 1206 C 111.34 3.43819 -4.81189 0
M  V30 1207 H 110.27 0.556606 -0.508631 0
M  V30 1208 H 112.921 0.792216 -1.65518 0
M  V30 1209 H 111.303 3.3896 -2.04749 0
M  V30 1210 H 112.477 1.63795 -4.30706 0
M  V30 1211 H 110.792 1.62692 -3.83302 0
M  V30 1212 H 113.389 4.32244 -3.14753 0
M  V30 1213 H 113.732 3.88669 -1.49139 0
M  V30 1214 H 114.265 2.8157 -2.81004 0
M  V30 1215 H 111.004 3.05834 -5.79781 0
M  V30 1216 H 110.524 4.06385 -4.41148 0
M  V30 1217 H 112.203 4.10043 -5.00474 0
M  V30 1218 N 112.336 1.25143 0.95797 0
M  V30 1219 C 113.283 1.05235 2.05412 0
M  V30 1220 C 114.253 -0.0374561 1.66058 0
M  V30 1221 O 115.438 0.119073 1.90428 0
M  V30 1222 C 112.578 0.673589 3.38462 0
M  V30 1223 C 111.691 1.8379 3.90954 0
M  V30 1224 C 110.826 1.40381 5.12315 0
M  V30 1225 C 109.865 2.53746 5.57027 0
M  V30 1226 N 109.002 2.11136 6.69601 0
M  V30 1227 H 113.842 1.99048 2.21774 0
M  V30 1228 H 111.379 0.991277 1.08683 0
M  V30 1229 H 113.337 0.434964 4.14926 0
M  V30 1230 H 111.967 -0.227554 3.21997 0
M  V30 1231 H 111.019 2.18992 3.11041 0
M  V30 1232 H 112.331 2.68937 4.20089 0
M  V30 1233 H 111.485 1.12464 5.96185 0
M  V30 1234 H 110.224 0.523015 4.84887 0
M  V30 1235 H 109.229 2.82412 4.71724 0
M  V30 1236 H 110.454 3.42398 5.86464 0
M  V30 1237 H 108.4 1.25468 6.4389 0
M  V30 1238 H 108.317 2.89832 6.98236 0
M  V30 1239 H 109.585 1.86385 7.56889 0
M  V30 1240 N 113.814 -1.1601 1.06675 0
M  V30 1241 C 115.06 -1.86909 0.786945 0
M  V30 1242 C 115.393 -1.81717 -0.685018 0
M  V30 1243 O 114.668 -1.23551 -1.50218 0
M  V30 1244 C 114.951 -3.36313 1.28707 0
M  V30 1245 C 114.804 -3.50175 2.82308 0
M  V30 1246 C 116.123 -4.3084 0.898071 0
M  V30 1247 H 113.242 -0.678677 0.287343 0
M  V30 1248 H 115.884 -1.36336 1.32334 0
M  V30 1249 H 114.034 -3.79513 0.830768 0
M  V30 1250 H 115.706 -3.15886 3.36175 0
M  V30 1251 H 113.949 -2.91959 3.20847 0
M  V30 1252 H 114.62 -4.55116 3.12368 0
M  V30 1253 H 117.096 -3.95561 1.29114 0
M  V30 1254 H 115.972 -5.33876 1.27543 0
M  V30 1255 H 116.233 -4.41662 -0.196651 0
M  V30 1256 N 115.292 -0.849877 -1.32721 0
M  V30 1257 C 116.569 -0.372405 -1.92022 0
M  V30 1258 C 116.949 1.1435 -1.77447 0
M  V30 1259 O 116.297 1.96296 -1.16962 0
M  V30 1260 C 116.507 -0.831482 -3.3895 0
M  V30 1261 C 117.855 -0.845882 -4.16089 0
M  V30 1262 O 118.879 -0.775806 -3.47649 0
M  V30 1263 O 117.738 -0.943753 -5.38289 0
M  V30 1264 H 114.832 -0.107667 -0.819961 0
M  V30 1265 H 117.378 -0.93646 -1.41522 0
M  V30 1266 H 116.15 -1.87448 -3.4348 0
M  V30 1267 H 115.773 -0.24461 -3.96847 0
M  V30 1268 N 116.77 1.45427 -0.607355 0
M  V30 1269 C 117.72 2.27612 0.133038 0
M  V30 1270 C 118.704 1.37307 0.838785 0
M  V30 1271 O 119.896 1.61299 0.728813 0
M  V30 1272 C 117.025 3.24173 1.12991 0
M  V30 1273 C 116.111 4.21965 0.425011 0
M  V30 1274 N 116.502 5.02982 -0.533217 0
M  V30 1275 C 114.8 4.40899 0.672593 0
M  V30 1276 C 115.501 5.73931 -0.947518 0
M  V30 1277 N 114.477 5.42819 -0.291321 0
M  V30 1278 H 118.279 2.87649 -0.602935 0
M  V30 1279 H 115.793 1.56576 -0.431006 0
M  V30 1280 H 117.79 3.81783 1.67473 0
M  V30 1281 H 116.45 2.65696 1.86644 0
M  V30 1282 H 117.461 5.09843 -0.90995 0
M  V30 1283 H 114.138 3.93547 1.39382 0
M  V30 1284 H 115.528 6.49037 -1.73782 0
M  V30 1285 N 118.248 0.346503 1.53744 0
M  V30 1286 C 119.473 -0.253074 2.0585 0
M  V30 1287 C 119.898 -1.43202 1.21962 0
M  V30 1288 O 119.256 -1.79783 0.234073 0
M  V30 1289 C 119.304 -0.643193 3.54817 0
M  V30 1290 O 118.408 -1.74286 3.73762 0
M  V30 1291 H 117.749 -0.0413583 0.662711 0
M  V30 1292 H 120.279 0.501574 1.98357 0
M  V30 1293 H 120.289 -0.919526 3.97503 0
M  V30 1294 H 118.964 0.218966 4.15323 0
M  V30 1295 H 117.541 -1.46356 3.42979 0
M  V30 1296 N 119.726 -1.57421 0.075193 0
M  V30 1297 C 120.954 -1.97946 -0.602076 0
M  V30 1298 C 121.369 -0.953674 -1.62943 0
M  V30 1299 O 120.726 0.0592551 -1.82404 0
M  V30 1300 C 120.777 -3.38546 -1.26762 0
M  V30 1301 O 120.498 -4.37195 -0.281376 0
M  V30 1302 C 121.999 -3.93966 -2.03239 0
M  V30 1303 H 119.219 -0.650918 -0.162931 0
M  V30 1304 H 121.763 -2.03959 0.148601 0
M  V30 1305 H 119.918 -3.33609 -1.96936 0
M  V30 1306 H 120.332 -5.18975 -0.759267 0
M  V30 1307 H 121.806 -4.94555 -2.45193 0
M  V30 1308 H 122.283 -3.30693 -2.8903 0
M  V30 1309 H 122.889 -4.02315 -1.37924 0
M  V30 1310 N 121.204 0.198386 -1.56346 0
M  V30 1311 C 122.444 0.92609 -1.82217 0
M  V30 1312 C 122.808 1.80584 -0.652195 0
M  V30 1313 O 124.009 2.56907 -0.790716 0
M  V30 1314 C 122.28 1.72354 -3.13096 0
M  V30 1315 S 123.839 2.50371 -3.6036 0
M  V30 1316 H 120.657 0.310677 -0.639532 0
M  V30 1317 H 123.259 0.189755 -1.94577 0
M  V30 1318 H 121.963 1.0678 -3.96265 0
M  V30 1319 H 121.494 2.50175 -3.03605 0
M  V30 1320 H 123.509 3.74488 -3.25535 0
M  V30 1321 N 122.682 1.50554 0.465978 0
M  V30 1322 C 123.912 1.65323 1.23903 0
M  V30 1323 C 124.32 0.338051 1.86155 0
M  V30 1324 O 123.663 -0.690518 1.70228 0
M  V30 1325 C 123.725 2.69048 2.3844 0
M  V30 1326 C 123.389 4.12462 1.96784 0
M  V30 1327 C 124.386 4.98168 1.48745 0
M  V30 1328 C 122.071 4.58407 2.05349 0
M  V30 1329 C 124.065 6.27868 1.0982 0
M  V30 1330 C 121.752 5.88112 1.66035 0
M  V30 1331 C 122.75 6.72668 1.18349 0
M  V30 1332 O 122.438 7.99951 0.795825 0
M  V30 1333 H 122.17 0.558629 0.38067 0
M  V30 1334 H 124.724 1.97561 0.562022 0
M  V30 1335 H 122.954 2.32062 3.09328 0
M  V30 1336 H 124.643 2.72985 3.0039 0
M  V30 1337 H 125.409 4.63885 1.41546 0
M  V30 1338 H 121.288 3.92735 2.41414 0
M  V30 1339 H 124.832 6.93819 0.725293 0
M  V30 1340 H 120.729 6.21914 1.72895 0
M  V30 1341 H 121.497 8.13265 0.924222 0
M  V30 1342 N 124.16 -0.719506 1.40217 0
M  V30 1343 C 125.09 -1.8465 1.42922 0
M  V30 1344 C 126.071 -1.67599 0.29062 0
M  V30 1345 O 127.256 -1.87688 0.498677 0
M  V30 1346 C 124.386 -3.22565 1.28722 0
M  V30 1347 C 123.34 -3.54281 2.40144 0
M  V30 1348 C 122.666 -4.91298 2.11023 0
M  V30 1349 C 123.966 -3.55676 3.82481 0
M  V30 1350 H 125.66 -1.82644 2.37237 0
M  V30 1351 H 123.206 -0.877305 1.1419 0
M  V30 1352 H 125.159 -4.01095 1.29232 0
M  V30 1353 H 123.883 -3.25137 0.308811 0
M  V30 1354 H 122.542 -2.78088 2.38877 0
M  V30 1355 H 122.19 -4.90468 1.11582 0
M  V30 1356 H 121.89 -5.13485 2.8567 0
M  V30 1357 H 123.414 -5.72166 2.13209 0
M  V30 1358 H 124.828 -4.24254 3.85592 0
M  V30 1359 H 123.225 -3.89388 4.56614 0
M  V30 1360 H 124.295 -2.55144 4.12346 0
M  V30 1361 N 125.638 -1.25649 -0.95132 0
M  V30 1362 C 126.548 -1.08073 -2.08224 0
M  V30 1363 C 127.564 -0.0169666 -1.73992 0
M  V30 1364 O 128.74 -0.218593 -2.0021 0
M  V30 1365 C 125.805 -0.704922 -3.39458 0
M  V30 1366 C 124.866 -1.84699 -3.87537 0
M  V30 1367 C 124.099 -1.48902 -5.12508 0
M  V30 1368 O 124.322 -0.386156 -5.69091 0
M  V30 1369 O 123.256 -2.32033 -5.55378 0
M  V30 1370 H 127.082 -2.02924 -2.25954 0
M  V30 1371 H 124.667 -1.04618 -1.06656 0
M  V30 1372 H 126.549 -0.507609 -4.18332 0
M  V30 1373 H 125.224 0.214291 -3.2299 0
M  V30 1374 H 124.131 -2.09919 -3.09653 0
M  V30 1375 H 125.464 -2.74557 -4.08509 0
M  V30 1376 N 127.117 1.15442 -1.07289 0
M  V30 1377 C 128.027 2.23786 -0.704057 0
M  V30 1378 C 129.043 1.7166 0.284413 0
M  V30 1379 O 130.219 2.00972 0.131205 0
M  V30 1380 C 127.284 3.46535 -0.106792 0
M  V30 1381 C 126.345 4.13654 -1.14842 0
M  V30 1382 C 125.578 5.30544 -0.57956 0
M  V30 1383 O 125.801 5.67187 0.604585 0
M  V30 1384 O 124.735 5.87154 -1.32414 0
M  V30 1385 H 128.561 2.57664 -1.60757 0
M  V30 1386 H 126.146 1.23152 -0.845803 0
M  V30 1387 H 128.028 4.20804 0.224048 0
M  V30 1388 H 126.703 3.14407 0.770049 0
M  V30 1389 H 125.61 3.4131 -1.5316 0
M  V30 1390 H 126.943 4.49861 -1.99714 0
M  V30 1391 N 128.595 0.856903 1.32268 0
M  V30 1392 C 129.835 0.467705 1.98977 0
M  V30 1393 C 130.199 -0.959231 1.66321 0
M  V30 1394 O 131.4 -1.4531 2.26138 0
M  V30 1395 C 129.671 0.70256 3.50427 0
M  V30 1396 S 131.23 0.411269 4.36868 0
M  V30 1397 H 128.048 0.175121 0.689096 0
M  V30 1398 H 130.65 1.1101 1.60925 0
M  V30 1399 H 129.354 1.74012 3.71683 0
M  V30 1400 H 128.885 0.0466707 3.93372 0
M  V30 1401 H 130.9 -0.761799 4.90317 0
M  V30 1402 N 130.073 -1.45103 0.615059 0
M  V30 1403 C 131.35 -1.95549 0.0448276 0
M  V30 1404 C 131.73 -1.55737 -1.4251 0
M  V30 1405 O 131.078 -0.823556 -2.13143 0
M  V30 1406 C 131.288 -3.48098 0.250785 0
M  V30 1407 C 132.636 -4.24384 0.135509 0
M  V30 1408 O 133.66 -3.55738 0.181299 0
M  V30 1409 O 132.519 -5.46493 0.0268878 0
M  V30 1410 H 129.613 -0.8264 -0.0314845 0
M  V30 1411 H 132.159 -1.55232 0.685642 0
M  V30 1412 H 130.931 -3.7007 1.27139 0
M  V30 1413 H 130.554 -3.95323 -0.424937 0
M  V30 1414 N 131.551 -0.354651 -1.53558 0
M  V30 1415 C 132.799 0.237972 -2.00694 0
M  V30 1416 C 133.12 1.50173 -1.24391 0
M  V30 1417 O 132.39 1.92673 -0.354135 0
M  V30 1418 H 130.97 0.0909256 -0.741446 0
M  V30 1419 H 133.632 -0.478368 -1.88938 0
M  V30 1420 H 132.728 0.47264 -3.085 0
M  V30 1421 N 133.029 1.57378 -0.0835403 0
M  V30 1422 C 133.976 2.13384 0.879539 0
M  V30 1423 C 134.946 1.04936 1.28754 0
M  V30 1424 O 136.131 1.32662 1.37133 0
M  V30 1425 C 133.271 2.70932 2.13752 0
M  V30 1426 C 132.384 3.93575 1.7811 0
M  V30 1427 C 131.519 4.39326 2.98607 0
M  V30 1428 C 130.558 5.54587 2.59037 0
M  V30 1429 N 129.695 5.95243 3.72331 0
M  V30 1430 H 134.535 2.9537 0.395076 0
M  V30 1431 H 132.072 1.45953 0.183349 0
M  V30 1432 H 134.03 3.02411 2.87408 0
M  V30 1433 H 132.66 1.91693 2.59718 0
M  V30 1434 H 131.712 3.68483 0.94469 0
M  V30 1435 H 133.024 4.77258 1.45005 0
M  V30 1436 H 132.178 4.72528 3.80529 0
M  V30 1437 H 130.917 3.5452 3.34913 0
M  V30 1438 H 129.922 5.21024 1.75539 0
M  V30 1439 H 131.147 6.41133 2.23887 0
M  V30 1440 H 129.093 5.13385 4.08378 0
M  V30 1441 H 129.01 6.73694 3.43034 0
M  V30 1442 H 130.278 6.33072 4.54797 0
M  V30 1443 N 134.507 -0.190092 1.56449 0
M  V30 1444 C 135.455 -1.25501 1.95837 0
M  V30 1445 C 136.449 -1.4685 0.844485 0
M  V30 1446 O 137.655 -1.47651 1.02952 0
M  V30 1447 H 134.03 -0.421447 0.622805 0
M  V30 1448 H 136.001 -0.895821 2.84636 0
M  V30 1449 C 134.75 -2.59124 2.31841 0
M  V30 1450 H 134.073 -2.43514 3.17082 0
M  V30 1451 H 135.513 -3.32371 2.6326 0
M  V30 1452 C 133.972 -3.16488 1.15486 0
M  V30 1453 O 134.502 -3.99365 0.432535 0
M  V30 1454 N 132.708 -2.75305 0.930349 0
M  V30 1455 H 132.255 -2.08013 1.51948 0
M  V30 1456 H 132.213 -3.14024 0.153634 0
M  V30 1457 N 135.985 -1.50799 -0.457987 0
M  V30 1458 C 137.234 -1.6168 -1.20593 0
M  V30 1459 C 137.547 -0.32888 -1.92815 0
M  V30 1460 O 138.753 -0.316773 -2.69646 0
M  V30 1461 C 137.209 -2.8545 -2.19195 0
M  V30 1462 C 136.817 -4.21168 -1.52715 0
M  V30 1463 C 138.561 -3.05681 -2.94549 0
M  V30 1464 C 136.468 -5.3611 -2.4968 0
M  V30 1465 H 135.398 -0.602134 -0.453818 0
M  V30 1466 H 138.049 -1.77245 -0.475031 0
M  V30 1467 H 136.431 -2.63472 -2.95632 0
M  V30 1468 H 137.605 -4.53449 -0.819775 0
M  V30 1469 H 135.92 -4.06648 -0.895922 0
M  V30 1470 H 138.517 -3.88727 -3.67145 0
M  V30 1471 H 138.86 -2.17929 -3.54701 0
M  V30 1472 H 139.393 -3.27901 -2.25223 0
M  V30 1473 H 136.132 -6.26057 -1.94249 0
M  V30 1474 H 135.652 -5.0823 -3.18532 0
M  V30 1475 H 137.331 -5.6722 -3.11241 0
M  V30 1476 N 137.463 0.71206 -1.40597 0
M  V30 1477 C 138.393 1.83889 -1.43899 0
M  V30 1478 C 139.374 1.67442 -0.299504 0
M  V30 1479 O 140.559 1.87421 -0.508624 0
M  V30 1480 C 137.689 3.21877 -1.30431 0
M  V30 1481 C 136.643 3.53002 -2.42019 0
M  V30 1482 C 135.969 4.90172 -2.13626 0
M  V30 1483 C 137.269 3.53643 -3.84362 0
M  V30 1484 H 138.963 1.81383 -2.38203 0
M  V30 1485 H 136.509 0.871237 -1.14654 0
M  V30 1486 H 138.462 4.00404 -1.31357 0
M  V30 1487 H 137.186 3.24968 -0.326049 0
M  V30 1488 H 135.845 2.76818 -2.40349 0
M  V30 1489 H 135.493 4.89869 -1.14182 0
M  V30 1490 H 135.193 5.11962 -2.88389 0
M  V30 1491 H 136.717 5.71028 -2.1624 0
M  V30 1492 H 138.131 4.22203 -3.87837 0
M  V30 1493 H 136.528 3.86961 -4.58673 0
M  V30 1494 H 137.598 2.52954 -4.13693 0
M  V30 1495 N 138.941 1.26152 0.944643 0
M  V30 1496 C 139.889 1.07215 2.06417 0
M  V30 1497 C 140.883 9.2007e-05 1.694 0
M  V30 1498 O 142.089 0.1565 1.79318 0
M  V30 1499 H 138.464 0.329837 0.675805 0
M  V30 1500 H 140.435 2.02099 2.19541 0
M  V30 1501 C 139.184 0.718197 3.40202 0
M  V30 1502 H 138.507 1.53497 3.69159 0
M  V30 1503 H 139.947 0.625459 4.19361 0
M  V30 1504 C 138.406 -0.576435 3.31932 0
M  V30 1505 O 138.936 -1.61574 3.67773 0
M  V30 1506 N 137.142 -0.565781 2.85039 0
M  V30 1507 H 136.689 0.280367 2.5607 0
M  V30 1508 H 136.647 -1.43213 2.79888 0
M  V30 1509 N 140.419 -1.14872 1.07899 0
M  V30 1510 C 141.668 -1.85135 0.800499 0
M  V30 1511 C 141.981 -1.83547 -0.676014 0
M  V30 1512 O 143.187 -2.49548 -1.06948 0
M  V30 1513 C 141.643 -3.3231 1.38197 0
M  V30 1514 C 141.251 -3.42329 2.8899 0
M  V30 1515 C 142.995 -4.0772 1.18174 0
M  V30 1516 C 140.902 -4.83684 3.403 0
M  V30 1517 H 139.832 -0.693563 0.29578 0
M  V30 1518 H 142.483 -1.29532 1.29976 0
M  V30 1519 H 140.865 -3.87618 0.810431 0
M  V30 1520 H 142.039 -2.97097 3.52236 0
M  V30 1521 H 140.354 -2.80369 3.07867 0
M  V30 1522 H 142.951 -5.12049 1.5398 0
M  V30 1523 H 143.294 -4.16124 0.12117 0
M  V30 1524 H 143.827 -3.58696 1.71994 0
M  V30 1525 H 140.566 -4.80465 4.45907 0
M  V30 1526 H 140.086 -5.29474 2.81811 0
M  V30 1527 H 141.765 -5.52558 3.36584 0
M  V30 1528 N 141.898 -0.863906 -1.31812 0
M  V30 1529 C 142.831 -0.259963 -2.26714 0
M  V30 1530 C 143.809 0.607392 -1.50829 0
M  V30 1531 O 144.993 0.562155 -1.79922 0
M  V30 1532 C 142.12 0.632456 -3.32743 0
M  V30 1533 C 141.166 -0.162743 -4.26189 0
M  V30 1534 S 141.999 -1.53726 -5.12961 0
M  V30 1535 C 143.155 -0.650803 -6.22507 0
M  V30 1536 H 143.388 -1.06445 -2.77591 0
M  V30 1537 H 140.921 -0.662071 -1.39485 0
M  V30 1538 H 142.879 1.14167 -3.94305 0
M  V30 1539 H 141.54 1.41083 -2.80632 0
M  V30 1540 H 140.733 0.517366 -5.01338 0
M  V30 1541 H 140.335 -0.60385 -3.69093 0
M  V30 1542 H 142.627 0.141134 -6.77353 0
M  V30 1543 H 143.57 -1.37322 -6.94657 0
M  V30 1544 H 143.978 -0.221041 -5.64067 0
M  V30 1545 N 143.376 1.44774 -0.622745 0
M  V30 1546 C 144.616 2.04004 -0.127102 0
M  V30 1547 C 144.98 1.47862 1.22478 0
M  V30 1548 O 146.181 1.98541 1.81204 0
M  V30 1549 C 144.452 3.57247 -0.104429 0
M  V30 1550 S 146.011 4.37574 0.327814 0
M  V30 1551 H 142.829 0.708713 -0.0569776 0
M  V30 1552 H 145.431 1.77275 -0.824253 0
M  V30 1553 H 144.135 3.95616 -1.09159 0
M  V30 1554 H 143.666 3.88575 0.614236 0
M  V30 1555 H 145.681 4.70575 1.57395 0
M  V30 1556 N 144.854 0.36279 1.53368 0
M  V30 1557 C 146.131 -0.284021 1.93527 0
M  V30 1558 C 146.511 -1.66628 1.29608 0
M  V30 1559 O 145.859 -2.23942 0.45413 0
M  V30 1560 C 146.069 -0.337028 3.47369 0
M  V30 1561 C 147.417 -0.578708 4.20638 0
M  V30 1562 O 148.441 -0.418352 3.53735 0
M  V30 1563 O 147.3 -0.89074 5.39192 0
M  V30 1564 H 144.394 -0.169743 0.809393 0
M  V30 1565 H 146.94 0.41537 1.64538 0
M  V30 1566 H 145.712 0.632217 3.86159 0
M  V30 1567 H 145.335 -1.08243 3.82582 0
M  V30 1568 N 146.332 -1.57332 0.0918853 0
M  V30 1569 C 147.581 -1.93412 -0.572249 0
M  V30 1570 C 147.894 -0.975515 -1.69538 0
M  V30 1571 O 149.1 -1.22991 -2.42045 0
M  V30 1572 C 147.556 -3.43648 -1.0693 0
M  V30 1573 C 147.164 -4.47994 0.0239049 0
M  V30 1574 C 148.908 -3.88695 -1.70635 0
M  V30 1575 C 146.815 -5.89381 -0.488319 0
M  V30 1576 H 145.745 -0.721939 -0.217532 0
M  V30 1577 H 148.396 -1.82735 0.167369 0
M  V30 1578 H 146.778 -3.49466 -1.8625 0
M  V30 1579 H 147.952 -4.53815 0.799277 0
M  V30 1580 H 146.267 -4.12536 0.565946 0
M  V30 1581 H 148.864 -4.91725 -2.10025 0
M  V30 1582 H 149.207 -3.27166 -2.57426 0
M  V30 1583 H 149.74 -3.85564 -0.979023 0
M  V30 1584 H 146.479 -6.54602 0.342906 0
M  V30 1585 H 145.999 -5.87037 -1.23077 0
M  V30 1586 H 147.678 -6.39863 -0.958317 0
M  V30 1587 N 147.81 0.181792 -1.56548 0
M  V30 1588 C 148.757 1.22521 -1.95595 0
M  V30 1589 C 149.727 1.4454 -0.818373 0
M  V30 1590 O 150.912 1.57454 -1.07763 0
M  V30 1591 C 148.052 2.56193 -2.31212 0
M  V30 1592 C 147.165 2.41641 -3.58097 0
M  V30 1593 C 146.3 3.68108 -3.82975 0
M  V30 1594 C 145.339 3.48445 -5.03242 0
M  V30 1595 N 144.476 4.66956 -5.24306 0
M  V30 1596 H 149.316 0.885226 -2.84548 0
M  V30 1597 H 146.853 0.425718 -1.40805 0
M  V30 1598 H 148.811 3.34088 -2.49882 0
M  V30 1599 H 147.441 2.88208 -1.45382 0
M  V30 1600 H 146.493 1.54976 -3.474 0
M  V30 1601 H 147.805 2.23052 -4.46149 0
M  V30 1602 H 146.959 4.54441 -4.01956 0
M  V30 1603 H 145.698 3.89666 -2.93278 0
M  V30 1604 H 144.703 2.60499 -4.8417 0
M  V30 1605 H 145.928 3.2832 -5.9446 0
M  V30 1606 H 143.874 4.88752 -4.37559 0
M  V30 1607 H 143.791 4.51242 -6.06561 0
M  V30 1608 H 145.059 5.54602 -5.47756 0
M  V30 1609 N 149.288 1.51039 0.449983 0
M  V30 1610 C 150.704 1.38934 0.785462 0
M  V30 1611 C 150.904 0.461817 1.96136 0
M  V30 1612 O 149.96 -0.0877389 2.52348 0
M  V30 1613 C 151.273 2.80724 1.0777 0
M  V30 1614 C 152.821 2.89787 1.1829 0
M  V30 1615 C 153.296 4.32457 1.50815 0
M  V30 1616 N 154.787 4.35505 1.57764 0
M  V30 1617 C 155.522 5.42914 1.84477 0
M  V30 1618 N 155.018 6.60502 2.09068 0
M  V30 1619 N 156.811 5.3038 1.86155 0
M  V30 1620 H 148.962 2.09904 -0.324647 0
M  V30 1621 H 151.225 0.944378 -0.0827957 0
M  V30 1622 H 150.931 3.50531 0.286498 0
M  V30 1623 H 150.805 3.19273 2.00859 0
M  V30 1624 H 153.192 2.20186 1.96474 0
M  V30 1625 H 153.273 2.54752 0.231314 0
M  V30 1626 H 152.917 5.02603 0.731622 0
M  V30 1627 H 152.847 4.64995 2.47158 0
M  V30 1628 H 155.338 3.50724 1.40715 0
M  V30 1629 H 155.651 7.38158 2.28785 0
M  V30 1630 H 153.996 6.63639 2.06416 0
M  V30 1631 H 157.187 4.37505 1.66454 0
M  V30 1632 H 157.36 6.1417 2.06637 0
M  V30 1633 N 150.766 -0.704594 1.40972 0
M  V30 1634 C 151.996 -1.49138 1.42974 0
M  V30 1635 C 152.404 -1.89175 0.0308406 0
M  V30 1636 O 151.747 -1.56734 -0.958138 0
M  V30 1637 C 151.809 -2.79016 2.26694 0
M  V30 1638 C 151.473 -2.61236 3.74973 0
M  V30 1639 C 152.47 -2.27773 4.67349 0
M  V30 1640 C 150.155 -2.77158 4.18914 0
M  V30 1641 C 152.149 -2.10457 6.01653 0
M  V30 1642 C 149.836 -2.59459 5.53285 0
M  V30 1643 C 150.834 -2.26158 6.4447 0
M  V30 1644 O 150.522 -2.08605 7.76363 0
M  V30 1645 H 150.254 -0.466443 0.489292 0
M  V30 1646 H 152.808 -0.8758 1.85793 0
M  V30 1647 H 151.038 -3.42947 1.78673 0
M  V30 1648 H 152.727 -3.40782 2.20504 0
M  V30 1649 H 153.493 -2.15095 4.34694 0
M  V30 1650 H 149.372 -3.02064 3.48251 0
M  V30 1651 H 152.916 -1.84387 6.72791 0
M  V30 1652 H 148.813 -2.71725 5.85522 0
M  V30 1653 H 149.581 -2.23439 7.87412 0
M  V30 1654 N 152.244 -1.26651 -0.937939 0
M  V30 1655 C 153.192 -1.08308 -2.05845 0
M  V30 1656 C 154.186 -0.0090757 -1.69398 0
M  V30 1657 O 155.392 -0.166007 -1.79233 0
M  V30 1658 H 151.767 -0.333416 -0.674046 0
M  V30 1659 H 153.738 -2.03261 -2.18467 0
M  V30 1660 C 152.487 -0.736229 -3.39816 0
M  V30 1661 H 151.81 -1.55453 -3.6834 0
M  V30 1662 H 153.25 -0.64769 -4.19024 0
M  V30 1663 C 151.709 0.558824 -3.32233 0
M  V30 1664 O 152.239 1.59621 -3.68624 0
M  V30 1665 N 150.445 0.550657 -2.85335 0
M  V30 1666 H 149.992 -0.293943 -2.55917 0
M  V30 1667 H 149.95 1.41726 -2.80644 0
M  V30 1668 N 153.722 1.14298 -1.08507 0
M  V30 1669 C 154.97 1.84993 -0.813763 0
M  V30 1670 C 155.291 1.83405 0.662393 0
M  V30 1671 O 154.561 1.28319 1.48024 0
M  V30 1672 H 153.141 0.684966 -0.298045 0
M  V30 1673 H 155.803 1.385 -1.37126 0
M  V30 1674 H 154.899 2.89788 -1.15884 0
M  V30 1675 N 155.201 0.870884 1.31352 0
M  V30 1676 C 156.448 0.482273 1.96673 0
M  V30 1677 C 156.776 -0.965638 1.68836 0
M  V30 1678 O 156.031 -1.69514 0.977937 0
M  V30 1679 C 156.33 0.687157 3.50732 0
M  V30 1680 C 155.996 2.108 3.9859 0
M  V30 1681 C 154.658 2.49656 4.1137 0
M  V30 1682 C 157.01 3.03459 4.23748 0
M  V30 1683 C 154.338 3.80412 4.46659 0
M  V30 1684 C 156.69 4.3373 4.60501 0
M  V30 1685 C 155.354 4.725 4.71487 0
M  V30 1686 H 154.624 0.176476 0.719679 0
M  V30 1687 H 157.271 1.10405 1.56471 0
M  V30 1688 H 155.576 -0.0177476 3.91796 0
M  V30 1689 H 157.273 0.366284 3.99324 0
M  V30 1690 H 153.863 1.79633 3.8914 0
M  V30 1691 H 158.047 2.74665 4.13368 0
M  V30 1692 H 153.303 4.1021 4.53362 0
M  V30 1693 H 157.477 5.05578 4.78919 0
M  V30 1694 H 155.104 5.73859 4.98588 0
M  V30 1695 N 156.679 -1.44442 0.630414 0
M  V30 1696 C 157.956 -1.9549 0.0655657 0
M  V30 1697 C 158.336 -1.5724 -1.40851 0
M  V30 1698 O 157.684 -0.846116 -2.12257 0
M  V30 1699 C 157.894 -3.47812 0.287691 0
M  V30 1700 C 159.242 -4.24216 0.180513 0
M  V30 1701 O 160.266 -3.55526 0.219019 0
M  V30 1702 O 159.125 -5.46434 0.0848493 0
M  V30 1703 H 156.219 -0.826688 -0.0227177 0
M  V30 1704 H 158.765 -1.54496 0.702068 0
M  V30 1705 H 157.537 -3.687 1.31056 0
M  V30 1706 H 157.16 -3.95751 -0.382984 0
M  V30 1707 N 158.157 -0.370918 -1.53173 0
M  V30 1708 C 159.387 0.217389 -2.05453 0
M  V30 1709 C 159.795 1.42568 -1.24382 0
M  V30 1710 O 159.138 1.81571 -0.278839 0
M  V30 1711 C 159.2 0.669827 -3.53205 0
M  V30 1712 C 158.864 -0.4225 -4.55043 0
M  V30 1713 C 159.861 -1.27407 -5.04047 0
M  V30 1714 C 157.546 -0.58427 -4.9889 0
M  V30 1715 C 159.54 -2.27271 -5.95505 0
M  V30 1716 C 157.227 -1.58627 -5.90153 0
M  V30 1717 C 158.225 -2.42892 -6.38351 0
M  V30 1718 O 157.913 -3.41382 -7.27814 0
M  V30 1719 H 157.645 0.0408171 -0.674767 0
M  V30 1720 H 160.199 -0.5292 -1.98466 0
M  V30 1721 H 158.429 1.4681 -3.57748 0
M  V30 1722 H 160.118 1.18173 -3.88317 0
M  V30 1723 H 160.884 -1.16031 -4.70916 0
M  V30 1724 H 156.763 0.061851 -4.60959 0
M  V30 1725 H 160.307 -2.93079 -6.33049 0
M  V30 1726 H 156.204 -1.70048 -6.22699 0
M  V30 1727 H 156.972 -3.37173 -7.45826 0
M  V30 1728 N 159.635 1.57281 -0.100228 0
M  V30 1729 C 160.865 1.98591 0.569681 0
M  V30 1730 C 161.273 0.978315 1.61943 0
M  V30 1731 O 160.616 -0.0396108 1.83657 0
M  V30 1732 C 160.678 3.36282 1.271 0
M  V30 1733 C 160.342 4.55488 0.371409 0
M  V30 1734 C 161.339 5.18491 -0.382504 0
M  V30 1735 C 159.024 5.01474 0.287965 0
M  V30 1736 C 161.018 6.25852 -1.20779 0
M  V30 1737 C 158.705 6.08701 -0.540965 0
M  V30 1738 C 159.703 6.70755 -1.28749 0
M  V30 1739 O 159.391 7.75914 -2.10269 0
M  V30 1740 H 159.123 0.65752 0.156982 0
M  V30 1741 H 161.677 2.0463 -0.177734 0
M  V30 1742 H 159.907 3.26941 2.0651 0
M  V30 1743 H 161.596 3.62005 1.83595 0
M  V30 1744 H 162.362 4.83891 -0.3278 0
M  V30 1745 H 158.241 4.52932 0.858689 0
M  V30 1746 H 161.785 6.74218 -1.79096 0
M  V30 1747 H 157.682 6.42732 -0.597131 0
M  V30 1748 H 158.45 7.92925 -2.03007 0
M  V30 1749 N 161.113 -0.173488 1.56642 0
M  V30 1750 C 162.06 -1.21482 1.96242 0
M  V30 1751 C 163.03 -1.44104 0.826027 0
M  V30 1752 O 164.215 -1.5688 1.08597 0
M  V30 1753 C 161.355 -2.54964 2.32567 0
M  V30 1754 C 160.468 -2.39739 3.59373 0
M  V30 1755 C 159.603 -3.66072 3.84921 0
M  V30 1756 C 158.642 -3.45771 5.05083 0
M  V30 1757 N 157.779 -4.64169 5.26775 0
M  V30 1758 H 162.619 -0.870123 2.85014 0
M  V30 1759 H 160.156 -0.418245 1.41029 0
M  V30 1760 H 162.114 -3.32758 2.5165 0
M  V30 1761 H 160.744 -2.87433 1.46908 0
M  V30 1762 H 159.796 -1.53131 3.48217 0
M  V30 1763 H 161.108 -2.20683 4.47326 0
M  V30 1764 H 160.262 -4.52303 4.0436 0
M  V30 1765 H 159.001 -3.88105 2.9534 0
M  V30 1766 H 158.006 -2.57927 4.85545 0
M  V30 1767 H 159.231 -3.25163 5.96193 0
M  V30 1768 H 157.177 -4.86425 4.40144 0
M  V30 1769 H 157.094 -4.48019 6.08946 0
M  V30 1770 H 158.362 -5.51689 5.5069 0
M  V30 1771 N 162.591 -1.51276 -0.441967 0
M  V30 1772 C 163.831 -1.65372 -1.20132 0
M  V30 1773 C 164.195 -0.359871 -1.88597 0
M  V30 1774 O 165.396 -0.376551 -2.66149 0
M  V30 1775 C 163.667 -2.8207 -2.1948 0
M  V30 1776 S 165.226 -3.16467 -3.03964 0
M  V30 1777 H 162.044 -0.582669 -0.407453 0
M  V30 1778 H 164.646 -1.89166 -0.493609 0
M  V30 1779 H 163.35 -3.74523 -1.67812 0
M  V30 1780 H 162.881 -2.6045 -2.94838 0
M  V30 1781 H 164.896 -2.62543 -4.21053 0
M  V30 1782 N 164.069 0.697108 -1.41344 0
M  V30 1783 C 165.48 1.27697 -1.36199 0
M  V30 1784 C 165.831 1.9615 -0.0443463 0
M  V30 1785 O 164.956 1.98689 0.857419 0
M  V30 1786 C 165.551 2.32223 -2.46694 0
M  V30 1787 C 164.11 2.8579 -2.44952 0
M  V30 1788 C 163.257 1.59807 -2.26621 0
M  V30 1789 H 166.208 0.491968 -1.50882 0
M  V30 1790 H 166.229 3.1348 -2.15664 0
M  V30 1791 H 165.741 1.82373 -3.42581 0
M  V30 1792 H 163.842 3.3982 -1.52817 0
M  V30 1793 H 163.955 3.36325 -3.41207 0
M  V30 1794 H 162.319 1.8556 -1.7447 0
M  V30 1795 H 163.102 1.11956 -3.24532 0
M  V30 1796 N 165.547 1.27147 0.931209 0
M  V30 1797 C 166.963 1.04475 1.20653 0
M  V30 1798 C 167.163 -0.223885 2.00252 0
M  V30 1799 O 166.219 -0.930332 2.34736 0
M  V30 1800 C 167.532 2.28209 1.95809 0
M  V30 1801 C 169.08 2.33211 2.08762 0
M  V30 1802 C 169.555 3.56665 2.87323 0
M  V30 1803 N 171.046 3.57201 2.94892 0
M  V30 1804 C 171.781 4.49395 3.56134 0
M  V30 1805 N 171.277 5.51889 4.18796 0
M  V30 1806 N 173.07 4.37026 3.53504 0
M  V30 1807 H 165.221 2.08612 0.399333 0
M  V30 1808 H 167.484 0.917312 0.239253 0
M  V30 1809 H 167.19 3.20538 1.44736 0
M  V30 1810 H 167.064 2.33247 2.96438 0
M  V30 1811 H 169.451 1.41391 2.59023 0
M  V30 1812 H 169.532 2.32178 1.07364 0
M  V30 1813 H 169.176 4.4882 2.37746 0
M  V30 1814 H 169.106 3.54948 3.88998 0
M  V30 1815 H 171.597 2.83074 2.50354 0
M  V30 1816 H 171.91 6.18409 4.63454 0
M  V30 1817 H 170.255 5.55735 4.17353 0
M  V30 1818 H 173.446 3.56166 3.03749 0
M  V30 1819 H 173.619 5.09067 4.00942 0
M  V30 1820 N 167.025 -1.13721 1.09112 0
M  V30 1821 C 168.253 -1.88773 0.846899 0
M  V30 1822 C 168.668 -1.7896 -0.601572 0
M  V30 1823 O 168.025 -1.15394 -1.41388 0
M  V30 1824 C 168.076 -3.3849 1.26913 0
M  V30 1825 O 167.797 -3.48043 2.66079 0
M  V30 1826 C 169.298 -4.30518 1.05682 0
M  V30 1827 H 166.518 -0.59772 0.304914 0
M  V30 1828 H 169.062 -1.43977 1.45227 0
M  V30 1829 H 167.217 -3.80881 0.707723 0
M  V30 1830 H 167.631 -4.4109 2.83795 0
M  V30 1831 H 169.105 -5.3391 1.40156 0
M  V30 1832 H 169.582 -4.392 -0.00563416 0
M  V30 1833 H 170.188 -3.93893 1.60402 0
M  V30 1834 N 168.503 -0.877838 -1.30888 0
M  V30 1835 C 169.752 -0.488793 -1.95688 0
M  V30 1836 C 170.065 0.965485 -1.70111 0
M  V30 1837 O 171.271 1.46104 -2.28836 0
M  V30 1838 C 169.727 -0.823201 -3.50359 0
M  V30 1839 C 169.335 -2.29477 -3.84765 0
M  V30 1840 C 171.079 -0.503009 -4.21509 0
M  V30 1841 C 168.986 -2.57118 -5.32583 0
M  V30 1842 H 167.916 -0.179062 -0.732429 0
M  V30 1843 H 170.567 -1.07183 -1.48943 0
M  V30 1844 H 168.949 -0.169331 -3.95638 0
M  V30 1845 H 170.123 -2.99236 -3.5042 0
M  V30 1846 H 168.438 -2.58178 -3.267 0
M  V30 1847 H 171.035 -0.68665 -5.30273 0
M  V30 1848 H 171.378 0.557109 -4.12555 0
M  V30 1849 H 171.911 -1.11376 -3.8189 0
M  V30 1850 H 168.65 -3.61843 -5.4658 0
M  V30 1851 H 168.17 -1.91961 -5.68253 0
M  V30 1852 H 169.849 -2.42251 -5.99936 0
M  V30 1853 N 169.982 1.44106 -0.638065 0
M  V30 1854 C 170.912 2.33448 0.0494287 0
M  V30 1855 C 171.893 1.48606 0.827672 0
M  V30 1856 O 173.078 1.77308 0.792173 0
M  V30 1857 C 170.208 3.31771 1.02691 0
M  V30 1858 C 169.162 4.26485 0.359823 0
M  V30 1859 C 168.488 5.14729 1.44769 0
M  V30 1860 C 169.788 5.17056 -0.738296 0
M  V30 1861 H 171.482 2.91183 -0.696636 0
M  V30 1862 H 169.028 1.40014 -0.336456 0
M  V30 1863 H 170.981 3.93161 1.51666 0
M  V30 1864 H 169.705 2.7226 1.80395 0
M  V30 1865 H 168.364 3.66437 -0.10934 0
M  V30 1866 H 168.012 4.51566 2.21578 0
M  V30 1867 H 167.712 5.78913 1.00668 0
M  V30 1868 H 169.236 5.78991 1.93911 0
M  V30 1869 H 170.65 5.72342 -0.331354 0
M  V30 1870 H 169.047 5.89879 -1.10286 0
M  V30 1871 H 170.117 4.57652 -1.60258 0
M  V30 1872 N 171.46 0.379036 1.52974 0
M  V30 1873 C 172.407 -0.461048 2.26148 0
M  V30 1874 C 173.377 -1.06637 1.27349 0
M  V30 1875 O 174.562 -1.09633 1.56157 0
M  V30 1876 C 171.702 -1.58782 3.06402 0
M  V30 1877 C 170.815 -1.00636 4.20115 0
M  V30 1878 C 169.95 -2.10334 4.87784 0
M  V30 1879 C 168.989 -1.49724 5.93506 0
M  V30 1880 N 168.126 -2.5331 6.54812 0
M  V30 1881 H 172.966 0.169429 2.97518 0
M  V30 1882 H 170.503 0.0953806 1.4679 0
M  V30 1883 H 172.461 -2.25174 3.51215 0
M  V30 1884 H 171.091 -2.18876 2.37261 0
M  V30 1885 H 170.143 -0.232332 3.7969 0
M  V30 1886 H 171.455 -0.523343 4.96047 0
M  V30 1887 H 170.609 -2.84519 5.35849 0
M  V30 1888 H 169.348 -2.61992 4.11353 0
M  V30 1889 H 168.353 -0.740598 5.44789 0
M  V30 1890 H 169.578 -0.988732 6.71864 0
M  V30 1891 H 167.524 -3.04156 5.81227 0
M  V30 1892 H 167.441 -2.09734 7.26325 0
M  V30 1893 H 168.709 -3.27155 7.07524 0
M  V30 1894 N 172.938 -1.57226 0.108567 0
M  V30 1895 C 173.885 -2.14756 -0.845481 0
M  V30 1896 C 174.855 -1.06971 -1.27068 0
M  V30 1897 O 176.04 -1.34827 -1.35005 0
M  V30 1898 C 173.18 -2.74298 -2.09415 0
M  V30 1899 C 172.293 -3.96358 -1.71826 0
M  V30 1900 C 171.428 -4.44021 -2.9158 0
M  V30 1901 C 170.467 -5.58637 -2.50181 0
M  V30 1902 N 169.604 -6.01091 -3.62814 0
M  V30 1903 H 174.444 -2.95961 -0.348035 0
M  V30 1904 H 171.981 -1.46226 -0.160106 0
M  V30 1905 H 173.939 -3.06945 -2.82561 0
M  V30 1906 H 172.569 -1.95801 -2.56636 0
M  V30 1907 H 171.621 -3.69939 -0.885947 0
M  V30 1908 H 172.933 -4.79504 -1.37394 0
M  V30 1909 H 172.087 -4.78522 -3.72963 0
M  V30 1910 H 170.826 -3.59803 -3.29231 0
M  V30 1911 H 169.831 -5.23751 -1.67228 0
M  V30 1912 H 171.056 -6.44613 -2.13659 0
M  V30 1913 H 169.002 -5.19817 -4.00158 0
M  V30 1914 H 168.919 -6.79066 -3.32273 0
M  V30 1915 H 170.187 -6.40227 -4.44668 0
M  V30 1916 N 174.416 0.165178 -1.56732 0
M  V30 1917 C 175.644 0.896218 -1.86482 0
M  V30 1918 C 176.059 1.75555 -0.694675 0
M  V30 1919 O 175.416 1.79379 0.33607 0
M  V30 1920 C 175.467 1.76792 -3.1532 0
M  V30 1921 O 175.188 0.943239 -4.27825 0
M  V30 1922 C 176.689 2.6081 -3.58459 0
M  V30 1923 H 173.909 0.260064 -0.618553 0
M  V30 1924 H 176.453 0.163428 -2.03846 0
M  V30 1925 H 174.608 2.45398 -2.99764 0
M  V30 1926 H 175.022 1.53998 -5.01383 0
M  V30 1927 H 176.496 3.17579 -4.51495 0
M  V30 1928 H 176.973 3.35977 -2.82872 0
M  V30 1929 H 177.579 1.97526 -3.76648 0
M  V30 1930 N 175.894 1.51508 0.433938 0
M  V30 1931 C 177.134 1.66006 1.19253 0
M  V30 1932 C 177.498 0.369868 1.88404 0
M  V30 1933 O 178.699 0.39066 2.65946 0
M  V30 1934 C 176.97 2.83229 2.17981 0
M  V30 1935 S 178.529 3.18075 3.02281 0
M  V30 1936 H 175.347 0.584821 0.404358 0
M  V30 1937 H 177.949 1.89425 0.48357 0
M  V30 1938 H 176.653 3.75407 1.65824 0
M  V30 1939 H 176.184 2.6201 2.93453 0
M  V30 1940 H 178.199 2.64772 4.19655 0
M  V30 1941 N 177.372 -0.689602 1.41712 0
M  V30 1942 C 178.282 -1.83314 1.46401 0
M  V30 1943 C 179.298 -1.7036 0.35405 0
M  V30 1944 O 180.474 -1.92171 0.602692 0
M  V30 1945 C 177.539 -3.19344 1.34982 0
M  V30 1946 C 176.6 -3.44363 2.56344 0
M  V30 1947 C 175.833 -4.73904 2.45461 0
M  V30 1948 O 176.056 -5.508 1.48241 0
M  V30 1949 O 174.99 -4.99839 3.35328 0
M  V30 1950 H 178.816 -1.82314 2.42889 0
M  V30 1951 H 176.401 -0.843438 1.23315 0
M  V30 1952 H 178.283 -4.00547 1.3092 0
M  V30 1953 H 176.958 -3.21014 0.41612 0
M  V30 1954 H 175.865 -2.63067 2.65982 0
M  V30 1955 H 177.198 -3.47512 3.48563 0
M  V30 1956 N 178.85 -1.27639 -0.924453 0
M  V30 1957 C 180.097 -1.14167 -1.67249 0
M  V30 1958 C 180.425 0.311863 -1.91984 0
M  V30 1959 O 179.68 1.24425 -1.51053 0
M  V30 1960 C 179.979 -1.87407 -3.04325 0
M  V30 1961 C 179.645 -3.37249 -2.99289 0
M  V30 1962 C 178.307 -3.7812 -2.97622 0
M  V30 1963 C 180.659 -4.32845 -2.90336 0
M  V30 1964 C 177.987 -5.12944 -2.8479 0
M  V30 1965 C 180.339 -5.6773 -2.79045 0
M  V30 1966 C 179.003 -6.07889 -2.7573 0
M  V30 1967 H 178.273 -0.417766 -0.612007 0
M  V30 1968 H 180.92 -1.58286 -1.07786 0
M  V30 1969 H 179.225 -1.35805 -3.67511 0
M  V30 1970 H 180.922 -1.74408 -3.61086 0
M  V30 1971 H 177.512 -3.04748 -3.01374 0
M  V30 1972 H 181.696 -4.02239 -2.90719 0
M  V30 1973 H 176.952 -5.432 -2.80612 0
M  V30 1974 H 181.126 -6.41472 -2.71083 0
M  V30 1975 H 178.753 -7.12314 -2.65544 0
M  V30 1976 N 180.328 1.1314 -1.09713 0
M  V30 1977 C 181.574 1.84757 -0.836224 0
M  V30 1978 C 181.907 1.8347 0.636598 0
M  V30 1979 O 181.182 1.27491 1.46889 0
M  V30 1980 C 181.465 3.32782 -1.37578 0
M  V30 1981 C 181.318 3.42567 -2.91493 0
M  V30 1982 C 182.637 4.28307 -1.01198 0
M  V30 1983 H 179.756 0.67082 -0.305236 0
M  V30 1984 H 182.398 1.3278 -1.35903 0
M  V30 1985 H 180.548 3.77177 -0.931097 0
M  V30 1986 H 182.22 3.06862 -3.44432 0
M  V30 1987 H 180.463 2.83349 -3.28475 0
M  V30 1988 H 181.134 4.46674 -3.24324 0
M  V30 1989 H 183.61 3.91999 -1.39556 0
M  V30 1990 H 182.486 5.30307 -1.41653 0
M  V30 1991 H 182.747 4.42029 0.0794833 0
M  V30 1992 N 181.806 0.884767 1.30421 0
M  V30 1993 C 182.753 0.349642 2.28136 0
M  V30 1994 C 183.723 -0.560061 1.56373 0
M  V30 1995 O 184.908 -0.488524 1.8444 0
M  V30 1996 C 182.048 -0.42999 3.42411 0
M  V30 1997 C 181.161 0.508907 4.28992 0
M  V30 1998 C 180.296 -0.286301 5.30428 0
M  V30 1999 C 179.335 0.648079 6.08659 0
M  V30 2000 N 178.472 -0.111792 7.02011 0
M  V30 2001 H 183.312 1.18807 2.73293 0
M  V30 2002 H 180.849 0.597231 1.3443 0
M  V30 2003 H 182.807 -0.897923 4.07423 0
M  V30 2004 H 181.437 -1.23299 2.98324 0
M  V30 2005 H 180.489 1.09533 3.64289 0
M  V30 2006 H 181.801 1.22475 4.8353 0
M  V30 2007 H 180.955 -0.816098 6.01186 0
M  V30 2008 H 179.694 -1.03536 4.76583 0
M  V30 2009 H 178.699 1.18951 5.36778 0
M  V30 2010 H 179.924 1.39623 6.64592 0
M  V30 2011 H 177.87 -0.843395 6.50556 0
M  V30 2012 H 177.787 0.544429 7.54037 0
M  V30 2013 H 179.055 -0.622339 7.77012 0
M  V30 2014 N 183.284 -1.43765 0.645699 0
M  V30 2015 C 184.232 -2.32516 -0.0624849 0
M  V30 2016 C 185.226 -1.48183 -0.820855 0
M  V30 2017 O 186.432 -1.64439 -0.732106 0
M  V30 2018 H 182.807 -0.750989 -0.0389864 0
M  V30 2019 H 184.778 -2.89979 0.703892 0
M  V30 2020 C 183.527 -3.32389 -1.02044 0
M  V30 2021 H 182.85 -3.97301 -0.446312 0
M  V30 2022 H 184.29 -3.97138 -1.48517 0
M  V30 2023 C 182.749 -2.62416 -2.11281 0
M  V30 2024 O 183.279 -2.434 -3.19561 0
M  V30 2025 N 181.485 -2.21913 -1.87624 0
M  V30 2026 H 181.032 -2.37578 -0.995703 0
M  V30 2027 H 180.99 -1.75424 -2.6091 0
M  V30 2028 N 184.763 -0.387143 -1.52771 0
M  V30 2029 C 185.673 0.456442 -2.30117 0
M  V30 2030 C 186.689 1.07342 -1.36944 0
M  V30 2031 O 187.865 1.07971 -1.70013 0
M  V30 2032 C 184.93 1.56957 -3.09136 0
M  V30 2033 C 183.991 0.977916 -4.18014 0
M  V30 2034 C 183.224 2.038 -4.93256 0
M  V30 2035 O 183.447 3.25271 -4.68567 0
M  V30 2036 O 182.381 1.6565 -5.78657 0
M  V30 2037 H 186.207 -0.17359 -3.03203 0
M  V30 2038 H 183.792 -0.150919 -1.48636 0
M  V30 2039 H 185.674 2.21628 -3.58412 0
M  V30 2040 H 184.349 2.18461 -2.38865 0
M  V30 2041 H 183.256 0.294525 -3.72939 0
M  V30 2042 H 184.589 0.407128 -4.90513 0
M  V30 2043 N 186.241 1.57166 -0.116904 0
M  V30 2044 C 187.489 1.94737 0.540533 0
M  V30 2045 C 187.81 1.00096 1.67349 0
M  V30 2046 O 187.08 0.0568854 1.95817 0
M  V30 2047 H 185.66 0.718981 0.202669 0
M  V30 2048 H 188.322 1.94017 -0.185353 0
M  V30 2049 H 187.418 2.97719 0.936483 0
M  V30 2050 N 187.719 -0.156864 1.56817 0
M  V30 2051 C 188.968 -0.869504 1.81996 0
M  V30 2052 C 189.281 -1.82777 0.696545 0
M  V30 2053 O 190.487 -2.58384 0.833658 0
M  V30 2054 C 188.943 -1.59679 3.22538 0
M  V30 2055 C 188.551 -0.681431 4.42787 0
M  V30 2056 C 190.295 -2.2968 3.56997 0
M  V30 2057 C 188.202 -1.40978 5.74351 0
M  V30 2058 H 187.132 -0.328438 0.678708 0
M  V30 2059 H 189.783 -0.1223 1.83092 0
M  V30 2060 H 188.165 -2.38927 3.158 0
M  V30 2061 H 189.339 0.0751166 4.60739 0
M  V30 2062 H 187.654 -0.0903431 4.16302 0
M  V30 2063 H 190.251 -2.84794 4.52544 0
M  V30 2064 H 190.594 -3.05707 2.82576 0
M  V30 2065 H 191.127 -1.57361 3.65352 0
M  V30 2066 H 187.866 -0.691561 6.51842 0
M  V30 2067 H 187.386 -2.13929 5.60352 0
M  V30 2068 H 189.065 -1.95337 6.16808 0
M  V30 2069 N 189.197 -1.51736 -0.425897 0
M  V30 2070 C 190.16 -1.73271 -1.50032 0
M  V30 2071 C 191.16 -0.602639 -1.4908 0
M  V30 2072 O 192.35 -0.87033 -1.509 0
M  V30 2073 C 189.482 -1.79969 -2.89523 0
M  V30 2074 H 190.675 -2.69172 -1.32237 0
M  V30 2075 H 188.228 -1.41899 -0.65532 0
M  V30 2076 H 188.963 -0.859241 -3.1271 0
M  V30 2077 H 188.748 -2.62109 -2.91619 0
M  V30 2078 H 190.238 -1.9843 -3.67444 0
M  V30 2079 N 190.675 0.682077 -1.42076 0
M  V30 2080 C 191.952 1.43755 -1.32642 0
M  V30 2081 C 192.332 2.11063 0.0396611 0
M  V30 2082 O 191.68 2.02701 1.05474 0
M  V30 2083 C 191.89 2.44596 -2.48946 0
M  V30 2084 C 193.238 3.09454 -2.9073 0
M  V30 2085 O 194.262 2.54922 -2.48783 0
M  V30 2086 O 193.121 4.08253 -3.63307 0
M  V30 2087 H 190.215 0.640857 -0.522715 0
M  V30 2088 H 192.761 0.711415 -1.54068 0
M  V30 2089 H 191.533 1.93609 -3.40046 0
M  V30 2090 H 191.156 3.24701 -2.29467 0
M  V30 2091 N 192.153 1.28127 0.917671 0
M  V30 2092 C 193.1 1.11717 2.0196 0
M  V30 2093 C 194.07 0.0153929 1.66093 0
M  V30 2094 O 195.255 0.179596 1.89953 0
M  V30 2095 C 192.395 0.780927 3.36148 0
M  V30 2096 C 191.508 1.96135 3.84909 0
M  V30 2097 C 190.643 1.56609 5.0759 0
M  V30 2098 C 189.682 2.71339 5.48673 0
M  V30 2099 N 188.819 2.32332 6.62545 0
M  V30 2100 H 193.659 2.06003 2.15329 0
M  V30 2101 H 191.196 1.02535 1.05475 0
M  V30 2102 H 193.154 0.56675 4.13333 0
M  V30 2103 H 191.784 -0.124998 3.22558 0
M  V30 2104 H 190.836 2.28777 3.03916 0
M  V30 2105 H 192.148 2.82165 4.1132 0
M  V30 2106 H 191.302 1.31374 5.92305 0
M  V30 2107 H 190.041 0.677014 4.82978 0
M  V30 2108 H 189.046 2.97276 4.62501 0
M  V30 2109 H 190.271 3.60882 5.75274 0
M  V30 2110 H 188.217 1.45889 6.39572 0
M  V30 2111 H 188.134 3.11899 6.88662 0
M  V30 2112 H 189.402 2.10371 7.50576 0
M  V30 2113 N 193.631 -1.12557 1.10312 0
M  V30 2114 C 194.877 -1.84311 0.846011 0
M  V30 2115 C 195.21 -1.83805 -0.626859 0
M  V30 2116 O 194.485 -1.28268 -1.46211 0
M  V30 2117 C 194.768 -3.32048 1.39341 0
M  V30 2118 C 194.621 -3.41016 2.93305 0
M  V30 2119 C 195.94 -4.27764 1.03468 0
M  V30 2120 H 193.059 -0.669192 0.30879 0
M  V30 2121 H 195.701 -1.32057 1.36605 0
M  V30 2122 H 193.851 -3.76678 0.951087 0
M  V30 2123 H 195.523 -3.05031 3.46055 0
M  V30 2124 H 193.766 -2.81603 3.29973 0
M  V30 2125 H 194.437 -4.44948 3.26689 0
M  V30 2126 H 196.913 -3.91253 1.41633 0
M  V30 2127 H 195.789 -5.29549 1.44463 0
M  V30 2128 H 196.05 -4.42064 -0.0560404 0
M  V30 2129 N 195.109 -0.891671 -1.2995 0
M  V30 2130 C 196.349 -0.520296 -1.97667 0
M  V30 2131 C 196.713 0.914797 -1.68806 0
M  V30 2132 O 197.914 1.39263 -2.29911 0
M  V30 2133 C 196.185 -0.795222 -3.48441 0
M  V30 2134 S 197.744 -0.526953 -4.35624 0
M  V30 2135 H 194.562 -0.19333 -0.684211 0
M  V30 2136 H 197.164 -1.15238 -1.57926 0
M  V30 2137 H 195.868 -1.83805 -3.66938 0
M  V30 2138 H 195.399 -0.15095 -3.9311 0
M  V30 2139 H 197.414 0.631533 -4.92165 0
M  V30 2140 N 196.587 1.43421 -0.653314 0
M  V30 2141 C 197.836 2.01032 -0.164076 0
M  V30 2142 C 198.149 1.52147 1.22926 0
M  V30 2143 O 199.355 2.02031 1.81371 0
M  V30 2144 C 197.811 3.59082 -0.24252 0
M  V30 2145 C 197.419 4.1696 -1.63855 0
M  V30 2146 C 199.163 4.24079 0.18911 0
M  V30 2147 C 197.07 5.67304 -1.67092 0
M  V30 2148 H 196 0.751798 -0.0575769 0
M  V30 2149 H 198.651 1.6439 -0.815362 0
M  V30 2150 H 197.033 3.93125 0.476276 0
M  V30 2151 H 198.207 3.94416 -2.38271 0
M  V30 2152 H 196.522 3.64335 -2.01616 0
M  V30 2153 H 199.119 5.34381 0.184775 0
M  V30 2154 H 199.462 3.98005 1.22056 0
M  V30 2155 H 199.995 3.94918 -0.477938 0
M  V30 2156 H 196.734 5.98145 -2.68146 0
M  V30 2157 H 196.254 5.91904 -0.970014 0
M  V30 2158 H 197.933 6.31344 -1.4147 0
M  V30 2159 N 198.065 0.39524 1.52563 0
M  V30 2160 C 199.313 -0.184678 2.01254 0
M  V30 2161 C 199.634 -1.46822 1.28329 0
M  V30 2162 O 198.904 -1.91666 0.405094 0
M  V30 2163 H 197.484 -0.0712355 0.743596 0
M  V30 2164 H 200.146 0.528293 1.87603 0
M  V30 2165 H 199.242 -0.390681 3.09645 0
M  V30 2166 N 199.544 -1.57102 0.125237 0
M  V30 2167 C 200.492 -2.16905 -0.839927 0
M  V30 2168 C 201.486 -1.11998 -1.27094 0
M  V30 2169 O 202.692 -1.3029 -1.24195 0
M  V30 2170 H 199.067 -0.694252 -0.288995 0
M  V30 2171 H 201.038 -2.96774 -0.311115 0
M  V30 2172 C 199.787 -2.78795 -2.07771 0
M  V30 2173 H 199.11 -3.59221 -1.755 0
M  V30 2174 H 200.55 -3.2417 -2.73295 0
M  V30 2175 C 199.009 -1.76193 -2.87155 0
M  V30 2176 O 199.539 -1.21909 -3.82755 0
M  V30 2177 N 197.745 -1.45991 -2.51267 0
M  V30 2178 H 197.292 -1.90325 -1.73592 0
M  V30 2179 H 197.25 -0.775844 -3.04677 0
M  V30 2180 N 201.022 0.148545 -1.56898 0
M  V30 2181 C 201.932 1.20293 -2.01412 0
M  V30 2182 C 202.948 1.47107 -0.929273 0
M  V30 2183 O 204.124 1.58807 -1.23863 0
M  V30 2184 C 201.189 2.51682 -2.38447 0
M  V30 2185 C 200.25 2.32529 -3.60872 0
M  V30 2186 C 199.483 3.57653 -3.96132 0
M  V30 2187 O 199.706 4.63771 -3.32073 0
M  V30 2188 O 198.64 3.50408 -4.89385 0
M  V30 2189 H 202.466 0.855025 -2.91416 0
M  V30 2190 H 200.051 0.357151 -1.45068 0
M  V30 2191 H 201.933 3.29147 -2.63135 0
M  V30 2192 H 200.608 2.86006 -1.51599 0
M  V30 2193 H 199.515 1.53019 -3.41373 0
M  V30 2194 H 200.848 2.03121 -4.48333 0
M  V30 2195 N 202.5 1.5196 0.417844 0
M  V30 2196 C 203.43 1.77634 1.51554 0
M  V30 2197 C 204.411 0.626918 1.58126 0
M  V30 2198 O 205.596 0.871632 1.7354 0
M  V30 2199 C 202.726 1.91911 2.8946 0
M  V30 2200 C 201.68 3.07463 2.97743 0
M  V30 2201 C 201.006 3.06951 4.37819 0
M  V30 2202 C 202.306 4.47082 2.70027 0
M  V30 2203 H 204 2.6955 1.3032 0
M  V30 2204 H 201.546 1.29706 0.625492 0
M  V30 2205 H 203.499 2.08455 3.6623 0
M  V30 2206 H 202.223 0.966598 3.11969 0
M  V30 2207 H 200.882 2.90656 2.23416 0
M  V30 2208 H 200.53 2.09438 4.57323 0
M  V30 2209 H 200.23 3.84556 4.44286 0
M  V30 2210 H 201.754 3.25613 5.16535 0
M  V30 2211 H 203.168 4.6414 3.36522 0
M  V30 2212 H 201.565 5.2654 2.87881 0
M  V30 2213 H 202.635 4.55777 1.65514 0
M  V30 2214 N 203.978 -0.674533 1.42435 0
M  V30 2215 C 204.888 -1.81751 1.48337 0
M  V30 2216 C 205.904 -1.69975 0.372099 0
M  V30 2217 O 207.08 -1.91521 0.62304 0
M  V30 2218 C 204.145 -3.17895 1.38361 0
M  V30 2219 C 203.206 -3.41625 2.59982 0
M  V30 2220 C 202.439 -4.71274 2.50473 0
M  V30 2221 O 202.662 -5.49197 1.54075 0
M  V30 2222 O 201.596 -4.96254 3.4061 0
M  V30 2223 H 205.422 -1.79728 2.44809 0
M  V30 2224 H 203.007 -0.830312 1.24202 0
M  V30 2225 H 204.889 -3.99136 1.35161 0
M  V30 2226 H 203.564 -3.20555 0.450144 0
M  V30 2227 H 202.471 -2.60231 2.68757 0
M  V30 2228 H 203.804 -3.43796 3.52229 0
M  V30 2229 N 205.456 -1.28612 -0.910864 0
M  V30 2230 C 206.703 -1.15934 -1.66029 0
M  V30 2231 C 207.031 0.291483 -1.92303 0
M  V30 2232 O 206.286 1.22816 -1.52364 0
M  V30 2233 C 206.585 -1.90624 -3.0232 0
M  V30 2234 C 206.251 -3.40405 -2.95695 0
M  V30 2235 C 204.913 -3.81255 -2.93595 0
M  V30 2236 C 207.265 -4.359 -2.85728 0
M  V30 2237 C 204.593 -5.15936 -2.79334 0
M  V30 2238 C 206.945 -5.70657 -2.73007 0
M  V30 2239 C 205.609 -6.10779 -2.69267 0
M  V30 2240 H 204.879 -0.424234 -0.607541 0
M  V30 2241 H 207.526 -1.5942 -1.06101 0
M  V30 2242 H 205.831 -1.39696 -3.6605 0
M  V30 2243 H 207.528 -1.78228 -3.59215 0
M  V30 2244 H 204.118 -3.07927 -2.98125 0
M  V30 2245 H 208.302 -4.053 -2.86436 0
M  V30 2246 H 203.558 -5.46146 -2.74835 0
M  V30 2247 H 207.732 -6.44311 -2.64264 0
M  V30 2248 H 205.359 -7.1509 -2.57974 0
M  V30 2249 N 206.934 1.1197 -1.10907 0
M  V30 2250 C 208.181 1.83588 -0.854507 0
M  V30 2251 C 208.509 1.84357 0.6199 0
M  V30 2252 O 207.764 1.28809 1.47332 0
M  V30 2253 C 208.063 3.30749 -1.35425 0
M  V30 2254 C 207.729 3.50146 -2.84093 0
M  V30 2255 C 206.391 3.55148 -3.2469 0
M  V30 2256 C 208.743 3.56857 -3.79872 0
M  V30 2257 C 206.071 3.6441 -4.59806 0
M  V30 2258 C 208.423 3.6765 -5.14797 0
M  V30 2259 C 207.087 3.7091 -5.54961 0
M  V30 2260 H 206.357 0.671795 -0.312686 0
M  V30 2261 H 209.004 1.32091 -1.38652 0
M  V30 2262 H 207.309 3.84703 -0.742361 0
M  V30 2263 H 209.006 3.8464 -1.1337 0
M  V30 2264 H 205.596 3.46919 -2.51685 0
M  V30 2265 H 209.78 3.52258 -3.49611 0
M  V30 2266 H 205.036 3.65208 -4.9034 0
M  V30 2267 H 209.21 3.71786 -5.88853 0
M  V30 2268 H 206.837 3.7784 -6.59652 0
M  V30 2269 N 208.412 0.89855 1.29475 0
M  V30 2270 C 209.661 0.519863 1.94885 0
M  V30 2271 C 209.974 -0.9383 1.71625 0
M  V30 2272 O 211.18 -1.42445 2.31131 0
M  V30 2273 C 209.636 0.878836 3.49005 0
M  V30 2274 C 209.244 2.35569 3.81066 0
M  V30 2275 C 210.988 0.570004 4.20656 0
M  V30 2276 C 208.895 2.65558 5.28425 0
M  V30 2277 H 207.825 0.190692 0.729488 0
M  V30 2278 H 210.476 1.09539 1.47219 0
M  V30 2279 H 208.858 0.232253 3.95318 0
M  V30 2280 H 210.032 3.04773 3.45616 0
M  V30 2281 H 208.347 2.63343 3.22552 0
M  V30 2282 H 210.944 0.770925 5.29113 0
M  V30 2283 H 211.287 -0.491404 4.1339 0
M  V30 2284 H 211.82 1.17438 3.8007 0
M  V30 2285 H 208.559 3.70493 5.40754 0
M  V30 2286 H 208.079 2.00977 5.65127 0
M  V30 2287 H 209.758 2.51765 5.96006 0
M  V30 2288 N 209.89 -1.43072 0.660911 0
M  V30 2289 C 211.137 -2.01721 0.177445 0
M  V30 2290 C 211.465 -1.5218 -1.21126 0
M  V30 2291 O 210.72 -0.708659 -1.82419 0
M  V30 2292 C 211.019 -3.57103 0.145563 0
M  V30 2293 C 210.685 -4.26021 1.47705 0
M  V30 2294 C 209.347 -4.44563 1.84165 0
M  V30 2295 C 211.699 -4.64983 2.35458 0
M  V30 2296 C 209.027 -4.99334 3.0803 0
M  V30 2297 C 211.379 -5.21127 3.58622 0
M  V30 2298 C 210.043 -5.37884 3.95268 0
M  V30 2299 H 209.313 -0.73815 0.0649317 0
M  V30 2300 H 211.96 -1.71446 0.853144 0
M  V30 2301 H 210.265 -3.86965 -0.61361 0
M  V30 2302 H 211.962 -4.00248 -0.2455 0
M  V30 2303 H 208.552 -4.11939 1.18339 0
M  V30 2304 H 212.736 -4.50343 2.08579 0
M  V30 2305 H 207.992 -5.10493 3.36462 0
M  V30 2306 H 212.166 -5.50262 4.26831 0
M  V30 2307 H 209.793 -5.80089 4.91325 0
M  V30 2308 N 211.368 -0.403325 -1.52352 0
M  V30 2309 C 212.645 0.232611 -1.94212 0
M  V30 2310 C 213.025 1.63133 -1.33981 0
M  V30 2311 O 212.373 2.22659 -0.513344 0
M  V30 2312 C 212.583 0.244811 -3.4814 0
M  V30 2313 C 213.931 0.46698 -4.22024 0
M  V30 2314 O 214.955 0.324419 -3.5472 0
M  V30 2315 O 213.814 0.74747 -5.41364 0
M  V30 2316 H 210.908 0.148223 -0.813609 0
M  V30 2317 H 213.454 -0.458848 -1.63379 0
M  V30 2318 H 212.226 -0.734378 -3.84347 0
M  V30 2319 H 211.849 0.980611 -3.85318 0
M  V30 2320 N 212.846 1.57033 -0.133567 0
M  V30 2321 C 213.793 2.16074 0.811208 0
M  V30 2322 C 214.763 1.08979 1.2535 0
M  V30 2323 O 215.948 1.36958 1.32843 0
M  V30 2324 C 213.088 2.77595 2.05024 0
M  V30 2325 C 212.201 3.99042 1.65498 0
M  V30 2326 C 211.336 4.48603 2.84479 0
M  V30 2327 C 210.375 5.62547 2.41262 0
M  V30 2328 N 209.512 6.06787 3.53206 0
M  V30 2329 H 214.352 2.96477 0.300906 0
M  V30 2330 H 211.889 1.46462 0.136822 0
M  V30 2331 H 213.847 3.11402 2.77642 0
M  V30 2332 H 212.477 1.99859 2.53488 0
M  V30 2333 H 211.529 3.71302 0.826981 0
M  V30 2334 H 212.841 4.81629 1.29748 0
M  V30 2335 H 211.995 4.84395 3.65303 0
M  V30 2336 H 210.734 3.64995 3.23465 0
M  V30 2337 H 209.739 5.26345 1.58874 0
M  V30 2338 H 210.964 6.47931 2.03377 0
M  V30 2339 H 208.91 5.26117 3.91838 0
M  V30 2340 H 208.827 6.84266 3.21427 0
M  V30 2341 H 210.095 6.4722 4.34427 0
M  V30 2342 N 214.325 -0.140222 1.56975 0
M  V30 2343 C 215.571 -0.852949 1.83991 0
M  V30 2344 C 215.904 -1.80512 0.716187 0
M  V30 2345 O 215.179 -1.92479 -0.279681 0
M  V30 2346 C 215.462 -1.6215 3.21527 0
M  V30 2347 C 215.315 -0.690363 4.4447 0
M  V30 2348 C 216.634 -2.58247 3.56366 0
M  V30 2349 H 213.753 -0.308634 0.669264 0
M  V30 2350 H 216.395 -0.117898 1.89634 0
M  V30 2351 H 214.545 -2.24812 3.16847 0
M  V30 2352 H 216.217 -0.0742264 4.6124 0
M  V30 2353 H 214.46 -0.000396433 4.338 0
M  V30 2354 H 215.131 -1.2643 5.37326 0
M  V30 2355 H 217.607 -2.05701 3.61699 0
M  V30 2356 H 216.483 -3.09067 4.53617 0
M  V30 2357 H 216.744 -3.39923 2.82674 0
M  V30 2358 N 215.803 -1.52179 -0.40978 0
M  V30 2359 C 216.751 -1.76086 -1.51975 0
M  V30 2360 C 217.745 -0.627964 -1.57331 0
M  V30 2361 O 218.951 -0.809993 -1.60745 0
M  V30 2362 H 215.326 -0.556829 -0.505416 0
M  V30 2363 H 217.297 -2.69077 -1.28996 0
M  V30 2364 C 216.046 -1.92799 -2.8935 0
M  V30 2365 H 215.369 -2.79392 -2.85972 0
M  V30 2366 H 216.809 -2.13527 -3.66309 0
M  V30 2367 C 215.268 -0.694923 -3.29655 0
M  V30 2368 O 215.798 0.13751 -4.01465 0
M  V30 2369 N 214.004 -0.53101 -2.85707 0
M  V30 2370 H 213.551 -1.20952 -2.27439 0
M  V30 2371 H 213.509 0.292718 -3.13034 0
M  V30 2372 N 217.281 0.66697 -1.42791 0
M  V30 2373 C 218.511 1.45294 -1.46878 0
M  V30 2374 C 218.919 1.89027 -0.0809861 0
M  V30 2375 O 218.262 1.59219 0.916246 0
M  V30 2376 C 218.324 2.72908 -2.34012 0
M  V30 2377 C 217.988 2.51203 -3.81767 0
M  V30 2378 C 218.985 2.15302 -4.73224 0
M  V30 2379 C 216.67 2.65954 -4.26115 0
M  V30 2380 C 218.664 1.94431 -6.07022 0
M  V30 2381 C 216.351 2.44699 -5.59969 0
M  V30 2382 C 217.349 2.08992 -6.5024 0
M  V30 2383 O 217.037 1.87948 -7.81621 0
M  V30 2384 H 216.769 0.453306 -0.501487 0
M  V30 2385 H 219.323 0.826232 -1.88049 0
M  V30 2386 H 217.553 3.38089 -1.87703 0
M  V30 2387 H 219.242 3.34816 -2.29462 0
M  V30 2388 H 220.008 2.03495 -4.40244 0
M  V30 2389 H 215.887 2.92724 -3.56137 0
M  V30 2390 H 219.431 1.66484 -6.77443 0
M  V30 2391 H 215.328 2.56105 -5.9252 0
M  V30 2392 H 216.096 2.02483 -7.93059 0
M  V30 2393 N 218.759 1.29093 0.90403 0
M  V30 2394 C 219.984 1.19809 1.69294 0
M  V30 2395 C 220.409 -0.238481 1.86582 0
M  V30 2396 O 219.767 -1.1723 1.383 0
M  V30 2397 C 219.815 1.91202 3.05736 0
M  V30 2398 O 218.919 1.22611 3.93752 0
M  V30 2399 H 218.26 0.415385 0.518027 0
M  V30 2400 H 220.79 1.70586 1.12967 0
M  V30 2401 H 220.8 1.99487 3.55906 0
M  V30 2402 H 219.475 2.95692 2.92471 0
M  V30 2403 H 218.052 1.22554 3.52186 0
M  V30 2404 N 220.237 -1.11381 1.11499 0
M  V30 2405 C 221.167 -2.19509 0.796125 0
M  V30 2406 C 222.148 -1.68458 -0.235796 0
M  V30 2407 O 223.333 -1.93947 -0.0991344 0
M  V30 2408 C 220.463 -3.46475 0.239205 0
M  V30 2409 C 219.417 -4.10744 1.20307 0
M  V30 2410 C 218.743 -5.32293 0.50683 0
M  V30 2411 C 220.043 -4.55597 2.55399 0
M  V30 2412 H 221.737 -2.46439 1.70024 0
M  V30 2413 H 219.283 -1.18446 0.818935 0
M  V30 2414 H 221.236 -4.214 0.00392006 0
M  V30 2415 H 219.96 -3.19006 -0.700206 0
M  V30 2416 H 218.619 -3.37813 1.42399 0
M  V30 2417 H 218.267 -5.01095 -0.437408 0
M  V30 2418 H 217.967 -5.76243 1.1497 0
M  V30 2419 H 219.491 -6.09956 0.280351 0
M  V30 2420 H 220.905 -5.21841 2.37391 0
M  V30 2421 H 219.302 -5.10363 3.15673 0
M  V30 2422 H 220.372 -3.69013 3.14575 0
M  V30 2423 N 221.715 -0.905404 -1.28997 0
M  V30 2424 C 222.992 -0.453513 -1.9027 0
M  V30 2425 C 223.372 1.06721 -1.82137 0
M  V30 2426 O 222.72 1.91159 -1.25182 0
M  V30 2427 C 222.93 -0.974494 -3.35119 0
M  V30 2428 C 224.278 -1.0216 -4.12127 0
M  V30 2429 O 225.302 -0.922557 -3.44046 0
M  V30 2430 O 224.161 -1.17121 -5.33802 0
M  V30 2431 H 221.255 -0.142347 -0.814657 0
M  V30 2432 H 223.801 -0.995642 -1.37423 0
M  V30 2433 H 222.573 -2.01848 -3.35221 0
M  V30 2434 H 222.196 -0.412706 -3.95452 0
M  V30 2435 N 223.193 1.4272 -0.668489 0
M  V30 2436 C 224.103 2.34596 0.0139753 0
M  V30 2437 C 225.119 1.5474 0.795703 0
M  V30 2438 O 226.295 1.87334 0.739466 0
M  V30 2439 C 223.36 3.33202 0.957982 0
M  V30 2440 C 222.421 4.28957 0.17149 0
M  V30 2441 C 221.654 5.22853 1.07053 0
M  V30 2442 O 221.877 5.21531 2.31001 0
M  V30 2443 O 220.811 5.9952 0.534727 0
M  V30 2444 H 224.637 2.9448 -0.742661 0
M  V30 2445 H 222.222 1.43117 -0.428705 0
M  V30 2446 H 224.104 3.93796 1.50008 0
M  V30 2447 H 222.779 2.758 1.69458 0
M  V30 2448 H 221.686 3.71796 -0.414558 0
M  V30 2449 H 223.019 4.89383 -0.52586 0
M  V30 2450 N 224.671 0.411399 1.52136 0
M  V30 2451 C 225.901 -0.16284 2.05957 0
M  V30 2452 C 226.309 -1.3922 1.28119 0
M  V30 2453 O 225.652 -1.80768 0.326881 0
M  V30 2454 C 225.714 -0.575946 3.54856 0
M  V30 2455 C 225.378 0.542998 4.53763 0
M  V30 2456 C 226.375 1.40726 5.00492 0
M  V30 2457 C 224.06 0.716337 4.97166 0
M  V30 2458 C 226.054 2.4298 5.8927 0
M  V30 2459 C 223.741 1.74218 5.8574 0
M  V30 2460 C 224.739 2.59731 6.31687 0
M  V30 2461 O 224.427 3.60558 7.18507 0
M  V30 2462 H 224.159 -0.0229125 0.675612 0
M  V30 2463 H 226.713 0.581634 1.96993 0
M  V30 2464 H 224.943 -1.37274 3.61515 0
M  V30 2465 H 226.632 -1.07836 3.91313 0
M  V30 2466 H 227.398 1.28476 4.67674 0
M  V30 2467 H 223.277 0.0603857 4.6096 0
M  V30 2468 H 226.821 3.0976 6.25055 0
M  V30 2469 H 222.718 1.86498 6.17971 0
M  V30 2470 H 223.486 3.56829 7.36624 0
M  V30 2471 N 226.149 -1.5696 0.141893 0
M  V30 2472 C 227.097 -2.17784 -0.816874 0
M  V30 2473 C 228.091 -1.1334 -1.25899 0
M  V30 2474 O 229.297 -1.316 -1.22806 0
M  V30 2475 H 225.672 -0.697278 -0.281615 0
M  V30 2476 H 227.643 -2.97087 -0.279621 0
M  V30 2477 C 226.392 -2.80983 -2.04802 0
M  V30 2478 H 225.715 -3.61062 -1.7168 0
M  V30 2479 H 227.155 -3.2705 -2.69841 0
M  V30 2480 C 225.614 -1.79228 -2.8527 0
M  V30 2481 O 226.144 -1.25962 -3.8144 0
M  V30 2482 N 224.35 -1.48647 -2.49704 0
M  V30 2483 H 223.897 -1.92155 -1.71564 0
M  V30 2484 H 223.855 -0.808115 -3.03837 0
M  V30 2485 N 227.627 0.131896 -1.57047 0
M  V30 2486 C 228.855 0.856461 -1.88341 0
M  V30 2487 C 229.27 1.74042 -0.731757 0
M  V30 2488 O 228.627 1.80051 0.297945 0
M  V30 2489 C 228.678 1.70064 -3.18999 0
M  V30 2490 O 228.399 0.852278 -4.2973 0
M  V30 2491 C 229.9 2.53148 -3.63911 0
M  V30 2492 H 227.12 0.246885 -0.62393 0
M  V30 2493 H 229.664 0.120152 -2.04147 0
M  V30 2494 H 227.819 2.38984 -3.04902 0
M  V30 2495 H 228.233 1.43329 -5.04537 0
M  V30 2496 H 229.707 3.07931 -4.58129 0
M  V30 2497 H 230.184 3.29901 -2.89935 0
M  V30 2498 H 230.79 1.89492 -3.80753 0
M  V30 2499 N 229.106 1.52395 0.401703 0
M  V30 2500 C 230.336 1.70429 1.1678 0
M  V30 2501 C 230.744 0.416702 1.84554 0
M  V30 2502 O 230.087 -0.617697 1.73003 0
M  V30 2503 C 230.149 2.78919 2.26814 0
M  V30 2504 C 229.813 4.20437 1.79113 0
M  V30 2505 C 230.81 5.04028 1.27482 0
M  V30 2506 C 228.495 4.66704 1.85722 0
M  V30 2507 C 230.489 6.31961 0.830913 0
M  V30 2508 C 228.176 5.94625 1.40942 0
M  V30 2509 C 229.174 6.77082 0.897128 0
M  V30 2510 O 228.862 8.02607 0.455822 0
M  V30 2511 H 228.594 0.574272 0.356634 0
M  V30 2512 H 231.148 1.99767 0.477724 0
M  V30 2513 H 229.378 2.44973 2.99207 0
M  V30 2514 H 231.067 2.8548 2.88541 0
M  V30 2515 H 231.833 4.69471 1.21744 0
M  V30 2516 H 227.712 4.0262 2.24539 0
M  V30 2517 H 231.256 6.96271 0.430368 0
M  V30 2518 H 227.153 6.28688 1.46362 0
M  V30 2519 H 227.921 8.16453 0.578457 0
M  V30 2520 N 230.584 -0.659388 1.43143 0
M  V30 2521 C 231.514 -1.78422 1.50625 0
M  V30 2522 C 232.495 -1.66216 0.361443 0
M  V30 2523 O 233.68 -1.85404 0.577834 0
M  V30 2524 C 230.81 -3.16815 1.42287 0
M  V30 2525 C 229.764 -3.43777 2.54954 0
M  V30 2526 C 229.09 -4.81905 2.31671 0
M  V30 2527 C 230.39 -3.39134 3.97222 0
M  V30 2528 H 232.084 -1.72417 2.44771 0
M  V30 2529 H 229.63 -0.828084 1.17808 0
M  V30 2530 H 231.583 -3.95253 1.46127 0
M  V30 2531 H 230.307 -3.23534 0.446435 0
M  V30 2532 H 228.966 -2.67707 2.50457 0
M  V30 2533 H 228.614 -4.85294 1.32284 0
M  V30 2534 H 228.314 -5.00906 3.07192 0
M  V30 2535 H 229.838 -5.62609 2.37284 0
M  V30 2536 H 231.252 -4.07518 4.03239 0
M  V30 2537 H 229.649 -3.69671 4.72719 0
M  V30 2538 H 230.719 -2.37426 4.22797 0
M  V30 2539 N 232.062 -1.29571 -0.897171 0
M  V30 2540 C 233.009 -1.14916 -2.00158 0
M  V30 2541 C 233.979 -0.0418149 -1.66047 0
M  V30 2542 O 235.164 -0.209793 -1.89643 0
M  V30 2543 C 232.304 -0.834307 -3.34863 0
M  V30 2544 C 231.417 -2.02234 -3.8174 0
M  V30 2545 C 230.552 -1.64664 -5.05034 0
M  V30 2546 C 229.591 -2.80033 -5.44286 0
M  V30 2547 N 228.728 -2.42843 -6.58765 0
M  V30 2548 H 233.568 -2.09403 -2.12025 0
M  V30 2549 H 231.105 -1.042 -1.0383 0
M  V30 2550 H 233.063 -0.632436 -4.12379 0
M  V30 2551 H 231.693 0.0736656 -3.22716 0
M  V30 2552 H 230.745 -2.33583 -3.00238 0
M  V30 2553 H 232.057 -2.88673 -4.06779 0
M  V30 2554 H 231.211 -1.4078 -5.9014 0
M  V30 2555 H 229.95 -0.753766 -4.8184 0
M  V30 2556 H 228.955 -3.04596 -4.57713 0
M  V30 2557 H 230.18 -3.69989 -5.6946 0
M  V30 2558 H 228.126 -1.56046 -6.3717 0
M  V30 2559 H 228.043 -3.22815 -6.83613 0
M  V30 2560 H 229.311 -2.22285 -7.47134 0
M  V30 2561 N 233.54 1.10788 -1.12088 0
M  V30 2562 C 234.786 1.82942 -0.875226 0
M  V30 2563 C 235.119 1.84779 0.597538 0
M  V30 2564 O 234.394 1.30578 1.44152 0
M  V30 2565 C 234.677 3.29789 -1.44606 0
M  V30 2566 C 234.53 3.36307 -2.98693 0
M  V30 2567 C 235.849 4.26064 -1.10261 0
M  V30 2568 H 232.968 0.664195 -0.319397 0
M  V30 2569 H 235.61 1.29867 -1.38689 0
M  V30 2570 H 233.76 3.75118 -1.01089 0
M  V30 2571 H 235.432 2.99487 -3.50864 0
M  V30 2572 H 233.675 2.76318 -3.34411 0
M  V30 2573 H 234.346 4.39694 -3.33726 0
M  V30 2574 H 236.822 3.88951 -1.4784 0
M  V30 2575 H 235.698 5.27183 -1.52869 0
M  V30 2576 H 235.959 4.42098 -0.0142953 0
M  V30 2577 N 235.018 0.912232 1.28515 0
M  V30 2578 C 236.248 0.559604 1.98877 0
M  V30 2579 C 236.656 -0.863113 1.68366 0
M  V30 2580 O 235.999 -1.58304 0.931969 0
M  V30 2581 C 236.061 0.68703 3.52874 0
M  V30 2582 C 235.725 2.07901 4.06972 0
M  V30 2583 C 236.722 3.05157 4.20922 0
M  V30 2584 C 234.407 2.39178 4.417 0
M  V30 2585 C 236.401 4.31806 4.68852 0
M  V30 2586 C 234.088 3.66068 4.89324 0
M  V30 2587 C 235.086 4.62195 5.02856 0
M  V30 2588 O 234.774 5.86829 5.49442 0
M  V30 2589 H 234.506 0.212191 0.641834 0
M  V30 2590 H 237.06 1.22712 1.64715 0
M  V30 2591 H 235.29 -0.0375486 3.86682 0
M  V30 2592 H 236.979 0.341727 4.04459 0
M  V30 2593 H 237.745 2.82311 3.94367 0
M  V30 2594 H 233.624 1.65109 4.30418 0
M  V30 2595 H 237.168 5.06842 4.79329 0
M  V30 2596 H 233.065 3.88739 5.15318 0
M  V30 2597 H 233.833 5.89597 5.6773 0
M  V30 2598 N 236.496 -1.42363 0.676048 0
M  V30 2599 C 237.773 -1.95183 0.127726 0
M  V30 2600 C 238.153 -1.61641 -1.35777 0
M  V30 2601 O 237.501 -0.913216 -2.09458 0
M  V30 2602 C 237.711 -3.46721 0.398199 0
M  V30 2603 C 239.059 -4.23427 0.315383 0
M  V30 2604 O 240.083 -3.54649 0.332016 0
M  V30 2605 O 238.942 -5.45888 0.25865 0
M  V30 2606 H 236.036 -0.826992 0.00359427 0
M  V30 2607 H 238.582 -1.52184 0.750864 0
M  V30 2608 H 237.354 -3.64344 1.4272 0
M  V30 2609 H 236.977 -3.96769 -0.256885 0
M  V30 2610 N 237.974 -0.419461 -1.51915 0
M  V30 2611 C 239.39 -0.0708431 -1.59443 0
M  V30 2612 C 239.59 1.41796 -1.43164 0
M  V30 2613 O 238.646 2.18596 -1.26381 0
M  V30 2614 C 239.959 -0.574991 -2.95151 0
M  V30 2615 C 241.507 -0.533867 -3.08413 0
M  V30 2616 C 241.982 -1.01469 -4.46618 0
M  V30 2617 N 243.473 -0.971939 -4.52888 0
M  V30 2618 C 244.208 -1.31505 -5.58116 0
M  V30 2619 N 243.704 -1.73014 -6.70849 0
M  V30 2620 N 245.497 -1.23436 -5.48379 0
M  V30 2621 H 237.648 -1.38836 -1.60743 0
M  V30 2622 H 239.911 -0.570998 -0.756747 0
M  V30 2623 H 239.617 -1.61597 -3.12377 0
M  V30 2624 H 239.491 0.00979777 -3.77199 0
M  V30 2625 H 241.878 0.498086 -2.90866 0
M  V30 2626 H 241.959 -1.15484 -2.28248 0
M  V30 2627 H 241.603 -2.04502 -4.6491 0
M  V30 2628 H 241.533 -0.370433 -5.25295 0
M  V30 2629 H 244.024 -0.666893 -3.71969 0
M  V30 2630 H 244.337 -1.97479 -7.47143 0
M  V30 2631 H 242.682 -1.76926 -6.72103 0
M  V30 2632 H 245.873 -0.908869 -4.59192 0
M  V30 2633 H 246.046 -1.50506 -6.30279 0
M  V30 2634 N 239.452 1.56882 -0.150215 0
M  V30 2635 C 240.362 2.20494 0.801222 0
M  V30 2636 C 241.378 1.19019 1.26927 0
M  V30 2637 O 242.554 1.51607 1.32579 0
M  V30 2638 C 239.619 2.81659 2.02161 0
M  V30 2639 C 238.68 3.9827 1.60249 0
M  V30 2640 C 237.913 4.56508 2.7647 0
M  V30 2641 O 238.136 4.13627 3.92771 0
M  V30 2642 O 237.07 5.46719 2.51757 0
M  V30 2643 H 240.896 3.02315 0.289717 0
M  V30 2644 H 238.481 1.49202 0.0769684 0
M  V30 2645 H 240.363 3.20522 2.73576 0
M  V30 2646 H 239.038 2.02849 2.52258 0
M  V30 2647 H 237.945 3.64117 0.858477 0
M  V30 2648 H 239.278 4.78609 1.14864 0
M  V30 2649 N 240.93 -0.123565 1.57115 0
M  V30 2650 C 242.155 -0.850398 1.89164 0
M  V30 2651 C 242.58 -1.7286 0.741688 0
M  V30 2652 O 241.938 -1.78665 -0.307958 0
M  V30 2653 C 241.986 -1.66353 3.19936 0
M  V30 2654 O 241.09 -2.77004 3.0552 0
M  V30 2655 H 240.431 -0.235454 0.620852 0
M  V30 2656 H 242.961 -0.107335 2.04318 0
M  V30 2657 H 242.971 -2.05372 3.52543 0
M  V30 2658 H 241.646 -1.01881 4.03228 0
M  V30 2659 H 240.223 -2.41221 2.84371 0
M  V30 2660 N 242.408 -1.52605 -0.393616 0
M  V30 2661 C 243.655 -1.67424 -1.1391 0
M  V30 2662 C 243.983 -0.411859 -1.90089 0
M  V30 2663 O 243.238 0.605626 -1.86093 0
M  V30 2664 C 243.537 -2.85721 -2.14705 0
M  V30 2665 C 243.203 -4.23342 -1.55218 0
M  V30 2666 C 241.865 -4.60771 -1.3872 0
M  V30 2667 C 244.217 -5.09041 -1.11924 0
M  V30 2668 C 241.545 -5.81563 -0.774689 0
M  V30 2669 C 243.897 -6.30452 -0.520853 0
M  V30 2670 C 242.561 -6.66617 -0.343134 0
M  V30 2671 H 241.831 -0.612648 -0.416826 0
M  V30 2672 H 244.478 -1.8674 -0.424315 0
M  V30 2673 H 242.783 -2.60803 -2.92385 0
M  V30 2674 H 244.48 -2.94382 -2.72288 0
M  V30 2675 H 241.07 -3.93855 -1.69045 0
M  V30 2676 H 245.254 -4.80695 -1.23473 0
M  V30 2677 H 240.51 -6.08196 -0.625154 0
M  V30 2678 H 244.684 -6.96175 -0.177065 0
M  V30 2679 H 242.311 -7.60083 0.133571 0
M  V30 2680 N 243.887 0.651787 -1.4349 0
M  V30 2681 C 245.112 1.44434 -1.48841 0
M  V30 2682 C 245.537 1.8779 -0.107955 0
M  V30 2683 O 244.895 1.57464 0.898602 0
M  V30 2684 C 244.943 2.65458 -2.44059 0
M  V30 2685 O 244.047 3.64566 -1.92784 0
M  V30 2686 H 243.388 0.433005 -0.503391 0
M  V30 2687 H 245.918 0.797451 -1.88419 0
M  V30 2688 H 245.928 3.13255 -2.6141 0
M  V30 2689 H 244.603 2.33244 -3.4434 0
M  V30 2690 H 243.18 3.23716 -1.851 0
M  V30 2691 N 245.365 1.30045 0.890287 0
M  V30 2692 C 246.605 1.19839 1.65584 0
M  V30 2693 C 246.969 -0.244175 1.90441 0
M  V30 2694 O 248.17 -0.469378 2.6467 0
M  V30 2695 C 246.441 1.99876 2.96284 0
M  V30 2696 S 248 2.06309 3.87275 0
M  V30 2697 H 244.818 0.427157 0.568382 0
M  V30 2698 H 247.42 1.64453 1.05715 0
M  V30 2699 H 246.124 3.03809 2.75913 0
M  V30 2700 H 245.655 1.55903 3.61189 0
M  V30 2701 H 247.67 1.18661 4.81803 0
M  V30 2702 N 246.843 -1.10192 1.12674 0
M  V30 2703 C 247.79 -2.16606 0.796906 0
M  V30 2704 C 248.76 -1.64394 -0.237476 0
M  V30 2705 O 249.945 -1.90474 -0.111484 0
M  V30 2706 C 247.085 -3.44116 0.26043 0
M  V30 2707 C 246.198 -4.10268 1.35293 0
M  V30 2708 C 245.333 -5.25507 0.775621 0
M  V30 2709 C 244.372 -5.83567 1.84706 0
M  V30 2710 N 243.509 -6.90179 1.28829 0
M  V30 2711 H 248.349 -2.44163 1.70846 0
M  V30 2712 H 245.886 -1.19846 0.85295 0
M  V30 2713 H 247.844 -4.17143 -0.0686814 0
M  V30 2714 H 246.474 -3.16901 -0.614274 0
M  V30 2715 H 245.526 -3.35184 1.79877 0
M  V30 2716 H 246.838 -4.4946 2.16303 0
M  V30 2717 H 245.992 -6.05398 0.397327 0
M  V30 2718 H 244.731 -4.87656 -0.0656581 0
M  V30 2719 H 243.736 -5.02344 2.23452 0
M  V30 2720 H 244.961 -6.23482 2.69161 0
M  V30 2721 H 242.907 -6.54322 0.468881 0
M  V30 2722 H 242.824 -7.28097 2.03497 0
M  V30 2723 H 244.092 -7.73844 0.937311 0
M  V30 2724 N 248.321 -0.919034 -1.28029 0
M  V30 2725 C 249.269 -0.401753 -2.29104 0
M  V30 2726 C 250.263 0.509354 -1.61561 0
M  V30 2727 O 251.469 0.390014 -1.75724 0
M  V30 2728 H 247.844 -0.111331 -0.743713 0
M  V30 2729 H 249.815 -1.2672 -2.70156 0
M  V30 2730 C 248.564 0.338148 -3.46052 0
M  V30 2731 H 247.887 -0.353732 -3.98232 0
M  V30 2732 H 249.327 0.664653 -4.18758 0
M  V30 2733 C 247.786 1.54798 -2.99231 0
M  V30 2734 O 248.316 2.64696 -3.02157 0
M  V30 2735 N 246.522 1.3968 -2.54829 0
M  V30 2736 H 246.069 0.502698 -2.52647 0
M  V30 2737 H 246.027 2.20755 -2.23863 0
M  V30 2738 N 249.799 1.42003 -0.683588 0
M  V30 2739 C 251.076 1.95112 -0.138075 0
M  V30 2740 C 251.456 1.62359 1.34918 0
M  V30 2741 O 250.804 0.924311 2.08971 0
M  V30 2742 C 251.014 3.46505 -0.416581 0
M  V30 2743 C 252.362 4.23254 -0.337834 0
M  V30 2744 O 253.386 3.54468 -0.35082 0
M  V30 2745 O 252.245 5.45743 -0.287596 0
M  V30 2746 H 249.339 0.826961 -0.00797996 0
M  V30 2747 H 251.885 1.51784 -0.758924 0
M  V30 2748 H 250.657 3.63582 -1.4465 0
M  V30 2749 H 250.28 3.969 0.235839 0
M  V30 2750 N 251.277 0.427512 1.51691 0
M  V30 2751 C 252.207 -0.3796 2.30394 0
M  V30 2752 C 253.188 -1.02982 1.35384 0
M  V30 2753 O 254.373 -1.03534 1.643 0
M  V30 2754 C 251.503 -1.48649 3.1388 0
M  V30 2755 C 250.457 -0.960294 4.17088 0
M  V30 2756 C 249.783 -2.16219 4.89033 0
M  V30 2757 C 251.083 -0.00153679 5.223 0
M  V30 2758 H 252.777 0.277164 2.98114 0
M  V30 2759 H 250.323 0.134739 1.43368 0
M  V30 2760 H 252.276 -2.05826 3.67714 0
M  V30 2761 H 251 -2.1714 2.43962 0
M  V30 2762 H 249.659 -0.410806 3.64291 0
M  V30 2763 H 249.307 -2.83307 4.15628 0
M  V30 2764 H 249.007 -1.81654 5.58816 0
M  V30 2765 H 250.531 -2.73968 5.45687 0
M  V30 2766 H 251.945 -0.482687 5.71264 0
M  V30 2767 H 250.342 0.256199 5.99553 0
M  V30 2768 H 251.412 0.938174 4.75738 0
M  V30 2769 N 252.755 -1.56801 0.158532 0
M  V30 2770 C 253.98 -2.01295 -0.499516 0
M  V30 2771 C 254.405 -1.03799 -1.56867 0
M  V30 2772 O 253.763 -0.0155162 -1.81293 0
M  V30 2773 C 253.811 -3.44469 -1.06647 0
M  V30 2774 O 252.915 -3.50012 -2.18095 0
M  V30 2775 H 252.256 -0.652884 -0.12099 0
M  V30 2776 H 254.786 -2.02958 0.258661 0
M  V30 2777 H 254.796 -3.8351 -1.39227 0
M  V30 2778 H 253.471 -4.14932 -0.283581 0
M  V30 2779 H 252.048 -3.22822 -1.86656 0
M  V30 2780 N 254.233 0.115231 -1.57178 0
M  V30 2781 C 255.458 0.840354 -1.89612 0
M  V30 2782 C 255.883 1.72464 -0.750845 0
M  V30 2783 O 255.241 1.78826 0.298478 0
M  V30 2784 C 255.289 1.64654 -3.20814 0
M  V30 2785 O 254.393 2.7538 -3.06985 0
M  V30 2786 H 253.734 0.232158 -0.622092 0
M  V30 2787 H 256.264 0.0964977 -2.04372 0
M  V30 2788 H 256.274 2.03499 -3.53627 0
M  V30 2789 H 254.949 0.997416 -4.03763 0
M  V30 2790 H 253.526 2.3971 -2.85646 0
M  V30 2791 N 255.711 1.52812 0.385517 0
M  V30 2792 C 256.96 1.67249 1.12741 0
M  V30 2793 C 257.273 0.4205 1.91027 0
M  V30 2794 O 258.479 0.445064 2.67827 0
M  V30 2795 C 256.935 2.95583 2.05326 0
M  V30 2796 C 256.543 4.27974 1.32447 0
M  V30 2797 C 258.287 3.19386 2.7963 0
M  V30 2798 C 256.194 5.47412 2.23818 0
M  V30 2799 H 255.124 0.6231 0.424573 0
M  V30 2800 H 257.775 1.79309 0.389924 0
M  V30 2801 H 256.157 2.77277 2.82725 0
M  V30 2802 H 257.331 4.56844 0.602495 0
M  V30 2803 H 255.646 4.10459 0.700885 0
M  V30 2804 H 258.243 4.05801 3.48181 0
M  V30 2805 H 258.586 2.34604 3.43899 0
M  V30 2806 H 259.119 3.38274 2.09322 0
M  V30 2807 H 255.858 6.34612 1.64157 0
M  V30 2808 H 255.378 5.22849 2.93921 0
M  V30 2809 H 257.057 5.81423 2.83824 0
M  V30 2810 N 257.189 -0.644168 1.43834 0
M  V30 2811 C 258.419 -1.42939 1.49171 0
M  V30 2812 C 258.827 -1.88874 0.111048 0
M  V30 2813 O 258.17 -1.60656 -0.8908 0
M  V30 2814 C 258.232 -2.69151 2.38324 0
M  V30 2815 C 257.896 -2.45097 3.85715 0
M  V30 2816 C 258.893 -2.07747 4.76589 0
M  V30 2817 C 256.578 -2.59141 4.30292 0
M  V30 2818 C 258.572 -1.8475 6.10038 0
M  V30 2819 C 256.259 -2.35759 5.63792 0
M  V30 2820 C 257.257 -1.9862 6.53482 0
M  V30 2821 O 256.945 -1.75489 7.84512 0
M  V30 2822 H 256.677 -0.445271 0.508635 0
M  V30 2823 H 259.231 -0.79621 1.8934 0
M  V30 2824 H 257.461 -3.3506 1.93058 0
M  V30 2825 H 259.15 -3.31123 2.3476 0
M  V30 2826 H 259.916 -1.96465 4.43426 0
M  V30 2827 H 255.795 -2.87022 3.60749 0
M  V30 2828 H 259.339 -1.55686 6.80006 0
M  V30 2829 H 255.236 -2.46646 5.9652 0
M  V30 2830 H 256.004 -1.89841 7.9618 0
M  V30 2831 N 258.668 -1.30515 -0.883378 0
M  V30 2832 C 259.916 -1.19194 -1.63209 0
M  V30 2833 C 260.237 0.253205 -1.93349 0
M  V30 2834 O 259.507 1.17025 -1.57105 0
M  V30 2835 H 258.087 -0.438148 -0.605009 0
M  V30 2836 H 260.749 -1.63663 -1.05832 0
M  V30 2837 H 259.845 -1.75396 -2.58153 0
M  V30 2838 N 260.146 1.09593 -1.13257 0
M  V30 2839 C 261.094 2.18271 -0.803783 0
M  V30 2840 C 262.088 1.68054 0.213148 0
M  V30 2841 O 263.294 1.79862 0.0704699 0
M  V30 2842 H 259.669 0.711949 -0.242143 0
M  V30 2843 H 261.64 2.43235 -1.72856 0
M  V30 2844 C 260.389 3.46536 -0.28424 0
M  V30 2845 H 259.712 3.85545 -1.05807 0
M  V30 2846 H 261.152 4.23899 -0.0925945 0
M  V30 2847 C 259.611 3.22036 0.989684 0
M  V30 2848 O 260.141 3.44509 2.06584 0
M  V30 2849 N 258.347 2.7565 0.920086 0
M  V30 2850 H 257.894 2.57562 0.0442019 0
M  V30 2851 H 257.852 2.59635 1.77306 0
M  V30 2852 N 261.624 0.925811 1.2754 0
M  V30 2853 C 262.574 0.394488 2.24561 0
M  V30 2854 C 263.558 -0.500183 1.52928 0
M  V30 2855 O 264.75 -0.337936 1.73744 0
M  V30 2856 C 261.879 -0.353328 3.41477 0
M  V30 2857 C 260.965 0.557752 4.20416 0
M  V30 2858 N 261.356 1.67674 4.77199 0
M  V30 2859 C 259.654 0.360404 4.44541 0
M  V30 2860 C 260.355 2.24324 5.36706 0
M  V30 2861 N 259.331 1.53305 5.21535 0
M  V30 2862 H 263.133 1.2489 2.66045 0
M  V30 2863 H 260.647 0.779864 1.4245 0
M  V30 2864 H 262.644 -0.7509 4.10082 0
M  V30 2865 H 261.304 -1.20469 3.01525 0
M  V30 2866 H 262.315 2.05915 4.75204 0
M  V30 2867 H 258.992 -0.450454 4.15063 0
M  V30 2868 H 260.382 3.18521 5.91603 0
M  V30 2869 N 263.102 -1.41638 0.69111 0
M  V30 2870 C 264.348 -2.01598 0.220519 0
M  V30 2871 C 264.681 -1.54594 -1.17535 0
M  V30 2872 O 263.956 -0.755177 -1.79241 0
M  V30 2873 C 264.239 -3.59062 0.273243 0
M  V30 2874 C 264.092 -4.16203 1.70573 0
M  V30 2875 C 265.411 -4.38546 -0.369457 0
M  V30 2876 H 262.53 -0.732468 0.0816045 0
M  V30 2877 H 265.172 -1.68445 0.878986 0
M  V30 2878 H 263.322 -3.87435 -0.287411 0
M  V30 2879 H 264.994 -3.98722 2.31989 0
M  V30 2880 H 263.237 -3.71414 2.2413 0
M  V30 2881 H 263.908 -5.25358 1.69419 0
M  V30 2882 H 266.384 -4.1596 0.107977 0
M  V30 2883 H 265.26 -5.48069 -0.302002 0
M  V30 2884 H 265.521 -4.17662 -1.44951 0
M  V30 2885 N 264.58 -0.43555 -1.51462 0
M  V30 2886 C 265.826 0.131709 -2.02372 0
M  V30 2887 C 266.159 1.42516 -1.3192 0
M  V30 2888 O 265.434 1.89606 -0.433573 0
M  V30 2889 C 265.717 0.352301 -3.58373 0
M  V30 2890 C 265.57 -0.959676 -4.39443 0
M  V30 2891 C 266.889 1.12286 -4.25535 0
M  V30 2892 H 264.008 0.0463936 -0.735538 0
M  V30 2893 H 266.65 -0.574197 -1.81116 0
M  V30 2894 H 264.8 0.9536 -3.76615 0
M  V30 2895 H 266.472 -1.59482 -4.32855 0
M  V30 2896 H 264.715 -1.56468 -4.04599 0
M  V30 2897 H 265.386 -0.759394 -5.46752 0
M  V30 2898 H 267.862 0.613545 -4.11552 0
M  V30 2899 H 266.738 1.24598 -5.34571 0
M  V30 2900 H 266.999 2.15048 -3.86273 0
M  V30 2901 N 266.058 1.56714 -0.166846 0
M  V30 2902 C 267.006 2.19056 0.782123 0
M  V30 2903 C 268 1.15328 1.24079 0
M  V30 2904 O 269.206 1.33537 1.20697 0
M  V30 2905 H 265.581 0.70167 0.270486 0
M  V30 2906 H 267.552 2.97494 0.232322 0
M  V30 2907 C 266.301 2.84206 2.00306 0
M  V30 2908 H 265.624 3.63748 1.65914 0
M  V30 2909 H 267.064 3.31302 2.64604 0
M  V30 2910 C 265.523 1.83744 2.82382 0
M  V30 2911 O 266.053 1.32014 3.79388 0
M  V30 2912 N 264.259 1.52601 2.47308 0
M  V30 2913 H 263.806 1.9486 1.68485 0
M  V30 2914 H 263.764 0.856351 3.02513 0
M  V30 2915 N 267.536 -0.106894 1.57237 0
M  V30 2916 C 268.483 -1.13049 2.01217 0
M  V30 2917 C 269.453 -1.40471 0.886403 0
M  V30 2918 O 270.638 -1.52133 1.15153 0
M  V30 2919 C 267.778 -2.4487 2.43172 0
M  V30 2920 C 266.891 -2.24281 3.69218 0
M  V30 2921 C 266.026 -3.49417 4.00101 0
M  V30 2922 C 265.065 -3.24038 5.19294 0
M  V30 2923 N 264.202 -4.41409 5.45988 0
M  V30 2924 H 269.042 -0.748456 2.88448 0
M  V30 2925 H 266.579 -0.358054 1.42676 0
M  V30 2926 H 268.537 -3.21786 2.65537 0
M  V30 2927 H 267.167 -2.80944 1.58967 0
M  V30 2928 H 266.219 -1.38224 3.54398 0
M  V30 2929 H 267.531 -2.01512 4.56283 0
M  V30 2930 H 266.685 -4.34746 4.2318 0
M  V30 2931 H 265.424 -3.75229 3.11535 0
M  V30 2932 H 264.429 -2.37102 4.96047 0
M  V30 2933 H 265.654 -2.99584 6.09447 0
M  V30 2934 H 263.6 -4.67319 4.60379 0
M  V30 2935 H 263.517 -4.21788 6.274 0
M  V30 2936 H 264.785 -5.27836 5.73593 0
M  V30 2937 N 269.014 -1.53014 -0.377408 0
M  V30 2938 C 270.26 -1.68872 -1.12294 0
M  V30 2939 C 270.593 -0.433224 -1.89306 0
M  V30 2940 O 269.868 0.569258 -1.85983 0
M  V30 2941 C 270.151 -2.93115 -2.09179 0
M  V30 2942 C 270.004 -4.28794 -1.35853 0
M  V30 2943 C 271.323 -3.12928 -3.09458 0
M  V30 2944 H 268.442 -0.614518 -0.406862 0
M  V30 2945 H 271.084 -1.85633 -0.40503 0
M  V30 2946 H 269.234 -2.78956 -2.70399 0
M  V30 2947 H 270.906 -4.54742 -0.775082 0
M  V30 2948 H 269.149 -4.28744 -0.660364 0
M  V30 2949 H 269.82 -5.11837 -2.06706 0
M  V30 2950 H 272.296 -3.26194 -2.58334 0
M  V30 2951 H 271.172 -4.01316 -3.74482 0
M  V30 2952 H 271.433 -2.27669 -3.78971 0
M  V30 2953 N 270.492 0.636531 -1.44174 0
M  V30 2954 C 271.402 1.77754 -1.53103 0
M  V30 2955 C 272.418 1.68928 -0.417034 0
M  V30 2956 O 273.594 1.89801 -0.6736 0
M  V30 2957 C 270.659 3.14115 -1.46741 0
M  V30 2958 C 269.72 3.34612 -2.68948 0
M  V30 2959 C 268.953 4.64467 -2.6288 0
M  V30 2960 O 269.176 5.44919 -1.68581 0
M  V30 2961 O 268.11 4.87049 -3.53648 0
M  V30 2962 H 271.936 1.73174 -2.49489 0
M  V30 2963 H 269.521 0.79709 -1.2636 0
M  V30 2964 H 271.403 3.95412 -1.45696 0
M  V30 2965 H 270.078 3.19249 -0.534975 0
M  V30 2966 H 268.985 2.53014 -2.75562 0
M  V30 2967 H 270.318 3.34336 -3.61221 0
M  V30 2968 N 271.97 1.30982 0.876444 0
M  V30 2969 C 273.381 1.18277 1.44456 0
M  V30 2970 C 273.732 -0.213265 1.95037 0
M  V30 2971 O 272.857 -1.11057 1.85729 0
M  V30 2972 C 273.452 2.1411 2.62569 0
M  V30 2973 C 272.011 2.05358 3.15444 0
M  V30 2974 C 271.158 2.03706 1.88146 0
M  V30 2975 H 274.109 1.43127 0.685584 0
M  V30 2976 H 274.13 1.72692 3.39054 0
M  V30 2977 H 273.642 3.15706 2.25724 0
M  V30 2978 H 271.743 1.06934 3.56926 0
M  V30 2979 H 271.856 2.94156 3.78166 0
M  V30 2980 H 270.22 1.48629 2.06837 0
M  V30 2981 H 271.003 3.07047 1.53547 0
M  V30 2982 N 273.449 -1.08991 1.13837 0
M  V30 2983 C 274.399 -2.1393 0.788535 0
M  V30 2984 C 275.383 -1.59396 -0.219516 0
M  V30 2985 O 276.575 -1.76985 -0.0227557 0
M  V30 2986 C 273.704 -3.42305 0.261147 0
M  V30 2987 C 272.79 -4.03736 1.29837 0
M  V30 2988 N 273.181 -4.39659 2.50067 0
M  V30 2989 C 271.479 -4.30993 1.1472 0
M  V30 2990 C 272.18 -4.88113 3.16419 0
M  V30 2991 N 271.156 -4.85846 2.43832 0
M  V30 2992 H 274.958 -2.39516 1.70322 0
M  V30 2993 H 272.472 -1.26263 1.02134 0
M  V30 2994 H 274.469 -4.16899 -0.0077405 0
M  V30 2995 H 273.129 -3.18172 -0.647805 0
M  V30 2996 H 274.14 -4.30878 2.8734 0
M  V30 2997 H 270.817 -4.16444 0.296773 0
M  V30 2998 H 272.207 -5.25336 4.18894 0
M  V30 2999 N 274.927 -0.932562 -1.27047 0
M  V30 3000 C 275.874 -0.434072 -2.26681 0
M  V30 3001 C 276.844 0.501639 -1.58344 0
M  V30 3002 O 278.029 0.419734 -1.86126 0
M  V30 3003 C 275.169 0.30261 -3.43771 0
M  V30 3004 C 274.282 -0.667774 -4.26808 0
M  V30 3005 C 273.417 0.0892393 -5.31125 0
M  V30 3006 C 272.456 -0.873532 -6.05835 0
M  V30 3007 N 271.593 -0.148832 -7.01942 0
M  V30 3008 H 276.433 -1.28868 -2.68695 0
M  V30 3009 H 273.97 -0.646713 -1.32121 0
M  V30 3010 H 275.928 0.746092 -4.10474 0
M  V30 3011 H 274.558 1.12142 -3.02695 0
M  V30 3012 H 273.61 -1.22978 -3.59973 0
M  V30 3013 H 274.922 -1.40337 -4.78651 0
M  V30 3014 H 274.076 0.592409 -6.03801 0
M  V30 3015 H 272.815 0.85777 -4.80097 0
M  V30 3016 H 271.82 -1.38791 -5.31994 0
M  V30 3017 H 273.045 -1.64193 -6.58952 0
M  V30 3018 H 270.991 0.601365 -6.53238 0
M  V30 3019 H 270.908 -0.82391 -7.51497 0
M  V30 3020 H 272.176 0.333527 -7.78786 0
M  V30 3021 N 276.405 1.4127 -0.698611 0
M  V30 3022 C 277.682 1.94955 -0.158762 0
M  V30 3023 C 278.062 1.63781 1.33188 0
M  V30 3024 O 277.41 0.946423 2.07979 0
M  V30 3025 C 277.62 3.46044 -0.453309 0
M  V30 3026 C 278.968 4.22872 -0.382707 0
M  V30 3027 O 279.992 3.54076 -0.388396 0
M  V30 3028 O 278.851 5.45407 -0.345463 0
M  V30 3029 H 275.945 0.82683 -0.0167505 0
M  V30 3030 H 278.491 1.50971 -0.77498 0
M  V30 3031 H 277.263 3.62028 -1.48498 0
M  V30 3032 H 276.886 3.97128 0.19373 0
M  V30 3033 N 277.883 0.443576 1.51229 0
M  V30 3034 C 278.833 -0.382787 2.24764 0
M  V30 3035 C 279.817 -0.984836 1.27239 0
M  V30 3036 O 281.009 -0.901943 1.52296 0
M  V30 3037 C 278.138 -1.47989 3.09765 0
M  V30 3038 C 277.224 -0.886931 4.14722 0
M  V30 3039 N 277.615 -0.0237103 5.05794 0
M  V30 3040 C 275.913 -1.15385 4.30816 0
M  V30 3041 C 276.614 0.309971 5.80874 0
M  V30 3042 N 275.59 -0.307989 5.42727 0
M  V30 3043 H 279.392 0.282624 2.92538 0
M  V30 3044 H 276.906 0.256027 1.60369 0
M  V30 3045 H 278.903 -2.08482 3.61027 0
M  V30 3046 H 277.563 -2.14758 2.43535 0
M  V30 3047 H 278.574 0.34318 5.16762 0
M  V30 3048 H 275.251 -1.81857 3.75812 0
M  V30 3049 H 276.641 1.01279 6.64223 0
M  V30 3050 N 279.361 -1.56624 0.175154 0
M  V30 3051 C 280.608 -1.96999 -0.468811 0
M  V30 3052 C 280.936 -1.06129 -1.62994 0
M  V30 3053 O 280.191 -0.0961771 -1.95464 0
M  V30 3054 C 280.49 -3.43419 -0.989864 0
M  V30 3055 C 280.156 -4.50866 0.0557687 0
M  V30 3056 C 278.818 -4.79975 0.343134 0
M  V30 3057 C 281.17 -5.15551 0.765308 0
M  V30 3058 C 278.498 -5.71066 1.34536 0
M  V30 3059 C 280.85 -6.07724 1.75654 0
M  V30 3060 C 279.514 -6.35199 2.05132 0
M  V30 3061 H 278.784 -0.720869 -0.17155 0
M  V30 3062 H 281.431 -1.89616 0.267924 0
M  V30 3063 H 279.736 -3.47772 -1.80449 0
M  V30 3064 H 281.433 -3.72002 -1.49719 0
M  V30 3065 H 278.023 -4.28229 -0.178381 0
M  V30 3066 H 282.207 -4.9317 0.556513 0
M  V30 3067 H 277.463 -5.90635 1.57988 0
M  V30 3068 H 281.637 -6.56912 2.31169 0
M  V30 3069 H 279.264 -7.05584 2.8294 0
M  V30 3070 N 280.839 0.0985539 -1.57292 0
M  V30 3071 C 281.787 1.1387 -2.02821 0
M  V30 3072 C 282.781 1.41676 -0.928666 0
M  V30 3073 O 283.987 1.41398 -1.11385 0
M  V30 3074 H 280.362 0.384419 -0.646317 0
M  V30 3075 H 282.333 0.728347 -2.89375 0
M  V30 3076 C 281.082 2.45166 -2.46554 0
M  V30 3077 H 280.405 2.24613 -3.3074 0
M  V30 3078 H 281.845 3.16456 -2.8219 0
M  V30 3079 C 280.304 3.09216 -1.33742 0
M  V30 3080 O 280.834 3.96163 -0.66464 0
M  V30 3081 N 279.04 2.69413 -1.08928 0
M  V30 3082 H 278.587 1.98801 -1.63817 0
M  V30 3083 H 278.545 3.12594 -0.336458 0
M  V30 3084 N 282.317 1.53212 0.369288 0
M  V30 3085 C 283.265 1.80054 1.47253 0
M  V30 3086 C 284.259 0.669456 1.55611 0
M  V30 3087 O 285.465 0.852328 1.58541 0
M  V30 3088 H 281.84 0.570034 0.490475 0
M  V30 3089 H 283.811 2.72403 1.21817 0
M  V30 3090 C 282.56 2.00403 2.84137 0
M  V30 3091 H 281.883 2.86876 2.78464 0
M  V30 3092 H 283.323 2.23164 3.60519 0
M  V30 3093 C 281.782 0.782081 3.27697 0
M  V30 3094 O 282.312 -0.0310205 4.01688 0
M  V30 3095 N 280.518 0.606573 2.84199 0
M  V30 3096 H 280.065 1.26939 2.24152 0
M  V30 3097 H 280.023 -0.20962 3.137 0
M  V30 3098 N 283.795 -0.628877 1.44509 0
M  V30 3099 C 285.206 -1.21054 1.42137 0
M  V30 3100 C 285.557 -1.95715 0.137881 0
M  V30 3101 O 284.682 -2.02554 -0.761645 0
M  V30 3102 C 285.277 -2.20189 2.57493 0
M  V30 3103 C 283.836 -2.73777 2.58308 0
M  V30 3104 C 282.983 -1.48813 2.33987 0
M  V30 3105 H 285.934 -0.41942 1.53057 0
M  V30 3106 H 285.955 -3.02833 2.30375 0
M  V30 3107 H 285.467 -1.6582 3.50892 0
M  V30 3108 H 283.568 -3.32142 1.68856 0
M  V30 3109 H 283.681 -3.19662 3.56865 0
M  V30 3110 H 282.045 -1.77024 1.83124 0
M  V30 3111 H 282.828 -0.963442 3.29504 0
M  V30 3112 N 285.273 -1.31445 -0.869486 0
M  V30 3113 C 286.221 -1.19067 -1.99814 0
M  V30 3114 C 287.215 -0.0988569 -1.69111 0
M  V30 3115 O 288.421 -0.260781 -1.78101 0
M  V30 3116 H 284.796 -0.368677 -0.655425 0
M  V30 3117 H 286.767 -2.14555 -2.07385 0
M  V30 3118 C 285.516 -0.915323 -3.35436 0
M  V30 3119 H 284.839 -1.74759 -3.59582 0
M  V30 3120 H 286.279 -0.868895 -4.15001 0
M  V30 3121 C 284.738 0.381928 -3.34728 0
M  V30 3122 O 285.268 1.39857 -3.76567 0
M  V30 3123 N 283.474 0.398633 -2.87853 0
M  V30 3124 H 283.021 -0.429186 -2.54 0
M  V30 3125 H 282.979 1.26651 -2.87762 0
M  V30 3126 N 286.751 1.08385 -1.14413 0
M  V30 3127 C 287.699 2.17406 -0.826888 0
M  V30 3128 C 288.693 1.6827 0.195312 0
M  V30 3129 O 289.899 1.79927 0.0513892 0
M  V30 3130 H 286.274 0.70934 -0.249681 0
M  V30 3131 H 288.245 2.41388 -1.75426 0
M  V30 3132 C 286.994 3.46215 -0.320979 0
M  V30 3133 H 286.317 3.84401 -1.0989 0
M  V30 3134 H 287.757 4.23777 -0.137549 0
M  V30 3135 C 286.216 3.23067 0.955472 0
M  V30 3136 O 286.746 3.4668 2.02918 0
M  V30 3137 N 284.952 2.7661 0.890798 0
M  V30 3138 H 284.499 2.57594 0.0168815 0
M  V30 3139 H 284.457 2.61501 1.74542 0
M  V30 3140 N 288.23 0.939286 1.26551 0
M  V30 3141 C 289.14 0.453432 2.30176 0
M  V30 3142 C 290.156 -0.471649 1.67486 0
M  V30 3143 O 291.332 -0.35164 1.98306 0
M  V30 3144 C 288.397 -0.275326 3.45605 0
M  V30 3145 C 287.458 0.686084 4.23782 0
M  V30 3146 C 286.691 -0.00798994 5.33699 0
M  V30 3147 O 286.914 -1.22528 5.57085 0
M  V30 3148 O 285.848 0.669746 5.98162 0
M  V30 3149 H 289.674 1.31416 2.73795 0
M  V30 3150 H 287.259 0.705095 1.31715 0
M  V30 3151 H 289.141 -0.685911 4.1578 0
M  V30 3152 H 287.816 -1.11147 3.0402 0
M  V30 3153 H 286.723 1.14658 3.56096 0
M  V30 3154 H 288.056 1.48979 4.69112 0
M  V30 3155 N 289.708 -1.40897 0.706093 0
M  V30 3156 C 290.938 -2.05075 0.250523 0
M  V30 3157 C 291.346 -1.53275 -1.10921 0
M  V30 3158 O 290.689 -0.680281 -1.7064 0
M  V30 3159 C 290.751 -3.59219 0.142178 0
M  V30 3160 C 290.415 -4.33864 1.43566 0
M  V30 3161 C 291.412 -4.62448 2.37566 0
M  V30 3162 C 289.097 -4.72946 1.69195 0
M  V30 3163 C 291.091 -5.29088 3.5545 0
M  V30 3164 C 288.778 -5.3932 2.87362 0
M  V30 3165 C 289.776 -5.6732 3.80312 0
M  V30 3166 O 289.464 -6.32325 4.96408 0
M  V30 3167 H 289.196 -0.666645 0.112074 0
M  V30 3168 H 291.75 -1.81467 0.962239 0
M  V30 3169 H 289.98 -3.81609 -0.6254 0
M  V30 3170 H 291.669 -4.0495 -0.277584 0
M  V30 3171 H 292.435 -4.32727 2.19027 0
M  V30 3172 H 288.314 -4.50527 0.977042 0
M  V30 3173 H 291.858 -5.50859 4.28018 0
M  V30 3174 H 287.755 -5.68461 3.05814 0
M  V30 3175 H 288.523 -6.50821 4.9636 0
M  V30 3176 N 291.186 -0.45159 -1.50991 0
M  V30 3177 C 292.116 0.342898 -2.30969 0
M  V30 3178 C 293.097 1.00815 -1.37005 0
M  V30 3179 O 294.282 1.00907 -1.65926 0
M  V30 3180 C 291.412 1.43637 -3.16205 0
M  V30 3181 C 290.366 0.893818 -4.18563 0
M  V30 3182 C 289.692 2.08411 -4.92411 0
M  V30 3183 C 290.992 -0.0815568 -5.22236 0
M  V30 3184 H 292.686 -0.324556 -2.97636 0
M  V30 3185 H 290.232 -0.157531 -1.43136 0
M  V30 3186 H 292.185 1.9995 -3.70942 0
M  V30 3187 H 290.909 2.13232 -2.47386 0
M  V30 3188 H 289.568 0.352798 -3.64898 0
M  V30 3189 H 289.216 2.76658 -4.20082 0
M  V30 3190 H 288.916 1.72741 -5.61636 0
M  V30 3191 H 290.44 2.65251 -5.49976 0
M  V30 3192 H 291.854 0.391742 -5.7196 0
M  V30 3193 H 290.251 -0.351551 -5.99069 0
M  V30 3194 H 291.321 -1.01374 -4.74185 0
M  V30 3195 N 292.664 1.56529 -0.183458 0
M  V30 3196 C 293.913 1.96419 0.458511 0
M  V30 3197 C 294.226 1.0727 1.63562 0
M  V30 3198 O 295.432 1.36893 2.34462 0
M  V30 3199 C 293.888 3.49298 0.867122 0
M  V30 3200 C 293.496 4.47092 -0.285057 0
M  V30 3201 C 295.24 3.97983 1.47683 0
M  V30 3202 C 293.147 5.91225 0.143862 0
M  V30 3203 H 292.077 0.733394 0.175071 0
M  V30 3204 H 294.728 1.81448 -0.273624 0
M  V30 3205 H 293.11 3.59731 1.65559 0
M  V30 3206 H 294.284 4.48383 -1.0625 0
M  V30 3207 H 292.599 4.08535 -0.805503 0
M  V30 3208 H 295.196 5.03134 1.80999 0
M  V30 3209 H 295.539 3.41618 2.37914 0
M  V30 3210 H 296.072 3.90617 0.752562 0
M  V30 3211 H 292.811 6.5149 -0.723974 0
M  V30 3212 H 292.331 5.93214 0.886413 0
M  V30 3213 H 294.01 6.44362 0.583628 0
M  V30 3214 N 294.142 -0.090211 1.57342 0
M  V30 3215 C 295.09 -1.12792 2.03422 0
M  V30 3216 C 296.084 -1.41182 0.936166 0
M  V30 3217 O 297.29 -1.40805 1.12133 0
M  V30 3218 H 293.665 -0.380986 0.648347 0
M  V30 3219 H 295.636 -0.71299 2.89757 0
M  V30 3220 C 294.385 -2.43855 2.47851 0
M  V30 3221 H 293.708 -2.22855 3.31927 0
M  V30 3222 H 295.148 -3.14955 2.83865 0
M  V30 3223 C 293.607 -3.08503 1.3538 0
M  V30 3224 O 294.137 -3.95805 0.685641 0
M  V30 3225 N 292.343 -2.68831 1.10355 0
M  V30 3226 H 291.89 -1.97929 1.64869 0
M  V30 3227 H 291.848 -3.12412 0.353031 0
M  V30 3228 N 295.62 -1.53406 -0.361157 0
M  V30 3229 C 296.897 -1.60411 -1.11927 0
M  V30 3230 C 297.277 -0.414385 -2.06993 0
M  V30 3231 O 296.625 0.594976 -2.20618 0
M  V30 3232 C 296.835 -2.95652 -1.85448 0
M  V30 3233 C 298.183 -3.50386 -2.39823 0
M  V30 3234 O 299.207 -2.97711 -1.95568 0
M  V30 3235 O 298.066 -4.42482 -3.20737 0
M  V30 3236 H 295.16 -0.64811 -0.513695 0
M  V30 3237 H 297.706 -1.65749 -0.364065 0
M  V30 3238 H 296.478 -3.73682 -1.16091 0
M  V30 3239 H 296.101 -2.93825 -2.67866 0
M  V30 3240 N 297.098 0.621204 -1.44841 0
M  V30 3241 C 298.375 1.38 -1.38619 0
M  V30 3242 C 298.755 2.11041 -0.0498935 0
M  V30 3243 O 298.103 2.06992 0.967816 0
M  V30 3244 C 298.313 2.33817 -2.59096 0
M  V30 3245 C 299.661 2.96844 -3.03593 0
M  V30 3246 O 300.685 2.44141 -2.59371 0
M  V30 3247 O 299.544 3.92476 -3.80296 0
M  V30 3248 H 296.638 0.61811 -0.549426 0
M  V30 3249 H 299.184 0.645429 -1.56947 0
M  V30 3250 H 297.956 1.79012 -3.47952 0
M  V30 3251 H 297.579 3.14676 -2.43032 0
M  V30 3252 N 298.576 1.31904 0.862503 0
M  V30 3253 C 299.801 1.25135 1.65397 0
M  V30 3254 C 300.226 -0.179 1.87246 0
M  V30 3255 O 299.584 -1.1277 1.4196 0
M  V30 3256 C 299.632 2.00832 2.99498 0
M  V30 3257 O 298.736 1.35075 3.89652 0
M  V30 3258 H 298.077 0.431655 0.504549 0
M  V30 3259 H 300.607 1.74094 1.07483 0
M  V30 3260 H 300.617 2.10709 3.49379 0
M  V30 3261 H 299.292 3.04847 2.82916 0
M  V30 3262 H 297.869 1.33696 3.48109 0
M  V30 3263 N 300.054 -1.07777 1.14986 0
M  V30 3264 C 301.001 -2.14867 0.842672 0
M  V30 3265 C 301.971 -1.6486 -0.202552 0
M  V30 3266 O 303.156 -1.90668 -0.0710568 0
M  V30 3267 C 300.296 -3.43486 0.333363 0
M  V30 3268 C 299.409 -4.07306 1.43965 0
M  V30 3269 C 298.544 -5.23744 0.886914 0
M  V30 3270 C 297.583 -5.79517 1.97043 0
M  V30 3271 N 296.72 -6.87291 1.4344 0
M  V30 3272 H 301.56 -2.40485 1.75986 0
M  V30 3273 H 299.097 -1.1801 0.878179 0
M  V30 3274 H 301.055 -4.17195 0.0198163 0
M  V30 3275 H 299.685 -3.18133 -0.546916 0
M  V30 3276 H 298.737 -3.31293 1.86946 0
M  V30 3277 H 300.049 -4.44771 2.25788 0
M  V30 3278 H 299.203 -6.04419 0.525651 0
M  V30 3279 H 297.942 -4.87685 0.0377957 0
M  V30 3280 H 296.947 -4.97491 2.34057 0
M  V30 3281 H 298.172 -6.17632 2.82325 0
M  V30 3282 H 296.118 -6.5318 0.607567 0
M  V30 3283 H 296.035 -7.23617 2.18895 0
M  V30 3284 H 297.303 -7.71682 1.10124 0
M  V30 3285 N 301.532 -0.945985 -1.26051 0
M  V30 3286 C 302.479 -0.45809 -2.26208 0
M  V30 3287 C 303.449 0.484816 -1.58867 0
M  V30 3288 O 304.634 0.399969 -1.86561 0
M  V30 3289 C 301.774 0.266131 -3.44072 0
M  V30 3290 C 300.887 -0.713005 -4.26075 0
M  V30 3291 C 300.022 0.0329013 -5.3119 0
M  V30 3292 C 299.061 -0.93774 -6.04874 0
M  V30 3293 N 298.198 -0.223274 -7.01745 0
M  V30 3294 H 303.038 -1.3171 -2.67313 0
M  V30 3295 H 300.575 -0.66069 -1.31428 0
M  V30 3296 H 302.533 0.702514 -4.11243 0
M  V30 3297 H 301.163 1.08925 -3.03867 0
M  V30 3298 H 300.215 -1.26789 -3.58648 0
M  V30 3299 H 301.527 -1.45406 -4.77136 0
M  V30 3300 H 300.681 0.528335 -6.04395 0
M  V30 3301 H 299.42 0.806801 -4.8098 0
M  V30 3302 H 298.425 -1.44425 -5.30492 0
M  V30 3303 H 299.65 -1.71172 -6.57173 0
M  V30 3304 H 297.596 0.532046 -6.53839 0
M  V30 3305 H 297.513 -0.90357 -7.50581 0
M  V30 3306 H 298.781 0.250907 -7.79096 0
M  V30 3307 N 303.011 1.40521 -0.713556 0
M  V30 3308 C 304.257 2.01221 -0.252564 0
M  V30 3309 C 304.59 1.56444 1.1506 0
M  V30 3310 O 303.865 0.783597 1.78017 0
M  V30 3311 C 304.148 3.58582 -0.330332 0
M  V30 3312 C 304.001 4.13437 -1.77173 0
M  V30 3313 C 305.32 4.39079 0.299641 0
M  V30 3314 H 302.439 0.731077 -0.0932471 0
M  V30 3315 H 305.081 1.67026 -0.905673 0
M  V30 3316 H 303.231 3.87844 0.225737 0
M  V30 3317 H 304.903 3.9498 -2.38303 0
M  V30 3318 H 303.146 3.67801 -2.3001 0
M  V30 3319 H 303.817 5.22597 -1.77755 0
M  V30 3320 H 306.293 4.15735 -0.174139 0
M  V30 3321 H 305.169 5.4848 0.214771 0
M  V30 3322 H 305.43 4.19915 1.38288 0
M  V30 3323 N 304.489 0.459591 1.5075 0
M  V30 3324 C 305.436 -0.340524 2.28274 0
M  V30 3325 C 306.406 -0.997371 1.32822 0
M  V30 3326 O 307.591 -1.01202 1.61749 0
M  V30 3327 C 304.731 -1.42317 3.14388 0
M  V30 3328 C 303.844 -0.782251 4.24859 0
M  V30 3329 C 302.979 -1.84182 4.98247 0
M  V30 3330 C 302.018 -1.18053 6.00608 0
M  V30 3331 N 301.155 -2.18244 6.67319 0
M  V30 3332 H 305.995 0.326899 2.96202 0
M  V30 3333 H 303.532 0.173057 1.46078 0
M  V30 3334 H 305.49 -2.06241 3.62658 0
M  V30 3335 H 304.12 -2.05992 2.4853 0
M  V30 3336 H 303.172 -0.0307404 3.80388 0
M  V30 3337 H 304.484 -0.259663 4.98124 0
M  V30 3338 H 303.638 -2.55714 5.50177 0
M  V30 3339 H 302.377 -2.39819 4.24662 0
M  V30 3340 H 301.382 -0.450776 5.47949 0
M  V30 3341 H 302.607 -0.631202 6.7616 0
M  V30 3342 H 300.553 -2.72919 5.96533 0
M  V30 3343 H 300.47 -1.70938 7.36421 0
M  V30 3344 H 301.738 -2.89191 7.23871 0
M  V30 3345 N 305.967 -1.56429 0.191757 0
M  V30 3346 C 306.914 -2.18936 -0.730454 0
M  V30 3347 C 307.884 -1.13557 -1.21219 0
M  V30 3348 O 309.069 -1.41794 -1.27668 0
M  V30 3349 C 306.209 -2.85013 -1.9458 0
M  V30 3350 C 305.322 -4.04909 -1.50574 0
M  V30 3351 C 304.457 -4.58853 -2.67634 0
M  V30 3352 C 303.496 -5.71114 -2.20217 0
M  V30 3353 N 302.633 -6.19478 -3.30442 0
M  V30 3354 H 307.473 -2.97389 -0.190664 0
M  V30 3355 H 305.01 -1.46869 -0.0823694 0
M  V30 3356 H 306.968 -3.21492 -2.65893 0
M  V30 3357 H 305.598 -2.09129 -2.45896 0
M  V30 3358 H 304.65 -3.74115 -0.688605 0
M  V30 3359 H 305.962 -4.86113 -1.11784 0
M  V30 3360 H 305.116 -4.97619 -3.47074 0
M  V30 3361 H 303.855 -3.76749 -3.09696 0
M  V30 3362 H 302.86 -5.31879 -1.3923 0
M  V30 3363 H 304.085 -6.55033 -1.79189 0
M  V30 3364 H 302.031 -5.40297 -3.72041 0
M  V30 3365 H 301.948 -6.95725 -2.9581 0
M  V30 3366 H 303.216 -6.62898 -4.10106 0
M  V30 3367 N 307.445 0.0818655 -1.57387 0
M  V30 3368 C 308.392 1.09834 -2.0299 0
M  V30 3369 C 309.362 1.39043 -0.908639 0
M  V30 3370 O 310.547 1.50282 -1.17559 0
M  V30 3371 C 307.687 2.40971 -2.47037 0
M  V30 3372 C 306.8 2.18379 -3.7274 0
M  V30 3373 C 305.935 3.43008 -4.0561 0
M  V30 3374 C 304.974 3.15736 -5.24383 0
M  V30 3375 N 304.111 4.32667 -5.52941 0
M  V30 3376 H 308.951 0.702472 -2.89602 0
M  V30 3377 H 306.488 0.33531 -1.43227 0
M  V30 3378 H 308.446 3.1752 -2.70623 0
M  V30 3379 H 307.076 2.78379 -1.63417 0
M  V30 3380 H 306.128 1.32569 -3.56552 0
M  V30 3381 H 307.44 1.94227 -4.59431 0
M  V30 3382 H 306.594 4.27958 -4.30043 0
M  V30 3383 H 305.333 3.70225 -3.17466 0
M  V30 3384 H 304.338 2.2918 -4.99757 0
M  V30 3385 H 305.563 2.8985 -6.14136 0
M  V30 3386 H 303.509 4.59935 -4.67756 0
M  V30 3387 H 303.426 4.11753 -6.34031 0
M  V30 3388 H 304.694 5.18644 -5.81918 0
M  V30 3389 N 308.923 1.53595 0.353017 0
M  V30 3390 C 310.148 1.7462 1.11904 0
M  V30 3391 C 310.573 0.479721 1.8188 0
M  V30 3392 O 309.931 -0.567066 1.72204 0
M  V30 3393 C 309.979 2.92029 2.11545 0
M  V30 3394 O 309.083 2.61516 3.18878 0
M  V30 3395 H 308.424 0.579531 0.324099 0
M  V30 3396 H 310.954 2.00525 0.406301 0
M  V30 3397 H 310.964 3.18551 2.5493 0
M  V30 3398 H 309.639 3.83888 1.60008 0
M  V30 3399 H 308.216 2.45852 2.80377 0
M  V30 3400 N 310.401 -0.613514 1.45168 0
M  V30 3401 C 311.649 -1.36997 1.48581 0
M  V30 3402 C 311.97 -1.94589 0.126545 0
M  V30 3403 O 311.24 -1.76816 -0.843372 0
M  V30 3404 H 309.82 -0.508558 0.547154 0
M  V30 3405 H 312.482 -0.720853 1.81079 0
M  V30 3406 H 311.578 -2.1924 2.22127 0
M  V30 3407 N 311.879 -1.3236 -0.855495 0
M  V30 3408 C 313.109 -1.25688 -1.6397 0
M  V30 3409 C 313.517 0.177592 -1.88365 0
M  V30 3410 O 312.86 1.12485 -1.45234 0
M  V30 3411 C 312.922 -1.94602 -3.02275 0
M  V30 3412 C 312.586 -3.43937 -3.00926 0
M  V30 3413 C 313.583 -4.39435 -2.77835 0
M  V30 3414 C 311.268 -3.85858 -3.21588 0
M  V30 3415 C 313.262 -5.74829 -2.75409 0
M  V30 3416 C 310.949 -5.21361 -3.18789 0
M  V30 3417 C 311.947 -6.15658 -2.95727 0
M  V30 3418 O 311.635 -7.48681 -2.928 0
M  V30 3419 H 311.367 -0.434972 -0.51747 0
M  V30 3420 H 313.921 -1.75023 -1.075 0
M  V30 3421 H 312.151 -1.39836 -3.60531 0
M  V30 3422 H 313.84 -1.81651 -3.62985 0
M  V30 3423 H 314.606 -4.08374 -2.6164 0
M  V30 3424 H 310.485 -3.12883 -3.38564 0
M  V30 3425 H 314.029 -6.48404 -2.57328 0
M  V30 3426 H 309.926 -5.52052 -3.34528 0
M  V30 3427 H 310.694 -7.5803 -3.0876 0
M  V30 3428 N 313.357 1.07166 -1.15556 0
M  V30 3429 C 314.604 1.79798 -0.931604 0
M  V30 3430 C 314.932 1.8682 0.54115 0
M  V30 3431 O 314.187 1.34942 1.41736 0
M  V30 3432 C 314.486 3.24707 -1.49332 0
M  V30 3433 C 314.152 3.37781 -2.98688 0
M  V30 3434 C 312.814 3.41057 -3.39461 0
M  V30 3435 C 315.166 3.40424 -3.94665 0
M  V30 3436 C 312.494 3.4458 -4.74849 0
M  V30 3437 C 314.846 3.45485 -5.29927 0
M  V30 3438 C 313.51 3.47039 -5.70193 0
M  V30 3439 H 312.78 0.657928 -0.340898 0
M  V30 3440 H 315.427 1.26091 -1.44129 0
M  V30 3441 H 313.732 3.81208 -0.904859 0
M  V30 3442 H 315.429 3.79486 -1.29582 0
M  V30 3443 H 312.019 3.35932 -2.66172 0
M  V30 3444 H 316.203 3.37113 -3.64237 0
M  V30 3445 H 311.459 3.44083 -5.05388 0
M  V30 3446 H 315.633 3.46476 -6.04092 0
M  V30 3447 H 313.26 3.49522 -6.75084 0
M  V30 3448 N 314.835 0.952656 1.25548 0
M  V30 3449 C 316.063 0.623496 1.97282 0
M  V30 3450 C 316.478 -0.803987 1.70826 0
M  V30 3451 O 315.835 -1.53755 0.983147 0
M  V30 3452 C 315.886 0.870209 3.5087 0
M  V30 3453 O 315.607 2.24156 3.76412 0
M  V30 3454 C 317.108 0.553164 4.39835 0
M  V30 3455 H 314.328 0.233931 0.628902 0
M  V30 3456 H 316.872 1.27649 1.59768 0
M  V30 3457 H 315.027 0.263652 3.86502 0
M  V30 3458 H 315.441 2.31021 4.70882 0
M  V30 3459 H 316.915 0.776342 5.46513 0
M  V30 3460 H 317.392 -0.512215 4.36203 0
M  V30 3461 H 317.998 1.13896 4.09766 0
M  V30 3462 N 316.313 -1.40141 0.720998 0
M  V30 3463 C 317.541 -2.05096 0.272656 0
M  V30 3464 C 317.956 -1.54334 -1.0875 0
M  V30 3465 O 317.313 -0.702211 -1.6845 0
M  V30 3466 C 317.364 -3.60636 0.249835 0
M  V30 3467 O 317.085 -4.09526 1.55629 0
M  V30 3468 C 318.586 -4.42772 -0.216396 0
M  V30 3469 H 315.806 -0.659897 0.121558 0
M  V30 3470 H 318.35 -1.79449 0.980723 0
M  V30 3471 H 316.505 -3.85232 -0.409237 0
M  V30 3472 H 316.919 -5.03758 1.4604 0
M  V30 3473 H 318.393 -5.51702 -0.181212 0
M  V30 3474 H 318.87 -4.20756 -1.25941 0
M  V30 3475 H 319.476 -4.23294 0.412596 0
M  V30 3476 N 317.792 -0.46758 -1.50504 0
M  V30 3477 C 319.069 0.15003 -1.95024 0
M  V30 3478 C 319.449 1.57304 -1.40779 0
M  V30 3479 O 318.797 2.20281 -0.607319 0
M  V30 3480 C 319.007 0.0969324 -3.48865 0
M  V30 3481 C 320.355 0.287565 -4.23625 0
M  V30 3482 O 321.379 0.173678 -3.55776 0
M  V30 3483 O 320.238 0.517186 -5.44047 0
M  V30 3484 H 317.332 0.113582 -0.819163 0
M  V30 3485 H 319.878 -0.52773 -1.61286 0
M  V30 3486 H 318.65 -0.896732 -3.80886 0
M  V30 3487 H 318.273 0.816303 -3.8913 0
M  V30 3488 N 319.27 1.56325 -0.20005 0
M  V30 3489 C 320.681 1.8408 0.31167 0
M  V30 3490 C 321.032 1.12087 1.61031 0
M  V30 3491 O 320.157 0.38332 2.12978 0
M  V30 3492 C 320.752 3.33932 0.57226 0
M  V30 3493 C 319.311 3.6208 1.02834 0
M  V30 3494 C 318.458 2.77186 0.079634 0
M  V30 3495 H 321.409 1.52939 -0.423729 0
M  V30 3496 H 321.43 3.52971 1.42096 0
M  V30 3497 H 320.942 3.86303 -0.37308 0
M  V30 3498 H 319.043 3.15147 1.98778 0
M  V30 3499 H 319.156 4.7023 0.917624 0
M  V30 3500 H 317.52 2.47951 0.582448 0
M  V30 3501 H 318.303 3.32347 -0.860238 0
M  V30 3502 N 320.748 -0.0735177 1.57428 0
M  V30 3503 C 321.978 -0.78483 1.91112 0
M  V30 3504 C 322.386 -1.71729 0.7941 0
M  V30 3505 O 321.729 -1.82105 -0.241542 0
M  V30 3506 C 321.791 -1.63346 3.20247 0
M  V30 3507 C 321.455 -0.870557 4.48632 0
M  V30 3508 C 322.452 -0.19058 5.19551 0
M  V30 3509 C 320.137 -0.838242 4.95256 0
M  V30 3510 C 322.131 0.511503 6.35344 0
M  V30 3511 C 319.818 -0.132386 6.10957 0
M  V30 3512 C 320.816 0.541288 6.80852 0
M  V30 3513 O 320.504 1.23578 7.94345 0
M  V30 3514 H 320.236 -0.228408 0.636244 0
M  V30 3515 H 322.79 -0.0486039 2.05342 0
M  V30 3516 H 321.02 -2.41245 3.02222 0
M  V30 3517 H 322.709 -2.22329 3.39595 0
M  V30 3518 H 323.475 -0.206864 4.84559 0
M  V30 3519 H 319.354 -1.35206 4.40727 0
M  V30 3520 H 322.898 1.03789 6.89836 0
M  V30 3521 H 318.795 -0.114023 6.45399 0
M  V30 3522 H 319.563 1.14487 8.10454 0
M  V30 3523 N 322.226 -1.5378 -0.344866 0
M  V30 3524 C 323.503 -1.61589 -1.10219 0
M  V30 3525 C 323.883 -0.436316 -2.06542 0
M  V30 3526 O 323.231 0.571543 -2.21237 0
M  V30 3527 C 323.441 -2.97602 -1.82301 0
M  V30 3528 C 324.789 -3.5291 -2.36093 0
M  V30 3529 O 325.813 -2.99768 -1.924 0
M  V30 3530 O 324.672 -4.45859 -3.16026 0
M  V30 3531 H 321.766 -0.653522 -0.506792 0
M  V30 3532 H 324.312 -1.66126 -0.346465 0
M  V30 3533 H 323.084 -3.74893 -1.12121 0
M  V30 3534 H 322.707 -2.9665 -2.64735 0
M  V30 3535 N 323.704 0.605807 -1.45491 0
M  V30 3536 C 324.932 1.39136 -1.5313 0
M  V30 3537 C 325.347 1.88082 -0.164507 0
M  V30 3538 O 324.704 1.62316 0.834247 0
M  V30 3539 C 324.755 2.59463 -2.51716 0
M  V30 3540 O 324.476 2.12551 -3.83084 0
M  V30 3541 C 325.977 3.52301 -2.6907 0
M  V30 3542 H 323.197 0.425849 -0.51855 0
M  V30 3543 H 325.741 0.73865 -1.90694 0
M  V30 3544 H 323.896 3.20772 -2.17219 0
M  V30 3545 H 324.31 2.90744 -4.36541 0
M  V30 3546 H 325.784 4.33271 -3.42024 0
M  V30 3547 H 326.261 4.02757 -1.75167 0
M  V30 3548 H 326.867 2.96845 -3.04571 0
M  V30 3549 N 325.182 1.32811 0.848464 0
M  V30 3550 C 326.407 1.26882 1.6406 0
M  V30 3551 C 326.832 -0.15913 1.87426 0
M  V30 3552 O 326.19 -1.11258 1.43148 0
M  V30 3553 C 326.238 2.03997 2.97351 0
M  V30 3554 O 325.342 1.39201 3.88197 0
M  V30 3555 H 324.683 0.436982 0.499943 0
M  V30 3556 H 327.213 1.75224 1.0563 0
M  V30 3557 H 327.223 2.14403 3.47124 0
M  V30 3558 H 325.898 3.0783 2.79666 0
M  V30 3559 H 324.475 1.37381 3.46671 0
M  V30 3560 N 326.66 -1.06551 1.16123 0
M  V30 3561 C 327.608 -2.16063 0.861371 0
M  V30 3562 C 328.602 -1.6856 -0.168517 0
M  V30 3563 O 329.808 -1.79986 -0.0227579 0
M  V30 3564 H 326.183 -0.705278 0.260934 0
M  V30 3565 H 328.154 -2.38567 1.79244 0
M  V30 3566 C 326.903 -3.45661 0.376018 0
M  V30 3567 H 326.226 -3.82604 1.15992 0
M  V30 3568 H 327.666 -4.23504 0.204951 0
M  V30 3569 C 326.125 -3.24546 -0.903954 0
M  V30 3570 O 326.655 -3.49865 -1.97377 0
M  V30 3571 N 324.861 -2.77992 -0.846679 0
M  V30 3572 H 324.408 -2.57589 0.0241017 0
M  V30 3573 H 324.366 -2.64244 -1.70359 0
M  V30 3574 N 328.138 -0.959301 -1.25041 0
M  V30 3575 C 329.387 -0.612254 -1.92183 0
M  V30 3576 C 329.7 0.855347 -1.75907 0
M  V30 3577 O 330.906 1.31256 -2.37664 0
M  V30 3578 C 329.362 -1.04435 -3.44414 0
M  V30 3579 C 328.97 -2.53482 -3.69393 0
M  V30 3580 C 330.714 -0.770055 -4.17457 0
M  V30 3581 C 328.621 -2.90468 -5.15153 0
M  V30 3582 H 327.551 -0.225279 -0.719559 0
M  V30 3583 H 330.202 -1.16438 -1.41825 0
M  V30 3584 H 328.584 -0.4206 -3.9376 0
M  V30 3585 H 329.758 -3.20916 -3.30681 0
M  V30 3586 H 328.073 -2.78432 -3.0962 0
M  V30 3587 H 330.67 -1.02249 -5.24832 0
M  V30 3588 H 331.013 0.293611 -4.15263 0
M  V30 3589 H 331.546 -1.35437 -3.74034 0
M  V30 3590 H 328.285 -3.95871 -5.22462 0
M  V30 3591 H 327.805 -2.27711 -5.54894 0
M  V30 3592 H 329.484 -2.79914 -5.83315 0
M  V30 3593 N 329.616 1.39756 -0.72842 0
M  V30 3594 C 330.865 1.99879 -0.270407 0
M  V30 3595 C 331.178 1.58449 1.14688 0
M  V30 3596 O 332.384 2.11362 1.70407 0
M  V30 3597 C 330.84 3.57292 -0.43252 0
M  V30 3598 C 330.448 4.07688 -1.85727 0
M  V30 3599 C 332.192 4.24485 -0.0359507 0
M  V30 3600 C 330.099 5.5765 -1.96928 0
M  V30 3601 H 329.029 0.747689 -0.0973472 0
M  V30 3602 H 331.68 1.59837 -0.901355 0
M  V30 3603 H 330.062 3.95097 0.267219 0
M  V30 3604 H 331.236 3.81231 -2.58843 0
M  V30 3605 H 329.551 3.53135 -2.20646 0
M  V30 3606 H 332.148 5.34609 -0.0987484 0
M  V30 3607 H 332.491 4.03915 1.00787 0
M  V30 3608 H 333.024 3.9183 -0.686604 0
M  V30 3609 H 329.763 5.8309 -2.99476 0
M  V30 3610 H 329.283 5.8593 -1.28241 0
M  V30 3611 H 330.962 6.22957 -1.74737 0
M  V30 3612 N 331.094 0.475555 1.50254 0
M  V30 3613 C 332.041 -0.316293 2.28622 0
M  V30 3614 C 333.011 -0.983227 1.33873 0
M  V30 3615 O 334.196 -0.994805 1.62814 0
M  V30 3616 C 331.336 -1.38975 3.1588 0
M  V30 3617 C 330.449 -0.737146 4.25664 0
M  V30 3618 C 329.584 -1.78887 5.00173 0
M  V30 3619 C 328.623 -1.11676 6.01826 0
M  V30 3620 N 327.76 -2.11154 6.69596 0
M  V30 3621 H 332.6 0.358297 2.95838 0
M  V30 3622 H 330.137 0.188541 1.45887 0
M  V30 3623 H 332.095 -2.02383 3.64825 0
M  V30 3624 H 330.725 -2.03344 2.50701 0
M  V30 3625 H 329.777 0.0096065 3.80399 0
M  V30 3626 H 331.089 -0.206816 4.98371 0
M  V30 3627 H 330.243 -2.49865 5.52859 0
M  V30 3628 H 328.982 -2.35302 4.27182 0
M  V30 3629 H 327.987 -0.392633 5.48396 0
M  V30 3630 H 329.212 -0.55945 6.76792 0
M  V30 3631 H 327.158 -2.66577 5.99394 0
M  V30 3632 H 327.075 -1.63118 7.38193 0
M  V30 3633 H 328.343 -2.81497 7.26897 0
M  V30 3634 N 332.573 -1.56217 0.208337 0
M  V30 3635 C 333.503 -2.22694 -0.702116 0
M  V30 3636 C 334.484 -1.19432 -1.2112 0
M  V30 3637 O 335.669 -1.47978 -1.25762 0
M  V30 3638 C 332.799 -2.8966 -1.9161 0
M  V30 3639 C 331.753 -3.9928 -1.5414 0
M  V30 3640 C 331.079 -4.53476 -2.83308 0
M  V30 3641 C 332.379 -5.17012 -0.741339 0
M  V30 3642 H 334.073 -2.99034 -0.147898 0
M  V30 3643 H 331.619 -1.43831 -0.0696951 0
M  V30 3644 H 333.572 -3.34852 -2.55836 0
M  V30 3645 H 332.296 -2.10746 -2.49507 0
M  V30 3646 H 330.955 -3.54799 -0.922668 0
M  V30 3647 H 330.603 -3.71308 -3.39322 0
M  V30 3648 H 330.303 -5.27451 -2.58976 0
M  V30 3649 H 331.827 -5.01378 -3.485 0
M  V30 3650 H 333.241 -5.58667 -1.28699 0
M  V30 3651 H 331.638 -5.97137 -0.595627 0
M  V30 3652 H 332.708 -4.8423 0.254851 0
M  V30 3653 N 334.051 0.0651679 -1.57465 0
M  V30 3654 C 335.467 0.420105 -1.53972 0
M  V30 3655 C 335.667 1.78782 -0.929474 0
M  V30 3656 O 334.723 2.46771 -0.534839 0
M  V30 3657 C 336.036 0.355084 -2.98596 0
M  V30 3658 C 337.584 0.434792 -3.09965 0
M  V30 3659 C 338.059 0.399609 -4.56253 0
M  V30 3660 N 339.55 0.459488 -4.60915 0
M  V30 3661 C 340.285 0.454584 -5.71595 0
M  V30 3662 N 339.781 0.404102 -6.9162 0
M  V30 3663 N 341.574 0.501635 -5.59857 0
M  V30 3664 H 333.725 -0.830328 -1.95498 0
M  V30 3665 H 335.988 -0.312244 -0.895102 0
M  V30 3666 H 335.694 -0.583357 -3.46828 0
M  V30 3667 H 335.568 1.16275 -3.58831 0
M  V30 3668 H 337.955 1.36366 -2.61703 0
M  V30 3669 H 338.036 -0.40157 -2.52628 0
M  V30 3670 H 337.68 -0.525436 -5.05175 0
M  V30 3671 H 337.61 1.25359 -5.11461 0
M  V30 3672 H 340.101 0.502482 -3.74544 0
M  V30 3673 H 340.414 0.404468 -7.71741 0
M  V30 3674 H 338.759 0.37069 -6.94011 0
M  V30 3675 H 341.95 0.538812 -4.64989 0
M  V30 3676 H 342.123 0.494345 -6.46112 0
M  V30 3677 N 335.529 1.53961 0.336706 0
M  V30 3678 C 336.778 1.70751 1.07363 0
M  V30 3679 C 337.091 0.481061 1.89592 0
M  V30 3680 O 338.297 0.530046 2.66276 0
M  V30 3681 C 336.753 3.01965 1.95818 0
M  V30 3682 C 336.361 4.31971 1.18764 0
M  V30 3683 C 338.105 3.28121 2.69327 0
M  V30 3684 C 336.012 5.54255 2.06289 0
M  V30 3685 H 334.942 0.636292 0.404535 0
M  V30 3686 H 337.593 1.80459 0.332681 0
M  V30 3687 H 335.975 2.86132 2.7376 0
M  V30 3688 H 337.149 4.5853 0.456849 0
M  V30 3689 H 335.464 4.12481 0.569946 0
M  V30 3690 H 338.061 4.16673 3.35094 0
M  V30 3691 H 338.404 2.45426 3.36261 0
M  V30 3692 H 338.937 3.44762 1.98454 0
M  V30 3693 H 335.676 6.39513 1.43885 0
M  V30 3694 H 335.196 5.31935 2.77138 0
M  V30 3695 H 336.875 5.90159 2.65182 0
M  V30 3696 N 337.007 -0.598083 1.45811 0
M  V30 3697 C 338.247 -1.36802 1.5187 0
M  V30 3698 C 338.611 -1.9133 0.160224 0
M  V30 3699 O 339.812 -2.6863 0.0955302 0
M  V30 3700 C 338.083 -2.47835 2.57513 0
M  V30 3701 S 339.642 -3.35458 2.82866 0
M  V30 3702 H 336.46 -0.466278 0.536755 0
M  V30 3703 H 339.062 -0.689152 1.82951 0
M  V30 3704 H 337.766 -2.06141 3.54872 0
M  V30 3705 H 337.297 -3.20512 2.28114 0
M  V30 3706 H 339.312 -4.46251 2.16967 0
M  V30 3707 N 338.485 -1.33259 -0.841409 0
M  V30 3708 C 339.901 -1.12538 -1.13169 0
M  V30 3709 C 340.101 0.0854037 -2.01319 0
M  V30 3710 O 339.157 0.766417 -2.40587 0
M  V30 3711 C 340.47 -2.41156 -1.79623 0
M  V30 3712 C 342.018 -2.47038 -1.922 0
M  V30 3713 C 342.493 -3.7561 -2.6207 0
M  V30 3714 N 343.984 -3.76667 -2.69585 0
M  V30 3715 C 344.719 -4.72861 -3.2433 0
M  V30 3716 N 344.215 -5.79428 -3.79783 0
M  V30 3717 N 346.008 -4.6034 -3.22558 0
M  V30 3718 H 338.159 -2.10868 -0.254676 0
M  V30 3719 H 340.422 -0.931615 -0.175493 0
M  V30 3720 H 340.128 -3.29747 -1.22311 0
M  V30 3721 H 340.002 -2.53114 -2.79666 0
M  V30 3722 H 342.389 -1.58898 -2.48667 0
M  V30 3723 H 342.47 -2.39022 -0.911148 0
M  V30 3724 H 342.114 -4.64131 -2.06263 0
M  V30 3725 H 342.044 -3.80902 -3.63622 0
M  V30 3726 H 344.535 -2.99648 -2.30259 0
M  V30 3727 H 344.848 -6.48867 -4.19752 0
M  V30 3728 H 343.193 -5.83166 -3.78078 0
M  V30 3729 H 346.384 -3.76244 -2.78492 0
M  V30 3730 H 346.557 -5.35478 -3.64921 0
M  V30 3731 N 339.963 1.05934 -1.16686 0
M  V30 3732 C 340.926 2.11669 -0.879144 0
M  V30 3733 C 341.926 1.60294 0.127445 0
M  V30 3734 O 343.116 1.7389 -0.103865 0
M  V30 3735 C 340.248 3.39438 -0.315425 0
M  V30 3736 H 341.441 2.38626 -1.81653 0
M  V30 3737 H 338.994 1.22058 -0.976299 0
M  V30 3738 H 339.729 3.18132 0.629468 0
M  V30 3739 H 339.514 3.78034 -1.04079 0
M  V30 3740 H 341.004 4.17391 -0.132189 0
M  V30 3741 N 341.441 0.965919 1.2453 0
M  V30 3742 C 342.371 0.513476 2.27784 0
M  V30 3743 C 343.352 -0.445974 1.6415 0
M  V30 3744 O 344.537 -0.342485 1.91156 0
M  V30 3745 C 341.667 -0.198839 3.4673 0
M  V30 3746 C 340.621 0.676456 4.2262 0
M  V30 3747 C 339.947 -0.167248 5.34438 0
M  V30 3748 C 341.247 1.96017 4.84123 0
M  V30 3749 H 342.941 1.3765 2.65881 0
M  V30 3750 H 340.487 0.663321 1.27813 0
M  V30 3751 H 342.44 -0.526567 4.18097 0
M  V30 3752 H 341.164 -1.0962 3.07654 0
M  V30 3753 H 339.823 0.98743 3.53052 0
M  V30 3754 H 339.471 -1.0647 4.91603 0
M  V30 3755 H 339.171 0.415181 5.86131 0
M  V30 3756 H 340.695 -0.489688 6.08633 0
M  V30 3757 H 342.109 1.69814 5.47573 0
M  V30 3758 H 340.506 2.48918 5.4604 0
M  V30 3759 H 341.576 2.65622 4.05676 0
M  V30 3760 N 342.919 -1.39368 0.735821 0
M  V30 3761 C 343.867 -2.32443 0.0855131 0
M  V30 3762 C 344.861 -1.53104 -0.724954 0
M  V30 3763 O 346.067 -1.68762 -0.626047 0
M  V30 3764 H 342.442 -0.751948 0.00885257 0
M  V30 3765 H 344.413 -2.84916 0.886883 0
M  V30 3766 C 343.162 -3.38206 -0.806983 0
M  V30 3767 H 342.485 -3.99335 -0.19274 0
M  V30 3768 H 343.925 -4.05779 -1.2296 0
M  V30 3769 C 342.384 -2.75321 -1.94165 0
M  V30 3770 O 342.914 -2.63231 -3.03435 0
M  V30 3771 N 341.12 -2.33396 -1.73132 0
M  V30 3772 H 340.667 -2.4343 -0.842596 0
M  V30 3773 H 340.625 -1.91661 -2.49225 0
M  V30 3774 N 344.397 -0.483516 -1.5 0
M  V30 3775 C 345.674 0.129337 -1.95172 0
M  V30 3776 C 346.054 1.55802 -1.4244 0
M  V30 3777 O 345.402 2.19625 -0.630649 0
M  V30 3778 C 345.612 0.0599251 -3.48949 0
M  V30 3779 C 346.96 0.242617 -4.23906 0
M  V30 3780 O 347.984 0.135933 -3.55941 0
M  V30 3781 O 346.843 0.459454 -5.44565 0
M  V30 3782 H 343.937 0.104887 -0.820322 0
M  V30 3783 H 346.483 -0.544807 -1.60717 0
M  V30 3784 H 345.255 -0.937079 -3.79914 0
M  V30 3785 H 344.878 0.774984 -3.89974 0
M  V30 3786 N 345.875 1.56104 -0.216619 0
M  V30 3787 C 346.808 2.16026 0.735395 0
M  V30 3788 C 347.786 1.1032 1.1945 0
M  V30 3789 O 348.97 1.38549 1.27814 0
M  V30 3790 C 346.097 2.73656 1.99575 0
M  V30 3791 C 345.143 3.92146 1.67702 0
M  V30 3792 S 345.976 5.29397 0.806145 0
M  V30 3793 C 347.132 5.90463 2.07617 0
M  V30 3794 H 347.365 2.96439 0.226072 0
M  V30 3795 H 344.898 1.544 -0.00136639 0
M  V30 3796 H 346.856 3.075 2.71945 0
M  V30 3797 H 345.517 1.93245 2.47619 0
M  V30 3798 H 344.71 4.30954 2.61332 0
M  V30 3799 H 344.312 3.59423 1.03398 0
M  V30 3800 H 346.604 6.06136 3.02664 0
M  V30 3801 H 347.547 6.86589 1.73207 0
M  V30 3802 H 347.955 5.19252 2.21445 0
M  V30 3803 N 347.353 -0.0568162 1.57498 0
M  V30 3804 C 348.301 -1.08452 2.05769 0
M  V30 3805 C 349.295 -1.39164 0.965903 0
M  V30 3806 O 350.501 -1.38395 1.15095 0
M  V30 3807 H 346.876 -0.367148 0.656282 0
M  V30 3808 H 348.847 -0.651368 2.91204 0
M  V30 3809 C 347.596 -2.38543 2.52968 0
M  V30 3810 H 346.919 -2.15765 3.36579 0
M  V30 3811 H 348.359 -3.08863 2.90481 0
M  V30 3812 C 346.818 -3.05562 1.41893 0
M  V30 3813 O 347.348 -3.94262 0.769442 0
M  V30 3814 N 345.554 -2.6643 1.16032 0
M  V30 3815 H 345.101 -1.94387 1.6903 0
M  V30 3816 H 345.059 -3.11593 0.419219 0
M  V30 3817 N 348.832 -1.54138 -0.328536 0
M  V30 3818 C 350.081 -1.71318 -1.06456 0
M  V30 3819 C 350.394 -0.491109 -1.89334 0
M  V30 3820 O 351.6 -0.54416 -2.65991 0
M  V30 3821 C 350.056 -3.03 -1.94214 0
M  V30 3822 C 349.664 -4.32595 -1.16471 0
M  V30 3823 C 351.408 -3.29544 -2.67583 0
M  V30 3824 C 349.315 -5.55341 -2.03347 0
M  V30 3825 H 348.245 -0.638429 -0.401155 0
M  V30 3826 H 350.896 -1.80633 -0.323106 0
M  V30 3827 H 349.278 -2.87579 -2.72239 0
M  V30 3828 H 350.452 -4.58766 -0.432525 0
M  V30 3829 H 348.767 -4.12777 -0.548063 0
M  V30 3830 H 351.364 -4.18444 -3.3288 0
M  V30 3831 H 351.707 -2.47206 -3.34955 0
M  V30 3832 H 352.24 -3.45809 -1.96623 0
M  V30 3833 H 348.979 -6.40268 -1.40491 0
M  V30 3834 H 348.499 -5.33397 -2.74313 0
M  V30 3835 H 350.178 -5.91557 -2.62049 0
M  V30 3836 N 350.31 0.590341 -1.46126 0
M  V30 3837 C 351.258 1.72105 -1.5647 0
M  V30 3838 C 352.252 1.63756 -0.433612 0
M  V30 3839 O 353.458 1.69342 -0.610194 0
M  V30 3840 H 349.833 0.568889 -0.491802 0
M  V30 3841 H 351.804 1.6051 -2.51553 0
M  V30 3842 C 350.553 3.10493 -1.56491 0
M  V30 3843 H 349.876 3.17583 -2.4286 0
M  V30 3844 H 351.316 3.8939 -1.67785 0
M  V30 3845 C 349.775 3.3563 -0.292231 0
M  V30 3846 O 350.305 3.96875 0.620739 0
M  V30 3847 N 348.511 2.90026 -0.182523 0
M  V30 3848 H 348.058 2.40367 -0.926356 0
M  V30 3849 H 348.016 3.07218 0.668152 0
M  V30 3850 N 351.788 1.33704 0.83433 0
M  V30 3851 C 353.034 1.25603 1.59222 0
M  V30 3852 C 353.367 -0.176659 1.93395 0
M  V30 3853 O 352.642 -1.11915 1.59076 0
M  V30 3854 C 352.925 2.13576 2.89926 0
M  V30 3855 C 352.778 3.65326 2.62406 0
M  V30 3856 C 354.097 2.01238 3.91397 0
M  V30 3857 H 351.216 0.457613 0.577719 0
M  V30 3858 H 353.858 1.63848 0.961972 0
M  V30 3859 H 352.008 1.8109 3.43713 0
M  V30 3860 H 353.68 4.08124 2.15017 0
M  V30 3861 H 351.923 3.8698 1.96033 0
M  V30 3862 H 352.594 4.22232 3.55562 0
M  V30 3863 H 355.07 2.29738 3.46929 0
M  V30 3864 H 353.946 2.65036 4.80673 0
M  V30 3865 H 354.207 0.985951 4.30966 0
M  V30 3866 N 353.266 -1.05314 1.17247 0
M  V30 3867 C 354.198 -2.13023 0.845812 0
M  V30 3868 C 355.211 -1.62096 -0.151246 0
M  V30 3869 O 356.4 -1.78343 0.0748818 0
M  V30 3870 C 353.5 -3.38047 0.240292 0
M  V30 3871 C 352.673 -4.18255 1.27991 0
M  V30 3872 C 351.732 -5.21625 0.692375 0
M  V30 3873 O 350.758 -5.52619 1.36385 0
M  V30 3874 N 351.96 -5.78201 -0.516178 0
M  V30 3875 H 354.725 -2.41642 1.77283 0
M  V30 3876 H 352.286 -1.21401 1.07115 0
M  V30 3877 H 354.278 -4.04359 -0.16603 0
M  V30 3878 H 352.848 -3.06972 -0.590487 0
M  V30 3879 H 352.068 -3.47451 1.86203 0
M  V30 3880 H 353.356 -4.68643 1.98119 0
M  V30 3881 H 352.754 -5.55301 -1.07969 0
M  V30 3882 H 351.311 -6.4604 -0.86458 0
M  V30 3883 N 354.744 -0.972509 -1.24016 0
M  V30 3884 C 356.16 -0.679827 -1.44397 0
M  V30 3885 C 356.36 0.756716 -1.86751 0
M  V30 3886 O 355.416 1.53007 -2.00861 0
M  V30 3887 C 356.729 -1.66803 -2.50195 0
M  V30 3888 C 358.277 -1.68119 -2.64017 0
M  V30 3889 C 358.752 -2.65748 -3.73017 0
M  V30 3890 N 360.243 -2.64219 -3.8045 0
M  V30 3891 C 360.978 -3.36433 -4.64328 0
M  V30 3892 N 360.474 -4.1818 -5.52356 0
M  V30 3893 N 362.267 -3.25235 -4.58453 0
M  V30 3894 H 354.418 -1.90059 -0.948228 0
M  V30 3895 H 356.681 -0.818527 -0.478245 0
M  V30 3896 H 356.387 -2.69498 -2.25973 0
M  V30 3897 H 356.261 -1.4446 -3.48441 0
M  V30 3898 H 358.648 -0.661319 -2.87594 0
M  V30 3899 H 358.729 -1.94525 -1.66113 0
M  V30 3900 H 358.373 -3.67872 -3.50189 0
M  V30 3901 H 358.303 -2.36619 -4.70446 0
M  V30 3902 H 360.794 -2.04887 -3.17537 0
M  V30 3903 H 361.107 -4.70157 -6.13329 0
M  V30 3904 H 359.452 -4.22273 -5.52006 0
M  V30 3905 H 362.643 -2.60829 -3.88698 0
M  V30 3906 H 362.816 -3.81776 -5.23594 0
M  V30 3907 N 356.222 1.38976 -0.743202 0
M  V30 3908 C 357.452 2.04339 -0.304807 0
M  V30 3909 C 357.86 1.56162 1.06819 0
M  V30 3910 O 357.203 0.725284 1.68776 0
M  V30 3911 C 357.265 3.58716 -0.237369 0
M  V30 3912 C 356.929 4.29905 -1.55018 0
M  V30 3913 C 357.926 4.55987 -2.49744 0
M  V30 3914 C 355.611 4.68294 -1.81675 0
M  V30 3915 C 357.605 5.19478 -3.69353 0
M  V30 3916 C 355.292 5.31512 -3.0156 0
M  V30 3917 C 356.29 5.57037 -3.9522 0
M  V30 3918 O 355.978 6.18941 -5.12998 0
M  V30 3919 H 355.71 0.663439 -0.12971 0
M  V30 3920 H 358.264 1.78852 -1.01001 0
M  V30 3921 H 356.494 3.83133 0.524003 0
M  V30 3922 H 358.183 4.05543 0.170121 0
M  V30 3923 H 358.949 4.26767 -2.30423 0
M  V30 3924 H 354.828 4.47779 -1.09615 0
M  V30 3925 H 358.372 5.39318 -4.42473 0
M  V30 3926 H 354.269 5.60153 -3.20778 0
M  V30 3927 H 355.037 6.37433 -5.13441 0
M  V30 3928 N 357.7 0.491464 1.49741 0
M  V30 3929 C 358.65 -0.311086 2.25868 0
M  V30 3930 C 359.634 -0.943857 1.30308 0
M  V30 3931 O 360.826 -0.853035 1.55088 0
M  V30 3932 C 357.955 -1.38059 3.14316 0
M  V30 3933 C 357.041 -0.754541 4.17334 0
M  V30 3934 N 357.432 0.137216 5.05614 0
M  V30 3935 C 355.73 -1.01621 4.34269 0
M  V30 3936 C 356.431 0.494614 5.79593 0
M  V30 3937 N 355.407 -0.135169 5.43432 0
M  V30 3938 H 359.209 0.37555 2.91491 0
M  V30 3939 H 356.723 0.306917 1.59473 0
M  V30 3940 H 358.72 -1.96891 3.67477 0
M  V30 3941 H 357.38 -2.06901 2.50244 0
M  V30 3942 H 358.391 0.50741 5.15408 0
M  V30 3943 H 355.068 -1.69808 3.81407 0
M  V30 3944 H 356.458 1.2236 6.60665 0
M  V30 3945 N 359.178 -1.55987 0.224894 0
M  V30 3946 C 360.128 -2.17076 -0.697296 0
M  V30 3947 C 361.112 -1.12006 -1.15514 0
M  V30 3948 O 362.304 -1.37985 -1.10857 0
M  V30 3949 C 359.433 -2.85679 -1.90374 0
M  V30 3950 C 358.519 -3.97977 -1.46543 0
M  V30 3951 N 358.91 -5.00359 -0.739909 0
M  V30 3952 C 357.208 -4.10128 -1.75245 0
M  V30 3953 C 357.909 -5.79407 -0.515939 0
M  V30 3954 N 356.885 -5.32892 -1.07364 0
M  V30 3955 H 360.687 -2.93592 -0.134594 0
M  V30 3956 H 358.201 -1.62379 0.0262885 0
M  V30 3957 H 360.198 -3.27857 -2.57518 0
M  V30 3958 H 358.858 -2.1066 -2.47088 0
M  V30 3959 H 359.869 -5.16412 -0.392253 0
M  V30 3960 H 356.546 -3.46263 -2.33255 0
M  V30 3961 H 357.936 -6.71872 0.0617349 0
M  V30 3962 N 360.656 0.0484629 -1.57525 0
M  V30 3963 C 361.566 1.07241 -2.08654 0
M  V30 3964 C 362.582 1.409 -1.02095 0
M  V30 3965 O 363.758 1.50609 -1.33712 0
M  V30 3966 C 360.823 2.36008 -2.5397 0
M  V30 3967 C 359.884 2.09108 -3.7493 0
M  V30 3968 C 359.117 3.31736 -4.18075 0
M  V30 3969 O 359.34 4.41714 -3.60895 0
M  V30 3970 O 358.274 3.18576 -5.10679 0
M  V30 3971 H 362.1 0.667965 -2.96263 0
M  V30 3972 H 359.685 0.26417 -1.47046 0
M  V30 3973 H 361.567 3.11747 -2.83535 0
M  V30 3974 H 360.242 2.75786 -1.69481 0
M  V30 3975 H 359.149 1.31 -3.50414 0
M  V30 3976 H 360.482 1.74198 -4.60343 0
M  V30 3977 N 362.134 1.5431 0.320358 0
M  V30 3978 C 363.38 1.72924 1.05949 0
M  V30 3979 C 363.713 0.503185 1.87568 0
M  V30 3980 O 362.988 -0.499839 1.87968 0
M  V30 3981 C 363.271 3.00676 1.98156 0
M  V30 3982 C 363.124 4.3354 1.19845 0
M  V30 3983 C 364.443 3.24198 2.9763 0
M  V30 3984 H 361.562 0.629195 0.383774 0
M  V30 3985 H 364.204 1.87008 0.335854 0
M  V30 3986 H 362.354 2.888 2.59859 0
M  V30 3987 H 364.026 4.57305 0.605773 0
M  V30 3988 H 362.269 4.309 0.500784 0
M  V30 3989 H 362.94 5.19156 1.87567 0
M  V30 3990 H 365.416 3.35557 2.4605 0
M  V30 3991 H 364.292 4.14938 3.59329 0
M  V30 3992 H 364.553 2.41577 3.7026 0
M  V30 3993 N 363.613 -0.582584 1.46437 0
M  V30 3994 C 364.838 -1.37168 1.55563 0
M  V30 3995 C 365.263 -1.87061 0.19743 0
M  V30 3996 O 364.621 -1.61572 -0.822451 0
M  V30 3997 C 364.669 -2.53511 2.56446 0
M  V30 3998 O 363.773 -3.54953 2.09958 0
M  V30 3999 H 363.114 -0.408494 0.523477 0
M  V30 4000 H 365.644 -0.706646 1.9201 0
M  V30 4001 H 365.654 -3.00426 2.76058 0
M  V30 4002 H 364.329 -2.16549 3.55076 0
M  V30 4003 H 362.906 -3.14516 2.00334 0
M  V30 4004 N 365.091 -1.34144 -0.827227 0
M  V30 4005 C 366.319 -1.29325 -1.61501 0
M  V30 4006 C 366.734 0.13354 -1.88327 0
M  V30 4007 O 366.091 1.0793 -1.47164 0
M  V30 4008 C 366.142 -2.07746 -2.95844 0
M  V30 4009 O 365.863 -3.4486 -2.70191 0
M  V30 4010 C 367.364 -2.10273 -3.90256 0
M  V30 4011 H 364.584 -0.445069 -0.50215 0
M  V30 4012 H 367.128 -1.76693 -1.02955 0
M  V30 4013 H 365.283 -1.6403 -3.5096 0
M  V30 4014 H 365.697 -3.85345 -3.55822 0
M  V30 4015 H 367.171 -2.69575 -4.81698 0
M  V30 4016 H 367.648 -1.096 -4.25305 0
M  V30 4017 H 368.254 -2.54059 -3.41078 0
M  V30 4018 N 366.569 1.04691 -1.17803 0
M  V30 4019 C 367.794 1.81984 -0.994813 0
M  V30 4020 C 368.219 1.82586 0.452112 0
M  V30 4021 O 367.577 1.23854 1.324 0
M  V30 4022 C 367.625 3.2575 -1.54659 0
M  V30 4023 O 366.729 4.05267 -0.763728 0
M  V30 4024 H 366.07 0.562483 -0.352857 0
M  V30 4025 H 368.6 1.3189 -1.56417 0
M  V30 4026 H 368.61 3.76541 -1.57102 0
M  V30 4027 H 367.285 3.24627 -2.59981 0
M  V30 4028 H 365.862 3.63972 -0.811108 0
M  V30 4029 N 368.047 0.979072 1.23499 0
M  V30 4030 C 368.979 0.476271 2.24197 0
M  V30 4031 C 369.992 -0.421166 1.57258 0
M  V30 4032 O 371.181 -0.225515 1.7707 0
M  V30 4033 C 368.281 -0.330503 3.37285 0
M  V30 4034 C 367.454 0.559744 4.33804 0
M  V30 4035 C 366.513 -0.192954 5.25846 0
M  V30 4036 O 365.539 0.416978 5.67671 0
M  V30 4037 N 366.741 -1.47932 5.61334 0
M  V30 4038 H 369.506 1.34211 2.67969 0
M  V30 4039 H 367.067 0.852189 1.37657 0
M  V30 4040 H 369.059 -0.842361 3.95836 0
M  V30 4041 H 367.629 -1.09734 2.92707 0
M  V30 4042 H 366.849 1.25245 3.73775 0
M  V30 4043 H 368.137 1.1665 4.95248 0
M  V30 4044 H 367.535 -1.9964 5.29302 0
M  V30 4045 H 366.092 -1.93664 6.22364 0
M  V30 4046 N 369.525 -1.3858 0.750561 0
M  V30 4047 C 370.475 -2.27795 0.0965949 0
M  V30 4048 C 371.459 -1.45048 -0.696411 0
M  V30 4049 O 372.651 -1.67812 -0.562863 0
M  V30 4050 C 369.78 -3.33894 -0.798085 0
M  V30 4051 C 368.866 -4.241 0.0016067 0
M  V30 4052 N 369.257 -4.95067 1.03647 0
M  V30 4053 C 367.555 -4.45429 -0.225674 0
M  V30 4054 C 368.256 -5.61489 1.52004 0
M  V30 4055 N 367.232 -5.37135 0.835874 0
M  V30 4056 H 371.034 -2.80125 0.889228 0
M  V30 4057 H 368.548 -1.51446 0.586323 0
M  V30 4058 H 370.545 -3.96693 -1.28219 0
M  V30 4059 H 369.205 -2.83123 -1.5897 0
M  V30 4060 H 370.216 -4.98104 1.41819 0
M  V30 4061 H 366.893 -4.05571 -0.990872 0
M  V30 4062 H 368.283 -6.28264 2.38188 0
M  V30 4063 N 371.003 -0.499398 -1.49478 0
M  V30 4064 C 371.913 0.284489 -2.32869 0
M  V30 4065 C 372.929 0.968885 -1.44529 0
M  V30 4066 O 374.105 0.95062 -1.77553 0
M  V30 4067 C 371.17 1.33594 -3.19928 0
M  V30 4068 C 370.231 0.665149 -4.24116 0
M  V30 4069 C 369.464 1.6665 -5.07014 0
M  V30 4070 O 369.687 2.89618 -4.91404 0
M  V30 4071 O 368.621 1.22271 -5.8935 0
M  V30 4072 H 372.447 -0.39802 -3.01081 0
M  V30 4073 H 370.032 -0.260758 -1.47107 0
M  V30 4074 H 371.914 1.94431 -3.73864 0
M  V30 4075 H 370.589 2.0014 -2.54412 0
M  V30 4076 H 369.496 0.0170769 -3.74096 0
M  V30 4077 H 370.829 0.0421555 -4.92182 0
M  V30 4078 N 372.481 1.55866 -0.233164 0
M  V30 4079 C 373.73 1.97779 0.39579 0
M  V30 4080 C 374.043 1.12419 1.60066 0
M  V30 4081 O 375.249 1.44283 2.29988 0
M  V30 4082 C 373.705 3.5188 0.755556 0
M  V30 4083 C 373.313 4.45959 -0.427152 0
M  V30 4084 C 375.057 4.02479 1.34946 0
M  V30 4085 C 372.964 5.91383 -0.0443043 0
M  V30 4086 H 371.894 0.738592 0.15165 0
M  V30 4087 H 374.545 1.80486 -0.331212 0
M  V30 4088 H 372.927 3.64816 1.5403 0
M  V30 4089 H 374.101 4.44776 -1.20462 0
M  V30 4090 H 372.416 4.05765 -0.935068 0
M  V30 4091 H 375.013 5.08637 1.649 0
M  V30 4092 H 375.356 3.49014 2.26925 0
M  V30 4093 H 375.889 3.92813 0.62791 0
M  V30 4094 H 372.628 6.48857 -0.930874 0
M  V30 4095 H 372.148 5.95734 0.697238 0
M  V30 4096 H 373.827 6.45893 0.378334 0
M  V30 4097 N 373.959 -0.0401083 1.57549 0
M  V30 4098 C 375.184 -0.748931 1.93406 0
M  V30 4099 C 375.609 -1.68686 0.832274 0
M  V30 4100 O 374.967 -1.80047 -0.212818 0
M  V30 4101 C 375.015 -1.4916 3.28304 0
M  V30 4102 O 374.119 -2.6042 3.19774 0
M  V30 4103 H 373.46 -0.202212 0.63246 0
M  V30 4104 H 375.99 0.00112086 2.046 0
M  V30 4105 H 376 -1.86395 3.62934 0
M  V30 4106 H 374.675 -0.80364 4.08062 0
M  V30 4107 H 373.252 -2.25808 2.96758 0
M  V30 4108 N 375.437 -1.54477 -0.31217 0
M  V30 4109 C 376.367 -1.87652 -1.38957 0
M  V30 4110 C 377.348 -0.734358 -1.53431 0
M  V30 4111 O 378.533 -0.98911 -1.67123 0
M  V30 4112 C 375.663 -2.11396 -2.75552 0
M  V30 4113 C 374.617 -3.27243 -2.75855 0
M  V30 4114 C 373.943 -3.36382 -4.15633 0
M  V30 4115 C 375.243 -4.64622 -2.38587 0
M  V30 4116 H 376.937 -2.77887 -1.11442 0
M  V30 4117 H 374.483 -1.33707 -0.534655 0
M  V30 4118 H 376.436 -2.33189 -3.51 0
M  V30 4119 H 375.16 -1.17921 -3.04569 0
M  V30 4120 H 373.819 -3.05356 -2.02863 0
M  V30 4121 H 373.467 -2.40445 -4.41809 0
M  V30 4122 H 373.167 -4.14249 -4.1674 0
M  V30 4123 H 374.691 -3.60422 -4.92877 0
M  V30 4124 H 376.105 -4.86219 -3.03749 0
M  V30 4125 H 374.502 -5.45121 -2.50925 0
M  V30 4126 H 375.572 -4.66097 -1.33723 0
M  V30 4127 N 376.915 0.57481 -1.46744 0
M  V30 4128 C 377.862 1.68329 -1.57905 0
M  V30 4129 C 378.832 1.60625 -0.422927 0
M  V30 4130 O 380.017 1.79721 -0.640711 0
M  V30 4131 C 377.157 3.06665 -1.58274 0
M  V30 4132 C 376.27 3.24935 -2.84678 0
M  V30 4133 C 375.405 4.53566 -2.76499 0
M  V30 4134 C 374.444 4.65207 -3.97806 0
M  V30 4135 N 373.581 5.85172 -3.87967 0
M  V30 4136 H 378.421 1.58127 -2.52587 0
M  V30 4137 H 375.958 0.770552 -1.25303 0
M  V30 4138 H 377.916 3.86745 -1.56473 0
M  V30 4139 H 376.546 3.15745 -0.671194 0
M  V30 4140 H 375.598 2.38405 -2.96424 0
M  V30 4141 H 376.91 3.29403 -3.7456 0
M  V30 4142 H 376.064 5.41885 -2.72848 0
M  V30 4143 H 374.803 4.51548 -1.8427 0
M  V30 4144 H 373.808 3.75304 -4.0178 0
M  V30 4145 H 375.033 4.68997 -4.9114 0
M  V30 4146 H 372.979 5.84137 -2.98529 0
M  V30 4147 H 372.896 5.90943 -4.71511 0
M  V30 4148 H 374.164 6.759 -3.88303 0
M  V30 4149 N 378.394 1.34581 0.820102 0
M  V30 4150 C 379.624 1.29991 1.6058 0
M  V30 4151 C 380.032 -0.127588 1.88769 0
M  V30 4152 O 379.375 -1.08595 1.48165 0
M  V30 4153 C 379.437 2.02548 2.9701 0
M  V30 4154 C 379.101 3.51794 2.91701 0
M  V30 4155 C 380.098 4.46647 2.66087 0
M  V30 4156 C 377.783 3.94249 3.11245 0
M  V30 4157 C 379.777 5.81929 2.60071 0
M  V30 4158 C 377.464 5.2963 3.04853 0
M  V30 4159 C 378.462 6.23282 2.793 0
M  V30 4160 O 378.15 7.56181 2.72847 0
M  V30 4161 H 377.882 0.448539 0.505756 0
M  V30 4162 H 380.436 1.77811 1.02822 0
M  V30 4163 H 378.666 1.49345 3.56697 0
M  V30 4164 H 380.355 1.91211 3.58041 0
M  V30 4165 H 381.121 4.15168 2.5072 0
M  V30 4166 H 377 3.21749 3.30149 0
M  V30 4167 H 380.544 6.54999 2.40046 0
M  V30 4168 H 376.441 5.60727 3.19774 0
M  V30 4169 H 377.209 7.6595 2.88553 0
M  V30 4170 N 379.872 -1.04064 1.18357 0
M  V30 4171 C 381.119 -1.77265 0.978947 0
M  V30 4172 C 381.447 -1.88189 -0.491428 0
M  V30 4173 O 380.702 -1.38653 -1.38108 0
M  V30 4174 C 381.001 -3.20634 1.57888 0
M  V30 4175 C 380.667 -3.29743 3.07539 0
M  V30 4176 C 379.329 -3.31937 3.48384 0
M  V30 4177 C 381.681 -3.29841 4.03552 0
M  V30 4178 C 379.009 -3.3187 4.83818 0
M  V30 4179 C 381.361 -3.31313 5.38901 0
M  V30 4180 C 380.025 -3.31799 5.79194 0
M  V30 4181 H 379.295 -0.648659 0.358222 0
M  V30 4182 H 381.942 -1.22225 1.47422 0
M  V30 4183 H 380.247 -3.78675 1.00561 0
M  V30 4184 H 381.944 -3.75917 1.39598 0
M  V30 4185 H 378.534 -3.28757 2.74986 0
M  V30 4186 H 382.718 -3.27337 3.73047 0
M  V30 4187 H 377.974 -3.30562 5.14333 0
M  V30 4188 H 382.148 -3.30338 6.13066 0
M  V30 4189 H 379.775 -3.315 6.84114 0
M  V30 4190 N 381.35 -0.985608 -1.22978 0
M  V30 4191 C 382.627 -0.573599 -1.87001 0
M  V30 4192 C 383.007 0.949213 -1.88555 0
M  V30 4193 O 382.355 1.82811 -1.37086 0
M  V30 4194 C 382.565 -1.18564 -3.28243 0
M  V30 4195 C 383.913 -1.28163 -4.04796 0
M  V30 4196 O 384.937 -1.13949 -3.37482 0
M  V30 4197 O 383.796 -1.50832 -5.25273 0
M  V30 4198 H 380.89 -0.193868 -0.803955 0
M  V30 4199 H 383.436 -1.08102 -1.30813 0
M  V30 4200 H 382.208 -2.22758 -3.21706 0
M  V30 4201 H 381.831 -0.663363 -3.92027 0
M  V30 4202 N 382.828 1.3818 -0.7579 0
M  V30 4203 C 383.791 2.28764 -0.141286 0
M  V30 4204 C 384.791 1.47388 0.642907 0
M  V30 4205 O 385.981 1.67781 0.468536 0
M  V30 4206 C 383.113 3.31184 0.808069 0
M  V30 4207 H 384.306 2.848 -0.939633 0
M  V30 4208 H 381.859 1.47212 -0.525191 0
M  V30 4209 H 382.594 2.80247 1.63193 0
M  V30 4210 H 382.379 3.91314 0.248104 0
M  V30 4211 H 383.869 3.98909 1.23536 0
M  V30 4212 N 384.306 0.507319 1.49211 0
M  V30 4213 C 385.236 -0.256939 2.32082 0
M  V30 4214 C 386.217 -0.956609 1.40652 0
M  V30 4215 O 387.402 -0.946788 1.69557 0
M  V30 4216 C 384.532 -1.31802 3.21318 0
M  V30 4217 C 383.486 -0.737855 4.21592 0
M  V30 4218 C 382.812 -1.89992 4.99807 0
M  V30 4219 C 384.112 0.275325 5.21574 0
M  V30 4220 H 385.806 0.434798 2.96226 0
M  V30 4221 H 383.352 0.210546 1.42452 0
M  V30 4222 H 385.305 -1.86045 3.78107 0
M  V30 4223 H 384.029 -2.03903 2.5513 0
M  V30 4224 H 382.688 -0.217126 3.65956 0
M  V30 4225 H 382.336 -2.60877 4.30061 0
M  V30 4226 H 382.036 -1.51777 5.6766 0
M  V30 4227 H 383.56 -2.44657 5.59442 0
M  V30 4228 H 384.974 -0.179193 5.7302 0
M  V30 4229 H 383.371 0.573649 5.97352 0
M  V30 4230 H 384.441 1.18903 4.70096 0
M  V30 4231 N 385.784 -1.5574 0.241426 0
M  V30 4232 C 387.012 -2.03208 -0.389134 0
M  V30 4233 C 387.427 -1.12082 -1.51931 0
M  V30 4234 O 386.784 -0.134183 -1.82006 0
M  V30 4235 C 386.835 -3.50064 -0.902087 0
M  V30 4236 O 386.556 -4.37717 0.18305 0
M  V30 4237 C 388.057 -4.13268 -1.60389 0
M  V30 4238 H 385.277 -0.664509 -0.0931053 0
M  V30 4239 H 387.821 -2.0124 0.36369 0
M  V30 4240 H 385.976 -3.52583 -1.60511 0
M  V30 4241 H 386.39 -5.24097 -0.205579 0
M  V30 4242 H 387.864 -5.17733 -1.91458 0
M  V30 4243 H 388.341 -3.59434 -2.52397 0
M  V30 4244 H 388.947 -4.14655 -0.945576 0
M  V30 4245 N 387.262 0.0317525 -1.57568 0
M  V30 4246 C 388.21 1.05165 -2.07468 0
M  V30 4247 C 389.204 1.3761 -0.98792 0
M  V30 4248 O 390.41 1.36546 -1.17282 0
M  V30 4249 H 386.785 0.35666 -0.66204 0
M  V30 4250 H 388.756 0.604958 -2.92203 0
M  V30 4251 C 387.505 2.34488 -2.56731 0
M  V30 4252 H 386.828 2.10383 -3.39969 0
M  V30 4253 H 388.268 3.04203 -2.95358 0
M  V30 4254 C 386.727 3.03266 -1.46736 0
M  V30 4255 O 387.257 3.92988 -0.832069 0
M  V30 4256 N 385.463 2.6455 -1.20256 0
M  V30 4257 H 385.01 1.91674 -1.72102 0
M  V30 4258 H 384.968 3.10886 -0.468737 0
M  V30 4259 N 388.74 1.54641 0.303973 0
M  V30 4260 C 389.703 1.84646 1.35789 0
M  V30 4261 C 390.703 0.7192 1.4382 0
M  V30 4262 O 391.893 0.987491 1.43507 0
M  V30 4263 C 389.025 2.02407 2.74307 0
M  V30 4264 H 390.218 2.78829 1.10429 0
M  V30 4265 H 387.771 1.46658 0.540487 0
M  V30 4266 H 388.506 1.10502 3.04893 0
M  V30 4267 H 388.291 2.84453 2.69868 0
M  V30 4268 H 389.781 2.27002 3.50514 0
M  V30 4269 N 390.218 -0.567019 1.47046 0
M  V30 4270 C 391.495 -1.3276 1.43646 0
M  V30 4271 C 391.875 -2.1071 0.128186 0
M  V30 4272 O 391.223 -2.10441 -0.890326 0
M  V30 4273 C 391.433 -2.2404 2.67595 0
M  V30 4274 C 392.781 -2.85372 3.14401 0
M  V30 4275 O 393.805 -2.34346 2.68254 0
M  V30 4276 O 392.664 -3.78091 3.946 0
M  V30 4277 H 389.758 -0.597293 0.571988 0
M  V30 4278 H 392.304 -0.586735 1.59234 0
M  V30 4279 H 391.076 -1.65975 3.54356 0
M  V30 4280 H 390.699 -3.05439 2.54544 0
M  V30 4281 N 391.696 -1.35014 -0.812953 0
M  V30 4282 C 392.943 -1.27931 -1.56971 0
M  V30 4283 C 393.271 0.148034 -1.93936 0
M  V30 4284 O 392.526 1.11175 -1.61054 0
M  V30 4285 C 392.825 -2.12524 -2.87347 0
M  V30 4286 C 392.491 -3.61401 -2.6963 0
M  V30 4287 C 391.153 -4.01983 -2.64506 0
M  V30 4288 C 393.505 -4.55894 -2.52607 0
M  V30 4289 C 390.833 -5.35235 -2.40293 0
M  V30 4290 C 393.185 -5.89336 -2.29925 0
M  V30 4291 C 391.849 -6.2907 -2.23219 0
M  V30 4292 H 391.119 -0.468131 -0.574399 0
M  V30 4293 H 393.766 -1.66851 -0.939836 0
M  V30 4294 H 392.071 -1.66463 -3.54679 0
M  V30 4295 H 393.768 -2.04383 -3.45005 0
M  V30 4296 H 390.358 -3.29193 -2.74463 0
M  V30 4297 H 394.542 -4.25431 -2.55583 0
M  V30 4298 H 389.798 -5.65028 -2.33566 0
M  V30 4299 H 393.972 -6.62139 -2.15743 0
M  V30 4300 H 391.599 -7.32256 -2.04219 0
M  V30 4301 N 393.175 1.03435 -1.18907 0
M  V30 4302 C 394.105 2.13503 -0.945448 0
M  V30 4303 C 395.086 1.69682 0.119189 0
M  V30 4304 O 396.271 1.94169 -0.034707 0
M  V30 4305 C 393.401 3.44004 -0.477316 0
M  V30 4306 C 392.355 4.0148 -1.48316 0
M  V30 4307 C 391.681 5.27537 -0.872311 0
M  V30 4308 C 392.981 4.36921 -2.86177 0
M  V30 4309 H 394.675 2.34141 -1.86597 0
M  V30 4310 H 392.221 1.12523 -0.898584 0
M  V30 4311 H 394.174 4.20372 -0.294204 0
M  V30 4312 H 392.898 3.23072 0.478786 0
M  V30 4313 H 391.557 3.27201 -1.65332 0
M  V30 4314 H 391.205 5.02917 0.0911752 0
M  V30 4315 H 390.905 5.66954 -1.54393 0
M  V30 4316 H 392.429 6.06576 -0.699871 0
M  V30 4317 H 393.843 5.04248 -2.72776 0
M  V30 4318 H 392.24 4.87405 -3.50081 0
M  V30 4319 H 393.31 3.46466 -3.39248 0
M  V30 4320 N 394.653 0.992116 1.22453 0
M  V30 4321 C 395.583 0.561677 2.26644 0
M  V30 4322 C 396.564 -0.411055 1.65059 0
M  V30 4323 O 397.749 -0.301861 1.9184 0
M  V30 4324 C 394.879 -0.125247 3.47074 0
M  V30 4325 C 393.833 0.765948 4.21091 0
M  V30 4326 C 393.159 -0.0538484 5.34673 0
M  V30 4327 C 394.459 2.06242 4.79856 0
M  V30 4328 H 396.153 1.43259 2.62902 0
M  V30 4329 H 393.699 0.690283 1.26377 0
M  V30 4330 H 395.652 -0.437764 4.1912 0
M  V30 4331 H 394.376 -1.03069 3.0991 0
M  V30 4332 H 393.035 1.0621 3.50878 0
M  V30 4333 H 392.683 -0.960188 4.9375 0
M  V30 4334 H 392.383 0.539415 5.85119 0
M  V30 4335 H 393.907 -0.360477 6.09535 0
M  V30 4336 H 395.321 1.8139 5.43848 0
M  V30 4337 H 393.718 2.60444 5.40638 0
M  V30 4338 H 394.788 2.74167 3.99951 0
M  V30 4339 N 396.131 -1.37776 0.765217 0
M  V30 4340 C 397.38 -1.99092 0.323307 0
M  V30 4341 C 397.693 -1.61434 -1.10446 0
M  V30 4342 O 398.899 -2.15805 -1.64743 0
M  V30 4343 C 397.355 -3.56019 0.527098 0
M  V30 4344 C 396.963 -4.0262 1.96471 0
M  V30 4345 C 398.707 -4.2424 0.148483 0
M  V30 4346 C 396.614 -5.52233 2.11644 0
M  V30 4347 H 395.544 -0.744846 0.117137 0
M  V30 4348 H 398.195 -1.57391 0.943417 0
M  V30 4349 H 396.577 -3.95667 -0.162372 0
M  V30 4350 H 397.751 -3.74234 2.68859 0
M  V30 4351 H 396.066 -3.47161 2.29931 0
M  V30 4352 H 398.663 -5.34159 0.240456 0
M  V30 4353 H 399.006 -4.06446 -0.900422 0
M  V30 4354 H 399.539 -3.89872 0.79025 0
M  V30 4355 H 396.278 -5.74945 3.1483 0
M  V30 4356 H 395.798 -5.82324 1.4373 0
M  V30 4357 H 397.477 -6.18106 1.91193 0
M  V30 4358 N 397.609 -0.515225 -1.4894 0
M  V30 4359 C 398.837 0.0206034 -2.0689 0
M  V30 4360 C 399.252 1.29514 -1.37374 0
M  V30 4361 O 398.609 1.76698 -0.456529 0
M  V30 4362 C 398.66 0.26351 -3.60538 0
M  V30 4363 O 398.381 -0.960517 -4.27441 0
M  V30 4364 C 399.882 0.841383 -4.35242 0
M  V30 4365 H 397.102 -0.0268608 -0.670462 0
M  V30 4366 H 399.646 -0.716651 -1.91532 0
M  V30 4367 H 397.801 0.950777 -3.75552 0
M  V30 4368 H 398.215 -0.73212 -5.19365 0
M  V30 4369 H 399.689 0.96085 -5.43573 0
M  V30 4370 H 400.166 1.8427 -3.98674 0
M  V30 4371 H 400.772 0.191143 -4.2487 0
M  V30 4372 N 399.087 1.5561 -0.249682 0
M  V30 4373 C 400.034 2.21496 0.648694 0
M  V30 4374 C 401.004 1.17977 1.16921 0
M  V30 4375 O 402.189 1.46434 1.22318 0
M  V30 4376 C 399.329 2.92039 1.83868 0
M  V30 4377 C 398.442 4.10219 1.35442 0
M  V30 4378 C 397.577 4.6847 2.50419 0
M  V30 4379 C 396.616 5.78893 1.98869 0
M  V30 4380 N 395.753 6.31315 3.07223 0
M  V30 4381 H 400.593 2.97892 0.0801582 0
M  V30 4382 H 398.13 1.47074 0.0278031 0
M  V30 4383 H 400.088 3.31138 2.53778 0
M  V30 4384 H 398.718 2.18111 2.37965 0
M  V30 4385 H 397.77 3.76413 0.54928 0
M  V30 4386 H 399.082 4.89927 0.936649 0
M  V30 4387 H 398.236 5.10158 3.28366 0
M  V30 4388 H 396.975 3.87984 2.95499 0
M  V30 4389 H 395.98 5.3668 1.19393 0
M  V30 4390 H 397.205 6.61232 1.54755 0
M  V30 4391 H 395.151 5.53733 3.51732 0
M  V30 4392 H 395.068 7.06224 2.69784 0
M  V30 4393 H 396.336 6.77662 3.8522 0
M  V30 4394 N 400.565 -0.0233959 1.57583 0
M  V30 4395 C 401.497 -1.04994 2.03737 0
M  V30 4396 C 402.51 -1.32125 0.951152 0
M  V30 4397 O 403.699 -1.29512 1.22837 0
M  V30 4398 C 400.799 -2.39026 2.40249 0
M  V30 4399 C 399.972 -2.31171 3.7132 0
M  V30 4400 C 399.031 -3.47698 3.94959 0
M  V30 4401 O 398.057 -3.26937 4.65941 0
M  V30 4402 N 399.259 -4.6976 3.41037 0
M  V30 4403 H 402.024 -0.656507 2.92421 0
M  V30 4404 H 399.585 -0.211235 1.60516 0
M  V30 4405 H 401.577 -3.15712 2.53196 0
M  V30 4406 H 400.147 -2.70194 1.57207 0
M  V30 4407 H 399.367 -1.39547 3.68674 0
M  V30 4408 H 400.655 -2.23071 4.57293 0
M  V30 4409 H 400.053 -4.89528 2.83512 0
M  V30 4410 H 398.61 -5.43791 3.59353 0
M  V30 4411 N 402.043 -1.548 -0.295768 0
M  V30 4412 C 403.292 -1.73538 -1.02798 0
M  V30 4413 C 403.605 -0.531159 -1.8825 0
M  V30 4414 O 404.811 -0.600458 -2.64777 0
M  V30 4415 C 403.267 -3.07051 -1.87744 0
M  V30 4416 C 402.875 -4.34968 -1.07269 0
M  V30 4417 C 404.619 -3.35146 -2.60533 0
M  V30 4418 C 402.526 -5.5953 -1.91521 0
M  V30 4419 H 401.456 -0.646794 -0.387522 0
M  V30 4420 H 404.107 -1.81278 -0.284718 0
M  V30 4421 H 402.489 -2.93289 -2.66078 0
M  V30 4422 H 403.663 -4.5958 -0.335117 0
M  V30 4423 H 401.978 -4.13847 -0.460384 0
M  V30 4424 H 404.575 -4.2541 -3.23929 0
M  V30 4425 H 404.918 -2.54255 -3.29636 0
M  V30 4426 H 405.451 -3.49902 -1.89244 0
M  V30 4427 H 402.19 -6.43103 -1.26878 0
M  V30 4428 H 401.71 -5.39096 -2.62937 0
M  V30 4429 H 403.389 -5.96982 -2.49442 0
M  V30 4430 N 403.521 0.559213 -1.47345 0
M  V30 4431 C 404.77 1.31281 -1.53128 0
M  V30 4432 C 405.083 1.94602 -0.197344 0
M  V30 4433 O 406.289 2.71173 -0.133154 0
M  V30 4434 C 404.745 2.38051 -2.69925 0
M  V30 4435 C 404.353 1.8093 -4.0984 0
M  V30 4436 C 406.097 3.14604 -2.84999 0
M  V30 4437 C 404.004 2.85468 -5.1794 0
M  V30 4438 H 402.934 0.493614 -0.569966 0
M  V30 4439 H 405.585 0.594155 -1.73615 0
M  V30 4440 H 403.967 3.12822 -2.42814 0
M  V30 4441 H 405.141 1.12544 -4.46845 0
M  V30 4442 H 403.456 1.16967 -3.99634 0
M  V30 4443 H 406.053 3.92666 -3.62929 0
M  V30 4444 H 406.396 3.68665 -1.93369 0
M  V30 4445 H 406.929 2.46945 -3.1187 0
M  V30 4446 H 403.668 2.36264 -6.1144 0
M  V30 4447 H 403.188 3.52269 -4.85455 0
M  V30 4448 H 404.867 3.48996 -5.44803 0
M  V30 4449 N 404.999 1.35443 0.805782 0
M  V30 4450 C 405.946 1.28431 1.91766 0
M  V30 4451 C 406.916 0.156102 1.65365 0
M  V30 4452 O 408.101 0.339936 1.87747 0
M  V30 4453 C 405.241 1.06301 3.2832 0
M  V30 4454 C 404.354 2.2805 3.66902 0
M  V30 4455 C 403.489 1.99064 4.92491 0
M  V30 4456 C 402.528 3.16863 5.23703 0
M  V30 4457 N 401.665 2.87647 6.40471 0
M  V30 4458 H 406.505 2.23511 1.97096 0
M  V30 4459 H 404.042 1.11105 0.964054 0
M  V30 4460 H 406 0.915012 4.07042 0
M  V30 4461 H 404.63 0.148822 3.22457 0
M  V30 4462 H 403.682 2.53711 2.83434 0
M  V30 4463 H 404.994 3.1601 3.85927 0
M  V30 4464 H 404.148 1.81099 5.7904 0
M  V30 4465 H 402.887 1.0839 4.75503 0
M  V30 4466 H 401.892 3.35404 4.35642 0
M  V30 4467 H 403.117 4.08339 5.4262 0
M  V30 4468 H 401.063 1.99568 6.24907 0
M  V30 4469 H 400.98 3.69141 6.59751 0
M  V30 4470 H 402.248 2.73226 7.30047 0
M  V30 4471 N 406.477 -1.02803 1.19454 0
M  V30 4472 C 407.705 -1.79841 1.02297 0
M  V30 4473 C 408.12 -1.83879 -0.428259 0
M  V30 4474 O 407.477 -1.28345 -1.29745 0
M  V30 4475 C 407.528 -3.24852 1.58598 0
M  V30 4476 O 407.249 -3.21097 2.98041 0
M  V30 4477 C 408.75 -4.18485 1.46236 0
M  V30 4478 H 405.97 -0.565936 0.360496 0
M  V30 4479 H 408.514 -1.2948 1.58288 0
M  V30 4480 H 406.669 -3.72401 1.06753 0
M  V30 4481 H 407.083 -4.12033 3.24545 0
M  V30 4482 H 408.557 -5.18121 1.90407 0
M  V30 4483 H 409.034 -4.37254 0.41301 0
M  V30 4484 H 409.64 -3.76811 1.97215 0
M  V30 4485 N 407.956 -0.998596 -1.21925 0
M  V30 4486 C 409.184 -0.696286 -1.94832 0
M  V30 4487 C 409.599 0.740032 -1.73692 0
M  V30 4488 O 408.956 1.5 -1.03953 0
M  V30 4489 C 409.007 -0.999833 -3.47398 0
M  V30 4490 O 408.728 -2.37972 -3.67833 0
M  V30 4491 C 410.229 -0.716025 -4.37479 0
M  V30 4492 H 407.449 -0.257111 -0.619786 0
M  V30 4493 H 409.993 -1.33491 -1.54921 0
M  V30 4494 H 408.148 -0.406918 -3.85257 0
M  V30 4495 H 408.562 -2.48338 -4.61983 0
M  V30 4496 H 410.036 -0.978642 -5.43256 0
M  V30 4497 H 410.513 0.349968 -4.37803 0
M  V30 4498 H 411.119 -1.29025 -4.05256 0
M  V30 4499 N 409.434 1.37368 -0.772513 0
M  V30 4500 C 410.68 1.99969 -0.337681 0
M  V30 4501 C 411.013 1.61184 1.08321 0
M  V30 4502 O 410.288 0.858395 1.74533 0
M  V30 4503 C 410.571 3.56858 -0.482121 0
M  V30 4504 C 410.424 4.0555 -1.94549 0
M  V30 4505 C 411.743 4.39955 0.113143 0
M  V30 4506 H 408.862 0.726464 -0.124171 0
M  V30 4507 H 411.504 1.63034 -0.975699 0
M  V30 4508 H 409.654 3.88452 0.0610361 0
M  V30 4509 H 411.326 3.84518 -2.54841 0
M  V30 4510 H 409.569 3.57715 -2.45403 0
M  V30 4511 H 410.24 5.14587 -1.9976 0
M  V30 4512 H 412.716 4.14623 -0.35031 0
M  V30 4513 H 411.592 5.48897 -0.0180514 0
M  V30 4514 H 411.853 4.25403 1.20354 0
M  V30 4515 N 410.912 0.523116 1.48665 0
M  V30 4516 C 412.137 -0.0117284 2.07397 0
M  V30 4517 C 412.562 -1.28031 1.37803 0
M  V30 4518 O 411.92 -1.75836 0.441762 0
M  V30 4519 C 411.968 -0.225786 3.59892 0
M  V30 4520 O 411.072 -1.29592 3.91509 0
M  V30 4521 H 410.413 0.0360673 0.66302 0
M  V30 4522 H 412.943 0.729066 1.9117 0
M  V30 4523 H 412.953 -0.450552 4.05505 0
M  V30 4524 H 411.628 0.700944 4.09951 0
M  V30 4525 H 410.205 -1.05436 3.57684 0
M  V30 4526 N 412.39 -1.55475 0.257931 0
M  V30 4527 C 413.615 -2.04064 -0.370488 0
M  V30 4528 C 414.04 -1.13565 -1.49948 0
M  V30 4529 O 413.398 -0.130781 -1.80828 0
M  V30 4530 C 413.446 -3.50554 -0.845237 0
M  V30 4531 O 412.55 -3.63173 -1.95394 0
M  V30 4532 H 411.891 -0.659257 -0.0792243 0
M  V30 4533 H 414.421 -2.00903 0.387212 0
M  V30 4534 H 414.431 -3.91588 -1.14555 0
M  V30 4535 H 413.106 -4.15896 -0.0191259 0
M  V30 4536 H 411.683 -3.34039 -1.65748 0
M  V30 4537 N 413.868 0.0150385 -1.57593 0
M  V30 4538 C 415.115 0.703001 -1.89906 0
M  V30 4539 C 415.443 1.74604 -0.856944 0
M  V30 4540 O 414.698 1.95197 0.140287 0
M  V30 4541 C 414.997 1.39686 -3.28972 0
M  V30 4542 C 414.663 0.488457 -4.48246 0
M  V30 4543 C 413.325 0.2383 -4.8061 0
M  V30 4544 C 415.677 -0.137881 -5.21018 0
M  V30 4545 C 413.005 -0.646738 -5.83125 0
M  V30 4546 C 415.357 -1.0107 -6.24474 0
M  V30 4547 C 414.021 -1.27019 -6.55303 0
M  V30 4548 H 413.291 0.257246 -0.694914 0
M  V30 4549 H 415.938 -0.037259 -1.91464 0
M  V30 4550 H 414.243 2.21079 -3.23468 0
M  V30 4551 H 415.94 1.93495 -3.51227 0
M  V30 4552 H 412.53 0.693593 -4.22951 0
M  V30 4553 H 416.714 0.0423953 -4.96282 0
M  V30 4554 H 411.97 -0.855937 -6.05379 0
M  V30 4555 H 416.144 -1.50247 -6.79999 0
M  V30 4556 H 413.771 -1.95769 -7.3456 0
M  V30 4557 N 415.346 1.54954 0.287554 0
M  V30 4558 C 416.294 1.87606 1.37502 0
M  V30 4559 C 417.288 0.751001 1.51843 0
M  V30 4560 O 418.494 0.935169 1.53801 0
M  V30 4561 H 414.869 0.595231 0.459569 0
M  V30 4562 H 416.84 2.78477 1.07206 0
M  V30 4563 C 415.589 2.15183 2.73115 0
M  V30 4564 H 414.912 3.01234 2.62866 0
M  V30 4565 H 416.352 2.4196 3.48183 0
M  V30 4566 C 414.811 0.954686 3.2309 0
M  V30 4567 O 415.341 0.181949 4.01288 0
M  V30 4568 N 413.547 0.756368 2.80584 0
M  V30 4569 H 413.094 1.38643 2.17108 0
M  V30 4570 H 413.052 -0.0430391 3.14371 0
M  V30 4571 N 416.824 -0.551391 1.4764 0
M  V30 4572 C 418.24 -0.877887 1.33287 0
M  V30 4573 C 418.44 -1.98817 0.327721 0
M  V30 4574 O 417.496 -2.51171 -0.258695 0
M  V30 4575 C 418.809 -1.26563 2.72768 0
M  V30 4576 C 420.357 -1.37673 2.81097 0
M  V30 4577 C 420.832 -1.79799 4.21232 0
M  V30 4578 N 422.323 -1.8694 4.23802 0
M  V30 4579 C 423.058 -2.20876 5.29151 0
M  V30 4580 N 422.554 -2.53386 6.448 0
M  V30 4581 N 424.347 -2.217 5.16532 0
M  V30 4582 H 416.498 0.18153 2.11623 0
M  V30 4583 H 418.761 0.0185514 0.947818 0
M  V30 4584 H 418.467 -0.523591 3.47781 0
M  V30 4585 H 418.341 -2.22052 3.04915 0
M  V30 4586 H 420.728 -2.10956 2.06353 0
M  V30 4587 H 420.809 -0.40357 2.52596 0
M  V30 4588 H 420.453 -1.07083 4.96483 0
M  V30 4589 H 420.383 -2.78128 4.4716 0
M  V30 4590 H 422.874 -1.64179 3.40373 0
M  V30 4591 H 423.187 -2.78325 7.20941 0
M  V30 4592 H 421.532 -2.50953 6.48111 0
M  V30 4593 H 424.723 -1.95745 4.25207 0
M  V30 4594 H 424.896 -2.47818 5.98741 0
M  V30 4595 N 418.302 -1.35869 -0.798587 0
M  V30 4596 C 419.53 -1.32722 -1.58722 0
M  V30 4597 C 419.945 0.0935631 -1.88568 0
M  V30 4598 O 419.302 1.04784 -1.49421 0
M  V30 4599 C 419.353 -2.13974 -2.91371 0
M  V30 4600 O 419.074 -3.50514 -2.62815 0
M  V30 4601 C 420.575 -2.18504 -3.85708 0
M  V30 4602 H 417.795 -0.45562 -0.492596 0
M  V30 4603 H 420.339 -1.78837 -0.991843 0
M  V30 4604 H 418.494 -1.71438 -3.47402 0
M  V30 4605 H 418.908 -3.92806 -3.47568 0
M  V30 4606 H 420.382 -2.79732 -4.75872 0
M  V30 4607 H 420.859 -1.18597 -4.22885 0
M  V30 4608 H 421.465 -2.61236 -3.35612 0
M  V30 4609 N 419.78 1.02168 -1.19998 0
M  V30 4610 C 420.743 2.08765 -0.94604 0
M  V30 4611 C 421.743 1.60618 0.0763846 0
M  V30 4612 O 422.933 1.73472 -0.159135 0
M  V30 4613 C 420.065 3.38262 -0.423255 0
M  V30 4614 H 421.258 2.32726 -1.89153 0
M  V30 4615 H 418.811 1.1889 -1.01464 0
M  V30 4616 H 419.546 3.19974 0.527938 0
M  V30 4617 H 419.331 3.74532 -1.16053 0
M  V30 4618 H 420.821 4.16759 -0.264911 0
M  V30 4619 N 421.258 1.00505 1.21394 0
M  V30 4620 C 422.486 0.706609 1.9446 0
M  V30 4621 C 422.901 -0.73081 1.74082 0
M  V30 4622 O 422.258 -1.49446 1.04747 0
M  V30 4623 C 422.309 1.01824 3.46863 0
M  V30 4624 O 422.03 2.39919 3.66566 0
M  V30 4625 C 423.531 0.739216 4.37093 0
M  V30 4626 H 420.751 0.260394 0.618414 0
M  V30 4627 H 423.295 1.34311 1.54211 0
M  V30 4628 H 421.45 0.427343 3.85036 0
M  V30 4629 H 421.864 2.50784 4.6066 0
M  V30 4630 H 423.338 1.00744 5.42729 0
M  V30 4631 H 423.815 -0.326746 4.37983 0
M  V30 4632 H 424.421 1.31173 4.04566 0
M  V30 4633 N 422.737 -1.36956 0.779787 0
M  V30 4634 C 423.984 -1.99491 0.347766 0
M  V30 4635 C 424.312 -1.61898 -1.07793 0
M  V30 4636 O 423.567 -0.86071 -1.75756 0
M  V30 4637 C 423.866 -3.54585 0.447686 0
M  V30 4638 C 423.532 -4.1197 1.83279 0
M  V30 4639 C 422.194 -4.27356 2.2118 0
M  V30 4640 C 424.546 -4.43354 2.74019 0
M  V30 4641 C 421.874 -4.71432 3.4924 0
M  V30 4642 C 424.226 -4.88858 4.01497 0
M  V30 4643 C 422.89 -5.0245 4.39432 0
M  V30 4644 H 422.16 -0.729991 0.127257 0
M  V30 4645 H 424.807 -1.63599 0.995376 0
M  V30 4646 H 423.112 -3.90773 -0.283447 0
M  V30 4647 H 424.809 -4.00888 0.0945948 0
M  V30 4648 H 421.399 -4.00428 1.52825 0
M  V30 4649 H 425.583 -4.31045 2.45995 0
M  V30 4650 H 420.839 -4.80141 3.78516 0
M  V30 4651 H 425.013 -5.12108 4.71931 0
M  V30 4652 H 422.64 -5.36362 5.38721 0
M  V30 4653 N 424.215 -0.530993 -1.48385 0
M  V30 4654 C 425.148 0.278511 -2.26494 0
M  V30 4655 C 426.126 0.943905 -1.32398 0
M  V30 4656 O 427.31 0.968098 -1.61741 0
M  V30 4657 C 424.437 1.39453 -3.08659 0
M  V30 4658 C 423.483 0.840434 -4.18137 0
M  V30 4659 S 424.316 -0.292496 -5.34701 0
M  V30 4660 C 425.472 0.825973 -6.20426 0
M  V30 4661 H 425.705 -0.384365 -2.94805 0
M  V30 4662 H 423.238 -0.316799 -1.51115 0
M  V30 4663 H 425.196 2.03382 -3.56575 0
M  V30 4664 H 423.857 2.02913 -2.3976 0
M  V30 4665 H 423.05 1.67769 -4.75257 0
M  V30 4666 H 422.652 0.277819 -3.72967 0
M  V30 4667 H 424.944 1.72438 -6.55188 0
M  V30 4668 H 425.887 0.292728 -7.07495 0
M  V30 4669 H 426.295 1.10683 -5.53543 0
M  V30 4670 N 425.693 1.55336 -0.266172 0
M  V30 4671 C 427.104 1.85236 0.233315 0
M  V30 4672 C 427.455 1.18816 1.56132 0
M  V30 4673 O 426.58 0.473307 2.11161 0
M  V30 4674 C 427.175 3.36059 0.430113 0
M  V30 4675 C 425.734 3.66116 0.873842 0
M  V30 4676 C 424.881 2.77274 -0.0380016 0
M  V30 4677 H 427.832 1.51004 -0.488214 0
M  V30 4678 H 427.853 3.58681 1.26998 0
M  V30 4679 H 427.365 3.84373 -0.536588 0
M  V30 4680 H 425.466 3.23295 1.85233 0
M  V30 4681 H 425.579 4.73699 0.717358 0
M  V30 4682 H 423.943 2.50198 0.476759 0
M  V30 4683 H 424.726 3.284 -1.00042 0
M  V30 4684 N 427.171 -0.0066808 1.57599 0
M  V30 4685 C 428.118 -1.00024 2.08 0
M  V30 4686 C 429.088 -1.34549 0.973943 0
M  V30 4687 O 430.273 -1.44502 1.24595 0
M  V30 4688 C 427.413 -2.2891 2.58252 0
M  V30 4689 C 426.526 -2.00346 3.82734 0
M  V30 4690 C 425.661 -3.23265 4.21513 0
M  V30 4691 C 424.7 -2.90357 5.3885 0
M  V30 4692 N 423.837 -4.05793 5.72954 0
M  V30 4693 H 428.677 -0.563499 2.92624 0
M  V30 4694 H 426.214 -0.266592 1.44664 0
M  V30 4695 H 428.172 -3.04247 2.85464 0
M  V30 4696 H 426.802 -2.70265 1.76512 0
M  V30 4697 H 425.854 -1.15406 3.62471 0
M  V30 4698 H 427.166 -1.72086 4.68175 0
M  V30 4699 H 426.32 -4.06953 4.49971 0
M  V30 4700 H 425.059 -3.54657 3.34768 0
M  V30 4701 H 424.064 -2.05075 5.10122 0
M  V30 4702 H 425.289 -2.60219 6.27266 0
M  V30 4703 H 423.235 -4.37094 4.89167 0
M  V30 4704 H 423.152 -3.81034 6.52954 0
M  V30 4705 H 424.42 -4.90289 6.06001 0
M  V30 4706 N 428.649 -1.55105 -0.279332 0
M  V30 4707 C 430.06 -1.66186 -0.850832 0
M  V30 4708 C 430.411 -0.584707 -1.87285 0
M  V30 4709 O 429.536 0.274919 -2.14647 0
M  V30 4710 C 430.131 -3.01264 -1.55001 0
M  V30 4711 C 428.69 -3.14394 -2.06963 0
M  V30 4712 C 427.837 -2.61959 -0.909536 0
M  V30 4713 H 430.788 -1.58602 -0.0558235 0
M  V30 4714 H 430.809 -2.93899 -2.41669 0
M  V30 4715 H 430.321 -3.7964 -0.805931 0
M  V30 4716 H 428.422 -2.4078 -2.84352 0
M  V30 4717 H 428.535 -4.20867 -2.28928 0
M  V30 4718 H 426.899 -2.18957 -1.30116 0
M  V30 4719 H 427.682 -3.42833 -0.179062 0
M  V30 4720 N 430.127 0.543554 -1.4793 0
M  V30 4721 C 431.057 1.65888 -1.64327 0
M  V30 4722 C 432.038 1.62818 -0.492383 0
M  V30 4723 O 433.223 1.80226 -0.723338 0
M  V30 4724 C 430.353 3.04506 -1.67013 0
M  V30 4725 C 429.307 3.2243 -2.81466 0
M  V30 4726 C 428.633 4.61972 -2.69233 0
M  V30 4727 C 429.933 3.06496 -4.22915 0
M  V30 4728 H 431.627 1.52421 -2.57698 0
M  V30 4729 H 429.173 0.731849 -1.24016 0
M  V30 4730 H 431.126 3.82391 -1.77074 0
M  V30 4731 H 429.85 3.18964 -0.70212 0
M  V30 4732 H 428.509 2.46957 -2.70938 0
M  V30 4733 H 428.157 4.73247 -1.7043 0
M  V30 4734 H 427.857 4.74911 -3.46025 0
M  V30 4735 H 429.381 5.41974 -2.81242 0
M  V30 4736 H 430.795 3.74186 -4.34348 0
M  V30 4737 H 429.192 3.30938 -5.006 0
M  V30 4738 H 430.262 2.03077 -4.40327 0
M  V30 4739 N 431.605 1.3629 0.791371 0
M  V30 4740 C 432.851 1.30605 1.55146 0
M  V30 4741 C 433.184 -0.115042 1.93859 0
M  V30 4742 O 432.459 -1.06798 1.62556 0
M  V30 4743 C 432.742 2.22692 2.82985 0
M  V30 4744 C 432.595 3.73489 2.50651 0
M  V30 4745 C 433.914 2.13588 3.84796 0
M  V30 4746 H 431.033 0.475761 0.562868 0
M  V30 4747 H 433.675 1.66825 0.909358 0
M  V30 4748 H 431.825 1.91933 3.37778 0
M  V30 4749 H 433.497 4.14758 2.01924 0
M  V30 4750 H 431.74 3.93021 1.83622 0
M  V30 4751 H 432.411 4.3333 3.41949 0
M  V30 4752 H 434.887 2.40659 3.39445 0
M  V30 4753 H 433.763 2.80195 4.71998 0
M  V30 4754 H 434.024 1.12256 4.27611 0
M  V30 4755 N 433.083 -1.0153 1.20538 0
M  V30 4756 C 434.031 -2.12215 0.952235 0
M  V30 4757 C 435.025 -1.69123 -0.0968735 0
M  V30 4758 O 436.231 -1.7992 0.0536006 0
M  V30 4759 H 432.606 -0.693576 0.290613 0
M  V30 4760 H 434.577 -2.3075 1.89201 0
M  V30 4761 C 433.326 -3.43755 0.522287 0
M  V30 4762 H 432.649 -3.7734 1.32115 0
M  V30 4763 H 434.089 -4.22254 0.384389 0
M  V30 4764 C 432.548 -3.28088 -0.765489 0
M  V30 4765 O 433.078 -3.57921 -1.8236 0
M  V30 4766 N 431.284 -2.81333 -0.728011 0
M  V30 4767 H 430.831 -2.57255 0.133332 0
M  V30 4768 H 430.789 -2.71232 -1.58999 0
M  V30 4769 N 434.561 -1.01147 -1.20859 0
M  V30 4770 C 435.838 -0.613136 -1.85742 0
M  V30 4771 C 436.218 0.909004 -1.90526 0
M  V30 4772 O 435.566 1.79862 -1.40932 0
M  V30 4773 C 435.776 -1.255 -3.25654 0
M  V30 4774 C 437.124 -1.3672 -4.01986 0
M  V30 4775 O 438.148 -1.21082 -3.34989 0
M  V30 4776 O 437.007 -1.6194 -5.21956 0
M  V30 4777 H 434.101 -0.210878 -0.799662 0
M  V30 4778 H 436.647 -1.10853 -1.2849 0
M  V30 4779 H 435.419 -2.29532 -3.16908 0
M  V30 4780 H 435.042 -0.746369 -3.90532 0
M  V30 4781 N 436.039 1.36541 -0.78704 0
M  V30 4782 C 436.987 2.31965 -0.171724 0
M  V30 4783 C 437.981 1.55689 0.667631 0
M  V30 4784 O 439.187 1.70969 0.562981 0
M  V30 4785 H 435.562 0.751101 -0.0367545 0
M  V30 4786 H 437.533 2.81428 -0.992017 0
M  V30 4787 C 436.282 3.40968 0.680904 0
M  V30 4788 H 435.605 3.99775 0.0443961 0
M  V30 4789 H 437.045 4.10063 1.07815 0
M  V30 4790 C 435.504 2.82338 1.83813 0
M  V30 4791 O 436.034 2.74311 2.93456 0
M  V30 4792 N 434.24 2.39661 1.6435 0
M  V30 4793 H 433.787 2.46389 0.751668 0
M  V30 4794 H 433.745 2.00779 2.4194 0
M  V30 4795 N 437.518 0.538854 1.48102 0
M  V30 4796 C 438.766 0.00798599 2.02098 0
M  V30 4797 C 439.087 -1.33922 1.41739 0
M  V30 4798 O 438.357 -1.86932 0.585934 0
M  V30 4799 H 436.937 -3.62179e-05 0.747 0
M  V30 4800 H 439.599 0.7047 1.81714 0
M  V30 4801 H 438.695 -0.0937672 3.11959 0
M  V30 4802 N 438.996 -1.55193 0.274407 0
M  V30 4803 C 439.944 -2.23924 -0.629362 0
M  V30 4804 C 440.938 -1.23602 -1.1584 0
M  V30 4805 O 442.144 -1.41535 -1.11211 0
M  V30 4806 H 438.519 -0.718637 -0.221507 0
M  V30 4807 H 440.49 -2.98388 -0.0268322 0
M  V30 4808 C 439.239 -2.97329 -1.80252 0
M  V30 4809 H 438.562 -3.74313 -1.40462 0
M  V30 4810 H 440.002 -3.48743 -2.41152 0
M  V30 4811 C 438.461 -2.0276 -2.69054 0
M  V30 4812 O 438.991 -1.57836 -3.69392 0
M  V30 4813 N 437.197 -1.69275 -2.36208 0
M  V30 4814 H 436.744 -2.06004 -1.54661 0
M  V30 4815 H 436.702 -1.06271 -2.95895 0
M  V30 4816 N 440.474 -0.00167713 -1.576 0
M  V30 4817 C 441.722 0.681471 -1.90264 0
M  V30 4818 C 442.043 1.7422 -0.875924 0
M  V30 4819 O 441.313 1.95709 0.0864412 0
M  V30 4820 H 439.893 0.254696 -0.702239 0
M  V30 4821 H 442.555 -0.0429996 -1.94853 0
M  V30 4822 H 441.651 1.15166 -2.90075 0
M  V30 4823 N 441.952 1.55251 0.271103 0
M  V30 4824 C 442.882 1.9127 1.33933 0
M  V30 4825 C 443.863 0.77478 1.5143 0
M  V30 4826 O 445.048 1.03307 1.64442 0
M  V30 4827 C 442.178 2.18627 2.69851 0
M  V30 4828 C 441.132 3.34442 2.67081 0
M  V30 4829 C 440.458 3.47284 4.06569 0
M  V30 4830 C 441.758 4.70784 2.26185 0
M  V30 4831 H 443.452 2.80744 1.04035 0
M  V30 4832 H 440.998 1.35077 0.499017 0
M  V30 4833 H 442.951 2.42413 3.44694 0
M  V30 4834 H 441.675 1.25955 3.01335 0
M  V30 4835 H 440.334 3.10627 1.94695 0
M  V30 4836 H 439.982 2.52074 4.35279 0
M  V30 4837 H 439.682 4.25152 4.0561 0
M  V30 4838 H 441.206 3.73363 4.83148 0
M  V30 4839 H 442.62 4.94102 2.90751 0
M  V30 4840 H 441.017 5.51582 2.36384 0
M  V30 4841 H 442.087 4.69478 1.21319 0
M  V30 4842 N 443.43 -0.535701 1.48216 0
M  V30 4843 C 444.38 -1.63688 1.58714 0
M  V30 4844 C 445.364 -1.54635 0.444615 0
M  V30 4845 O 446.556 -1.62753 0.695742 0
M  V30 4846 C 443.685 -3.02423 1.62466 0
M  V30 4847 C 442.771 -3.16601 2.82178 0
M  V30 4848 N 443.162 -3.00771 4.06658 0
M  V30 4849 C 441.46 -3.47645 2.79391 0
M  V30 4850 C 442.161 -3.18213 4.86945 0
M  V30 4851 N 441.137 -3.45528 4.19656 0
M  V30 4852 H 444.939 -1.5005 2.5271 0
M  V30 4853 H 442.453 -0.741018 1.44508 0
M  V30 4854 H 444.45 -3.81517 1.6808 0
M  V30 4855 H 443.11 -3.17157 0.695826 0
M  V30 4856 H 444.121 -2.77652 4.37184 0
M  V30 4857 H 440.798 -3.68771 1.95739 0
M  V30 4858 H 442.188 -3.1076 5.95716 0
M  V30 4859 N 444.908 -1.36708 -0.784132 0
M  V30 4860 C 446.148 -1.32618 -1.55537 0
M  V30 4861 C 446.512 0.0920681 -1.91779 0
M  V30 4862 O 447.713 0.257573 -2.67563 0
M  V30 4863 C 445.984 -2.22788 -2.79464 0
M  V30 4864 S 447.543 -2.36432 -3.69656 0
M  V30 4865 H 444.361 -0.470973 -0.53264 0
M  V30 4866 H 446.963 -1.72333 -0.92312 0
M  V30 4867 H 445.667 -3.24774 -2.50899 0
M  V30 4868 H 445.198 -1.84112 -3.47658 0
M  V30 4869 H 447.213 -1.56573 -4.7085 0
M  V30 4870 N 446.386 1.0089 -1.21074 0
M  V30 4871 C 447.334 2.11707 -0.963476 0
M  V30 4872 C 448.328 1.69172 0.0879032 0
M  V30 4873 O 449.534 1.79889 -0.0631415 0
M  V30 4874 H 445.909 0.692026 -0.294287 0
M  V30 4875 H 447.88 2.29743 -1.90422 0
M  V30 4876 C 446.629 3.43473 -0.540509 0
M  V30 4877 H 445.952 3.76634 -1.34114 0
M  V30 4878 H 447.392 4.22044 -0.406777 0
M  V30 4879 C 445.851 3.2849 0.748079 0
M  V30 4880 O 446.381 3.58883 1.8046 0
M  V30 4881 N 444.587 2.81715 0.713081 0
M  V30 4882 H 444.134 2.5718 -0.146973 0
M  V30 4883 H 444.092 2.72071 1.57558 0
M  V30 4884 N 447.864 1.01787 1.20321 0
M  V30 4885 C 449.113 0.703249 1.89043 0
M  V30 4886 C 449.426 -0.770445 1.79787 0
M  V30 4887 O 450.632 -1.19767 2.43656 0
M  V30 4888 C 449.088 1.20749 3.3904 0
M  V30 4889 C 448.696 2.70817 3.56878 0
M  V30 4890 C 450.44 0.968352 4.13308 0
M  V30 4891 C 448.347 3.14716 5.00708 0
M  V30 4892 H 447.277 0.259354 0.707991 0
M  V30 4893 H 449.928 1.23072 1.36108 0
M  V30 4894 H 448.31 0.607989 3.91305 0
M  V30 4895 H 449.484 3.36327 3.14993 0
M  V30 4896 H 447.799 2.92888 2.95983 0
M  V30 4897 H 450.396 1.27173 5.19356 0
M  V30 4898 H 450.739 -0.095149 4.16191 0
M  V30 4899 H 451.272 1.53129 3.67146 0
M  V30 4900 H 448.011 4.20347 5.02979 0
M  V30 4901 H 447.531 2.53927 5.43398 0
M  V30 4902 H 449.21 3.07426 5.69296 0
M  V30 4903 N 449.342 -1.36122 0.79427 0
M  V30 4904 C 450.567 -2.03891 0.379871 0
M  V30 4905 C 450.992 -1.59488 -0.997251 0
M  V30 4906 O 450.35 -0.765652 -1.64339 0
M  V30 4907 C 450.398 -3.57687 0.457442 0
M  V30 4908 O 449.502 -4.08931 -0.5338 0
M  V30 4909 H 448.843 -0.6443 0.160541 0
M  V30 4910 H 451.373 -1.73976 1.07673 0
M  V30 4911 H 451.383 -4.06721 0.322792 0
M  V30 4912 H 450.058 -3.89357 1.46199 0
M  V30 4913 H 448.635 -3.71154 -0.360409 0
M  V30 4914 N 450.82 -0.546701 -1.47814 0
M  V30 4915 C 451.75 0.195317 -2.32682 0
M  V30 4916 C 452.731 0.918981 -1.43139 0
M  V30 4917 O 453.916 0.901501 -1.72008 0
M  V30 4918 C 451.046 1.23237 -3.247 0
M  V30 4919 C 450 0.625818 -4.234 0
M  V30 4920 C 449.326 1.76674 -5.04669 0
M  V30 4921 C 450.626 -0.413515 -5.2066 0
M  V30 4922 H 452.32 -0.513184 -2.94969 0
M  V30 4923 H 449.866 -0.248241 -1.41844 0
M  V30 4924 H 451.819 1.75955 -3.82907 0
M  V30 4925 H 450.543 1.97067 -2.60446 0
M  V30 4926 H 449.202 0.120023 -3.66403 0
M  V30 4927 H 448.85 2.49383 -4.36826 0
M  V30 4928 H 448.55 1.36673 -5.71484 0
M  V30 4929 H 450.074 2.29738 -5.65732 0
M  V30 4930 H 451.488 0.0272042 -5.73294 0
M  V30 4931 H 449.885 -0.731825 -5.95621 0
M  V30 4932 H 450.955 -1.31325 -4.66778 0
M  V30 4933 N 452.299 1.55045 -0.282633 0
M  V30 4934 C 453.545 2.0078 0.325436 0
M  V30 4935 C 453.9 1.1676 1.52921 0
M  V30 4936 O 453.193 0.231475 1.90197 0
M  V30 4937 C 453.387 3.49422 0.750938 0
M  V30 4938 C 453.216 4.47827 -0.410056 0
M  V30 4939 C 451.986 4.97288 -0.896239 0
M  V30 4940 C 454.184 4.98903 -1.24902 0
M  V30 4941 N 452.166 5.79508 -2.02591 0
M  V30 4942 C 453.537 5.78644 -2.22646 0
M  V30 4943 C 455.592 4.81126 -1.2815 0
M  V30 4944 C 454.295 6.42502 -3.23393 0
M  V30 4945 C 456.321 5.45789 -2.27745 0
M  V30 4946 C 455.683 6.25348 -3.24222 0
M  V30 4947 H 451.782 0.77747 0.08405 0
M  V30 4948 H 454.366 1.90369 -0.408368 0
M  V30 4949 H 452.537 3.60159 1.45395 0
M  V30 4950 H 454.269 3.81978 1.33698 0
M  V30 4951 H 451.024 4.71219 -0.474277 0
M  V30 4952 H 451.448 6.25308 -2.59459 0
M  V30 4953 H 456.09 4.19215 -0.549397 0
M  V30 4954 H 453.808 7.03558 -3.97533 0
M  V30 4955 H 457.394 5.33972 -2.31009 0
M  V30 4956 H 456.274 6.74498 -4.00027 0
M  V30 4957 N 453.777 0.010035 1.57597 0
M  V30 4958 C 454.724 -0.978122 2.09049 0
M  V30 4959 C 455.694 -1.33509 0.988159 0
M  V30 4960 O 456.879 -1.43172 1.26121 0
M  V30 4961 C 454.019 -2.26158 2.60666 0
M  V30 4962 C 453.132 -1.96275 3.84838 0
M  V30 4963 C 452.267 -3.18776 4.24918 0
M  V30 4964 C 451.306 -2.84625 5.41899 0
M  V30 4965 N 450.443 -3.99693 5.77226 0
M  V30 4966 H 455.283 -0.532431 2.93205 0
M  V30 4967 H 452.82 -0.251234 1.44939 0
M  V30 4968 H 454.778 -3.01202 2.88675 0
M  V30 4969 H 453.408 -2.68378 1.79369 0
M  V30 4970 H 452.46 -1.11555 3.63675 0
M  V30 4971 H 453.772 -1.67111 4.69974 0
M  V30 4972 H 452.926 -4.02157 4.54262 0
M  V30 4973 H 451.665 -3.51087 3.38511 0
M  V30 4974 H 450.67 -1.99653 5.12268 0
M  V30 4975 H 451.895 -2.53551 6.29991 0
M  V30 4976 H 449.841 -4.31882 4.93776 0
M  V30 4977 H 449.758 -3.74087 6.56959 0
M  V30 4978 H 451.026 -4.83834 6.11167 0
M  V30 4979 N 455.255 -1.55392 -0.262866 0
M  V30 4980 C 456.203 -1.8977 -1.345 0
M  V30 4981 C 457.197 -0.775063 -1.50629 0
M  V30 4982 O 458.403 -0.959519 -1.52293 0
M  V30 4983 H 454.778 -0.602467 -0.450041 0
M  V30 4984 H 456.749 -2.80147 -1.02762 0
M  V30 4985 C 455.498 -2.19501 -2.69657 0
M  V30 4986 H 454.821 -3.05378 -2.5804 0
M  V30 4987 H 456.261 -2.47469 -3.44289 0
M  V30 4988 C 454.72 -1.00597 -3.21531 0
M  V30 4989 O 455.25 -0.245768 -4.00947 0
M  V30 4990 N 453.456 -0.800911 -2.79345 0
M  V30 4991 H 453.003 -1.42079 -2.14875 0
M  V30 4992 H 452.961 -0.00697996 -3.14399 0
M  V30 4993 N 456.733 0.527833 -1.48498 0
M  V30 4994 C 457.681 1.65313 -1.63628 0
M  V30 4995 C 458.675 1.6177 -0.502676 0
M  V30 4996 O 459.881 1.66601 -0.681469 0
M  V30 4997 H 456.256 0.547518 -0.515488 0
M  V30 4998 H 458.227 1.49696 -2.58135 0
M  V30 4999 C 456.976 3.03576 -1.6952 0
M  V30 5000 H 456.299 3.06997 -2.56111 0
M  V30 5001 H 457.739 3.81923 -1.84149 0
M  V30 5002 C 456.198 3.34089 -0.43432 0
M  V30 5003 O 456.728 3.99151 0.451852 0
M  V30 5004 N 454.934 2.88991 -0.305368 0
M  V30 5005 H 454.481 2.36222 -1.02747 0
M  V30 5006 H 454.439 3.09776 0.537249 0
M  V30 5007 N 458.211 1.37122 0.776871 0
M  V30 5008 C 459.158 1.3247 1.88998 0
M  V30 5009 C 460.128 0.191143 1.64997 0
M  V30 5010 O 461.313 0.379683 1.86984 0
M  V30 5011 C 458.453 1.13241 3.25992 0
M  V30 5012 C 457.566 2.35782 3.61982 0
M  V30 5013 C 456.701 2.09465 4.88158 0
M  V30 5014 C 455.74 3.279 5.16864 0
M  V30 5015 N 454.877 3.01167 6.34226 0
M  V30 5016 H 459.717 2.27642 1.9231 0
M  V30 5017 H 457.254 1.13125 0.94027 0
M  V30 5018 H 459.212 1.00115 4.0501 0
M  V30 5019 H 457.842 0.217186 3.22069 0
M  V30 5020 H 456.894 2.59666 2.77989 0
M  V30 5021 H 458.206 3.24125 3.79137 0
M  V30 5022 H 457.36 1.93341 5.75069 0
M  V30 5023 H 456.099 1.18452 4.73097 0
M  V30 5024 H 455.104 3.44569 4.2843 0
M  V30 5025 H 456.329 4.19757 5.33836 0
M  V30 5026 H 454.275 2.12779 6.20533 0
M  V30 5027 H 454.192 3.83052 6.51772 0
M  V30 5028 H 455.46 2.88649 7.24087 0
M  V30 5029 N 459.689 -1.00246 1.21608 0
M  V30 5030 C 460.637 -2.11193 0.97469 0
M  V30 5031 C 461.631 -1.69216 -0.0789303 0
M  V30 5032 O 462.837 -1.79853 0.0726806 0
M  V30 5033 H 459.212 -0.690455 0.297953 0
M  V30 5034 H 461.183 -2.2873 1.91638 0
M  V30 5035 C 459.932 -3.43182 0.558717 0
M  V30 5036 H 459.255 -3.75918 1.3611 0
M  V30 5037 H 460.695 -4.21823 0.429154 0
M  V30 5038 C 459.154 -3.28882 -0.730648 0
M  V30 5039 O 459.684 -3.59835 -1.78554 0
M  V30 5040 N 457.89 -2.8209 -0.698131 0
M  V30 5041 H 457.437 -2.57099 0.16061 0
M  V30 5042 H 457.395 -2.72903 -1.56113 0
M  V30 5043 N 461.167 -1.02423 -1.1978 0
M  V30 5044 C 462.416 -0.713265 -1.88667 0
M  V30 5045 C 462.729 0.7609 -1.80193 0
M  V30 5046 O 463.935 1.18473 -2.44288 0
M  V30 5047 C 462.391 -1.22545 -3.38394 0
M  V30 5048 C 461.999 -2.72706 -3.55437 0
M  V30 5049 C 463.743 -0.990257 -4.12788 0
M  V30 5050 C 461.65 -3.17367 -4.99031 0
M  V30 5051 H 460.58 -0.263105 -0.706606 0
M  V30 5052 H 463.231 -1.23792 -1.35454 0
M  V30 5053 H 461.613 -0.628732 -3.90977 0
M  V30 5054 H 462.787 -3.37993 -3.13205 0
M  V30 5055 H 461.102 -2.94453 -2.94425 0
M  V30 5056 H 463.699 -1.29926 -5.18675 0
M  V30 5057 H 464.042 0.0730761 -4.16236 0
M  V30 5058 H 464.575 -1.55074 -3.66329 0
M  V30 5059 H 461.314 -4.23009 -5.00743 0
M  V30 5060 H 460.834 -2.56805 -5.42044 0
M  V30 5061 H 462.513 -3.10441 -5.67658 0
M  V30 5062 N 462.645 1.35699 -0.801477 0
M  V30 5063 C 463.892 1.98913 -0.379459 0
M  V30 5064 C 464.22 1.63592 1.05204 0
M  V30 5065 O 463.475 0.888563 1.74365 0
M  V30 5066 C 463.774 3.53828 -0.504041 0
M  V30 5067 C 463.44 4.09002 -1.8981 0
M  V30 5068 C 462.102 4.23783 -2.27951 0
M  V30 5069 C 464.454 4.38939 -2.81038 0
M  V30 5070 C 461.782 4.65816 -3.56696 0
M  V30 5071 C 464.134 4.82409 -4.09224 0
M  V30 5072 C 462.798 4.95395 -4.4737 0
M  V30 5073 H 462.068 0.727874 -0.138854 0
M  V30 5074 H 464.715 1.61994 -1.02128 0
M  V30 5075 H 463.02 3.91175 0.221242 0
M  V30 5076 H 464.717 4.00687 -0.158361 0
M  V30 5077 H 461.307 3.97946 -1.59176 0
M  V30 5078 H 465.491 4.27077 -2.52821 0
M  V30 5079 H 460.747 4.74059 -3.86106 0
M  V30 5080 H 464.921 5.04535 -4.80018 0
M  V30 5081 H 462.548 5.27724 -5.47185 0
M  V30 5082 N 464.123 0.554532 1.47522 0
M  V30 5083 C 465.353 0.0342074 2.06572 0
M  V30 5084 C 465.761 -1.26375 1.40805 0
M  V30 5085 O 465.104 -1.7683 0.49769 0
M  V30 5086 C 465.166 -0.235096 3.5873 0
M  V30 5087 C 464.83 0.973024 4.46521 0
M  V30 5088 C 465.827 1.8779 4.848 0
M  V30 5089 C 463.512 1.18694 4.88075 0
M  V30 5090 C 465.506 2.98039 5.63428 0
M  V30 5091 C 463.193 2.29254 5.66468 0
M  V30 5092 C 464.191 3.18757 6.04055 0
M  V30 5093 O 463.879 4.27401 6.8087 0
M  V30 5094 H 463.611 0.041587 0.67472 0
M  V30 5095 H 466.165 0.766748 1.90552 0
M  V30 5096 H 464.395 -1.02191 3.72953 0
M  V30 5097 H 466.084 -0.700477 3.9981 0
M  V30 5098 H 466.85 1.72467 4.53299 0
M  V30 5099 H 462.729 0.49947 4.58286 0
M  V30 5100 H 466.273 3.67926 5.92685 0
M  V30 5101 H 462.17 2.4455 5.97382 0
M  V30 5102 H 462.938 4.25415 6.9926 0
M  V30 5103 N 465.601 -1.54893 0.290851 0
M  V30 5104 C 466.551 -2.19838 -0.604599 0
M  V30 5105 C 467.535 -1.16805 -1.10659 0
M  V30 5106 O 468.727 -1.42562 -1.04905 0
M  V30 5107 C 465.856 -2.93497 -1.78086 0
M  V30 5108 C 464.942 -4.03835 -1.29531 0
M  V30 5109 N 465.333 -5.03047 -0.527024 0
M  V30 5110 C 463.631 -4.17192 -1.57693 0
M  V30 5111 C 464.332 -5.81074 -0.269728 0
M  V30 5112 N 463.308 -5.36966 -0.846651 0
M  V30 5113 H 467.11 -2.93898 -0.00995032 0
M  V30 5114 H 464.624 -1.62121 0.0951353 0
M  V30 5115 H 466.621 -3.38484 -2.43381 0
M  V30 5116 H 465.281 -2.2095 -2.37931 0
M  V30 5117 H 466.292 -5.17611 -0.172872 0
M  V30 5118 H 462.969 -3.55845 -2.18359 0
M  V30 5119 H 464.359 -6.71005 0.346643 0
M  V30 5120 N 467.08 -0.0183926 -1.57589 0
M  V30 5121 C 468.028 0.985111 -2.10709 0
M  V30 5122 C 469.022 1.34397 -1.0312 0
M  V30 5123 O 470.228 1.32746 -1.21567 0
M  V30 5124 H 466.603 0.335418 -0.673052 0
M  V30 5125 H 468.574 0.511689 -2.9398 0
M  V30 5126 C 467.323 2.26202 -2.64061 0
M  V30 5127 H 466.646 1.9946 -3.4649 0
M  V30 5128 H 468.086 2.94652 -3.04887 0
M  V30 5129 C 466.545 2.98444 -1.5631 0
M  V30 5130 O 467.075 3.90142 -0.956674 0
M  V30 5131 N 465.281 2.6059 -1.28612 0
M  V30 5132 H 464.828 1.86101 -1.78112 0
M  V30 5133 H 464.786 3.09238 -0.567406 0
M  V30 5134 N 468.558 1.5553 0.254621 0
M  V30 5135 C 469.835 1.6774 1.00611 0
M  V30 5136 C 470.215 0.555993 2.03647 0
M  V30 5137 O 469.563 -0.441583 2.24193 0
M  V30 5138 C 469.773 3.07725 1.6464 0
M  V30 5139 C 471.121 3.66074 2.15116 0
M  V30 5140 O 472.145 3.10476 1.74595 0
M  V30 5141 O 471.004 4.63526 2.89493 0
M  V30 5142 H 468.098 0.681958 0.467828 0
M  V30 5143 H 470.644 1.67863 0.24902 0
M  V30 5144 H 469.416 3.80792 0.900734 0
M  V30 5145 H 469.039 3.1158 2.46989 0
M  V30 5146 N 470.036 -0.519951 1.48776 0
M  V30 5147 C 471.447 -1.10177 1.50725 0
M  V30 5148 C 471.798 -1.94153 0.282678 0
M  V30 5149 O 470.923 -2.07645 -0.609298 0
M  V30 5150 C 471.518 -2.00482 2.73116 0
M  V30 5151 C 470.077 -2.53862 2.77905 0
M  V30 5152 C 469.224 -1.31047 2.44381 0
M  V30 5153 H 472.175 -0.30473 1.55747 0
M  V30 5154 H 472.196 -2.8491 2.52203 0
M  V30 5155 H 471.708 -1.39335 3.62225 0
M  V30 5156 H 469.809 -3.18702 1.93029 0
M  V30 5157 H 469.922 -2.9231 3.79594 0
M  V30 5158 H 468.286 -1.62953 1.95751 0
M  V30 5159 H 469.069 -0.71637 3.35743 0
M  V30 5160 N 471.514 -1.37532 -0.769588 0
M  V30 5161 C 472.739 -1.36231 -1.56384 0
M  V30 5162 C 473.164 0.0495849 -1.88035 0
M  V30 5163 O 472.522 1.02723 -1.49391 0
M  V30 5164 C 472.57 -2.20986 -2.84952 0
M  V30 5165 O 471.674 -1.61597 -3.79421 0
M  V30 5166 H 471.015 -0.465387 -0.473615 0
M  V30 5167 H 473.545 -1.81085 -0.952342 0
M  V30 5168 H 473.555 -2.34277 -3.34034 0
M  V30 5169 H 472.23 -3.23612 -2.61243 0
M  V30 5170 H 470.807 -1.57359 -3.38072 0
M  V30 5171 N 472.992 0.995999 -1.22138 0
M  V30 5172 C 474.22 1.77066 -1.07029 0
M  V30 5173 C 474.635 1.8495 0.379357 0
M  V30 5174 O 473.992 1.3174 1.26297 0
M  V30 5175 C 474.043 3.20533 -1.67155 0
M  V30 5176 O 473.764 3.13082 -3.06449 0
M  V30 5177 C 475.265 4.14461 -1.5728 0
M  V30 5178 H 472.485 0.556179 -0.375374 0
M  V30 5179 H 475.029 1.25238 -1.61666 0
M  V30 5180 H 473.184 3.6944 -1.16589 0
M  V30 5181 H 473.598 4.03283 -3.35355 0
M  V30 5182 H 475.072 5.1289 -2.04078 0
M  V30 5183 H 475.549 4.36005 -0.528795 0
M  V30 5184 H 476.155 3.71449 -2.07136 0
M  V30 5185 N 474.47 1.03057 1.19235 0
M  V30 5186 C 475.717 0.728019 1.88961 0
M  V30 5187 C 476.045 -0.743515 1.79728 0
M  V30 5188 O 475.3 -1.55729 1.1852 0
M  V30 5189 C 475.599 1.1268 3.39172 0
M  V30 5190 C 475.265 2.5969 3.68608 0
M  V30 5191 C 473.927 2.99854 3.76352 0
M  V30 5192 C 476.279 3.54793 3.81801 0
M  V30 5193 C 473.607 4.34031 3.94758 0
M  V30 5194 C 475.959 4.88675 4.0172 0
M  V30 5195 C 474.623 5.28526 4.07697 0
M  V30 5196 H 473.893 0.266401 0.691456 0
M  V30 5197 H 476.54 1.29373 1.41191 0
M  V30 5198 H 474.845 0.479722 3.88852 0
M  V30 5199 H 476.542 0.870203 3.91444 0
M  V30 5200 H 473.132 2.27575 3.63191 0
M  V30 5201 H 477.316 3.24914 3.7516 0
M  V30 5202 H 472.572 4.6444 3.97625 0
M  V30 5203 H 476.746 5.6228 4.1087 0
M  V30 5204 H 474.373 6.32506 4.21712 0
M  V30 5205 N 475.948 -1.35272 0.808662 0
M  V30 5206 C 477.195 -1.98709 0.390003 0
M  V30 5207 C 477.523 -1.64148 -1.04335 0
M  V30 5208 O 476.778 -0.897797 -1.73891 0
M  V30 5209 C 477.077 -3.53556 0.522798 0
M  V30 5210 C 476.743 -4.0799 1.91977 0
M  V30 5211 C 475.405 -4.22568 2.30195 0
M  V30 5212 C 477.757 -4.37442 2.83361 0
M  V30 5213 C 475.085 -4.63918 3.59162 0
M  V30 5214 C 477.437 -4.80232 4.11776 0
M  V30 5215 C 476.101 -4.93016 4.49991 0
M  V30 5216 H 475.371 -0.727127 0.142712 0
M  V30 5217 H 478.018 -1.6145 1.02985 0
M  V30 5218 H 476.323 -3.91287 -0.200494 0
M  V30 5219 H 478.02 -4.00598 0.179608 0
M  V30 5220 H 474.61 -3.97096 1.61284 0
M  V30 5221 H 478.794 -4.25731 2.55083 0
M  V30 5222 H 474.05 -4.72005 3.88615 0
M  V30 5223 H 478.224 -5.01982 4.82687 0
M  V30 5224 H 475.851 -5.24814 5.49976 0
M  V30 5225 N 477.426 -0.562348 -1.47226 0
M  V30 5226 C 478.356 0.170627 -2.32876 0
M  V30 5227 C 479.337 0.903748 -1.44106 0
M  V30 5228 O 480.522 0.883206 -1.72954 0
M  V30 5229 C 477.652 1.19786 -3.25989 0
M  V30 5230 C 476.606 0.580875 -4.2404 0
M  V30 5231 C 475.932 1.71311 -5.06514 0
M  V30 5232 C 477.232 -0.468714 -5.20193 0
M  V30 5233 H 478.926 -0.544441 -2.94408 0
M  V30 5234 H 476.472 -0.263271 -1.41573 0
M  V30 5235 H 478.425 1.71884 -3.84752 0
M  V30 5236 H 477.149 1.94294 -2.62521 0
M  V30 5237 H 475.808 0.0811538 -3.6651 0
M  V30 5238 H 475.456 2.44736 -4.39447 0
M  V30 5239 H 475.156 1.30604 -5.72902 0
M  V30 5240 H 476.68 2.23725 -5.68137 0
M  V30 5241 H 478.094 -0.0336028 -5.7329 0
M  V30 5242 H 476.491 -0.794957 -5.94811 0
M  V30 5243 H 477.561 -1.36269 -4.65359 0
M  V30 5244 N 478.904 1.54736 -0.299062 0
M  V30 5245 C 480.129 2.04975 0.316254 0
M  V30 5246 C 480.554 1.17501 1.46885 0
M  V30 5247 O 479.912 0.178678 1.80417 0
M  V30 5248 C 479.96 3.52672 0.751997 0
M  V30 5249 O 479.064 3.68226 1.85697 0
M  V30 5250 H 478.405 0.661126 0.0617175 0
M  V30 5251 H 480.935 1.99805 -0.440341 0
M  V30 5252 H 480.945 3.94488 1.04133 0
M  V30 5253 H 479.62 4.158 -0.0911482 0
M  V30 5254 H 478.197 3.38316 1.56834 0
M  V30 5255 N 480.382 0.0267497 1.57577 0
M  V30 5256 C 481.329 -0.955894 2.10075 0
M  V30 5257 C 482.299 -1.32453 1.00226 0
M  V30 5258 O 483.484 -1.41826 1.27632 0
M  V30 5259 C 480.624 -2.2338 2.6305 0
M  V30 5260 C 479.737 -1.92183 3.86898 0
M  V30 5261 C 478.872 -3.14251 4.28275 0
M  V30 5262 C 477.911 -2.78862 5.44888 0
M  V30 5263 N 477.048 -3.93548 5.81433 0
M  V30 5264 H 481.888 -0.501303 2.93753 0
M  V30 5265 H 479.425 -0.235847 1.45197 0
M  V30 5266 H 481.383 -2.98124 2.91853 0
M  V30 5267 H 480.013 -2.6646 1.82205 0
M  V30 5268 H 479.065 -1.07692 3.64838 0
M  V30 5269 H 480.377 -1.62117 4.7172 0
M  V30 5270 H 479.531 -3.97317 4.58502 0
M  V30 5271 H 478.27 -3.47476 3.42215 0
M  V30 5272 H 477.275 -1.94208 5.14357 0
M  V30 5273 H 478.5 -2.46855 6.32645 0
M  V30 5274 H 476.446 -4.2662 4.98328 0
M  V30 5275 H 476.363 -3.67098 6.6089 0
M  V30 5276 H 477.631 -4.77325 6.16264 0
M  V30 5277 N 481.861 -1.55662 -0.24637 0
M  V30 5278 C 482.771 -1.93495 -1.32653 0
M  V30 5279 C 483.787 -0.835462 -1.5263 0
M  V30 5280 O 484.963 -1.1369 -1.66242 0
M  V30 5281 C 482.028 -2.22242 -2.66101 0
M  V30 5282 C 481.089 -3.45625 -2.54641 0
M  V30 5283 C 480.322 -3.72991 -3.81724 0
M  V30 5284 O 480.545 -3.02421 -4.8363 0
M  V30 5285 O 479.479 -4.66515 -3.80325 0
M  V30 5286 H 483.305 -2.85498 -1.03559 0
M  V30 5287 H 480.89 -1.42551 -0.44717 0
M  V30 5288 H 482.772 -2.42037 -3.44958 0
M  V30 5289 H 481.447 -1.33417 -2.94926 0
M  V30 5290 H 480.354 -3.31136 -1.74067 0
M  V30 5291 H 481.687 -4.34754 -2.3076 0
M  V30 5292 N 483.339 0.512053 -1.4905 0
M  V30 5293 C 484.564 1.2959 -1.6193 0
M  V30 5294 C 484.989 1.85906 -0.286454 0
M  V30 5295 O 484.347 1.65312 0.744426 0
M  V30 5296 C 484.395 2.40987 -2.68249 0
M  V30 5297 O 483.499 3.44531 -2.26654 0
M  V30 5298 H 482.84 0.383053 -0.542371 0
M  V30 5299 H 485.37 0.614231 -1.95162 0
M  V30 5300 H 485.38 2.86913 -2.90078 0
M  V30 5301 H 484.055 1.99361 -3.65004 0
M  V30 5302 H 482.632 3.046 -2.15112 0
M  V30 5303 N 484.817 1.37938 0.762283 0
M  V30 5304 C 486.064 1.33668 1.52115 0
M  V30 5305 C 486.392 -0.0759538 1.94352 0
M  V30 5306 O 485.647 -1.05121 1.6507 0
M  V30 5307 C 485.946 2.23042 2.79261 0
M  V30 5308 C 485.612 3.71159 2.56031 0
M  V30 5309 C 484.274 4.11523 2.49404 0
M  V30 5310 C 486.626 4.64955 2.35513 0
M  V30 5311 C 483.954 5.43784 2.20263 0
M  V30 5312 C 486.306 5.97464 2.07894 0
M  V30 5313 C 484.97 6.36922 1.99718 0
M  V30 5314 H 484.24 0.489127 0.556629 0
M  V30 5315 H 486.887 1.70224 0.877262 0
M  V30 5316 H 485.192 1.79512 3.48256 0
M  V30 5317 H 486.889 2.17047 3.37182 0
M  V30 5318 H 483.479 3.39153 2.62056 0
M  V30 5319 H 487.663 4.34623 2.39617 0
M  V30 5320 H 482.919 5.73307 2.12435 0
M  V30 5321 H 487.093 6.6969 1.91019 0
M  V30 5322 H 484.72 7.39331 1.76902 0
M  V30 5323 N 486.295 -0.989507 1.22664 0
M  V30 5324 C 487.525 -1.7624 1.0781 0
M  V30 5325 C 487.933 -1.85466 -0.374036 0
M  V30 5326 O 487.276 -1.32645 -1.27087 0
M  V30 5327 C 487.338 -3.21007 1.61849 0
M  V30 5328 C 487.002 -3.35316 3.10503 0
M  V30 5329 C 487.999 -3.22362 4.07896 0
M  V30 5330 C 485.684 -3.60258 3.50028 0
M  V30 5331 C 487.678 -3.34139 5.42798 0
M  V30 5332 C 485.365 -3.71676 4.85078 0
M  V30 5333 C 486.363 -3.58625 5.81272 0
M  V30 5334 O 486.051 -3.69655 7.1387 0
M  V30 5335 H 485.783 -0.560209 0.378341 0
M  V30 5336 H 488.337 -1.25252 1.62792 0
M  V30 5337 H 486.567 -3.73202 1.01279 0
M  V30 5338 H 488.256 -3.80024 1.42606 0
M  V30 5339 H 489.022 -3.03 3.78703 0
M  V30 5340 H 484.901 -3.69492 2.75675 0
M  V30 5341 H 488.445 -3.23869 6.17863 0
M  V30 5342 H 484.342 -3.90545 5.1395 0
M  V30 5343 H 485.11 -3.86507 7.21495 0
M  V30 5344 N 487.773 -1.03688 -1.18687 0
M  V30 5345 C 489.02 -0.73803 -1.88572 0
M  V30 5346 C 489.348 0.733973 -1.8012 0
M  V30 5347 O 488.603 1.55098 -1.19344 0
M  V30 5348 C 488.902 -1.14477 -3.3857 0
M  V30 5349 C 488.568 -2.61641 -3.67226 0
M  V30 5350 C 487.23 -3.01846 -3.74757 0
M  V30 5351 C 489.582 -3.56812 -3.79914 0
M  V30 5352 C 486.91 -4.36118 -3.92451 0
M  V30 5353 C 489.262 -4.90799 -3.99123 0
M  V30 5354 C 487.926 -5.3068 -4.04888 0
M  V30 5355 H 487.196 -0.270064 -0.690034 0
M  V30 5356 H 489.843 -1.3012 -1.40503 0
M  V30 5357 H 488.148 -0.500337 -3.88592 0
M  V30 5358 H 489.845 -0.89095 -3.90977 0
M  V30 5359 H 486.435 -2.29498 -3.61979 0
M  V30 5360 H 490.619 -3.26899 -3.73431 0
M  V30 5361 H 485.875 -4.66542 -3.95157 0
M  V30 5362 H 490.049 -5.64451 -4.07882 0
M  V30 5363 H 487.676 -6.34733 -4.18351 0
M  V30 5364 N 489.251 1.34841 -0.815825 0
M  V30 5365 C 490.184 2.27504 -0.178062 0
M  V30 5366 C 491.162 1.48542 0.661373 0
M  V30 5367 O 492.346 1.77779 0.626653 0
M  V30 5368 C 489.473 3.30246 0.752002 0
M  V30 5369 C 488.519 4.26499 -0.00899172 0
M  V30 5370 S 489.352 5.18169 -1.35134 0
M  V30 5371 C 490.508 6.24449 -0.42596 0
M  V30 5372 H 490.741 2.81248 -0.963684 0
M  V30 5373 H 488.274 1.41781 -0.611355 0
M  V30 5374 H 490.232 3.89933 1.28308 0
M  V30 5375 H 488.893 2.75363 1.51109 0
M  V30 5376 H 488.086 4.99146 0.697766 0
M  V30 5377 H 487.688 3.7103 -0.470396 0
M  V30 5378 H 489.98 6.76404 0.385234 0
M  V30 5379 H 490.923 6.99156 -1.1219 0
M  V30 5380 H 491.331 5.64497 -0.0175461 0
M  V30 5381 N 490.729 0.570148 1.46925 0
M  V30 5382 C 491.959 0.0561151 2.06524 0
M  V30 5383 C 492.367 -1.24874 1.42137 0
M  V30 5384 O 491.71 -1.76292 0.516417 0
M  V30 5385 C 491.772 -0.197035 3.5896 0
M  V30 5386 C 491.436 1.02033 4.45464 0
M  V30 5387 C 492.433 1.92921 4.82781 0
M  V30 5388 C 490.118 1.23864 4.86788 0
M  V30 5389 C 492.112 3.03999 5.60235 0
M  V30 5390 C 489.799 2.35249 5.64004 0
M  V30 5391 C 490.797 3.25146 6.0064 0
M  V30 5392 O 490.485 4.34598 6.76299 0
M  V30 5393 H 490.217 0.0487409 0.674241 0
M  V30 5394 H 492.771 0.786915 1.89728 0
M  V30 5395 H 491.001 -0.982299 3.74016 0
M  V30 5396 H 492.69 -0.658032 4.00531 0
M  V30 5397 H 493.456 1.77265 4.51444 0
M  V30 5398 H 489.335 0.54805 4.57731 0
M  V30 5399 H 492.879 3.74192 5.8875 0
M  V30 5400 H 488.776 2.50873 5.94755 0
M  V30 5401 H 489.544 4.32808 6.94708 0
M  V30 5402 N 492.207 -1.54576 0.307264 0
M  V30 5403 C 493.455 -1.99867 -0.299574 0
M  V30 5404 C 493.776 -1.19714 -1.53927 0
M  V30 5405 O 493.046 -0.29472 -1.9367 0
M  V30 5406 H 491.626 -0.738299 -0.113683 0
M  V30 5407 H 494.288 -1.9032 0.420042 0
M  V30 5408 H 493.384 -3.06901 -0.567283 0
M  V30 5409 N 493.685 -0.035106 -1.57561 0
M  V30 5410 C 494.934 0.641604 -1.91223 0
M  V30 5411 C 495.247 1.72944 -0.913761 0
M  V30 5412 O 496.453 2.46321 -1.14185 0
M  V30 5413 C 494.909 1.19249 -3.3957 0
M  V30 5414 C 494.517 0.137616 -4.47789 0
M  V30 5415 C 496.261 1.84537 -3.82291 0
M  V30 5416 C 494.168 0.700478 -5.87237 0
M  V30 5417 H 493.098 0.243417 -0.713627 0
M  V30 5418 H 495.749 -0.101382 -1.8322 0
M  V30 5419 H 494.131 1.98728 -3.42525 0
M  V30 5420 H 495.305 -0.635153 -4.56402 0
M  V30 5421 H 493.62 -0.416855 -4.14308 0
M  V30 5422 H 496.217 2.27616 -4.83834 0
M  V30 5423 H 496.56 2.69054 -3.17672 0
M  V30 5424 H 497.093 1.11739 -3.81784 0
M  V30 5425 H 493.832 -0.106693 -6.55413 0
M  V30 5426 H 493.352 1.4416 -5.82218 0
M  V30 5427 H 495.031 1.18837 -6.35993 0
M  V30 5428 N 495.163 1.55791 0.238111 0
M  V30 5429 C 496.409 1.78297 0.966337 0
M  V30 5430 C 496.742 0.601903 1.84637 0
M  V30 5431 O 496.017 -0.399499 1.90353 0
M  V30 5432 C 496.3 3.10758 1.81939 0
M  V30 5433 C 496.153 4.39283 0.966958 0
M  V30 5434 C 497.472 3.39519 2.80027 0
M  V30 5435 H 494.591 0.648654 0.349882 0
M  V30 5436 H 497.233 1.88525 0.236253 0
M  V30 5437 H 495.383 3.02168 2.44185 0
M  V30 5438 H 497.055 4.59873 0.362514 0
M  V30 5439 H 495.298 4.32948 0.271669 0
M  V30 5440 H 495.969 5.28368 1.59784 0
M  V30 5441 H 498.445 3.48128 2.27917 0
M  V30 5442 H 497.321 4.33402 3.36829 0
M  V30 5443 H 497.582 2.60864 3.56934 0
M  V30 5444 N 496.642 -0.504142 1.49319 0
M  V30 5445 C 497.589 -1.60603 1.65756 0
M  V30 5446 C 498.559 -1.58425 0.499082 0
M  V30 5447 O 499.744 -1.76459 0.725728 0
M  V30 5448 C 496.884 -2.98764 1.72726 0
M  V30 5449 C 495.997 -3.10982 2.99857 0
M  V30 5450 C 495.132 -4.39857 2.97824 0
M  V30 5451 C 494.171 -4.45697 4.19548 0
M  V30 5452 N 493.308 -5.65995 4.15444 0
M  V30 5453 H 498.148 -1.45895 2.59843 0
M  V30 5454 H 495.685 -0.709891 1.28837 0
M  V30 5455 H 497.643 -3.78839 1.74747 0
M  V30 5456 H 496.273 -3.12183 0.821075 0
M  V30 5457 H 495.325 -2.23991 3.07461 0
M  V30 5458 H 496.637 -3.11157 3.89849 0
M  V30 5459 H 495.791 -5.2825 2.98391 0
M  V30 5460 H 494.53 -4.42242 2.05604 0
M  V30 5461 H 493.535 -3.55707 4.19229 0
M  V30 5462 H 494.76 -4.4503 5.12957 0
M  V30 5463 H 492.706 -5.69229 3.26059 0
M  V30 5464 H 492.623 -5.67773 4.99169 0
M  V30 5465 H 493.891 -6.56604 4.20109 0
M  V30 5466 N 498.12 -1.38341 -0.754957 0
M  V30 5467 C 499.07 -1.31964 -1.85929 0
M  V30 5468 C 500.054 -0.204181 -1.59599 0
M  V30 5469 O 501.246 -0.440036 -1.71443 0
M  V30 5470 C 498.375 -1.14565 -3.2362 0
M  V30 5471 C 497.461 -2.30727 -3.55846 0
M  V30 5472 N 497.852 -3.56165 -3.59138 0
M  V30 5473 C 496.15 -2.23249 -3.86104 0
M  V30 5474 C 496.851 -4.32865 -3.88591 0
M  V30 5475 N 495.827 -3.62203 -4.05351 0
M  V30 5476 H 499.629 -2.2694 -1.8675 0
M  V30 5477 H 497.143 -1.31553 -0.952243 0
M  V30 5478 H 499.14 -1.0808 -4.02647 0
M  V30 5479 H 497.8 -0.205212 -3.24051 0
M  V30 5480 H 498.811 -3.89854 -3.40932 0
M  V30 5481 H 495.488 -1.37357 -3.94258 0
M  V30 5482 H 496.878 -5.41504 -3.97773 0
M  V30 5483 N 499.598 0.982988 -1.23187 0
M  V30 5484 C 500.561 2.05649 -1.01198 0
M  V30 5485 C 501.561 1.6078 0.0252464 0
M  V30 5486 O 502.751 1.72878 -0.214243 0
M  V30 5487 C 499.883 3.36744 -0.530656 0
M  V30 5488 H 501.076 2.2659 -1.96461 0
M  V30 5489 H 498.629 1.15602 -1.05195 0
M  V30 5490 H 499.364 3.21492 0.425873 0
M  V30 5491 H 499.149 3.7065 -1.2791 0
M  V30 5492 H 500.639 4.15705 -0.397366 0
M  V30 5493 N 501.076 1.04316 1.18135 0
M  V30 5494 C 502.023 0.636398 2.21853 0
M  V30 5495 C 502.993 -0.357039 1.62217 0
M  V30 5496 O 504.178 -0.250453 1.89149 0
M  V30 5497 C 501.318 0.00812779 3.45099 0
M  V30 5498 C 500.431 1.04933 4.19062 0
M  V30 5499 C 499.566 0.389313 5.29771 0
M  V30 5500 C 498.605 1.41544 5.9551 0
M  V30 5501 N 497.742 0.78021 6.97751 0
M  V30 5502 H 502.582 1.52536 2.56002 0
M  V30 5503 H 500.119 0.76304 1.25762 0
M  V30 5504 H 502.077 -0.373497 4.15525 0
M  V30 5505 H 500.707 -0.844336 3.11562 0
M  V30 5506 H 499.759 1.54888 3.47439 0
M  V30 5507 H 501.071 1.82862 4.64072 0
M  V30 5508 H 500.225 -0.0463805 6.06682 0
M  V30 5509 H 498.964 -0.422038 4.8587 0
M  V30 5510 H 497.969 1.86124 5.17337 0
M  V30 5511 H 499.194 2.22854 6.41493 0
M  V30 5512 H 497.14 -0.0107899 6.55999 0
M  V30 5513 H 497.057 1.49716 7.41027 0
M  V30 5514 H 498.325 0.368996 7.78626 0
M  V30 5515 N 502.554 -1.34406 0.822964 0
M  V30 5516 C 503.517 -2.2783 0.250271 0
M  V30 5517 C 504.517 -1.50288 -0.571854 0
M  V30 5518 O 505.707 -1.69825 -0.387952 0
M  V30 5519 C 502.839 -3.34663 -0.649137 0
M  V30 5520 H 504.032 -2.79992 1.07444 0
M  V30 5521 H 501.585 -1.44539 0.594829 0
M  V30 5522 H 502.32 -2.87714 -1.49637 0
M  V30 5523 H 502.105 -3.92052 -0.0611199 0
M  V30 5524 H 503.595 -4.04349 -1.04363 0
M  V30 5525 N 504.032 -0.577932 -1.46621 0
M  V30 5526 C 504.962 0.145917 -2.33044 0
M  V30 5527 C 505.943 0.888412 -1.45056 0
M  V30 5528 O 507.128 0.864812 -1.73881 0
M  V30 5529 C 504.258 1.16322 -3.27241 0
M  V30 5530 C 503.212 0.535868 -4.24632 0
M  V30 5531 C 502.538 1.65929 -5.08303 0
M  V30 5532 C 503.838 -0.523861 -5.19666 0
M  V30 5533 H 505.532 -0.575636 -2.93814 0
M  V30 5534 H 503.078 -0.278272 -1.41286 0
M  V30 5535 H 505.031 1.67793 -3.86553 0
M  V30 5536 H 503.755 1.91498 -2.64567 0
M  V30 5537 H 502.414 0.0422759 -3.66576 0
M  V30 5538 H 502.062 2.40061 -4.42018 0
M  V30 5539 H 501.762 1.2452 -5.74255 0
M  V30 5540 H 503.286 2.17686 -5.70478 0
M  V30 5541 H 504.7 -0.0944059 -5.73222 0
M  V30 5542 H 503.097 -0.858 -5.93935 0
M  V30 5543 H 504.167 -1.41197 -4.63887 0
M  V30 5544 N 505.51 1.54411 -0.315457 0
M  V30 5545 C 506.442 2.21527 0.588067 0
M  V30 5546 C 507.455 1.21263 1.08624 0
M  V30 5547 O 508.644 1.47777 1.00121 0
M  V30 5548 C 505.744 2.85963 1.81875 0
M  V30 5549 C 504.917 4.12291 1.46063 0
M  V30 5550 C 503.976 4.60396 2.54799 0
M  V30 5551 O 503.002 5.25265 2.19283 0
M  V30 5552 N 504.204 4.33935 3.85591 0
M  V30 5553 H 506.969 2.99697 0.013414 0
M  V30 5554 H 504.53 1.61308 -0.138295 0
M  V30 5555 H 506.522 3.15071 2.53993 0
M  V30 5556 H 505.092 2.11548 2.30144 0
M  V30 5557 H 504.312 3.90036 0.571445 0
M  V30 5558 H 505.6 4.9452 1.19695 0
M  V30 5559 H 504.998 3.81996 4.17248 0
M  V30 5560 H 503.555 4.67718 4.53964 0
M  V30 5561 N 506.988 0.0434614 1.5754 0
M  V30 5562 C 507.951 -0.918696 2.09982 0
M  V30 5563 C 508.951 -1.24488 1.01781 0
M  V30 5564 O 510.141 -1.18284 1.27885 0
M  V30 5565 C 507.273 -2.23093 2.57764 0
M  V30 5566 H 508.466 -0.464229 2.96285 0
M  V30 5567 H 506.019 -0.204818 1.54952 0
M  V30 5568 H 506.754 -2.73137 1.74832 0
M  V30 5569 H 506.539 -2.00724 3.36827 0
M  V30 5570 H 508.029 -2.92028 2.98512 0
M  V30 5571 N 508.466 -1.55915 -0.229846 0
M  V30 5572 C 509.713 -1.78542 -0.955452 0
M  V30 5573 C 510.041 -0.610785 -1.84661 0
M  V30 5574 O 509.296 0.405213 -1.91459 0
M  V30 5575 C 509.595 -3.06845 -1.8325 0
M  V30 5576 C 509.261 -4.37395 -1.09528 0
M  V30 5577 C 507.923 -4.72868 -0.891598 0
M  V30 5578 C 510.275 -5.18029 -0.574046 0
M  V30 5579 C 507.603 -5.86496 -0.154655 0
M  V30 5580 C 509.955 -6.32423 0.149513 0
M  V30 5581 C 508.619 -6.66504 0.364519 0
M  V30 5582 H 507.889 -0.653333 -0.349625 0
M  V30 5583 H 510.536 -1.90183 -0.224235 0
M  V30 5584 H 508.841 -2.90291 -2.63132 0
M  V30 5585 H 510.538 -3.21553 -2.39592 0
M  V30 5586 H 507.128 -4.09538 -1.26399 0
M  V30 5587 H 511.312 -4.91066 -0.718899 0
M  V30 5588 H 506.568 -6.11396 0.0222356 0
M  V30 5589 H 510.742 -6.94137 0.560947 0
M  V30 5590 H 508.369 -7.54397 0.937495 0
M  V30 5591 N 509.944 0.496216 -1.49584 0
M  V30 5592 C 511.184 1.26015 -1.60933 0
M  V30 5593 C 511.548 1.89772 -0.291646 0
M  V30 5594 O 512.749 2.67334 -0.280357 0
M  V30 5595 C 511.02 2.29506 -2.73974 0
M  V30 5596 S 512.579 3.15175 -3.05303 0
M  V30 5597 H 509.397 0.428194 -0.567601 0
M  V30 5598 H 511.999 0.561484 -1.87263 0
M  V30 5599 H 510.703 1.81205 -3.68229 0
M  V30 5600 H 510.234 3.04036 -2.49651 0
M  V30 5601 H 512.249 4.30244 -2.47193 0
M  V30 5602 N 511.423 1.38739 0.74761 0
M  V30 5603 C 512.371 1.36573 1.88283 0
M  V30 5604 C 513.365 0.250712 1.67534 0
M  V30 5605 O 514.571 0.420073 1.7503 0
M  V30 5606 H 510.946 0.42619 0.619569 0
M  V30 5607 H 512.917 2.32356 1.87226 0
M  V30 5608 C 511.666 1.21361 3.25832 0
M  V30 5609 H 510.989 2.06424 3.42388 0
M  V30 5610 H 512.429 1.23901 4.05493 0
M  V30 5611 C 510.888 -0.0790099 3.36807 0
M  V30 5612 O 511.418 -1.05385 3.8763 0
M  V30 5613 N 509.624 -0.13785 2.90273 0
M  V30 5614 H 509.171 0.656128 2.49104 0
M  V30 5615 H 509.129 -1.00228 2.97996 0
M  V30 5616 N 512.901 -0.976442 1.23707 0
M  V30 5617 C 513.864 -2.0511 1.02287 0
M  V30 5618 C 514.864 -1.60791 -0.0167195 0
M  V30 5619 O 516.054 -1.72761 0.223408 0
M  V30 5620 C 513.186 -3.36458 0.548507 0
M  V30 5621 H 514.379 -2.25545 1.9766 0
M  V30 5622 H 511.932 -1.15042 1.05806 0
M  V30 5623 H 512.667 -3.21713 -0.408818 0
M  V30 5624 H 512.452 -3.69967 1.29874 0
M  V30 5625 H 513.942 -4.15489 0.419406 0
M  V30 5626 N 514.379 -1.04941 -1.1758 0
M  V30 5627 C 515.607 -0.778294 -1.91703 0
M  V30 5628 C 516.022 0.665697 -1.76675 0
M  V30 5629 O 515.379 1.45456 -1.10222 0
M  V30 5630 C 515.43 -1.14628 -3.42845 0
M  V30 5631 O 515.151 -2.53359 -3.57409 0
M  V30 5632 C 516.652 -0.900931 -4.34049 0
M  V30 5633 H 513.872 -0.283167 -0.608323 0
M  V30 5634 H 516.416 -1.39942 -1.49119 0
M  V30 5635 H 514.571 -0.569953 -3.83184 0
M  V30 5636 H 514.985 -2.67709 -4.51035 0
M  V30 5637 H 516.459 -1.20817 -5.38616 0
M  V30 5638 H 516.936 0.163966 -4.38894 0
M  V30 5639 H 517.542 -1.46097 -3.99419 0
M  V30 5640 N 515.857 1.33968 -0.830081 0
M  V30 5641 C 516.79 2.27303 -0.202182 0
M  V30 5642 C 517.768 1.49235 0.645581 0
M  V30 5643 O 518.952 1.78433 0.607762 0
M  V30 5644 C 516.079 3.31025 0.716932 0
M  V30 5645 C 515.125 4.26466 -0.0542271 0
M  V30 5646 S 515.958 5.16707 -1.40622 0
M  V30 5647 C 517.114 6.23962 -0.492167 0
M  V30 5648 H 517.347 2.8021 -0.99346 0
M  V30 5649 H 514.88 1.41124 -0.626359 0
M  V30 5650 H 516.838 3.91271 1.24165 0
M  V30 5651 H 515.499 2.76951 1.4818 0
M  V30 5652 H 514.692 4.99858 0.644785 0
M  V30 5653 H 514.294 3.7051 -0.509722 0
M  V30 5654 H 516.586 6.76774 0.31347 0
M  V30 5655 H 517.529 6.97927 -1.19599 0
M  V30 5656 H 517.937 5.64447 -0.0774176 0
M  V30 5657 N 517.335 0.585699 1.46312 0
M  V30 5658 C 518.283 -0.158577 2.32059 0
M  V30 5659 C 519.277 -0.881427 1.44662 0
M  V30 5660 O 520.483 -0.799476 1.61271 0
M  V30 5661 H 516.858 -0.0700066 0.748734 0
M  V30 5662 H 518.829 0.583383 2.92642 0
M  V30 5663 C 517.578 -1.15701 3.27885 0
M  V30 5664 H 516.901 -0.610215 3.95116 0
M  V30 5665 H 518.341 -1.64812 3.90657 0
M  V30 5666 C 516.8 -2.21951 2.53455 0
M  V30 5667 O 517.33 -3.29352 2.29978 0
M  V30 5668 N 515.536 -1.9664 2.13965 0
M  V30 5669 H 515.083 -1.09309 2.33258 0
M  V30 5670 H 515.041 -2.6794 1.64485 0
M  V30 5671 N 518.813 -1.54241 0.323641 0
M  V30 5672 C 520.038 -2.05452 -0.283605 0
M  V30 5673 C 520.463 -1.19823 -1.44997 0
M  V30 5674 O 519.821 -0.207358 -1.8011 0
M  V30 5675 C 519.869 -3.53823 -0.695795 0
M  V30 5676 O 518.973 -3.71134 -1.79815 0
M  V30 5677 H 518.314 -0.662024 -0.0511917 0
M  V30 5678 H 520.844 -1.99079 0.472073 0
M  V30 5679 H 520.854 -3.96094 -0.978434 0
M  V30 5680 H 519.529 -4.15602 0.157287 0
M  V30 5681 H 518.106 -3.40768 -1.51431 0
M  V30 5682 N 520.291 -0.0518155 -1.57515 0
M  V30 5683 C 521.521 0.63048 -1.96745 0
M  V30 5684 C 521.929 1.64875 -0.928054 0
M  V30 5685 O 521.272 1.83449 0.0960678 0
M  V30 5686 C 521.334 1.37381 -3.32215 0
M  V30 5687 C 520.998 0.511298 -4.54131 0
M  V30 5688 C 521.995 -0.222884 -5.19422 0
M  V30 5689 C 519.68 0.442035 -5.00351 0
M  V30 5690 C 521.674 -1.01476 -6.2927 0
M  V30 5691 C 519.361 -0.35353 -6.10077 0
M  V30 5692 C 520.359 -1.08062 -6.74397 0
M  V30 5693 O 520.047 -1.8631 -7.82013 0
M  V30 5694 H 519.779 0.177126 -0.652382 0
M  V30 5695 H 522.333 -0.114726 -2.05079 0
M  V30 5696 H 520.563 2.16466 -3.20436 0
M  V30 5697 H 522.252 1.9464 -3.56188 0
M  V30 5698 H 523.018 -0.178846 -4.8467 0
M  V30 5699 H 518.897 0.997562 -4.50077 0
M  V30 5700 H 522.441 -1.58279 -6.79407 0
M  V30 5701 H 518.338 -0.399205 -6.44264 0
M  V30 5702 H 519.106 -1.78528 -7.98793 0
M  V30 5703 N 521.769 1.56035 0.221574 0
M  V30 5704 C 522.716 1.92413 1.27459 0
M  V30 5705 C 523.686 0.781323 1.46576 0
M  V30 5706 O 524.871 1.03721 1.60145 0
M  V30 5707 C 522.011 2.24617 2.61995 0
M  V30 5708 C 521.124 3.51831 2.50677 0
M  V30 5709 C 520.259 3.73482 3.77736 0
M  V30 5710 C 519.298 4.94211 3.6114 0
M  V30 5711 N 518.435 5.12252 4.80148 0
M  V30 5712 H 523.275 2.82203 0.957355 0
M  V30 5713 H 520.812 1.39676 0.461415 0
M  V30 5714 H 522.77 2.41298 3.40339 0
M  V30 5715 H 521.4 1.38 2.91815 0
M  V30 5716 H 520.452 3.43343 1.63767 0
M  V30 5717 H 521.764 4.40328 2.34334 0
M  V30 5718 H 520.918 3.9026 4.64523 0
M  V30 5719 H 519.657 2.83266 3.97003 0
M  V30 5720 H 518.662 4.77384 2.72736 0
M  V30 5721 H 519.887 5.85912 3.43343 0
M  V30 5722 H 517.833 4.24978 4.99729 0
M  V30 5723 H 517.75 5.94881 4.66532 0
M  V30 5724 H 519.018 5.33465 5.68362 0
M  V30 5725 N 523.247 -0.488276 1.49845 0
M  V30 5726 C 524.663 -0.820566 1.3689 0
M  V30 5727 C 524.863 -1.97248 0.411752 0
M  V30 5728 O 523.919 -2.52042 -0.151931 0
M  V30 5729 C 525.232 -1.1488 2.77891 0
M  V30 5730 C 526.78 -1.25626 2.86683 0
M  V30 5731 C 527.255 -1.61772 4.28479 0
M  V30 5732 N 528.746 -1.68797 4.31349 0
M  V30 5733 C 529.481 -1.98235 5.38043 0
M  V30 5734 N 528.977 -2.2581 6.54967 0
M  V30 5735 N 530.77 -1.99593 5.2547 0
M  V30 5736 H 522.921 0.271123 2.10662 0
M  V30 5737 H 525.184 0.058735 0.946179 0
M  V30 5738 H 524.89 -0.375614 3.49688 0
M  V30 5739 H 524.764 -2.08919 3.14058 0
M  V30 5740 H 527.151 -2.02014 2.15114 0
M  V30 5741 H 527.232 -0.296072 2.54081 0
M  V30 5742 H 526.876 -0.859295 5.00578 0
M  V30 5743 H 526.806 -2.58912 4.58554 0
M  V30 5744 H 529.297 -1.49595 3.4703 0
M  V30 5745 H 529.61 -2.47497 7.32096 0
M  V30 5746 H 527.955 -2.23239 6.58171 0
M  V30 5747 H 531.146 -1.77535 4.33127 0
M  V30 5748 H 531.319 -2.222 6.08713 0
M  V30 5749 N 524.725 -1.39134 -0.740242 0
M  V30 5750 C 525.655 -1.40165 -1.86751 0
M  V30 5751 C 526.636 -0.265708 -1.68012 0
M  V30 5752 O 527.821 -0.47076 -1.88408 0
M  V30 5753 C 524.951 -1.2392 -3.2444 0
M  V30 5754 C 523.905 -2.34858 -3.57807 0
M  V30 5755 C 523.231 -2.03707 -4.94376 0
M  V30 5756 C 524.531 -3.77159 -3.61315 0
M  V30 5757 H 526.225 -2.345 -1.86145 0
M  V30 5758 H 523.771 -1.12875 -0.89416 0
M  V30 5759 H 525.724 -1.23263 -4.02969 0
M  V30 5760 H 524.448 -0.26051 -3.25559 0
M  V30 5761 H 523.107 -2.34723 -2.81604 0
M  V30 5762 H 522.755 -1.04289 -4.9207 0
M  V30 5763 H 522.455 -2.78016 -5.17669 0
M  V30 5764 H 523.979 -2.04691 -5.75268 0
M  V30 5765 H 525.393 -3.79252 -4.29931 0
M  V30 5766 H 523.79 -4.50784 -3.96124 0
M  V30 5767 H 524.86 -4.08513 -2.61238 0
M  V30 5768 N 526.204 0.969867 -1.24223 0
M  V30 5769 C 527.45 1.7151 -1.08223 0
M  V30 5770 C 527.783 1.90478 0.37838 0
M  V30 5771 O 527.058 1.4647 1.27971 0
M  V30 5772 C 527.341 3.10714 -1.82013 0
M  V30 5773 C 527.194 2.9925 -3.35811 0
M  V30 5774 C 528.513 4.10332 -1.59108 0
M  V30 5775 H 525.632 0.622499 -0.394543 0
M  V30 5776 H 528.274 1.1284 -1.52863 0
M  V30 5777 H 526.424 3.608 -1.44068 0
M  V30 5778 H 528.096 2.56608 -3.83341 0
M  V30 5779 H 526.339 2.35512 -3.64303 0
M  V30 5780 H 527.01 3.97857 -3.82641 0
M  V30 5781 H 529.486 3.69097 -1.92111 0
M  V30 5782 H 528.362 5.05804 -2.13198 0
M  V30 5783 H 528.623 4.38926 -0.528832 0
M  V30 5784 N 527.682 1.05563 1.17022 0
M  V30 5785 C 529.093 0.793475 1.69 0
M  V30 5786 C 529.444 -0.683882 1.83895 0
M  V30 5787 O 528.569 -1.53116 1.5292 0
M  V30 5788 C 529.164 1.43376 3.06967 0
M  V30 5789 C 527.723 1.21956 3.56095 0
M  V30 5790 C 526.87 1.51494 2.3226 0
M  V30 5791 H 529.821 1.22008 1.01487 0
M  V30 5792 H 529.842 0.845068 3.70997 0
M  V30 5793 H 529.354 2.50899 2.96093 0
M  V30 5794 H 527.455 0.163749 3.7224 0
M  V30 5795 H 527.568 1.92713 4.38633 0
M  V30 5796 H 525.932 0.935175 2.3691 0
M  V30 5797 H 526.715 2.60159 2.23992 0
M  V30 5798 N 529.16 -1.33526 0.837174 0
M  V30 5799 C 530.408 -1.97446 0.431211 0
M  V30 5800 C 530.729 -1.6665 -1.01255 0
M  V30 5801 O 529.999 -0.964559 -1.70508 0
M  V30 5802 H 528.579 -0.73043 0.156463 0
M  V30 5803 H 531.241 -1.62918 1.06976 0
M  V30 5804 H 530.337 -3.07001 0.561877 0
M  V30 5805 N 530.638 -0.59345 -1.46 0
M  V30 5806 C 531.885 -0.0831523 -2.02329 0
M  V30 5807 C 532.213 1.28093 -1.46364 0
M  V30 5808 O 531.468 1.85526 -0.622793 0
M  V30 5809 C 531.767 0.021178 -3.57394 0
M  V30 5810 C 531.433 -1.27671 -4.32448 0
M  V30 5811 C 530.095 -1.63227 -4.5267 0
M  V30 5812 C 532.447 -2.13511 -4.7546 0
M  V30 5813 C 529.775 -2.84401 -5.1316 0
M  V30 5814 C 532.127 -3.33922 -5.37289 0
M  V30 5815 C 530.791 -3.69747 -5.55737 0
M  V30 5816 H 530.061 -0.0304276 -0.740375 0
M  V30 5817 H 532.708 -0.772239 -1.75239 0
M  V30 5818 H 531.013 0.793454 -3.83682 0
M  V30 5819 H 532.71 0.431942 -3.98667 0
M  V30 5820 H 529.3 -0.989937 -4.17011 0
M  V30 5821 H 533.484 -1.87344 -4.59582 0
M  V30 5822 H 528.74 -3.12282 -5.25633 0
M  V30 5823 H 532.914 -4.00698 -5.69574 0
M  V30 5824 H 530.541 -4.6373 -6.02377 0
M  V30 5825 N 532.116 1.54067 -0.331816 0
M  V30 5826 C 533.026 2.28322 0.539104 0
M  V30 5827 C 534.042 1.32985 1.1221 0
M  V30 5828 O 535.218 1.6601 1.1403 0
M  V30 5829 C 532.283 3.03277 1.68 0
M  V30 5830 C 531.344 4.14216 1.12798 0
M  V30 5831 C 530.577 4.85588 2.2145 0
M  V30 5832 O 530.8 4.56536 3.41952 0
M  V30 5833 O 529.734 5.72309 1.86404 0
M  V30 5834 H 533.56 3.03632 -0.0641692 0
M  V30 5835 H 531.145 1.49083 -0.0972365 0
M  V30 5836 H 533.027 3.50189 2.34405 0
M  V30 5837 H 531.702 2.30834 2.2693 0
M  V30 5838 H 530.609 3.71635 0.428782 0
M  V30 5839 H 531.942 4.88727 0.583698 0
M  V30 5840 N 533.594 0.0601682 1.57485 0
M  V30 5841 C 534.822 -0.620937 1.97363 0
M  V30 5842 C 535.237 -1.63846 0.938082 0
M  V30 5843 O 534.594 -1.82339 -0.0766578 0
M  V30 5844 C 534.645 -1.29987 3.37321 0
M  V30 5845 O 534.366 -0.323081 4.36907 0
M  V30 5846 C 535.867 -2.06989 3.92008 0
M  V30 5847 H 533.087 -0.169135 0.649334 0
M  V30 5848 H 535.631 0.129132 2.04092 0
M  V30 5849 H 533.786 -2.0011 3.31715 0
M  V30 5850 H 534.2 -0.808754 5.18227 0
M  V30 5851 H 535.674 -2.49901 4.92192 0
M  V30 5852 H 536.151 -2.92173 3.2792 0
M  V30 5853 H 536.757 -1.41757 4.0098 0
M  V30 5854 N 535.072 -1.5615 -0.213296 0
M  V30 5855 C 536.312 -1.81325 -0.943435 0
M  V30 5856 C 536.676 -0.634934 -1.81198 0
M  V30 5857 O 537.877 -0.766166 -2.5765 0
M  V30 5858 C 536.148 -3.11437 -1.75334 0
M  V30 5859 S 537.707 -3.57955 -2.53799 0
M  V30 5860 H 534.525 -0.636538 -0.316766 0
M  V30 5861 H 537.127 -1.94387 -0.208313 0
M  V30 5862 H 535.831 -3.95228 -1.10556 0
M  V30 5863 H 535.362 -3.01204 -2.53061 0
M  V30 5864 H 537.377 -3.21947 -3.77577 0
M  V30 5865 N 536.55 0.480323 -1.50102 0
M  V30 5866 C 537.482 1.59669 -1.64433 0
M  V30 5867 C 538.495 1.54063 -0.52615 0
M  V30 5868 O 539.684 1.59619 -0.798992 0
M  V30 5869 C 536.784 2.98527 -1.6042 0
M  V30 5870 C 535.957 3.291 -2.88117 0
M  V30 5871 C 535.016 4.47468 -2.76873 0
M  V30 5872 O 534.042 4.4823 -3.50825 0
M  V30 5873 N 535.244 5.48593 -1.89806 0
M  V30 5874 H 538.009 1.47795 -2.60723 0
M  V30 5875 H 535.57 0.66858 -1.4745 0
M  V30 5876 H 537.562 3.75666 -1.50523 0
M  V30 5877 H 536.132 3.04218 -0.719036 0
M  V30 5878 H 535.352 2.40662 -3.12211 0
M  V30 5879 H 536.64 3.46334 -3.72734 0
M  V30 5880 H 536.038 5.50791 -1.2902 0
M  V30 5881 H 534.595 6.24752 -1.85819 0
M  V30 5882 N 538.028 1.39524 0.732853 0
M  V30 5883 C 538.975 1.38416 1.84688 0
M  V30 5884 C 539.945 0.243539 1.64305 0
M  V30 5885 O 541.13 0.438979 1.85681 0
M  V30 5886 C 538.27 1.23555 3.22224 0
M  V30 5887 C 537.383 2.47179 3.54298 0
M  V30 5888 C 536.518 2.2489 4.81246 0
M  V30 5889 C 535.557 3.44178 5.0617 0
M  V30 5890 N 534.694 3.21192 6.24323 0
M  V30 5891 H 539.534 2.33645 1.84971 0
M  V30 5892 H 537.071 1.16059 0.903804 0
M  V30 5893 H 539.029 1.12949 4.0162 0
M  V30 5894 H 537.659 0.31954 3.21215 0
M  V30 5895 H 536.711 2.68379 2.69587 0
M  V30 5896 H 538.023 3.36022 3.68633 0
M  V30 5897 H 537.177 2.11538 5.68627 0
M  V30 5898 H 535.916 1.33443 4.69089 0
M  V30 5899 H 534.921 3.58025 4.17251 0
M  V30 5900 H 536.146 4.36528 5.20212 0
M  V30 5901 H 534.092 2.32413 6.1345 0
M  V30 5902 H 534.009 4.03594 6.39256 0
M  V30 5903 H 535.277 3.1154 7.14537 0
M  V30 5904 N 539.506 -0.963266 1.24736 0
M  V30 5905 C 540.436 -2.07628 1.06832 0
M  V30 5906 C 541.417 -1.70088 -0.0200566 0
M  V30 5907 O 542.602 -1.93636 0.147854 0
M  V30 5908 C 539.732 -3.40636 0.677069 0
M  V30 5909 C 538.686 -3.9215 1.71471 0
M  V30 5910 C 538.012 -5.21553 1.1784 0
M  V30 5911 C 539.312 -4.19493 3.11164 0
M  V30 5912 H 541.006 -2.22864 1.9993 0
M  V30 5913 H 538.552 -1.07093 0.96266 0
M  V30 5914 H 540.505 -4.17941 0.538792 0
M  V30 5915 H 539.229 -3.25313 -0.289612 0
M  V30 5916 H 537.888 -3.17005 1.84128 0
M  V30 5917 H 537.536 -5.02593 0.202195 0
M  V30 5918 H 537.236 -5.56988 1.87185 0
M  V30 5919 H 538.76 -6.01463 1.05233 0
M  V30 5920 H 540.174 -4.87487 3.01711 0
M  V30 5921 H 538.571 -4.66165 3.77902 0
M  V30 5922 H 539.641 -3.26097 3.58871 0
M  V30 5923 N 540.985 -1.06182 -1.16461 0
M  V30 5924 C 542.232 -0.777863 -1.86964 0
M  V30 5925 C 542.56 0.695602 -1.81636 0
M  V30 5926 O 541.815 1.52532 -1.22607 0
M  V30 5927 C 542.114 -1.21633 -3.36066 0
M  V30 5928 C 541.78 -2.69371 -3.61594 0
M  V30 5929 C 540.442 -3.09727 -3.6827 0
M  V30 5930 C 542.794 -3.64791 -3.7226 0
M  V30 5931 C 540.122 -4.44345 -3.83112 0
M  V30 5932 C 542.474 -4.99155 -3.88623 0
M  V30 5933 C 541.138 -5.39149 -3.93541 0
M  V30 5934 H 540.408 -0.28464 -0.68415 0
M  V30 5935 H 543.055 -1.33071 -1.37711 0
M  V30 5936 H 541.36 -0.582651 -3.87443 0
M  V30 5937 H 543.057 -0.973682 -3.88999 0
M  V30 5938 H 539.647 -2.37124 -3.57029 0
M  V30 5939 H 543.831 -3.34746 -3.66413 0
M  V30 5940 H 539.087 -4.74819 -3.85172 0
M  V30 5941 H 543.261 -5.72976 -3.95817 0
M  V30 5942 H 540.888 -6.43464 -4.04794 0
M  V30 5943 N 542.463 1.3308 -0.844243 0
M  V30 5944 C 543.693 2.01515 -0.455541 0
M  V30 5945 C 544.101 1.63655 0.949406 0
M  V30 5946 O 543.444 0.84848 1.62931 0
M  V30 5947 C 543.506 3.55967 -0.502801 0
M  V30 5948 C 543.17 4.17222 -1.86481 0
M  V30 5949 C 544.167 4.36205 -2.8288 0
M  V30 5950 C 541.852 4.53528 -2.15911 0
M  V30 5951 C 543.846 4.90649 -4.06869 0
M  V30 5952 C 541.533 5.07679 -3.40155 0
M  V30 5953 C 542.531 5.26186 -4.35451 0
M  V30 5954 O 542.219 5.79183 -5.57496 0
M  V30 5955 H 541.951 0.65199 -0.178565 0
M  V30 5956 H 544.505 1.70867 -1.1399 0
M  V30 5957 H 542.735 3.85965 0.23836 0
M  V30 5958 H 544.424 4.05688 -0.131169 0
M  V30 5959 H 545.19 4.085 -2.61444 0
M  V30 5960 H 541.069 4.38414 -1.42528 0
M  V30 5961 H 544.613 5.0501 -4.81259 0
M  V30 5962 H 540.51 5.34815 -3.61446 0
M  V30 5963 H 541.278 5.97591 -5.5931 0
M  V30 5964 N 543.941 0.601185 1.45683 0
M  V30 5965 C 545.166 0.0982245 2.07167 0
M  V30 5966 C 545.591 -1.20546 1.44396 0
M  V30 5967 O 544.949 -1.73247 0.534347 0
M  V30 5968 C 544.997 -0.0346976 3.60583 0
M  V30 5969 O 544.101 -1.08657 3.97828 0
M  V30 5970 H 543.442 0.0711618 0.660176 0
M  V30 5971 H 545.972 0.829376 1.87036 0
M  V30 5972 H 545.982 -0.234969 4.07323 0
M  V30 5973 H 544.657 0.917265 4.05659 0
M  V30 5974 H 543.234 -0.863275 3.6277 0
M  V30 5975 N 545.419 -1.53889 0.339982 0
M  V30 5976 C 546.666 -2.00855 -0.257621 0
M  V30 5977 C 546.994 -1.22788 -1.50842 0
M  V30 5978 O 546.249 -0.302567 -1.93347 0
M  V30 5979 C 546.548 -3.51968 -0.620735 0
M  V30 5980 C 546.214 -4.47741 0.532771 0
M  V30 5981 C 544.876 -4.73645 0.849339 0
M  V30 5982 C 547.228 -5.04551 1.3068 0
M  V30 5983 C 544.556 -5.53614 1.94237 0
M  V30 5984 C 546.908 -5.85713 2.39005 0
M  V30 5985 C 545.572 -6.09912 2.71225 0
M  V30 5986 H 544.842 -0.734979 -0.0942703 0
M  V30 5987 H 547.489 -1.85714 0.467159 0
M  V30 5988 H 545.794 -3.64921 -1.42618 0
M  V30 5989 H 547.491 -3.85762 -1.09495 0
M  V30 5990 H 544.081 -4.27711 0.275973 0
M  V30 5991 H 548.265 -4.84507 1.07549 0
M  V30 5992 H 543.521 -5.7059 2.19628 0
M  V30 5993 H 547.695 -6.28748 2.99415 0
M  V30 5994 H 545.322 -6.71665 3.56047 0
M  V30 5995 N 546.897 -0.0685191 -1.57451 0
M  V30 5996 C 548.145 0.60016 -1.92983 0
M  V30 5997 C 548.466 1.70348 -0.949028 0
M  V30 5998 O 547.736 1.959 0.00335647 0
M  V30 5999 H 546.316 0.224682 -0.712409 0
M  V30 6000 H 548.978 -0.125605 -1.94495 0
M  V30 6001 H 548.074 1.02759 -2.94698 0
M  V30 6002 N 548.375 1.56261 0.205012 0
M  V30 6003 C 549.6 1.84491 0.947512 0
M  V30 6004 C 550.025 0.650894 1.76479 0
M  V30 6005 O 549.383 -0.40035 1.76824 0
M  V30 6006 C 549.431 3.10863 1.82747 0
M  V30 6007 O 548.535 2.90719 2.925 0
M  V30 6008 H 547.876 0.607783 0.267386 0
M  V30 6009 H 550.406 2.03485 0.213323 0
M  V30 6010 H 550.416 3.41399 2.23407 0
M  V30 6011 H 549.091 3.97392 1.2269 0
M  V30 6012 H 547.668 2.71457 2.55667 0
M  V30 6013 N 549.853 -0.472356 1.50355 0
M  V30 6014 C 551.269 -0.806001 1.37753 0
M  V30 6015 C 551.469 -1.968 0.432649 0
M  V30 6016 O 550.525 -2.52189 -0.12519 0
M  V30 6017 C 551.838 -1.11926 2.79093 0
M  V30 6018 C 553.386 -1.22579 2.87999 0
M  V30 6019 C 553.861 -1.57218 4.3017 0
M  V30 6020 N 555.352 -1.64212 4.33115 0
M  V30 6021 C 556.087 -1.92517 5.40116 0
M  V30 6022 N 555.583 -2.1885 6.57325 0
M  V30 6023 N 557.376 -1.94008 5.27558 0
M  V30 6024 H 549.527 0.293451 2.10363 0
M  V30 6025 H 551.79 0.0687672 0.945503 0
M  V30 6026 H 551.496 -0.338504 3.50067 0
M  V30 6027 H 551.37 -2.05577 3.16256 0
M  V30 6028 H 553.757 -1.99722 2.17245 0
M  V30 6029 H 553.838 -0.269107 2.54381 0
M  V30 6030 H 553.482 -0.806154 5.01461 0
M  V30 6031 H 553.412 -2.54034 4.61275 0
M  V30 6032 H 555.903 -1.45906 3.48597 0
M  V30 6033 H 556.216 -2.39718 7.3468 0
M  V30 6034 H 554.561 -2.16245 6.60502 0
M  V30 6035 H 557.752 -1.72931 4.34986 0
M  V30 6036 H 557.925 -2.15731 6.11035 0
M  V30 6037 N 551.331 -1.39911 -0.725443 0
M  V30 6038 C 552.556 -1.41137 -1.5197 0
M  V30 6039 C 552.981 -0.010262 -1.88097 0
M  V30 6040 O 552.339 0.979184 -1.52583 0
M  V30 6041 C 552.387 -2.2994 -2.77777 0
M  V30 6042 O 551.491 -1.73586 -3.74088 0
M  V30 6043 H 550.832 -0.480219 -0.458569 0
M  V30 6044 H 553.362 -1.84023 -0.894249 0
M  V30 6045 H 553.372 -2.44785 -3.26411 0
M  V30 6046 H 552.047 -3.31759 -2.50816 0
M  V30 6047 H 550.624 -1.68035 -3.32894 0
M  V30 6048 N 552.809 0.956637 -1.25245 0
M  V30 6049 C 553.772 2.03457 -1.05537 0
M  V30 6050 C 554.772 1.60798 -0.00886317 0
M  V30 6051 O 555.962 1.72384 -0.250865 0
M  V30 6052 C 553.094 3.35543 -0.601965 0
M  V30 6053 H 554.287 2.22372 -2.01223 0
M  V30 6054 H 551.84 1.13344 -1.07623 0
M  V30 6055 H 552.575 3.22323 0.357584 0
M  V30 6056 H 552.36 3.67854 -1.35743 0
M  V30 6057 H 553.85 4.14769 -0.485454 0
M  V30 6058 N 554.287 1.06798 1.15896 0
M  V30 6059 C 555.533 0.788934 1.86825 0
M  V30 6060 C 555.866 -0.683084 1.8179 0
M  V30 6061 O 555.141 -1.50086 1.23711 0
M  V30 6062 C 555.424 1.29065 3.36176 0
M  V30 6063 C 555.277 2.8268 3.49874 0
M  V30 6064 C 556.596 0.902655 4.30744 0
M  V30 6065 H 553.715 0.288066 0.678371 0
M  V30 6066 H 556.357 1.32479 1.36195 0
M  V30 6067 H 554.507 0.834806 3.79425 0
M  V30 6068 H 556.179 3.36511 3.15528 0
M  V30 6069 H 554.422 3.21157 2.91617 0
M  V30 6070 H 555.093 3.12852 4.54783 0
M  V30 6071 H 557.569 1.29535 3.95424 0
M  V30 6072 H 556.445 1.28111 5.3374 0
M  V30 6073 H 556.706 -0.191951 4.41683 0
M  V30 6074 N 555.766 -1.3263 0.851289 0
M  V30 6075 C 557.015 -1.96633 0.449267 0
M  V30 6076 C 557.328 -1.68131 -0.999562 0
M  V30 6077 O 558.534 -2.25845 -1.50685 0
M  V30 6078 C 556.99 -3.51946 0.752446 0
M  V30 6079 C 556.598 -3.89311 2.21678 0
M  V30 6080 C 558.342 -4.22437 0.417983 0
M  V30 6081 C 556.249 -5.37655 2.46336 0
M  V30 6082 H 555.179 -0.735888 0.164269 0
M  V30 6083 H 557.83 -1.51073 1.0416 0
M  V30 6084 H 556.212 -3.95899 0.0895858 0
M  V30 6085 H 557.386 -3.56378 2.92115 0
M  V30 6086 H 555.701 -3.31836 2.51543 0
M  V30 6087 H 558.298 -5.31549 0.579674 0
M  V30 6088 H 558.641 -4.11349 -0.640115 0
M  V30 6089 H 559.174 -3.84057 1.03659 0
M  V30 6090 H 555.913 -5.5376 3.50757 0
M  V30 6091 H 555.433 -5.72005 1.80473 0
M  V30 6092 H 557.112 -6.04695 2.30115 0
M  V30 6093 N 557.244 -0.608902 -1.45362 0
M  V30 6094 C 558.66 -0.272659 -1.57254 0
M  V30 6095 C 558.86 1.22477 -1.60005 0
M  V30 6096 O 557.916 2.00785 -1.53106 0
M  V30 6097 C 559.229 -0.944991 -2.85465 0
M  V30 6098 C 560.777 -0.921033 -2.99142 0
M  V30 6099 C 561.252 -1.5734 -4.30126 0
M  V30 6100 N 562.743 -1.53895 -4.36887 0
M  V30 6101 C 563.478 -2.01286 -5.36909 0
M  V30 6102 N 562.974 -2.56768 -6.43461 0
M  V30 6103 N 564.767 -1.92046 -5.28275 0
M  V30 6104 H 556.918 -1.58117 -1.4182 0
M  V30 6105 H 559.181 -0.662437 -0.678146 0
M  V30 6106 H 558.887 -1.99941 -2.89338 0
M  V30 6107 H 558.761 -0.469079 -3.74272 0
M  V30 6108 H 561.148 0.124846 -2.94836 0
M  V30 6109 H 561.229 -1.43522 -2.11743 0
M  V30 6110 H 560.873 -2.61862 -4.35191 0
M  V30 6111 H 560.803 -1.03422 -5.16344 0
M  V30 6112 H 563.294 -1.13366 -3.60495 0
M  V30 6113 H 563.607 -2.9072 -7.16032 0
M  V30 6114 H 561.952 -2.60808 -6.44208 0
M  V30 6115 H 565.143 -1.48439 -4.43941 0
M  V30 6116 H 565.316 -2.29293 -6.06077 0
M  V30 6117 N 558.722 1.53707 -0.348139 0
M  V30 6118 C 559.652 2.28111 0.498766 0
M  V30 6119 C 560.633 1.29851 1.09876 0
M  V30 6120 O 561.818 1.587 1.11928 0
M  V30 6121 C 558.948 3.05735 1.64753 0
M  V30 6122 C 557.902 4.11537 1.17565 0
M  V30 6123 C 557.228 4.77142 2.4133 0
M  V30 6124 C 558.528 5.21587 0.272844 0
M  V30 6125 H 560.222 2.99152 -0.121934 0
M  V30 6126 H 557.768 1.43875 -0.0600842 0
M  V30 6127 H 559.721 3.56526 2.24649 0
M  V30 6128 H 558.445 2.32354 2.2952 0
M  V30 6129 H 557.104 3.61665 0.599483 0
M  V30 6130 H 556.752 4.0035 3.04514 0
M  V30 6131 H 556.452 5.48626 2.10436 0
M  V30 6132 H 557.976 5.30719 3.01943 0
M  V30 6133 H 559.39 5.67986 0.778779 0
M  V30 6134 H 557.787 6.00074 0.0555849 0
M  V30 6135 H 558.857 4.79969 -0.689785 0
M  V30 6136 N 560.2 0.0768682 1.57412 0
M  V30 6137 C 561.425 -0.603404 1.98428 0
M  V30 6138 C 561.85 -1.62047 0.955108 0
M  V30 6139 O 561.208 -1.81129 -0.0786778 0
M  V30 6140 C 561.256 -1.24396 3.38464 0
M  V30 6141 O 560.36 -2.35982 3.3821 0
M  V30 6142 H 559.701 -0.154741 0.645718 0
M  V30 6143 H 562.231 0.152885 2.04028 0
M  V30 6144 H 562.241 -1.5896 3.7576 0
M  V30 6145 H 560.916 -0.498735 4.12899 0
M  V30 6146 H 559.493 -2.03173 3.1269 0
M  V30 6147 N 561.678 -1.56367 -0.196722 0
M  V30 6148 C 562.608 -1.97442 -1.24655 0
M  V30 6149 C 563.589 -0.846147 -1.47561 0
M  V30 6150 O 564.774 -1.11035 -1.59326 0
M  V30 6151 C 561.904 -2.31253 -2.59112 0
M  V30 6152 C 560.858 -3.46804 -2.50821 0
M  V30 6153 C 560.184 -3.66286 -3.89536 0
M  V30 6154 C 561.484 -4.8104 -2.03465 0
M  V30 6155 H 563.178 -2.85388 -0.905216 0
M  V30 6156 H 560.724 -1.37304 -0.434002 0
M  V30 6157 H 562.677 -2.58583 -3.32736 0
M  V30 6158 H 561.401 -1.40188 -2.94983 0
M  V30 6159 H 560.06 -3.19563 -1.79653 0
M  V30 6160 H 559.708 -2.72555 -4.22756 0
M  V30 6161 H 559.408 -4.4402 -3.84864 0
M  V30 6162 H 560.932 -3.9599 -4.64784 0
M  V30 6163 H 562.346 -5.07411 -2.66846 0
M  V30 6164 H 560.743 -5.62232 -2.09798 0
M  V30 6165 H 561.813 -4.74732 -0.98781 0
M  V30 6166 N 563.156 0.464375 -1.50603 0
M  V30 6167 C 564.405 1.21277 -1.61167 0
M  V30 6168 C 564.718 1.92953 -0.320704 0
M  V30 6169 O 565.924 2.69778 -0.30534 0
M  V30 6170 C 564.38 2.20403 -2.84518 0
M  V30 6171 C 563.988 1.54499 -4.20516 0
M  V30 6172 C 565.732 2.95843 -3.0443 0
M  V30 6173 C 563.639 2.51951 -5.35047 0
M  V30 6174 H 562.569 0.456367 -0.600204 0
M  V30 6175 H 565.22 0.48254 -1.77042 0
M  V30 6176 H 563.602 2.96746 -2.62217 0
M  V30 6177 H 564.776 0.83899 -4.53098 0
M  V30 6178 H 563.091 0.913152 -4.06264 0
M  V30 6179 H 565.688 3.6879 -3.87167 0
M  V30 6180 H 566.031 3.55622 -2.16423 0
M  V30 6181 H 566.564 2.26611 -3.26944 0
M  V30 6182 H 563.303 1.96901 -6.25228 0
M  V30 6183 H 562.823 3.20683 -5.06875 0
M  V30 6184 H 564.502 3.13643 -5.65895 0
M  V30 6185 N 564.634 1.40294 0.718013 0
M  V30 6186 C 565.582 1.40536 1.85344 0
M  V30 6187 C 566.576 0.286192 1.66965 0
M  V30 6188 O 567.782 0.457105 1.74099 0
M  V30 6189 H 564.157 0.439236 0.61039 0
M  V30 6190 H 566.128 2.36275 1.82255 0
M  V30 6191 C 564.877 1.28245 3.23185 0
M  V30 6192 H 564.2 2.1364 3.37932 0
M  V30 6193 H 565.64 1.32474 4.02774 0
M  V30 6194 C 564.099 -0.0075503 3.36899 0
M  V30 6195 O 564.629 -0.971391 3.89778 0
M  V30 6196 N 562.835 -0.0762479 2.905 0
M  V30 6197 H 562.382 0.708819 2.47656 0
M  V30 6198 H 562.34 -0.938846 3.00055 0
M  V30 6199 N 566.112 -0.949982 1.2575 0
M  V30 6200 C 567.342 -1.72721 1.13363 0
M  V30 6201 C 567.75 -1.86562 -0.314842 0
M  V30 6202 O 567.093 -1.36621 -1.22803 0
M  V30 6203 C 567.155 -3.15695 1.7198 0
M  V30 6204 C 566.819 -3.25268 3.21014 0
M  V30 6205 C 567.816 -3.09222 4.17945 0
M  V30 6206 C 565.501 -3.4894 3.61312 0
M  V30 6207 C 567.495 -3.16701 5.53154 0
M  V30 6208 C 565.182 -3.56055 4.96657 0
M  V30 6209 C 566.18 -3.3995 5.92387 0
M  V30 6210 O 565.868 -3.46757 7.25269 0
M  V30 6211 H 565.6 -0.547888 0.395973 0
M  V30 6212 H 568.154 -1.20009 1.66694 0
M  V30 6213 H 566.384 -3.69791 1.13101 0
M  V30 6214 H 568.073 -3.75295 1.54624 0
M  V30 6215 H 568.839 -2.90798 3.88151 0
M  V30 6216 H 564.718 -3.60534 2.87291 0
M  V30 6217 H 568.262 -3.04048 6.27854 0
M  V30 6218 H 564.159 -3.73997 5.26115 0
M  V30 6219 H 564.927 -3.63358 7.33426 0
M  V30 6220 N 567.59 -1.07411 -1.15328 0
M  V30 6221 C 568.815 -0.818856 -1.90551 0
M  V30 6222 C 569.24 0.622194 -1.77512 0
M  V30 6223 O 568.598 1.43484 -1.10824 0
M  V30 6224 C 568.646 -1.23267 -3.38877 0
M  V30 6225 O 567.75 -0.378345 -4.10661 0
M  V30 6226 H 567.091 -0.29827 -0.593238 0
M  V30 6227 H 569.621 -1.43289 -1.46046 0
M  V30 6228 H 569.631 -1.20912 -3.89672 0
M  V30 6229 H 568.306 -2.28226 -3.47686 0
M  V30 6230 H 566.883 -0.464437 -3.69996 0
M  V30 6231 N 569.068 1.32177 -0.85831 0
M  V30 6232 C 570.016 2.30729 -0.294442 0
M  V30 6233 C 571.01 1.59009 0.584165 0
M  V30 6234 O 572.216 1.73713 0.471562 0
M  V30 6235 H 568.591 0.748097 -0.0765171 0
M  V30 6236 H 570.562 2.75774 -1.1398 0
M  V30 6237 C 569.311 3.44098 0.499208 0
M  V30 6238 H 568.634 3.99449 -0.167579 0
M  V30 6239 H 570.074 4.15202 0.859273 0
M  V30 6240 C 568.533 2.91684 1.68588 0
M  V30 6241 O 569.063 2.89481 2.78503 0
M  V30 6242 N 567.269 2.48036 1.51415 0
M  V30 6243 H 566.816 2.50027 0.620006 0
M  V30 6244 H 566.774 2.13322 2.30957 0
M  V30 6245 N 570.547 0.616602 1.45037 0
M  V30 6246 C 571.958 0.199359 1.85633 0
M  V30 6247 C 572.309 -1.24588 1.51566 0
M  V30 6248 O 571.434 -1.94594 0.94668 0
M  V30 6249 C 572.029 0.355033 3.36935 0
M  V30 6250 C 570.588 -0.00758748 3.76399 0
M  V30 6251 C 569.735 0.675256 2.68953 0
M  V30 6252 H 572.686 0.822708 1.3571 0
M  V30 6253 H 572.707 -0.410201 3.78282 0
M  V30 6254 H 572.219 1.40699 3.61698 0
M  V30 6255 H 570.32 -1.05837 3.57252 0
M  V30 6256 H 570.433 0.392346 4.77491 0
M  V30 6257 H 568.797 0.111992 2.54454 0
M  V30 6258 H 569.58 1.72952 2.96551 0
M  V30 6259 N 572.025 -1.5352 0.356285 0
M  V30 6260 C 573.25 -2.06007 -0.239961 0
M  V30 6261 C 573.675 -1.22872 -1.42422 0
M  V30 6262 O 573.033 -0.245516 -1.7963 0
M  V30 6263 C 573.081 -3.5522 -0.620587 0
M  V30 6264 O 572.185 -3.74864 -1.71902 0
M  V30 6265 H 571.526 -0.662961 -0.0371377 0
M  V30 6266 H 574.056 -1.98033 0.514194 0
M  V30 6267 H 574.066 -3.98081 -0.894197 0
M  V30 6268 H 572.741 -4.15175 0.245407 0
M  V30 6269 H 571.318 -3.43904 -1.44169 0
M  V30 6270 N 573.503 -0.0852151 -1.57369 0
M  V30 6271 C 574.413 0.891712 -2.16992 0
M  V30 6272 C 575.429 1.3174 -1.13669 0
M  V30 6273 O 576.605 1.38735 -1.45995 0
M  V30 6274 C 573.67 2.13635 -2.73059 0
M  V30 6275 C 572.731 1.7658 -3.91303 0
M  V30 6276 C 571.964 2.95111 -4.44686 0
M  V30 6277 O 572.187 4.09539 -3.97032 0
M  V30 6278 O 571.121 2.74149 -5.35841 0
M  V30 6279 H 574.947 0.414477 -3.00858 0
M  V30 6280 H 572.532 0.138598 -1.48756 0
M  V30 6281 H 574.414 2.86595 -3.08935 0
M  V30 6282 H 573.089 2.6043 -1.92244 0
M  V30 6283 H 571.996 1.00831 -3.60255 0
M  V30 6284 H 573.329 1.34557 -4.7345 0
M  V30 6285 N 574.981 1.5647 0.188427 0
M  V30 6286 C 575.928 1.95073 1.23349 0
M  V30 6287 C 576.898 0.812238 1.44886 0
M  V30 6288 O 578.083 1.07095 1.57909 0
M  V30 6289 C 575.223 2.30124 2.57171 0
M  V30 6290 C 574.336 3.57069 2.43157 0
M  V30 6291 C 573.471 3.81411 3.69729 0
M  V30 6292 C 572.51 5.0176 3.50575 0
M  V30 6293 N 571.647 5.22321 4.69175 0
M  V30 6294 H 576.487 2.84171 0.89728 0
M  V30 6295 H 574.024 1.40623 0.431683 0
M  V30 6296 H 575.982 2.48463 3.35145 0
M  V30 6297 H 574.612 1.44159 2.88822 0
M  V30 6298 H 573.664 3.4674 1.56447 0
M  V30 6299 H 574.976 4.452 2.24942 0
M  V30 6300 H 574.13 4.00026 4.56141 0
M  V30 6301 H 572.869 2.91624 3.90905 0
M  V30 6302 H 571.874 4.83061 2.62549 0
M  V30 6303 H 573.099 5.93063 3.30837 0
M  V30 6304 H 571.045 4.35483 4.90602 0
M  V30 6305 H 570.962 6.04643 4.53809 0
M  V30 6306 H 572.23 5.45401 5.56919 0
M  V30 6307 N 576.459 -0.456382 1.50847 0
M  V30 6308 C 577.875 -0.791345 1.386 0
M  V30 6309 C 578.075 -1.9633 0.453498 0
M  V30 6310 O 577.131 -2.52308 -0.0984353 0
M  V30 6311 C 578.444 -1.08959 2.80265 0
M  V30 6312 C 579.992 -1.19517 2.89283 0
M  V30 6313 C 580.467 -1.52647 4.31814 0
M  V30 6314 N 581.958 -1.59609 4.34832 0
M  V30 6315 C 582.693 -1.86777 5.42127 0
M  V30 6316 N 582.189 -2.11866 6.59609 0
M  V30 6317 N 583.982 -1.88402 5.29586 0
M  V30 6318 H 576.133 0.315746 2.1004 0
M  V30 6319 H 578.396 0.0787916 0.94472 0
M  V30 6320 H 578.102 -0.301355 3.50407 0
M  V30 6321 H 577.976 -2.02211 3.18419 0
M  V30 6322 H 580.363 -1.97406 2.19351 0
M  V30 6323 H 580.444 -0.242111 2.54652 0
M  V30 6324 H 580.088 -0.752922 5.02288 0
M  V30 6325 H 580.018 -2.49127 4.63943 0
M  V30 6326 H 582.509 -1.42201 3.50125 0
M  V30 6327 H 582.822 -2.31912 7.37182 0
M  V30 6328 H 581.167 -2.09228 6.62758 0
M  V30 6329 H 584.358 -1.68307 4.36795 0
M  V30 6330 H 584.531 -2.09238 6.13289 0
M  V30 6331 N 577.937 -1.40673 -0.710563 0
M  V30 6332 C 579.186 -1.38525 -1.46607 0
M  V30 6333 C 579.499 0.0077024 -1.95598 0
M  V30 6334 O 580.705 0.151792 -2.71075 0
M  V30 6335 C 579.161 -2.43489 -2.6503 0
M  V30 6336 C 578.769 -3.88619 -2.22888 0
M  V30 6337 C 580.513 -2.50456 -3.42742 0
M  V30 6338 C 578.42 -4.85168 -3.3818 0
M  V30 6339 H 577.35 -0.515092 -0.550632 0
M  V30 6340 H 580.001 -1.66431 -0.772846 0
M  V30 6341 H 578.383 -2.0869 -3.36548 0
M  V30 6342 H 579.557 -4.32588 -1.58758 0
M  V30 6343 H 577.872 -3.85174 -1.58208 0
M  V30 6344 H 580.469 -3.19776 -4.28541 0
M  V30 6345 H 580.812 -1.53665 -3.86902 0
M  V30 6346 H 581.345 -2.84271 -2.78271 0
M  V30 6347 H 578.084 -5.8331 -2.99047 0
M  V30 6348 H 577.604 -4.4586 -4.01209 0
M  V30 6349 H 579.283 -5.05225 -4.04174 0
M  V30 6350 N 579.415 0.9433 -1.26252 0
M  V30 6351 C 580.325 2.07532 -1.09397 0
M  V30 6352 C 581.341 1.73977 -0.0280449 0
M  V30 6353 O 582.517 2.00067 -0.231337 0
M  V30 6354 C 579.582 3.39002 -0.726523 0
M  V30 6355 C 578.643 3.86353 -1.87163 0
M  V30 6356 C 577.876 5.11549 -1.52162 0
M  V30 6357 O 578.099 5.68834 -0.422385 0
M  V30 6358 O 577.033 5.53889 -2.35565 0
M  V30 6359 H 580.859 2.24658 -2.04359 0
M  V30 6360 H 578.444 1.05988 -1.05295 0
M  V30 6361 H 580.326 4.18 -0.534236 0
M  V30 6362 H 579.001 3.2312 0.193721 0
M  V30 6363 H 577.908 3.0831 -2.11886 0
M  V30 6364 H 579.241 4.06752 -2.77152 0
M  V30 6365 N 580.893 1.08022 1.14757 0
M  V30 6366 C 582.14 0.807509 1.85703 0
M  V30 6367 C 582.468 -0.666617 1.8272 0
M  V30 6368 O 581.723 -1.50562 1.25018 0
M  V30 6369 C 582.022 1.26964 3.34088 0
M  V30 6370 C 581.688 2.7509 3.57262 0
M  V30 6371 C 580.35 3.15547 3.63296 0
M  V30 6372 C 582.702 3.70667 3.66409 0
M  V30 6373 C 580.03 4.50384 3.75994 0
M  V30 6374 C 582.382 5.05274 3.80632 0
M  V30 6375 C 581.046 5.45342 3.84913 0
M  V30 6376 H 580.316 0.295488 0.679535 0
M  V30 6377 H 582.963 1.35245 1.35577 0
M  V30 6378 H 581.268 0.644216 3.86467 0
M  V30 6379 H 582.965 1.03544 3.87401 0
M  V30 6380 H 579.555 2.42775 3.53212 0
M  V30 6381 H 583.739 3.40533 3.61041 0
M  V30 6382 H 578.995 4.80886 3.77569 0
M  V30 6383 H 583.169 5.79201 3.86652 0
M  V30 6384 H 580.796 6.49823 3.94505 0
M  V30 6385 N 582.371 -1.3172 0.865308 0
M  V30 6386 C 583.787 -1.4958 0.556596 0
M  V30 6387 C 583.987 -1.79763 -0.910353 0
M  V30 6388 O 583.043 -1.87351 -1.6928 0
M  V30 6389 C 584.356 -2.63277 1.45279 0
M  V30 6390 C 585.904 -2.77161 1.45433 0
M  V30 6391 C 586.379 -3.93949 2.33598 0
M  V30 6392 N 587.87 -4.01228 2.31453 0
M  V30 6393 C 588.605 -4.90855 2.96393 0
M  V30 6394 N 588.101 -5.85416 3.70486 0
M  V30 6395 N 589.894 -4.84063 2.85726 0
M  V30 6396 H 582.045 -1.10396 1.81456 0
M  V30 6397 H 584.308 -0.54507 0.775631 0
M  V30 6398 H 584.014 -2.47734 2.49641 0
M  V30 6399 H 583.888 -3.59309 1.14792 0
M  V30 6400 H 586.275 -2.9212 0.41831 0
M  V30 6401 H 586.356 -1.8181 1.79941 0
M  V30 6402 H 586 -3.79748 3.37274 0
M  V30 6403 H 585.93 -4.88598 1.96417 0
M  V30 6404 H 588.421 -3.3357 1.77593 0
M  V30 6405 H 588.734 -6.50525 4.17178 0
M  V30 6406 H 587.079 -5.85409 3.74594 0
M  V30 6407 H 590.27 -4.09163 2.27384 0
M  V30 6408 H 590.443 -5.53708 3.36617 0
M  V30 6409 N 583.85 -0.624285 -1.44708 0
M  V30 6410 C 584.779 0.0717025 -2.3339 0
M  V30 6411 C 585.76 0.841814 -1.47809 0
M  V30 6412 O 586.946 0.809056 -1.76544 0
M  V30 6413 C 584.076 1.05852 -3.30776 0
M  V30 6414 C 583.029 0.400503 -4.26122 0
M  V30 6415 C 582.356 1.49674 -5.13324 0
M  V30 6416 C 583.656 -0.688924 -5.17737 0
M  V30 6417 H 585.35 -0.668819 -2.91834 0
M  V30 6418 H 582.896 -0.32308 -1.40329 0
M  V30 6419 H 584.849 1.5541 -3.91696 0
M  V30 6420 H 583.572 1.82984 -2.70526 0
M  V30 6421 H 582.231 -0.0743687 -3.66525 0
M  V30 6422 H 581.88 2.25877 -4.49431 0
M  V30 6423 H 581.58 1.06188 -5.77926 0
M  V30 6424 H 583.104 1.99427 -5.77115 0
M  V30 6425 H 584.518 -0.276724 -5.72632 0
M  V30 6426 H 582.915 -1.04652 -5.90904 0
M  V30 6427 H 583.985 -1.55884 -4.5916 0
M  V30 6428 N 585.328 1.53329 -0.364422 0
M  V30 6429 C 586.739 1.86345 0.115039 0
M  V30 6430 C 587.09 1.28505 1.4826 0
M  V30 6431 O 586.215 0.606639 2.07723 0
M  V30 6432 C 586.81 3.38114 0.215522 0
M  V30 6433 C 585.369 3.70932 0.639237 0
M  V30 6434 C 584.516 2.76471 -0.214261 0
M  V30 6435 H 587.467 1.47593 -0.583258 0
M  V30 6436 H 587.488 3.66031 1.0393 0
M  V30 6437 H 587 3.80182 -0.779948 0
M  V30 6438 H 585.101 3.3442 1.64298 0
M  V30 6439 H 585.214 4.77302 0.41465 0
M  V30 6440 H 583.578 2.52724 0.316678 0
M  V30 6441 H 584.361 3.21373 -1.20725 0
M  V30 6442 N 586.806 0.0935595 1.57322 0
M  V30 6443 C 588.083 -0.612692 1.85756 0
M  V30 6444 C 588.463 -1.86439 0.99013 0
M  V30 6445 O 587.811 -2.28416 0.0621362 0
M  V30 6446 C 588.021 -0.929547 3.36393 0
M  V30 6447 C 589.369 -1.29366 4.04413 0
M  V30 6448 O 590.393 -1.02061 3.41265 0
M  V30 6449 O 589.252 -1.80498 5.15832 0
M  V30 6450 H 586.346 -0.306444 0.768128 0
M  V30 6451 H 588.892 0.126141 1.69231 0
M  V30 6452 H 587.664 -0.0414766 3.91278 0
M  V30 6453 H 587.287 -1.72441 3.5826 0
M  V30 6454 N 588.284 -1.56567 -0.180126 0
M  V30 6455 C 589.524 -1.83285 -0.904761 0
M  V30 6456 C 589.888 -0.673226 -1.7981 0
M  V30 6457 O 591.089 -0.820645 -2.55967 0
M  V30 6458 C 589.36 -3.15086 -1.68688 0
M  V30 6459 S 590.919 -3.63258 -2.46149 0
M  V30 6460 H 587.737 -0.643114 -0.303193 0
M  V30 6461 H 590.339 -1.94785 -0.167034 0
M  V30 6462 H 589.043 -3.97484 -1.02148 0
M  V30 6463 H 588.574 -3.06504 -2.46615 0
M  V30 6464 H 590.589 -3.29884 -3.70663 0
M  V30 6465 N 589.762 0.448376 -1.51087 0
M  V30 6466 C 590.725 1.52588 -1.71025 0
M  V30 6467 C 591.725 1.49958 -0.580442 0
M  V30 6468 O 592.915 1.52176 -0.847833 0
M  V30 6469 C 590.047 2.92163 -1.75652 0
M  V30 6470 H 591.24 1.36218 -2.67179 0
M  V30 6471 H 588.793 0.676313 -1.4091 0
M  V30 6472 H 589.528 3.13951 -0.812724 0
M  V30 6473 H 589.313 2.95478 -2.57751 0
M  V30 6474 H 590.803 3.70349 -1.92953 0
M  V30 6475 N 591.24 1.41047 0.703093 0
M  V30 6476 C 592.188 1.42494 1.83843 0
M  V30 6477 C 593.182 0.303885 1.66652 0
M  V30 6478 O 594.388 0.475544 1.73605 0
M  V30 6479 H 590.763 0.445685 0.605697 0
M  V30 6480 H 592.734 2.38194 1.79739 0
M  V30 6481 C 591.483 1.31666 3.21807 0
M  V30 6482 H 590.806 2.17212 3.35647 0
M  V30 6483 H 592.246 1.36738 4.01346 0
M  V30 6484 C 590.705 0.0281828 3.36888 0
M  V30 6485 O 591.235 -0.929995 3.90786 0
M  V30 6486 N 589.441 -0.0454322 2.90564 0
M  V30 6487 H 588.988 0.735046 2.4689 0
M  V30 6488 H 588.946 -0.906968 3.01034 0
M  V30 6489 N 592.718 -0.936591 1.26751 0
M  V30 6490 C 593.943 -1.72288 1.15462 0
M  V30 6491 C 594.368 -1.85915 -0.285887 0
M  V30 6492 O 593.726 -1.35272 -1.20711 0
M  V30 6493 C 593.774 -3.10503 1.83359 0
M  V30 6494 O 592.878 -3.96745 1.1255 0
M  V30 6495 H 592.219 -0.52843 0.402067 0
M  V30 6496 H 594.749 -1.17271 1.67656 0
M  V30 6497 H 594.759 -3.60867 1.90365 0
M  V30 6498 H 593.434 -2.99901 2.88153 0
M  V30 6499 H 592.011 -3.55191 1.13551 0
M  V30 6500 N 594.196 -1.08629 -1.14182 0
M  V30 6501 C 595.607 -0.838003 -1.66836 0
M  V30 6502 C 595.958 0.634885 -1.85644 0
M  V30 6503 O 595.083 1.49008 -1.56926 0
M  V30 6504 C 595.678 -1.51465 -3.03058 0
M  V30 6505 C 594.237 -1.31355 -3.52736 0
M  V30 6506 C 593.384 -1.57599 -2.28162 0
M  V30 6507 H 596.335 -1.24656 -0.982165 0
M  V30 6508 H 596.356 -0.943134 -3.68626 0
M  V30 6509 H 595.868 -2.58661 -2.89337 0
M  V30 6510 H 593.969 -0.262384 -3.71675 0
M  V30 6511 H 594.082 -2.04275 -4.33369 0
M  V30 6512 H 592.446 -0.997659 -2.34348 0
M  V30 6513 H 593.229 -2.66006 -2.17015 0
M  V30 6514 N 595.674 1.31259 -0.872281 0
M  V30 6515 C 596.624 2.26 -0.301295 0
M  V30 6516 C 597.608 1.50729 0.562991 0
M  V30 6517 O 598.8 1.72198 0.40949 0
M  V30 6518 C 595.929 3.39724 0.494227 0
M  V30 6519 C 595.015 4.22363 -0.383432 0
M  V30 6520 N 595.406 4.83724 -1.47799 0
M  V30 6521 C 593.704 4.45652 -0.176278 0
M  V30 6522 C 594.405 5.45523 -2.01939 0
M  V30 6523 N 593.381 5.27428 -1.31608 0
M  V30 6524 H 597.183 2.70981 -1.13782 0
M  V30 6525 H 594.697 1.45552 -0.720294 0
M  V30 6526 H 596.694 4.06626 0.919828 0
M  V30 6527 H 595.354 2.96286 1.32834 0
M  V30 6528 H 596.365 4.83313 -1.8609 0
M  V30 6529 H 593.042 4.12845 0.621698 0
M  V30 6530 H 594.432 6.04268 -2.93786 0
M  V30 6531 N 597.152 0.631951 1.44375 0
M  V30 6532 C 598.082 -0.0593243 2.33425 0
M  V30 6533 C 599.063 -0.833964 1.48253 0
M  V30 6534 O 600.248 -0.799682 1.76971 0
M  V30 6535 C 597.378 -1.04096 3.31333 0
M  V30 6536 C 596.332 -0.377899 4.26328 0
M  V30 6537 C 595.658 -1.4695 5.14111 0
M  V30 6538 C 596.958 0.716371 5.17364 0
M  V30 6539 H 598.652 0.684287 2.91475 0
M  V30 6540 H 596.198 0.330518 1.40156 0
M  V30 6541 H 598.151 -1.53331 3.92514 0
M  V30 6542 H 596.875 -1.81547 2.71493 0
M  V30 6543 H 595.534 0.0938054 3.6648 0
M  V30 6544 H 595.182 -2.2349 4.50623 0
M  V30 6545 H 594.882 -1.03121 5.78481 0
M  V30 6546 H 596.406 -1.96363 5.78164 0
M  V30 6547 H 597.82 0.307089 5.72477 0
M  V30 6548 H 596.217 1.07784 5.90341 0
M  V30 6549 H 597.287 1.58316 4.58327 0
M  V30 6550 N 598.631 -1.53133 0.372548 0
M  V30 6551 C 599.877 -2.01654 -0.215277 0
M  V30 6552 C 600.21 -1.25914 -1.47849 0
M  V30 6553 O 599.485 -0.3548 -1.91237 0
M  V30 6554 C 599.768 -3.56609 -0.500187 0
M  V30 6555 C 599.621 -4.43036 0.777145 0
M  V30 6556 C 600.94 -4.20528 -1.29786 0
M  V30 6557 H 598.059 -0.732991 -0.0767686 0
M  V30 6558 H 600.701 -1.83335 0.498814 0
M  V30 6559 H 598.851 -3.7235 -1.10852 0
M  V30 6560 H 600.523 -4.39079 1.41447 0
M  V30 6561 H 598.766 -4.10723 1.39604 0
M  V30 6562 H 599.437 -5.49424 0.532662 0
M  V30 6563 H 601.913 -4.08663 -0.783198 0
M  V30 6564 H 600.789 -5.28962 -1.46596 0
M  V30 6565 H 601.05 -3.77051 -2.30836 0
M  V30 6566 N 600.109 -0.101901 -1.5727 0
M  V30 6567 C 601.042 0.891377 -2.10071 0
M  V30 6568 C 602.02 1.27197 -1.01291 0
M  V30 6569 O 603.204 1.37602 -1.28833 0
M  V30 6570 C 600.331 2.19049 -2.58331 0
M  V30 6571 C 599.377 1.95925 -3.78834 0
M  V30 6572 S 600.21 1.19106 -5.22086 0
M  V30 6573 C 601.366 2.50234 -5.73702 0
M  V30 6574 H 601.599 0.442212 -2.93993 0
M  V30 6575 H 599.132 0.111529 -1.53997 0
M  V30 6576 H 601.09 2.937 -2.86793 0
M  V30 6577 H 599.751 2.61086 -1.74622 0
M  V30 6578 H 598.944 2.92143 -4.10693 0
M  V30 6579 H 598.546 1.29401 -3.50901 0
M  V30 6580 H 600.838 3.46173 -5.82384 0
M  V30 6581 H 601.781 2.22944 -6.72088 0
M  V30 6582 H 602.189 2.58818 -5.01671 0
M  V30 6583 N 601.587 1.56661 0.17182 0
M  V30 6584 C 602.55 1.9549 1.19651 0
M  V30 6585 C 603.55 0.838501 1.37207 0
M  V30 6586 O 604.74 1.10556 1.34622 0
M  V30 6587 C 601.872 2.24927 2.56166 0
M  V30 6588 H 603.065 2.87184 0.864007 0
M  V30 6589 H 600.618 1.50711 0.41425 0
M  V30 6590 H 601.353 1.35944 2.94431 0
M  V30 6591 H 601.138 3.06301 2.4479 0
M  V30 6592 H 602.628 2.55891 3.30014 0
M  V30 6593 N 603.065 -0.440357 1.51323 0
M  V30 6594 C 604.028 -1.51679 1.71832 0
M  V30 6595 C 605.028 -1.49648 0.588386 0
M  V30 6596 O 606.218 -1.51724 0.855891 0
M  V30 6597 C 603.35 -2.91228 1.77199 0
M  V30 6598 H 604.543 -1.34799 2.67898 0
M  V30 6599 H 602.096 -0.66883 1.41267 0
M  V30 6600 H 602.831 -3.13516 0.829363 0
M  V30 6601 H 602.616 -2.94107 2.59314 0
M  V30 6602 H 604.106 -3.69321 1.94915 0
M  V30 6603 N 604.543 -1.41418 -0.695603 0
M  V30 6604 C 605.792 -1.40073 -1.4513 0
M  V30 6605 C 606.105 -0.0130439 -1.95596 0
M  V30 6606 O 607.311 0.123032 -2.71221 0
M  V30 6607 C 605.767 -2.46286 -2.62433 0
M  V30 6608 C 605.375 -3.90962 -2.18753 0
M  V30 6609 C 607.119 -2.54077 -3.40066 0
M  V30 6610 C 605.026 -4.88728 -3.33015 0
M  V30 6611 H 603.956 -0.520903 -0.545138 0
M  V30 6612 H 606.607 -1.67242 -0.75515 0
M  V30 6613 H 604.989 -2.12248 -3.34315 0
M  V30 6614 H 606.163 -4.34248 -1.54161 0
M  V30 6615 H 604.478 -3.86831 -1.54114 0
M  V30 6616 H 607.075 -3.24303 -4.25125 0
M  V30 6617 H 607.418 -1.5776 -3.8525 0
M  V30 6618 H 607.951 -2.87206 -2.75241 0
M  V30 6619 H 604.69 -5.86449 -2.92844 0
M  V30 6620 H 604.21 -4.50091 -3.96457 0
M  V30 6621 H 605.889 -5.09483 -3.98793 0
M  V30 6622 N 606.021 0.929856 -1.27246 0
M  V30 6623 C 607.27 1.67182 -1.12842 0
M  V30 6624 C 607.583 1.9287 0.325666 0
M  V30 6625 O 608.789 2.64999 0.590572 0
M  V30 6626 C 607.245 3.01097 -1.97151 0
M  V30 6627 C 606.853 2.83115 -3.47203 0
M  V30 6628 C 608.597 3.78907 -1.91389 0
M  V30 6629 C 606.504 4.12573 -4.23719 0
M  V30 6630 H 605.434 0.627064 -0.418697 0
M  V30 6631 H 608.085 1.0332 -1.51649 0
M  V30 6632 H 606.467 3.66004 -1.51186 0
M  V30 6633 H 607.641 2.26989 -4.01015 0
M  V30 6634 H 605.956 2.18736 -3.54321 0
M  V30 6635 H 608.553 4.74837 -2.45834 0
M  V30 6636 H 608.896 4.0674 -0.887047 0
M  V30 6637 H 609.429 3.20794 -2.35237 0
M  V30 6638 H 606.168 3.8992 -5.26918 0
M  V30 6639 H 605.688 4.68371 -3.74685 0
M  V30 6640 H 607.367 4.8095 -4.32777 0
M  V30 6641 N 607.499 1.09233 1.13605 0
M  V30 6642 C 608.429 0.751738 2.21068 0
M  V30 6643 C 609.41 -0.269688 1.67948 0
M  V30 6644 O 610.595 -0.13819 1.93708 0
M  V30 6645 C 607.725 0.16935 3.46887 0
M  V30 6646 C 606.679 1.12007 4.13084 0
M  V30 6647 C 606.005 0.399483 5.33206 0
M  V30 6648 C 607.305 2.46168 4.6065 0
M  V30 6649 H 608.999 1.65024 2.49815 0
M  V30 6650 H 606.545 0.794905 1.20072 0
M  V30 6651 H 608.498 -0.0809824 4.21322 0
M  V30 6652 H 607.222 -0.764335 3.1753 0
M  V30 6653 H 605.881 1.35564 3.40614 0
M  V30 6654 H 605.529 -0.538277 5.00112 0
M  V30 6655 H 605.229 1.03337 5.78442 0
M  V30 6656 H 606.753 0.157403 6.10397 0
M  V30 6657 H 608.167 2.26829 5.26518 0
M  V30 6658 H 606.564 3.05326 5.1662 0
M  V30 6659 H 607.634 3.07076 3.75276 0
M  V30 6660 N 608.977 -1.30795 0.87923 0
M  V30 6661 C 609.94 -2.26563 0.346676 0
M  V30 6662 C 610.94 -1.52578 -0.507597 0
M  V30 6663 O 612.13 -1.71318 -0.315575 0
M  V30 6664 C 609.262 -3.37115 -0.506611 0
M  V30 6665 H 610.455 -2.75183 1.19223 0
M  V30 6666 H 608.008 -1.41886 0.655598 0
M  V30 6667 H 608.743 -2.93802 -1.37299 0
M  V30 6668 H 608.528 -3.91959 0.105218 0
M  V30 6669 H 610.018 -4.08412 -0.871192 0
M  V30 6670 N 610.455 -0.639598 -1.44038 0
M  V30 6671 C 611.703 -0.147188 -2.01563 0
M  V30 6672 C 612.024 1.2384 -1.50628 0
M  V30 6673 O 611.294 1.82452 -0.713316 0
M  V30 6674 H 609.874 -0.0514231 -0.745228 0
M  V30 6675 H 612.536 -0.828205 -1.76428 0
M  V30 6676 H 611.632 -0.121358 -3.11864 0
M  V30 6677 N 611.933 1.52934 -0.380664 0
M  V30 6678 C 613.163 2.05587 0.204302 0
M  V30 6679 C 613.571 1.25288 1.41773 0
M  V30 6680 O 612.914 0.290394 1.8139 0
M  V30 6681 C 612.976 3.53624 0.647324 0
M  V30 6682 C 612.64 4.54765 -0.451465 0
M  V30 6683 C 613.637 5.03226 -1.30614 0
M  V30 6684 C 611.322 4.98508 -0.616025 0
M  V30 6685 C 613.316 5.94046 -2.31058 0
M  V30 6686 C 611.003 5.89131 -1.62381 0
M  V30 6687 C 612.001 6.36792 -2.46952 0
M  V30 6688 O 611.689 7.25626 -3.46009 0
M  V30 6689 H 611.421 0.675013 0.0365198 0
M  V30 6690 H 613.975 1.98125 -0.541827 0
M  V30 6691 H 612.205 3.58676 1.44529 0
M  V30 6692 H 613.894 3.89061 1.15698 0
M  V30 6693 H 614.66 4.70167 -1.19027 0
M  V30 6694 H 610.539 4.60989 0.0324987 0
M  V30 6695 H 614.083 6.3117 -2.97104 0
M  V30 6696 H 609.98 6.21603 -1.7401 0
M  V30 6697 H 610.748 7.43664 -3.41916 0
M  V30 6698 N 613.412 0.11024 1.57214 0
M  V30 6699 C 614.689 -0.592956 1.86396 0
M  V30 6700 C 615.069 -1.85379 1.00985 0
M  V30 6701 O 614.417 -2.28337 0.0863592 0
M  V30 6702 C 614.627 -0.893816 3.3736 0
M  V30 6703 C 615.975 -1.25069 4.05762 0
M  V30 6704 O 616.999 -0.984356 3.42329 0
M  V30 6705 O 615.858 -1.75017 5.17718 0
M  V30 6706 H 612.952 -0.29828 0.771335 0
M  V30 6707 H 615.498 0.144083 1.69087 0
M  V30 6708 H 614.27 2.6031e-05 3.913 0
M  V30 6709 H 613.893 -1.68631 3.60068 0
M  V30 6710 N 614.89 -1.56749 -0.16351 0
M  V30 6711 C 616.138 -1.82074 -0.87713 0
M  V30 6712 C 616.459 -0.688503 -1.82441 0
M  V30 6713 O 615.729 0.291085 -1.93725 0
M  V30 6714 H 614.309 -0.671677 -0.326893 0
M  V30 6715 H 616.971 -1.9423 -0.161459 0
M  V30 6716 H 616.067 -2.76407 -1.44934 0
M  V30 6717 N 616.368 0.432326 -1.51554 0
M  V30 6718 C 617.617 1.17831 -1.63703 0
M  V30 6719 C 617.93 1.92229 -0.36156 0
M  V30 6720 O 619.136 2.69069 -0.362495 0
M  V30 6721 C 617.592 2.14318 -2.89129 0
M  V30 6722 C 617.2 1.45544 -4.23699 0
M  V30 6723 C 618.944 2.89319 -3.10636 0
M  V30 6724 C 616.851 2.40545 -5.4027 0
M  V30 6725 H 615.781 0.443533 -0.60975 0
M  V30 6726 H 618.432 0.444878 -1.78026 0
M  V30 6727 H 616.814 2.91117 -2.68452 0
M  V30 6728 H 617.988 0.742693 -4.54775 0
M  V30 6729 H 616.303 0.826772 -4.0811 0
M  V30 6730 H 618.9 3.60495 -3.94902 0
M  V30 6731 H 619.243 3.50951 -2.23918 0
M  V30 6732 H 619.776 2.19625 -3.31677 0
M  V30 6733 H 616.515 1.83594 -6.29264 0
M  V30 6734 H 616.035 3.09859 -5.13563 0
M  V30 6735 H 617.714 3.01569 -5.72421 0
M  V30 6736 N 617.846 1.41785 0.688094 0
M  V30 6737 C 618.793 1.44221 1.80191 0
M  V30 6738 C 619.763 0.295688 1.63447 0
M  V30 6739 O 620.948 0.49783 1.84191 0
M  V30 6740 C 618.088 1.33743 3.1813 0
M  V30 6741 C 617.201 2.58325 3.46254 0
M  V30 6742 C 616.336 2.40086 4.73848 0
M  V30 6743 C 615.375 3.60107 4.94964 0
M  V30 6744 N 614.512 3.40892 6.13789 0
M  V30 6745 H 619.352 2.39411 1.77444 0
M  V30 6746 H 616.889 1.18876 0.866423 0
M  V30 6747 H 618.847 1.25669 3.97823 0
M  V30 6748 H 617.477 0.42157 3.20035 0
M  V30 6749 H 616.529 2.7682 2.60912 0
M  V30 6750 H 617.841 3.4758 3.57756 0
M  V30 6751 H 616.995 2.29522 5.61609 0
M  V30 6752 H 615.734 1.483 4.64606 0
M  V30 6753 H 614.739 3.71118 4.05649 0
M  V30 6754 H 615.964 4.52857 5.06061 0
M  V30 6755 H 613.91 2.51812 6.05745 0
M  V30 6756 H 613.827 4.23727 6.26092 0
M  V30 6757 H 615.095 3.34114 7.04264 0
M  V30 6758 N 619.324 -0.923095 1.27737 0
M  V30 6759 C 620.549 -1.71054 1.17283 0
M  V30 6760 C 620.974 -1.86208 -0.266153 0
M  V30 6761 O 620.332 -1.36545 -1.1927 0
M  V30 6762 C 620.38 -3.0854 1.86642 0
M  V30 6763 O 619.484 -3.95528 1.16752 0
M  V30 6764 H 618.825 -0.524136 0.407649 0
M  V30 6765 H 621.355 -1.15487 1.6889 0
M  V30 6766 H 621.365 -3.58828 1.94182 0
M  V30 6767 H 620.04 -2.96828 2.91317 0
M  V30 6768 H 618.617 -3.53967 1.17312 0
M  V30 6769 N 620.802 -1.09834 -1.13024 0
M  V30 6770 C 621.749 -0.741522 -2.18564 0
M  V30 6771 C 622.719 0.279236 -1.63736 0
M  V30 6772 O 623.904 0.159923 -1.90129 0
M  V30 6773 C 621.044 -0.17277 -3.44667 0
M  V30 6774 C 620.157 -1.24808 -4.13578 0
M  V30 6775 C 619.292 -0.641631 -5.27311 0
M  V30 6776 C 618.331 -1.69795 -5.88078 0
M  V30 6777 N 617.468 -1.11223 -6.93234 0
M  V30 6778 H 622.308 -1.64576 -2.48432 0
M  V30 6779 H 619.845 -0.822174 -1.21978 0
M  V30 6780 H 621.803 0.17482 -4.16834 0
M  V30 6781 H 620.433 0.694725 -3.15235 0
M  V30 6782 H 619.485 -1.71288 -3.39653 0
M  V30 6783 H 620.797 -2.04795 -4.54819 0
M  V30 6784 H 619.951 -0.243128 -6.06213 0
M  V30 6785 H 618.69 0.189742 -4.87331 0
M  V30 6786 H 617.695 -2.10595 -5.07868 0
M  V30 6787 H 618.92 -2.53206 -6.3013 0
M  V30 6788 H 616.866 -0.302208 -6.55304 0
M  V30 6789 H 616.783 -1.84901 -7.3304 0
M  V30 6790 H 618.051 -0.740068 -7.75979 0
M  V30 6791 N 622.28 1.30327 -0.886154 0
M  V30 6792 C 623.19 2.31854 -0.357866 0
M  V30 6793 C 624.206 1.65392 0.540502 0
M  V30 6794 O 625.382 1.96683 0.433339 0
M  V30 6795 C 622.447 3.44171 0.417999 0
M  V30 6796 C 621.508 4.26257 -0.510263 0
M  V30 6797 C 620.741 5.3321 0.228669 0
M  V30 6798 O 620.964 5.51542 1.45458 0
M  V30 6799 O 619.898 6.0042 -0.421832 0
M  V30 6800 H 623.724 2.78995 -1.19982 0
M  V30 6801 H 621.309 1.34518 -0.650028 0
M  V30 6802 H 623.191 4.12588 0.857251 0
M  V30 6803 H 621.866 2.99164 1.23623 0
M  V30 6804 H 620.773 3.60533 -0.99835 0
M  V30 6805 H 622.106 4.74871 -1.29454 0
M  V30 6806 N 623.758 0.647228 1.43697 0
M  V30 6807 C 624.69 -0.0866232 2.29036 0
M  V30 6808 C 625.703 -0.793051 1.42178 0
M  V30 6809 O 626.892 -0.651807 1.66174 0
M  V30 6810 C 623.992 -1.14552 3.18953 0
M  V30 6811 C 623.165 -0.518422 4.34317 0
M  V30 6812 C 622.224 -1.4734 5.05151 0
M  V30 6813 O 621.25 -0.984312 5.60625 0
M  V30 6814 N 622.452 -2.8075 5.08094 0
M  V30 6815 H 625.217 0.645834 2.92659 0
M  V30 6816 H 622.778 0.489567 1.54321 0
M  V30 6817 H 624.77 -1.78505 3.63205 0
M  V30 6818 H 623.34 -1.78001 2.56971 0
M  V30 6819 H 622.56 0.300079 3.93056 0
M  V30 6820 H 623.848 -0.080401 5.08736 0
M  V30 6821 H 623.246 -3.23052 4.64386 0
M  V30 6822 H 621.803 -3.40022 5.56083 0
M  V30 6823 N 625.236 -1.5273 0.388769 0
M  V30 6824 C 626.647 -1.86505 -0.0853788 0
M  V30 6825 C 626.998 -1.30847 -1.46197 0
M  V30 6826 O 626.123 -0.639609 -2.06732 0
M  V30 6827 C 626.718 -3.38414 -0.161703 0
M  V30 6828 C 625.277 -3.71902 -0.580144 0
M  V30 6829 C 624.424 -2.76095 0.258218 0
M  V30 6830 H 627.375 -1.46647 0.606665 0
M  V30 6831 H 627.396 -3.67638 -0.980936 0
M  V30 6832 H 626.908 -3.78893 0.840333 0
M  V30 6833 H 625.009 -3.36992 -1.58957 0
M  V30 6834 H 625.122 -4.77902 -0.338663 0
M  V30 6835 H 623.486 -2.53195 -0.276432 0
M  V30 6836 H 624.269 -3.19411 1.25822 0
M  V30 6837 N 626.714 -0.118576 -1.57153 0
M  V30 6838 C 627.644 0.828436 -2.1831 0
M  V30 6839 C 628.625 1.27758 -1.12303 0
M  V30 6840 O 629.81 1.34026 -1.40537 0
M  V30 6841 C 626.94 2.07876 -2.78217 0
M  V30 6842 C 625.894 1.76742 -3.89803 0
M  V30 6843 C 625.22 3.08801 -4.36516 0
M  V30 6844 C 626.52 1.03606 -5.11921 0
M  V30 6845 H 628.214 0.318824 -2.97698 0
M  V30 6846 H 625.76 0.151911 -1.43196 0
M  V30 6847 H 627.713 2.74584 -3.19659 0
M  V30 6848 H 626.437 2.61161 -1.96118 0
M  V30 6849 H 625.096 1.12424 -3.48936 0
M  V30 6850 H 624.744 3.6002 -3.51276 0
M  V30 6851 H 624.444 2.88743 -5.11763 0
M  V30 6852 H 625.968 3.76627 -4.80608 0
M  V30 6853 H 627.382 1.60467 -5.50385 0
M  V30 6854 H 625.779 0.936454 -5.92748 0
M  V30 6855 H 626.849 0.0227421 -4.84895 0
M  V30 6856 N 628.193 1.56834 0.155195 0
M  V30 6857 C 629.439 1.83169 0.870467 0
M  V30 6858 C 629.772 0.698929 1.81187 0
M  V30 6859 O 629.047 -0.298035 1.92203 0
M  V30 6860 C 629.33 3.19965 1.65211 0
M  V30 6861 C 629.183 4.43792 0.732744 0
M  V30 6862 C 630.502 3.53885 2.61636 0
M  V30 6863 H 627.621 0.666288 0.315006 0
M  V30 6864 H 630.263 1.89513 0.135988 0
M  V30 6865 H 628.413 3.14687 2.27825 0
M  V30 6866 H 630.085 4.61148 0.118236 0
M  V30 6867 H 628.328 4.3378 0.0417906 0
M  V30 6868 H 628.999 5.36095 1.31552 0
M  V30 6869 H 631.475 3.5972 2.09143 0
M  V30 6870 H 630.351 4.50648 3.13381 0
M  V30 6871 H 630.612 2.79418 3.42605 0
M  V30 6872 N 629.671 -0.424282 1.51781 0
M  V30 6873 C 631.082 -1.00368 1.57427 0
M  V30 6874 C 631.433 -1.91962 0.40558 0
M  V30 6875 O 630.558 -2.111 -0.47601 0
M  V30 6876 C 631.153 -1.82707 2.85313 0
M  V30 6877 C 629.712 -2.35675 2.93487 0
M  V30 6878 C 628.859 -1.1524 2.5222 0
M  V30 6879 H 631.81 -0.205064 1.5737 0
M  V30 6880 H 631.831 -2.68294 2.69812 0
M  V30 6881 H 631.343 -1.16017 3.70353 0
M  V30 6882 H 629.444 -3.05781 2.12906 0
M  V30 6883 H 629.557 -2.67578 3.97415 0
M  V30 6884 H 627.921 -1.50174 2.05718 0
M  V30 6885 H 628.704 -0.5014 3.39619 0
M  V30 6886 N 631.149 -1.42148 -0.680565 0
M  V30 6887 C 632.396 -1.4231 -1.44063 0
M  V30 6888 C 632.724 -0.037488 -1.94464 0
M  V30 6889 O 631.979 0.953184 -1.70918 0
M  V30 6890 C 632.278 -2.38945 -2.65782 0
M  V30 6891 C 631.944 -3.85455 -2.33956 0
M  V30 6892 C 630.606 -4.25364 -2.24987 0
M  V30 6893 C 632.958 -4.77895 -2.08004 0
M  V30 6894 C 630.286 -5.55701 -1.88184 0
M  V30 6895 C 632.638 -6.08568 -1.72706 0
M  V30 6896 C 631.302 -6.47482 -1.62244 0
M  V30 6897 H 630.572 -0.520748 -0.527164 0
M  V30 6898 H 633.219 -1.7505 -0.776524 0
M  V30 6899 H 631.524 -1.99511 -3.37198 0
M  V30 6900 H 633.221 -2.36336 -3.23954 0
M  V30 6901 H 629.811 -3.53855 -2.41836 0
M  V30 6902 H 633.995 -4.47854 -2.1387 0
M  V30 6903 H 629.251 -5.84718 -1.78648 0
M  V30 6904 H 633.425 -6.79688 -1.5165 0
M  V30 6905 H 631.052 -7.48387 -1.33496 0
M  V30 6906 N 632.627 0.916307 -1.28225 0
M  V30 6907 C 633.537 2.05165 -1.13775 0
M  V30 6908 C 634.553 1.73879 -0.0649418 0
M  V30 6909 O 635.729 1.99531 -0.273722 0
M  V30 6910 C 632.794 3.37385 -0.798267 0
M  V30 6911 C 631.855 3.82296 -1.95316 0
M  V30 6912 C 631.088 5.08206 -1.62978 0
M  V30 6913 O 631.311 5.6781 -0.542948 0
M  V30 6914 O 630.245 5.48768 -2.47261 0
M  V30 6915 H 634.071 2.20273 -2.09078 0
M  V30 6916 H 631.656 1.0373 -1.07519 0
M  V30 6917 H 633.538 4.16773 -0.62278 0
M  V30 6918 H 632.213 3.23458 0.125139 0
M  V30 6919 H 631.12 3.03746 -2.18378 0
M  V30 6920 H 632.453 4.00782 -2.85718 0
M  V30 6921 N 634.105 1.10431 1.1244 0
M  V30 6922 C 635.33 0.869089 1.88313 0
M  V30 6923 C 635.755 -0.574912 1.79099 0
M  V30 6924 O 635.113 -1.40496 1.14589 0
M  V30 6925 C 635.161 1.32208 3.3549 0
M  V30 6926 O 634.265 0.487092 4.09513 0
M  V30 6927 H 633.606 0.313894 0.585121 0
M  V30 6928 H 636.136 1.47111 1.42195 0
M  V30 6929 H 636.146 1.31201 3.86329 0
M  V30 6930 H 634.821 2.37364 3.41513 0
M  V30 6931 H 633.398 0.562372 3.68635 0
M  V30 6932 N 635.583 -1.29855 0.893053 0
M  V30 6933 C 636.53 -2.27909 0.364161 0
M  V30 6934 C 637.5 -1.56726 -0.550093 0
M  V30 6935 O 638.685 -1.84747 -0.47677 0
M  V30 6936 C 635.825 -3.42678 -0.408178 0
M  V30 6937 C 634.938 -4.28659 0.536212 0
M  V30 6938 C 634.073 -5.30599 -0.252521 0
M  V30 6939 C 633.112 -6.08234 0.686822 0
M  V30 6940 N 632.249 -7.02068 -0.0670902 0
M  V30 6941 H 637.089 -2.72531 1.20544 0
M  V30 6942 H 634.626 -1.34047 0.605779 0
M  V30 6943 H 636.584 -4.07986 -0.871962 0
M  V30 6944 H 635.214 -2.99103 -1.21397 0
M  V30 6945 H 634.266 -3.63584 1.1185 0
M  V30 6946 H 635.578 -4.8274 1.25552 0
M  V30 6947 H 634.732 -6.01694 -0.777801 0
M  V30 6948 H 633.471 -4.77233 -1.005 0
M  V30 6949 H 632.476 -5.3601 1.22366 0
M  V30 6950 H 633.701 -6.63689 1.43852 0
M  V30 6951 H 631.647 -6.5108 -0.801955 0
M  V30 6952 H 631.564 -7.53675 0.59243 0
M  V30 6953 H 632.832 -7.77392 -0.572851 0
M  V30 6954 N 637.061 -0.65484 -1.43351 0
M  V30 6955 C 638.338 -0.0987371 -1.95351 0
M  V30 6956 C 638.718 1.38161 -1.59608 0
M  V30 6957 O 638.066 2.10791 -0.882021 0
M  V30 6958 C 638.276 -0.346684 -3.47274 0
M  V30 6959 C 639.624 -0.25249 -4.23849 0
M  V30 6960 O 640.648 -0.279332 -3.55103 0
M  V30 6961 O 639.507 -0.177584 -5.46211 0
M  V30 6962 H 636.601 0.0086829 -0.826954 0
M  V30 6963 H 639.147 -0.728189 -1.53282 0
M  V30 6964 H 637.919 -1.37296 -3.66423 0
M  V30 6965 H 637.542 0.315757 -3.96344 0
M  V30 6966 N 638.539 1.52521 -0.396863 0
M  V30 6967 C 639.487 2.28217 0.44943 0
M  V30 6968 C 640.481 1.32416 1.05652 0
M  V30 6969 O 641.687 1.49925 0.996124 0
M  V30 6970 H 638.062 0.733966 0.1637 0
M  V30 6971 H 640.033 2.97658 -0.210367 0
M  V30 6972 C 638.782 3.10713 1.56054 0
M  V30 6973 H 638.105 3.84291 1.10273 0
M  V30 6974 H 639.545 3.66803 2.12677 0
M  V30 6975 C 638.004 2.23499 2.52091 0
M  V30 6976 O 638.534 1.8669 3.55682 0
M  V30 6977 N 636.74 1.8751 2.2201 0
M  V30 6978 H 636.287 2.17643 1.37802 0
M  V30 6979 H 636.245 1.29448 2.86514 0
M  V30 6980 N 640.017 0.126909 1.57088 0
M  V30 6981 C 640.967 -0.831678 2.1229 0
M  V30 6982 C 641.951 -1.22292 1.04564 0
M  V30 6983 O 643.143 -1.19269 1.30782 0
M  V30 6984 C 640.272 -2.07866 2.73215 0
M  V30 6985 C 639.358 -1.71143 3.88035 0
M  V30 6986 N 639.749 -1.05136 4.94753 0
M  V30 6987 C 638.047 -2.00549 3.98367 0
M  V30 6988 C 638.748 -0.877257 5.75047 0
M  V30 6989 N 637.724 -1.40477 5.25135 0
M  V30 6990 H 641.526 -0.317926 2.92175 0
M  V30 6991 H 639.04 -0.0753052 1.62225 0
M  V30 6992 H 641.037 -2.77516 3.11111 0
M  V30 6993 H 639.697 -2.59778 1.94796 0
M  V30 6994 H 640.708 -0.71442 5.12949 0
M  V30 6995 H 637.385 -2.54452 3.30999 0
M  V30 6996 H 638.775 -0.358536 6.70943 0
M  V30 6997 N 641.495 -1.56914 -0.146875 0
M  V30 6998 C 642.742 -1.83356 -0.859467 0
M  V30 6999 C 643.07 -0.707811 -1.81164 0
M  V30 7000 O 642.325 0.303155 -1.93338 0
M  V30 7001 C 642.624 -3.16128 -1.66727 0
M  V30 7002 C 642.29 -4.42586 -0.861881 0
M  V30 7003 C 640.952 -4.76929 -0.639687 0
M  V30 7004 C 643.304 -5.20344 -0.298643 0
M  V30 7005 C 640.632 -5.86491 0.156451 0
M  V30 7006 C 642.984 -6.30742 0.484536 0
M  V30 7007 C 641.648 -6.63635 0.717306 0
M  V30 7008 H 640.918 -0.670947 -0.314501 0
M  V30 7009 H 643.565 -1.91104 -0.123108 0
M  V30 7010 H 641.87 -3.03831 -2.47374 0
M  V30 7011 H 643.567 -3.33802 -2.2221 0
M  V30 7012 H 640.157 -4.15662 -1.04513 0
M  V30 7013 H 644.341 -4.94186 -0.457585 0
M  V30 7014 H 639.597 -6.10419 0.346292 0
M  V30 7015 H 643.771 -6.90188 0.928105 0
M  V30 7016 H 641.398 -7.48367 1.33607 0
M  V30 7017 N 642.974 0.416227 -1.52004 0
M  V30 7018 C 644.204 1.18401 -1.69307 0
M  V30 7019 C 644.612 1.84943 -0.399072 0
M  V30 7020 O 643.955 1.72406 0.634177 0
M  V30 7021 C 644.017 2.29465 -2.76742 0
M  V30 7022 C 643.681 1.83117 -4.18709 0
M  V30 7023 C 644.678 1.32286 -5.02789 0
M  V30 7024 C 642.363 1.90167 -4.64911 0
M  V30 7025 C 644.357 0.891178 -6.31139 0
M  V30 7026 C 642.044 1.4661 -5.93253 0
M  V30 7027 C 643.042 0.961696 -6.76196 0
M  V30 7028 O 642.73 0.532388 -8.02135 0
M  V30 7029 H 642.462 0.362098 -0.570843 0
M  V30 7030 H 645.016 0.496764 -1.99302 0
M  V30 7031 H 643.246 3.01531 -2.42107 0
M  V30 7032 H 644.935 2.91252 -2.82713 0
M  V30 7033 H 645.701 1.26218 -4.68288 0
M  V30 7034 H 641.58 2.28371 -4.00459 0
M  V30 7035 H 645.124 0.496788 -6.95829 0
M  V30 7036 H 641.021 1.52355 -6.27263 0
M  V30 7037 H 641.789 0.656339 -8.15864 0
M  V30 7038 N 644.452 1.42507 0.673017 0
M  V30 7039 C 645.701 1.42364 1.42883 0
M  V30 7040 C 646.014 0.0441598 1.9555 0
M  V30 7041 O 647.22 -0.0798679 2.71382 0
M  V30 7042 C 645.676 2.5043 2.58482 0
M  V30 7043 C 645.284 3.94392 2.12506 0
M  V30 7044 C 647.028 2.59455 3.35981 0
M  V30 7045 C 644.935 4.93964 3.25198 0
M  V30 7046 H 643.865 0.52951 0.536782 0
M  V30 7047 H 646.516 1.68422 0.728448 0
M  V30 7048 H 644.898 2.1754 3.30896 0
M  V30 7049 H 646.072 4.36645 1.47233 0
M  V30 7050 H 644.387 3.89233 1.4794 0
M  V30 7051 H 646.984 3.31025 4.19912 0
M  V30 7052 H 647.327 1.63869 3.82691 0
M  V30 7053 H 647.86 2.91549 2.70637 0
M  V30 7054 H 644.599 5.91034 2.83477 0
M  V30 7055 H 644.119 4.56341 3.89247 0
M  V30 7056 H 645.798 5.15763 3.90637 0
M  V30 7057 N 645.93 -0.909495 1.28709 0
M  V30 7058 C 647.155 -1.69801 1.1909 0
M  V30 7059 C 647.58 -1.86479 -0.246388 0
M  V30 7060 O 646.938 -1.37802 -1.17815 0
M  V30 7061 C 646.986 -3.06543 1.89904 0
M  V30 7062 O 646.09 -3.94268 1.2094 0
M  V30 7063 H 645.431 -0.519783 0.413185 0
M  V30 7064 H 647.961 -1.13689 1.70106 0
M  V30 7065 H 647.971 -3.56748 1.97977 0
M  V30 7066 H 646.646 -2.93722 2.94449 0
M  V30 7067 H 645.223 -3.52702 1.2106 0
M  V30 7068 N 647.408 -1.11026 -1.11852 0
M  V30 7069 C 648.633 -0.879064 -1.87849 0
M  V30 7070 C 649.058 0.565406 -1.79401 0
M  V30 7071 O 648.416 1.39886 -1.15333 0
M  V30 7072 C 648.464 -1.33985 -3.34784 0
M  V30 7073 O 647.568 -0.508803 -4.09249 0
M  V30 7074 H 646.909 -0.316992 -0.583448 0
M  V30 7075 H 649.439 -1.47863 -1.41413 0
M  V30 7076 H 649.449 -1.33248 -3.85628 0
M  V30 7077 H 648.124 -2.39172 -3.40249 0
M  V30 7078 H 646.701 -0.581913 -3.68332 0
M  V30 7079 N 648.886 1.2938 -0.899927 0
M  V30 7080 C 650.135 1.9483 -0.521937 0
M  V30 7081 C 650.448 1.71725 0.936473 0
M  V30 7082 O 651.654 2.31282 1.42199 0
M  V30 7083 C 650.11 3.48911 -0.88255 0
M  V30 7084 C 649.718 3.80815 -2.35974 0
M  V30 7085 C 651.462 4.20595 -0.57448 0
M  V30 7086 C 649.369 5.28142 -2.66121 0
M  V30 7087 H 648.299 0.729285 -0.191468 0
M  V30 7088 H 650.95 1.47103 -1.09695 0
M  V30 7089 H 649.332 3.95293 -0.236459 0
M  V30 7090 H 650.506 3.45291 -3.05141 0
M  V30 7091 H 648.821 3.22271 -2.63686 0
M  V30 7092 H 651.418 5.29031 -0.776556 0
M  V30 7093 H 651.761 4.13442 0.487005 0
M  V30 7094 H 652.294 3.79945 -1.17842 0
M  V30 7095 H 649.033 5.4036 -3.71068 0
M  V30 7096 H 648.553 5.64913 -2.01578 0
M  V30 7097 H 650.232 5.95738 -2.52399 0
M  V30 7098 N 650.364 0.662433 1.43002 0
M  V30 7099 C 651.611 0.179591 2.01702 0
M  V30 7100 C 651.939 -1.20964 1.52309 0
M  V30 7101 O 651.194 -1.82343 0.7106 0
M  V30 7102 C 651.493 0.149363 3.57088 0
M  V30 7103 C 651.159 1.48158 4.25864 0
M  V30 7104 C 649.821 1.84638 4.44367 0
M  V30 7105 C 652.173 2.35953 4.64732 0
M  V30 7106 C 649.501 3.08561 4.99006 0
M  V30 7107 C 651.853 3.59176 5.20745 0
M  V30 7108 C 650.517 3.95841 5.37463 0
M  V30 7109 H 649.787 0.0657172 0.73808 0
M  V30 7110 H 652.434 0.854968 1.71355 0
M  V30 7111 H 650.739 -0.609491 3.8703 0
M  V30 7112 H 652.436 -0.241241 4.00274 0
M  V30 7113 H 649.026 1.18777 4.11813 0
M  V30 7114 H 653.21 2.09058 4.50121 0
M  V30 7115 H 648.466 3.37005 5.10135 0
M  V30 7116 H 652.64 4.27417 5.49807 0
M  V30 7117 H 650.267 4.91942 5.79566 0
M  V30 7118 N 651.842 -1.52309 0.404946 0
M  V30 7119 C 653.067 -2.06666 -0.1743 0
M  V30 7120 C 653.492 -1.27341 -1.38441 0
M  V30 7121 O 652.85 -0.302539 -1.78758 0
M  V30 7122 C 652.898 -3.57014 -0.507262 0
M  V30 7123 O 652.002 -3.80144 -1.59889 0
M  V30 7124 H 651.343 -0.663807 -0.0160273 0
M  V30 7125 H 653.873 -1.96297 0.576937 0
M  V30 7126 H 653.883 -4.00724 -0.767098 0
M  V30 7127 H 652.558 -4.14184 0.377368 0
M  V30 7128 H 651.135 -3.48316 -1.33155 0
M  V30 7129 N 653.32 -0.135238 -1.57019 0
M  V30 7130 C 654.267 0.808908 -2.1616 0
M  V30 7131 C 655.237 1.25234 -1.09113 0
M  V30 7132 O 656.422 1.32697 -1.37099 0
M  V30 7133 C 653.562 2.04729 -2.77813 0
M  V30 7134 C 652.675 1.65074 -3.99218 0
M  V30 7135 C 651.81 2.84002 -4.48906 0
M  V30 7136 C 650.849 2.40663 -5.62803 0
M  V30 7137 N 649.986 3.5256 -6.07162 0
M  V30 7138 H 654.826 0.297751 -2.96509 0
M  V30 7139 H 652.363 0.135264 -1.46477 0
M  V30 7140 H 654.321 2.7731 -3.11697 0
M  V30 7141 H 652.951 2.53275 -2.00128 0
M  V30 7142 H 652.003 0.823029 -3.7139 0
M  V30 7143 H 653.315 1.29236 -4.81767 0
M  V30 7144 H 652.469 3.64788 -4.84783 0
M  V30 7145 H 651.208 3.23076 -3.65339 0
M  V30 7146 H 650.213 1.58314 -5.26514 0
M  V30 7147 H 651.438 2.02687 -6.48147 0
M  V30 7148 H 649.384 3.91278 -5.26534 0
M  V30 7149 H 649.301 3.20699 -6.84608 0
M  V30 7150 H 650.569 4.33738 -6.47682 0
M  V30 7151 N 654.798 1.5699 0.138552 0
M  V30 7152 C 656.028 1.87704 0.863184 0
M  V30 7153 C 656.436 0.722411 1.74865 0
M  V30 7154 O 655.779 -0.316636 1.80951 0
M  V30 7155 C 655.841 3.13219 1.76449 0
M  V30 7156 C 655.505 4.44648 1.05532 0
M  V30 7157 C 656.502 5.18318 0.405252 0
M  V30 7158 C 654.187 4.91367 1.04231 0
M  V30 7159 C 656.181 6.36916 -0.24835 0
M  V30 7160 C 653.868 6.09887 0.384904 0
M  V30 7161 C 654.866 6.82508 -0.259292 0
M  V30 7162 O 654.554 7.98775 -0.906258 0
M  V30 7163 H 654.286 0.626255 0.254521 0
M  V30 7164 H 656.84 2.04966 0.133472 0
M  V30 7165 H 655.07 2.91988 2.53535 0
M  V30 7166 H 656.759 3.30111 2.36181 0
M  V30 7167 H 657.525 4.83289 0.407053 0
M  V30 7168 H 653.404 4.34759 1.53315 0
M  V30 7169 H 656.948 6.93538 -0.751755 0
M  V30 7170 H 652.845 6.44376 0.380799 0
M  V30 7171 H 653.613 8.14494 -0.80877 0
M  V30 7172 N 656.276 -0.40816 1.52223 0
M  V30 7173 C 657.522 -1.15673 1.66576 0
M  V30 7174 C 657.855 -1.90141 0.394996 0
M  V30 7175 O 657.13 -1.84798 -0.606613 0
M  V30 7176 C 657.413 -2.15042 2.88841 0
M  V30 7177 C 657.266 -1.44465 4.25969 0
M  V30 7178 C 658.585 -3.15699 3.0663 0
M  V30 7179 H 655.704 -0.41916 0.606196 0
M  V30 7180 H 658.346 -0.442348 1.84779 0
M  V30 7181 H 656.496 -2.75964 2.73452 0
M  V30 7182 H 658.168 -0.866544 4.53088 0
M  V30 7183 H 656.411 -0.746612 4.27327 0
M  V30 7184 H 657.082 -2.16976 5.07568 0
M  V30 7185 H 659.558 -2.64854 3.20923 0
M  V30 7186 H 658.434 -3.82491 3.9369 0
M  V30 7187 H 658.695 -3.83481 2.19987 0
M  V30 7188 N 657.755 -1.42862 -0.66545 0
M  V30 7189 C 658.687 -1.43026 -1.79098 0
M  V30 7190 C 659.7 -0.32803 -1.59461 0
M  V30 7191 O 660.889 -0.591709 -1.68407 0
M  V30 7192 C 657.989 -1.21566 -3.16346 0
M  V30 7193 C 657.162 -2.44399 -3.62751 0
M  V30 7194 C 656.221 -2.18344 -4.78761 0
M  V30 7195 O 655.247 -2.91611 -4.88827 0
M  V30 7196 N 656.449 -1.1924 -5.68122 0
M  V30 7197 H 659.214 -2.40045 -1.79439 0
M  V30 7198 H 656.775 -1.37861 -0.848872 0
M  V30 7199 H 658.767 -1.02037 -3.91625 0
M  V30 7200 H 657.337 -0.330368 -3.10849 0
M  V30 7201 H 656.557 -2.79433 -2.78048 0
M  V30 7202 H 657.845 -3.26173 -3.90498 0
M  V30 7203 H 657.243 -0.586603 -5.6265 0
M  V30 7204 H 655.8 -1.05698 -6.43173 0
M  V30 7205 N 659.233 0.902656 -1.29189 0
M  V30 7206 C 660.183 1.99326 -1.10695 0
M  V30 7207 C 661.167 1.60877 -0.0272521 0
M  V30 7208 O 662.359 1.75245 -0.248635 0
M  V30 7209 C 659.488 3.34265 -0.78244 0
M  V30 7210 C 658.574 3.79081 -1.90153 0
M  V30 7211 N 658.965 3.96162 -3.14466 0
M  V30 7212 C 657.263 4.08333 -1.79389 0
M  V30 7213 C 657.964 4.3388 -3.87458 0
M  V30 7214 N 656.94 4.42759 -3.15381 0
M  V30 7215 H 660.742 2.10597 -2.05003 0
M  V30 7216 H 658.256 1.09127 -1.20271 0
M  V30 7217 H 660.253 4.12097 -0.630996 0
M  V30 7218 H 658.913 3.2434 0.152754 0
M  V30 7219 H 659.924 3.81775 -3.49954 0
M  V30 7220 H 656.601 4.06982 -0.931217 0
M  V30 7221 H 657.991 4.54965 -4.94425 0
M  V30 7222 N 660.711 1.11618 1.11262 0
M  V30 7223 C 662.122 0.881942 1.64556 0
M  V30 7224 C 662.473 -0.585442 1.87262 0
M  V30 7225 O 661.598 -1.44795 1.60821 0
M  V30 7226 C 662.193 1.59446 2.98935 0
M  V30 7227 C 660.752 1.40661 3.4913 0
M  V30 7228 C 659.899 1.63593 2.23903 0
M  V30 7229 H 662.85 1.27217 0.94877 0
M  V30 7230 H 662.871 1.04054 3.65996 0
M  V30 7231 H 662.383 2.66241 2.82378 0
M  V30 7232 H 660.484 0.360835 3.70849 0
M  V30 7233 H 660.597 2.15693 4.27801 0
M  V30 7234 H 658.961 1.05944 2.3162 0
M  V30 7235 H 659.744 2.71666 2.09886 0
M  V30 7236 N 662.189 -1.289 0.906776 0
M  V30 7237 C 663.099 -2.31256 0.394707 0
M  V30 7238 C 664.115 -1.66231 -0.514121 0
M  V30 7239 O 665.291 -1.97347 -0.401994 0
M  V30 7240 C 662.356 -3.44792 -0.363191 0
M  V30 7241 C 661.417 -4.25391 0.578012 0
M  V30 7242 C 660.65 -5.33506 -0.143811 0
M  V30 7243 O 660.873 -5.53786 -1.36665 0
M  V30 7244 O 659.807 -5.99673 0.5173 0
M  V30 7245 H 663.633 -2.77051 1.24405 0
M  V30 7246 H 661.218 -1.33466 0.671346 0
M  V30 7247 H 663.1 -4.139 -0.791503 0
M  V30 7248 H 661.775 -3.01093 -1.18848 0
M  V30 7249 H 660.682 -3.58899 1.05558 0
M  V30 7250 H 662.015 -4.72752 1.36992 0
M  V30 7251 N 663.667 -0.670007 -1.42649 0
M  V30 7252 C 664.615 0.0230106 -2.32589 0
M  V30 7253 C 665.609 0.795585 -1.49555 0
M  V30 7254 O 666.815 0.70409 -1.65658 0
M  V30 7255 H 663.19 0.0262342 -0.751542 0
M  V30 7256 H 665.161 -0.753009 -2.88743 0
M  V30 7257 C 663.91 0.963872 -3.34073 0
M  V30 7258 H 663.233 0.378813 -3.98001 0
M  V30 7259 H 664.673 1.41755 -3.99602 0
M  V30 7260 C 663.132 2.06797 -2.65964 0
M  V30 7261 O 663.662 3.15383 -2.48789 0
M  V30 7262 N 661.868 1.83831 -2.25066 0
M  V30 7263 H 661.415 0.955235 -2.39234 0
M  V30 7264 H 661.373 2.57895 -1.79827 0
M  V30 7265 N 665.145 1.52092 -0.413018 0
M  V30 7266 C 666.392 2.01855 0.161497 0
M  V30 7267 C 666.72 1.29845 1.44812 0
M  V30 7268 O 665.975 0.394471 1.91683 0
M  V30 7269 C 666.274 3.54529 0.4521 0
M  V30 7270 C 665.94 4.4469 -0.745788 0
M  V30 7271 C 664.602 4.69053 -1.07435 0
M  V30 7272 C 666.954 4.97742 -1.54604 0
M  V30 7273 C 664.282 5.43717 -2.20429 0
M  V30 7274 C 666.634 5.73642 -2.66678 0
M  V30 7275 C 665.298 5.96277 -3.00016 0
M  V30 7276 H 664.568 0.73864 0.0590961 0
M  V30 7277 H 667.215 1.83274 -0.555234 0
M  V30 7278 H 665.52 3.7131 1.25045 0
M  V30 7279 H 667.217 3.90546 0.909647 0
M  V30 7280 H 663.807 4.25907 -0.479725 0
M  V30 7281 H 667.991 4.78824 -1.30543 0
M  V30 7282 H 663.247 5.59462 -2.46602 0
M  V30 7283 H 667.421 6.13746 -3.29072 0
M  V30 7284 H 665.048 6.53913 -3.87688 0
M  V30 7285 N 666.623 0.143563 1.56945 0
M  V30 7286 C 667.571 -0.814556 2.17871 0
M  V30 7287 C 668.565 -1.25778 1.13474 0
M  V30 7288 O 669.771 -1.22666 1.31731 0
M  V30 7289 H 666.146 -0.280873 0.697578 0
M  V30 7290 H 668.117 -0.276459 2.97117 0
M  V30 7291 C 666.866 -2.04503 2.81201 0
M  V30 7292 H 666.189 -1.71296 3.61245 0
M  V30 7293 H 667.629 -2.69493 3.27337 0
M  V30 7294 C 666.088 -2.85079 1.79532 0
M  V30 7295 O 666.618 -3.81306 1.26368 0
M  V30 7296 N 664.824 -2.49546 1.48913 0
M  V30 7297 H 664.371 -1.71359 1.92338 0
M  V30 7298 H 664.329 -3.03751 0.811348 0
M  V30 7299 N 668.101 -1.57061 -0.130224 0
M  V30 7300 C 669.35 -1.83446 -0.838488 0
M  V30 7301 C 669.663 -0.727468 -1.81569 0
M  V30 7302 O 670.869 -0.877394 -2.56932 0
M  V30 7303 C 669.325 -3.25201 -1.54182 0
M  V30 7304 C 668.933 -4.4388 -0.606178 0
M  V30 7305 C 670.677 -3.60844 -2.23588 0
M  V30 7306 C 668.584 -5.76661 -1.31209 0
M  V30 7307 H 667.514 -0.684185 -0.316871 0
M  V30 7308 H 670.165 -1.83273 -0.0912059 0
M  V30 7309 H 668.547 -3.1981 -2.33533 0
M  V30 7310 H 669.721 -4.60545 0.153308 0
M  V30 7311 H 668.036 -4.16395 -0.0196705 0
M  V30 7312 H 670.633 -4.57313 -2.77072 0
M  V30 7313 H 670.976 -2.87724 -3.00867 0
M  V30 7314 H 671.509 -3.67971 -1.51137 0
M  V30 7315 H 668.248 -6.52922 -0.580823 0
M  V30 7316 H 667.768 -5.63902 -2.04387 0
M  V30 7317 H 669.447 -6.20035 -1.8484 0
M  V30 7318 N 669.579 0.400081 -1.52437 0
M  V30 7319 C 670.509 1.4947 -1.7939 0
M  V30 7320 C 671.49 1.57383 -0.645329 0
M  V30 7321 O 672.675 1.72511 -0.891826 0
M  V30 7322 C 669.805 2.87201 -1.95276 0
M  V30 7323 C 668.759 2.94134 -3.10917 0
M  V30 7324 C 668.085 4.34207 -3.1204 0
M  V30 7325 C 669.385 2.64791 -4.50203 0
M  V30 7326 H 671.079 1.27165 -2.71052 0
M  V30 7327 H 668.625 0.610312 -1.30427 0
M  V30 7328 H 670.578 3.63772 -2.12715 0
M  V30 7329 H 669.302 3.10819 -1.00294 0
M  V30 7330 H 667.961 2.20009 -2.93243 0
M  V30 7331 H 667.609 4.54848 -2.14761 0
M  V30 7332 H 667.309 4.39768 -3.89715 0
M  V30 7333 H 668.833 5.127 -3.31619 0
M  V30 7334 H 670.247 3.31083 -4.68035 0
M  V30 7335 H 668.644 2.81717 -5.29864 0
M  V30 7336 H 669.714 1.60184 -4.57678 0
M  V30 7337 N 671.057 1.43213 0.657864 0
M  V30 7338 C 672.285 1.48015 1.44566 0
M  V30 7339 C 672.7 0.0965951 1.88553 0
M  V30 7340 O 672.057 -0.892221 1.59203 0
M  V30 7341 C 672.108 2.42199 2.68369 0
M  V30 7342 O 671.829 3.75173 2.26223 0
M  V30 7343 C 673.33 2.56195 3.61772 0
M  V30 7344 H 670.55 0.502861 0.444266 0
M  V30 7345 H 673.094 1.87907 0.806917 0
M  V30 7346 H 671.249 2.05514 3.28394 0
M  V30 7347 H 671.663 4.25776 3.06293 0
M  V30 7348 H 673.137 3.26182 4.4532 0
M  V30 7349 H 673.614 1.60534 4.0881 0
M  V30 7350 H 674.22 2.93671 3.07632 0
M  V30 7351 N 672.536 -0.895792 1.29666 0
M  V30 7352 C 673.486 -1.98736 1.1175 0
M  V30 7353 C 674.47 -1.6086 0.0357834 0
M  V30 7354 O 675.662 -1.75111 0.257926 0
M  V30 7355 C 672.791 -3.33845 0.800156 0
M  V30 7356 C 671.877 -3.78068 1.9216 0
M  V30 7357 N 672.268 -3.94489 3.16563 0
M  V30 7358 C 670.566 -4.07376 1.81552 0
M  V30 7359 C 671.267 -4.31819 3.89753 0
M  V30 7360 N 670.243 -4.41081 3.17724 0
M  V30 7361 H 674.045 -2.09507 2.06117 0
M  V30 7362 H 671.559 -1.08488 1.20848 0
M  V30 7363 H 673.556 -4.11757 0.652841 0
M  V30 7364 H 672.216 -3.24417 -0.135551 0
M  V30 7365 H 673.227 -3.79914 3.51974 0
M  V30 7366 H 669.904 -4.06483 0.952787 0
M  V30 7367 H 671.294 -4.52337 4.96831 0
M  V30 7368 N 674.014 -1.12206 -1.10668 0
M  V30 7369 C 674.977 -0.790867 -2.15123 0
M  V30 7370 C 675.977 0.193618 -1.5963 0
M  V30 7371 O 677.167 -0.0318728 -1.74171 0
M  V30 7372 C 674.299 -0.174797 -3.40452 0
M  V30 7373 H 675.492 -1.7163 -2.45933 0
M  V30 7374 H 673.045 -0.924993 -1.2599 0
M  V30 7375 H 673.78 0.760478 -3.15257 0
M  V30 7376 H 673.565 -0.88358 -3.82015 0
M  V30 7377 H 675.055 0.0405162 -4.1758 0
M  V30 7378 N 675.492 1.28418 -0.913599 0
M  V30 7379 C 676.422 2.29713 -0.418847 0
M  V30 7380 C 677.403 1.62165 0.513469 0
M  V30 7381 O 678.588 1.89576 0.421235 0
M  V30 7382 C 675.718 3.45612 0.342042 0
M  V30 7383 C 674.672 4.25056 -0.501123 0
M  V30 7384 C 673.998 5.3329 0.388097 0
M  V30 7385 C 675.298 4.91814 -1.75831 0
M  V30 7386 H 676.992 2.71346 -1.26538 0
M  V30 7387 H 674.538 1.30446 -0.609903 0
M  V30 7388 H 676.491 4.15562 0.699 0
M  V30 7389 H 675.215 3.02858 1.22248 0
M  V30 7390 H 673.874 3.56833 -0.840598 0
M  V30 7391 H 673.522 4.8678 1.26707 0
M  V30 7392 H 673.222 5.87347 -0.172459 0
M  V30 7393 H 674.746 6.06088 0.74094 0
M  V30 7394 H 676.16 5.54126 -1.47026 0
M  V30 7395 H 674.557 5.55866 -2.26126 0
M  V30 7396 H 675.627 4.16313 -2.4862 0
M  V30 7397 N 676.97 0.677563 1.42291 0
M  V30 7398 C 677.88 0.000962654 2.346 0
M  V30 7399 C 678.896 -0.785833 1.55244 0
M  V30 7400 O 680.072 -0.727523 1.87801 0
M  V30 7401 C 677.137 -0.936746 3.33805 0
M  V30 7402 C 676.198 -0.144173 4.29058 0
M  V30 7403 C 675.431 -1.03722 5.23524 0
M  V30 7404 O 675.654 -2.27675 5.22992 0
M  V30 7405 O 674.588 -0.496542 5.99848 0
M  V30 7406 H 678.414 0.761397 2.94001 0
M  V30 7407 H 675.999 0.43781 1.42841 0
M  V30 7408 H 677.881 -1.47497 3.94744 0
M  V30 7409 H 676.556 -1.67698 2.76874 0
M  V30 7410 H 675.463 0.438224 3.71524 0
M  V30 7411 H 676.796 0.55701 4.89038 0
M  V30 7412 N 678.448 -1.51871 0.421078 0
M  V30 7413 C 679.696 -2.01539 -0.150492 0
M  V30 7414 C 680.017 -1.30803 -1.44623 0
M  V30 7415 O 679.287 -0.437568 -1.90951 0
M  V30 7416 H 677.867 -0.744698 -0.0586041 0
M  V30 7417 H 680.529 -1.8668 0.560059 0
M  V30 7418 H 679.625 -3.10264 -0.338068 0
M  V30 7419 N 679.926 -0.151884 -1.56866 0
M  V30 7420 C 681.156 0.504081 -2.00356 0
M  V30 7421 C 681.564 1.58639 -1.03103 0
M  V30 7422 O 680.907 1.83688 -0.0207931 0
M  V30 7423 C 680.969 1.15975 -3.40279 0
M  V30 7424 C 680.633 0.221453 -4.56463 0
M  V30 7425 C 681.63 -0.552766 -5.16953 0
M  V30 7426 C 679.315 0.122936 -5.0215 0
M  V30 7427 C 681.309 -1.4129 -6.21543 0
M  V30 7428 C 678.996 -0.740801 -6.06593 0
M  V30 7429 C 679.994 -1.50732 -6.6616 0
M  V30 7430 O 679.682 -2.35666 -7.68581 0
M  V30 7431 H 679.414 0.135279 -0.662326 0
M  V30 7432 H 681.968 -0.244916 -2.03935 0
M  V30 7433 H 680.198 1.95649 -3.33554 0
M  V30 7434 H 681.887 1.71594 -3.67846 0
M  V30 7435 H 682.653 -0.486716 -4.82552 0
M  V30 7436 H 678.532 0.70931 -4.5551 0
M  V30 7437 H 682.076 -2.01166 -6.67966 0
M  V30 7438 H 677.973 -0.808125 -6.40421 0
M  V30 7439 H 678.741 -2.28967 -7.85822 0
M  V30 7440 N 681.404 1.57128 0.121893 0
M  V30 7441 C 682.314 2.03425 1.16857 0
M  V30 7442 C 683.33 0.954108 1.45509 0
M  V30 7443 O 684.506 1.26541 1.56682 0
M  V30 7444 C 681.571 2.42685 2.47599 0
M  V30 7445 C 680.632 3.64767 2.2637 0
M  V30 7446 C 679.865 4.02145 3.50878 0
M  V30 7447 O 680.088 3.39897 4.58068 0
M  V30 7448 O 679.022 4.95262 3.42051 0
M  V30 7449 H 682.848 2.92825 0.80544 0
M  V30 7450 H 680.433 1.45654 0.332477 0
M  V30 7451 H 682.315 2.68684 3.24634 0
M  V30 7452 H 680.99 1.56432 2.83392 0
M  V30 7453 H 679.897 3.43922 1.47203 0
M  V30 7454 H 681.23 4.51716 1.95482 0
M  V30 7455 N 682.882 -0.391992 1.52647 0
M  V30 7456 C 684.107 -1.16312 1.71716 0
M  V30 7457 C 684.532 -1.83042 0.433279 0
M  V30 7458 O 683.89 -1.70705 -0.610707 0
M  V30 7459 C 683.938 -2.18908 2.86551 0
M  V30 7460 O 683.042 -3.2543 2.53316 0
M  V30 7461 H 682.383 -0.338743 0.571095 0
M  V30 7462 H 684.913 -0.457202 1.99426 0
M  V30 7463 H 684.923 -2.62954 3.1196 0
M  V30 7464 H 683.598 -1.69726 3.79692 0
M  V30 7465 H 682.175 -2.86543 2.38637 0
M  V30 7466 N 684.36 -1.4356 -0.65026 0
M  V30 7467 C 685.29 -1.51758 -1.77459 0
M  V30 7468 C 686.271 -0.372019 -1.65982 0
M  V30 7469 O 687.456 -0.589627 -1.85033 0
M  V30 7470 C 684.586 -1.44302 -3.15902 0
M  V30 7471 C 683.54 -2.57138 -3.42146 0
M  V30 7472 C 682.866 -2.34735 -4.8042 0
M  V30 7473 C 684.166 -3.99373 -3.36598 0
M  V30 7474 H 685.86 -2.45863 -1.70855 0
M  V30 7475 H 683.406 -1.18333 -0.820566 0
M  V30 7476 H 685.359 -1.48641 -3.94314 0
M  V30 7477 H 684.083 -0.467026 -3.23244 0
M  V30 7478 H 682.742 -2.52157 -2.66106 0
M  V30 7479 H 682.39 -1.35372 -4.84441 0
M  V30 7480 H 682.09 -3.10375 -4.9894 0
M  V30 7481 H 683.614 -2.40862 -5.61086 0
M  V30 7482 H 685.028 -4.05826 -4.04942 0
M  V30 7483 H 683.425 -4.75063 -3.66654 0
M  V30 7484 H 684.495 -4.243 -2.34729 0
M  V30 7485 N 685.838 0.888903 -1.30139 0
M  V30 7486 C 686.788 1.9814 -1.12803 0
M  V30 7487 C 687.772 1.60839 -0.0443137 0
M  V30 7488 O 688.964 1.74971 -0.267208 0
M  V30 7489 C 686.093 3.33416 -0.817849 0
M  V30 7490 C 685.179 3.77043 -1.94163 0
M  V30 7491 N 685.57 3.92805 -3.18651 0
M  V30 7492 C 683.868 4.06407 -1.8371 0
M  V30 7493 C 684.569 4.29746 -3.92038 0
M  V30 7494 N 683.545 4.3939 -3.20059 0
M  V30 7495 H 687.347 2.08411 -2.07225 0
M  V30 7496 H 684.861 1.07845 -1.21421 0
M  V30 7497 H 686.858 4.11405 -0.674668 0
M  V30 7498 H 685.518 3.24484 0.118344 0
M  V30 7499 H 686.529 3.78042 -3.53984 0
M  V30 7500 H 683.206 4.05972 -0.974331 0
M  V30 7501 H 684.596 4.49695 -4.99223 0
M  V30 7502 N 687.317 1.12792 1.10072 0
M  V30 7503 C 688.545 0.908506 1.85886 0
M  V30 7504 C 688.96 -0.542408 1.80841 0
M  V30 7505 O 688.317 -1.37517 1.1998 0
M  V30 7506 C 688.368 1.37973 3.34134 0
M  V30 7507 O 688.089 2.77378 3.39106 0
M  V30 7508 C 689.59 1.1978 4.26811 0
M  V30 7509 H 686.81 0.3244 0.587372 0
M  V30 7510 H 689.354 1.49882 1.39125 0
M  V30 7511 H 687.509 0.832566 3.78348 0
M  V30 7512 H 687.923 2.98144 4.31521 0
M  V30 7513 H 689.397 1.57635 5.29014 0
M  V30 7514 H 689.874 0.138768 4.38981 0
M  V30 7515 H 690.48 1.73266 3.88406 0
M  V30 7516 N 688.795 -1.27931 0.920396 0
M  V30 7517 C 690.044 -1.93975 0.552867 0
M  V30 7518 C 690.357 -1.73193 -0.909035 0
M  V30 7519 O 691.563 -2.33515 -1.38502 0
M  V30 7520 C 690.019 -3.47463 0.937947 0
M  V30 7521 C 689.627 -3.77013 2.42003 0
M  V30 7522 C 691.371 -4.19628 0.64132 0
M  V30 7523 C 689.278 -5.23841 2.74489 0
M  V30 7524 H 688.208 -0.726146 0.203046 0
M  V30 7525 H 690.859 -1.45339 1.12022 0
M  V30 7526 H 689.241 -3.94867 0.299317 0
M  V30 7527 H 690.415 -3.40393 3.10595 0
M  V30 7528 H 688.73 -3.18035 2.6878 0
M  V30 7529 H 691.327 -5.27729 0.860622 0
M  V30 7530 H 691.67 -4.14164 -0.421168 0
M  V30 7531 H 692.203 -3.78022 1.23872 0
M  V30 7532 H 688.942 -5.34388 3.79618 0
M  V30 7533 H 688.462 -5.61634 2.1054 0
M  V30 7534 H 690.141 -5.91647 2.61845 0
M  V30 7535 N 690.273 -0.685099 -1.4193 0
M  V30 7536 C 691.221 -0.00165985 -2.326 0
M  V30 7537 C 692.215 0.779678 -1.50391 0
M  V30 7538 O 693.421 0.68648 -1.66395 0
M  V30 7539 H 689.796 0.0182616 -0.751778 0
M  V30 7540 H 691.767 -0.783592 -2.87928 0
M  V30 7541 C 690.516 0.928385 -3.35077 0
M  V30 7542 H 689.839 0.336578 -3.98381 0
M  V30 7543 H 691.279 1.37509 -4.01083 0
M  V30 7544 C 689.738 2.03964 -2.68142 0
M  V30 7545 O 690.268 3.12727 -2.5212 0
M  V30 7546 N 688.474 1.81433 -2.27003 0
M  V30 7547 H 688.021 0.929807 -2.40234 0
M  V30 7548 H 687.979 2.55973 -1.82552 0
M  V30 7549 N 691.751 1.51645 -0.429126 0
M  V30 7550 C 692.661 2.31288 0.392809 0
M  V30 7551 C 693.677 1.39852 1.03525 0
M  V30 7552 O 694.853 1.72926 1.03241 0
M  V30 7553 C 691.918 3.13347 1.48372 0
M  V30 7554 C 690.979 4.20551 0.862268 0
M  V30 7555 C 690.212 4.98688 1.9012 0
M  V30 7556 O 690.435 4.77359 3.12225 0
M  V30 7557 O 689.369 5.83005 1.4963 0
M  V30 7558 H 693.195 3.02609 -0.257138 0
M  V30 7559 H 690.78 1.48163 -0.191851 0
M  V30 7560 H 692.662 3.64387 2.1166 0
M  V30 7561 H 691.337 2.44799 2.1179 0
M  V30 7562 H 690.244 3.73609 0.191568 0
M  V30 7563 H 691.577 4.91449 0.271704 0
M  V30 7564 N 693.229 0.160201 1.56784 0
M  V30 7565 C 694.454 -0.497373 2.01348 0
M  V30 7566 C 694.879 -1.56757 1.03966 0
M  V30 7567 O 694.237 -1.81292 0.0174455 0
M  V30 7568 C 694.285 -1.0628 3.44582 0
M  V30 7569 O 693.389 -2.17723 3.50244 0
M  V30 7570 H 692.73 -0.120295 0.653012 0
M  V30 7571 H 695.26 0.260821 2.02931 0
M  V30 7572 H 695.27 -1.38819 3.83658 0
M  V30 7573 H 693.945 -0.279166 4.14962 0
M  V30 7574 H 692.522 -1.86313 3.2302 0
M  V30 7575 N 694.707 -1.5719 -0.113559 0
M  V30 7576 C 696.118 -1.74259 -0.670116 0
M  V30 7577 C 696.469 -0.779694 -1.80042 0
M  V30 7578 O 695.594 0.0461353 -2.16351 0
M  V30 7579 C 696.189 -3.15981 -1.22236 0
M  V30 7580 C 694.748 -3.34537 -1.72516 0
M  V30 7581 C 693.895 -2.70116 -0.627098 0
M  V30 7582 H 696.846 -1.58301 0.112396 0
M  V30 7583 H 696.867 -3.17832 -2.09197 0
M  V30 7584 H 696.379 -3.86038 -0.39949 0
M  V30 7585 H 694.48 -2.6953 -2.57263 0
M  V30 7586 H 694.593 -4.42737 -1.83086 0
M  V30 7587 H 692.957 -2.31501 -1.06204 0
M  V30 7588 H 693.74 -3.42802 0.184889 0
M  V30 7589 N 696.185 0.383891 -1.52853 0
M  V30 7590 C 697.095 1.49343 -1.80925 0
M  V30 7591 C 698.111 1.59458 -0.696348 0
M  V30 7592 O 699.287 1.75698 -0.984481 0
M  V30 7593 C 696.352 2.84819 -1.97684 0
M  V30 7594 C 695.413 2.84382 -3.21598 0
M  V30 7595 C 694.646 4.13397 -3.37548 0
M  V30 7596 O 694.869 5.08619 -2.58192 0
M  V30 7597 O 693.803 4.20325 -4.30826 0
M  V30 7598 H 697.629 1.2855 -2.75152 0
M  V30 7599 H 695.214 0.572229 -1.38007 0
M  V30 7600 H 697.096 3.65125 -2.10385 0
M  V30 7601 H 695.771 3.05627 -1.06647 0
M  V30 7602 H 694.678 2.0284 -3.14336 0
M  V30 7603 H 696.011 2.68526 -4.12498 0
M  V30 7604 N 697.663 1.43903 0.642637 0
M  V30 7605 C 698.91 1.46079 1.40239 0
M  V30 7606 C 699.238 0.0890335 1.94296 0
M  V30 7607 O 698.493 -0.907533 1.73385 0
M  V30 7608 C 698.792 2.45907 2.59354 0
M  V30 7609 C 698.458 3.91522 2.23654 0
M  V30 7610 C 697.12 4.31179 2.1363 0
M  V30 7611 C 699.472 4.83242 1.95261 0
M  V30 7612 C 696.8 5.60495 1.73384 0
M  V30 7613 C 699.152 6.12933 1.56511 0
M  V30 7614 C 697.816 6.51556 1.4502 0
M  V30 7615 H 697.086 0.534542 0.513172 0
M  V30 7616 H 699.733 1.77047 0.72984 0
M  V30 7617 H 698.038 2.08381 3.3179 0
M  V30 7618 H 699.735 2.44842 3.17574 0
M  V30 7619 H 696.325 3.60142 2.32369 0
M  V30 7620 H 700.509 4.53367 2.0192 0
M  V30 7621 H 695.765 5.89249 1.63082 0
M  V30 7622 H 699.939 6.83469 1.33576 0
M  V30 7623 H 697.566 7.51663 1.13606 0
M  V30 7624 N 699.141 -0.881989 1.30609 0
M  V30 7625 C 700.088 -1.98803 1.17244 0
M  V30 7626 C 701.058 -1.65987 0.0611905 0
M  V30 7627 O 702.243 -1.89385 0.231911 0
M  V30 7628 C 699.383 -3.33867 0.87333 0
M  V30 7629 C 698.496 -3.79354 2.06675 0
M  V30 7630 C 697.631 -5.03078 1.70547 0
M  V30 7631 C 696.67 -5.40981 2.86366 0
M  V30 7632 N 695.807 -6.55886 2.50514 0
M  V30 7633 H 700.647 -2.09566 2.11863 0
M  V30 7634 H 698.184 -1.02607 1.05405 0
M  V30 7635 H 700.142 -4.11612 0.680519 0
M  V30 7636 H 698.772 -3.2278 -0.0359983 0
M  V30 7637 H 697.824 -2.97492 2.37071 0
M  V30 7638 H 699.136 -4.03382 2.93401 0
M  V30 7639 H 698.29 -5.88457 1.47658 0
M  V30 7640 H 697.029 -4.80927 0.809947 0
M  V30 7641 H 696.034 -4.54127 3.09917 0
M  V30 7642 H 697.259 -5.65104 3.76609 0
M  V30 7643 H 695.205 -6.35306 1.63471 0
M  V30 7644 H 695.122 -6.79799 3.30771 0
M  V30 7645 H 696.39 -7.44489 2.30989 0
M  V30 7646 N 700.619 -1.13374 -1.09472 0
M  V30 7647 C 701.567 -0.806105 -2.18185 0
M  V30 7648 C 702.561 0.21136 -1.68076 0
M  V30 7649 O 703.767 0.0685558 -1.79869 0
M  V30 7650 H 700.142 -0.242901 -0.71169 0
M  V30 7651 H 702.113 -1.73115 -2.43051 0
M  V30 7652 C 700.862 -0.287928 -3.46506 0
M  V30 7653 H 700.185 -1.06217 -3.85432 0
M  V30 7654 H 701.625 -0.0971054 -4.23889 0
M  V30 7655 C 700.084 0.986256 -3.22141 0
M  V30 7656 O 700.614 2.06217 -3.44728 0
M  V30 7657 N 698.82 0.917153 -2.75747 0
M  V30 7658 H 698.367 0.0414609 -2.57567 0
M  V30 7659 H 698.325 1.77029 -2.59823 0
M  V30 7660 N 702.098 1.27442 -0.927168 0
M  V30 7661 C 703.345 1.94391 -0.567324 0
M  V30 7662 C 703.673 1.72875 0.891321 0
M  V30 7663 O 702.928 1.05071 1.65102 0
M  V30 7664 C 703.227 3.47413 -0.838994 0
M  V30 7665 C 702.893 3.89049 -2.2793 0
M  V30 7666 C 701.555 4.00127 -2.67305 0
M  V30 7667 C 703.907 4.10154 -3.21595 0
M  V30 7668 C 701.235 4.29697 -3.99471 0
M  V30 7669 C 703.587 4.41208 -4.53341 0
M  V30 7670 C 702.251 4.50499 -4.92551 0
M  V30 7671 H 701.521 0.711325 -0.207598 0
M  V30 7672 H 704.168 1.51523 -1.17103 0
M  V30 7673 H 702.473 3.91503 -0.152609 0
M  V30 7674 H 704.17 3.97354 -0.53955 0
M  V30 7675 H 700.76 3.80962 -1.96381 0
M  V30 7676 H 704.944 4.01036 -2.92377 0
M  V30 7677 H 700.2 4.35099 -4.29533 0
M  V30 7678 H 704.374 4.56486 -5.25922 0
M  V30 7679 H 702.001 4.73167 -5.94994 0
M  V30 7680 N 703.576 0.692616 1.41565 0
M  V30 7681 C 704.823 0.222335 2.01276 0
M  V30 7682 C 705.151 -1.17706 1.5484 0
M  V30 7683 O 704.406 -1.80795 0.749118 0
M  V30 7684 C 704.705 0.225073 3.56691 0
M  V30 7685 C 704.371 1.57158 4.22625 0
M  V30 7686 C 703.033 1.94022 4.40351 0
M  V30 7687 C 705.385 2.45758 4.59622 0
M  V30 7688 C 702.713 3.19076 4.92349 0
M  V30 7689 C 705.065 3.70141 5.13009 0
M  V30 7690 C 703.729 4.07152 5.28946 0
M  V30 7691 H 702.999 0.0813581 0.73652 0
M  V30 7692 H 705.646 0.891123 1.69503 0
M  V30 7693 H 703.951 -0.527259 3.88236 0
M  V30 7694 H 705.648 -0.156283 4.00695 0
M  V30 7695 H 702.238 1.27486 4.09201 0
M  V30 7696 H 706.422 2.18558 4.45585 0
M  V30 7697 H 701.678 3.4775 5.02872 0
M  V30 7698 H 705.852 4.38983 5.40617 0
M  V30 7699 H 703.479 5.04125 5.69001 0
M  V30 7700 N 705.054 -1.51416 0.437162 0
M  V30 7701 C 706.001 -2.27743 -0.374374 0
M  V30 7702 C 706.971 -1.31327 -1.01698 0
M  V30 7703 O 708.156 -1.60229 -1.03592 0
M  V30 7704 C 705.296 -3.12241 -1.46969 0
M  V30 7705 C 704.409 -4.23651 -0.845236 0
M  V30 7706 C 703.544 -4.95458 -1.91559 0
M  V30 7707 C 702.583 -5.98789 -1.26956 0
M  V30 7708 N 701.72 -6.64005 -2.28126 0
M  V30 7709 H 706.56 -2.96654 0.282892 0
M  V30 7710 H 704.097 -1.46319 0.151352 0
M  V30 7711 H 706.055 -3.59556 -2.11602 0
M  V30 7712 H 704.685 -2.45445 -2.09659 0
M  V30 7713 H 703.737 -3.803 -0.0872059 0
M  V30 7714 H 705.049 -4.97683 -0.333582 0
M  V30 7715 H 704.203 -5.46321 -2.63854 0
M  V30 7716 H 702.942 -4.21055 -2.46097 0
M  V30 7717 H 701.947 -5.47219 -0.53207 0
M  V30 7718 H 703.172 -6.75149 -0.731509 0
M  V30 7719 H 701.118 -5.92415 -2.81745 0
M  V30 7720 H 701.035 -7.33802 -1.81852 0
M  V30 7721 H 702.303 -7.19498 -2.99905 0
M  V30 7722 N 706.532 -0.168513 -1.56696 0
M  V30 7723 C 707.772 0.479648 -1.98693 0
M  V30 7724 C 708.136 1.60609 -1.05209 0
M  V30 7725 O 709.337 2.3166 -1.36334 0
M  V30 7726 C 707.608 0.952852 -3.44464 0
M  V30 7727 S 709.167 1.60259 -4.08488 0
M  V30 7728 H 705.985 0.154377 -0.694038 0
M  V30 7729 H 708.587 -0.265312 -1.93691 0
M  V30 7730 H 707.291 0.12257 -4.10217 0
M  V30 7731 H 706.822 1.73192 -3.53225 0
M  V30 7732 H 708.837 2.89065 -4.03307 0
M  V30 7733 N 708.01 1.57248 0.105221 0
M  V30 7734 C 708.92 2.04653 1.14693 0
M  V30 7735 C 709.936 0.969488 1.44489 0
M  V30 7736 O 711.112 1.28196 1.55331 0
M  V30 7737 C 708.177 2.45297 2.45011 0
M  V30 7738 C 707.238 3.67148 2.22489 0
M  V30 7739 C 706.471 4.05844 3.46592 0
M  V30 7740 O 706.694 3.44736 4.54437 0
M  V30 7741 O 705.628 4.98862 3.36779 0
M  V30 7742 H 709.454 2.93663 0.774336 0
M  V30 7743 H 707.039 1.45998 0.31701 0
M  V30 7744 H 708.921 2.72112 3.21766 0
M  V30 7745 H 707.596 1.59429 2.81717 0
M  V30 7746 H 706.503 3.45463 1.43547 0
M  V30 7747 H 707.836 4.53764 1.9068 0
M  V30 7748 N 709.488 -0.375779 1.53054 0
M  V30 7749 C 710.398 -1.48381 1.81715 0
M  V30 7750 C 711.414 -1.59087 0.704795 0
M  V30 7751 O 712.59 -1.75174 0.993785 0
M  V30 7752 C 709.655 -2.83767 1.99192 0
M  V30 7753 C 708.716 -2.82673 3.23102 0
M  V30 7754 C 707.949 -4.11601 3.39736 0
M  V30 7755 O 708.172 -5.07243 2.60885 0
M  V30 7756 O 707.106 -4.18034 4.33049 0
M  V30 7757 H 710.932 -1.27089 2.7583 0
M  V30 7758 H 708.517 -0.564902 1.38308 0
M  V30 7759 H 710.399 -3.64004 2.12318 0
M  V30 7760 H 709.074 -3.05057 1.08267 0
M  V30 7761 H 707.981 -2.0117 3.15407 0
M  V30 7762 H 709.314 -2.66335 4.13916 0
M  V30 7763 N 710.966 -1.44241 -0.634997 0
M  V30 7764 C 712.377 -1.41622 -1.21655 0
M  V30 7765 C 712.728 -0.129584 -1.95772 0
M  V30 7766 O 711.853 0.770225 -2.02229 0
M  V30 7767 C 712.448 -2.56557 -2.21278 0
M  V30 7768 C 711.007 -2.57145 -2.7487 0
M  V30 7769 C 710.154 -2.33354 -1.49804 0
M  V30 7770 H 713.105 -1.52878 -0.425905 0
M  V30 7771 H 713.126 -2.29089 -3.03807 0
M  V30 7772 H 712.638 -3.50186 -1.67306 0
M  V30 7773 H 710.739 -1.67447 -3.32855 0
M  V30 7774 H 710.852 -3.55507 -3.21172 0
M  V30 7775 H 709.216 -1.82372 -1.77799 0
M  V30 7776 H 709.999 -3.29092 -0.977402 0
M  V30 7777 N 712.444 0.87505 -1.31075 0
M  V30 7778 C 713.376 1.98773 -1.14114 0
M  V30 7779 C 714.389 1.62595 -0.0816119 0
M  V30 7780 O 715.578 1.75449 -0.32861 0
M  V30 7781 C 712.678 3.31159 -0.720224 0
M  V30 7782 C 711.851 3.9571 -1.86366 0
M  V30 7783 C 710.91 5.06407 -1.42965 0
M  V30 7784 O 709.936 5.27501 -2.13848 0
M  V30 7785 N 711.138 5.79649 -0.314194 0
M  V30 7786 H 713.903 2.1387 -2.09951 0
M  V30 7787 H 711.464 1.04873 -1.23342 0
M  V30 7788 H 713.456 4.0259 -0.412687 0
M  V30 7789 H 712.026 3.12257 0.146396 0
M  V30 7790 H 711.246 3.17324 -2.33879 0
M  V30 7791 H 712.534 4.35576 -2.62966 0
M  V30 7792 H 711.932 5.65025 0.276228 0
M  V30 7793 H 710.489 6.51766 -0.0661641 0
M  V30 7794 N 713.922 1.13953 1.08869 0
M  V30 7795 C 715.17 0.903023 1.80803 0
M  V30 7796 C 715.491 -0.572151 1.86417 0
M  V30 7797 O 714.761 -1.41589 1.35386 0
M  V30 7798 H 713.341 0.331099 0.669614 0
M  V30 7799 H 716.003 1.43719 1.31647 0
M  V30 7800 H 715.099 1.29881 2.83791 0
M  V30 7801 N 715.4 -1.26948 0.933913 0
M  V30 7802 C 716.649 -1.93378 0.573409 0
M  V30 7803 C 716.962 -1.74148 -0.890614 0
M  V30 7804 O 718.168 -2.34971 -1.36017 0
M  V30 7805 C 716.624 -3.46449 0.974747 0
M  V30 7806 C 716.232 -3.74425 2.45988 0
M  V30 7807 C 717.976 -4.18924 0.685791 0
M  V30 7808 C 715.883 -5.209 2.8003 0
M  V30 7809 H 714.813 -0.723952 0.210736 0
M  V30 7810 H 717.464 -1.44143 1.13557 0
M  V30 7811 H 715.846 -3.94528 0.341181 0
M  V30 7812 H 717.02 -3.37079 3.14188 0
M  V30 7813 H 715.335 -3.15167 2.72138 0
M  V30 7814 H 717.932 -5.26786 0.916546 0
M  V30 7815 H 718.275 -4.14587 -0.377217 0
M  V30 7816 H 718.808 -3.76687 1.27874 0
M  V30 7817 H 715.547 -5.30332 3.85264 0
M  V30 7818 H 715.067 -5.59369 2.16485 0
M  V30 7819 H 716.746 -5.88837 2.68105 0
M  V30 7820 N 716.879 -0.700114 -1.41195 0
M  V30 7821 C 718.104 -0.240704 -2.05998 0
M  V30 7822 C 718.529 1.10313 -1.52357 0
M  V30 7823 O 717.887 1.69154 -0.652424 0
M  V30 7824 C 717.935 -0.213783 -3.59966 0
M  V30 7825 O 717.039 0.809933 -4.04368 0
M  V30 7826 H 716.38 -0.116471 -0.653705 0
M  V30 7827 H 718.91 -0.956251 -1.80878 0
M  V30 7828 H 718.92 -0.0461852 -4.07974 0
M  V30 7829 H 717.595 -1.19454 -3.98376 0
M  V30 7830 H 716.172 0.611319 -3.67855 0
M  V30 7831 N 718.357 1.51182 -0.445186 0
M  V30 7832 C 719.604 2.02152 0.118645 0
M  V30 7833 C 719.932 1.32888 1.42025 0
M  V30 7834 O 719.187 0.435041 1.90803 0
M  V30 7835 C 719.486 3.55408 0.376797 0
M  V30 7836 C 719.152 4.43008 -0.839945 0
M  V30 7837 C 717.814 4.66669 -1.17361 0
M  V30 7838 C 720.166 4.9435 -1.65127 0
M  V30 7839 C 717.494 5.38919 -2.31913 0
M  V30 7840 C 719.846 5.67857 -2.78786 0
M  V30 7841 C 718.51 5.89779 -3.12597 0
M  V30 7842 H 717.78 0.739727 0.0434152 0
M  V30 7843 H 720.427 1.82055 -0.593984 0
M  V30 7844 H 718.732 3.73879 1.1714 0
M  V30 7845 H 720.429 3.92388 0.826602 0
M  V30 7846 H 717.019 4.24793 -0.569958 0
M  V30 7847 H 721.203 4.75947 -1.4067 0
M  V30 7848 H 716.459 5.54105 -2.58413 0
M  V30 7849 H 720.633 6.06628 -3.42017 0
M  V30 7850 H 718.26 6.45542 -4.01471 0
M  V30 7851 N 719.835 0.176821 1.56605 0
M  V30 7852 C 721.06 -0.47599 2.01864 0
M  V30 7853 C 721.485 -1.55645 1.05623 0
M  V30 7854 O 720.843 -1.81263 0.0366729 0
M  V30 7855 C 720.891 -1.02619 3.4569 0
M  V30 7856 O 719.995 -2.13996 3.52533 0
M  V30 7857 H 719.336 -0.113363 0.654251 0
M  V30 7858 H 721.866 0.28233 2.02643 0
M  V30 7859 H 721.876 -1.34742 3.85109 0
M  V30 7860 H 720.551 -0.235138 4.15235 0
M  V30 7861 H 719.128 -1.82876 3.24978 0
M  V30 7862 N 721.313 -1.57302 -0.09688 0
M  V30 7863 C 722.243 -2.0497 -1.11846 0
M  V30 7864 C 723.224 -0.938278 -1.41882 0
M  V30 7865 O 724.409 -1.20943 -1.51942 0
M  V30 7866 C 721.539 -2.47264 -2.43881 0
M  V30 7867 C 720.493 -3.62053 -2.28257 0
M  V30 7868 C 719.819 -3.90318 -3.65453 0
M  V30 7869 C 721.119 -4.93005 -1.72461 0
M  V30 7870 H 722.813 -2.90567 -0.721888 0
M  V30 7871 H 720.359 -1.39786 -0.345803 0
M  V30 7872 H 722.312 -2.7922 -3.15617 0
M  V30 7873 H 721.036 -1.58664 -2.8547 0
M  V30 7874 H 719.695 -3.30341 -1.58967 0
M  V30 7875 H 719.343 -2.98889 -4.04567 0
M  V30 7876 H 719.043 -4.67597 -3.55846 0
M  V30 7877 H 720.567 -4.24747 -4.3866 0
M  V30 7878 H 721.981 -5.23354 -2.34036 0
M  V30 7879 H 720.378 -5.74436 -1.73618 0
M  V30 7880 H 721.448 -4.80053 -0.683898 0
M  V30 7881 N 722.791 0.367657 -1.53252 0
M  V30 7882 C 724.037 1.11216 -1.69584 0
M  V30 7883 C 724.37 1.89026 -0.445269 0
M  V30 7884 O 723.645 1.86342 0.557404 0
M  V30 7885 C 723.928 2.07308 -2.94441 0
M  V30 7886 C 723.781 1.3312 -4.2965 0
M  V30 7887 C 725.1 3.07459 -3.14892 0
M  V30 7888 H 722.219 0.40294 -0.617096 0
M  V30 7889 H 724.861 0.393201 -1.85887 0
M  V30 7890 H 723.011 2.68617 -2.80673 0
M  V30 7891 H 724.683 0.746111 -4.55226 0
M  V30 7892 H 722.926 0.633051 -4.29156 0
M  V30 7893 H 723.597 2.03443 -5.13142 0
M  V30 7894 H 726.073 2.56252 -3.27832 0
M  V30 7895 H 724.949 3.71919 -4.03693 0
M  V30 7896 H 725.21 3.77514 -2.30077 0
M  V30 7897 N 724.269 1.44576 0.627338 0
M  V30 7898 C 725.179 1.54232 1.76776 0
M  V30 7899 C 726.195 0.427782 1.6866 0
M  V30 7900 O 727.371 0.685671 1.89369 0
M  V30 7901 C 724.436 1.48738 3.13174 0
M  V30 7902 C 723.497 2.71074 3.32893 0
M  V30 7903 C 722.73 2.65832 4.62784 0
M  V30 7904 O 722.953 1.72048 5.43834 0
M  V30 7905 O 721.887 3.56742 4.84787 0
M  V30 7906 H 725.713 2.50586 1.71582 0
M  V30 7907 H 723.298 1.26865 0.789028 0
M  V30 7908 H 725.18 1.48211 3.94476 0
M  V30 7909 H 723.855 0.555292 3.18902 0
M  V30 7910 H 722.762 2.77168 2.51254 0
M  V30 7911 H 724.095 3.63342 3.32029 0
M  V30 7912 N 725.747 -0.868086 1.31537 0
M  V30 7913 C 726.972 -1.65926 1.24432 0
M  V30 7914 C 727.397 -1.87169 -0.186936 0
M  V30 7915 O 726.755 -1.4148 -1.13371 0
M  V30 7916 C 726.803 -3.00347 1.9956 0
M  V30 7917 O 725.907 -3.90221 1.33422 0
M  V30 7918 H 725.248 -0.506375 0.429512 0
M  V30 7919 H 727.778 -1.0822 1.73637 0
M  V30 7920 H 727.788 -3.50269 2.09226 0
M  V30 7921 H 726.463 -2.84205 3.03645 0
M  V30 7922 H 725.04 -3.48672 1.32219 0
M  V30 7923 N 727.225 -1.14528 -1.08264 0
M  V30 7924 C 728.155 -0.856356 -2.1723 0
M  V30 7925 C 729.136 0.189251 -1.69044 0
M  V30 7926 O 730.321 0.0456119 -1.94146 0
M  V30 7927 C 727.451 -0.334662 -3.45684 0
M  V30 7928 C 726.405 -1.31588 -4.0727 0
M  V30 7929 C 725.731 -0.653428 -5.30692 0
M  V30 7930 C 727.031 -2.67866 -4.48381 0
M  V30 7931 H 728.725 -1.76755 -2.41657 0
M  V30 7932 H 726.271 -0.851287 -1.16143 0
M  V30 7933 H 728.224 -0.120128 -4.21229 0
M  V30 7934 H 726.948 0.611967 -3.20815 0
M  V30 7935 H 725.607 -1.51661 -3.33758 0
M  V30 7936 H 725.255 0.299054 -5.0211 0
M  V30 7937 H 724.955 -1.30817 -5.72853 0
M  V30 7938 H 726.479 -0.448453 -6.08951 0
M  V30 7939 H 727.893 -2.51692 -5.15096 0
M  V30 7940 H 726.29 -3.29627 -5.01464 0
M  V30 7941 H 727.36 -3.24632 -3.60198 0
M  V30 7942 N 728.703 1.26451 -0.940633 0
M  V30 7943 C 729.98 1.88947 -0.505811 0
M  V30 7944 C 730.36 1.85011 1.01657 0
M  V30 7945 O 729.708 1.30406 1.87634 0
M  V30 7946 C 729.918 3.32304 -1.06654 0
M  V30 7947 C 731.266 4.09153 -1.13486 0
M  V30 7948 O 732.29 3.41371 -1.01708 0
M  V30 7949 O 731.149 5.30369 -1.31797 0
M  V30 7950 H 728.243 0.810422 -0.164759 0
M  V30 7951 H 730.789 1.34625 -1.03316 0
M  V30 7952 H 729.561 3.29527 -2.11015 0
M  V30 7953 H 729.184 3.94164 -0.521603 0
M  V30 7954 N 730.181 0.707592 1.40822 0
M  V30 7955 C 731.144 0.0587224 2.29125 0
M  V30 7956 C 732.144 -0.695624 1.44975 0
M  V30 7957 O 733.334 -0.528718 1.65983 0
M  V30 7958 C 730.466 -0.926939 3.28056 0
M  V30 7959 H 731.659 0.836349 2.88002 0
M  V30 7960 H 729.212 0.471778 1.4901 0
M  V30 7961 H 729.947 -1.7319 2.74182 0
M  V30 7962 H 729.732 -0.389015 3.90165 0
M  V30 7963 H 731.222 -1.37837 3.94196 0
M  V30 7964 N 731.66 -1.50943 0.453197 0
M  V30 7965 C 732.59 -2.31005 -0.34044 0
M  V30 7966 C 733.571 -1.37112 -1.00669 0
M  V30 7967 O 734.756 -1.66033 -1.0073 0
M  V30 7968 C 731.886 -3.16358 -1.433 0
M  V30 7969 C 730.84 -4.18658 -0.889363 0
M  V30 7970 C 730.166 -4.92633 -2.07887 0
M  V30 7971 C 731.466 -5.22227 0.0871142 0
M  V30 7972 H 733.16 -2.97601 0.327723 0
M  V30 7973 H 730.706 -1.43119 0.159054 0
M  V30 7974 H 732.659 -3.71155 -1.99555 0
M  V30 7975 H 731.383 -2.47613 -2.12968 0
M  V30 7976 H 730.042 -3.64936 -0.348915 0
M  V30 7977 H 729.69 -4.20376 -2.76211 0
M  V30 7978 H 729.39 -5.61819 -1.72143 0
M  V30 7979 H 730.914 -5.50258 -2.64666 0
M  V30 7980 H 732.328 -5.72001 -0.385656 0
M  V30 7981 H 730.725 -5.99032 0.357926 0
M  V30 7982 H 731.795 -4.74077 1.01879 0
M  V30 7983 N 733.138 -0.185124 -1.56509 0
M  V30 7984 C 734.048 0.751908 -2.22224 0
M  V30 7985 C 735.064 1.24244 -1.21817 0
M  V30 7986 O 736.24 1.29169 -1.54523 0
M  V30 7987 C 733.305 1.95837 -2.86092 0
M  V30 7988 C 732.366 1.51337 -4.01741 0
M  V30 7989 C 731.599 2.66233 -4.62554 0
M  V30 7990 O 731.822 3.8346 -4.22273 0
M  V30 7991 O 730.756 2.39517 -5.52191 0
M  V30 7992 H 734.582 0.222304 -3.02885 0
M  V30 7993 H 732.167 0.0437141 -1.49336 0
M  V30 7994 H 734.049 2.66368 -3.26536 0
M  V30 7995 H 732.724 2.47677 -2.08417 0
M  V30 7996 H 731.631 0.777155 -3.65939 0
M  V30 7997 H 732.964 1.04175 -4.81049 0
M  V30 7998 N 734.616 1.57351 0.0885366 0
M  V30 7999 C 735.563 2.02523 1.10693 0
M  V30 8000 C 736.533 0.902736 1.39427 0
M  V30 8001 O 737.718 1.16921 1.50779 0
M  V30 8002 C 734.858 2.46013 2.42016 0
M  V30 8003 C 733.971 3.7181 2.19957 0
M  V30 8004 C 733.106 4.04152 3.44724 0
M  V30 8005 C 732.145 5.2304 3.17956 0
M  V30 8006 N 731.282 5.51102 4.35007 0
M  V30 8007 H 736.122 2.89302 0.714742 0
M  V30 8008 H 733.659 1.43084 0.341378 0
M  V30 8009 H 735.617 2.69274 3.18665 0
M  V30 8010 H 734.247 1.62235 2.79069 0
M  V30 8011 H 733.299 3.55987 1.34079 0
M  V30 8012 H 734.611 4.58604 1.96173 0
M  V30 8013 H 733.765 4.28225 4.29777 0
M  V30 8014 H 732.504 3.15893 3.71568 0
M  V30 8015 H 731.509 4.98781 2.31296 0
M  V30 8016 H 732.734 6.12902 2.92451 0
M  V30 8017 H 730.68 4.65802 4.61914 0
M  V30 8018 H 730.597 6.3228 4.14437 0
M  V30 8019 H 731.865 5.79714 5.21106 0
M  V30 8020 N 736.094 -0.359525 1.53444 0
M  V30 8021 C 737.371 -1.11756 1.6053 0
M  V30 8022 C 737.751 -2.06949 0.416587 0
M  V30 8023 O 737.099 -2.20681 -0.592628 0
M  V30 8024 C 737.309 -1.85133 2.95849 0
M  V30 8025 C 738.657 -2.3945 3.50641 0
M  V30 8026 O 739.681 -1.95251 2.97918 0
M  V30 8027 O 738.54 -3.20266 4.42823 0
M  V30 8028 H 735.634 -0.513005 0.648656 0
M  V30 8029 H 738.18 -0.362301 1.65787 0
M  V30 8030 H 736.952 -1.15694 3.73806 0
M  V30 8031 H 736.575 -2.67554 2.9411 0
M  V30 8032 N 737.572 -1.44907 -0.619662 0
M  V30 8033 C 738.522 -1.49085 -1.72504 0
M  V30 8034 C 739.506 -0.355372 -1.56926 0
M  V30 8035 O 740.698 -0.601441 -1.66468 0
M  V30 8036 C 737.827 -1.44889 -3.11227 0
M  V30 8037 C 736.913 -2.63593 -3.32234 0
M  V30 8038 N 737.304 -3.88775 -3.23555 0
M  V30 8039 C 735.602 -2.59033 -3.63067 0
M  V30 8040 C 736.303 -4.67932 -3.45564 0
M  V30 8041 N 735.279 -3.9919 -3.68983 0
M  V30 8042 H 739.081 -2.43706 -1.6427 0
M  V30 8043 H 736.595 -1.4003 -0.82252 0
M  V30 8044 H 738.592 -1.45966 -3.90512 0
M  V30 8045 H 737.252 -0.513143 -3.2062 0
M  V30 8046 H 738.263 -4.20574 -3.02221 0
M  V30 8047 H 734.94 -1.7431 -3.79371 0
M  V30 8048 H 736.33 -5.76952 -3.44349 0
M  V30 8049 N 739.05 0.861098 -1.31996 0
M  V30 8050 C 740.013 1.95068 -1.20338 0
M  V30 8051 C 741.013 1.60289 -0.128114 0
M  V30 8052 O 742.203 1.70048 -0.378044 0
M  V30 8053 C 739.335 3.30153 -0.849205 0
M  V30 8054 H 740.528 2.06833 -2.17164 0
M  V30 8055 H 738.081 1.05049 -1.15734 0
M  V30 8056 H 738.816 3.24087 0.117508 0
M  V30 8057 H 738.601 3.56771 -1.62655 0
M  V30 8058 H 740.091 4.10025 -0.791782 0
M  V30 8059 N 740.528 1.15101 1.07655 0
M  V30 8060 C 741.775 0.923974 1.80191 0
M  V30 8061 C 742.103 -0.549065 1.86589 0
M  V30 8062 O 741.358 -1.42307 1.3434 0
M  V30 8063 C 741.657 1.47954 3.25337 0
M  V30 8064 C 741.323 2.97253 3.39044 0
M  V30 8065 C 739.985 3.38012 3.42493 0
M  V30 8066 C 742.337 3.93219 3.42094 0
M  V30 8067 C 739.665 4.73384 3.4659 0
M  V30 8068 C 742.017 5.28458 3.47728 0
M  V30 8069 C 740.681 5.68717 3.49453 0
M  V30 8070 H 739.951 0.338106 0.659367 0
M  V30 8071 H 742.598 1.43594 1.26701 0
M  V30 8072 H 740.903 0.888691 3.81588 0
M  V30 8073 H 742.6 1.27972 3.80032 0
M  V30 8074 H 739.19 2.64746 3.37057 0
M  V30 8075 H 743.374 3.62805 3.38654 0
M  V30 8076 H 738.63 5.03925 3.46222 0
M  V30 8077 H 742.804 6.02618 3.49034 0
M  V30 8078 H 740.431 6.73596 3.5238 0
M  V30 8079 N 742.006 -1.2595 0.947325 0
M  V30 8080 C 742.936 -2.28521 0.479604 0
M  V30 8081 C 743.917 -1.63469 -0.470293 0
M  V30 8082 O 745.102 -1.90627 -0.370824 0
M  V30 8083 C 742.232 -3.46397 -0.250289 0
M  V30 8084 C 741.186 -4.23578 0.613643 0
M  V30 8085 C 740.512 -5.34131 -0.246568 0
M  V30 8086 C 741.812 -4.86979 1.88809 0
M  V30 8087 H 743.506 -2.67895 1.33688 0
M  V30 8088 H 741.052 -1.28783 0.644274 0
M  V30 8089 H 743.005 -4.17269 -0.588576 0
M  V30 8090 H 741.729 -3.05993 -1.14175 0
M  V30 8091 H 740.388 -3.54478 0.93491 0
M  V30 8092 H 740.036 -4.89968 -1.13756 0
M  V30 8093 H 739.736 -5.86683 0.328123 0
M  V30 8094 H 741.26 -6.07839 -0.579986 0
M  V30 8095 H 742.674 -5.50034 1.61666 0
M  V30 8096 H 741.071 -5.49675 2.40784 0
M  V30 8097 H 742.141 -4.09575 2.5957 0
M  V30 8098 N 743.484 -0.715051 -1.40445 0
M  V30 8099 C 744.712 -0.263959 -2.05209 0
M  V30 8100 C 745.127 1.09403 -1.53871 0
M  V30 8101 O 744.484 1.68746 -0.695064 0
M  V30 8102 C 744.535 -0.234545 -3.60738 0
M  V30 8103 O 744.256 -1.53891 -4.10182 0
M  V30 8104 C 745.757 0.235164 -4.42676 0
M  V30 8105 H 742.977 -0.11876 -0.660407 0
M  V30 8106 H 745.521 -0.973107 -1.79864 0
M  V30 8107 H 743.676 0.425563 -3.85055 0
M  V30 8108 H 744.09 -1.43903 -5.04373 0
M  V30 8109 H 745.564 0.204598 -5.51621 0
M  V30 8110 H 746.041 1.27724 -4.20218 0
M  V30 8111 H 746.647 -0.394649 -4.23465 0
M  V30 8112 N 744.962 1.50701 -0.461195 0
M  V30 8113 C 746.208 2.02566 0.0973411 0
M  V30 8114 C 746.541 1.3432 1.40257 0
M  V30 8115 O 745.816 0.465692 1.88843 0
M  V30 8116 C 746.099 3.58919 0.291423 0
M  V30 8117 C 745.952 4.37751 -1.03413 0
M  V30 8118 C 747.271 4.27379 1.05048 0
M  V30 8119 H 744.39 0.73622 0.0339026 0
M  V30 8120 H 747.032 1.80115 -0.604855 0
M  V30 8121 H 745.182 3.78179 0.889539 0
M  V30 8122 H 746.854 4.30085 -1.66806 0
M  V30 8123 H 745.097 4.01885 -1.63313 0
M  V30 8124 H 745.768 5.45384 -0.852085 0
M  V30 8125 H 748.244 4.12534 0.543603 0
M  V30 8126 H 747.12 5.36609 1.15506 0
M  V30 8127 H 747.381 3.89868 2.0846 0
M  V30 8128 N 746.441 0.193421 1.56409 0
M  V30 8129 C 747.389 -0.744829 2.20352 0
M  V30 8130 C 748.383 -1.22104 1.17418 0
M  V30 8131 O 749.589 -1.18413 1.35567 0
M  V30 8132 H 745.964 -0.258538 0.70616 0
M  V30 8133 H 747.935 -0.181794 2.97846 0
M  V30 8134 C 746.684 -1.95453 2.87565 0
M  V30 8135 H 746.007 -1.59716 3.66512 0
M  V30 8136 H 747.447 -2.58942 3.35745 0
M  V30 8137 C 745.906 -2.79223 1.8851 0
M  V30 8138 O 746.436 -3.77093 1.38434 0
M  V30 8139 N 744.642 -2.44682 1.56777 0
M  V30 8140 H 744.189 -1.65153 1.97692 0
M  V30 8141 H 744.147 -3.01016 0.907573 0
M  V30 8142 N 747.919 -1.57396 -0.0801906 0
M  V30 8143 C 748.867 -2.04136 -1.11495 0
M  V30 8144 C 749.861 -0.945137 -1.40583 0
M  V30 8145 O 751.067 -1.13028 -1.40088 0
M  V30 8146 H 747.442 -0.65076 -0.37685 0
M  V30 8147 H 749.413 -2.90205 -0.694526 0
M  V30 8148 C 748.162 -2.49399 -2.42272 0
M  V30 8149 H 747.485 -3.33339 -2.20737 0
M  V30 8150 H 748.925 -2.85864 -3.13142 0
M  V30 8151 C 747.384 -1.37341 -3.07635 0
M  V30 8152 O 747.914 -0.710829 -3.95361 0
M  V30 8153 N 746.12 -1.12064 -2.68123 0
M  V30 8154 H 745.667 -1.66126 -1.96875 0
M  V30 8155 H 745.625 -0.372916 -3.12181 0
M  V30 8156 N 749.397 0.351382 -1.53633 0
M  V30 8157 C 750.646 1.08988 -1.69719 0
M  V30 8158 C 750.959 1.90043 -0.462948 0
M  V30 8159 O 752.165 2.66769 -0.504613 0
M  V30 8160 C 750.621 1.98691 -3.00083 0
M  V30 8161 C 750.229 1.22881 -4.30818 0
M  V30 8162 C 751.973 2.72446 -3.25536 0
M  V30 8163 C 749.88 2.11568 -5.52262 0
M  V30 8164 H 748.81 0.410588 -0.632403 0
M  V30 8165 H 751.461 0.349886 -1.80133 0
M  V30 8166 H 749.843 2.76478 -2.83506 0
M  V30 8167 H 751.017 0.500582 -4.58073 0
M  V30 8168 H 749.332 0.60928 -4.11918 0
M  V30 8169 H 751.929 3.39055 -4.13456 0
M  V30 8170 H 752.272 3.38588 -2.42206 0
M  V30 8171 H 752.805 2.01735 -3.42852 0
M  V30 8172 H 749.544 1.4998 -6.38111 0
M  V30 8173 H 749.064 2.82201 -5.29266 0
M  V30 8174 H 750.743 2.70802 -5.87601 0
M  V30 8175 N 750.875 1.45233 0.611969 0
M  V30 8176 C 752.122 1.49021 1.37109 0
M  V30 8177 C 752.45 0.130227 1.94064 0
M  V30 8178 O 751.705 -0.870551 1.75271 0
M  V30 8179 C 752.004 2.51353 2.54079 0
M  V30 8180 C 751.67 3.96178 2.15299 0
M  V30 8181 C 750.332 4.35614 2.04436 0
M  V30 8182 C 752.684 4.87275 1.84966 0
M  V30 8183 C 750.012 5.64047 1.61456 0
M  V30 8184 C 752.364 6.16115 1.43474 0
M  V30 8185 C 751.028 6.54486 1.31167 0
M  V30 8186 H 750.298 0.545307 0.501719 0
M  V30 8187 H 752.945 1.78555 0.692122 0
M  V30 8188 H 751.25 2.15372 3.27295 0
M  V30 8189 H 752.947 2.51523 3.12309 0
M  V30 8190 H 749.537 3.6499 2.24678 0
M  V30 8191 H 753.721 4.57548 1.92258 0
M  V30 8192 H 748.977 5.92575 1.50547 0
M  V30 8193 H 753.151 6.86149 1.19048 0
M  V30 8194 H 750.778 7.53904 0.97637 0
M  V30 8195 N 752.353 -0.854086 1.3245 0
M  V30 8196 C 753.581 -1.64074 1.26045 0
M  V30 8197 C 753.996 -1.8802 -0.171456 0
M  V30 8198 O 753.353 -1.4496 -1.10873 0
M  V30 8199 C 753.404 -2.9997 2.01743 0
M  V30 8200 O 753.125 -2.77084 3.39346 0
M  V30 8201 C 754.626 -3.94414 2.02368 0
M  V30 8202 H 751.846 -0.511015 0.434862 0
M  V30 8203 H 754.39 -1.06494 1.74583 0
M  V30 8204 H 752.545 -3.54193 1.56926 0
M  V30 8205 H 752.959 -3.63514 3.78098 0
M  V30 8206 H 754.433 -4.87032 2.59815 0
M  V30 8207 H 754.91 -4.27427 1.01009 0
M  V30 8208 H 755.516 -3.46127 2.47135 0
M  V30 8209 N 753.831 -1.1567 -1.07043 0
M  V30 8210 C 754.741 -0.870435 -2.17855 0
M  V30 8211 C 755.757 0.154452 -1.73313 0
M  V30 8212 O 756.933 -0.0203759 -2.0139 0
M  V30 8213 C 753.998 -0.367219 -3.4475 0
M  V30 8214 C 753.059 -1.45639 -4.03841 0
M  V30 8215 C 752.292 -0.977092 -5.2468 0
M  V30 8216 O 752.515 0.176127 -5.70128 0
M  V30 8217 O 751.449 -1.76215 -5.75527 0
M  V30 8218 H 755.275 -1.79687 -2.44839 0
M  V30 8219 H 752.86 -0.936064 -1.1644 0
M  V30 8220 H 754.742 -0.0931947 -4.21297 0
M  V30 8221 H 753.417 0.53131 -3.1931 0
M  V30 8222 H 752.324 -1.78406 -3.28819 0
M  V30 8223 H 753.657 -2.32995 -4.3356 0
M  V30 8224 N 755.309 1.25446 -0.953992 0
M  V30 8225 C 756.219 2.29632 -0.480264 0
M  V30 8226 C 757.235 1.68025 0.452071 0
M  V30 8227 O 758.411 1.98703 0.328472 0
M  V30 8228 C 755.476 3.45903 0.234974 0
M  V30 8229 C 754.537 4.22953 -0.735495 0
M  V30 8230 C 753.77 5.33672 -0.0542957 0
M  V30 8231 O 753.993 5.58477 1.16018 0
M  V30 8232 O 752.927 5.9734 -0.739509 0
M  V30 8233 H 756.753 2.72242 -1.34602 0
M  V30 8234 H 754.338 1.30883 -0.720419 0
M  V30 8235 H 756.22 4.16552 0.637341 0
M  V30 8236 H 754.895 3.05296 1.07592 0
M  V30 8237 H 753.802 3.54734 -1.18806 0
M  V30 8238 H 755.135 4.67341 -1.54444 0
M  V30 8239 N 756.787 0.722489 1.40064 0
M  V30 8240 C 757.72 0.0233443 2.28188 0
M  V30 8241 C 758.698 -0.7606 1.43714 0
M  V30 8242 O 759.882 -0.745791 1.73119 0
M  V30 8243 C 757.009 -0.974264 3.24385 0
M  V30 8244 C 756.055 -0.280307 4.25578 0
M  V30 8245 S 756.888 0.996769 5.26141 0
M  V30 8246 C 758.044 0.00143923 6.259 0
M  V30 8247 H 758.277 0.770705 2.87137 0
M  V30 8248 H 755.81 0.513783 1.45601 0
M  V30 8249 H 757.768 -1.5446 3.80332 0
M  V30 8250 H 756.429 -1.69438 2.6448 0
M  V30 8251 H 755.622 -1.03471 4.93264 0
M  V30 8252 H 755.224 0.217657 3.73366 0
M  V30 8253 H 757.516 -0.843126 6.72233 0
M  V30 8254 H 758.459 0.645104 7.05155 0
M  V30 8255 H 758.867 -0.365371 5.63316 0
M  V30 8256 N 758.265 -1.50454 0.469181 0
M  V30 8257 C 759.514 -2.01507 -0.0881425 0
M  V30 8258 C 759.827 -1.35613 -1.40956 0
M  V30 8259 O 761.033 -1.77812 -2.05171 0
M  V30 8260 C 759.489 -3.59301 -0.207596 0
M  V30 8261 C 759.097 -4.34152 1.10527 0
M  V30 8262 C 760.841 -4.18401 -0.716981 0
M  V30 8263 C 758.748 -5.83725 0.949717 0
M  V30 8264 H 757.678 -0.753106 -0.0367156 0
M  V30 8265 H 760.329 -1.73282 0.603788 0
M  V30 8266 H 758.711 -3.84106 -0.963265 0
M  V30 8267 H 759.885 -4.21073 1.87175 0
M  V30 8268 H 758.2 -3.86652 1.54562 0
M  V30 8269 H 760.797 -5.27895 -0.850363 0
M  V30 8270 H 761.14 -3.79657 -1.70782 0
M  V30 8271 H 761.673 -3.97796 -0.0187511 0
M  V30 8272 H 758.412 -6.26938 1.91387 0
M  V30 8273 H 757.932 -5.99383 0.223591 0
M  V30 8274 H 759.611 -6.44065 0.61557 0
M  V30 8275 N 759.743 -0.201713 -1.56304 0
M  V30 8276 C 760.675 0.748466 -2.16635 0
M  V30 8277 C 761.688 1.172 -1.12996 0
M  V30 8278 O 762.877 1.10658 -1.40061 0
M  V30 8279 C 759.977 2.02296 -2.719 0
M  V30 8280 C 759.15 1.75818 -4.00508 0
M  V30 8281 C 758.209 2.87779 -4.40533 0
M  V30 8282 O 757.235 2.57101 -5.07826 0
M  V30 8283 N 758.437 4.16287 -4.04581 0
M  V30 8284 H 761.202 0.232505 -2.98797 0
M  V30 8285 H 758.763 -0.0199822 -1.61888 0
M  V30 8286 H 760.755 2.7635 -2.95657 0
M  V30 8287 H 759.325 2.44996 -1.94154 0
M  V30 8288 H 758.545 0.855095 -3.84814 0
M  V30 8289 H 759.833 1.55532 -4.84445 0
M  V30 8290 H 759.231 4.44061 -3.50466 0
M  V30 8291 H 757.788 4.86946 -4.33274 0
M  V30 8292 N 761.222 1.57436 0.0718424 0
M  V30 8293 C 762.132 2.07039 1.10326 0
M  V30 8294 C 763.148 0.999918 1.424 0
M  V30 8295 O 764.324 1.31462 1.52577 0
M  V30 8296 C 761.389 2.50439 2.39752 0
M  V30 8297 C 760.45 3.71784 2.14651 0
M  V30 8298 C 759.683 4.13104 3.37906 0
M  V30 8299 O 759.906 3.54298 4.47023 0
M  V30 8300 O 758.84 5.05894 3.26121 0
M  V30 8301 H 762.666 2.95239 0.711872 0
M  V30 8302 H 760.251 1.46638 0.28597 0
M  V30 8303 H 762.133 2.78876 3.15921 0
M  V30 8304 H 760.808 1.65368 2.78271 0
M  V30 8305 H 759.715 3.48431 1.36187 0
M  V30 8306 H 761.048 4.57707 1.81012 0
M  V30 8307 N 762.7 -0.34323 1.53817 0
M  V30 8308 C 763.93 -1.10188 1.74763 0
M  V30 8309 C 764.338 -1.82829 0.486856 0
M  V30 8310 O 763.681 -1.75236 -0.551198 0
M  V30 8311 C 763.743 -2.16 2.87375 0
M  V30 8312 C 763.407 -1.62931 4.26969 0
M  V30 8313 C 764.404 -1.08147 5.08528 0
M  V30 8314 C 762.089 -1.67769 4.73454 0
M  V30 8315 C 764.083 -0.589039 6.34672 0
M  V30 8316 C 761.77 -1.18138 5.99572 0
M  V30 8317 C 762.768 -0.637979 6.80014 0
M  V30 8318 O 762.456 -0.149073 8.03762 0
M  V30 8319 H 762.188 -0.33445 0.587469 0
M  V30 8320 H 764.742 -0.401109 2.01445 0
M  V30 8321 H 762.972 -2.89637 2.56218 0
M  V30 8322 H 764.661 -2.77432 2.96287 0
M  V30 8323 H 765.427 -1.03732 4.73777 0
M  V30 8324 H 761.306 -2.09004 4.10899 0
M  V30 8325 H 764.85 -0.164233 6.97407 0
M  V30 8326 H 760.747 -1.22254 6.33817 0
M  V30 8327 H 761.515 -0.266332 8.18067 0
M  V30 8328 N 764.178 -1.45556 -0.604258 0
M  V30 8329 C 765.427 -1.49019 -1.35928 0
M  V30 8330 C 765.74 -0.137409 -1.95117 0
M  V30 8331 O 766.946 -0.0497032 -2.71455 0
M  V30 8332 C 765.402 -2.62477 -2.46239 0
M  V30 8333 C 765.01 -4.04082 -1.93447 0
M  V30 8334 C 766.754 -2.7519 -3.23219 0
M  V30 8335 C 764.661 -5.08917 -3.0126 0
M  V30 8336 H 763.591 -0.554518 -0.510907 0
M  V30 8337 H 766.242 -1.71705 -0.647262 0
M  V30 8338 H 764.624 -2.3308 -3.2014 0
M  V30 8339 H 765.798 -4.43173 -1.26232 0
M  V30 8340 H 764.113 -3.95849 -1.29201 0
M  V30 8341 H 766.71 -3.50683 -4.0364 0
M  V30 8342 H 767.053 -1.81941 -3.74437 0
M  V30 8343 H 767.586 -3.04129 -2.56418 0
M  V30 8344 H 764.325 -6.03886 -2.54955 0
M  V30 8345 H 763.845 -4.74393 -3.67031 0
M  V30 8346 H 765.524 -5.33814 -3.65584 0
M  V30 8347 N 765.656 0.84705 -1.32902 0
M  V30 8348 C 766.603 1.95624 -1.22473 0
M  V30 8349 C 767.573 1.65767 -0.105178 0
M  V30 8350 O 768.758 1.88704 -0.282042 0
M  V30 8351 C 765.898 3.31434 -0.961542 0
M  V30 8352 C 765.011 3.73741 -2.1666 0
M  V30 8353 C 764.146 4.98379 -1.83825 0
M  V30 8354 C 763.185 5.33199 -3.00609 0
M  V30 8355 N 762.322 6.49014 -2.67816 0
M  V30 8356 H 767.162 2.03875 -2.17345 0
M  V30 8357 H 764.699 0.997764 -1.08088 0
M  V30 8358 H 766.657 4.09663 -0.789411 0
M  V30 8359 H 765.287 3.22762 -0.0495938 0
M  V30 8360 H 764.339 2.91102 -2.44875 0
M  V30 8361 H 765.651 3.95462 -3.03993 0
M  V30 8362 H 764.805 5.84336 -1.63208 0
M  V30 8363 H 763.544 4.78611 -0.937172 0
M  V30 8364 H 762.549 4.4575 -3.21849 0
M  V30 8365 H 763.774 5.5492 -3.9146 0
M  V30 8366 H 761.72 6.30748 -1.80258 0
M  V30 8367 H 761.637 6.7079 -3.48679 0
M  V30 8368 H 762.905 7.38103 -2.50647 0
M  V30 8369 N 767.134 1.16236 1.06428 0
M  V30 8370 C 768.381 0.943034 1.79201 0
M  V30 8371 C 768.709 -0.529243 1.87161 0
M  V30 8372 O 767.964 -1.40874 1.35842 0
M  V30 8373 C 768.263 1.51396 3.2375 0
M  V30 8374 C 767.929 3.00833 3.35873 0
M  V30 8375 C 766.591 3.41626 3.38888 0
M  V30 8376 C 768.943 3.96825 3.37904 0
M  V30 8377 C 766.271 4.77033 3.4155 0
M  V30 8378 C 768.623 5.32116 3.42104 0
M  V30 8379 C 767.287 5.72392 3.43401 0
M  V30 8380 H 766.557 0.34508 0.655744 0
M  V30 8381 H 769.204 1.44929 1.25171 0
M  V30 8382 H 767.509 0.929114 3.80624 0
M  V30 8383 H 769.206 1.31996 3.78653 0
M  V30 8384 H 765.796 2.68306 3.3423 0
M  V30 8385 H 769.98 3.66376 3.34787 0
M  V30 8386 H 765.236 5.07569 3.40858 0
M  V30 8387 H 769.41 6.06286 3.42623 0
M  V30 8388 H 767.037 6.77296 3.45216 0
M  V30 8389 N 768.612 -1.24939 0.960631 0
M  V30 8390 C 769.559 -2.25658 0.484459 0
M  V30 8391 C 770.529 -1.59422 -0.466242 0
M  V30 8392 O 771.714 -1.87015 -0.378169 0
M  V30 8393 C 768.854 -3.44359 -0.225958 0
M  V30 8394 C 767.967 -4.25214 0.762682 0
M  V30 8395 C 767.102 -5.31192 0.0290931 0
M  V30 8396 C 766.141 -6.03739 1.00827 0
M  V30 8397 N 765.278 -7.01437 0.305155 0
M  V30 8398 H 770.118 -2.65758 1.34821 0
M  V30 8399 H 767.655 -1.30648 0.675983 0
M  V30 8400 H 769.613 -4.12035 -0.654472 0
M  V30 8401 H 768.243 -3.05118 -1.05371 0
M  V30 8402 H 767.295 -3.57144 1.30966 0
M  V30 8403 H 768.607 -4.75406 1.50964 0
M  V30 8404 H 767.761 -6.04971 -0.457763 0
M  V30 8405 H 766.5 -4.81889 -0.750614 0
M  V30 8406 H 765.505 -5.2877 1.50607 0
M  V30 8407 H 766.73 -6.55131 1.7883 0
M  V30 8408 H 764.676 -6.54415 -0.455704 0
M  V30 8409 H 764.593 -7.49475 0.991104 0
M  V30 8410 H 765.861 -7.79336 -0.159966 0
M  V30 8411 N 770.09 -0.729906 -1.39679 0
M  V30 8412 C 771.506 -0.404951 -1.54377 0
M  V30 8413 C 771.706 1.08476 -1.6981 0
M  V30 8414 O 770.762 1.87087 -1.69572 0
M  V30 8415 C 772.075 -1.18352 -2.76429 0
M  V30 8416 C 773.623 -1.17124 -2.9026 0
M  V30 8417 C 774.098 -1.93227 -4.15244 0
M  V30 8418 N 775.589 -1.90368 -4.22273 0
M  V30 8419 C 776.324 -2.46065 -5.17918 0
M  V30 8420 N 775.82 -3.10378 -6.19385 0
M  V30 8421 N 777.613 -2.36127 -5.10099 0
M  V30 8422 H 769.764 -1.69567 -1.27909 0
M  V30 8423 H 772.027 -0.717527 -0.619564 0
M  V30 8424 H 771.733 -2.23743 -2.71352 0
M  V30 8425 H 771.607 -0.784589 -3.6895 0
M  V30 8426 H 773.994 -0.125478 -2.94833 0
M  V30 8427 H 774.075 -1.60951 -1.98817 0
M  V30 8428 H 773.719 -2.97802 -4.11432 0
M  V30 8429 H 773.649 -1.4681 -5.05722 0
M  V30 8430 H 776.14 -1.4351 -3.4959 0
M  V30 8431 H 776.453 -3.50358 -6.88817 0
M  V30 8432 H 774.798 -3.14467 -6.19787 0
M  V30 8433 H 777.989 -1.85529 -4.29763 0
M  V30 8434 H 778.162 -2.79833 -5.84463 0
M  V30 8435 N 771.568 1.50203 -0.477153 0
M  V30 8436 C 772.478 2.32421 0.319027 0
M  V30 8437 C 773.494 1.43075 0.990233 0
M  V30 8438 O 774.67 1.76123 0.976873 0
M  V30 8439 C 771.735 3.17909 1.38328 0
M  V30 8440 C 770.796 4.23082 0.728036 0
M  V30 8441 C 770.029 5.04484 1.74158 0
M  V30 8442 O 770.252 4.8705 2.96881 0
M  V30 8443 O 769.186 5.8747 1.31006 0
M  V30 8444 H 773.012 3.01638 -0.353281 0
M  V30 8445 H 770.597 1.47478 -0.238891 0
M  V30 8446 H 772.479 3.70937 1.9996 0
M  V30 8447 H 771.154 2.51413 2.03895 0
M  V30 8448 H 770.061 3.7403 0.07261 0
M  V30 8449 H 771.394 4.92065 0.115216 0
M  V30 8450 N 773.046 0.209999 1.56195 0
M  V30 8451 C 773.956 -0.716459 2.23392 0
M  V30 8452 C 774.972 -1.22291 1.23778 0
M  V30 8453 O 776.148 -1.26694 1.56558 0
M  V30 8454 C 773.213 -1.91261 2.89172 0
M  V30 8455 C 772.274 -1.44927 4.04097 0
M  V30 8456 C 771.507 -2.5884 4.66731 0
M  V30 8457 O 771.73 -3.76693 4.2832 0
M  V30 8458 O 770.664 -2.30701 5.55932 0
M  V30 8459 H 774.49 -0.174089 3.03201 0
M  V30 8460 H 772.075 -0.0199505 1.49387 0
M  V30 8461 H 773.957 -2.6114 3.30733 0
M  V30 8462 H 772.632 -2.4433 2.12331 0
M  V30 8463 H 771.539 -0.718839 3.67129 0
M  V30 8464 H 772.872 -0.965084 4.82646 0
M  V30 8465 N 774.524 -1.57472 -0.0634922 0
M  V30 8466 C 775.773 -1.86837 -0.759928 0
M  V30 8467 C 776.086 -0.803823 -1.7832 0
M  V30 8468 O 777.292 -0.985578 -2.52979 0
M  V30 8469 C 775.748 -3.31448 -1.4025 0
M  V30 8470 C 775.356 -4.46052 -0.417368 0
M  V30 8471 C 777.1 -3.70003 -2.08082 0
M  V30 8472 C 775.007 -5.81707 -1.06633 0
M  V30 8473 H 773.937 -0.697009 -0.287567 0
M  V30 8474 H 776.588 -1.83495 -0.0133914 0
M  V30 8475 H 774.97 -3.29427 -2.19759 0
M  V30 8476 H 776.144 -4.5948 0.348503 0
M  V30 8477 H 774.459 -4.16104 0.156955 0
M  V30 8478 H 777.056 -4.68653 -2.57426 0
M  V30 8479 H 777.399 -3.00226 -2.88393 0
M  V30 8480 H 777.932 -3.7405 -1.35394 0
M  V30 8481 H 774.671 -6.54798 -0.303374 0
M  V30 8482 H 774.191 -5.72064 -1.80286 0
M  V30 8483 H 775.87 -6.27317 -1.58376 0
M  V30 8484 N 776.003 0.335068 -1.53997 0
M  V30 8485 C 777.28 1.09188 -1.62288 0
M  V30 8486 C 777.66 2.0626 -0.449458 0
M  V30 8487 O 777.008 2.21596 0.557444 0
M  V30 8488 C 777.218 1.80403 -2.98757 0
M  V30 8489 C 778.566 2.33841 -3.54406 0
M  V30 8490 O 779.59 1.90487 -3.00987 0
M  V30 8491 O 778.449 3.1318 -4.47862 0
M  V30 8492 H 775.543 0.502621 -0.656736 0
M  V30 8493 H 778.089 0.33588 -1.66343 0
M  V30 8494 H 776.861 1.09732 -3.75599 0
M  V30 8495 H 776.484 2.62841 -2.9833 0
M  V30 8496 N 777.481 1.45874 0.596531 0
M  V30 8497 C 778.444 1.54988 1.68853 0
M  V30 8498 C 779.444 0.428302 1.54991 0
M  V30 8499 O 780.634 0.692158 1.59859 0
M  V30 8500 C 777.766 1.457 3.08195 0
M  V30 8501 H 778.959 2.52294 1.62135 0
M  V30 8502 H 776.512 1.33479 0.813206 0
M  V30 8503 H 777.247 0.496204 3.20481 0
M  V30 8504 H 777.032 2.27061 3.19665 0
M  V30 8505 H 778.522 1.55133 3.87716 0
M  V30 8506 N 778.959 -0.83999 1.33349 0
M  V30 8507 C 780.189 -1.62492 1.27593 0
M  V30 8508 C 780.597 -1.88559 -0.155597 0
M  V30 8509 O 779.94 -1.46537 -1.10782 0
M  V30 8510 C 780.002 -2.99984 1.98116 0
M  V30 8511 C 779.666 -2.96892 3.47425 0
M  V30 8512 C 780.663 -2.72688 4.42648 0
M  V30 8513 C 778.348 -3.17063 3.89585 0
M  V30 8514 C 780.342 -2.68681 5.78004 0
M  V30 8515 C 778.029 -3.12682 5.25046 0
M  V30 8516 C 779.027 -2.88522 6.19067 0
M  V30 8517 O 778.715 -2.84042 7.52047 0
M  V30 8518 H 778.447 -0.512358 0.440982 0
M  V30 8519 H 781.001 -1.0545 1.76265 0
M  V30 8520 H 779.231 -3.58875 1.44034 0
M  V30 8521 H 780.92 -3.6084 1.85875 0
M  V30 8522 H 781.686 -2.56856 4.114 0
M  V30 8523 H 777.565 -3.34889 3.16813 0
M  V30 8524 H 781.109 -2.49743 6.51363 0
M  V30 8525 H 777.006 -3.28063 5.55918 0
M  V30 8526 H 777.774 -2.99892 7.61582 0
M  V30 8527 N 780.437 -1.16799 -1.0581 0
M  V30 8528 C 781.385 -0.875111 -2.1551 0
M  V30 8529 C 782.379 0.157781 -1.68664 0
M  V30 8530 O 783.585 0.011297 -1.79996 0
M  V30 8531 H 779.96 -0.26542 -0.703602 0
M  V30 8532 H 781.931 -1.8076 -2.37421 0
M  V30 8533 C 780.68 -0.39802 -3.45414 0
M  V30 8534 H 780.003 -1.18425 -3.81858 0
M  V30 8535 H 781.443 -0.231913 -4.23365 0
M  V30 8536 C 779.902 0.88327 -3.25115 0
M  V30 8537 O 780.432 1.95145 -3.51114 0
M  V30 8538 N 778.638 0.828961 -2.78526 0
M  V30 8539 H 778.185 -0.0405029 -2.57568 0
M  V30 8540 H 778.143 1.68673 -2.65324 0
M  V30 8541 N 781.915 1.24427 -0.967243 0
M  V30 8542 C 782.862 2.25398 -0.496419 0
M  V30 8543 C 783.832 1.59667 0.457781 0
M  V30 8544 O 785.017 1.87213 0.368246 0
M  V30 8545 C 782.157 3.44474 0.207693 0
M  V30 8546 C 781.27 4.24804 -0.785221 0
M  V30 8547 C 780.405 5.31169 -0.0572631 0
M  V30 8548 C 779.444 6.03195 -1.04027 0
M  V30 8549 N 778.581 7.01265 -0.34235 0
M  V30 8550 H 783.421 2.65039 -1.36229 0
M  V30 8551 H 780.958 1.30288 -0.682902 0
M  V30 8552 H 782.916 4.12376 0.632612 0
M  V30 8553 H 781.546 3.05672 1.03752 0
M  V30 8554 H 780.598 3.56445 -1.32858 0
M  V30 8555 H 781.91 4.74599 -1.53483 0
M  V30 8556 H 781.064 6.05205 0.425674 0
M  V30 8557 H 779.803 4.8228 0.725047 0
M  V30 8558 H 778.808 5.27964 -1.53409 0
M  V30 8559 H 780.033 6.54173 -1.82302 0
M  V30 8560 H 777.979 6.54648 0.420993 0
M  V30 8561 H 777.896 7.48939 -1.03084 0
M  V30 8562 H 779.164 7.7941 0.118634 0
M  V30 8563 N 783.393 0.737304 1.3929 0
M  V30 8564 C 784.623 0.296143 2.04467 0
M  V30 8565 C 785.031 -1.0748 1.55707 0
M  V30 8566 O 784.374 -1.69082 0.718123 0
M  V30 8567 C 784.436 0.222161 3.58813 0
M  V30 8568 C 784.1 1.53195 4.30558 0
M  V30 8569 C 785.097 2.47809 4.57041 0
M  V30 8570 C 782.782 1.79688 4.6906 0
M  V30 8571 C 784.776 3.67147 5.21039 0
M  V30 8572 C 782.463 2.99304 5.32785 0
M  V30 8573 C 783.461 3.92855 5.58708 0
M  V30 8574 O 783.149 5.1037 6.2111 0
M  V30 8575 H 782.881 0.126896 0.663983 0
M  V30 8576 H 785.435 1.00242 1.79278 0
M  V30 8577 H 783.665 -0.540239 3.82908 0
M  V30 8578 H 785.354 -0.187311 4.05468 0
M  V30 8579 H 786.12 2.28611 4.2774 0
M  V30 8580 H 781.999 1.07716 4.48239 0
M  V30 8581 H 785.543 4.40183 5.41188 0
M  V30 8582 H 781.44 3.18401 5.61508 0
M  V30 8583 H 782.208 5.10735 6.39603 0
M  V30 8584 N 784.871 -1.49948 0.485112 0
M  V30 8585 C 786.117 -2.02695 -0.0651022 0
M  V30 8586 C 786.45 -1.36534 -1.38102 0
M  V30 8587 O 785.725 -0.495677 -1.88078 0
M  V30 8588 C 786.008 -3.59337 -0.234285 0
M  V30 8589 C 785.861 -4.3605 1.10364 0
M  V30 8590 C 787.18 -4.28996 -0.982351 0
M  V30 8591 H 784.299 -0.736666 -0.0221856 0
M  V30 8592 H 786.941 -1.7913 0.633433 0
M  V30 8593 H 785.091 -3.79546 -0.829262 0
M  V30 8594 H 786.763 -4.27377 1.73627 0
M  V30 8595 H 785.006 -3.99236 1.69686 0
M  V30 8596 H 785.677 -5.43959 0.938743 0
M  V30 8597 H 788.153 -4.13346 -0.477904 0
M  V30 8598 H 787.029 -5.38379 -1.06955 0
M  V30 8599 H 787.29 -3.93135 -2.02231 0
M  V30 8600 N 786.349 -0.21828 -1.56081 0
M  V30 8601 C 787.297 0.709679 -2.21509 0
M  V30 8602 C 788.291 1.20221 -1.19346 0
M  V30 8603 O 789.497 1.16241 -1.37433 0
M  V30 8604 H 785.872 0.247271 -0.710184 0
M  V30 8605 H 787.843 0.134386 -2.98097 0
M  V30 8606 C 786.592 1.90853 -2.90638 0
M  V30 8607 H 785.915 1.53865 -3.69006 0
M  V30 8608 H 787.355 2.53568 -3.39822 0
M  V30 8609 C 785.814 2.76189 -1.92929 0
M  V30 8610 O 786.344 3.74842 -1.44416 0
M  V30 8611 N 784.55 2.42157 -1.6065 0
M  V30 8612 H 784.097 1.61987 -2.00294 0
M  V30 8613 H 784.055 2.99534 -0.955347 0
M  V30 8614 N 787.827 1.57504 0.0551401 0
M  V30 8615 C 788.79 2.03826 1.04821 0
M  V30 8616 C 789.79 0.937968 1.30609 0
M  V30 8617 O 790.98 1.20237 1.2605 0
M  V30 8618 C 788.112 2.43309 2.38775 0
M  V30 8619 H 789.305 2.92802 0.6486 0
M  V30 8620 H 786.858 1.53368 0.301315 0
M  V30 8621 H 787.593 1.5741 2.83536 0
M  V30 8622 H 787.378 3.23615 2.21395 0
M  V30 8623 H 788.868 2.79666 3.10124 0
M  V30 8624 N 789.305 -0.326896 1.54172 0
M  V30 8625 C 790.535 -1.08328 1.75922 0
M  V30 8626 C 790.943 -1.82302 0.50622 0
M  V30 8627 O 790.286 -1.7581 -0.532581 0
M  V30 8628 C 790.348 -2.1294 2.8965 0
M  V30 8629 C 790.012 -1.58394 4.28673 0
M  V30 8630 C 791.009 -1.02747 5.09646 0
M  V30 8631 C 788.694 -1.62737 4.75207 0
M  V30 8632 C 790.688 -0.52169 6.35261 0
M  V30 8633 C 788.375 -1.11772 6.00791 0
M  V30 8634 C 789.373 -0.565819 6.80652 0
M  V30 8635 O 789.061 -0.0638146 8.03875 0
M  V30 8636 H 788.793 -0.3282 0.590983 0
M  V30 8637 H 791.347 -0.37972 2.0186 0
M  V30 8638 H 789.577 -2.86903 2.59275 0
M  V30 8639 H 791.266 -2.74274 2.99213 0
M  V30 8640 H 792.032 -0.987007 4.74851 0
M  V30 8641 H 787.911 -2.04635 4.13093 0
M  V30 8642 H 791.455 -0.0902544 6.97542 0
M  V30 8643 H 787.352 -1.15524 6.35078 0
M  V30 8644 H 788.12 -0.17955 8.18303 0
M  V30 8645 N 790.784 -1.46188 -0.588786 0
M  V30 8646 C 792.061 -1.41659 -1.34878 0
M  V30 8647 C 792.441 -0.0968913 -2.10878 0
M  V30 8648 O 791.789 0.921468 -2.09096 0
M  V30 8649 C 791.999 -2.6424 -2.27988 0
M  V30 8650 C 793.347 -3.1013 -2.90008 0
M  V30 8651 O 794.371 -2.64745 -2.38303 0
M  V30 8652 O 793.23 -3.88944 -3.83908 0
M  V30 8653 H 790.324 -0.563058 -0.605718 0
M  V30 8654 H 792.87 -1.58346 -0.610309 0
M  V30 8655 H 791.642 -3.51853 -1.71217 0
M  V30 8656 H 791.265 -2.49982 -3.09184 0
M  V30 8657 N 792.262 0.832906 -1.33792 0
M  V30 8658 C 793.492 1.61813 -1.28453 0
M  V30 8659 C 793.9 1.88639 0.145595 0
M  V30 8660 O 793.243 1.47122 1.10004 0
M  V30 8661 C 793.305 2.98929 -1.99704 0
M  V30 8662 C 792.969 2.95045 -3.48995 0
M  V30 8663 C 793.966 2.70337 -4.44088 0
M  V30 8664 C 791.651 3.14993 -3.91261 0
M  V30 8665 C 793.645 2.65612 -5.79421 0
M  V30 8666 C 791.332 3.09893 -5.26697 0
M  V30 8667 C 792.33 2.85235 -6.20588 0
M  V30 8668 O 792.018 2.8005 -7.53543 0
M  V30 8669 H 791.75 0.510013 -0.443693 0
M  V30 8670 H 794.304 1.04514 -1.76822 0
M  V30 8671 H 792.534 3.58106 -1.45935 0
M  V30 8672 H 794.223 3.59849 -1.87786 0
M  V30 8673 H 794.989 2.54671 -4.12756 0
M  V30 8674 H 790.868 3.33204 -3.18584 0
M  V30 8675 H 794.412 2.46285 -6.52679 0
M  V30 8676 H 790.309 3.2511 -5.5765 0
M  V30 8677 H 791.077 2.95849 -7.63162 0
M  V30 8678 N 793.74 1.17359 1.05189 0
M  V30 8679 C 794.69 0.858445 2.11222 0
M  V30 8680 C 795.674 -0.166991 1.60031 0
M  V30 8681 O 796.866 0.0354456 1.76965 0
M  V30 8682 C 793.995 0.373549 3.41262 0
M  V30 8683 C 793.081 1.43041 3.99249 0
M  V30 8684 N 793.472 2.64387 4.312 0
M  V30 8685 C 791.77 1.28828 4.26989 0
M  V30 8686 C 792.471 3.32296 4.77446 0
M  V30 8687 N 791.447 2.59674 4.77567 0
M  V30 8688 H 795.249 1.78104 2.33786 0
M  V30 8689 H 792.763 1.0623 1.22837 0
M  V30 8690 H 794.76 0.129331 4.16699 0
M  V30 8691 H 793.42 -0.542847 3.2013 0
M  V30 8692 H 794.431 3.01351 4.21198 0
M  V30 8693 H 791.108 0.43353 4.15243 0
M  V30 8694 H 792.498 4.35939 5.11279 0
M  V30 8695 N 795.218 -1.23913 0.973828 0
M  V30 8696 C 796.148 -2.27453 0.527969 0
M  V30 8697 C 797.129 -1.6443 -0.435513 0
M  V30 8698 O 798.314 -1.9137 -0.330306 0
M  V30 8699 C 795.444 -3.4685 -0.176757 0
M  V30 8700 C 794.398 -4.22181 0.703352 0
M  V30 8701 C 793.724 -5.34534 -0.133215 0
M  V30 8702 C 795.024 -4.82865 1.99096 0
M  V30 8703 H 796.718 -2.65 1.3934 0
M  V30 8704 H 794.264 -1.27388 0.671446 0
M  V30 8705 H 796.217 -4.18424 -0.499934 0
M  V30 8706 H 794.941 -3.08346 -1.07659 0
M  V30 8707 H 793.6 -3.52416 1.00989 0
M  V30 8708 H 793.248 -4.92271 -1.03338 0
M  V30 8709 H 792.948 -5.85855 0.452494 0
M  V30 8710 H 794.472 -6.08933 -0.450924 0
M  V30 8711 H 795.886 -5.46481 1.73297 0
M  V30 8712 H 794.283 -5.44444 2.52389 0
M  V30 8713 H 795.353 -4.03977 2.68199 0
M  V30 8714 N 796.696 -0.74468 -1.38897 0
M  V30 8715 C 797.926 -0.306982 -2.04307 0
M  V30 8716 C 798.334 1.06652 -1.56275 0
M  V30 8717 O 797.677 1.68699 -0.72708 0
M  V30 8718 C 797.739 -0.241186 -3.5869 0
M  V30 8719 C 797.403 -1.55476 -4.2974 0
M  V30 8720 C 798.4 -2.50229 -4.55721 0
M  V30 8721 C 796.085 -1.82173 -4.68101 0
M  V30 8722 C 798.079 -3.69905 -5.19085 0
M  V30 8723 C 795.766 -3.02125 -5.31191 0
M  V30 8724 C 796.764 -3.95812 -5.56616 0
M  V30 8725 O 796.452 -5.13656 -6.18395 0
M  V30 8726 H 796.184 -0.130416 -0.663301 0
M  V30 8727 H 798.738 -1.01192 -1.78744 0
M  V30 8728 H 796.968 0.519925 -3.83189 0
M  V30 8729 H 798.657 0.165806 -4.05561 0
M  V30 8730 H 799.423 -2.30877 -4.26522 0
M  V30 8731 H 795.302 -1.10091 -4.47662 0
M  V30 8732 H 798.846 -4.43047 -5.38846 0
M  V30 8733 H 794.743 -3.21374 -5.59811 0
M  V30 8734 H 795.511 -5.14119 -6.36886 0
M  V30 8735 N 798.174 1.49689 -0.493057 0
M  V30 8736 C 799.404 2.06536 0.0512397 0
M  V30 8737 C 799.812 1.35459 1.32089 0
M  V30 8738 O 799.155 0.424145 1.78736 0
M  V30 8739 C 799.217 3.57452 0.383231 0
M  V30 8740 C 798.881 4.50163 -0.787555 0
M  V30 8741 C 799.878 4.92151 -1.67582 0
M  V30 8742 C 797.563 4.92565 -0.984109 0
M  V30 8743 C 799.557 5.7527 -2.74487 0
M  V30 8744 C 797.244 5.75463 -2.05634 0
M  V30 8745 C 798.242 6.16719 -2.93507 0
M  V30 8746 O 797.93 6.97961 -3.98881 0
M  V30 8747 H 797.662 0.675862 -0.0136516 0
M  V30 8748 H 800.216 1.9356 -0.687298 0
M  V30 8749 H 798.446 3.68408 1.17526 0
M  V30 8750 H 800.135 3.96572 0.8652 0
M  V30 8751 H 800.901 4.60043 -1.53575 0
M  V30 8752 H 796.78 4.5996 -0.309541 0
M  V30 8753 H 800.324 6.07392 -3.43104 0
M  V30 8754 H 796.221 6.06983 -2.19639 0
M  V30 8755 H 796.989 7.16253 -3.96137 0
M  V30 8756 N 799.652 0.226554 1.55963 0
M  V30 8757 C 800.562 -0.692725 2.24139 0
M  V30 8758 C 801.578 -1.20971 1.25068 0
M  V30 8759 O 802.754 -1.25027 1.57893 0
M  V30 8760 C 799.819 -1.88183 2.91184 0
M  V30 8761 C 798.88 -1.40633 4.05612 0
M  V30 8762 C 798.113 -2.53875 4.6945 0
M  V30 8763 O 798.336 -3.72129 4.32292 0
M  V30 8764 O 797.27 -2.24792 5.58348 0
M  V30 8765 H 801.096 -0.141921 3.03368 0
M  V30 8766 H 798.681 -0.0041049 1.49399 0
M  V30 8767 H 800.563 -2.57617 3.33484 0
M  V30 8768 H 799.238 -2.42064 2.14911 0
M  V30 8769 H 798.145 -0.67986 3.67871 0
M  V30 8770 H 799.478 -0.913838 4.83642 0
M  V30 8771 N 801.13 -1.57531 -0.0467866 0
M  V30 8772 C 802.37 -1.90294 -0.746171 0
M  V30 8773 C 802.734 -0.823194 -1.73458 0
M  V30 8774 O 803.935 -1.03463 -2.48091 0
M  V30 8775 C 802.206 -3.28249 -1.41378 0
M  V30 8776 S 803.765 -3.82812 -2.14477 0
M  V30 8777 H 800.583 -0.666496 -0.247598 0
M  V30 8778 H 803.185 -1.955 -0.00135143 0
M  V30 8779 H 801.889 -4.04712 -0.680937 0
M  V30 8780 H 801.42 -3.26302 -2.19751 0
M  V30 8781 H 803.435 -3.60111 -3.41372 0
M  V30 8782 O 802.647 0.18996 -1.60379 0
M  V30 8783 H 803.338 0.828364 -1.75094 0
M  V30 END ATOM
M  V30 BEGIN BOND
M  V30 END BOND
M  V30 END CTAB
M  END
$$$$
